drugbank_target|P46881 Phenylethylamine oxidase (DB02511; DB02537; DB04334; DB06988)
 OpenBabel12092120003D

  0  0  0     0  0            999 V3000
M  V30 BEGIN CTAB
M  V30 COUNTS 9803 9930 0 0 0
M  V30 BEGIN ATOM
M  V30 1 H -0.908 1.98254 -0.117106 0
M  V30 2 N 0 1.576 0 0
M  V30 3 C 0.933 2.03868 1.02534 0
M  V30 4 C 1.911 0.928543 1.3348 0
M  V30 5 O 3.095 1.19667 1.45644 0
M  V30 6 C 0.222 2.43627 2.35294 0
M  V30 7 C -0.732 3.65373 2.2001 0
M  V30 8 S 0.101 5.13292 1.52614 0
M  V30 9 C 1.257 5.56322 2.86805 0
M  V30 10 H 1.49 2.90518 0.631377 0
M  V30 11 H -0.977 1.52953 0.210867 0
M  V30 12 H 0.981 2.67203 3.11629 0
M  V30 13 H -0.358 1.57376 2.7183 0
M  V30 14 H -1.165 3.90944 3.18086 0
M  V30 15 H -1.563 3.418 1.51819 0
M  V30 16 H 0.729 5.58782 3.83104 0
M  V30 17 H 1.672 6.56266 2.65933 0
M  V30 18 H 2.08 4.83886 2.90714 0
M  V30 19 N 1.4781 -0.272755 1.55222 0
M  V30 20 C 2.7061 -1.02255 1.79865 0
M  V30 21 C 3.1211 -1.79924 0.572088 0
M  V30 22 O 2.4781 -1.76638 -0.458842 0
M  V30 23 C 2.5291 -1.98094 3.02392 0
M  V30 24 O 2.2501 -1.23572 4.20311 0
M  V30 25 C 3.7511 -2.84884 3.39641 0
M  V30 26 H 0.9711 -0.302057 0.599168 0
M  V30 27 H 3.5151 -0.303465 2.02236 0
M  V30 28 H 1.6701 -2.65465 2.82147 0
M  V30 29 H 2.0841 -1.88172 4.89583 0
M  V30 30 H 3.5581 -3.47927 4.28545 0
M  V30 31 H 4.0351 -3.54665 2.59055 0
M  V30 32 H 4.6411 -2.23003 3.62146 0
M  V30 33 N 2.9562 -1.48159 -0.537278 0
M  V30 34 C 4.3672 -1.49429 -1.11928 0
M  V30 35 C 4.7182 -0.26 -1.9447 0
M  V30 36 O 3.8432 0.633489 -2.0692 0
M  V30 37 C 4.4382 -2.70758 -2.03656 0
M  V30 38 C 2.9972 -2.74923 -2.57088 0
M  V30 39 C 2.1442 -2.42835 -1.3389 0
M  V30 40 H 5.0952 -1.55381 -0.322886 0
M  V30 41 H 5.1162 -2.48861 -2.87834 0
M  V30 42 H 4.6282 -3.60575 -1.43553 0
M  V30 43 H 2.7292 -1.89296 -3.20933 0
M  V30 44 H 2.8422 -3.76157 -2.9672 0
M  V30 45 H 1.2062 -1.93836 -1.65226 0
M  V30 46 H 1.9892 -3.34884 -0.755504 0
M  V30 47 N 4.4343 0.785586 -1.36625 0
M  V30 48 C 5.6593 1.57963 -1.34397 0
M  V30 49 C 6.0843 1.87964 0.071526 0
M  V30 50 O 5.4423 1.48182 1.0446 0
M  V30 51 C 5.4903 2.87511 -2.17646 0
M  V30 52 O 4.5943 3.81281 -1.57158 0
M  V30 53 H 3.9353 0.479014 -0.459828 0
M  V30 54 H 6.4653 0.973411 -1.79961 0
M  V30 55 H 6.4753 3.36745 -2.30362 0
M  V30 56 H 5.1503 2.65002 -3.20541 0
M  V30 57 H 3.7273 3.39885 -1.53403 0
M  V30 58 N 5.9124 1.20967 1.01018 0
M  V30 59 C 7.1404 1.04956 1.78303 0
M  V30 60 C 7.5554 -0.400915 1.84494 0
M  V30 61 O 6.9124 -1.27826 1.30257 0
M  V30 62 C 6.9634 1.63403 3.22462 0
M  V30 63 O 6.6844 3.02775 3.16637 0
M  V30 64 C 8.1854 1.52432 4.16268 0
M  V30 65 H 5.4054 0.368858 0.560522 0
M  V30 66 H 7.9494 1.60193 1.27116 0
M  V30 67 H 6.1044 1.1227 3.70775 0
M  V30 68 H 6.5184 3.30626 4.07169 0
M  V30 69 H 7.9924 1.98078 5.15237 0
M  V30 70 H 8.4694 0.477875 4.36592 0
M  V30 71 H 9.0754 2.02787 3.73841 0
M  V30 72 N 7.3905 -1.2043 1.01659 0
M  V30 73 C 8.6395 -1.89118 0.701237 0
M  V30 74 C 8.9525 -1.79705 -0.772358 0
M  V30 75 O 10.1585 -2.43528 -1.20026 0
M  V30 76 C 8.6145 -3.39168 1.20388 0
M  V30 77 C 8.2225 -3.57166 2.70438 0
M  V30 78 C 9.9665 -4.1341 0.963953 0
M  V30 79 C 7.8735 -5.01042 3.14183 0
M  V30 80 H 6.8035 -0.708267 0.2586 0
M  V30 81 H 9.4545 -1.36239 1.22927 0
M  V30 82 H 7.8365 -3.91369 0.603824 0
M  V30 83 H 9.0105 -3.15351 3.35992 0
M  V30 84 H 7.3255 -2.96294 2.92572 0
M  V30 85 H 9.9225 -5.19491 1.26621 0
M  V30 86 H 10.2655 -4.16181 -0.099578 0
M  V30 87 H 10.7985 -3.67309 1.52738 0
M  V30 88 H 7.5375 -5.03426 4.19812 0
M  V30 89 H 7.0575 -5.43668 2.53348 0
M  V30 90 H 8.7365 -5.69623 3.0682 0
M  V30 91 N 8.8686 -0.792821 -1.36206 0
M  V30 92 C 9.8006 -0.151469 -2.28699 0
M  V30 93 C 10.8136 0.641262 -1.49638 0
M  V30 94 O 12.0026 0.475885 -1.72039 0
M  V30 95 C 9.1026 0.808424 -3.29117 0
M  V30 96 C 8.2756 0.0650202 -4.37352 0
M  V30 97 C 7.3346 0.941358 -5.17711 0
M  V30 98 O 6.3606 0.397352 -5.67811 0
M  V30 99 N 7.5626 2.2652 -5.3448 0
M  V30 100 H 10.3276 -0.945982 -2.84379 0
M  V30 101 H 7.8886 -0.647032 -1.48409 0
M  V30 102 H 9.8806 1.3986 -3.79765 0
M  V30 103 H 8.4506 1.5038 -2.74052 0
M  V30 104 H 7.6706 -0.706255 -3.87822 0
M  V30 105 H 8.9586 -0.447847 -5.06825 0
M  V30 106 H 8.3566 2.73128 -4.95396 0
M  V30 107 H 6.9136 2.80493 -5.88359 0
M  V30 108 N 10.3467 1.47872 -0.545128 0
M  V30 109 C 11.5747 2.06889 -0.021084 0
M  V30 110 C 11.9897 1.39955 1.2672 0
M  V30 111 O 11.3467 0.492036 1.75742 0
M  V30 112 C 11.3977 3.60996 0.190817 0
M  V30 113 O 11.1187 4.25419 -1.04644 0
M  V30 114 C 12.6197 4.36849 0.753521 0
M  V30 115 H 9.8397 0.669785 -0.0403635 0
M  V30 116 H 12.3837 1.90049 -0.755095 0
M  V30 117 H 10.5387 3.77391 0.87492 0
M  V30 118 H 10.9527 5.17785 -0.836611 0
M  V30 119 H 12.4267 5.45399 0.851139 0
M  V30 120 H 12.9037 4.02306 1.762 0
M  V30 121 H 13.5097 4.25169 0.105503 0
M  V30 122 N 11.8248 0.280983 1.55075 0
M  V30 123 C 12.7878 -0.590896 2.21452 0
M  V30 124 C 13.7878 -1.07682 1.19421 0
M  V30 125 O 14.9778 -0.97605 1.44288 0
M  V30 126 C 12.1098 -1.81587 2.88511 0
M  V30 127 H 13.3028 -0.0112554 2.99898 0
M  V30 128 H 10.8558 0.0316438 1.56268 0
M  V30 129 H 11.5908 -2.43587 2.14093 0
M  V30 130 H 11.3758 -1.4753 3.63287 0
M  V30 131 H 12.8658 -2.43575 3.39206 0
M  V30 132 N 13.3029 -1.57598 0.00835791 0
M  V30 133 C 14.5279 -1.95617 -0.689103 0
M  V30 134 C 14.9529 -0.883753 -1.66046 0
M  V30 135 O 14.3109 0.157352 -1.80616 0
M  V30 136 C 14.3589 -3.32736 -1.38994 0
M  V30 137 O 13.4629 -3.27631 -2.50463 0
M  V30 138 H 12.8039 -0.638379 -0.182668 0
M  V30 139 H 15.3339 -2.045 0.064036 0
M  V30 140 H 15.3439 -3.68494 -1.75147 0
M  V30 141 H 14.0189 -4.1034 -0.677778 0
M  V30 142 H 12.5959 -3.03561 -2.16576 0
M  V30 143 N 14.781 0.264519 -1.55364 0
M  V30 144 C 16.192 0.834936 -1.6699 0
M  V30 145 C 16.543 1.86718 -0.602552 0
M  V30 146 O 15.668 2.14899 0.254425 0
M  V30 147 C 16.263 1.5212 -3.02729 0
M  V30 148 C 14.822 2.03954 -3.16354 0
M  V30 149 C 13.969 0.884498 -2.62815 0
M  V30 150 H 16.92 0.0406869 -1.58648 0
M  V30 151 H 16.941 2.38853 -2.96191 0
M  V30 152 H 16.453 0.769668 -3.80392 0
M  V30 153 H 14.554 2.82041 -2.43482 0
M  V30 154 H 14.667 2.24902 -4.23032 0
M  V30 155 H 13.031 1.2802 -2.20188 0
M  V30 156 H 13.814 0.14634 -3.42988 0
M  V30 157 N 16.2591 1.48442 0.529413 0
M  V30 158 C 17.5061 1.56488 1.28521 0
M  V30 159 C 17.8341 0.239042 1.93025 0
M  V30 160 O 17.0891 -0.770713 1.79885 0
M  V30 161 C 17.3881 2.6523 2.39558 0
M  V30 162 C 17.0541 4.07648 1.92702 0
M  V30 163 C 15.7161 4.46411 1.79641 0
M  V30 164 C 18.0681 4.96896 1.573 0
M  V30 165 C 15.3961 5.72226 1.29514 0
M  V30 166 C 17.7481 6.23202 1.08636 0
M  V30 167 C 16.4121 6.60821 0.941919 0
M  V30 168 H 15.6821 0.572631 0.470292 0
M  V30 169 H 18.3291 1.82161 0.59072 0
M  V30 170 H 16.6341 2.33419 3.14679 0
M  V30 171 H 18.3311 2.68671 2.97686 0
M  V30 172 H 14.9211 3.77036 2.03819 0
M  V30 173 H 19.1051 4.67626 1.66251 0
M  V30 174 H 14.3611 6.00097 1.17019 0
M  V30 175 H 18.5351 6.91753 0.803136 0
M  V30 176 H 16.1621 7.58198 0.5513 0
M  V30 177 N 17.7372 -0.778329 1.37039 0
M  V30 178 C 19.1532 -1.07796 1.17695 0
M  V30 179 C 19.3532 -2.01498 0.00860115 0
M  V30 180 O 18.4092 -2.43901 -0.653352 0
M  V30 181 C 19.7222 -1.68178 2.49272 0
M  V30 182 C 21.2702 -1.80467 2.55735 0
M  V30 183 C 21.7452 -2.44263 3.87427 0
M  V30 184 N 23.2362 -2.51721 3.88833 0
M  V30 185 C 23.9712 -3.01919 4.87476 0
M  V30 186 N 23.4672 -3.5234 5.96513 0
M  V30 187 N 25.2602 -3.00733 4.74885 0
M  V30 188 H 17.4112 -0.156032 2.11826 0
M  V30 189 H 19.6742 -0.131844 0.938787 0
M  V30 190 H 19.3802 -1.06796 3.35093 0
M  V30 191 H 19.2542 -2.67554 2.65885 0
M  V30 192 H 21.6412 -2.40984 1.70325 0
M  V30 193 H 21.7222 -0.798656 2.43013 0
M  V30 194 H 21.3662 -1.84388 4.73248 0
M  V30 195 H 21.2962 -3.45458 3.9745 0
M  V30 196 H 23.7872 -2.1603 3.10063 0
M  V30 197 H 24.1002 -3.89027 6.67741 0
M  V30 198 H 22.4452 -3.50462 6.00168 0
M  V30 199 H 25.6362 -2.60638 3.88826 0
M  V30 200 H 25.8092 -3.39545 5.51918 0
M  V30 201 N 19.2153 -1.21501 -1.00376 0
M  V30 202 C 20.1453 -0.999478 -2.11028 0
M  V30 203 C 21.1263 0.0759671 -1.6993 0
M  V30 204 O 22.3113 -0.0841106 -1.94018 0
M  V30 205 C 19.4413 -0.564709 -3.42678 0
M  V30 206 C 18.3953 -1.58486 -3.97576 0
M  V30 207 C 17.7213 -1.00628 -5.25146 0
M  V30 208 C 19.0213 -2.97204 -4.29496 0
M  V30 209 H 20.7153 -1.92495 -2.29317 0
M  V30 210 H 18.2613 -0.92693 -1.102 0
M  V30 211 H 20.2143 -0.401091 -4.19487 0
M  V30 212 H 18.9383 0.396411 -3.24185 0
M  V30 213 H 17.5973 -1.73606 -3.22888 0
M  V30 214 H 17.2453 -0.0368439 -5.02987 0
M  V30 215 H 16.9453 -1.68771 -5.62841 0
M  V30 216 H 18.4693 -0.854015 -6.04598 0
M  V30 217 H 19.8833 -2.8552 -4.97143 0
M  V30 218 H 18.2803 -3.62372 -4.78338 0
M  V30 219 H 19.3503 -3.47956 -3.3772 0
M  V30 220 N 20.6934 1.19889 -1.02296 0
M  V30 221 C 21.6564 2.21116 -0.603351 0
M  V30 222 C 22.6564 1.5738 0.329884 0
M  V30 223 O 23.8464 1.73802 0.117702 0
M  V30 224 C 20.9784 3.40696 0.117992 0
M  V30 225 H 22.1714 2.59754 -1.49893 0
M  V30 226 H 19.7244 1.33463 -0.813468 0
M  V30 227 H 20.4594 3.07569 1.0282 0
M  V30 228 H 20.2444 3.88188 -0.552511 0
M  V30 229 H 21.7344 4.15692 0.398696 0
M  V30 230 N 22.1715 0.800033 1.35784 0
M  V30 231 C 23.3965 0.388511 2.03729 0
M  V30 232 C 23.8215 -0.990481 1.5991 0
M  V30 233 O 23.1795 -1.64013 0.772612 0
M  V30 234 C 23.2275 0.4726 3.5749 0
M  V30 235 O 22.3315 -0.51646 4.09153 0
M  V30 236 H 21.6725 0.163271 0.643614 0
M  V30 237 H 24.2025 1.0841 1.73518 0
M  V30 238 H 24.2125 0.34003 4.06581 0
M  V30 239 H 22.8875 1.47848 3.88734 0
M  V30 240 H 21.4645 -0.344673 3.71304 0
M  V30 241 N 23.6496 -1.47581 0.552962 0
M  V30 242 C 24.6126 -2.28439 -0.186605 0
M  V30 243 C 25.6126 -1.36706 -0.84665 0
M  V30 244 O 26.8026 -1.59378 -0.703164 0
M  V30 245 C 23.9346 -3.16264 -1.2724 0
M  V30 246 H 25.1276 -2.95294 0.523609 0
M  V30 247 H 22.6806 -1.532 0.309745 0
M  V30 248 H 23.4156 -2.54091 -2.01514 0
M  V30 249 H 23.2006 -3.83769 -0.803968 0
M  V30 250 H 24.6906 -3.77198 -1.79196 0
M  V30 251 N 25.1277 -0.289203 -1.54924 0
M  V30 252 C 26.3757 0.322879 -1.99504 0
M  V30 253 C 26.6967 1.55313 -1.1791 0
M  V30 254 O 25.9667 1.94001 -0.272097 0
M  V30 255 H 24.5467 0.122291 -0.736922 0
M  V30 256 H 27.2087 -0.397802 -1.90797 0
M  V30 257 H 26.3047 0.603061 -3.06218 0
M  V30 258 N 26.6058 1.57591 -0.0167156 0
M  V30 259 C 27.5158 2.1291 0.98521 0
M  V30 260 C 28.5318 1.07834 1.36557 0
M  V30 261 O 29.7078 1.39826 1.44951 0
M  V30 262 C 26.7728 2.63512 2.25305 0
M  V30 263 C 25.8338 3.83256 1.93426 0
M  V30 264 C 25.0668 4.31435 3.14165 0
M  V30 265 O 25.2898 3.78851 4.26413 0
M  V30 266 O 24.2238 5.23416 2.97186 0
M  V30 267 H 28.0498 2.98772 0.544888 0
M  V30 268 H 25.6348 1.48012 0.203141 0
M  V30 269 H 27.5168 2.96183 2.99756 0
M  V30 270 H 26.1918 1.8074 2.68542 0
M  V30 271 H 25.0988 3.55531 1.16398 0
M  V30 272 H 26.4318 4.67153 1.55013 0
M  V30 273 N 28.0839 -0.256276 1.55502 0
M  V30 274 C 29.3329 -0.983486 1.76098 0
M  V30 275 C 29.6459 -1.86837 0.578896 0
M  V30 276 O 30.8519 -2.63163 0.667648 0
M  V30 277 C 29.3079 -1.79868 3.1173 0
M  V30 278 C 28.9159 -0.961648 4.37557 0
M  V30 279 C 30.6599 -2.51919 3.41668 0
M  V30 280 C 28.5669 -1.77219 5.64223 0
M  V30 281 H 27.4969 -0.370936 0.656447 0
M  V30 282 H 30.1479 -0.238492 1.81944 0
M  V30 283 H 28.5299 -2.58527 2.99966 0
M  V30 284 H 29.7039 -0.218048 4.60284 0
M  V30 285 H 28.0189 -0.354913 4.14885 0
M  V30 286 H 30.6159 -3.12998 4.33516 0
M  V30 287 H 30.9589 -3.23059 2.62562 0
M  V30 288 H 31.4919 -1.80278 3.54605 0
M  V30 289 H 28.2309 -1.10471 6.46124 0
M  V30 290 H 27.7509 -2.49132 5.45613 0
M  V30 291 H 29.4299 -2.34169 6.03137 0
M  V30 292 N 29.562 -1.4872 -0.521534 0
M  V30 293 C 30.787 -1.61101 -1.30618 0
M  V30 294 C 31.212 -0.274611 -1.86085 0
M  V30 295 O 30.57 0.754937 -1.64834 0
M  V30 296 C 30.618 -2.66709 -2.4269 0
M  V30 297 O 29.722 -2.24456 -3.45967 0
M  V30 298 H 29.063 -0.539921 -0.386499 0
M  V30 299 H 31.593 -1.94767 -0.626645 0
M  V30 300 H 31.603 -2.88245 -2.88754 0
M  V30 301 H 30.278 -3.63727 -2.01682 0
M  V30 302 H 28.855 -2.13168 -3.05964 0
M  V30 303 N 31.0401 0.771051 -1.3745 0
M  V30 304 C 31.9501 1.91538 -1.35464 0
M  V30 305 C 32.9661 1.72134 -0.254123 0
M  V30 306 O 34.1421 1.95358 -0.489626 0
M  V30 307 C 31.2071 3.26671 -1.16134 0
M  V30 308 C 30.2681 3.58723 -2.35831 0
M  V30 309 C 29.5011 4.87409 -2.17413 0
M  V30 310 O 29.7241 5.58506 -1.15876 0
M  V30 311 O 28.6581 5.18539 -3.05615 0
M  V30 312 H 32.4841 1.96165 -2.31847 0
M  V30 313 H 30.0691 0.9139 -1.18187 0
M  V30 314 H 31.9511 4.07499 -1.07345 0
M  V30 315 H 30.6261 3.22894 -0.228251 0
M  V30 316 H 29.5331 2.78127 -2.50192 0
M  V30 317 H 30.8661 3.67243 -3.27709 0
M  V30 318 N 32.5182 1.22032 0.997298 0
M  V30 319 C 33.7642 1.04376 1.73878 0
M  V30 320 C 34.0972 -0.420716 1.89588 0
M  V30 321 O 33.3722 -1.31202 1.43583 0
M  V30 322 C 33.6552 1.75047 3.14691 0
M  V30 323 C 33.5082 3.29062 3.06656 0
M  V30 324 C 34.8272 1.49928 4.13775 0
M  V30 325 H 31.9462 0.380578 0.631133 0
M  V30 326 H 34.5882 1.50312 1.16217 0
M  V30 327 H 32.7382 1.35996 3.63919 0
M  V30 328 H 34.4102 3.7753 2.65083 0
M  V30 329 H 32.6532 3.58967 2.43568 0
M  V30 330 H 33.3242 3.73683 4.06282 0
M  V30 331 H 35.8002 1.83842 3.73285 0
M  V30 332 H 34.6762 2.01878 5.10428 0
M  V30 333 H 34.9372 0.430929 4.39995 0
M  V30 334 N 33.9963 -1.19345 1.0293 0
M  V30 335 C 34.9283 -2.22036 0.56857 0
M  V30 336 C 35.9413 -1.58865 -0.355779 0
M  V30 337 O 37.1303 -1.77851 -0.152103 0
M  V30 338 C 34.2303 -3.38363 -0.190752 0
M  V30 339 C 33.4033 -4.31118 0.738643 0
M  V30 340 C 32.4623 -5.26194 0.0246497 0
M  V30 341 O 31.4883 -5.65461 0.651354 0
M  V30 342 N 32.6903 -5.66971 -1.24594 0
M  V30 343 H 35.4553 -2.6219 1.45177 0
M  V30 344 H 33.0163 -1.34015 0.908381 0
M  V30 345 H 35.0083 -3.98981 -0.677961 0
M  V30 346 H 33.5783 -2.96994 -0.975366 0
M  V30 347 H 32.7983 -3.68276 1.40593 0
M  V30 348 H 34.0863 -4.90001 1.37029 0
M  V30 349 H 33.4843 -5.37104 -1.77583 0
M  V30 350 H 32.0413 -6.2984 -1.67764 0
M  V30 351 N 35.4744 -0.807222 -1.35358 0
M  V30 352 C 36.7224 -0.387122 -1.98358 0
M  V30 353 C 37.0434 1.04942 -1.64354 0
M  V30 354 O 36.3134 1.72615 -0.926339 0
M  V30 355 H 34.8934 -0.140154 -0.733734 0
M  V30 356 H 37.5554 -1.0332 -1.6526 0
M  V30 357 H 36.6514 -0.493352 -3.08176 0
M  V30 358 N 36.9525 1.47285 -0.560781 0
M  V30 359 C 38.2015 2.01668 -0.035895 0
M  V30 360 C 38.5145 1.44021 1.32353 0
M  V30 361 O 39.7205 1.90088 1.93853 0
M  V30 362 C 38.1765 3.59897 -0.0136659 0
M  V30 363 C 37.7845 4.26536 -1.37006 0
M  V30 364 C 39.5285 4.22017 0.458425 0
M  V30 365 C 37.4355 5.76782 -1.30675 0
M  V30 366 H 36.3655 0.753938 -0.00964879 0
M  V30 367 H 39.0165 1.69243 -0.709166 0
M  V30 368 H 37.3985 3.89301 0.725325 0
M  V30 369 H 38.5725 4.0877 -2.12705 0
M  V30 370 H 36.8875 3.76419 -1.78038 0
M  V30 371 H 39.4845 5.32124 0.524247 0
M  V30 372 H 39.8275 3.89437 1.4712 0
M  V30 373 H 40.3605 3.97159 -0.225818 0
M  V30 374 H 37.0995 6.13988 -2.29564 0
M  V30 375 H 36.6195 5.96875 -0.591622 0
M  V30 376 H 38.2985 6.39063 -1.01033 0
M  V30 377 N 38.4306 0.297415 1.54768 0
M  V30 378 C 39.3606 -0.573494 2.26348 0
M  V30 379 C 40.3416 -1.14085 1.26169 0
M  V30 380 O 41.5266 -1.17086 1.54934 0
M  V30 381 C 38.6566 -1.74716 3.00153 0
M  V30 382 C 37.6106 -1.31032 4.07449 0
M  V30 383 C 36.9366 -2.56887 4.68949 0
M  V30 384 C 38.2366 -0.444183 5.20408 0
M  V30 385 H 39.9306 0.0235131 2.99391 0
M  V30 386 H 37.4766 0.0127488 1.43994 0
M  V30 387 H 39.4296 -2.3625 3.48947 0
M  V30 388 H 38.1536 -2.37035 2.24682 0
M  V30 389 H 36.8126 -0.718066 3.59499 0
M  V30 390 H 36.4606 -3.17512 3.90122 0
M  V30 391 H 36.1606 -2.2836 5.41411 0
M  V30 392 H 37.6846 -3.19229 5.20505 0
M  V30 393 H 39.0986 -0.9651 5.65118 0
M  V30 394 H 37.4956 -0.252846 5.99567 0
M  V30 395 H 38.5656 0.531609 4.81977 0
M  V30 396 N 39.9087 -1.5758 0.0250728 0
M  V30 397 C 41.3247 -1.56124 -0.331282 0
M  V30 398 C 41.5247 -1.03029 -1.73169 0
M  V30 399 O 40.5807 -0.675215 -2.43305 0
M  V30 400 C 41.8937 -3.00139 -0.183584 0
M  V30 401 C 43.4417 -3.11946 -0.256654 0
M  V30 402 C 43.9167 -4.57793 -0.137792 0
M  V30 403 N 45.4077 -4.6279 -0.194904 0
M  V30 404 C 46.1427 -5.7326 -0.126655 0
M  V30 405 N 45.6387 -6.928 -0.00755288 0
M  V30 406 N 47.4317 -5.61811 -0.180348 0
M  V30 407 H 39.5827 -1.90424 0.94087 0
M  V30 408 H 41.8457 -0.875761 0.362968 0
M  V30 409 H 41.5517 -3.4292 0.780927 0
M  V30 410 H 41.4257 -3.64899 -0.955448 0
M  V30 411 H 43.8127 -2.69079 -1.21162 0
M  V30 412 H 43.8937 -2.49915 0.545517 0
M  V30 413 H 43.5377 -5.01339 0.813739 0
M  V30 414 H 43.4677 -5.17798 -0.958775 0
M  V30 415 H 45.9587 -3.76807 -0.287267 0
M  V30 416 H 46.2717 -7.72791 0.0379428 0
M  V30 417 H 44.6167 -6.94995 0.0271731 0
M  V30 418 H 47.8077 -4.6731 -0.271767 0
M  V30 419 H 47.9807 -6.47882 -0.123697 0
M  V30 420 N 41.3868 0.248026 -1.55636 0
M  V30 421 C 42.6148 0.993808 -1.81469 0
M  V30 422 C 43.0298 1.78991 -0.60064 0
M  V30 423 O 42.3868 1.77345 0.430682 0
M  V30 424 C 42.4378 1.93258 -3.05506 0
M  V30 425 O 42.1588 1.16869 -4.22224 0
M  V30 426 C 43.6598 2.79444 -3.4413 0
M  V30 427 H 40.8798 0.292486 -0.603898 0
M  V30 428 H 43.4238 0.271253 -2.02693 0
M  V30 429 H 41.5788 2.60943 -2.86335 0
M  V30 430 H 41.9928 1.80359 -4.92515 0
M  V30 431 H 43.4668 3.41066 -4.34026 0
M  V30 432 H 43.9438 3.50499 -2.64665 0
M  V30 433 H 44.5498 2.17214 -3.65648 0
M  V30 434 N 42.8649 1.48995 0.513639 0
M  V30 435 C 43.8279 1.64229 1.59879 0
M  V30 436 C 44.8279 0.514696 1.5234 0
M  V30 437 O 46.0179 0.78087 1.55718 0
M  V30 438 C 43.1499 1.62783 2.99524 0
M  V30 439 H 44.3429 2.61004 1.47705 0
M  V30 440 H 41.8959 1.37837 0.736936 0
M  V30 441 H 42.6309 0.675461 3.17188 0
M  V30 442 H 42.4159 2.4466 3.06404 0
M  V30 443 H 43.9059 1.76669 3.78388 0
M  V30 444 N 44.343 -0.763751 1.37857 0
M  V30 445 C 45.591 -1.51957 1.33243 0
M  V30 446 C 45.912 -1.94835 -0.0801709 0
M  V30 447 O 45.182 -1.66894 -1.02582 0
M  V30 448 H 43.762 -0.563626 0.49024 0
M  V30 449 H 46.424 -0.908504 1.7243 0
M  V30 450 H 45.52 -2.41523 1.97669 0
M  V30 451 N 45.8211 -1.22559 -0.990812 0
M  V30 452 C 46.7511 -1.0218 -2.09956 0
M  V30 453 C 47.7321 0.0579394 -1.70001 0
M  V30 454 O 48.9171 -0.104684 -1.93918 0
M  V30 455 C 46.0471 -0.601023 -3.4206 0
M  V30 456 C 45.0011 -1.62694 -3.95872 0
M  V30 457 C 44.3271 -1.06193 -5.24049 0
M  V30 458 C 45.6271 -3.01743 -4.2632 0
M  V30 459 H 47.3211 -1.94916 -2.27262 0
M  V30 460 H 44.8671 -0.938566 -1.09211 0
M  V30 461 H 46.8201 -0.445561 -4.19038 0
M  V30 462 H 45.5441 0.362005 -3.24588 0
M  V30 463 H 44.2031 -1.77021 -3.21028 0
M  V30 464 H 43.8511 -0.0901903 -5.02919 0
M  V30 465 H 43.5511 -1.74732 -5.61019 0
M  V30 466 H 45.0751 -0.918092 -6.03658 0
M  V30 467 H 46.4891 -2.90777 -4.94087 0
M  V30 468 H 44.8861 -3.67425 -4.74467 0
M  V30 469 H 45.9561 -3.51518 -3.34011 0
M  V30 470 N 47.2992 1.18797 -1.03562 0
M  V30 471 C 48.2292 2.24472 -0.643019 0
M  V30 472 C 49.2102 1.66433 0.351283 0
M  V30 473 O 50.3952 1.92803 0.232505 0
M  V30 474 C 47.5252 3.473 4.24935e-05 0
M  V30 475 C 46.4792 4.18055 -0.917257 0
M  V30 476 C 45.8052 5.34519 -0.138941 0
M  V30 477 C 47.1052 4.72109 -2.23407 0
M  V30 478 H 48.7992 2.57566 -1.52643 0
M  V30 479 H 46.3452 1.23806 -0.735394 0
M  V30 480 H 48.2982 4.20426 0.286383 0
M  V30 481 H 47.0222 3.13424 0.918299 0
M  V30 482 H 45.6812 3.46821 -1.1879 0
M  V30 483 H 45.3292 4.96891 0.781562 0
M  V30 484 H 45.0292 5.82794 -0.750005 0
M  V30 485 H 46.5532 6.10438 0.1405 0
M  V30 486 H 47.9672 5.36955 -2.00879 0
M  V30 487 H 46.3642 5.30897 -2.79765 0
M  V30 488 H 47.4342 3.89807 -2.88407 0
M  V30 489 N 48.7773 0.814389 1.34928 0
M  V30 490 C 50.0253 0.397636 1.9815 0
M  V30 491 C 50.3463 -1.04069 1.64908 0
M  V30 492 O 49.6163 -1.72121 0.93548 0
M  V30 493 H 48.1963 0.144043 0.732981 0
M  V30 494 H 50.8583 1.04195 1.6471 0
M  V30 495 H 49.9543 0.509688 3.0791 0
M  V30 496 N 50.2554 -1.46986 0.568584 0
M  V30 497 C 51.6664 -1.86188 0.138219 0
M  V30 498 C 52.0174 -1.47388 -1.29504 0
M  V30 499 O 51.1424 -0.88219 -1.97602 0
M  V30 500 C 51.7374 -3.3792 0.244065 0
M  V30 501 C 50.2964 -3.76171 -0.131335 0
M  V30 502 C 49.4434 -2.71027 0.586465 0
M  V30 503 H 52.3944 -1.38342 0.777645 0
M  V30 504 H 52.4154 -3.76729 -0.534351 0
M  V30 505 H 51.9274 -3.66128 1.28731 0
M  V30 506 H 50.0284 -3.5358 -1.17526 0
M  V30 507 H 50.1414 -4.78523 0.235146 0
M  V30 508 H 48.5054 -2.54684 0.0282722 0
M  V30 509 H 49.2884 -3.02077 1.63109 0
M  V30 510 N 51.7335 -0.305618 -1.54608 0
M  V30 511 C 52.6435 0.57778 -2.27374 0
M  V30 512 C 53.6595 1.14451 -1.31061 0
M  V30 513 O 54.8355 1.16831 -1.6405 0
M  V30 514 C 51.9005 1.73123 -3.00382 0
M  V30 515 C 50.9615 1.19812 -4.12242 0
M  V30 516 C 50.1945 2.2966 -4.81759 0
M  V30 517 O 50.4175 3.49651 -4.50666 0
M  V30 518 O 49.3515 1.96091 -5.69062 0
M  V30 519 H 53.1775 -0.012624 -3.03697 0
M  V30 520 H 50.7625 -0.0719184 -1.49227 0
M  V30 521 H 52.6445 2.40315 -3.4616 0
M  V30 522 H 51.3195 2.30815 -2.26949 0
M  V30 523 H 50.2265 0.491798 -3.70853 0
M  V30 524 H 51.5595 0.666566 -4.87666 0
M  V30 525 N 53.2116 1.57565 -0.0334293 0
M  V30 526 C 54.1586 2.10478 0.946981 0
M  V30 527 C 55.1286 1.00787 1.32027 0
M  V30 528 O 56.3136 1.28232 1.41284 0
M  V30 529 C 53.4536 2.63994 2.22263 0
M  V30 530 C 52.5666 3.87709 1.90541 0
M  V30 531 C 51.7016 4.29604 3.12433 0
M  V30 532 C 50.7406 5.46065 2.76549 0
M  V30 533 N 49.8776 5.83096 3.9108 0
M  V30 534 H 54.7176 2.93963 0.488846 0
M  V30 535 H 52.2546 1.45296 0.22969 0
M  V30 536 H 54.2126 2.93114 2.96884 0
M  V30 537 H 52.8426 1.83333 2.65685 0
M  V30 538 H 51.8946 3.65291 1.06144 0
M  V30 539 H 53.2066 4.72403 1.60116 0
M  V30 540 H 52.3606 4.60182 3.9537 0
M  V30 541 H 51.0996 3.43685 3.46023 0
M  V30 542 H 50.1046 5.15176 1.92026 0
M  V30 543 H 51.3296 6.33685 2.44171 0
M  V30 544 H 49.2756 5.00132 4.24504 0
M  V30 545 H 49.1926 6.6244 3.64293 0
M  V30 546 H 50.4606 6.18282 4.74708 0
M  V30 547 N 54.6897 -0.239769 1.55765 0
M  V30 548 C 56.1057 -0.588624 1.48349 0
M  V30 549 C 56.3057 -1.88005 0.72502 0
M  V30 550 O 55.3617 -2.51186 0.257269 0
M  V30 551 C 56.6747 -0.68474 2.928 0
M  V30 552 C 58.2227 -0.77659 3.03213 0
M  V30 553 C 58.6977 -0.904207 4.48986 0
M  V30 554 N 60.1887 -0.968896 4.52953 0
M  V30 555 C 60.9237 -1.08703 5.63002 0
M  V30 556 N 60.4197 -1.17026 6.82845 0
M  V30 557 N 62.2127 -1.12074 5.50814 0
M  V30 558 H 54.3637 0.607911 2.03515 0
M  V30 559 H 56.6267 0.21083 0.924259 0
M  V30 560 H 56.3327 0.194284 3.51163 0
M  V30 561 H 56.2067 -1.55435 3.43686 0
M  V30 562 H 58.5937 -1.64606 2.44926 0
M  V30 563 H 58.6747 0.118315 2.55526 0
M  V30 564 H 58.3187 -0.0392633 5.07885 0
M  V30 565 H 58.2487 -1.81426 4.9436 0
M  V30 566 H 60.7397 -0.915633 3.6664 0
M  V30 567 H 61.0527 -1.25966 7.62465 0
M  V30 568 H 59.3977 -1.13971 6.85591 0
M  V30 569 H 62.5887 -1.05226 4.5612 0
M  V30 570 H 62.7617 -1.20936 6.36615 0
M  V30 571 N 56.1678 -1.49265 -0.50573 0
M  V30 572 C 57.4168 -1.57761 -1.25675 0
M  V30 573 C 57.7298 -0.267371 -1.93764 0
M  V30 574 O 58.9358 -0.230827 -2.70517 0
M  V30 575 C 57.3918 -2.78332 -2.28165 0
M  V30 576 C 56.9998 -4.16096 -1.66037 0
M  V30 577 C 58.7438 -2.96155 -3.04125 0
M  V30 578 C 56.6508 -5.27895 -2.6661 0
M  V30 579 H 55.5808 -0.587391 -0.472745 0
M  V30 580 H 58.2318 -1.75644 -0.53118 0
M  V30 581 H 56.6138 -2.53934 -3.03865 0
M  V30 582 H 57.7878 -4.50612 -0.963622 0
M  V30 583 H 56.1028 -4.03591 -1.02484 0
M  V30 584 H 58.6998 -3.76849 -3.79327 0
M  V30 585 H 59.0428 -2.06534 -3.61455 0
M  V30 586 H 59.5758 -3.2057 -2.35541 0
M  V30 587 H 56.3148 -6.1956 -2.14068 0
M  V30 588 H 55.8348 -4.97839 -3.34539 0
M  V30 589 H 57.5138 -5.57031 -3.29129 0
M  V30 590 N 57.6459 0.756429 -1.3826 0
M  V30 591 C 58.6089 1.85176 -1.35065 0
M  V30 592 C 59.6089 1.58818 -0.251703 0
M  V30 593 O 60.7989 1.66615 -0.508433 0
M  V30 594 C 57.9309 3.22596 -1.10201 0
M  V30 595 H 59.1239 1.89417 -2.3251 0
M  V30 596 H 56.6769 0.95783 -1.23512 0
M  V30 597 H 57.4119 3.24025 -0.133504 0
M  V30 598 H 57.1969 3.43122 -1.89762 0
M  V30 599 H 58.6869 4.02673 -1.10654 0
M  V30 600 N 59.124 1.23083 0.984299 0
M  V30 601 C 60.354 1.08556 1.75781 0
M  V30 602 C 60.762 -0.366171 1.85623 0
M  V30 603 O 60.105 -1.26524 1.33182 0
M  V30 604 C 60.167 1.63208 3.20318 0
M  V30 605 C 59.831 3.11922 3.33997 0
M  V30 606 C 60.828 4.09259 3.2063 0
M  V30 607 C 58.513 3.51552 3.58771 0
M  V30 608 C 60.507 5.4421 3.31835 0
M  V30 609 C 58.194 4.86649 3.69616 0
M  V30 610 C 59.192 5.82787 3.56157 0
M  V30 611 O 58.88 7.15431 3.66626 0
M  V30 612 H 58.612 0.380713 0.5586 0
M  V30 613 H 61.166 1.63321 1.2456 0
M  V30 614 H 59.396 1.0286 3.72769 0
M  V30 615 H 61.085 1.44216 3.79416 0
M  V30 616 H 61.851 3.79984 3.01392 0
M  V30 617 H 57.73 2.77239 3.6832 0
M  V30 618 H 61.274 6.1923 3.21247 0
M  V30 619 H 57.171 5.15601 3.88363 0
M  V30 620 H 57.939 7.23127 3.83445 0
M  V30 621 N 60.6021 -1.18246 1.0419 0
M  V30 622 C 61.5321 -2.24127 0.654914 0
M  V30 623 C 62.5131 -1.66617 -0.342451 0
M  V30 624 O 63.6981 -1.92924 -0.222277 0
M  V30 625 C 60.8281 -3.47295 0.0183757 0
M  V30 626 C 59.7821 -4.17563 0.939414 0
M  V30 627 C 59.1081 -5.34438 0.167286 0
M  V30 628 C 60.4081 -4.70917 2.25908 0
M  V30 629 H 62.1021 -2.56753 1.54007 0
M  V30 630 H 59.6481 -1.23414 0.74195 0
M  V30 631 H 61.6011 -4.20572 -0.264082 0
M  V30 632 H 60.3251 -3.13907 -0.901664 0
M  V30 633 H 58.9841 -3.46186 1.20628 0
M  V30 634 H 58.6321 -4.97298 -0.7552 0
M  V30 635 H 58.3321 -5.82388 0.780901 0
M  V30 636 H 59.8561 -6.10504 -0.108125 0
M  V30 637 H 61.2701 -5.35882 2.03724 0
M  V30 638 H 59.6671 -5.29406 2.82577 0
M  V30 639 H 60.7371 -3.88272 2.9047 0
M  V30 640 N 62.0802 -0.821533 -1.34494 0
M  V30 641 C 63.3282 -0.408139 -1.97936 0
M  V30 642 C 63.6492 1.03193 -1.65457 0
M  V30 643 O 62.9192 1.71622 -0.944595 0
M  V30 644 H 61.4992 -0.147928 -0.732206 0
M  V30 645 H 64.1612 -1.05067 -1.64155 0
M  V30 646 H 63.2572 -0.52601 -3.07635 0
M  V30 647 N 63.5583 1.46682 -0.576371 0
M  V30 648 C 64.8043 2.02712 -0.0596221 0
M  V30 649 C 65.1373 1.44765 1.29448 0
M  V30 650 O 64.4123 0.610355 1.84675 0
M  V30 651 C 64.6953 3.60098 0.0129503 0
M  V30 652 C 64.5483 4.28441 -1.3696 0
M  V30 653 C 65.8673 4.34224 0.71678 0
M  V30 654 H 62.9863 0.736637 -0.0231407 0
M  V30 655 H 65.6283 1.74898 -0.742351 0
M  V30 656 H 63.7783 3.83926 0.594378 0
M  V30 657 H 65.4503 4.15896 -1.9957 0
M  V30 658 H 63.6933 3.8805 -1.93907 0
M  V30 659 H 64.3643 5.3716 -1.27135 0
M  V30 660 H 66.8403 4.15503 0.222908 0
M  V30 661 H 65.7163 5.43936 0.73657 0
M  V30 662 H 65.9773 4.04823 1.77682 0
M  V30 663 N 65.0364 0.313813 1.54444 0
M  V30 664 C 65.9664 -0.549454 2.26943 0
M  V30 665 C 66.9474 -1.12741 1.27372 0
M  V30 666 O 68.1324 -1.15436 1.56167 0
M  V30 667 C 65.2624 -1.71523 3.01989 0
M  V30 668 C 64.2164 -1.26703 4.08816 0
M  V30 669 C 63.5424 -2.51898 4.71647 0
M  V30 670 C 64.8424 -0.388962 5.2085 0
M  V30 671 H 66.5364 0.0552661 2.99349 0
M  V30 672 H 64.0824 0.0280207 1.43973 0
M  V30 673 H 66.0354 -2.32535 3.51433 0
M  V30 674 H 64.7594 -2.34639 2.27183 0
M  V30 675 H 63.4184 -0.679896 3.6024 0
M  V30 676 H 63.0664 -3.13356 3.93468 0
M  V30 677 H 62.7664 -2.22605 5.43802 0
M  V30 678 H 64.2904 -3.1369 5.23861 0
M  V30 679 H 65.7044 -0.905107 5.6611 0
M  V30 680 H 64.1014 -0.18924 5.99802 0
M  V30 681 H 65.1714 0.582699 4.81386 0
M  V30 682 N 66.5145 -1.57545 0.0417849 0
M  V30 683 C 67.7915 -1.83642 -0.673433 0
M  V30 684 C 68.1715 -0.928298 -1.89594 0
M  V30 685 O 67.5195 0.0129955 -2.28496 0
M  V30 686 C 67.7295 -3.33155 -1.03964 0
M  V30 687 C 69.0775 -3.99941 -1.42592 0
M  V30 688 O 70.1015 -3.37725 -1.13226 0
M  V30 689 O 68.9605 -5.09619 -1.9736 0
M  V30 690 H 66.0545 -0.757638 -0.331533 0
M  V30 691 H 68.6005 -1.69554 0.070433 0
M  V30 692 H 67.3725 -3.9093 -0.170098 0
M  V30 693 H 66.9955 -3.52396 -1.84126 0
M  V30 694 N 67.9926 0.231505 -1.5589 0
M  V30 695 C 69.4036 0.799327 -1.68724 0
M  V30 696 C 69.7546 1.85398 -0.642022 0
M  V30 697 O 68.8796 2.1539 0.208784 0
M  V30 698 C 69.4746 1.45664 -3.05888 0
M  V30 699 C 68.0336 1.97197 -3.20609 0
M  V30 700 C 67.1806 0.828552 -2.64632 0
M  V30 701 H 70.1316 0.00702616 -1.58698 0
M  V30 702 H 70.1526 2.32517 -3.01191 0
M  V30 703 H 69.6646 0.688808 -3.81939 0
M  V30 704 H 67.7656 2.76813 -2.4941 0
M  V30 705 H 67.8786 2.15878 -4.27707 0
M  V30 706 H 66.2426 1.23321 -2.22854 0
M  V30 707 H 67.0256 0.0735544 -3.43221 0
M  V30 708 N 69.4707 1.49531 0.497807 0
M  V30 709 C 70.4337 1.65916 1.58128 0
M  V30 710 C 71.4337 0.530825 1.51786 0
M  V30 711 O 72.6237 0.797342 1.54881 0
M  V30 712 C 69.7557 1.65951 2.9778 0
M  V30 713 H 70.9487 2.62556 1.44929 0
M  V30 714 H 68.5017 1.38611 0.722275 0
M  V30 715 H 69.2367 0.709065 3.16453 0
M  V30 716 H 69.0217 2.47897 3.03792 0
M  V30 717 H 70.5117 1.80673 3.76493 0
M  V30 718 N 70.9488 -0.749086 1.3866 0
M  V30 719 C 72.3648 -1.05276 1.19955 0
M  V30 720 C 72.5648 -2.01435 0.05134 0
M  V30 721 O 71.6208 -2.45232 -0.60147 0
M  V30 722 C 72.9338 -1.62853 2.52783 0
M  V30 723 C 74.4818 -1.75002 2.59506 0
M  V30 724 C 74.9568 -2.35991 3.92521 0
M  V30 725 N 76.4478 -2.43416 3.94085 0
M  V30 726 C 77.1828 -2.91511 4.9377 0
M  V30 727 N 76.6788 -3.39608 6.03853 0
M  V30 728 N 78.4718 -2.90592 4.81157 0
M  V30 729 H 70.6228 -0.111066 2.12109 0
M  V30 730 H 72.8858 -0.111901 0.941373 0
M  V30 731 H 72.5918 -0.99664 3.37283 0
M  V30 732 H 72.4658 -2.61854 2.715 0
M  V30 733 H 74.8528 -2.37317 1.75398 0
M  V30 734 H 74.9338 -0.74693 2.44652 0
M  V30 735 H 74.5778 -1.74308 4.77053 0
M  V30 736 H 74.5078 -3.3695 4.04688 0
M  V30 737 H 76.9988 -2.09405 3.14576 0
M  V30 738 H 77.3118 -3.74775 6.75843 0
M  V30 739 H 75.6568 -3.37653 6.07466 0
M  V30 740 H 78.8478 -2.52332 3.94267 0
M  V30 741 H 79.0208 -3.27762 5.58996 0
M  V30 742 N 72.4269 -1.23603 -0.977757 0
M  V30 743 C 73.6749 -1.06759 -1.71601 0
M  V30 744 C 73.9959 0.395929 -1.90938 0
M  V30 745 O 73.2659 1.28356 -1.47992 0
M  V30 746 H 71.8459 -0.392062 -0.635843 0
M  V30 747 H 74.5079 -1.55362 -1.1768 0
M  V30 748 H 73.6039 -1.55763 -2.70452 0
M  V30 749 N 73.905 1.17692 -1.04816 0
M  V30 750 C 74.868 2.19787 -0.650117 0
M  V30 751 C 75.868 1.58044 0.296427 0
M  V30 752 O 77.058 1.74012 0.0808097 0
M  V30 753 C 74.19 3.40869 0.0456987 0
M  V30 754 H 75.383 2.56516 -1.5537 0
M  V30 755 H 72.936 1.31708 -0.841594 0
M  V30 756 H 73.671 3.09681 0.962726 0
M  V30 757 H 73.456 3.86928 -0.634727 0
M  V30 758 H 74.946 4.16445 0.310432 0
M  V30 759 N 75.3831 0.828654 1.34056 0
M  V30 760 C 76.6311 0.41863 1.97717 0
M  V30 761 C 76.9521 -1.02314 1.66002 0
M  V30 762 O 76.2221 -1.71119 0.953683 0
M  V30 763 H 74.8021 0.151809 0.731412 0
M  V30 764 H 77.4641 1.05936 1.63596 0
M  V30 765 H 76.5601 0.542318 3.07352 0
M  V30 766 N 76.8612 -1.46375 0.584142 0
M  V30 767 C 78.0862 -2.07268 0.0740405 0
M  V30 768 C 78.5112 -1.42979 -1.22223 0
M  V30 769 O 77.8692 -0.514092 -1.73859 0
M  V30 770 C 77.9172 -3.60518 -0.0767769 0
M  V30 771 O 77.0212 -3.96533 -1.13292 0
M  V30 772 H 76.3622 -0.660961 0.0634524 0
M  V30 773 H 78.8922 -1.87991 0.807492 0
M  V30 774 H 78.9022 -4.07021 -0.282489 0
M  V30 775 H 77.5772 -4.06702 0.86986 0
M  V30 776 H 76.1542 -3.61738 -0.905553 0
M  V30 777 N 78.3393 -0.321999 -1.54275 0
M  V30 778 C 79.2493 0.553631 -2.27974 0
M  V30 779 C 80.2653 1.13054 -1.32268 0
M  V30 780 O 81.4413 1.15084 -1.6528 0
M  V30 781 C 78.5063 1.69927 -3.02201 0
M  V30 782 C 77.5673 1.15433 -4.1349 0
M  V30 783 C 76.8003 2.24537 -4.84168 0
M  V30 784 O 77.0233 3.44852 -4.5435 0
M  V30 785 O 75.9573 1.90044 -5.7111 0
M  V30 786 H 79.7833 -0.0448345 -3.03667 0
M  V30 787 H 77.3683 -0.0877418 -1.49142 0
M  V30 788 H 79.2503 2.3663 -3.48689 0
M  V30 789 H 77.9253 2.28395 -2.29385 0
M  V30 790 H 76.8323 0.452436 -3.71354 0
M  V30 791 H 78.1653 0.614805 -4.88345 0
M  V30 792 N 79.8174 1.5752 -0.0501392 0
M  V30 793 C 80.7804 2.1037 0.909786 0
M  V30 794 C 81.7804 1.02308 1.24056 0
M  V30 795 O 82.9704 1.28385 1.17741 0
M  V30 796 C 80.1024 2.58708 2.21998 0
M  V30 797 H 81.2954 2.96479 0.451665 0
M  V30 798 H 78.8484 1.55038 0.198248 0
M  V30 799 H 79.5834 1.75989 2.72394 0
M  V30 800 H 79.3684 3.37675 1.99295 0
M  V30 801 H 80.8584 2.99747 2.9076 0
M  V30 802 N 81.2955 -0.223234 1.56011 0
M  V30 803 C 82.2055 -1.29766 1.95443 0
M  V30 804 C 83.2215 -1.51373 0.858028 0
M  V30 805 O 84.3975 -1.64536 1.16146 0
M  V30 806 C 81.4625 -2.62772 2.26167 0
M  V30 807 C 80.5235 -2.49482 3.49367 0
M  V30 808 C 79.7565 -3.76145 3.78616 0
M  V30 809 O 79.9795 -4.79087 3.09568 0
M  V30 810 O 78.9135 -3.73358 4.72109 0
M  V30 811 H 82.7395 -0.99309 2.87004 0
M  V30 812 H 80.3245 -0.425958 1.43199 0
M  V30 813 H 82.2065 -3.41327 2.47131 0
M  V30 814 H 80.8815 -2.92913 1.37781 0
M  V30 815 H 79.7885 -1.69133 3.33684 0
M  V30 816 H 81.1215 -2.2428 4.38131 0
M  V30 817 N 82.7736 -1.49793 -0.48987 0
M  V30 818 C 84.0506 -1.50348 -1.25119 0
M  V30 819 C 84.4306 -0.237466 -2.0976 0
M  V30 820 O 83.7786 0.77981 -2.14782 0
M  V30 821 C 83.9886 -2.78872 -2.09837 0
M  V30 822 C 85.3366 -3.288 -2.68655 0
M  V30 823 O 86.3606 -2.80065 -2.20096 0
M  V30 824 O 85.2196 -4.13707 -3.57083 0
M  V30 825 H 82.3136 -0.602242 -0.566775 0
M  V30 826 H 84.8596 -1.62067 -0.503229 0
M  V30 827 H 83.6316 -3.62499 -1.47343 0
M  V30 828 H 83.2546 -2.70066 -2.91805 0
M  V30 829 N 84.2517 0.741722 -1.39055 0
M  V30 830 C 85.6677 1.04638 -1.20512 0
M  V30 831 C 85.8677 2.01405 -0.0620218 0
M  V30 832 O 84.9237 2.45547 0.588457 0
M  V30 833 C 86.2367 1.6151 -2.53643 0
M  V30 834 C 87.7847 1.73623 -2.6043 0
M  V30 835 C 88.2597 2.33906 -3.93767 0
M  V30 836 N 89.7507 2.41323 -3.9537 0
M  V30 837 C 90.4857 2.88888 -4.95309 0
M  V30 838 N 89.9817 3.36401 -6.05645 0
M  V30 839 N 91.7747 2.88037 -4.82692 0
M  V30 840 H 83.9257 0.0998155 -2.12165 0
M  V30 841 H 86.1887 0.106907 -0.941953 0
M  V30 842 H 85.8947 0.978739 -3.37807 0
M  V30 843 H 85.7687 2.60411 -2.72885 0
M  V30 844 H 88.1557 2.36384 -1.76655 0
M  V30 845 H 88.2367 0.733945 -2.45045 0
M  V30 846 H 87.8807 1.71776 -4.7797 0
M  V30 847 H 87.8107 3.34799 -4.06469 0
M  V30 848 H 90.3017 2.07734 -3.15682 0
M  V30 849 H 90.6147 3.71186 -6.77821 0
M  V30 850 H 88.9597 3.34427 -6.09248 0
M  V30 851 H 92.1507 2.50237 -3.95599 0
M  V30 852 H 92.3237 3.24792 -5.60726 0
M  V30 853 N 85.7298 1.2412 0.971189 0
M  V30 854 C 87.1458 1.00584 1.23916 0
M  V30 855 C 87.3458 -0.287481 1.99439 0
M  V30 856 O 86.4018 -1.00454 2.31658 0
M  V30 857 C 87.7148 2.21864 2.0297 0
M  V30 858 C 89.2628 2.26452 2.16076 0
M  V30 859 C 89.7378 3.47343 2.98524 0
M  V30 860 N 91.2288 3.47639 3.06107 0
M  V30 861 C 91.9638 4.37837 3.70251 0
M  V30 862 N 91.4598 5.38286 4.36142 0
M  V30 863 N 93.2528 4.25558 3.67228 0
M  V30 864 H 85.4038 2.07236 0.465499 0
M  V30 865 H 87.6668 0.909236 0.268315 0
M  V30 866 H 87.3728 3.15771 1.54861 0
M  V30 867 H 87.2468 2.23698 3.03709 0
M  V30 868 H 89.6338 1.33078 2.6339 0
M  V30 869 H 89.7148 2.28645 1.14696 0
M  V30 870 H 89.3588 4.41029 2.51905 0
M  V30 871 H 89.2888 3.42393 4.00093 0
M  V30 872 H 91.7798 2.74966 2.59233 0
M  V30 873 H 92.0928 6.03352 4.82894 0
M  V30 874 H 90.4378 5.42176 4.34822 0
M  V30 875 H 93.6288 3.46322 3.14927 0
M  V30 876 H 93.8018 4.96054 4.16935 0
M  V30 877 N 87.2079 -1.17134 1.05439 0
M  V30 878 C 88.4549 -1.87456 0.765942 0
M  V30 879 C 88.7829 -1.81189 -0.707153 0
M  V30 880 O 88.0379 -1.21633 -1.5331 0
M  V30 881 C 88.3369 -3.36833 1.19491 0
M  V30 882 C 88.0029 -3.63301 2.67063 0
M  V30 883 C 86.6649 -3.70234 3.07376 0
M  V30 884 C 89.0169 -3.74575 3.62413 0
M  V30 885 C 86.3449 -3.85933 4.41896 0
M  V30 886 C 88.6969 -3.91793 4.9667 0
M  V30 887 C 87.3609 -3.96966 5.36633 0
M  V30 888 H 86.6309 -0.685948 0.280278 0
M  V30 889 H 89.2779 -1.38556 1.32192 0
M  V30 890 H 87.5829 -3.87807 0.557969 0
M  V30 891 H 89.2799 -3.89611 0.948893 0
M  V30 892 H 85.8699 -3.58532 2.34846 0
M  V30 893 H 90.0539 -3.68537 3.32406 0
M  V30 894 H 85.3099 -3.88187 4.72357 0
M  V30 895 H 89.4839 -3.99458 5.70444 0
M  V30 896 H 87.1109 -4.08883 6.40874 0
M  V30 897 N 88.686 -0.835752 -1.33615 0
M  V30 898 C 90.102 -0.523139 -1.50783 0
M  V30 899 C 90.302 0.950171 -1.77691 0
M  V30 900 O 89.358 1.73411 -1.83534 0
M  V30 901 C 90.671 -1.39378 -2.66448 0
M  V30 902 C 92.219 -1.39223 -2.80332 0
M  V30 903 C 92.694 -2.24765 -3.99055 0
M  V30 904 N 94.185 -2.22458 -4.06284 0
M  V30 905 C 94.92 -2.85386 -4.97336 0
M  V30 906 N 94.416 -3.57354 -5.93523 0
M  V30 907 N 96.209 -2.74872 -4.90308 0
M  V30 908 H 88.36 -1.78952 -1.14411 0
M  V30 909 H 90.623 -0.763297 -0.562212 0
M  V30 910 H 90.329 -2.44061 -2.53234 0
M  V30 911 H 90.203 -1.0676 -3.61776 0
M  V30 912 H 92.59 -0.353136 -2.92979 0
M  V30 913 H 92.671 -1.75846 -1.85773 0
M  V30 914 H 92.315 -3.28732 -3.87167 0
M  V30 915 H 92.245 -1.85485 -4.92852 0
M  V30 916 H 94.736 -1.70119 -3.37443 0
M  V30 917 H 95.049 -4.02584 -6.59656 0
M  V30 918 H 93.394 -3.61461 -5.93608 0
M  V30 919 H 96.585 -2.18213 -4.14126 0
M  V30 920 H 96.758 -3.24199 -5.61069 0
M  V30 921 N 90.1641 1.46063 -0.591896 0
M  V30 922 C 91.4101 2.02638 -0.0811191 0
M  V30 923 C 91.7431 1.4613 1.27905 0
M  V30 924 O 91.0181 0.629908 1.84017 0
M  V30 925 C 91.3011 3.60091 -0.0252436 0
M  V30 926 C 91.1541 4.26965 -1.41496 0
M  V30 927 C 92.4731 4.3496 0.670685 0
M  V30 928 H 89.5921 0.73635 -0.0309524 0
M  V30 929 H 92.2341 1.741 -0.760859 0
M  V30 930 H 90.3841 3.84535 0.553624 0
M  V30 931 H 92.0561 4.13756 -2.0397 0
M  V30 932 H 90.2991 3.85971 -1.98011 0
M  V30 933 H 90.9701 5.35781 -1.32825 0
M  V30 934 H 93.4461 4.15716 0.178825 0
M  V30 935 H 92.3221 5.44686 0.678837 0
M  V30 936 H 92.5831 4.06685 1.73379 0
M  V30 937 N 91.6422 0.330177 1.54103 0
M  V30 938 C 92.8892 -0.270405 2.00686 0
M  V30 939 C 93.2172 -1.51621 1.21825 0
M  V30 940 O 92.4722 -1.93536 0.29025 0
M  V30 941 C 92.7712 -0.643134 3.51566 0
M  V30 942 C 92.4372 0.504251 4.48072 0
M  V30 943 C 91.0992 0.819163 4.74176 0
M  V30 944 C 93.4512 1.27465 5.05373 0
M  V30 945 C 90.7792 1.90708 5.5484 0
M  V30 946 C 93.1312 2.35271 5.87223 0
M  V30 947 C 91.7952 2.67336 6.11627 0
M  V30 948 H 91.0652 -0.0989482 0.734364 0
M  V30 949 H 93.7122 0.455324 1.86008 0
M  V30 950 H 92.0172 -1.44938 3.64006 0
M  V30 951 H 93.7142 -1.11949 3.85056 0
M  V30 952 H 90.3042 0.248733 4.27878 0
M  V30 953 H 94.4882 1.04462 4.85182 0
M  V30 954 H 89.7442 2.15991 5.71977 0
M  V30 955 H 93.9182 2.95405 6.30641 0
M  V30 956 H 91.5452 3.51763 6.73919 0
M  V30 957 N 93.1203 -1.57491 0.0584922 0
M  V30 958 C 94.3693 -1.92155 -0.613146 0
M  V30 959 C 94.6823 -0.939334 -1.71569 0
M  V30 960 O 95.8883 -1.17829 -2.44599 0
M  V30 961 C 94.3443 -3.41303 -1.14195 0
M  V30 962 C 93.9523 -4.47944 -0.0711265 0
M  V30 963 C 95.6963 -3.84988 -1.78841 0
M  V30 964 C 93.6033 -5.88212 -0.613225 0
M  V30 965 H 92.5333 -0.717162 -0.232796 0
M  V30 966 H 95.1843 -1.83049 0.12857 0
M  V30 967 H 93.5663 -3.45437 -1.93621 0
M  V30 968 H 94.7403 -4.55408 0.702836 0
M  V30 969 H 93.0553 -4.13644 0.478313 0
M  V30 970 H 95.6523 -4.87159 -2.20408 0
M  V30 971 H 95.9953 -3.21632 -2.64308 0
M  V30 972 H 96.5283 -3.83401 -1.06059 0
M  V30 973 H 93.2673 -6.55183 0.203978 0
M  V30 974 H 92.7873 -5.84294 -1.35501 0
M  V30 975 H 94.4663 -6.37687 -1.09383 0
M  V30 976 N 94.5984 0.214957 -1.56127 0
M  V30 977 C 95.5484 1.27006 -1.8935 0
M  V30 978 C 96.5324 1.41969 -0.757202 0
M  V30 979 O 97.7244 1.44673 -1.01973 0
M  V30 980 C 94.8534 2.61911 -2.2194 0
M  V30 981 C 93.9394 2.50822 -3.41978 0
M  V30 982 N 94.3304 2.09391 -4.60423 0
M  V30 983 C 92.6284 2.81765 -3.45723 0
M  V30 984 C 93.3294 2.09712 -5.42582 0
M  V30 985 N 92.3054 2.50454 -4.82466 0
M  V30 986 H 96.1074 0.940734 -2.78437 0
M  V30 987 H 93.6214 0.423492 -1.56781 0
M  V30 988 H 95.6184 3.38096 -2.43919 0
M  V30 989 H 94.2784 2.95684 -1.34169 0
M  V30 990 H 95.2894 1.80416 -4.85459 0
M  V30 991 H 91.9664 3.19865 -2.68314 0
M  V30 992 H 93.3564 1.79748 -6.4741 0
M  V30 993 N 96.0765 1.50051 0.48192 0
M  V30 994 C 97.3535 1.51009 1.2432 0
M  V30 995 C 97.7335 0.248587 2.09631 0
M  V30 996 O 97.0815 -0.768409 2.15192 0
M  V30 997 C 97.2915 2.79981 2.08355 0
M  V30 998 C 98.6395 3.3022 2.66908 0
M  V30 999 O 99.6635 2.81228 2.18607 0
M  V30 1000 O 98.5225 4.15595 3.54884 0
M  V30 1001 H 95.6165 0.605239 0.563573 0
M  V30 1002 H 98.1625 1.62332 0.494627 0
M  V30 1003 H 96.9345 3.63275 1.45419 0
M  V30 1004 H 96.5575 2.7161 2.90368 0
M  V30 1005 N 97.5546 -0.734337 1.39446 0
M  V30 1006 C 98.8006 -1.49613 1.36908 0
M  V30 1007 C 99.1336 -1.94169 -0.0347829 0
M  V30 1008 O 98.4086 -1.66833 -0.999847 0
M  V30 1009 C 98.6916 -2.73534 2.34203 0
M  V30 1010 C 98.5446 -2.34993 3.83534 0
M  V30 1011 C 99.8636 -3.75635 2.29317 0
M  V30 1012 H 96.9826 -0.542714 0.498629 0
M  V30 1013 H 99.6246 -0.839597 1.70443 0
M  V30 1014 H 97.7746 -3.29553 2.05736 0
M  V30 1015 H 99.4466 -1.84601 4.22753 0
M  V30 1016 H 97.6896 -1.67213 4.00278 0
M  V30 1017 H 98.3606 -3.23738 4.47099 0
M  V30 1018 H 100.837 -3.29203 2.54489 0
M  V30 1019 H 99.7126 -4.60008 2.99472 0
M  V30 1020 H 99.9736 -4.22603 1.29842 0
M  V30 1021 N 99.0327 -1.24633 -0.964593 0
M  V30 1022 C 100.258 -1.11596 -1.74818 0
M  V30 1023 C 100.683 0.32723 -1.85232 0
M  V30 1024 O 100.041 1.23695 -1.32549 0
M  V30 1025 C 100.089 -1.76397 -3.1451 0
M  V30 1026 O 99.1927 -1.03685 -3.99153 0
M  V30 1027 H 98.5337 -0.390196 -0.537255 0
M  V30 1028 H 101.064 -1.65002 -1.20977 0
M  V30 1029 H 101.074 -1.8228 -3.65018 0
M  V30 1030 H 99.7487 -2.81401 -3.06246 0
M  V30 1031 H 98.3257 -1.05611 -3.57632 0
M  V30 1032 N 100.511 1.16574 -1.06058 0
M  V30 1033 C 101.759 1.86677 -0.77434 0
M  V30 1034 C 102.08 1.81959 0.701147 0
M  V30 1035 O 101.35 1.2515 1.50713 0
M  V30 1036 H 99.9298 0.691134 -0.283449 0
M  V30 1037 H 102.592 1.41378 -1.34158 0
M  V30 1038 H 101.688 2.92181 -1.09711 0
M  V30 1039 N 101.989 0.842826 1.3317 0
M  V30 1040 C 102.952 0.284065 2.27433 0
M  V30 1041 C 103.952 -0.54948 1.5112 0
M  V30 1042 O 105.142 -0.362699 1.70382 0
M  V30 1043 C 102.274 -0.599384 3.35589 0
M  V30 1044 H 103.467 1.11589 2.78366 0
M  V30 1045 H 101.02 0.616221 1.4364 0
M  V30 1046 H 101.755 -1.45349 2.89904 0
M  V30 1047 H 101.54 -0.00291266 3.921 0
M  V30 1048 H 103.03 -0.983488 4.05854 0
M  V30 1049 N 103.467 -1.45747 0.599634 0
M  V30 1050 C 104.883 -1.57424 0.26264 0
M  V30 1051 C 105.083 -1.59222 -1.23493 0
M  V30 1052 O 104.139 -1.51825 -2.01756 0
M  V30 1053 C 105.452 -2.86061 0.926795 0
M  V30 1054 C 107 -2.99722 0.901967 0
M  V30 1055 C 107.475 -4.31119 1.54598 0
M  V30 1056 N 108.966 -4.37858 1.5111 0
M  V30 1057 C 109.701 -5.3818 1.97863 0
M  V30 1058 N 109.197 -6.45083 2.52666 0
M  V30 1059 N 110.99 -5.29487 1.88679 0
M  V30 1060 H 103.141 -1.42823 1.57211 0
M  V30 1061 H 105.404 -0.68235 0.658105 0
M  V30 1062 H 105.11 -2.90605 1.98095 0
M  V30 1063 H 104.984 -3.74563 0.445238 0
M  V30 1064 H 107.371 -2.9475 -0.143617 0
M  V30 1065 H 107.452 -2.12652 1.42171 0
M  V30 1066 H 107.096 -4.36849 2.59085 0
M  V30 1067 H 107.026 -5.16992 1.00132 0
M  V30 1068 H 109.517 -3.61209 1.11068 0
M  V30 1069 H 109.83 -7.17869 2.86155 0
M  V30 1070 H 108.175 -6.45856 2.56701 0
M  V30 1071 H 111.366 -4.44877 1.4561 0
M  V30 1072 H 111.539 -6.07524 2.25429 0
M  V30 1073 N 104.945 -0.338344 -1.53925 0
M  V30 1074 C 106.356 0.146651 -1.86123 0
M  V30 1075 C 106.707 1.5042 -1.2597 0
M  V30 1076 O 105.832 2.08723 -0.571294 0
M  V30 1077 C 106.427 0.272879 -3.37699 0
M  V30 1078 C 104.986 0.702103 -3.69794 0
M  V30 1079 C 104.133 -0.167304 -2.76795 0
M  V30 1080 H 107.084 -0.558123 -1.48562 0
M  V30 1081 H 107.105 1.10128 -3.64214 0
M  V30 1082 H 106.617 -0.715307 -3.81451 0
M  V30 1083 H 104.718 1.6995 -3.31584 0
M  V30 1084 H 104.831 0.495604 -4.7653 0
M  V30 1085 H 103.195 0.359527 -2.5215 0
M  V30 1086 H 103.978 -1.15253 -3.23375 0
M  V30 1087 N 106.423 1.57458 -0.0668435 0
M  V30 1088 C 107.355 2.09413 0.931601 0
M  V30 1089 C 108.368 1.02522 1.26464 0
M  V30 1090 O 109.557 1.30049 1.22269 0
M  V30 1091 C 106.657 2.53537 2.24882 0
M  V30 1092 C 105.83 3.83944 2.09537 0
M  V30 1093 C 104.889 4.14214 3.2452 0
M  V30 1094 O 103.915 4.83891 2.9973 0
M  V30 1095 N 105.117 3.67367 4.49469 0
M  V30 1096 H 107.882 2.95699 0.488048 0
M  V30 1097 H 105.443 1.61462 0.119009 0
M  V30 1098 H 107.435 2.70853 3.00701 0
M  V30 1099 H 106.005 1.72415 2.60753 0
M  V30 1100 H 105.225 3.76057 1.18215 0
M  V30 1101 H 106.513 4.69312 1.96529 0
M  V30 1102 H 105.911 3.11068 4.72497 0
M  V30 1103 H 104.468 3.89891 5.2233 0
M  V30 1104 N 107.901 -0.206675 1.56239 0
M  V30 1105 C 108.811 -1.27686 1.96808 0
M  V30 1106 C 109.827 -1.50455 0.874035 0
M  V30 1107 O 111.003 -1.63295 1.17884 0
M  V30 1108 C 108.068 -2.60358 2.28942 0
M  V30 1109 C 107.129 -2.45762 3.51994 0
M  V30 1110 C 106.362 -3.72108 3.82585 0
M  V30 1111 O 106.585 -4.75776 3.14631 0
M  V30 1112 O 105.519 -3.6833 4.76043 0
M  V30 1113 H 109.345 -0.962593 2.88041 0
M  V30 1114 H 106.93 -0.410746 1.43643 0
M  V30 1115 H 108.812 -3.38687 2.50737 0
M  V30 1116 H 107.487 -2.91435 1.4088 0
M  V30 1117 H 106.394 -1.65584 3.35459 0
M  V30 1118 H 107.727 -2.19621 4.40486 0
M  V30 1119 N 109.379 -1.50304 -0.473955 0
M  V30 1120 C 110.625 -1.61389 -1.22806 0
M  V30 1121 C 110.958 -0.311955 -1.91678 0
M  V30 1122 O 110.233 0.686384 -1.81986 0
M  V30 1123 C 110.516 -2.79219 -2.27396 0
M  V30 1124 C 110.369 -4.19286 -1.62848 0
M  V30 1125 C 111.688 -2.92614 -3.28732 0
M  V30 1126 H 108.807 -0.587399 -0.445119 0
M  V30 1127 H 111.449 -1.82681 -0.522265 0
M  V30 1128 H 109.599 -2.61195 -2.87592 0
M  V30 1129 H 111.271 -4.48892 -1.06271 0
M  V30 1130 H 109.514 -4.23677 -0.931693 0
M  V30 1131 H 110.185 -4.97655 -2.38838 0
M  V30 1132 H 112.661 -3.09105 -2.78556 0
M  V30 1133 H 111.537 -3.76688 -3.99246 0
M  V30 1134 H 111.798 -2.03107 -3.92683 0
M  V30 1135 N 110.857 0.726932 -1.39834 0
M  V30 1136 C 112.085 1.51613 -1.40787 0
M  V30 1137 C 112.5 1.88799 -0.00451505 0
M  V30 1138 O 111.857 1.54662 0.968809 0
M  V30 1139 C 111.908 2.79863 -2.28821 0
M  V30 1140 O 111.629 2.44253 -3.63692 0
M  V30 1141 C 113.13 3.73837 -2.38245 0
M  V30 1142 H 110.35 0.468264 -0.480593 0
M  V30 1143 H 112.894 0.897607 -1.83748 0
M  V30 1144 H 111.049 3.38027 -1.89252 0
M  V30 1145 H 111.463 3.26695 -4.1033 0
M  V30 1146 H 112.937 4.60699 -3.04073 0
M  V30 1147 H 113.414 4.16153 -1.40403 0
M  V30 1148 H 114.02 3.21589 -2.78317 0
M  V30 1149 N 112.336 1.25143 0.95797 0
M  V30 1150 C 113.582 1.09855 1.70469 0
M  V30 1151 C 113.915 -0.360187 1.90831 0
M  V30 1152 O 113.19 -1.26568 1.47685 0
M  V30 1153 C 113.473 1.8497 3.08963 0
M  V30 1154 C 113.326 3.38652 2.96032 0
M  V30 1155 C 114.645 1.63016 4.08795 0
M  V30 1156 H 111.764 0.400465 0.618706 0
M  V30 1157 H 114.406 1.53933 1.11376 0
M  V30 1158 H 112.556 1.47505 3.59409 0
M  V30 1159 H 114.228 3.85772 2.52938 0
M  V30 1160 H 112.471 3.66534 2.32025 0
M  V30 1161 H 113.142 3.8642 3.94187 0
M  V30 1162 H 115.618 1.95625 3.67247 0
M  V30 1163 H 114.494 2.18015 5.03747 0
M  V30 1164 H 114.755 0.570692 4.38401 0
M  V30 1165 N 113.814 -1.1601 1.06675 0
M  V30 1166 C 115.039 -1.91068 0.806706 0
M  V30 1167 C 115.464 -1.77112 -0.633485 0
M  V30 1168 O 114.822 -1.09908 -1.44187 0
M  V30 1169 C 114.87 -3.39655 1.21106 0
M  V30 1170 O 113.974 -4.10893 0.352189 0
M  V30 1171 H 113.315 -0.595125 0.294486 0
M  V30 1172 H 115.845 -1.46955 1.42356 0
M  V30 1173 H 115.855 -3.90434 1.18428 0
M  V30 1174 H 114.53 -3.49132 2.26008 0
M  V30 1175 H 113.107 -3.70285 0.440868 0
M  V30 1176 N 115.292 -0.849877 -1.32721 0
M  V30 1177 C 116.538 -0.451591 -1.97708 0
M  V30 1178 C 116.871 0.989175 -1.6712 0
M  V30 1179 O 116.146 1.69334 -0.956891 0
M  V30 1180 C 116.429 -0.685598 -3.53513 0
M  V30 1181 C 116.282 -2.17444 -3.93749 0
M  V30 1182 C 117.601 -0.138874 -4.39881 0
M  V30 1183 H 114.72 -0.16555 -0.718166 0
M  V30 1184 H 117.362 -1.06742 -1.57182 0
M  V30 1185 H 115.512 -0.161416 -3.88165 0
M  V30 1186 H 117.184 -2.76433 -3.693 0
M  V30 1187 H 115.427 -2.65476 -3.43081 0
M  V30 1188 H 116.098 -2.28888 -5.02309 0
M  V30 1189 H 118.574 -0.587068 -4.11938 0
M  V30 1190 H 117.45 -0.332213 -5.47894 0
M  V30 1191 H 117.711 0.95806 -4.31594 0
M  V30 1192 N 116.77 1.45427 -0.607355 0
M  V30 1193 C 117.998 2.06614 -0.108814 0
M  V30 1194 C 118.413 1.45204 1.2067 0
M  V30 1195 O 117.77 0.566132 1.73497 0
M  V30 1196 C 117.821 3.61481 0.0375347 0
M  V30 1197 O 117.542 4.20598 -1.22593 0
M  V30 1198 C 119.043 4.39652 0.567561 0
M  V30 1199 H 116.263 0.66747 -0.0687351 0
M  V30 1200 H 118.807 1.86675 -0.835022 0
M  V30 1201 H 116.962 3.80762 0.714068 0
M  V30 1202 H 117.376 5.1377 -1.05547 0
M  V30 1203 H 118.85 5.48518 0.61905 0
M  V30 1204 H 119.327 4.09417 1.58978 0
M  V30 1205 H 119.933 4.25234 -0.0749202 0
M  V30 1206 N 118.248 0.346503 1.53744 0
M  V30 1207 C 119.196 -0.52422 2.26616 0
M  V30 1208 C 120.19 -1.09948 1.28871 0
M  V30 1209 O 121.396 -1.04488 1.46568 0
M  V30 1210 H 117.771 -0.187743 0.728187 0
M  V30 1211 H 119.742 0.11239 2.98188 0
M  V30 1212 C 118.491 -1.66186 3.05414 0
M  V30 1213 H 117.814 -1.22848 3.80458 0
M  V30 1214 H 119.254 -2.24622 3.59612 0
M  V30 1215 C 117.713 -2.59302 2.1509 0
M  V30 1216 O 118.243 -3.61628 1.74895 0
M  V30 1217 N 116.449 -2.28055 1.8011 0
M  V30 1218 H 115.996 -1.44883 2.12994 0
M  V30 1219 H 115.954 -2.90615 1.19958 0
M  V30 1220 N 119.726 -1.57421 0.075193 0
M  V30 1221 C 120.974 -1.93236 -0.591974 0
M  V30 1222 C 121.295 -0.956241 -1.69944 0
M  V30 1223 O 120.565 -0.00494792 -1.95899 0
M  V30 1224 H 119.145 -0.713355 -0.22166 0
M  V30 1225 H 121.807 -1.9444 0.133848 0
M  V30 1226 H 120.903 -2.95131 -1.01509 0
M  V30 1227 N 121.204 0.198386 -1.56346 0
M  V30 1228 C 122.432 0.935572 -1.84539 0
M  V30 1229 C 122.847 1.76989 -0.657281 0
M  V30 1230 O 122.204 1.78626 0.374043 0
M  V30 1231 C 122.255 1.8344 -3.11499 0
M  V30 1232 O 121.976 1.03377 -4.25728 0
M  V30 1233 C 123.477 2.68355 -3.52846 0
M  V30 1234 H 120.697 0.273126 -0.612897 0
M  V30 1235 H 123.241 0.20663 -2.03453 0
M  V30 1236 H 121.396 2.51701 -2.94492 0
M  V30 1237 H 121.81 1.64599 -4.98003 0
M  V30 1238 H 123.284 3.27085 -4.44657 0
M  V30 1239 H 123.761 3.41901 -2.75681 0
M  V30 1240 H 124.367 2.05471 -3.72373 0
M  V30 1241 N 122.682 1.50554 0.465978 0
M  V30 1242 C 123.928 1.62038 1.21949 0
M  V30 1243 C 124.261 0.322116 1.9151 0
M  V30 1244 O 123.536 -0.676723 1.82348 0
M  V30 1245 C 123.819 2.80421 2.25912 0
M  V30 1246 C 123.672 4.20144 1.60622 0
M  V30 1247 C 124.991 2.94354 3.27176 0
M  V30 1248 H 122.11 0.589752 0.441998 0
M  V30 1249 H 124.752 1.82956 0.51257 0
M  V30 1250 H 122.902 2.62717 2.86203 0
M  V30 1251 H 124.574 4.49449 1.03889 0
M  V30 1252 H 122.817 4.24165 0.909211 0
M  V30 1253 H 123.488 4.98914 2.36196 0
M  V30 1254 H 125.964 3.10578 2.76913 0
M  V30 1255 H 124.84 3.788 3.97242 0
M  V30 1256 H 125.101 2.05186 3.916 0
M  V30 1257 N 124.16 -0.719506 1.40217 0
M  V30 1258 C 125.409 -1.47486 1.37589 0
M  V30 1259 C 125.722 -1.9559 -0.0201568 0
M  V30 1260 O 126.928 -2.70973 -0.169049 0
M  V30 1261 C 125.384 -2.66575 2.41796 0
M  V30 1262 C 124.992 -2.25358 3.87192 0
M  V30 1263 C 126.736 -3.4433 2.48269 0
M  V30 1264 C 124.643 -3.41262 4.83005 0
M  V30 1265 H 123.573 -0.553901 0.511576 0
M  V30 1266 H 126.224 -0.783427 1.65936 0
M  V30 1267 H 124.606 -3.3787 2.06543 0
M  V30 1268 H 125.78 -1.61509 4.31569 0
M  V30 1269 H 124.095 -1.60657 3.84159 0
M  V30 1270 H 126.692 -4.30569 3.17041 0
M  V30 1271 H 127.035 -3.87872 1.51198 0
M  V30 1272 H 127.568 -2.80076 2.82493 0
M  V30 1273 H 124.307 -3.02755 5.81394 0
M  V30 1274 H 123.827 -4.0404 4.43297 0
M  V30 1275 H 125.506 -4.07383 5.02641 0
M  V30 1276 N 125.638 -1.25649 -0.95132 0
M  V30 1277 C 126.863 -1.13443 -1.73624 0
M  V30 1278 C 127.288 0.307565 -1.85568 0
M  V30 1279 O 126.646 1.22282 -1.33854 0
M  V30 1280 C 126.694 -1.79723 -3.12621 0
M  V30 1281 O 125.798 -1.07912 -3.98031 0
M  V30 1282 H 125.139 -0.395872 -0.533086 0
M  V30 1283 H 127.669 -1.66276 -1.1922 0
M  V30 1284 H 127.679 -1.86141 -3.63064 0
M  V30 1285 H 126.354 -2.84633 -3.03244 0
M  V30 1286 H 124.931 -1.09398 -3.56492 0
M  V30 1287 N 127.117 1.15442 -1.07289 0
M  V30 1288 C 128.08 2.18358 -0.696591 0
M  V30 1289 C 129.08 1.58637 0.262837 0
M  V30 1290 O 130.27 1.74145 0.0438809 0
M  V30 1291 C 127.402 3.4089 -0.0266151 0
M  V30 1292 H 128.595 2.53162 -1.60776 0
M  V30 1293 H 126.148 1.29893 -0.869342 0
M  V30 1294 H 126.883 3.11653 0.896822 0
M  V30 1295 H 126.668 3.85495 -0.716657 0
M  V30 1296 H 128.158 4.17009 0.222028 0
M  V30 1297 N 128.595 0.856903 1.32268 0
M  V30 1298 C 129.841 0.462069 1.97466 0
M  V30 1299 C 130.174 -0.980298 1.67642 0
M  V30 1300 O 129.449 -1.68824 0.965858 0
M  V30 1301 C 129.732 0.704336 3.53145 0
M  V30 1302 C 129.585 2.19529 3.9259 0
M  V30 1303 C 130.904 0.1622 4.39801 0
M  V30 1304 H 128.023 0.169357 0.717278 0
M  V30 1305 H 130.665 1.07574 1.56614 0
M  V30 1306 H 128.815 0.181999 3.88073 0
M  V30 1307 H 130.487 2.78387 3.67829 0
M  V30 1308 H 128.73 2.67292 3.41668 0
M  V30 1309 H 129.401 2.31549 5.01088 0
M  V30 1310 H 131.877 0.608905 4.11621 0
M  V30 1311 H 130.753 0.361265 5.4771 0
M  V30 1312 H 131.014 -0.935158 4.32096 0
M  V30 1313 N 130.073 -1.45103 0.615059 0
M  V30 1314 C 130.983 -2.34382 -0.101034 0
M  V30 1315 C 131.999 -1.51681 -0.852585 0
M  V30 1316 O 133.175 -1.8446 -0.808484 0
M  V30 1317 C 130.24 -3.29417 -1.08099 0
M  V30 1318 C 129.301 -4.28025 -0.330577 0
M  V30 1319 C 128.534 -5.1852 -1.26385 0
M  V30 1320 O 128.757 -5.12598 -2.50198 0
M  V30 1321 O 127.691 -5.97122 -0.756866 0
M  V30 1322 H 131.517 -2.97033 0.632855 0
M  V30 1323 H 129.102 -1.4461 0.375293 0
M  V30 1324 H 130.984 -3.87958 -1.6452 0
M  V30 1325 H 129.659 -2.69321 -1.79577 0
M  V30 1326 H 128.566 -3.73078 0.276283 0
M  V30 1327 H 129.899 -4.90997 0.343866 0
M  V30 1328 N 131.551 -0.354651 -1.53558 0
M  V30 1329 C 132.481 0.489091 -2.2832 0
M  V30 1330 C 133.462 1.09324 -1.30316 0
M  V30 1331 O 134.647 1.11255 -1.59173 0
M  V30 1332 C 131.777 1.63456 -3.0643 0
M  V30 1333 C 130.731 1.1582 -4.12031 0
M  V30 1334 C 130.057 2.39305 -4.7816 0
M  V30 1335 C 131.357 0.250731 -5.21698 0
M  V30 1336 H 133.051 -0.134614 -2.99097 0
M  V30 1337 H 130.597 -0.0661826 -1.43848 0
M  V30 1338 H 132.55 2.23136 -3.57475 0
M  V30 1339 H 131.274 2.28533 -2.33325 0
M  V30 1340 H 129.933 0.584146 -3.61916 0
M  V30 1341 H 129.581 3.02814 -4.01637 0
M  V30 1342 H 129.281 2.08109 -5.49513 0
M  V30 1343 H 130.805 2.99691 -5.31994 0
M  V30 1344 H 132.219 0.754695 -5.68311 0
M  V30 1345 H 130.616 0.0301468 -6.00092 0
M  V30 1346 H 131.686 -0.710125 -4.79672 0
M  V30 1347 N 133.029 1.57378 -0.0835403 0
M  V30 1348 C 134.306 1.85363 0.624507 0
M  V30 1349 C 134.686 0.978239 1.87066 0
M  V30 1350 O 134.034 0.0475908 2.2845 0
M  V30 1351 C 134.244 3.35795 0.950947 0
M  V30 1352 C 135.592 4.03581 1.31939 0
M  V30 1353 O 136.616 3.40609 1.04232 0
M  V30 1354 O 135.475 5.14672 1.83779 0
M  V30 1355 H 132.569 0.766162 0.311329 0
M  V30 1356 H 135.115 1.69307 -0.115362 0
M  V30 1357 H 133.887 3.91244 0.0663899 0
M  V30 1358 H 133.51 3.57154 1.74719 0
M  V30 1359 N 134.507 -0.190092 1.56449 0
M  V30 1360 C 135.735 -0.925772 1.85033 0
M  V30 1361 C 136.15 -1.76638 0.666658 0
M  V30 1362 O 135.507 -1.78822 -0.364565 0
M  V30 1363 C 135.558 -1.81786 3.12468 0
M  V30 1364 O 135.279 -1.01118 4.26271 0
M  V30 1365 C 136.78 -2.6648 3.54265 0
M  V30 1366 H 134 -0.269872 0.614337 0
M  V30 1367 H 136.544 -0.195837 2.0356 0
M  V30 1368 H 134.699 -2.50136 2.95822 0
M  V30 1369 H 135.113 -1.61956 4.98869 0
M  V30 1370 H 136.587 -3.24722 4.46385 0
M  V30 1371 H 137.064 -3.40434 2.77491 0
M  V30 1372 H 137.67 -2.03493 3.73458 0
M  V30 1373 N 135.985 -1.50799 -0.457987 0
M  V30 1374 C 136.948 -1.7005 -1.53674 0
M  V30 1375 C 137.948 -0.570881 -1.50325 0
M  V30 1376 O 139.138 -0.838126 -1.52712 0
M  V30 1377 C 136.27 -1.73788 -2.93276 0
M  V30 1378 H 137.463 -2.66306 -1.37917 0
M  V30 1379 H 135.016 -1.40477 -0.685271 0
M  V30 1380 H 135.751 -0.792717 -3.14462 0
M  V30 1381 H 135.536 -2.55864 -2.97113 0
M  V30 1382 H 137.026 -1.90591 -3.71571 0
M  V30 1383 N 137.463 0.71206 -1.40597 0
M  V30 1384 C 138.426 1.80785 -1.40888 0
M  V30 1385 C 139.426 1.57937 -0.302103 0
M  V30 1386 O 140.616 1.64913 -0.561182 0
M  V30 1387 C 137.748 3.18927 -1.20409 0
M  V30 1388 H 138.941 1.81924 -2.38419 0
M  V30 1389 H 136.494 0.91805 -1.26497 0
M  V30 1390 H 137.229 3.23436 -0.236522 0
M  V30 1391 H 137.014 3.36911 -2.00582 0
M  V30 1392 H 138.504 3.98949 -1.23408 0
M  V30 1393 N 138.941 1.26152 0.944643 0
M  V30 1394 C 140.169 1.14259 1.72489 0
M  V30 1395 C 140.584 -0.302555 1.8636 0
M  V30 1396 O 139.941 -1.20741 1.36849 0
M  V30 1397 C 139.992 1.80266 3.13347 0
M  V30 1398 O 139.713 3.19133 3.00143 0
M  V30 1399 C 141.214 1.74283 4.07603 0
M  V30 1400 H 138.434 0.398051 0.540181 0
M  V30 1401 H 140.978 1.66706 1.18446 0
M  V30 1402 H 139.133 1.31766 3.64303 0
M  V30 1403 H 139.547 3.51744 3.89071 0
M  V30 1404 H 141.021 2.25111 5.04013 0
M  V30 1405 H 141.498 0.708631 4.33446 0
M  V30 1406 H 142.104 2.22319 3.62567 0
M  V30 1407 N 140.419 -1.14872 1.07899 0
M  V30 1408 C 141.667 -1.85422 0.803941 0
M  V30 1409 C 141.988 -1.83051 -0.67211 0
M  V30 1410 O 141.258 -1.27532 -1.48703 0
M  V30 1411 H 139.838 -0.686537 0.294408 0
M  V30 1412 H 142.5 -1.39226 1.3639 0
M  V30 1413 H 141.596 -2.90399 1.14346 0
M  V30 1414 N 141.898 -0.863906 -1.31812 0
M  V30 1415 C 142.808 -0.318461 -2.32428 0
M  V30 1416 C 143.824 0.568496 -1.64451 0
M  V30 1417 O 145 0.46666 -1.95919 0
M  V30 1418 C 142.065 0.476355 -3.43412 0
M  V30 1419 C 141.126 -0.43784 -4.27061 0
M  V30 1420 C 140.359 0.319138 -5.32745 0
M  V30 1421 O 140.582 1.54799 -5.48993 0
M  V30 1422 O 139.516 -0.319861 -6.01049 0
M  V30 1423 H 143.342 -1.15229 -2.80991 0
M  V30 1424 H 140.927 -0.627103 -1.35602 0
M  V30 1425 H 142.809 0.927156 -4.11074 0
M  V30 1426 H 141.484 1.28683 -2.97022 0
M  V30 1427 H 140.391 -0.937013 -3.62175 0
M  V30 1428 H 141.724 -1.21375 -4.77 0
M  V30 1429 N 143.376 1.44774 -0.622745 0
M  V30 1430 C 144.306 2.33382 0.0741861 0
M  V30 1431 C 145.287 1.47719 0.843387 0
M  V30 1432 O 146.472 1.76458 0.810934 0
M  V30 1433 C 143.602 3.30663 1.06204 0
M  V30 1434 C 142.556 4.26079 0.405037 0
M  V30 1435 C 141.882 5.13165 1.5022 0
M  V30 1436 C 143.182 5.1781 -0.683414 0
M  V30 1437 H 144.876 2.91905 -0.665713 0
M  V30 1438 H 142.422 1.40363 -0.321587 0
M  V30 1439 H 144.375 3.9153 1.55827 0
M  V30 1440 H 143.099 2.70331 1.83272 0
M  V30 1441 H 141.758 3.66532 -0.0704683 0
M  V30 1442 H 141.406 4.49191 2.26355 0
M  V30 1443 H 141.106 5.77812 1.06803 0
M  V30 1444 H 142.63 5.76902 2.00041 0
M  V30 1445 H 144.044 5.72661 -0.270631 0
M  V30 1446 H 142.441 5.91015 -1.04023 0
M  V30 1447 H 143.511 4.59326 -1.55395 0
M  V30 1448 N 144.854 0.36279 1.53368 0
M  V30 1449 C 146.265 -0.117022 1.86333 0
M  V30 1450 C 146.616 -1.48397 1.28347 0
M  V30 1451 O 145.741 -2.07787 0.604428 0
M  V30 1452 C 146.336 -0.21912 3.38091 0
M  V30 1453 C 144.895 -0.643184 3.70864 0
M  V30 1454 C 144.042 0.211318 2.76494 0
M  V30 1455 H 146.993 0.581687 1.47655 0
M  V30 1456 H 147.014 -1.04319 3.6592 0
M  V30 1457 H 146.526 0.775902 3.80265 0
M  V30 1458 H 144.627 -1.64654 3.34245 0
M  V30 1459 H 144.74 -0.41973 4.77258 0
M  V30 1460 H 143.104 -0.319367 2.5269 0
M  V30 1461 H 143.887 1.20383 3.21501 0
M  V30 1462 N 146.332 -1.57332 0.0918853 0
M  V30 1463 C 147.578 -1.94524 -0.573425 0
M  V30 1464 C 147.911 -0.973578 -1.68033 0
M  V30 1465 O 147.186 -0.00609226 -1.94499 0
M  V30 1466 C 147.469 -3.41858 -1.13161 0
M  V30 1467 C 147.322 -4.4979 -0.0299747 0
M  V30 1468 C 148.641 -3.90435 -2.03098 0
M  V30 1469 H 145.76 -0.70734 -0.206975 0
M  V30 1470 H 148.402 -1.89309 0.161942 0
M  V30 1471 H 146.552 -3.46433 -1.7583 0
M  V30 1472 H 148.224 -4.57327 0.604112 0
M  V30 1473 H 146.467 -4.291 0.636833 0
M  V30 1474 H 147.138 -5.50069 -0.461287 0
M  V30 1475 H 149.614 -3.87992 -1.50338 0
M  V30 1476 H 148.49 -4.94097 -2.39081 0
M  V30 1477 H 148.751 -3.29541 -2.94712 0
M  V30 1478 N 147.81 0.181792 -1.56548 0
M  V30 1479 C 148.74 1.22765 -1.98623 0
M  V30 1480 C 149.721 1.46747 -0.860189 0
M  V30 1481 O 150.906 1.58259 -1.12551 0
M  V30 1482 C 148.036 2.56894 -2.33715 0
M  V30 1483 C 146.99 2.475 -3.49182 0
M  V30 1484 C 146.316 3.86023 -3.69986 0
M  V30 1485 C 147.616 1.98866 -4.82959 0
M  V30 1486 H 149.31 0.877942 -2.86239 0
M  V30 1487 H 146.856 0.42088 -1.37712 0
M  V30 1488 H 148.809 3.30253 -2.61746 0
M  V30 1489 H 147.533 2.93632 -1.42997 0
M  V30 1490 H 146.192 1.76596 -3.21262 0
M  V30 1491 H 145.84 4.20136 -2.76576 0
M  V30 1492 H 145.54 3.80609 -4.47672 0
M  V30 1493 H 147.064 4.60984 -4.00407 0
M  V30 1494 H 148.478 2.61992 -5.09934 0
M  V30 1495 H 146.875 2.04424 -5.64208 0
M  V30 1496 H 147.945 0.942465 -4.75653 0
M  V30 1497 N 149.288 1.51039 0.449983 0
M  V30 1498 C 150.198 1.74261 1.57067 0
M  V30 1499 C 151.214 0.626363 1.62335 0
M  V30 1500 O 152.39 0.907162 1.79812 0
M  V30 1501 C 149.455 1.85114 2.93144 0
M  V30 1502 C 148.516 3.0893 2.98095 0
M  V30 1503 C 147.749 3.19256 4.27681 0
M  V30 1504 O 147.972 2.35835 5.19363 0
M  V30 1505 O 146.906 4.12144 4.38658 0
M  V30 1506 H 150.732 2.69303 1.40391 0
M  V30 1507 H 148.317 1.35389 0.631688 0
M  V30 1508 H 150.199 1.94311 3.73926 0
M  V30 1509 H 148.874 0.932588 3.09975 0
M  V30 1510 H 147.781 3.0522 2.16314 0
M  V30 1511 H 149.114 4.00433 2.86206 0
M  V30 1512 N 150.766 -0.704594 1.40972 0
M  V30 1513 C 151.676 -1.84856 1.44448 0
M  V30 1514 C 152.692 -1.70726 0.335961 0
M  V30 1515 O 153.868 -1.92799 0.582276 0
M  V30 1516 C 150.933 -3.20758 1.31587 0
M  V30 1517 C 149.994 -3.47063 2.52677 0
M  V30 1518 C 149.227 -4.76481 2.4042 0
M  V30 1519 O 149.45 -5.52341 1.42391 0
M  V30 1520 O 148.384 -5.03367 3.30007 0
M  V30 1521 H 152.21 -1.8488 2.40942 0
M  V30 1522 H 149.795 -0.85647 1.22413 0
M  V30 1523 H 151.677 -4.01913 1.26665 0
M  V30 1524 H 150.352 -3.21438 0.382049 0
M  V30 1525 H 149.259 -2.65873 2.63177 0
M  V30 1526 H 150.592 -3.5119 3.44858 0
M  V30 1527 N 152.244 -1.26651 -0.937939 0
M  V30 1528 C 153.154 -1.10276 -2.07066 0
M  V30 1529 C 154.17 -0.0354197 -1.73964 0
M  V30 1530 O 155.346 -0.239816 -1.99967 0
M  V30 1531 C 152.411 -0.740887 -3.38691 0
M  V30 1532 C 151.472 -1.88799 -3.85556 0
M  V30 1533 C 150.705 -1.54329 -5.10899 0
M  V30 1534 O 150.928 -0.446494 -5.6865 0
M  V30 1535 O 149.862 -2.37911 -5.52885 0
M  V30 1536 H 153.688 -2.05309 -2.23789 0
M  V30 1537 H 151.273 -1.05743 -1.0554 0
M  V30 1538 H 153.155 -0.55195 -4.1777 0
M  V30 1539 H 151.83 0.180022 -3.23199 0
M  V30 1540 H 150.737 -2.13191 -3.07409 0
M  V30 1541 H 152.07 -2.78874 -4.05574 0
M  V30 1542 N 153.722 1.14298 -1.08507 0
M  V30 1543 C 154.969 1.85359 -0.815373 0
M  V30 1544 C 155.297 1.83001 0.658865 0
M  V30 1545 O 154.552 1.25655 1.50031 0
M  V30 1546 C 154.851 3.33547 -1.28379 0
M  V30 1547 C 154.517 3.56093 -2.76602 0
M  V30 1548 C 153.179 3.61955 -3.17084 0
M  V30 1549 C 155.531 3.64834 -3.72217 0
M  V30 1550 C 152.859 3.74082 -4.51973 0
M  V30 1551 C 155.211 3.78487 -5.06883 0
M  V30 1552 C 153.875 3.82598 -5.46969 0
M  V30 1553 H 153.145 0.678276 -0.298366 0
M  V30 1554 H 155.792 1.35002 -1.35819 0
M  V30 1555 H 154.097 3.86191 -0.660593 0
M  V30 1556 H 155.794 3.86959 -1.05186 0
M  V30 1557 H 152.384 3.52179 -2.4427 0
M  V30 1558 H 156.568 3.59595 -3.42061 0
M  V30 1559 H 151.824 3.75527 -4.82483 0
M  V30 1560 H 155.998 3.84193 -5.80834 0
M  V30 1561 H 153.625 3.91747 -6.51489 0
M  V30 1562 N 155.201 0.870884 1.31352 0
M  V30 1563 C 156.111 0.330783 2.32256 0
M  V30 1564 C 157.127 -0.559767 1.6475 0
M  V30 1565 O 158.303 -0.456263 1.96164 0
M  V30 1566 C 155.368 -0.458137 3.4366 0
M  V30 1567 C 154.429 0.460482 4.26823 0
M  V30 1568 C 153.662 -0.290881 5.32907 0
M  V30 1569 O 153.885 -1.51885 5.49806 0
M  V30 1570 O 152.819 0.351732 6.00871 0
M  V30 1571 H 156.645 1.16718 2.80376 0
M  V30 1572 H 154.23 0.634285 1.35267 0
M  V30 1573 H 156.112 -0.905343 4.1156 0
M  V30 1574 H 154.787 -1.27106 2.97701 0
M  V30 1575 H 153.694 0.956207 3.61673 0
M  V30 1576 H 155.027 1.23903 4.7635 0
M  V30 1577 N 156.679 -1.44442 0.630414 0
M  V30 1578 C 157.925 -2.02351 0.134816 0
M  V30 1579 C 158.258 -1.4947 -1.23986 0
M  V30 1580 O 157.533 -0.678475 -1.82283 0
M  V30 1581 C 157.816 -3.59898 0.120707 0
M  V30 1582 C 157.669 -4.23063 1.52767 0
M  V30 1583 C 158.988 -4.36585 -0.555127 0
M  V30 1584 H 156.107 -0.73527 0.0504646 0
M  V30 1585 H 158.749 -1.72022 0.806751 0
M  V30 1586 H 156.899 -3.85868 -0.451477 0
M  V30 1587 H 158.571 -4.08202 2.14869 0
M  V30 1588 H 156.814 -3.80586 2.08175 0
M  V30 1589 H 157.485 -5.32071 1.46984 0
M  V30 1590 H 159.961 -4.16044 -0.0685429 0
M  V30 1591 H 158.837 -5.46294 -0.534185 0
M  V30 1592 H 159.098 -4.11138 -1.62535 0
M  V30 1593 N 158.157 -0.370918 -1.53173 0
M  V30 1594 C 159.403 0.217423 -2.01631 0
M  V30 1595 C 159.736 1.47983 -1.25756 0
M  V30 1596 O 159.011 1.91274 -0.352764 0
M  V30 1597 C 159.294 0.503982 -3.56556 0
M  V30 1598 C 159.147 -0.77243 -4.43118 0
M  V30 1599 C 160.466 1.30234 -4.20389 0
M  V30 1600 H 157.585 0.0775486 -0.732909 0
M  V30 1601 H 160.227 -0.496863 -1.83388 0
M  V30 1602 H 158.377 1.11248 -3.72231 0
M  V30 1603 H 160.049 -1.4098 -4.39229 0
M  V30 1604 H 158.292 -1.39167 -4.10871 0
M  V30 1605 H 158.963 -0.526815 -5.4948 0
M  V30 1606 H 161.439 0.787546 -4.08579 0
M  V30 1607 H 160.315 1.47158 -5.28806 0
M  V30 1608 H 160.576 2.31237 -3.76805 0
M  V30 1609 N 159.635 1.57281 -0.100228 0
M  V30 1610 C 160.545 2.17833 0.870965 0
M  V30 1611 C 161.561 1.14921 1.30649 0
M  V30 1612 O 162.737 1.47313 1.37335 0
M  V30 1613 C 159.802 2.75085 2.1102 0
M  V30 1614 C 158.863 3.9297 1.72838 0
M  V30 1615 C 158.096 4.47482 2.90854 0
M  V30 1616 O 158.319 4.00922 4.05731 0
M  V30 1617 O 157.253 5.38433 2.69023 0
M  V30 1618 H 161.079 3.0124 0.38575 0
M  V30 1619 H 158.664 1.48881 0.124397 0
M  V30 1620 H 160.546 3.11656 2.83634 0
M  V30 1621 H 159.221 1.94721 2.58584 0
M  V30 1622 H 158.128 3.61201 0.973883 0
M  V30 1623 H 159.461 4.74713 1.30033 0
M  V30 1624 N 161.113 -0.173488 1.56642 0
M  V30 1625 C 162.045 -1.23935 1.92802 0
M  V30 1626 C 163.058 -1.40589 0.820889 0
M  V30 1627 O 164.247 -1.40631 1.09933 0
M  V30 1628 C 161.347 -2.60837 2.16373 0
M  V30 1629 C 160.52 -2.6551 3.47596 0
M  V30 1630 C 159.579 -3.8376 3.60021 0
M  V30 1631 O 158.605 -3.69859 4.32658 0
M  V30 1632 N 159.807 -5.00127 2.94709 0
M  V30 1633 H 162.572 -0.932236 2.84832 0
M  V30 1634 H 160.133 -0.363268 1.57772 0
M  V30 1635 H 162.125 -3.38407 2.21952 0
M  V30 1636 H 160.695 -2.83948 1.30738 0
M  V30 1637 H 159.915 -1.74052 3.53694 0
M  V30 1638 H 161.203 -2.65641 4.33949 0
M  V30 1639 H 160.601 -5.14322 2.35563 0
M  V30 1640 H 159.158 -5.75567 3.05886 0
M  V30 1641 N 162.591 -1.51276 -0.441967 0
M  V30 1642 C 163.521 -1.752 -1.54361 0
M  V30 1643 C 164.502 -0.601682 -1.59103 0
M  V30 1644 O 165.687 -0.843913 -1.74905 0
M  V30 1645 C 162.817 -1.87282 -2.92477 0
M  V30 1646 C 161.771 -3.02687 -3.02596 0
M  V30 1647 C 161.097 -2.99947 -4.42647 0
M  V30 1648 C 162.397 -4.4273 -2.77106 0
M  V30 1649 H 164.091 -2.67442 -1.34592 0
M  V30 1650 H 161.637 -1.28694 -0.646048 0
M  V30 1651 H 163.59 -2.02602 -3.695 0
M  V30 1652 H 162.314 -0.916844 -3.13467 0
M  V30 1653 H 160.973 -2.87065 -2.28012 0
M  V30 1654 H 160.621 -2.02136 -4.60597 0
M  V30 1655 H 160.321 -3.77439 -4.50348 0
M  V30 1656 H 161.845 -3.17354 -5.2165 0
M  V30 1657 H 163.259 -4.58727 -3.43864 0
M  V30 1658 H 161.656 -5.21893 -2.96222 0
M  V30 1659 H 162.726 -4.53087 -1.72744 0
M  V30 1660 N 164.069 0.697108 -1.41344 0
M  V30 1661 C 164.999 1.82353 -1.45841 0
M  V30 1662 C 165.98 1.67115 -0.317247 0
M  V30 1663 O 167.165 1.86871 -0.528474 0
M  V30 1664 C 164.295 3.20476 -1.33838 0
M  V30 1665 C 163.249 3.50415 -2.4575 0
M  V30 1666 C 162.575 4.87878 -2.18813 0
M  V30 1667 C 163.875 3.49546 -3.88091 0
M  V30 1668 H 165.569 1.78846 -2.40113 0
M  V30 1669 H 163.115 0.859028 -1.15571 0
M  V30 1670 H 165.068 3.98988 -1.35596 0
M  V30 1671 H 163.792 3.24604 -0.360498 0
M  V30 1672 H 162.451 2.74253 -2.43271 0
M  V30 1673 H 162.099 4.8863 -1.19371 0
M  V30 1674 H 161.799 5.08875 -2.93803 0
M  V30 1675 H 163.323 5.68702 -2.22284 0
M  V30 1676 H 164.737 4.18066 -3.92293 0
M  V30 1677 H 163.134 3.82075 -4.62751 0
M  V30 1678 H 164.204 2.48552 -4.16353 0
M  V30 1679 N 165.547 1.27147 0.931209 0
M  V30 1680 C 166.51 1.09615 2.01289 0
M  V30 1681 C 167.51 0.0412581 1.60747 0
M  V30 1682 O 168.7 0.285545 1.71844 0
M  V30 1683 C 165.832 0.669447 3.34262 0
M  V30 1684 H 167.025 2.05662 2.18273 0
M  V30 1685 H 164.578 1.09885 1.11153 0
M  V30 1686 H 165.313 -0.292572 3.22978 0
M  V30 1687 H 165.098 1.43127 3.65044 0
M  V30 1688 H 166.588 0.568921 4.13706 0
M  V30 1689 N 167.025 -1.13721 1.09112 0
M  V30 1690 C 168.253 -1.88773 0.846899 0
M  V30 1691 C 168.668 -1.7896 -0.601572 0
M  V30 1692 O 168.025 -1.15394 -1.41388 0
M  V30 1693 C 168.076 -3.3849 1.26913 0
M  V30 1694 O 167.797 -3.48043 2.66079 0
M  V30 1695 C 169.298 -4.30518 1.05682 0
M  V30 1696 H 166.518 -0.59772 0.304914 0
M  V30 1697 H 169.062 -1.43977 1.45227 0
M  V30 1698 H 167.217 -3.80881 0.707723 0
M  V30 1699 H 167.631 -4.4109 2.83795 0
M  V30 1700 H 169.105 -5.3391 1.40156 0
M  V30 1701 H 169.582 -4.392 -0.00563416 0
M  V30 1702 H 170.188 -3.93893 1.60402 0
M  V30 1703 N 168.503 -0.877838 -1.30888 0
M  V30 1704 C 169.78 -0.413052 -1.91189 0
M  V30 1705 C 170.16 1.1056 -1.79832 0
M  V30 1706 O 169.508 1.93771 -1.21099 0
M  V30 1707 C 169.718 -0.903191 -3.3711 0
M  V30 1708 C 171.066 -0.93395 -4.14201 0
M  V30 1709 O 172.09 -0.849373 -3.45925 0
M  V30 1710 O 170.949 -1.05772 -5.36167 0
M  V30 1711 H 168.043 -0.125035 -0.817493 0
M  V30 1712 H 170.589 -0.966269 -1.39504 0
M  V30 1713 H 169.361 -1.94692 -3.39427 0
M  V30 1714 H 168.984 -0.328732 -3.96239 0
M  V30 1715 N 169.982 1.44106 -0.638065 0
M  V30 1716 C 170.892 2.34513 0.0637334 0
M  V30 1717 C 171.908 1.53018 0.828346 0
M  V30 1718 O 173.084 1.85723 0.779036 0
M  V30 1719 C 170.149 3.31095 1.02844 0
M  V30 1720 C 169.21 4.28497 0.26244 0
M  V30 1721 C 168.443 5.20465 1.1812 0
M  V30 1722 O 168.666 5.16514 2.42011 0
M  V30 1723 O 167.6 5.98251 0.661774 0
M  V30 1724 H 171.426 2.95989 -0.68003 0
M  V30 1725 H 169.011 1.43994 -0.398252 0
M  V30 1726 H 170.893 3.90526 1.58327 0
M  V30 1727 H 169.568 2.72144 1.7527 0
M  V30 1728 H 168.475 3.72592 -0.335602 0
M  V30 1729 H 169.808 4.90388 -0.421936 0
M  V30 1730 N 171.46 0.379036 1.52974 0
M  V30 1731 C 172.876 0.0285448 1.59574 0
M  V30 1732 C 173.076 -1.45542 1.39355 0
M  V30 1733 O 172.132 -2.2187 1.20541 0
M  V30 1734 C 173.445 0.496535 2.96572 0
M  V30 1735 C 174.993 0.451909 3.0972 0
M  V30 1736 C 175.468 0.895924 4.49152 0
M  V30 1737 N 176.959 0.851522 4.55306 0
M  V30 1738 C 177.694 1.16661 5.61407 0
M  V30 1739 N 177.19 1.55166 6.752 0
M  V30 1740 N 178.983 1.08853 5.51459 0
M  V30 1741 H 171.134 1.34525 1.64367 0
M  V30 1742 H 173.397 0.550733 0.771619 0
M  V30 1743 H 173.103 1.53258 3.16552 0
M  V30 1744 H 172.977 -0.109802 3.7704 0
M  V30 1745 H 175.364 -0.575029 2.89443 0
M  V30 1746 H 175.445 1.09392 2.3123 0
M  V30 1747 H 175.089 1.92104 4.70168 0
M  V30 1748 H 175.019 0.23103 5.26093 0
M  V30 1749 H 177.51 0.568038 3.73606 0
M  V30 1750 H 177.823 1.776 7.52116 0
M  V30 1751 H 176.168 1.59044 6.76557 0
M  V30 1752 H 179.359 0.786803 4.6144 0
M  V30 1753 H 179.532 1.33742 6.34048 0
M  V30 1754 N 172.938 -1.57226 0.108567 0
M  V30 1755 C 174.184 -1.95919 -0.546564 0
M  V30 1756 C 174.539 -0.990417 -1.6495 0
M  V30 1757 O 173.832 -0.0186593 -1.91591 0
M  V30 1758 C 174.026 -3.38911 -1.13463 0
M  V30 1759 C 173.855 -4.4961 -0.0901926 0
M  V30 1760 C 172.625 -5.04168 0.338008 0
M  V30 1761 C 174.823 -5.09693 0.686808 0
M  V30 1762 N 172.805 -5.98434 1.36931 0
M  V30 1763 C 174.176 -5.99804 1.56958 0
M  V30 1764 C 176.231 -4.92388 0.738846 0
M  V30 1765 C 174.934 -6.74463 2.49983 0
M  V30 1766 C 176.96 -5.67719 1.65676 0
M  V30 1767 C 176.322 -6.57507 2.52713 0
M  V30 1768 H 172.421 -0.763312 -0.169936 0
M  V30 1769 H 175.005 -1.93728 0.194264 0
M  V30 1770 H 173.176 -3.41769 -1.84522 0
M  V30 1771 H 174.908 -3.64752 -1.75322 0
M  V30 1772 H 171.663 -4.73571 -0.0523673 0
M  V30 1773 H 172.087 -6.5027 1.88356 0
M  V30 1774 H 176.729 -4.22724 0.080084 0
M  V30 1775 H 174.447 -7.4338 3.16878 0
M  V30 1776 H 178.033 -5.56338 1.70233 0
M  V30 1777 H 176.913 -7.14778 3.22586 0
M  V30 1778 N 174.416 0.165178 -1.56732 0
M  V30 1779 C 175.346 1.20651 -1.99914 0
M  V30 1780 C 176.327 1.45827 -0.875705 0
M  V30 1781 O 177.512 1.57057 -1.14223 0
M  V30 1782 C 174.642 2.54401 -2.36427 0
M  V30 1783 C 173.596 2.43782 -3.51787 0
M  V30 1784 C 172.922 3.82078 -3.7406 0
M  V30 1785 C 174.222 1.93732 -4.85041 0
M  V30 1786 H 175.916 0.847534 -2.87154 0
M  V30 1787 H 173.462 0.40625 -1.38151 0
M  V30 1788 H 175.415 3.27458 -2.65234 0
M  V30 1789 H 174.139 2.92098 -1.46103 0
M  V30 1790 H 172.798 1.73178 -3.23117 0
M  V30 1791 H 172.446 4.17179 -2.81017 0
M  V30 1792 H 172.146 3.7584 -4.51684 0
M  V30 1793 H 173.67 4.56712 -4.05274 0
M  V30 1794 H 175.084 2.56569 -5.12684 0
M  V30 1795 H 173.481 1.98428 -5.66345 0
M  V30 1796 H 174.551 0.891962 -4.76626 0
M  V30 1797 N 175.894 1.51508 0.433938 0
M  V30 1798 C 176.841 1.73068 1.52696 0
M  V30 1799 C 177.811 0.572441 1.55924 0
M  V30 1800 O 178.996 0.807253 1.72882 0
M  V30 1801 C 176.136 1.86474 2.90381 0
M  V30 1802 C 175.249 3.14037 2.96656 0
M  V30 1803 C 174.384 3.18019 4.25485 0
M  V30 1804 C 173.423 4.39882 4.2564 0
M  V30 1805 N 172.56 4.41394 5.45999 0
M  V30 1806 H 177.4 2.66366 1.33615 0
M  V30 1807 H 174.937 1.32008 0.649018 0
M  V30 1808 H 176.895 1.92229 3.70275 0
M  V30 1809 H 175.525 0.965809 3.08013 0
M  V30 1810 H 174.577 3.17575 2.09404 0
M  V30 1811 H 175.889 4.0394 2.92633 0
M  V30 1812 H 175.043 3.22708 5.13755 0
M  V30 1813 H 173.782 2.2601 4.3217 0
M  V30 1814 H 172.787 4.35366 3.35763 0
M  V30 1815 H 174.012 5.33159 4.20617 0
M  V30 1816 H 171.958 3.52258 5.53399 0
M  V30 1817 H 171.875 5.25111 5.4387 0
M  V30 1818 H 173.143 4.50281 6.36292 0
M  V30 1819 N 177.372 -0.689602 1.41712 0
M  V30 1820 C 178.335 -1.78521 1.43746 0
M  V30 1821 C 179.335 -1.57436 0.327191 0
M  V30 1822 O 180.525 -1.64 0.587348 0
M  V30 1823 C 177.657 -3.16971 1.25467 0
M  V30 1824 H 178.85 -1.78108 2.41283 0
M  V30 1825 H 176.403 -0.89781 1.27942 0
M  V30 1826 H 177.138 -3.23019 0.287948 0
M  V30 1827 H 176.923 -3.33678 2.05917 0
M  V30 1828 H 178.413 -3.96935 1.2974 0
M  V30 1829 N 178.85 -1.27639 -0.924453 0
M  V30 1830 C 179.78 -1.13166 -2.04244 0
M  V30 1831 C 180.761 -0.032256 -1.70069 0
M  V30 1832 O 181.946 -0.207328 -1.9309 0
M  V30 1833 C 179.076 -0.781496 -3.38393 0
M  V30 1834 C 178.03 -1.83449 -3.86692 0
M  V30 1835 C 177.356 -1.33822 -5.17683 0
M  V30 1836 C 178.656 -3.23917 -4.09726 0
M  V30 1837 H 180.35 -2.06689 -2.1661 0
M  V30 1838 H 177.896 -0.995136 -1.04082 0
M  V30 1839 H 179.849 -0.667057 -4.16087 0
M  V30 1840 H 178.573 0.189439 -3.2605 0
M  V30 1841 H 177.232 -1.93789 -3.11193 0
M  V30 1842 H 176.88 -0.35665 -5.01734 0
M  V30 1843 H 176.58 -2.04224 -5.50968 0
M  V30 1844 H 178.104 -1.23679 -5.97943 0
M  V30 1845 H 179.518 -3.16559 -4.77978 0
M  V30 1846 H 177.915 -3.92059 -4.54324 0
M  V30 1847 H 178.985 -3.68729 -3.14908 0
M  V30 1848 N 180.328 1.1314 -1.09713 0
M  V30 1849 C 181.291 2.16831 -0.742751 0
M  V30 1850 C 182.291 1.59159 0.229129 0
M  V30 1851 O 183.481 1.74199 0.00693237 0
M  V30 1852 C 180.613 3.40756 -0.0989168 0
M  V30 1853 H 181.806 2.49695 -1.66109 0
M  V30 1854 H 179.359 1.2802 -0.896699 0
M  V30 1855 H 180.094 3.13485 0.830514 0
M  V30 1856 H 179.879 3.83888 -0.798265 0
M  V30 1857 H 181.369 4.17386 0.133524 0
M  V30 1858 N 181.806 0.884767 1.30421 0
M  V30 1859 C 182.769 0.356277 2.26414 0
M  V30 1860 C 183.769 -0.501124 1.52792 0
M  V30 1861 O 184.959 -0.30831 1.7145 0
M  V30 1862 C 182.091 -0.492316 3.37326 0
M  V30 1863 H 183.284 1.20389 2.74675 0
M  V30 1864 H 180.837 0.661607 1.41607 0
M  V30 1865 H 181.572 -1.36052 2.94381 0
M  V30 1866 H 181.357 0.121832 3.91911 0
M  V30 1867 H 182.847 -0.853871 4.08777 0
M  V30 1868 N 183.284 -1.43765 0.645699 0
M  V30 1869 C 184.7 -1.56509 0.312591 0
M  V30 1870 C 184.9 -1.6307 -1.18365 0
M  V30 1871 O 183.956 -1.58167 -1.96824 0
M  V30 1872 C 185.269 -2.82968 1.01733 0
M  V30 1873 C 186.817 -2.96701 0.996865 0
M  V30 1874 C 187.292 -4.25982 1.68236 0
M  V30 1875 N 188.783 -4.32829 1.64964 0
M  V30 1876 C 189.518 -5.31613 2.14885 0
M  V30 1877 N 189.014 -6.36718 2.73061 0
M  V30 1878 N 190.807 -5.23217 2.05428 0
M  V30 1879 H 182.958 -1.3775 1.61675 0
M  V30 1880 H 185.221 -0.661067 0.679481 0
M  V30 1881 H 184.927 -2.84156 2.0724 0
M  V30 1882 H 184.801 -3.72957 0.564177 0
M  V30 1883 H 187.188 -2.95058 -0.0497719 0
M  V30 1884 H 187.269 -2.08022 1.48865 0
M  V30 1885 H 186.913 -4.28386 2.72852 0
M  V30 1886 H 186.843 -5.13545 1.16529 0
M  V30 1887 H 189.334 -3.57493 1.22503 0
M  V30 1888 H 189.647 -7.08401 3.08848 0
M  V30 1889 H 187.992 -6.37362 2.77118 0
M  V30 1890 H 191.183 -4.40019 1.59689 0
M  V30 1891 H 191.356 -6.00045 2.44643 0
M  V30 1892 N 184.763 -0.387143 -1.52771 0
M  V30 1893 C 185.711 0.463953 -2.27926 0
M  V30 1894 C 186.705 1.06493 -1.31741 0
M  V30 1895 O 187.911 1.00565 -1.49287 0
M  V30 1896 H 184.286 0.16837 -0.732909 0
M  V30 1897 H 186.257 -0.19141 -2.97785 0
M  V30 1898 C 185.006 1.5803 -3.09713 0
M  V30 1899 H 184.329 1.12718 -3.83581 0
M  V30 1900 H 185.769 2.15008 -3.65442 0
M  V30 1901 C 184.228 2.53509 -2.2189 0
M  V30 1902 O 184.758 3.56863 -1.84422 0
M  V30 1903 N 182.964 2.23199 -1.86093 0
M  V30 1904 H 182.511 1.39185 -2.16761 0
M  V30 1905 H 182.469 2.87333 -1.27621 0
M  V30 1906 N 186.241 1.57166 -0.116904 0
M  V30 1907 C 187.171 2.18222 0.830759 0
M  V30 1908 C 188.152 1.12167 1.27877 0
M  V30 1909 O 189.337 1.40394 1.34176 0
M  V30 1910 C 186.467 2.77996 2.08172 0
M  V30 1911 C 185.421 3.89614 1.77157 0
M  V30 1912 C 184.747 4.36187 3.09265 0
M  V30 1913 C 186.047 5.1181 1.04151 0
M  V30 1914 H 187.741 2.97664 0.321992 0
M  V30 1915 H 185.287 1.4318 0.153434 0
M  V30 1916 H 187.24 3.19366 2.74924 0
M  V30 1917 H 185.964 1.9584 2.6137 0
M  V30 1918 H 184.623 3.48816 1.12796 0
M  V30 1919 H 184.271 3.50893 3.60393 0
M  V30 1920 H 183.971 5.11455 2.89288 0
M  V30 1921 H 185.495 4.80207 3.77139 0
M  V30 1922 H 186.909 5.50214 1.61052 0
M  V30 1923 H 185.306 5.92648 0.942762 0
M  V30 1924 H 186.376 4.84892 0.0279022 0
M  V30 1925 N 187.719 -0.156864 1.56817 0
M  V30 1926 C 188.996 -0.899244 1.73704 0
M  V30 1927 C 189.376 -1.99771 0.682254 0
M  V30 1928 O 188.724 -2.26515 -0.300522 0
M  V30 1929 C 188.934 -1.45075 3.17418 0
M  V30 1930 C 190.282 -1.91802 3.7881 0
M  V30 1931 O 191.306 -1.54838 3.20786 0
M  V30 1932 O 190.165 -2.5994 4.80722 0
M  V30 1933 H 187.259 -0.424267 0.709878 0
M  V30 1934 H 189.805 -0.143561 1.69092 0
M  V30 1935 H 188.577 -0.660846 3.85679 0
M  V30 1936 H 188.2 -2.27021 3.26416 0
M  V30 1937 N 189.197 -1.51736 -0.425897 0
M  V30 1938 C 190.443 -1.65214 -1.1761 0
M  V30 1939 C 190.776 -0.372778 -1.90589 0
M  V30 1940 O 190.051 0.628139 -1.84078 0
M  V30 1941 C 190.334 -2.86312 -2.18398 0
M  V30 1942 C 190.187 -4.24254 -1.49426 0
M  V30 1943 C 191.506 -3.02925 -3.19256 0
M  V30 1944 H 188.625 -0.601263 -0.426206 0
M  V30 1945 H 191.267 -1.8425 -0.463882 0
M  V30 1946 H 189.417 -2.70213 -2.79137 0
M  V30 1947 H 191.089 -4.52046 -0.919362 0
M  V30 1948 H 189.332 -4.26426 -0.796432 0
M  V30 1949 H 190.003 -5.05001 -2.22885 0
M  V30 1950 H 192.479 -3.1781 -2.68581 0
M  V30 1951 H 191.355 -3.89199 -3.8706 0
M  V30 1952 H 191.616 -2.15497 -3.86023 0
M  V30 1953 N 190.675 0.682077 -1.42076 0
M  V30 1954 C 191.9 1.47558 -1.45744 0
M  V30 1955 C 192.325 1.87977 -0.0680981 0
M  V30 1956 O 191.683 1.55522 0.9318 0
M  V30 1957 C 191.731 2.70575 -2.38373 0
M  V30 1958 O 190.835 3.68573 -1.85007 0
M  V30 1959 H 190.176 0.443585 -0.494093 0
M  V30 1960 H 192.706 0.837238 -1.86686 0
M  V30 1961 H 192.716 3.18729 -2.54707 0
M  V30 1962 H 191.391 2.40495 -3.39315 0
M  V30 1963 H 189.968 3.2757 -1.78192 0
M  V30 1964 N 192.153 1.28127 0.917671 0
M  V30 1965 C 193.1 1.11717 2.0196 0
M  V30 1966 C 194.07 0.0153929 1.66093 0
M  V30 1967 O 195.255 0.179596 1.89953 0
M  V30 1968 C 192.395 0.780927 3.36148 0
M  V30 1969 C 191.508 1.96135 3.84909 0
M  V30 1970 C 190.643 1.56609 5.0759 0
M  V30 1971 C 189.682 2.71339 5.48673 0
M  V30 1972 N 188.819 2.32332 6.62545 0
M  V30 1973 H 193.659 2.06003 2.15329 0
M  V30 1974 H 191.196 1.02535 1.05475 0
M  V30 1975 H 193.154 0.56675 4.13333 0
M  V30 1976 H 191.784 -0.124998 3.22558 0
M  V30 1977 H 190.836 2.28777 3.03916 0
M  V30 1978 H 192.148 2.82165 4.1132 0
M  V30 1979 H 191.302 1.31374 5.92305 0
M  V30 1980 H 190.041 0.677014 4.82978 0
M  V30 1981 H 189.046 2.97276 4.62501 0
M  V30 1982 H 190.271 3.60882 5.75274 0
M  V30 1983 H 188.217 1.45889 6.39572 0
M  V30 1984 H 188.134 3.11899 6.88662 0
M  V30 1985 H 189.402 2.10371 7.50576 0
M  V30 1986 N 193.631 -1.12557 1.10312 0
M  V30 1987 C 194.877 -1.84311 0.846011 0
M  V30 1988 C 195.21 -1.83805 -0.626859 0
M  V30 1989 O 194.485 -1.28268 -1.46211 0
M  V30 1990 C 194.768 -3.32048 1.39341 0
M  V30 1991 C 194.621 -3.41016 2.93305 0
M  V30 1992 C 195.94 -4.27764 1.03468 0
M  V30 1993 H 193.059 -0.669192 0.30879 0
M  V30 1994 H 195.701 -1.32057 1.36605 0
M  V30 1995 H 193.851 -3.76678 0.951087 0
M  V30 1996 H 195.523 -3.05031 3.46055 0
M  V30 1997 H 193.766 -2.81603 3.29973 0
M  V30 1998 H 194.437 -4.44948 3.26689 0
M  V30 1999 H 196.913 -3.91253 1.41633 0
M  V30 2000 H 195.789 -5.29549 1.44463 0
M  V30 2001 H 196.05 -4.42064 -0.0560404 0
M  V30 2002 N 195.109 -0.891671 -1.2995 0
M  V30 2003 C 196.525 -0.58662 -1.48428 0
M  V30 2004 C 196.725 0.873951 -1.81561 0
M  V30 2005 O 195.781 1.65471 -1.90724 0
M  V30 2006 C 197.094 -1.50553 -2.60296 0
M  V30 2007 C 198.642 -1.50988 -2.74175 0
M  V30 2008 C 199.117 -2.41488 -3.89163 0
M  V30 2009 N 200.608 -2.39489 -3.96483 0
M  V30 2010 C 201.343 -3.06223 -4.84784 0
M  V30 2011 N 200.839 -3.82206 -5.77833 0
M  V30 2012 N 202.632 -2.95421 -4.78208 0
M  V30 2013 H 194.783 -1.83644 -1.06718 0
M  V30 2014 H 197.046 -0.786455 -0.529332 0
M  V30 2015 H 196.752 -2.54581 -2.42654 0
M  V30 2016 H 196.626 -1.22008 -3.56923 0
M  V30 2017 H 199.013 -0.47708 -2.91218 0
M  V30 2018 H 199.094 -1.83567 -1.78148 0
M  V30 2019 H 198.738 -3.44857 -3.72876 0
M  V30 2020 H 198.668 -2.06222 -4.84541 0
M  V30 2021 H 201.159 -1.84278 -3.29924 0
M  V30 2022 H 201.472 -4.302 -6.41988 0
M  V30 2023 H 199.817 -3.86313 -5.77743 0
M  V30 2024 H 203.008 -2.35581 -4.04499 0
M  V30 2025 H 203.181 -3.47704 -5.46814 0
M  V30 2026 N 196.587 1.43421 -0.653314 0
M  V30 2027 C 197.833 2.02111 -0.166992 0
M  V30 2028 C 198.166 1.51423 1.21592 0
M  V30 2029 O 197.441 0.707389 1.8118 0
M  V30 2030 C 197.724 3.5966 -0.177948 0
M  V30 2031 C 197.577 4.20579 -1.59478 0
M  V30 2032 C 198.896 4.37413 0.4856 0
M  V30 2033 H 196.015 0.734374 -0.0621557 0
M  V30 2034 H 198.657 1.70717 -0.834016 0
M  V30 2035 H 196.807 3.86537 0.390032 0
M  V30 2036 H 198.479 4.04732 -2.21336 0
M  V30 2037 H 196.722 3.77226 -2.14204 0
M  V30 2038 H 197.393 5.29665 -1.5543 0
M  V30 2039 H 199.869 4.161 0.00234528 0
M  V30 2040 H 198.745 5.47075 0.447207 0
M  V30 2041 H 199.006 4.13672 1.55974 0
M  V30 2042 N 198.065 0.39524 1.52563 0
M  V30 2043 C 199.028 -0.425001 2.25225 0
M  V30 2044 C 200.028 -0.985266 1.27079 0
M  V30 2045 O 201.218 -0.866332 1.5113 0
M  V30 2046 C 198.35 -1.59686 3.01186 0
M  V30 2047 H 199.543 0.211233 2.99155 0
M  V30 2048 H 197.096 0.147472 1.55603 0
M  V30 2049 H 197.831 -2.27035 2.31572 0
M  V30 2050 H 197.616 -1.20176 3.73229 0
M  V30 2051 H 199.106 -2.17743 3.5634 0
M  V30 2052 N 199.544 -1.57102 0.125237 0
M  V30 2053 C 200.955 -1.82384 -0.399142 0
M  V30 2054 C 201.306 -1.04276 -1.66195 0
M  V30 2055 O 200.431 -0.281269 -2.14564 0
M  V30 2056 C 201.026 -3.30821 -0.730932 0
M  V30 2057 C 199.585 -3.56762 -1.19992 0
M  V30 2058 C 198.732 -2.7649 -0.211792 0
M  V30 2059 H 201.683 -1.54786 0.350277 0
M  V30 2060 H 201.704 -3.4579 -1.58775 0
M  V30 2061 H 201.216 -3.87643 0.188345 0
M  V30 2062 H 199.317 -3.05305 -2.13588 0
M  V30 2063 H 199.43 -4.65317 -1.14093 0
M  V30 2064 H 197.794 -2.4489 -0.700085 0
M  V30 2065 H 198.577 -3.36073 0.700691 0
M  V30 2066 N 201.022 0.148545 -1.56898 0
M  V30 2067 C 201.952 1.18524 -2.01182 0
M  V30 2068 C 202.933 1.4489 -0.891123 0
M  V30 2069 O 204.118 1.55836 -1.15882 0
M  V30 2070 C 201.248 2.51879 -2.39112 0
M  V30 2071 C 200.202 2.40038 -3.54353 0
M  V30 2072 C 199.528 3.78089 -3.78091 0
M  V30 2073 C 200.828 1.88577 -4.87069 0
M  V30 2074 H 202.522 0.817029 -2.88036 0
M  V30 2075 H 200.068 0.391575 -1.38574 0
M  V30 2076 H 202.021 3.24627 -2.68692 0
M  V30 2077 H 200.745 2.90532 -1.49193 0
M  V30 2078 H 199.404 1.69742 -3.24936 0
M  V30 2079 H 199.052 4.14175 -2.85426 0
M  V30 2080 H 198.752 3.71028 -4.55645 0
M  V30 2081 H 200.276 4.52387 -4.10095 0
M  V30 2082 H 201.69 2.51117 -5.15377 0
M  V30 2083 H 200.087 1.9241 -5.68417 0
M  V30 2084 H 201.157 0.84136 -4.77545 0
M  V30 2085 N 202.5 1.5196 0.417844 0
M  V30 2086 C 203.725 1.69717 1.1921 0
M  V30 2087 C 204.15 0.402148 1.83751 0
M  V30 2088 O 203.508 -0.639593 1.69643 0
M  V30 2089 C 203.556 2.82794 2.2374 0
M  V30 2090 O 202.66 2.47756 3.29683 0
M  V30 2091 H 202.001 0.565263 0.348387 0
M  V30 2092 H 204.531 1.98621 0.490985 0
M  V30 2093 H 204.541 3.07452 2.68212 0
M  V30 2094 H 203.216 3.76756 1.76146 0
M  V30 2095 H 201.793 2.33739 2.90552 0
M  V30 2096 N 203.978 -0.674533 1.42435 0
M  V30 2097 C 204.941 -1.76986 1.45632 0
M  V30 2098 C 205.941 -1.5708 0.343871 0
M  V30 2099 O 207.131 -1.63367 0.604709 0
M  V30 2100 C 204.263 -3.15623 1.28822 0
M  V30 2101 H 205.456 -1.75539 2.43158 0
M  V30 2102 H 203.009 -0.884189 1.28887 0
M  V30 2103 H 203.744 -3.22696 0.322193 0
M  V30 2104 H 203.529 -3.31475 2.09444 0
M  V30 2105 H 205.019 -3.95537 1.33942 0
M  V30 2106 N 205.456 -1.28612 -0.910864 0
M  V30 2107 C 206.704 -1.15705 -1.65701 0
M  V30 2108 C 207.025 0.29416 -1.92769 0
M  V30 2109 O 206.295 1.20331 -1.54588 0
M  V30 2110 H 204.875 -0.425216 -0.614167 0
M  V30 2111 H 207.537 -1.61381 -1.0928 0
M  V30 2112 H 206.633 -1.6988 -2.61815 0
M  V30 2113 N 206.934 1.1197 -1.10907 0
M  V30 2114 C 208.18 1.8386 -0.855773 0
M  V30 2115 C 208.513 1.84134 0.617103 0
M  V30 2116 O 207.788 1.29041 1.45529 0
M  V30 2117 C 208.071 3.31305 -1.411 0
M  V30 2118 C 207.924 3.39456 -2.9511 0
M  V30 2119 C 209.243 4.2721 -1.05736 0
M  V30 2120 H 206.362 0.667545 -0.312334 0
M  V30 2121 H 209.004 1.31331 -1.37303 0
M  V30 2122 H 207.154 3.76169 -0.97105 0
M  V30 2123 H 208.826 3.03191 -3.47668 0
M  V30 2124 H 207.069 2.79849 -3.31462 0
M  V30 2125 H 207.74 4.43209 -3.29044 0
M  V30 2126 H 210.216 3.90497 -1.43706 0
M  V30 2127 H 209.092 5.28775 -1.47269 0
M  V30 2128 H 209.353 4.42088 0.0325958 0
M  V30 2129 N 208.412 0.89855 1.29475 0
M  V30 2130 C 209.659 0.523882 1.95606 0
M  V30 2131 C 209.987 -0.929608 1.70847 0
M  V30 2132 O 209.242 -1.67401 1.01367 0
M  V30 2133 C 209.541 0.761398 3.49195 0
M  V30 2134 C 209.207 2.19207 3.94029 0
M  V30 2135 C 207.869 2.58326 4.05982 0
M  V30 2136 C 210.221 3.12379 4.17216 0
M  V30 2137 C 207.549 3.898 4.38489 0
M  V30 2138 C 209.901 4.43401 4.51197 0
M  V30 2139 C 208.565 4.82394 4.61359 0
M  V30 2140 H 207.835 0.191702 0.715773 0
M  V30 2141 H 210.482 1.13699 1.54094 0
M  V30 2142 H 208.787 0.0653622 3.91745 0
M  V30 2143 H 210.484 0.450904 3.98457 0
M  V30 2144 H 207.074 1.87846 3.85242 0
M  V30 2145 H 211.258 2.83371 4.07449 0
M  V30 2146 H 206.514 4.19734 4.44559 0
M  V30 2147 H 210.688 5.15623 4.68087 0
M  V30 2148 H 208.315 5.84306 4.86303 0
M  V30 2149 N 209.89 -1.43072 0.660911 0
M  V30 2150 C 210.8 -2.34585 -0.0264163 0
M  V30 2151 C 211.816 -1.54316 -0.803898 0
M  V30 2152 O 212.992 -1.86939 -0.749391 0
M  V30 2153 C 210.057 -3.32689 -0.975639 0
M  V30 2154 C 209.118 -4.2886 -0.194236 0
M  V30 2155 C 208.351 -5.22278 -1.09825 0
M  V30 2156 O 208.574 -5.20299 -2.33763 0
M  V30 2157 O 207.508 -5.99228 -0.566513 0
M  V30 2158 H 211.334 -2.94869 0.727034 0
M  V30 2159 H 208.919 -1.43342 0.42111 0
M  V30 2160 H 210.801 -3.92995 -1.52094 0
M  V30 2161 H 209.476 -2.74898 -1.70918 0
M  V30 2162 H 208.383 -3.72011 0.394835 0
M  V30 2163 H 209.716 -4.89655 0.499899 0
M  V30 2164 N 211.368 -0.403325 -1.52352 0
M  V30 2165 C 212.598 0.17376 -2.05868 0
M  V30 2166 C 213.006 1.39898 -1.27378 0
M  V30 2167 O 212.349 1.80939 -0.31729 0
M  V30 2168 C 212.411 0.594756 -3.54546 0
M  V30 2169 C 212.075 -0.518926 -4.54044 0
M  V30 2170 C 213.072 -1.3807 -5.01231 0
M  V30 2171 C 210.757 -0.689961 -4.97539 0
M  V30 2172 C 212.751 -2.39852 -5.90551 0
M  V30 2173 C 210.438 -1.71109 -5.86656 0
M  V30 2174 C 211.436 -2.56378 -6.33056 0
M  V30 2175 O 211.124 -3.56743 -7.20409 0
M  V30 2176 H 210.856 0.0264951 -0.675481 0
M  V30 2177 H 213.41 -0.571179 -1.97299 0
M  V30 2178 H 211.64 1.39189 -3.60782 0
M  V30 2179 H 213.329 1.0991 -3.90736 0
M  V30 2180 H 214.095 -1.25994 -4.68349 0
M  V30 2181 H 209.974 -0.035939 -4.60986 0
M  V30 2182 H 213.518 -3.06441 -6.26689 0
M  V30 2183 H 209.415 -1.83218 -6.18952 0
M  V30 2184 H 210.183 -3.52918 -7.38506 0
M  V30 2185 N 212.846 1.57033 -0.133567 0
M  V30 2186 C 213.809 2.14897 0.796995 0
M  V30 2187 C 214.809 1.0874 1.18458 0
M  V30 2188 O 215.999 1.34446 1.1077 0
M  V30 2189 C 213.131 2.70112 2.07973 0
M  V30 2190 H 214.324 2.98457 0.293873 0
M  V30 2191 H 211.877 1.55871 0.115787 0
M  V30 2192 H 212.612 1.9018 2.62682 0
M  V30 2193 H 212.397 3.47764 1.81115 0
M  V30 2194 H 213.887 3.14738 2.74462 0
M  V30 2195 N 214.325 -0.140222 1.56975 0
M  V30 2196 C 215.235 -1.19223 2.02047 0
M  V30 2197 C 216.251 -1.46612 0.937062 0
M  V30 2198 O 217.427 -1.58148 1.24704 0
M  V30 2199 C 214.492 -2.50414 2.39778 0
M  V30 2200 C 213.553 -2.30612 3.621 0
M  V30 2201 C 212.786 -3.55547 3.98023 0
M  V30 2202 O 213.009 -4.62004 3.34528 0
M  V30 2203 O 211.943 -3.47808 4.91237 0
M  V30 2204 H 215.769 -0.839559 2.91865 0
M  V30 2205 H 213.354 -0.349453 1.45256 0
M  V30 2206 H 215.236 -3.27747 2.64877 0
M  V30 2207 H 213.911 -2.85198 1.53114 0
M  V30 2208 H 212.818 -1.51207 3.4218 0
M  V30 2209 H 214.151 -2.00741 4.49404 0
M  V30 2210 N 215.803 -1.52179 -0.40978 0
M  V30 2211 C 216.713 -1.78364 -1.52392 0
M  V30 2212 C 217.729 -0.669183 -1.60617 0
M  V30 2213 O 218.905 -0.954518 -1.77344 0
M  V30 2214 C 215.97 -1.92822 -2.88133 0
M  V30 2215 C 215.031 -3.16725 -2.898 0
M  V30 2216 C 214.264 -3.30483 -4.19067 0
M  V30 2217 O 214.487 -2.49522 -5.12928 0
M  V30 2218 O 213.421 -4.2363 -4.27576 0
M  V30 2219 H 217.247 -2.72931 -1.33201 0
M  V30 2220 H 214.832 -1.37016 -0.59557 0
M  V30 2221 H 216.714 -2.04157 -3.68643 0
M  V30 2222 H 215.389 -1.01444 -3.07393 0
M  V30 2223 H 214.296 -3.10848 -2.08146 0
M  V30 2224 H 215.629 -4.07881 -2.75489 0
M  V30 2225 N 217.281 0.66697 -1.42791 0
M  V30 2226 C 218.697 0.981027 -1.25889 0
M  V30 2227 C 218.897 2.00793 -0.168695 0
M  V30 2228 O 217.953 2.48321 0.45747 0
M  V30 2229 C 219.266 1.47838 -2.61848 0
M  V30 2230 C 220.814 1.59575 -2.69267 0
M  V30 2231 C 221.289 2.12704 -4.05612 0
M  V30 2232 N 222.78 2.20026 -4.07606 0
M  V30 2233 C 223.515 2.62227 -5.09926 0
M  V30 2234 N 223.011 3.03824 -6.22626 0
M  V30 2235 N 224.804 2.62045 -4.97281 0
M  V30 2236 H 216.955 -0.0127891 -2.12396 0
M  V30 2237 H 219.218 0.0568258 -0.946295 0
M  V30 2238 H 218.924 0.798299 -3.4252 0
M  V30 2239 H 218.798 2.45579 -2.86305 0
M  V30 2240 H 221.185 2.26687 -1.88936 0
M  V30 2241 H 221.266 0.60302 -2.48591 0
M  V30 2242 H 220.91 1.46198 -4.86404 0
M  V30 2243 H 220.84 3.12782 -4.23645 0
M  V30 2244 H 223.331 1.90708 -3.2625 0
M  V30 2245 H 223.644 3.34734 -6.96544 0
M  V30 2246 H 221.989 3.01662 -6.26119 0
M  V30 2247 H 225.18 2.28916 -4.08308 0
M  V30 2248 H 225.353 2.94613 -5.77154 0
M  V30 2249 N 218.759 1.29093 0.90403 0
M  V30 2250 C 220.007 1.16583 1.65085 0
M  V30 2251 C 220.328 -0.283933 1.92922 0
M  V30 2252 O 219.598 -1.19509 1.55224 0
M  V30 2253 H 218.178 0.428467 0.611903 0
M  V30 2254 H 220.84 1.61959 1.08422 0
M  V30 2255 H 219.936 1.71266 2.6091 0
M  V30 2256 N 220.237 -1.11381 1.11499 0
M  V30 2257 C 221.653 -1.35143 0.849031 0
M  V30 2258 C 221.853 -1.94515 -0.525938 0
M  V30 2259 O 220.909 -2.1785 -1.27662 0
M  V30 2260 C 222.222 -2.28249 1.95762 0
M  V30 2261 C 223.77 -2.41812 1.98736 0
M  V30 2262 C 224.245 -3.3824 3.088 0
M  V30 2263 N 225.736 -3.45803 3.08179 0
M  V30 2264 C 226.471 -4.20358 3.89982 0
M  V30 2265 N 225.967 -4.97884 4.8175 0
M  V30 2266 N 227.76 -4.15877 3.78157 0
M  V30 2267 H 219.911 -0.712062 2.00109 0
M  V30 2268 H 222.174 -0.376025 0.870235 0
M  V30 2269 H 221.88 -1.91817 2.94787 0
M  V30 2270 H 221.754 -3.28473 1.85433 0
M  V30 2271 H 224.141 -2.77518 1.00338 0
M  V30 2272 H 224.222 -1.41437 2.13141 0
M  V30 2273 H 223.866 -3.03261 4.07425 0
M  V30 2274 H 223.796 -4.38471 2.91635 0
M  V30 2275 H 226.287 -2.90506 2.41691 0
M  V30 2276 H 226.6 -5.52142 5.40702 0
M  V30 2277 H 224.945 -4.97043 4.85771 0
M  V30 2278 H 228.136 -3.544 3.05808 0
M  V30 2279 H 228.309 -4.73723 4.42143 0
M  V30 2280 N 221.715 -0.905404 -1.28997 0
M  V30 2281 C 223.131 -0.60233 -1.47798 0
M  V30 2282 C 223.331 0.854645 -1.82478 0
M  V30 2283 O 222.387 1.63439 -1.92468 0
M  V30 2284 C 223.7 -1.53306 -2.58685 0
M  V30 2285 C 225.248 -1.53887 -2.72558 0
M  V30 2286 C 225.723 -2.45602 -3.86579 0
M  V30 2287 N 227.214 -2.43681 -3.93921 0
M  V30 2288 C 227.949 -3.11347 -4.81509 0
M  V30 2289 N 227.445 -3.88313 -5.73746 0
M  V30 2290 N 229.238 -3.00476 -4.75048 0
M  V30 2291 H 221.389 -1.84765 -1.04764 0
M  V30 2292 H 223.652 -0.792025 -0.520961 0
M  V30 2293 H 223.358 -2.57141 -2.39941 0
M  V30 2294 H 223.232 -1.25787 -3.55609 0
M  V30 2295 H 225.619 -0.507941 -2.90696 0
M  V30 2296 H 225.7 -1.85447 -1.76191 0
M  V30 2297 H 225.344 -3.48792 -3.69197 0
M  V30 2298 H 225.274 -2.11349 -4.82327 0
M  V30 2299 H 227.765 -1.87767 -3.27951 0
M  V30 2300 H 228.078 -4.36985 -6.37389 0
M  V30 2301 H 226.423 -3.92419 -5.73614 0
M  V30 2302 H 229.614 -2.39858 -4.01977 0
M  V30 2303 H 229.787 -3.53485 -5.43095 0
M  V30 2304 N 223.193 1.4272 -0.668489 0
M  V30 2305 C 224.442 2.00846 -0.185389 0
M  V30 2306 C 224.755 1.53442 1.21305 0
M  V30 2307 O 225.961 2.03944 1.79218 0
M  V30 2308 C 224.417 3.58805 -0.280591 0
M  V30 2309 C 224.025 4.15198 -1.68268 0
M  V30 2310 C 225.769 4.24255 0.14412 0
M  V30 2311 C 223.676 5.655 -1.73099 0
M  V30 2312 H 222.606 0.751145 -0.0655475 0
M  V30 2313 H 225.257 1.63516 -0.832752 0
M  V30 2314 H 223.639 3.93608 0.434553 0
M  V30 2315 H 224.813 3.91866 -2.42441 0
M  V30 2316 H 223.128 3.62176 -2.05469 0
M  V30 2317 H 225.725 5.34547 0.128086 0
M  V30 2318 H 226.068 3.99277 1.17827 0
M  V30 2319 H 226.601 3.94389 -0.519798 0
M  V30 2320 H 223.34 5.95268 -2.74475 0
M  V30 2321 H 222.86 5.90842 -1.03274 0
M  V30 2322 H 224.539 6.29808 -1.48158 0
M  V30 2323 N 224.671 0.411399 1.52136 0
M  V30 2324 C 225.601 -0.404015 2.29978 0
M  V30 2325 C 226.582 -1.04412 1.34284 0
M  V30 2326 O 227.767 -1.0527 1.63192 0
M  V30 2327 C 224.897 -1.5197 3.12286 0
M  V30 2328 C 223.851 -1.00448 4.16046 0
M  V30 2329 C 223.177 -2.21393 4.86712 0
M  V30 2330 C 224.477 -0.0569336 5.22269 0
M  V30 2331 H 226.171 0.245529 2.98392 0
M  V30 2332 H 223.717 0.119525 1.43503 0
M  V30 2333 H 225.67 -2.09715 3.6551 0
M  V30 2334 H 224.394 -2.19716 2.41646 0
M  V30 2335 H 223.053 -0.449421 3.63835 0
M  V30 2336 H 222.701 -2.87699 4.12599 0
M  V30 2337 H 222.401 -1.87571 5.56858 0
M  V30 2338 H 223.925 -2.7974 5.4275 0
M  V30 2339 H 225.339 -0.54325 5.7072 0
M  V30 2340 H 223.736 0.192594 5.99791 0
M  V30 2341 H 224.806 0.887663 4.76706 0
M  V30 2342 N 226.149 -1.5696 0.141893 0
M  V30 2343 C 227.565 -1.58151 -0.21456 0
M  V30 2344 C 227.765 -1.1559 -1.65049 0
M  V30 2345 O 226.821 -0.853832 -2.37626 0
M  V30 2346 C 228.134 -3.00674 0.0395576 0
M  V30 2347 C 229.682 -3.1299 -0.0245529 0
M  V30 2348 C 230.157 -4.57554 0.202167 0
M  V30 2349 N 231.648 -4.62961 0.148919 0
M  V30 2350 C 232.383 -5.7262 0.298924 0
M  V30 2351 N 231.879 -6.90947 0.50637 0
M  V30 2352 N 233.672 -5.61601 0.236886 0
M  V30 2353 H 225.823 -1.8292 1.07953 0
M  V30 2354 H 228.086 -0.846425 0.42693 0
M  V30 2355 H 227.792 -3.36183 1.03315 0
M  V30 2356 H 227.666 -3.70981 -0.682143 0
M  V30 2357 H 230.053 -2.77326 -1.00869 0
M  V30 2358 H 230.134 -2.4518 0.729396 0
M  V30 2359 H 229.778 -4.93922 1.18338 0
M  V30 2360 H 229.708 -5.23484 -0.572044 0
M  V30 2361 H 232.199 -3.77899 -0.00697015 0
M  V30 2362 H 232.512 -7.7038 0.611076 0
M  V30 2363 H 230.857 -6.92878 0.542628 0
M  V30 2364 H 234.048 -4.68039 0.0756209 0
M  V30 2365 H 234.221 -6.47015 0.357227 0
M  V30 2366 N 227.627 0.131896 -1.57047 0
M  V30 2367 C 228.875 0.840269 -1.83804 0
M  V30 2368 C 229.196 1.81017 -0.72512 0
M  V30 2369 O 228.466 1.94272 0.251995 0
M  V30 2370 H 227.046 0.313294 -0.678127 0
M  V30 2371 H 229.708 0.122294 -1.94516 0
M  V30 2372 H 228.804 1.39335 -2.79271 0
M  V30 2373 N 229.106 1.52395 0.401703 0
M  V30 2374 C 230.036 1.79231 1.49661 0
M  V30 2375 C 231.017 0.643654 1.57452 0
M  V30 2376 O 232.202 0.889989 1.72606 0
M  V30 2377 C 229.332 1.94971 2.87409 0
M  V30 2378 C 228.286 3.10604 2.94465 0
M  V30 2379 C 227.612 3.11577 4.34538 0
M  V30 2380 C 228.912 4.49921 2.6527 0
M  V30 2381 H 230.606 2.70917 1.27454 0
M  V30 2382 H 228.152 1.30362 0.6117 0
M  V30 2383 H 230.105 2.12328 3.63999 0
M  V30 2384 H 228.829 0.999632 3.10926 0
M  V30 2385 H 227.488 2.93009 2.20321 0
M  V30 2386 H 227.136 2.14277 4.55076 0
M  V30 2387 H 226.836 3.89247 4.40183 0
M  V30 2388 H 228.36 3.31073 5.13053 0
M  V30 2389 H 229.774 4.67683 3.31581 0
M  V30 2390 H 228.171 5.29564 2.82281 0
M  V30 2391 H 229.241 4.57507 1.60671 0
M  V30 2392 N 230.584 -0.659388 1.43143 0
M  V30 2393 C 231.547 -1.75432 1.47501 0
M  V30 2394 C 232.547 -1.56707 0.360512 0
M  V30 2395 O 233.737 -1.62717 0.622002 0
M  V30 2396 C 230.869 -3.14239 1.32162 0
M  V30 2397 H 232.062 -1.7295 2.45006 0
M  V30 2398 H 229.615 -0.870469 1.29817 0
M  V30 2399 H 230.35 -3.22336 0.356401 0
M  V30 2400 H 230.135 -3.29235 2.12948 0
M  V30 2401 H 231.625 -3.94094 1.3813 0
M  V30 2402 N 232.062 -1.29571 -0.897171 0
M  V30 2403 C 233.309 -1.17689 -1.6479 0
M  V30 2404 C 233.637 0.27107 -1.92602 0
M  V30 2405 O 232.892 1.21193 -1.53658 0
M  V30 2406 C 233.191 -1.9382 -3.00281 0
M  V30 2407 C 232.857 -3.43522 -2.92068 0
M  V30 2408 C 231.519 -3.84348 -2.89535 0
M  V30 2409 C 233.871 -4.38906 -2.81089 0
M  V30 2410 C 231.199 -5.18869 -2.73846 0
M  V30 2411 C 233.551 -5.73521 -2.66939 0
M  V30 2412 C 232.215 -6.13601 -2.62774 0
M  V30 2413 H 231.485 -0.430654 -0.603008 0
M  V30 2414 H 234.132 -1.60536 -1.04404 0
M  V30 2415 H 232.437 -1.4357 -3.64547 0
M  V30 2416 H 234.134 -1.82028 -3.57305 0
M  V30 2417 H 230.724 -3.11072 -2.94842 0
M  V30 2418 H 234.908 -4.08315 -2.82121 0
M  V30 2419 H 230.164 -5.4903 -2.69027 0
M  V30 2420 H 234.338 -6.47078 -2.57416 0
M  V30 2421 H 231.965 -7.17786 -2.50375 0
M  V30 2422 N 233.54 1.10788 -1.12088 0
M  V30 2423 C 234.786 1.82942 -0.875226 0
M  V30 2424 C 235.119 1.84779 0.597538 0
M  V30 2425 O 234.394 1.30578 1.44152 0
M  V30 2426 C 234.677 3.29789 -1.44606 0
M  V30 2427 C 234.53 3.36307 -2.98693 0
M  V30 2428 C 235.849 4.26064 -1.10261 0
M  V30 2429 H 232.968 0.664195 -0.319397 0
M  V30 2430 H 235.61 1.29867 -1.38689 0
M  V30 2431 H 233.76 3.75118 -1.01089 0
M  V30 2432 H 235.432 2.99487 -3.50864 0
M  V30 2433 H 233.675 2.76318 -3.34411 0
M  V30 2434 H 234.346 4.39694 -3.33726 0
M  V30 2435 H 236.822 3.88951 -1.4784 0
M  V30 2436 H 235.698 5.27183 -1.52869 0
M  V30 2437 H 235.959 4.42098 -0.0142953 0
M  V30 2438 N 235.018 0.912232 1.28515 0
M  V30 2439 C 235.95 0.35676 2.26406 0
M  V30 2440 C 236.963 -0.503933 1.54804 0
M  V30 2441 O 238.152 -0.319059 1.75625 0
M  V30 2442 C 235.252 -0.508825 3.35058 0
M  V30 2443 C 234.425 0.329007 4.36161 0
M  V30 2444 C 233.484 -0.471422 5.24084 0
M  V30 2445 O 232.51 0.115482 5.69083 0
M  V30 2446 N 233.712 -1.77479 5.52704 0
M  V30 2447 H 236.477 1.19818 2.74707 0
M  V30 2448 H 234.038 0.778022 1.4198 0
M  V30 2449 H 236.03 -1.051 3.90815 0
M  V30 2450 H 234.6 -1.25095 2.86478 0
M  V30 2451 H 233.82 1.05256 3.79888 0
M  V30 2452 H 235.108 0.90234 5.00735 0
M  V30 2453 H 234.506 -2.27417 5.17975 0
M  V30 2454 H 233.063 -2.26382 6.11224 0
M  V30 2455 N 236.496 -1.42363 0.676048 0
M  V30 2456 C 237.773 -1.95183 0.127726 0
M  V30 2457 C 238.153 -1.61641 -1.35777 0
M  V30 2458 O 237.501 -0.913216 -2.09458 0
M  V30 2459 C 237.711 -3.46721 0.398199 0
M  V30 2460 C 239.059 -4.23427 0.315383 0
M  V30 2461 O 240.083 -3.54649 0.332016 0
M  V30 2462 O 238.942 -5.45888 0.25865 0
M  V30 2463 H 236.036 -0.826992 0.00359427 0
M  V30 2464 H 238.582 -1.52184 0.750864 0
M  V30 2465 H 237.354 -3.64344 1.4272 0
M  V30 2466 H 236.977 -3.96769 -0.256885 0
M  V30 2467 N 237.974 -0.419461 -1.51915 0
M  V30 2468 C 239.221 0.152939 -2.01922 0
M  V30 2469 C 239.549 1.4426 -1.30458 0
M  V30 2470 O 238.804 1.91514 -0.402593 0
M  V30 2471 C 239.103 0.437067 -3.54717 0
M  V30 2472 C 238.769 -0.764632 -4.44369 0
M  V30 2473 C 237.431 -1.09423 -4.68594 0
M  V30 2474 C 239.783 -1.56713 -4.97082 0
M  V30 2475 C 237.111 -2.22732 -5.42777 0
M  V30 2476 C 239.463 -2.69107 -5.72507 0
M  V30 2477 C 238.127 -3.02541 -5.95 0
M  V30 2478 H 237.397 0.0559644 -0.738884 0
M  V30 2479 H 240.044 -0.562998 -1.83037 0
M  V30 2480 H 238.349 1.23469 -3.71837 0
M  V30 2481 H 240.046 0.893083 -3.90928 0
M  V30 2482 H 236.636 -0.497775 -4.257 0
M  V30 2483 H 240.82 -1.32571 -4.78266 0
M  V30 2484 H 236.076 -2.48971 -5.58411 0
M  V30 2485 H 240.25 -3.31671 -6.12346 0
M  V30 2486 H 237.877 -3.90457 -6.52264 0
M  V30 2487 N 239.452 1.56882 -0.150215 0
M  V30 2488 C 240.863 1.82995 0.370076 0
M  V30 2489 C 241.214 1.06907 1.64515 0
M  V30 2490 O 240.339 0.315369 2.1409 0
M  V30 2491 C 240.934 3.31942 0.678208 0
M  V30 2492 C 239.493 3.58625 1.14301 0
M  V30 2493 C 238.64 2.76792 0.167778 0
M  V30 2494 H 241.591 1.54209 -0.374858 0
M  V30 2495 H 241.612 3.48272 1.53254 0
M  V30 2496 H 241.124 3.87294 -0.249991 0
M  V30 2497 H 239.225 3.08664 2.08704 0
M  V30 2498 H 239.338 4.67073 1.06676 0
M  V30 2499 H 237.702 2.45972 0.661037 0
M  V30 2500 H 238.485 3.34916 -0.754069 0
M  V30 2501 N 240.93 -0.123565 1.57115 0
M  V30 2502 C 241.84 -1.17074 2.033 0
M  V30 2503 C 242.856 -1.4561 0.952559 0
M  V30 2504 O 244.032 -1.56817 1.26374 0
M  V30 2505 C 241.097 -2.47857 2.42421 0
M  V30 2506 C 240.158 -2.26758 3.64526 0
M  V30 2507 C 239.391 -3.51305 4.01771 0
M  V30 2508 O 239.614 -4.5843 3.39409 0
M  V30 2509 O 238.548 -3.42578 4.94898 0
M  V30 2510 H 242.374 -0.808555 2.92739 0
M  V30 2511 H 239.959 -0.334027 1.45618 0
M  V30 2512 H 241.841 -3.2492 2.68338 0
M  V30 2513 H 240.516 -2.83558 1.5613 0
M  V30 2514 H 239.423 -1.47569 3.43765 0
M  V30 2515 H 240.756 -1.95963 4.51508 0
M  V30 2516 N 242.408 -1.52605 -0.393616 0
M  V30 2517 C 243.685 -1.58001 -1.15304 0
M  V30 2518 C 244.065 -0.370385 -2.07825 0
M  V30 2519 O 243.413 0.641638 -2.19306 0
M  V30 2520 C 243.623 -2.91652 -1.91677 0
M  V30 2521 C 244.971 -3.4522 -2.47201 0
M  V30 2522 O 245.995 -2.93495 -2.01839 0
M  V30 2523 O 244.854 -4.35579 -3.3005 0
M  V30 2524 H 241.948 -0.637068 -0.527327 0
M  V30 2525 H 244.494 -1.64939 -0.399141 0
M  V30 2526 H 243.266 -3.71136 -1.23992 0
M  V30 2527 H 242.889 -2.88077 -2.74039 0
M  V30 2528 N 243.887 0.651787 -1.4349 0
M  V30 2529 C 245.112 1.44434 -1.48841 0
M  V30 2530 C 245.537 1.8779 -0.107955 0
M  V30 2531 O 244.895 1.57464 0.898602 0
M  V30 2532 C 244.943 2.65458 -2.44059 0
M  V30 2533 O 244.047 3.64566 -1.92784 0
M  V30 2534 H 243.388 0.433005 -0.503391 0
M  V30 2535 H 245.918 0.797451 -1.88419 0
M  V30 2536 H 245.928 3.13255 -2.6141 0
M  V30 2537 H 244.603 2.33244 -3.4434 0
M  V30 2538 H 243.18 3.23716 -1.851 0
M  V30 2539 N 245.365 1.30045 0.890287 0
M  V30 2540 C 246.328 1.15963 1.977 0
M  V30 2541 C 247.328 0.0923777 1.60534 0
M  V30 2542 O 248.518 0.340071 1.70848 0
M  V30 2543 C 245.65 0.775451 3.31963 0
M  V30 2544 H 246.843 2.12502 2.11619 0
M  V30 2545 H 244.396 1.13366 1.07601 0
M  V30 2546 H 245.131 -0.189671 3.23745 0
M  V30 2547 H 244.916 1.54668 3.60306 0
M  V30 2548 H 246.406 0.700251 4.11687 0
M  V30 2549 N 246.843 -1.10192 1.12674 0
M  V30 2550 C 248.089 -1.82658 0.894847 0
M  V30 2551 C 248.444 -1.83666 -0.573107 0
M  V30 2552 O 247.737 -1.28816 -1.41835 0
M  V30 2553 C 247.931 -3.28552 1.4067 0
M  V30 2554 C 247.76 -3.41756 2.92289 0
M  V30 2555 C 246.53 -3.54021 3.60551 0
M  V30 2556 C 248.728 -3.34949 3.90274 0
M  V30 2557 N 246.71 -3.55827 5.0026 0
M  V30 2558 C 248.081 -3.43531 5.16127 0
M  V30 2559 C 250.136 -3.18565 3.8265 0
M  V30 2560 C 248.839 -3.37416 6.3525 0
M  V30 2561 C 250.865 -3.13772 5.01299 0
M  V30 2562 C 250.227 -3.22938 6.26012 0
M  V30 2563 H 246.326 -0.683044 0.380756 0
M  V30 2564 H 248.91 -1.31752 1.43351 0
M  V30 2565 H 247.081 -3.77946 0.895055 0
M  V30 2566 H 248.813 -3.88991 1.11661 0
M  V30 2567 H 245.568 -3.57135 3.1105 0
M  V30 2568 H 245.992 -3.60335 5.73138 0
M  V30 2569 H 250.634 -3.10354 2.87124 0
M  V30 2570 H 248.352 -3.44391 7.3104 0
M  V30 2571 H 251.938 -3.02242 4.97133 0
M  V30 2572 H 250.818 -3.19235 7.16281 0
M  V30 2573 N 248.321 -0.919034 -1.28029 0
M  V30 2574 C 249.284 -0.416182 -2.2539 0
M  V30 2575 C 250.284 0.460438 -1.54067 0
M  V30 2576 O 251.474 0.262744 -1.72207 0
M  V30 2577 C 248.606 0.402707 -3.38513 0
M  V30 2578 H 249.799 -1.27629 -2.71387 0
M  V30 2579 H 247.352 -0.698919 -1.39803 0
M  V30 2580 H 248.087 1.282 -2.97885 0
M  V30 2581 H 247.872 -0.225698 -3.9145 0
M  V30 2582 H 249.362 0.745191 -4.10897 0
M  V30 2583 N 249.799 1.42003 -0.683588 0
M  V30 2584 C 250.749 2.27997 0.0121992 0
M  V30 2585 C 251.733 1.4156 0.764822 0
M  V30 2586 O 252.925 1.64935 0.642287 0
M  V30 2587 C 250.054 3.29706 0.956482 0
M  V30 2588 C 249.14 4.23625 0.200739 0
M  V30 2589 N 249.531 4.99448 -0.799087 0
M  V30 2590 C 247.829 4.43845 0.437937 0
M  V30 2591 C 248.53 5.68102 -1.25041 0
M  V30 2592 N 247.506 5.40511 -0.578648 0
M  V30 2593 H 251.308 2.84048 -0.754564 0
M  V30 2594 H 248.822 1.54071 -0.513398 0
M  V30 2595 H 250.819 3.90124 1.47 0
M  V30 2596 H 249.479 2.75216 1.72297 0
M  V30 2597 H 250.49 5.04303 -1.17893 0
M  V30 2598 H 247.167 4.00382 1.18325 0
M  V30 2599 H 248.557 6.38913 -2.07942 0
M  V30 2600 N 251.277 0.427512 1.51691 0
M  V30 2601 C 252.688 -0.0378867 1.86662 0
M  V30 2602 C 253.039 -1.42819 1.34525 0
M  V30 2603 O 252.164 -2.05037 0.692014 0
M  V30 2604 C 252.759 -0.0755266 3.38716 0
M  V30 2605 C 251.318 -0.485309 3.73258 0
M  V30 2606 C 250.465 0.328399 2.75349 0
M  V30 2607 H 253.416 0.64379 1.45055 0
M  V30 2608 H 253.437 -0.887056 3.70016 0
M  V30 2609 H 252.949 0.936487 3.76632 0
M  V30 2610 H 251.05 -1.50329 3.40928 0
M  V30 2611 H 251.163 -0.21693 4.78609 0
M  V30 2612 H 249.527 -0.211905 2.53817 0
M  V30 2613 H 250.31 1.3391 3.16106 0
M  V30 2614 N 252.755 -1.56801 0.158532 0
M  V30 2615 C 254.001 -1.96781 -0.490405 0
M  V30 2616 C 254.334 -1.04397 -1.63753 0
M  V30 2617 O 253.609 -0.0885805 -1.94298 0
M  V30 2618 C 253.892 -3.4635 -0.985594 0
M  V30 2619 C 253.745 -4.49512 0.160824 0
M  V30 2620 C 255.064 -3.98697 -1.86355 0
M  V30 2621 H 252.183 -0.715482 -0.176788 0
M  V30 2622 H 254.825 -1.88451 0.242088 0
M  V30 2623 H 252.975 -3.53579 -1.60978 0
M  V30 2624 H 254.647 -4.54353 0.797537 0
M  V30 2625 H 252.89 -4.26013 0.818256 0
M  V30 2626 H 253.561 -5.51531 -0.227569 0
M  V30 2627 H 256.037 -3.94019 -1.33746 0
M  V30 2628 H 254.913 -5.03792 -2.17909 0
M  V30 2629 H 255.174 -3.41744 -2.8047 0
M  V30 2630 N 254.233 0.115231 -1.57178 0
M  V30 2631 C 255.51 0.852873 -1.76027 0
M  V30 2632 C 255.89 1.97892 -0.73498 0
M  V30 2633 O 255.238 2.27232 0.24036 0
M  V30 2634 C 255.448 1.36608 -3.21153 0
M  V30 2635 C 256.796 1.81692 -3.83762 0
M  V30 2636 O 257.82 1.46278 -3.24779 0
M  V30 2637 O 256.679 2.47104 -4.87444 0
M  V30 2638 H 253.773 0.405296 -0.720877 0
M  V30 2639 H 256.319 0.0986785 -1.69413 0
M  V30 2640 H 255.091 0.558357 -3.87296 0
M  V30 2641 H 254.714 2.18287 -3.3232 0
M  V30 2642 N 255.711 1.52812 0.385517 0
M  V30 2643 C 256.959 1.67694 1.12797 0
M  V30 2644 C 257.28 0.421115 1.90399 0
M  V30 2645 O 256.55 -0.564551 1.87589 0
M  V30 2646 H 255.13 0.618155 0.419396 0
M  V30 2647 H 257.792 1.89938 0.436972 0
M  V30 2648 H 256.888 2.52896 1.82894 0
M  V30 2649 N 257.189 -0.644168 1.43834 0
M  V30 2650 C 258.119 -1.76814 1.52509 0
M  V30 2651 C 259.1 -1.65823 0.379052 0
M  V30 2652 O 260.285 -1.84781 0.597466 0
M  V30 2653 C 257.415 -3.15288 1.4564 0
M  V30 2654 C 256.369 -3.41053 2.58586 0
M  V30 2655 C 255.695 -4.79421 2.36769 0
M  V30 2656 C 256.995 -3.34902 4.00797 0
M  V30 2657 H 258.689 -1.69812 2.46586 0
M  V30 2658 H 256.235 -0.815542 1.1868 0
M  V30 2659 H 258.188 -3.93681 1.50311 0
M  V30 2660 H 256.912 -3.23043 0.480725 0
M  V30 2661 H 255.571 -2.65035 2.53282 0
M  V30 2662 H 255.219 -4.83863 1.37424 0
M  V30 2663 H 254.919 -4.9762 3.12487 0
M  V30 2664 H 256.443 -5.6006 2.43238 0
M  V30 2665 H 257.857 -4.03218 4.07539 0
M  V30 2666 H 256.254 -3.64637 4.76613 0
M  V30 2667 H 257.324 -2.32928 4.25291 0
M  V30 2668 N 258.668 -1.30515 -0.883378 0
M  V30 2669 C 259.914 -1.19607 -1.63774 0
M  V30 2670 C 260.247 0.248314 -1.92606 0
M  V30 2671 O 259.522 1.17742 -1.54813 0
M  V30 2672 C 259.805 -2.02669 -2.97653 0
M  V30 2673 C 259.658 -3.55335 -2.75784 0
M  V30 2674 C 260.977 -1.86573 -3.98596 0
M  V30 2675 H 258.096 -0.435856 -0.594305 0
M  V30 2676 H 260.738 -1.60165 -1.02212 0
M  V30 2677 H 258.888 -1.68208 -3.50197 0
M  V30 2678 H 260.56 -3.99863 -2.30016 0
M  V30 2679 H 258.803 -3.79438 -2.1026 0
M  V30 2680 H 259.474 -4.08745 -3.70988 0
M  V30 2681 H 261.95 -2.16703 -3.55217 0
M  V30 2682 H 260.826 -2.47014 -4.90179 0
M  V30 2683 H 261.087 -0.825321 -4.34328 0
M  V30 2684 N 260.146 1.09593 -1.13257 0
M  V30 2685 C 261.109 2.14359 -0.811358 0
M  V30 2686 C 262.109 1.59808 0.178377 0
M  V30 2687 O 263.299 1.74132 -0.0484911 0
M  V30 2688 C 260.431 3.40269 -0.207276 0
M  V30 2689 H 261.624 2.44284 -1.73969 0
M  V30 2690 H 259.177 1.25102 -0.936973 0
M  V30 2691 H 259.912 3.15969 0.73036 0
M  V30 2692 H 259.697 3.81154 -0.919992 0
M  V30 2693 H 261.187 4.176 0.000667944 0
M  V30 2694 N 261.624 0.925811 1.2754 0
M  V30 2695 C 262.854 0.580666 1.98272 0
M  V30 2696 C 263.262 -0.845207 1.69272 0
M  V30 2697 O 262.605 -1.57306 0.948707 0
M  V30 2698 C 262.667 0.724418 3.52126 0
M  V30 2699 C 262.331 2.12206 4.04744 0
M  V30 2700 C 263.328 3.09604 4.17662 0
M  V30 2701 C 261.013 2.4385 4.39138 0
M  V30 2702 C 263.007 4.36755 4.64246 0
M  V30 2703 C 260.694 3.71237 4.85414 0
M  V30 2704 C 261.692 4.67503 4.97926 0
M  V30 2705 O 261.38 5.92624 5.43187 0
M  V30 2706 H 261.112 0.218987 0.639547 0
M  V30 2707 H 263.666 1.24452 1.63404 0
M  V30 2708 H 261.896 0.0034663 3.867 0
M  V30 2709 H 263.585 0.384607 4.04074 0
M  V30 2710 H 264.351 2.86478 3.91351 0
M  V30 2711 H 260.23 1.69665 4.28643 0
M  V30 2712 H 263.774 5.11898 4.73927 0
M  V30 2713 H 259.671 3.94182 5.11166 0
M  V30 2714 H 260.439 5.95585 5.61445 0
M  V30 2715 N 263.102 -1.41638 0.69111 0
M  V30 2716 C 264.348 -2.01598 0.220519 0
M  V30 2717 C 264.681 -1.54594 -1.17535 0
M  V30 2718 O 263.956 -0.755177 -1.79241 0
M  V30 2719 C 264.239 -3.59062 0.273243 0
M  V30 2720 C 264.092 -4.16203 1.70573 0
M  V30 2721 C 265.411 -4.38546 -0.369457 0
M  V30 2722 H 262.53 -0.732468 0.0816045 0
M  V30 2723 H 265.172 -1.68445 0.878986 0
M  V30 2724 H 263.322 -3.87435 -0.287411 0
M  V30 2725 H 264.994 -3.98722 2.31989 0
M  V30 2726 H 263.237 -3.71414 2.2413 0
M  V30 2727 H 263.908 -5.25358 1.69419 0
M  V30 2728 H 266.384 -4.1596 0.107977 0
M  V30 2729 H 265.26 -5.48069 -0.302002 0
M  V30 2730 H 265.521 -4.17662 -1.44951 0
M  V30 2731 N 264.58 -0.43555 -1.51462 0
M  V30 2732 C 265.857 0.191364 -1.94662 0
M  V30 2733 C 266.237 1.60254 -1.37411 0
M  V30 2734 O 265.585 2.2152 -0.560458 0
M  V30 2735 C 265.795 0.17091 -3.48581 0
M  V30 2736 C 267.143 0.377357 -4.2292 0
M  V30 2737 O 268.167 0.249104 -3.55328 0
M  V30 2738 O 267.026 0.63247 -5.42828 0
M  V30 2739 H 264.12 0.130932 -0.816569 0
M  V30 2740 H 266.666 -0.4934 -1.62369 0
M  V30 2741 H 265.438 -0.815738 -3.82703 0
M  V30 2742 H 265.061 0.898659 -3.87311 0
M  V30 2743 N 266.058 1.56714 -0.166846 0
M  V30 2744 C 267.304 1.97039 0.479962 0
M  V30 2745 C 267.637 1.05264 1.63197 0
M  V30 2746 O 266.912 0.0988833 1.94248 0
M  V30 2747 C 267.195 3.46867 0.967212 0
M  V30 2748 C 267.048 4.49421 -0.18466 0
M  V30 2749 C 268.367 3.9968 1.84238 0
M  V30 2750 H 265.486 0.71641 0.172992 0
M  V30 2751 H 268.128 1.8832 -0.252079 0
M  V30 2752 H 266.278 3.54428 1.59101 0
M  V30 2753 H 267.95 4.53924 -0.821621 0
M  V30 2754 H 266.193 4.25573 -0.840837 0
M  V30 2755 H 266.864 5.51644 0.198317 0
M  V30 2756 H 269.34 3.94723 1.31655 0
M  V30 2757 H 268.216 5.04941 2.15234 0
M  V30 2758 H 268.477 3.43226 2.78654 0
M  V30 2759 N 267.536 -0.106894 1.57237 0
M  V30 2760 C 268.782 -0.81373 1.85759 0
M  V30 2761 C 269.115 -1.78952 0.754315 0
M  V30 2762 O 268.39 -1.93029 -0.23879 0
M  V30 2763 C 268.673 -1.55293 3.24894 0
M  V30 2764 C 268.526 -0.595929 4.45835 0
M  V30 2765 C 269.845 -2.5063 3.61763 0
M  V30 2766 H 266.964 -0.294369 0.67566 0
M  V30 2767 H 269.606 -0.0776472 1.89841 0
M  V30 2768 H 267.756 -2.1804 3.21544 0
M  V30 2769 H 269.428 0.0236262 4.61294 0
M  V30 2770 H 267.671 0.0916191 4.33703 0
M  V30 2771 H 268.342 -1.15004 5.39887 0
M  V30 2772 H 270.818 -1.97982 3.65981 0
M  V30 2773 H 269.694 -2.99376 4.60071 0
M  V30 2774 H 269.955 -3.3385 2.89821 0
M  V30 2775 N 269.014 -1.53014 -0.377408 0
M  V30 2776 C 270.239 -1.72818 -1.14668 0
M  V30 2777 C 270.664 -0.450725 -1.8262 0
M  V30 2778 O 270.022 0.59439 -1.7128 0
M  V30 2779 C 270.07 -2.88627 -2.16164 0
M  V30 2780 O 269.174 -2.56409 -3.22998 0
M  V30 2781 H 268.515 -0.574301 -0.333278 0
M  V30 2782 H 271.045 -1.99853 -0.438152 0
M  V30 2783 H 271.055 -3.14455 -2.59966 0
M  V30 2784 H 269.73 -3.81294 -1.66095 0
M  V30 2785 H 268.307 -2.4136 -2.84253 0
M  V30 2786 N 270.492 0.636531 -1.44174 0
M  V30 2787 C 271.439 1.74875 -1.50624 0
M  V30 2788 C 272.409 1.62275 -0.35442 0
M  V30 2789 O 273.594 1.82276 -0.563908 0
M  V30 2790 C 270.734 3.13102 -1.45125 0
M  V30 2791 C 269.847 3.36717 -2.7064 0
M  V30 2792 C 268.982 4.64885 -2.57013 0
M  V30 2793 C 268.021 4.8166 -3.77717 0
M  V30 2794 N 267.158 6.01101 -3.62798 0
M  V30 2795 H 271.998 1.68697 -2.45653 0
M  V30 2796 H 269.535 0.823004 -1.21922 0
M  V30 2797 H 271.493 3.93034 -1.39929 0
M  V30 2798 H 270.123 3.18308 -0.536671 0
M  V30 2799 H 269.175 2.50763 -2.86046 0
M  V30 2800 H 270.487 3.44993 -3.60252 0
M  V30 2801 H 269.641 5.52969 -2.49619 0
M  V30 2802 H 268.38 4.58957 -1.64953 0
M  V30 2803 H 267.385 3.92007 -3.85501 0
M  V30 2804 H 268.61 4.89406 -4.70807 0
M  V30 2805 H 266.556 5.96273 -2.73486 0
M  V30 2806 H 266.473 6.10409 -4.46023 0
M  V30 2807 H 267.741 6.91761 -3.59286 0
M  V30 2808 N 271.97 1.30982 0.876444 0
M  V30 2809 C 272.88 1.2003 2.01569 0
M  V30 2810 C 273.896 0.11838 1.73597 0
M  V30 2811 O 275.072 0.33495 1.98595 0
M  V30 2812 C 272.137 0.901637 3.34771 0
M  V30 2813 C 271.198 2.06979 3.76109 0
M  V30 2814 C 270.431 1.78529 5.02954 0
M  V30 2815 O 270.654 0.717296 5.65872 0
M  V30 2816 O 269.588 2.64019 5.40905 0
M  V30 2817 H 273.414 2.15753 2.13739 0
M  V30 2818 H 270.999 1.10658 1.00375 0
M  V30 2819 H 272.881 0.750645 4.1466 0
M  V30 2820 H 271.556 -0.0256141 3.2369 0
M  V30 2821 H 270.463 2.27616 2.96887 0
M  V30 2822 H 271.796 2.97907 3.91807 0
M  V30 2823 N 273.449 -1.08991 1.13837 0
M  V30 2824 C 274.695 -1.81526 0.90422 0
M  V30 2825 C 275.028 -1.85706 -0.568066 0
M  V30 2826 O 274.303 -1.32855 -1.42056 0
M  V30 2827 C 274.586 -3.27447 1.49835 0
M  V30 2828 C 274.439 -3.31512 3.04006 0
M  V30 2829 C 275.758 -4.24256 1.17025 0
M  V30 2830 H 272.877 -0.659029 0.329923 0
M  V30 2831 H 275.519 -1.27644 1.40737 0
M  V30 2832 H 273.669 -3.73462 1.07044 0
M  V30 2833 H 275.341 -2.93867 3.55584 0
M  V30 2834 H 273.584 -2.70963 3.38765 0
M  V30 2835 H 274.255 -4.34329 3.40679 0
M  V30 2836 H 276.731 -3.86549 1.54009 0
M  V30 2837 H 275.607 -5.24684 1.61237 0
M  V30 2838 H 275.868 -4.42019 0.0846274 0
M  V30 2839 N 274.927 -0.932562 -1.27047 0
M  V30 2840 C 276.155 -0.592031 -1.98249 0
M  V30 2841 C 276.57 0.831062 -1.69525 0
M  V30 2842 O 275.927 1.55299 -0.958561 0
M  V30 2843 C 275.978 -0.814279 -3.5221 0
M  V30 2844 O 275.699 -2.18139 -3.7993 0
M  V30 2845 C 277.2 -0.483121 -4.4066 0
M  V30 2846 H 274.42 -0.223896 -0.632544 0
M  V30 2847 H 276.964 -1.25091 -1.61779 0
M  V30 2848 H 275.119 -0.20213 -3.86872 0
M  V30 2849 H 275.533 -2.235 -4.74498 0
M  V30 2850 H 277.007 -0.689298 -5.47679 0
M  V30 2851 H 277.484 0.581546 -4.35333 0
M  V30 2852 H 278.09 -1.07362 -4.11526 0
M  V30 2853 N 276.405 1.4127 -0.698611 0
M  V30 2854 C 277.821 1.55241 -0.370462 0
M  V30 2855 C 278.021 1.67351 1.12231 0
M  V30 2856 O 277.077 1.65363 1.90818 0
M  V30 2857 C 278.39 2.78997 -1.12165 0
M  V30 2858 C 279.938 2.92797 -1.1063 0
M  V30 2859 C 280.413 4.19445 -1.8393 0
M  V30 2860 N 281.904 4.26409 -1.80914 0
M  V30 2861 C 282.639 5.23271 -2.34467 0
M  V30 2862 N 282.135 6.26145 -2.96504 0
M  V30 2863 N 283.928 5.15232 -2.24706 0
M  V30 2864 H 276.079 1.31654 -1.66676 0
M  V30 2865 H 278.342 0.635393 -0.703548 0
M  V30 2866 H 278.048 2.76268 -2.17644 0
M  V30 2867 H 277.922 3.70606 -0.702209 0
M  V30 2868 H 280.309 2.95039 -0.0597713 0
M  V30 2869 H 280.39 2.02353 -1.56483 0
M  V30 2870 H 280.034 4.17964 -2.88563 0
M  V30 2871 H 279.964 5.08866 -1.35509 0
M  V30 2872 H 282.455 3.527 -1.35687 0
M  V30 2873 H 282.768 6.96451 -3.34927 0
M  V30 2874 H 281.113 6.26638 -3.00583 0
M  V30 2875 H 284.304 4.33789 -1.7591 0
M  V30 2876 H 284.477 5.90552 -2.66745 0
M  V30 2877 N 277.883 0.443576 1.51229 0
M  V30 2878 C 279.129 -0.120975 2.02439 0
M  V30 2879 C 279.462 -1.41815 1.32674 0
M  V30 2880 O 278.737 -1.89373 0.443622 0
M  V30 2881 C 279.02 -0.333291 3.58554 0
M  V30 2882 C 278.873 0.982968 4.38928 0
M  V30 2883 C 280.192 -1.10028 4.26124 0
M  V30 2884 H 277.311 -0.0424923 0.735774 0
M  V30 2885 H 279.953 0.583794 1.80809 0
M  V30 2886 H 278.103 -0.933614 3.77115 0
M  V30 2887 H 279.775 1.61775 4.32003 0
M  V30 2888 H 278.018 1.58611 4.03763 0
M  V30 2889 H 278.689 0.788379 5.46341 0
M  V30 2890 H 281.165 -0.591711 4.11871 0
M  V30 2891 H 280.041 -1.21761 5.35225 0
M  V30 2892 H 280.302 -2.12996 3.87408 0
M  V30 2893 N 279.361 -1.56624 0.175154 0
M  V30 2894 C 280.61 -1.96173 -0.468921 0
M  V30 2895 C 280.923 -1.06401 -1.64128 0
M  V30 2896 O 282.129 -1.35648 -2.35185 0
M  V30 2897 C 280.585 -3.48833 -0.885633 0
M  V30 2898 C 280.193 -4.47237 0.261343 0
M  V30 2899 C 281.937 -3.97194 -1.49791 0
M  V30 2900 C 279.844 -5.9114 -0.175214 0
M  V30 2901 H 278.774 -0.732455 -0.178958 0
M  V30 2902 H 281.425 -1.81591 0.263997 0
M  V30 2903 H 279.807 -3.58848 -1.67464 0
M  V30 2904 H 280.981 -4.4894 1.03871 0
M  V30 2905 H 279.296 -4.08956 0.783827 0
M  V30 2906 H 281.893 -5.02167 -1.83665 0
M  V30 2907 H 282.236 -3.40351 -2.39722 0
M  V30 2908 H 282.769 -3.90212 -0.773267 0
M  V30 2909 H 279.508 -6.51865 0.689414 0
M  V30 2910 H 279.028 -5.92735 -0.91786 0
M  V30 2911 H 280.707 -6.44044 -0.617792 0
M  V30 2912 N 280.839 0.0985539 -1.57292 0
M  V30 2913 C 282.116 0.834155 -1.76921 0
M  V30 2914 C 282.496 1.97101 -0.755928 0
M  V30 2915 O 281.844 2.27474 0.216245 0
M  V30 2916 C 282.054 1.33194 -3.22584 0
M  V30 2917 C 283.402 1.77611 -3.85668 0
M  V30 2918 O 284.426 1.42825 -3.26312 0
M  V30 2919 O 283.285 2.4192 -4.90038 0
M  V30 2920 H 280.379 0.397628 -0.725135 0
M  V30 2921 H 282.925 0.0807044 -1.69508 0
M  V30 2922 H 281.697 0.517248 -3.87866 0
M  V30 2923 H 281.32 2.1475 -3.34616 0
M  V30 2924 N 282.317 1.53212 0.369288 0
M  V30 2925 C 283.545 1.73119 1.13303 0
M  V30 2926 C 283.96 0.458455 1.83149 0
M  V30 2927 O 283.317 -0.568403 1.73423 0
M  V30 2928 C 283.368 2.89413 2.16616 0
M  V30 2929 O 283.089 4.11761 1.49614 0
M  V30 2930 C 284.59 3.21161 3.05566 0
M  V30 2931 H 281.81 0.579107 0.338934 0
M  V30 2932 H 284.354 1.99942 0.429338 0
M  V30 2933 H 282.509 2.64994 2.82589 0
M  V30 2934 H 282.923 4.76858 2.18419 0
M  V30 2935 H 284.397 4.05949 3.74045 0
M  V30 2936 H 284.874 2.36369 3.70171 0
M  V30 2937 H 285.48 3.47492 2.45213 0
M  V30 2938 N 283.795 -0.628877 1.44509 0
M  V30 2939 C 285.043 -1.38565 1.4712 0
M  V30 2940 C 285.364 -1.94712 0.105899 0
M  V30 2941 O 284.634 -1.75912 -0.862079 0
M  V30 2942 H 283.214 -0.514333 0.541729 0
M  V30 2943 H 285.876 -0.740018 1.80305 0
M  V30 2944 H 284.972 -2.21583 2.19789 0
M  V30 2945 N 285.273 -1.31445 -0.869486 0
M  V30 2946 C 286.519 -1.21337 -1.62496 0
M  V30 2947 C 286.852 0.227872 -1.92858 0
M  V30 2948 O 286.127 1.16094 -1.56053 0
M  V30 2949 C 286.41 -2.05814 -2.95487 0
M  V30 2950 C 286.263 -3.5824 -2.72 0
M  V30 2951 C 287.582 -1.9079 -3.96594 0
M  V30 2952 H 284.701 -0.442135 -0.589649 0
M  V30 2953 H 287.343 -1.6124 -1.00507 0
M  V30 2954 H 285.493 -1.71913 -3.48394 0
M  V30 2955 H 287.165 -4.0228 -2.25762 0
M  V30 2956 H 285.408 -3.81647 -2.06224 0
M  V30 2957 H 286.079 -4.12657 -3.66631 0
M  V30 2958 H 288.555 -2.20459 -3.52898 0
M  V30 2959 H 287.431 -2.52199 -4.87531 0
M  V30 2960 H 287.692 -0.871341 -4.33428 0
M  V30 2961 N 286.751 1.08385 -1.14413 0
M  V30 2962 C 287.998 1.80776 -0.912482 0
M  V30 2963 C 288.326 1.86236 0.560934 0
M  V30 2964 O 287.581 1.33431 1.43159 0
M  V30 2965 C 287.88 3.26273 -1.45879 0
M  V30 2966 C 287.546 3.4093 -2.95089 0
M  V30 2967 C 286.208 3.44638 -3.35824 0
M  V30 2968 C 288.56 3.44591 -3.91033 0
M  V30 2969 C 285.888 3.49597 -4.71167 0
M  V30 2970 C 288.24 3.51086 -5.26233 0
M  V30 2971 C 286.904 3.53067 -5.6648 0
M  V30 2972 H 286.174 0.661507 -0.333901 0
M  V30 2973 H 288.821 1.27613 -1.42784 0
M  V30 2974 H 287.126 3.82146 -0.864376 0
M  V30 2975 H 288.823 3.80839 -1.2555 0
M  V30 2976 H 285.413 3.38736 -2.62594 0
M  V30 2977 H 289.597 3.40957 -3.60641 0
M  V30 2978 H 284.853 3.49424 -5.0171 0
M  V30 2979 H 289.027 3.52864 -6.00383 0
M  V30 2980 H 286.654 3.56662 -6.71339 0
M  V30 2981 N 288.23 0.939286 1.26551 0
M  V30 2982 C 289.641 0.628782 1.75793 0
M  V30 2983 C 289.992 -0.856046 1.7654 0
M  V30 2984 O 289.117 -1.66994 1.3763 0
M  V30 2985 C 289.712 1.13465 3.19235 0
M  V30 2986 C 288.271 0.874601 3.66098 0
M  V30 2987 C 287.418 1.28667 2.45642 0
M  V30 2988 H 290.369 1.1178 1.12654 0
M  V30 2989 H 290.39 0.487609 3.77363 0
M  V30 2990 H 289.902 2.21535 3.1866 0
M  V30 2991 H 288.003 -0.191793 3.72106 0
M  V30 2992 H 288.116 1.50028 4.55004 0
M  V30 2993 H 286.48 0.705109 2.44745 0
M  V30 2994 H 287.263 2.37625 2.47769 0
M  V30 2995 N 289.708 -1.40897 0.706093 0
M  V30 2996 C 290.954 -2.01352 0.241889 0
M  V30 2997 C 291.287 -1.55832 -1.15888 0
M  V30 2998 O 290.562 -0.774145 -1.7843 0
M  V30 2999 C 290.845 -3.58752 0.311311 0
M  V30 3000 C 290.698 -4.1437 1.74978 0
M  V30 3001 C 292.017 -4.38914 -0.322922 0
M  V30 3002 H 289.136 -0.731562 0.0893687 0
M  V30 3003 H 291.778 -1.67504 0.896802 0
M  V30 3004 H 289.928 -3.87718 -0.246302 0
M  V30 3005 H 291.6 -3.96239 2.36205 0
M  V30 3006 H 289.843 -3.69016 2.28057 0
M  V30 3007 H 290.514 -5.23532 1.74981 0
M  V30 3008 H 292.99 -4.15822 0.152089 0
M  V30 3009 H 291.866 -5.48358 -0.243855 0
M  V30 3010 H 292.127 -4.19176 -1.40513 0
M  V30 3011 N 291.186 -0.45159 -1.50991 0
M  V30 3012 C 292.597 0.00818571 -1.86698 0
M  V30 3013 C 292.948 1.40661 -1.3678 0
M  V30 3014 O 292.073 2.0391 -0.724546 0
M  V30 3015 C 292.668 0.0216303 -3.38793 0
M  V30 3016 C 291.227 0.425865 -3.73983 0
M  V30 3017 C 290.374 -0.372163 -2.74791 0
M  V30 3018 H 293.325 -0.666785 -1.44013 0
M  V30 3019 H 293.346 0.828078 -3.7138 0
M  V30 3020 H 292.858 -0.996288 -3.75094 0
M  V30 3021 H 290.959 1.44886 -3.43277 0
M  V30 3022 H 291.072 0.140761 -4.78893 0
M  V30 3023 H 289.436 0.171498 -2.54122 0
M  V30 3024 H 290.219 -1.38922 -3.13935 0
M  V30 3025 N 292.664 1.56529 -0.183458 0
M  V30 3026 C 293.627 2.17324 0.728223 0
M  V30 3027 C 294.627 1.12453 1.14939 0
M  V30 3028 O 295.817 1.37902 1.06437 0
M  V30 3029 C 292.949 2.76591 1.99274 0
M  V30 3030 H 294.142 2.99241 0.198772 0
M  V30 3031 H 291.695 1.5616 0.0661391 0
M  V30 3032 H 292.43 1.98441 2.56499 0
M  V30 3033 H 292.215 3.5335 1.69959 0
M  V30 3034 H 293.705 3.23311 2.6431 0
M  V30 3035 N 294.142 -0.090211 1.57342 0
M  V30 3036 C 295.052 -1.12735 2.05738 0
M  V30 3037 C 296.068 -1.43557 0.983231 0
M  V30 3038 O 297.244 -1.54101 1.29672 0
M  V30 3039 C 294.309 -2.42659 2.47624 0
M  V30 3040 C 293.37 -2.18975 3.69254 0
M  V30 3041 C 292.603 -3.42704 4.09133 0
M  V30 3042 O 292.826 -4.51127 3.49057 0
M  V30 3043 O 291.76 -3.32003 5.02053 0
M  V30 3044 H 295.586 -0.746279 2.94388 0
M  V30 3045 H 293.171 -0.303064 1.46294 0
M  V30 3046 H 295.053 -3.19155 2.7517 0
M  V30 3047 H 293.728 -2.80182 1.62109 0
M  V30 3048 H 292.635 -1.40244 3.46818 0
M  V30 3049 H 293.968 -1.86342 4.55563 0
M  V30 3050 N 295.62 -1.53406 -0.361157 0
M  V30 3051 C 296.57 -1.76536 -1.44287 0
M  V30 3052 C 297.554 -0.620019 -1.48474 0
M  V30 3053 O 298.746 -0.878834 -1.53641 0
M  V30 3054 C 295.875 -1.96266 -2.81664 0
M  V30 3055 C 294.961 -3.16815 -2.81938 0
M  V30 3056 N 295.352 -4.38637 -2.51855 0
M  V30 3057 C 293.65 -3.17627 -3.13096 0
M  V30 3058 C 294.351 -5.20401 -2.59919 0
M  V30 3059 N 293.327 -4.56712 -2.94814 0
M  V30 3060 H 297.129 -2.68331 -1.19899 0
M  V30 3061 H 294.643 -1.52091 -0.56938 0
M  V30 3062 H 296.64 -2.10966 -3.59582 0
M  V30 3063 H 295.3 -1.05702 -3.07013 0
M  V30 3064 H 296.311 -4.66293 -2.25369 0
M  V30 3065 H 292.988 -2.36971 -3.43731 0
M  V30 3066 H 294.378 -6.27586 -2.39969 0
M  V30 3067 N 297.098 0.621204 -1.44841 0
M  V30 3068 C 298.346 1.37783 -1.47852 0
M  V30 3069 C 298.667 1.94653 -0.116224 0
M  V30 3070 O 297.937 1.76367 0.852737 0
M  V30 3071 H 296.517 0.511453 -0.544449 0
M  V30 3072 H 299.179 0.730446 -1.80694 0
M  V30 3073 H 298.275 2.20414 -2.20961 0
M  V30 3074 N 298.576 1.31904 0.862503 0
M  V30 3075 C 299.524 1.20125 1.9918 0
M  V30 3076 C 300.518 0.107824 1.69056 0
M  V30 3077 O 301.724 0.270223 1.7796 0
M  V30 3078 H 298.099 0.372148 0.65346 0
M  V30 3079 H 300.07 2.15652 2.06244 0
M  V30 3080 C 298.819 0.933099 3.34946 0
M  V30 3081 H 298.142 1.76664 3.5865 0
M  V30 3082 H 299.582 0.890892 4.14535 0
M  V30 3083 C 298.041 -0.364172 3.34926 0
M  V30 3084 O 298.571 -1.37858 3.77304 0
M  V30 3085 N 296.777 -0.383362 2.8806 0
M  V30 3086 H 296.324 0.442651 2.53768 0
M  V30 3087 H 296.282 -1.25123 2.8843 0
M  V30 3088 N 300.054 -1.07777 1.14986 0
M  V30 3089 C 301.284 -1.83752 0.944402 0
M  V30 3090 C 301.692 -1.8218 -0.51058 0
M  V30 3091 O 301.035 -1.22852 -1.36576 0
M  V30 3092 C 301.097 -3.32128 1.37592 0
M  V30 3093 C 300.761 -3.57425 2.84775 0
M  V30 3094 C 301.758 -3.5173 3.8286 0
M  V30 3095 C 299.443 -3.8523 3.2234 0
M  V30 3096 C 301.437 -3.73482 5.16517 0
M  V30 3097 C 299.124 -4.06634 4.56171 0
M  V30 3098 C 300.122 -4.00754 5.53069 0
M  V30 3099 O 299.81 -4.2159 6.84483 0
M  V30 3100 H 299.542 -0.58673 0.335744 0
M  V30 3101 H 302.096 -1.36982 1.53052 0
M  V30 3102 H 300.326 -3.79686 0.733165 0
M  V30 3103 H 302.015 -3.89555 1.14024 0
M  V30 3104 H 302.781 -3.30256 3.55184 0
M  V30 3105 H 298.66 -3.88923 2.47508 0
M  V30 3106 H 302.204 -3.68808 5.92137 0
M  V30 3107 H 298.101 -4.27593 4.83564 0
M  V30 3108 H 298.869 -4.38961 6.90837 0
M  V30 3109 N 301.532 -0.945985 -1.26051 0
M  V30 3110 C 302.76 -0.613025 -1.9761 0
M  V30 3111 C 303.175 0.813035 -1.70397 0
M  V30 3112 O 302.532 1.54274 -0.974979 0
M  V30 3113 C 302.583 -0.85159 -3.51326 0
M  V30 3114 O 302.304 -2.22157 -3.77595 0
M  V30 3115 C 303.805 -0.529831 -4.40122 0
M  V30 3116 H 301.025 -0.230593 -0.630133 0
M  V30 3117 H 303.569 -1.268 -1.60443 0
M  V30 3118 H 301.724 -0.243151 -3.86636 0
M  V30 3119 H 302.138 -2.2852 -4.721 0
M  V30 3120 H 303.612 -0.747348 -5.46917 0
M  V30 3121 H 304.089 0.535341 -4.35925 0
M  V30 3122 H 304.695 -1.11721 -4.10364 0
M  V30 3123 N 303.011 1.40521 -0.713556 0
M  V30 3124 C 304.288 1.94775 -0.17943 0
M  V30 3125 C 304.668 1.65184 1.31444 0
M  V30 3126 O 304.016 0.968429 2.06963 0
M  V30 3127 C 304.226 3.45543 -0.489986 0
M  V30 3128 C 305.574 4.22442 -0.427536 0
M  V30 3129 O 306.598 3.53644 -0.425929 0
M  V30 3130 O 305.457 5.4501 -0.403292 0
M  V30 3131 H 302.551 0.826606 -0.0255192 0
M  V30 3132 H 305.097 1.5014 -0.790949 0
M  V30 3133 H 303.869 3.60432 -1.5233 0
M  V30 3134 H 303.492 3.97311 0.151598 0
M  V30 3135 N 304.489 0.459591 1.5075 0
M  V30 3136 C 305.9 0.00171547 1.867 0
M  V30 3137 C 306.251 -1.39934 1.37525 0
M  V30 3138 O 305.376 -2.03523 0.735349 0
M  V30 3139 C 305.971 -0.00366298 3.388 0
M  V30 3140 C 304.53 -0.406026 3.74204 0
M  V30 3141 C 303.677 0.38673 2.7459 0
M  V30 3142 H 306.628 0.674413 1.43657 0
M  V30 3143 H 306.649 -0.808371 3.71814 0
M  V30 3144 H 306.161 1.01617 3.74561 0
M  V30 3145 H 304.262 -1.43063 3.4404 0
M  V30 3146 H 304.375 -0.115362 4.78961 0
M  V30 3147 H 302.739 -0.158019 2.54209 0
M  V30 3148 H 303.522 1.40585 3.13194 0
M  V30 3149 N 305.967 -1.56429 0.191757 0
M  V30 3150 C 306.877 -2.22541 -0.742481 0
M  V30 3151 C 307.893 -1.22342 -1.23727 0
M  V30 3152 O 309.069 -1.55069 -1.28513 0
M  V30 3153 C 306.134 -2.8692 -1.94623 0
M  V30 3154 C 305.195 -4.02378 -1.49633 0
M  V30 3155 C 304.428 -4.63678 -2.6427 0
M  V30 3156 O 304.651 -4.23895 -3.81666 0
M  V30 3157 O 303.585 -5.53202 -2.37174 0
M  V30 3158 H 307.411 -3.02977 -0.209462 0
M  V30 3159 H 304.996 -1.49353 -0.0373832 0
M  V30 3160 H 306.878 -3.27663 -2.64982 0
M  V30 3161 H 305.553 -2.09466 -2.46791 0
M  V30 3162 H 304.46 -3.66265 -0.761636 0
M  V30 3163 H 305.793 -4.81487 -1.02134 0
M  V30 3164 N 307.445 0.0818655 -1.57387 0
M  V30 3165 C 308.375 1.09885 -2.06028 0
M  V30 3166 C 309.356 1.4098 -0.951774 0
M  V30 3167 O 310.541 1.50781 -1.22387 0
M  V30 3168 C 307.671 2.4151 -2.4958 0
M  V30 3169 C 306.625 2.24792 -3.64215 0
M  V30 3170 C 305.951 3.61712 -3.93787 0
M  V30 3171 C 307.251 1.67749 -4.94629 0
M  V30 3172 H 308.945 0.694128 -2.91243 0
M  V30 3173 H 306.491 0.332448 -1.4011 0
M  V30 3174 H 308.444 3.12939 -2.82219 0
M  V30 3175 H 307.168 2.83943 -1.61381 0
M  V30 3176 H 305.827 1.55807 -3.31843 0
M  V30 3177 H 305.475 4.01697 -3.02735 0
M  V30 3178 H 305.175 3.51368 -4.70971 0
M  V30 3179 H 306.699 4.34587 -4.28913 0
M  V30 3180 H 308.113 2.29032 -5.25564 0
M  V30 3181 H 306.51 1.68128 -5.76067 0
M  V30 3182 H 307.58 0.638059 -4.80684 0
M  V30 3183 N 308.923 1.53595 0.353017 0
M  V30 3184 C 310.151 1.74311 1.1146 0
M  V30 3185 C 310.566 0.477854 1.82653 0
M  V30 3186 O 309.923 -0.549977 1.74016 0
M  V30 3187 C 309.974 2.91694 2.13534 0
M  V30 3188 O 309.695 4.13325 1.45238 0
M  V30 3189 C 311.196 3.24384 3.02142 0
M  V30 3190 H 308.416 0.582669 0.332773 0
M  V30 3191 H 310.96 2.00386 0.408107 0
M  V30 3192 H 309.115 2.67977 2.79763 0
M  V30 3193 H 309.529 4.79148 2.13349 0
M  V30 3194 H 311.003 4.09893 3.69718 0
M  V30 3195 H 311.48 2.40282 3.67643 0
M  V30 3196 H 312.086 3.50073 2.41514 0
M  V30 3197 N 310.401 -0.613514 1.45168 0
M  V30 3198 C 311.649 -1.36997 1.48581 0
M  V30 3199 C 311.97 -1.94589 0.126545 0
M  V30 3200 O 311.24 -1.76816 -0.843372 0
M  V30 3201 H 309.82 -0.508558 0.547154 0
M  V30 3202 H 312.482 -0.720853 1.81079 0
M  V30 3203 H 311.578 -2.1924 2.22127 0
M  V30 3204 N 311.879 -1.3236 -0.855495 0
M  V30 3205 C 313.29 -1.2056 -1.42556 0
M  V30 3206 C 313.641 0.182209 -1.95352 0
M  V30 3207 O 312.766 1.08088 -1.87472 0
M  V30 3208 C 313.361 -2.1826 -2.59129 0
M  V30 3209 C 311.92 -2.10351 -3.12137 0
M  V30 3210 C 311.067 -2.06674 -1.84882 0
M  V30 3211 H 314.018 -1.442 -0.662727 0
M  V30 3212 H 314.039 -1.78064 -3.36264 0
M  V30 3213 H 313.551 -3.19257 -2.20673 0
M  V30 3214 H 311.652 -1.12599 -3.55179 0
M  V30 3215 H 311.765 -3.00135 -3.73438 0
M  V30 3216 H 310.129 -1.51901 -2.04446 0
M  V30 3217 H 310.912 -3.09451 -1.48643 0
M  V30 3218 N 313.357 1.07166 -1.15556 0
M  V30 3219 C 314.287 2.16403 -0.877046 0
M  V30 3220 C 315.268 1.69217 0.173111 0
M  V30 3221 O 316.453 1.94181 0.027084 0
M  V30 3222 C 313.583 3.45349 -0.367632 0
M  V30 3223 C 312.537 4.05995 -1.35468 0
M  V30 3224 C 311.863 5.30045 -0.704038 0
M  V30 3225 C 313.163 4.45804 -2.72132 0
M  V30 3226 H 314.857 2.39959 -1.79053 0
M  V30 3227 H 312.403 1.15325 -0.862331 0
M  V30 3228 H 314.356 4.21095 -0.160317 0
M  V30 3229 H 313.08 3.21385 0.581326 0
M  V30 3230 H 311.739 3.32296 -1.54839 0
M  V30 3231 H 311.387 5.02373 0.251128 0
M  V30 3232 H 311.087 5.71579 -1.36277 0
M  V30 3233 H 312.611 6.08495 -0.50654 0
M  V30 3234 H 314.025 5.12671 -2.56595 0
M  V30 3235 H 312.422 4.98296 -3.34397 0
M  V30 3236 H 313.492 3.57083 -3.28054 0
M  V30 3237 N 314.835 0.952656 1.25548 0
M  V30 3238 C 316.251 0.656769 1.4546 0
M  V30 3239 C 316.451 -0.78633 1.85524 0
M  V30 3240 O 315.507 -1.56183 1.98402 0
M  V30 3241 C 316.82 1.62801 2.52817 0
M  V30 3242 C 318.368 1.63897 2.66659 0
M  V30 3243 C 318.843 2.5978 3.77198 0
M  V30 3244 N 320.334 2.58133 3.84606 0
M  V30 3245 C 321.069 3.29003 4.69621 0
M  V30 3246 N 320.565 4.09339 5.58939 0
M  V30 3247 N 322.358 3.179 4.63569 0
M  V30 3248 H 314.509 1.88526 0.978344 0
M  V30 3249 H 316.772 0.810815 0.491206 0
M  V30 3250 H 316.478 2.65869 2.30232 0
M  V30 3251 H 316.352 1.38898 3.50695 0
M  V30 3252 H 318.739 0.615481 2.8861 0
M  V30 3253 H 318.82 1.91858 1.69187 0
M  V30 3254 H 318.464 3.62254 3.55997 0
M  V30 3255 H 318.394 2.29105 4.7415 0
M  V30 3256 H 320.885 1.99809 3.20757 0
M  V30 3257 H 321.198 4.6034 6.20731 0
M  V30 3258 H 319.543 4.13438 5.58654 0
M  V30 3259 H 322.734 2.54612 3.92798 0
M  V30 3260 H 322.907 3.73398 5.29602 0
M  V30 3261 N 316.313 -1.40141 0.720998 0
M  V30 3262 C 317.541 -2.05096 0.272656 0
M  V30 3263 C 317.956 -1.54334 -1.0875 0
M  V30 3264 O 317.313 -0.702211 -1.6845 0
M  V30 3265 C 317.364 -3.60636 0.249835 0
M  V30 3266 O 317.085 -4.09526 1.55629 0
M  V30 3267 C 318.586 -4.42772 -0.216396 0
M  V30 3268 H 315.806 -0.659897 0.121558 0
M  V30 3269 H 318.35 -1.79449 0.980723 0
M  V30 3270 H 316.505 -3.85232 -0.409237 0
M  V30 3271 H 316.919 -5.03758 1.4604 0
M  V30 3272 H 318.393 -5.51702 -0.181212 0
M  V30 3273 H 318.87 -4.20756 -1.25941 0
M  V30 3274 H 319.476 -4.23294 0.412596 0
M  V30 3275 N 317.792 -0.46758 -1.50504 0
M  V30 3276 C 319.02 0.0864133 -2.06719 0
M  V30 3277 C 319.435 1.33819 -1.33184 0
M  V30 3278 O 318.792 1.78061 -0.400083 0
M  V30 3279 C 318.843 0.378079 -3.59517 0
M  V30 3280 O 318.564 -0.824044 -4.3028 0
M  V30 3281 C 320.065 0.979426 -4.32345 0
M  V30 3282 H 317.285 -0.00551697 -0.670977 0
M  V30 3283 H 319.829 -0.655354 -1.93715 0
M  V30 3284 H 317.984 1.06977 -3.72337 0
M  V30 3285 H 318.398 -0.566518 -5.21432 0
M  V30 3286 H 319.872 1.1333 -5.40241 0
M  V30 3287 H 320.349 1.9686 -3.9261 0
M  V30 3288 H 320.955 0.326216 -4.24047 0
M  V30 3289 N 319.27 1.56325 -0.20005 0
M  V30 3290 C 320.202 2.16555 0.750771 0
M  V30 3291 C 321.215 1.12871 1.1732 0
M  V30 3292 O 322.404 1.39943 1.10807 0
M  V30 3293 C 319.504 2.71684 2.02586 0
M  V30 3294 C 318.677 4.00321 1.76244 0
M  V30 3295 C 317.736 4.40227 2.88248 0
M  V30 3296 O 316.762 5.07552 2.57642 0
M  V30 3297 N 317.964 4.04138 4.16717 0
M  V30 3298 H 320.729 2.98772 0.235685 0
M  V30 3299 H 318.29 1.6189 -0.0182594 0
M  V30 3300 H 320.282 2.95363 2.76664 0
M  V30 3301 H 318.852 1.93893 2.45202 0
M  V30 3302 H 318.072 3.84723 0.85919 0
M  V30 3303 H 319.36 4.84279 1.56048 0
M  V30 3304 H 318.758 3.49993 4.44434 0
M  V30 3305 H 317.315 4.32756 4.87407 0
M  V30 3306 N 320.748 -0.0735177 1.57428 0
M  V30 3307 C 321.695 -1.08756 2.0357 0
M  V30 3308 C 322.665 -1.38559 0.916 0
M  V30 3309 O 323.85 -1.49656 1.18354 0
M  V30 3310 C 320.99 -2.39657 2.48311 0
M  V30 3311 C 320.103 -2.16399 3.73892 0
M  V30 3312 C 319.238 -3.40852 4.07423 0
M  V30 3313 C 318.277 -3.1295 5.2605 0
M  V30 3314 N 317.414 -4.29729 5.55228 0
M  V30 3315 H 322.254 -0.687104 2.8997 0
M  V30 3316 H 319.791 -0.327709 1.43403 0
M  V30 3317 H 321.749 -3.16081 2.72303 0
M  V30 3318 H 320.379 -2.77508 1.64891 0
M  V30 3319 H 319.431 -1.30676 3.57251 0
M  V30 3320 H 320.743 -1.91788 4.60455 0
M  V30 3321 H 319.897 -4.25671 4.32306 0
M  V30 3322 H 318.636 -3.68537 3.19425 0
M  V30 3323 H 317.641 -2.26526 5.00965 0
M  V30 3324 H 318.866 -2.86589 6.15665 0
M  V30 3325 H 316.812 -4.57448 4.70188 0
M  V30 3326 H 316.729 -4.08385 6.36206 0
M  V30 3327 H 317.997 -5.1555 5.84661 0
M  V30 3328 N 322.226 -1.5378 -0.344866 0
M  V30 3329 C 323.637 -1.62428 -0.920552 0
M  V30 3330 C 323.988 -0.504747 -1.89596 0
M  V30 3331 O 323.113 0.365711 -2.13287 0
M  V30 3332 C 323.708 -2.94419 -1.67639 0
M  V30 3333 C 322.267 -3.05333 -2.20111 0
M  V30 3334 C 321.414 -2.57866 -1.01982 0
M  V30 3335 H 324.365 -1.58222 -0.123042 0
M  V30 3336 H 324.386 -2.83384 -2.53917 0
M  V30 3337 H 323.898 -3.7588 -0.966224 0
M  V30 3338 H 321.999 -2.28502 -2.94308 0
M  V30 3339 H 322.112 -4.10778 -2.46573 0
M  V30 3340 H 320.476 -2.13241 -1.39285 0
M  V30 3341 H 321.259 -3.41765 -0.324308 0
M  V30 3342 N 323.704 0.605807 -1.45491 0
M  V30 3343 C 324.953 1.36086 -1.48874 0
M  V30 3344 C 325.266 1.95131 -0.135333 0
M  V30 3345 O 326.472 2.7146 -0.0468144 0
M  V30 3346 C 324.928 2.46518 -2.62215 0
M  V30 3347 C 324.536 1.93877 -4.03876 0
M  V30 3348 C 326.28 3.23512 -2.74846 0
M  V30 3349 C 324.187 3.01801 -5.08596 0
M  V30 3350 H 323.117 0.511497 -0.553974 0
M  V30 3351 H 325.768 0.649089 -1.71636 0
M  V30 3352 H 324.15 3.20388 -2.32739 0
M  V30 3353 H 325.324 1.26704 -4.43038 0
M  V30 3354 H 323.639 1.29622 -3.95711 0
M  V30 3355 H 326.236 4.04013 -3.50253 0
M  V30 3356 H 326.579 3.74631 -1.81542 0
M  V30 3357 H 327.112 2.56742 -3.03856 0
M  V30 3358 H 323.851 2.55597 -6.03614 0
M  V30 3359 H 323.371 3.67535 -4.74002 0
M  V30 3360 H 325.05 3.66152 -5.33424 0
M  V30 3361 N 325.182 1.32811 0.848464 0
M  V30 3362 C 326.407 1.26882 1.6406 0
M  V30 3363 C 326.832 -0.15913 1.87426 0
M  V30 3364 O 326.19 -1.11258 1.43148 0
M  V30 3365 C 326.238 2.03997 2.97351 0
M  V30 3366 O 325.342 1.39201 3.88197 0
M  V30 3367 H 324.683 0.436982 0.499943 0
M  V30 3368 H 327.213 1.75224 1.0563 0
M  V30 3369 H 327.223 2.14403 3.47124 0
M  V30 3370 H 325.898 3.0783 2.79666 0
M  V30 3371 H 324.475 1.37381 3.46671 0
M  V30 3372 N 326.66 -1.06551 1.16123 0
M  V30 3373 C 327.909 -1.78687 0.935622 0
M  V30 3374 C 328.222 -1.88056 -0.538001 0
M  V30 3375 O 329.428 -2.56794 -0.88143 0
M  V30 3376 C 327.884 -3.21143 1.62466 0
M  V30 3377 C 327.492 -3.19949 3.13587 0
M  V30 3378 C 329.236 -3.9783 1.48092 0
M  V30 3379 C 327.143 -4.57108 3.75241 0
M  V30 3380 H 326.073 -0.669712 0.346412 0
M  V30 3381 H 328.724 -1.19534 1.39226 0
M  V30 3382 H 327.106 -3.80539 1.09572 0
M  V30 3383 H 328.28 -2.70151 3.73303 0
M  V30 3384 H 326.595 -2.5676 3.27816 0
M  V30 3385 H 329.192 -4.99217 1.91538 0
M  V30 3386 H 329.535 -4.14078 0.429507 0
M  V30 3387 H 330.068 -3.4495 1.98127 0
M  V30 3388 H 326.807 -4.46065 4.80319 0
M  V30 3389 H 326.327 -5.07111 3.20309 0
M  V30 3390 H 328.006 -5.26069 3.76644 0
M  V30 3391 N 328.138 -0.959301 -1.25041 0
M  V30 3392 C 329.366 -0.633949 -1.96948 0
M  V30 3393 C 329.781 0.794916 -1.7125 0
M  V30 3394 O 329.138 1.53231 -0.991287 0
M  V30 3395 C 329.189 -0.888805 -3.50403 0
M  V30 3396 O 328.91 -2.26149 -3.75218 0
M  V30 3397 C 330.411 -0.576482 -4.39536 0
M  V30 3398 H 327.631 -0.237263 -0.627652 0
M  V30 3399 H 330.175 -1.28495 -1.59089 0
M  V30 3400 H 328.33 -0.284145 -3.86357 0
M  V30 3401 H 328.744 -2.33514 -4.6965 0
M  V30 3402 H 330.218 -0.805314 -5.46094 0
M  V30 3403 H 330.695 0.489075 -4.36468 0
M  V30 3404 H 331.301 -1.16067 -4.09156 0
M  V30 3405 N 329.616 1.39756 -0.72842 0
M  V30 3406 C 330.548 2.29157 -0.0446202 0
M  V30 3407 C 331.561 1.46484 0.710367 0
M  V30 3408 O 332.75 1.69632 0.55562 0
M  V30 3409 C 329.85 3.24987 0.961071 0
M  V30 3410 C 329.023 4.36572 0.268967 0
M  V30 3411 C 328.082 5.12756 1.18184 0
M  V30 3412 O 327.108 5.6534 0.661794 0
M  V30 3413 N 328.31 5.23331 2.51206 0
M  V30 3414 H 331.075 2.88482 -0.812295 0
M  V30 3415 H 328.636 1.51265 -0.577098 0
M  V30 3416 H 330.628 3.72827 1.57423 0
M  V30 3417 H 329.198 2.66739 1.63 0
M  V30 3418 H 328.418 3.90694 -0.524574 0
M  V30 3419 H 329.706 5.08363 -0.210934 0
M  V30 3420 H 329.104 4.82116 2.9594 0
M  V30 3421 H 327.661 5.74634 3.07634 0
M  V30 3422 N 331.094 0.475555 1.50254 0
M  V30 3423 C 332.505 0.0215174 1.86688 0
M  V30 3424 C 332.856 -1.38467 1.39001 0
M  V30 3425 O 331.981 -2.02732 0.756894 0
M  V30 3426 C 332.576 0.0322715 3.38785 0
M  V30 3427 C 331.135 -0.366314 3.74613 0
M  V30 3428 C 330.282 0.415832 2.74164 0
M  V30 3429 H 333.233 0.689612 1.42934 0
M  V30 3430 H 333.254 -0.76889 3.7265 0
M  V30 3431 H 332.766 1.05584 3.73462 0
M  V30 3432 H 330.867 -1.39406 3.45538 0
M  V30 3433 H 330.98 -0.064555 4.79057 0
M  V30 3434 H 329.344 -0.131048 2.54363 0
M  V30 3435 H 330.127 1.43899 3.11686 0
M  V30 3436 N 332.573 -1.56217 0.208337 0
M  V30 3437 C 333.483 -2.23316 -0.718836 0
M  V30 3438 C 334.499 -1.23648 -1.22422 0
M  V30 3439 O 335.675 -1.56423 -1.26861 0
M  V30 3440 C 332.74 -2.88968 -1.91568 0
M  V30 3441 C 331.801 -4.03943 -1.45357 0
M  V30 3442 C 331.034 -4.66455 -2.59337 0
M  V30 3443 O 331.257 -4.27919 -3.77149 0
M  V30 3444 O 330.191 -5.55686 -2.31293 0
M  V30 3445 H 334.017 -3.03182 -0.177315 0
M  V30 3446 H 331.602 -1.49384 -0.0215402 0
M  V30 3447 H 333.484 -3.30455 -2.61491 0
M  V30 3448 H 332.159 -2.12071 -2.44556 0
M  V30 3449 H 331.066 -3.67052 -0.722746 0
M  V30 3450 H 332.399 -4.82543 -0.970219 0
M  V30 3451 N 334.051 0.0651679 -1.57465 0
M  V30 3452 C 335.299 0.761555 -1.87202 0
M  V30 3453 C 335.62 1.77778 -0.801243 0
M  V30 3454 O 334.89 1.95166 0.16937 0
M  V30 3455 H 333.47 0.284251 -0.690804 0
M  V30 3456 H 336.132 0.0396827 -1.9486 0
M  V30 3457 H 335.228 1.27365 -2.84929 0
M  V30 3458 N 335.529 1.53961 0.336706 0
M  V30 3459 C 336.94 1.62914 0.911925 0
M  V30 3460 C 337.291 0.514795 1.89326 0
M  V30 3461 O 336.416 -0.354395 2.13478 0
M  V30 3462 C 337.011 2.95304 1.66076 0
M  V30 3463 C 335.57 3.06496 2.18489 0
M  V30 3464 C 334.717 2.58403 1.00613 0
M  V30 3465 H 337.668 1.58285 0.114649 0
M  V30 3466 H 337.689 2.84727 2.5241 0
M  V30 3467 H 337.201 3.76387 0.946276 0
M  V30 3468 H 335.302 2.3006 2.93092 0
M  V30 3469 H 335.415 4.1208 2.44391 0
M  V30 3470 H 333.779 2.13977 1.38152 0
M  V30 3471 H 334.562 3.41932 0.306179 0
M  V30 3472 N 337.007 -0.598083 1.45811 0
M  V30 3473 C 338.232 -1.3881 1.54099 0
M  V30 3474 C 338.657 -1.8726 0.177578 0
M  V30 3475 O 338.015 -1.6069 -0.839541 0
M  V30 3476 C 338.063 -2.56217 2.53743 0
M  V30 3477 O 337.167 -3.5716 2.06182 0
M  V30 3478 H 336.508 -0.414024 0.519115 0
M  V30 3479 H 339.038 -0.726971 1.91249 0
M  V30 3480 H 339.048 -3.03337 2.72856 0
M  V30 3481 H 337.723 -2.20303 3.5276 0
M  V30 3482 H 336.3 -3.16624 1.96987 0
M  V30 3483 N 338.485 -1.33259 -0.841409 0
M  V30 3484 C 339.732 -1.24572 -1.5965 0
M  V30 3485 C 340.06 0.189137 -1.93578 0
M  V30 3486 O 339.315 1.14566 -1.5866 0
M  V30 3487 C 339.614 -2.06381 -2.9179 0
M  V30 3488 C 339.28 -3.556 -2.77235 0
M  V30 3489 C 337.942 -3.96282 -2.72973 0
M  V30 3490 C 340.294 -4.50433 -2.62221 0
M  V30 3491 C 337.622 -5.30017 -2.51592 0
M  V30 3492 C 339.974 -5.84327 -2.42374 0
M  V30 3493 C 338.638 -6.24194 -2.36512 0
M  V30 3494 H 337.908 -0.455842 -0.5842 0
M  V30 3495 H 340.555 -1.6482 -0.975016 0
M  V30 3496 H 338.86 -1.58903 -3.5813 0
M  V30 3497 H 340.557 -1.97019 -3.49263 0
M  V30 3498 H 337.147 -3.23298 -2.81384 0
M  V30 3499 H 341.331 -4.19914 -2.64549 0
M  V30 3500 H 336.587 -5.59947 -2.45499 0
M  V30 3501 H 340.761 -6.57414 -2.29739 0
M  V30 3502 H 338.388 -7.27759 -2.19706 0
M  V30 3503 N 339.963 1.05934 -1.16686 0
M  V30 3504 C 341.191 1.8249 -0.974929 0
M  V30 3505 C 341.606 1.82679 0.476861 0
M  V30 3506 O 340.963 1.2486 1.33103 0
M  V30 3507 C 341.014 3.28943 -1.49929 0
M  V30 3508 O 340.735 3.28886 -2.89423 0
M  V30 3509 C 342.236 4.22215 -1.35089 0
M  V30 3510 H 339.456 0.575295 -0.345365 0
M  V30 3511 H 342 1.33631 -1.548 0
M  V30 3512 H 340.155 3.751 -0.968423 0
M  V30 3513 H 340.569 4.20493 -3.13506 0
M  V30 3514 H 342.043 5.22987 -1.76603 0
M  V30 3515 H 342.52 4.38195 -0.296935 0
M  V30 3516 H 343.126 3.81907 -1.87155 0
M  V30 3517 N 341.441 0.965919 1.2453 0
M  V30 3518 C 342.687 0.62776 1.92839 0
M  V30 3519 C 343.02 -0.834694 1.75347 0
M  V30 3520 O 342.295 -1.60031 1.10546 0
M  V30 3521 C 342.578 1.00109 3.45905 0
M  V30 3522 C 342.431 2.52011 3.72573 0
M  V30 3523 C 343.75 0.53435 4.36844 0
M  V30 3524 H 340.869 0.229537 0.700344 0
M  V30 3525 H 343.511 1.2046 1.46933 0
M  V30 3526 H 341.661 0.510238 3.85135 0
M  V30 3527 H 343.333 3.08559 3.42912 0
M  V30 3528 H 341.576 2.95287 3.17786 0
M  V30 3529 H 342.247 2.73183 4.79661 0
M  V30 3530 H 344.723 0.955565 4.04979 0
M  V30 3531 H 343.599 0.824152 5.42678 0
M  V30 3532 H 343.86 -0.565589 4.38467 0
M  V30 3533 N 342.919 -1.39368 0.735821 0
M  V30 3534 C 344.147 -2.04795 0.294393 0
M  V30 3535 C 344.562 -1.55478 -1.07107 0
M  V30 3536 O 343.919 -0.720038 -1.67695 0
M  V30 3537 C 343.97 -3.6035 0.288071 0
M  V30 3538 O 343.691 -4.07852 1.59963 0
M  V30 3539 C 345.192 -4.42976 -0.169422 0
M  V30 3540 H 342.412 -0.658571 0.128551 0
M  V30 3541 H 344.956 -1.78399 0.999701 0
M  V30 3542 H 343.111 -3.85645 -0.368355 0
M  V30 3543 H 343.525 -5.02181 1.51375 0
M  V30 3544 H 344.999 -5.51864 -0.122687 0
M  V30 3545 H 345.476 -4.22068 -1.21472 0
M  V30 3546 H 346.082 -4.22832 0.457469 0
M  V30 3547 N 344.397 -0.483516 -1.5 0
M  V30 3548 C 345.645 0.067027 -2.01989 0
M  V30 3549 C 345.966 1.3909 -1.36671 0
M  V30 3550 O 345.236 1.88978 -0.516152 0
M  V30 3551 H 343.816 0.0277606 -0.746484 0
M  V30 3552 H 346.478 -0.636773 -1.84204 0
M  V30 3553 H 345.574 0.209484 -3.11396 0
M  V30 3554 N 345.875 1.56104 -0.216619 0
M  V30 3555 C 347.123 1.97781 0.415593 0
M  V30 3556 C 347.444 1.10536 1.60645 0
M  V30 3557 O 346.714 0.181303 1.95059 0
M  V30 3558 H 345.294 0.730415 0.156534 0
M  V30 3559 H 347.956 1.92445 -0.308366 0
M  V30 3560 H 347.052 3.03072 0.74525 0
M  V30 3561 N 347.353 -0.0568162 1.57498 0
M  V30 3562 C 348.301 -1.08452 2.05769 0
M  V30 3563 C 349.295 -1.39164 0.965903 0
M  V30 3564 O 350.501 -1.38395 1.15095 0
M  V30 3565 H 346.876 -0.367148 0.656282 0
M  V30 3566 H 348.847 -0.651368 2.91204 0
M  V30 3567 C 347.596 -2.38543 2.52968 0
M  V30 3568 H 346.919 -2.15765 3.36579 0
M  V30 3569 H 348.359 -3.08863 2.90481 0
M  V30 3570 C 346.818 -3.05562 1.41893 0
M  V30 3571 O 347.348 -3.94262 0.769442 0
M  V30 3572 N 345.554 -2.6643 1.16032 0
M  V30 3573 H 345.101 -1.94387 1.6903 0
M  V30 3574 H 345.059 -3.11593 0.419219 0
M  V30 3575 N 348.832 -1.54138 -0.328536 0
M  V30 3576 C 349.782 -1.79557 -1.4051 0
M  V30 3577 C 350.766 -0.651373 -1.47126 0
M  V30 3578 O 351.958 -0.911226 -1.51742 0
M  V30 3579 C 349.087 -2.02196 -2.77438 0
M  V30 3580 C 348.173 -3.22724 -2.75155 0
M  V30 3581 N 348.564 -4.43881 -2.42494 0
M  V30 3582 C 346.862 -3.24196 -3.06289 0
M  V30 3583 C 347.563 -5.25797 -2.48822 0
M  V30 3584 N 346.539 -4.62862 -2.8506 0
M  V30 3585 H 350.341 -2.70814 -1.1418 0
M  V30 3586 H 347.855 -1.53265 -0.536991 0
M  V30 3587 H 349.852 -2.18546 -3.55026 0
M  V30 3588 H 348.512 -1.12191 -3.04702 0
M  V30 3589 H 349.523 -4.70969 -2.15428 0
M  V30 3590 H 346.2 -2.44208 -3.38627 0
M  V30 3591 H 347.59 -6.32535 -2.26603 0
M  V30 3592 N 350.31 0.590341 -1.46126 0
M  V30 3593 C 351.559 1.34499 -1.50309 0
M  V30 3594 C 351.872 1.94977 -0.156021 0
M  V30 3595 O 353.078 2.71395 -0.0756037 0
M  V30 3596 C 351.534 2.43723 -2.64815 0
M  V30 3597 C 351.142 1.89582 -4.0591 0
M  V30 3598 C 352.886 3.20579 -2.78262 0
M  V30 3599 C 350.793 2.9639 -5.11769 0
M  V30 3600 H 349.723 0.505593 -0.559368 0
M  V30 3601 H 352.374 0.630848 -1.72315 0
M  V30 3602 H 350.756 3.17902 -2.36124 0
M  V30 3603 H 351.93 1.21997 -4.44357 0
M  V30 3604 H 350.245 1.25418 -3.97063 0
M  V30 3605 H 352.842 4.00276 -3.54519 0
M  V30 3606 H 353.185 3.72684 -1.85505 0
M  V30 3607 H 353.718 2.53505 -3.06562 0
M  V30 3608 H 350.457 2.49181 -6.06291 0
M  V30 3609 H 349.977 3.62487 -4.77873 0
M  V30 3610 H 351.656 3.60474 -5.37278 0
M  V30 3611 N 351.788 1.33704 0.83433 0
M  V30 3612 C 352.698 1.26382 1.97648 0
M  V30 3613 C 353.714 0.173548 1.73132 0
M  V30 3614 O 354.89 0.397962 1.97429 0
M  V30 3615 C 351.955 1.00769 3.31733 0
M  V30 3616 C 351.016 2.1884 3.69334 0
M  V30 3617 C 350.249 1.9444 4.9702 0
M  V30 3618 O 350.472 0.896961 5.63303 0
M  V30 3619 O 349.406 2.81093 5.32231 0
M  V30 3620 H 353.232 2.22444 2.06767 0
M  V30 3621 H 350.817 1.13795 0.968037 0
M  V30 3622 H 352.699 0.882186 4.12062 0
M  V30 3623 H 351.374 0.0773783 3.23608 0
M  V30 3624 H 350.281 2.36946 2.89495 0
M  V30 3625 H 351.614 3.10221 3.82131 0
M  V30 3626 N 353.266 -1.05314 1.17247 0
M  V30 3627 C 354.512 -1.78699 0.971513 0
M  V30 3628 C 354.867 -1.85932 -0.494692 0
M  V30 3629 O 354.16 -1.34716 -1.36243 0
M  V30 3630 C 354.354 -3.2229 1.54479 0
M  V30 3631 C 354.183 -3.29052 3.06521 0
M  V30 3632 C 352.953 -3.3841 3.75242 0
M  V30 3633 C 355.151 -3.18095 4.04129 0
M  V30 3634 N 353.133 -3.34289 5.14902 0
M  V30 3635 C 354.504 -3.21331 5.30232 0
M  V30 3636 C 356.559 -3.02049 3.95817 0
M  V30 3637 C 355.262 -3.10169 6.4899 0
M  V30 3638 C 357.288 -2.92228 5.14156 0
M  V30 3639 C 356.65 -2.96096 6.39145 0
M  V30 3640 H 352.749 -0.66628 0.409383 0
M  V30 3641 H 355.333 -1.25553 1.4881 0
M  V30 3642 H 353.504 -3.7381 1.05455 0
M  V30 3643 H 355.236 -3.83905 1.28059 0
M  V30 3644 H 351.991 -3.43621 3.25917 0
M  V30 3645 H 352.415 -3.35702 5.87906 0
M  V30 3646 H 357.057 -2.97897 3.00029 0
M  V30 3647 H 354.775 -3.13076 7.44989 0
M  V30 3648 H 358.361 -2.80885 5.09505 0
M  V30 3649 H 357.241 -2.88568 7.29176 0
M  V30 3650 N 354.744 -0.972509 -1.24016 0
M  V30 3651 C 355.654 -0.5143 -2.28893 0
M  V30 3652 C 356.67 0.427078 -1.68677 0
M  V30 3653 O 357.846 0.298939 -1.99169 0
M  V30 3654 C 354.911 0.183598 -3.46214 0
M  V30 3655 C 353.972 -0.798202 -4.21814 0
M  V30 3656 C 353.205 -0.133514 -5.33533 0
M  V30 3657 O 353.428 1.07714 -5.60137 0
M  V30 3658 O 352.362 -0.828103 -5.96176 0
M  V30 3659 H 356.188 -1.38629 -2.70214 0
M  V30 3660 H 353.773 -0.739769 -1.29799 0
M  V30 3661 H 355.655 0.575433 -4.17453 0
M  V30 3662 H 354.33 1.03048 -3.0686 0
M  V30 3663 H 353.237 -1.24059 -3.52931 0
M  V30 3664 H 354.57 -1.61364 -4.64997 0
M  V30 3665 N 356.222 1.38976 -0.743202 0
M  V30 3666 C 357.169 2.30544 -0.10861 0
M  V30 3667 C 358.139 1.49642 0.720869 0
M  V30 3668 O 359.324 1.78304 0.679142 0
M  V30 3669 C 356.464 3.36018 0.786496 0
M  V30 3670 C 355.577 4.31963 -0.0564849 0
M  V30 3671 C 354.712 5.24506 0.840657 0
M  V30 3672 C 353.751 6.121 -0.00658363 0
M  V30 3673 N 352.888 6.96973 0.846943 0
M  V30 3674 H 357.728 2.8424 -0.895088 0
M  V30 3675 H 355.265 1.3995 -0.453048 0
M  V30 3676 H 357.223 3.95768 1.31999 0
M  V30 3677 H 355.853 2.83758 1.53887 0
M  V30 3678 H 354.905 3.73763 -0.707492 0
M  V30 3679 H 356.217 4.93703 -0.711229 0
M  V30 3680 H 355.371 5.89322 1.4417 0
M  V30 3681 H 354.11 4.63107 1.52916 0
M  V30 3682 H 353.115 5.46289 -0.620366 0
M  V30 3683 H 354.34 6.75565 -0.691992 0
M  V30 3684 H 352.286 6.38133 1.52059 0
M  V30 3685 H 352.203 7.5559 0.248864 0
M  V30 3686 H 353.471 7.6621 1.43328 0
M  V30 3687 N 357.7 0.491464 1.49741 0
M  V30 3688 C 358.946 -0.0485431 2.03342 0
M  V30 3689 C 359.301 -1.35566 1.36527 0
M  V30 3690 O 358.594 -1.85262 0.488729 0
M  V30 3691 C 358.788 -0.267329 3.56399 0
M  V30 3692 C 358.617 1.01703 4.38049 0
M  V30 3693 C 357.387 1.56614 4.80417 0
M  V30 3694 C 359.585 1.91782 4.77204 0
M  V30 3695 N 357.567 2.7974 5.4646 0
M  V30 3696 C 358.938 2.99489 5.42868 0
M  V30 3697 C 360.993 1.92575 4.5915 0
M  V30 3698 C 359.696 4.08005 5.92389 0
M  V30 3699 C 361.722 3.0006 5.09626 0
M  V30 3700 C 361.084 4.06485 5.75282 0
M  V30 3701 H 357.183 0.0227779 0.781668 0
M  V30 3702 H 359.767 0.664204 1.8302 0
M  V30 3703 H 357.938 -0.949126 3.76625 0
M  V30 3704 H 359.67 -0.803492 3.96644 0
M  V30 3705 H 356.425 1.11256 4.60347 0
M  V30 3706 H 356.849 3.42323 5.84075 0
M  V30 3707 H 361.491 1.11605 4.07804 0
M  V30 3708 H 359.209 4.89779 6.42761 0
M  V30 3709 H 362.795 3.01681 4.97473 0
M  V30 3710 H 361.675 4.88287 6.13633 0
M  V30 3711 N 359.178 -1.55987 0.224894 0
M  V30 3712 C 360.403 -2.03232 -0.41369 0
M  V30 3713 C 360.828 -1.10359 -1.52323 0
M  V30 3714 O 360.186 -0.092395 -1.81064 0
M  V30 3715 C 360.234 -3.48682 -0.919405 0
M  V30 3716 O 359.338 -3.58947 -2.03054 0
M  V30 3717 H 358.679 -0.657428 -0.0931903 0
M  V30 3718 H 361.209 -2.01679 0.34451 0
M  V30 3719 H 361.219 -3.8907 -1.22835 0
M  V30 3720 H 359.894 -4.15761 -0.107339 0
M  V30 3721 H 358.471 -3.30448 -1.72796 0
M  V30 3722 N 360.656 0.0484629 -1.57525 0
M  V30 3723 C 361.586 1.0549 -2.08313 0
M  V30 3724 C 362.567 1.38929 -0.981463 0
M  V30 3725 O 363.752 1.48151 -1.25558 0
M  V30 3726 C 360.882 2.36162 -2.54646 0
M  V30 3727 C 359.836 2.17016 -3.68901 0
M  V30 3728 C 359.162 3.53278 -4.01371 0
M  V30 3729 C 360.462 1.57219 -4.98076 0
M  V30 3730 H 362.156 0.632195 -2.92649 0
M  V30 3731 H 359.702 0.302654 -1.40784 0
M  V30 3732 H 361.655 3.06882 -2.88793 0
M  V30 3733 H 360.379 2.80456 -1.67368 0
M  V30 3734 H 359.038 1.48733 -3.35073 0
M  V30 3735 H 358.686 3.95185 -3.11188 0
M  V30 3736 H 358.386 3.41299 -4.78318 0
M  V30 3737 H 359.91 4.25391 -4.38035 0
M  V30 3738 H 361.324 2.17832 -5.30304 0
M  V30 3739 H 359.721 1.55871 -5.79503 0
M  V30 3740 H 360.791 0.535956 -4.81929 0
M  V30 3741 N 362.134 1.5431 0.320358 0
M  V30 3742 C 363.411 1.63322 1.07635 0
M  V30 3743 C 363.791 0.46912 2.05821 0
M  V30 3744 O 363.139 -0.536274 2.22118 0
M  V30 3745 C 363.349 3.00465 1.77544 0
M  V30 3746 C 364.697 3.56621 2.30449 0
M  V30 3747 O 365.721 3.02791 1.87606 0
M  V30 3748 O 364.58 4.5083 3.08892 0
M  V30 3749 H 361.674 0.661502 0.496331 0
M  V30 3750 H 364.22 1.66656 0.319992 0
M  V30 3751 H 362.992 3.76629 1.06143 0
M  V30 3752 H 362.615 3.00824 2.59982 0
M  V30 3753 N 363.613 -0.582584 1.46437 0
M  V30 3754 C 364.859 -1.34278 1.51978 0
M  V30 3755 C 365.192 -1.93446 0.170973 0
M  V30 3756 O 364.467 -1.76481 -0.817608 0
M  V30 3757 C 364.75 -2.47203 2.61845 0
M  V30 3758 C 364.603 -1.93069 4.06257 0
M  V30 3759 C 365.922 -3.49247 2.67795 0
M  V30 3760 H 363.041 -0.486876 0.553282 0
M  V30 3761 H 365.683 -0.654437 1.78374 0
M  V30 3762 H 363.833 -3.0592 2.39469 0
M  V30 3763 H 365.505 -1.38808 4.3992 0
M  V30 3764 H 363.748 -1.23898 4.1573 0
M  V30 3765 H 364.419 -2.74586 4.7886 0
M  V30 3766 H 366.895 -3.00411 2.8791 0
M  V30 3767 H 365.771 -4.25719 3.46489 0
M  V30 3768 H 366.032 -4.06482 1.73852 0
M  V30 3769 N 365.091 -1.34144 -0.827227 0
M  V30 3770 C 366.339 -1.26009 -1.58007 0
M  V30 3771 C 366.66 0.170971 -1.94249 0
M  V30 3772 O 365.93 1.10256 -1.61927 0
M  V30 3773 H 364.51 -0.463414 -0.585881 0
M  V30 3774 H 367.172 -1.68005 -0.987951 0
M  V30 3775 H 366.268 -1.86187 -2.50481 0
M  V30 3776 N 366.569 1.04691 -1.17803 0
M  V30 3777 C 367.816 1.77782 -0.969532 0
M  V30 3778 C 368.144 1.87926 0.501401 0
M  V30 3779 O 367.399 1.37918 1.38842 0
M  V30 3780 C 367.698 3.21467 -1.56186 0
M  V30 3781 C 367.364 3.3137 -3.05786 0
M  V30 3782 C 366.026 3.3378 -3.46619 0
M  V30 3783 C 368.378 3.31976 -4.01797 0
M  V30 3784 C 365.706 3.34431 -4.82051 0
M  V30 3785 C 368.058 3.34167 -5.37136 0
M  V30 3786 C 366.722 3.34866 -5.77426 0
M  V30 3787 H 365.992 0.650549 -0.354777 0
M  V30 3788 H 368.639 1.23006 -1.46772 0
M  V30 3789 H 366.944 3.79203 -0.985515 0
M  V30 3790 H 368.641 3.76652 -1.37602 0
M  V30 3791 H 365.231 3.3021 -2.73238 0
M  V30 3792 H 369.415 3.29311 -3.71306 0
M  V30 3793 H 364.671 3.33285 -5.12573 0
M  V30 3794 H 368.845 3.33585 -6.11305 0
M  V30 3795 H 366.472 3.35124 -6.82346 0
M  V30 3796 N 368.047 0.979072 1.23499 0
M  V30 3797 C 369.324 0.563674 1.87302 0
M  V30 3798 C 369.704 -0.959199 1.88049 0
M  V30 3799 O 369.052 -1.83535 1.36114 0
M  V30 3800 C 369.262 1.16822 3.28867 0
M  V30 3801 C 370.61 1.26014 4.0547 0
M  V30 3802 O 371.634 1.12158 3.38082 0
M  V30 3803 O 370.493 1.48044 5.26066 0
M  V30 3804 H 367.587 0.189602 0.804972 0
M  V30 3805 H 370.133 1.07407 1.31384 0
M  V30 3806 H 368.905 2.21049 3.22883 0
M  V30 3807 H 368.528 0.642564 3.92373 0
M  V30 3808 N 369.525 -1.3858 0.750561 0
M  V30 3809 C 370.771 -2.00481 0.305825 0
M  V30 3810 C 371.104 -1.5944 -1.10872 0
M  V30 3811 O 370.379 -0.83052 -1.75877 0
M  V30 3812 C 370.662 -3.5758 0.425287 0
M  V30 3813 C 370.515 -4.08594 1.88072 0
M  V30 3814 C 371.834 -4.39719 -0.183122 0
M  V30 3815 H 368.953 -0.728348 0.112598 0
M  V30 3816 H 371.595 -1.64566 0.949638 0
M  V30 3817 H 369.745 -3.88306 -0.122828 0
M  V30 3818 H 371.417 -3.88523 2.48691 0
M  V30 3819 H 369.66 -3.61574 2.39681 0
M  V30 3820 H 370.331 -5.177 1.91548 0
M  V30 3821 H 372.807 -4.15128 0.284303 0
M  V30 3822 H 371.683 -5.48856 -0.0692757 0
M  V30 3823 H 371.944 -4.23434 -1.27106 0
M  V30 3824 N 371.003 -0.499398 -1.49478 0
M  V30 3825 C 372.419 -0.155261 -1.58843 0
M  V30 3826 C 372.619 1.34008 -1.50479 0
M  V30 3827 O 371.675 2.11589 -1.37791 0
M  V30 3828 C 372.988 -0.730636 -2.91689 0
M  V30 3829 C 374.536 -0.696599 -3.0515 0
M  V30 3830 C 375.011 -1.25001 -4.40612 0
M  V30 3831 N 376.502 -1.21064 -4.47099 0
M  V30 3832 C 377.237 -1.60905 -5.50361 0
M  V30 3833 N 376.733 -2.08331 -6.60735 0
M  V30 3834 N 378.526 -1.52331 -5.41065 0
M  V30 3835 H 370.677 -1.47162 -1.53158 0
M  V30 3836 H 372.94 -0.610309 -0.725415 0
M  V30 3837 H 372.646 -1.77928 -3.03372 0
M  V30 3838 H 372.52 -0.190161 -3.7672 0
M  V30 3839 H 374.907 0.343204 -2.93097 0
M  V30 3840 H 374.988 -1.2742 -2.21806 0
M  V30 3841 H 374.632 -2.28859 -4.53416 0
M  V30 3842 H 374.562 -0.64836 -5.22593 0
M  V30 3843 H 377.053 -0.863128 -3.67911 0
M  V30 3844 H 377.366 -2.36805 -7.35624 0
M  V30 3845 H 375.711 -2.12304 -6.6178 0
M  V30 3846 H 378.902 -1.151 -4.53729 0
M  V30 3847 H 379.075 -1.83704 -6.21415 0
M  V30 3848 N 372.481 1.55866 -0.233164 0
M  V30 3849 C 373.391 2.24431 0.683217 0
M  V30 3850 C 374.407 1.2558 1.2044 0
M  V30 3851 O 375.583 1.58422 1.24356 0
M  V30 3852 C 372.648 2.91979 1.86947 0
M  V30 3853 C 371.709 4.06204 1.38912 0
M  V30 3854 C 370.942 4.70522 2.51883 0
M  V30 3855 O 371.165 4.33865 3.70293 0
M  V30 3856 O 370.099 5.59296 2.22423 0
M  V30 3857 H 373.925 3.03426 0.129059 0
M  V30 3858 H 371.51 1.494 -0.0022283 0
M  V30 3859 H 373.392 3.34573 2.56201 0
M  V30 3860 H 372.067 2.15935 2.41151 0
M  V30 3861 H 370.974 3.68155 0.664259 0
M  V30 3862 H 372.307 4.84025 0.893328 0
M  V30 3863 N 373.959 -0.0401083 1.57549 0
M  V30 3864 C 375.207 -0.731677 1.8839 0
M  V30 3865 C 375.528 -1.76481 0.829425 0
M  V30 3866 O 374.798 -1.95411 -0.1383 0
M  V30 3867 H 373.378 -0.273225 0.695239 0
M  V30 3868 H 376.04 -0.00867725 1.94898 0
M  V30 3869 H 375.136 -1.22816 2.86919 0
M  V30 3870 N 375.437 -1.54477 -0.31217 0
M  V30 3871 C 376.683 -1.73483 -1.0503 0
M  V30 3872 C 377.016 -0.513125 -1.87298 0
M  V30 3873 O 376.291 0.489864 -1.8823 0
M  V30 3874 C 376.574 -3.01723 -1.96558 0
M  V30 3875 C 376.427 -4.3417 -1.17545 0
M  V30 3876 C 377.746 -3.25772 -2.95907 0
M  V30 3877 H 374.865 -0.631222 -0.380432 0
M  V30 3878 H 377.507 -1.87184 -0.325932 0
M  V30 3879 H 375.657 -2.90174 -2.58324 0
M  V30 3880 H 377.329 -4.5762 -0.581513 0
M  V30 3881 H 375.572 -4.31159 -0.477925 0
M  V30 3882 H 376.243 -5.20143 -1.84811 0
M  V30 3883 H 378.719 -3.36857 -2.44267 0
M  V30 3884 H 377.595 -4.16838 -3.57123 0
M  V30 3885 H 377.856 -2.43537 -3.68974 0
M  V30 3886 N 376.915 0.57481 -1.46744 0
M  V30 3887 C 378.161 1.3347 -1.52688 0
M  V30 3888 C 378.494 1.93353 -0.181229 0
M  V30 3889 O 377.769 1.76912 0.808237 0
M  V30 3890 C 378.052 2.45811 -2.63152 0
M  V30 3891 C 377.905 1.90912 -4.07275 0
M  V30 3892 C 379.224 3.47822 -2.69644 0
M  V30 3893 H 376.343 0.483935 -0.555856 0
M  V30 3894 H 378.985 0.644968 -1.78718 0
M  V30 3895 H 377.135 3.04646 -2.41088 0
M  V30 3896 H 378.807 1.36473 -4.4065 0
M  V30 3897 H 377.05 1.21691 -4.16382 0
M  V30 3898 H 377.721 2.72042 -4.80309 0
M  V30 3899 H 380.197 2.9888 -2.895 0
M  V30 3900 H 379.073 4.23876 -3.48742 0
M  V30 3901 H 379.334 4.05555 -1.76005 0
M  V30 3902 N 378.394 1.34581 0.820102 0
M  V30 3903 C 379.324 1.29038 1.94606 0
M  V30 3904 C 380.305 0.1673 1.69275 0
M  V30 3905 O 381.49 0.360112 1.90832 0
M  V30 3906 C 378.62 1.04793 3.31113 0
M  V30 3907 C 377.574 2.13597 3.70891 0
M  V30 3908 C 376.9 1.74537 5.05412 0
M  V30 3909 C 378.2 3.55451 3.8269 0
M  V30 3910 H 379.894 2.23248 1.99501 0
M  V30 3911 H 377.44 1.0747 0.958449 0
M  V30 3912 H 379.393 0.995592 4.0947 0
M  V30 3913 H 378.117 0.0702565 3.26524 0
M  V30 3914 H 376.776 2.17905 2.9481 0
M  V30 3915 H 376.424 0.754226 4.97313 0
M  V30 3916 H 376.124 2.47361 5.32997 0
M  V30 3917 H 377.648 1.70803 5.86224 0
M  V30 3918 H 379.062 3.5354 4.51312 0
M  V30 3919 H 377.459 4.26922 4.21732 0
M  V30 3920 H 378.529 3.92587 2.84611 0
M  V30 3921 N 379.872 -1.04064 1.18357 0
M  V30 3922 C 380.822 -2.10393 0.878561 0
M  V30 3923 C 381.806 -1.60183 -0.151713 0
M  V30 3924 O 382.998 -1.76923 0.0523303 0
M  V30 3925 C 380.127 -3.4089 0.406096 0
M  V30 3926 C 379.213 -3.97866 1.46844 0
M  V30 3927 N 379.604 -4.28657 2.68489 0
M  V30 3928 C 377.902 -4.2574 1.32896 0
M  V30 3929 C 378.603 -4.74253 3.36836 0
M  V30 3930 N 377.579 -4.75068 2.64219 0
M  V30 3931 H 381.381 -2.32076 1.80327 0
M  V30 3932 H 378.895 -1.21818 1.07397 0
M  V30 3933 H 380.892 -4.16557 0.169088 0
M  V30 3934 H 379.552 -3.20633 -0.512275 0
M  V30 3935 H 380.563 -4.18304 3.05356 0
M  V30 3936 H 377.24 -4.1481 0.473134 0
M  V30 3937 H 378.63 -5.07096 4.40798 0
M  V30 3938 N 381.35 -0.985608 -1.22978 0
M  V30 3939 C 382.298 -0.522631 -2.26652 0
M  V30 3940 C 383.292 0.422998 -1.64034 0
M  V30 3941 O 384.498 0.296319 -1.77544 0
M  V30 3942 H 380.873 -0.150597 -0.736766 0
M  V30 3943 H 382.844 -1.40863 -2.63059 0
M  V30 3944 C 381.593 0.154238 -3.47358 0
M  V30 3945 H 380.916 -0.564329 -3.95797 0
M  V30 3946 H 382.356 0.441744 -4.21693 0
M  V30 3947 C 380.815 1.38719 -3.07016 0
M  V30 3948 O 381.345 2.48307 -3.15764 0
M  V30 3949 N 379.551 1.25975 -2.61875 0
M  V30 3950 H 379.098 0.368068 -2.54957 0
M  V30 3951 H 379.056 2.08578 -2.3525 0
M  V30 3952 N 382.828 1.3818 -0.7579 0
M  V30 3953 C 384.077 1.99261 -0.312744 0
M  V30 3954 C 384.39 1.60846 1.11301 0
M  V30 3955 O 385.596 2.14929 1.65885 0
M  V30 3956 C 384.052 3.56294 -0.50821 0
M  V30 3957 C 383.66 4.03657 -1.94333 0
M  V30 3958 C 385.404 4.24313 -0.125982 0
M  V30 3959 C 383.311 5.53347 -2.08712 0
M  V30 3960 H 382.241 0.745456 -0.113185 0
M  V30 3961 H 384.892 1.57889 -0.935056 0
M  V30 3962 H 383.274 3.95575 0.183353 0
M  V30 3963 H 384.448 3.75655 -2.66871 0
M  V30 3964 H 382.763 3.48376 -2.28086 0
M  V30 3965 H 385.36 5.34279 -0.212125 0
M  V30 3966 H 385.703 4.05962 0.921964 0
M  V30 3967 H 386.236 3.90285 -0.769563 0
M  V30 3968 H 382.975 5.76607 -3.11777 0
M  V30 3969 H 382.495 5.83078 -1.4064 0
M  V30 3970 H 384.174 6.19111 -1.87912 0
M  V30 3971 N 384.306 0.507319 1.49211 0
M  V30 3972 C 385.269 -0.256763 2.27757 0
M  V30 3973 C 386.269 -0.888287 1.34038 0
M  V30 3974 O 387.459 -0.751841 1.5714 0
M  V30 3975 C 384.591 -1.36905 3.12202 0
M  V30 3976 H 385.784 0.432557 2.96764 0
M  V30 3977 H 383.337 0.262488 1.5408 0
M  V30 3978 H 384.072 -2.09233 2.47775 0
M  V30 3979 H 383.857 -0.921599 3.81115 0
M  V30 3980 H 385.347 -1.9071 3.7151 0
M  V30 3981 N 385.784 -1.5574 0.241426 0
M  V30 3982 C 387.031 -1.9881 -0.384836 0
M  V30 3983 C 387.359 -1.12947 -1.58346 0
M  V30 3984 O 386.614 -0.178993 -1.9488 0
M  V30 3985 C 386.913 -3.47308 -0.843317 0
M  V30 3986 C 386.579 -4.50223 0.246946 0
M  V30 3987 C 385.241 -4.78088 0.546399 0
M  V30 3988 C 387.593 -5.11841 0.983282 0
M  V30 3989 C 384.921 -5.64846 1.58636 0
M  V30 3990 C 387.273 -5.99727 2.01272 0
M  V30 3991 C 385.937 -6.25927 2.31888 0
M  V30 3992 H 385.207 -0.727496 -0.140821 0
M  V30 3993 H 387.854 -1.8831 0.348106 0
M  V30 3994 H 386.159 -3.55112 -1.65537 0
M  V30 3995 H 387.856 -3.78017 -1.33806 0
M  V30 3996 H 384.446 -4.286 0.00340639 0
M  V30 3997 H 388.63 -4.90366 0.765182 0
M  V30 3998 H 383.886 -5.83403 1.82896 0
M  V30 3999 H 388.06 -6.46517 2.58823 0
M  V30 4000 H 385.687 -6.92949 3.12611 0
M  V30 4001 N 387.262 0.0317525 -1.57568 0
M  V30 4002 C 388.678 0.38735 -1.54828 0
M  V30 4003 C 388.878 1.7677 -0.967187 0
M  V30 4004 O 387.934 2.45581 -0.587063 0
M  V30 4005 C 389.247 0.291667 -2.99282 0
M  V30 4006 C 390.795 0.368946 -3.10818 0
M  V30 4007 C 391.27 0.302741 -4.56998 0
M  V30 4008 N 392.761 0.361617 -4.61786 0
M  V30 4009 C 393.496 0.333238 -5.72431 0
M  V30 4010 N 392.992 0.257308 -6.92322 0
M  V30 4011 N 394.785 0.382769 -5.60795 0
M  V30 4012 H 386.936 -0.871609 -1.93692 0
M  V30 4013 H 389.199 -0.331161 -0.888277 0
M  V30 4014 H 388.905 -0.656794 -3.45513 0
M  V30 4015 H 388.779 1.08638 -3.61217 0
M  V30 4016 H 391.166 1.30784 -2.64536 0
M  V30 4017 H 391.247 -0.455066 -2.5172 0
M  V30 4018 H 390.891 -0.632473 -5.03947 0
M  V30 4019 H 390.821 1.14482 -5.14005 0
M  V30 4020 H 393.312 0.422923 -3.75526 0
M  V30 4021 H 393.625 0.24068 -7.72425 0
M  V30 4022 H 391.97 0.223396 -6.94641 0
M  V30 4023 H 395.161 0.44006 -4.66027 0
M  V30 4024 H 395.334 0.357184 -6.47015 0
M  V30 4025 N 388.74 1.54641 0.303973 0
M  V30 4026 C 390.017 1.64455 1.05896 0
M  V30 4027 C 390.397 0.490923 2.05312 0
M  V30 4028 O 389.745 -0.512685 2.22674 0
M  V30 4029 C 389.955 3.02331 1.74347 0
M  V30 4030 C 391.303 3.59045 2.26653 0
M  V30 4031 O 392.327 3.04764 1.84384 0
M  V30 4032 O 391.186 4.54081 3.04093 0
M  V30 4033 H 388.28 0.666729 0.489287 0
M  V30 4034 H 390.826 1.66986 0.302298 0
M  V30 4035 H 389.598 3.77734 1.02142 0
M  V30 4036 H 389.221 3.03565 2.56777 0
M  V30 4037 N 390.218 -0.567019 1.47046 0
M  V30 4038 C 391.466 -1.322 1.52864 0
M  V30 4039 C 391.787 -1.94088 0.188388 0
M  V30 4040 O 391.057 -1.7941 -0.786693 0
M  V30 4041 H 389.637 -0.490894 0.563056 0
M  V30 4042 H 392.299 -0.662879 1.83281 0
M  V30 4043 H 391.395 -2.12062 2.2899 0
M  V30 4044 N 391.696 -1.35014 -0.812953 0
M  V30 4045 C 392.973 -1.18502 -1.55617 0
M  V30 4046 C 393.353 0.238421 -2.09749 0
M  V30 4047 O 392.701 1.2411 -1.91857 0
M  V30 4048 C 392.911 -2.24783 -2.66971 0
M  V30 4049 C 394.259 -2.60268 -3.35478 0
M  V30 4050 O 395.283 -2.23648 -2.77236 0
M  V30 4051 O 394.142 -3.2321 -4.40678 0
M  V30 4052 H 391.236 -0.459984 -0.687272 0
M  V30 4053 H 393.782 -1.46677 -0.853464 0
M  V30 4054 H 392.554 -3.20284 -2.24798 0
M  V30 4055 H 392.177 -1.97841 -3.44884 0
M  V30 4056 N 393.175 1.03435 -1.18907 0
M  V30 4057 C 394.591 1.28973 -0.940111 0
M  V30 4058 C 394.791 1.97676 0.390691 0
M  V30 4059 O 393.847 2.26127 1.12352 0
M  V30 4060 C 395.16 2.14221 -2.11021 0
M  V30 4061 C 396.708 2.27547 -2.14922 0
M  V30 4062 C 397.183 3.16164 -3.31367 0
M  V30 4063 N 398.674 3.23752 -3.31269 0
M  V30 4064 C 399.409 3.92495 -4.18014 0
M  V30 4065 N 398.905 4.63515 -5.14904 0
M  V30 4066 N 400.698 3.88838 -4.05908 0
M  V30 4067 H 392.849 0.57252 -2.04538 0
M  V30 4068 H 395.112 0.315184 -0.894071 0
M  V30 4069 H 394.818 1.71054 -3.073 0
M  V30 4070 H 394.692 3.14919 -2.0762 0
M  V30 4071 H 397.079 2.69947 -1.19217 0
M  V30 4072 H 397.16 1.26418 -2.22378 0
M  V30 4073 H 396.804 2.74474 -4.27348 0
M  V30 4074 H 396.734 4.17339 -3.21148 0
M  V30 4075 H 399.225 2.73167 -2.61129 0
M  V30 4076 H 399.538 5.13583 -5.77453 0
M  V30 4077 H 397.883 4.62398 -5.18857 0
M  V30 4078 H 401.074 3.32491 -3.29495 0
M  V30 4079 H 401.247 4.4214 -4.73726 0
M  V30 4080 N 394.653 0.992116 1.22453 0
M  V30 4081 C 395.583 0.561677 2.26644 0
M  V30 4082 C 396.564 -0.411055 1.65059 0
M  V30 4083 O 397.749 -0.301861 1.9184 0
M  V30 4084 C 394.879 -0.125247 3.47074 0
M  V30 4085 C 393.833 0.765948 4.21091 0
M  V30 4086 C 393.159 -0.0538484 5.34673 0
M  V30 4087 C 394.459 2.06242 4.79856 0
M  V30 4088 H 396.153 1.43259 2.62902 0
M  V30 4089 H 393.699 0.690283 1.26377 0
M  V30 4090 H 395.652 -0.437764 4.1912 0
M  V30 4091 H 394.376 -1.03069 3.0991 0
M  V30 4092 H 393.035 1.0621 3.50878 0
M  V30 4093 H 392.683 -0.960188 4.9375 0
M  V30 4094 H 392.383 0.539415 5.85119 0
M  V30 4095 H 393.907 -0.360477 6.09535 0
M  V30 4096 H 395.321 1.8139 5.43848 0
M  V30 4097 H 393.718 2.60444 5.40638 0
M  V30 4098 H 394.788 2.74167 3.99951 0
M  V30 4099 N 396.131 -1.37776 0.765217 0
M  V30 4100 C 397.547 -1.53297 0.444108 0
M  V30 4101 C 397.747 -1.72515 -1.04119 0
M  V30 4102 O 396.803 -1.74278 -1.82711 0
M  V30 4103 C 398.116 -2.73328 1.25349 0
M  V30 4104 C 399.664 -2.87185 1.24473 0
M  V30 4105 C 400.139 -4.10191 2.03733 0
M  V30 4106 N 401.63 -4.17291 2.01053 0
M  V30 4107 C 402.365 -5.11488 2.59166 0
M  V30 4108 N 401.861 -6.11285 3.26041 0
M  V30 4109 N 403.654 -5.03924 2.49032 0
M  V30 4110 H 395.805 -1.23552 1.72768 0
M  V30 4111 H 398.068 -0.601103 0.733062 0
M  V30 4112 H 397.774 -2.6557 2.30577 0
M  V30 4113 H 397.648 -3.66834 0.87823 0
M  V30 4114 H 400.035 -2.94418 0.20047 0
M  V30 4115 H 400.116 -1.94657 1.65959 0
M  V30 4116 H 399.76 -4.0372 3.08176 0
M  V30 4117 H 399.69 -5.01821 1.59633 0
M  V30 4118 H 402.181 -3.45825 1.5236 0
M  V30 4119 H 402.494 -6.79678 3.67774 0
M  V30 4120 H 400.839 -6.11583 3.30138 0
M  V30 4121 H 404.03 -4.24902 1.96407 0
M  V30 4122 H 404.203 -5.77152 2.94617 0
M  V30 4123 N 397.609 -0.515225 -1.4894 0
M  V30 4124 C 399.02 -0.0710067 -1.86565 0
M  V30 4125 C 399.371 1.34733 -1.42623 0
M  V30 4126 O 398.496 2.00653 -0.810379 0
M  V30 4127 C 399.091 -0.122083 -3.3858 0
M  V30 4128 C 397.65 0.266863 -3.75453 0
M  V30 4129 C 396.797 -0.488376 -2.72966 0
M  V30 4130 H 399.748 -0.727266 -1.41055 0
M  V30 4131 H 399.769 0.669818 -3.74558 0
M  V30 4132 H 399.281 -1.15448 -3.70531 0
M  V30 4133 H 397.382 1.30196 -3.49113 0
M  V30 4134 H 397.495 -0.0624811 -4.79059 0
M  V30 4135 H 395.859 0.0635622 -2.54621 0
M  V30 4136 H 396.642 -1.52113 -3.07761 0
M  V30 4137 N 399.087 1.5561 -0.249682 0
M  V30 4138 C 400.336 1.98187 0.37479 0
M  V30 4139 C 400.649 1.14111 1.58865 0
M  V30 4140 O 401.855 1.46714 2.28445 0
M  V30 4141 C 400.311 3.52661 0.718192 0
M  V30 4142 C 399.919 4.45481 -0.474428 0
M  V30 4143 C 401.663 4.03888 1.3067 0
M  V30 4144 C 399.57 5.91303 -0.107026 0
M  V30 4145 H 398.5 0.740159 0.143808 0
M  V30 4146 H 401.151 1.80125 -0.350336 0
M  V30 4147 H 399.533 3.66429 1.50152 0
M  V30 4148 H 400.707 4.43473 -1.25172 0
M  V30 4149 H 399.022 4.04751 -0.978052 0
M  V30 4150 H 401.619 5.10358 1.59496 0
M  V30 4151 H 401.962 3.51401 2.23211 0
M  V30 4152 H 402.495 3.93457 0.586211 0
M  V30 4153 H 399.234 6.47833 -0.999642 0
M  V30 4154 H 398.754 5.9644 0.634013 0
M  V30 4155 H 400.433 6.46258 0.309807 0
M  V30 4156 N 400.565 -0.0233959 1.57583 0
M  V30 4157 C 401.814 -0.712133 1.8871 0
M  V30 4158 C 402.127 -1.76217 0.848944 0
M  V30 4159 O 403.333 -2.50389 1.04964 0
M  V30 4160 C 401.789 -1.3177 3.3491 0
M  V30 4161 C 401.397 -0.303715 4.46969 0
M  V30 4162 C 403.141 -1.98598 3.75179 0
M  V30 4163 C 401.048 -0.917945 5.84233 0
M  V30 4164 H 399.978 -0.269735 0.704101 0
M  V30 4165 H 402.629 0.0333114 1.8347 0
M  V30 4166 H 401.011 -2.11304 3.34913 0
M  V30 4167 H 402.185 0.465325 4.58445 0
M  V30 4168 H 400.5 0.2628 4.1557 0
M  V30 4169 H 403.097 -2.45416 4.75053 0
M  V30 4170 H 403.44 -2.80659 3.07468 0
M  V30 4171 H 403.973 -1.25831 3.77374 0
M  V30 4172 H 400.712 -0.136633 6.55358 0
M  V30 4173 H 400.232 -1.65669 5.76467 0
M  V30 4174 H 401.911 -1.4236 6.31144 0
M  V30 4175 N 402.043 -1.548 -0.295768 0
M  V30 4176 C 402.991 -1.86874 -1.38495 0
M  V30 4177 C 403.985 -0.742938 -1.52239 0
M  V30 4178 O 405.191 -0.926999 -1.54294 0
M  V30 4179 H 401.566 -0.592786 -0.462719 0
M  V30 4180 H 403.537 -2.77904 -1.08682 0
M  V30 4181 C 402.286 -2.13732 -2.74252 0
M  V30 4182 H 401.609 -2.99835 -2.64459 0
M  V30 4183 H 403.049 -2.4011 -3.49461 0
M  V30 4184 C 401.508 -0.937539 -3.23592 0
M  V30 4185 O 402.038 -0.160665 -4.01379 0
M  V30 4186 N 400.244 -0.741478 -2.80981 0
M  V30 4187 H 399.791 -1.37489 -2.1784 0
M  V30 4188 H 399.749 0.0597103 -3.14343 0
M  V30 4189 N 403.521 0.559213 -1.47345 0
M  V30 4190 C 404.937 0.884943 -1.32819 0
M  V30 4191 C 405.137 1.98988 -0.317173 0
M  V30 4192 O 404.193 2.51031 0.272011 0
M  V30 4193 C 405.506 1.28007 -2.72093 0
M  V30 4194 C 407.054 1.39161 -2.80363 0
M  V30 4195 C 407.529 1.82031 -4.20272 0
M  V30 4196 N 409.02 1.89185 -4.22804 0
M  V30 4197 C 409.755 2.2368 -5.27973 0
M  V30 4198 N 409.251 2.56802 -6.43447 0
M  V30 4199 N 411.044 2.24436 -5.15349 0
M  V30 4200 H 403.195 -0.170304 -2.11716 0
M  V30 4201 H 405.458 -0.0135247 -0.947904 0
M  V30 4202 H 405.164 0.542027 -3.47498 0
M  V30 4203 H 405.038 2.23665 -3.03733 0
M  V30 4204 H 407.425 2.12048 -2.05231 0
M  V30 4205 H 407.506 0.41696 -2.52379 0
M  V30 4206 H 407.15 1.09715 -4.95908 0
M  V30 4207 H 407.08 2.80495 -4.45679 0
M  V30 4208 H 409.571 1.65982 -3.39497 0
M  V30 4209 H 409.884 2.82144 -7.19454 0
M  V30 4210 H 408.229 2.54387 -6.46771 0
M  V30 4211 H 411.42 1.97998 -4.24163 0
M  V30 4212 H 411.593 2.50989 -5.97418 0
M  V30 4213 N 404.999 1.35443 0.805782 0
M  V30 4214 C 405.962 1.28301 1.89925 0
M  V30 4215 C 406.962 0.194285 1.59622 0
M  V30 4216 O 408.152 0.448036 1.6834 0
M  V30 4217 C 405.284 0.984997 3.2636 0
M  V30 4218 H 406.477 2.2553 1.97677 0
M  V30 4219 H 404.03 1.19979 1.00173 0
M  V30 4220 H 404.765 0.016603 3.24296 0
M  V30 4221 H 404.55 1.77269 3.4974 0
M  V30 4222 H 406.04 0.960651 4.064 0
M  V30 4223 N 406.477 -1.02803 1.19454 0
M  V30 4224 C 407.702 -1.80378 1.02364 0
M  V30 4225 C 408.127 -1.83282 -0.423007 0
M  V30 4226 O 407.485 -1.25945 -1.30413 0
M  V30 4227 C 407.533 -3.23248 1.59821 0
M  V30 4228 O 406.637 -4.04 0.828105 0
M  V30 4229 H 405.978 -0.556799 0.361761 0
M  V30 4230 H 408.508 -1.29385 1.58495 0
M  V30 4231 H 408.518 -3.73994 1.63073 0
M  V30 4232 H 407.193 -3.2045 2.65113 0
M  V30 4233 H 405.77 -3.62635 0.86891 0
M  V30 4234 N 407.956 -0.998596 -1.21925 0
M  V30 4235 C 409.205 -0.673085 -1.90138 0
M  V30 4236 C 409.518 0.79895 -1.78539 0
M  V30 4237 O 410.724 1.23628 -2.4172 0
M  V30 4238 C 409.18 -1.15339 -3.40918 0
M  V30 4239 C 408.788 -2.65106 -3.61141 0
M  V30 4240 C 410.532 -0.902476 -4.14796 0
M  V30 4241 C 408.439 -3.0671 -5.05651 0
M  V30 4242 H 407.369 -0.248057 -0.712028 0
M  V30 4243 H 410.02 -1.20891 -1.38049 0
M  V30 4244 H 408.402 -0.545658 -3.92223 0
M  V30 4245 H 409.576 -3.31274 -3.20304 0
M  V30 4246 H 407.891 -2.88142 -3.00605 0
M  V30 4247 H 410.488 -1.18895 -5.21314 0
M  V30 4248 H 410.831 0.161349 -4.15987 0
M  V30 4249 H 411.364 -1.47269 -3.69536 0
M  V30 4250 H 408.103 -4.12292 -5.09603 0
M  V30 4251 H 407.623 -2.45249 -5.47369 0
M  V30 4252 H 409.302 -2.9833 -5.74115 0
M  V30 4253 N 409.434 1.37368 -0.772513 0
M  V30 4254 C 410.397 2.28601 -0.165541 0
M  V30 4255 C 411.397 1.48062 0.627238 0
M  V30 4256 O 412.587 1.68268 0.450715 0
M  V30 4257 C 409.719 3.32023 0.772897 0
M  V30 4258 H 410.912 2.83787 -0.969787 0
M  V30 4259 H 408.465 1.46647 -0.540775 0
M  V30 4260 H 409.2 2.81962 1.60212 0
M  V30 4261 H 408.985 3.91555 0.206585 0
M  V30 4262 H 410.475 4.00197 1.19298 0
M  V30 4263 N 410.912 0.523116 1.48665 0
M  V30 4264 C 411.822 -0.247406 2.33292 0
M  V30 4265 C 412.838 -0.945769 1.46052 0
M  V30 4266 O 414.014 -0.922253 1.79043 0
M  V30 4267 C 411.079 -1.28487 3.22012 0
M  V30 4268 C 410.14 -0.597592 4.2512 0
M  V30 4269 C 409.373 -1.58563 5.09601 0
M  V30 4270 O 409.596 -2.81763 4.95949 0
M  V30 4271 O 408.53 -1.12879 5.91221 0
M  V30 4272 H 412.356 0.445869 3.00409 0
M  V30 4273 H 409.941 0.284128 1.46673 0
M  V30 4274 H 411.823 -1.88459 3.7691 0
M  V30 4275 H 410.498 -1.96068 2.57564 0
M  V30 4276 H 409.405 0.0424407 3.74076 0
M  V30 4277 H 410.738 0.0361517 4.92187 0
M  V30 4278 N 412.39 -1.55475 0.257931 0
M  V30 4279 C 413.323 -2.179 -0.677862 0
M  V30 4280 C 414.301 -1.13448 -1.16483 0
M  V30 4281 O 415.485 -1.41889 -1.24095 0
M  V30 4282 C 412.612 -2.78851 -1.92249 0
M  V30 4283 C 411.658 -3.96454 -1.57246 0
M  V30 4284 S 412.491 -5.31349 -0.665501 0
M  V30 4285 C 413.647 -5.9576 -1.91889 0
M  V30 4286 H 413.88 -2.96934 -0.147396 0
M  V30 4287 H 411.413 -1.54342 0.0423023 0
M  V30 4288 H 413.371 -3.14602 -2.63697 0
M  V30 4289 H 412.032 -1.99742 -2.42409 0
M  V30 4290 H 411.225 -4.37731 -2.49814 0
M  V30 4291 H 410.827 -3.62038 -0.938325 0
M  V30 4292 H 413.119 -6.13947 -2.86487 0
M  V30 4293 H 414.062 -6.9094 -1.54942 0
M  V30 4294 H 414.47 -5.2494 -2.076 0
M  V30 4295 N 413.868 0.0150385 -1.57593 0
M  V30 4296 C 415.114 0.704043 -1.90187 0
M  V30 4297 C 415.447 1.74249 -0.857366 0
M  V30 4298 O 414.722 1.94092 0.125843 0
M  V30 4299 C 415.005 1.36087 -3.33395 0
M  V30 4300 C 414.858 0.334981 -4.48551 0
M  V30 4301 C 416.177 2.29112 -3.7576 0
M  V30 4302 H 413.296 0.254475 -0.691673 0
M  V30 4303 H 415.938 -0.0331678 -1.89971 0
M  V30 4304 H 414.088 1.98922 -3.3371 0
M  V30 4305 H 415.76 -0.292534 -4.60372 0
M  V30 4306 H 414.003 -0.344325 -4.32431 0
M  V30 4307 H 414.674 0.833316 -5.45674 0
M  V30 4308 H 417.15 1.76308 -3.76902 0
M  V30 4309 H 416.026 2.72043 -4.76743 0
M  V30 4310 H 416.287 3.16385 -3.08793 0
M  V30 4311 N 415.346 1.54954 0.287554 0
M  V30 4312 C 416.592 1.75132 1.02257 0
M  V30 4313 C 416.925 0.542858 1.86458 0
M  V30 4314 O 416.2 -0.459856 1.88986 0
M  V30 4315 C 416.483 3.04812 1.91733 0
M  V30 4316 C 416.336 4.35985 1.10622 0
M  V30 4317 C 417.655 3.30438 2.90687 0
M  V30 4318 H 414.774 0.637194 0.370341 0
M  V30 4319 H 417.416 1.87678 0.296111 0
M  V30 4320 H 415.566 2.94247 2.53675 0
M  V30 4321 H 417.238 4.58487 0.508636 0
M  V30 4322 H 415.481 4.31865 0.409271 0
M  V30 4323 H 416.152 5.23017 1.76513 0
M  V30 4324 H 418.628 3.40701 2.38877 0
M  V30 4325 H 417.504 4.22467 3.50447 0
M  V30 4326 H 417.765 2.49377 3.65053 0
M  V30 4327 N 416.824 -0.551391 1.4764 0
M  V30 4328 C 418.235 -1.13349 1.48354 0
M  V30 4329 C 418.586 -1.94709 0.241432 0
M  V30 4330 O 417.711 -2.06306 -0.653205 0
M  V30 4331 C 418.306 -2.0623 2.68802 0
M  V30 4332 C 416.865 -2.597 2.72457 0
M  V30 4333 C 416.012 -1.36201 2.41546 0
M  V30 4334 H 418.963 -0.337698 1.55065 0
M  V30 4335 H 418.984 -2.90196 2.46103 0
M  V30 4336 H 418.496 -1.46987 3.59188 0
M  V30 4337 H 416.597 -3.22724 1.86225 0
M  V30 4338 H 416.71 -3.00296 3.73308 0
M  V30 4339 H 415.074 -1.67068 1.9225 0
M  V30 4340 H 415.857 -0.787425 3.34147 0
M  V30 4341 N 418.302 -1.35869 -0.798587 0
M  V30 4342 C 419.532 -1.32529 -1.58491 0
M  V30 4343 C 419.94 0.0975405 -1.88948 0
M  V30 4344 O 419.283 1.06224 -1.49874 0
M  V30 4345 C 419.345 -2.07247 -2.9375 0
M  V30 4346 C 419.009 -3.56391 -2.86068 0
M  V30 4347 C 420.006 -4.50824 -2.58947 0
M  V30 4348 C 417.691 -3.9915 -3.04933 0
M  V30 4349 C 419.685 -5.85993 -2.5078 0
M  V30 4350 C 417.372 -5.34413 -2.96389 0
M  V30 4351 C 418.37 -6.27646 -2.69349 0
M  V30 4352 O 418.058 -7.60426 -2.60782 0
M  V30 4353 H 417.79 -0.456529 -0.498556 0
M  V30 4354 H 420.344 -1.79425 -0.999799 0
M  V30 4355 H 418.574 -1.55001 -3.54276 0
M  V30 4356 H 420.263 -1.96883 -3.54954 0
M  V30 4357 H 421.029 -4.19104 -2.44084 0
M  V30 4358 H 416.908 -3.26961 -3.24989 0
M  V30 4359 H 420.452 -6.58735 -2.29595 0
M  V30 4360 H 416.349 -5.65743 -3.10813 0
M  V30 4361 H 417.117 -7.70444 -2.76331 0
M  V30 4362 N 419.78 1.02168 -1.19998 0
M  V30 4363 C 421.028 1.75338 -1.00504 0
M  V30 4364 C 421.349 1.89387 0.464506 0
M  V30 4365 O 420.619 1.43268 1.33608 0
M  V30 4366 H 419.199 0.649564 -0.368885 0
M  V30 4367 H 421.861 1.23205 -1.51018 0
M  V30 4368 H 420.957 2.75892 -1.45912 0
M  V30 4369 N 421.258 1.00505 1.21394 0
M  V30 4370 C 422.535 0.603277 1.86064 0
M  V30 4371 C 422.915 -0.919095 1.90042 0
M  V30 4372 O 422.263 -1.80607 1.39977 0
M  V30 4373 C 422.473 1.23772 3.26315 0
M  V30 4374 C 423.821 1.34586 4.02705 0
M  V30 4375 O 424.845 1.19304 3.35626 0
M  V30 4376 O 423.704 1.59169 5.22807 0
M  V30 4377 H 420.798 0.206634 0.800769 0
M  V30 4378 H 423.344 1.1017 1.29076 0
M  V30 4379 H 422.116 2.27848 3.18121 0
M  V30 4380 H 421.739 0.725648 3.90922 0
M  V30 4381 N 422.737 -1.36956 0.779787 0
M  V30 4382 C 424.148 -1.82094 0.412156 0
M  V30 4383 C 424.499 -1.64926 -1.06273 0
M  V30 4384 O 423.624 -1.16483 -1.82375 0
M  V30 4385 C 424.219 -3.3059 0.741319 0
M  V30 4386 C 422.778 -3.73974 0.426641 0
M  V30 4387 C 421.925 -2.59368 0.980987 0
M  V30 4388 H 424.876 -1.25314 0.973758 0
M  V30 4389 H 424.897 -3.80489 0.028887 0
M  V30 4390 H 424.409 -3.43054 1.81482 0
M  V30 4391 H 422.51 -3.67076 -0.639215 0
M  V30 4392 H 422.623 -4.69778 0.940515 0
M  V30 4393 H 420.987 -2.51463 0.404757 0
M  V30 4394 H 421.77 -2.74621 2.06005 0
M  V30 4395 N 424.215 -0.530993 -1.48385 0
M  V30 4396 C 425.44 0.000729535 -2.074 0
M  V30 4397 C 425.865 1.27298 -1.3848 0
M  V30 4398 O 425.223 1.75599 -0.451081 0
M  V30 4399 C 425.271 0.206697 -3.60007 0
M  V30 4400 O 424.375 1.27514 -3.92191 0
M  V30 4401 H 423.716 -0.039583 -0.662819 0
M  V30 4402 H 426.246 -0.739194 -1.9078 0
M  V30 4403 H 426.256 0.42904 -4.05738 0
M  V30 4404 H 424.931 -0.722675 -4.09573 0
M  V30 4405 H 423.508 1.03537 -3.58238 0
M  V30 4406 N 425.693 1.55336 -0.266172 0
M  V30 4407 C 427.104 1.85236 0.233315 0
M  V30 4408 C 427.455 1.18816 1.56132 0
M  V30 4409 O 426.58 0.473307 2.11161 0
M  V30 4410 C 427.175 3.36059 0.430113 0
M  V30 4411 C 425.734 3.66116 0.873842 0
M  V30 4412 C 424.881 2.77274 -0.0380016 0
M  V30 4413 H 427.832 1.51004 -0.488214 0
M  V30 4414 H 427.853 3.58681 1.26998 0
M  V30 4415 H 427.365 3.84373 -0.536588 0
M  V30 4416 H 425.466 3.23295 1.85233 0
M  V30 4417 H 425.579 4.73699 0.717358 0
M  V30 4418 H 423.943 2.50198 0.476759 0
M  V30 4419 H 424.726 3.284 -1.00042 0
M  V30 4420 N 427.171 -0.0066808 1.57599 0
M  V30 4421 C 428.42 -0.692078 1.89455 0
M  V30 4422 C 428.733 -1.75306 0.867586 0
M  V30 4423 O 429.939 -2.49262 1.07614 0
M  V30 4424 C 428.395 -1.2821 3.36289 0
M  V30 4425 C 428.003 -0.256291 4.47266 0
M  V30 4426 C 429.747 -1.94608 3.77264 0
M  V30 4427 C 427.654 -0.855927 5.85173 0
M  V30 4428 H 426.584 -0.262252 0.706923 0
M  V30 4429 H 429.235 0.052769 1.83424 0
M  V30 4430 H 427.617 -2.0774 3.37135 0
M  V30 4431 H 428.791 0.513923 4.57925 0
M  V30 4432 H 427.106 0.306862 4.15268 0
M  V30 4433 H 429.703 -2.40364 4.77629 0
M  V30 4434 H 430.046 -2.77382 3.10427 0
M  V30 4435 H 430.579 -1.21822 3.78688 0
M  V30 4436 H 427.318 -0.0671161 6.55466 0
M  V30 4437 H 426.838 -1.59546 5.78191 0
M  V30 4438 H 428.517 -1.35658 6.32618 0
M  V30 4439 N 428.649 -1.55105 -0.279332 0
M  V30 4440 C 430.065 -1.46803 -0.626187 0
M  V30 4441 C 430.265 -0.676939 -1.89789 0
M  V30 4442 O 429.321 -0.19326 -2.51759 0
M  V30 4443 C 430.634 -2.90962 -0.759034 0
M  V30 4444 C 432.182 -3.01138 -0.853504 0
M  V30 4445 C 432.657 -4.46539 -1.01818 0
M  V30 4446 N 434.148 -4.50341 -1.08386 0
M  V30 4447 C 434.883 -5.60053 -1.22996 0
M  V30 4448 N 434.379 -6.79645 -1.34366 0
M  V30 4449 N 436.172 -5.47783 -1.26056 0
M  V30 4450 H 428.323 -2.04996 0.555921 0
M  V30 4451 H 430.586 -0.929325 0.187239 0
M  V30 4452 H 430.292 -3.51544 0.104852 0
M  V30 4453 H 430.166 -3.39619 -1.64131 0
M  V30 4454 H 432.553 -2.40658 -1.70786 0
M  V30 4455 H 432.634 -2.55745 0.0532466 0
M  V30 4456 H 432.278 -5.0762 -0.168504 0
M  V30 4457 H 432.208 -4.89583 -1.93948 0
M  V30 4458 H 434.699 -3.64191 -1.00864 0
M  V30 4459 H 435.012 -7.59012 -1.4533 0
M  V30 4460 H 433.357 -6.82469 -1.31382 0
M  V30 4461 H 436.548 -4.53294 -1.168 0
M  V30 4462 H 436.721 -6.33331 -1.37098 0
M  V30 4463 N 430.127 0.543554 -1.4793 0
M  V30 4464 C 431.352 1.32995 -1.59145 0
M  V30 4465 C 431.777 1.86472 -0.246956 0
M  V30 4466 O 431.135 1.63696 0.779324 0
M  V30 4467 C 431.183 2.46623 -2.63077 0
M  V30 4468 O 430.287 3.49261 -2.19295 0
M  V30 4469 H 429.628 0.394472 -0.534124 0
M  V30 4470 H 432.158 0.655489 -1.93816 0
M  V30 4471 H 432.168 2.93001 -2.83926 0
M  V30 4472 H 430.843 2.07059 -3.60693 0
M  V30 4473 H 429.42 3.09094 -2.08603 0
M  V30 4474 N 431.605 1.3629 0.791371 0
M  V30 4475 C 432.851 1.31613 1.5508 0
M  V30 4476 C 433.206 -0.104372 1.92117 0
M  V30 4477 O 432.499 -1.05845 1.5971 0
M  V30 4478 C 432.693 2.17068 2.8393 0
M  V30 4479 C 432.522 3.67285 2.59484 0
M  V30 4480 C 431.292 4.36469 2.54604 0
M  V30 4481 C 433.49 4.60595 2.28816 0
M  V30 4482 N 431.472 5.7234 2.22036 0
M  V30 4483 C 432.843 5.847 2.06218 0
M  V30 4484 C 434.898 4.4918 2.14806 0
M  V30 4485 C 433.601 6.98671 1.71028 0
M  V30 4486 C 435.627 5.63017 1.81014 0
M  V30 4487 C 434.989 6.86159 1.59263 0
M  V30 4488 H 431.088 0.536878 0.568582 0
M  V30 4489 H 433.672 1.71323 0.925007 0
M  V30 4490 H 431.843 1.79605 3.44378 0
M  V30 4491 H 433.575 2.03795 3.49642 0
M  V30 4492 H 430.33 3.89249 2.69782 0
M  V30 4493 H 430.754 6.44093 2.08503 0
M  V30 4494 H 435.396 3.54564 2.30313 0
M  V30 4495 H 433.114 7.9324 1.54259 0
M  V30 4496 H 436.7 5.56146 1.70861 0
M  V30 4497 H 435.58 7.72753 1.335 0
M  V30 4498 N 433.083 -1.0153 1.20538 0
M  V30 4499 C 434.015 -2.10224 0.913155 0
M  V30 4500 C 435.028 -1.62495 -0.0995998 0
M  V30 4501 O 436.217 -1.78014 0.131582 0
M  V30 4502 C 433.317 -3.37111 0.347717 0
M  V30 4503 C 432.49 -4.13971 1.41233 0
M  V30 4504 C 431.549 -5.19158 0.857976 0
M  V30 4505 O 430.575 -5.48 1.53897 0
M  V30 4506 N 431.777 -5.7955 -0.331966 0
M  V30 4507 H 434.542 -2.35879 1.84881 0
M  V30 4508 H 432.103 -1.17931 1.10923 0
M  V30 4509 H 434.095 -4.04683 -0.0373026 0
M  V30 4510 H 432.665 -3.08696 -0.492527 0
M  V30 4511 H 431.885 -3.41351 1.97163 0
M  V30 4512 H 433.173 -4.62103 2.12928 0
M  V30 4513 H 432.571 -5.58455 -0.902478 0
M  V30 4514 H 431.128 -6.48464 -0.65861 0
M  V30 4515 N 434.561 -1.01147 -1.20859 0
M  V30 4516 C 435.509 -0.57059 -2.25493 0
M  V30 4517 C 436.503 0.388109 -1.64894 0
M  V30 4518 O 437.709 0.258592 -1.78133 0
M  V30 4519 H 434.084 -0.166191 -0.733406 0
M  V30 4520 H 436.055 -1.46411 -2.60012 0
M  V30 4521 C 434.804 0.0805241 -3.47607 0
M  V30 4522 H 434.127 -0.648156 -3.94511 0
M  V30 4523 H 435.567 0.352197 -4.22535 0
M  V30 4524 C 434.026 1.32175 -3.09889 0
M  V30 4525 O 434.556 2.41553 -3.20959 0
M  V30 4526 N 432.762 1.20392 -2.64488 0
M  V30 4527 H 432.309 0.313905 -2.5568 0
M  V30 4528 H 432.267 2.03541 -2.39621 0
M  V30 4529 N 436.039 1.36541 -0.78704 0
M  V30 4530 C 437.269 2.03266 -0.369662 0
M  V30 4531 C 437.677 1.59481 1.01796 0
M  V30 4532 O 437.02 0.778612 1.66383 0
M  V30 4533 C 437.082 3.57779 -0.351371 0
M  V30 4534 C 436.746 4.24756 -1.68617 0
M  V30 4535 C 437.743 4.47811 -2.64124 0
M  V30 4536 C 435.428 4.62277 -1.96481 0
M  V30 4537 C 437.422 5.07464 -3.85693 0
M  V30 4538 C 435.109 5.21649 -3.18317 0
M  V30 4539 C 436.107 5.44182 -4.12741 0
M  V30 4540 O 435.795 6.02307 -5.32429 0
M  V30 4541 H 435.527 0.658977 -0.150751 0
M  V30 4542 H 438.081 1.75548 -1.0664 0
M  V30 4543 H 436.311 3.84606 0.401847 0
M  V30 4544 H 438 4.05879 0.0410147 0
M  V30 4545 H 438.766 4.19221 -2.43883 0
M  V30 4546 H 434.645 4.44065 -1.23805 0
M  V30 4547 H 438.189 5.24968 -4.59407 0
M  V30 4548 H 434.086 5.49664 -3.38437 0
M  V30 4549 H 434.854 6.20775 -5.33461 0
M  V30 4550 N 437.518 0.538854 1.48102 0
M  V30 4551 C 438.765 0.0080018 2.02498 0
M  V30 4552 C 439.093 -1.33437 1.41509 0
M  V30 4553 O 438.348 -1.87709 0.553507 0
M  V30 4554 C 438.647 -0.153808 3.57069 0
M  V30 4555 C 438.313 1.11533 4.36888 0
M  V30 4556 C 436.975 1.46314 4.58417 0
M  V30 4557 C 439.327 1.95718 4.83057 0
M  V30 4558 C 436.655 2.6516 5.23361 0
M  V30 4559 C 439.007 3.13751 5.49312 0
M  V30 4560 C 437.671 3.48866 5.69077 0
M  V30 4561 H 436.941 0.00292807 0.740994 0
M  V30 4562 H 439.588 0.706668 1.77984 0
M  V30 4563 H 437.893 -0.935309 3.80472 0
M  V30 4564 H 439.59 -0.579607 3.96789 0
M  V30 4565 H 436.18 0.834484 4.20398 0
M  V30 4566 H 440.364 1.70158 4.66219 0
M  V30 4567 H 435.62 2.92558 5.36861 0
M  V30 4568 H 439.794 3.79282 5.84053 0
M  V30 4569 H 437.421 4.41054 6.19173 0
M  V30 4570 N 438.996 -1.55193 0.274407 0
M  V30 4571 C 440.273 -1.91584 -0.394331 0
M  V30 4572 C 440.653 -1.19858 -1.73774 0
M  V30 4573 O 440.001 -0.3252 -2.26174 0
M  V30 4574 C 440.211 -3.4487 -0.535311 0
M  V30 4575 C 441.559 -4.16636 -0.818534 0
M  V30 4576 O 442.583 -3.5076 -0.620146 0
M  V30 4577 O 441.442 -5.33209 -1.19792 0
M  V30 4578 H 438.536 -0.798349 -0.215794 0
M  V30 4579 H 441.082 -1.66646 0.320507 0
M  V30 4580 H 439.854 -3.89145 0.410141 0
M  V30 4581 H 439.477 -3.75759 -1.29964 0
M  V30 4582 N 440.474 -0.00167713 -1.576 0
M  V30 4583 C 441.702 0.693759 -1.94922 0
M  V30 4584 C 442.117 1.67215 -0.876626 0
M  V30 4585 O 441.474 1.81929 0.144279 0
M  V30 4586 C 441.525 1.42416 -3.32265 0
M  V30 4587 O 441.246 0.485014 -4.35407 0
M  V30 4588 C 442.747 2.21395 -3.84056 0
M  V30 4589 H 439.967 0.193118 -0.642609 0
M  V30 4590 H 442.511 -0.0532952 -2.04431 0
M  V30 4591 H 440.666 2.12284 -3.24059 0
M  V30 4592 H 441.08 1.00053 -5.14868 0
M  V30 4593 H 442.554 2.67996 -4.82578 0
M  V30 4594 H 443.031 3.04142 -3.16851 0
M  V30 4595 H 443.637 1.56542 -3.95443 0
M  V30 4596 N 441.952 1.55251 0.271103 0
M  V30 4597 C 443.2 1.75599 1.00047 0
M  V30 4598 C 443.521 0.561188 1.8675 0
M  V30 4599 O 442.791 -0.423846 1.9126 0
M  V30 4600 H 441.371 0.647562 0.372387 0
M  V30 4601 H 444.033 1.92656 0.294876 0
M  V30 4602 H 443.129 2.65766 1.6363 0
M  V30 4603 N 443.43 -0.535701 1.48216 0
M  V30 4604 C 444.34 -1.66785 1.64985 0
M  V30 4605 C 445.356 -1.65654 0.532414 0
M  V30 4606 O 446.532 -1.8471 0.80275 0
M  V30 4607 C 443.597 -3.0326 1.68031 0
M  V30 4608 C 442.658 -3.1529 2.9136 0
M  V30 4609 C 441.891 -4.45255 2.94252 0
M  V30 4610 O 442.114 -5.32011 2.05719 0
M  V30 4611 O 441.048 -4.6153 3.86359 0
M  V30 4612 H 444.874 -1.55576 2.60825 0
M  V30 4613 H 442.459 -0.70815 1.31551 0
M  V30 4614 H 444.341 -3.84436 1.72589 0
M  V30 4615 H 443.016 -3.14805 0.753628 0
M  V30 4616 H 441.923 -2.3343 2.92337 0
M  V30 4617 H 443.256 -3.08658 3.83394 0
M  V30 4618 N 444.908 -1.36708 -0.784132 0
M  V30 4619 C 446.138 -1.34203 -1.57077 0
M  V30 4620 C 446.546 0.0774945 -1.89041 0
M  V30 4621 O 445.889 1.04628 -1.50992 0
M  V30 4622 C 445.951 -2.10351 -2.91535 0
M  V30 4623 C 445.615 -3.59405 -2.82272 0
M  V30 4624 C 446.612 -4.53545 -2.54151 0
M  V30 4625 C 444.297 -4.02362 -3.00683 0
M  V30 4626 C 446.291 -5.8862 -2.44551 0
M  V30 4627 C 443.978 -5.37526 -2.90704 0
M  V30 4628 C 444.976 -6.30468 -2.62677 0
M  V30 4629 O 444.664 -7.63149 -2.52702 0
M  V30 4630 H 444.396 -0.461791 -0.493685 0
M  V30 4631 H 446.95 -1.80475 -0.980712 0
M  V30 4632 H 445.18 -1.5875 -3.52612 0
M  V30 4633 H 446.869 -2.00636 -3.52845 0
M  V30 4634 H 447.635 -4.21669 -2.39625 0
M  V30 4635 H 443.514 -3.30389 -3.21503 0
M  V30 4636 H 447.058 -6.61133 -2.22596 0
M  V30 4637 H 442.955 -5.69008 -3.04795 0
M  V30 4638 H 443.723 -7.73331 -2.68144 0
M  V30 4639 N 446.386 1.0089 -1.21074 0
M  V30 4640 C 447.316 2.1145 -0.990523 0
M  V30 4641 C 448.297 1.69897 0.0831699 0
M  V30 4642 O 449.482 1.94052 -0.0758853 0
M  V30 4643 C 446.612 3.42914 -0.550177 0
M  V30 4644 C 445.566 3.98244 -1.56799 0
M  V30 4645 C 444.892 5.25568 -0.984013 0
M  V30 4646 C 446.192 4.30752 -2.95381 0
M  V30 4647 H 447.886 2.3013 -1.91521 0
M  V30 4648 H 445.432 1.10592 -0.92225 0
M  V30 4649 H 447.385 4.19653 -0.383305 0
M  V30 4650 H 446.109 3.24014 0.41015 0
M  V30 4651 H 444.768 3.23621 -1.72236 0
M  V30 4652 H 444.416 5.02998 -0.0155216 0
M  V30 4653 H 444.116 5.63551 -1.66384 0
M  V30 4654 H 445.64 6.04955 -0.828378 0
M  V30 4655 H 447.054 4.98349 -2.8341 0
M  V30 4656 H 445.451 4.79869 -3.60341 0
M  V30 4657 H 446.521 3.39192 -3.46521 0
M  V30 4658 N 447.864 1.01787 1.20321 0
M  V30 4659 C 449.11 0.708985 1.90003 0
M  V30 4660 C 449.443 -0.759572 1.78729 0
M  V30 4661 O 448.718 -1.55198 1.17234 0
M  V30 4662 C 449.001 1.1469 3.41348 0
M  V30 4663 C 448.854 2.67586 3.61549 0
M  V30 4664 C 450.173 0.71915 4.34185 0
M  V30 4665 H 447.292 0.259034 0.689978 0
M  V30 4666 H 449.934 1.26584 1.41692 0
M  V30 4667 H 448.084 0.673128 3.82624 0
M  V30 4668 H 449.756 3.22826 3.29517 0
M  V30 4669 H 447.999 3.085 3.04976 0
M  V30 4670 H 448.67 2.93281 4.67643 0
M  V30 4671 H 451.146 1.12647 4.00562 0
M  V30 4672 H 450.022 1.05358 5.38694 0
M  V30 4673 H 450.283 -0.379111 4.40472 0
M  V30 4674 N 449.342 -1.36122 0.79427 0
M  V30 4675 C 450.59 -1.98718 0.368177 0
M  V30 4676 C 450.911 -1.63345 -1.06506 0
M  V30 4677 O 450.181 -0.909825 -1.73491 0
M  V30 4678 H 448.761 -0.735038 0.133146 0
M  V30 4679 H 451.423 -1.66239 1.01739 0
M  V30 4680 H 450.519 -3.08633 0.463923 0
M  V30 4681 N 450.82 -0.546701 -1.47814 0
M  V30 4682 C 451.752 0.244196 -2.27895 0
M  V30 4683 C 452.765 0.88911 -1.36377 0
M  V30 4684 O 453.954 0.764733 -1.61289 0
M  V30 4685 C 451.054 1.36252 -3.10304 0
M  V30 4686 C 450.227 0.816382 -4.29714 0
M  V30 4687 C 449.286 1.81789 -4.93801 0
M  V30 4688 O 448.312 1.36818 -5.52512 0
M  V30 4689 N 449.514 3.15085 -4.87547 0
M  V30 4690 H 452.279 -0.442694 -2.96412 0
M  V30 4691 H 449.84 -0.382095 -1.57327 0
M  V30 4692 H 451.832 2.03102 -3.50045 0
M  V30 4693 H 450.402 1.95281 -2.44099 0
M  V30 4694 H 449.622 -0.0285981 -3.9419 0
M  V30 4695 H 450.91 0.430668 -5.06974 0
M  V30 4696 H 450.308 3.54275 -4.41028 0
M  V30 4697 H 448.865 3.77522 -5.31339 0
M  V30 4698 N 452.299 1.55045 -0.282633 0
M  V30 4699 C 453.529 2.03872 0.334635 0
M  V30 4700 C 453.937 1.16018 1.49454 0
M  V30 4701 O 453.28 0.174449 1.8287 0
M  V30 4702 C 453.342 3.48791 0.870905 0
M  V30 4703 C 453.006 4.56715 -0.161338 0
M  V30 4704 C 454.003 5.10513 -0.983466 0
M  V30 4705 C 451.688 5.01417 -0.297745 0
M  V30 4706 C 453.682 6.07538 -1.92811 0
M  V30 4707 C 451.369 5.98265 -1.24586 0
M  V30 4708 C 452.367 6.51208 -2.05954 0
M  V30 4709 O 452.055 7.46162 -2.99162 0
M  V30 4710 H 451.787 0.671324 0.0793742 0
M  V30 4711 H 454.341 2.01169 -0.41473 0
M  V30 4712 H 452.571 3.48758 1.67047 0
M  V30 4713 H 454.26 3.80916 1.40207 0
M  V30 4714 H 455.026 4.76785 -0.888856 0
M  V30 4715 H 450.905 4.59849 0.325604 0
M  V30 4716 H 454.449 6.48787 -2.56363 0
M  V30 4717 H 450.346 6.31412 -1.34126 0
M  V30 4718 H 451.114 7.63903 -2.93929 0
M  V30 4719 N 453.777 0.010035 1.57597 0
M  V30 4720 C 454.74 -0.963029 2.07986 0
M  V30 4721 C 455.74 -1.26619 0.991173 0
M  V30 4722 O 456.93 -1.2097 1.25347 0
M  V30 4723 C 454.062 -2.2851 2.52974 0
M  V30 4724 H 455.255 -0.526971 2.95234 0
M  V30 4725 H 452.808 -0.237639 1.54483 0
M  V30 4726 H 453.543 -2.76784 1.69 0
M  V30 4727 H 453.328 -2.07824 3.32493 0
M  V30 4728 H 454.818 -2.98294 2.9225 0
M  V30 4729 N 455.255 -1.55392 -0.262866 0
M  V30 4730 C 456.203 -1.8977 -1.345 0
M  V30 4731 C 457.197 -0.775063 -1.50629 0
M  V30 4732 O 458.403 -0.959519 -1.52293 0
M  V30 4733 H 454.778 -0.602467 -0.450041 0
M  V30 4734 H 456.749 -2.80147 -1.02762 0
M  V30 4735 C 455.498 -2.19501 -2.69657 0
M  V30 4736 H 454.821 -3.05378 -2.5804 0
M  V30 4737 H 456.261 -2.47469 -3.44289 0
M  V30 4738 C 454.72 -1.00597 -3.21531 0
M  V30 4739 O 455.25 -0.245768 -4.00947 0
M  V30 4740 N 453.456 -0.800911 -2.79345 0
M  V30 4741 H 453.003 -1.42079 -2.14875 0
M  V30 4742 H 452.961 -0.00697996 -3.14399 0
M  V30 4743 N 456.733 0.527833 -1.48498 0
M  V30 4744 C 457.958 1.313 -1.60546 0
M  V30 4745 C 458.383 1.86199 -0.26672 0
M  V30 4746 O 457.741 1.64513 0.761918 0
M  V30 4747 C 457.789 2.43818 -2.65678 0
M  V30 4748 O 456.893 3.46916 -2.22987 0
M  V30 4749 H 456.234 0.388784 -0.538277 0
M  V30 4750 H 458.764 0.634896 -1.945 0
M  V30 4751 H 458.774 2.89973 -2.87018 0
M  V30 4752 H 457.449 2.03222 -3.62869 0
M  V30 4753 H 456.026 3.06864 -2.11869 0
M  V30 4754 N 458.211 1.37122 0.776871 0
M  V30 4755 C 459.141 1.35164 1.90402 0
M  V30 4756 C 460.122 0.221069 1.68657 0
M  V30 4757 O 461.307 0.420642 1.8959 0
M  V30 4758 C 458.437 1.15274 3.27611 0
M  V30 4759 C 457.391 2.25289 3.63908 0
M  V30 4760 C 456.717 1.90527 4.99603 0
M  V30 4761 C 458.017 3.67446 3.71188 0
M  V30 4762 H 459.711 2.29482 1.92297 0
M  V30 4763 H 457.257 1.10465 0.923773 0
M  V30 4764 H 459.21 1.12536 4.06096 0
M  V30 4765 H 457.934 0.174102 3.26136 0
M  V30 4766 H 456.593 2.27174 2.87728 0
M  V30 4767 H 456.241 0.91206 4.94662 0
M  V30 4768 H 455.941 2.64193 5.24858 0
M  V30 4769 H 457.465 1.89367 5.80493 0
M  V30 4770 H 458.879 3.67719 4.39836 0
M  V30 4771 H 457.276 4.40123 4.07936 0
M  V30 4772 H 458.346 4.01443 2.71977 0
M  V30 4773 N 459.689 -1.00246 1.21608 0
M  V30 4774 C 460.599 -2.12515 0.993709 0
M  V30 4775 C 461.615 -1.73913 -0.0549939 0
M  V30 4776 O 462.791 -2.00943 0.135619 0
M  V30 4777 C 459.856 -3.42083 0.563953 0
M  V30 4778 C 458.917 -3.94843 1.68516 0
M  V30 4779 C 458.15 -5.18226 1.27582 0
M  V30 4780 O 458.373 -5.70201 0.150506 0
M  V30 4781 O 457.307 -5.64497 2.0887 0
M  V30 4782 H 461.133 -2.34152 1.93407 0
M  V30 4783 H 458.718 -1.10891 1.00118 0
M  V30 4784 H 460.6 -4.20073 0.334194 0
M  V30 4785 H 459.275 -3.21828 -0.347665 0
M  V30 4786 H 458.182 -3.18068 1.96935 0
M  V30 4787 H 459.515 -4.19512 2.5743 0
M  V30 4788 N 461.167 -1.02423 -1.1978 0
M  V30 4789 C 462.097 -0.62157 -2.25075 0
M  V30 4790 C 463.078 0.367148 -1.6609 0
M  V30 4791 O 464.263 0.250892 -1.92573 0
M  V30 4792 C 461.393 0.0331826 -3.47284 0
M  V30 4793 C 460.347 -0.877323 -4.18912 0
M  V30 4794 C 459.673 -0.0879296 -5.34628 0
M  V30 4795 C 460.973 -2.18892 -4.74219 0
M  V30 4796 H 462.667 -1.50179 -2.59011 0
M  V30 4797 H 460.213 -0.723547 -1.24502 0
M  V30 4798 H 462.166 0.326488 -4.20133 0
M  V30 4799 H 460.89 0.948164 -3.12534 0
M  V30 4800 H 459.549 -1.15475 -3.47938 0
M  V30 4801 H 459.197 0.828941 -4.96123 0
M  V30 4802 H 458.897 -0.694359 -5.83483 0
M  V30 4803 H 460.421 0.198743 -6.10276 0
M  V30 4804 H 461.835 -1.95746 -5.38847 0
M  V30 4805 H 460.232 -2.74686 -5.33542 0
M  V30 4806 H 461.302 -2.84674 -3.92541 0
M  V30 4807 N 462.645 1.35699 -0.801477 0
M  V30 4808 C 463.893 1.9852 -0.37871 0
M  V30 4809 C 464.214 1.63907 1.05638 0
M  V30 4810 O 463.484 0.919013 1.73006 0
M  V30 4811 H 462.064 0.734322 -0.137042 0
M  V30 4812 H 464.726 1.65697 -1.02619 0
M  V30 4813 H 463.822 3.08382 -0.480284 0
M  V30 4814 N 464.123 0.554532 1.47522 0
M  V30 4815 C 465.363 0.0317994 2.04375 0
M  V30 4816 C 465.727 -1.29242 1.41988 0
M  V30 4817 O 466.928 -1.90269 1.89872 0
M  V30 4818 C 465.199 -0.0623344 3.57346 0
M  V30 4819 S 466.758 -0.531578 4.35568 0
M  V30 4820 H 463.576 0.0238553 0.7106 0
M  V30 4821 H 466.178 0.74066 1.80927 0
M  V30 4822 H 464.882 0.905857 4.00278 0
M  V30 4823 H 464.413 -0.794831 3.85287 0
M  V30 4824 H 466.428 -1.79175 4.62721 0
M  V30 4825 N 465.601 -1.54893 0.290851 0
M  V30 4826 C 466.878 -1.91991 -0.373989 0
M  V30 4827 C 467.258 -1.21694 -1.72493 0
M  V30 4828 O 466.606 -0.34917 -2.25816 0
M  V30 4829 C 466.816 -3.45419 -0.498703 0
M  V30 4830 C 468.164 -4.1748 -0.774298 0
M  V30 4831 O 469.188 -3.51398 -0.582908 0
M  V30 4832 O 468.047 -5.3445 -1.14129 0
M  V30 4833 H 465.141 -0.800593 -0.207315 0
M  V30 4834 H 467.687 -1.66297 0.338164 0
M  V30 4835 H 466.459 -3.88688 0.451392 0
M  V30 4836 H 466.082 -3.77117 -1.25972 0
M  V30 4837 N 467.08 -0.0183926 -1.57589 0
M  V30 4838 C 468.32 0.666846 -1.93216 0
M  V30 4839 C 468.684 1.69905 -0.894215 0
M  V30 4840 O 469.885 2.436 -1.13633 0
M  V30 4841 C 468.156 1.27684 -3.33814 0
M  V30 4842 S 469.715 1.98464 -3.91353 0
M  V30 4843 H 466.533 0.219826 -0.676164 0
M  V30 4844 H 469.135 -0.0794893 -1.95338 0
M  V30 4845 H 467.839 0.513006 -4.07181 0
M  V30 4846 H 467.37 2.06071 -3.3511 0
M  V30 4847 H 469.385 3.26189 -3.73918 0
M  V30 4848 N 468.558 1.5553 0.254621 0
M  V30 4849 C 469.488 1.9268 1.31897 0
M  V30 4850 C 470.469 0.790797 1.506 0
M  V30 4851 O 471.654 1.05045 1.63337 0
M  V30 4852 C 468.784 2.21477 2.67517 0
M  V30 4853 C 467.738 3.37256 2.63519 0
M  V30 4854 C 467.064 3.51576 4.02862 0
M  V30 4855 C 468.364 4.73157 2.21179 0
M  V30 4856 H 470.058 2.81832 1.01051 0
M  V30 4857 H 467.604 1.35599 0.484662 0
M  V30 4858 H 469.557 2.46055 3.42104 0
M  V30 4859 H 468.281 1.29144 2.99982 0
M  V30 4860 H 466.94 3.12675 1.9139 0
M  V30 4861 H 466.588 2.56676 4.32581 0
M  V30 4862 H 466.288 4.2943 4.01078 0
M  V30 4863 H 467.812 3.78467 4.79161 0
M  V30 4864 H 469.226 4.97158 2.85494 0
M  V30 4865 H 467.623 5.54058 2.30521 0
M  V30 4866 H 468.693 4.70739 1.16332 0
M  V30 4867 N 470.036 -0.519951 1.48776 0
M  V30 4868 C 471.284 -1.2727 1.56993 0
M  V30 4869 C 471.605 -1.9339 0.25004 0
M  V30 4870 O 470.875 -1.81822 -0.729216 0
M  V30 4871 H 469.455 -0.472732 0.578389 0
M  V30 4872 H 472.117 -0.604234 1.85297 0
M  V30 4873 H 471.213 -2.04669 2.3562 0
M  V30 4874 N 471.514 -1.37532 -0.769588 0
M  V30 4875 C 472.791 -1.23392 -1.51768 0
M  V30 4876 C 473.171 0.17157 -2.10402 0
M  V30 4877 O 472.519 1.17943 -1.95708 0
M  V30 4878 C 472.729 -2.33163 -2.59685 0
M  V30 4879 C 474.077 -2.70809 -3.27028 0
M  V30 4880 O 475.101 -2.32355 -2.69981 0
M  V30 4881 O 473.96 -3.37066 -4.30173 0
M  V30 4882 H 471.054 -0.481617 -0.67229 0
M  V30 4883 H 473.6 -1.49318 -0.806368 0
M  V30 4884 H 472.372 -3.27273 -2.14494 0
M  V30 4885 H 471.995 -2.08713 -3.38415 0
M  V30 4886 N 472.992 0.995999 -1.22138 0
M  V30 4887 C 474.241 1.72928 -1.03821 0
M  V30 4888 C 474.554 1.90872 0.427444 0
M  V30 4889 O 475.76 2.61496 0.730212 0
M  V30 4890 C 474.216 3.11124 -1.80913 0
M  V30 4891 C 473.824 3.01122 -3.31707 0
M  V30 4892 C 475.568 3.8852 -1.71035 0
M  V30 4893 C 473.475 4.34453 -4.01253 0
M  V30 4894 H 472.405 0.648376 -0.384869 0
M  V30 4895 H 475.056 1.11213 -1.45959 0
M  V30 4896 H 473.438 3.73503 -1.31573 0
M  V30 4897 H 474.612 2.47926 -3.88419 0
M  V30 4898 H 472.927 2.3721 -3.42228 0
M  V30 4899 H 475.524 4.872 -2.20318 0
M  V30 4900 H 475.867 4.1087 -0.670196 0
M  V30 4901 H 476.4 3.32812 -2.17902 0
M  V30 4902 H 473.139 4.17303 -5.05508 0
M  V30 4903 H 472.659 4.87574 -3.49331 0
M  V30 4904 H 474.338 5.03215 -4.06674 0
M  V30 4905 N 474.47 1.03057 1.19235 0
M  V30 4906 C 475.698 0.747697 1.92917 0
M  V30 4907 C 476.113 -0.69372 1.75593 0
M  V30 4908 O 475.47 -1.47191 1.07894 0
M  V30 4909 C 475.521 1.09159 3.44625 0
M  V30 4910 O 475.242 2.47641 3.61394 0
M  V30 4911 C 476.743 0.831763 4.35427 0
M  V30 4912 H 473.963 0.273453 0.612751 0
M  V30 4913 H 476.507 1.37552 1.51327 0
M  V30 4914 H 474.662 0.508919 3.84043 0
M  V30 4915 H 475.076 2.60499 4.55237 0
M  V30 4916 H 476.55 1.12233 5.4047 0
M  V30 4917 H 477.027 -0.233769 4.38577 0
M  V30 4918 H 477.633 1.39725 4.01693 0
M  V30 4919 N 475.948 -1.35272 0.808662 0
M  V30 4920 C 477.178 -2.02652 0.401953 0
M  V30 4921 C 477.586 -1.6108 -0.992462 0
M  V30 4922 O 476.929 -0.804984 -1.65123 0
M  V30 4923 C 476.991 -3.57174 0.408246 0
M  V30 4924 C 476.655 -4.22019 1.75353 0
M  V30 4925 C 477.652 -4.43552 2.71215 0
M  V30 4926 C 475.337 -4.59093 2.03811 0
M  V30 4927 C 477.331 -5.01264 3.93717 0
M  V30 4928 C 475.018 -5.16519 3.26576 0
M  V30 4929 C 476.016 -5.37546 4.21347 0
M  V30 4930 O 475.704 -5.93761 5.41944 0
M  V30 4931 H 475.436 -0.656495 0.161216 0
M  V30 4932 H 477.99 -1.73829 1.0942 0
M  V30 4933 H 476.22 -3.85197 -0.340608 0
M  V30 4934 H 477.909 -4.05893 0.0235623 0
M  V30 4935 H 478.675 -4.15288 2.50522 0
M  V30 4936 H 474.554 -4.42039 1.30854 0
M  V30 4937 H 478.098 -5.17592 4.67701 0
M  V30 4938 H 473.995 -5.4421 3.47139 0
M  V30 4939 H 474.763 -6.1221 5.43269 0
M  V30 4940 N 477.426 -0.562348 -1.47226 0
M  V30 4941 C 478.356 0.170627 -2.32876 0
M  V30 4942 C 479.337 0.903748 -1.44106 0
M  V30 4943 O 480.522 0.883206 -1.72954 0
M  V30 4944 C 477.652 1.19786 -3.25989 0
M  V30 4945 C 476.606 0.580875 -4.2404 0
M  V30 4946 C 475.932 1.71311 -5.06514 0
M  V30 4947 C 477.232 -0.468714 -5.20193 0
M  V30 4948 H 478.926 -0.544441 -2.94408 0
M  V30 4949 H 476.472 -0.263271 -1.41573 0
M  V30 4950 H 478.425 1.71884 -3.84752 0
M  V30 4951 H 477.149 1.94294 -2.62521 0
M  V30 4952 H 475.808 0.0811538 -3.6651 0
M  V30 4953 H 475.456 2.44736 -4.39447 0
M  V30 4954 H 475.156 1.30604 -5.72902 0
M  V30 4955 H 476.68 2.23725 -5.68137 0
M  V30 4956 H 478.094 -0.0336028 -5.7329 0
M  V30 4957 H 476.491 -0.794957 -5.94811 0
M  V30 4958 H 477.561 -1.36269 -4.65359 0
M  V30 4959 N 478.904 1.54736 -0.299062 0
M  V30 4960 C 480.129 2.04975 0.316254 0
M  V30 4961 C 480.554 1.17501 1.46885 0
M  V30 4962 O 479.912 0.178678 1.80417 0
M  V30 4963 C 479.96 3.52672 0.751997 0
M  V30 4964 O 479.064 3.68226 1.85697 0
M  V30 4965 H 478.405 0.661126 0.0617175 0
M  V30 4966 H 480.935 1.99805 -0.440341 0
M  V30 4967 H 480.945 3.94488 1.04133 0
M  V30 4968 H 479.62 4.158 -0.0911482 0
M  V30 4969 H 478.197 3.38316 1.56834 0
M  V30 4970 N 480.382 0.0267497 1.57577 0
M  V30 4971 C 481.793 -0.512413 1.79531 0
M  V30 4972 C 482.144 -1.72391 0.936791 0
M  V30 4973 O 481.269 -2.15903 0.146543 0
M  V30 4974 C 481.864 -0.936378 3.25603 0
M  V30 4975 C 480.423 -1.42067 3.4856 0
M  V30 4976 C 479.57 -0.384278 2.74624 0
M  V30 4977 H 482.521 0.252797 1.56674 0
M  V30 4978 H 482.542 -1.80088 3.35184 0
M  V30 4979 H 482.054 -0.0544332 3.88062 0
M  V30 4980 H 480.155 -2.32262 2.9135 0
M  V30 4981 H 480.268 -1.42968 4.57271 0
M  V30 4982 H 478.632 -0.851855 2.40032 0
M  V30 4983 H 479.415 0.489159 3.39797 0
M  V30 4984 N 481.861 -1.55662 -0.24637 0
M  V30 4985 C 483.107 -1.77782 -0.975779 0
M  V30 4986 C 483.44 -0.592103 -1.84953 0
M  V30 4987 O 482.715 0.409588 -1.90138 0
M  V30 4988 C 482.998 -3.09788 -1.83584 0
M  V30 4989 C 482.851 -4.38764 -0.990241 0
M  V30 4990 C 484.17 -3.38029 -2.81823 0
M  V30 4991 H 481.289 -0.646789 -0.353317 0
M  V30 4992 H 483.931 -1.88398 -0.246248 0
M  V30 4993 H 482.081 -3.00869 -2.45784 0
M  V30 4994 H 483.753 -4.59675 -0.386897 0
M  V30 4995 H 481.996 -4.32798 -0.294626 0
M  V30 4996 H 482.667 -5.27514 -1.62584 0
M  V30 4997 H 485.143 -3.46915 -2.2976 0
M  V30 4998 H 484.019 -4.3161 -3.39122 0
M  V30 4999 H 484.28 -2.58968 -3.58313 0
M  V30 5000 N 483.339 0.512053 -1.4905 0
M  V30 5001 C 484.588 1.26343 -1.57227 0
M  V30 5002 C 484.901 1.93876 -0.259155 0
M  V30 5003 O 486.107 2.70612 -0.219358 0
M  V30 5004 C 484.563 2.29343 -2.77362 0
M  V30 5005 C 484.171 1.67799 -4.15388 0
M  V30 5006 C 485.915 3.05378 -2.94864 0
M  V30 5007 C 483.822 2.68845 -5.2676 0
M  V30 5008 H 482.752 0.475231 -0.585382 0
M  V30 5009 H 485.403 0.53862 -1.75417 0
M  V30 5010 H 483.785 3.04938 -2.52643 0
M  V30 5011 H 484.959 0.982715 -4.50199 0
M  V30 5012 H 483.274 1.04194 -4.03153 0
M  V30 5013 H 485.871 3.80921 -3.75238 0
M  V30 5014 H 486.214 3.62327 -2.05 0
M  V30 5015 H 486.747 2.36898 -3.19569 0
M  V30 5016 H 483.486 2.16692 -6.18647 0
M  V30 5017 H 483.006 3.36647 -4.96416 0
M  V30 5018 H 484.685 3.31487 -5.5563 0
M  V30 5019 N 484.817 1.37938 0.762283 0
M  V30 5020 C 486.042 1.37059 1.55659 0
M  V30 5021 C 486.467 -0.0396123 1.88058 0
M  V30 5022 O 485.825 -1.01929 1.49934 0
M  V30 5023 C 485.873 2.22494 2.83776 0
M  V30 5024 O 484.977 1.63607 3.78559 0
M  V30 5025 H 484.318 0.467892 0.47114 0
M  V30 5026 H 486.848 1.81587 0.942725 0
M  V30 5027 H 486.858 2.36045 3.32786 0
M  V30 5028 H 485.533 3.24993 2.59524 0
M  V30 5029 H 484.11 1.5915 3.37233 0
M  V30 5030 N 486.295 -0.989507 1.22664 0
M  V30 5031 C 487.572 -1.70326 0.961688 0
M  V30 5032 C 487.952 -2.04537 -0.522279 0
M  V30 5033 O 487.3 -1.73136 -1.49118 0
M  V30 5034 C 487.51 -2.95135 1.86269 0
M  V30 5035 C 488.858 -3.67842 2.12078 0
M  V30 5036 O 489.882 -3.0515 1.83745 0
M  V30 5037 O 488.741 -4.80644 2.60083 0
M  V30 5038 H 485.835 -0.743589 0.361946 0
M  V30 5039 H 488.381 -1.04555 1.33665 0
M  V30 5040 H 487.153 -2.66382 2.8663 0
M  V30 5041 H 486.776 -3.68645 1.48952 0
M  V30 5042 N 487.773 -1.03688 -1.18687 0
M  V30 5043 C 488.736 -0.629115 -2.20397 0
M  V30 5044 C 489.736 0.311495 -1.57754 0
M  V30 5045 O 490.926 0.0974107 -1.73927 0
M  V30 5046 C 488.058 0.0782231 -3.4081 0
M  V30 5047 H 489.251 -1.52915 -2.57987 0
M  V30 5048 H 486.804 -0.828988 -1.32505 0
M  V30 5049 H 487.539 0.992233 -3.08748 0
M  V30 5050 H 487.324 -0.597776 -3.87517 0
M  V30 5051 H 488.814 0.350156 -4.16129 0
M  V30 5052 N 489.251 1.34841 -0.815825 0
M  V30 5053 C 490.498 1.98499 -0.400535 0
M  V30 5054 C 490.826 1.64699 1.03463 0
M  V30 5055 O 490.081 0.907006 1.73412 0
M  V30 5056 C 490.38 3.53273 -0.541541 0
M  V30 5057 C 490.046 4.06966 -1.94138 0
M  V30 5058 C 488.708 4.21341 -2.32433 0
M  V30 5059 C 491.06 4.35933 -2.85677 0
M  V30 5060 C 488.388 4.62007 -3.61617 0
M  V30 5061 C 490.74 4.78042 -4.14317 0
M  V30 5062 C 489.404 4.90622 -4.52599 0
M  V30 5063 H 488.674 0.72636 -0.146566 0
M  V30 5064 H 491.321 1.60902 -1.0384 0
M  V30 5065 H 489.626 3.91387 0.179741 0
M  V30 5066 H 491.323 4.00497 -0.20085 0
M  V30 5067 H 487.913 3.96235 -1.63388 0
M  V30 5068 H 492.097 4.24372 -2.57337 0
M  V30 5069 H 487.353 4.69937 -3.91113 0
M  V30 5070 H 491.527 4.99415 -4.85342 0
M  V30 5071 H 489.154 5.2189 -5.52752 0
M  V30 5072 N 490.729 0.570148 1.46925 0
M  V30 5073 C 491.977 0.0508523 2.02036 0
M  V30 5074 C 492.298 -1.30885 1.44548 0
M  V30 5075 O 491.568 -1.85647 0.625453 0
M  V30 5076 H 490.148 0.0158088 0.746833 0
M  V30 5077 H 492.81 0.743086 1.80178 0
M  V30 5078 H 491.906 -0.027575 3.12088 0
M  V30 5079 N 492.207 -1.54576 0.307264 0
M  V30 5080 C 493.155 -2.25208 -0.581723 0
M  V30 5081 C 494.149 -1.26031 -1.13192 0
M  V30 5082 O 495.355 -1.43862 -1.08184 0
M  V30 5083 H 491.73 -0.723173 -0.206214 0
M  V30 5084 H 493.701 -2.98378 0.0364663 0
M  V30 5085 C 492.45 -3.01086 -1.73904 0
M  V30 5086 H 491.773 -3.77208 -1.32491 0
M  V30 5087 H 493.213 -3.5378 -2.33701 0
M  V30 5088 C 491.672 -2.08422 -2.64692 0
M  V30 5089 O 492.202 -1.65636 -3.65961 0
M  V30 5090 N 490.408 -1.74247 -2.32564 0
M  V30 5091 H 489.955 -2.09238 -1.50257 0
M  V30 5092 H 489.913 -1.12524 -2.93574 0
M  V30 5093 N 493.685 -0.035106 -1.57561 0
M  V30 5094 C 495.096 0.502885 -1.798 0
M  V30 5095 C 495.447 1.71892 -0.945921 0
M  V30 5096 O 494.572 2.15822 -0.157991 0
M  V30 5097 C 495.167 0.919097 -3.26095 0
M  V30 5098 C 493.726 1.40216 -3.49308 0
M  V30 5099 C 492.873 0.369709 -2.74824 0
M  V30 5100 H 495.824 -0.261102 -1.56537 0
M  V30 5101 H 495.845 1.78308 -3.36135 0
M  V30 5102 H 495.357 0.0338526 -3.88085 0
M  V30 5103 H 493.458 2.30714 -2.92578 0
M  V30 5104 H 493.571 1.40541 -4.58023 0
M  V30 5105 H 491.935 0.839113 -2.40481 0
M  V30 5106 H 492.718 -0.507173 -3.39533 0
M  V30 5107 N 495.163 1.55791 0.238111 0
M  V30 5108 C 496.579 1.48411 0.587045 0
M  V30 5109 C 496.779 0.72702 1.87927 0
M  V30 5110 O 495.835 0.259942 2.51158 0
M  V30 5111 C 497.148 2.92873 0.681623 0
M  V30 5112 C 498.696 3.03295 0.773363 0
M  V30 5113 C 499.171 4.49082 0.899428 0
M  V30 5114 N 500.662 4.53056 0.964075 0
M  V30 5115 C 501.397 5.63117 1.08104 0
M  V30 5116 N 500.893 6.82969 1.16299 0
M  V30 5117 N 502.686 5.50933 1.11488 0
M  V30 5118 H 494.837 2.0345 -0.610076 0
M  V30 5119 H 497.1 0.924034 -0.211813 0
M  V30 5120 H 496.806 3.51142 -0.19802 0
M  V30 5121 H 496.68 3.43851 1.55069 0
M  V30 5122 H 499.067 2.45101 1.64346 0
M  V30 5123 H 499.148 2.55513 -0.121034 0
M  V30 5124 H 498.792 5.07889 0.0338586 0
M  V30 5125 H 498.722 4.94553 1.809 0
M  V30 5126 H 501.213 3.66737 0.91173 0
M  V30 5127 H 501.526 7.62598 1.25155 0
M  V30 5128 H 499.871 6.85712 1.13241 0
M  V30 5129 H 503.062 4.56231 1.0474 0
M  V30 5130 H 503.235 6.36743 1.20259 0
M  V30 5131 N 496.642 -0.504142 1.49319 0
M  V30 5132 C 497.552 -1.63248 1.68486 0
M  V30 5133 C 498.568 -1.64488 0.567432 0
M  V30 5134 O 499.744 -1.82966 0.841749 0
M  V30 5135 C 496.809 -2.99627 1.74426 0
M  V30 5136 C 495.87 -3.09039 2.97982 0
M  V30 5137 C 495.103 -4.38913 3.0363 0
M  V30 5138 O 495.326 -5.27528 2.16958 0
M  V30 5139 O 494.26 -4.53231 3.96062 0
M  V30 5140 H 498.086 -1.50008 2.64067 0
M  V30 5141 H 495.671 -0.680086 1.33023 0
M  V30 5142 H 497.553 -3.80689 1.80705 0
M  V30 5143 H 496.228 -3.13136 0.820233 0
M  V30 5144 H 495.135 -2.27177 2.97223 0
M  V30 5145 H 496.468 -3.00456 3.89855 0
M  V30 5146 N 498.12 -1.38341 -0.754957 0
M  V30 5147 C 499.369 -1.33791 -1.5094 0
M  V30 5148 C 499.682 0.0699267 -1.95475 0
M  V30 5149 O 500.888 0.237956 -2.70455 0
M  V30 5150 C 499.344 -2.34934 -2.72643 0
M  V30 5151 C 498.952 -3.81332 -2.35138 0
M  V30 5152 C 500.696 -2.39425 -3.50536 0
M  V30 5153 C 498.603 -4.74164 -3.53444 0
M  V30 5154 H 497.533 -0.497314 -0.566741 0
M  V30 5155 H 500.184 -1.63888 -0.825403 0
M  V30 5156 H 498.566 -1.97878 -3.43017 0
M  V30 5157 H 499.74 -4.27319 -1.7244 0
M  V30 5158 H 498.055 -3.79946 -1.70382 0
M  V30 5159 H 500.652 -3.0598 -4.38498 0
M  V30 5160 H 500.995 -1.41278 -3.91594 0
M  V30 5161 H 501.528 -2.75274 -2.87174 0
M  V30 5162 H 498.267 -5.73501 -3.17453 0
M  V30 5163 H 497.787 -4.3287 -4.15191 0
M  V30 5164 H 499.466 -4.92111 -4.20043 0
M  V30 5165 N 499.598 0.982988 -1.23187 0
M  V30 5166 C 501.014 1.2487 -0.993967 0
M  V30 5167 C 501.214 1.99155 0.306498 0
M  V30 5168 O 500.27 2.30688 1.0266 0
M  V30 5169 C 501.583 2.05078 -2.19917 0
M  V30 5170 C 503.131 2.18227 -2.2438 0
M  V30 5171 C 503.606 3.01825 -3.44479 0
M  V30 5172 N 505.097 3.09411 -3.44702 0
M  V30 5173 C 505.832 3.74412 -4.34285 0
M  V30 5174 N 505.328 4.41259 -5.341 0
M  V30 5175 N 507.121 3.71273 -4.22035 0
M  V30 5176 H 499.272 0.485253 -2.06783 0
M  V30 5177 H 501.535 0.276979 -0.906635 0
M  V30 5178 H 501.241 1.57867 -3.14279 0
M  V30 5179 H 501.115 3.05829 -2.2079 0
M  V30 5180 H 503.502 2.64648 -1.30559 0
M  V30 5181 H 503.583 1.16873 -2.2754 0
M  V30 5182 H 503.227 2.56102 -4.38605 0
M  V30 5183 H 503.157 4.03342 -3.38559 0
M  V30 5184 H 505.648 2.61845 -2.7248 0
M  V30 5185 H 505.961 4.88629 -5.98717 0
M  V30 5186 H 504.306 4.39975 -5.38002 0
M  V30 5187 H 507.497 3.18217 -3.43301 0
M  V30 5188 H 507.67 4.21649 -4.92053 0
M  V30 5189 N 501.076 1.04316 1.18135 0
M  V30 5190 C 502.024 0.630175 2.23901 0
M  V30 5191 C 503.018 -0.344254 1.65865 0
M  V30 5192 O 504.224 -0.211273 1.78756 0
M  V30 5193 H 500.599 0.185578 0.728742 0
M  V30 5194 H 502.57 1.53253 2.56039 0
M  V30 5195 C 501.319 0.011666 3.47698 0
M  V30 5196 H 500.642 0.752526 3.92654 0
M  V30 5197 H 502.082 -0.240046 4.2332 0
M  V30 5198 C 500.541 -1.23913 3.13285 0
M  V30 5199 O 501.071 -2.32959 3.27251 0
M  V30 5200 N 499.277 -1.13338 2.67587 0
M  V30 5201 H 498.824 -0.246006 2.56423 0
M  V30 5202 H 498.782 -1.97116 2.44934 0
M  V30 5203 N 502.554 -1.34406 0.822964 0
M  V30 5204 C 503.802 -1.97892 0.410245 0
M  V30 5205 C 504.123 -1.65567 -1.03017 0
M  V30 5206 O 503.393 -0.94642 -1.71522 0
M  V30 5207 H 501.973 -0.732049 0.148707 0
M  V30 5208 H 504.635 -1.64043 1.05242 0
M  V30 5209 H 503.731 -3.07579 0.529284 0
M  V30 5210 N 504.032 -0.577932 -1.46621 0
M  V30 5211 C 505.281 -0.0594281 -2.01612 0
M  V30 5212 C 505.594 1.30663 -1.45556 0
M  V30 5213 O 506.8 1.91621 -1.92337 0
M  V30 5214 C 505.256 -0.0556666 -3.59857 0
M  V30 5215 C 504.864 -1.41975 -4.24908 0
M  V30 5216 C 506.608 0.409143 -4.22524 0
M  V30 5217 C 504.515 -1.37397 -5.75218 0
M  V30 5218 H 503.445 -0.0184469 -0.753774 0
M  V30 5219 H 506.096 -0.728869 -1.68404 0
M  V30 5220 H 504.478 0.679843 -3.90121 0
M  V30 5221 H 505.652 -2.17461 -4.0626 0
M  V30 5222 H 503.967 -1.82419 -3.74316 0
M  V30 5223 H 506.564 0.46211 -5.32699 0
M  V30 5224 H 506.907 1.42565 -3.91128 0
M  V30 5225 H 507.44 -0.272152 -3.96868 0
M  V30 5226 H 504.179 -2.36714 -6.11267 0
M  V30 5227 H 503.699 -0.661239 -5.96144 0
M  V30 5228 H 505.378 -1.08484 -6.3784 0
M  V30 5229 N 505.51 1.54411 -0.315457 0
M  V30 5230 C 506.75 2.02329 0.290236 0
M  V30 5231 C 507.114 1.19878 1.49977 0
M  V30 5232 O 508.315 1.57562 2.17779 0
M  V30 5233 C 506.586 3.51912 0.623937 0
M  V30 5234 S 508.145 4.21775 1.21044 0
M  V30 5235 H 504.963 0.705499 0.0882739 0
M  V30 5236 H 507.565 1.90328 -0.446694 0
M  V30 5237 H 506.269 4.09546 -0.264624 0
M  V30 5238 H 505.8 3.67977 1.39128 0
M  V30 5239 H 507.815 4.28757 2.49764 0
M  V30 5240 N 506.988 0.0434614 1.5754 0
M  V30 5241 C 507.921 -0.968729 2.06618 0
M  V30 5242 C 508.899 -1.30868 0.965 0
M  V30 5243 O 510.083 -1.42288 1.23638 0
M  V30 5244 C 507.21 -2.28486 2.50023 0
M  V30 5245 C 506.256 -2.09851 3.71302 0
M  V30 5246 S 507.089 -1.38401 5.17306 0
M  V30 5247 C 508.245 -2.71354 5.64019 0
M  V30 5248 H 508.478 -0.551021 2.92149 0
M  V30 5249 H 506.011 -0.168607 1.53477 0
M  V30 5250 H 507.969 -3.04142 2.75695 0
M  V30 5251 H 506.63 -2.67387 1.64812 0
M  V30 5252 H 505.823 -3.07184 3.99567 0
M  V30 5253 H 505.425 -1.42336 3.45856 0
M  V30 5254 H 507.717 -3.67549 5.69134 0
M  V30 5255 H 508.66 -2.47734 6.6335 0
M  V30 5256 H 509.068 -2.77259 4.91719 0
M  V30 5257 N 508.466 -1.55915 -0.229846 0
M  V30 5258 C 509.416 -1.8813 -1.28807 0
M  V30 5259 C 510.4 -0.743621 -1.42685 0
M  V30 5260 O 511.592 -1.00588 -1.4564 0
M  V30 5261 C 508.721 -2.19431 -2.64017 0
M  V30 5262 C 507.807 -3.39569 -2.54074 0
M  V30 5263 N 508.198 -4.58404 -2.13774 0
M  V30 5264 C 506.496 -3.43019 -2.85051 0
M  V30 5265 C 507.197 -5.40557 -2.1488 0
M  V30 5266 N 506.173 -4.80054 -2.55047 0
M  V30 5267 H 509.975 -2.77527 -0.967261 0
M  V30 5268 H 507.489 -1.5637 -0.438433 0
M  V30 5269 H 509.486 -2.40681 -3.40409 0
M  V30 5270 H 508.146 -1.31341 -2.9695 0
M  V30 5271 H 509.157 -4.83716 -1.8504 0
M  V30 5272 H 505.834 -2.65249 -3.22411 0
M  V30 5273 H 507.224 -6.45666 -1.85918 0
M  V30 5274 N 509.944 0.496216 -1.49584 0
M  V30 5275 C 510.854 1.62352 -1.69349 0
M  V30 5276 C 511.87 1.64184 -0.576147 0
M  V30 5277 O 513.046 1.82517 -0.85144 0
M  V30 5278 C 510.111 2.98698 -1.76013 0
M  V30 5279 C 509.172 3.07454 -2.99617 0
M  V30 5280 C 508.405 4.37296 -3.05953 0
M  V30 5281 O 508.628 5.2637 -2.19752 0
M  V30 5282 O 507.562 4.51124 -3.9846 0
M  V30 5283 H 511.388 1.48606 -2.64859 0
M  V30 5284 H 508.973 0.673022 -1.33382 0
M  V30 5285 H 510.855 3.79725 -1.82721 0
M  V30 5286 H 509.53 3.12696 -0.836828 0
M  V30 5287 H 508.437 2.25597 -2.98424 0
M  V30 5288 H 509.77 2.98385 -3.91443 0
M  V30 5289 N 511.423 1.38739 0.74761 0
M  V30 5290 C 512.333 1.38696 1.89211 0
M  V30 5291 C 513.349 0.283303 1.71678 0
M  V30 5292 O 514.525 0.522713 1.94498 0
M  V30 5293 C 511.59 1.21662 3.24653 0
M  V30 5294 C 510.651 2.41886 3.54669 0
M  V30 5295 C 509.884 2.25655 4.83648 0
M  V30 5296 O 510.107 1.25339 5.56459 0
M  V30 5297 O 509.041 3.14372 5.13277 0
M  V30 5298 H 512.867 2.35143 1.92202 0
M  V30 5299 H 510.452 1.19721 0.893708 0
M  V30 5300 H 512.334 1.14246 4.05618 0
M  V30 5301 H 511.009 0.283024 3.2246 0
M  V30 5302 H 509.916 2.54877 2.73841 0
M  V30 5303 H 511.249 3.33895 3.61628 0
M  V30 5304 N 512.901 -0.976442 1.23707 0
M  V30 5305 C 514.178 -1.69296 0.979699 0
M  V30 5306 C 514.558 -2.0508 -0.500555 0
M  V30 5307 O 513.906 -1.74708 -1.47273 0
M  V30 5308 C 514.116 -2.93143 1.89389 0
M  V30 5309 C 515.464 -3.65572 2.15968 0
M  V30 5310 O 516.488 -3.03184 1.86971 0
M  V30 5311 O 515.347 -4.77859 2.65167 0
M  V30 5312 H 512.441 -0.739708 0.369812 0
M  V30 5313 H 514.987 -1.03131 1.34767 0
M  V30 5314 H 513.759 -2.63327 2.89439 0
M  V30 5315 H 513.382 -3.67044 1.52854 0
M  V30 5316 N 514.379 -1.04941 -1.1758 0
M  V30 5317 C 515.625 -0.768896 -1.88307 0
M  V30 5318 C 515.98 0.696361 -1.79356 0
M  V30 5319 O 515.273 1.50245 -1.18899 0
M  V30 5320 C 515.467 -1.18062 -3.37337 0
M  V30 5321 C 515.296 -2.68436 -3.60794 0
M  V30 5322 C 514.066 -3.35709 -3.77661 0
M  V30 5323 C 516.264 -3.66657 -3.60649 0
M  V30 5324 N 514.246 -4.74974 -3.88939 0
M  V30 5325 C 515.617 -4.91638 -3.77747 0
M  V30 5326 C 517.672 -3.60162 -3.43785 0
M  V30 5327 C 516.375 -6.10902 -3.79726 0
M  V30 5328 C 518.401 -4.78863 -3.47051 0
M  V30 5329 C 517.763 -6.02666 -3.64654 0
M  V30 5330 H 513.862 -0.33355 -0.707296 0
M  V30 5331 H 516.446 -1.34085 -1.41171 0
M  V30 5332 H 514.617 -0.636648 -3.83147 0
M  V30 5333 H 516.349 -0.8502 -3.95669 0
M  V30 5334 H 513.104 -2.8611 -3.77409 0
M  V30 5335 H 513.528 -5.47378 -3.98379 0
M  V30 5336 H 518.17 -2.65412 -3.29114 0
M  V30 5337 H 515.888 -7.05998 -3.93182 0
M  V30 5338 H 519.474 -4.75488 -3.35265 0
M  V30 5339 H 518.354 -6.92979 -3.67083 0
M  V30 5340 N 515.857 1.33968 -0.830081 0
M  V30 5341 C 517.105 1.97672 -0.420734 0
M  V30 5342 C 517.426 1.66111 1.02138 0
M  V30 5343 O 516.696 0.955503 1.71017 0
M  V30 5344 H 515.276 0.73125 -0.152587 0
M  V30 5345 H 517.938 1.63483 -1.0611 0
M  V30 5346 H 517.034 3.07294 -0.545588 0
M  V30 5347 N 517.335 0.585699 1.46312 0
M  V30 5348 C 518.584 0.0701192 2.01578 0
M  V30 5349 C 518.897 -1.29889 1.46247 0
M  V30 5350 O 520.103 -1.90598 1.93351 0
M  V30 5351 C 518.559 0.0747499 3.59822 0
M  V30 5352 C 518.167 1.44226 4.24149 0
M  V30 5353 C 519.911 -0.38673 4.22735 0
M  V30 5354 C 517.818 1.40446 5.74481 0
M  V30 5355 H 516.748 0.0224441 0.753666 0
M  V30 5356 H 519.399 0.737789 1.68015 0
M  V30 5357 H 517.781 -0.659144 3.90476 0
M  V30 5358 H 518.955 2.19612 4.05101 0
M  V30 5359 H 517.27 1.84401 3.73343 0
M  V30 5360 H 519.867 -0.433853 5.32937 0
M  V30 5361 H 520.21 -1.40489 3.91878 0
M  V30 5362 H 520.743 0.293195 3.96718 0
M  V30 5363 H 517.482 2.39952 6.10003 0
M  V30 5364 H 517.002 0.692845 5.95785 0
M  V30 5365 H 518.681 1.11865 6.37256 0
M  V30 5366 N 518.813 -1.54241 0.323641 0
M  V30 5367 C 519.743 -2.27289 -0.534993 0
M  V30 5368 C 520.724 -1.28087 -1.11927 0
M  V30 5369 O 521.909 -1.56899 -1.14439 0
M  V30 5370 C 519.039 -3.03075 -1.69596 0
M  V30 5371 C 517.993 -4.09614 -1.24098 0
M  V30 5372 C 517.319 -4.73242 -2.4889 0
M  V30 5373 C 518.619 -5.21087 -0.355789 0
M  V30 5374 H 520.313 -2.99308 0.0743257 0
M  V30 5375 H 517.859 -1.43952 0.0371874 0
M  V30 5376 H 519.812 -3.52907 -2.30293 0
M  V30 5377 H 518.536 -2.28673 -2.33187 0
M  V30 5378 H 517.195 -3.60666 -0.656945 0
M  V30 5379 H 516.843 -3.95455 -3.10845 0
M  V30 5380 H 516.543 -5.45209 -2.19138 0
M  V30 5381 H 518.067 -5.25848 -3.10348 0
M  V30 5382 H 519.481 -5.66675 -0.869042 0
M  V30 5383 H 517.878 -5.9991 -0.151045 0
M  V30 5384 H 518.948 -4.81005 0.613339 0
M  V30 5385 N 520.291 -0.0518155 -1.57515 0
M  V30 5386 C 521.254 0.907547 -2.10467 0
M  V30 5387 C 522.254 1.23947 -1.02439 0
M  V30 5388 O 523.444 1.17604 -1.2851 0
M  V30 5389 C 520.576 2.21723 -2.58944 0
M  V30 5390 H 521.769 0.44851 -2.96527 0
M  V30 5391 H 519.322 0.196598 -1.55059 0
M  V30 5392 H 520.057 2.72206 -1.76279 0
M  V30 5393 H 519.842 1.98935 -3.37886 0
M  V30 5394 H 521.332 2.90441 -3.00056 0
M  V30 5395 N 521.769 1.56035 0.221574 0
M  V30 5396 C 522.716 1.92413 1.27459 0
M  V30 5397 C 523.686 0.781323 1.46576 0
M  V30 5398 O 524.871 1.03721 1.60145 0
M  V30 5399 C 522.011 2.24617 2.61995 0
M  V30 5400 C 521.124 3.51831 2.50677 0
M  V30 5401 C 520.259 3.73482 3.77736 0
M  V30 5402 C 519.298 4.94211 3.6114 0
M  V30 5403 N 518.435 5.12252 4.80148 0
M  V30 5404 H 523.275 2.82203 0.957355 0
M  V30 5405 H 520.812 1.39676 0.461415 0
M  V30 5406 H 522.77 2.41298 3.40339 0
M  V30 5407 H 521.4 1.38 2.91815 0
M  V30 5408 H 520.452 3.43343 1.63767 0
M  V30 5409 H 521.764 4.40328 2.34334 0
M  V30 5410 H 520.918 3.9026 4.64523 0
M  V30 5411 H 519.657 2.83266 3.97003 0
M  V30 5412 H 518.662 4.77384 2.72736 0
M  V30 5413 H 519.887 5.85912 3.43343 0
M  V30 5414 H 517.833 4.24978 4.99729 0
M  V30 5415 H 517.75 5.94881 4.66532 0
M  V30 5416 H 519.018 5.33465 5.68362 0
M  V30 5417 N 523.247 -0.488276 1.49845 0
M  V30 5418 C 524.197 -1.58556 1.63842 0
M  V30 5419 C 525.181 -1.53142 0.493586 0
M  V30 5420 O 526.373 -1.60457 0.747169 0
M  V30 5421 C 523.502 -2.97101 1.72005 0
M  V30 5422 C 522.588 -3.07463 2.92108 0
M  V30 5423 N 522.979 -2.87681 4.16021 0
M  V30 5424 C 521.277 -3.3858 2.90309 0
M  V30 5425 C 521.978 -3.0256 4.96822 0
M  V30 5426 N 520.954 -3.32002 4.30437 0
M  V30 5427 H 524.756 -1.41935 2.57355 0
M  V30 5428 H 522.27 -0.694668 1.46793 0
M  V30 5429 H 524.267 -3.75976 1.80132 0
M  V30 5430 H 522.927 -3.14782 0.796375 0
M  V30 5431 H 523.938 -2.63603 4.45796 0
M  V30 5432 H 520.615 -3.62357 2.07372 0
M  V30 5433 H 522.005 -2.9165 6.05301 0
M  V30 5434 N 524.725 -1.39134 -0.740242 0
M  V30 5435 C 525.95 -1.39518 -1.53459 0
M  V30 5436 C 526.375 0.00968883 -1.88098 0
M  V30 5437 O 525.733 0.995312 -1.51536 0
M  V30 5438 C 525.781 -2.26981 -2.802 0
M  V30 5439 O 524.885 -1.69609 -3.75908 0
M  V30 5440 H 524.226 -0.475328 -0.463637 0
M  V30 5441 H 526.756 -1.83064 -0.913717 0
M  V30 5442 H 526.766 -2.41309 -3.28989 0
M  V30 5443 H 525.441 -3.29081 -2.5432 0
M  V30 5444 H 524.018 -1.64495 -3.34658 0
M  V30 5445 N 526.204 0.969867 -1.24223 0
M  V30 5446 C 527.481 1.68774 -0.988664 0
M  V30 5447 C 527.861 2.05342 0.489673 0
M  V30 5448 O 527.209 1.75486 1.46345 0
M  V30 5449 C 527.419 2.92135 -1.90941 0
M  V30 5450 C 528.767 3.64422 -2.17903 0
M  V30 5451 O 529.791 3.02188 -1.88576 0
M  V30 5452 O 528.65 4.76446 -2.67697 0
M  V30 5453 H 525.744 0.737736 -0.37373 0
M  V30 5454 H 528.29 1.02415 -1.35312 0
M  V30 5455 H 527.062 2.61788 -2.90831 0
M  V30 5456 H 526.685 3.66228 -1.54798 0
M  V30 5457 N 527.682 1.05563 1.17022 0
M  V30 5458 C 528.612 0.681026 2.23348 0
M  V30 5459 C 529.593 -0.322983 1.67005 0
M  V30 5460 O 530.778 -0.199746 1.9317 0
M  V30 5461 C 527.908 0.0589053 3.4725 0
M  V30 5462 C 526.862 0.988082 4.16438 0
M  V30 5463 C 526.188 0.229646 5.34207 0
M  V30 5464 C 527.488 2.31388 4.68249 0
M  V30 5465 H 529.182 1.56993 2.54938 0
M  V30 5466 H 526.728 0.756302 1.2254 0
M  V30 5467 H 528.681 -0.214982 4.20851 0
M  V30 5468 H 527.405 -0.864968 3.14938 0
M  V30 5469 H 526.064 1.24659 3.44754 0
M  V30 5470 H 525.712 -0.697111 4.98146 0
M  V30 5471 H 525.412 0.848815 5.81437 0
M  V30 5472 H 526.936 -0.0368694 6.10589 0
M  V30 5473 H 528.35 2.09964 5.33468 0
M  V30 5474 H 526.747 2.88736 5.26072 0
M  V30 5475 H 527.817 2.94982 3.84855 0
M  V30 5476 N 529.16 -1.33526 0.837174 0
M  V30 5477 C 530.406 -1.98541 0.44193 0
M  V30 5478 C 530.761 -1.65124 -0.987517 0
M  V30 5479 O 530.054 -0.919948 -1.6807 0
M  V30 5480 C 530.248 -3.52367 0.597675 0
M  V30 5481 C 530.077 -4.00731 2.04071 0
M  V30 5482 C 528.847 -4.28649 2.67559 0
M  V30 5483 C 531.045 -4.17073 3.00923 0
M  V30 5484 N 529.027 -4.63142 4.02955 0
M  V30 5485 C 530.398 -4.54905 4.21261 0
M  V30 5486 C 532.453 -3.99358 2.97351 0
M  V30 5487 C 531.156 -4.76874 5.38501 0
M  V30 5488 C 533.182 -4.22501 4.1382 0
M  V30 5489 C 532.544 -4.60634 5.32912 0
M  V30 5490 H 528.643 -0.753246 0.210105 0
M  V30 5491 H 531.227 -1.61674 1.08488 0
M  V30 5492 H 529.398 -3.88397 -0.0154658 0
M  V30 5493 H 531.13 -4.04326 0.17404 0
M  V30 5494 H 527.885 -4.20077 2.18706 0
M  V30 5495 H 528.309 -4.84601 4.72748 0
M  V30 5496 H 532.951 -3.68993 2.06408 0
M  V30 5497 H 530.669 -5.06101 6.2999 0
M  V30 5498 H 534.255 -4.10316 4.12471 0
M  V30 5499 H 533.135 -4.78187 6.21536 0
M  V30 5500 N 530.638 -0.59345 -1.46 0
M  V30 5501 C 531.863 -0.0872365 -2.07216 0
M  V30 5502 C 532.288 1.2131 -1.43755 0
M  V30 5503 O 531.646 1.73528 -0.525152 0
M  V30 5504 C 531.694 0.0538197 -3.6056 0
M  V30 5505 O 530.798 1.10765 -3.97247 0
M  V30 5506 H 530.139 -0.0676598 -0.660544 0
M  V30 5507 H 532.669 -0.819445 -1.87473 0
M  V30 5508 H 532.679 0.256567 -4.07193 0
M  V30 5509 H 531.354 -0.895739 -4.0614 0
M  V30 5510 H 529.931 0.882501 -3.62307 0
M  V30 5511 N 532.116 1.54067 -0.331816 0
M  V30 5512 C 533.364 2.00319 0.267739 0
M  V30 5513 C 533.685 1.22148 1.52003 0
M  V30 5514 O 532.955 0.325494 1.93177 0
M  V30 5515 H 531.535 0.740014 0.101922 0
M  V30 5516 H 534.197 1.89628 -0.450267 0
M  V30 5517 H 533.293 3.07765 0.518385 0
M  V30 5518 N 533.594 0.0601682 1.57485 0
M  V30 5519 C 534.843 -0.611101 1.9222 0
M  V30 5520 C 535.156 -1.71469 0.941159 0
M  V30 5521 O 536.362 -2.44473 1.18089 0
M  V30 5522 C 534.818 -1.13832 3.41424 0
M  V30 5523 C 534.426 -0.0663596 4.47951 0
M  V30 5524 C 536.17 -1.78432 3.85178 0
M  V30 5525 C 534.077 -0.606965 5.88277 0
M  V30 5526 H 533.007 -0.232033 0.71741 0
M  V30 5527 H 535.658 0.130518 1.83035 0
M  V30 5528 H 534.04 -1.93254 3.45643 0
M  V30 5529 H 535.214 0.707682 4.55333 0
M  V30 5530 H 533.529 0.482715 4.13593 0
M  V30 5531 H 536.126 -2.1989 4.87394 0
M  V30 5532 H 536.469 -2.63966 3.21913 0
M  V30 5533 H 537.002 -1.05651 3.83514 0
M  V30 5534 H 533.741 0.21095 6.5516 0
M  V30 5535 H 533.261 -1.34879 5.84438 0
M  V30 5536 H 534.94 -1.08704 6.37803 0
M  V30 5537 N 535.072 -1.5615 -0.213296 0
M  V30 5538 C 536.02 -1.93953 -1.28394 0
M  V30 5539 C 537.014 -0.822592 -1.48087 0
M  V30 5540 O 538.22 -1.00748 -1.49164 0
M  V30 5541 H 534.595 -0.61648 -0.430646 0
M  V30 5542 H 536.566 -2.83275 -0.937977 0
M  V30 5543 C 535.315 -2.27969 -2.62537 0
M  V30 5544 H 534.638 -3.13432 -2.48194 0
M  V30 5545 H 536.078 -2.58297 -3.36242 0
M  V30 5546 C 534.537 -1.10775 -3.18167 0
M  V30 5547 O 535.067 -0.373201 -3.99963 0
M  V30 5548 N 533.273 -0.889377 -2.76656 0
M  V30 5549 H 532.82 -1.48843 -2.10246 0
M  V30 5550 H 532.778 -0.107 -3.14218 0
M  V30 5551 N 536.55 0.480323 -1.50102 0
M  V30 5552 C 537.78 1.25475 -1.64133 0
M  V30 5553 C 538.188 1.8647 -0.320272 0
M  V30 5554 O 537.531 1.69561 0.70673 0
M  V30 5555 C 537.593 2.40996 -2.6676 0
M  V30 5556 C 537.257 2.00711 -4.10565 0
M  V30 5557 C 538.254 1.53492 -4.96725 0
M  V30 5558 C 535.939 2.09714 -4.56427 0
M  V30 5559 C 537.933 1.15806 -6.26792 0
M  V30 5560 C 535.62 1.7164 -5.86501 0
M  V30 5561 C 536.618 1.24763 -6.71508 0
M  V30 5562 O 536.306 0.872122 -7.99155 0
M  V30 5563 H 536.038 0.385983 -0.554971 0
M  V30 5564 H 538.592 0.580848 -1.97016 0
M  V30 5565 H 536.822 3.11528 -2.291 0
M  V30 5566 H 538.511 3.02981 -2.70106 0
M  V30 5567 H 539.277 1.45966 -4.62514 0
M  V30 5568 H 535.156 2.4515 -3.90413 0
M  V30 5569 H 538.7 0.791465 -6.93096 0
M  V30 5570 H 534.597 1.78822 -6.20236 0
M  V30 5571 H 535.365 1.00178 -8.12346 0
M  V30 5572 N 538.028 1.39524 0.732853 0
M  V30 5573 C 539.256 1.40143 1.52209 0
M  V30 5574 C 539.671 -0.00348836 1.888 0
M  V30 5575 O 539.028 -0.975357 1.5425 0
M  V30 5576 C 539.079 2.27632 2.8083 0
M  V30 5577 O 538.8 3.62654 2.45792 0
M  V30 5578 C 540.301 2.36658 3.74844 0
M  V30 5579 H 537.521 0.478604 0.470297 0
M  V30 5580 H 540.065 1.83366 0.905388 0
M  V30 5581 H 538.22 1.87818 3.38826 0
M  V30 5582 H 538.634 4.08941 3.28431 0
M  V30 5583 H 540.108 3.02118 4.61984 0
M  V30 5584 H 540.585 1.38638 4.16745 0
M  V30 5585 H 541.191 2.76951 3.22766 0
M  V30 5586 N 539.506 -0.963266 1.24736 0
M  V30 5587 C 540.922 -1.23273 1.01371 0
M  V30 5588 C 541.122 -1.99618 -0.274776 0
M  V30 5589 O 540.178 -2.32293 -0.989769 0
M  V30 5590 C 541.491 -2.01554 2.23152 0
M  V30 5591 C 543.039 -2.14629 2.27823 0
M  V30 5592 C 543.514 -2.96307 3.49237 0
M  V30 5593 N 545.005 -3.03887 3.49581 0
M  V30 5594 C 545.74 -3.67456 4.40186 0
M  V30 5595 N 545.236 -4.32706 5.41052 0
M  V30 5596 N 547.029 -3.64511 4.27888 0
M  V30 5597 H 539.18 -0.452294 2.07528 0
M  V30 5598 H 541.443 -0.262521 0.910926 0
M  V30 5599 H 541.149 -1.52847 3.1675 0
M  V30 5600 H 541.023 -3.02278 2.25628 0
M  V30 5601 H 543.41 -2.62537 1.34753 0
M  V30 5602 H 543.491 -1.13238 2.2937 0
M  V30 5603 H 543.135 -2.49091 4.42624 0
M  V30 5604 H 543.065 -3.97905 3.44933 0
M  V30 5605 H 545.556 -2.57477 2.76611 0
M  V30 5606 H 545.869 -4.79042 6.06415 0
M  V30 5607 H 544.214 -4.31361 5.44934 0
M  V30 5608 H 547.405 -3.12715 3.4832 0
M  V30 5609 H 547.578 -4.13768 4.98698 0
M  V30 5610 N 540.985 -1.06182 -1.16461 0
M  V30 5611 C 542.401 -0.785065 -1.38956 0
M  V30 5612 C 542.601 0.616103 -1.9185 0
M  V30 5613 O 541.657 1.37686 -2.11657 0
M  V30 5614 C 542.97 -1.84902 -2.37132 0
M  V30 5615 C 544.518 -1.8724 -2.50819 0
M  V30 5616 C 544.993 -2.92686 -3.52277 0
M  V30 5617 N 546.484 -2.91712 -3.59803 0
M  V30 5618 C 547.219 -3.69949 -4.38093 0
M  V30 5619 N 546.715 -4.58 -5.19815 0
M  V30 5620 N 548.508 -3.58346 -4.33064 0
M  V30 5621 H 540.659 -1.96569 -0.804634 0
M  V30 5622 H 542.922 -0.851747 -0.416211 0
M  V30 5623 H 542.628 -2.85518 -2.0536 0
M  V30 5624 H 542.502 -1.69908 -3.36766 0
M  V30 5625 H 544.889 -0.872827 -2.81897 0
M  V30 5626 H 544.97 -2.06311 -1.51226 0
M  V30 5627 H 544.614 -3.92835 -3.21937 0
M  V30 5628 H 544.544 -2.70864 -4.51598 0
M  V30 5629 H 547.035 -2.27876 -3.01464 0
M  V30 5630 H 547.348 -5.14357 -5.76764 0
M  V30 5631 H 545.693 -4.62056 -5.19162 0
M  V30 5632 H 548.884 -2.88943 -3.68279 0
M  V30 5633 H 549.057 -4.19563 -4.93833 0
M  V30 5634 N 542.463 1.3308 -0.844243 0
M  V30 5635 C 543.411 2.31028 -0.269954 0
M  V30 5636 C 544.405 1.58381 0.600997 0
M  V30 5637 O 545.611 1.73203 0.48996 0
M  V30 5638 H 541.986 0.748866 -0.0685782 0
M  V30 5639 H 543.957 2.76967 -1.11049 0
M  V30 5640 C 542.706 3.43549 0.535676 0
M  V30 5641 H 542.029 3.99604 -0.125202 0
M  V30 5642 H 543.469 4.14267 0.903262 0
M  V30 5643 C 541.928 2.8988 1.71672 0
M  V30 5644 O 542.458 2.86511 2.81557 0
M  V30 5645 N 540.664 2.46416 1.54037 0
M  V30 5646 H 540.211 2.49356 0.64649 0
M  V30 5647 H 540.169 2.1086 2.33207 0
M  V30 5648 N 543.941 0.601185 1.45683 0
M  V30 5649 C 545.357 0.264315 1.57396 0
M  V30 5650 C 545.557 -1.23324 1.59353 0
M  V30 5651 O 544.613 -2.01594 1.52039 0
M  V30 5652 C 545.926 0.929839 2.85962 0
M  V30 5653 C 547.474 0.905156 2.99626 0
M  V30 5654 C 547.949 1.55057 4.30954 0
M  V30 5655 N 549.44 1.51576 4.37697 0
M  V30 5656 C 550.175 1.98436 5.37969 0
M  V30 5657 N 549.671 2.53352 6.44813 0
M  V30 5658 N 551.464 1.89242 5.29286 0
M  V30 5659 H 543.615 1.57363 1.42656 0
M  V30 5660 H 545.878 0.658831 0.681649 0
M  V30 5661 H 545.584 1.98404 2.90394 0
M  V30 5662 H 545.458 0.449224 3.74515 0
M  V30 5663 H 547.845 -0.14048 2.94765 0
M  V30 5664 H 547.926 1.42397 2.12501 0
M  V30 5665 H 547.57 2.5955 4.36573 0
M  V30 5666 H 547.5 1.00682 5.16886 0
M  V30 5667 H 549.991 1.11452 3.61091 0
M  V30 5668 H 550.304 2.86918 7.17564 0
M  V30 5669 H 548.649 2.57388 6.45582 0
M  V30 5670 H 551.84 1.46083 4.44722 0
M  V30 5671 H 552.013 2.26075 6.07284 0
M  V30 5672 N 545.419 -1.53889 0.339982 0
M  V30 5673 C 546.835 -1.59595 -0.0120752 0
M  V30 5674 C 547.035 -1.35605 -1.49042 0
M  V30 5675 O 546.091 -1.14856 -2.24865 0
M  V30 5676 C 547.404 -2.9774 0.420898 0
M  V30 5677 C 548.952 -3.1077 0.37294 0
M  V30 5678 C 549.427 -4.51286 0.781327 0
M  V30 5679 N 550.918 -4.57325 0.735374 0
M  V30 5680 C 551.653 -5.64194 1.02336 0
M  V30 5681 N 551.149 -6.7893 1.37933 0
M  V30 5682 N 552.942 -5.54051 0.947838 0
M  V30 5683 H 545.093 -1.67738 1.30299 0
M  V30 5684 H 547.356 -0.785385 0.530918 0
M  V30 5685 H 547.062 -3.20349 1.45152 0
M  V30 5686 H 546.936 -3.76639 -0.205721 0
M  V30 5687 H 549.323 -2.87886 -0.648505 0
M  V30 5688 H 549.404 -2.33939 1.03472 0
M  V30 5689 H 549.048 -4.74905 1.80077 0
M  V30 5690 H 548.978 -5.26511 0.0970679 0
M  V30 5691 H 551.469 -3.74931 0.472773 0
M  V30 5692 H 551.782 -7.56392 1.58402 0
M  V30 5693 H 550.127 -6.80386 1.41774 0
M  V30 5694 H 553.318 -4.63293 0.669115 0
M  V30 5695 H 553.491 -6.37246 1.17563 0
M  V30 5696 N 546.897 -0.0685191 -1.57451 0
M  V30 5697 C 547.83 0.935736 -2.08133 0
M  V30 5698 C 548.808 1.29317 -0.985698 0
M  V30 5699 O 549.992 1.40304 -1.25886 0
M  V30 5700 C 547.119 2.2448 -2.53627 0
M  V30 5701 C 546.165 2.03917 -3.74593 0
M  V30 5702 S 546.998 1.30154 -5.19442 0
M  V30 5703 C 548.154 2.62346 -5.68265 0
M  V30 5704 H 548.387 0.504473 -2.92989 0
M  V30 5705 H 545.92 0.144169 -1.53725 0
M  V30 5706 H 547.878 2.99718 -2.80499 0
M  V30 5707 H 546.539 2.64731 -1.69045 0
M  V30 5708 H 545.732 3.00788 -4.04404 0
M  V30 5709 H 545.334 1.36815 -3.48077 0
M  V30 5710 H 547.626 3.58448 -5.7491 0
M  V30 5711 H 548.569 2.3715 -6.67207 0
M  V30 5712 H 548.977 2.69401 -4.96068 0
M  V30 5713 N 548.375 1.56261 0.205012 0
M  V30 5714 C 549.621 1.80306 0.9283 0
M  V30 5715 C 549.954 0.640932 1.83319 0
M  V30 5716 O 549.229 -0.359032 1.91158 0
M  V30 5717 C 549.512 3.14547 1.75306 0
M  V30 5718 C 549.365 4.41236 0.873562 0
M  V30 5719 C 550.684 3.45382 2.72762 0
M  V30 5720 H 547.803 0.655929 0.336044 0
M  V30 5721 H 550.445 1.88984 0.196211 0
M  V30 5722 H 548.595 3.0728 2.37721 0
M  V30 5723 H 550.267 4.60539 0.264887 0
M  V30 5724 H 548.51 4.33427 0.179773 0
M  V30 5725 H 549.181 5.31639 1.48541 0
M  V30 5726 H 551.657 3.52884 2.20481 0
M  V30 5727 H 550.533 4.40449 3.2756 0
M  V30 5728 H 550.794 2.68377 3.51321 0
M  V30 5729 N 549.853 -0.472356 1.50355 0
M  V30 5730 C 551.102 -1.2213 1.60522 0
M  V30 5731 C 551.415 -1.9312 0.310466 0
M  V30 5732 O 552.621 -2.69936 0.291029 0
M  V30 5733 C 551.077 -2.21909 2.83345 0
M  V30 5734 C 550.685 -1.56727 4.19691 0
M  V30 5735 C 552.429 -2.97453 3.02856 0
M  V30 5736 C 550.336 -2.54785 5.33703 0
M  V30 5737 H 549.266 -0.459543 0.597776 0
M  V30 5738 H 551.917 -0.491922 1.76783 0
M  V30 5739 H 550.299 -2.98133 2.60639 0
M  V30 5740 H 551.473 -0.863007 4.52646 0
M  V30 5741 H 549.788 -0.934685 4.05774 0
M  V30 5742 H 552.385 -3.70838 3.85205 0
M  V30 5743 H 552.728 -3.56764 2.14534 0
M  V30 5744 H 553.261 -2.28342 3.25737 0
M  V30 5745 H 550 -2.00214 6.24175 0
M  V30 5746 H 549.52 -3.23367 5.05167 0
M  V30 5747 H 551.199 -3.16639 5.64224 0
M  V30 5748 N 551.331 -1.39911 -0.725443 0
M  V30 5749 C 552.556 -1.41137 -1.5197 0
M  V30 5750 C 552.981 -0.010262 -1.88097 0
M  V30 5751 O 552.339 0.979184 -1.52583 0
M  V30 5752 C 552.387 -2.2994 -2.77777 0
M  V30 5753 O 551.491 -1.73586 -3.74088 0
M  V30 5754 H 550.832 -0.480219 -0.458569 0
M  V30 5755 H 553.362 -1.84023 -0.894249 0
M  V30 5756 H 553.372 -2.44785 -3.26411 0
M  V30 5757 H 552.047 -3.31759 -2.50816 0
M  V30 5758 H 550.624 -1.68035 -3.32894 0
M  V30 5759 N 552.809 0.956637 -1.25245 0
M  V30 5760 C 554.056 1.701 -1.09874 0
M  V30 5761 C 554.384 1.91128 0.36062 0
M  V30 5762 O 553.639 1.47837 1.28229 0
M  V30 5763 C 553.938 3.08996 -1.79601 0
M  V30 5764 C 553.604 3.07774 -3.29523 0
M  V30 5765 C 552.266 3.07149 -3.70423 0
M  V30 5766 C 554.618 3.01257 -4.25316 0
M  V30 5767 C 551.946 2.97752 -5.0553 0
M  V30 5768 C 554.298 2.93403 -5.60444 0
M  V30 5769 C 552.962 2.91111 -6.00675 0
M  V30 5770 H 552.232 0.62244 -0.402056 0
M  V30 5771 H 554.879 1.1178 -1.55491 0
M  V30 5772 H 553.184 3.70848 -1.26408 0
M  V30 5773 H 554.881 3.65407 -1.65162 0
M  V30 5774 H 551.471 3.09032 -2.9698 0
M  V30 5775 H 555.655 3.00861 -3.9471 0
M  V30 5776 H 550.911 2.94346 -5.35883 0
M  V30 5777 H 555.085 2.87321 -6.34366 0
M  V30 5778 H 552.712 2.83586 -7.05325 0
M  V30 5779 N 554.287 1.06798 1.15896 0
M  V30 5780 C 555.534 0.787767 1.86549 0
M  V30 5781 C 555.862 -0.685959 1.82002 0
M  V30 5782 O 555.117 -1.5188 1.23414 0
M  V30 5783 C 555.416 1.23414 3.35416 0
M  V30 5784 C 555.082 2.71285 3.6016 0
M  V30 5785 C 553.744 3.11676 3.66622 0
M  V30 5786 C 556.096 3.6676 3.7032 0
M  V30 5787 C 553.424 4.4637 3.8075 0
M  V30 5788 C 555.776 5.01209 3.8597 0
M  V30 5789 C 554.44 5.41229 3.90676 0
M  V30 5790 H 553.71 0.288264 0.682631 0
M  V30 5791 H 556.357 1.338 1.37003 0
M  V30 5792 H 554.662 0.60319 3.87129 0
M  V30 5793 H 556.359 0.994298 3.88477 0
M  V30 5794 H 552.949 2.39015 3.55767 0
M  V30 5795 H 557.133 3.36685 3.64633 0
M  V30 5796 H 552.389 4.76855 3.82648 0
M  V30 5797 H 556.563 5.75067 3.92773 0
M  V30 5798 H 554.19 6.45602 4.01375 0
M  V30 5799 N 555.766 -1.3263 0.851289 0
M  V30 5800 C 556.994 -2.01563 0.466899 0
M  V30 5801 C 557.409 -1.63996 -0.935447 0
M  V30 5802 O 556.766 -0.85957 -1.6099 0
M  V30 5803 C 556.817 -3.56613 0.592433 0
M  V30 5804 O 556.538 -3.92828 1.93954 0
M  V30 5805 C 558.039 -4.42818 0.206612 0
M  V30 5806 H 555.259 -0.645307 0.183902 0
M  V30 5807 H 557.803 -1.69285 1.1473 0
M  V30 5808 H 555.958 -3.87379 -0.0401936 0
M  V30 5809 H 556.372 -4.87545 1.9339 0
M  V30 5810 H 557.846 -5.50918 0.345462 0
M  V30 5811 H 558.323 -4.30844 -0.85264 0
M  V30 5812 H 558.929 -4.17434 0.814176 0
M  V30 5813 N 557.244 -0.608902 -1.45362 0
M  V30 5814 C 558.472 -0.111013 -2.06602 0
M  V30 5815 C 558.887 1.20516 -1.45332 0
M  V30 5816 O 558.244 1.73437 -0.567978 0
M  V30 5817 C 558.295 0.033688 -3.61484 0
M  V30 5818 O 558.016 -1.23041 -4.20467 0
M  V30 5819 C 559.517 0.562882 -4.39712 0
M  V30 5820 H 556.737 -0.0694453 -0.667397 0
M  V30 5821 H 559.281 -0.837008 -1.86586 0
M  V30 5822 H 557.436 0.710016 -3.80838 0
M  V30 5823 H 557.85 -1.06094 -5.13658 0
M  V30 5824 H 559.324 0.613213 -5.48583 0
M  V30 5825 H 559.801 1.58543 -4.09586 0
M  V30 5826 H 560.407 -0.0794454 -4.25226 0
M  V30 5827 N 558.722 1.53707 -0.348139 0
M  V30 5828 C 559.971 2.0017 0.247992 0
M  V30 5829 C 560.284 1.23983 1.51286 0
M  V30 5830 O 561.49 1.60946 2.18652 0
M  V30 5831 C 559.946 3.56515 0.492459 0
M  V30 5832 C 559.554 4.41562 -0.756777 0
M  V30 5833 C 561.298 4.11381 1.0472 0
M  V30 5834 C 559.205 5.89426 -0.482856 0
M  V30 5835 H 558.135 0.747806 0.0964452 0
M  V30 5836 H 560.786 1.77532 -0.464179 0
M  V30 5837 H 559.168 3.75236 1.26545 0
M  V30 5838 H 560.342 4.34615 -1.53122 0
M  V30 5839 H 558.657 3.97711 -1.23348 0
M  V30 5840 H 561.254 5.19468 1.26717 0
M  V30 5841 H 561.597 3.64885 2.00411 0
M  V30 5842 H 562.13 3.96389 0.334801 0
M  V30 5843 H 558.869 6.40164 -1.40962 0
M  V30 5844 H 558.389 5.99264 0.253416 0
M  V30 5845 H 560.068 6.4692 -0.101816 0
M  V30 5846 N 560.2 0.0768682 1.57412 0
M  V30 5847 C 561.448 -0.589918 1.93299 0
M  V30 5848 C 561.769 -1.69842 0.958049 0
M  V30 5849 O 561.039 -1.95899 0.00703261 0
M  V30 5850 H 559.619 -0.220901 0.713591 0
M  V30 5851 H 562.281 0.135917 1.94425 0
M  V30 5852 H 561.377 -1.01195 2.95239 0
M  V30 5853 N 561.678 -1.56367 -0.196722 0
M  V30 5854 C 562.626 -1.95304 -1.2633 0
M  V30 5855 C 563.62 -0.838252 -1.47206 0
M  V30 5856 O 564.826 -1.02325 -1.48087 0
M  V30 5857 H 561.201 -0.621013 -0.424083 0
M  V30 5858 H 563.172 -2.84254 -0.907879 0
M  V30 5859 C 561.921 -2.3074 -2.60104 0
M  V30 5860 H 561.244 -3.16047 -2.44856 0
M  V30 5861 H 562.684 -2.61849 -3.33484 0
M  V30 5862 C 561.143 -1.14143 -3.16975 0
M  V30 5863 O 561.673 -0.415602 -3.99544 0
M  V30 5864 N 559.879 -0.91867 -2.75697 0
M  V30 5865 H 559.426 -1.51065 -2.08656 0
M  V30 5866 H 559.384 -0.140321 -3.14087 0
M  V30 5867 N 563.156 0.464375 -1.50603 0
M  V30 5868 C 564.386 1.23727 -1.65454 0
M  V30 5869 C 564.794 1.86119 -0.340032 0
M  V30 5870 O 564.137 1.70301 0.688706 0
M  V30 5871 C 564.199 2.38153 -2.69301 0
M  V30 5872 C 563.863 1.96345 -4.12671 0
M  V30 5873 C 564.86 1.48215 -4.98326 0
M  V30 5874 C 562.545 2.04861 -4.58625 0
M  V30 5875 C 564.539 1.09152 -6.27985 0
M  V30 5876 C 562.226 1.65409 -5.88288 0
M  V30 5877 C 563.224 1.17634 -6.72794 0
M  V30 5878 O 562.912 0.787312 -8.00035 0
M  V30 5879 H 562.644 0.380075 -0.559034 0
M  V30 5880 H 565.198 0.559919 -1.97621 0
M  V30 5881 H 563.428 3.09081 -2.32392 0
M  V30 5882 H 565.117 3.00099 -2.73304 0
M  V30 5883 H 565.883 1.41052 -4.64036 0
M  V30 5884 H 561.762 2.40996 -3.92991 0
M  V30 5885 H 565.306 0.717909 -6.93896 0
M  V30 5886 H 561.203 1.72233 -6.22098 0
M  V30 5887 H 561.971 0.915567 -8.13363 0
M  V30 5888 N 564.634 1.40294 0.718013 0
M  V30 5889 C 565.911 1.2894 1.47084 0
M  V30 5890 C 566.291 -0.0933625 2.10893 0
M  V30 5891 O 565.639 -1.10598 1.99951 0
M  V30 5892 C 565.849 2.4264 2.50852 0
M  V30 5893 C 567.197 2.8276 3.16752 0
M  V30 5894 O 568.221 2.42215 2.61171 0
M  V30 5895 O 567.08 3.528 4.17366 0
M  V30 5896 H 564.174 0.506236 0.653952 0
M  V30 5897 H 566.72 1.52208 0.750394 0
M  V30 5898 H 565.492 3.35009 2.022 0
M  V30 5899 H 565.115 2.21129 3.30435 0
M  V30 5900 N 566.112 -0.949982 1.2575 0
M  V30 5901 C 567.342 -1.72721 1.13363 0
M  V30 5902 C 567.75 -1.86562 -0.314842 0
M  V30 5903 O 567.093 -1.36621 -1.22803 0
M  V30 5904 C 567.155 -3.15695 1.7198 0
M  V30 5905 C 566.819 -3.25268 3.21014 0
M  V30 5906 C 567.816 -3.09222 4.17945 0
M  V30 5907 C 565.501 -3.4894 3.61312 0
M  V30 5908 C 567.495 -3.16701 5.53154 0
M  V30 5909 C 565.182 -3.56055 4.96657 0
M  V30 5910 C 566.18 -3.3995 5.92387 0
M  V30 5911 O 565.868 -3.46757 7.25269 0
M  V30 5912 H 565.6 -0.547888 0.395973 0
M  V30 5913 H 568.154 -1.20009 1.66694 0
M  V30 5914 H 566.384 -3.69791 1.13101 0
M  V30 5915 H 568.073 -3.75295 1.54624 0
M  V30 5916 H 568.839 -2.90798 3.88151 0
M  V30 5917 H 564.718 -3.60534 2.87291 0
M  V30 5918 H 568.262 -3.04048 6.27854 0
M  V30 5919 H 564.159 -3.73997 5.26115 0
M  V30 5920 H 564.927 -3.63358 7.33426 0
M  V30 5921 N 567.59 -1.07411 -1.15328 0
M  V30 5922 C 568.838 -0.796073 -1.85761 0
M  V30 5923 C 569.159 0.679864 -1.82764 0
M  V30 5924 O 568.429 1.49242 -1.269 0
M  V30 5925 H 567.009 -0.291495 -0.687779 0
M  V30 5926 H 569.671 -1.35799 -1.39802 0
M  V30 5927 H 568.767 -1.13114 -2.90881 0
M  V30 5928 N 569.068 1.32177 -0.85831 0
M  V30 5929 C 570.315 1.97125 -0.463484 0
M  V30 5930 C 570.643 1.67907 0.981705 0
M  V30 5931 O 569.898 0.961717 1.70439 0
M  V30 5932 C 570.197 3.51372 -0.653658 0
M  V30 5933 C 569.863 4.00584 -2.06987 0
M  V30 5934 C 568.525 4.13733 -2.4572 0
M  V30 5935 C 570.877 4.26624 -2.99402 0
M  V30 5936 C 568.205 4.50268 -3.76132 0
M  V30 5937 C 570.557 4.64618 -4.29316 0
M  V30 5938 C 569.221 4.75975 -4.67979 0
M  V30 5939 H 568.491 0.72133 -0.169601 0
M  V30 5940 H 571.138 1.57517 -1.08907 0
M  V30 5941 H 569.443 3.91761 0.0551328 0
M  V30 5942 H 571.14 3.99655 -0.328163 0
M  V30 5943 H 567.73 3.90837 -1.75911 0
M  V30 5944 H 571.914 4.1597 -2.70708 0
M  V30 5945 H 567.17 4.57256 -4.05865 0
M  V30 5946 H 571.344 4.83722 -5.00985 0
M  V30 5947 H 568.971 5.04041 -5.69076 0
M  V30 5948 N 570.547 0.616602 1.45037 0
M  V30 5949 C 571.777 0.121791 2.06241 0
M  V30 5950 C 572.185 -1.20289 1.46038 0
M  V30 5951 O 571.528 -1.7456 0.572242 0
M  V30 5952 C 571.59 -0.0827345 3.59405 0
M  V30 5953 C 571.254 1.16153 4.41993 0
M  V30 5954 C 572.251 2.08183 4.76399 0
M  V30 5955 C 569.936 1.39288 4.82601 0
M  V30 5956 C 571.93 3.21668 5.5028 0
M  V30 5957 C 569.617 2.53073 5.56235 0
M  V30 5958 C 570.615 3.44091 5.89992 0
M  V30 5959 O 570.303 4.55894 6.6213 0
M  V30 5960 H 570.035 0.0701667 0.672349 0
M  V30 5961 H 572.589 0.846877 1.87129 0
M  V30 5962 H 570.819 -0.862812 3.76952 0
M  V30 5963 H 572.508 -0.530273 4.02421 0
M  V30 5964 H 573.274 1.91538 4.45576 0
M  V30 5965 H 569.153 0.693396 4.55755 0
M  V30 5966 H 572.697 3.92733 5.76547 0
M  V30 5967 H 568.594 2.69667 5.86472 0
M  V30 5968 H 569.362 4.5469 6.80587 0
M  V30 5969 N 572.025 -1.5352 0.356285 0
M  V30 5970 C 573.271 -2.02104 -0.229271 0
M  V30 5971 C 573.626 -1.23923 -1.47176 0
M  V30 5972 O 572.919 -0.321957 -1.88876 0
M  V30 5973 C 573.113 -3.52607 -0.583369 0
M  V30 5974 C 572.942 -4.4536 0.623253 0
M  V30 5975 C 571.712 -4.92446 1.13248 0
M  V30 5976 C 573.91 -4.92375 1.48563 0
M  V30 5977 N 571.892 -5.69183 2.3001 0
M  V30 5978 C 573.263 -5.67362 2.50001 0
M  V30 5979 C 575.318 -4.74464 1.50959 0
M  V30 5980 C 574.021 -6.26341 3.5368 0
M  V30 5981 C 576.047 -5.34302 2.53526 0
M  V30 5982 C 575.409 -6.09166 3.53688 0
M  V30 5983 H 571.508 -0.780595 -0.0468602 0
M  V30 5984 H 574.092 -1.88204 0.49873 0
M  V30 5985 H 572.263 -3.66686 -1.28046 0
M  V30 5986 H 573.995 -3.87922 -1.15321 0
M  V30 5987 H 570.75 -4.6842 0.698562 0
M  V30 5988 H 571.174 -6.12216 2.88998 0
M  V30 5989 H 575.816 -4.16117 0.748785 0
M  V30 5990 H 573.534 -6.8379 4.30648 0
M  V30 5991 H 577.12 -5.22342 2.56223 0
M  V30 5992 H 576 -6.54644 4.31753 0
M  V30 5993 N 573.503 -0.0852151 -1.57369 0
M  V30 5994 C 574.733 0.588605 -1.98038 0
M  V30 5995 C 575.141 1.62869 -0.962817 0
M  V30 5996 O 574.484 1.83611 0.057134 0
M  V30 5997 C 574.546 1.30303 -3.35054 0
M  V30 5998 C 574.21 0.414855 -4.55113 0
M  V30 5999 C 575.207 -0.333011 -5.18832 0
M  V30 6000 C 572.892 0.335804 -5.01176 0
M  V30 6001 C 574.886 -1.14801 -6.26976 0
M  V30 6002 C 572.573 -0.482857 -6.09189 0
M  V30 6003 C 573.571 -1.22342 -6.71953 0
M  V30 6004 O 573.259 -2.02855 -7.77885 0
M  V30 6005 H 572.991 0.163249 -0.655992 0
M  V30 6006 H 575.545 -0.1582 -2.0479 0
M  V30 6007 H 573.775 2.0962 -3.24956 0
M  V30 6008 H 575.464 1.87041 -3.60237 0
M  V30 6009 H 576.23 -0.281611 -4.84182 0
M  V30 6010 H 572.109 0.901869 -4.52092 0
M  V30 6011 H 575.653 -1.72654 -6.75897 0
M  V30 6012 H 571.55 -0.535773 -6.43273 0
M  V30 6013 H 572.318 -1.95432 -7.94826 0
M  V30 6014 N 574.981 1.5647 0.188427 0
M  V30 6015 C 575.911 1.98101 1.23606 0
M  V30 6016 C 576.892 0.853961 1.47111 0
M  V30 6017 O 578.077 1.11879 1.58735 0
M  V30 6018 C 575.207 2.32624 2.57882 0
M  V30 6019 C 574.161 3.48129 2.48978 0
M  V30 6020 C 573.487 3.68347 3.87588 0
M  V30 6021 C 574.787 4.82112 2.00911 0
M  V30 6022 H 576.481 2.85864 0.890068 0
M  V30 6023 H 574.027 1.37532 0.426714 0
M  V30 6024 H 575.98 2.60343 3.3136 0
M  V30 6025 H 574.704 1.41751 2.94235 0
M  V30 6026 H 573.363 3.20511 1.77956 0
M  V30 6027 H 573.011 2.74793 4.21305 0
M  V30 6028 H 572.711 4.46055 3.82503 0
M  V30 6029 H 574.235 3.98449 4.62678 0
M  V30 6030 H 575.649 5.08819 2.64151 0
M  V30 6031 H 574.046 5.63337 2.06814 0
M  V30 6032 H 575.116 4.75249 0.96262 0
M  V30 6033 N 576.459 -0.456382 1.50847 0
M  V30 6034 C 577.689 -1.22848 1.66108 0
M  V30 6035 C 578.097 -1.85936 0.349897 0
M  V30 6036 O 577.44 -1.70664 -0.679665 0
M  V30 6037 C 577.502 -2.36722 2.70561 0
M  V30 6038 C 577.166 -1.94154 4.13707 0
M  V30 6039 C 578.163 -1.4557 4.99105 0
M  V30 6040 C 575.848 -2.02426 4.59705 0
M  V30 6041 C 577.842 -1.0582 6.28555 0
M  V30 6042 C 575.529 -1.62287 5.89157 0
M  V30 6043 C 576.527 -1.14064 6.73408 0
M  V30 6044 O 576.215 -0.744873 8.00442 0
M  V30 6045 H 575.947 -0.377105 0.561042 0
M  V30 6046 H 578.501 -0.549431 1.97915 0
M  V30 6047 H 576.731 -3.07844 2.34027 0
M  V30 6048 H 578.42 -2.98646 2.74892 0
M  V30 6049 H 579.186 -1.38589 4.64777 0
M  V30 6050 H 575.065 -2.38908 3.94264 0
M  V30 6051 H 578.609 -0.6811 6.94267 0
M  V30 6052 H 574.506 -1.68932 6.23003 0
M  V30 6053 H 575.274 -0.87242 8.13837 0
M  V30 6054 N 577.937 -1.40673 -0.710563 0
M  V30 6055 C 578.867 -1.44095 -1.83736 0
M  V30 6056 C 579.848 -0.301286 -1.67411 0
M  V30 6057 O 581.033 -0.510618 -1.87367 0
M  V30 6058 C 578.163 -1.30773 -3.21738 0
M  V30 6059 C 577.117 -2.42395 -3.52745 0
M  V30 6060 C 576.443 -2.14147 -4.89944 0
M  V30 6061 C 577.743 -3.84738 -3.53234 0
M  V30 6062 H 579.437 -2.38396 -1.81129 0
M  V30 6063 H 576.983 -1.14746 -0.870017 0
M  V30 6064 H 578.936 -1.31783 -4.00264 0
M  V30 6065 H 577.66 -0.329507 -3.24934 0
M  V30 6066 H 576.319 -2.40643 -2.76562 0
M  V30 6067 H 575.967 -1.14703 -4.89747 0
M  V30 6068 H 575.667 -2.88934 -5.11655 0
M  V30 6069 H 577.191 -2.16848 -5.70797 0
M  V30 6070 H 578.605 -3.88286 -4.2179 0
M  V30 6071 H 577.002 -4.59085 -3.86473 0
M  V30 6072 H 578.072 -4.13962 -2.52514 0
M  V30 6073 N 579.415 0.9433 -1.26252 0
M  V30 6074 C 580.692 1.66639 -1.02424 0
M  V30 6075 C 581.072 2.06335 0.446006 0
M  V30 6076 O 580.42 1.78551 1.42589 0
M  V30 6077 C 580.63 2.88019 -1.97094 0
M  V30 6078 C 581.978 3.59718 -2.25584 0
M  V30 6079 O 583.002 2.9812 -1.94943 0
M  V30 6080 O 581.861 4.7066 -2.77743 0
M  V30 6081 H 578.955 0.729643 -0.389294 0
M  V30 6082 H 581.501 0.995218 -1.37454 0
M  V30 6083 H 580.273 2.5556 -2.96319 0
M  V30 6084 H 579.896 3.62863 -1.62532 0
M  V30 6085 N 580.893 1.08022 1.14757 0
M  V30 6086 C 582.141 0.805913 1.85336 0
M  V30 6087 C 582.462 -0.670162 1.83122 0
M  V30 6088 O 581.732 -1.48567 1.2769 0
M  V30 6089 H 580.312 0.295138 0.686223 0
M  V30 6090 H 582.974 1.36538 1.3908 0
M  V30 6091 H 582.07 1.14655 2.90277 0
M  V30 6092 N 582.371 -1.3172 0.865308 0
M  V30 6093 C 583.599 -2.01057 0.488251 0
M  V30 6094 C 584.014 -1.64979 -0.918 0
M  V30 6095 O 583.371 -0.876597 -1.60069 0
M  V30 6096 C 583.422 -3.55964 0.630224 0
M  V30 6097 O 583.143 -3.90749 1.98109 0
M  V30 6098 C 584.644 -4.42574 0.253567 0
M  V30 6099 H 581.864 -0.64332 0.190736 0
M  V30 6100 H 584.408 -1.68058 1.16519 0
M  V30 6101 H 582.563 -3.874 0.000895422 0
M  V30 6102 H 582.977 -4.85467 1.9855 0
M  V30 6103 H 584.451 -5.50521 0.403875 0
M  V30 6104 H 584.928 -4.31724 -0.806895 0
M  V30 6105 H 585.534 -4.16547 0.858404 0
M  V30 6106 N 583.85 -0.624285 -1.44708 0
M  V30 6107 C 585.099 -0.123539 -2.01321 0
M  V30 6108 C 585.412 1.25966 -1.49639 0
M  V30 6109 O 586.618 1.85405 -1.98336 0
M  V30 6110 C 585.074 -0.170124 -3.59498 0
M  V30 6111 C 584.682 -1.55421 -4.20176 0
M  V30 6112 C 586.426 0.274513 -4.23611 0
M  V30 6113 C 584.332 -1.55628 -5.70556 0
M  V30 6114 H 583.263 -0.0424183 -0.752806 0
M  V30 6115 H 585.913 -0.782076 -1.65999 0
M  V30 6116 H 584.296 0.555385 -3.92086 0
M  V30 6117 H 585.47 -2.30276 -3.99136 0
M  V30 6118 H 583.784 -1.94235 -3.68323 0
M  V30 6119 H 586.382 0.292402 -5.339 0
M  V30 6120 H 586.725 1.3005 -3.95465 0
M  V30 6121 H 587.258 -0.398275 -3.95801 0
M  V30 6122 H 583.997 -2.56041 -6.03426 0
M  V30 6123 H 583.517 -0.850563 -5.93739 0
M  V30 6124 H 585.196 -1.28721 -6.34066 0
M  V30 6125 N 585.328 1.53329 -0.364422 0
M  V30 6126 C 586.238 2.29414 0.490552 0
M  V30 6127 C 587.254 1.35335 1.09363 0
M  V30 6128 O 588.43 1.68391 1.10483 0
M  V30 6129 C 585.495 3.06772 1.61529 0
M  V30 6130 C 584.556 4.16516 1.03986 0
M  V30 6131 C 583.789 4.90176 2.111 0
M  V30 6132 O 584.012 4.63687 3.32191 0
M  V30 6133 O 582.946 5.76134 1.74222 0
M  V30 6134 H 586.772 3.03428 -0.12856 0
M  V30 6135 H 584.357 1.48843 -0.128837 0
M  V30 6136 H 586.239 3.55082 2.26924 0
M  V30 6137 H 584.914 2.35596 2.21983 0
M  V30 6138 H 583.821 3.7246 0.349856 0
M  V30 6139 H 585.154 4.89855 0.4799 0
M  V30 6140 N 586.806 0.0935595 1.57322 0
M  V30 6141 C 588.053 -0.570509 1.94297 0
M  V30 6142 C 588.381 -1.68286 0.97519 0
M  V30 6143 O 587.636 -1.95699 -0.00548655 0
M  V30 6144 C 587.935 -1.16692 3.37813 0
M  V30 6145 C 587.601 -0.178509 4.50547 0
M  V30 6146 C 586.263 0.0933475 4.81109 0
M  V30 6147 C 588.615 0.496472 5.1883 0
M  V30 6148 C 585.943 1.0469 5.77284 0
M  V30 6149 C 588.295 1.43849 6.16028 0
M  V30 6150 C 586.959 1.71859 6.44997 0
M  V30 6151 H 586.229 -0.208764 0.710984 0
M  V30 6152 H 588.876 0.169066 1.90752 0
M  V30 6153 H 587.181 -1.98271 3.37929 0
M  V30 6154 H 588.878 -1.6884 3.63722 0
M  V30 6155 H 585.468 -0.400584 4.26724 0
M  V30 6156 H 589.652 0.299584 4.95395 0
M  V30 6157 H 584.908 1.27094 5.98044 0
M  V30 6158 H 589.082 1.96734 6.68034 0
M  V30 6159 H 586.709 2.45906 7.19329 0
M  V30 6160 N 588.284 -1.56567 -0.180126 0
M  V30 6161 C 589.194 -1.98947 -1.24327 0
M  V30 6162 C 590.21 -0.899446 -1.4895 0
M  V30 6163 O 591.386 -1.20639 -1.61271 0
M  V30 6164 C 588.451 -2.33328 -2.56435 0
M  V30 6165 C 587.512 -3.56114 -2.39752 0
M  V30 6166 C 586.745 -3.88845 -3.65561 0
M  V30 6167 O 586.968 -3.22662 -4.70368 0
M  V30 6168 O 585.902 -4.82226 -3.60197 0
M  V30 6169 H 589.728 -2.89634 -0.913565 0
M  V30 6170 H 587.313 -1.44319 -0.386306 0
M  V30 6171 H 589.195 -2.5645 -3.34382 0
M  V30 6172 H 587.87 -1.45806 -2.89002 0
M  V30 6173 H 586.777 -3.38221 -1.59866 0
M  V30 6174 H 588.11 -4.4415 -2.12113 0
M  V30 6175 N 589.762 0.448376 -1.51087 0
M  V30 6176 C 590.725 1.52588 -1.71025 0
M  V30 6177 C 591.725 1.49958 -0.580442 0
M  V30 6178 O 592.915 1.52176 -0.847833 0
M  V30 6179 C 590.047 2.92163 -1.75652 0
M  V30 6180 H 591.24 1.36218 -2.67179 0
M  V30 6181 H 588.793 0.676313 -1.4091 0
M  V30 6182 H 589.528 3.13951 -0.812724 0
M  V30 6183 H 589.313 2.95478 -2.57751 0
M  V30 6184 H 590.803 3.70349 -1.92953 0
M  V30 6185 N 591.24 1.41047 0.703093 0
M  V30 6186 C 592.187 1.42302 1.81711 0
M  V30 6187 C 593.157 0.278336 1.63751 0
M  V30 6188 O 594.342 0.478266 1.84709 0
M  V30 6189 C 591.482 1.30362 3.19531 0
M  V30 6190 C 590.595 2.54638 3.48975 0
M  V30 6191 C 589.73 2.35047 4.76368 0
M  V30 6192 C 588.769 3.54837 4.98756 0
M  V30 6193 N 587.906 3.34363 6.1737 0
M  V30 6194 H 592.746 2.37516 1.79973 0
M  V30 6195 H 590.283 1.1795 0.878983 0
M  V30 6196 H 592.241 1.21443 3.99134 0
M  V30 6197 H 590.871 0.387602 3.20464 0
M  V30 6198 H 589.923 2.74037 2.63833 0
M  V30 6199 H 591.235 3.43766 3.61423 0
M  V30 6200 H 590.389 2.23552 5.64012 0
M  V30 6201 H 589.128 1.43363 4.66153 0
M  V30 6202 H 588.133 3.66795 4.09563 0
M  V30 6203 H 589.358 4.47464 5.10835 0
M  V30 6204 H 587.304 2.45373 6.08382 0
M  V30 6205 H 587.221 4.17063 6.30551 0
M  V30 6206 H 588.489 3.26626 7.07768 0
M  V30 6207 N 592.718 -0.936591 1.26751 0
M  V30 6208 C 593.681 -2.01752 1.08761 0
M  V30 6209 C 594.681 -1.60763 0.0344435 0
M  V30 6210 O 595.871 -1.71963 0.278258 0
M  V30 6211 C 593.003 -3.34543 0.655271 0
M  V30 6212 H 594.196 -2.19143 2.04735 0
M  V30 6213 H 591.749 -1.11618 1.09413 0
M  V30 6214 H 592.484 -3.22851 -0.30626 0
M  V30 6215 H 592.269 -3.65647 1.41578 0
M  V30 6216 H 593.759 -4.13944 0.551378 0
M  V30 6217 N 594.196 -1.08629 -1.14182 0
M  V30 6218 C 595.424 -0.838889 -1.8913 0
M  V30 6219 C 595.839 0.609153 -1.78703 0
M  V30 6220 O 595.196 1.41876 -1.14794 0
M  V30 6221 C 595.247 -1.25477 -3.39025 0
M  V30 6222 O 594.968 -2.64601 -3.49167 0
M  V30 6223 C 596.469 -1.03856 -4.30963 0
M  V30 6224 H 593.689 -0.302377 -0.599007 0
M  V30 6225 H 596.233 -1.44615 -1.44592 0
M  V30 6226 H 594.388 -0.691571 -3.81177 0
M  V30 6227 H 594.802 -2.81922 -4.42289 0
M  V30 6228 H 596.276 -1.37892 -5.345 0
M  V30 6229 H 596.753 0.0242522 -4.39193 0
M  V30 6230 H 597.359 -1.58731 -3.94569 0
M  V30 6231 N 595.674 1.31259 -0.872281 0
M  V30 6232 C 596.922 1.96233 -0.483409 0
M  V30 6233 C 597.243 1.69276 0.968012 0
M  V30 6234 O 596.513 1.00943 1.67891 0
M  V30 6235 H 595.093 0.726025 -0.175774 0
M  V30 6236 H 597.755 1.60024 -1.11258 0
M  V30 6237 H 596.851 3.05403 -0.643075 0
M  V30 6238 N 597.152 0.631951 1.44375 0
M  V30 6239 C 598.398 0.13697 2.02337 0
M  V30 6240 C 598.731 -1.23826 1.49602 0
M  V30 6241 O 598.006 -1.8221 0.680415 0
M  V30 6242 C 598.289 0.124536 3.59885 0
M  V30 6243 C 598.142 1.53217 4.229 0
M  V30 6244 C 599.461 -0.550481 4.36644 0
M  V30 6245 H 596.58 0.051247 0.735216 0
M  V30 6246 H 599.222 0.808581 1.71936 0
M  V30 6247 H 597.372 -0.44737 3.85916 0
M  V30 6248 H 599.044 2.15303 4.07973 0
M  V30 6249 H 597.287 2.0858 3.80364 0
M  V30 6250 H 597.958 1.4755 5.31914 0
M  V30 6251 H 600.434 -0.0641154 4.16051 0
M  V30 6252 H 599.31 -0.528371 5.46351 0
M  V30 6253 H 599.571 -1.62097 4.11311 0
M  V30 6254 N 598.631 -1.53133 0.372548 0
M  V30 6255 C 599.877 -2.01654 -0.215277 0
M  V30 6256 C 600.21 -1.25914 -1.47849 0
M  V30 6257 O 599.485 -0.3548 -1.91237 0
M  V30 6258 C 599.768 -3.56609 -0.500187 0
M  V30 6259 C 599.621 -4.43036 0.777145 0
M  V30 6260 C 600.94 -4.20528 -1.29786 0
M  V30 6261 H 598.059 -0.732991 -0.0767686 0
M  V30 6262 H 600.701 -1.83335 0.498814 0
M  V30 6263 H 598.851 -3.7235 -1.10852 0
M  V30 6264 H 600.523 -4.39079 1.41447 0
M  V30 6265 H 598.766 -4.10723 1.39604 0
M  V30 6266 H 599.437 -5.49424 0.532662 0
M  V30 6267 H 601.913 -4.08663 -0.783198 0
M  V30 6268 H 600.789 -5.28962 -1.46596 0
M  V30 6269 H 601.05 -3.77051 -2.30836 0
M  V30 6270 N 600.109 -0.101901 -1.5727 0
M  V30 6271 C 601.356 0.560197 -1.94597 0
M  V30 6272 C 601.684 1.67767 -0.984101 0
M  V30 6273 O 600.939 1.95699 -0.00489193 0
M  V30 6274 C 601.238 1.14898 -3.38427 0
M  V30 6275 C 600.904 0.154613 -4.50635 0
M  V30 6276 C 599.566 -0.118861 -4.81053 0
M  V30 6277 C 601.918 -0.523979 -5.18559 0
M  V30 6278 C 599.246 -1.0775 -5.76721 0
M  V30 6279 C 601.598 -1.47114 -6.15256 0
M  V30 6280 C 600.262 -1.75278 -6.44076 0
M  V30 6281 H 599.532 0.204991 -0.712081 0
M  V30 6282 H 602.179 -0.17918 -1.9066 0
M  V30 6283 H 600.484 1.96476 -3.38976 0
M  V30 6284 H 602.181 1.66909 -3.64613 0
M  V30 6285 H 598.771 0.377948 -4.2693 0
M  V30 6286 H 602.955 -0.325851 -4.95229 0
M  V30 6287 H 598.211 -1.30263 -5.97362 0
M  V30 6288 H 602.385 -2.00274 -6.66981 0
M  V30 6289 H 600.012 -2.49717 -7.18015 0
M  V30 6290 N 601.587 1.56661 0.17182 0
M  V30 6291 C 602.815 1.861 0.904115 0
M  V30 6292 C 603.23 0.687227 1.75848 0
M  V30 6293 O 602.587 -0.343671 1.79235 0
M  V30 6294 C 602.638 3.14568 1.78127 0
M  V30 6295 O 602.359 4.27422 0.961366 0
M  V30 6296 C 603.86 3.5735 2.62327 0
M  V30 6297 H 601.08 0.617445 0.262684 0
M  V30 6298 H 603.624 2.03775 0.172068 0
M  V30 6299 H 601.779 2.98721 2.46666 0
M  V30 6300 H 602.193 5.00725 1.56123 0
M  V30 6301 H 603.667 4.50144 3.1949 0
M  V30 6302 H 604.144 2.81445 3.37173 0
M  V30 6303 H 604.75 3.75807 1.99121 0
M  V30 6304 N 603.065 -0.440357 1.51323 0
M  V30 6305 C 604.29 -1.21716 1.67928 0
M  V30 6306 C 604.715 -1.84328 0.374826 0
M  V30 6307 O 604.073 -1.68675 -0.664706 0
M  V30 6308 C 604.121 -2.27914 2.79442 0
M  V30 6309 O 603.225 -3.33325 2.42834 0
M  V30 6310 H 602.566 -0.35674 0.560029 0
M  V30 6311 H 605.096 -0.520417 1.97871 0
M  V30 6312 H 605.106 -2.72746 3.03436 0
M  V30 6313 H 603.781 -1.8172 3.741 0
M  V30 6314 H 602.358 -2.9399 2.294 0
M  V30 6315 N 604.543 -1.41418 -0.695603 0
M  V30 6316 C 605.506 -1.42988 -1.79129 0
M  V30 6317 C 606.506 -0.320514 -1.57573 0
M  V30 6318 O 607.696 -0.58039 -1.64247 0
M  V30 6319 C 604.828 -1.24122 -3.175 0
M  V30 6320 H 606.021 -2.40526 -1.7913 0
M  V30 6321 H 603.574 -1.2756 -0.903225 0
M  V30 6322 H 604.309 -0.274253 -3.23138 0
M  V30 6323 H 604.094 -2.045 -3.34547 0
M  V30 6324 H 605.584 -1.28056 -3.97481 0
M  V30 6325 N 606.021 0.929856 -1.27246 0
M  V30 6326 C 607.268 1.67731 -1.13457 0
M  V30 6327 C 607.596 1.9185 0.319998 0
M  V30 6328 O 606.851 1.50524 1.25064 0
M  V30 6329 C 607.15 3.05116 -1.86115 0
M  V30 6330 C 606.816 3.00715 -3.35978 0
M  V30 6331 C 605.478 2.99222 -3.76855 0
M  V30 6332 C 607.83 2.92168 -4.3161 0
M  V30 6333 C 605.158 2.86962 -5.11732 0
M  V30 6334 C 607.51 2.81449 -5.66542 0
M  V30 6335 C 606.174 2.78305 -6.06715 0
M  V30 6336 H 605.444 0.613772 -0.415168 0
M  V30 6337 H 608.091 1.08456 -1.57827 0
M  V30 6338 H 606.396 3.68083 -1.34246 0
M  V30 6339 H 608.093 3.61822 -1.72876 0
M  V30 6340 H 604.683 3.02664 -3.03468 0
M  V30 6341 H 608.867 2.92421 -4.01003 0
M  V30 6342 H 604.123 2.82913 -5.42006 0
M  V30 6343 H 608.297 2.738 -6.40317 0
M  V30 6344 H 605.924 2.68561 -7.11181 0
M  V30 6345 N 607.499 1.09233 1.13605 0
M  V30 6346 C 608.91 0.846839 1.6639 0
M  V30 6347 C 609.261 -0.625031 1.85978 0
M  V30 6348 O 608.386 -1.48173 1.57714 0
M  V30 6349 C 608.981 1.5307 3.0225 0
M  V30 6350 C 607.54 1.33223 3.52035 0
M  V30 6351 C 606.687 1.58806 2.27323 0
M  V30 6352 H 609.638 1.25175 0.975541 0
M  V30 6353 H 609.659 0.96267 3.68121 0
M  V30 6354 H 609.171 2.60192 2.87961 0
M  V30 6355 H 607.272 0.282091 3.71531 0
M  V30 6356 H 607.385 2.0657 4.32279 0
M  V30 6357 H 605.749 1.01007 2.33815 0
M  V30 6358 H 606.532 2.67153 2.15602 0
M  V30 6359 N 608.977 -1.30795 0.87923 0
M  V30 6360 C 609.887 -2.32041 0.345565 0
M  V30 6361 C 610.903 -1.65103 -0.549265 0
M  V30 6362 O 612.079 -1.9645 -0.443763 0
M  V30 6363 C 609.144 -3.43944 -0.436245 0
M  V30 6364 C 608.205 -4.26521 0.48765 0
M  V30 6365 C 607.438 -5.33081 -0.256943 0
M  V30 6366 O 607.661 -5.50762 -1.48381 0
M  V30 6367 O 606.595 -6.00635 0.389985 0
M  V30 6368 H 610.421 -2.79627 1.18501 0
M  V30 6369 H 608.006 -1.3486 0.642885 0
M  V30 6370 H 609.888 -4.12128 -0.879119 0
M  V30 6371 H 608.563 -2.98504 -1.25208 0
M  V30 6372 H 607.47 -3.61057 0.979216 0
M  V30 6373 H 608.803 -4.75551 1.26933 0
M  V30 6374 N 610.455 -0.639598 -1.44038 0
M  V30 6375 C 611.703 -0.147188 -2.01563 0
M  V30 6376 C 612.024 1.2384 -1.50628 0
M  V30 6377 O 611.294 1.82452 -0.713316 0
M  V30 6378 H 609.874 -0.0514231 -0.745228 0
M  V30 6379 H 612.536 -0.828205 -1.76428 0
M  V30 6380 H 611.632 -0.121358 -3.11864 0
M  V30 6381 N 611.933 1.52934 -0.380664 0
M  V30 6382 C 613.181 2.01069 0.203874 0
M  V30 6383 C 613.502 1.26922 1.4804 0
M  V30 6384 O 612.772 0.386787 1.92044 0
M  V30 6385 H 611.352 0.742882 0.0783279 0
M  V30 6386 H 614.014 1.88099 -0.510368 0
M  V30 6387 H 613.11 3.09258 0.42021 0
M  V30 6388 N 613.412 0.11024 1.57214 0
M  V30 6389 C 614.637 -0.561179 1.99664 0
M  V30 6390 C 615.062 -1.59985 0.989266 0
M  V30 6391 O 614.42 -1.81255 -0.0402399 0
M  V30 6392 C 614.468 -1.17189 3.41027 0
M  V30 6393 O 613.572 -2.28755 3.4314 0
M  V30 6394 H 612.913 -0.14101 0.648855 0
M  V30 6395 H 615.443 0.196128 2.03658 0
M  V30 6396 H 615.453 -1.50954 3.79047 0
M  V30 6397 H 614.128 -0.411041 4.13864 0
M  V30 6398 H 612.705 -1.96495 3.16929 0
M  V30 6399 N 614.89 -1.56749 -0.16351 0
M  V30 6400 C 616.167 -1.73321 -0.906599 0
M  V30 6401 C 616.547 -0.673779 -2.00059 0
M  V30 6402 O 615.895 0.310121 -2.26386 0
M  V30 6403 C 616.105 -3.168 -1.46419 0
M  V30 6404 C 617.453 -3.77993 -1.93407 0
M  V30 6405 O 618.477 -3.20127 -1.56196 0
M  V30 6406 O 617.336 -4.79615 -2.61976 0
M  V30 6407 H 614.43 -0.708073 -0.427272 0
M  V30 6408 H 616.976 -1.69029 -0.150727 0
M  V30 6409 H 615.748 -3.85396 -0.677189 0
M  V30 6410 H 615.371 -3.2545 -2.28403 0
M  V30 6411 N 616.368 0.432326 -1.51554 0
M  V30 6412 C 617.316 1.54572 -1.73811 0
M  V30 6413 C 618.31 1.58246 -0.604539 0
M  V30 6414 O 619.516 1.6193 -0.786041 0
M  V30 6415 H 615.891 0.513626 -0.549265 0
M  V30 6416 H 617.862 1.32977 -2.67132 0
M  V30 6417 C 616.611 2.92181 -1.88483 0
M  V30 6418 H 615.934 2.90088 -2.75116 0
M  V30 6419 H 617.374 3.69439 -2.08065 0
M  V30 6420 C 615.833 3.3065 -0.645909 0
M  V30 6421 O 616.363 4.01216 0.197093 0
M  V30 6422 N 614.569 2.86464 -0.488538 0
M  V30 6423 H 614.116 2.29209 -1.17562 0
M  V30 6424 H 614.074 3.12565 0.339156 0
M  V30 6425 N 617.846 1.41785 0.688094 0
M  V30 6426 C 619.095 1.4084 1.44385 0
M  V30 6427 C 619.408 0.0234166 1.95586 0
M  V30 6428 O 620.614 -0.108647 2.71283 0
M  V30 6429 C 619.07 2.47675 2.61123 0
M  V30 6430 C 618.678 3.92116 2.16677 0
M  V30 6431 C 620.422 2.55877 3.38714 0
M  V30 6432 C 618.329 4.90487 3.30419 0
M  V30 6433 H 617.259 0.523787 0.542368 0
M  V30 6434 H 619.91 1.6764 0.74627 0
M  V30 6435 H 618.292 2.14018 3.33185 0
M  V30 6436 H 619.466 4.35059 1.51856 0
M  V30 6437 H 617.781 3.87642 1.5206 0
M  V30 6438 H 620.378 3.26553 4.234 0
M  V30 6439 H 620.721 1.59801 3.84408 0
M  V30 6440 H 621.254 2.88662 2.73714 0
M  V30 6441 H 617.993 5.87994 2.89729 0
M  V30 6442 H 617.513 4.52187 3.94065 0
M  V30 6443 H 619.192 5.11591 3.96085 0
M  V30 6444 N 619.324 -0.923095 1.27737 0
M  V30 6445 C 620.549 -1.71054 1.17283 0
M  V30 6446 C 620.974 -1.86208 -0.266153 0
M  V30 6447 O 620.332 -1.36545 -1.1927 0
M  V30 6448 C 620.38 -3.0854 1.86642 0
M  V30 6449 O 619.484 -3.95528 1.16752 0
M  V30 6450 H 618.825 -0.524136 0.407649 0
M  V30 6451 H 621.355 -1.15487 1.6889 0
M  V30 6452 H 621.365 -3.58828 1.94182 0
M  V30 6453 H 620.04 -2.96828 2.91317 0
M  V30 6454 H 618.617 -3.53967 1.17312 0
M  V30 6455 N 620.802 -1.09834 -1.13024 0
M  V30 6456 C 621.734 -0.699379 -2.18269 0
M  V30 6457 C 622.747 0.260841 -1.60697 0
M  V30 6458 O 623.936 0.0462538 -1.7844 0
M  V30 6459 C 621.036 -0.0104537 -3.38898 0
M  V30 6460 C 620.209 -0.993275 -4.25973 0
M  V30 6461 C 619.268 -0.336982 -5.2512 0
M  V30 6462 O 618.294 -0.985892 -5.60597 0
M  V30 6463 N 619.496 0.90716 -5.73368 0
M  V30 6464 H 622.261 -1.60486 -2.5311 0
M  V30 6465 H 619.822 -0.986337 -1.28386 0
M  V30 6466 H 621.814 0.43991 -4.02302 0
M  V30 6467 H 620.384 0.797335 -3.0226 0
M  V30 6468 H 619.604 -1.62208 -3.5928 0
M  V30 6469 H 620.892 -1.65876 -4.81002 0
M  V30 6470 H 620.29 1.45384 -5.46699 0
M  V30 6471 H 618.847 1.30077 -6.38689 0
M  V30 6472 N 622.28 1.30327 -0.886154 0
M  V30 6473 C 623.21 2.30549 -0.370028 0
M  V30 6474 C 624.191 1.61039 0.547751 0
M  V30 6475 O 625.376 1.8864 0.461353 0
M  V30 6476 C 622.506 3.44808 0.415275 0
M  V30 6477 C 621.46 4.26024 -0.41085 0
M  V30 6478 C 620.786 5.32347 0.501128 0
M  V30 6479 C 622.086 4.95433 -1.65359 0
M  V30 6480 H 623.78 2.73969 -1.20754 0
M  V30 6481 H 621.326 1.3171 -0.582097 0
M  V30 6482 H 623.279 4.13986 0.78699 0
M  V30 6483 H 622.003 3.00197 1.28644 0
M  V30 6484 H 620.662 3.58535 -0.764719 0
M  V30 6485 H 620.31 4.83982 1.37004 0
M  V30 6486 H 620.01 5.87581 -0.0478356 0
M  V30 6487 H 621.534 6.0438 0.869333 0
M  V30 6488 H 622.948 5.5712 -1.35239 0
M  V30 6489 H 621.345 5.60537 -2.14284 0
M  V30 6490 H 622.415 4.21493 -2.39733 0
M  V30 6491 N 623.758 0.647228 1.43697 0
M  V30 6492 C 624.721 -0.0385101 2.29168 0
M  V30 6493 C 625.721 -0.756487 1.41894 0
M  V30 6494 O 626.911 -0.598641 1.63591 0
M  V30 6495 C 624.043 -1.06524 3.23829 0
M  V30 6496 H 625.236 0.713445 2.9129 0
M  V30 6497 H 622.789 0.408153 1.50877 0
M  V30 6498 H 623.524 -1.84664 2.66589 0
M  V30 6499 H 623.309 -0.554147 3.88164 0
M  V30 6500 H 624.799 -1.54432 3.87996 0
M  V30 6501 N 625.236 -1.5273 0.388769 0
M  V30 6502 C 626.647 -1.86505 -0.0853788 0
M  V30 6503 C 626.998 -1.30847 -1.46197 0
M  V30 6504 O 626.123 -0.639609 -2.06732 0
M  V30 6505 C 626.718 -3.38414 -0.161703 0
M  V30 6506 C 625.277 -3.71902 -0.580144 0
M  V30 6507 C 624.424 -2.76095 0.258218 0
M  V30 6508 H 627.375 -1.46647 0.606665 0
M  V30 6509 H 627.396 -3.67638 -0.980936 0
M  V30 6510 H 626.908 -3.78893 0.840333 0
M  V30 6511 H 625.009 -3.36992 -1.58957 0
M  V30 6512 H 625.122 -4.77902 -0.338663 0
M  V30 6513 H 623.486 -2.53195 -0.276432 0
M  V30 6514 H 624.269 -3.19411 1.25822 0
M  V30 6515 N 626.714 -0.118576 -1.57153 0
M  V30 6516 C 627.962 0.538461 -1.94795 0
M  V30 6517 C 628.283 1.67243 -1.00274 0
M  V30 6518 O 627.553 1.95811 -0.0589692 0
M  V30 6519 H 626.133 0.201904 -0.719197 0
M  V30 6520 H 628.795 -0.187418 -1.93997 0
M  V30 6521 H 627.891 0.933315 -2.97818 0
M  V30 6522 N 628.193 1.56834 0.155195 0
M  V30 6523 C 629.123 2.00678 1.19376 0
M  V30 6524 C 630.104 0.884973 1.45266 0
M  V30 6525 O 631.289 1.1522 1.56326 0
M  V30 6526 C 628.419 2.38042 2.5289 0
M  V30 6527 C 627.373 3.53332 2.41538 0
M  V30 6528 C 626.699 3.76485 3.79688 0
M  V30 6529 C 627.999 4.86265 1.9064 0
M  V30 6530 H 629.693 2.87688 0.829232 0
M  V30 6531 H 627.239 1.38407 0.397445 0
M  V30 6532 H 629.192 2.67314 3.25763 0
M  V30 6533 H 627.916 1.4796 2.91162 0
M  V30 6534 H 626.575 3.24213 1.71117 0
M  V30 6535 H 626.223 2.83667 4.15382 0
M  V30 6536 H 625.923 4.54068 3.72956 0
M  V30 6537 H 627.447 4.08174 4.54122 0
M  V30 6538 H 628.861 5.14308 2.53299 0
M  V30 6539 H 627.258 5.67597 1.94818 0
M  V30 6540 H 628.328 4.77184 0.861596 0
M  V30 6541 N 629.671 -0.424282 1.51781 0
M  V30 6542 C 630.919 -1.17028 1.64769 0
M  V30 6543 C 631.24 -1.91409 0.372523 0
M  V30 6544 O 630.51 -1.86091 -0.612108 0
M  V30 6545 H 629.09 -0.434992 0.607282 0
M  V30 6546 H 631.752 -0.485169 1.88765 0
M  V30 6547 H 630.848 -1.8927 2.4816 0
M  V30 6548 N 631.149 -1.42148 -0.680565 0
M  V30 6549 C 632.112 -1.4488 -1.77602 0
M  V30 6550 C 633.112 -0.337209 -1.57224 0
M  V30 6551 O 634.302 -0.597778 -1.63622 0
M  V30 6552 C 631.434 -1.27483 -3.16166 0
M  V30 6553 H 632.627 -2.42412 -1.76568 0
M  V30 6554 H 630.18 -1.28511 -0.889645 0
M  V30 6555 H 630.915 -0.30851 -3.22829 0
M  V30 6556 H 630.7 -2.08037 -3.3236 0
M  V30 6557 H 632.19 -1.32265 -3.96101 0
M  V30 6558 N 632.627 0.916307 -1.28225 0
M  V30 6559 C 634.038 1.48024 -1.13779 0
M  V30 6560 C 634.389 1.94289 0.273139 0
M  V30 6561 O 633.514 1.82226 1.16716 0
M  V30 6562 C 634.109 2.69029 -2.05935 0
M  V30 6563 C 632.668 3.2161 -1.95561 0
M  V30 6564 C 631.815 1.94321 -1.97825 0
M  V30 6565 H 634.766 0.729272 -1.40951 0
M  V30 6566 H 634.787 3.44204 -1.62184 0
M  V30 6567 H 634.299 2.35325 -3.08616 0
M  V30 6568 H 632.4 3.60045 -0.959076 0
M  V30 6569 H 632.513 3.87032 -2.82388 0
M  V30 6570 H 630.877 2.1131 -1.42198 0
M  V30 6571 H 631.66 1.62917 -3.0218 0
M  V30 6572 N 634.105 1.10431 1.1244 0
M  V30 6573 C 635.352 0.846717 1.83948 0
M  V30 6574 C 635.68 -0.627709 1.84093 0
M  V30 6575 O 634.935 -1.47876 1.28184 0
M  V30 6576 C 635.234 1.34022 3.3132 0
M  V30 6577 C 634.9 2.82606 3.51347 0
M  V30 6578 C 633.562 3.23182 3.56521 0
M  V30 6579 C 635.914 3.78356 3.58464 0
M  V30 6580 C 633.242 4.58258 3.66356 0
M  V30 6581 C 635.594 5.13234 3.69829 0
M  V30 6582 C 634.258 5.53384 3.73259 0
M  V30 6583 H 633.528 0.309836 0.673114 0
M  V30 6584 H 636.175 1.38091 1.32677 0
M  V30 6585 H 634.48 0.726047 3.85014 0
M  V30 6586 H 636.177 1.11739 3.85118 0
M  V30 6587 H 632.767 2.50212 3.47983 0
M  V30 6588 H 636.951 3.48115 3.53737 0
M  V30 6589 H 632.207 4.88787 3.67284 0
M  V30 6590 H 636.381 5.87272 3.74279 0
M  V30 6591 H 634.008 6.58045 3.80633 0
M  V30 6592 N 635.583 -1.29855 0.893053 0
M  V30 6593 C 636.533 -2.25493 0.337211 0
M  V30 6594 C 637.517 -1.51606 -0.53894 0
M  V30 6595 O 638.709 -1.72828 -0.382043 0
M  V30 6596 C 635.838 -3.40467 -0.440117 0
M  V30 6597 C 634.924 -4.217 0.450578 0
M  V30 6598 N 635.315 -4.81312 1.55476 0
M  V30 6599 C 633.613 -4.45315 0.247154 0
M  V30 6600 C 634.314 -5.42241 2.10593 0
M  V30 6601 N 633.29 -5.25267 1.39982 0
M  V30 6602 H 637.092 -2.69137 1.18079 0
M  V30 6603 H 634.606 -1.44388 0.743359 0
M  V30 6604 H 636.603 -4.08038 -0.855021 0
M  V30 6605 H 635.263 -2.98361 -1.28104 0
M  V30 6606 H 636.274 -4.80291 1.93755 0
M  V30 6607 H 632.951 -4.13782 -0.555939 0
M  V30 6608 H 634.341 -5.99517 3.03362 0
M  V30 6609 N 637.061 -0.65484 -1.43351 0
M  V30 6610 C 637.993 0.0744757 -2.29079 0
M  V30 6611 C 639.006 0.7855 -1.42596 0
M  V30 6612 O 640.195 0.642986 -1.66517 0
M  V30 6613 C 637.295 1.12859 -3.19556 0
M  V30 6614 C 636.468 0.495381 -4.34586 0
M  V30 6615 C 635.527 1.44659 -5.05925 0
M  V30 6616 O 634.553 0.954567 -5.61139 0
M  V30 6617 N 635.755 2.78051 -5.09576 0
M  V30 6618 H 638.52 -0.661346 -2.92312 0
M  V30 6619 H 636.081 -0.497744 -1.54059 0
M  V30 6620 H 638.073 1.76577 -3.64147 0
M  V30 6621 H 636.643 1.76636 -2.57912 0
M  V30 6622 H 635.863 -0.32092 -3.92892 0
M  V30 6623 H 637.151 0.0534203 -5.08772 0
M  V30 6624 H 636.549 3.20584 -4.66093 0
M  V30 6625 H 635.106 3.37068 -5.57878 0
M  V30 6626 N 638.539 1.52521 -0.396863 0
M  V30 6627 C 639.489 2.2348 0.451722 0
M  V30 6628 C 640.473 1.2415 1.0235 0
M  V30 6629 O 641.665 1.4945 0.948348 0
M  V30 6630 C 638.794 3.05067 1.57445 0
M  V30 6631 C 637.88 4.11799 1.01404 0
M  V30 6632 N 638.271 5.05482 0.179234 0
M  V30 6633 C 636.569 4.27064 1.28578 0
M  V30 6634 C 637.27 5.81552 -0.131202 0
M  V30 6635 N 636.246 5.41523 0.474735 0
M  V30 6636 H 640.048 2.93269 -0.192534 0
M  V30 6637 H 637.562 1.61081 -0.206591 0
M  V30 6638 H 639.559 3.54446 2.19485 0
M  V30 6639 H 638.219 2.36816 2.22145 0
M  V30 6640 H 639.23 5.17573 -0.18411 0
M  V30 6641 H 635.907 3.70042 1.93327 0
M  V30 6642 H 637.297 6.67023 -0.808061 0
M  V30 6643 N 640.017 0.126909 1.57088 0
M  V30 6644 C 641.266 -0.529024 1.94639 0
M  V30 6645 C 641.579 -1.67323 1.01304 0
M  V30 6646 O 642.785 -2.39245 1.28352 0
M  V30 6647 C 641.241 -0.992483 3.45945 0
M  V30 6648 C 640.849 0.123691 4.47829 0
M  V30 6649 C 642.593 -1.61934 3.924 0
M  V30 6650 C 640.5 -0.356911 5.90322 0
M  V30 6651 H 639.43 -0.201397 0.726605 0
M  V30 6652 H 642.081 0.208032 1.82317 0
M  V30 6653 H 640.463 -1.7842 3.53528 0
M  V30 6654 H 641.637 0.900168 4.51922 0
M  V30 6655 H 639.952 0.657699 4.11173 0
M  V30 6656 H 642.549 -1.9902 4.96281 0
M  V30 6657 H 642.892 -2.50075 3.32819 0
M  V30 6658 H 643.425 -0.892894 3.8765 0
M  V30 6659 H 640.164 0.488636 6.53676 0
M  V30 6660 H 639.684 -1.0997 5.89633 0
M  V30 6661 H 641.363 -0.815547 6.41839 0
M  V30 6662 N 641.495 -1.56914 -0.146875 0
M  V30 6663 C 642.742 -1.83356 -0.859467 0
M  V30 6664 C 643.07 -0.707811 -1.81164 0
M  V30 6665 O 642.325 0.303155 -1.93338 0
M  V30 6666 C 642.624 -3.16128 -1.66727 0
M  V30 6667 C 642.29 -4.42586 -0.861881 0
M  V30 6668 C 640.952 -4.76929 -0.639687 0
M  V30 6669 C 643.304 -5.20344 -0.298643 0
M  V30 6670 C 640.632 -5.86491 0.156451 0
M  V30 6671 C 642.984 -6.30742 0.484536 0
M  V30 6672 C 641.648 -6.63635 0.717306 0
M  V30 6673 H 640.918 -0.670947 -0.314501 0
M  V30 6674 H 643.565 -1.91104 -0.123108 0
M  V30 6675 H 641.87 -3.03831 -2.47374 0
M  V30 6676 H 643.567 -3.33802 -2.2221 0
M  V30 6677 H 640.157 -4.15662 -1.04513 0
M  V30 6678 H 644.341 -4.94186 -0.457585 0
M  V30 6679 H 639.597 -6.10419 0.346292 0
M  V30 6680 H 643.771 -6.90188 0.928105 0
M  V30 6681 H 641.398 -7.48367 1.33607 0
M  V30 6682 N 642.974 0.416227 -1.52004 0
M  V30 6683 C 644.199 1.19029 -1.69843 0
M  V30 6684 C 644.624 1.83708 -0.404103 0
M  V30 6685 O 643.982 1.69711 0.637787 0
M  V30 6686 C 644.03 2.23439 -2.83032 0
M  V30 6687 O 643.134 3.29419 -2.48106 0
M  V30 6688 H 642.475 0.347785 -0.565634 0
M  V30 6689 H 645.005 0.488871 -1.98674 0
M  V30 6690 H 645.015 2.67884 -3.07737 0
M  V30 6691 H 643.69 1.75745 -3.76944 0
M  V30 6692 H 642.267 2.90303 -2.34048 0
M  V30 6693 N 644.452 1.42507 0.673017 0
M  V30 6694 C 645.415 1.4582 1.76831 0
M  V30 6695 C 646.415 0.345542 1.57043 0
M  V30 6696 O 647.605 0.606447 1.63303 0
M  V30 6697 C 644.737 1.29158 3.15485 0
M  V30 6698 H 645.93 2.43345 1.7528 0
M  V30 6699 H 643.483 1.28981 0.882817 0
M  V30 6700 H 644.218 0.325626 3.22661 0
M  V30 6701 H 644.003 2.09797 3.31252 0
M  V30 6702 H 645.493 1.34363 3.95394 0
M  V30 6703 N 645.93 -0.909495 1.28709 0
M  V30 6704 C 647.346 -1.18862 1.06508 0
M  V30 6705 C 647.546 -2.00604 -0.189864 0
M  V30 6706 O 646.602 -2.36281 -0.890355 0
M  V30 6707 C 647.915 -1.91908 2.31499 0
M  V30 6708 C 649.463 -2.04773 2.36721 0
M  V30 6709 C 649.938 -2.81228 3.6149 0
M  V30 6710 N 651.429 -2.88787 3.62155 0
M  V30 6711 C 652.164 -3.48455 4.55375 0
M  V30 6712 N 651.66 -4.09369 5.58918 0
M  V30 6713 N 653.453 -3.46035 4.42963 0
M  V30 6714 H 645.604 -0.363867 2.0926 0
M  V30 6715 H 647.867 -0.223649 0.921241 0
M  V30 6716 H 647.573 -1.39275 3.22948 0
M  V30 6717 H 647.447 -2.92436 2.38245 0
M  V30 6718 H 649.834 -2.56585 1.45767 0
M  V30 6719 H 649.915 -1.03408 2.33967 0
M  V30 6720 H 649.559 -2.30094 4.5279 0
M  V30 6721 H 649.489 -3.82917 3.61499 0
M  V30 6722 H 651.98 -2.45514 2.87283 0
M  V30 6723 H 652.293 -4.52891 6.26187 0
M  V30 6724 H 650.638 -4.0786 5.62739 0
M  V30 6725 H 653.829 -2.9766 3.6127 0
M  V30 6726 H 654.002 -3.92244 5.15799 0
M  V30 6727 N 647.408 -1.11026 -1.11852 0
M  V30 6728 C 648.338 -0.786812 -2.19844 0
M  V30 6729 C 649.319 0.242935 -1.68356 0
M  V30 6730 O 650.504 0.107355 -1.93903 0
M  V30 6731 C 647.634 -0.224516 -3.46574 0
M  V30 6732 C 646.588 -1.18564 -4.1125 0
M  V30 6733 C 645.914 -0.484261 -5.32503 0
M  V30 6734 C 647.214 -2.53465 -4.56676 0
M  V30 6735 H 648.908 -1.68978 -2.47158 0
M  V30 6736 H 646.454 -0.813906 -1.18792 0
M  V30 6737 H 648.407 0.0139435 -4.21398 0
M  V30 6738 H 647.131 0.713722 -3.18706 0
M  V30 6739 H 645.79 -1.40966 -3.38414 0
M  V30 6740 H 645.438 0.458646 -5.00905 0
M  V30 6741 H 645.138 -1.12526 -5.76725 0
M  V30 6742 H 646.662 -0.254492 -6.10069 0
M  V30 6743 H 648.076 -2.35177 -5.22843 0
M  V30 6744 H 646.473 -3.13507 -5.11697 0
M  V30 6745 H 647.543 -3.13008 -3.70343 0
M  V30 6746 N 648.886 1.2938 -0.899927 0
M  V30 6747 C 650.163 1.9046 -0.445443 0
M  V30 6748 C 650.543 1.81683 1.07492 0
M  V30 6749 O 649.891 1.24371 1.91688 0
M  V30 6750 C 650.101 3.35529 -0.960279 0
M  V30 6751 C 651.449 4.12556 -1.00412 0
M  V30 6752 O 652.473 3.44434 -0.907965 0
M  V30 6753 O 651.332 5.34294 -1.14857 0
M  V30 6754 H 648.426 0.815253 -0.138893 0
M  V30 6755 H 650.972 1.37844 -0.989808 0
M  V30 6756 H 649.744 3.36074 -2.00425 0
M  V30 6757 H 649.367 3.95624 -0.395939 0
M  V30 6758 N 650.364 0.662433 1.43002 0
M  V30 6759 C 651.297 -0.073459 2.28082 0
M  V30 6760 C 652.275 -0.820869 1.40358 0
M  V30 6761 O 653.459 -0.818545 1.698 0
M  V30 6762 C 650.586 -1.11097 3.19961 0
M  V30 6763 C 649.632 -0.460557 4.24006 0
M  V30 6764 S 650.465 0.772717 5.29896 0
M  V30 6765 C 651.621 -0.264028 6.25343 0
M  V30 6766 H 651.854 0.648227 2.90147 0
M  V30 6767 H 649.387 0.451566 1.47649 0
M  V30 6768 H 651.345 -1.70452 3.73439 0
M  V30 6769 H 650.006 -1.80503 2.57056 0
M  V30 6770 H 649.199 -1.24299 4.88432 0
M  V30 6771 H 648.801 0.0591038 3.73953 0
M  V30 6772 H 651.093 -1.12748 6.68052 0
M  V30 6773 H 652.036 0.345443 7.07257 0
M  V30 6774 H 652.444 -0.603964 5.6126 0
M  V30 6775 N 651.842 -1.52309 0.404946 0
M  V30 6776 C 652.805 -2.25491 -0.410651 0
M  V30 6777 C 653.805 -1.27704 -0.977154 0
M  V30 6778 O 654.995 -1.51679 -0.856691 0
M  V30 6779 C 652.127 -3.02197 -1.57765 0
M  V30 6780 H 653.32 -2.99015 0.230277 0
M  V30 6781 H 650.873 -1.55506 0.157377 0
M  V30 6782 H 651.608 -2.33013 -2.25556 0
M  V30 6783 H 651.393 -3.73987 -1.17797 0
M  V30 6784 H 652.883 -3.57719 -2.15469 0
M  V30 6785 N 653.32 -0.135238 -1.57019 0
M  V30 6786 C 654.569 0.518694 -1.94917 0
M  V30 6787 C 654.882 1.66783 -1.0219 0
M  V30 6788 O 656.088 2.38561 -1.29619 0
M  V30 6789 C 654.544 0.974123 -3.46466 0
M  V30 6790 C 654.152 -0.147439 -4.47757 0
M  V30 6791 C 655.896 1.59851 -3.93253 0
M  V30 6792 C 653.803 0.325599 -5.90503 0
M  V30 6793 H 652.733 0.19754 -0.727663 0
M  V30 6794 H 655.384 -0.217698 -1.82204 0
M  V30 6795 H 653.766 1.76542 -3.5447 0
M  V30 6796 H 654.94 -0.924122 -4.51438 0
M  V30 6797 H 653.255 -0.679496 -4.10818 0
M  V30 6798 H 655.852 1.96385 -4.9733 0
M  V30 6799 H 656.195 2.48306 -3.3414 0
M  V30 6800 H 656.728 0.872323 -3.88118 0
M  V30 6801 H 653.467 -0.523295 -6.53408 0
M  V30 6802 H 652.987 1.06841 -5.90208 0
M  V30 6803 H 654.666 0.781498 -6.42263 0
M  V30 6804 N 654.798 1.5699 0.138552 0
M  V30 6805 C 656.075 1.74741 0.87891 0
M  V30 6806 C 656.455 0.705522 1.98961 0
M  V30 6807 O 655.803 -0.274066 2.2685 0
M  V30 6808 C 656.013 3.1909 1.4136 0
M  V30 6809 C 657.361 3.81023 1.87368 0
M  V30 6810 O 658.385 3.22571 1.51084 0
M  V30 6811 O 657.244 4.83722 2.54312 0
M  V30 6812 H 654.338 0.714781 0.415953 0
M  V30 6813 H 656.884 1.69248 0.123817 0
M  V30 6814 H 655.656 3.86424 0.61579 0
M  V30 6815 H 655.279 3.29043 2.23196 0
M  V30 6816 N 656.276 -0.40816 1.52223 0
M  V30 6817 C 657.524 -1.15274 1.66001 0
M  V30 6818 C 657.845 -1.91003 0.392803 0
M  V30 6819 O 657.115 -1.8673 -0.592336 0
M  V30 6820 H 655.695 -0.428526 0.611861 0
M  V30 6821 H 658.357 -0.46512 1.89269 0
M  V30 6822 H 657.453 -1.86628 2.50153 0
M  V30 6823 N 657.755 -1.42862 -0.66545 0
M  V30 6824 C 659.002 -1.4383 -1.42546 0
M  V30 6825 C 659.33 -0.0581114 -1.94413 0
M  V30 6826 O 658.585 0.935002 -1.71919 0
M  V30 6827 C 658.884 -2.4175 -2.63233 0
M  V30 6828 C 658.55 -3.87915 -2.29854 0
M  V30 6829 C 657.212 -4.27726 -2.20463 0
M  V30 6830 C 659.564 -4.80074 -2.02924 0
M  V30 6831 C 656.892 -5.57666 -1.82279 0
M  V30 6832 C 659.244 -6.10366 -1.66242 0
M  V30 6833 C 657.908 -6.49167 -1.55367 0
M  V30 6834 H 657.178 -0.52631 -0.521612 0
M  V30 6835 H 659.825 -1.75863 -0.757914 0
M  V30 6836 H 658.13 -2.03077 -3.35063 0
M  V30 6837 H 659.827 -2.39759 -3.21429 0
M  V30 6838 H 656.417 -3.564 -2.3807 0
M  V30 6839 H 660.601 -4.50097 -2.09108 0
M  V30 6840 H 655.857 -5.8658 -1.72436 0
M  V30 6841 H 660.031 -6.81258 -1.44432 0
M  V30 6842 H 657.658 -7.49761 -1.2555 0
M  V30 6843 N 659.233 0.902656 -1.29189 0
M  V30 6844 C 660.461 1.68639 -1.19869 0
M  V30 6845 C 660.876 1.87254 0.241121 0
M  V30 6846 O 660.233 1.40745 1.16177 0
M  V30 6847 C 660.284 3.07251 -1.90471 0
M  V30 6848 O 660.005 2.89488 -3.28829 0
M  V30 6849 C 661.506 4.01653 -1.8759 0
M  V30 6850 H 658.726 0.526802 -0.415596 0
M  V30 6851 H 661.27 1.12901 -1.7051 0
M  V30 6852 H 659.425 3.59774 -1.43672 0
M  V30 6853 H 659.839 3.77296 -3.64346 0
M  V30 6854 H 661.313 4.96339 -2.4156 0
M  V30 6855 H 661.79 4.30881 -0.850756 0
M  V30 6856 H 662.396 3.55061 -2.34119 0
M  V30 6857 N 660.711 1.11618 1.11262 0
M  V30 6858 C 661.659 0.771291 2.1944 0
M  V30 6859 C 662.653 -0.238073 1.67719 0
M  V30 6860 O 663.859 -0.0971628 1.79738 0
M  V30 6861 H 660.234 0.231548 0.715465 0
M  V30 6862 H 662.205 1.69226 2.45775 0
M  V30 6863 C 660.954 0.232765 3.4692 0
M  V30 6864 H 660.277 1.00072 3.87073 0
M  V30 6865 H 661.717 0.0296561 4.2399 0
M  V30 6866 C 660.176 -1.03738 3.20531 0
M  V30 6867 O 660.706 -2.11675 3.41404 0
M  V30 6868 N 658.912 -0.960906 2.74253 0
M  V30 6869 H 658.459 -0.0824323 2.57468 0
M  V30 6870 H 658.417 -1.8114 2.56974 0
M  V30 6871 N 662.189 -1.289 0.906776 0
M  V30 6872 C 663.605 -1.47733 0.603902 0
M  V30 6873 C 663.805 -1.82568 -0.852702 0
M  V30 6874 O 662.861 -1.92642 -1.63234 0
M  V30 6875 C 664.174 -2.58522 1.53581 0
M  V30 6876 C 665.722 -2.72394 1.54177 0
M  V30 6877 C 666.197 -3.86318 2.46013 0
M  V30 6878 N 667.688 -3.93661 2.441 0
M  V30 6879 C 668.423 -4.81177 3.11859 0
M  V30 6880 N 667.919 -5.73333 3.88923 0
M  V30 6881 N 669.712 -4.74728 3.00981 0
M  V30 6882 H 661.863 -1.04567 1.84877 0
M  V30 6883 H 664.126 -0.520118 0.792579 0
M  V30 6884 H 663.832 -2.39667 2.57396 0
M  V30 6885 H 663.706 -3.55475 1.26165 0
M  V30 6886 H 666.093 -2.90641 0.511034 0
M  V30 6887 H 666.174 -1.75993 1.85634 0
M  V30 6888 H 665.818 -3.68826 3.49185 0
M  V30 6889 H 665.748 -4.82102 2.11862 0
M  V30 6890 H 668.239 -3.27751 1.88115 0
M  V30 6891 H 668.552 -6.36923 4.37663 0
M  V30 6892 H 666.897 -5.73196 3.93029 0
M  V30 6893 H 670.088 -4.01722 2.40286 0
M  V30 6894 H 670.261 -5.42719 3.54062 0
M  V30 6895 N 663.667 -0.670007 -1.42649 0
M  V30 6896 C 664.913 -0.190568 -2.01903 0
M  V30 6897 C 665.246 1.19817 -1.52832 0
M  V30 6898 O 664.521 1.80342 -0.728485 0
M  V30 6899 C 664.804 -0.21991 -3.59428 0
M  V30 6900 C 664.657 -1.64376 -4.18689 0
M  V30 6901 C 665.976 0.434519 -4.3795 0
M  V30 6902 H 663.095 -0.0707219 -0.733599 0
M  V30 6903 H 665.737 -0.853883 -1.69732 0
M  V30 6904 H 663.887 0.344894 -3.86966 0
M  V30 6905 H 665.559 -2.26044 -4.02122 0
M  V30 6906 H 663.802 -2.18591 -3.747 0
M  V30 6907 H 664.473 -1.61601 -5.27815 0
M  V30 6908 H 666.949 -0.0462156 -4.16074 0
M  V30 6909 H 665.825 0.38333 -5.4756 0
M  V30 6910 H 666.086 1.51135 -4.15464 0
M  V30 6911 N 665.145 1.52092 -0.413018 0
M  V30 6912 C 666.055 2.30858 0.417318 0
M  V30 6913 C 667.071 1.38746 1.05003 0
M  V30 6914 O 668.247 1.71821 1.05069 0
M  V30 6915 C 665.312 3.11756 1.51687 0
M  V30 6916 C 664.373 4.19613 0.906825 0
M  V30 6917 C 663.606 4.96644 1.95399 0
M  V30 6918 O 663.829 4.7402 3.17271 0
M  V30 6919 O 662.763 5.81385 1.55805 0
M  V30 6920 H 666.589 3.02865 -0.225028 0
M  V30 6921 H 664.174 1.48358 -0.176126 0
M  V30 6922 H 666.056 3.62122 2.15512 0
M  V30 6923 H 664.731 2.42539 2.14375 0
M  V30 6924 H 663.638 3.73385 0.231183 0
M  V30 6925 H 664.971 4.91134 0.323814 0
M  V30 6926 N 666.623 0.143563 1.56945 0
M  V30 6927 C 667.533 -0.810562 2.20152 0
M  V30 6928 C 668.549 -1.27431 1.1848 0
M  V30 6929 O 669.725 -1.33221 1.51044 0
M  V30 6930 C 666.79 -2.03353 2.80799 0
M  V30 6931 C 665.851 -1.61936 3.97587 0
M  V30 6932 C 665.084 -2.78403 4.55332 0
M  V30 6933 O 665.307 -3.94521 4.11958 0
M  V30 6934 O 664.241 -2.54073 5.45647 0
M  V30 6935 H 668.067 -0.30253 3.02189 0
M  V30 6936 H 665.652 -0.0832925 1.49168 0
M  V30 6937 H 667.534 -2.74932 3.19359 0
M  V30 6938 H 666.209 -2.53116 2.01777 0
M  V30 6939 H 665.116 -0.873904 3.6375 0
M  V30 6940 H 666.449 -1.16892 4.78118 0
M  V30 6941 N 668.101 -1.57061 -0.130224 0
M  V30 6942 C 669.011 -2.02802 -1.17934 0
M  V30 6943 C 670.027 -0.946378 -1.46013 0
M  V30 6944 O 671.203 -1.25708 -1.57351 0
M  V30 6945 C 668.268 -2.41368 -2.48882 0
M  V30 6946 C 667.329 -3.63561 -2.28301 0
M  V30 6947 C 666.562 -4.00279 -3.53005 0
M  V30 6948 O 666.785 -3.37463 -4.59864 0
M  V30 6949 O 665.719 -4.93441 -3.44673 0
M  V30 6950 H 669.545 -2.92394 -0.820958 0
M  V30 6951 H 667.13 -1.45475 -0.340197 0
M  V30 6952 H 669.012 -2.66958 -3.26054 0
M  V30 6953 H 667.687 -1.54926 -2.84217 0
M  V30 6954 H 666.594 -3.43136 -1.49025 0
M  V30 6955 H 667.927 -4.50673 -1.97875 0
M  V30 6956 N 669.579 0.400081 -1.52437 0
M  V30 6957 C 670.856 1.15973 -1.57511 0
M  V30 6958 C 671.236 2.0798 -0.361572 0
M  V30 6959 O 670.584 2.19032 0.650929 0
M  V30 6960 C 670.794 1.92912 -2.90837 0
M  V30 6961 C 672.142 2.48662 -3.44169 0
M  V30 6962 O 673.166 2.03081 -2.92637 0
M  V30 6963 O 672.025 3.31894 -4.34176 0
M  V30 6964 H 669.119 0.530023 -0.634827 0
M  V30 6965 H 671.665 0.40613 -1.64769 0
M  V30 6966 H 670.437 1.25564 -3.70607 0
M  V30 6967 H 670.06 2.75257 -2.86913 0
M  V30 6968 N 671.057 1.43213 0.657864 0
M  V30 6969 C 672.303 1.44798 1.41991 0
M  V30 6970 C 672.636 0.070256 1.94073 0
M  V30 6971 O 671.911 -0.908177 1.71995 0
M  V30 6972 C 672.194 2.4865 2.60471 0
M  V30 6973 C 672.047 3.95679 2.13911 0
M  V30 6974 C 673.366 2.49292 3.62686 0
M  V30 6975 H 670.485 0.527244 0.514959 0
M  V30 6976 H 673.127 1.74733 0.74621 0
M  V30 6977 H 671.277 2.23254 3.17946 0
M  V30 6978 H 672.949 4.32116 1.61472 0
M  V30 6979 H 671.192 4.08733 1.45325 0
M  V30 6980 H 671.863 4.6395 2.99089 0
M  V30 6981 H 674.339 2.71917 3.14961 0
M  V30 6982 H 673.215 3.23907 4.43143 0
M  V30 6983 H 673.476 1.52502 4.14964 0
M  V30 6984 N 672.536 -0.895792 1.29666 0
M  V30 6985 C 673.782 -1.64908 1.18039 0
M  V30 6986 C 674.115 -1.9236 -0.266682 0
M  V30 6987 O 673.39 -1.53682 -1.19214 0
M  V30 6988 C 673.673 -2.99574 1.99819 0
M  V30 6989 C 673.526 -2.79163 3.52687 0
M  V30 6990 C 674.845 -4.00358 1.82761 0
M  V30 6991 H 671.964 -0.598437 0.430165 0
M  V30 6992 H 674.606 -1.03736 1.59182 0
M  V30 6993 H 672.756 -3.51786 1.64859 0
M  V30 6994 H 674.428 -2.33821 3.9765 0
M  V30 6995 H 672.671 -2.13871 3.77414 0
M  V30 6996 H 673.342 -3.74871 4.05186 0
M  V30 6997 H 675.818 -3.57268 2.13304 0
M  V30 6998 H 674.694 -4.92514 2.42325 0
M  V30 6999 H 674.955 -4.35096 0.783839 0
M  V30 7000 N 674.014 -1.12206 -1.10668 0
M  V30 7001 C 675.43 -0.857619 -1.346 0
M  V30 7002 C 675.63 0.513542 -1.94846 0
M  V30 7003 O 674.686 1.26273 -2.18658 0
M  V30 7004 C 675.999 -1.97212 -2.26998 0
M  V30 7005 C 677.547 -2.00272 -2.40542 0
M  V30 7006 C 678.022 -3.10948 -3.36267 0
M  V30 7007 N 679.513 -3.10375 -3.43834 0
M  V30 7008 C 680.248 -3.92651 -4.17867 0
M  V30 7009 N 679.744 -4.84911 -4.94807 0
M  V30 7010 N 681.537 -3.80798 -4.1346 0
M  V30 7011 H 673.688 -2.00558 -0.699306 0
M  V30 7012 H 675.951 -0.872612 -0.370477 0
M  V30 7013 H 675.657 -2.96002 -1.89936 0
M  V30 7014 H 675.531 -1.87521 -3.27286 0
M  V30 7015 H 677.918 -1.02103 -2.76874 0
M  V30 7016 H 677.999 -2.14037 -1.40077 0
M  V30 7017 H 677.643 -4.09348 -3.00661 0
M  V30 7018 H 677.573 -2.94421 -4.36605 0
M  V30 7019 H 680.064 -2.43536 -2.88961 0
M  V30 7020 H 680.377 -5.44207 -5.48688 0
M  V30 7021 H 678.722 -4.88926 -4.93939 0
M  V30 7022 H 681.913 -3.08058 -3.52445 0
M  V30 7023 H 682.086 -4.4515 -4.70898 0
M  V30 7024 N 675.492 1.28418 -0.913599 0
M  V30 7025 C 676.424 2.26368 -0.359169 0
M  V30 7026 C 677.437 1.54858 0.502285 0
M  V30 7027 O 678.626 1.75659 0.31719 0
M  V30 7028 C 675.726 3.35112 0.50526 0
M  V30 7029 C 674.899 4.36126 -0.333648 0
M  V30 7030 C 673.958 5.24134 0.465845 0
M  V30 7031 O 672.984 5.6907 -0.121538 0
M  V30 7032 N 674.186 5.52892 1.76891 0
M  V30 7033 H 676.951 2.74579 -1.2011 0
M  V30 7034 H 674.512 1.41898 -0.779532 0
M  V30 7035 H 676.504 3.90926 1.04684 0
M  V30 7036 H 675.074 2.86611 1.2479 0
M  V30 7037 H 674.294 3.79776 -1.0566 0
M  V30 7038 H 675.582 5.00638 -0.907669 0
M  V30 7039 H 674.98 5.18217 2.26865 0
M  V30 7040 H 673.537 6.11464 2.25732 0
M  V30 7041 N 676.97 0.677563 1.42291 0
M  V30 7042 C 678.198 0.209459 2.05837 0
M  V30 7043 C 678.613 -1.13444 1.50917 0
M  V30 7044 O 677.97 -1.70529 0.65008 0
M  V30 7045 C 678.021 0.138819 3.61233 0
M  V30 7046 O 677.742 1.42962 4.14118 0
M  V30 7047 C 679.243 -0.352449 4.41897 0
M  V30 7048 H 676.463 0.101209 0.663323 0
M  V30 7049 H 679.007 0.925077 1.8238 0
M  V30 7050 H 677.162 -0.527505 3.83792 0
M  V30 7051 H 677.576 1.3048 5.08011 0
M  V30 7052 H 679.05 -0.350778 5.50884 0
M  V30 7053 H 679.527 -1.3882 4.16684 0
M  V30 7054 H 680.133 0.282236 4.24362 0
M  V30 7055 N 678.448 -1.51871 0.421078 0
M  V30 7056 C 679.381 -2.23851 -0.443369 0
M  V30 7057 C 680.359 -1.25142 -1.03818 0
M  V30 7058 O 681.543 -1.5423 -1.08377 0
M  V30 7059 C 678.67 -2.97637 -1.61648 0
M  V30 7060 C 677.716 -4.10873 -1.14391 0
M  V30 7061 S 678.549 -5.35408 -0.0992403 0
M  V30 7062 C 679.705 -6.12726 -1.27739 0
M  V30 7063 H 679.938 -2.96826 0.167786 0
M  V30 7064 H 677.471 -1.53027 0.205461 0
M  V30 7065 H 679.429 -3.40751 -2.28909 0
M  V30 7066 H 678.09 -2.24282 -2.199 0
M  V30 7067 H 677.283 -4.61718 -2.02069 0
M  V30 7068 H 676.885 -3.69937 -0.549775 0
M  V30 7069 H 679.177 -6.40827 -2.19881 0
M  V30 7070 H 680.12 -7.03461 -0.809239 0
M  V30 7071 H 680.528 -5.43968 -1.5086 0
M  V30 7072 N 679.926 -0.151884 -1.56866 0
M  V30 7073 C 681.174 0.497021 -1.95893 0
M  V30 7074 C 681.495 1.65078 -1.03799 0
M  V30 7075 O 680.765 1.95642 -0.10049 0
M  V30 7076 H 679.345 0.186603 -0.723318 0
M  V30 7077 H 682.007 -0.228525 -1.93556 0
M  V30 7078 H 681.103 0.869933 -2.99731 0
M  V30 7079 N 681.404 1.57128 0.121893 0
M  V30 7080 C 682.815 1.73902 0.679348 0
M  V30 7081 C 683.166 0.770135 1.80453 0
M  V30 7082 O 682.291 -0.0576083 2.16323 0
M  V30 7083 C 682.886 3.15328 1.2391 0
M  V30 7084 C 681.445 3.33618 1.74288 0
M  V30 7085 C 680.592 2.6978 0.641414 0
M  V30 7086 H 683.543 1.58359 -0.104 0
M  V30 7087 H 683.564 3.16718 2.10879 0
M  V30 7088 H 683.076 3.85821 0.419957 0
M  V30 7089 H 681.177 2.68162 2.58689 0
M  V30 7090 H 681.29 4.4176 1.85432 0
M  V30 7091 H 679.654 2.30935 1.0743 0
M  V30 7092 H 680.437 3.42895 -0.166707 0
M  V30 7093 N 682.882 -0.391992 1.52647 0
M  V30 7094 C 684.13 -1.13507 1.67214 0
M  V30 7095 C 684.451 -1.90575 0.41304 0
M  V30 7096 O 683.721 -1.87348 -0.572498 0
M  V30 7097 H 682.301 -0.422013 0.616372 0
M  V30 7098 H 684.963 -0.44502 1.89751 0
M  V30 7099 H 684.059 -1.83964 2.52118 0
M  V30 7100 N 684.36 -1.4356 -0.65026 0
M  V30 7101 C 685.308 -1.49219 -1.78427 0
M  V30 7102 C 686.302 -0.365528 -1.65409 0
M  V30 7103 O 687.508 -0.539649 -1.7172 0
M  V30 7104 H 683.883 -0.467858 -0.588738 0
M  V30 7105 H 685.854 -2.44701 -1.70774 0
M  V30 7106 C 684.603 -1.43519 -3.16698 0
M  V30 7107 H 683.926 -2.2952 -3.27354 0
M  V30 7108 H 685.366 -1.5154 -3.95995 0
M  V30 7109 C 683.825 -0.153197 -3.36552 0
M  V30 7110 O 684.355 0.784317 -3.93969 0
M  V30 7111 N 682.561 -0.0624402 -2.90533 0
M  V30 7112 H 682.108 -0.826172 -2.43992 0
M  V30 7113 H 682.066 0.794616 -3.04193 0
M  V30 7114 N 685.838 0.888903 -1.30139 0
M  V30 7115 C 686.748 2.02705 -1.18101 0
M  V30 7116 C 687.764 1.73702 -0.101809 0
M  V30 7117 O 688.94 1.98906 -0.315984 0
M  V30 7118 C 686.005 3.35616 -0.869651 0
M  V30 7119 C 685.066 3.78067 -2.03381 0
M  V30 7120 C 684.299 5.04635 -1.73721 0
M  V30 7121 O 684.522 5.66531 -0.663267 0
M  V30 7122 O 683.456 5.43399 -2.58845 0
M  V30 7123 H 687.282 2.15788 -2.13704 0
M  V30 7124 H 684.867 1.01426 -1.09695 0
M  V30 7125 H 686.749 4.15358 -0.711043 0
M  V30 7126 H 685.424 3.23651 0.0565002 0
M  V30 7127 H 684.331 2.99046 -2.24772 0
M  V30 7128 H 685.664 3.94631 -2.94155 0
M  V30 7129 N 687.317 1.12792 1.10072 0
M  V30 7130 C 688.733 0.864745 1.34143 0
M  V30 7131 C 688.933 -0.503201 1.95116 0
M  V30 7132 O 687.989 -1.25111 2.19325 0
M  V30 7133 C 689.302 1.98413 2.25949 0
M  V30 7134 C 690.85 2.01545 2.39476 0
M  V30 7135 C 691.325 3.12727 3.34613 0
M  V30 7136 N 692.816 3.12194 3.42183 0
M  V30 7137 C 693.551 3.94862 4.15779 0
M  V30 7138 N 693.047 4.87528 4.92228 0
M  V30 7139 N 694.84 3.82985 4.11435 0
M  V30 7140 H 686.991 2.00926 0.68866 0
M  V30 7141 H 689.254 0.874564 0.365844 0
M  V30 7142 H 688.96 2.97005 1.88364 0
M  V30 7143 H 688.834 1.89254 3.26287 0
M  V30 7144 H 691.221 1.0357 2.76328 0
M  V30 7145 H 691.302 2.14777 1.3894 0
M  V30 7146 H 690.946 4.10936 2.98486 0
M  V30 7147 H 690.876 2.96732 4.35037 0
M  V30 7148 H 693.367 2.45065 2.87666 0
M  V30 7149 H 693.68 5.47109 5.45794 0
M  V30 7150 H 692.025 4.91539 4.9134 0
M  V30 7151 H 695.216 3.09923 3.50807 0
M  V30 7152 H 695.389 4.47641 4.68531 0
M  V30 7153 N 688.795 -1.27931 0.920396 0
M  V30 7154 C 690.043 -1.94304 0.555906 0
M  V30 7155 C 690.364 -1.72753 -0.904519 0
M  V30 7156 O 689.634 -1.07104 -1.64029 0
M  V30 7157 H 688.214 -0.719001 0.202599 0
M  V30 7158 H 690.876 -1.55785 1.1712 0
M  V30 7159 H 689.972 -3.02806 0.755981 0
M  V30 7160 N 690.273 -0.685099 -1.4193 0
M  V30 7161 C 691.221 -0.00165985 -2.326 0
M  V30 7162 C 692.215 0.779678 -1.50391 0
M  V30 7163 O 693.421 0.68648 -1.66395 0
M  V30 7164 H 689.796 0.0182616 -0.751778 0
M  V30 7165 H 691.767 -0.783592 -2.87928 0
M  V30 7166 C 690.516 0.928385 -3.35077 0
M  V30 7167 H 689.839 0.336578 -3.98381 0
M  V30 7168 H 691.279 1.37509 -4.01083 0
M  V30 7169 C 689.738 2.03964 -2.68142 0
M  V30 7170 O 690.268 3.12727 -2.5212 0
M  V30 7171 N 688.474 1.81433 -2.27003 0
M  V30 7172 H 688.021 0.929807 -2.40234 0
M  V30 7173 H 687.979 2.55973 -1.82552 0
M  V30 7174 N 691.751 1.51645 -0.429126 0
M  V30 7175 C 692.714 2.26116 0.374726 0
M  V30 7176 C 693.714 1.29242 0.956714 0
M  V30 7177 O 694.904 1.53022 0.832452 0
M  V30 7178 C 692.036 3.04669 1.52937 0
M  V30 7179 H 693.229 2.9861 -0.277818 0
M  V30 7180 H 690.782 1.55236 -0.182097 0
M  V30 7181 H 691.517 2.36571 2.21821 0
M  V30 7182 H 691.302 3.75814 1.11833 0
M  V30 7183 H 692.792 3.61102 2.09751 0
M  V30 7184 N 693.229 0.160201 1.56784 0
M  V30 7185 C 694.476 -0.487588 1.96542 0
M  V30 7186 C 694.804 -1.63999 1.04569 0
M  V30 7187 O 694.059 -1.95546 0.0775211 0
M  V30 7188 C 694.358 -1.02259 3.42459 0
M  V30 7189 C 694.024 0.0127436 4.50898 0
M  V30 7190 C 692.686 0.297318 4.80281 0
M  V30 7191 C 695.038 0.716078 5.16257 0
M  V30 7192 C 692.366 1.29081 5.72324 0
M  V30 7193 C 694.718 1.69847 6.09372 0
M  V30 7194 C 693.382 1.99061 6.37127 0
M  V30 7195 H 692.652 -0.178421 0.719199 0
M  V30 7196 H 695.299 0.249818 1.89864 0
M  V30 7197 H 693.604 -1.8376 3.46034 0
M  V30 7198 H 695.301 -1.53261 3.70556 0
M  V30 7199 H 691.891 -0.219235 4.28039 0
M  V30 7200 H 696.075 0.509428 4.93679 0
M  V30 7201 H 691.331 1.52344 5.92116 0
M  V30 7202 H 695.505 2.2489 6.59088 0
M  V30 7203 H 693.132 2.76194 7.08252 0
M  V30 7204 N 694.707 -1.5719 -0.113559 0
M  V30 7205 C 695.932 -1.89702 -0.838336 0
M  V30 7206 C 696.357 -0.752679 -1.72384 0
M  V30 7207 O 695.715 0.296575 -1.78858 0
M  V30 7208 C 695.763 -3.20989 -1.64312 0
M  V30 7209 O 694.867 -3.07278 -2.75053 0
M  V30 7210 H 694.208 -0.622339 -0.231496 0
M  V30 7211 H 696.738 -2.04382 -0.0943228 0
M  V30 7212 H 696.748 -3.53843 -2.03123 0
M  V30 7213 H 695.423 -4.03869 -0.993119 0
M  V30 7214 H 694 -2.85901 -2.39406 0
M  V30 7215 N 696.185 0.383891 -1.52853 0
M  V30 7216 C 697.601 0.724316 -1.42218 0
M  V30 7217 C 697.801 1.93943 -0.546654 0
M  V30 7218 O 696.857 2.5249 -0.0220562 0
M  V30 7219 C 698.17 0.954635 -2.85144 0
M  V30 7220 C 699.718 1.05579 -2.94656 0
M  V30 7221 C 700.193 1.3187 -4.38605 0
M  V30 7222 N 701.684 1.38681 -4.41952 0
M  V30 7223 C 702.419 1.60699 -5.50421 0
M  V30 7224 N 701.915 1.80154 -6.68967 0
M  V30 7225 N 703.708 1.6292 -5.37972 0
M  V30 7226 H 695.859 -0.4156 -2.08294 0
M  V30 7227 H 698.122 -0.123776 -0.939885 0
M  V30 7228 H 697.828 0.133829 -3.51445 0
M  V30 7229 H 697.702 1.86788 -3.27704 0
M  V30 7230 H 700.089 1.86716 -2.2852 0
M  V30 7231 H 700.17 0.120338 -2.55517 0
M  V30 7232 H 699.814 0.512416 -5.05309 0
M  V30 7233 H 699.744 2.26708 -4.75301 0
M  V30 7234 H 702.235 1.25334 -3.56511 0
M  V30 7235 H 702.548 1.96476 -7.47407 0
M  V30 7236 H 700.893 1.77368 -6.71986 0
M  V30 7237 H 704.084 1.47276 -4.44328 0
M  V30 7238 H 704.257 1.79739 -6.22574 0
M  V30 7239 N 697.663 1.43903 0.642637 0
M  V30 7240 C 698.61 1.49881 1.75512 0
M  V30 7241 C 699.58 0.347538 1.62423 0
M  V30 7242 O 700.765 0.556177 1.82514 0
M  V30 7243 C 697.905 1.43797 3.13714 0
M  V30 7244 C 697.018 2.6921 3.37861 0
M  V30 7245 C 696.153 2.5504 4.6597 0
M  V30 7246 C 695.192 3.75671 4.83257 0
M  V30 7247 N 694.329 3.60247 6.02633 0
M  V30 7248 H 699.169 2.44935 1.69737 0
M  V30 7249 H 696.706 1.21572 0.828165 0
M  V30 7250 H 698.664 1.38262 3.93624 0
M  V30 7251 H 697.294 0.523173 3.18532 0
M  V30 7252 H 696.346 2.8498 2.51973 0
M  V30 7253 H 697.658 3.58786 3.46517 0
M  V30 7254 H 696.812 2.47273 5.54023 0
M  V30 7255 H 695.551 1.63006 4.59653 0
M  V30 7256 H 694.556 3.83836 3.93637 0
M  V30 7257 H 695.781 4.68728 4.91397 0
M  V30 7258 H 693.727 2.70955 5.97427 0
M  V30 7259 H 693.644 4.43431 6.12295 0
M  V30 7260 H 694.912 3.56351 6.93278 0
M  V30 7261 N 699.141 -0.881989 1.30609 0
M  V30 7262 C 700.557 -1.16576 1.09005 0
M  V30 7263 C 700.757 -2.00961 -0.14727 0
M  V30 7264 O 699.813 -2.38117 -0.840036 0
M  V30 7265 C 701.126 -1.86954 2.35518 0
M  V30 7266 C 702.674 -1.99706 2.41011 0
M  V30 7267 C 703.149 -2.73497 3.67374 0
M  V30 7268 N 704.64 -2.8104 3.68199 0
M  V30 7269 C 705.375 -3.38718 4.62664 0
M  V30 7270 N 704.871 -3.97421 5.67475 0
M  V30 7271 N 706.664 -3.36561 4.50203 0
M  V30 7272 H 698.815 -0.319398 2.09985 0
M  V30 7273 H 701.078 -0.204058 0.925778 0
M  V30 7274 H 700.784 -1.32393 3.2583 0
M  V30 7275 H 700.658 -2.87317 2.44395 0
M  V30 7276 H 703.045 -2.53436 1.51176 0
M  V30 7277 H 703.126 -0.984218 2.36108 0
M  V30 7278 H 702.77 -2.20438 4.57569 0
M  V30 7279 H 702.7 -3.75163 3.6954 0
M  V30 7280 H 705.191 -2.39365 2.92426 0
M  V30 7281 H 705.504 -4.39507 6.35652 0
M  V30 7282 H 703.849 -3.95832 5.71264 0
M  V30 7283 H 707.04 -2.8993 3.67503 0
M  V30 7284 H 707.213 -3.81215 5.24003 0
M  V30 7285 N 700.619 -1.13374 -1.09472 0
M  V30 7286 C 701.847 -0.918351 -1.85402 0
M  V30 7287 C 702.262 0.53281 -1.81126 0
M  V30 7288 O 701.619 1.36879 -1.20708 0
M  V30 7289 C 701.67 -1.39743 -3.33398 0
M  V30 7290 O 701.391 -2.79172 -3.37631 0
M  V30 7291 C 702.892 -1.22042 -4.2617 0
M  V30 7292 H 700.112 -0.327511 -0.585643 0
M  V30 7293 H 702.656 -1.50617 -1.38328 0
M  V30 7294 H 700.811 -0.852619 -3.77901 0
M  V30 7295 H 701.225 -3.00428 -4.29934 0
M  V30 7296 H 702.699 -1.60438 -5.2817 0
M  V30 7297 H 703.176 -0.162047 -4.38901 0
M  V30 7298 H 703.782 -1.75323 -3.87482 0
M  V30 7299 N 702.098 1.27442 -0.927168 0
M  V30 7300 C 703.344 1.94679 -0.568164 0
M  V30 7301 C 703.677 1.72697 0.888219 0
M  V30 7302 O 702.952 1.05573 1.63354 0
M  V30 7303 C 703.235 3.4882 -0.894253 0
M  V30 7304 C 703.088 3.80146 -2.40435 0
M  V30 7305 C 704.407 4.38281 -0.399766 0
M  V30 7306 H 701.526 0.707071 -0.207892 0
M  V30 7307 H 704.168 1.50568 -1.15885 0
M  V30 7308 H 702.318 3.86522 -0.391566 0
M  V30 7309 H 703.99 3.52238 -2.97869 0
M  V30 7310 H 702.233 3.26716 -2.85375 0
M  V30 7311 H 702.904 4.87835 -2.58304 0
M  V30 7312 H 705.38 4.07726 -0.83058 0
M  V30 7313 H 704.256 5.44955 -0.656885 0
M  V30 7314 H 704.517 4.36521 0.700153 0
M  V30 7315 N 703.576 0.692616 1.41565 0
M  V30 7316 C 704.506 0.0397325 2.33466 0
M  V30 7317 C 705.487 -0.770334 1.51657 0
M  V30 7318 O 706.672 -0.723903 1.80203 0
M  V30 7319 C 703.802 -0.899495 3.3545 0
M  V30 7320 C 702.756 -0.196738 4.27548 0
M  V30 7321 C 702.082 -1.25012 5.19881 0
M  V30 7322 C 703.382 0.935158 5.1386 0
M  V30 7323 H 705.076 0.807296 2.88311 0
M  V30 7324 H 702.622 0.389665 1.38628 0
M  V30 7325 H 704.575 -1.36545 3.98665 0
M  V30 7326 H 703.299 -1.69869 2.78948 0
M  V30 7327 H 701.958 0.249158 3.65752 0
M  V30 7328 H 701.606 -2.04177 4.59696 0
M  V30 7329 H 701.306 -0.784931 5.82334 0
M  V30 7330 H 702.83 -1.71665 5.85972 0
M  V30 7331 H 704.244 0.549619 5.70659 0
M  V30 7332 H 702.641 1.32726 5.85238 0
M  V30 7333 H 703.711 1.77613 4.512 0
M  V30 7334 N 705.054 -1.51416 0.437162 0
M  V30 7335 C 706.282 -2.06503 -0.128045 0
M  V30 7336 C 706.697 -1.30461 -1.36475 0
M  V30 7337 O 706.054 -0.364127 -1.78831 0
M  V30 7338 C 706.105 -3.58683 -0.450437 0
M  V30 7339 O 705.826 -4.31853 0.737186 0
M  V30 7340 C 707.327 -4.30284 -1.06633 0
M  V30 7341 H 704.547 -0.670952 -0.00800269 0
M  V30 7342 H 707.091 -1.94996 0.616193 0
M  V30 7343 H 705.246 -3.70106 -1.14457 0
M  V30 7344 H 705.66 -5.22467 0.461347 0
M  V30 7345 H 707.134 -5.37848 -1.24191 0
M  V30 7346 H 707.611 -3.88564 -2.0473 0
M  V30 7347 H 708.217 -4.23304 -0.411585 0
M  V30 7348 N 706.532 -0.168513 -1.56696 0
M  V30 7349 C 707.948 0.187686 -1.58493 0
M  V30 7350 C 708.148 1.63063 -1.18375 0
M  V30 7351 O 707.204 2.36142 -0.894042 0
M  V30 7352 C 708.517 -0.0905858 -3.00564 0
M  V30 7353 C 710.065 -0.028575 -3.12987 0
M  V30 7354 C 710.54 -0.279799 -4.57145 0
M  V30 7355 N 712.031 -0.227476 -4.62641 0
M  V30 7356 C 712.766 -0.396073 -5.7203 0
M  V30 7357 N 712.262 -0.623572 -6.89988 0
M  V30 7358 N 714.055 -0.332173 -5.61118 0
M  V30 7359 H 706.206 -1.11042 -1.81062 0
M  V30 7360 H 708.469 -0.441235 -0.839056 0
M  V30 7361 H 708.175 -1.09006 -3.34381 0
M  V30 7362 H 708.049 0.619078 -3.72085 0
M  V30 7363 H 710.436 0.961471 -2.78998 0
M  V30 7364 H 710.517 -0.770905 -2.43907 0
M  V30 7365 H 710.161 -1.26704 -4.91842 0
M  V30 7366 H 710.091 0.48311 -5.24379 0
M  V30 7367 H 712.582 -0.0571723 -3.77857 0
M  V30 7368 H 712.895 -0.741745 -7.69232 0
M  V30 7369 H 711.24 -0.660153 -6.91858 0
M  V30 7370 H 714.431 -0.155051 -4.67843 0
M  V30 7371 H 714.604 -0.466994 -6.46315 0
M  V30 7372 N 708.01 1.57248 0.105221 0
M  V30 7373 C 708.92 2.04653 1.14693 0
M  V30 7374 C 709.936 0.969488 1.44489 0
M  V30 7375 O 711.112 1.28196 1.55331 0
M  V30 7376 C 708.177 2.45297 2.45011 0
M  V30 7377 C 707.238 3.67148 2.22489 0
M  V30 7378 C 706.471 4.05844 3.46592 0
M  V30 7379 O 706.694 3.44736 4.54437 0
M  V30 7380 O 705.628 4.98862 3.36779 0
M  V30 7381 H 709.454 2.93663 0.774336 0
M  V30 7382 H 707.039 1.45998 0.31701 0
M  V30 7383 H 708.921 2.72112 3.21766 0
M  V30 7384 H 707.596 1.59429 2.81717 0
M  V30 7385 H 706.503 3.45463 1.43547 0
M  V30 7386 H 707.836 4.53764 1.9068 0
M  V30 7387 N 709.488 -0.375779 1.53054 0
M  V30 7388 C 710.713 -1.14484 1.7294 0
M  V30 7389 C 711.138 -1.82572 0.452668 0
M  V30 7390 O 710.496 -1.71343 -0.592567 0
M  V30 7391 C 710.544 -2.15857 2.88857 0
M  V30 7392 O 709.648 -3.22725 2.56753 0
M  V30 7393 H 708.989 -0.332666 0.574656 0
M  V30 7394 H 711.519 -0.436025 1.999 0
M  V30 7395 H 711.529 -2.59631 3.14731 0
M  V30 7396 H 710.204 -1.65689 3.81471 0
M  V30 7397 H 708.781 -2.83996 2.41663 0
M  V30 7398 N 710.966 -1.44241 -0.634997 0
M  V30 7399 C 711.876 -1.53293 -1.77591 0
M  V30 7400 C 712.892 -0.418831 -1.68884 0
M  V30 7401 O 714.068 -0.675619 -1.8973 0
M  V30 7402 C 711.133 -1.47075 -3.13958 0
M  V30 7403 C 710.194 -2.69304 -3.34326 0
M  V30 7404 C 709.427 -2.63374 -4.64187 0
M  V30 7405 O 709.65 -1.69161 -5.44739 0
M  V30 7406 O 708.584 -3.54166 -4.86673 0
M  V30 7407 H 712.41 -2.49673 -1.72908 0
M  V30 7408 H 709.995 -1.26445 -0.795745 0
M  V30 7409 H 711.877 -1.46117 -3.95257 0
M  V30 7410 H 710.552 -0.538373 -3.19192 0
M  V30 7411 H 709.459 -2.75831 -2.52721 0
M  V30 7412 H 710.792 -3.61576 -3.33951 0
M  V30 7413 N 712.444 0.87505 -1.31075 0
M  V30 7414 C 713.407 1.96333 -1.18263 0
M  V30 7415 C 714.407 1.60416 -0.111106 0
M  V30 7416 O 715.597 1.7044 -0.359987 0
M  V30 7417 C 712.729 3.31036 -0.81414 0
M  V30 7418 H 713.922 2.09125 -2.14958 0
M  V30 7419 H 711.475 1.06271 -1.14614 0
M  V30 7420 H 712.21 3.23944 0.151875 0
M  V30 7421 H 711.995 3.58476 -1.58862 0
M  V30 7422 H 713.485 4.10842 -0.748249 0
M  V30 7423 N 713.922 1.13953 1.08869 0
M  V30 7424 C 715.168 0.906151 1.8143 0
M  V30 7425 C 715.501 -0.566089 1.85766 0
M  V30 7426 O 714.776 -1.41915 1.33006 0
M  V30 7427 C 715.059 1.50183 3.27287 0
M  V30 7428 C 714.912 3.04359 3.31189 0
M  V30 7429 C 716.231 1.17477 4.24131 0
M  V30 7430 H 713.35 0.330624 0.658678 0
M  V30 7431 H 715.992 1.40873 1.27495 0
M  V30 7432 H 714.142 1.07442 3.73348 0
M  V30 7433 H 715.814 3.55896 2.93488 0
M  V30 7434 H 714.057 3.39053 2.70602 0
M  V30 7435 H 714.728 3.41141 4.33966 0
M  V30 7436 H 717.204 1.5442 3.86385 0
M  V30 7437 H 716.08 1.61795 5.24513 0
M  V30 7438 H 716.341 0.0893312 4.4201 0
M  V30 7439 N 715.4 -1.26948 0.933913 0
M  V30 7440 C 716.816 -1.46419 0.635103 0
M  V30 7441 C 717.016 -1.84336 -0.813785 0
M  V30 7442 O 716.072 -1.96061 -1.59111 0
M  V30 7443 C 717.385 -2.55206 1.5903 0
M  V30 7444 C 718.933 -2.69062 1.5992 0
M  V30 7445 C 719.408 -3.81013 2.54152 0
M  V30 7446 N 720.899 -3.88395 2.52395 0
M  V30 7447 C 721.634 -4.74454 3.21996 0
M  V30 7448 N 721.13 -5.64954 4.00997 0
M  V30 7449 N 722.923 -4.68237 3.10983 0
M  V30 7450 H 715.074 -1.00622 1.87053 0
M  V30 7451 H 717.337 -0.503189 0.803433 0
M  V30 7452 H 717.043 -2.34153 2.62422 0
M  V30 7453 H 716.917 -3.52719 1.33677 0
M  V30 7454 H 719.304 -2.89492 0.572569 0
M  V30 7455 H 719.385 -1.72016 1.89325 0
M  V30 7456 H 719.029 -3.61336 3.5693 0
M  V30 7457 H 718.959 -4.77499 2.22041 0
M  V30 7458 H 721.45 -3.23687 1.95025 0
M  V30 7459 H 721.763 -6.27496 4.51074 0
M  V30 7460 H 720.108 -5.6473 4.05099 0
M  V30 7461 H 723.299 -3.96535 2.48753 0
M  V30 7462 H 723.472 -5.35087 3.65494 0
M  V30 7463 N 716.879 -0.700114 -1.41195 0
M  V30 7464 C 717.789 -0.0382854 -2.34569 0
M  V30 7465 C 718.805 0.761036 -1.56474 0
M  V30 7466 O 719.981 0.697553 -1.88934 0
M  V30 7467 C 717.046 0.883522 -3.35253 0
M  V30 7468 C 716.107 0.0758957 -4.29233 0
M  V30 7469 C 715.34 0.9538 -5.25108 0
M  V30 7470 O 715.563 2.19326 -5.26547 0
M  V30 7471 O 714.497 0.401049 -6.00562 0
M  V30 7472 H 718.323 -0.808073 -2.92752 0
M  V30 7473 H 715.908 -0.460479 -1.42127 0
M  V30 7474 H 717.79 1.41199 -3.9704 0
M  V30 7475 H 716.465 1.63272 -2.79506 0
M  V30 7476 H 715.372 -0.497274 -3.7078 0
M  V30 7477 H 716.705 -0.634741 -4.8809 0
M  V30 7478 N 718.357 1.51182 -0.445186 0
M  V30 7479 C 719.32 2.26501 0.350722 0
M  V30 7480 C 720.32 1.3025 0.942952 0
M  V30 7481 O 721.51 1.53897 0.816175 0
M  V30 7482 C 718.642 3.06274 1.49697 0
M  V30 7483 H 719.835 2.98299 -0.309474 0
M  V30 7484 H 717.388 1.55034 -0.198551 0
M  V30 7485 H 718.123 2.38911 2.19299 0
M  V30 7486 H 717.908 3.76979 1.0784 0
M  V30 7487 H 719.398 3.63306 2.05909 0
M  V30 7488 N 719.835 0.176821 1.56605 0
M  V30 7489 C 721.112 -0.513365 1.88743 0
M  V30 7490 C 721.492 -1.80929 1.08757 0
M  V30 7491 O 720.84 -2.27765 0.183127 0
M  V30 7492 C 721.05 -0.749925 3.40848 0
M  V30 7493 C 722.398 -1.07747 4.10701 0
M  V30 7494 O 723.422 -0.838277 3.46196 0
M  V30 7495 O 722.281 -1.52901 5.24675 0
M  V30 7496 H 719.375 -0.265296 0.783292 0
M  V30 7497 H 721.921 0.215669 1.68324 0
M  V30 7498 H 720.693 0.16599 3.90948 0
M  V30 7499 H 720.316 -1.53208 3.66897 0
M  V30 7500 N 721.313 -1.57302 -0.09688 0
M  V30 7501 C 722.276 -2.00976 -1.10188 0
M  V30 7502 C 723.276 -0.903009 -1.3305 0
M  V30 7503 O 724.466 -1.16853 -1.29194 0
M  V30 7504 C 721.598 -2.36893 -2.45142 0
M  V30 7505 H 722.791 -2.9098 -0.726003 0
M  V30 7506 H 720.344 -1.52515 -0.341872 0
M  V30 7507 H 721.079 -1.49837 -2.8761 0
M  V30 7508 H 720.864 -3.17632 -2.29897 0
M  V30 7509 H 722.354 -2.71345 -3.1743 0
M  V30 7510 N 722.791 0.367657 -1.53252 0
M  V30 7511 C 724.207 0.709191 -1.42978 0
M  V30 7512 C 724.407 1.93352 -0.567193 0
M  V30 7513 O 723.463 2.52453 -0.0488349 0
M  V30 7514 C 724.776 0.924338 -2.86141 0
M  V30 7515 C 726.324 1.02448 -2.95759 0
M  V30 7516 C 726.799 1.27211 -4.39979 0
M  V30 7517 N 728.29 1.33986 -4.43398 0
M  V30 7518 C 729.025 1.54852 -5.52095 0
M  V30 7519 N 728.521 1.73049 -6.7084 0
M  V30 7520 N 730.314 1.57205 -5.39669 0
M  V30 7521 H 722.465 -0.437669 -2.07842 0
M  V30 7522 H 724.728 -0.133737 -0.938519 0
M  V30 7523 H 724.434 0.0965455 -3.51567 0
M  V30 7524 H 724.308 1.83302 -3.29667 0
M  V30 7525 H 726.695 1.84282 -2.30487 0
M  V30 7526 H 726.776 0.0932301 -2.5563 0
M  V30 7527 H 726.42 0.458792 -5.05824 0
M  V30 7528 H 726.35 2.21654 -4.77679 0
M  V30 7529 H 728.841 1.21545 -3.5782 0
M  V30 7530 H 729.154 1.88538 -7.49449 0
M  V30 7531 H 727.499 1.70231 -6.7383 0
M  V30 7532 H 730.69 1.42555 -4.45865 0
M  V30 7533 H 730.863 1.73126 -6.24445 0
M  V30 7534 N 724.269 1.44576 0.627338 0
M  V30 7535 C 725.497 1.51048 1.41394 0
M  V30 7536 C 725.912 0.136568 1.88305 0
M  V30 7537 O 725.269 -0.858251 1.6106 0
M  V30 7538 C 725.32 2.47837 2.63172 0
M  V30 7539 O 725.041 3.79887 2.18215 0
M  V30 7540 C 726.542 2.63811 3.56257 0
M  V30 7541 H 723.762 0.512171 0.4335 0
M  V30 7542 H 726.306 1.89576 0.766878 0
M  V30 7543 H 724.461 2.12433 3.23961 0
M  V30 7544 H 724.875 4.32177 2.97192 0
M  V30 7545 H 726.349 3.35554 4.38301 0
M  V30 7546 H 726.826 1.69169 4.05313 0
M  V30 7547 H 727.432 3.0013 3.01333 0
M  V30 7548 N 725.747 -0.868086 1.31537 0
M  V30 7549 C 726.995 -1.61807 1.21091 0
M  V30 7550 C 727.316 -1.93631 -0.230623 0
M  V30 7551 O 726.586 -1.5846 -1.15183 0
M  V30 7552 H 725.166 -0.599854 0.445178 0
M  V30 7553 H 727.828 -1.03915 1.64887 0
M  V30 7554 H 726.924 -2.56088 1.78396 0
M  V30 7555 N 727.225 -1.14528 -1.08264 0
M  V30 7556 C 728.641 -0.885976 -1.3275 0
M  V30 7557 C 728.841 0.472096 -1.95892 0
M  V30 7558 O 727.897 1.21606 -2.21288 0
M  V30 7559 C 729.21 -2.01982 -2.22764 0
M  V30 7560 C 730.758 -2.05329 -2.36239 0
M  V30 7561 C 731.233 -3.1801 -3.29596 0
M  V30 7562 N 732.724 -3.17598 -3.37173 0
M  V30 7563 C 733.459 -4.01426 -4.09444 0
M  V30 7564 N 732.955 -4.95297 -4.8441 0
M  V30 7565 N 734.748 -3.89482 -4.0529 0
M  V30 7566 H 726.899 -2.01996 -0.656607 0
M  V30 7567 H 729.162 -0.880274 -0.351884 0
M  V30 7568 H 728.868 -2.99964 -1.83615 0
M  V30 7569 H 728.742 -1.94421 -3.23234 0
M  V30 7570 H 731.129 -1.07953 -2.74646 0
M  V30 7571 H 731.21 -2.1696 -1.35506 0
M  V30 7572 H 730.854 -4.15633 -2.9191 0
M  V30 7573 H 730.784 -3.03616 -4.30261 0
M  V30 7574 H 733.275 -2.4961 -2.83731 0
M  V30 7575 H 733.588 -5.55723 -5.37021 0
M  V30 7576 H 731.933 -4.99293 -4.83457 0
M  V30 7577 H 735.124 -3.15465 -3.45832 0
M  V30 7578 H 735.297 -4.55039 -4.6135 0
M  V30 7579 N 728.703 1.26451 -0.940633 0
M  V30 7580 C 729.931 1.97868 -0.604642 0
M  V30 7581 C 730.346 1.70051 0.820251 0
M  V30 7582 O 729.703 0.96843 1.54686 0
M  V30 7583 C 729.754 3.51684 -0.836689 0
M  V30 7584 O 729.475 3.78533 -2.20554 0
M  V30 7585 C 730.976 4.40343 -0.511169 0
M  V30 7586 H 728.196 0.631105 -0.227919 0
M  V30 7587 H 730.74 1.60979 -1.26119 0
M  V30 7588 H 728.895 3.86736 -0.226759 0
M  V30 7589 H 729.309 4.73065 -2.26517 0
M  V30 7590 H 730.783 5.47229 -0.724157 0
M  V30 7591 H 731.26 4.35694 0.553815 0
M  V30 7592 H 731.866 4.10834 -1.0998 0
M  V30 7593 N 730.181 0.707592 1.40822 0
M  V30 7594 C 731.427 0.252828 2.01823 0
M  V30 7595 C 731.782 -1.13876 1.55081 0
M  V30 7596 O 731.075 -1.75993 0.757439 0
M  V30 7597 C 731.269 0.262892 3.56432 0
M  V30 7598 C 731.098 1.65392 4.18181 0
M  V30 7599 C 729.868 2.25966 4.5196 0
M  V30 7600 C 732.066 2.60272 4.4358 0
M  V30 7601 N 730.048 3.57508 4.9906 0
M  V30 7602 C 731.419 3.76509 4.92586 0
M  V30 7603 C 733.474 2.58386 4.25607 0
M  V30 7604 C 732.177 4.91157 5.25507 0
M  V30 7605 C 734.203 3.72155 4.59625 0
M  V30 7606 C 733.565 4.87123 5.08813 0
M  V30 7607 H 729.664 0.138172 0.769696 0
M  V30 7608 H 732.248 0.927667 1.7118 0
M  V30 7609 H 730.419 -0.381479 3.86522 0
M  V30 7610 H 732.151 -0.20783 4.04166 0
M  V30 7611 H 728.906 1.78138 4.38821 0
M  V30 7612 H 729.33 4.24968 5.27002 0
M  V30 7613 H 733.972 1.7071 3.86805 0
M  V30 7614 H 731.69 5.79483 5.63227 0
M  V30 7615 H 735.276 3.71961 4.47366 0
M  V30 7616 H 734.156 5.73698 5.3464 0
M  V30 7617 N 731.66 -1.50943 0.453197 0
M  V30 7618 C 732.909 -2.01402 -0.10951 0
M  V30 7619 C 733.222 -1.3411 -1.42386 0
M  V30 7620 O 734.428 -1.75626 -2.07045 0
M  V30 7621 C 732.884 -3.5906 -0.245693 0
M  V30 7622 C 732.492 -4.353 1.05916 0
M  V30 7623 C 734.236 -4.17617 -0.761318 0
M  V30 7624 C 732.143 -5.84699 0.887752 0
M  V30 7625 H 731.073 -0.752674 -0.0447013 0
M  V30 7626 H 733.724 -1.73913 0.585375 0
M  V30 7627 H 732.106 -3.83062 -1.00395 0
M  V30 7628 H 733.28 -4.23034 1.82698 0
M  V30 7629 H 731.595 -3.88269 1.50452 0
M  V30 7630 H 734.192 -5.26963 -0.906306 0
M  V30 7631 H 734.535 -3.77824 -1.74799 0
M  V30 7632 H 735.068 -3.97753 -0.0609416 0
M  V30 7633 H 731.807 -6.28933 1.84726 0
M  V30 7634 H 731.327 -5.99587 0.160006 0
M  V30 7635 H 733.006 -6.44682 0.547223 0
M  V30 7636 N 733.138 -0.185124 -1.56509 0
M  V30 7637 C 734.387 0.456421 -1.96468 0
M  V30 7638 C 734.7 1.63448 -1.07444 0
M  V30 7639 O 735.906 2.34316 -1.37143 0
M  V30 7640 C 734.362 0.863404 -3.4939 0
M  V30 7641 C 733.97 -0.289815 -4.47062 0
M  V30 7642 C 735.714 1.47259 -3.98139 0
M  V30 7643 C 733.621 0.137571 -5.9124 0
M  V30 7644 H 732.551 0.17429 -0.733579 0
M  V30 7645 H 735.202 -0.275554 -1.81419 0
M  V30 7646 H 733.584 1.65176 -3.59907 0
M  V30 7647 H 734.758 -1.06728 -4.4827 0
M  V30 7648 H 733.073 -0.809851 -4.08449 0
M  V30 7649 H 735.67 1.80463 -5.03326 0
M  V30 7650 H 736.013 2.3755 -3.41871 0
M  V30 7651 H 736.546 0.748405 -3.90696 0
M  V30 7652 H 733.285 -0.730907 -6.51412 0
M  V30 7653 H 732.805 0.8801 -5.93308 0
M  V30 7654 H 734.484 0.576771 -6.44424 0
M  V30 7655 N 734.616 1.57351 0.0885366 0
M  V30 7656 C 735.841 1.91011 0.80805 0
M  V30 7657 C 736.266 0.780009 1.71165 0
M  V30 7658 O 735.624 -0.268083 1.79307 0
M  V30 7659 C 735.672 3.23562 1.59185 0
M  V30 7660 O 734.776 3.11615 2.7013 0
M  V30 7661 H 734.117 0.625943 0.221565 0
M  V30 7662 H 736.647 2.04507 0.0617954 0
M  V30 7663 H 736.657 3.5703 1.97468 0
M  V30 7664 H 735.332 4.05398 0.928741 0
M  V30 7665 H 733.909 2.89673 2.34827 0
M  V30 7666 N 736.094 -0.359525 1.53444 0
M  V30 7667 C 737.042 -1.46104 1.80987 0
M  V30 7668 C 738.036 -1.55181 0.679351 0
M  V30 7669 O 739.242 -1.57995 0.862405 0
M  V30 7670 H 735.617 -0.486835 0.573145 0
M  V30 7671 H 737.588 -1.2008 2.73173 0
M  V30 7672 C 736.337 -2.82855 2.02208 0
M  V30 7673 H 735.66 -2.76631 2.88644 0
M  V30 7674 H 737.1 -3.59091 2.25455 0
M  V30 7675 C 735.559 -3.27192 0.802931 0
M  V30 7676 O 736.089 -4.017 -0.00544286 0
M  V30 7677 N 734.295 -2.83807 0.624657 0
M  V30 7678 H 733.842 -2.23339 1.28364 0
M  V30 7679 H 733.8 -3.13828 -0.189641 0
M  V30 7680 N 737.572 -1.44907 -0.619662 0
M  V30 7681 C 738.983 -1.42905 -1.20146 0
M  V30 7682 C 739.334 -0.150341 -1.95623 0
M  V30 7683 O 738.459 0.748732 -2.03034 0
M  V30 7684 C 739.054 -2.58889 -2.18545 0
M  V30 7685 C 737.613 -2.60046 -2.72127 0
M  V30 7686 C 736.76 -2.3493 -1.4732 0
M  V30 7687 H 739.711 -1.53321 -0.409666 0
M  V30 7688 H 739.732 -2.32298 -3.0136 0
M  V30 7689 H 739.244 -3.51941 -1.63583 0
M  V30 7690 H 737.345 -1.70968 -3.3106 0
M  V30 7691 H 737.458 -3.58893 -3.17384 0
M  V30 7692 H 735.822 -1.84248 -1.75855 0
M  V30 7693 H 736.605 -3.3011 -0.942442 0
M  V30 7694 N 739.05 0.861098 -1.31996 0
M  V30 7695 C 739.96 2.00154 -1.22374 0
M  V30 7696 C 740.976 1.73447 -0.138631 0
M  V30 7697 O 742.152 1.98191 -0.358104 0
M  V30 7698 C 739.217 3.33696 -0.940645 0
M  V30 7699 C 738.278 3.73668 -2.11355 0
M  V30 7700 C 737.511 5.00837 -1.84386 0
M  V30 7701 O 737.734 5.64996 -0.783287 0
M  V30 7702 O 736.668 5.37787 -2.70313 0
M  V30 7703 H 740.494 2.11207 -2.18233 0
M  V30 7704 H 738.079 0.990768 -1.11822 0
M  V30 7705 H 739.961 4.13756 -0.798987 0
M  V30 7706 H 738.636 3.23698 -0.0121636 0
M  V30 7707 H 737.543 2.94211 -2.31065 0
M  V30 7708 H 738.876 3.88303 -3.02459 0
M  V30 7709 N 740.528 1.15101 1.07655 0
M  V30 7710 C 741.753 0.948177 1.84457 0
M  V30 7711 C 742.178 -0.498432 1.81376 0
M  V30 7712 O 741.536 -1.35509 1.20445 0
M  V30 7713 C 741.584 1.46318 3.29581 0
M  V30 7714 O 740.688 0.660342 4.07079 0
M  V30 7715 H 740.029 0.338428 0.571281 0
M  V30 7716 H 742.559 1.5301 1.35828 0
M  V30 7717 H 742.569 1.47468 3.80417 0
M  V30 7718 H 741.244 2.51635 3.31138 0
M  V30 7719 H 739.821 0.718216 3.65918 0
M  V30 7720 N 742.006 -1.2595 0.947325 0
M  V30 7721 C 742.953 -2.26159 0.460497 0
M  V30 7722 C 743.923 -1.58919 -0.483125 0
M  V30 7723 O 745.108 -1.86603 -0.397983 0
M  V30 7724 C 742.248 -3.441 -0.26247 0
M  V30 7725 C 741.361 -4.25999 0.717539 0
M  V30 7726 C 740.496 -5.31193 -0.0272486 0
M  V30 7727 C 739.535 -6.04774 0.944177 0
M  V30 7728 N 738.672 -7.01721 0.230741 0
M  V30 7729 H 743.512 -2.67173 1.31995 0
M  V30 7730 H 741.049 -1.31358 0.662088 0
M  V30 7731 H 743.007 -4.11317 -0.698137 0
M  V30 7732 H 741.637 -3.03983 -1.08602 0
M  V30 7733 H 740.689 -3.58513 1.27171 0
M  V30 7734 H 742.001 -4.76981 1.45913 0
M  V30 7735 H 741.155 -6.04451 -0.521903 0
M  V30 7736 H 739.894 -4.81066 -0.801682 0
M  V30 7737 H 738.899 -5.30338 1.4499 0
M  V30 7738 H 740.124 -6.56991 1.71872 0
M  V30 7739 H 738.07 -6.53895 -0.525088 0
M  V30 7740 H 737.987 -7.50484 0.911556 0
M  V30 7741 H 739.255 -7.79122 -0.242616 0
M  V30 7742 N 743.484 -0.715051 -1.40445 0
M  V30 7743 C 744.432 -0.0509974 -2.32544 0
M  V30 7744 C 745.426 0.747602 -1.52011 0
M  V30 7745 O 746.632 0.651031 -1.67814 0
M  V30 7746 H 743.007 0.00231113 -0.751996 0
M  V30 7747 H 744.978 -0.84449 -2.86201 0
M  V30 7748 C 743.727 0.857101 -3.3697 0
M  V30 7749 H 743.05 0.252 -3.99005 0
M  V30 7750 H 744.49 1.28971 -4.03909 0
M  V30 7751 C 742.949 1.98231 -2.72408 0
M  V30 7752 O 743.479 3.07309 -2.58697 0
M  V30 7753 N 741.685 1.76577 -2.308 0
M  V30 7754 H 741.232 0.878641 -2.42152 0
M  V30 7755 H 741.19 2.52043 -1.87941 0
M  V30 7756 N 744.962 1.50701 -0.461195 0
M  V30 7757 C 746.378 1.59187 -0.114786 0
M  V30 7758 C 746.578 1.4702 1.37794 0
M  V30 7759 O 745.634 1.32361 2.15027 0
M  V30 7760 C 746.947 2.93453 -0.656167 0
M  V30 7761 C 748.495 3.06824 -0.618715 0
M  V30 7762 C 748.97 4.4365 -1.13747 0
M  V30 7763 N 750.461 4.50035 -1.09646 0
M  V30 7764 C 751.196 5.54278 -1.46846 0
M  V30 7765 N 750.692 6.65822 -1.91448 0
M  V30 7766 N 752.485 5.44767 -1.38512 0
M  V30 7767 H 744.636 1.56853 -1.43216 0
M  V30 7768 H 746.899 0.740712 -0.59165 0
M  V30 7769 H 746.605 3.07802 -1.7015 0
M  V30 7770 H 746.479 3.77082 -0.0942261 0
M  V30 7771 H 748.866 2.92129 0.417685 0
M  V30 7772 H 748.947 2.24976 -1.21734 0
M  V30 7773 H 748.591 4.59093 -2.17245 0
M  V30 7774 H 748.521 5.24074 -0.515153 0
M  V30 7775 H 751.012 3.69988 -0.769217 0
M  V30 7776 H 751.325 7.41413 -2.18007 0
M  V30 7777 H 749.67 6.66968 -1.95393 0
M  V30 7778 H 752.861 4.56511 -1.03516 0
M  V30 7779 H 753.034 6.25889 -1.6783 0
M  V30 7780 N 746.441 0.193421 1.56409 0
M  V30 7781 C 747.371 -0.723334 2.22014 0
M  V30 7782 C 748.352 -1.22254 1.1827 0
M  V30 7783 O 749.537 -1.27168 1.46771 0
M  V30 7784 C 746.667 -1.94366 2.87818 0
M  V30 7785 C 745.621 -1.57943 3.97791 0
M  V30 7786 C 744.947 -2.87623 4.50752 0
M  V30 7787 C 746.247 -0.790639 5.16281 0
M  V30 7788 H 747.941 -0.176426 2.9888 0
M  V30 7789 H 745.487 -0.0834166 1.43758 0
M  V30 7790 H 747.44 -2.5902 3.32396 0
M  V30 7791 H 746.164 -2.51507 2.08355 0
M  V30 7792 H 744.823 -0.956482 3.53903 0
M  V30 7793 H 744.471 -3.4285 3.68053 0
M  V30 7794 H 744.171 -2.63998 5.24956 0
M  V30 7795 H 745.695 -3.53268 4.9803 0
M  V30 7796 H 747.109 -1.34024 5.57414 0
M  V30 7797 H 745.506 -0.65258 5.96541 0
M  V30 7798 H 746.576 0.208633 4.84451 0
M  V30 7799 N 747.919 -1.57396 -0.0801906 0
M  V30 7800 C 748.867 -2.04136 -1.11495 0
M  V30 7801 C 749.861 -0.945137 -1.40583 0
M  V30 7802 O 751.067 -1.13028 -1.40088 0
M  V30 7803 H 747.442 -0.65076 -0.37685 0
M  V30 7804 H 749.413 -2.90205 -0.694526 0
M  V30 7805 C 748.162 -2.49399 -2.42272 0
M  V30 7806 H 747.485 -3.33339 -2.20737 0
M  V30 7807 H 748.925 -2.85864 -3.13142 0
M  V30 7808 C 747.384 -1.37341 -3.07635 0
M  V30 7809 O 747.914 -0.710829 -3.95361 0
M  V30 7810 N 746.12 -1.12064 -2.68123 0
M  V30 7811 H 745.667 -1.66126 -1.96875 0
M  V30 7812 H 745.625 -0.372916 -3.12181 0
M  V30 7813 N 749.397 0.351382 -1.53633 0
M  V30 7814 C 750.307 1.45471 -1.84052 0
M  V30 7815 C 751.323 1.57945 -0.730015 0
M  V30 7816 O 752.499 1.73571 -1.02153 0
M  V30 7817 C 749.564 2.80562 -2.03681 0
M  V30 7818 C 748.625 2.77497 -3.27558 0
M  V30 7819 C 747.858 4.06144 -3.46241 0
M  V30 7820 O 748.081 5.03028 -2.68922 0
M  V30 7821 O 747.015 4.11092 -4.39645 0
M  V30 7822 H 750.841 1.22684 -2.77817 0
M  V30 7823 H 748.426 0.542827 -1.3919 0
M  V30 7824 H 750.308 3.6058 -2.18082 0
M  V30 7825 H 748.983 3.03296 -1.13106 0
M  V30 7826 H 747.89 1.96126 -3.18568 0
M  V30 7827 H 749.223 2.59716 -4.18101 0
M  V30 7828 N 750.875 1.45233 0.611969 0
M  V30 7829 C 752.286 1.4354 1.19387 0
M  V30 7830 C 752.637 0.160713 1.95541 0
M  V30 7831 O 751.762 -0.737954 2.03429 0
M  V30 7832 C 752.357 2.60045 2.17169 0
M  V30 7833 C 750.916 2.61486 2.70744 0
M  V30 7834 C 750.063 2.35708 1.46072 0
M  V30 7835 H 753.014 1.53536 0.401529 0
M  V30 7836 H 753.035 2.33893 3.00124 0
M  V30 7837 H 752.547 3.52803 1.61714 0
M  V30 7838 H 750.648 1.72721 3.30149 0
M  V30 7839 H 750.761 3.60572 3.15476 0
M  V30 7840 H 749.125 1.85178 1.74875 0
M  V30 7841 H 749.908 3.30606 0.924922 0
M  V30 7842 N 752.353 -0.854086 1.3245 0
M  V30 7843 C 753.599 -1.61069 1.23225 0
M  V30 7844 C 753.932 -1.93111 -0.205349 0
M  V30 7845 O 753.207 -1.57397 -1.14265 0
M  V30 7846 C 753.49 -2.93065 2.09249 0
M  V30 7847 C 753.343 -2.67801 3.6139 0
M  V30 7848 C 754.662 -3.94341 1.95406 0
M  V30 7849 H 751.781 -0.584449 0.448986 0
M  V30 7850 H 754.423 -0.986189 1.62402 0
M  V30 7851 H 752.573 -3.46364 1.75967 0
M  V30 7852 H 754.245 -2.21052 4.04887 0
M  V30 7853 H 752.488 -2.01756 3.84027 0
M  V30 7854 H 753.159 -3.6179 4.16907 0
M  V30 7855 H 755.635 -3.50301 2.24562 0
M  V30 7856 H 754.511 -4.84555 2.57872 0
M  V30 7857 H 754.772 -4.32382 0.921865 0
M  V30 7858 N 753.831 -1.1567 -1.07043 0
M  V30 7859 C 755.079 -0.931673 -1.79344 0
M  V30 7860 C 755.4 0.542421 -1.87304 0
M  V30 7861 O 754.67 1.39418 -1.37621 0
M  V30 7862 H 753.25 -0.34171 -0.664262 0
M  V30 7863 H 755.912 -1.45795 -1.29344 0
M  V30 7864 H 755.008 -1.34379 -2.81689 0
M  V30 7865 N 755.309 1.25446 -0.953992 0
M  V30 7866 C 756.539 1.96929 -0.624688 0
M  V30 7867 C 756.947 1.71112 0.807292 0
M  V30 7868 O 756.29 0.983512 1.55154 0
M  V30 7869 C 756.352 3.50425 -0.802676 0
M  V30 7870 C 756.016 3.99916 -2.21169 0
M  V30 7871 C 757.013 4.10662 -3.18831 0
M  V30 7872 C 754.698 4.33598 -2.53571 0
M  V30 7873 C 756.692 4.54401 -4.46988 0
M  V30 7874 C 754.379 4.77024 -3.81958 0
M  V30 7875 C 755.377 4.87388 -4.78478 0
M  V30 7876 O 755.065 5.29851 -6.04577 0
M  V30 7877 H 754.797 0.634511 -0.233179 0
M  V30 7878 H 757.351 1.60591 -1.28061 0
M  V30 7879 H 755.581 3.86596 -0.0896044 0
M  V30 7880 H 757.27 4.03117 -0.47452 0
M  V30 7881 H 758.036 3.84872 -2.95124 0
M  V30 7882 H 753.915 4.24757 -1.79171 0
M  V30 7883 H 757.459 4.62406 -5.22328 0
M  V30 7884 H 753.356 5.02258 -4.05471 0
M  V30 7885 H 754.124 5.48039 -6.07944 0
M  V30 7886 N 756.787 0.722489 1.40064 0
M  V30 7887 C 757.734 0.0743738 2.3068 0
M  V30 7888 C 758.704 -0.743004 1.48555 0
M  V30 7889 O 759.889 -0.705536 1.77276 0
M  V30 7890 C 757.029 -0.836292 3.34814 0
M  V30 7891 C 756.142 -0.00764663 4.31999 0
M  V30 7892 C 755.277 -0.918428 5.232 0
M  V30 7893 C 754.316 -0.0842838 6.12042 0
M  V30 7894 N 753.453 -0.950316 6.95639 0
M  V30 7895 H 758.293 0.852794 2.85537 0
M  V30 7896 H 755.83 0.432222 1.40607 0
M  V30 7897 H 757.788 -1.3786 3.93765 0
M  V30 7898 H 756.418 -1.58082 2.81443 0
M  V30 7899 H 755.47 0.651928 3.74772 0
M  V30 7900 H 756.782 0.63786 4.94705 0
M  V30 7901 H 755.936 -1.52902 5.87116 0
M  V30 7902 H 754.675 -1.59774 4.60786 0
M  V30 7903 H 753.68 0.5392 5.4715 0
M  V30 7904 H 754.905 0.591628 6.76518 0
M  V30 7905 H 752.851 -1.61515 6.35806 0
M  V30 7906 H 752.768 -0.361004 7.55138 0
M  V30 7907 H 754.036 -1.54687 7.63997 0
M  V30 7908 N 758.265 -1.50454 0.469181 0
M  V30 7909 C 759.195 -2.31353 -0.31592 0
M  V30 7910 C 760.176 -1.38172 -0.992094 0
M  V30 7911 O 761.361 -1.67093 -0.989633 0
M  V30 7912 C 758.491 -3.1786 -1.39937 0
M  V30 7913 C 757.445 -4.19578 -0.844909 0
M  V30 7914 C 756.771 -4.9481 -2.0265 0
M  V30 7915 C 758.071 -5.22106 0.142499 0
M  V30 7916 H 759.765 -2.97237 0.359269 0
M  V30 7917 H 757.311 -1.42942 0.174224 0
M  V30 7918 H 759.264 -3.7325 -1.95607 0
M  V30 7919 H 757.988 -2.49858 -2.1033 0
M  V30 7920 H 756.647 -3.65285 -0.310189 0
M  V30 7921 H 756.295 -4.23282 -2.71737 0
M  V30 7922 H 755.995 -5.63613 -1.66174 0
M  V30 7923 H 757.519 -5.53035 -2.58815 0
M  V30 7924 H 758.933 -5.72378 -0.324966 0
M  V30 7925 H 757.33 -5.98618 0.421441 0
M  V30 7926 H 758.4 -4.7297 1.06901 0
M  V30 7927 N 759.743 -0.201713 -1.56304 0
M  V30 7928 C 760.693 0.729444 -2.16016 0
M  V30 7929 C 761.677 1.17164 -1.10279 0
M  V30 7930 O 762.869 1.12893 -1.36324 0
M  V30 7931 C 759.998 1.94594 -2.82822 0
M  V30 7932 C 759.084 1.52434 -3.95758 0
M  V30 7933 N 759.475 0.814106 -4.99205 0
M  V30 7934 C 757.773 1.81314 -4.07481 0
M  V30 7935 C 758.474 0.601896 -5.78578 0
M  V30 7936 N 757.45 1.15263 -5.3124 0
M  V30 7937 H 761.252 0.178163 -2.93359 0
M  V30 7938 H 758.766 -0.00218038 -1.624 0
M  V30 7939 H 760.763 2.62357 -3.23998 0
M  V30 7940 H 759.423 2.50188 -2.06969 0
M  V30 7941 H 760.434 0.468872 -5.15773 0
M  V30 7942 H 757.111 2.3837 -3.42762 0
M  V30 7943 H 758.501 0.0380119 -6.71889 0
M  V30 7944 N 761.222 1.57436 0.0718424 0
M  V30 7945 C 762.185 2.02703 1.06977 0
M  V30 7946 C 763.185 0.924062 1.31597 0
M  V30 7947 O 764.375 1.18894 1.27318 0
M  V30 7948 C 761.507 2.40763 2.41342 0
M  V30 7949 H 762.7 2.92098 0.679619 0
M  V30 7950 H 760.253 1.5304 0.317565 0
M  V30 7951 H 760.988 1.54394 2.8519 0
M  V30 7952 H 760.773 3.21249 2.24814 0
M  V30 7953 H 762.263 2.76361 3.13073 0
M  V30 7954 N 762.7 -0.34323 1.53817 0
M  V30 7955 C 763.65 -1.42217 1.78208 0
M  V30 7956 C 764.634 -1.4774 0.637304 0
M  V30 7957 O 765.826 -1.52605 0.896705 0
M  V30 7958 C 762.955 -2.79354 1.9954 0
M  V30 7959 C 762.041 -2.78222 3.20084 0
M  V30 7960 N 762.432 -2.46719 4.41547 0
M  V30 7961 C 760.73 -3.09368 3.21259 0
M  V30 7962 C 761.431 -2.53828 5.23399 0
M  V30 7963 N 760.407 -2.89464 4.60121 0
M  V30 7964 H 764.209 -1.16759 2.69712 0
M  V30 7965 H 761.723 -0.551592 1.52746 0
M  V30 7966 H 763.72 -3.57095 2.15148 0
M  V30 7967 H 762.38 -3.05759 1.09278 0
M  V30 7968 H 763.391 -2.19912 4.68891 0
M  V30 7969 H 760.068 -3.40942 2.40966 0
M  V30 7970 H 761.458 -2.32629 6.30344 0
M  V30 7971 N 764.178 -1.45556 -0.604258 0
M  V30 7972 C 765.126 -1.5482 -1.7359 0
M  V30 7973 C 766.12 -0.417966 -1.64163 0
M  V30 7974 O 767.326 -0.594007 -1.69916 0
M  V30 7975 H 763.701 -0.486352 -0.573556 0
M  V30 7976 H 765.672 -2.5001 -1.62903 0
M  V30 7977 C 764.421 -1.53521 -3.11972 0
M  V30 7978 H 763.744 -2.39818 -3.19886 0
M  V30 7979 H 765.184 -1.64061 -3.90973 0
M  V30 7980 C 763.643 -0.260191 -3.35894 0
M  V30 7981 O 764.173 0.658582 -3.96265 0
M  V30 7982 N 762.379 -0.154839 -2.90187 0
M  V30 7983 H 761.926 -0.903378 -2.4124 0
M  V30 7984 H 761.884 0.697437 -3.06567 0
M  V30 7985 N 765.656 0.84705 -1.32902 0
M  V30 7986 C 766.588 1.96308 -1.18304 0
M  V30 7987 C 767.601 1.62386 -0.116082 0
M  V30 7988 O 768.79 1.74713 -0.365751 0
M  V30 7989 C 765.89 3.29556 -0.790305 0
M  V30 7990 C 765.063 3.91668 -1.94717 0
M  V30 7991 C 764.122 5.0326 -1.53674 0
M  V30 7992 O 763.148 5.22847 -2.24989 0
M  V30 7993 N 764.35 5.78852 -0.437075 0
M  V30 7994 H 767.115 2.09369 -2.14441 0
M  V30 7995 H 764.676 1.02233 -1.25539 0
M  V30 7996 H 766.668 4.01624 -0.49799 0
M  V30 7997 H 765.238 3.12497 0.0801286 0
M  V30 7998 H 764.458 3.12292 -2.40557 0
M  V30 7999 H 765.746 4.299 -2.72146 0
M  V30 8000 H 765.144 5.65484 0.156316 0
M  V30 8001 H 763.701 6.51479 -0.204399 0
M  V30 8002 N 767.134 1.16236 1.06428 0
M  V30 8003 C 768.545 0.950942 1.60667 0
M  V30 8004 C 768.896 -0.505491 1.89576 0
M  V30 8005 O 768.021 -1.37843 1.66818 0
M  V30 8006 C 768.616 1.71982 2.91904 0
M  V30 8007 C 767.175 1.55342 3.4285 0
M  V30 8008 C 766.322 1.72942 2.16763 0
M  V30 8009 H 769.273 1.31126 0.893959 0
M  V30 8010 H 769.294 1.19483 3.61253 0
M  V30 8011 H 768.806 2.77978 2.70831 0
M  V30 8012 H 766.907 0.5178 3.68985 0
M  V30 8013 H 767.02 2.33643 4.18267 0
M  V30 8014 H 765.384 1.15673 2.26918 0
M  V30 8015 H 766.167 2.80324 1.98175 0
M  V30 8016 N 768.612 -1.24939 0.960631 0
M  V30 8017 C 769.84 -1.96881 0.636045 0
M  V30 8018 C 770.255 -1.71334 -0.793093 0
M  V30 8019 O 769.612 -0.992917 -1.53125 0
M  V30 8020 C 769.663 -3.50309 0.892533 0
M  V30 8021 O 769.384 -3.74977 2.26548 0
M  V30 8022 C 770.885 -4.39474 0.581159 0
M  V30 8023 H 768.105 -0.627399 0.237931 0
M  V30 8024 H 770.649 -1.58952 1.28664 0
M  V30 8025 H 768.804 -3.86326 0.288257 0
M  V30 8026 H 769.218 -4.69401 2.34014 0
M  V30 8027 H 770.692 -5.46008 0.811125 0
M  V30 8028 H 771.169 -4.3652 -0.48443 0
M  V30 8029 H 771.775 -4.09032 1.16502 0
M  V30 8030 N 770.09 -0.729906 -1.39679 0
M  V30 8031 C 771.02 -0.101618 -2.33279 0
M  V30 8032 C 772.001 0.729854 -1.53646 0
M  V30 8033 O 773.186 0.67587 -1.82059 0
M  V30 8034 C 770.316 0.81024 -3.37716 0
M  V30 8035 C 769.27 0.0833126 -4.27919 0
M  V30 8036 C 768.596 1.11185 -5.23012 0
M  V30 8037 C 769.896 -1.07107 -5.112 0
M  V30 8038 H 771.59 -0.883452 -2.86069 0
M  V30 8039 H 769.136 -0.426283 -1.37546 0
M  V30 8040 H 771.089 1.25927 -4.02145 0
M  V30 8041 H 769.813 1.62413 -2.83354 0
M  V30 8042 H 768.472 -0.346043 -3.64963 0
M  V30 8043 H 768.12 1.91917 -4.64948 0
M  V30 8044 H 767.82 0.63026 -5.8421 0
M  V30 8045 H 769.344 1.56068 -5.90318 0
M  V30 8046 H 770.758 -0.700726 -5.69002 0
M  V30 8047 H 769.155 -1.48196 -5.81514 0
M  V30 8048 H 770.225 -1.89513 -4.46332 0
M  V30 8049 N 771.568 1.50203 -0.477153 0
M  V30 8050 C 772.498 2.31517 0.303646 0
M  V30 8051 C 773.479 1.38696 0.984753 0
M  V30 8052 O 774.664 1.67615 0.980758 0
M  V30 8053 C 771.794 3.18598 1.38249 0
M  V30 8054 C 770.748 4.2002 0.822645 0
M  V30 8055 C 770.074 4.95878 2.00024 0
M  V30 8056 C 771.374 5.22023 -0.170185 0
M  V30 8057 H 773.068 2.97042 -0.375027 0
M  V30 8058 H 770.614 1.42848 -0.181802 0
M  V30 8059 H 772.567 3.74282 1.93625 0
M  V30 8060 H 771.291 2.5097 2.09002 0
M  V30 8061 H 769.95 3.65445 0.290813 0
M  V30 8062 H 769.598 4.24717 2.69489 0
M  V30 8063 H 769.298 5.64487 1.63183 0
M  V30 8064 H 770.822 5.54399 2.55878 0
M  V30 8065 H 772.236 5.72543 0.294606 0
M  V30 8066 H 770.633 5.98386 -0.453181 0
M  V30 8067 H 771.703 4.72396 -1.09408 0
M  V30 8068 N 773.046 0.209999 1.56195 0
M  V30 8069 C 774.009 -0.691232 2.18528 0
M  V30 8070 C 775.009 -1.13013 1.14388 0
M  V30 8071 O 776.199 -1.04081 1.39688 0
M  V30 8072 C 773.331 -1.94551 2.79934 0
M  V30 8073 H 774.524 -0.147953 2.99535 0
M  V30 8074 H 772.077 -0.0396243 1.5625 0
M  V30 8075 H 772.812 -2.53094 2.02766 0
M  V30 8076 H 772.597 -1.63938 3.56184 0
M  V30 8077 H 774.087 -2.58785 3.2775 0
M  V30 8078 N 774.524 -1.57472 -0.0634922 0
M  V30 8079 C 775.801 -1.78736 -0.794538 0
M  V30 8080 C 776.181 -0.799645 -1.95369 0
M  V30 8081 O 775.529 0.165521 -2.279 0
M  V30 8082 C 775.739 -3.25471 -1.25975 0
M  V30 8083 C 777.087 -3.89528 -1.68976 0
M  V30 8084 O 778.111 -3.29412 -1.35521 0
M  V30 8085 O 776.97 -4.95305 -2.30944 0
M  V30 8086 H 774.064 -0.733813 -0.381376 0
M  V30 8087 H 776.61 -1.69646 -0.0429258 0
M  V30 8088 H 775.382 -3.88922 -0.430721 0
M  V30 8089 H 775.005 -3.39317 -2.07243 0
M  V30 8090 N 776.003 0.335068 -1.53997 0
M  V30 8091 C 777.414 0.910191 -1.6301 0
M  V30 8092 C 777.765 1.89271 -0.516809 0
M  V30 8093 O 776.89 2.13516 0.352123 0
M  V30 8094 C 777.485 1.65761 -2.9548 0
M  V30 8095 C 776.044 2.18163 -3.06728 0
M  V30 8096 C 775.191 1.00338 -2.5851 0
M  V30 8097 H 778.142 0.112965 -1.58297 0
M  V30 8098 H 778.163 2.52107 -2.84995 0
M  V30 8099 H 777.675 0.94227 -3.76488 0
M  V30 8100 H 775.776 2.92847 -2.30372 0
M  V30 8101 H 775.889 2.43952 -4.1234 0
M  V30 8102 H 774.253 1.37925 -2.14124 0
M  V30 8103 H 775.036 0.30254 -3.41964 0
M  V30 8104 N 777.481 1.45874 0.596531 0
M  V30 8105 C 778.729 1.5017 1.35253 0
M  V30 8106 C 779.05 0.149246 1.94428 0
M  V30 8107 O 778.32 -0.82268 1.77789 0
M  V30 8108 H 776.9 0.553052 0.502138 0
M  V30 8109 H 779.562 1.81908 0.699671 0
M  V30 8110 H 778.658 2.24671 2.16632 0
M  V30 8111 N 778.959 -0.83999 1.33349 0
M  V30 8112 C 780.184 -1.63249 1.27924 0
M  V30 8113 C 780.609 -1.87523 -0.147193 0
M  V30 8114 O 779.967 -1.43853 -1.10345 0
M  V30 8115 C 780.015 -2.96046 2.05886 0
M  V30 8116 O 779.119 -3.87303 1.4167 0
M  V30 8117 H 778.46 -0.49715 0.440157 0
M  V30 8118 H 780.99 -1.04512 1.75893 0
M  V30 8119 H 781 -3.45752 2.16609 0
M  V30 8120 H 779.675 -2.77701 3.09605 0
M  V30 8121 H 778.252 -3.45789 1.39585 0
M  V30 8122 N 780.437 -1.16799 -1.0581 0
M  V30 8123 C 781.662 -0.977402 -1.82925 0
M  V30 8124 C 782.087 0.469514 -1.82146 0
M  V30 8125 O 781.445 1.33576 -1.22585 0
M  V30 8126 C 781.493 -1.51543 -3.27211 0
M  V30 8127 O 780.597 -0.725021 -4.05977 0
M  V30 8128 H 779.938 -0.347474 -0.565825 0
M  V30 8129 H 782.468 -1.55151 -1.33376 0
M  V30 8130 H 782.478 -1.53502 -3.78023 0
M  V30 8131 H 781.153 -2.56872 -3.27093 0
M  V30 8132 H 779.73 -0.77634 -3.64729 0
M  V30 8133 N 781.915 1.24427 -0.967243 0
M  V30 8134 C 783.164 1.91789 -0.624478 0
M  V30 8135 C 783.477 1.76448 0.844129 0
M  V30 8136 O 784.683 2.38495 1.2974 0
M  V30 8137 C 783.139 3.43743 -1.06626 0
M  V30 8138 C 782.747 3.67771 -2.55829 0
M  V30 8139 C 784.491 4.16958 -0.79662 0
M  V30 8140 C 782.398 5.13293 -2.93742 0
M  V30 8141 H 781.328 0.71811 -0.229856 0
M  V30 8142 H 783.979 1.41081 -1.17339 0
M  V30 8143 H 782.361 3.93484 -0.445663 0
M  V30 8144 H 783.535 3.28631 -3.23015 0
M  V30 8145 H 781.85 3.07841 -2.80398 0
M  V30 8146 H 784.447 5.24171 -1.05589 0
M  V30 8147 H 784.79 4.15442 0.267163 0
M  V30 8148 H 785.323 3.73164 -1.37816 0
M  V30 8149 H 782.062 5.19931 -3.9919 0
M  V30 8150 H 781.582 5.53433 -2.3124 0
M  V30 8151 H 783.261 5.81521 -2.83623 0
M  V30 8152 N 783.393 0.737304 1.3929 0
M  V30 8153 C 784.356 0.10731 2.28949 0
M  V30 8154 C 785.356 -0.664716 1.46418 0
M  V30 8155 O 786.546 -0.493392 1.67067 0
M  V30 8156 C 783.678 -0.857145 3.29948 0
M  V30 8157 H 784.871 0.89725 2.86163 0
M  V30 8158 H 782.424 0.503279 1.47976 0
M  V30 8159 H 783.159 -1.67336 2.77794 0
M  V30 8160 H 782.944 -0.306167 3.90903 0
M  V30 8161 H 784.434 -1.29444 3.97031 0
M  V30 8162 N 784.871 -1.49948 0.485112 0
M  V30 8163 C 786.287 -1.58984 0.140096 0
M  V30 8164 C 786.487 -1.49194 -1.35438 0
M  V30 8165 O 785.543 -1.35765 -2.12894 0
M  V30 8166 C 786.856 -2.92372 0.702769 0
M  V30 8167 C 788.404 -3.05801 0.66745 0
M  V30 8168 C 788.879 -4.41785 1.20791 0
M  V30 8169 N 790.37 -4.48234 1.16792 0
M  V30 8170 C 791.105 -5.51871 1.55646 0
M  V30 8171 N 790.601 -6.62692 2.02016 0
M  V30 8172 N 792.394 -5.42494 1.47161 0
M  V30 8173 H 784.545 -1.54555 1.45693 0
M  V30 8174 H 786.808 -0.731206 0.603359 0
M  V30 8175 H 786.514 -3.05056 1.75025 0
M  V30 8176 H 786.388 -3.76885 0.154205 0
M  V30 8177 H 788.775 -2.92757 -0.371157 0
M  V30 8178 H 788.856 -2.23011 1.25298 0
M  V30 8179 H 788.5 -4.55579 2.24522 0
M  V30 8180 H 788.43 -5.23188 0.598464 0
M  V30 8181 H 790.921 -3.68718 0.827982 0
M  V30 8182 H 791.234 -7.3785 2.29775 0
M  V30 8183 H 789.579 -6.63775 2.05979 0
M  V30 8184 H 792.77 -4.54806 1.10765 0
M  V30 8185 H 792.943 -6.2314 1.77766 0
M  V30 8186 N 786.349 -0.21828 -1.56081 0
M  V30 8187 C 787.765 0.137168 -1.59009 0
M  V30 8188 C 787.965 1.59215 -1.23503 0
M  V30 8189 O 787.021 2.33178 -0.968716 0
M  V30 8190 C 788.334 -0.186162 -3.00123 0
M  V30 8191 C 789.882 -0.128135 -3.12738 0
M  V30 8192 C 790.357 -0.425094 -4.56023 0
M  V30 8193 N 791.848 -0.374547 -4.61683 0
M  V30 8194 C 792.583 -0.57786 -5.70481 0
M  V30 8195 N 792.079 -0.842771 -6.87655 0
M  V30 8196 N 793.872 -0.510521 -5.59777 0
M  V30 8197 H 786.023 -1.16746 -1.77437 0
M  V30 8198 H 788.286 -0.467706 -0.824594 0
M  V30 8199 H 787.992 -1.19589 -3.30744 0
M  V30 8200 H 787.866 0.500388 -3.73866 0
M  V30 8201 H 790.253 0.872224 -2.81915 0
M  V30 8202 H 790.334 -0.848112 -2.41331 0
M  V30 8203 H 789.978 -1.42288 -4.87562 0
M  V30 8204 H 789.908 0.316038 -5.25651 0
M  V30 8205 H 792.399 -0.177356 -3.77484 0
M  V30 8206 H 792.712 -0.986095 -7.66483 0
M  V30 8207 H 791.057 -0.879929 -6.89407 0
M  V30 8208 H 794.248 -0.303813 -4.67113 0
M  V30 8209 H 794.421 -0.672378 -6.44502 0
M  V30 8210 N 787.827 1.57504 0.0551401 0
M  V30 8211 C 788.79 2.03826 1.04821 0
M  V30 8212 C 789.79 0.937968 1.30609 0
M  V30 8213 O 790.98 1.20237 1.2605 0
M  V30 8214 C 788.112 2.43309 2.38775 0
M  V30 8215 H 789.305 2.92802 0.6486 0
M  V30 8216 H 786.858 1.53368 0.301315 0
M  V30 8217 H 787.593 1.5741 2.83536 0
M  V30 8218 H 787.378 3.23615 2.21395 0
M  V30 8219 H 788.868 2.79666 3.10124 0
M  V30 8220 N 789.305 -0.326896 1.54172 0
M  V30 8221 C 790.268 -1.38515 1.8261 0
M  V30 8222 C 791.268 -1.44872 0.697771 0
M  V30 8223 O 792.458 -1.44957 0.966078 0
M  V30 8224 C 789.59 -2.77281 1.98313 0
M  V30 8225 H 790.783 -1.14556 2.77159 0
M  V30 8226 H 788.336 -0.562199 1.45839 0
M  V30 8227 H 789.071 -3.065 1.05964 0
M  V30 8228 H 788.856 -2.74061 2.80416 0
M  V30 8229 H 790.346 -3.53845 2.21773 0
M  V30 8230 N 790.784 -1.46188 -0.588786 0
M  V30 8231 C 792.031 -1.51184 -1.34721 0
M  V30 8232 C 792.359 -0.161084 -1.93832 0
M  V30 8233 O 791.614 0.842557 -1.76634 0
M  V30 8234 C 791.913 -2.55364 -2.50048 0
M  V30 8235 C 791.579 -3.99553 -2.08969 0
M  V30 8236 C 790.241 -4.38811 -1.9748 0
M  V30 8237 C 792.593 -4.90156 -1.77191 0
M  V30 8238 C 789.921 -5.66544 -1.52463 0
M  V30 8239 C 792.273 -6.1832 -1.33654 0
M  V30 8240 C 790.937 -6.5649 -1.20738 0
M  V30 8241 H 790.207 -0.55322 -0.49298 0
M  V30 8242 H 792.854 -1.79634 -0.663627 0
M  V30 8243 H 791.159 -2.20552 -3.23827 0
M  V30 8244 H 792.856 -2.5646 -3.08268 0
M  V30 8245 H 789.446 -3.68518 -2.18843 0
M  V30 8246 H 793.63 -4.60549 -1.84955 0
M  V30 8247 H 788.886 -5.94895 -1.411 0
M  V30 8248 H 793.06 -6.87956 -1.08117 0
M  V30 8249 H 790.687 -7.55362 -0.856307 0
M  V30 8250 N 792.262 0.832906 -1.33792 0
M  V30 8251 C 793.225 1.92471 -1.24449 0
M  V30 8252 C 794.225 1.59981 -0.162085 0
M  V30 8253 O 795.415 1.69208 -0.414029 0
M  V30 8254 C 792.547 3.28278 -0.919044 0
M  V30 8255 H 793.74 2.0218 -2.21502 0
M  V30 8256 H 791.293 1.0257 -1.17936 0
M  V30 8257 H 792.028 3.24263 0.048738 0
M  V30 8258 H 791.813 3.53241 -1.70187 0
M  V30 8259 H 793.303 4.08253 -0.878576 0
M  V30 8260 N 793.74 1.17359 1.05189 0
M  V30 8261 C 794.968 0.986529 1.81866 0
M  V30 8262 C 795.383 -0.46522 1.82979 0
M  V30 8263 O 794.74 -1.32305 1.25705 0
M  V30 8264 C 794.791 1.52021 3.27982 0
M  V30 8265 O 794.512 2.91511 3.27037 0
M  V30 8266 C 796.013 1.37774 4.21347 0
M  V30 8267 H 793.233 0.349021 0.573084 0
M  V30 8268 H 795.777 1.55648 1.32643 0
M  V30 8269 H 793.932 0.992287 3.74476 0
M  V30 8270 H 794.346 3.16178 4.18488 0
M  V30 8271 H 795.82 1.7993 5.21852 0
M  V30 8272 H 796.297 0.32483 4.37997 0
M  V30 8273 H 796.903 1.89583 3.80708 0
M  V30 8274 N 795.218 -1.23913 0.973828 0
M  V30 8275 C 796.165 -2.25132 0.508366 0
M  V30 8276 C 797.135 -1.59908 -0.449307 0
M  V30 8277 O 798.32 -1.87405 -0.358313 0
M  V30 8278 C 795.46 -3.4458 -0.189422 0
M  V30 8279 C 794.573 -4.24381 0.807738 0
M  V30 8280 C 793.708 -5.31131 0.0854315 0
M  V30 8281 C 792.747 -6.02635 1.07225 0
M  V30 8282 N 791.884 -7.01073 0.379535 0
M  V30 8283 H 796.724 -2.64313 1.37632 0
M  V30 8284 H 794.261 -1.29924 0.689802 0
M  V30 8285 H 796.219 -4.12706 -0.610733 0
M  V30 8286 H 794.849 -3.06218 -1.02129 0
M  V30 8287 H 793.901 -3.55735 1.34747 0
M  V30 8288 H 795.213 -4.73778 1.55998 0
M  V30 8289 H 794.367 -6.05422 -0.393572 0
M  V30 8290 H 793.106 -4.82658 -0.699461 0
M  V30 8291 H 792.111 -5.27143 1.56207 0
M  V30 8292 H 793.336 -6.53197 1.85769 0
M  V30 8293 H 791.282 -6.54862 -0.386269 0
M  V30 8294 H 791.199 -7.48382 1.07054 0
M  V30 8295 H 792.467 -7.79462 -0.0772984 0
M  V30 8296 N 796.696 -0.74468 -1.38897 0
M  V30 8297 C 797.973 -0.222773 -1.94327 0
M  V30 8298 C 798.353 1.27731 -1.68071 0
M  V30 8299 O 797.701 2.04754 -1.01429 0
M  V30 8300 C 797.911 -0.566836 -3.44366 0
M  V30 8301 C 799.259 -0.521531 -4.21385 0
M  V30 8302 O 800.283 -0.504599 -3.52608 0
M  V30 8303 O 799.142 -0.524595 -5.43976 0
M  V30 8304 H 796.236 -0.0439259 -0.825833 0
M  V30 8305 H 798.782 -0.824197 -1.48341 0
M  V30 8306 H 797.554 -1.60321 -3.56949 0
M  V30 8307 H 797.177 0.0630577 -3.9755 0
M  V30 8308 N 798.174 1.49689 -0.493057 0
M  V30 8309 C 799.104 2.31826 0.279073 0
M  V30 8310 C 800.085 1.39733 0.969987 0
M  V30 8311 O 801.27 1.68646 0.962925 0
M  V30 8312 C 798.4 3.20046 1.34862 0
M  V30 8313 C 797.354 4.20869 0.77805 0
M  V30 8314 C 796.68 4.97971 1.94753 0
M  V30 8315 C 797.98 5.21813 -0.225543 0
M  V30 8316 H 799.674 2.96627 -0.406512 0
M  V30 8317 H 797.22 1.42647 -0.196943 0
M  V30 8318 H 799.173 3.76315 1.89645 0
M  V30 8319 H 797.897 2.53172 2.06328 0
M  V30 8320 H 796.556 3.65733 0.252036 0
M  V30 8321 H 796.204 4.27552 2.64969 0
M  V30 8322 H 795.904 5.66186 1.57187 0
M  V30 8323 H 797.428 5.57082 2.49984 0
M  V30 8324 H 798.842 5.72823 0.233864 0
M  V30 8325 H 797.239 5.97872 -0.516622 0
M  V30 8326 H 798.309 4.71209 -1.14412 0
M  V30 8327 N 799.652 0.226554 1.55963 0
M  V30 8328 C 800.898 -0.397608 1.99476 0
M  V30 8329 C 801.253 -1.57031 1.11172 0
M  V30 8330 O 800.546 -1.90907 0.162757 0
M  V30 8331 C 800.74 -0.87642 3.46488 0
M  V30 8332 C 800.569 0.248344 4.49014 0
M  V30 8333 C 799.339 0.71638 5.00196 0
M  V30 8334 C 801.537 1.06835 5.03081 0
M  V30 8335 N 799.519 1.81568 5.86435 0
M  V30 8336 C 800.89 2.01641 5.86294 0
M  V30 8337 C 802.945 1.10722 4.85433 0
M  V30 8338 C 801.648 3.0002 6.53743 0
M  V30 8339 C 803.674 2.07921 5.53645 0
M  V30 8340 C 803.036 3.01466 6.3663 0
M  V30 8341 H 799.135 -0.112024 0.773935 0
M  V30 8342 H 801.719 0.339472 1.91718 0
M  V30 8343 H 799.89 -1.58285 3.54684 0
M  V30 8344 H 801.622 -1.47382 3.76909 0
M  V30 8345 H 798.377 0.30409 4.72623 0
M  V30 8346 H 798.801 2.36748 6.34255 0
M  V30 8347 H 803.443 0.397909 4.20923 0
M  V30 8348 H 801.161 3.71911 7.17432 0
M  V30 8349 H 804.747 2.11609 5.41953 0
M  V30 8350 H 803.627 3.75451 6.88481 0
M  V30 8351 N 801.13 -1.57531 -0.0467866 0
M  V30 8352 C 802.376 -1.8873 -0.742218 0
M  V30 8353 C 802.709 -0.822084 -1.75941 0
M  V30 8354 O 801.984 0.164922 -1.938 0
M  V30 8355 C 802.267 -3.30586 -1.42776 0
M  V30 8356 C 802.12 -4.47785 -0.425285 0
M  V30 8357 C 803.439 -3.71068 -2.36636 0
M  V30 8358 H 800.558 -0.686406 -0.268359 0
M  V30 8359 H 803.2 -1.89999 -0.00511341 0
M  V30 8360 H 801.35 -3.29634 -2.05605 0
M  V30 8361 H 803.022 -4.60867 0.199721 0
M  V30 8362 H 801.265 -4.33037 0.25713 0
M  V30 8363 H 801.936 -5.43884 -0.943086 0
M  V30 8364 H 804.412 -3.73273 -1.83866 0
M  V30 8365 H 803.288 -4.71165 -2.81593 0
M  V30 8366 H 803.549 -3.02355 -3.22542 0
M  V30 8367 N 802.608 0.318715 -1.54344 0
M  V30 8368 C 803.836 1.0755 -1.7675 0
M  V30 8369 C 804.251 1.81543 -0.518422 0
M  V30 8370 O 803.608 1.75198 0.511078 0
M  V30 8371 C 803.659 2.06983 -2.96378 0
M  V30 8372 O 803.38 1.35995 -4.16458 0
M  V30 8373 C 804.881 2.94841 -3.31034 0
M  V30 8374 H 802.101 0.319711 -0.589937 0
M  V30 8375 H 804.645 0.363369 -2.01246 0
M  V30 8376 H 802.8 2.73724 -2.74142 0
M  V30 8377 H 803.214 2.02623 -4.83781 0
M  V30 8378 H 804.688 3.60496 -4.18027 0
M  V30 8379 H 805.165 3.62199 -2.48412 0
M  V30 8380 H 805.771 2.33656 -3.55366 0
M  V30 8381 N 804.086 1.46499 0.581025 0
M  V30 8382 C 805.502 1.31491 0.904563 0
M  V30 8383 C 805.702 0.287598 1.99437 0
M  V30 8384 O 804.758 -0.309247 2.50599 0
M  V30 8385 C 806.071 2.70163 1.32032 0
M  V30 8386 C 807.619 2.78266 1.43308 0
M  V30 8387 C 808.094 4.17524 1.8825 0
M  V30 8388 N 809.585 4.19949 1.9544 0
M  V30 8389 C 810.32 5.24594 2.31493 0
M  V30 8390 N 809.816 6.39564 2.66326 0
M  V30 8391 N 811.609 5.11961 2.32062 0
M  V30 8392 H 803.76 2.11946 -0.138856 0
M  V30 8393 H 806.023 0.948 0.000548528 0
M  V30 8394 H 805.729 3.46655 0.593554 0
M  V30 8395 H 805.603 3.00379 2.2815 0
M  V30 8396 H 807.99 2.02061 2.15071 0
M  V30 8397 H 808.071 2.51732 0.45438 0
M  V30 8398 H 807.715 4.94225 1.17065 0
M  V30 8399 H 807.645 4.41466 2.87081 0
M  V30 8400 H 810.136 3.36996 1.71004 0
M  V30 8401 H 810.449 7.15187 2.92793 0
M  V30 8402 H 808.794 6.42923 2.6396 0
M  V30 8403 H 811.985 4.21177 2.04272 0
M  V30 8404 H 812.158 5.93626 2.5983 0
M  V30 8405 N 805.565 -0.825799 1.34232 0
M  V30 8406 C 806.795 -1.61129 1.29309 0
M  V30 8407 C 807.203 -1.88714 -0.135589 0
M  V30 8408 O 806.546 -1.47703 -1.09222 0
M  V30 8409 C 806.608 -2.97866 2.01287 0
M  V30 8410 C 806.272 -2.9319 3.50555 0
M  V30 8411 C 807.269 -2.67978 4.45515 0
M  V30 8412 C 804.954 -3.12913 3.92926 0
M  V30 8413 C 806.948 -2.62536 5.80822 0
M  V30 8414 C 804.635 -3.07096 5.28333 0
M  V30 8415 C 805.633 -2.8194 6.22092 0
M  V30 8416 O 805.321 -2.7605 7.55018 0
M  V30 8417 H 805.053 -0.507652 0.446391 0
M  V30 8418 H 807.607 -1.03575 1.77374 0
M  V30 8419 H 805.837 -3.57327 1.47832 0
M  V30 8420 H 807.526 -3.58848 1.89691 0
M  V30 8421 H 808.292 -2.52478 4.14101 0
M  V30 8422 H 804.171 -3.3151 3.20347 0
M  V30 8423 H 807.715 -2.42821 6.53975 0
M  V30 8424 H 803.612 -3.22148 5.59367 0
M  V30 8425 H 804.38 -2.91798 7.6472 0
M  V30 8426 N 807.043 -1.17915 -1.04565 0
M  V30 8427 C 808.006 -0.903787 -2.10628 0
M  V30 8428 C 809.006 0.10873 -1.60432 0
M  V30 8429 O 810.196 -0.124152 -1.73757 0
M  V30 8430 C 807.328 -0.355017 -3.39046 0
M  V30 8431 H 808.521 -1.84425 -2.3649 0
M  V30 8432 H 806.074 -0.990477 -1.2091 0
M  V30 8433 H 806.809 0.592297 -3.18845 0
M  V30 8434 H 806.594 -1.08484 -3.76794 0
M  V30 8435 H 808.084 -0.180891 -4.17208 0
M  V30 8436 N 808.521 1.23394 -0.980386 0
M  V30 8437 C 809.798 1.87242 -0.565667 0
M  V30 8438 C 810.178 1.88151 0.957197 0
M  V30 8439 O 809.526 1.36309 1.8339 0
M  V30 8440 C 809.736 3.28743 -1.17172 0
M  V30 8441 C 811.084 4.05335 -1.26446 0
M  V30 8442 O 812.108 3.37962 -1.12517 0
M  V30 8443 O 810.967 5.25908 -1.48604 0
M  V30 8444 H 808.061 0.80477 -0.190459 0
M  V30 8445 H 810.607 1.3127 -1.07547 0
M  V30 8446 H 809.379 3.22647 -2.21392 0
M  V30 8447 H 809.002 3.92305 -0.646739 0
M  V30 8448 N 809.999 0.752036 1.385 0
M  V30 8449 C 811.276 0.233075 1.94206 0
M  V30 8450 C 811.656 -1.26838 1.68746 0
M  V30 8451 O 811.004 -2.04214 1.02513 0
M  V30 8452 C 811.214 0.58509 3.44061 0
M  V30 8453 C 812.562 0.543871 4.21102 0
M  V30 8454 O 813.586 0.523291 3.52335 0
M  V30 8455 O 812.445 0.553436 5.4369 0
M  V30 8456 H 809.539 0.0483049 0.825588 0
M  V30 8457 H 812.085 0.832053 1.47902 0
M  V30 8458 H 810.857 1.62212 3.56094 0
M  V30 8459 H 810.48 -0.0419738 3.97578 0
M  V30 8460 N 811.477 -1.49425 0.500989 0
M  V30 8461 C 812.387 -2.32899 -0.282011 0
M  V30 8462 C 813.403 -1.44632 -0.967346 0
M  V30 8463 O 814.579 -1.77654 -0.94873 0
M  V30 8464 C 811.644 -3.20069 -1.33253 0
M  V30 8465 C 810.705 -4.24186 -0.660636 0
M  V30 8466 C 809.938 -5.07191 -1.6611 0
M  V30 8467 O 810.161 -4.91712 -2.89094 0
M  V30 8468 O 809.095 -5.8948 -1.21643 0
M  V30 8469 H 812.921 -3.01038 0.401224 0
M  V30 8470 H 810.506 -1.47079 0.262323 0
M  V30 8471 H 812.388 -3.74071 -1.94033 0
M  V30 8472 H 811.063 -2.54625 -1.9987 0
M  V30 8473 H 809.97 -3.74098 -0.0130959 0
M  V30 8474 H 811.303 -4.92186 -0.0369179 0
M  V30 8475 N 812.955 -0.234822 -1.55841 0
M  V30 8476 C 814.371 0.120295 -1.59146 0
M  V30 8477 C 814.571 1.57896 -1.25184 0
M  V30 8478 O 813.627 2.32138 -0.993393 0
M  V30 8479 C 814.94 -0.217984 -2.99909 0
M  V30 8480 C 816.488 -0.161298 -3.12584 0
M  V30 8481 C 816.963 -0.473438 -4.55546 0
M  V30 8482 N 818.454 -0.423494 -4.6126 0
M  V30 8483 C 819.189 -0.638334 -5.69836 0
M  V30 8484 N 818.685 -0.915659 -6.86722 0
M  V30 8485 N 820.478 -0.569864 -5.59204 0
M  V30 8486 H 812.629 -1.18622 -1.76189 0
M  V30 8487 H 814.892 -0.476426 -0.819587 0
M  V30 8488 H 814.598 -1.2309 -3.29457 0
M  V30 8489 H 814.472 0.460707 -3.74376 0
M  V30 8490 H 816.859 0.842274 -2.82825 0
M  V30 8491 H 816.94 -0.873661 -2.40418 0
M  V30 8492 H 816.584 -1.47451 -4.86025 0
M  V30 8493 H 816.514 0.260268 -5.25956 0
M  V30 8494 H 819.005 -0.217383 -3.77274 0
M  V30 8495 H 819.318 -1.06734 -7.65394 0
M  V30 8496 H 817.663 -0.953 -6.88435 0
M  V30 8497 H 820.854 -0.35334 -4.66765 0
M  V30 8498 H 821.027 -0.740698 -6.43753 0
M  V30 8499 N 814.433 1.57553 0.0384317 0
M  V30 8500 C 815.663 1.92813 0.742064 0
M  V30 8501 C 816.071 0.832157 1.69917 0
M  V30 8502 O 815.414 -0.200917 1.82598 0
M  V30 8503 C 815.476 3.23806 1.56172 0
M  V30 8504 C 815.14 4.50459 0.770407 0
M  V30 8505 C 816.137 5.19846 0.0748006 0
M  V30 8506 C 813.822 4.97001 0.727714 0
M  V30 8507 C 815.816 6.34047 -0.652902 0
M  V30 8508 C 813.503 6.111 -0.00373992 0
M  V30 8509 C 814.501 6.79477 -0.692816 0
M  V30 8510 O 814.189 7.91395 -1.41241 0
M  V30 8511 H 813.921 0.641174 0.214179 0
M  V30 8512 H 816.475 2.054 0.00285095 0
M  V30 8513 H 814.705 3.0752 2.34453 0
M  V30 8514 H 816.394 3.44463 2.14709 0
M  V30 8515 H 817.16 4.84899 0.098875 0
M  V30 8516 H 813.039 4.43629 1.25355 0
M  V30 8517 H 816.583 6.87353 -1.1913 0
M  V30 8518 H 812.48 6.45493 -0.0297703 0
M  V30 8519 H 813.248 8.07702 -1.32512 0
M  V30 8520 N 815.911 -0.310526 1.54511 0
M  V30 8521 C 817.322 -0.884142 1.64438 0
M  V30 8522 C 817.673 -1.88425 0.546855 0
M  V30 8523 O 816.798 -2.14049 -0.31811 0
M  V30 8524 C 817.393 -1.6104 2.9808 0
M  V30 8525 C 815.952 -2.13255 3.1016 0
M  V30 8526 C 815.099 -0.96213 2.60074 0
M  V30 8527 H 818.05 -0.0877666 1.58457 0
M  V30 8528 H 818.071 -2.47541 2.8897 0
M  V30 8529 H 817.583 -0.882255 3.77939 0
M  V30 8530 H 815.684 -2.89145 2.35002 0
M  V30 8531 H 815.797 -2.37361 4.16169 0
M  V30 8532 H 814.161 -1.34501 2.16291 0
M  V30 8533 H 814.944 -0.248098 3.42402 0
M  V30 8534 N 817.389 -1.46805 -0.573248 0
M  V30 8535 C 818.617 -1.56191 -1.3569 0
M  V30 8536 C 819.032 -0.206362 -1.87669 0
M  V30 8537 O 818.389 0.797883 -1.64134 0
M  V30 8538 C 818.44 -2.57433 -2.53792 0
M  V30 8539 O 818.161 -3.87724 -2.03965 0
M  V30 8540 C 819.662 -2.76851 -3.4622 0
M  V30 8541 H 816.882 -0.527907 -0.414192 0
M  V30 8542 H 819.426 -1.92292 -0.695989 0
M  V30 8543 H 817.581 -2.24311 -3.15854 0
M  V30 8544 H 817.995 -4.42909 -2.80948 0
M  V30 8545 H 819.469 -3.5159 -4.25545 0
M  V30 8546 H 819.946 -1.84095 -3.98755 0
M  V30 8547 H 820.552 -3.11107 -2.89987 0
M  V30 8548 N 818.867 0.818669 -1.34668 0
M  V30 8549 C 820.115 1.57201 -1.27013 0
M  V30 8550 C 820.436 1.94354 0.158599 0
M  V30 8551 O 819.706 1.62626 1.09223 0
M  V30 8552 H 818.286 0.582919 -0.467135 0
M  V30 8553 H 820.948 0.977234 -1.6863 0
M  V30 8554 H 820.044 2.49291 -1.87778 0
M  V30 8555 N 820.346 1.18468 1.03938 0
M  V30 8556 C 821.623 0.890435 1.74157 0
M  V30 8557 C 822.003 -0.606409 2.02203 0
M  V30 8558 O 821.351 -1.5615 1.66822 0
M  V30 8559 C 821.561 1.73906 3.02585 0
M  V30 8560 C 822.909 1.96686 3.76297 0
M  V30 8561 O 823.933 1.70969 3.12487 0
M  V30 8562 O 822.792 2.39986 4.90988 0
M  V30 8563 H 819.886 0.330889 0.757919 0
M  V30 8564 H 822.432 1.29228 1.09992 0
M  V30 8565 H 821.204 2.75369 2.78006 0
M  V30 8566 H 820.827 1.33581 3.74489 0
M  V30 8567 N 821.824 -1.22873 0.986916 0
M  V30 8568 C 823.071 -1.91462 0.659424 0
M  V30 8569 C 823.399 -1.76931 -0.807825 0
M  V30 8570 O 822.654 -1.12829 -1.59901 0
M  V30 8571 C 822.953 -3.43014 1.00379 0
M  V30 8572 C 822.619 -3.77731 2.46232 0
M  V30 8573 C 821.281 -3.86918 2.86091 0
M  V30 8574 C 823.633 -3.94343 3.40798 0
M  V30 8575 C 820.961 -4.10149 4.19518 0
M  V30 8576 C 823.313 -4.19076 4.73875 0
M  V30 8577 C 821.977 -4.26486 5.13484 0
M  V30 8578 H 821.247 -0.700611 0.2413 0
M  V30 8579 H 823.894 -1.45763 1.24199 0
M  V30 8580 H 822.199 -3.90329 0.339226 0
M  V30 8581 H 823.896 -3.94327 0.728518 0
M  V30 8582 H 820.486 -3.71159 2.14334 0
M  V30 8583 H 824.67 -3.86629 3.11178 0
M  V30 8584 H 819.926 -4.1411 4.49803 0
M  V30 8585 H 824.1 -4.30873 5.47102 0
M  V30 8586 H 821.727 -4.4424 6.16891 0
M  V30 8587 N 823.302 -0.75937 -1.38099 0
M  V30 8588 C 824.548 -0.318584 -2.00282 0
M  V30 8589 C 824.881 1.09854 -1.60143 0
M  V30 8590 O 824.156 1.75344 -0.841702 0
M  V30 8591 C 824.439 -0.448047 -3.57302 0
M  V30 8592 C 824.292 -1.9067 -4.07388 0
M  V30 8593 C 825.611 0.155119 -4.39827 0
M  V30 8594 H 822.73 -0.117233 -0.727616 0
M  V30 8595 H 825.372 -0.960097 -1.63958 0
M  V30 8596 H 823.522 0.0981003 -3.88376 0
M  V30 8597 H 825.194 -2.5116 -3.86932 0
M  V30 8598 H 823.437 -2.41979 -3.6004 0
M  V30 8599 H 824.108 -1.94841 -5.1647 0
M  V30 8600 H 826.584 -0.31073 -4.14938 0
M  V30 8601 H 825.46 0.0343264 -5.48889 0
M  V30 8602 H 825.721 1.24407 -4.24235 0
M  V30 8603 N 824.78 1.49157 -0.508906 0
M  V30 8604 C 825.728 2.30922 0.278906 0
M  V30 8605 C 826.722 1.39889 0.955382 0
M  V30 8606 O 827.928 1.56901 0.882169 0
M  V30 8607 H 824.303 0.744087 0.108805 0
M  V30 8608 H 826.274 2.95277 -0.430583 0
M  V30 8609 C 825.023 3.21432 1.32576 0
M  V30 8610 H 824.346 3.91413 0.814634 0
M  V30 8611 H 825.786 3.81568 1.84882 0
M  V30 8612 C 824.245 2.41583 2.34817 0
M  V30 8613 O 824.775 2.1256 3.40854 0
M  V30 8614 N 822.981 2.03462 2.07489 0
M  V30 8615 H 822.528 2.27265 1.21278 0
M  V30 8616 H 822.486 1.50345 2.76123 0
M  V30 8617 N 826.258 0.243083 1.55714 0
M  V30 8618 C 827.19 -0.690766 2.18543 0
M  V30 8619 C 828.203 -1.14163 1.16064 0
M  V30 8620 O 829.392 -1.06906 1.42946 0
M  V30 8621 C 826.492 -1.95016 2.77168 0
M  V30 8622 C 825.665 -1.65137 4.05029 0
M  V30 8623 C 824.724 -2.75998 4.48009 0
M  V30 8624 O 823.75 -2.43547 5.14464 0
M  V30 8625 N 824.952 -4.05414 4.15476 0
M  V30 8626 H 827.717 -0.153203 2.99308 0
M  V30 8627 H 825.278 0.0628968 1.61778 0
M  V30 8628 H 827.27 -2.68414 3.0288 0
M  V30 8629 H 825.84 -2.39762 2.00582 0
M  V30 8630 H 825.06 -0.752768 3.86946 0
M  V30 8631 H 826.348 -1.42633 4.88399 0
M  V30 8632 H 825.746 -4.34613 3.62116 0
M  V30 8633 H 824.303 -4.75288 4.46032 0
M  V30 8634 N 827.736 -1.57571 -0.0300757 0
M  V30 8635 C 828.686 -2.02958 -1.03885 0
M  V30 8636 C 829.67 -0.918723 -1.32092 0
M  V30 8637 O 830.862 -1.18262 -1.31694 0
M  V30 8638 C 827.991 -2.51169 -2.34028 0
M  V30 8639 C 827.077 -3.69073 -2.08915 0
M  V30 8640 N 827.468 -4.81831 -1.53858 0
M  V30 8641 C 825.766 -3.76427 -2.39204 0
M  V30 8642 C 826.467 -5.6346 -1.44526 0
M  V30 8643 N 825.443 -5.08545 -1.92048 0
M  V30 8644 H 829.245 -2.8756 -0.607157 0
M  V30 8645 H 826.759 -1.6067 -0.236399 0
M  V30 8646 H 828.756 -2.81944 -3.07104 0
M  V30 8647 H 827.416 -1.67972 -2.77876 0
M  V30 8648 H 828.427 -5.03291 -1.22142 0
M  V30 8649 H 825.104 -3.04029 -2.86134 0
M  V30 8650 H 826.494 -6.64042 -1.02456 0
M  V30 8651 N 829.214 0.302327 -1.54673 0
M  V30 8652 C 830.439 1.06103 -1.78205 0
M  V30 8653 C 830.864 1.80204 -0.53926 0
M  V30 8654 O 830.222 1.73975 0.510142 0
M  V30 8655 C 830.27 2.01829 -2.98827 0
M  V30 8656 O 829.374 3.10108 -2.71858 0
M  V30 8657 H 828.715 0.30487 -0.589873 0
M  V30 8658 H 831.245 0.340153 -2.01753 0
M  V30 8659 H 831.255 2.44319 -3.2676 0
M  V30 8660 H 829.93 1.473 -3.88942 0
M  V30 8661 H 828.507 2.72142 -2.54937 0
M  V30 8662 N 830.692 1.47107 0.565454 0
M  V30 8663 C 831.94 1.53005 1.32038 0
M  V30 8664 C 832.261 0.190453 1.94068 0
M  V30 8665 O 831.531 -0.784783 1.79494 0
M  V30 8666 H 830.111 0.563578 0.490294 0
M  V30 8667 H 832.773 1.83351 0.660928 0
M  V30 8668 H 831.869 2.29215 2.11818 0
M  V30 8669 N 832.17 -0.811516 1.35101 0
M  V30 8670 C 833.418 -1.56525 1.27845 0
M  V30 8671 C 833.739 -1.94435 -0.14829 0
M  V30 8672 O 833.009 -1.63203 -1.08359 0
M  V30 8673 H 831.589 -0.580433 0.47022 0
M  V30 8674 H 834.251 -0.968277 1.69146 0
M  V30 8675 H 833.347 -2.48291 1.89097 0
M  V30 8676 N 833.648 -1.19017 -1.03309 0
M  V30 8677 C 834.611 -0.926076 -2.09658 0
M  V30 8678 C 835.611 0.0917077 -1.60538 0
M  V30 8679 O 836.801 -0.142574 -1.73616 0
M  V30 8680 C 833.933 -0.390958 -3.38651 0
M  V30 8681 H 835.126 -1.86923 -2.3452 0
M  V30 8682 H 832.679 -1.00325 -1.19853 0
M  V30 8683 H 833.414 0.558446 -3.19456 0
M  V30 8684 H 833.199 -1.12474 -3.75622 0
M  V30 8685 H 834.689 -0.225131 -4.16993 0
M  V30 8686 N 835.127 1.22348 -0.993418 0
M  V30 8687 C 836.375 1.90733 -0.668246 0
M  V30 8688 C 836.696 1.77732 0.802261 0
M  V30 8689 O 835.966 1.16486 1.57505 0
M  V30 8690 H 834.546 0.705966 -0.244174 0
M  V30 8691 H 837.208 1.48691 -1.26004 0
M  V30 8692 H 836.304 2.97883 -0.931239 0
M  V30 8693 N 836.605 0.766683 1.37694 0
M  V30 8694 C 837.535 0.163432 2.32927 0
M  V30 8695 C 838.516 -0.688861 1.55527 0
M  V30 8696 O 839.701 -0.627363 1.83787 0
M  V30 8697 C 836.831 -0.720416 3.39746 0
M  V30 8698 C 835.785 0.0301718 4.27989 0
M  V30 8699 C 835.111 -0.972788 5.25776 0
M  V30 8700 C 836.411 1.20623 5.0818 0
M  V30 8701 H 838.105 0.958988 2.83626 0
M  V30 8702 H 835.651 0.462601 1.36367 0
M  V30 8703 H 837.604 -1.15221 4.05342 0
M  V30 8704 H 836.328 -1.54844 2.8756 0
M  V30 8705 H 834.987 0.442685 3.63917 0
M  V30 8706 H 834.635 -1.79522 4.69873 0
M  V30 8707 H 834.335 -0.475145 5.85676 0
M  V30 8708 H 835.859 -1.40362 5.94248 0
M  V30 8709 H 837.273 0.851341 5.66944 0
M  V30 8710 H 835.67 1.63561 5.7738 0
M  V30 8711 H 836.74 2.01281 4.41151 0
M  V30 8712 N 838.083 -1.48885 0.516809 0
M  V30 8713 C 839.494 -1.86557 0.0729921 0
M  V30 8714 C 839.845 -1.42767 -1.34581 0
M  V30 8715 O 838.97 -0.812514 -2.00567 0
M  V30 8716 C 839.565 -3.38567 0.125686 0
M  V30 8717 C 838.124 -3.75481 -0.262867 0
M  V30 8718 C 837.271 -2.72913 0.491281 0
M  V30 8719 H 840.222 -1.40978 0.728767 0
M  V30 8720 H 840.243 -3.74629 -0.665831 0
M  V30 8721 H 839.755 -3.70408 1.15842 0
M  V30 8722 H 837.856 -3.49251 -1.29824 0
M  V30 8723 H 837.969 -4.79052 0.067579 0
M  V30 8724 H 836.333 -2.54627 -0.0608525 0
M  V30 8725 H 837.116 -3.07599 1.5244 0
M  V30 8726 N 839.561 -0.251338 -1.55583 0
M  V30 8727 C 840.786 0.379136 -2.03905 0
M  V30 8728 C 841.211 1.50428 -1.12929 0
M  V30 8729 O 840.569 1.80882 -0.123114 0
M  V30 8730 C 840.617 0.86009 -3.50193 0
M  V30 8731 O 839.721 1.96932 -3.62342 0
M  V30 8732 H 839.062 0.0820183 -0.658915 0
M  V30 8733 H 841.592 -0.378692 -2.01065 0
M  V30 8734 H 841.602 1.16214 -3.91099 0
M  V30 8735 H 840.277 0.0367559 -4.15884 0
M  V30 8736 H 838.854 1.67163 -3.33333 0
M  V30 8737 N 841.039 1.57585 0.0217189 0
M  V30 8738 C 842.269 1.9359 0.721572 0
M  V30 8739 C 842.677 0.850132 1.69025 0
M  V30 8740 O 842.02 -0.181539 1.82801 0
M  V30 8741 C 842.082 3.25445 1.52729 0
M  V30 8742 C 841.746 4.51251 0.722586 0
M  V30 8743 C 842.743 5.19896 0.0196598 0
M  V30 8744 C 840.428 4.97745 0.674959 0
M  V30 8745 C 842.422 6.33319 -0.720114 0
M  V30 8746 C 840.109 6.11062 -0.068555 0
M  V30 8747 C 841.107 6.78704 -0.764845 0
M  V30 8748 O 840.795 7.89852 -1.49627 0
M  V30 8749 H 840.527 0.643409 0.207366 0
M  V30 8750 H 843.081 2.05391 -0.0189346 0
M  V30 8751 H 841.311 3.0999 2.31178 0
M  V30 8752 H 843 3.46721 2.11044 0
M  V30 8753 H 843.766 4.84977 0.0474394 0
M  V30 8754 H 839.645 4.44934 1.20643 0
M  V30 8755 H 843.189 6.86051 -1.26413 0
M  V30 8756 H 839.086 6.45425 -0.0982318 0
M  V30 8757 H 839.854 8.06251 -1.41071 0
M  V30 8758 N 842.517 -0.29412 1.54831 0
M  V30 8759 C 843.766 -1.02614 1.73647 0
M  V30 8760 C 844.079 -1.88193 0.533162 0
M  V30 8761 O 845.285 -2.64713 0.603275 0
M  V30 8762 C 843.741 -1.87417 3.07251 0
M  V30 8763 C 843.349 -1.06806 4.35082 0
M  V30 8764 C 845.093 -2.60176 3.35423 0
M  V30 8765 C 843 -1.90926 5.59733 0
M  V30 8766 H 841.93 -0.386834 0.647206 0
M  V30 8767 H 844.581 -0.282789 1.81308 0
M  V30 8768 H 842.963 -2.65765 2.93572 0
M  V30 8769 H 844.137 -0.330226 4.59615 0
M  V30 8770 H 842.452 -0.455979 4.13896 0
M  V30 8771 H 845.049 -3.23476 4.25755 0
M  V30 8772 H 845.392 -3.29365 2.54606 0
M  V30 8773 H 845.925 -1.88871 3.50103 0
M  V30 8774 H 842.664 -1.26194 6.43238 0
M  V30 8775 H 842.184 -2.62363 5.39375 0
M  V30 8776 H 843.863 -2.48807 5.97247 0
M  V30 8777 N 843.995 -1.47404 -0.557645 0
M  V30 8778 C 844.958 -1.59411 -1.64684 0
M  V30 8779 C 845.958 -0.469244 -1.53801 0
M  V30 8780 O 847.148 -0.734298 -1.57967 0
M  V30 8781 C 844.28 -1.5382 -3.04224 0
M  V30 8782 H 845.473 -2.56504 -1.55389 0
M  V30 8783 H 843.026 -1.35588 -0.777531 0
M  V30 8784 H 843.761 -0.581 -3.19053 0
M  V30 8785 H 843.546 -2.35456 -3.13533 0
M  V30 8786 H 845.036 -1.65358 -3.83466 0
M  V30 8787 N 845.473 0.80434 -1.35529 0
M  V30 8788 C 846.405 1.92445 -1.2449 0
M  V30 8789 C 847.418 1.61934 -0.167685 0
M  V30 8790 O 848.607 1.73461 -0.42115 0
M  V30 8791 C 845.707 3.26875 -0.894751 0
M  V30 8792 C 844.88 3.85275 -2.07079 0
M  V30 8793 C 843.939 4.98116 -1.69607 0
M  V30 8794 O 842.965 5.15424 -2.41509 0
M  V30 8795 N 844.167 5.77169 -0.621012 0
M  V30 8796 H 846.932 2.02441 -2.20993 0
M  V30 8797 H 844.493 0.981874 -1.28728 0
M  V30 8798 H 846.485 3.99837 -0.625511 0
M  V30 8799 H 845.055 3.12594 -0.0193306 0
M  V30 8800 H 844.275 3.0448 -2.5037 0
M  V30 8801 H 845.563 4.21024 -2.85685 0
M  V30 8802 H 844.961 5.65695 -0.0236679 0
M  V30 8803 H 843.518 6.50499 -0.411558 0
M  V30 8804 N 846.951 1.19563 1.02676 0
M  V30 8805 C 848.228 0.908857 1.73203 0
M  V30 8806 C 848.608 -0.584928 2.02834 0
M  V30 8807 O 847.956 -1.54372 1.68469 0
M  V30 8808 C 848.166 1.77105 3.00724 0
M  V30 8809 C 849.514 2.00667 3.7419 0
M  V30 8810 O 850.538 1.74274 3.10656 0
M  V30 8811 O 849.397 2.4518 4.88415 0
M  V30 8812 H 846.491 0.338909 0.754367 0
M  V30 8813 H 849.037 1.30387 1.08616 0
M  V30 8814 H 847.809 2.78303 2.7507 0
M  V30 8815 H 847.432 1.37546 3.73051 0
M  V30 8816 N 848.429 -1.21819 0.999893 0
M  V30 8817 C 849.845 -1.42847 0.711824 0
M  V30 8818 C 850.045 -1.88391 -0.714928 0
M  V30 8819 O 849.101 -2.0422 -1.48494 0
M  V30 8820 C 850.414 -2.46417 1.72334 0
M  V30 8821 C 851.962 -2.60207 1.73958 0
M  V30 8822 C 852.437 -3.67005 2.73992 0
M  V30 8823 N 853.928 -3.7447 2.72628 0
M  V30 8824 C 854.663 -4.56718 3.46693 0
M  V30 8825 N 854.159 -5.42904 4.3038 0
M  V30 8826 N 855.952 -4.51094 3.35366 0
M  V30 8827 H 848.103 -0.905656 1.92124 0
M  V30 8828 H 850.366 -0.459893 0.828977 0
M  V30 8829 H 850.072 -2.19914 2.74465 0
M  V30 8830 H 849.946 -3.45137 1.52186 0
M  V30 8831 H 852.333 -2.8605 0.725217 0
M  V30 8832 H 852.414 -1.61739 1.98177 0
M  V30 8833 H 852.058 -3.41908 3.75582 0
M  V30 8834 H 851.988 -4.65058 2.4704 0
M  V30 8835 H 854.479 -3.12895 2.11909 0
M  V30 8836 H 854.792 -6.02704 4.83702 0
M  V30 8837 H 853.137 -5.42463 4.34464 0
M  V30 8838 H 856.328 -3.82791 2.69423 0
M  V30 8839 H 856.501 -5.1496 3.93344 0
M  V30 8840 N 849.908 -0.773975 -1.37286 0
M  V30 8841 C 851.185 -0.263942 -1.93811 0
M  V30 8842 C 851.565 1.24138 -1.70743 0
M  V30 8843 O 850.913 2.02557 -1.05749 0
M  V30 8844 C 851.123 -0.639753 -3.43086 0
M  V30 8845 C 852.471 -0.610796 -4.20184 0
M  V30 8846 O 853.495 -0.579278 -3.51458 0
M  V30 8847 O 852.354 -0.639862 -5.42741 0
M  V30 8848 H 849.448 -0.0614331 -0.824715 0
M  V30 8849 H 851.994 -0.855477 -1.46559 0
M  V30 8850 H 850.766 -1.67856 -3.53469 0
M  V30 8851 H 850.389 -0.0212827 -3.97594 0
M  V30 8852 N 851.386 1.48609 -0.524698 0
M  V30 8853 C 852.635 2.01696 0.0132937 0
M  V30 8854 C 852.948 1.40751 1.35825 0
M  V30 8855 O 854.154 1.85304 1.9843 0
M  V30 8856 C 852.61 3.59824 0.0741012 0
M  V30 8857 C 852.218 4.2975 -1.26564 0
M  V30 8858 C 853.962 4.20774 0.5612 0
M  V30 8859 C 851.869 5.79798 -1.16571 0
M  V30 8860 H 850.799 0.753949 0.00873931 0
M  V30 8861 H 853.45 1.70922 -0.667684 0
M  V30 8862 H 851.832 3.87416 0.820043 0
M  V30 8863 H 853.006 4.13836 -2.02674 0
M  V30 8864 H 851.321 3.80649 -1.68806 0
M  V30 8865 H 853.918 5.30687 0.653853 0
M  V30 8866 H 854.261 3.85734 1.56573 0
M  V30 8867 H 854.794 3.97591 -0.128901 0
M  V30 8868 H 851.533 6.19403 -2.14523 0
M  V30 8869 H 851.053 5.9814 -0.445894 0
M  V30 8870 H 852.732 6.41337 -0.854186 0
M  V30 8871 N 852.864 0.259585 1.55447 0
M  V30 8872 C 854.141 -0.412595 1.91199 0
M  V30 8873 C 854.521 -1.74909 1.18194 0
M  V30 8874 O 853.869 -2.26474 0.303603 0
M  V30 8875 C 854.079 -0.568195 3.44344 0
M  V30 8876 C 855.427 -0.858253 4.15836 0
M  V30 8877 O 856.451 -0.653588 3.50152 0
M  V30 8878 O 855.31 -1.24874 5.32042 0
M  V30 8879 H 852.404 -0.223403 0.796254 0
M  V30 8880 H 854.95 0.30459 1.66944 0
M  V30 8881 H 853.722 0.372989 3.89518 0
M  V30 8882 H 853.345 -1.33544 3.74502 0
M  V30 8883 N 854.342 -1.57594 -0.0133615 0
M  V30 8884 C 855.59 -1.89605 -0.699596 0
M  V30 8885 C 855.911 -0.85926 -1.75048 0
M  V30 8886 O 855.181 0.105112 -1.95618 0
M  V30 8887 H 853.761 -0.699776 -0.261385 0
M  V30 8888 H 856.423 -1.94885 0.0244044 0
M  V30 8889 H 855.519 -2.88962 -1.17928 0
M  V30 8890 N 855.82 0.285905 -1.54985 0
M  V30 8891 C 856.752 1.37505 -1.83371 0
M  V30 8892 C 857.765 1.46138 -0.717454 0
M  V30 8893 O 858.954 1.48186 -0.995142 0
M  V30 8894 C 856.054 2.7575 -1.97016 0
M  V30 8895 C 855.227 2.89866 -3.27561 0
M  V30 8896 C 854.286 4.08704 -3.31433 0
M  V30 8897 O 853.312 4.00073 -4.04883 0
M  V30 8898 N 854.514 5.20062 -2.57907 0
M  V30 8899 H 857.279 1.13505 -2.77375 0
M  V30 8900 H 854.84 0.476006 -1.54744 0
M  V30 8901 H 856.832 3.5352 -1.96991 0
M  V30 8902 H 855.402 2.9263 -1.09938 0
M  V30 8903 H 854.622 1.99085 -3.40234 0
M  V30 8904 H 855.91 2.96219 -4.13681 0
M  V30 8905 H 855.308 5.29958 -1.97891 0
M  V30 8906 H 853.865 5.96111 -2.63619 0
M  V30 8907 N 857.298 1.47698 0.54982 0
M  V30 8908 C 858.575 1.45185 1.31075 0
M  V30 8909 C 858.955 0.152768 2.10547 0
M  V30 8910 O 858.303 -0.865706 2.11466 0
M  V30 8911 C 858.513 2.70192 2.20902 0
M  V30 8912 C 859.861 3.1771 2.81683 0
M  V30 8913 O 860.885 2.70971 2.312 0
M  V30 8914 O 859.744 3.98986 3.7346 0
M  V30 8915 H 856.838 0.57892 0.590577 0
M  V30 8916 H 859.384 1.59908 0.568112 0
M  V30 8917 H 858.156 3.56269 1.61828 0
M  V30 8918 H 857.779 2.58091 3.02448 0
M  V30 8919 N 858.776 -0.797141 1.35954 0
M  V30 8920 C 860.025 -1.54983 1.29086 0
M  V30 8921 C 860.338 -1.95167 -0.130003 0
M  V30 8922 O 861.544 -2.69596 -0.32101 0
M  V30 8923 C 860 -2.79738 2.26439 0
M  V30 8924 C 859.608 -2.46753 3.73921 0
M  V30 8925 C 861.352 -3.57733 2.28533 0
M  V30 8926 C 859.259 -3.67858 4.63071 0
M  V30 8927 H 858.189 -0.581766 0.479651 0
M  V30 8928 H 860.84 -0.87541 1.61273 0
M  V30 8929 H 859.222 -3.48939 1.87236 0
M  V30 8930 H 860.396 -1.85499 4.21814 0
M  V30 8931 H 858.711 -1.81985 3.74527 0
M  V30 8932 H 861.308 -4.47699 2.92351 0
M  V30 8933 H 861.651 -3.95754 1.29169 0
M  V30 8934 H 862.184 -2.95504 2.66313 0
M  V30 8935 H 858.923 -3.34939 5.63468 0
M  V30 8936 H 858.443 -4.28305 4.19898 0
M  V30 8937 H 860.122 -4.34977 4.78961 0
M  V30 8938 N 860.254 -1.20106 -1.0204 0
M  V30 8939 C 861.5 -1.01039 -1.75838 0
M  V30 8940 C 861.833 0.456819 -1.88751 0
M  V30 8941 O 861.108 1.33919 -1.41053 0
M  V30 8942 C 861.391 -1.69009 -3.17975 0
M  V30 8943 C 861.244 -3.2315 -3.1288 0
M  V30 8944 C 862.563 -1.42005 -4.16561 0
M  V30 8945 H 859.682 -0.368465 -0.638281 0
M  V30 8946 H 862.324 -1.48066 -1.19064 0
M  V30 8947 H 860.474 -1.29026 -3.66449 0
M  V30 8948 H 862.146 -3.72402 -2.72239 0
M  V30 8949 H 860.389 -3.54253 -2.50374 0
M  V30 8950 H 861.06 -3.65862 -4.13339 0
M  V30 8951 H 863.536 -1.76685 -3.76725 0
M  V30 8952 H 862.412 -1.92101 -5.14187 0
M  V30 8953 H 862.673 -0.346884 -4.40737 0
M  V30 8954 N 861.732 1.21287 -1.00634 0
M  V30 8955 C 862.978 1.90671 -0.690822 0
M  V30 8956 C 863.311 1.77996 0.776592 0
M  V30 8957 O 862.586 1.15748 1.5631 0
M  V30 8958 C 862.869 3.42426 -1.11428 0
M  V30 8959 C 862.722 3.64086 -2.64124 0
M  V30 8960 C 864.041 4.34851 -0.677686 0
M  V30 8961 H 861.16 0.692419 -0.252439 0
M  V30 8962 H 863.802 1.42893 -1.25226 0
M  V30 8963 H 861.952 3.83249 -0.636586 0
M  V30 8964 H 863.624 3.32582 -3.19667 0
M  V30 8965 H 861.867 3.07906 -3.05576 0
M  V30 8966 H 862.538 4.7042 -2.88806 0
M  V30 8967 H 865.014 4.01619 -1.0882 0
M  V30 8968 H 863.89 5.39675 -1.00213 0
M  V30 8969 H 864.151 4.4009 0.421125 0
M  V30 8970 N 863.21 0.781244 1.36873 0
M  V30 8971 C 864.456 0.359455 2.00199 0
M  V30 8972 C 864.811 -1.05495 1.60899 0
M  V30 8973 O 864.104 -1.7173 0.849664 0
M  V30 8974 C 864.298 0.45146 3.54537 0
M  V30 8975 C 864.127 1.87326 4.08826 0
M  V30 8976 C 862.897 2.49606 4.39346 0
M  V30 8977 C 865.095 2.8342 4.29159 0
M  V30 8978 N 863.077 3.8346 4.79408 0
M  V30 8979 C 864.448 4.02091 4.71935 0
M  V30 8980 C 866.503 2.80583 4.11312 0
M  V30 8981 C 865.206 5.18322 4.98733 0
M  V30 8982 C 867.232 3.95995 4.39251 0
M  V30 8983 C 866.594 5.13409 4.82276 0
M  V30 8984 H 862.693 0.178778 0.76129 0
M  V30 8985 H 865.277 1.0171 1.66022 0
M  V30 8986 H 863.448 -0.176055 3.88001 0
M  V30 8987 H 865.18 0.00670219 4.04699 0
M  V30 8988 H 861.935 2.01149 4.28761 0
M  V30 8989 H 862.359 4.52306 5.03735 0
M  V30 8990 H 867.001 1.90974 3.77212 0
M  V30 8991 H 864.719 6.08524 5.31718 0
M  V30 8992 H 868.305 3.95152 4.2702 0
M  V30 8993 H 867.185 6.01232 5.03478 0
M  V30 8994 N 864.689 -1.48329 0.532571 0
M  V30 8995 C 865.639 -2.2664 -0.24868 0
M  V30 8996 C 866.623 -1.32861 -0.907563 0
M  V30 8997 O 867.815 -1.57382 -0.809942 0
M  V30 8998 C 864.944 -3.18004 -1.29339 0
M  V30 8999 C 864.03 -4.19256 -0.639166 0
M  V30 9000 N 864.421 -5.05043 0.276597 0
M  V30 9001 C 862.719 -4.36906 -0.896062 0
M  V30 9002 C 863.42 -5.78009 0.654261 0
M  V30 9003 N 862.396 -5.43598 0.0147447 0
M  V30 9004 H 866.198 -2.90344 0.455792 0
M  V30 9005 H 863.712 -1.58566 0.350778 0
M  V30 9006 H 865.709 -3.72767 -1.86682 0
M  V30 9007 H 864.369 -2.55855 -1.99921 0
M  V30 9008 H 865.38 -5.13813 0.649351 0
M  V30 9009 H 862.057 -3.85945 -1.59226 0
M  V30 9010 H 863.447 -6.57039 1.40532 0
M  V30 9011 N 866.167 -0.267825 -1.55308 0
M  V30 9012 C 867.395 0.354587 -2.03839 0
M  V30 9013 C 867.81 1.50007 -1.14644 0
M  V30 9014 O 867.167 1.81752 -0.165055 0
M  V30 9015 C 867.218 0.84254 -3.51544 0
M  V30 9016 O 866.939 -0.257318 -4.37344 0
M  V30 9017 C 868.44 1.53351 -4.15931 0
M  V30 9018 H 865.66 0.0818131 -0.665994 0
M  V30 9019 H 868.204 -0.397795 -2.00594 0
M  V30 9020 H 866.359 1.54503 -3.55257 0
M  V30 9021 H 866.773 0.116593 -5.2437 0
M  V30 9022 H 868.247 1.82643 -5.20908 0
M  V30 9023 H 868.724 2.4626 -3.63666 0
M  V30 9024 H 869.33 0.87506 -4.162 0
M  V30 9025 N 867.645 1.57599 0.00500368 0
M  V30 9026 C 868.892 1.90349 0.690895 0
M  V30 9027 C 869.22 0.868045 1.74055 0
M  V30 9028 O 868.475 -0.127855 1.95282 0
M  V30 9029 C 868.774 3.29855 1.37588 0
M  V30 9030 C 868.44 4.48548 0.459906 0
M  V30 9031 C 867.102 4.80752 0.207693 0
M  V30 9032 C 869.454 5.20919 -0.171054 0
M  V30 9033 C 866.782 5.82701 -0.683855 0
M  V30 9034 C 869.134 6.23818 -1.05045 0
M  V30 9035 C 867.798 6.54481 -1.31189 0
M  V30 9036 H 867.068 0.696538 0.252816 0
M  V30 9037 H 869.715 1.91436 -0.0494495 0
M  V30 9038 H 868.02 3.24869 2.19015 0
M  V30 9039 H 869.717 3.52452 1.91255 0
M  V30 9040 H 866.307 4.23384 0.666648 0
M  V30 9041 H 870.491 4.96299 0.0107942 0
M  V30 9042 H 865.747 6.04822 -0.894467 0
M  V30 9043 H 869.921 6.79029 -1.54574 0
M  V30 9044 H 867.548 7.33299 -2.00442 0
M  V30 9045 N 869.123 -0.277682 1.55134 0
M  V30 9046 C 870.371 -1.00791 1.75173 0
M  V30 9047 C 870.692 -1.86987 0.553266 0
M  V30 9048 O 869.962 -1.91079 -0.43195 0
M  V30 9049 H 868.542 -0.375129 0.645978 0
M  V30 9050 H 871.204 -0.303041 1.9253 0
M  V30 9051 H 870.3 -1.64756 2.6507 0
M  V30 9052 N 870.601 -1.47988 -0.541979 0
M  V30 9053 C 871.531 -1.64503 -1.65713 0
M  V30 9054 C 872.512 -0.494116 -1.62765 0
M  V30 9055 O 873.697 -0.725256 -1.80149 0
M  V30 9056 C 870.827 -1.67337 -3.04328 0
M  V30 9057 C 869.781 -2.81809 -3.2213 0
M  V30 9058 C 869.107 -2.69724 -4.61685 0
M  V30 9059 C 870.407 -4.23241 -3.06046 0
M  V30 9060 H 872.101 -2.5786 -1.52147 0
M  V30 9061 H 869.647 -1.24094 -0.730529 0
M  V30 9062 H 871.6 -1.77481 -3.82202 0
M  V30 9063 H 870.324 -0.705514 -3.18889 0
M  V30 9064 H 868.983 -2.71201 -2.46669 0
M  V30 9065 H 868.631 -1.70934 -4.73065 0
M  V30 9066 H 868.331 -3.4653 -4.74543 0
M  V30 9067 H 869.855 -2.81818 -5.41674 0
M  V30 9068 H 871.269 -4.34746 -3.73723 0
M  V30 9069 H 869.666 -5.00952 -3.30405 0
M  V30 9070 H 870.736 -4.40543 -2.02609 0
M  V30 9071 N 872.079 0.78992 -1.36375 0
M  V30 9072 C 873.307 1.57873 -1.3373 0
M  V30 9073 C 873.722 1.88624 0.0815544 0
M  V30 9074 O 873.079 1.50085 1.03831 0
M  V30 9075 C 873.13 2.90003 -2.15825 0
M  V30 9076 O 872.851 2.60578 -3.5218 0
M  V30 9077 C 874.352 3.84309 -2.20955 0
M  V30 9078 H 871.572 0.489685 -0.458748 0
M  V30 9079 H 874.116 0.980436 -1.79465 0
M  V30 9080 H 872.271 3.46303 -1.73646 0
M  V30 9081 H 872.685 3.4506 -3.95011 0
M  V30 9082 H 874.159 4.74081 -2.82756 0
M  V30 9083 H 874.636 4.22121 -1.21287 0
M  V30 9084 H 875.242 3.33942 -2.63368 0
M  V30 9085 N 873.557 1.20646 1.01402 0
M  V30 9086 C 874.507 0.925209 2.08384 0
M  V30 9087 C 875.491 -0.115994 1.60481 0
M  V30 9088 O 876.683 0.0917276 1.76762 0
M  V30 9089 C 873.812 0.48193 3.399 0
M  V30 9090 C 872.898 1.5567 3.94497 0
M  V30 9091 N 873.289 2.77971 4.2257 0
M  V30 9092 C 871.587 1.42347 4.22674 0
M  V30 9093 C 872.288 3.47317 4.66632 0
M  V30 9094 N 871.264 2.74736 4.69064 0
M  V30 9095 H 875.066 1.85452 2.28002 0
M  V30 9096 H 872.58 1.10084 1.19395 0
M  V30 9097 H 874.577 0.261835 4.16077 0
M  V30 9098 H 873.237 -0.440725 3.21695 0
M  V30 9099 H 874.248 3.14598 4.11398 0
M  V30 9100 H 870.925 0.565417 4.13654 0
M  V30 9101 H 872.315 4.51985 4.97151 0
M  V30 9102 N 875.035 -1.20752 1.01276 0
M  V30 9103 C 876.282 -1.90021 0.699887 0
M  V30 9104 C 876.61 -1.78604 -0.770113 0
M  V30 9105 O 875.865 -1.16195 -1.57471 0
M  V30 9106 C 876.164 -3.40808 1.07633 0
M  V30 9107 C 875.83 -3.72423 2.54189 0
M  V30 9108 C 874.492 -3.80762 2.94234 0
M  V30 9109 C 876.844 -3.87025 3.49086 0
M  V30 9110 C 874.172 -4.01158 4.28123 0
M  V30 9111 C 876.524 -4.0893 4.82658 0
M  V30 9112 C 875.188 -4.15498 5.22415 0
M  V30 9113 H 874.458 -0.695335 0.256107 0
M  V30 9114 H 877.105 -1.43096 1.27263 0
M  V30 9115 H 875.41 -3.89521 0.421944 0
M  V30 9116 H 877.107 -3.92693 0.811997 0
M  V30 9117 H 873.697 -3.66529 2.22158 0
M  V30 9118 H 877.881 -3.79942 3.19309 0
M  V30 9119 H 873.137 -4.04476 4.58486 0
M  V30 9120 H 877.311 -4.19172 5.56119 0
M  V30 9121 H 874.938 -4.31055 6.26176 0
M  V30 9122 N 876.513 -0.788492 -1.36457 0
M  V30 9123 C 877.924 -0.423742 -1.81828 0
M  V30 9124 C 878.275 1.05221 -1.65599 0
M  V30 9125 O 877.4 1.8163 -1.17641 0
M  V30 9126 C 877.995 -0.762354 -3.30112 0
M  V30 9127 C 876.554 -0.450445 -3.73695 0
M  V30 9128 C 875.701 -0.997482 -2.58738 0
M  V30 9129 H 878.652 -0.981718 -1.24692 0
M  V30 9130 H 878.673 -0.0531136 -3.80463 0
M  V30 9131 H 878.185 -1.83662 -3.41891 0
M  V30 9132 H 876.286 0.615829 -3.67476 0
M  V30 9133 H 876.399 -0.970408 -4.69169 0
M  V30 9134 H 874.763 -0.420761 -2.51201 0
M  V30 9135 H 875.546 -2.07749 -2.73304 0
M  V30 9136 N 877.991 1.48044 -0.54043 0
M  V30 9137 C 879.407 1.58354 -0.199006 0
M  V30 9138 C 879.607 1.54118 1.29807 0
M  V30 9139 O 878.663 1.43573 2.07709 0
M  V30 9140 C 879.976 2.89563 -0.810797 0
M  V30 9141 C 881.524 3.03113 -0.780486 0
M  V30 9142 C 881.999 4.36997 -1.37104 0
M  V30 9143 N 883.49 4.43591 -1.33347 0
M  V30 9144 C 884.225 5.45714 -1.76021 0
M  V30 9145 N 883.721 6.54738 -2.26473 0
M  V30 9146 N 885.514 5.36659 -1.67194 0
M  V30 9147 H 877.665 1.49041 -1.51329 0
M  V30 9148 H 879.928 0.708309 -0.630081 0
M  V30 9149 H 879.634 2.9835 -1.86227 0
M  V30 9150 H 879.508 3.76053 -0.293977 0
M  V30 9151 H 881.895 2.93932 0.262246 0
M  V30 9152 H 881.976 2.18207 -1.33489 0
M  V30 9153 H 881.62 4.46932 -2.41276 0
M  V30 9154 H 881.55 5.20607 -0.792229 0
M  V30 9155 H 884.041 3.65391 -0.964259 0
M  V30 9156 H 884.354 7.28814 -2.57002 0
M  V30 9157 H 882.699 6.55673 -2.30473 0
M  V30 9158 H 885.89 4.50382 -1.27569 0
M  V30 9159 H 886.063 6.16113 -2.00771 0
M  V30 9160 N 879.47 0.276058 1.55163 0
M  V30 9161 C 880.716 -0.340959 1.99913 0
M  V30 9162 C 881.049 -1.55434 1.16422 0
M  V30 9163 O 880.324 -1.93081 0.234517 0
M  V30 9164 C 880.607 -0.722211 3.52783 0
M  V30 9165 C 880.46 0.498575 4.47028 0
M  V30 9166 C 881.779 -1.5583 4.11589 0
M  V30 9167 H 878.898 -0.122455 0.726756 0
M  V30 9168 H 881.54 0.38319 1.86096 0
M  V30 9169 H 879.69 -1.33919 3.64689 0
M  V30 9170 H 881.362 1.13713 4.47065 0
M  V30 9171 H 879.605 1.13646 4.18649 0
M  V30 9172 H 880.276 0.188041 5.5168 0
M  V30 9173 H 882.752 -1.03722 4.02965 0
M  V30 9174 H 881.628 -1.79387 5.1876 0
M  V30 9175 H 881.889 -2.53963 3.61877 0
M  V30 9176 N 880.948 -1.576 0.00335426 0
M  V30 9177 C 881.858 -2.12067 -1.00322 0
M  V30 9178 C 882.874 -1.06672 -1.37467 0
M  V30 9179 O 884.05 -1.38592 -1.46131 0
M  V30 9180 C 881.115 -2.61593 -2.27531 0
M  V30 9181 C 880.176 -3.81602 -1.96668 0
M  V30 9182 C 879.409 -4.28756 -3.17811 0
M  V30 9183 O 879.632 -3.75222 -4.2961 0
M  V30 9184 O 878.566 -5.20877 -3.01613 0
M  V30 9185 H 882.392 -2.98299 -0.570199 0
M  V30 9186 H 879.977 -1.47835 -0.215682 0
M  V30 9187 H 881.859 -2.93631 -3.02256 0
M  V30 9188 H 880.534 -1.78457 -2.70065 0
M  V30 9189 H 879.441 -3.54531 -1.19408 0
M  V30 9190 H 880.774 -4.65822 -1.58968 0
M  V30 9191 N 882.426 0.269451 -1.5528 0
M  V30 9192 C 883.703 1.02207 -1.66773 0
M  V30 9193 C 884.083 2.04168 -0.536536 0
M  V30 9194 O 883.431 2.23761 0.462956 0
M  V30 9195 C 883.641 1.67569 -3.0614 0
M  V30 9196 C 884.989 2.18599 -3.64005 0
M  V30 9197 O 886.013 1.7755 -3.08795 0
M  V30 9198 O 884.872 2.93903 -4.60742 0
M  V30 9199 H 881.966 0.474314 -0.677462 0
M  V30 9200 H 884.512 0.265026 -1.67618 0
M  V30 9201 H 883.284 0.937029 -3.79915 0
M  V30 9202 H 882.907 2.49951 -3.09209 0
M  V30 9203 N 883.904 1.48273 0.534124 0
M  V30 9204 C 885.15 1.5729 1.28963 0
M  V30 9205 C 885.505 0.241854 1.90874 0
M  V30 9206 O 884.798 -0.754874 1.76103 0
M  V30 9207 C 884.992 2.64468 2.40398 0
M  V30 9208 C 884.821 4.07865 1.8941 0
M  V30 9209 C 883.591 4.75052 1.72202 0
M  V30 9210 C 885.789 4.94163 1.42505 0
M  V30 9211 N 883.771 6.0288 1.15795 0
M  V30 9212 C 885.142 6.12203 0.980176 0
M  V30 9213 C 887.197 4.8042 1.30769 0
M  V30 9214 C 885.9 7.18016 0.429591 0
M  V30 9215 C 887.926 5.86351 0.771107 0
M  V30 9216 C 887.288 7.03597 0.336287 0
M  V30 9217 H 883.387 0.630141 0.463083 0
M  V30 9218 H 885.971 1.85135 0.602767 0
M  V30 9219 H 884.142 2.38453 3.06586 0
M  V30 9220 H 885.874 2.63194 3.07426 0
M  V30 9221 H 882.629 4.3132 1.95603 0
M  V30 9222 H 883.053 6.71043 0.896141 0
M  V30 9223 H 887.695 3.90119 1.62993 0
M  V30 9224 H 885.413 8.08044 0.0950224 0
M  V30 9225 H 888.999 5.77771 0.68354 0
M  V30 9226 H 887.879 7.84167 -0.0724668 0
M  V30 9227 N 885.382 -0.782676 1.36792 0
M  V30 9228 C 886.793 -1.35828 1.28092 0
M  V30 9229 C 887.144 -1.96052 -0.076315 0
M  V30 9230 O 886.269 -1.93042 -0.977935 0
M  V30 9231 C 886.864 -2.46949 2.31952 0
M  V30 9232 C 885.423 -3.00307 2.2692 0
M  V30 9233 C 884.57 -1.73436 2.16368 0
M  V30 9234 H 887.521 -0.583788 1.47572 0
M  V30 9235 H 887.542 -3.26144 1.95986 0
M  V30 9236 H 887.054 -2.03087 3.30722 0
M  V30 9237 H 885.155 -3.48571 1.31639 0
M  V30 9238 H 885.268 -3.56663 3.19887 0
M  V30 9239 H 883.632 -1.95934 1.62733 0
M  V30 9240 H 884.415 -1.31693 3.17036 0
M  V30 9241 N 886.86 -1.21182 -1.00761 0
M  V30 9242 C 888.109 -1.02166 -1.73911 0
M  V30 9243 C 888.422 0.445638 -1.90456 0
M  V30 9244 O 889.628 0.755132 -2.60787 0
M  V30 9245 C 888.084 -1.77936 -3.12837 0
M  V30 9246 C 887.692 -3.28819 -3.04273 0
M  V30 9247 C 889.436 -1.67319 -3.90134 0
M  V30 9248 C 887.343 -3.97089 -4.38262 0
M  V30 9249 H 886.273 -0.378665 -0.652019 0
M  V30 9250 H 888.924 -1.44891 -1.12601 0
M  V30 9251 H 887.306 -1.28003 -3.74742 0
M  V30 9252 H 888.48 -3.86035 -2.51622 0
M  V30 9253 H 886.795 -3.39949 -2.40465 0
M  V30 9254 H 889.392 -2.15659 -4.8928 0
M  V30 9255 H 889.735 -0.630959 -4.11491 0
M  V30 9256 H 890.268 -2.14716 -3.34876 0
M  V30 9257 H 887.007 -5.01503 -4.22107 0
M  V30 9258 H 886.527 -3.44662 -4.90885 0
M  V30 9259 H 888.206 -4.01854 -5.07072 0
M  V30 9260 N 888.338 1.20213 -1.01915 0
M  V30 9261 C 889.271 2.2181 -0.536243 0
M  V30 9262 C 890.249 1.57144 0.417689 0
M  V30 9263 O 891.433 1.85461 0.337088 0
M  V30 9264 C 888.56 3.37989 0.219303 0
M  V30 9265 C 887.606 4.2097 -0.684571 0
M  V30 9266 S 888.439 4.90216 -2.15519 0
M  V30 9267 C 889.595 6.09814 -1.40988 0
M  V30 9268 H 889.828 2.62429 -1.39709 0
M  V30 9269 H 887.361 1.30305 -0.828254 0
M  V30 9270 H 889.319 4.05335 0.649112 0
M  V30 9271 H 887.98 2.95825 1.05575 0
M  V30 9272 H 887.173 5.03897 -0.101833 0
M  V30 9273 H 886.775 3.58892 -1.05227 0
M  V30 9274 H 889.067 6.73964 -0.691243 0
M  V30 9275 H 890.01 6.72552 -2.21539 0
M  V30 9276 H 890.418 5.5709 -0.911645 0
M  V30 9277 N 889.816 0.795718 1.36037 0
M  V30 9278 C 891.227 0.433379 1.816 0
M  V30 9279 C 891.578 -1.04341 1.66155 0
M  V30 9280 O 890.703 -1.81004 1.18603 0
M  V30 9281 C 891.298 0.77985 3.29703 0
M  V30 9282 C 889.857 0.470256 3.73451 0
M  V30 9283 C 889.004 1.01119 2.58206 0
M  V30 9284 H 891.955 0.988317 1.24169 0
M  V30 9285 H 891.976 0.0732898 3.80429 0
M  V30 9286 H 891.488 1.85473 3.40913 0
M  V30 9287 H 889.589 -0.596332 3.67797 0
M  V30 9288 H 889.702 0.995276 4.68648 0
M  V30 9289 H 888.066 0.434077 2.50974 0
M  V30 9290 H 888.849 2.09196 2.72198 0
M  V30 9291 N 891.294 -1.47756 0.548274 0
M  V30 9292 C 892.54 -2.02789 0.0209265 0
M  V30 9293 C 892.873 -1.42268 -1.32187 0
M  V30 9294 O 892.148 -0.575001 -1.85806 0
M  V30 9295 C 892.431 -3.60007 -0.0816674 0
M  V30 9296 C 892.284 -4.30977 1.28759 0
M  V30 9297 C 893.603 -4.32777 -0.799515 0
M  V30 9298 H 890.722 -0.736944 0.00907884 0
M  V30 9299 H 893.364 -1.76282 0.708839 0
M  V30 9300 H 891.514 -3.82722 -0.667537 0
M  V30 9301 H 893.186 -4.19629 1.91597 0
M  V30 9302 H 891.429 -3.9168 1.86466 0
M  V30 9303 H 892.1 -5.39488 1.16861 0
M  V30 9304 H 894.576 -4.15001 -0.30216 0
M  V30 9305 H 893.452 -5.42431 -0.840239 0
M  V30 9306 H 893.713 -4.01358 -1.85375 0
M  V30 9307 N 892.772 -0.284283 -1.55015 0
M  V30 9308 C 894.049 0.382125 -1.91831 0
M  V30 9309 C 894.429 1.73007 -1.20962 0
M  V30 9310 O 893.777 2.25962 -0.339594 0
M  V30 9311 C 893.987 0.513341 -3.45204 0
M  V30 9312 C 895.335 0.791989 -4.17148 0
M  V30 9313 O 896.359 0.597799 -3.51148 0
M  V30 9314 O 895.218 1.16394 -5.33961 0
M  V30 9315 H 892.312 0.210707 -0.799707 0
M  V30 9316 H 894.858 -0.331111 -1.66438 0
M  V30 9317 H 893.63 -0.434911 -3.88876 0
M  V30 9318 H 893.253 1.27569 -3.76579 0
M  V30 9319 N 894.251 1.57596 -0.0117121 0
M  V30 9320 C 895.479 1.9536 0.681334 0
M  V30 9321 C 895.894 0.887255 1.66653 0
M  V30 9322 O 895.251 -0.132692 1.82017 0
M  V30 9323 C 895.302 3.33165 1.40298 0
M  V30 9324 O 895.023 4.35707 0.45728 0
M  V30 9325 C 896.524 3.85458 2.18946 0
M  V30 9326 H 893.744 0.643826 0.189023 0
M  V30 9327 H 896.288 2.04392 -0.066311 0
M  V30 9328 H 894.443 3.25404 2.10216 0
M  V30 9329 H 894.857 5.15495 0.96773 0
M  V30 9330 H 896.331 4.84275 2.64918 0
M  V30 9331 H 896.808 3.18781 3.02118 0
M  V30 9332 H 897.414 3.96431 1.5402 0
M  V30 9333 N 895.729 -0.261212 1.5542 0
M  V30 9334 C 896.975 -0.992699 1.76843 0
M  V30 9335 C 897.308 -1.8551 0.574428 0
M  V30 9336 O 896.583 -1.89739 -0.427713 0
M  V30 9337 C 896.866 -1.86532 3.08022 0
M  V30 9338 C 896.719 -1.03206 4.378 0
M  V30 9339 C 898.038 -2.85036 3.35324 0
M  V30 9340 H 895.157 -0.359473 0.643388 0
M  V30 9341 H 897.799 -0.264214 1.88154 0
M  V30 9342 H 895.949 -2.48644 2.9851 0
M  V30 9343 H 897.621 -0.430743 4.59285 0
M  V30 9344 H 895.864 -0.335911 4.32497 0
M  V30 9345 H 896.535 -1.6761 5.25938 0
M  V30 9346 H 899.011 -2.3306 3.44706 0
M  V30 9347 H 897.887 -3.43226 4.28354 0
M  V30 9348 H 898.148 -3.60768 2.55537 0
M  V30 9349 N 897.207 -1.48554 -0.526253 0
M  V30 9350 C 898.455 -1.56452 -1.27935 0
M  V30 9351 C 898.776 -0.24184 -1.93495 0
M  V30 9352 O 898.046 0.736917 -1.81511 0
M  V30 9353 H 896.626 -0.576379 -0.47518 0
M  V30 9354 H 899.288 -1.85039 -0.612083 0
M  V30 9355 H 898.384 -2.34751 -2.05666 0
M  V30 9356 N 898.685 0.775411 -1.37205 0
M  V30 9357 C 899.932 1.53384 -1.32211 0
M  V30 9358 C 900.26 1.9427 0.0944958 0
M  V30 9359 O 899.515 1.64059 1.06692 0
M  V30 9360 C 899.814 2.81377 -2.20367 0
M  V30 9361 C 899.48 2.59561 -3.68699 0
M  V30 9362 C 898.142 2.53319 -4.09124 0
M  V30 9363 C 900.494 2.39939 -4.62686 0
M  V30 9364 C 897.822 2.25442 -5.41658 0
M  V30 9365 C 900.174 2.13586 -5.95453 0
M  V30 9366 C 898.838 2.05786 -6.34987 0
M  V30 9367 H 898.108 0.561271 -0.483793 0
M  V30 9368 H 900.755 0.893466 -1.6938 0
M  V30 9369 H 899.06 3.49954 -1.76181 0
M  V30 9370 H 900.757 3.39238 -2.13819 0
M  V30 9371 H 897.347 2.6528 -3.36637 0
M  V30 9372 H 901.531 2.43753 -4.32317 0
M  V30 9373 H 896.787 2.17896 -5.71254 0
M  V30 9374 H 900.961 1.97401 -6.67837 0
M  V30 9375 H 898.588 1.83948 -7.37609 0
M  V30 9376 N 900.163 1.21714 1.00117 0
M  V30 9377 C 901.11 0.979837 2.08968 0
M  V30 9378 C 902.08 -0.0955324 1.65825 0
M  V30 9379 O 903.265 0.0523742 1.90728 0
M  V30 9380 C 900.405 0.554758 3.40612 0
M  V30 9381 C 899.518 1.69999 3.97145 0
M  V30 9382 C 898.653 1.2237 5.16913 0
M  V30 9383 C 897.692 2.34101 5.65564 0
M  V30 9384 N 896.829 1.87579 6.76579 0
M  V30 9385 H 901.669 1.91167 2.28602 0
M  V30 9386 H 899.206 0.952645 1.12085 0
M  V30 9387 H 901.164 0.289526 4.16194 0
M  V30 9388 H 899.794 -0.340073 3.21004 0
M  V30 9389 H 898.846 2.07976 3.18512 0
M  V30 9390 H 900.158 2.54074 4.29241 0
M  V30 9391 H 899.312 0.915358 5.99755 0
M  V30 9392 H 898.051 0.353045 4.8642 0
M  V30 9393 H 897.056 2.65734 4.81316 0
M  V30 9394 H 898.281 3.21669 5.98085 0
M  V30 9395 H 896.227 1.02863 6.47885 0
M  V30 9396 H 896.144 2.65225 7.07949 0
M  V30 9397 H 897.412 1.5979 7.62947 0
M  V30 9398 N 901.641 -1.19671 1.02551 0
M  V30 9399 C 902.571 -2.25009 0.623965 0
M  V30 9400 C 903.552 -1.66129 -0.36538 0
M  V30 9401 O 904.737 -1.92599 -0.248842 0
M  V30 9402 C 901.867 -3.47287 -0.0294869 0
M  V30 9403 C 900.821 -4.18818 0.881781 0
M  V30 9404 C 900.147 -5.34618 0.0936189 0
M  V30 9405 C 901.447 -4.73986 2.19396 0
M  V30 9406 H 903.141 -2.58851 1.50454 0
M  V30 9407 H 900.687 -1.24425 0.724872 0
M  V30 9408 H 902.64 -4.20168 -0.322016 0
M  V30 9409 H 901.364 -3.12635 -0.944838 0
M  V30 9410 H 900.023 -3.47815 1.15845 0
M  V30 9411 H 899.671 -4.9621 -0.823661 0
M  V30 9412 H 899.371 -5.83409 0.700568 0
M  V30 9413 H 900.895 -6.10297 -0.192249 0
M  V30 9414 H 902.309 -5.38639 1.96319 0
M  V30 9415 H 900.706 -5.3325 2.75254 0
M  V30 9416 H 901.776 -3.92238 2.85092 0
M  V30 9417 N 903.119 -0.802921 -1.35613 0
M  V30 9418 C 904.535 -0.486214 -1.52014 0
M  V30 9419 C 904.735 0.993219 -1.75321 0
M  V30 9420 O 903.791 1.77835 -1.79251 0
M  V30 9421 C 905.104 -1.32839 -2.69767 0
M  V30 9422 C 906.652 -1.32346 -2.83643 0
M  V30 9423 C 907.127 -2.14967 -4.04417 0
M  V30 9424 N 908.618 -2.12484 -4.11588 0
M  V30 9425 C 909.353 -2.73173 -5.04147 0
M  V30 9426 N 908.849 -3.42774 -6.02061 0
M  V30 9427 N 910.642 -2.62834 -4.96865 0
M  V30 9428 H 902.793 -1.76109 -1.18741 0
M  V30 9429 H 905.056 -0.74936 -0.580658 0
M  V30 9430 H 904.762 -2.37813 -2.5911 0
M  V30 9431 H 904.636 -0.979058 -3.64272 0
M  V30 9432 H 907.023 -0.281586 -2.93753 0
M  V30 9433 H 907.104 -1.71264 -1.90006 0
M  V30 9434 H 906.748 -3.19193 -3.95068 0
M  V30 9435 H 906.678 -1.73411 -4.97228 0
M  V30 9436 H 909.169 -1.61839 -3.41492 0
M  V30 9437 H 909.482 -3.86378 -6.69277 0
M  V30 9438 H 907.827 -3.46878 -6.02246 0
M  V30 9439 H 911.018 -2.08049 -4.19325 0
M  V30 9440 H 911.191 -3.10421 -5.68808 0
M  V30 9441 N 904.597 1.47463 -0.556102 0
M  V30 9442 C 906.008 1.86298 -0.122429 0
M  V30 9443 C 906.359 1.46285 1.30749 0
M  V30 9444 O 905.484 0.865405 1.98342 0
M  V30 9445 C 906.079 3.38115 -0.215407 0
M  V30 9446 C 904.638 3.76046 0.163223 0
M  V30 9447 C 903.785 2.71515 -0.563466 0
M  V30 9448 H 906.736 1.38996 -0.765888 0
M  V30 9449 H 906.757 3.76263 0.566271 0
M  V30 9450 H 906.269 3.67207 -1.25622 0
M  V30 9451 H 904.37 3.5257 1.20519 0
M  V30 9452 H 904.483 4.78705 -0.194568 0
M  V30 9453 H 902.847 2.54699 -0.00667879 0
M  V30 9454 H 903.63 3.03449 -1.60542 0
M  V30 9455 N 906.075 0.2925 1.54862 0
M  V30 9456 C 906.985 -0.597036 2.26876 0
M  V30 9457 C 908.001 -1.15558 1.30086 0
M  V30 9458 O 909.177 -1.18217 1.63054 0
M  V30 9459 C 906.242 -1.75664 2.98903 0
M  V30 9460 C 905.303 -1.23303 4.11212 0
M  V30 9461 C 904.536 -2.33736 4.79795 0
M  V30 9462 O 904.759 -3.53459 4.47686 0
M  V30 9463 O 903.693 -2.00908 5.67379 0
M  V30 9464 H 907.519 -0.0131242 3.03697 0
M  V30 9465 H 905.104 0.0592642 1.49282 0
M  V30 9466 H 906.986 -2.43241 3.4411 0
M  V30 9467 H 905.661 -2.32731 2.24984 0
M  V30 9468 H 904.568 -0.523222 3.70423 0
M  V30 9469 H 905.901 -0.707887 4.87083 0
M  V30 9470 N 907.553 -1.57587 0.0200696 0
M  V30 9471 C 908.801 -1.91046 -0.65922 0
M  V30 9472 C 909.122 -0.896197 -1.73186 0
M  V30 9473 O 908.392 0.0635952 -1.95797 0
M  V30 9474 H 906.972 -0.705163 -0.246483 0
M  V30 9475 H 909.634 -1.94789 0.0657368 0
M  V30 9476 H 908.73 -2.91399 -1.11773 0
M  V30 9477 N 909.032 0.252966 -1.55557 0
M  V30 9478 C 910.279 0.981852 -1.77104 0
M  V30 9479 C 910.607 1.85547 -0.583305 0
M  V30 9480 O 909.862 1.90836 0.43359 0
M  V30 9481 C 910.161 1.87785 -3.04091 0
M  V30 9482 C 909.827 1.16009 -4.35721 0
M  V30 9483 C 908.489 0.961697 -4.71492 0
M  V30 9484 C 910.841 0.650884 -5.1712 0
M  V30 9485 C 908.169 0.241704 -5.86202 0
M  V30 9486 C 910.521 -0.0556124 -6.32576 0
M  V30 9487 C 909.185 -0.265536 -6.66972 0
M  V30 9488 H 908.455 0.359285 -0.64807 0
M  V30 9489 H 911.102 0.252443 -1.89829 0
M  V30 9490 H 909.407 2.67412 -2.86353 0
M  V30 9491 H 911.104 2.44339 -3.17961 0
M  V30 9492 H 907.694 1.32465 -4.07616 0
M  V30 9493 H 911.878 0.791719 -4.89944 0
M  V30 9494 H 907.134 0.0685292 -6.11362 0
M  V30 9495 H 911.308 -0.457839 -6.94893 0
M  V30 9496 H 908.935 -0.8254 -7.55706 0
M  V30 9497 N 910.51 1.48831 0.518367 0
M  V30 9498 C 911.757 1.57439 1.27355 0
M  V30 9499 C 912.085 0.25338 1.92843 0
M  V30 9500 O 911.34 -0.757323 1.80452 0
M  V30 9501 C 911.639 2.67003 2.3758 0
M  V30 9502 C 911.305 4.09069 1.89667 0
M  V30 9503 C 909.967 4.47733 1.76319 0
M  V30 9504 C 912.319 4.98052 1.53603 0
M  V30 9505 C 909.647 5.73173 1.25258 0
M  V30 9506 C 911.999 6.23992 1.04001 0
M  V30 9507 C 910.663 6.61503 0.892784 0
M  V30 9508 H 909.933 0.57611 0.466023 0
M  V30 9509 H 912.58 1.82595 0.577166 0
M  V30 9510 H 910.885 2.35751 3.12936 0
M  V30 9511 H 912.582 2.70876 2.95681 0
M  V30 9512 H 909.172 3.7854 2.01011 0
M  V30 9513 H 913.356 4.68849 1.62771 0
M  V30 9514 H 908.612 6.0095 1.12557 0
M  V30 9515 H 912.786 6.92331 0.751706 0
M  V30 9516 H 910.413 7.58587 0.494939 0
M  V30 9517 N 911.988 -0.768124 1.37614 0
M  V30 9518 C 913.265 -1.51637 1.23554 0
M  V30 9519 C 913.645 -2.1042 -0.169331 0
M  V30 9520 O 912.993 -1.95834 -1.17735 0
M  V30 9521 C 913.203 -2.59436 2.33439 0
M  V30 9522 C 914.551 -3.2674 2.71157 0
M  V30 9523 O 915.575 -2.69733 2.32642 0
M  V30 9524 O 914.434 -4.29814 3.37524 0
M  V30 9525 H 911.528 -0.671778 0.482332 0
M  V30 9526 H 914.074 -0.804779 1.49403 0
M  V30 9527 H 912.846 -2.14146 3.27502 0
M  V30 9528 H 912.469 -3.38192 2.09073 0
M  V30 9529 N 913.466 -1.22244 -0.994698 0
M  V30 9530 C 914.882 -0.982006 -1.25813 0
M  V30 9531 C 915.082 0.325488 -1.98854 0
M  V30 9532 O 914.138 1.04857 -2.29698 0
M  V30 9533 C 915.451 -2.1795 -2.07167 0
M  V30 9534 C 916.999 -2.22287 -2.20358 0
M  V30 9535 C 917.474 -3.41583 -3.05098 0
M  V30 9536 N 918.965 -3.41734 -3.12686 0
M  V30 9537 C 919.7 -4.30692 -3.78539 0
M  V30 9538 N 919.196 -5.29865 -4.46335 0
M  V30 9539 N 920.989 -4.18473 -3.75283 0
M  V30 9540 H 913.14 -2.0631 -0.504963 0
M  V30 9541 H 915.403 -0.90395 -0.285618 0
M  V30 9542 H 915.109 -3.12758 -1.60858 0
M  V30 9543 H 914.983 -2.17862 -3.07922 0
M  V30 9544 H 917.37 -1.28028 -2.65881 0
M  V30 9545 H 917.451 -2.26414 -1.19039 0
M  V30 9546 H 917.095 -4.36141 -2.60275 0
M  V30 9547 H 917.025 -3.34695 -4.06555 0
M  V30 9548 H 919.516 -2.69969 -2.64433 0
M  V30 9549 H 919.829 -5.94027 -4.9432 0
M  V30 9550 H 918.174 -5.3378 -4.45089 0
M  V30 9551 H 921.365 -3.40249 -3.21478 0
M  V30 9552 H 921.538 -4.88007 -4.26326 0
M  V30 9553 N 914.944 1.19125 -1.03184 0
M  V30 9554 C 916.169 1.93379 -0.749628 0
M  V30 9555 C 916.594 1.75153 0.685785 0
M  V30 9556 O 915.952 1.05579 1.47386 0
M  V30 9557 C 916 3.43101 -1.1097 0
M  V30 9558 O 915.104 4.11758 -0.230053 0
M  V30 9559 H 914.445 0.603605 -0.276689 0
M  V30 9560 H 916.975 1.51116 -1.37931 0
M  V30 9561 H 916.985 3.93778 -1.06785 0
M  V30 9562 H 915.66 3.55688 -2.15544 0
M  V30 9563 H 914.237 3.7143 -0.330748 0
M  V30 9564 N 916.422 0.810101 1.35185 0
M  V30 9565 C 917.833 0.452616 1.81131 0
M  V30 9566 C 918.184 -1.02573 1.67252 0
M  V30 9567 O 917.309 -1.79735 1.20516 0
M  V30 9568 C 917.904 0.814775 3.28857 0
M  V30 9569 C 916.463 0.509839 3.72931 0
M  V30 9570 C 915.61 1.03852 2.57119 0
M  V30 9571 H 918.561 1.00143 1.23114 0
M  V30 9572 H 918.582 0.113635 3.8033 0
M  V30 9573 H 918.094 1.89078 3.38926 0
M  V30 9574 H 916.195 -0.557289 3.68409 0
M  V30 9575 H 916.308 1.04493 4.67566 0
M  V30 9576 H 914.672 0.460671 2.50499 0
M  V30 9577 H 915.455 2.12071 2.69964 0
M  V30 9578 N 917.9 -1.47166 0.563914 0
M  V30 9579 C 919.146 -2.02756 0.0424338 0
M  V30 9580 C 919.479 -1.43662 -1.3067 0
M  V30 9581 O 918.754 -0.594676 -1.85186 0
M  V30 9582 C 919.037 -3.60074 -0.0434793 0
M  V30 9583 C 918.89 -4.29587 1.33323 0
M  V30 9584 C 920.209 -4.336 -0.753568 0
M  V30 9585 H 917.328 -0.736806 0.0168946 0
M  V30 9586 H 919.97 -1.75521 0.727496 0
M  V30 9587 H 918.12 -3.83409 -0.626906 0
M  V30 9588 H 919.792 -4.17573 1.96037 0
M  V30 9589 H 918.035 -3.8968 1.9061 0
M  V30 9590 H 918.706 -5.38218 1.22576 0
M  V30 9591 H 921.182 -4.15299 -0.258126 0
M  V30 9592 H 920.058 -5.43291 -0.782659 0
M  V30 9593 H 920.319 -4.03302 -1.81108 0
M  V30 9594 N 919.378 -0.300708 -1.54705 0
M  V30 9595 C 920.308 0.568675 -2.26469 0
M  V30 9596 C 921.289 1.13817 -1.26411 0
M  V30 9597 O 922.474 1.16756 -1.55183 0
M  V30 9598 C 919.604 1.74077 -3.00524 0
M  V30 9599 C 918.558 1.30165 -4.07727 0
M  V30 9600 C 917.884 2.55888 -4.69495 0
M  V30 9601 C 919.184 0.433106 -5.20501 0
M  V30 9602 H 920.878 -0.0298851 -2.99385 0
M  V30 9603 H 918.424 -0.0158135 -1.43991 0
M  V30 9604 H 920.377 2.35506 -3.49449 0
M  V30 9605 H 919.101 2.36556 -2.25186 0
M  V30 9606 H 917.76 0.710414 -3.59651 0
M  V30 9607 H 917.408 3.16681 -3.90797 0
M  V30 9608 H 917.108 2.27207 -5.41895 0
M  V30 9609 H 918.632 3.18121 -5.21183 0
M  V30 9610 H 920.046 0.95307 -5.65322 0
M  V30 9611 H 918.443 0.240085 -5.9962 0
M  V30 9612 H 919.513 -0.541866 -4.81863 0
M  V30 9613 N 920.856 1.57574 -0.0284266 0
M  V30 9614 C 922.133 1.83064 0.688979 0
M  V30 9615 C 922.513 0.91219 1.90374 0
M  V30 9616 O 921.861 -0.0323672 2.28477 0
M  V30 9617 C 922.071 3.32262 1.06785 0
M  V30 9618 C 923.419 3.98717 1.45978 0
M  V30 9619 O 924.443 3.36753 1.16085 0
M  V30 9620 O 923.302 5.07927 2.01673 0
M  V30 9621 H 920.396 0.7548 0.337944 0
M  V30 9622 H 922.942 1.69607 -0.0560555 0
M  V30 9623 H 921.714 3.90772 0.203235 0
M  V30 9624 H 921.337 3.50823 1.87107 0
M  V30 9625 N 922.334 -0.244713 1.55689 0
M  V30 9626 C 923.58 -0.973886 1.77886 0
M  V30 9627 C 923.913 -1.8489 0.594071 0
M  V30 9628 O 923.188 -1.90182 -0.407564 0
M  V30 9629 C 923.471 -1.83255 3.09983 0
M  V30 9630 C 923.324 -0.985571 4.3887 0
M  V30 9631 C 924.643 -2.81464 3.38329 0
M  V30 9632 H 921.762 -0.352629 0.647165 0
M  V30 9633 H 924.404 -0.244243 1.88424 0
M  V30 9634 H 922.554 -2.45464 3.01131 0
M  V30 9635 H 924.226 -0.382005 4.59716 0
M  V30 9636 H 922.469 -0.29002 4.32829 0
M  V30 9637 H 923.14 -1.62022 5.27686 0
M  V30 9638 H 925.616 -2.2939 3.47159 0
M  V30 9639 H 924.492 -3.38663 4.31971 0
M  V30 9640 H 924.753 -3.58037 2.59349 0
M  V30 9641 N 923.813 -1.49104 -0.510467 0
M  V30 9642 C 925.224 -1.51423 -1.09215 0
M  V30 9643 C 925.575 -0.295035 -1.93969 0
M  V30 9644 O 924.7 0.596064 -2.08029 0
M  V30 9645 C 925.295 -2.74387 -1.98739 0
M  V30 9646 C 923.854 -2.79515 -2.52088 0
M  V30 9647 C 923.001 -2.4521 -1.29488 0
M  V30 9648 H 925.952 -1.55938 -0.294807 0
M  V30 9649 H 925.973 -2.54012 -2.83298 0
M  V30 9650 H 925.485 -3.63105 -1.37026 0
M  V30 9651 H 923.586 -1.95054 -3.17466 0
M  V30 9652 H 923.699 -3.81447 -2.89887 0
M  V30 9653 H 922.063 -1.96785 -1.61703 0
M  V30 9654 H 922.846 -3.36192 -0.694978 0
M  V30 9655 N 925.291 0.760815 -1.38019 0
M  V30 9656 C 926.254 1.85604 -1.34476 0
M  V30 9657 C 927.254 1.58897 -0.24666 0
M  V30 9658 O 928.444 1.66776 -0.50314 0
M  V30 9659 C 925.576 3.22945 -1.09176 0
M  V30 9660 H 926.769 1.90155 -2.31908 0
M  V30 9661 H 924.322 0.961746 -1.23208 0
M  V30 9662 H 925.057 3.24066 -0.123216 0
M  V30 9663 H 924.842 3.43723 -1.88672 0
M  V30 9664 H 926.332 4.03022 -1.09375 0
M  V30 9665 N 926.769 1.22769 0.988202 0
M  V30 9666 C 927.717 0.999271 2.10041 0
M  V30 9667 C 928.711 -0.0591767 1.69297 0
M  V30 9668 O 929.917 0.0936653 1.79756 0
M  V30 9669 H 926.292 0.30599 0.686931 0
M  V30 9670 H 928.263 1.94294 2.26478 0
M  V30 9671 C 927.012 0.59873 3.42506 0
M  V30 9672 H 926.335 1.40487 3.74304 0
M  V30 9673 H 927.775 0.478353 4.21293 0
M  V30 9674 C 926.234 -0.692216 3.29712 0
M  V30 9675 O 926.764 -1.74342 3.61895 0
M  V30 9676 N 924.97 -0.665163 2.82885 0
M  V30 9677 H 924.517 0.190604 2.56894 0
M  V30 9678 H 924.475 -1.52917 2.74706 0
M  V30 9679 N 928.247 -1.18576 1.03814 0
M  V30 9680 C 929.658 -1.70159 0.768299 0
M  V30 9681 C 930.009 -1.8286 -0.711106 0
M  V30 9682 O 929.134 -1.5063 -1.55369 0
M  V30 9683 C 929.729 -3.09062 1.38804 0
M  V30 9684 C 928.288 -3.57866 1.16656 0
M  V30 9685 C 927.435 -2.34484 1.48029 0
M  V30 9686 H 930.386 -1.03287 1.20488 0
M  V30 9687 H 930.407 -3.72211 0.7899 0
M  V30 9688 H 929.919 -2.99785 2.46476 0
M  V30 9689 H 928.02 -3.72442 0.108471 0
M  V30 9690 H 928.133 -4.41445 1.8618 0
M  V30 9691 H 926.497 -2.38273 0.899902 0
M  V30 9692 H 927.28 -2.27829 2.56805 0
M  V30 9693 N 929.725 -0.817259 -1.34754 0
M  V30 9694 C 930.95 -0.414423 -2.03217 0
M  V30 9695 C 931.375 0.970037 -1.61158 0
M  V30 9696 O 930.733 1.63016 -0.793436 0
M  V30 9697 C 930.781 -0.518087 -3.56859 0
M  V30 9698 O 929.885 0.464314 -4.09778 0
M  V30 9699 H 929.226 -0.171454 -0.641482 0
M  V30 9700 H 931.756 -1.10611 -1.72123 0
M  V30 9701 H 931.766 -0.391779 -4.06115 0
M  V30 9702 H 930.441 -1.52786 -3.86819 0
M  V30 9703 H 929.018 0.297361 -3.71712 0
M  V30 9704 N 931.203 1.46865 -0.571711 0
M  V30 9705 C 932.135 2.28277 0.205479 0
M  V30 9706 C 933.148 1.37866 0.865835 0
M  V30 9707 O 934.337 1.62564 0.737247 0
M  V30 9708 C 931.437 3.12572 1.30965 0
M  V30 9709 C 930.61 4.31038 0.743328 0
M  V30 9710 C 929.669 4.96815 1.73382 0
M  V30 9711 O 928.695 5.54755 1.2742 0
M  V30 9712 N 929.897 4.92825 3.06764 0
M  V30 9713 H 932.662 2.95618 -0.49294 0
M  V30 9714 H 930.223 1.56655 -0.408744 0
M  V30 9715 H 932.215 3.53442 1.97131 0
M  V30 9716 H 930.785 2.47378 1.91109 0
M  V30 9717 H 930.005 3.94084 -0.0955004 0
M  V30 9718 H 931.293 5.07632 0.344556 0
M  V30 9719 H 930.691 4.46978 3.46738 0
M  V30 9720 H 929.248 5.3767 3.68449 0
M  V30 9721 N 932.681 0.308908 1.54543 0
M  V30 9722 C 933.906 -0.303196 2.05172 0
M  V30 9723 C 934.331 -1.46133 1.18434 0
M  V30 9724 O 933.689 -1.803 0.190162 0
M  V30 9725 C 933.737 -0.729526 3.53143 0
M  V30 9726 O 932.841 -1.83348 3.69401 0
M  V30 9727 H 932.182 -0.0575066 0.661505 0
M  V30 9728 H 934.712 0.453055 1.99521 0
M  V30 9729 H 934.722 -1.01619 3.95143 0
M  V30 9730 H 933.397 0.117622 4.15734 0
M  V30 9731 H 931.974 -1.54676 3.39308 0
M  V30 9732 N 934.159 -1.57557 0.0367827 0
M  V30 9733 C 935.407 -1.91735 -0.63892 0
M  V30 9734 C 935.728 -0.914515 -1.72226 0
M  V30 9735 O 934.998 0.0428248 -1.95853 0
M  V30 9736 H 933.578 -0.707738 -0.23899 0
M  V30 9737 H 936.24 -1.94708 0.0863931 0
M  V30 9738 H 935.336 -2.92568 -1.08676 0
M  V30 9739 N 935.637 0.236453 -1.55816 0
M  V30 9740 C 936.862 0.98449 -1.82545 0
M  V30 9741 C 937.287 1.77755 -0.615206 0
M  V30 9742 O 936.645 1.75982 0.435895 0
M  V30 9743 C 936.693 1.88973 -3.07118 0
M  V30 9744 O 935.797 2.98298 -2.84766 0
M  V30 9745 H 935.138 0.279577 -0.602273 0
M  V30 9746 H 937.668 0.254277 -2.03014 0
M  V30 9747 H 937.678 2.3024 -3.36829 0
M  V30 9748 H 936.353 1.30671 -3.94839 0
M  V30 9749 H 934.93 2.61085 -2.6625 0
M  V30 9750 N 937.115 1.49373 0.502552 0
M  V30 9751 C 938.065 1.62321 1.60112 0
M  V30 9752 C 939.049 0.47895 1.53606 0
M  V30 9753 O 940.241 0.731824 1.61162 0
M  V30 9754 C 937.37 1.69162 2.98729 0
M  V30 9755 C 936.456 2.89161 3.10237 0
M  V30 9756 N 936.847 4.13256 2.91638 0
M  V30 9757 C 935.145 2.87065 3.41335 0
M  V30 9758 C 935.846 4.93913 3.07287 0
M  V30 9759 N 934.822 4.27249 3.36094 0
M  V30 9760 H 938.624 2.55989 1.44384 0
M  V30 9761 H 936.138 1.46123 0.708644 0
M  V30 9762 H 938.135 1.76536 3.77678 0
M  V30 9763 H 936.795 0.766301 3.15528 0
M  V30 9764 H 937.806 4.4326 2.67844 0
M  V30 9765 H 934.483 2.03905 3.6432 0
M  V30 9766 H 935.873 6.02491 2.97413 0
M  V30 9767 N 938.594 -0.753485 1.38421 0
M  V30 9768 C 939.834 -1.52544 1.3605 0
M  V30 9769 C 940.198 -1.91937 -0.0493257 0
M  V30 9770 O 941.399 -2.6807 -0.197908 0
M  V30 9771 C 939.67 -2.74432 2.28958 0
M  V30 9772 S 941.229 -3.64297 2.44607 0
M  V30 9773 H 938.047 -0.522017 0.48272 0
M  V30 9774 H 940.649 -0.884503 1.74347 0
M  V30 9775 H 939.353 -2.43602 3.30282 0
M  V30 9776 H 938.884 -3.43471 1.91811 0
M  V30 9777 H 940.899 -4.67245 1.67022 0
M  V30 9778 N 940.072 -1.23292 -0.981677 0
M  V30 9779 C 941.022 -0.980133 -2.05858 0
M  V30 9780 C 942.006 0.0734044 -1.60732 0
M  V30 9781 O 943.198 -0.138561 -1.76457 0
M  V30 9782 C 940.327 -0.571879 -3.38503 0
M  V30 9783 C 939.413 -1.66075 -3.90231 0
M  V30 9784 N 939.804 -2.89077 -4.15052 0
M  V30 9785 C 938.102 -1.53503 -4.18751 0
M  V30 9786 C 938.803 -3.59567 -4.5726 0
M  V30 9787 N 937.779 -2.87076 -4.61615 0
M  V30 9788 H 941.581 -1.91432 -2.23005 0
M  V30 9789 H 939.095 -1.13211 -1.16434 0
M  V30 9790 H 941.092 -0.372059 -4.15236 0
M  V30 9791 H 939.752 0.355278 -3.2275 0
M  V30 9792 H 940.763 -3.25395 -4.02912 0
M  V30 9793 H 937.44 -0.674891 -4.12009 0
M  V30 9794 H 938.83 -4.65007 -4.84993 0
M  V30 9795 N 941.55 1.18024 -1.04442 0
M  V30 9796 C 942.798 1.87727 -0.74854 0
M  V30 9797 C 943.119 1.80975 0.726156 0
M  V30 9798 O 942.389 1.23061 1.52423 0
M  V30 9799 H 940.969 0.694974 -0.273897 0
M  V30 9800 H 943.631 1.43213 -1.32197 0
M  V30 9801 H 942.727 2.93665 -1.05674 0
M  V30 9802 O 943.067 0.959562 1.29903 0
M  V30 9803 H 943.758 0.594984 1.84336 0
M  V30 END ATOM
M  V30 BEGIN BOND
M  V30 END BOND
M  V30 END CTAB
M  END
$$$$
