drugbank_target|P46849 RNA 3'-terminal phosphate cyclase (DB04272)
 OpenBabel12092120293D

  0  0  0     0  0            999 V3000
M  V30 BEGIN CTAB
M  V30 COUNTS 7757 8293 0 0 0
M  V30 BEGIN ATOM
M  V30 1 H -2.588 8.49073 -0.0679273 0
M  V30 2 O -1.492 9.37262 0.0843559 0
M  V30 3 P 0 8.791 0 0
M  V30 4 O 1.422 9.31096 0.027933 0
M  V30 5 O -0.36 7.77869 -1.04071 0
M  V30 6 O -0.323 8.09533 1.41463 0
M  V30 7 C -0.483 9.0349 2.53943 0
M  V30 8 C 0.057 8.35226 3.79016 0
M  V30 9 O -0.999 7.57992 4.15078 0
M  V30 10 C 1.275 7.45087 3.67298 0
M  V30 11 O 2.013 7.27796 4.85194 0
M  V30 12 C 0.606 6.17323 3.12027 0
M  V30 13 O 1.405 5.04231 3.47188 0
M  V30 14 C -0.731 6.19961 3.81809 0
M  V30 15 H -0.699 5.58218 4.73051 0
M  V30 16 H 0.484 6.21726 2.02589 0
M  V30 17 H 1.968 7.86112 2.9231 0
M  V30 18 H 0.274 9.11627 4.55076 0
M  V30 19 H 0.084 9.9573 2.34194 0
M  V30 20 H -1.546 9.2792 2.67832 0
M  V30 21 H 1.093 4.67702 4.28772 0
M  V30 22 P 2.95057 7.39546 4.75277 0
M  V30 23 O 4.37257 7.81777 5.05738 0
M  V30 24 O 2.59057 7.1065 3.32998 0
M  V30 25 O 2.62757 6.04542 5.56673 0
M  V30 26 C 2.46757 6.22772 7.02095 0
M  V30 27 C 3.00757 4.97725 7.70406 0
M  V30 28 O 1.95157 4.13256 7.58987 0
M  V30 29 C 4.22557 4.28231 7.11815 0
M  V30 30 O 4.96357 3.49945 8.01648 0
M  V30 31 C 3.55657 3.5063 5.96244 0
M  V30 32 O 4.35557 2.36482 5.64681 0
M  V30 33 C 2.21957 3.15122 6.56374 0
M  V30 34 H 2.25157 2.13853 6.99751 0
M  V30 35 H 3.43457 4.13501 5.06559 0
M  V30 36 H 4.91857 5.03285 6.70911 0
M  V30 37 H 3.22457 5.20877 8.75697 0
M  V30 38 H 3.03457 7.11046 7.35349 0
M  V30 39 H 1.40457 6.35815 7.26986 0
M  V30 40 H 4.04357 1.61644 6.13565 0
M  V30 41 P 5.90114 3.65191 7.99657 0
M  V30 42 O 7.32214 3.84292 8.48206 0
M  V30 43 O 5.54114 4.17805 6.64342 0
M  V30 44 O 5.57814 2.07613 7.95143 0
M  V30 45 C 5.41714 1.44344 9.27435 0
M  V30 46 C 5.95814 0.0220036 9.17197 0
M  V30 47 O 4.90314 -0.626794 8.61824 0
M  V30 48 C 7.17614 -0.24586 8.30336 0
M  V30 49 O 7.91414 -1.39011 8.63583 0
M  V30 50 C 6.50814 -0.273849 6.91158 0
M  V30 51 O 7.30614 -1.05728 6.029 0
M  V30 52 C 5.17014 -0.897649 7.22545 0
M  V30 53 N 4.12714 -0.292839 6.41732 0
M  V30 54 C 4.29614 0.950603 5.91308 0
M  V30 55 N 3.26914 1.37732 5.21105 0
M  V30 56 C 2.38414 0.318109 5.26039 0
M  V30 57 C 1.11714 0.146766 4.6727 0
M  V30 58 N 0.55214 -1.06525 4.95887 0
M  V30 59 C 1.15414 -2.0378 5.71347 0
M  V30 60 N 2.33114 -1.92445 6.27451 0
M  V30 61 C 2.90614 -0.715382 6.00353 0
M  V30 62 H 6.38514 0.733318 6.49674 0
M  V30 63 H 7.86814 0.60668 8.36503 0
M  V30 64 H 6.17414 -0.362662 10.1825 0
M  V30 65 H 5.98414 2.00611 10.0304 0
M  V30 66 H 4.35414 1.41843 9.55327 0
M  V30 67 H 5.19614 1.54076 6.07465 0
M  V30 68 H 6.99414 -1.95704 6.0346 0
M  V30 69 P 8.85171 -1.25109 8.70152 0
M  V30 70 O 10.2737 -1.35274 9.21221 0
M  V30 71 O 8.49171 -0.0769065 7.84762 0
M  V30 72 O 8.52871 -2.55232 7.81161 0
M  V30 73 C 8.36871 -3.79939 8.58154 0
M  V30 74 C 8.90871 -4.94023 7.72785 0
M  V30 75 O 7.85271 -5.18726 6.91205 0
M  V30 76 C 10.1267 -4.69597 6.85231 0
M  V30 77 O 10.8647 -5.83832 6.51337 0
M  V30 78 C 9.45771 -3.96706 5.66633 0
M  V30 79 O 10.2567 -4.15414 4.49689 0
M  V30 80 C 8.12071 -4.66153 5.59313 0
M  V30 81 H 8.15271 -5.47679 4.85214 0
M  V30 82 H 9.33571 -2.89008 5.86566 0
M  V30 83 H 10.8197 -4.0121 7.36511 0
M  V30 84 H 9.12571 -5.80182 8.37584 0
M  V30 85 H 8.93571 -3.73517 9.52265 0
M  V30 86 H 7.30571 -3.97163 8.80359 0
M  V30 87 H 9.94471 -4.90969 4.01921 0
M  V30 88 P 11.8023 -5.75688 6.64379 0
M  V30 89 O 13.2243 -6.11849 7.01846 0
M  V30 90 O 11.4423 -4.30744 6.56026 0
M  V30 91 O 11.4793 -6.37042 5.19165 0
M  V30 92 C 11.3193 -7.83578 5.16515 0
M  V30 93 C 11.8593 -8.33398 3.83019 0
M  V30 94 O 10.8033 -8.10074 3.01034 0
M  V30 95 C 13.0773 -7.65514 3.2257 0
M  V30 96 O 13.8153 -8.4329 2.32297 0
M  V30 97 C 12.4083 -6.40075 2.62207 0
M  V30 98 O 13.2073 -5.92589 1.53712 0
M  V30 99 C 11.0713 -6.9454 2.18503 0
M  V30 100 H 11.1033 -7.23063 1.12091 0
M  V30 101 H 12.2863 -5.6025 3.37201 0
M  V30 102 H 13.7703 -7.35707 4.02681 0
M  V30 103 H 12.0763 -9.40912 3.9095 0
M  V30 104 H 11.8863 -8.29056 5.99158 0
M  V30 105 H 10.2563 -8.10073 5.25882 0
M  V30 106 H 12.8953 -6.30324 0.726794 0
M  V30 107 P 14.7528 -8.4349 2.47671 0
M  V30 108 O 16.1738 -8.94263 2.59668 0
M  V30 109 O 14.3928 -7.1704 3.19006 0
M  V30 110 O 14.4298 -8.16596 0.923387 0
M  V30 111 C 14.2688 -9.38537 0.108869 0
M  V30 112 C 14.8098 -9.08175 -1.28353 0
M  V30 113 O 13.7548 -8.44131 -1.84692 0
M  V30 114 C 16.0278 -8.18386 -1.42505 0
M  V30 115 O 16.7659 -8.3501 -2.60497 0
M  V30 116 C 15.3598 -6.80225 -1.25468 0
M  V30 117 O 16.1578 -5.81716 -1.90454 0
M  V30 118 C 14.0218 -7.02416 -1.9168 0
M  V30 119 N 12.9788 -6.31033 -1.20314 0
M  V30 120 C 13.1478 -5.98817 0.0994088 0
M  V30 121 N 12.1208 -5.35403 0.621694 0
M  V30 122 C 11.2358 -5.25212 -0.43376 0
M  V30 123 C 9.96885 -4.64602 -0.519722 0
M  V30 124 N 9.36985 -4.01457 0.519136 0
M  V30 125 N 9.40385 -4.7568 -1.76013 0
M  V30 126 C 10.0058 -5.3653 -2.83017 0
M  V30 127 N 11.1828 -5.93676 -2.79782 0
M  V30 128 C 11.7578 -5.84061 -1.56249 0
M  V30 129 H 14.0538 -6.68789 -2.9658 0
M  V30 130 H 15.2368 -6.53498 -0.198729 0
M  V30 131 H 16.7198 -8.36622 -0.589963 0
M  V30 132 H 15.0258 -10.0273 -1.8081 0
M  V30 133 H 14.8358 -10.2138 0.558219 0
M  V30 134 H 13.2058 -9.6579 0.0444202 0
M  V30 135 H 9.46985 -5.37113 -3.77321 0
M  V30 136 H 14.0478 -6.23209 0.660562 0
M  V30 137 H 8.43985 -3.58834 0.394862 0
M  V30 138 H 9.84385 -3.96059 1.43048 0
M  V30 139 H 15.8458 -5.69466 -2.79593 0
M  V30 140 P 17.7034 -8.4349 -2.47671 0
M  V30 141 O 19.1254 -8.92593 -2.65 0
M  V30 142 O 17.3434 -7.7568 -1.19296 0
M  V30 143 O 17.3804 -7.36886 -3.63805 0
M  V30 144 C 17.2204 -7.95349 -4.982 0
M  V30 145 C 17.7604 -6.94612 -5.98974 0
M  V30 146 O 16.7044 -6.10347 -6.11815 0
M  V30 147 C 18.9784 -6.11426 -5.62335 0
M  V30 148 O 19.7164 -5.6162 -6.70584 0
M  V30 149 C 18.3094 -5.04409 -4.73308 0
M  V30 150 O 19.1084 -3.85992 -4.75183 0
M  V30 151 C 16.9724 -4.8728 -5.41006 0
M  V30 152 H 17.0044 -4.02333 -6.11157 0
M  V30 153 H 18.1874 -5.39466 -3.69543 0
M  V30 154 H 19.6714 -6.71916 -5.01943 0
M  V30 155 H 17.9774 -7.4649 -6.93477 0
M  V30 156 H 17.7874 -8.89416 -5.05237 0
M  V30 157 H 16.1574 -8.14876 -5.18409 0
M  V30 158 H 18.7964 -3.27957 -5.4317 0
M  V30 159 P 20.654 -5.75688 -6.64379 0
M  V30 160 O 22.076 -6.07627 -7.05504 0
M  V30 161 O 20.294 -5.88047 -5.19722 0
M  V30 162 O 20.331 -4.2322 -7.04443 0
M  V30 163 C 20.171 -3.99743 -8.4911 0
M  V30 164 C 20.711 -2.60516 -8.79425 0
M  V30 165 O 19.655 -1.82684 -8.4467 0
M  V30 166 C 21.929 -2.10343 -8.03628 0
M  V30 167 O 22.667 -1.09919 -8.67766 0
M  V30 168 C 21.26 -1.68446 -6.70876 0
M  V30 169 O 22.059 -0.678137 -6.08433 0
M  V30 170 C 19.923 -1.17436 -7.18567 0
M  V30 171 H 19.955 -0.0804732 -7.31656 0
M  V30 172 H 21.138 -2.54037 -6.02537 0
M  V30 173 H 22.622 -2.93881 -7.85526 0
M  V30 174 H 20.928 -2.53065 -9.86973 0
M  V30 175 H 20.738 -4.75072 -9.05887 0
M  V30 176 H 19.108 -4.05244 -8.76668 0
M  V30 177 H 21.747 0.177647 -6.34251 0
M  V30 178 P 23.6046 -1.25109 -8.70152 0
M  V30 179 O 25.0266 -1.29772 -9.22214 0
M  V30 180 O 23.2446 -2.13714 -7.55141 0
M  V30 181 O 23.2816 0.248149 -8.21425 0
M  V30 182 C 23.1216 1.22779 -9.30434 0
M  V30 183 C 23.6616 2.56265 -8.80568 0
M  V30 184 O 22.6066 3.02979 -8.09349 0
M  V30 185 C 24.8796 2.57523 -7.89775 0
M  V30 186 O 25.6176 3.7668 -7.89438 0
M  V30 187 C 24.2116 2.20997 -6.55446 0
M  V30 188 O 25.0096 2.71851 -5.48419 0
M  V30 189 C 22.8736 2.89693 -6.67988 0
M  V30 190 N 21.8306 2.08895 -6.07487 0
M  V30 191 C 21.8926 0.760559 -6.14209 0
M  V30 192 N 20.8476 0.200108 -5.52538 0
M  V30 193 C 20.1136 1.22692 -5.09742 0
M  V30 194 C 18.8076 1.24782 -4.48775 0
M  V30 195 O 18.0746 0.290617 -4.19294 0
M  V30 196 N 18.3776 2.50468 -4.22428 0
M  V30 197 C 19.1266 3.67142 -4.51974 0
M  V30 198 N 18.5296 4.85096 -4.14091 0
M  V30 199 N 20.2796 3.67821 -5.12831 0
M  V30 200 C 20.7366 2.43698 -5.4105 0
M  V30 201 H 22.9056 3.88793 -6.19859 0
M  V30 202 H 24.0886 1.12029 -6.4413 0
M  V30 203 H 25.5736 1.78279 -8.19533 0
M  V30 204 H 23.8786 3.20706 -9.67112 0
M  V30 205 H 23.6886 0.901032 -10.1892 0
M  V30 206 H 22.0576 1.33049 -9.56592 0
M  V30 207 H 17.4816 2.61953 -3.79465 0
M  V30 208 H 22.6886 0.200439 -6.63497 0
M  V30 209 H 17.6186 4.8334 -3.66367 0
M  V30 210 H 18.9946 5.7474 -4.33841 0
M  V30 211 H 24.6986 3.5779 -5.23879 0
M  V30 212 P 26.5551 3.65191 -7.99657 0
M  V30 213 O 27.9761 3.89374 -8.45885 0
M  V30 214 O 26.1951 2.28472 -7.50807 0
M  V30 215 O 26.2321 4.64972 -6.77611 0
M  V30 216 C 26.0711 6.06383 -7.16428 0
M  V30 217 C 26.6121 6.91731 -6.02299 0
M  V30 218 O 25.5571 6.92369 -5.17005 0
M  V30 219 C 27.8301 6.43627 -5.25174 0
M  V30 220 O 28.5681 7.43686 -4.60469 0
M  V30 221 C 27.1621 5.40275 -4.31916 0
M  V30 222 O 27.9601 5.24878 -3.14911 0
M  V30 223 C 25.8241 6.04847 -4.05327 0
M  V30 224 N 24.7811 5.04166 -3.98114 0
M  V30 225 C 24.9501 3.84629 -4.59066 0
M  V30 226 N 23.9231 3.0363 -4.45343 0
M  V30 227 C 23.0381 3.76722 -3.68523 0
M  V30 228 C 21.7711 3.43528 -3.17088 0
M  V30 229 N 21.1721 2.23665 -3.37397 0
M  V30 230 N 21.2061 4.44526 -2.44231 0
M  V30 231 C 21.8081 5.65243 -2.20146 0
M  V30 232 N 22.9851 6.00221 -2.65453 0
M  V30 233 C 23.5601 5.00564 -3.39083 0
M  V30 234 H 25.8561 6.62104 -3.11218 0
M  V30 235 H 27.0391 4.42969 -4.80867 0
M  V30 236 H 28.5221 5.92458 -5.93643 0
M  V30 237 H 26.8281 7.93295 -6.39407 0
M  V30 238 H 26.6381 6.26671 -8.0846 0
M  V30 239 H 25.0081 6.29101 -7.32804 0
M  V30 240 H 21.2721 6.36894 -1.5883 0
M  V30 241 H 25.8501 3.58193 -5.14248 0
M  V30 242 H 20.2421 2.05145 -2.97047 0
M  V30 243 H 21.6461 1.51255 -3.92998 0
M  V30 244 H 27.6481 5.84223 -2.47279 0
M  V30 245 P 29.5057 7.39546 -4.75277 0
M  V30 246 O 30.9277 7.84798 -5.01039 0
M  V30 247 O 29.1457 5.9812 -5.08098 0
M  V30 248 O 29.1827 7.57503 -3.1866 0
M  V30 249 C 29.0227 8.97357 -2.74833 0
M  V30 250 C 29.5627 9.07548 -1.32709 0
M  V30 251 O 28.5067 8.62072 -0.606159 0
M  V30 252 C 30.7807 8.25383 -0.938334 0
M  V30 253 O 31.5187 8.74577 0.146954 0
M  V30 254 C 30.1117 6.8802 -0.712559 0
M  V30 255 O 30.9107 6.1189 0.194655 0
M  V30 256 C 28.7747 7.27966 -0.139777 0
M  V30 257 H 28.8067 7.25354 0.961601 0
M  V30 258 H 29.9897 6.32557 -1.65702 0
M  V30 259 H 31.4737 8.19355 -1.79097 0
M  V30 260 H 29.7797 10.1294 -1.10029 0
M  V30 261 H 29.5897 9.64276 -3.41316 0
M  V30 262 H 27.9597 9.25417 -2.76357 0
M  V30 263 H 30.5987 6.25267 1.07847 0
M  V30 264 P 32.4563 8.791 -9.96115e-15 0
M  V30 265 O 33.8783 9.31296 0.027939 0
M  V30 266 O 32.0963 7.77869 -1.04071 0
M  V30 267 O 32.1333 8.09533 1.41463 0
M  V30 268 C 31.9733 9.0349 2.53943 0
M  V30 269 C 32.5133 8.35135 3.78975 0
M  V30 270 O 31.4583 7.57992 4.15078 0
M  V30 271 C 33.7313 7.45087 3.67298 0
M  V30 272 O 34.4693 7.27796 4.85194 0
M  V30 273 C 33.0633 6.17323 3.12027 0
M  V30 274 O 33.8613 5.04149 3.47132 0
M  V30 275 C 31.7253 6.19961 3.81809 0
M  V30 276 N 30.6823 5.71575 2.93223 0
M  V30 277 C 30.7443 5.97133 1.62693 0
M  V30 278 N 29.6993 5.44066 0.984414 0
M  V30 279 C 28.9653 4.87093 1.93987 0
M  V30 280 C 27.6593 4.26449 1.8738 0
M  V30 281 O 26.9263 4.1089 0.884377 0
M  V30 282 N 27.2293 3.82483 3.08036 0
M  V30 283 C 27.9783 3.95124 4.27727 0
M  V30 284 N 27.3813 3.4084 5.39089 0
M  V30 285 N 29.1313 4.55264 4.3706 0
M  V30 286 C 29.5883 5.00861 3.18217 0
M  V30 287 H 31.7573 5.58218 4.73051 0
M  V30 288 H 32.9403 6.21631 2.02558 0
M  V30 289 H 34.4253 7.85819 2.93096 0
M  V30 290 H 32.7303 9.11627 4.55076 0
M  V30 291 H 32.5403 9.9573 2.34194 0
M  V30 292 H 30.9093 9.2792 2.67832 0
M  V30 293 H 26.3333 3.38323 3.1329 0
M  V30 294 H 31.5403 6.53891 1.14265 0
M  V30 295 H 26.4703 2.93852 5.30559 0
M  V30 296 H 27.8463 3.47631 6.30632 0
M  V30 297 H 33.5503 4.67628 4.28704 0
M  V30 298 P 35.4068 7.39546 4.75277 0
M  V30 299 O 36.8288 7.81777 5.05738 0
M  V30 300 O 35.0468 7.1065 3.32998 0
M  V30 301 O 35.0838 6.04542 5.56673 0
M  V30 302 C 34.9238 6.22772 7.02095 0
M  V30 303 C 35.4638 4.97725 7.70406 0
M  V30 304 O 34.4078 4.13256 7.58987 0
M  V30 305 C 36.6818 4.28231 7.11815 0
M  V30 306 O 37.4198 3.49945 8.01648 0
M  V30 307 C 36.0128 3.5063 5.96244 0
M  V30 308 O 36.8118 2.36482 5.64681 0
M  V30 309 C 34.6758 3.15122 6.56374 0
M  V30 310 H 34.7078 2.13853 6.99751 0
M  V30 311 H 35.8908 4.13501 5.06559 0
M  V30 312 H 37.3748 5.03285 6.70911 0
M  V30 313 H 35.6808 5.20877 8.75697 0
M  V30 314 H 35.4908 7.11046 7.35349 0
M  V30 315 H 33.8608 6.35815 7.26986 0
M  V30 316 H 36.4998 1.61644 6.13565 0
M  V30 317 P 38.3574 3.65191 7.99657 0
M  V30 318 O 39.7794 3.84333 8.48297 0
M  V30 319 O 37.9974 4.17805 6.64342 0
M  V30 320 O 38.0344 2.07613 7.95143 0
M  V30 321 C 37.8744 1.44328 9.27336 0
M  V30 322 C 38.4144 0.0220012 9.17097 0
M  V30 323 O 37.3594 -0.626867 8.61923 0
M  V30 324 C 39.6324 -0.24586 8.30336 0
M  V30 325 O 40.3704 -1.39011 8.63583 0
M  V30 326 C 38.9644 -0.273849 6.91158 0
M  V30 327 O 39.7624 -1.06331 6.02794 0
M  V30 328 C 37.6264 -0.897649 7.22545 0
M  V30 329 N 36.5834 -0.292839 6.41732 0
M  V30 330 C 36.6454 1.00068 6.10757 0
M  V30 331 N 35.6004 1.36468 5.35794 0
M  V30 332 C 34.8664 0.258894 5.2366 0
M  V30 333 C 33.5604 0.0670682 4.65752 0
M  V30 334 O 32.8274 0.902443 4.10497 0
M  V30 335 N 33.1304 -1.2131 4.75881 0
M  V30 336 C 33.8794 -2.24934 5.37101 0
M  V30 337 N 33.2824 -3.48783 5.33984 0
M  V30 338 N 35.0324 -2.0844 5.95684 0
M  V30 339 C 35.4894 -0.81395 5.87791 0
M  V30 340 H 37.6584 -1.9841 7.04286 0
M  V30 341 H 38.8414 0.739815 6.49601 0
M  V30 342 H 40.3264 0.598315 8.36563 0
M  V30 343 H 38.6314 -0.352479 10.1829 0
M  V30 344 H 38.4414 2.00611 10.0304 0
M  V30 345 H 36.8104 1.41843 9.55327 0
M  V30 346 H 32.2344 -1.44434 4.37895 0
M  V30 347 H 37.4414 1.67697 6.42268 0
M  V30 348 H 32.3714 -3.60543 4.87699 0
M  V30 349 H 33.7474 -4.29232 5.7819 0
M  V30 350 H 39.4514 -1.95704 6.0346 0
M  V30 351 P 41.308 -1.25109 8.70152 0
M  V30 352 O 42.73 -1.35303 9.21419 0
M  V30 353 O 40.948 -0.0769065 7.84762 0
M  V30 354 O 40.985 -2.55232 7.81161 0
M  V30 355 C 40.825 -3.79939 8.58154 0
M  V30 356 C 41.365 -4.93969 7.72701 0
M  V30 357 O 40.31 -5.18726 6.91205 0
M  V30 358 C 42.583 -4.69597 6.85231 0
M  V30 359 O 43.321 -5.83832 6.51337 0
M  V30 360 C 41.915 -3.96706 5.66633 0
M  V30 361 O 42.713 -4.15346 4.49615 0
M  V30 362 C 40.577 -4.66153 5.59313 0
M  V30 363 N 39.534 -3.71582 5.24027 0
M  V30 364 C 39.596 -2.46018 5.67902 0
M  V30 365 N 38.551 -1.74868 5.24518 0
M  V30 366 C 37.817 -2.61333 4.54528 0
M  V30 367 C 36.511 -2.46162 3.95441 0
M  V30 368 O 35.778 -1.46013 3.94122 0
M  V30 369 N 36.081 -3.59334 3.34752 0
M  V30 370 C 36.83 -4.79605 3.3023 0
M  V30 371 N 36.233 -5.82109 2.6065 0
M  V30 372 N 37.983 -4.97402 3.8843 0
M  V30 373 C 38.44 -3.86258 4.50476 0
M  V30 374 H 40.609 -5.47679 4.85214 0
M  V30 375 H 41.792 -2.88964 5.86476 0
M  V30 376 H 43.277 -4.01947 7.36109 0
M  V30 377 H 41.582 -5.80182 8.37584 0
M  V30 378 H 41.392 -3.73517 9.52265 0
M  V30 379 H 39.761 -3.97163 8.80359 0
M  V30 380 H 35.185 -3.5825 2.90294 0
M  V30 381 H 40.392 -2.06161 6.30974 0
M  V30 382 H 35.322 -5.66979 2.15354 0
M  V30 383 H 36.698 -6.73686 2.54344 0
M  V30 384 H 42.402 -4.90891 4.01857 0
M  V30 385 P 44.2585 -5.75688 6.64379 0
M  V30 386 O 45.6805 -6.11981 7.01997 0
M  V30 387 O 43.8985 -4.30744 6.56026 0
M  V30 388 O 43.9355 -6.37042 5.19165 0
M  V30 389 C 43.7755 -7.83578 5.16515 0
M  V30 390 C 44.3155 -8.33307 3.82977 0
M  V30 391 O 43.2605 -8.10074 3.01034 0
M  V30 392 C 45.5335 -7.65514 3.2257 0
M  V30 393 O 46.2715 -8.4329 2.32297 0
M  V30 394 C 44.8655 -6.40075 2.62207 0
M  V30 395 O 45.6635 -5.92492 1.53687 0
M  V30 396 C 43.5275 -6.9454 2.18503 0
M  V30 397 N 42.4845 -5.95905 2.39948 0
M  V30 398 C 42.5465 -5.13994 3.44742 0
M  V30 399 N 41.5015 -4.30684 3.46712 0
M  V30 400 C 40.7675 -4.65583 2.41086 0
M  V30 401 C 39.4615 -4.20877 1.99581 0
M  V30 402 O 38.7285 -3.35913 2.52616 0
M  V30 403 N 39.0315 -4.83271 0.873406 0
M  V30 404 C 39.7805 -5.82006 0.185129 0
M  V30 405 N 39.1835 -6.30619 -0.95439 0
M  V30 406 N 40.9335 -6.28443 0.578524 0
M  V30 407 C 41.3905 -5.68486 1.70138 0
M  V30 408 H 43.5595 -7.23063 1.12091 0
M  V30 409 H 44.7425 -5.60165 3.3715 0
M  V30 410 H 46.2275 -7.3611 4.01946 0
M  V30 411 H 44.5325 -9.40912 3.9095 0
M  V30 412 H 44.3425 -8.29056 5.99158 0
M  V30 413 H 42.7115 -8.10073 5.25882 0
M  V30 414 H 38.1355 -4.58323 0.505262 0
M  V30 415 H 43.3425 -5.14564 4.1935 0
M  V30 416 H 38.2725 -5.93402 -1.25364 0
M  V30 417 H 39.6485 -7.0425 -1.50254 0
M  V30 418 H 45.3525 -6.30224 0.72668 0
M  V30 419 P 47.2091 -8.4349 2.47671 0
M  V30 420 O 48.6311 -8.94167 2.5964 0
M  V30 421 O 46.8491 -7.1704 3.19006 0
M  V30 422 O 46.8861 -8.16596 0.923387 0
M  V30 423 C 46.7261 -9.38437 0.108857 0
M  V30 424 C 47.2661 -9.08175 -1.28353 0
M  V30 425 O 46.2101 -8.44229 -1.84713 0
M  V30 426 C 48.4841 -8.18386 -1.42505 0
M  V30 427 O 49.2221 -8.3501 -2.60497 0
M  V30 428 C 47.8151 -6.80225 -1.25468 0
M  V30 429 O 48.6141 -5.81621 -1.91066 0
M  V30 430 C 46.4781 -7.02416 -1.9168 0
M  V30 431 H 46.5101 -6.6888 -2.96621 0
M  V30 432 H 47.6931 -6.53617 -0.192223 0
M  V30 433 H 49.1771 -8.36622 -0.589963 0
M  V30 434 H 47.4831 -10.0291 -1.79807 0
M  V30 435 H 47.2931 -10.2138 0.558219 0
M  V30 436 H 45.6631 -9.6579 0.0444202 0
M  V30 437 H 48.3021 -5.69556 -2.79637 0
M  V30 438 P 50.1597 -8.4349 -2.47671 0
M  V30 439 O 51.5817 -8.92593 -2.65 0
M  V30 440 O 49.7997 -7.7568 -1.19296 0
M  V30 441 O 49.8367 -7.36886 -3.63805 0
M  V30 442 C 49.6767 -7.95349 -4.982 0
M  V30 443 C 50.2167 -6.94612 -5.98974 0
M  V30 444 O 49.1607 -6.10347 -6.11815 0
M  V30 445 C 51.4347 -6.11426 -5.62335 0
M  V30 446 O 52.1727 -5.6162 -6.70584 0
M  V30 447 C 50.7657 -5.04409 -4.73308 0
M  V30 448 O 51.5647 -3.85992 -4.75183 0
M  V30 449 C 49.4287 -4.8728 -5.41006 0
M  V30 450 H 49.4607 -4.02333 -6.11157 0
M  V30 451 H 50.6437 -5.39466 -3.69543 0
M  V30 452 H 52.1277 -6.71916 -5.01943 0
M  V30 453 H 50.4337 -7.4649 -6.93477 0
M  V30 454 H 50.2437 -8.89416 -5.05237 0
M  V30 455 H 48.6137 -8.14876 -5.18409 0
M  V30 456 H 51.2527 -3.27957 -5.4317 0
M  V30 457 P 53.1103 -5.75688 -6.64379 0
M  V30 458 O 54.5323 -6.07627 -7.05504 0
M  V30 459 O 52.7503 -5.88047 -5.19722 0
M  V30 460 O 52.7873 -4.2322 -7.04443 0
M  V30 461 C 52.6273 -3.99743 -8.4911 0
M  V30 462 C 53.1673 -2.60516 -8.79425 0
M  V30 463 O 52.1113 -1.82684 -8.4467 0
M  V30 464 C 54.3853 -2.10343 -8.03628 0
M  V30 465 O 55.1233 -1.09919 -8.67766 0
M  V30 466 C 53.7163 -1.68446 -6.70876 0
M  V30 467 O 54.5153 -0.678137 -6.08433 0
M  V30 468 C 52.3793 -1.17436 -7.18567 0
M  V30 469 H 52.4113 -0.0804732 -7.31656 0
M  V30 470 H 53.5943 -2.54037 -6.02537 0
M  V30 471 H 55.0783 -2.93881 -7.85526 0
M  V30 472 H 53.3843 -2.53065 -9.86973 0
M  V30 473 H 53.1943 -4.75072 -9.05887 0
M  V30 474 H 51.5643 -4.05244 -8.76668 0
M  V30 475 H 54.2033 0.177647 -6.34251 0
M  V30 476 P 56.0608 -1.25109 -8.70152 0
M  V30 477 O 57.4818 -1.29758 -9.22115 0
M  V30 478 O 55.7008 -2.13714 -7.55141 0
M  V30 479 O 55.7378 0.248149 -8.21425 0
M  V30 480 C 55.5768 1.22792 -9.30533 0
M  V30 481 C 56.1178 2.56293 -8.80664 0
M  V30 482 O 55.0628 3.02944 -8.09255 0
M  V30 483 C 57.3358 2.57523 -7.89775 0
M  V30 484 O 58.0738 3.7668 -7.89438 0
M  V30 485 C 56.6678 2.20997 -6.55446 0
M  V30 486 O 57.4658 2.71302 -5.48691 0
M  V30 487 C 55.3298 2.89693 -6.67988 0
M  V30 488 N 54.2868 2.08895 -6.07487 0
M  V30 489 C 54.4558 0.753809 -5.94137 0
M  V30 490 N 53.4288 0.146592 -5.38801 0
M  V30 491 C 52.5438 1.1768 -5.13693 0
M  V30 492 C 51.2768 1.17563 -4.52477 0
M  V30 493 N 50.7118 2.41918 -4.45789 0
M  V30 494 C 51.3138 3.56493 -4.90792 0
M  V30 495 N 52.4908 3.61423 -5.47817 0
M  V30 496 C 53.0658 2.37779 -5.5588 0
M  V30 497 H 56.5448 1.12673 -6.44018 0
M  V30 498 H 58.0278 1.7746 -8.19711 0
M  V30 499 H 56.3338 3.21673 -9.66791 0
M  V30 500 H 56.1438 0.901032 -10.1892 0
M  V30 501 H 54.5138 1.33049 -9.56592 0
M  V30 502 H 55.3558 0.233081 -6.26266 0
M  V30 503 H 57.1538 3.5779 -5.23879 0
M  V30 504 P 59.0114 3.65191 -7.99657 0
M  V30 505 O 60.4334 3.89332 -8.45794 0
M  V30 506 O 58.6514 2.28472 -7.50807 0
M  V30 507 O 58.6884 4.64972 -6.77611 0
M  V30 508 C 58.5284 6.06319 -7.16352 0
M  V30 509 C 59.0684 6.91731 -6.02299 0
M  V30 510 O 58.0124 6.92449 -5.17064 0
M  V30 511 C 60.2864 6.43627 -5.25174 0
M  V30 512 O 61.0244 7.43686 -4.60469 0
M  V30 513 C 59.6174 5.40275 -4.31916 0
M  V30 514 O 60.4164 5.25279 -3.14438 0
M  V30 515 C 58.2804 6.04847 -4.05327 0
M  V30 516 H 58.3124 6.62195 -3.11261 0
M  V30 517 H 59.4954 4.42556 -4.81383 0
M  V30 518 H 60.9794 5.92458 -5.93643 0
M  V30 519 H 59.2854 7.92655 -6.402 0
M  V30 520 H 59.0954 6.26671 -8.0846 0
M  V30 521 H 57.4654 6.29101 -7.32804 0
M  V30 522 H 60.1044 5.84315 -2.47318 0
M  V30 523 P 61.962 7.39546 -4.75277 0
M  V30 524 O 63.383 7.84882 -5.01092 0
M  V30 525 O 61.602 5.9812 -5.08098 0
M  V30 526 O 61.639 7.57503 -3.1866 0
M  V30 527 C 61.478 8.97452 -2.74862 0
M  V30 528 C 62.019 9.07548 -1.32709 0
M  V30 529 O 60.964 8.61972 -0.606089 0
M  V30 530 C 63.237 8.25383 -0.938334 0
M  V30 531 O 63.975 8.74577 0.146954 0
M  V30 532 C 62.569 6.8802 -0.712559 0
M  V30 533 O 63.367 6.1181 0.188505 0
M  V30 534 C 61.231 7.27966 -0.139777 0
M  V30 535 N 60.188 6.39368 -0.623421 0
M  V30 536 C 60.357 5.71761 -1.78245 0
M  V30 537 N 59.33 4.962 -2.10491 0
M  V30 538 C 58.445 5.16158 -1.0635 0
M  V30 539 C 57.178 4.60425 -0.810266 0
M  V30 540 N 56.579 3.7057 -1.62914 0
M  V30 541 N 56.613 5.06 0.348685 0
M  V30 542 C 57.215 5.94532 1.20395 0
M  V30 543 N 58.392 6.48452 1.01191 0
M  V30 544 C 58.967 6.04423 -0.146291 0
M  V30 545 H 61.263 7.25255 0.961469 0
M  V30 546 H 62.446 6.32625 -1.65044 0
M  V30 547 H 63.929 8.19355 -1.79097 0
M  V30 548 H 62.235 10.1305 -1.09016 0
M  V30 549 H 62.045 9.64276 -3.41316 0
M  V30 550 H 60.415 9.25417 -2.76357 0
M  V30 551 H 56.679 6.21659 2.10714 0
M  V30 552 H 61.257 5.79354 -2.38959 0
M  V30 553 H 55.649 3.33174 -1.38982 0
M  V30 554 H 57.053 3.39714 -2.48836 0
M  V30 555 H 63.055 6.25169 1.0783 0
M  V30 556 P 64.9125 8.791 -3.55383e-14 0
M  V30 557 O 66.3345 9.31096 0.027933 0
M  V30 558 O 64.5525 7.77869 -1.04071 0
M  V30 559 O 64.5895 8.09533 1.41463 0
M  V30 560 C 64.4295 9.0349 2.53943 0
M  V30 561 C 64.9695 8.35226 3.79016 0
M  V30 562 O 63.9135 7.57992 4.15078 0
M  V30 563 C 66.1875 7.45087 3.67298 0
M  V30 564 O 66.9255 7.27796 4.85194 0
M  V30 565 C 65.5185 6.17323 3.12027 0
M  V30 566 O 66.3175 5.04231 3.47188 0
M  V30 567 C 64.1815 6.19961 3.81809 0
M  V30 568 H 64.2135 5.58218 4.73051 0
M  V30 569 H 65.3965 6.21726 2.02589 0
M  V30 570 H 66.8805 7.86112 2.9231 0
M  V30 571 H 65.1865 9.11627 4.55076 0
M  V30 572 H 64.9965 9.9573 2.34194 0
M  V30 573 H 63.3665 9.2792 2.67832 0
M  V30 574 H 66.0055 4.67702 4.28772 0
M  V30 575 P 67.8631 7.39546 4.75277 0
M  V30 576 O 69.2851 7.81777 5.05738 0
M  V30 577 O 67.5031 7.1065 3.32998 0
M  V30 578 O 67.5401 6.04542 5.56673 0
M  V30 579 C 67.3801 6.22772 7.02095 0
M  V30 580 C 67.9201 4.97725 7.70406 0
M  V30 581 O 66.8641 4.13256 7.58987 0
M  V30 582 C 69.1381 4.28231 7.11815 0
M  V30 583 O 69.8761 3.49945 8.01648 0
M  V30 584 C 68.4691 3.5063 5.96244 0
M  V30 585 O 69.2681 2.36482 5.64681 0
M  V30 586 C 67.1321 3.15122 6.56374 0
M  V30 587 H 67.1641 2.13853 6.99751 0
M  V30 588 H 68.3471 4.13501 5.06559 0
M  V30 589 H 69.8311 5.03285 6.70911 0
M  V30 590 H 68.1371 5.20877 8.75697 0
M  V30 591 H 67.9471 7.11046 7.35349 0
M  V30 592 H 66.3171 6.35815 7.26986 0
M  V30 593 H 68.9561 1.61644 6.13565 0
M  V30 594 P 70.8137 3.65191 7.99657 0
M  V30 595 O 72.2357 3.8425 8.48115 0
M  V30 596 O 70.4537 4.17805 6.64342 0
M  V30 597 O 70.4907 2.07613 7.95143 0
M  V30 598 C 70.3307 1.44328 9.27336 0
M  V30 599 C 70.8707 0.0220036 9.17197 0
M  V30 600 O 69.8147 -0.626867 8.61923 0
M  V30 601 C 72.0887 -0.24586 8.30336 0
M  V30 602 O 72.8267 -1.39011 8.63583 0
M  V30 603 C 71.4197 -0.273849 6.91158 0
M  V30 604 O 72.2187 -1.06348 6.02892 0
M  V30 605 C 70.0827 -0.897649 7.22545 0
M  V30 606 H 70.1147 -1.9841 7.04286 0
M  V30 607 H 71.2977 0.739928 6.497 0
M  V30 608 H 72.7817 0.60668 8.36503 0
M  V30 609 H 71.0877 -0.352479 10.1829 0
M  V30 610 H 70.8977 2.00611 10.0304 0
M  V30 611 H 69.2677 1.41843 9.55327 0
M  V30 612 H 71.9067 -1.95734 6.03555 0
M  V30 613 P 73.7642 -1.25109 8.70152 0
M  V30 614 O 75.1862 -1.35274 9.21221 0
M  V30 615 O 73.4042 -0.0769065 7.84762 0
M  V30 616 O 73.4412 -2.55232 7.81161 0
M  V30 617 C 73.2812 -3.79939 8.58154 0
M  V30 618 C 73.8212 -4.94023 7.72785 0
M  V30 619 O 72.7652 -5.18726 6.91205 0
M  V30 620 C 75.0392 -4.69597 6.85231 0
M  V30 621 O 75.7772 -5.83832 6.51337 0
M  V30 622 C 74.3702 -3.96706 5.66633 0
M  V30 623 O 75.1692 -4.15414 4.49689 0
M  V30 624 C 73.0332 -4.66153 5.59313 0
M  V30 625 H 73.0652 -5.47679 4.85214 0
M  V30 626 H 74.2482 -2.89008 5.86566 0
M  V30 627 H 75.7322 -4.0121 7.36511 0
M  V30 628 H 74.0382 -5.80182 8.37584 0
M  V30 629 H 73.8482 -3.73517 9.52265 0
M  V30 630 H 72.2182 -3.97163 8.80359 0
M  V30 631 H 74.8572 -4.90969 4.01921 0
M  V30 632 P 76.7148 -5.75688 6.64379 0
M  V30 633 O 78.1368 -6.11849 7.01846 0
M  V30 634 O 76.3548 -4.30744 6.56026 0
M  V30 635 O 76.3918 -6.37042 5.19165 0
M  V30 636 C 76.2318 -7.83578 5.16515 0
M  V30 637 C 76.7718 -8.33398 3.83019 0
M  V30 638 O 75.7158 -8.10074 3.01034 0
M  V30 639 C 77.9898 -7.65514 3.2257 0
M  V30 640 O 78.7278 -8.4329 2.32297 0
M  V30 641 C 77.3208 -6.40075 2.62207 0
M  V30 642 O 78.1198 -5.92589 1.53712 0
M  V30 643 C 75.9838 -6.9454 2.18503 0
M  V30 644 H 76.0158 -7.23063 1.12091 0
M  V30 645 H 77.1988 -5.6025 3.37201 0
M  V30 646 H 78.6828 -7.35707 4.02681 0
M  V30 647 H 76.9888 -9.40912 3.9095 0
M  V30 648 H 76.7988 -8.29056 5.99158 0
M  V30 649 H 75.1688 -8.10073 5.25882 0
M  V30 650 H 77.8078 -6.30324 0.726794 0
M  V30 651 P 79.6654 -8.4349 2.47671 0
M  V30 652 O 81.0874 -8.94167 2.5964 0
M  V30 653 O 79.3054 -7.1704 3.19006 0
M  V30 654 O 79.3424 -8.16596 0.923387 0
M  V30 655 C 79.1824 -9.38437 0.108857 0
M  V30 656 C 79.7224 -9.08175 -1.28353 0
M  V30 657 O 78.6664 -8.44229 -1.84713 0
M  V30 658 C 80.9404 -8.18386 -1.42505 0
M  V30 659 O 81.6784 -8.3501 -2.60497 0
M  V30 660 C 80.2714 -6.80225 -1.25468 0
M  V30 661 O 81.0704 -5.81621 -1.91066 0
M  V30 662 C 78.9344 -7.02416 -1.9168 0
M  V30 663 H 78.9664 -6.6888 -2.96621 0
M  V30 664 H 80.1494 -6.53617 -0.192223 0
M  V30 665 H 81.6334 -8.36622 -0.589963 0
M  V30 666 H 79.9394 -10.0291 -1.79807 0
M  V30 667 H 79.7494 -10.2138 0.558219 0
M  V30 668 H 78.1194 -9.6579 0.0444202 0
M  V30 669 H 80.7584 -5.69556 -2.79637 0
M  V30 670 P 82.616 -8.4349 -2.47671 0
M  V30 671 O 84.038 -8.92593 -2.65 0
M  V30 672 O 82.256 -7.7568 -1.19296 0
M  V30 673 O 82.293 -7.36886 -3.63805 0
M  V30 674 C 82.133 -7.95349 -4.982 0
M  V30 675 C 82.673 -6.94612 -5.98974 0
M  V30 676 O 81.617 -6.10347 -6.11815 0
M  V30 677 C 83.891 -6.11426 -5.62335 0
M  V30 678 O 84.629 -5.6162 -6.70584 0
M  V30 679 C 83.222 -5.04409 -4.73308 0
M  V30 680 O 84.021 -3.85992 -4.75183 0
M  V30 681 C 81.885 -4.8728 -5.41006 0
M  V30 682 H 81.917 -4.02333 -6.11157 0
M  V30 683 H 83.1 -5.39466 -3.69543 0
M  V30 684 H 84.584 -6.71916 -5.01943 0
M  V30 685 H 82.89 -7.4649 -6.93477 0
M  V30 686 H 82.7 -8.89416 -5.05237 0
M  V30 687 H 81.07 -8.14876 -5.18409 0
M  V30 688 H 83.709 -3.27957 -5.4317 0
M  V30 689 P 85.5665 -5.75688 -6.64379 0
M  V30 690 O 86.9885 -6.07758 -7.05656 0
M  V30 691 O 85.2065 -5.88047 -5.19722 0
M  V30 692 O 85.2435 -4.2322 -7.04443 0
M  V30 693 C 85.0835 -3.99743 -8.4911 0
M  V30 694 C 85.6235 -2.60487 -8.79329 0
M  V30 695 O 84.5685 -1.82684 -8.4467 0
M  V30 696 C 86.8415 -2.10343 -8.03628 0
M  V30 697 O 87.5795 -1.09919 -8.67766 0
M  V30 698 C 86.1735 -1.68446 -6.70876 0
M  V30 699 O 86.9715 -0.678026 -6.08333 0
M  V30 700 C 84.8355 -1.17436 -7.18567 0
M  V30 701 N 83.7925 -1.52699 -6.23988 0
M  V30 702 C 83.8545 -2.68084 -5.57824 0
M  V30 703 N 82.8095 -2.8189 -4.75643 0
M  V30 704 C 82.0755 -1.72373 -4.95155 0
M  V30 705 C 80.7695 -1.37653 -4.44996 0
M  V30 706 O 80.0365 -2.02239 -3.68445 0
M  V30 707 N 80.3395 -0.17675 -4.90782 0
M  V30 708 C 81.0885 0.645036 -5.78716 0
M  V30 709 N 80.4915 1.84214 -6.10618 0
M  V30 710 N 82.2415 0.321732 -6.30279 0
M  V30 711 C 82.6985 -0.87502 -5.86913 0
M  V30 712 H 84.8675 -0.0804732 -7.31656 0
M  V30 713 H 86.0505 -2.53998 -6.02444 0
M  V30 714 H 87.5355 -2.93095 -7.8582 0
M  V30 715 H 85.8405 -2.53065 -9.86973 0
M  V30 716 H 85.6505 -4.75072 -9.05887 0
M  V30 717 H 84.0195 -4.05244 -8.76668 0
M  V30 718 H 79.4435 0.152143 -4.60849 0
M  V30 719 H 84.6505 -3.41852 -5.69006 0
M  V30 720 H 79.5805 2.08538 -5.69521 0
M  V30 721 H 80.9565 2.4895 -6.75698 0
M  V30 722 H 86.6605 0.177619 -6.34151 0
M  V30 723 P 88.5171 -1.25109 -8.70152 0
M  V30 724 O 89.9391 -1.29744 -9.22016 0
M  V30 725 O 88.1571 -2.13714 -7.55141 0
M  V30 726 O 88.1941 0.248149 -8.21425 0
M  V30 727 C 88.0341 1.22779 -9.30434 0
M  V30 728 C 88.5741 2.56293 -8.80664 0
M  V30 729 O 87.5181 3.02979 -8.09349 0
M  V30 730 C 89.7921 2.57523 -7.89775 0
M  V30 731 O 90.5301 3.7668 -7.89438 0
M  V30 732 C 89.1231 2.20997 -6.55446 0
M  V30 733 O 89.9221 2.71895 -5.48509 0
M  V30 734 C 87.7861 2.89693 -6.67988 0
M  V30 735 H 87.8181 3.88793 -6.19859 0
M  V30 736 H 89.0011 1.12046 -6.44229 0
M  V30 737 H 90.4851 1.7746 -8.19711 0
M  V30 738 H 88.7911 3.20706 -9.67112 0
M  V30 739 H 88.6011 0.901032 -10.1892 0
M  V30 740 H 86.9711 1.33049 -9.56592 0
M  V30 741 H 89.6101 3.57847 -5.23962 0
M  V30 742 P 91.4677 3.65191 -7.99657 0
M  V30 743 O 92.8897 3.89332 -8.45794 0
M  V30 744 O 91.1077 2.28472 -7.50807 0
M  V30 745 O 91.1447 4.64972 -6.77611 0
M  V30 746 C 90.9847 6.06319 -7.16352 0
M  V30 747 C 91.5247 6.91731 -6.02299 0
M  V30 748 O 90.4687 6.92449 -5.17064 0
M  V30 749 C 92.7427 6.43627 -5.25174 0
M  V30 750 O 93.4807 7.43686 -4.60469 0
M  V30 751 C 92.0737 5.40275 -4.31916 0
M  V30 752 O 92.8727 5.25279 -3.14438 0
M  V30 753 C 90.7367 6.04847 -4.05327 0
M  V30 754 H 90.7687 6.62195 -3.11261 0
M  V30 755 H 91.9517 4.42556 -4.81383 0
M  V30 756 H 93.4357 5.92458 -5.93643 0
M  V30 757 H 91.7417 7.92655 -6.402 0
M  V30 758 H 91.5517 6.26671 -8.0846 0
M  V30 759 H 89.9217 6.29101 -7.32804 0
M  V30 760 H 92.5607 5.84315 -2.47318 0
M  V30 761 P 94.4182 7.39546 -4.75277 0
M  V30 762 O 95.8402 7.84798 -5.01039 0
M  V30 763 O 94.0582 5.9812 -5.08098 0
M  V30 764 O 94.0952 7.57503 -3.1866 0
M  V30 765 C 93.9352 8.97357 -2.74833 0
M  V30 766 C 94.4752 9.07548 -1.32709 0
M  V30 767 O 93.4192 8.62072 -0.606159 0
M  V30 768 C 95.6932 8.25383 -0.938334 0
M  V30 769 O 96.4312 8.74577 0.146954 0
M  V30 770 C 95.0242 6.8802 -0.712559 0
M  V30 771 O 95.8232 6.1189 0.194655 0
M  V30 772 C 93.6872 7.27966 -0.139777 0
M  V30 773 H 93.7192 7.25354 0.961601 0
M  V30 774 H 94.9022 6.32557 -1.65702 0
M  V30 775 H 96.3862 8.19355 -1.79097 0
M  V30 776 H 94.6922 10.1294 -1.10029 0
M  V30 777 H 94.5022 9.64276 -3.41316 0
M  V30 778 H 92.8722 9.25417 -2.76357 0
M  V30 779 H 95.5112 6.25267 1.07847 0
M  V30 780 P 97.3688 8.791 -6.89233e-14 0
M  V30 781 O 98.7908 9.31096 0.027933 0
M  V30 782 O 97.0088 7.77869 -1.04071 0
M  V30 783 O 97.0458 8.09533 1.41463 0
M  V30 784 C 96.8858 9.0349 2.53943 0
M  V30 785 C 97.4258 8.35226 3.79016 0
M  V30 786 O 96.3698 7.57992 4.15078 0
M  V30 787 C 98.6438 7.45087 3.67298 0
M  V30 788 O 99.3818 7.27796 4.85194 0
M  V30 789 C 97.9748 6.17323 3.12027 0
M  V30 790 O 98.7738 5.04231 3.47188 0
M  V30 791 C 96.6378 6.19961 3.81809 0
M  V30 792 H 96.6698 5.58218 4.73051 0
M  V30 793 H 97.8528 6.21726 2.02589 0
M  V30 794 H 99.3368 7.86112 2.9231 0
M  V30 795 H 97.6428 9.11627 4.55076 0
M  V30 796 H 97.4528 9.9573 2.34194 0
M  V30 797 H 95.8228 9.2792 2.67832 0
M  V30 798 H 98.4618 4.67702 4.28772 0
M  V30 799 P 100.319 7.39546 4.75277 0
M  V30 800 O 101.741 7.81777 5.05738 0
M  V30 801 O 99.9594 7.1065 3.32998 0
M  V30 802 O 99.9964 6.04542 5.56673 0
M  V30 803 C 99.8364 6.22772 7.02095 0
M  V30 804 C 100.376 4.97725 7.70406 0
M  V30 805 O 99.3204 4.13256 7.58987 0
M  V30 806 C 101.594 4.28231 7.11815 0
M  V30 807 O 102.332 3.49945 8.01648 0
M  V30 808 C 100.925 3.5063 5.96244 0
M  V30 809 O 101.724 2.36482 5.64681 0
M  V30 810 C 99.5884 3.15122 6.56374 0
M  V30 811 H 99.6204 2.13853 6.99751 0
M  V30 812 H 100.803 4.13501 5.06559 0
M  V30 813 H 102.287 5.03285 6.70911 0
M  V30 814 H 100.593 5.20877 8.75697 0
M  V30 815 H 100.403 7.11046 7.35349 0
M  V30 816 H 98.7734 6.35815 7.26986 0
M  V30 817 H 101.412 1.61644 6.13565 0
M  V30 818 P 103.27 3.65191 7.99657 0
M  V30 819 O 104.692 3.8425 8.48115 0
M  V30 820 O 102.91 4.17805 6.64342 0
M  V30 821 O 102.947 2.07613 7.95143 0
M  V30 822 C 102.787 1.44328 9.27336 0
M  V30 823 C 103.327 0.0220036 9.17197 0
M  V30 824 O 102.271 -0.626867 8.61923 0
M  V30 825 C 104.545 -0.24586 8.30336 0
M  V30 826 O 105.283 -1.39011 8.63583 0
M  V30 827 C 103.876 -0.273849 6.91158 0
M  V30 828 O 104.675 -1.06348 6.02892 0
M  V30 829 C 102.539 -0.897649 7.22545 0
M  V30 830 H 102.571 -1.9841 7.04286 0
M  V30 831 H 103.754 0.739928 6.497 0
M  V30 832 H 105.238 0.60668 8.36503 0
M  V30 833 H 103.544 -0.352479 10.1829 0
M  V30 834 H 103.354 2.00611 10.0304 0
M  V30 835 H 101.724 1.41843 9.55327 0
M  V30 836 H 104.363 -1.95734 6.03555 0
M  V30 837 P 106.221 -1.25109 8.70152 0
M  V30 838 O 107.643 -1.35274 9.21221 0
M  V30 839 O 105.861 -0.0769065 7.84762 0
M  V30 840 O 105.898 -2.55232 7.81161 0
M  V30 841 C 105.738 -3.79939 8.58154 0
M  V30 842 C 106.278 -4.94023 7.72785 0
M  V30 843 O 105.222 -5.18726 6.91205 0
M  V30 844 C 107.496 -4.69597 6.85231 0
M  V30 845 O 108.234 -5.83832 6.51337 0
M  V30 846 C 106.827 -3.96706 5.66633 0
M  V30 847 O 107.626 -4.15414 4.49689 0
M  V30 848 C 105.49 -4.66153 5.59313 0
M  V30 849 H 105.522 -5.47679 4.85214 0
M  V30 850 H 106.705 -2.89008 5.86566 0
M  V30 851 H 108.189 -4.0121 7.36511 0
M  V30 852 H 106.495 -5.80182 8.37584 0
M  V30 853 H 106.305 -3.73517 9.52265 0
M  V30 854 H 104.675 -3.97163 8.80359 0
M  V30 855 H 107.314 -4.90969 4.01921 0
M  V30 856 P 109.171 -5.75688 6.64379 0
M  V30 857 O 110.593 -6.11849 7.01846 0
M  V30 858 O 108.811 -4.30744 6.56026 0
M  V30 859 O 108.848 -6.37042 5.19165 0
M  V30 860 C 108.688 -7.83578 5.16515 0
M  V30 861 C 109.228 -8.33398 3.83019 0
M  V30 862 O 108.172 -8.10074 3.01034 0
M  V30 863 C 110.446 -7.65514 3.2257 0
M  V30 864 O 111.184 -8.4329 2.32297 0
M  V30 865 C 109.777 -6.40075 2.62207 0
M  V30 866 O 110.576 -5.92589 1.53712 0
M  V30 867 C 108.44 -6.9454 2.18503 0
M  V30 868 H 108.472 -7.23063 1.12091 0
M  V30 869 H 109.655 -5.6025 3.37201 0
M  V30 870 H 111.139 -7.35707 4.02681 0
M  V30 871 H 109.445 -9.40912 3.9095 0
M  V30 872 H 109.255 -8.29056 5.99158 0
M  V30 873 H 107.625 -8.10073 5.25882 0
M  V30 874 H 110.264 -6.30324 0.726794 0
M  V30 875 P 112.122 -8.4349 2.47671 0
M  V30 876 O 113.543 -8.94263 2.59668 0
M  V30 877 O 111.762 -7.1704 3.19006 0
M  V30 878 O 111.799 -8.16596 0.923387 0
M  V30 879 C 111.638 -9.38537 0.108869 0
M  V30 880 C 112.179 -9.08175 -1.28353 0
M  V30 881 O 111.124 -8.44131 -1.84692 0
M  V30 882 C 113.397 -8.18386 -1.42505 0
M  V30 883 O 114.135 -8.3501 -2.60497 0
M  V30 884 C 112.729 -6.80225 -1.25468 0
M  V30 885 O 113.527 -5.81716 -1.90454 0
M  V30 886 C 111.391 -7.02416 -1.9168 0
M  V30 887 N 110.348 -6.31033 -1.20314 0
M  V30 888 C 110.517 -5.98817 0.0994088 0
M  V30 889 N 109.49 -5.35403 0.621694 0
M  V30 890 C 108.605 -5.25212 -0.43376 0
M  V30 891 C 107.338 -4.64602 -0.519722 0
M  V30 892 N 106.773 -4.7568 -1.76013 0
M  V30 893 C 107.375 -5.3653 -2.83017 0
M  V30 894 N 108.552 -5.93676 -2.79782 0
M  V30 895 C 109.127 -5.84061 -1.56249 0
M  V30 896 H 112.606 -6.53498 -0.198729 0
M  V30 897 H 114.089 -8.36622 -0.589963 0
M  V30 898 H 112.395 -10.0273 -1.8081 0
M  V30 899 H 112.205 -10.2138 0.558219 0
M  V30 900 H 110.575 -9.6579 0.0444202 0
M  V30 901 H 111.417 -6.23209 0.660562 0
M  V30 902 H 113.215 -5.69466 -2.79593 0
M  V30 903 P 115.072 -8.4349 -2.47671 0
M  V30 904 O 116.493 -8.92689 -2.65029 0
M  V30 905 O 114.712 -7.7568 -1.19296 0
M  V30 906 O 114.749 -7.36886 -3.63805 0
M  V30 907 C 114.588 -7.95433 -4.98253 0
M  V30 908 C 115.129 -6.94612 -5.98974 0
M  V30 909 O 114.074 -6.10277 -6.11744 0
M  V30 910 C 116.347 -6.11426 -5.62335 0
M  V30 911 O 117.085 -5.6162 -6.70584 0
M  V30 912 C 115.679 -5.04409 -4.73308 0
M  V30 913 O 116.477 -3.86404 -4.74719 0
M  V30 914 C 114.341 -4.8728 -5.41006 0
M  V30 915 N 113.298 -4.65812 -4.42377 0
M  V30 916 C 113.467 -5.09132 -3.15382 0
M  V30 917 N 112.44 -4.84021 -2.3716 0
M  V30 918 C 111.555 -4.18386 -3.20441 0
M  V30 919 C 110.288 -3.6275 -2.94905 0
M  V30 920 N 109.689 -3.65794 -1.73372 0
M  V30 921 N 109.723 -3.05008 -4.05243 0
M  V30 922 C 110.325 -2.98348 -5.28159 0
M  V30 923 N 111.502 -3.48171 -5.56333 0
M  V30 924 C 112.077 -4.06869 -4.47212 0
M  V30 925 H 114.373 -4.02278 -6.11074 0
M  V30 926 H 115.556 -5.39013 -3.70026 0
M  V30 927 H 117.039 -6.71916 -5.01943 0
M  V30 928 H 115.345 -7.45796 -6.94223 0
M  V30 929 H 115.155 -8.89416 -5.05237 0
M  V30 930 H 113.525 -8.14876 -5.18409 0
M  V30 931 H 109.789 -2.47853 -6.07807 0
M  V30 932 H 114.367 -5.59989 -2.81362 0
M  V30 933 H 108.759 -3.23218 -1.60782 0
M  V30 934 H 110.163 -4.10523 -0.937856 0
M  V30 935 H 116.165 -3.27906 -5.43085 0
M  V30 936 P 118.023 -5.75688 -6.64379 0
M  V30 937 O 119.445 -6.07758 -7.05656 0
M  V30 938 O 117.663 -5.88047 -5.19722 0
M  V30 939 O 117.7 -4.2322 -7.04443 0
M  V30 940 C 117.54 -3.99743 -8.4911 0
M  V30 941 C 118.08 -2.60487 -8.79329 0
M  V30 942 O 117.025 -1.82684 -8.4467 0
M  V30 943 C 119.298 -2.10343 -8.03628 0
M  V30 944 O 120.036 -1.09919 -8.67766 0
M  V30 945 C 118.63 -1.68446 -6.70876 0
M  V30 946 O 119.428 -0.678026 -6.08333 0
M  V30 947 C 117.292 -1.17436 -7.18567 0
M  V30 948 N 116.249 -1.52699 -6.23988 0
M  V30 949 C 116.311 -2.68084 -5.57824 0
M  V30 950 N 115.266 -2.8189 -4.75643 0
M  V30 951 C 114.532 -1.72373 -4.95155 0
M  V30 952 C 113.226 -1.37653 -4.44996 0
M  V30 953 O 112.493 -2.02239 -3.68445 0
M  V30 954 N 112.796 -0.17675 -4.90782 0
M  V30 955 C 113.545 0.645036 -5.78716 0
M  V30 956 N 112.948 1.84214 -6.10618 0
M  V30 957 N 114.698 0.321732 -6.30279 0
M  V30 958 C 115.155 -0.87502 -5.86913 0
M  V30 959 H 117.324 -0.0804732 -7.31656 0
M  V30 960 H 118.507 -2.53998 -6.02444 0
M  V30 961 H 119.992 -2.93095 -7.8582 0
M  V30 962 H 118.297 -2.53065 -9.86973 0
M  V30 963 H 118.107 -4.75072 -9.05887 0
M  V30 964 H 116.476 -4.05244 -8.76668 0
M  V30 965 H 111.9 0.152143 -4.60849 0
M  V30 966 H 117.107 -3.41852 -5.69006 0
M  V30 967 H 112.037 2.08538 -5.69521 0
M  V30 968 H 113.413 2.4895 -6.75698 0
M  V30 969 H 119.117 0.177619 -6.34151 0
M  V30 970 P 120.973 -1.25109 -8.70152 0
M  V30 971 O 122.394 -1.29758 -9.22115 0
M  V30 972 O 120.613 -2.13714 -7.55141 0
M  V30 973 O 120.65 0.248149 -8.21425 0
M  V30 974 C 120.489 1.22792 -9.30533 0
M  V30 975 C 121.03 2.56293 -8.80664 0
M  V30 976 O 119.975 3.02944 -8.09255 0
M  V30 977 C 122.248 2.57523 -7.89775 0
M  V30 978 O 122.986 3.7668 -7.89438 0
M  V30 979 C 121.58 2.20997 -6.55446 0
M  V30 980 O 122.378 2.71302 -5.48691 0
M  V30 981 C 120.242 2.89693 -6.67988 0
M  V30 982 N 119.199 2.08895 -6.07487 0
M  V30 983 C 119.368 0.753809 -5.94137 0
M  V30 984 N 118.341 0.146592 -5.38801 0
M  V30 985 C 117.456 1.1768 -5.13693 0
M  V30 986 C 116.189 1.17563 -4.52477 0
M  V30 987 N 115.624 2.41918 -4.45789 0
M  V30 988 C 116.226 3.56493 -4.90792 0
M  V30 989 N 117.403 3.61423 -5.47817 0
M  V30 990 C 117.978 2.37779 -5.5588 0
M  V30 991 H 121.457 1.12673 -6.44018 0
M  V30 992 H 122.94 1.7746 -8.19711 0
M  V30 993 H 121.246 3.21673 -9.66791 0
M  V30 994 H 121.056 0.901032 -10.1892 0
M  V30 995 H 119.426 1.33049 -9.56592 0
M  V30 996 H 120.268 0.233081 -6.26266 0
M  V30 997 H 122.066 3.5779 -5.23879 0
M  V30 998 P 123.924 3.65191 -7.99657 0
M  V30 999 O 125.345 3.89374 -8.45885 0
M  V30 1000 O 123.564 2.28472 -7.50807 0
M  V30 1001 O 123.601 4.64972 -6.77611 0
M  V30 1002 C 123.44 6.06383 -7.16428 0
M  V30 1003 C 123.981 6.91731 -6.02299 0
M  V30 1004 O 122.926 6.92369 -5.17005 0
M  V30 1005 C 125.199 6.43627 -5.25174 0
M  V30 1006 O 125.937 7.43686 -4.60469 0
M  V30 1007 C 124.531 5.40275 -4.31916 0
M  V30 1008 O 125.329 5.24878 -3.14911 0
M  V30 1009 C 123.193 6.04847 -4.05327 0
M  V30 1010 N 122.15 5.04166 -3.98114 0
M  V30 1011 C 122.319 3.84629 -4.59066 0
M  V30 1012 N 121.292 3.0363 -4.45343 0
M  V30 1013 C 120.407 3.76722 -3.68523 0
M  V30 1014 C 119.14 3.43528 -3.17088 0
M  V30 1015 N 118.541 2.23665 -3.37397 0
M  V30 1016 N 118.575 4.44526 -2.44231 0
M  V30 1017 C 119.177 5.65243 -2.20146 0
M  V30 1018 N 120.354 6.00221 -2.65453 0
M  V30 1019 C 120.929 5.00564 -3.39083 0
M  V30 1020 H 123.225 6.62104 -3.11218 0
M  V30 1021 H 124.408 4.42969 -4.80867 0
M  V30 1022 H 125.891 5.92458 -5.93643 0
M  V30 1023 H 124.197 7.93295 -6.39407 0
M  V30 1024 H 124.007 6.26671 -8.0846 0
M  V30 1025 H 122.377 6.29101 -7.32804 0
M  V30 1026 H 118.641 6.36894 -1.5883 0
M  V30 1027 H 123.219 3.58193 -5.14248 0
M  V30 1028 H 117.611 2.05145 -2.97047 0
M  V30 1029 H 119.015 1.51255 -3.92998 0
M  V30 1030 H 125.017 5.84223 -2.47279 0
M  V30 1031 P 126.875 7.39546 -4.75277 0
M  V30 1032 O 128.297 7.84798 -5.01039 0
M  V30 1033 O 126.515 5.9812 -5.08098 0
M  V30 1034 O 126.552 7.57503 -3.1866 0
M  V30 1035 C 126.392 8.97357 -2.74833 0
M  V30 1036 C 126.932 9.07548 -1.32709 0
M  V30 1037 O 125.876 8.62072 -0.606159 0
M  V30 1038 C 128.15 8.25383 -0.938334 0
M  V30 1039 O 128.888 8.74577 0.146954 0
M  V30 1040 C 127.481 6.8802 -0.712559 0
M  V30 1041 O 128.28 6.1189 0.194655 0
M  V30 1042 C 126.144 7.27966 -0.139777 0
M  V30 1043 H 126.176 7.25354 0.961601 0
M  V30 1044 H 127.359 6.32557 -1.65702 0
M  V30 1045 H 128.843 8.19355 -1.79097 0
M  V30 1046 H 127.149 10.1294 -1.10029 0
M  V30 1047 H 126.959 9.64276 -3.41316 0
M  V30 1048 H 125.329 9.25417 -2.76357 0
M  V30 1049 H 127.968 6.25267 1.07847 0
M  V30 1050 P 129.825 8.791 -1.02308e-13 0
M  V30 1051 O 131.247 9.31096 0.027933 0
M  V30 1052 O 129.465 7.77869 -1.04071 0
M  V30 1053 O 129.502 8.09533 1.41463 0
M  V30 1054 C 129.342 9.0349 2.53943 0
M  V30 1055 C 129.882 8.35226 3.79016 0
M  V30 1056 O 128.826 7.57992 4.15078 0
M  V30 1057 C 131.1 7.45087 3.67298 0
M  V30 1058 O 131.838 7.27796 4.85194 0
M  V30 1059 C 130.431 6.17323 3.12027 0
M  V30 1060 O 131.23 5.04231 3.47188 0
M  V30 1061 C 129.094 6.19961 3.81809 0
M  V30 1062 H 129.126 5.58218 4.73051 0
M  V30 1063 H 130.309 6.21726 2.02589 0
M  V30 1064 H 131.793 7.86112 2.9231 0
M  V30 1065 H 130.099 9.11627 4.55076 0
M  V30 1066 H 129.909 9.9573 2.34194 0
M  V30 1067 H 128.279 9.2792 2.67832 0
M  V30 1068 H 130.918 4.67702 4.28772 0
M  V30 1069 P 132.776 7.39546 4.75277 0
M  V30 1070 O 134.198 7.81945 5.05847 0
M  V30 1071 O 132.416 7.1065 3.32998 0
M  V30 1072 O 132.453 6.04542 5.56673 0
M  V30 1073 C 132.293 6.22772 7.02095 0
M  V30 1074 C 132.833 4.97671 7.70322 0
M  V30 1075 O 131.778 4.13256 7.58987 0
M  V30 1076 C 134.051 4.28231 7.11815 0
M  V30 1077 O 134.789 3.49945 8.01648 0
M  V30 1078 C 133.383 3.5063 5.96244 0
M  V30 1079 O 134.181 2.36443 5.64589 0
M  V30 1080 C 132.045 3.15122 6.56374 0
M  V30 1081 N 131.002 3.22311 5.55692 0
M  V30 1082 C 131.064 4.14382 4.59701 0
M  V30 1083 N 130.019 4.04476 3.76958 0
M  V30 1084 C 129.285 3.04892 4.26534 0
M  V30 1085 C 127.979 2.57447 3.88189 0
M  V30 1086 O 127.246 2.9785 2.96543 0
M  V30 1087 N 127.549 1.55228 4.65922 0
M  V30 1088 C 128.298 1.01152 5.73447 0
M  V30 1089 N 127.701 -0.0472117 6.37783 0
M  V30 1090 N 129.451 1.467 6.13813 0
M  V30 1091 C 129.908 2.4931 5.38487 0
M  V30 1092 H 132.077 2.13853 6.99751 0
M  V30 1093 H 133.26 4.13438 5.06482 0
M  V30 1094 H 134.745 5.02614 6.71414 0
M  V30 1095 H 133.05 5.20877 8.75697 0
M  V30 1096 H 132.86 7.11046 7.35349 0
M  V30 1097 H 131.229 6.35815 7.26986 0
M  V30 1098 H 126.653 1.15238 4.46468 0
M  V30 1099 H 131.86 4.88312 4.49647 0
M  V30 1100 H 126.79 -0.396382 6.05203 0
M  V30 1101 H 128.166 -0.484997 7.18465 0
M  V30 1102 H 133.87 1.61619 6.13468 0
M  V30 1103 P 135.726 3.65191 7.99657 0
M  V30 1104 O 137.148 3.8425 8.48115 0
M  V30 1105 O 135.366 4.17805 6.64342 0
M  V30 1106 O 135.403 2.07613 7.95143 0
M  V30 1107 C 135.243 1.44328 9.27336 0
M  V30 1108 C 135.783 0.0220036 9.17197 0
M  V30 1109 O 134.727 -0.626867 8.61923 0
M  V30 1110 C 137.001 -0.24586 8.30336 0
M  V30 1111 O 137.739 -1.39011 8.63583 0
M  V30 1112 C 136.332 -0.273849 6.91158 0
M  V30 1113 O 137.131 -1.06348 6.02892 0
M  V30 1114 C 134.995 -0.897649 7.22545 0
M  V30 1115 H 135.027 -1.9841 7.04286 0
M  V30 1116 H 136.21 0.739928 6.497 0
M  V30 1117 H 137.694 0.60668 8.36503 0
M  V30 1118 H 136 -0.352479 10.1829 0
M  V30 1119 H 135.81 2.00611 10.0304 0
M  V30 1120 H 134.18 1.41843 9.55327 0
M  V30 1121 H 136.819 -1.95734 6.03555 0
M  V30 1122 P 138.677 -1.25109 8.70152 0
M  V30 1123 O 140.099 -1.35274 9.21221 0
M  V30 1124 O 138.317 -0.0769065 7.84762 0
M  V30 1125 O 138.354 -2.55232 7.81161 0
M  V30 1126 C 138.194 -3.79939 8.58154 0
M  V30 1127 C 138.734 -4.94023 7.72785 0
M  V30 1128 O 137.678 -5.18726 6.91205 0
M  V30 1129 C 139.952 -4.69597 6.85231 0
M  V30 1130 O 140.69 -5.83832 6.51337 0
M  V30 1131 C 139.283 -3.96706 5.66633 0
M  V30 1132 O 140.082 -4.15414 4.49689 0
M  V30 1133 C 137.946 -4.66153 5.59313 0
M  V30 1134 H 137.978 -5.47679 4.85214 0
M  V30 1135 H 139.161 -2.89008 5.86566 0
M  V30 1136 H 140.645 -4.0121 7.36511 0
M  V30 1137 H 138.951 -5.80182 8.37584 0
M  V30 1138 H 138.761 -3.73517 9.52265 0
M  V30 1139 H 137.131 -3.97163 8.80359 0
M  V30 1140 H 139.77 -4.90969 4.01921 0
M  V30 1141 P 141.627 -5.75688 6.64379 0
M  V30 1142 O 143.048 -6.11915 7.01921 0
M  V30 1143 O 141.267 -4.30744 6.56026 0
M  V30 1144 O 141.304 -6.37042 5.19165 0
M  V30 1145 C 141.143 -7.83662 5.1657 0
M  V30 1146 C 141.684 -8.33398 3.83019 0
M  V30 1147 O 140.629 -8.0998 3.00999 0
M  V30 1148 C 142.902 -7.65514 3.2257 0
M  V30 1149 O 143.64 -8.4329 2.32297 0
M  V30 1150 C 142.234 -6.40075 2.62207 0
M  V30 1151 O 143.032 -5.92338 1.5428 0
M  V30 1152 C 140.896 -6.9454 2.18503 0
M  V30 1153 N 139.853 -5.95905 2.39948 0
M  V30 1154 C 140.022 -4.98383 3.32108 0
M  V30 1155 N 138.995 -4.16798 3.41761 0
M  V30 1156 C 138.11 -4.65287 2.47461 0
M  V30 1157 C 136.843 -4.18946 2.07461 0
M  V30 1158 N 136.278 -4.95327 1.09101 0
M  V30 1159 C 136.88 -6.04369 0.519812 0
M  V30 1160 N 138.057 -6.50694 0.855982 0
M  V30 1161 C 138.632 -5.75818 1.84322 0
M  V30 1162 H 142.111 -5.60502 3.36589 0
M  V30 1163 H 143.594 -7.35707 4.02681 0
M  V30 1164 H 141.9 -9.41302 3.90009 0
M  V30 1165 H 141.71 -8.29056 5.99158 0
M  V30 1166 H 140.08 -8.10073 5.25882 0
M  V30 1167 H 140.922 -4.88564 3.92502 0
M  V30 1168 H 142.72 -6.30224 0.72668 0
M  V30 1169 P 144.578 -8.4349 2.47671 0
M  V30 1170 O 146 -8.94167 2.5964 0
M  V30 1171 O 144.218 -7.1704 3.19006 0
M  V30 1172 O 144.255 -8.16596 0.923387 0
M  V30 1173 C 144.095 -9.38437 0.108857 0
M  V30 1174 C 144.635 -9.08175 -1.28353 0
M  V30 1175 O 143.579 -8.44229 -1.84713 0
M  V30 1176 C 145.853 -8.18386 -1.42505 0
M  V30 1177 O 146.591 -8.3501 -2.60497 0
M  V30 1178 C 145.184 -6.80225 -1.25468 0
M  V30 1179 O 145.983 -5.81621 -1.91066 0
M  V30 1180 C 143.847 -7.02416 -1.9168 0
M  V30 1181 H 143.879 -6.6888 -2.96621 0
M  V30 1182 H 145.062 -6.53617 -0.192223 0
M  V30 1183 H 146.546 -8.36622 -0.589963 0
M  V30 1184 H 144.852 -10.0291 -1.79807 0
M  V30 1185 H 144.662 -10.2138 0.558219 0
M  V30 1186 H 143.032 -9.6579 0.0444202 0
M  V30 1187 H 145.671 -5.69556 -2.79637 0
M  V30 1188 P 147.528 -8.4349 -2.47671 0
M  V30 1189 O 148.95 -8.92593 -2.65 0
M  V30 1190 O 147.168 -7.7568 -1.19296 0
M  V30 1191 O 147.205 -7.36886 -3.63805 0
M  V30 1192 C 147.045 -7.95349 -4.982 0
M  V30 1193 C 147.585 -6.94612 -5.98974 0
M  V30 1194 O 146.529 -6.10347 -6.11815 0
M  V30 1195 C 148.803 -6.11426 -5.62335 0
M  V30 1196 O 149.541 -5.6162 -6.70584 0
M  V30 1197 C 148.134 -5.04409 -4.73308 0
M  V30 1198 O 148.933 -3.85992 -4.75183 0
M  V30 1199 C 146.797 -4.8728 -5.41006 0
M  V30 1200 H 146.829 -4.02333 -6.11157 0
M  V30 1201 H 148.012 -5.39466 -3.69543 0
M  V30 1202 H 149.496 -6.71916 -5.01943 0
M  V30 1203 H 147.802 -7.4649 -6.93477 0
M  V30 1204 H 147.612 -8.89416 -5.05237 0
M  V30 1205 H 145.982 -8.14876 -5.18409 0
M  V30 1206 H 148.621 -3.27957 -5.4317 0
M  V30 1207 P 150.479 -5.75688 -6.64379 0
M  V30 1208 O 151.901 -6.07627 -7.05504 0
M  V30 1209 O 150.119 -5.88047 -5.19722 0
M  V30 1210 O 150.156 -4.2322 -7.04443 0
M  V30 1211 C 149.996 -3.99743 -8.4911 0
M  V30 1212 C 150.536 -2.60516 -8.79425 0
M  V30 1213 O 149.48 -1.82684 -8.4467 0
M  V30 1214 C 151.754 -2.10343 -8.03628 0
M  V30 1215 O 152.492 -1.09919 -8.67766 0
M  V30 1216 C 151.085 -1.68446 -6.70876 0
M  V30 1217 O 151.884 -0.678137 -6.08433 0
M  V30 1218 C 149.748 -1.17436 -7.18567 0
M  V30 1219 H 149.78 -0.0804732 -7.31656 0
M  V30 1220 H 150.963 -2.54037 -6.02537 0
M  V30 1221 H 152.447 -2.93881 -7.85526 0
M  V30 1222 H 150.753 -2.53065 -9.86973 0
M  V30 1223 H 150.563 -4.75072 -9.05887 0
M  V30 1224 H 148.933 -4.05244 -8.76668 0
M  V30 1225 H 151.572 0.177647 -6.34251 0
M  V30 1226 P 153.43 -1.25109 -8.70152 0
M  V30 1227 O 154.852 -1.29744 -9.22016 0
M  V30 1228 O 153.07 -2.13714 -7.55141 0
M  V30 1229 O 153.107 0.248149 -8.21425 0
M  V30 1230 C 152.947 1.22779 -9.30434 0
M  V30 1231 C 153.487 2.56293 -8.80664 0
M  V30 1232 O 152.431 3.02979 -8.09349 0
M  V30 1233 C 154.705 2.57523 -7.89775 0
M  V30 1234 O 155.443 3.7668 -7.89438 0
M  V30 1235 C 154.036 2.20997 -6.55446 0
M  V30 1236 O 154.835 2.71895 -5.48509 0
M  V30 1237 C 152.699 2.89693 -6.67988 0
M  V30 1238 H 152.731 3.88793 -6.19859 0
M  V30 1239 H 153.914 1.12046 -6.44229 0
M  V30 1240 H 155.398 1.7746 -8.19711 0
M  V30 1241 H 153.704 3.20706 -9.67112 0
M  V30 1242 H 153.514 0.901032 -10.1892 0
M  V30 1243 H 151.884 1.33049 -9.56592 0
M  V30 1244 H 154.523 3.57847 -5.23962 0
M  V30 1245 P 156.38 3.65191 -7.99657 0
M  V30 1246 O 157.801 3.89374 -8.45885 0
M  V30 1247 O 156.02 2.28472 -7.50807 0
M  V30 1248 O 156.057 4.64972 -6.77611 0
M  V30 1249 C 155.896 6.06383 -7.16428 0
M  V30 1250 C 156.437 6.91731 -6.02299 0
M  V30 1251 O 155.382 6.92369 -5.17005 0
M  V30 1252 C 157.655 6.43627 -5.25174 0
M  V30 1253 O 158.393 7.43686 -4.60469 0
M  V30 1254 C 156.987 5.40275 -4.31916 0
M  V30 1255 O 157.785 5.24878 -3.14911 0
M  V30 1256 C 155.649 6.04847 -4.05327 0
M  V30 1257 N 154.606 5.04166 -3.98114 0
M  V30 1258 C 154.775 3.84629 -4.59066 0
M  V30 1259 N 153.748 3.0363 -4.45343 0
M  V30 1260 C 152.863 3.76722 -3.68523 0
M  V30 1261 C 151.596 3.43528 -3.17088 0
M  V30 1262 N 150.997 2.23665 -3.37397 0
M  V30 1263 N 151.031 4.44526 -2.44231 0
M  V30 1264 C 151.633 5.65243 -2.20146 0
M  V30 1265 N 152.81 6.00221 -2.65453 0
M  V30 1266 C 153.385 5.00564 -3.39083 0
M  V30 1267 H 155.681 6.62104 -3.11218 0
M  V30 1268 H 156.864 4.42969 -4.80867 0
M  V30 1269 H 158.347 5.92458 -5.93643 0
M  V30 1270 H 156.653 7.93295 -6.39407 0
M  V30 1271 H 156.463 6.26671 -8.0846 0
M  V30 1272 H 154.833 6.29101 -7.32804 0
M  V30 1273 H 151.097 6.36894 -1.5883 0
M  V30 1274 H 155.675 3.58193 -5.14248 0
M  V30 1275 H 150.067 2.05145 -2.97047 0
M  V30 1276 H 151.471 1.51255 -3.92998 0
M  V30 1277 H 157.473 5.84223 -2.47279 0
M  V30 1278 P 159.331 7.39546 -4.75277 0
M  V30 1279 O 160.753 7.84798 -5.01039 0
M  V30 1280 O 158.971 5.9812 -5.08098 0
M  V30 1281 O 159.008 7.57503 -3.1866 0
M  V30 1282 C 158.848 8.97357 -2.74833 0
M  V30 1283 C 159.388 9.07548 -1.32709 0
M  V30 1284 O 158.332 8.62072 -0.606159 0
M  V30 1285 C 160.606 8.25383 -0.938334 0
M  V30 1286 O 161.344 8.74577 0.146954 0
M  V30 1287 C 159.937 6.8802 -0.712559 0
M  V30 1288 O 160.736 6.1189 0.194655 0
M  V30 1289 C 158.6 7.27966 -0.139777 0
M  V30 1290 H 158.632 7.25354 0.961601 0
M  V30 1291 H 159.815 6.32557 -1.65702 0
M  V30 1292 H 161.299 8.19355 -1.79097 0
M  V30 1293 H 159.605 10.1294 -1.10029 0
M  V30 1294 H 159.415 9.64276 -3.41316 0
M  V30 1295 H 157.785 9.25417 -2.76357 0
M  V30 1296 H 160.424 6.25267 1.07847 0
M  V30 1297 P 162.281 8.791 -1.35693e-13 0
M  V30 1298 O 163.703 9.31096 0.027933 0
M  V30 1299 O 161.921 7.77869 -1.04071 0
M  V30 1300 O 161.958 8.09533 1.41463 0
M  V30 1301 C 161.798 9.0349 2.53943 0
M  V30 1302 C 162.338 8.35226 3.79016 0
M  V30 1303 O 161.282 7.57992 4.15078 0
M  V30 1304 C 163.556 7.45087 3.67298 0
M  V30 1305 O 164.294 7.27796 4.85194 0
M  V30 1306 C 162.887 6.17323 3.12027 0
M  V30 1307 O 163.686 5.04231 3.47188 0
M  V30 1308 C 161.55 6.19961 3.81809 0
M  V30 1309 H 161.582 5.58218 4.73051 0
M  V30 1310 H 162.765 6.21726 2.02589 0
M  V30 1311 H 164.249 7.86112 2.9231 0
M  V30 1312 H 162.555 9.11627 4.55076 0
M  V30 1313 H 162.365 9.9573 2.34194 0
M  V30 1314 H 160.735 9.2792 2.67832 0
M  V30 1315 H 163.374 4.67702 4.28772 0
M  V30 1316 P 165.232 7.39546 4.75277 0
M  V30 1317 O 166.653 7.81861 5.05793 0
M  V30 1318 O 164.872 7.1065 3.32998 0
M  V30 1319 O 164.909 6.04542 5.56673 0
M  V30 1320 C 164.748 6.22839 7.02169 0
M  V30 1321 C 165.289 4.97725 7.70406 0
M  V30 1322 O 164.234 4.13208 7.58899 0
M  V30 1323 C 166.507 4.28231 7.11815 0
M  V30 1324 O 167.245 3.49945 8.01648 0
M  V30 1325 C 165.839 3.5063 5.96244 0
M  V30 1326 O 166.637 2.37008 5.64352 0
M  V30 1327 C 164.501 3.15122 6.56374 0
M  V30 1328 N 163.458 3.22311 5.55692 0
M  V30 1329 C 163.627 3.99655 4.46046 0
M  V30 1330 N 162.6 3.97599 3.63918 0
M  V30 1331 C 161.715 3.11159 4.25334 0
M  V30 1332 C 160.448 2.64972 3.85157 0
M  V30 1333 N 159.849 3.02132 2.69405 0
M  V30 1334 N 159.883 1.78482 4.74759 0
M  V30 1335 C 160.485 1.37463 5.90819 0
M  V30 1336 N 161.662 1.7733 6.31889 0
M  V30 1337 C 162.237 2.64393 5.43725 0
M  V30 1338 H 164.533 2.13823 6.99656 0
M  V30 1339 H 165.716 4.12931 5.06895 0
M  V30 1340 H 167.199 5.03285 6.70911 0
M  V30 1341 H 165.505 5.20001 8.76217 0
M  V30 1342 H 165.315 7.11046 7.35349 0
M  V30 1343 H 163.685 6.35815 7.26986 0
M  V30 1344 H 159.949 0.66574 6.53015 0
M  V30 1345 H 164.527 4.58037 4.27732 0
M  V30 1346 H 158.919 2.64828 2.45331 0
M  V30 1347 H 160.323 3.67472 2.05644 0
M  V30 1348 H 166.325 1.61619 6.13468 0
M  V30 1349 P 168.182 3.65191 7.99657 0
M  V30 1350 O 169.603 3.84292 8.48206 0
M  V30 1351 O 167.822 4.17805 6.64342 0
M  V30 1352 O 167.859 2.07613 7.95143 0
M  V30 1353 C 167.698 1.44344 9.27435 0
M  V30 1354 C 168.239 0.0220036 9.17197 0
M  V30 1355 O 167.184 -0.626794 8.61824 0
M  V30 1356 C 169.457 -0.24586 8.30336 0
M  V30 1357 O 170.195 -1.39011 8.63583 0
M  V30 1358 C 168.789 -0.273849 6.91158 0
M  V30 1359 O 169.587 -1.05728 6.029 0
M  V30 1360 C 167.451 -0.897649 7.22545 0
M  V30 1361 N 166.408 -0.292839 6.41732 0
M  V30 1362 C 166.577 0.950603 5.91308 0
M  V30 1363 N 165.55 1.37732 5.21105 0
M  V30 1364 C 164.665 0.318109 5.26039 0
M  V30 1365 C 163.398 0.146766 4.6727 0
M  V30 1366 N 162.799 1.08519 3.89983 0
M  V30 1367 N 162.833 -1.06525 4.95887 0
M  V30 1368 C 163.435 -2.0378 5.71347 0
M  V30 1369 N 164.612 -1.92445 6.27451 0
M  V30 1370 C 165.187 -0.715382 6.00353 0
M  V30 1371 H 167.483 -1.98383 7.04189 0
M  V30 1372 H 168.666 0.733318 6.49674 0
M  V30 1373 H 170.149 0.60668 8.36503 0
M  V30 1374 H 168.455 -0.362662 10.1825 0
M  V30 1375 H 168.265 2.00611 10.0304 0
M  V30 1376 H 166.635 1.41843 9.55327 0
M  V30 1377 H 162.899 -2.97041 5.85344 0
M  V30 1378 H 167.477 1.54076 6.07465 0
M  V30 1379 H 161.869 0.901517 3.49562 0
M  V30 1380 H 163.273 1.97957 3.71669 0
M  V30 1381 H 169.275 -1.95704 6.0346 0
M  V30 1382 P 171.133 -1.25109 8.70152 0
M  V30 1383 O 172.555 -1.35274 9.21221 0
M  V30 1384 O 170.773 -0.0769065 7.84762 0
M  V30 1385 O 170.81 -2.55232 7.81161 0
M  V30 1386 C 170.65 -3.79939 8.58154 0
M  V30 1387 C 171.19 -4.94023 7.72785 0
M  V30 1388 O 170.134 -5.18726 6.91205 0
M  V30 1389 C 172.408 -4.69597 6.85231 0
M  V30 1390 O 173.146 -5.83832 6.51337 0
M  V30 1391 C 171.739 -3.96706 5.66633 0
M  V30 1392 O 172.538 -4.15414 4.49689 0
M  V30 1393 C 170.402 -4.66153 5.59313 0
M  V30 1394 H 170.434 -5.47679 4.85214 0
M  V30 1395 H 171.617 -2.89008 5.86566 0
M  V30 1396 H 173.101 -4.0121 7.36511 0
M  V30 1397 H 171.407 -5.80182 8.37584 0
M  V30 1398 H 171.217 -3.73517 9.52265 0
M  V30 1399 H 169.587 -3.97163 8.80359 0
M  V30 1400 H 172.226 -4.90969 4.01921 0
M  V30 1401 P 174.084 -5.75688 6.64379 0
M  V30 1402 O 175.506 -6.11849 7.01846 0
M  V30 1403 O 173.724 -4.30744 6.56026 0
M  V30 1404 O 173.761 -6.37042 5.19165 0
M  V30 1405 C 173.601 -7.83578 5.16515 0
M  V30 1406 C 174.141 -8.33398 3.83019 0
M  V30 1407 O 173.085 -8.10074 3.01034 0
M  V30 1408 C 175.359 -7.65514 3.2257 0
M  V30 1409 O 176.097 -8.4329 2.32297 0
M  V30 1410 C 174.69 -6.40075 2.62207 0
M  V30 1411 O 175.489 -5.92589 1.53712 0
M  V30 1412 C 173.353 -6.9454 2.18503 0
M  V30 1413 H 173.385 -7.23063 1.12091 0
M  V30 1414 H 174.568 -5.6025 3.37201 0
M  V30 1415 H 176.052 -7.35707 4.02681 0
M  V30 1416 H 174.358 -9.40912 3.9095 0
M  V30 1417 H 174.168 -8.29056 5.99158 0
M  V30 1418 H 172.538 -8.10073 5.25882 0
M  V30 1419 H 175.177 -6.30324 0.726794 0
M  V30 1420 P 177.034 -8.4349 2.47671 0
M  V30 1421 O 178.456 -8.94167 2.5964 0
M  V30 1422 O 176.674 -7.1704 3.19006 0
M  V30 1423 O 176.711 -8.16596 0.923387 0
M  V30 1424 C 176.551 -9.38437 0.108857 0
M  V30 1425 C 177.091 -9.08175 -1.28353 0
M  V30 1426 O 176.035 -8.44229 -1.84713 0
M  V30 1427 C 178.309 -8.18386 -1.42505 0
M  V30 1428 O 179.047 -8.3501 -2.60497 0
M  V30 1429 C 177.64 -6.80225 -1.25468 0
M  V30 1430 O 178.439 -5.81621 -1.91066 0
M  V30 1431 C 176.303 -7.02416 -1.9168 0
M  V30 1432 H 176.335 -6.6888 -2.96621 0
M  V30 1433 H 177.518 -6.53617 -0.192223 0
M  V30 1434 H 179.002 -8.36622 -0.589963 0
M  V30 1435 H 177.308 -10.0291 -1.79807 0
M  V30 1436 H 177.118 -10.2138 0.558219 0
M  V30 1437 H 175.488 -9.6579 0.0444202 0
M  V30 1438 H 178.127 -5.69556 -2.79637 0
M  V30 1439 P 179.985 -8.4349 -2.47671 0
M  V30 1440 O 181.386 -8.99283 -2.62101 0
M  V30 1441 O 179.607 -7.81195 -1.16947 0
M  V30 1442 O 179.662 -7.36797 -3.63761 0
M  V30 1443 C 179.502 -7.95349 -4.982 0
M  V30 1444 C 180.042 -6.94537 -5.98908 0
M  V30 1445 O 178.986 -6.10277 -6.11744 0
M  V30 1446 C 181.259 -6.11426 -5.62335 0
M  V30 1447 O 181.998 -5.6162 -6.70584 0
M  V30 1448 C 180.592 -5.04409 -4.73308 0
M  V30 1449 O 181.39 -3.85929 -4.75106 0
M  V30 1450 C 179.254 -4.8728 -5.41006 0
M  V30 1451 N 178.211 -4.65812 -4.42377 0
M  V30 1452 C 177.176 -3.81293 -4.74224 0
M  V30 1453 O 177.215 -3.20533 -5.83679 0
M  V30 1454 N 176.164 -3.6442 -3.86349 0
M  V30 1455 C 176.212 -4.2728 -2.6824 0
M  V30 1456 N 175.202 -4.09866 -1.83822 0
M  V30 1457 C 177.308 -5.10813 -2.3217 0
M  V30 1458 C 178.274 -5.27909 -3.22647 0
M  V30 1459 H 179.286 -4.02278 -6.11074 0
M  V30 1460 H 180.469 -5.39013 -3.70026 0
M  V30 1461 H 181.953 -6.71494 -5.02675 0
M  V30 1462 H 180.259 -7.45796 -6.94223 0
M  V30 1463 H 180.068 -8.89416 -5.05237 0
M  V30 1464 H 178.438 -8.14791 -5.18355 0
M  V30 1465 H 177.356 -5.58884 -1.34755 0
M  V30 1466 H 179.12 -5.92811 -2.9934 0
M  V30 1467 H 174.412 -3.49095 -2.10018 0
M  V30 1468 H 175.207 -4.56846 -0.924167 0
M  V30 1469 H 181.174 -3.3454 -5.51577 0
M  V30 1470 P 182.935 -5.75688 -6.64379 0
M  V30 1471 O 184.357 -6.07758 -7.05656 0
M  V30 1472 O 182.575 -5.88047 -5.19722 0
M  V30 1473 O 182.612 -4.2322 -7.04443 0
M  V30 1474 C 182.452 -3.99743 -8.4911 0
M  V30 1475 C 182.992 -2.60487 -8.79329 0
M  V30 1476 O 181.937 -1.82684 -8.4467 0
M  V30 1477 C 184.21 -2.10343 -8.03628 0
M  V30 1478 O 184.948 -1.09919 -8.67766 0
M  V30 1479 C 183.542 -1.68446 -6.70876 0
M  V30 1480 O 184.34 -0.678026 -6.08333 0
M  V30 1481 C 182.204 -1.17436 -7.18567 0
M  V30 1482 N 181.161 -1.52699 -6.23988 0
M  V30 1483 C 181.223 -2.68084 -5.57824 0
M  V30 1484 N 180.178 -2.8189 -4.75643 0
M  V30 1485 C 179.444 -1.72373 -4.95155 0
M  V30 1486 C 178.138 -1.37653 -4.44996 0
M  V30 1487 O 177.405 -2.02239 -3.68445 0
M  V30 1488 N 177.708 -0.17675 -4.90782 0
M  V30 1489 C 178.457 0.645036 -5.78716 0
M  V30 1490 N 177.86 1.84214 -6.10618 0
M  V30 1491 N 179.61 0.321732 -6.30279 0
M  V30 1492 C 180.067 -0.87502 -5.86913 0
M  V30 1493 H 182.236 -0.0804732 -7.31656 0
M  V30 1494 H 183.419 -2.53998 -6.02444 0
M  V30 1495 H 184.904 -2.93095 -7.8582 0
M  V30 1496 H 183.209 -2.53065 -9.86973 0
M  V30 1497 H 183.019 -4.75072 -9.05887 0
M  V30 1498 H 181.388 -4.05244 -8.76668 0
M  V30 1499 H 176.812 0.152143 -4.60849 0
M  V30 1500 H 182.019 -3.41852 -5.69006 0
M  V30 1501 H 176.949 2.08538 -5.69521 0
M  V30 1502 H 178.325 2.4895 -6.75698 0
M  V30 1503 H 184.029 0.177619 -6.34151 0
M  V30 1504 P 185.886 -1.25109 -8.70152 0
M  V30 1505 O 187.307 -1.29758 -9.22115 0
M  V30 1506 O 185.526 -2.13714 -7.55141 0
M  V30 1507 O 185.563 0.248149 -8.21425 0
M  V30 1508 C 185.402 1.22792 -9.30533 0
M  V30 1509 C 185.943 2.56293 -8.80664 0
M  V30 1510 O 184.888 3.02944 -8.09255 0
M  V30 1511 C 187.161 2.57523 -7.89775 0
M  V30 1512 O 187.899 3.7668 -7.89438 0
M  V30 1513 C 186.493 2.20997 -6.55446 0
M  V30 1514 O 187.291 2.71302 -5.48691 0
M  V30 1515 C 185.155 2.89693 -6.67988 0
M  V30 1516 N 184.112 2.08895 -6.07487 0
M  V30 1517 C 184.281 0.753809 -5.94137 0
M  V30 1518 N 183.254 0.146592 -5.38801 0
M  V30 1519 C 182.369 1.1768 -5.13693 0
M  V30 1520 C 181.102 1.17563 -4.52477 0
M  V30 1521 N 180.503 0.057481 -4.04759 0
M  V30 1522 N 180.537 2.41918 -4.45789 0
M  V30 1523 C 181.139 3.56493 -4.90792 0
M  V30 1524 N 182.316 3.61423 -5.47817 0
M  V30 1525 C 182.891 2.37779 -5.5588 0
M  V30 1526 H 185.187 3.8874 -6.19774 0
M  V30 1527 H 186.37 1.12673 -6.44018 0
M  V30 1528 H 187.853 1.7746 -8.19711 0
M  V30 1529 H 186.159 3.21673 -9.66791 0
M  V30 1530 H 185.969 0.901032 -10.1892 0
M  V30 1531 H 184.339 1.33049 -9.56592 0
M  V30 1532 H 180.603 4.49919 -4.77947 0
M  V30 1533 H 185.181 0.233081 -6.26266 0
M  V30 1534 H 179.573 0.119831 -3.60801 0
M  V30 1535 H 180.977 -0.852272 -4.12385 0
M  V30 1536 H 186.979 3.5779 -5.23879 0
M  V30 1537 P 188.836 3.65191 -7.99657 0
M  V30 1538 O 190.258 3.89332 -8.45794 0
M  V30 1539 O 188.476 2.28472 -7.50807 0
M  V30 1540 O 188.513 4.64972 -6.77611 0
M  V30 1541 C 188.353 6.06319 -7.16352 0
M  V30 1542 C 188.893 6.91731 -6.02299 0
M  V30 1543 O 187.837 6.92449 -5.17064 0
M  V30 1544 C 190.111 6.43627 -5.25174 0
M  V30 1545 O 190.849 7.43686 -4.60469 0
M  V30 1546 C 189.442 5.40275 -4.31916 0
M  V30 1547 O 190.241 5.25279 -3.14438 0
M  V30 1548 C 188.105 6.04847 -4.05327 0
M  V30 1549 H 188.137 6.62195 -3.11261 0
M  V30 1550 H 189.32 4.42556 -4.81383 0
M  V30 1551 H 190.804 5.92458 -5.93643 0
M  V30 1552 H 189.11 7.92655 -6.402 0
M  V30 1553 H 188.92 6.26671 -8.0846 0
M  V30 1554 H 187.29 6.29101 -7.32804 0
M  V30 1555 H 189.929 5.84315 -2.47318 0
M  V30 1556 P 191.787 7.39546 -4.75277 0
M  V30 1557 O 193.209 7.84798 -5.01039 0
M  V30 1558 O 191.427 5.9812 -5.08098 0
M  V30 1559 O 191.464 7.57503 -3.1866 0
M  V30 1560 C 191.304 8.97357 -2.74833 0
M  V30 1561 C 191.844 9.07548 -1.32709 0
M  V30 1562 O 190.788 8.62072 -0.606159 0
M  V30 1563 C 193.062 8.25383 -0.938334 0
M  V30 1564 O 193.8 8.74577 0.146954 0
M  V30 1565 C 192.393 6.8802 -0.712559 0
M  V30 1566 O 193.192 6.1189 0.194655 0
M  V30 1567 C 191.056 7.27966 -0.139777 0
M  V30 1568 H 191.088 7.25354 0.961601 0
M  V30 1569 H 192.271 6.32557 -1.65702 0
M  V30 1570 H 193.755 8.19355 -1.79097 0
M  V30 1571 H 192.061 10.1294 -1.10029 0
M  V30 1572 H 191.871 9.64276 -3.41316 0
M  V30 1573 H 190.241 9.25417 -2.76357 0
M  V30 1574 H 192.88 6.25267 1.07847 0
M  V30 1575 P 194.738 8.791 1.12009e-13 0
M  V30 1576 O 196.16 9.31096 0.027933 0
M  V30 1577 O 194.378 7.77869 -1.04071 0
M  V30 1578 O 194.415 8.09533 1.41463 0
M  V30 1579 C 194.255 9.0349 2.53943 0
M  V30 1580 C 194.795 8.35226 3.79016 0
M  V30 1581 O 193.739 7.57992 4.15078 0
M  V30 1582 C 196.013 7.45087 3.67298 0
M  V30 1583 O 196.751 7.27796 4.85194 0
M  V30 1584 C 195.344 6.17323 3.12027 0
M  V30 1585 O 196.143 5.04231 3.47188 0
M  V30 1586 C 194.007 6.19961 3.81809 0
M  V30 1587 H 194.039 5.58218 4.73051 0
M  V30 1588 H 195.222 6.21726 2.02589 0
M  V30 1589 H 196.706 7.86112 2.9231 0
M  V30 1590 H 195.012 9.11627 4.55076 0
M  V30 1591 H 194.822 9.9573 2.34194 0
M  V30 1592 H 193.192 9.2792 2.67832 0
M  V30 1593 H 195.831 4.67702 4.28772 0
M  V30 1594 P 197.688 7.39546 4.75277 0
M  V30 1595 O 199.11 7.81945 5.05847 0
M  V30 1596 O 197.328 7.1065 3.32998 0
M  V30 1597 O 197.365 6.04542 5.56673 0
M  V30 1598 C 197.205 6.22772 7.02095 0
M  V30 1599 C 197.745 4.97671 7.70322 0
M  V30 1600 O 196.69 4.13256 7.58987 0
M  V30 1601 C 198.963 4.28231 7.11815 0
M  V30 1602 O 199.701 3.49945 8.01648 0
M  V30 1603 C 198.295 3.5063 5.96244 0
M  V30 1604 O 199.093 2.36443 5.64589 0
M  V30 1605 C 196.957 3.15122 6.56374 0
M  V30 1606 N 195.914 3.22311 5.55692 0
M  V30 1607 C 195.976 4.14382 4.59701 0
M  V30 1608 N 194.931 4.04476 3.76958 0
M  V30 1609 C 194.197 3.04892 4.26534 0
M  V30 1610 C 192.891 2.57447 3.88189 0
M  V30 1611 O 192.158 2.9785 2.96543 0
M  V30 1612 N 192.461 1.55228 4.65922 0
M  V30 1613 C 193.21 1.01152 5.73447 0
M  V30 1614 N 192.613 -0.0472117 6.37783 0
M  V30 1615 N 194.363 1.467 6.13813 0
M  V30 1616 C 194.82 2.4931 5.38487 0
M  V30 1617 H 196.989 2.13853 6.99751 0
M  V30 1618 H 198.172 4.13438 5.06482 0
M  V30 1619 H 199.657 5.02614 6.71414 0
M  V30 1620 H 197.962 5.20877 8.75697 0
M  V30 1621 H 197.772 7.11046 7.35349 0
M  V30 1622 H 196.141 6.35815 7.26986 0
M  V30 1623 H 191.565 1.15238 4.46468 0
M  V30 1624 H 196.772 4.88312 4.49647 0
M  V30 1625 H 191.702 -0.396382 6.05203 0
M  V30 1626 H 193.078 -0.484997 7.18465 0
M  V30 1627 H 198.782 1.61619 6.13468 0
M  V30 1628 P 200.639 3.65191 7.99657 0
M  V30 1629 O 202.06 3.84292 8.48206 0
M  V30 1630 O 200.279 4.17805 6.64342 0
M  V30 1631 O 200.316 2.07613 7.95143 0
M  V30 1632 C 200.155 1.44344 9.27435 0
M  V30 1633 C 200.696 0.0220036 9.17197 0
M  V30 1634 O 199.641 -0.626794 8.61824 0
M  V30 1635 C 201.914 -0.24586 8.30336 0
M  V30 1636 O 202.652 -1.39011 8.63583 0
M  V30 1637 C 201.246 -0.273849 6.91158 0
M  V30 1638 O 202.044 -1.05728 6.029 0
M  V30 1639 C 199.908 -0.897649 7.22545 0
M  V30 1640 N 198.865 -0.292839 6.41732 0
M  V30 1641 C 199.034 0.950603 5.91308 0
M  V30 1642 N 198.007 1.37732 5.21105 0
M  V30 1643 C 197.122 0.318109 5.26039 0
M  V30 1644 C 195.855 0.146766 4.6727 0
M  V30 1645 N 195.256 1.08519 3.89983 0
M  V30 1646 N 195.29 -1.06525 4.95887 0
M  V30 1647 C 195.892 -2.0378 5.71347 0
M  V30 1648 N 197.069 -1.92445 6.27451 0
M  V30 1649 C 197.644 -0.715382 6.00353 0
M  V30 1650 H 199.94 -1.98383 7.04189 0
M  V30 1651 H 201.123 0.733318 6.49674 0
M  V30 1652 H 202.606 0.60668 8.36503 0
M  V30 1653 H 200.912 -0.362662 10.1825 0
M  V30 1654 H 200.722 2.00611 10.0304 0
M  V30 1655 H 199.092 1.41843 9.55327 0
M  V30 1656 H 195.356 -2.97041 5.85344 0
M  V30 1657 H 199.934 1.54076 6.07465 0
M  V30 1658 H 194.326 0.901517 3.49562 0
M  V30 1659 H 195.73 1.97957 3.71669 0
M  V30 1660 H 201.732 -1.95704 6.0346 0
M  V30 1661 P 203.589 -1.25109 8.70152 0
M  V30 1662 O 205.011 -1.35274 9.21221 0
M  V30 1663 O 203.229 -0.0769065 7.84762 0
M  V30 1664 O 203.266 -2.55232 7.81161 0
M  V30 1665 C 203.106 -3.79939 8.58154 0
M  V30 1666 C 203.646 -4.94023 7.72785 0
M  V30 1667 O 202.59 -5.18726 6.91205 0
M  V30 1668 C 204.864 -4.69597 6.85231 0
M  V30 1669 O 205.602 -5.83832 6.51337 0
M  V30 1670 C 204.195 -3.96706 5.66633 0
M  V30 1671 O 204.994 -4.15414 4.49689 0
M  V30 1672 C 202.858 -4.66153 5.59313 0
M  V30 1673 H 202.89 -5.47679 4.85214 0
M  V30 1674 H 204.073 -2.89008 5.86566 0
M  V30 1675 H 205.557 -4.0121 7.36511 0
M  V30 1676 H 203.863 -5.80182 8.37584 0
M  V30 1677 H 203.673 -3.73517 9.52265 0
M  V30 1678 H 202.043 -3.97163 8.80359 0
M  V30 1679 H 204.682 -4.90969 4.01921 0
M  V30 1680 P 206.54 -5.75688 6.64379 0
M  V30 1681 O 207.962 -6.11849 7.01846 0
M  V30 1682 O 206.18 -4.30744 6.56026 0
M  V30 1683 O 206.217 -6.37042 5.19165 0
M  V30 1684 C 206.057 -7.83578 5.16515 0
M  V30 1685 C 206.597 -8.33398 3.83019 0
M  V30 1686 O 205.541 -8.10074 3.01034 0
M  V30 1687 C 207.815 -7.65514 3.2257 0
M  V30 1688 O 208.553 -8.4329 2.32297 0
M  V30 1689 C 207.146 -6.40075 2.62207 0
M  V30 1690 O 207.945 -5.92589 1.53712 0
M  V30 1691 C 205.809 -6.9454 2.18503 0
M  V30 1692 H 205.841 -7.23063 1.12091 0
M  V30 1693 H 207.024 -5.6025 3.37201 0
M  V30 1694 H 208.508 -7.35707 4.02681 0
M  V30 1695 H 206.814 -9.40912 3.9095 0
M  V30 1696 H 206.624 -8.29056 5.99158 0
M  V30 1697 H 204.994 -8.10073 5.25882 0
M  V30 1698 H 207.633 -6.30324 0.726794 0
M  V30 1699 P 209.49 -8.4349 2.47671 0
M  V30 1700 O 210.912 -8.94359 2.59696 0
M  V30 1701 O 209.13 -7.1704 3.19006 0
M  V30 1702 O 209.167 -8.16596 0.923387 0
M  V30 1703 C 209.007 -9.38437 0.108857 0
M  V30 1704 C 209.547 -9.08076 -1.28339 0
M  V30 1705 O 208.492 -8.44229 -1.84713 0
M  V30 1706 C 210.765 -8.18386 -1.42505 0
M  V30 1707 O 211.503 -8.3501 -2.60497 0
M  V30 1708 C 210.097 -6.80225 -1.25468 0
M  V30 1709 O 210.895 -5.81526 -1.91035 0
M  V30 1710 C 208.759 -7.02416 -1.9168 0
M  V30 1711 N 207.716 -6.31033 -1.20314 0
M  V30 1712 C 207.778 -6.18781 0.121293 0
M  V30 1713 N 206.733 -5.49762 0.588272 0
M  V30 1714 C 205.999 -5.22015 -0.488988 0
M  V30 1715 C 204.693 -4.61966 -0.596448 0
M  V30 1716 O 203.96 -4.19162 0.309059 0
M  V30 1717 N 204.263 -4.53773 -1.878 0
M  V30 1718 C 205.012 -4.99623 -2.99082 0
M  V30 1719 N 204.415 -4.78912 -4.21227 0
M  V30 1720 N 206.165 -5.59957 -2.91093 0
M  V30 1721 C 206.622 -5.70225 -1.64218 0
M  V30 1722 H 208.791 -6.6888 -2.96621 0
M  V30 1723 H 209.974 -6.53517 -0.192194 0
M  V30 1724 H 211.459 -8.36563 -0.598329 0
M  V30 1725 H 209.764 -10.0291 -1.79807 0
M  V30 1726 H 209.574 -10.2138 0.558219 0
M  V30 1727 H 207.943 -9.6579 0.0444202 0
M  V30 1728 H 203.367 -4.12883 -2.05283 0
M  V30 1729 H 208.574 -6.59596 0.745856 0
M  V30 1730 H 203.504 -4.31425 -4.2628 0
M  V30 1731 H 204.88 -5.11219 -5.07148 0
M  V30 1732 H 210.584 -5.69466 -2.79593 0
M  V30 1733 P 212.441 -8.4349 -2.47671 0
M  V30 1734 O 213.863 -8.92593 -2.65 0
M  V30 1735 O 212.081 -7.7568 -1.19296 0
M  V30 1736 O 212.118 -7.36886 -3.63805 0
M  V30 1737 C 211.958 -7.95349 -4.982 0
M  V30 1738 C 212.498 -6.94612 -5.98974 0
M  V30 1739 O 211.442 -6.10347 -6.11815 0
M  V30 1740 C 213.716 -6.11426 -5.62335 0
M  V30 1741 O 214.454 -5.6162 -6.70584 0
M  V30 1742 C 213.047 -5.04409 -4.73308 0
M  V30 1743 O 213.846 -3.85992 -4.75183 0
M  V30 1744 C 211.71 -4.8728 -5.41006 0
M  V30 1745 H 211.742 -4.02333 -6.11157 0
M  V30 1746 H 212.925 -5.39466 -3.69543 0
M  V30 1747 H 214.409 -6.71916 -5.01943 0
M  V30 1748 H 212.715 -7.4649 -6.93477 0
M  V30 1749 H 212.525 -8.89416 -5.05237 0
M  V30 1750 H 210.895 -8.14876 -5.18409 0
M  V30 1751 H 213.534 -3.27957 -5.4317 0
M  V30 1752 P 215.392 -5.75688 -6.64379 0
M  V30 1753 O 216.814 -6.07627 -7.05504 0
M  V30 1754 O 215.032 -5.88047 -5.19722 0
M  V30 1755 O 215.069 -4.2322 -7.04443 0
M  V30 1756 C 214.909 -3.99743 -8.4911 0
M  V30 1757 C 215.449 -2.60516 -8.79425 0
M  V30 1758 O 214.393 -1.82684 -8.4467 0
M  V30 1759 C 216.667 -2.10343 -8.03628 0
M  V30 1760 O 217.405 -1.09919 -8.67766 0
M  V30 1761 C 215.998 -1.68446 -6.70876 0
M  V30 1762 O 216.797 -0.678137 -6.08433 0
M  V30 1763 C 214.661 -1.17436 -7.18567 0
M  V30 1764 H 214.693 -0.0804732 -7.31656 0
M  V30 1765 H 215.876 -2.54037 -6.02537 0
M  V30 1766 H 217.36 -2.93881 -7.85526 0
M  V30 1767 H 215.666 -2.53065 -9.86973 0
M  V30 1768 H 215.476 -4.75072 -9.05887 0
M  V30 1769 H 213.846 -4.05244 -8.76668 0
M  V30 1770 H 216.485 0.177647 -6.34251 0
M  V30 1771 P 218.342 -1.25109 -8.70152 0
M  V30 1772 O 219.763 -1.29758 -9.22115 0
M  V30 1773 O 217.982 -2.13714 -7.55141 0
M  V30 1774 O 218.019 0.248149 -8.21425 0
M  V30 1775 C 217.858 1.22792 -9.30533 0
M  V30 1776 C 218.399 2.56293 -8.80664 0
M  V30 1777 O 217.344 3.02944 -8.09255 0
M  V30 1778 C 219.617 2.57523 -7.89775 0
M  V30 1779 O 220.355 3.7668 -7.89438 0
M  V30 1780 C 218.949 2.20997 -6.55446 0
M  V30 1781 O 219.747 2.71302 -5.48691 0
M  V30 1782 C 217.611 2.89693 -6.67988 0
M  V30 1783 N 216.568 2.08895 -6.07487 0
M  V30 1784 C 216.737 0.753809 -5.94137 0
M  V30 1785 N 215.71 0.146592 -5.38801 0
M  V30 1786 C 214.825 1.1768 -5.13693 0
M  V30 1787 C 213.558 1.17563 -4.52477 0
M  V30 1788 N 212.993 2.41918 -4.45789 0
M  V30 1789 C 213.595 3.56493 -4.90792 0
M  V30 1790 N 214.772 3.61423 -5.47817 0
M  V30 1791 C 215.347 2.37779 -5.5588 0
M  V30 1792 H 218.826 1.12673 -6.44018 0
M  V30 1793 H 220.309 1.7746 -8.19711 0
M  V30 1794 H 218.615 3.21673 -9.66791 0
M  V30 1795 H 218.425 0.901032 -10.1892 0
M  V30 1796 H 216.795 1.33049 -9.56592 0
M  V30 1797 H 217.637 0.233081 -6.26266 0
M  V30 1798 H 219.435 3.5779 -5.23879 0
M  V30 1799 P 221.293 3.65191 -7.99657 0
M  V30 1800 O 222.715 3.89332 -8.45794 0
M  V30 1801 O 220.933 2.28472 -7.50807 0
M  V30 1802 O 220.97 4.64972 -6.77611 0
M  V30 1803 C 220.81 6.06319 -7.16352 0
M  V30 1804 C 221.35 6.91731 -6.02299 0
M  V30 1805 O 220.294 6.92449 -5.17064 0
M  V30 1806 C 222.568 6.43627 -5.25174 0
M  V30 1807 O 223.306 7.43686 -4.60469 0
M  V30 1808 C 221.899 5.40275 -4.31916 0
M  V30 1809 O 222.698 5.25279 -3.14438 0
M  V30 1810 C 220.562 6.04847 -4.05327 0
M  V30 1811 H 220.594 6.62195 -3.11261 0
M  V30 1812 H 221.777 4.42556 -4.81383 0
M  V30 1813 H 223.261 5.92458 -5.93643 0
M  V30 1814 H 221.567 7.92655 -6.402 0
M  V30 1815 H 221.377 6.26671 -8.0846 0
M  V30 1816 H 219.747 6.29101 -7.32804 0
M  V30 1817 H 222.386 5.84315 -2.47318 0
M  V30 1818 P 224.243 7.39546 -4.75277 0
M  V30 1819 O 225.665 7.84798 -5.01039 0
M  V30 1820 O 223.883 5.9812 -5.08098 0
M  V30 1821 O 223.92 7.57503 -3.1866 0
M  V30 1822 C 223.76 8.97357 -2.74833 0
M  V30 1823 C 224.3 9.07548 -1.32709 0
M  V30 1824 O 223.244 8.62072 -0.606159 0
M  V30 1825 C 225.518 8.25383 -0.938334 0
M  V30 1826 O 226.256 8.74577 0.146954 0
M  V30 1827 C 224.849 6.8802 -0.712559 0
M  V30 1828 O 225.648 6.1189 0.194655 0
M  V30 1829 C 223.512 7.27966 -0.139777 0
M  V30 1830 H 223.544 7.25354 0.961601 0
M  V30 1831 H 224.727 6.32557 -1.65702 0
M  V30 1832 H 226.211 8.19355 -1.79097 0
M  V30 1833 H 224.517 10.1294 -1.10029 0
M  V30 1834 H 224.327 9.64276 -3.41316 0
M  V30 1835 H 222.697 9.25417 -2.76357 0
M  V30 1836 H 225.336 6.25267 1.07847 0
M  V30 1837 P 227.194 8.791 4.22174e-13 0
M  V30 1838 O 228.616 9.31096 0.027933 0
M  V30 1839 O 226.834 7.77869 -1.04071 0
M  V30 1840 O 226.871 8.09533 1.41463 0
M  V30 1841 C 226.711 9.0349 2.53943 0
M  V30 1842 C 227.251 8.35226 3.79016 0
M  V30 1843 O 226.195 7.57992 4.15078 0
M  V30 1844 C 228.469 7.45087 3.67298 0
M  V30 1845 O 229.207 7.27796 4.85194 0
M  V30 1846 C 227.8 6.17323 3.12027 0
M  V30 1847 O 228.599 5.04231 3.47188 0
M  V30 1848 C 226.463 6.19961 3.81809 0
M  V30 1849 H 226.495 5.58218 4.73051 0
M  V30 1850 H 227.678 6.21726 2.02589 0
M  V30 1851 H 229.162 7.86112 2.9231 0
M  V30 1852 H 227.468 9.11627 4.55076 0
M  V30 1853 H 227.278 9.9573 2.34194 0
M  V30 1854 H 225.648 9.2792 2.67832 0
M  V30 1855 H 228.287 4.67702 4.28772 0
M  V30 1856 P 230.144 7.39546 4.75277 0
M  V30 1857 O 231.565 7.81861 5.05793 0
M  V30 1858 O 229.784 7.1065 3.32998 0
M  V30 1859 O 229.821 6.04542 5.56673 0
M  V30 1860 C 229.66 6.22839 7.02169 0
M  V30 1861 C 230.201 4.97725 7.70406 0
M  V30 1862 O 229.146 4.13208 7.58899 0
M  V30 1863 C 231.419 4.28231 7.11815 0
M  V30 1864 O 232.157 3.49945 8.01648 0
M  V30 1865 C 230.751 3.5063 5.96244 0
M  V30 1866 O 231.549 2.37008 5.64352 0
M  V30 1867 C 229.413 3.15122 6.56374 0
M  V30 1868 N 228.37 3.22311 5.55692 0
M  V30 1869 C 228.539 3.99655 4.46046 0
M  V30 1870 N 227.512 3.97599 3.63918 0
M  V30 1871 C 226.627 3.11159 4.25334 0
M  V30 1872 C 225.36 2.64972 3.85157 0
M  V30 1873 N 224.795 1.78482 4.74759 0
M  V30 1874 C 225.397 1.37463 5.90819 0
M  V30 1875 N 226.574 1.7733 6.31889 0
M  V30 1876 C 227.149 2.64393 5.43725 0
M  V30 1877 H 230.628 4.12931 5.06895 0
M  V30 1878 H 232.111 5.03285 6.70911 0
M  V30 1879 H 230.417 5.20001 8.76217 0
M  V30 1880 H 230.227 7.11046 7.35349 0
M  V30 1881 H 228.597 6.35815 7.26986 0
M  V30 1882 H 229.439 4.58037 4.27732 0
M  V30 1883 H 231.237 1.61619 6.13468 0
M  V30 1884 P 233.095 3.65191 7.99657 0
M  V30 1885 O 234.517 3.8425 8.48115 0
M  V30 1886 O 232.735 4.17805 6.64342 0
M  V30 1887 O 232.772 2.07613 7.95143 0
M  V30 1888 C 232.612 1.44328 9.27336 0
M  V30 1889 C 233.152 0.0220036 9.17197 0
M  V30 1890 O 232.096 -0.626867 8.61923 0
M  V30 1891 C 234.37 -0.24586 8.30336 0
M  V30 1892 O 235.108 -1.39011 8.63583 0
M  V30 1893 C 233.701 -0.273849 6.91158 0
M  V30 1894 O 234.5 -1.06348 6.02892 0
M  V30 1895 C 232.364 -0.897649 7.22545 0
M  V30 1896 H 232.396 -1.9841 7.04286 0
M  V30 1897 H 233.579 0.739928 6.497 0
M  V30 1898 H 235.063 0.60668 8.36503 0
M  V30 1899 H 233.369 -0.352479 10.1829 0
M  V30 1900 H 233.179 2.00611 10.0304 0
M  V30 1901 H 231.549 1.41843 9.55327 0
M  V30 1902 H 234.188 -1.95734 6.03555 0
M  V30 1903 P 236.046 -1.25109 8.70152 0
M  V30 1904 O 237.468 -1.35303 9.21419 0
M  V30 1905 O 235.686 -0.0769065 7.84762 0
M  V30 1906 O 235.723 -2.55232 7.81161 0
M  V30 1907 C 235.563 -3.79939 8.58154 0
M  V30 1908 C 236.103 -4.93969 7.72701 0
M  V30 1909 O 235.048 -5.18726 6.91205 0
M  V30 1910 C 237.321 -4.69597 6.85231 0
M  V30 1911 O 238.059 -5.83832 6.51337 0
M  V30 1912 C 236.653 -3.96706 5.66633 0
M  V30 1913 O 237.451 -4.15346 4.49615 0
M  V30 1914 C 235.315 -4.66153 5.59313 0
M  V30 1915 N 234.272 -3.71582 5.24027 0
M  V30 1916 C 234.334 -2.46018 5.67902 0
M  V30 1917 N 233.289 -1.74868 5.24518 0
M  V30 1918 C 232.555 -2.61333 4.54528 0
M  V30 1919 C 231.249 -2.46162 3.95441 0
M  V30 1920 O 230.516 -1.46013 3.94122 0
M  V30 1921 N 230.819 -3.59334 3.34752 0
M  V30 1922 C 231.568 -4.79605 3.3023 0
M  V30 1923 N 230.971 -5.82109 2.6065 0
M  V30 1924 N 232.721 -4.97402 3.8843 0
M  V30 1925 C 233.178 -3.86258 4.50476 0
M  V30 1926 H 235.347 -5.47679 4.85214 0
M  V30 1927 H 236.53 -2.88964 5.86476 0
M  V30 1928 H 238.015 -4.01947 7.36109 0
M  V30 1929 H 236.32 -5.80182 8.37584 0
M  V30 1930 H 236.13 -3.73517 9.52265 0
M  V30 1931 H 234.499 -3.97163 8.80359 0
M  V30 1932 H 229.923 -3.5825 2.90294 0
M  V30 1933 H 235.13 -2.06161 6.30974 0
M  V30 1934 H 230.06 -5.66979 2.15354 0
M  V30 1935 H 231.436 -6.73686 2.54344 0
M  V30 1936 H 237.14 -4.90891 4.01857 0
M  V30 1937 P 238.996 -5.75688 6.64379 0
M  V30 1938 O 240.418 -6.11849 7.01846 0
M  V30 1939 O 238.636 -4.30744 6.56026 0
M  V30 1940 O 238.673 -6.37042 5.19165 0
M  V30 1941 C 238.513 -7.83578 5.16515 0
M  V30 1942 C 239.053 -8.33398 3.83019 0
M  V30 1943 O 237.997 -8.10074 3.01034 0
M  V30 1944 C 240.271 -7.65514 3.2257 0
M  V30 1945 O 241.009 -8.4329 2.32297 0
M  V30 1946 C 239.602 -6.40075 2.62207 0
M  V30 1947 O 240.401 -5.92589 1.53712 0
M  V30 1948 C 238.265 -6.9454 2.18503 0
M  V30 1949 H 238.297 -7.23063 1.12091 0
M  V30 1950 H 239.48 -5.6025 3.37201 0
M  V30 1951 H 240.964 -7.35707 4.02681 0
M  V30 1952 H 239.27 -9.40912 3.9095 0
M  V30 1953 H 239.08 -8.29056 5.99158 0
M  V30 1954 H 237.45 -8.10073 5.25882 0
M  V30 1955 H 240.089 -6.30324 0.726794 0
M  V30 1956 P 241.947 -8.4349 2.47671 0
M  V30 1957 O 243.369 -8.94167 2.5964 0
M  V30 1958 O 241.587 -7.1704 3.19006 0
M  V30 1959 O 241.624 -8.16596 0.923387 0
M  V30 1960 C 241.464 -9.38437 0.108857 0
M  V30 1961 C 242.004 -9.08175 -1.28353 0
M  V30 1962 O 240.948 -8.44229 -1.84713 0
M  V30 1963 C 243.222 -8.18386 -1.42505 0
M  V30 1964 O 243.96 -8.3501 -2.60497 0
M  V30 1965 C 242.553 -6.80225 -1.25468 0
M  V30 1966 O 243.352 -5.81621 -1.91066 0
M  V30 1967 C 241.216 -7.02416 -1.9168 0
M  V30 1968 H 241.248 -6.6888 -2.96621 0
M  V30 1969 H 242.431 -6.53617 -0.192223 0
M  V30 1970 H 243.915 -8.36622 -0.589963 0
M  V30 1971 H 242.221 -10.0291 -1.79807 0
M  V30 1972 H 242.031 -10.2138 0.558219 0
M  V30 1973 H 240.401 -9.6579 0.0444202 0
M  V30 1974 H 243.04 -5.69556 -2.79637 0
M  V30 1975 P 244.897 -8.4349 -2.47671 0
M  V30 1976 O 246.318 -8.92689 -2.65029 0
M  V30 1977 O 244.537 -7.7568 -1.19296 0
M  V30 1978 O 244.574 -7.36886 -3.63805 0
M  V30 1979 C 244.413 -7.95433 -4.98253 0
M  V30 1980 C 244.954 -6.94612 -5.98974 0
M  V30 1981 O 243.899 -6.10277 -6.11744 0
M  V30 1982 C 246.172 -6.11426 -5.62335 0
M  V30 1983 O 246.91 -5.6162 -6.70584 0
M  V30 1984 C 245.504 -5.04409 -4.73308 0
M  V30 1985 O 246.302 -3.86404 -4.74719 0
M  V30 1986 C 244.166 -4.8728 -5.41006 0
M  V30 1987 N 243.123 -4.65812 -4.42377 0
M  V30 1988 C 243.292 -5.09132 -3.15382 0
M  V30 1989 N 242.265 -4.84021 -2.3716 0
M  V30 1990 C 241.38 -4.18386 -3.20441 0
M  V30 1991 C 240.113 -3.6275 -2.94905 0
M  V30 1992 N 239.548 -3.05008 -4.05243 0
M  V30 1993 C 240.15 -2.98348 -5.28159 0
M  V30 1994 N 241.327 -3.48171 -5.56333 0
M  V30 1995 C 241.902 -4.06869 -4.47212 0
M  V30 1996 H 245.381 -5.39013 -3.70026 0
M  V30 1997 H 246.864 -6.71916 -5.01943 0
M  V30 1998 H 245.17 -7.45796 -6.94223 0
M  V30 1999 H 244.98 -8.89416 -5.05237 0
M  V30 2000 H 243.35 -8.14876 -5.18409 0
M  V30 2001 H 244.192 -5.59989 -2.81362 0
M  V30 2002 H 245.99 -3.27906 -5.43085 0
M  V30 2003 P 247.848 -5.75688 -6.64379 0
M  V30 2004 O 249.27 -6.07758 -7.05656 0
M  V30 2005 O 247.488 -5.88047 -5.19722 0
M  V30 2006 O 247.525 -4.2322 -7.04443 0
M  V30 2007 C 247.365 -3.99743 -8.4911 0
M  V30 2008 C 247.905 -2.60487 -8.79329 0
M  V30 2009 O 246.85 -1.82684 -8.4467 0
M  V30 2010 C 249.123 -2.10343 -8.03628 0
M  V30 2011 O 249.861 -1.09919 -8.67766 0
M  V30 2012 C 248.455 -1.68446 -6.70876 0
M  V30 2013 O 249.253 -0.678026 -6.08333 0
M  V30 2014 C 247.117 -1.17436 -7.18567 0
M  V30 2015 N 246.074 -1.52699 -6.23988 0
M  V30 2016 C 246.136 -2.68084 -5.57824 0
M  V30 2017 N 245.091 -2.8189 -4.75643 0
M  V30 2018 C 244.357 -1.72373 -4.95155 0
M  V30 2019 C 243.051 -1.37653 -4.44996 0
M  V30 2020 O 242.318 -2.02239 -3.68445 0
M  V30 2021 N 242.621 -0.17675 -4.90782 0
M  V30 2022 C 243.37 0.645036 -5.78716 0
M  V30 2023 N 242.773 1.84214 -6.10618 0
M  V30 2024 N 244.523 0.321732 -6.30279 0
M  V30 2025 C 244.98 -0.87502 -5.86913 0
M  V30 2026 H 247.149 -0.0804732 -7.31656 0
M  V30 2027 H 248.332 -2.53998 -6.02444 0
M  V30 2028 H 249.817 -2.93095 -7.8582 0
M  V30 2029 H 248.122 -2.53065 -9.86973 0
M  V30 2030 H 247.932 -4.75072 -9.05887 0
M  V30 2031 H 246.301 -4.05244 -8.76668 0
M  V30 2032 H 241.725 0.152143 -4.60849 0
M  V30 2033 H 246.932 -3.41852 -5.69006 0
M  V30 2034 H 241.862 2.08538 -5.69521 0
M  V30 2035 H 243.238 2.4895 -6.75698 0
M  V30 2036 H 248.942 0.177619 -6.34151 0
M  V30 2037 P 250.798 -1.25109 -8.70152 0
M  V30 2038 O 252.22 -1.29772 -9.22214 0
M  V30 2039 O 250.438 -2.13714 -7.55141 0
M  V30 2040 O 250.475 0.248149 -8.21425 0
M  V30 2041 C 250.315 1.22779 -9.30434 0
M  V30 2042 C 250.855 2.56265 -8.80568 0
M  V30 2043 O 249.8 3.02979 -8.09349 0
M  V30 2044 C 252.073 2.57523 -7.89775 0
M  V30 2045 O 252.811 3.7668 -7.89438 0
M  V30 2046 C 251.405 2.20997 -6.55446 0
M  V30 2047 O 252.203 2.71851 -5.48419 0
M  V30 2048 C 250.067 2.89693 -6.67988 0
M  V30 2049 N 249.024 2.08895 -6.07487 0
M  V30 2050 C 249.086 0.760559 -6.14209 0
M  V30 2051 N 248.041 0.200108 -5.52538 0
M  V30 2052 C 247.307 1.22692 -5.09742 0
M  V30 2053 C 246.001 1.24782 -4.48775 0
M  V30 2054 O 245.268 0.290617 -4.19294 0
M  V30 2055 N 245.571 2.50468 -4.22428 0
M  V30 2056 C 246.32 3.67142 -4.51974 0
M  V30 2057 N 245.723 4.85096 -4.14091 0
M  V30 2058 N 247.473 3.67821 -5.12831 0
M  V30 2059 C 247.93 2.43698 -5.4105 0
M  V30 2060 H 250.099 3.88793 -6.19859 0
M  V30 2061 H 251.282 1.12029 -6.4413 0
M  V30 2062 H 252.767 1.78279 -8.19533 0
M  V30 2063 H 251.072 3.20706 -9.67112 0
M  V30 2064 H 250.882 0.901032 -10.1892 0
M  V30 2065 H 249.251 1.33049 -9.56592 0
M  V30 2066 H 244.675 2.61953 -3.79465 0
M  V30 2067 H 249.882 0.200439 -6.63497 0
M  V30 2068 H 244.812 4.8334 -3.66367 0
M  V30 2069 H 246.188 5.7474 -4.33841 0
M  V30 2070 H 251.892 3.5779 -5.23879 0
M  V30 2071 P 253.749 3.65191 -7.99657 0
M  V30 2072 O 255.171 3.89332 -8.45794 0
M  V30 2073 O 253.389 2.28472 -7.50807 0
M  V30 2074 O 253.426 4.64972 -6.77611 0
M  V30 2075 C 253.266 6.06319 -7.16352 0
M  V30 2076 C 253.806 6.91731 -6.02299 0
M  V30 2077 O 252.75 6.92449 -5.17064 0
M  V30 2078 C 255.024 6.43627 -5.25174 0
M  V30 2079 O 255.762 7.43686 -4.60469 0
M  V30 2080 C 254.355 5.40275 -4.31916 0
M  V30 2081 O 255.154 5.25279 -3.14438 0
M  V30 2082 C 253.018 6.04847 -4.05327 0
M  V30 2083 H 253.05 6.62195 -3.11261 0
M  V30 2084 H 254.233 4.42556 -4.81383 0
M  V30 2085 H 255.717 5.92458 -5.93643 0
M  V30 2086 H 254.023 7.92655 -6.402 0
M  V30 2087 H 253.833 6.26671 -8.0846 0
M  V30 2088 H 252.203 6.29101 -7.32804 0
M  V30 2089 H 254.842 5.84315 -2.47318 0
M  V30 2090 P 256.7 7.39546 -4.75277 0
M  V30 2091 O 258.101 7.86988 -5.07993 0
M  V30 2092 O 256.322 5.99957 -5.13804 0
M  V30 2093 O 256.377 7.57411 -3.18621 0
M  V30 2094 C 256.217 8.97357 -2.74833 0
M  V30 2095 C 256.757 9.0745 -1.32694 0
M  V30 2096 O 255.701 8.61972 -0.606089 0
M  V30 2097 C 257.974 8.25383 -0.938334 0
M  V30 2098 O 258.713 8.74577 0.146954 0
M  V30 2099 C 257.307 6.8802 -0.712559 0
M  V30 2100 O 258.105 6.11791 0.194623 0
M  V30 2101 C 255.969 7.27966 -0.139777 0
M  V30 2102 N 254.926 6.39368 -0.623421 0
M  V30 2103 C 253.891 6.08088 0.223886 0
M  V30 2104 O 253.93 6.5102 1.39986 0
M  V30 2105 N 252.879 5.30627 -0.224051 0
M  V30 2106 C 252.927 4.82531 -1.47257 0
M  V30 2107 C 254.023 5.09974 -2.34008 0
M  V30 2108 C 254.989 5.89548 -1.87678 0
M  V30 2109 H 256.001 7.25255 0.961469 0
M  V30 2110 H 257.184 6.32625 -1.65044 0
M  V30 2111 H 258.668 8.19631 -1.78299 0
M  V30 2112 H 256.974 10.1305 -1.09016 0
M  V30 2113 H 256.783 9.64276 -3.41316 0
M  V30 2114 H 255.153 9.25321 -2.76328 0
M  V30 2115 H 254.071 4.67832 -3.3413 0
M  V30 2116 H 255.835 6.14434 -2.51991 0
M  V30 2117 H 257.889 6.35931 1.08377 0
M  V30 2118 P 259.65 8.791 7.3234e-13 0
M  V30 2119 O 261.071 9.31196 0.027936 0
M  V30 2120 O 259.29 7.77869 -1.04071 0
M  V30 2121 O 259.327 8.09533 1.41463 0
M  V30 2122 C 259.166 9.03587 2.5397 0
M  V30 2123 C 259.707 8.35226 3.79016 0
M  V30 2124 O 258.652 7.57904 4.1503 0
M  V30 2125 C 260.925 7.45087 3.67298 0
M  V30 2126 O 261.663 7.27796 4.85194 0
M  V30 2127 C 260.257 6.17323 3.12027 0
M  V30 2128 O 261.055 5.04496 3.46627 0
M  V30 2129 C 258.919 6.19961 3.81809 0
M  V30 2130 N 257.876 5.71575 2.93223 0
M  V30 2131 C 258.045 5.77362 1.59168 0
M  V30 2132 N 257.018 5.3123 0.911893 0
M  V30 2133 C 256.133 4.91717 1.89588 0
M  V30 2134 C 254.866 4.3114 1.8076 0
M  V30 2135 N 254.301 4.06823 3.02898 0
M  V30 2136 C 254.903 4.35062 4.22711 0
M  V30 2137 N 256.08 4.90805 4.35707 0
M  V30 2138 C 256.655 5.16382 3.14469 0
M  V30 2139 H 260.134 6.21428 2.0318 0
M  V30 2140 H 261.617 7.86112 2.9231 0
M  V30 2141 H 259.923 9.11171 4.55987 0
M  V30 2142 H 259.733 9.9573 2.34194 0
M  V30 2143 H 258.103 9.2792 2.67832 0
M  V30 2144 H 258.945 6.16575 1.12198 0
M  V30 2145 H 260.743 4.67628 4.28704 0
M  V30 2146 P 262.601 7.39546 4.75277 0
M  V30 2147 O 264.023 7.81777 5.05738 0
M  V30 2148 O 262.241 7.1065 3.32998 0
M  V30 2149 O 262.278 6.04542 5.56673 0
M  V30 2150 C 262.118 6.22772 7.02095 0
M  V30 2151 C 262.658 4.97725 7.70406 0
M  V30 2152 O 261.602 4.13256 7.58987 0
M  V30 2153 C 263.876 4.28231 7.11815 0
M  V30 2154 O 264.614 3.49945 8.01648 0
M  V30 2155 C 263.207 3.5063 5.96244 0
M  V30 2156 O 264.006 2.36482 5.64681 0
M  V30 2157 C 261.87 3.15122 6.56374 0
M  V30 2158 H 261.902 2.13853 6.99751 0
M  V30 2159 H 263.085 4.13501 5.06559 0
M  V30 2160 H 264.569 5.03285 6.70911 0
M  V30 2161 H 262.875 5.20877 8.75697 0
M  V30 2162 H 262.685 7.11046 7.35349 0
M  V30 2163 H 261.055 6.35815 7.26986 0
M  V30 2164 H 263.694 1.61644 6.13565 0
M  V30 2165 P 265.551 3.65191 7.99657 0
M  V30 2166 O 266.972 3.84292 8.48206 0
M  V30 2167 O 265.191 4.17805 6.64342 0
M  V30 2168 O 265.228 2.07613 7.95143 0
M  V30 2169 C 265.067 1.44344 9.27435 0
M  V30 2170 C 265.608 0.0220036 9.17197 0
M  V30 2171 O 264.553 -0.626794 8.61824 0
M  V30 2172 C 266.826 -0.24586 8.30336 0
M  V30 2173 O 267.564 -1.39011 8.63583 0
M  V30 2174 C 266.158 -0.273849 6.91158 0
M  V30 2175 O 266.956 -1.05728 6.029 0
M  V30 2176 C 264.82 -0.897649 7.22545 0
M  V30 2177 N 263.777 -0.292839 6.41732 0
M  V30 2178 C 263.946 0.950603 5.91308 0
M  V30 2179 N 262.919 1.37732 5.21105 0
M  V30 2180 C 262.034 0.318109 5.26039 0
M  V30 2181 C 260.767 0.146766 4.6727 0
M  V30 2182 N 260.168 1.08519 3.89983 0
M  V30 2183 N 260.202 -1.06525 4.95887 0
M  V30 2184 C 260.804 -2.0378 5.71347 0
M  V30 2185 N 261.981 -1.92445 6.27451 0
M  V30 2186 C 262.556 -0.715382 6.00353 0
M  V30 2187 H 264.852 -1.98383 7.04189 0
M  V30 2188 H 266.035 0.733318 6.49674 0
M  V30 2189 H 267.518 0.60668 8.36503 0
M  V30 2190 H 265.824 -0.362662 10.1825 0
M  V30 2191 H 265.634 2.00611 10.0304 0
M  V30 2192 H 264.004 1.41843 9.55327 0
M  V30 2193 H 260.268 -2.97041 5.85344 0
M  V30 2194 H 264.846 1.54076 6.07465 0
M  V30 2195 H 259.238 0.901517 3.49562 0
M  V30 2196 H 260.642 1.97957 3.71669 0
M  V30 2197 H 266.644 -1.95704 6.0346 0
M  V30 2198 P 268.502 -1.25109 8.70152 0
M  V30 2199 O 269.924 -1.35274 9.21221 0
M  V30 2200 O 268.142 -0.0769065 7.84762 0
M  V30 2201 O 268.179 -2.55232 7.81161 0
M  V30 2202 C 268.019 -3.79939 8.58154 0
M  V30 2203 C 268.559 -4.94023 7.72785 0
M  V30 2204 O 267.503 -5.18726 6.91205 0
M  V30 2205 C 269.777 -4.69597 6.85231 0
M  V30 2206 O 270.515 -5.83832 6.51337 0
M  V30 2207 C 269.108 -3.96706 5.66633 0
M  V30 2208 O 269.907 -4.15414 4.49689 0
M  V30 2209 C 267.771 -4.66153 5.59313 0
M  V30 2210 H 267.803 -5.47679 4.85214 0
M  V30 2211 H 268.986 -2.89008 5.86566 0
M  V30 2212 H 270.47 -4.0121 7.36511 0
M  V30 2213 H 268.776 -5.80182 8.37584 0
M  V30 2214 H 268.586 -3.73517 9.52265 0
M  V30 2215 H 266.956 -3.97163 8.80359 0
M  V30 2216 H 269.595 -4.90969 4.01921 0
M  V30 2217 P 271.452 -5.75688 6.64379 0
M  V30 2218 O 272.874 -6.11981 7.01997 0
M  V30 2219 O 271.092 -4.30744 6.56026 0
M  V30 2220 O 271.129 -6.37042 5.19165 0
M  V30 2221 C 270.969 -7.83578 5.16515 0
M  V30 2222 C 271.509 -8.33307 3.82977 0
M  V30 2223 O 270.454 -8.10074 3.01034 0
M  V30 2224 C 272.727 -7.65514 3.2257 0
M  V30 2225 O 273.465 -8.4329 2.32297 0
M  V30 2226 C 272.059 -6.40075 2.62207 0
M  V30 2227 O 272.857 -5.92492 1.53687 0
M  V30 2228 C 270.721 -6.9454 2.18503 0
M  V30 2229 N 269.678 -5.95905 2.39948 0
M  V30 2230 C 269.74 -5.13994 3.44742 0
M  V30 2231 N 268.695 -4.30684 3.46712 0
M  V30 2232 C 267.961 -4.65583 2.41086 0
M  V30 2233 C 266.655 -4.20877 1.99581 0
M  V30 2234 O 265.922 -3.35913 2.52616 0
M  V30 2235 N 266.225 -4.83271 0.873406 0
M  V30 2236 C 266.974 -5.82006 0.185129 0
M  V30 2237 N 266.377 -6.30619 -0.95439 0
M  V30 2238 N 268.127 -6.28443 0.578524 0
M  V30 2239 C 268.584 -5.68486 1.70138 0
M  V30 2240 H 270.753 -7.23063 1.12091 0
M  V30 2241 H 271.936 -5.60165 3.3715 0
M  V30 2242 H 273.421 -7.3611 4.01946 0
M  V30 2243 H 271.726 -9.40912 3.9095 0
M  V30 2244 H 271.536 -8.29056 5.99158 0
M  V30 2245 H 269.905 -8.10073 5.25882 0
M  V30 2246 H 265.329 -4.58323 0.505262 0
M  V30 2247 H 270.536 -5.14564 4.1935 0
M  V30 2248 H 265.466 -5.93402 -1.25364 0
M  V30 2249 H 266.842 -7.0425 -1.50254 0
M  V30 2250 H 272.546 -6.30224 0.72668 0
M  V30 2251 P 274.403 -8.4349 2.47671 0
M  V30 2252 O 275.825 -8.94167 2.5964 0
M  V30 2253 O 274.043 -7.1704 3.19006 0
M  V30 2254 O 274.08 -8.16596 0.923387 0
M  V30 2255 C 273.92 -9.38437 0.108857 0
M  V30 2256 C 274.46 -9.08175 -1.28353 0
M  V30 2257 O 273.404 -8.44229 -1.84713 0
M  V30 2258 C 275.678 -8.18386 -1.42505 0
M  V30 2259 O 276.416 -8.3501 -2.60497 0
M  V30 2260 C 275.009 -6.80225 -1.25468 0
M  V30 2261 O 275.808 -5.81621 -1.91066 0
M  V30 2262 C 273.672 -7.02416 -1.9168 0
M  V30 2263 H 273.704 -6.6888 -2.96621 0
M  V30 2264 H 274.887 -6.53617 -0.192223 0
M  V30 2265 H 276.371 -8.36622 -0.589963 0
M  V30 2266 H 274.677 -10.0291 -1.79807 0
M  V30 2267 H 274.487 -10.2138 0.558219 0
M  V30 2268 H 272.857 -9.6579 0.0444202 0
M  V30 2269 H 275.496 -5.69556 -2.79637 0
M  V30 2270 P 277.354 -8.4349 -2.47671 0
M  V30 2271 O 278.775 -8.92689 -2.65029 0
M  V30 2272 O 276.994 -7.7568 -1.19296 0
M  V30 2273 O 277.031 -7.36886 -3.63805 0
M  V30 2274 C 276.87 -7.95433 -4.98253 0
M  V30 2275 C 277.411 -6.94612 -5.98974 0
M  V30 2276 O 276.356 -6.10277 -6.11744 0
M  V30 2277 C 278.629 -6.11426 -5.62335 0
M  V30 2278 O 279.367 -5.6162 -6.70584 0
M  V30 2279 C 277.961 -5.04409 -4.73308 0
M  V30 2280 O 278.759 -3.86404 -4.74719 0
M  V30 2281 C 276.623 -4.8728 -5.41006 0
M  V30 2282 N 275.58 -4.65812 -4.42377 0
M  V30 2283 C 275.749 -5.09132 -3.15382 0
M  V30 2284 N 274.722 -4.84021 -2.3716 0
M  V30 2285 C 273.837 -4.18386 -3.20441 0
M  V30 2286 C 272.57 -3.6275 -2.94905 0
M  V30 2287 N 271.971 -3.65794 -1.73372 0
M  V30 2288 N 272.005 -3.05008 -4.05243 0
M  V30 2289 C 272.607 -2.98348 -5.28159 0
M  V30 2290 N 273.784 -3.48171 -5.56333 0
M  V30 2291 C 274.359 -4.06869 -4.47212 0
M  V30 2292 H 276.655 -4.02278 -6.11074 0
M  V30 2293 H 277.838 -5.39013 -3.70026 0
M  V30 2294 H 279.321 -6.71916 -5.01943 0
M  V30 2295 H 277.627 -7.45796 -6.94223 0
M  V30 2296 H 277.437 -8.89416 -5.05237 0
M  V30 2297 H 275.807 -8.14876 -5.18409 0
M  V30 2298 H 272.071 -2.47853 -6.07807 0
M  V30 2299 H 276.649 -5.59989 -2.81362 0
M  V30 2300 H 271.041 -3.23218 -1.60782 0
M  V30 2301 H 272.445 -4.10523 -0.937856 0
M  V30 2302 H 278.447 -3.27906 -5.43085 0
M  V30 2303 P 280.304 -5.75688 -6.64379 0
M  V30 2304 O 281.726 -6.07758 -7.05656 0
M  V30 2305 O 279.944 -5.88047 -5.19722 0
M  V30 2306 O 279.981 -4.2322 -7.04443 0
M  V30 2307 C 279.821 -3.99743 -8.4911 0
M  V30 2308 C 280.361 -2.60487 -8.79329 0
M  V30 2309 O 279.306 -1.82684 -8.4467 0
M  V30 2310 C 281.579 -2.10343 -8.03628 0
M  V30 2311 O 282.317 -1.09919 -8.67766 0
M  V30 2312 C 280.911 -1.68446 -6.70876 0
M  V30 2313 O 281.709 -0.678026 -6.08333 0
M  V30 2314 C 279.573 -1.17436 -7.18567 0
M  V30 2315 N 278.53 -1.52699 -6.23988 0
M  V30 2316 C 278.592 -2.68084 -5.57824 0
M  V30 2317 N 277.547 -2.8189 -4.75643 0
M  V30 2318 C 276.813 -1.72373 -4.95155 0
M  V30 2319 C 275.507 -1.37653 -4.44996 0
M  V30 2320 O 274.774 -2.02239 -3.68445 0
M  V30 2321 N 275.077 -0.17675 -4.90782 0
M  V30 2322 C 275.826 0.645036 -5.78716 0
M  V30 2323 N 275.229 1.84214 -6.10618 0
M  V30 2324 N 276.979 0.321732 -6.30279 0
M  V30 2325 C 277.436 -0.87502 -5.86913 0
M  V30 2326 H 279.605 -0.0804732 -7.31656 0
M  V30 2327 H 280.788 -2.53998 -6.02444 0
M  V30 2328 H 282.273 -2.93095 -7.8582 0
M  V30 2329 H 280.578 -2.53065 -9.86973 0
M  V30 2330 H 280.388 -4.75072 -9.05887 0
M  V30 2331 H 278.757 -4.05244 -8.76668 0
M  V30 2332 H 274.181 0.152143 -4.60849 0
M  V30 2333 H 279.388 -3.41852 -5.69006 0
M  V30 2334 H 274.318 2.08538 -5.69521 0
M  V30 2335 H 275.694 2.4895 -6.75698 0
M  V30 2336 H 281.398 0.177619 -6.34151 0
M  V30 2337 P 283.255 -1.25109 -8.70152 0
M  V30 2338 O 284.677 -1.29744 -9.22016 0
M  V30 2339 O 282.895 -2.13714 -7.55141 0
M  V30 2340 O 282.932 0.248149 -8.21425 0
M  V30 2341 C 282.772 1.22779 -9.30434 0
M  V30 2342 C 283.312 2.56293 -8.80664 0
M  V30 2343 O 282.256 3.02979 -8.09349 0
M  V30 2344 C 284.53 2.57523 -7.89775 0
M  V30 2345 O 285.268 3.7668 -7.89438 0
M  V30 2346 C 283.861 2.20997 -6.55446 0
M  V30 2347 O 284.66 2.71895 -5.48509 0
M  V30 2348 C 282.524 2.89693 -6.67988 0
M  V30 2349 H 282.556 3.88793 -6.19859 0
M  V30 2350 H 283.739 1.12046 -6.44229 0
M  V30 2351 H 285.223 1.7746 -8.19711 0
M  V30 2352 H 283.529 3.20706 -9.67112 0
M  V30 2353 H 283.339 0.901032 -10.1892 0
M  V30 2354 H 281.709 1.33049 -9.56592 0
M  V30 2355 H 284.348 3.57847 -5.23962 0
M  V30 2356 P 286.205 3.65191 -7.99657 0
M  V30 2357 O 287.606 3.87414 -8.52829 0
M  V30 2358 O 285.827 2.26932 -7.566 0
M  V30 2359 O 285.882 4.64915 -6.77529 0
M  V30 2360 C 285.722 6.06319 -7.16352 0
M  V30 2361 C 286.262 6.91655 -6.02234 0
M  V30 2362 O 285.206 6.92369 -5.17005 0
M  V30 2363 C 287.479 6.43627 -5.25174 0
M  V30 2364 O 288.218 7.43686 -4.60469 0
M  V30 2365 C 286.812 5.40275 -4.31916 0
M  V30 2366 O 287.61 5.25193 -3.14386 0
M  V30 2367 C 285.474 6.04847 -4.05327 0
M  V30 2368 N 284.431 5.04166 -3.98114 0
M  V30 2369 C 283.396 5.2366 -3.09923 0
M  V30 2370 O 283.435 6.23355 -2.34204 0
M  V30 2371 N 282.384 4.34279 -3.05727 0
M  V30 2372 C 282.432 3.26317 -3.84756 0
M  V30 2373 N 281.422 2.40281 -3.79534 0
M  V30 2374 C 283.528 3.02504 -4.72573 0
M  V30 2375 C 284.494 3.94493 -4.76618 0
M  V30 2376 H 285.506 6.62104 -3.11218 0
M  V30 2377 H 286.689 4.42969 -4.80867 0
M  V30 2378 H 288.173 5.93122 -5.93121 0
M  V30 2379 H 286.479 7.93295 -6.39407 0
M  V30 2380 H 286.288 6.26671 -8.0846 0
M  V30 2381 H 284.658 6.29036 -7.32728 0
M  V30 2382 H 283.576 2.12921 -5.34017 0
M  V30 2383 H 285.34 3.80658 -5.44176 0
M  V30 2384 H 280.632 2.57561 -3.15653 0
M  V30 2385 H 281.427 1.56492 -4.39044 0
M  V30 2386 H 287.394 5.93572 -2.52637 0
M  V30 2387 P 289.156 7.39546 -4.75277 0
M  V30 2388 O 290.578 7.84798 -5.01039 0
M  V30 2389 O 288.796 5.9812 -5.08098 0
M  V30 2390 O 288.833 7.57503 -3.1866 0
M  V30 2391 C 288.673 8.97357 -2.74833 0
M  V30 2392 C 289.213 9.07548 -1.32709 0
M  V30 2393 O 288.157 8.62072 -0.606159 0
M  V30 2394 C 290.431 8.25383 -0.938334 0
M  V30 2395 O 291.169 8.74577 0.146954 0
M  V30 2396 C 289.762 6.8802 -0.712559 0
M  V30 2397 O 290.561 6.1189 0.194655 0
M  V30 2398 C 288.425 7.27966 -0.139777 0
M  V30 2399 H 288.457 7.25354 0.961601 0
M  V30 2400 H 289.64 6.32557 -1.65702 0
M  V30 2401 H 291.124 8.19355 -1.79097 0
M  V30 2402 H 289.43 10.1294 -1.10029 0
M  V30 2403 H 289.24 9.64276 -3.41316 0
M  V30 2404 H 287.61 9.25417 -2.76357 0
M  V30 2405 H 290.249 6.25267 1.07847 0
M  V30 2406 P 292.106 8.791 1.04251e-12 0
M  V30 2407 O 293.528 9.31096 0.027933 0
M  V30 2408 O 291.746 7.77869 -1.04071 0
M  V30 2409 O 291.783 8.09533 1.41463 0
M  V30 2410 C 291.623 9.0349 2.53943 0
M  V30 2411 C 292.163 8.35226 3.79016 0
M  V30 2412 O 291.107 7.57992 4.15078 0
M  V30 2413 C 293.381 7.45087 3.67298 0
M  V30 2414 O 294.119 7.27796 4.85194 0
M  V30 2415 C 292.712 6.17323 3.12027 0
M  V30 2416 O 293.511 5.04231 3.47188 0
M  V30 2417 C 291.375 6.19961 3.81809 0
M  V30 2418 H 291.407 5.58218 4.73051 0
M  V30 2419 H 292.59 6.21726 2.02589 0
M  V30 2420 H 294.074 7.86112 2.9231 0
M  V30 2421 H 292.38 9.11627 4.55076 0
M  V30 2422 H 292.19 9.9573 2.34194 0
M  V30 2423 H 290.56 9.2792 2.67832 0
M  V30 2424 H 293.199 4.67702 4.28772 0
M  V30 2425 P 295.057 7.39546 4.75277 0
M  V30 2426 O 296.479 7.81777 5.05738 0
M  V30 2427 O 294.697 7.1065 3.32998 0
M  V30 2428 O 294.734 6.04542 5.56673 0
M  V30 2429 C 294.574 6.22772 7.02095 0
M  V30 2430 C 295.114 4.97725 7.70406 0
M  V30 2431 O 294.058 4.13256 7.58987 0
M  V30 2432 C 296.332 4.28231 7.11815 0
M  V30 2433 O 297.07 3.49945 8.01648 0
M  V30 2434 C 295.663 3.5063 5.96244 0
M  V30 2435 O 296.462 2.36482 5.64681 0
M  V30 2436 C 294.326 3.15122 6.56374 0
M  V30 2437 H 294.358 2.13853 6.99751 0
M  V30 2438 H 295.541 4.13501 5.06559 0
M  V30 2439 H 297.025 5.03285 6.70911 0
M  V30 2440 H 295.331 5.20877 8.75697 0
M  V30 2441 H 295.141 7.11046 7.35349 0
M  V30 2442 H 293.511 6.35815 7.26986 0
M  V30 2443 H 296.15 1.61644 6.13565 0
M  V30 2444 P 298.008 3.65191 7.99657 0
M  V30 2445 O 299.43 3.8425 8.48115 0
M  V30 2446 O 297.648 4.17805 6.64342 0
M  V30 2447 O 297.685 2.07613 7.95143 0
M  V30 2448 C 297.525 1.44328 9.27336 0
M  V30 2449 C 298.065 0.0220036 9.17197 0
M  V30 2450 O 297.009 -0.626867 8.61923 0
M  V30 2451 C 299.283 -0.24586 8.30336 0
M  V30 2452 O 300.021 -1.39011 8.63583 0
M  V30 2453 C 298.614 -0.273849 6.91158 0
M  V30 2454 O 299.413 -1.06348 6.02892 0
M  V30 2455 C 297.277 -0.897649 7.22545 0
M  V30 2456 H 297.309 -1.9841 7.04286 0
M  V30 2457 H 298.492 0.739928 6.497 0
M  V30 2458 H 299.976 0.60668 8.36503 0
M  V30 2459 H 298.282 -0.352479 10.1829 0
M  V30 2460 H 298.092 2.00611 10.0304 0
M  V30 2461 H 296.462 1.41843 9.55327 0
M  V30 2462 H 299.101 -1.95734 6.03555 0
M  V30 2463 P 300.958 -1.25109 8.70152 0
M  V30 2464 O 302.38 -1.35274 9.21221 0
M  V30 2465 O 300.598 -0.0769065 7.84762 0
M  V30 2466 O 300.635 -2.55232 7.81161 0
M  V30 2467 C 300.475 -3.79939 8.58154 0
M  V30 2468 C 301.015 -4.94023 7.72785 0
M  V30 2469 O 299.959 -5.18726 6.91205 0
M  V30 2470 C 302.233 -4.69597 6.85231 0
M  V30 2471 O 302.971 -5.83832 6.51337 0
M  V30 2472 C 301.564 -3.96706 5.66633 0
M  V30 2473 O 302.363 -4.15414 4.49689 0
M  V30 2474 C 300.227 -4.66153 5.59313 0
M  V30 2475 H 300.259 -5.47679 4.85214 0
M  V30 2476 H 301.442 -2.89008 5.86566 0
M  V30 2477 H 302.926 -4.0121 7.36511 0
M  V30 2478 H 301.232 -5.80182 8.37584 0
M  V30 2479 H 301.042 -3.73517 9.52265 0
M  V30 2480 H 299.412 -3.97163 8.80359 0
M  V30 2481 H 302.051 -4.90969 4.01921 0
M  V30 2482 P 303.909 -5.75688 6.64379 0
M  V30 2483 O 305.331 -6.11849 7.01846 0
M  V30 2484 O 303.549 -4.30744 6.56026 0
M  V30 2485 O 303.586 -6.37042 5.19165 0
M  V30 2486 C 303.426 -7.83578 5.16515 0
M  V30 2487 C 303.966 -8.33398 3.83019 0
M  V30 2488 O 302.91 -8.10074 3.01034 0
M  V30 2489 C 305.184 -7.65514 3.2257 0
M  V30 2490 O 305.922 -8.4329 2.32297 0
M  V30 2491 C 304.515 -6.40075 2.62207 0
M  V30 2492 O 305.314 -5.92589 1.53712 0
M  V30 2493 C 303.178 -6.9454 2.18503 0
M  V30 2494 H 303.21 -7.23063 1.12091 0
M  V30 2495 H 304.393 -5.6025 3.37201 0
M  V30 2496 H 305.877 -7.35707 4.02681 0
M  V30 2497 H 304.183 -9.40912 3.9095 0
M  V30 2498 H 303.993 -8.29056 5.99158 0
M  V30 2499 H 302.363 -8.10073 5.25882 0
M  V30 2500 H 305.002 -6.30324 0.726794 0
M  V30 2501 P 306.859 -8.4349 2.47671 0
M  V30 2502 O 308.281 -8.94167 2.5964 0
M  V30 2503 O 306.499 -7.1704 3.19006 0
M  V30 2504 O 306.536 -8.16596 0.923387 0
M  V30 2505 C 306.376 -9.38437 0.108857 0
M  V30 2506 C 306.916 -9.08175 -1.28353 0
M  V30 2507 O 305.86 -8.44229 -1.84713 0
M  V30 2508 C 308.134 -8.18386 -1.42505 0
M  V30 2509 O 308.872 -8.3501 -2.60497 0
M  V30 2510 C 307.465 -6.80225 -1.25468 0
M  V30 2511 O 308.264 -5.81621 -1.91066 0
M  V30 2512 C 306.128 -7.02416 -1.9168 0
M  V30 2513 H 306.16 -6.6888 -2.96621 0
M  V30 2514 H 307.343 -6.53617 -0.192223 0
M  V30 2515 H 308.827 -8.36622 -0.589963 0
M  V30 2516 H 307.133 -10.0291 -1.79807 0
M  V30 2517 H 306.943 -10.2138 0.558219 0
M  V30 2518 H 305.313 -9.6579 0.0444202 0
M  V30 2519 H 307.952 -5.69556 -2.79637 0
M  V30 2520 P 309.81 -8.4349 -2.47671 0
M  V30 2521 O 311.232 -8.92593 -2.65 0
M  V30 2522 O 309.45 -7.7568 -1.19296 0
M  V30 2523 O 309.487 -7.36886 -3.63805 0
M  V30 2524 C 309.327 -7.95349 -4.982 0
M  V30 2525 C 309.867 -6.94612 -5.98974 0
M  V30 2526 O 308.811 -6.10347 -6.11815 0
M  V30 2527 C 311.085 -6.11426 -5.62335 0
M  V30 2528 O 311.823 -5.6162 -6.70584 0
M  V30 2529 C 310.416 -5.04409 -4.73308 0
M  V30 2530 O 311.215 -3.85992 -4.75183 0
M  V30 2531 C 309.079 -4.8728 -5.41006 0
M  V30 2532 H 309.111 -4.02333 -6.11157 0
M  V30 2533 H 310.294 -5.39466 -3.69543 0
M  V30 2534 H 311.778 -6.71916 -5.01943 0
M  V30 2535 H 310.084 -7.4649 -6.93477 0
M  V30 2536 H 309.894 -8.89416 -5.05237 0
M  V30 2537 H 308.264 -8.14876 -5.18409 0
M  V30 2538 H 310.903 -3.27957 -5.4317 0
M  V30 2539 P 312.76 -5.75688 -6.64379 0
M  V30 2540 O 314.182 -6.07627 -7.05504 0
M  V30 2541 O 312.4 -5.88047 -5.19722 0
M  V30 2542 O 312.437 -4.2322 -7.04443 0
M  V30 2543 C 312.277 -3.99743 -8.4911 0
M  V30 2544 C 312.817 -2.60516 -8.79425 0
M  V30 2545 O 311.761 -1.82684 -8.4467 0
M  V30 2546 C 314.035 -2.10343 -8.03628 0
M  V30 2547 O 314.773 -1.09919 -8.67766 0
M  V30 2548 C 313.366 -1.68446 -6.70876 0
M  V30 2549 O 314.165 -0.678137 -6.08433 0
M  V30 2550 C 312.029 -1.17436 -7.18567 0
M  V30 2551 H 312.061 -0.0804732 -7.31656 0
M  V30 2552 H 313.244 -2.54037 -6.02537 0
M  V30 2553 H 314.728 -2.93881 -7.85526 0
M  V30 2554 H 313.034 -2.53065 -9.86973 0
M  V30 2555 H 312.844 -4.75072 -9.05887 0
M  V30 2556 H 311.214 -4.05244 -8.76668 0
M  V30 2557 H 313.853 0.177647 -6.34251 0
M  V30 2558 P 315.711 -1.25109 -8.70152 0
M  V30 2559 O 317.132 -1.29758 -9.22115 0
M  V30 2560 O 315.351 -2.13714 -7.55141 0
M  V30 2561 O 315.388 0.248149 -8.21425 0
M  V30 2562 C 315.227 1.22792 -9.30533 0
M  V30 2563 C 315.768 2.56293 -8.80664 0
M  V30 2564 O 314.713 3.02944 -8.09255 0
M  V30 2565 C 316.986 2.57523 -7.89775 0
M  V30 2566 O 317.724 3.7668 -7.89438 0
M  V30 2567 C 316.318 2.20997 -6.55446 0
M  V30 2568 O 317.116 2.71302 -5.48691 0
M  V30 2569 C 314.98 2.89693 -6.67988 0
M  V30 2570 N 313.937 2.08895 -6.07487 0
M  V30 2571 C 314.106 0.753809 -5.94137 0
M  V30 2572 N 313.079 0.146592 -5.38801 0
M  V30 2573 C 312.194 1.1768 -5.13693 0
M  V30 2574 C 310.927 1.17563 -4.52477 0
M  V30 2575 N 310.328 0.057481 -4.04759 0
M  V30 2576 N 310.362 2.41918 -4.45789 0
M  V30 2577 C 310.964 3.56493 -4.90792 0
M  V30 2578 N 312.141 3.61423 -5.47817 0
M  V30 2579 C 312.716 2.37779 -5.5588 0
M  V30 2580 H 315.012 3.8874 -6.19774 0
M  V30 2581 H 316.195 1.12673 -6.44018 0
M  V30 2582 H 317.678 1.7746 -8.19711 0
M  V30 2583 H 315.984 3.21673 -9.66791 0
M  V30 2584 H 315.794 0.901032 -10.1892 0
M  V30 2585 H 314.164 1.33049 -9.56592 0
M  V30 2586 H 310.428 4.49919 -4.77947 0
M  V30 2587 H 315.006 0.233081 -6.26266 0
M  V30 2588 H 309.398 0.119831 -3.60801 0
M  V30 2589 H 310.802 -0.852272 -4.12385 0
M  V30 2590 H 316.804 3.5779 -5.23879 0
M  V30 2591 P 318.662 3.65191 -7.99657 0
M  V30 2592 O 320.084 3.89332 -8.45794 0
M  V30 2593 O 318.302 2.28472 -7.50807 0
M  V30 2594 O 318.339 4.64972 -6.77611 0
M  V30 2595 C 318.179 6.06319 -7.16352 0
M  V30 2596 C 318.719 6.91731 -6.02299 0
M  V30 2597 O 317.663 6.92449 -5.17064 0
M  V30 2598 C 319.937 6.43627 -5.25174 0
M  V30 2599 O 320.675 7.43686 -4.60469 0
M  V30 2600 C 319.268 5.40275 -4.31916 0
M  V30 2601 O 320.067 5.25279 -3.14438 0
M  V30 2602 C 317.931 6.04847 -4.05327 0
M  V30 2603 H 317.963 6.62195 -3.11261 0
M  V30 2604 H 319.146 4.42556 -4.81383 0
M  V30 2605 H 320.63 5.92458 -5.93643 0
M  V30 2606 H 318.936 7.92655 -6.402 0
M  V30 2607 H 318.746 6.26671 -8.0846 0
M  V30 2608 H 317.116 6.29101 -7.32804 0
M  V30 2609 H 319.755 5.84315 -2.47318 0
M  V30 2610 P 321.612 7.39546 -4.75277 0
M  V30 2611 O 323.034 7.84798 -5.01039 0
M  V30 2612 O 321.252 5.9812 -5.08098 0
M  V30 2613 O 321.289 7.57503 -3.1866 0
M  V30 2614 C 321.129 8.97357 -2.74833 0
M  V30 2615 C 321.669 9.07548 -1.32709 0
M  V30 2616 O 320.613 8.62072 -0.606159 0
M  V30 2617 C 322.887 8.25383 -0.938334 0
M  V30 2618 O 323.625 8.74577 0.146954 0
M  V30 2619 C 322.218 6.8802 -0.712559 0
M  V30 2620 O 323.017 6.1189 0.194655 0
M  V30 2621 C 320.881 7.27966 -0.139777 0
M  V30 2622 H 320.913 7.25354 0.961601 0
M  V30 2623 H 322.096 6.32557 -1.65702 0
M  V30 2624 H 323.58 8.19355 -1.79097 0
M  V30 2625 H 321.886 10.1294 -1.10029 0
M  V30 2626 H 321.696 9.64276 -3.41316 0
M  V30 2627 H 320.066 9.25417 -2.76357 0
M  V30 2628 H 322.705 6.25267 1.07847 0
M  V30 2629 P 324.563 8.791 1.35267e-12 0
M  V30 2630 O 325.985 9.31096 0.027933 0
M  V30 2631 O 324.203 7.77869 -1.04071 0
M  V30 2632 O 324.24 8.09533 1.41463 0
M  V30 2633 C 324.08 9.0349 2.53943 0
M  V30 2634 C 324.62 8.35226 3.79016 0
M  V30 2635 O 323.564 7.57992 4.15078 0
M  V30 2636 C 325.838 7.45087 3.67298 0
M  V30 2637 O 326.576 7.27796 4.85194 0
M  V30 2638 C 325.169 6.17323 3.12027 0
M  V30 2639 O 325.968 5.04231 3.47188 0
M  V30 2640 C 323.832 6.19961 3.81809 0
M  V30 2641 H 323.864 5.58218 4.73051 0
M  V30 2642 H 325.047 6.21726 2.02589 0
M  V30 2643 H 326.531 7.86112 2.9231 0
M  V30 2644 H 324.837 9.11627 4.55076 0
M  V30 2645 H 324.647 9.9573 2.34194 0
M  V30 2646 H 323.017 9.2792 2.67832 0
M  V30 2647 H 325.656 4.67702 4.28772 0
M  V30 2648 P 327.513 7.39546 4.75277 0
M  V30 2649 O 328.934 7.81861 5.05793 0
M  V30 2650 O 327.153 7.1065 3.32998 0
M  V30 2651 O 327.19 6.04542 5.56673 0
M  V30 2652 C 327.029 6.22839 7.02169 0
M  V30 2653 C 327.57 4.97725 7.70406 0
M  V30 2654 O 326.515 4.13208 7.58899 0
M  V30 2655 C 328.788 4.28231 7.11815 0
M  V30 2656 O 329.526 3.49945 8.01648 0
M  V30 2657 C 328.12 3.5063 5.96244 0
M  V30 2658 O 328.918 2.37008 5.64352 0
M  V30 2659 C 326.782 3.15122 6.56374 0
M  V30 2660 N 325.739 3.22311 5.55692 0
M  V30 2661 C 325.908 3.99655 4.46046 0
M  V30 2662 N 324.881 3.97599 3.63918 0
M  V30 2663 C 323.996 3.11159 4.25334 0
M  V30 2664 C 322.729 2.64972 3.85157 0
M  V30 2665 N 322.13 3.02132 2.69405 0
M  V30 2666 N 322.164 1.78482 4.74759 0
M  V30 2667 C 322.766 1.37463 5.90819 0
M  V30 2668 N 323.943 1.7733 6.31889 0
M  V30 2669 C 324.518 2.64393 5.43725 0
M  V30 2670 H 326.814 2.13823 6.99656 0
M  V30 2671 H 327.997 4.12931 5.06895 0
M  V30 2672 H 329.48 5.03285 6.70911 0
M  V30 2673 H 327.786 5.20001 8.76217 0
M  V30 2674 H 327.596 7.11046 7.35349 0
M  V30 2675 H 325.966 6.35815 7.26986 0
M  V30 2676 H 322.23 0.66574 6.53015 0
M  V30 2677 H 326.808 4.58037 4.27732 0
M  V30 2678 H 321.2 2.64828 2.45331 0
M  V30 2679 H 322.604 3.67472 2.05644 0
M  V30 2680 H 328.606 1.61619 6.13468 0
M  V30 2681 P 330.464 3.65191 7.99657 0
M  V30 2682 O 331.886 3.8425 8.48115 0
M  V30 2683 O 330.104 4.17805 6.64342 0
M  V30 2684 O 330.141 2.07613 7.95143 0
M  V30 2685 C 329.981 1.44328 9.27336 0
M  V30 2686 C 330.521 0.0220036 9.17197 0
M  V30 2687 O 329.465 -0.626867 8.61923 0
M  V30 2688 C 331.739 -0.24586 8.30336 0
M  V30 2689 O 332.477 -1.39011 8.63583 0
M  V30 2690 C 331.07 -0.273849 6.91158 0
M  V30 2691 O 331.869 -1.06348 6.02892 0
M  V30 2692 C 329.733 -0.897649 7.22545 0
M  V30 2693 H 329.765 -1.9841 7.04286 0
M  V30 2694 H 330.948 0.739928 6.497 0
M  V30 2695 H 332.432 0.60668 8.36503 0
M  V30 2696 H 330.738 -0.352479 10.1829 0
M  V30 2697 H 330.548 2.00611 10.0304 0
M  V30 2698 H 328.918 1.41843 9.55327 0
M  V30 2699 H 331.557 -1.95734 6.03555 0
M  V30 2700 P 333.414 -1.25109 8.70152 0
M  V30 2701 O 334.836 -1.35303 9.21419 0
M  V30 2702 O 333.054 -0.0769065 7.84762 0
M  V30 2703 O 333.091 -2.55232 7.81161 0
M  V30 2704 C 332.931 -3.79939 8.58154 0
M  V30 2705 C 333.471 -4.93969 7.72701 0
M  V30 2706 O 332.416 -5.18726 6.91205 0
M  V30 2707 C 334.689 -4.69597 6.85231 0
M  V30 2708 O 335.427 -5.83832 6.51337 0
M  V30 2709 C 334.021 -3.96706 5.66633 0
M  V30 2710 O 334.819 -4.15346 4.49615 0
M  V30 2711 C 332.683 -4.66153 5.59313 0
M  V30 2712 N 331.64 -3.71582 5.24027 0
M  V30 2713 C 331.702 -2.46018 5.67902 0
M  V30 2714 N 330.657 -1.74868 5.24518 0
M  V30 2715 C 329.923 -2.61333 4.54528 0
M  V30 2716 C 328.617 -2.46162 3.95441 0
M  V30 2717 O 327.884 -1.46013 3.94122 0
M  V30 2718 N 328.187 -3.59334 3.34752 0
M  V30 2719 C 328.936 -4.79605 3.3023 0
M  V30 2720 N 328.339 -5.82109 2.6065 0
M  V30 2721 N 330.089 -4.97402 3.8843 0
M  V30 2722 C 330.546 -3.86258 4.50476 0
M  V30 2723 H 332.715 -5.47679 4.85214 0
M  V30 2724 H 333.898 -2.88964 5.86476 0
M  V30 2725 H 335.383 -4.01947 7.36109 0
M  V30 2726 H 333.688 -5.80182 8.37584 0
M  V30 2727 H 333.498 -3.73517 9.52265 0
M  V30 2728 H 331.867 -3.97163 8.80359 0
M  V30 2729 H 327.291 -3.5825 2.90294 0
M  V30 2730 H 332.498 -2.06161 6.30974 0
M  V30 2731 H 327.428 -5.66979 2.15354 0
M  V30 2732 H 328.804 -6.73686 2.54344 0
M  V30 2733 H 334.508 -4.90891 4.01857 0
M  V30 2734 P 336.365 -5.75688 6.64379 0
M  V30 2735 O 337.787 -6.11849 7.01846 0
M  V30 2736 O 336.005 -4.30744 6.56026 0
M  V30 2737 O 336.042 -6.37042 5.19165 0
M  V30 2738 C 335.882 -7.83578 5.16515 0
M  V30 2739 C 336.422 -8.33398 3.83019 0
M  V30 2740 O 335.366 -8.10074 3.01034 0
M  V30 2741 C 337.64 -7.65514 3.2257 0
M  V30 2742 O 338.378 -8.4329 2.32297 0
M  V30 2743 C 336.971 -6.40075 2.62207 0
M  V30 2744 O 337.77 -5.92589 1.53712 0
M  V30 2745 C 335.634 -6.9454 2.18503 0
M  V30 2746 H 335.666 -7.23063 1.12091 0
M  V30 2747 H 336.849 -5.6025 3.37201 0
M  V30 2748 H 338.333 -7.35707 4.02681 0
M  V30 2749 H 336.639 -9.40912 3.9095 0
M  V30 2750 H 336.449 -8.29056 5.99158 0
M  V30 2751 H 334.819 -8.10073 5.25882 0
M  V30 2752 H 337.458 -6.30324 0.726794 0
M  V30 2753 P 339.316 -8.4349 2.47671 0
M  V30 2754 O 340.738 -8.94167 2.5964 0
M  V30 2755 O 338.956 -7.1704 3.19006 0
M  V30 2756 O 338.993 -8.16596 0.923387 0
M  V30 2757 C 338.833 -9.38437 0.108857 0
M  V30 2758 C 339.373 -9.08175 -1.28353 0
M  V30 2759 O 338.317 -8.44229 -1.84713 0
M  V30 2760 C 340.591 -8.18386 -1.42505 0
M  V30 2761 O 341.329 -8.3501 -2.60497 0
M  V30 2762 C 339.922 -6.80225 -1.25468 0
M  V30 2763 O 340.721 -5.81621 -1.91066 0
M  V30 2764 C 338.585 -7.02416 -1.9168 0
M  V30 2765 H 338.617 -6.6888 -2.96621 0
M  V30 2766 H 339.8 -6.53617 -0.192223 0
M  V30 2767 H 341.284 -8.36622 -0.589963 0
M  V30 2768 H 339.59 -10.0291 -1.79807 0
M  V30 2769 H 339.4 -10.2138 0.558219 0
M  V30 2770 H 337.77 -9.6579 0.0444202 0
M  V30 2771 H 340.409 -5.69556 -2.79637 0
M  V30 2772 P 342.266 -8.4349 -2.47671 0
M  V30 2773 O 343.687 -8.92689 -2.65029 0
M  V30 2774 O 341.906 -7.7568 -1.19296 0
M  V30 2775 O 341.943 -7.36886 -3.63805 0
M  V30 2776 C 341.782 -7.95433 -4.98253 0
M  V30 2777 C 342.323 -6.94612 -5.98974 0
M  V30 2778 O 341.268 -6.10277 -6.11744 0
M  V30 2779 C 343.541 -6.11426 -5.62335 0
M  V30 2780 O 344.279 -5.6162 -6.70584 0
M  V30 2781 C 342.873 -5.04409 -4.73308 0
M  V30 2782 O 343.671 -3.86404 -4.74719 0
M  V30 2783 C 341.535 -4.8728 -5.41006 0
M  V30 2784 N 340.492 -4.65812 -4.42377 0
M  V30 2785 C 340.661 -5.09132 -3.15382 0
M  V30 2786 N 339.634 -4.84021 -2.3716 0
M  V30 2787 C 338.749 -4.18386 -3.20441 0
M  V30 2788 C 337.482 -3.6275 -2.94905 0
M  V30 2789 N 336.917 -3.05008 -4.05243 0
M  V30 2790 C 337.519 -2.98348 -5.28159 0
M  V30 2791 N 338.696 -3.48171 -5.56333 0
M  V30 2792 C 339.271 -4.06869 -4.47212 0
M  V30 2793 H 342.75 -5.39013 -3.70026 0
M  V30 2794 H 344.233 -6.71916 -5.01943 0
M  V30 2795 H 342.539 -7.45796 -6.94223 0
M  V30 2796 H 342.349 -8.89416 -5.05237 0
M  V30 2797 H 340.719 -8.14876 -5.18409 0
M  V30 2798 H 341.561 -5.59989 -2.81362 0
M  V30 2799 H 343.359 -3.27906 -5.43085 0
M  V30 2800 P 345.217 -5.75688 -6.64379 0
M  V30 2801 O 346.639 -6.07627 -7.05504 0
M  V30 2802 O 344.857 -5.88047 -5.19722 0
M  V30 2803 O 344.894 -4.2322 -7.04443 0
M  V30 2804 C 344.734 -3.99743 -8.4911 0
M  V30 2805 C 345.274 -2.60516 -8.79425 0
M  V30 2806 O 344.218 -1.82684 -8.4467 0
M  V30 2807 C 346.492 -2.10343 -8.03628 0
M  V30 2808 O 347.23 -1.09919 -8.67766 0
M  V30 2809 C 345.823 -1.68446 -6.70876 0
M  V30 2810 O 346.622 -0.678137 -6.08433 0
M  V30 2811 C 344.486 -1.17436 -7.18567 0
M  V30 2812 H 344.518 -0.0804732 -7.31656 0
M  V30 2813 H 345.701 -2.54037 -6.02537 0
M  V30 2814 H 347.185 -2.93881 -7.85526 0
M  V30 2815 H 345.491 -2.53065 -9.86973 0
M  V30 2816 H 345.301 -4.75072 -9.05887 0
M  V30 2817 H 343.671 -4.05244 -8.76668 0
M  V30 2818 H 346.31 0.177647 -6.34251 0
M  V30 2819 P 348.167 -1.25109 -8.70152 0
M  V30 2820 O 349.589 -1.29744 -9.22016 0
M  V30 2821 O 347.807 -2.13714 -7.55141 0
M  V30 2822 O 347.844 0.248149 -8.21425 0
M  V30 2823 C 347.684 1.22779 -9.30434 0
M  V30 2824 C 348.224 2.56293 -8.80664 0
M  V30 2825 O 347.168 3.02979 -8.09349 0
M  V30 2826 C 349.442 2.57523 -7.89775 0
M  V30 2827 O 350.18 3.7668 -7.89438 0
M  V30 2828 C 348.773 2.20997 -6.55446 0
M  V30 2829 O 349.572 2.71895 -5.48509 0
M  V30 2830 C 347.436 2.89693 -6.67988 0
M  V30 2831 H 347.468 3.88793 -6.19859 0
M  V30 2832 H 348.651 1.12046 -6.44229 0
M  V30 2833 H 350.135 1.7746 -8.19711 0
M  V30 2834 H 348.441 3.20706 -9.67112 0
M  V30 2835 H 348.251 0.901032 -10.1892 0
M  V30 2836 H 346.621 1.33049 -9.56592 0
M  V30 2837 H 349.26 3.57847 -5.23962 0
M  V30 2838 P 351.118 3.65191 -7.99657 0
M  V30 2839 O 352.54 3.89332 -8.45794 0
M  V30 2840 O 350.758 2.28472 -7.50807 0
M  V30 2841 O 350.795 4.64972 -6.77611 0
M  V30 2842 C 350.635 6.06319 -7.16352 0
M  V30 2843 C 351.175 6.91731 -6.02299 0
M  V30 2844 O 350.119 6.92449 -5.17064 0
M  V30 2845 C 352.393 6.43627 -5.25174 0
M  V30 2846 O 353.131 7.43686 -4.60469 0
M  V30 2847 C 351.724 5.40275 -4.31916 0
M  V30 2848 O 352.523 5.25279 -3.14438 0
M  V30 2849 C 350.387 6.04847 -4.05327 0
M  V30 2850 H 350.419 6.62195 -3.11261 0
M  V30 2851 H 351.602 4.42556 -4.81383 0
M  V30 2852 H 353.086 5.92458 -5.93643 0
M  V30 2853 H 351.392 7.92655 -6.402 0
M  V30 2854 H 351.202 6.26671 -8.0846 0
M  V30 2855 H 349.572 6.29101 -7.32804 0
M  V30 2856 H 352.211 5.84315 -2.47318 0
M  V30 2857 P 354.068 7.39546 -4.75277 0
M  V30 2858 O 355.49 7.84798 -5.01039 0
M  V30 2859 O 353.708 5.9812 -5.08098 0
M  V30 2860 O 353.745 7.57503 -3.1866 0
M  V30 2861 C 353.585 8.97357 -2.74833 0
M  V30 2862 C 354.125 9.07548 -1.32709 0
M  V30 2863 O 353.069 8.62072 -0.606159 0
M  V30 2864 C 355.343 8.25383 -0.938334 0
M  V30 2865 O 356.081 8.74577 0.146954 0
M  V30 2866 C 354.674 6.8802 -0.712559 0
M  V30 2867 O 355.473 6.1189 0.194655 0
M  V30 2868 C 353.337 7.27966 -0.139777 0
M  V30 2869 H 353.369 7.25354 0.961601 0
M  V30 2870 H 354.552 6.32557 -1.65702 0
M  V30 2871 H 356.036 8.19355 -1.79097 0
M  V30 2872 H 354.342 10.1294 -1.10029 0
M  V30 2873 H 354.152 9.64276 -3.41316 0
M  V30 2874 H 352.522 9.25417 -2.76357 0
M  V30 2875 H 355.161 6.25267 1.07847 0
M  V30 2876 P 357.019 8.791 1.66284e-12 0
M  V30 2877 O 358.441 9.31296 0.027939 0
M  V30 2878 O 356.659 7.77869 -1.04071 0
M  V30 2879 O 356.696 8.09533 1.41463 0
M  V30 2880 C 356.536 9.0349 2.53943 0
M  V30 2881 C 357.076 8.35135 3.78975 0
M  V30 2882 O 356.021 7.57992 4.15078 0
M  V30 2883 C 358.294 7.45087 3.67298 0
M  V30 2884 O 359.032 7.27796 4.85194 0
M  V30 2885 C 357.626 6.17323 3.12027 0
M  V30 2886 O 358.424 5.04149 3.47132 0
M  V30 2887 C 356.288 6.19961 3.81809 0
M  V30 2888 N 355.245 5.71575 2.93223 0
M  V30 2889 C 355.307 5.97133 1.62693 0
M  V30 2890 N 354.262 5.44066 0.984414 0
M  V30 2891 C 353.528 4.87093 1.93987 0
M  V30 2892 C 352.222 4.26449 1.8738 0
M  V30 2893 O 351.489 4.1089 0.884377 0
M  V30 2894 N 351.792 3.82483 3.08036 0
M  V30 2895 C 352.541 3.95124 4.27727 0
M  V30 2896 N 351.944 3.4084 5.39089 0
M  V30 2897 N 353.694 4.55264 4.3706 0
M  V30 2898 C 354.151 5.00861 3.18217 0
M  V30 2899 H 356.32 5.58218 4.73051 0
M  V30 2900 H 357.503 6.21631 2.02558 0
M  V30 2901 H 358.988 7.85819 2.93096 0
M  V30 2902 H 357.293 9.11627 4.55076 0
M  V30 2903 H 357.103 9.9573 2.34194 0
M  V30 2904 H 355.472 9.2792 2.67832 0
M  V30 2905 H 350.896 3.38323 3.1329 0
M  V30 2906 H 356.103 6.53891 1.14265 0
M  V30 2907 H 351.033 2.93852 5.30559 0
M  V30 2908 H 352.409 3.47631 6.30632 0
M  V30 2909 H 358.113 4.67628 4.28704 0
M  V30 2910 P 359.97 7.39546 4.75277 0
M  V30 2911 O 361.392 7.81945 5.05847 0
M  V30 2912 O 359.61 7.1065 3.32998 0
M  V30 2913 O 359.647 6.04542 5.56673 0
M  V30 2914 C 359.487 6.22772 7.02095 0
M  V30 2915 C 360.027 4.97671 7.70322 0
M  V30 2916 O 358.972 4.13256 7.58987 0
M  V30 2917 C 361.245 4.28231 7.11815 0
M  V30 2918 O 361.983 3.49945 8.01648 0
M  V30 2919 C 360.577 3.5063 5.96244 0
M  V30 2920 O 361.375 2.36443 5.64589 0
M  V30 2921 C 359.239 3.15122 6.56374 0
M  V30 2922 N 358.196 3.22311 5.55692 0
M  V30 2923 C 358.258 4.14382 4.59701 0
M  V30 2924 N 357.213 4.04476 3.76958 0
M  V30 2925 C 356.479 3.04892 4.26534 0
M  V30 2926 C 355.173 2.57447 3.88189 0
M  V30 2927 O 354.44 2.9785 2.96543 0
M  V30 2928 N 354.743 1.55228 4.65922 0
M  V30 2929 C 355.492 1.01152 5.73447 0
M  V30 2930 N 354.895 -0.0472117 6.37783 0
M  V30 2931 N 356.645 1.467 6.13813 0
M  V30 2932 C 357.102 2.4931 5.38487 0
M  V30 2933 H 359.271 2.13853 6.99751 0
M  V30 2934 H 360.454 4.13438 5.06482 0
M  V30 2935 H 361.939 5.02614 6.71414 0
M  V30 2936 H 360.244 5.20877 8.75697 0
M  V30 2937 H 360.054 7.11046 7.35349 0
M  V30 2938 H 358.423 6.35815 7.26986 0
M  V30 2939 H 353.847 1.15238 4.46468 0
M  V30 2940 H 359.054 4.88312 4.49647 0
M  V30 2941 H 353.984 -0.396382 6.05203 0
M  V30 2942 H 355.36 -0.484997 7.18465 0
M  V30 2943 H 361.064 1.61619 6.13468 0
M  V30 2944 P 362.92 3.65191 7.99657 0
M  V30 2945 O 364.342 3.8425 8.48115 0
M  V30 2946 O 362.56 4.17805 6.64342 0
M  V30 2947 O 362.597 2.07613 7.95143 0
M  V30 2948 C 362.437 1.44328 9.27336 0
M  V30 2949 C 362.977 0.0220036 9.17197 0
M  V30 2950 O 361.921 -0.626867 8.61923 0
M  V30 2951 C 364.195 -0.24586 8.30336 0
M  V30 2952 O 364.933 -1.39011 8.63583 0
M  V30 2953 C 363.526 -0.273849 6.91158 0
M  V30 2954 O 364.325 -1.06348 6.02892 0
M  V30 2955 C 362.189 -0.897649 7.22545 0
M  V30 2956 H 362.221 -1.9841 7.04286 0
M  V30 2957 H 363.404 0.739928 6.497 0
M  V30 2958 H 364.888 0.60668 8.36503 0
M  V30 2959 H 363.194 -0.352479 10.1829 0
M  V30 2960 H 363.004 2.00611 10.0304 0
M  V30 2961 H 361.374 1.41843 9.55327 0
M  V30 2962 H 364.013 -1.95734 6.03555 0
M  V30 2963 P 365.871 -1.25109 8.70152 0
M  V30 2964 O 367.293 -1.35274 9.21221 0
M  V30 2965 O 365.511 -0.0769065 7.84762 0
M  V30 2966 O 365.548 -2.55232 7.81161 0
M  V30 2967 C 365.388 -3.79939 8.58154 0
M  V30 2968 C 365.928 -4.94023 7.72785 0
M  V30 2969 O 364.872 -5.18726 6.91205 0
M  V30 2970 C 367.146 -4.69597 6.85231 0
M  V30 2971 O 367.884 -5.83832 6.51337 0
M  V30 2972 C 366.477 -3.96706 5.66633 0
M  V30 2973 O 367.276 -4.15414 4.49689 0
M  V30 2974 C 365.14 -4.66153 5.59313 0
M  V30 2975 H 365.172 -5.47679 4.85214 0
M  V30 2976 H 366.355 -2.89008 5.86566 0
M  V30 2977 H 367.839 -4.0121 7.36511 0
M  V30 2978 H 366.145 -5.80182 8.37584 0
M  V30 2979 H 365.955 -3.73517 9.52265 0
M  V30 2980 H 364.325 -3.97163 8.80359 0
M  V30 2981 H 366.964 -4.90969 4.01921 0
M  V30 2982 P 368.821 -5.75688 6.64379 0
M  V30 2983 O 370.243 -6.11849 7.01846 0
M  V30 2984 O 368.461 -4.30744 6.56026 0
M  V30 2985 O 368.498 -6.37042 5.19165 0
M  V30 2986 C 368.338 -7.83578 5.16515 0
M  V30 2987 C 368.878 -8.33398 3.83019 0
M  V30 2988 O 367.822 -8.10074 3.01034 0
M  V30 2989 C 370.096 -7.65514 3.2257 0
M  V30 2990 O 370.834 -8.4329 2.32297 0
M  V30 2991 C 369.427 -6.40075 2.62207 0
M  V30 2992 O 370.226 -5.92589 1.53712 0
M  V30 2993 C 368.09 -6.9454 2.18503 0
M  V30 2994 H 368.122 -7.23063 1.12091 0
M  V30 2995 H 369.305 -5.6025 3.37201 0
M  V30 2996 H 370.789 -7.35707 4.02681 0
M  V30 2997 H 369.095 -9.40912 3.9095 0
M  V30 2998 H 368.905 -8.29056 5.99158 0
M  V30 2999 H 367.275 -8.10073 5.25882 0
M  V30 3000 H 369.914 -6.30324 0.726794 0
M  V30 3001 P 371.772 -8.4349 2.47671 0
M  V30 3002 O 373.194 -8.94167 2.5964 0
M  V30 3003 O 371.412 -7.1704 3.19006 0
M  V30 3004 O 371.449 -8.16596 0.923387 0
M  V30 3005 C 371.289 -9.38437 0.108857 0
M  V30 3006 C 371.829 -9.08175 -1.28353 0
M  V30 3007 O 370.773 -8.44229 -1.84713 0
M  V30 3008 C 373.047 -8.18386 -1.42505 0
M  V30 3009 O 373.785 -8.3501 -2.60497 0
M  V30 3010 C 372.378 -6.80225 -1.25468 0
M  V30 3011 O 373.177 -5.81621 -1.91066 0
M  V30 3012 C 371.041 -7.02416 -1.9168 0
M  V30 3013 H 371.073 -6.6888 -2.96621 0
M  V30 3014 H 372.256 -6.53617 -0.192223 0
M  V30 3015 H 373.74 -8.36622 -0.589963 0
M  V30 3016 H 372.046 -10.0291 -1.79807 0
M  V30 3017 H 371.856 -10.2138 0.558219 0
M  V30 3018 H 370.226 -9.6579 0.0444202 0
M  V30 3019 H 372.865 -5.69556 -2.79637 0
M  V30 3020 P 374.722 -8.4349 -2.47671 0
M  V30 3021 O 376.144 -8.92593 -2.65 0
M  V30 3022 O 374.362 -7.7568 -1.19296 0
M  V30 3023 O 374.399 -7.36886 -3.63805 0
M  V30 3024 C 374.239 -7.95349 -4.982 0
M  V30 3025 C 374.779 -6.94612 -5.98974 0
M  V30 3026 O 373.723 -6.10347 -6.11815 0
M  V30 3027 C 375.997 -6.11426 -5.62335 0
M  V30 3028 O 376.735 -5.6162 -6.70584 0
M  V30 3029 C 375.328 -5.04409 -4.73308 0
M  V30 3030 O 376.127 -3.85992 -4.75183 0
M  V30 3031 C 373.991 -4.8728 -5.41006 0
M  V30 3032 H 374.023 -4.02333 -6.11157 0
M  V30 3033 H 375.206 -5.39466 -3.69543 0
M  V30 3034 H 376.69 -6.71916 -5.01943 0
M  V30 3035 H 374.996 -7.4649 -6.93477 0
M  V30 3036 H 374.806 -8.89416 -5.05237 0
M  V30 3037 H 373.176 -8.14876 -5.18409 0
M  V30 3038 H 375.815 -3.27957 -5.4317 0
M  V30 3039 P 377.673 -5.75688 -6.64379 0
M  V30 3040 O 379.094 -6.07692 -7.0558 0
M  V30 3041 O 377.313 -5.88047 -5.19722 0
M  V30 3042 O 377.35 -4.2322 -7.04443 0
M  V30 3043 C 377.189 -3.99785 -8.49201 0
M  V30 3044 C 377.73 -2.60516 -8.79425 0
M  V30 3045 O 376.675 -1.82663 -8.44573 0
M  V30 3046 C 378.948 -2.10343 -8.03628 0
M  V30 3047 O 379.686 -1.09919 -8.67766 0
M  V30 3048 C 378.28 -1.68446 -6.70876 0
M  V30 3049 O 379.078 -0.684109 -6.08265 0
M  V30 3050 C 376.942 -1.17436 -7.18567 0
M  V30 3051 N 375.899 -1.52699 -6.23988 0
M  V30 3052 C 376.068 -2.578 -5.40574 0
M  V30 3053 N 375.041 -2.78966 -4.61193 0
M  V30 3054 C 374.156 -1.78725 -4.95769 0
M  V30 3055 C 372.889 -1.45727 -4.44207 0
M  V30 3056 N 372.29 -2.13994 -3.43613 0
M  V30 3057 N 372.324 -0.374977 -5.05812 0
M  V30 3058 C 372.926 0.345585 -6.05615 0
M  V30 3059 N 374.103 0.0787651 -6.56253 0
M  V30 3060 C 374.678 -1.00499 -5.96189 0
M  V30 3061 H 376.974 -0.0804622 -7.31556 0
M  V30 3062 H 378.157 -2.53396 -6.02698 0
M  V30 3063 H 379.64 -2.93881 -7.85526 0
M  V30 3064 H 377.946 -2.52078 -9.87225 0
M  V30 3065 H 377.756 -4.75072 -9.05887 0
M  V30 3066 H 376.126 -4.05244 -8.76668 0
M  V30 3067 H 372.39 1.20098 -6.4532 0
M  V30 3068 H 376.968 -3.18977 -5.3945 0
M  V30 3069 H 371.36 -1.84983 -3.10004 0
M  V30 3070 H 372.764 -2.9465 -3.00843 0
M  V30 3071 H 378.766 0.177619 -6.34151 0
M  V30 3072 P 380.624 -1.25109 -8.70152 0
M  V30 3073 O 382.046 -1.29744 -9.22016 0
M  V30 3074 O 380.264 -2.13714 -7.55141 0
M  V30 3075 O 380.301 0.248149 -8.21425 0
M  V30 3076 C 380.141 1.22779 -9.30434 0
M  V30 3077 C 380.681 2.56293 -8.80664 0
M  V30 3078 O 379.625 3.02979 -8.09349 0
M  V30 3079 C 381.899 2.57523 -7.89775 0
M  V30 3080 O 382.637 3.7668 -7.89438 0
M  V30 3081 C 381.23 2.20997 -6.55446 0
M  V30 3082 O 382.029 2.71895 -5.48509 0
M  V30 3083 C 379.893 2.89693 -6.67988 0
M  V30 3084 H 379.925 3.88793 -6.19859 0
M  V30 3085 H 381.108 1.12046 -6.44229 0
M  V30 3086 H 382.592 1.7746 -8.19711 0
M  V30 3087 H 380.898 3.20706 -9.67112 0
M  V30 3088 H 380.708 0.901032 -10.1892 0
M  V30 3089 H 379.078 1.33049 -9.56592 0
M  V30 3090 H 381.717 3.57847 -5.23962 0
M  V30 3091 P 383.574 3.65191 -7.99657 0
M  V30 3092 O 384.996 3.89332 -8.45794 0
M  V30 3093 O 383.214 2.28472 -7.50807 0
M  V30 3094 O 383.251 4.64972 -6.77611 0
M  V30 3095 C 383.091 6.06319 -7.16352 0
M  V30 3096 C 383.631 6.91731 -6.02299 0
M  V30 3097 O 382.575 6.92449 -5.17064 0
M  V30 3098 C 384.849 6.43627 -5.25174 0
M  V30 3099 O 385.587 7.43686 -4.60469 0
M  V30 3100 C 384.18 5.40275 -4.31916 0
M  V30 3101 O 384.979 5.25279 -3.14438 0
M  V30 3102 C 382.843 6.04847 -4.05327 0
M  V30 3103 H 382.875 6.62195 -3.11261 0
M  V30 3104 H 384.058 4.42556 -4.81383 0
M  V30 3105 H 385.542 5.92458 -5.93643 0
M  V30 3106 H 383.848 7.92655 -6.402 0
M  V30 3107 H 383.658 6.26671 -8.0846 0
M  V30 3108 H 382.028 6.29101 -7.32804 0
M  V30 3109 H 384.667 5.84315 -2.47318 0
M  V30 3110 P 386.525 7.39546 -4.75277 0
M  V30 3111 O 387.946 7.84882 -5.01092 0
M  V30 3112 O 386.165 5.9812 -5.08098 0
M  V30 3113 O 386.202 7.57503 -3.1866 0
M  V30 3114 C 386.041 8.97452 -2.74862 0
M  V30 3115 C 386.582 9.07548 -1.32709 0
M  V30 3116 O 385.527 8.61972 -0.606089 0
M  V30 3117 C 387.8 8.25383 -0.938334 0
M  V30 3118 O 388.538 8.74577 0.146954 0
M  V30 3119 C 387.132 6.8802 -0.712559 0
M  V30 3120 O 387.93 6.1181 0.188505 0
M  V30 3121 C 385.794 7.27966 -0.139777 0
M  V30 3122 N 384.751 6.39368 -0.623421 0
M  V30 3123 C 384.92 5.71761 -1.78245 0
M  V30 3124 N 383.893 4.962 -2.10491 0
M  V30 3125 C 383.008 5.16158 -1.0635 0
M  V30 3126 C 381.741 4.60425 -0.810266 0
M  V30 3127 N 381.142 3.7057 -1.62914 0
M  V30 3128 N 381.176 5.06 0.348685 0
M  V30 3129 C 381.778 5.94532 1.20395 0
M  V30 3130 N 382.955 6.48452 1.01191 0
M  V30 3131 C 383.53 6.04423 -0.146291 0
M  V30 3132 H 385.826 7.25255 0.961469 0
M  V30 3133 H 387.009 6.32625 -1.65044 0
M  V30 3134 H 388.492 8.19355 -1.79097 0
M  V30 3135 H 386.798 10.1305 -1.09016 0
M  V30 3136 H 386.608 9.64276 -3.41316 0
M  V30 3137 H 384.978 9.25417 -2.76357 0
M  V30 3138 H 381.242 6.21659 2.10714 0
M  V30 3139 H 385.82 5.79354 -2.38959 0
M  V30 3140 H 380.212 3.33174 -1.38982 0
M  V30 3141 H 381.616 3.39714 -2.48836 0
M  V30 3142 H 387.618 6.25169 1.0783 0
M  V30 3143 P 389.475 8.791 1.973e-12 0
M  V30 3144 O 390.897 9.31096 0.027933 0
M  V30 3145 O 389.115 7.77869 -1.04071 0
M  V30 3146 O 389.152 8.09533 1.41463 0
M  V30 3147 C 388.992 9.0349 2.53943 0
M  V30 3148 C 389.532 8.35226 3.79016 0
M  V30 3149 O 388.476 7.57992 4.15078 0
M  V30 3150 C 390.75 7.45087 3.67298 0
M  V30 3151 O 391.488 7.27796 4.85194 0
M  V30 3152 C 390.081 6.17323 3.12027 0
M  V30 3153 O 390.88 5.04231 3.47188 0
M  V30 3154 C 388.744 6.19961 3.81809 0
M  V30 3155 H 388.776 5.58218 4.73051 0
M  V30 3156 H 389.959 6.21726 2.02589 0
M  V30 3157 H 391.443 7.86112 2.9231 0
M  V30 3158 H 389.749 9.11627 4.55076 0
M  V30 3159 H 389.559 9.9573 2.34194 0
M  V30 3160 H 387.929 9.2792 2.67832 0
M  V30 3161 H 390.568 4.67702 4.28772 0
M  V30 3162 P 392.426 7.39546 4.75277 0
M  V30 3163 O 393.848 7.81777 5.05738 0
M  V30 3164 O 392.066 7.1065 3.32998 0
M  V30 3165 O 392.103 6.04542 5.56673 0
M  V30 3166 C 391.943 6.22772 7.02095 0
M  V30 3167 C 392.483 4.97725 7.70406 0
M  V30 3168 O 391.427 4.13256 7.58987 0
M  V30 3169 C 393.701 4.28231 7.11815 0
M  V30 3170 O 394.439 3.49945 8.01648 0
M  V30 3171 C 393.032 3.5063 5.96244 0
M  V30 3172 O 393.831 2.36482 5.64681 0
M  V30 3173 C 391.695 3.15122 6.56374 0
M  V30 3174 H 391.727 2.13853 6.99751 0
M  V30 3175 H 392.91 4.13501 5.06559 0
M  V30 3176 H 394.394 5.03285 6.70911 0
M  V30 3177 H 392.7 5.20877 8.75697 0
M  V30 3178 H 392.51 7.11046 7.35349 0
M  V30 3179 H 390.88 6.35815 7.26986 0
M  V30 3180 H 393.519 1.61644 6.13565 0
M  V30 3181 P 395.376 3.65191 7.99657 0
M  V30 3182 O 396.798 3.8425 8.48115 0
M  V30 3183 O 395.016 4.17805 6.64342 0
M  V30 3184 O 395.053 2.07613 7.95143 0
M  V30 3185 C 394.893 1.44328 9.27336 0
M  V30 3186 C 395.433 0.0220036 9.17197 0
M  V30 3187 O 394.377 -0.626867 8.61923 0
M  V30 3188 C 396.651 -0.24586 8.30336 0
M  V30 3189 O 397.389 -1.39011 8.63583 0
M  V30 3190 C 395.982 -0.273849 6.91158 0
M  V30 3191 O 396.781 -1.06348 6.02892 0
M  V30 3192 C 394.645 -0.897649 7.22545 0
M  V30 3193 H 394.677 -1.9841 7.04286 0
M  V30 3194 H 395.86 0.739928 6.497 0
M  V30 3195 H 397.344 0.60668 8.36503 0
M  V30 3196 H 395.65 -0.352479 10.1829 0
M  V30 3197 H 395.46 2.00611 10.0304 0
M  V30 3198 H 393.83 1.41843 9.55327 0
M  V30 3199 H 396.469 -1.95734 6.03555 0
M  V30 3200 P 398.327 -1.25109 8.70152 0
M  V30 3201 O 399.748 -1.35288 9.2132 0
M  V30 3202 O 397.967 -0.0769065 7.84762 0
M  V30 3203 O 398.004 -2.55232 7.81161 0
M  V30 3204 C 397.843 -3.79979 8.58246 0
M  V30 3205 C 398.384 -4.94023 7.72785 0
M  V30 3206 O 397.329 -5.18666 6.91125 0
M  V30 3207 C 399.602 -4.69597 6.85231 0
M  V30 3208 O 400.34 -5.83832 6.51337 0
M  V30 3209 C 398.934 -3.96706 5.66633 0
M  V30 3210 O 399.732 -4.14896 4.5003 0
M  V30 3211 C 397.596 -4.66153 5.59313 0
M  V30 3212 N 396.553 -3.71582 5.24027 0
M  V30 3213 C 396.722 -2.39715 5.48833 0
M  V30 3214 N 395.695 -1.65863 5.12845 0
M  V30 3215 C 394.81 -2.57637 4.5973 0
M  V30 3216 C 393.543 -2.40278 4.01027 0
M  V30 3217 N 392.978 -3.57711 3.59575 0
M  V30 3218 C 393.58 -4.80324 3.70476 0
M  V30 3219 N 394.757 -5.01121 4.23801 0
M  V30 3220 C 395.332 -3.84757 4.66372 0
M  V30 3221 H 398.811 -2.8955 5.86187 0
M  V30 3222 H 400.294 -4.0121 7.36511 0
M  V30 3223 H 398.6 -5.81019 8.37003 0
M  V30 3224 H 398.41 -3.73517 9.52265 0
M  V30 3225 H 396.78 -3.97163 8.80359 0
M  V30 3226 H 397.622 -1.98804 5.94332 0
M  V30 3227 H 399.42 -4.90891 4.01857 0
M  V30 3228 P 401.278 -5.75688 6.64379 0
M  V30 3229 O 402.699 -6.11915 7.01921 0
M  V30 3230 O 400.918 -4.30744 6.56026 0
M  V30 3231 O 400.955 -6.37042 5.19165 0
M  V30 3232 C 400.794 -7.83662 5.1657 0
M  V30 3233 C 401.335 -8.33398 3.83019 0
M  V30 3234 O 400.28 -8.0998 3.00999 0
M  V30 3235 C 402.553 -7.65514 3.2257 0
M  V30 3236 O 403.291 -8.4329 2.32297 0
M  V30 3237 C 401.885 -6.40075 2.62207 0
M  V30 3238 O 402.683 -5.92338 1.5428 0
M  V30 3239 C 400.547 -6.9454 2.18503 0
M  V30 3240 N 399.504 -5.95905 2.39948 0
M  V30 3241 C 399.673 -4.98383 3.32108 0
M  V30 3242 N 398.646 -4.16798 3.41761 0
M  V30 3243 C 397.761 -4.65287 2.47461 0
M  V30 3244 C 396.494 -4.18946 2.07461 0
M  V30 3245 N 395.929 -4.95327 1.09101 0
M  V30 3246 C 396.531 -6.04369 0.519812 0
M  V30 3247 N 397.708 -6.50694 0.855982 0
M  V30 3248 C 398.283 -5.75818 1.84322 0
M  V30 3249 H 401.762 -5.60502 3.36589 0
M  V30 3250 H 403.245 -7.35707 4.02681 0
M  V30 3251 H 401.551 -9.41302 3.90009 0
M  V30 3252 H 401.361 -8.29056 5.99158 0
M  V30 3253 H 399.731 -8.10073 5.25882 0
M  V30 3254 H 400.573 -4.88564 3.92502 0
M  V30 3255 H 402.371 -6.30224 0.72668 0
M  V30 3256 P 404.228 -8.4349 2.47671 0
M  V30 3257 O 405.65 -8.94167 2.5964 0
M  V30 3258 O 403.868 -7.1704 3.19006 0
M  V30 3259 O 403.905 -8.16596 0.923387 0
M  V30 3260 C 403.745 -9.38437 0.108857 0
M  V30 3261 C 404.285 -9.08175 -1.28353 0
M  V30 3262 O 403.229 -8.44229 -1.84713 0
M  V30 3263 C 405.503 -8.18386 -1.42505 0
M  V30 3264 O 406.241 -8.3501 -2.60497 0
M  V30 3265 C 404.834 -6.80225 -1.25468 0
M  V30 3266 O 405.633 -5.81621 -1.91066 0
M  V30 3267 C 403.497 -7.02416 -1.9168 0
M  V30 3268 H 403.529 -6.6888 -2.96621 0
M  V30 3269 H 404.712 -6.53617 -0.192223 0
M  V30 3270 H 406.196 -8.36622 -0.589963 0
M  V30 3271 H 404.502 -10.0291 -1.79807 0
M  V30 3272 H 404.312 -10.2138 0.558219 0
M  V30 3273 H 402.682 -9.6579 0.0444202 0
M  V30 3274 H 405.321 -5.69556 -2.79637 0
M  V30 3275 P 407.179 -8.4349 -2.47671 0
M  V30 3276 O 408.601 -8.92593 -2.65 0
M  V30 3277 O 406.819 -7.7568 -1.19296 0
M  V30 3278 O 406.856 -7.36886 -3.63805 0
M  V30 3279 C 406.696 -7.95349 -4.982 0
M  V30 3280 C 407.236 -6.94612 -5.98974 0
M  V30 3281 O 406.18 -6.10347 -6.11815 0
M  V30 3282 C 408.454 -6.11426 -5.62335 0
M  V30 3283 O 409.192 -5.6162 -6.70584 0
M  V30 3284 C 407.785 -5.04409 -4.73308 0
M  V30 3285 O 408.584 -3.85992 -4.75183 0
M  V30 3286 C 406.448 -4.8728 -5.41006 0
M  V30 3287 H 406.48 -4.02333 -6.11157 0
M  V30 3288 H 407.663 -5.39466 -3.69543 0
M  V30 3289 H 409.147 -6.71916 -5.01943 0
M  V30 3290 H 407.453 -7.4649 -6.93477 0
M  V30 3291 H 407.263 -8.89416 -5.05237 0
M  V30 3292 H 405.633 -8.14876 -5.18409 0
M  V30 3293 H 408.272 -3.27957 -5.4317 0
M  V30 3294 P 410.129 -5.75688 -6.64379 0
M  V30 3295 O 411.551 -6.07627 -7.05504 0
M  V30 3296 O 409.769 -5.88047 -5.19722 0
M  V30 3297 O 409.806 -4.2322 -7.04443 0
M  V30 3298 C 409.646 -3.99743 -8.4911 0
M  V30 3299 C 410.186 -2.60516 -8.79425 0
M  V30 3300 O 409.13 -1.82684 -8.4467 0
M  V30 3301 C 411.404 -2.10343 -8.03628 0
M  V30 3302 O 412.142 -1.09919 -8.67766 0
M  V30 3303 C 410.735 -1.68446 -6.70876 0
M  V30 3304 O 411.534 -0.678137 -6.08433 0
M  V30 3305 C 409.398 -1.17436 -7.18567 0
M  V30 3306 H 409.43 -0.0804732 -7.31656 0
M  V30 3307 H 410.613 -2.54037 -6.02537 0
M  V30 3308 H 412.097 -2.93881 -7.85526 0
M  V30 3309 H 410.403 -2.53065 -9.86973 0
M  V30 3310 H 410.213 -4.75072 -9.05887 0
M  V30 3311 H 408.583 -4.05244 -8.76668 0
M  V30 3312 H 411.222 0.177647 -6.34251 0
M  V30 3313 P 413.08 -1.25109 -8.70152 0
M  V30 3314 O 414.502 -1.29744 -9.22016 0
M  V30 3315 O 412.72 -2.13714 -7.55141 0
M  V30 3316 O 412.757 0.248149 -8.21425 0
M  V30 3317 C 412.597 1.22779 -9.30434 0
M  V30 3318 C 413.137 2.56293 -8.80664 0
M  V30 3319 O 412.081 3.02979 -8.09349 0
M  V30 3320 C 414.355 2.57523 -7.89775 0
M  V30 3321 O 415.093 3.7668 -7.89438 0
M  V30 3322 C 413.686 2.20997 -6.55446 0
M  V30 3323 O 414.485 2.71895 -5.48509 0
M  V30 3324 C 412.349 2.89693 -6.67988 0
M  V30 3325 H 412.381 3.88793 -6.19859 0
M  V30 3326 H 413.564 1.12046 -6.44229 0
M  V30 3327 H 415.048 1.7746 -8.19711 0
M  V30 3328 H 413.354 3.20706 -9.67112 0
M  V30 3329 H 413.164 0.901032 -10.1892 0
M  V30 3330 H 411.534 1.33049 -9.56592 0
M  V30 3331 H 414.173 3.57847 -5.23962 0
M  V30 3332 P 416.03 3.65191 -7.99657 0
M  V30 3333 O 417.452 3.89332 -8.45794 0
M  V30 3334 O 415.67 2.28472 -7.50807 0
M  V30 3335 O 415.707 4.64972 -6.77611 0
M  V30 3336 C 415.547 6.06319 -7.16352 0
M  V30 3337 C 416.087 6.91731 -6.02299 0
M  V30 3338 O 415.031 6.92449 -5.17064 0
M  V30 3339 C 417.305 6.43627 -5.25174 0
M  V30 3340 O 418.043 7.43686 -4.60469 0
M  V30 3341 C 416.636 5.40275 -4.31916 0
M  V30 3342 O 417.435 5.25279 -3.14438 0
M  V30 3343 C 415.299 6.04847 -4.05327 0
M  V30 3344 H 415.331 6.62195 -3.11261 0
M  V30 3345 H 416.514 4.42556 -4.81383 0
M  V30 3346 H 417.998 5.92458 -5.93643 0
M  V30 3347 H 416.304 7.92655 -6.402 0
M  V30 3348 H 416.114 6.26671 -8.0846 0
M  V30 3349 H 414.484 6.29101 -7.32804 0
M  V30 3350 H 417.123 5.84315 -2.47318 0
M  V30 3351 P 418.981 7.39546 -4.75277 0
M  V30 3352 O 420.403 7.84798 -5.01039 0
M  V30 3353 O 418.621 5.9812 -5.08098 0
M  V30 3354 O 418.658 7.57503 -3.1866 0
M  V30 3355 C 418.498 8.97357 -2.74833 0
M  V30 3356 C 419.038 9.07548 -1.32709 0
M  V30 3357 O 417.982 8.62072 -0.606159 0
M  V30 3358 C 420.256 8.25383 -0.938334 0
M  V30 3359 O 420.994 8.74577 0.146954 0
M  V30 3360 C 419.587 6.8802 -0.712559 0
M  V30 3361 O 420.386 6.1189 0.194655 0
M  V30 3362 C 418.25 7.27966 -0.139777 0
M  V30 3363 H 418.282 7.25354 0.961601 0
M  V30 3364 H 419.465 6.32557 -1.65702 0
M  V30 3365 H 420.949 8.19355 -1.79097 0
M  V30 3366 H 419.255 10.1294 -1.10029 0
M  V30 3367 H 419.065 9.64276 -3.41316 0
M  V30 3368 H 417.435 9.25417 -2.76357 0
M  V30 3369 H 420.074 6.25267 1.07847 0
M  V30 3370 P 421.932 8.791 2.28317e-12 0
M  V30 3371 O 423.353 9.31196 0.027936 0
M  V30 3372 O 421.572 7.77869 -1.04071 0
M  V30 3373 O 421.609 8.09533 1.41463 0
M  V30 3374 C 421.448 9.03587 2.5397 0
M  V30 3375 C 421.989 8.35226 3.79016 0
M  V30 3376 O 420.934 7.57904 4.1503 0
M  V30 3377 C 423.207 7.45087 3.67298 0
M  V30 3378 O 423.945 7.27796 4.85194 0
M  V30 3379 C 422.539 6.17323 3.12027 0
M  V30 3380 O 423.337 5.04496 3.46627 0
M  V30 3381 C 421.201 6.19961 3.81809 0
M  V30 3382 N 420.158 5.71575 2.93223 0
M  V30 3383 C 420.327 5.77362 1.59168 0
M  V30 3384 N 419.3 5.3123 0.911893 0
M  V30 3385 C 418.415 4.91717 1.89588 0
M  V30 3386 C 417.148 4.3114 1.8076 0
M  V30 3387 N 416.549 3.99821 0.632928 0
M  V30 3388 N 416.583 4.06823 3.02898 0
M  V30 3389 C 417.185 4.35062 4.22711 0
M  V30 3390 N 418.362 4.90805 4.35707 0
M  V30 3391 C 418.937 5.16382 3.14469 0
M  V30 3392 H 421.233 5.58142 4.72986 0
M  V30 3393 H 422.416 6.21428 2.0318 0
M  V30 3394 H 423.899 7.86112 2.9231 0
M  V30 3395 H 422.205 9.11171 4.55987 0
M  V30 3396 H 422.015 9.9573 2.34194 0
M  V30 3397 H 420.385 9.2792 2.67832 0
M  V30 3398 H 416.649 4.09052 5.13359 0
M  V30 3399 H 421.227 6.16575 1.12198 0
M  V30 3400 H 415.619 3.55423 0.632085 0
M  V30 3401 H 417.023 4.20317 -0.256712 0
M  V30 3402 H 423.025 4.67628 4.28704 0
M  V30 3403 P 424.882 7.39546 4.75277 0
M  V30 3404 O 426.304 7.81777 5.05738 0
M  V30 3405 O 424.522 7.1065 3.32998 0
M  V30 3406 O 424.559 6.04542 5.56673 0
M  V30 3407 C 424.399 6.22772 7.02095 0
M  V30 3408 C 424.939 4.97725 7.70406 0
M  V30 3409 O 423.883 4.13256 7.58987 0
M  V30 3410 C 426.157 4.28231 7.11815 0
M  V30 3411 O 426.895 3.49945 8.01648 0
M  V30 3412 C 425.488 3.5063 5.96244 0
M  V30 3413 O 426.287 2.36482 5.64681 0
M  V30 3414 C 424.151 3.15122 6.56374 0
M  V30 3415 H 424.183 2.13853 6.99751 0
M  V30 3416 H 425.366 4.13501 5.06559 0
M  V30 3417 H 426.85 5.03285 6.70911 0
M  V30 3418 H 425.156 5.20877 8.75697 0
M  V30 3419 H 424.966 7.11046 7.35349 0
M  V30 3420 H 423.336 6.35815 7.26986 0
M  V30 3421 H 425.975 1.61644 6.13565 0
M  V30 3422 P 427.833 3.65191 7.99657 0
M  V30 3423 O 429.255 3.8425 8.48115 0
M  V30 3424 O 427.473 4.17805 6.64342 0
M  V30 3425 O 427.51 2.07613 7.95143 0
M  V30 3426 C 427.35 1.44328 9.27336 0
M  V30 3427 C 427.89 0.0220036 9.17197 0
M  V30 3428 O 426.834 -0.626867 8.61923 0
M  V30 3429 C 429.108 -0.24586 8.30336 0
M  V30 3430 O 429.846 -1.39011 8.63583 0
M  V30 3431 C 428.439 -0.273849 6.91158 0
M  V30 3432 O 429.238 -1.06348 6.02892 0
M  V30 3433 C 427.102 -0.897649 7.22545 0
M  V30 3434 H 427.134 -1.9841 7.04286 0
M  V30 3435 H 428.317 0.739928 6.497 0
M  V30 3436 H 429.801 0.60668 8.36503 0
M  V30 3437 H 428.107 -0.352479 10.1829 0
M  V30 3438 H 427.917 2.00611 10.0304 0
M  V30 3439 H 426.287 1.41843 9.55327 0
M  V30 3440 H 428.926 -1.95734 6.03555 0
M  V30 3441 P 430.783 -1.25109 8.70152 0
M  V30 3442 O 432.205 -1.35303 9.21419 0
M  V30 3443 O 430.423 -0.0769065 7.84762 0
M  V30 3444 O 430.46 -2.55232 7.81161 0
M  V30 3445 C 430.3 -3.79939 8.58154 0
M  V30 3446 C 430.84 -4.93969 7.72701 0
M  V30 3447 O 429.785 -5.18726 6.91205 0
M  V30 3448 C 432.058 -4.69597 6.85231 0
M  V30 3449 O 432.796 -5.83832 6.51337 0
M  V30 3450 C 431.39 -3.96706 5.66633 0
M  V30 3451 O 432.188 -4.15346 4.49615 0
M  V30 3452 C 430.052 -4.66153 5.59313 0
M  V30 3453 N 429.009 -3.71582 5.24027 0
M  V30 3454 C 429.071 -2.46018 5.67902 0
M  V30 3455 N 428.026 -1.74868 5.24518 0
M  V30 3456 C 427.292 -2.61333 4.54528 0
M  V30 3457 C 425.986 -2.46162 3.95441 0
M  V30 3458 O 425.253 -1.46013 3.94122 0
M  V30 3459 N 425.556 -3.59334 3.34752 0
M  V30 3460 C 426.305 -4.79605 3.3023 0
M  V30 3461 N 425.708 -5.82109 2.6065 0
M  V30 3462 N 427.458 -4.97402 3.8843 0
M  V30 3463 C 427.915 -3.86258 4.50476 0
M  V30 3464 H 430.084 -5.47679 4.85214 0
M  V30 3465 H 431.267 -2.88964 5.86476 0
M  V30 3466 H 432.752 -4.01947 7.36109 0
M  V30 3467 H 431.057 -5.80182 8.37584 0
M  V30 3468 H 430.867 -3.73517 9.52265 0
M  V30 3469 H 429.236 -3.97163 8.80359 0
M  V30 3470 H 424.66 -3.5825 2.90294 0
M  V30 3471 H 429.867 -2.06161 6.30974 0
M  V30 3472 H 424.797 -5.66979 2.15354 0
M  V30 3473 H 426.173 -6.73686 2.54344 0
M  V30 3474 H 431.877 -4.90891 4.01857 0
M  V30 3475 P 433.734 -5.75688 6.64379 0
M  V30 3476 O 435.156 -6.11849 7.01846 0
M  V30 3477 O 433.374 -4.30744 6.56026 0
M  V30 3478 O 433.411 -6.37042 5.19165 0
M  V30 3479 C 433.251 -7.83578 5.16515 0
M  V30 3480 C 433.791 -8.33398 3.83019 0
M  V30 3481 O 432.735 -8.10074 3.01034 0
M  V30 3482 C 435.009 -7.65514 3.2257 0
M  V30 3483 O 435.747 -8.4329 2.32297 0
M  V30 3484 C 434.34 -6.40075 2.62207 0
M  V30 3485 O 435.139 -5.92589 1.53712 0
M  V30 3486 C 433.003 -6.9454 2.18503 0
M  V30 3487 H 433.035 -7.23063 1.12091 0
M  V30 3488 H 434.218 -5.6025 3.37201 0
M  V30 3489 H 435.702 -7.35707 4.02681 0
M  V30 3490 H 434.008 -9.40912 3.9095 0
M  V30 3491 H 433.818 -8.29056 5.99158 0
M  V30 3492 H 432.188 -8.10073 5.25882 0
M  V30 3493 H 434.827 -6.30324 0.726794 0
M  V30 3494 P 436.684 -8.4349 2.47671 0
M  V30 3495 O 438.106 -8.94167 2.5964 0
M  V30 3496 O 436.324 -7.1704 3.19006 0
M  V30 3497 O 436.361 -8.16596 0.923387 0
M  V30 3498 C 436.201 -9.38437 0.108857 0
M  V30 3499 C 436.741 -9.08175 -1.28353 0
M  V30 3500 O 435.685 -8.44229 -1.84713 0
M  V30 3501 C 437.959 -8.18386 -1.42505 0
M  V30 3502 O 438.697 -8.3501 -2.60497 0
M  V30 3503 C 437.29 -6.80225 -1.25468 0
M  V30 3504 O 438.089 -5.81621 -1.91066 0
M  V30 3505 C 435.953 -7.02416 -1.9168 0
M  V30 3506 H 435.985 -6.6888 -2.96621 0
M  V30 3507 H 437.168 -6.53617 -0.192223 0
M  V30 3508 H 438.652 -8.36622 -0.589963 0
M  V30 3509 H 436.958 -10.0291 -1.79807 0
M  V30 3510 H 436.768 -10.2138 0.558219 0
M  V30 3511 H 435.138 -9.6579 0.0444202 0
M  V30 3512 H 437.777 -5.69556 -2.79637 0
M  V30 3513 P 439.635 -8.4349 -2.47671 0
M  V30 3514 O 441.057 -8.92593 -2.65 0
M  V30 3515 O 439.275 -7.7568 -1.19296 0
M  V30 3516 O 439.312 -7.36886 -3.63805 0
M  V30 3517 C 439.152 -7.95349 -4.982 0
M  V30 3518 C 439.692 -6.94612 -5.98974 0
M  V30 3519 O 438.636 -6.10347 -6.11815 0
M  V30 3520 C 440.91 -6.11426 -5.62335 0
M  V30 3521 O 441.648 -5.6162 -6.70584 0
M  V30 3522 C 440.241 -5.04409 -4.73308 0
M  V30 3523 O 441.04 -3.85992 -4.75183 0
M  V30 3524 C 438.904 -4.8728 -5.41006 0
M  V30 3525 H 438.936 -4.02333 -6.11157 0
M  V30 3526 H 440.119 -5.39466 -3.69543 0
M  V30 3527 H 441.603 -6.71916 -5.01943 0
M  V30 3528 H 439.909 -7.4649 -6.93477 0
M  V30 3529 H 439.719 -8.89416 -5.05237 0
M  V30 3530 H 438.089 -8.14876 -5.18409 0
M  V30 3531 H 440.728 -3.27957 -5.4317 0
M  V30 3532 P 442.586 -5.75688 -6.64379 0
M  V30 3533 O 444.008 -6.07627 -7.05504 0
M  V30 3534 O 442.226 -5.88047 -5.19722 0
M  V30 3535 O 442.263 -4.2322 -7.04443 0
M  V30 3536 C 442.103 -3.99743 -8.4911 0
M  V30 3537 C 442.643 -2.60516 -8.79425 0
M  V30 3538 O 441.587 -1.82684 -8.4467 0
M  V30 3539 C 443.861 -2.10343 -8.03628 0
M  V30 3540 O 444.599 -1.09919 -8.67766 0
M  V30 3541 C 443.192 -1.68446 -6.70876 0
M  V30 3542 O 443.991 -0.678137 -6.08433 0
M  V30 3543 C 441.855 -1.17436 -7.18567 0
M  V30 3544 H 441.887 -0.0804732 -7.31656 0
M  V30 3545 H 443.07 -2.54037 -6.02537 0
M  V30 3546 H 444.554 -2.93881 -7.85526 0
M  V30 3547 H 442.86 -2.53065 -9.86973 0
M  V30 3548 H 442.67 -4.75072 -9.05887 0
M  V30 3549 H 441.04 -4.05244 -8.76668 0
M  V30 3550 H 443.679 0.177647 -6.34251 0
M  V30 3551 P 445.536 -1.25109 -8.70152 0
M  V30 3552 O 446.958 -1.29744 -9.22016 0
M  V30 3553 O 445.176 -2.13714 -7.55141 0
M  V30 3554 O 445.213 0.248149 -8.21425 0
M  V30 3555 C 445.053 1.22779 -9.30434 0
M  V30 3556 C 445.593 2.56293 -8.80664 0
M  V30 3557 O 444.537 3.02979 -8.09349 0
M  V30 3558 C 446.811 2.57523 -7.89775 0
M  V30 3559 O 447.549 3.7668 -7.89438 0
M  V30 3560 C 446.142 2.20997 -6.55446 0
M  V30 3561 O 446.941 2.71895 -5.48509 0
M  V30 3562 C 444.805 2.89693 -6.67988 0
M  V30 3563 H 444.837 3.88793 -6.19859 0
M  V30 3564 H 446.02 1.12046 -6.44229 0
M  V30 3565 H 447.504 1.7746 -8.19711 0
M  V30 3566 H 445.81 3.20706 -9.67112 0
M  V30 3567 H 445.62 0.901032 -10.1892 0
M  V30 3568 H 443.99 1.33049 -9.56592 0
M  V30 3569 H 446.629 3.57847 -5.23962 0
M  V30 3570 P 448.487 3.65191 -7.99657 0
M  V30 3571 O 449.909 3.89332 -8.45794 0
M  V30 3572 O 448.127 2.28472 -7.50807 0
M  V30 3573 O 448.164 4.64972 -6.77611 0
M  V30 3574 C 448.004 6.06319 -7.16352 0
M  V30 3575 C 448.544 6.91731 -6.02299 0
M  V30 3576 O 447.488 6.92449 -5.17064 0
M  V30 3577 C 449.762 6.43627 -5.25174 0
M  V30 3578 O 450.5 7.43686 -4.60469 0
M  V30 3579 C 449.093 5.40275 -4.31916 0
M  V30 3580 O 449.892 5.25279 -3.14438 0
M  V30 3581 C 447.756 6.04847 -4.05327 0
M  V30 3582 H 447.788 6.62195 -3.11261 0
M  V30 3583 H 448.971 4.42556 -4.81383 0
M  V30 3584 H 450.455 5.92458 -5.93643 0
M  V30 3585 H 448.761 7.92655 -6.402 0
M  V30 3586 H 448.571 6.26671 -8.0846 0
M  V30 3587 H 446.941 6.29101 -7.32804 0
M  V30 3588 H 449.58 5.84315 -2.47318 0
M  V30 3589 P 451.437 7.39546 -4.75277 0
M  V30 3590 O 452.859 7.84798 -5.01039 0
M  V30 3591 O 451.077 5.9812 -5.08098 0
M  V30 3592 O 451.114 7.57503 -3.1866 0
M  V30 3593 C 450.954 8.97357 -2.74833 0
M  V30 3594 C 451.494 9.07548 -1.32709 0
M  V30 3595 O 450.438 8.62072 -0.606159 0
M  V30 3596 C 452.712 8.25383 -0.938334 0
M  V30 3597 O 453.45 8.74577 0.146954 0
M  V30 3598 C 452.043 6.8802 -0.712559 0
M  V30 3599 O 452.842 6.1189 0.194655 0
M  V30 3600 C 450.706 7.27966 -0.139777 0
M  V30 3601 H 450.738 7.25354 0.961601 0
M  V30 3602 H 451.921 6.32557 -1.65702 0
M  V30 3603 H 453.405 8.19355 -1.79097 0
M  V30 3604 H 451.711 10.1294 -1.10029 0
M  V30 3605 H 451.521 9.64276 -3.41316 0
M  V30 3606 H 449.891 9.25417 -2.76357 0
M  V30 3607 H 452.53 6.25267 1.07847 0
M  V30 3608 P 454.388 8.791 2.59334e-12 0
M  V30 3609 O 455.81 9.31096 0.027933 0
M  V30 3610 O 454.028 7.77869 -1.04071 0
M  V30 3611 O 454.065 8.09533 1.41463 0
M  V30 3612 C 453.905 9.0349 2.53943 0
M  V30 3613 C 454.445 8.35226 3.79016 0
M  V30 3614 O 453.389 7.57992 4.15078 0
M  V30 3615 C 455.663 7.45087 3.67298 0
M  V30 3616 O 456.401 7.27796 4.85194 0
M  V30 3617 C 454.994 6.17323 3.12027 0
M  V30 3618 O 455.793 5.04231 3.47188 0
M  V30 3619 C 453.657 6.19961 3.81809 0
M  V30 3620 H 453.689 5.58218 4.73051 0
M  V30 3621 H 454.872 6.21726 2.02589 0
M  V30 3622 H 456.356 7.86112 2.9231 0
M  V30 3623 H 454.662 9.11627 4.55076 0
M  V30 3624 H 454.472 9.9573 2.34194 0
M  V30 3625 H 452.842 9.2792 2.67832 0
M  V30 3626 H 455.481 4.67702 4.28772 0
M  V30 3627 P 457.338 7.39546 4.75277 0
M  V30 3628 O 458.759 7.81861 5.05793 0
M  V30 3629 O 456.978 7.1065 3.32998 0
M  V30 3630 O 457.015 6.04542 5.56673 0
M  V30 3631 C 456.854 6.22839 7.02169 0
M  V30 3632 C 457.395 4.97725 7.70406 0
M  V30 3633 O 456.34 4.13208 7.58899 0
M  V30 3634 C 458.613 4.28231 7.11815 0
M  V30 3635 O 459.351 3.49945 8.01648 0
M  V30 3636 C 457.945 3.5063 5.96244 0
M  V30 3637 O 458.743 2.37008 5.64352 0
M  V30 3638 C 456.607 3.15122 6.56374 0
M  V30 3639 N 455.564 3.22311 5.55692 0
M  V30 3640 C 455.733 3.99655 4.46046 0
M  V30 3641 N 454.706 3.97599 3.63918 0
M  V30 3642 C 453.821 3.11159 4.25334 0
M  V30 3643 C 452.554 2.64972 3.85157 0
M  V30 3644 N 451.989 1.78482 4.74759 0
M  V30 3645 C 452.591 1.37463 5.90819 0
M  V30 3646 N 453.768 1.7733 6.31889 0
M  V30 3647 C 454.343 2.64393 5.43725 0
M  V30 3648 H 457.822 4.12931 5.06895 0
M  V30 3649 H 459.305 5.03285 6.70911 0
M  V30 3650 H 457.611 5.20001 8.76217 0
M  V30 3651 H 457.421 7.11046 7.35349 0
M  V30 3652 H 455.791 6.35815 7.26986 0
M  V30 3653 H 456.633 4.58037 4.27732 0
M  V30 3654 H 458.431 1.61619 6.13468 0
M  V30 3655 P 460.289 3.65191 7.99657 0
M  V30 3656 O 461.711 3.8425 8.48115 0
M  V30 3657 O 459.929 4.17805 6.64342 0
M  V30 3658 O 459.966 2.07613 7.95143 0
M  V30 3659 C 459.806 1.44328 9.27336 0
M  V30 3660 C 460.346 0.0220036 9.17197 0
M  V30 3661 O 459.29 -0.626867 8.61923 0
M  V30 3662 C 461.564 -0.24586 8.30336 0
M  V30 3663 O 462.302 -1.39011 8.63583 0
M  V30 3664 C 460.895 -0.273849 6.91158 0
M  V30 3665 O 461.694 -1.06348 6.02892 0
M  V30 3666 C 459.558 -0.897649 7.22545 0
M  V30 3667 H 459.59 -1.9841 7.04286 0
M  V30 3668 H 460.773 0.739928 6.497 0
M  V30 3669 H 462.257 0.60668 8.36503 0
M  V30 3670 H 460.563 -0.352479 10.1829 0
M  V30 3671 H 460.373 2.00611 10.0304 0
M  V30 3672 H 458.743 1.41843 9.55327 0
M  V30 3673 H 461.382 -1.95734 6.03555 0
M  V30 3674 P 463.239 -1.25109 8.70152 0
M  V30 3675 O 464.661 -1.35303 9.21419 0
M  V30 3676 O 462.879 -0.0769065 7.84762 0
M  V30 3677 O 462.916 -2.55232 7.81161 0
M  V30 3678 C 462.756 -3.79939 8.58154 0
M  V30 3679 C 463.296 -4.93969 7.72701 0
M  V30 3680 O 462.241 -5.18726 6.91205 0
M  V30 3681 C 464.514 -4.69597 6.85231 0
M  V30 3682 O 465.252 -5.83832 6.51337 0
M  V30 3683 C 463.846 -3.96706 5.66633 0
M  V30 3684 O 464.644 -4.15346 4.49615 0
M  V30 3685 C 462.508 -4.66153 5.59313 0
M  V30 3686 N 461.465 -3.71582 5.24027 0
M  V30 3687 C 461.527 -2.46018 5.67902 0
M  V30 3688 N 460.482 -1.74868 5.24518 0
M  V30 3689 C 459.748 -2.61333 4.54528 0
M  V30 3690 C 458.442 -2.46162 3.95441 0
M  V30 3691 O 457.709 -1.46013 3.94122 0
M  V30 3692 N 458.012 -3.59334 3.34752 0
M  V30 3693 C 458.761 -4.79605 3.3023 0
M  V30 3694 N 458.164 -5.82109 2.6065 0
M  V30 3695 N 459.914 -4.97402 3.8843 0
M  V30 3696 C 460.371 -3.86258 4.50476 0
M  V30 3697 H 462.54 -5.47679 4.85214 0
M  V30 3698 H 463.723 -2.88964 5.86476 0
M  V30 3699 H 465.208 -4.01947 7.36109 0
M  V30 3700 H 463.513 -5.80182 8.37584 0
M  V30 3701 H 463.323 -3.73517 9.52265 0
M  V30 3702 H 461.692 -3.97163 8.80359 0
M  V30 3703 H 457.116 -3.5825 2.90294 0
M  V30 3704 H 462.323 -2.06161 6.30974 0
M  V30 3705 H 457.253 -5.66979 2.15354 0
M  V30 3706 H 458.629 -6.73686 2.54344 0
M  V30 3707 H 464.333 -4.90891 4.01857 0
M  V30 3708 P 466.19 -5.75688 6.64379 0
M  V30 3709 O 467.612 -6.11849 7.01846 0
M  V30 3710 O 465.83 -4.30744 6.56026 0
M  V30 3711 O 465.867 -6.37042 5.19165 0
M  V30 3712 C 465.707 -7.83578 5.16515 0
M  V30 3713 C 466.247 -8.33398 3.83019 0
M  V30 3714 O 465.191 -8.10074 3.01034 0
M  V30 3715 C 467.465 -7.65514 3.2257 0
M  V30 3716 O 468.203 -8.4329 2.32297 0
M  V30 3717 C 466.796 -6.40075 2.62207 0
M  V30 3718 O 467.595 -5.92589 1.53712 0
M  V30 3719 C 465.459 -6.9454 2.18503 0
M  V30 3720 H 465.491 -7.23063 1.12091 0
M  V30 3721 H 466.674 -5.6025 3.37201 0
M  V30 3722 H 468.158 -7.35707 4.02681 0
M  V30 3723 H 466.464 -9.40912 3.9095 0
M  V30 3724 H 466.274 -8.29056 5.99158 0
M  V30 3725 H 464.644 -8.10073 5.25882 0
M  V30 3726 H 467.283 -6.30324 0.726794 0
M  V30 3727 P 469.141 -8.4349 2.47671 0
M  V30 3728 O 470.542 -8.98227 2.65696 0
M  V30 3729 O 468.763 -7.20409 3.23964 0
M  V30 3730 O 468.818 -8.16496 0.923275 0
M  V30 3731 C 468.658 -9.38437 0.108857 0
M  V30 3732 C 469.198 -9.08076 -1.28339 0
M  V30 3733 O 468.142 -8.44131 -1.84692 0
M  V30 3734 C 470.415 -8.18386 -1.42505 0
M  V30 3735 O 471.154 -8.3501 -2.60497 0
M  V30 3736 C 469.748 -6.80225 -1.25468 0
M  V30 3737 O 470.546 -5.81526 -1.91035 0
M  V30 3738 C 468.41 -7.02416 -1.9168 0
M  V30 3739 N 467.367 -6.31033 -1.20314 0
M  V30 3740 C 466.332 -5.77149 -1.928 0
M  V30 3741 O 466.371 -5.8521 -3.17729 0
M  V30 3742 N 465.32 -5.15445 -1.27997 0
M  V30 3743 C 465.368 -5.04472 0.0534726 0
M  V30 3744 C 466.464 -5.55244 0.808522 0
M  V30 3745 C 467.43 -6.18542 0.13981 0
M  V30 3746 H 468.442 -6.68789 -2.9658 0
M  V30 3747 H 469.625 -6.53498 -0.198729 0
M  V30 3748 H 471.109 -8.36663 -0.5984 0
M  V30 3749 H 469.415 -10.0273 -1.8081 0
M  V30 3750 H 469.224 -10.2138 0.558219 0
M  V30 3751 H 467.594 -9.6569 0.0444156 0
M  V30 3752 H 466.512 -5.43017 1.88792 0
M  V30 3753 H 468.276 -6.60539 0.686773 0
M  V30 3754 H 470.33 -5.79638 -2.8315 0
M  V30 3755 P 472.091 -8.4349 -2.47671 0
M  V30 3756 O 473.513 -8.92593 -2.65 0
M  V30 3757 O 471.731 -7.7568 -1.19296 0
M  V30 3758 O 471.768 -7.36886 -3.63805 0
M  V30 3759 C 471.608 -7.95349 -4.982 0
M  V30 3760 C 472.148 -6.94612 -5.98974 0
M  V30 3761 O 471.092 -6.10347 -6.11815 0
M  V30 3762 C 473.366 -6.11426 -5.62335 0
M  V30 3763 O 474.104 -5.6162 -6.70584 0
M  V30 3764 C 472.697 -5.04409 -4.73308 0
M  V30 3765 O 473.496 -3.85992 -4.75183 0
M  V30 3766 C 471.36 -4.8728 -5.41006 0
M  V30 3767 H 471.392 -4.02333 -6.11157 0
M  V30 3768 H 472.575 -5.39466 -3.69543 0
M  V30 3769 H 474.059 -6.71916 -5.01943 0
M  V30 3770 H 472.365 -7.4649 -6.93477 0
M  V30 3771 H 472.175 -8.89416 -5.05237 0
M  V30 3772 H 470.545 -8.14876 -5.18409 0
M  V30 3773 H 473.184 -3.27957 -5.4317 0
M  V30 3774 P 475.042 -5.75688 -6.64379 0
M  V30 3775 O 476.463 -6.07692 -7.0558 0
M  V30 3776 O 474.682 -5.88047 -5.19722 0
M  V30 3777 O 474.719 -4.2322 -7.04443 0
M  V30 3778 C 474.558 -3.99785 -8.49201 0
M  V30 3779 C 475.099 -2.60516 -8.79425 0
M  V30 3780 O 474.044 -1.82663 -8.44573 0
M  V30 3781 C 476.317 -2.10343 -8.03628 0
M  V30 3782 O 477.055 -1.09919 -8.67766 0
M  V30 3783 C 475.649 -1.68446 -6.70876 0
M  V30 3784 O 476.447 -0.684109 -6.08265 0
M  V30 3785 C 474.311 -1.17436 -7.18567 0
M  V30 3786 N 473.268 -1.52699 -6.23988 0
M  V30 3787 C 473.437 -2.578 -5.40574 0
M  V30 3788 N 472.41 -2.78966 -4.61193 0
M  V30 3789 C 471.525 -1.78725 -4.95769 0
M  V30 3790 C 470.258 -1.45727 -4.44207 0
M  V30 3791 N 469.659 -2.13994 -3.43613 0
M  V30 3792 N 469.693 -0.374977 -5.05812 0
M  V30 3793 C 470.295 0.345585 -6.05615 0
M  V30 3794 N 471.472 0.0787651 -6.56253 0
M  V30 3795 C 472.047 -1.00499 -5.96189 0
M  V30 3796 H 474.343 -0.0804622 -7.31556 0
M  V30 3797 H 475.526 -2.53396 -6.02698 0
M  V30 3798 H 477.009 -2.93881 -7.85526 0
M  V30 3799 H 475.315 -2.52078 -9.87225 0
M  V30 3800 H 475.125 -4.75072 -9.05887 0
M  V30 3801 H 473.495 -4.05244 -8.76668 0
M  V30 3802 H 469.759 1.20098 -6.4532 0
M  V30 3803 H 474.337 -3.18977 -5.3945 0
M  V30 3804 H 468.729 -1.84983 -3.10004 0
M  V30 3805 H 470.133 -2.9465 -3.00843 0
M  V30 3806 H 476.135 0.177619 -6.34151 0
M  V30 3807 P 477.992 -1.25109 -8.70152 0
M  V30 3808 O 479.414 -1.29772 -9.22214 0
M  V30 3809 O 477.632 -2.13714 -7.55141 0
M  V30 3810 O 477.669 0.248149 -8.21425 0
M  V30 3811 C 477.509 1.22779 -9.30434 0
M  V30 3812 C 478.049 2.56265 -8.80568 0
M  V30 3813 O 476.994 3.02979 -8.09349 0
M  V30 3814 C 479.267 2.57523 -7.89775 0
M  V30 3815 O 480.005 3.7668 -7.89438 0
M  V30 3816 C 478.599 2.20997 -6.55446 0
M  V30 3817 O 479.397 2.71851 -5.48419 0
M  V30 3818 C 477.261 2.89693 -6.67988 0
M  V30 3819 N 476.218 2.08895 -6.07487 0
M  V30 3820 C 476.28 0.760559 -6.14209 0
M  V30 3821 N 475.235 0.200108 -5.52538 0
M  V30 3822 C 474.501 1.22692 -5.09742 0
M  V30 3823 C 473.195 1.24782 -4.48775 0
M  V30 3824 O 472.462 0.290617 -4.19294 0
M  V30 3825 N 472.765 2.50468 -4.22428 0
M  V30 3826 C 473.514 3.67142 -4.51974 0
M  V30 3827 N 472.917 4.85096 -4.14091 0
M  V30 3828 N 474.667 3.67821 -5.12831 0
M  V30 3829 C 475.124 2.43698 -5.4105 0
M  V30 3830 H 477.293 3.88793 -6.19859 0
M  V30 3831 H 478.476 1.12029 -6.4413 0
M  V30 3832 H 479.961 1.78279 -8.19533 0
M  V30 3833 H 478.266 3.20706 -9.67112 0
M  V30 3834 H 478.076 0.901032 -10.1892 0
M  V30 3835 H 476.445 1.33049 -9.56592 0
M  V30 3836 H 471.869 2.61953 -3.79465 0
M  V30 3837 H 477.076 0.200439 -6.63497 0
M  V30 3838 H 472.006 4.8334 -3.66367 0
M  V30 3839 H 473.382 5.7474 -4.33841 0
M  V30 3840 H 479.086 3.5779 -5.23879 0
M  V30 3841 P 480.943 3.65191 -7.99657 0
M  V30 3842 O 482.365 3.89416 -8.45976 0
M  V30 3843 O 480.583 2.28472 -7.50807 0
M  V30 3844 O 480.62 4.64972 -6.77611 0
M  V30 3845 C 480.46 6.06319 -7.16352 0
M  V30 3846 C 481 6.91655 -6.02234 0
M  V30 3847 O 479.945 6.92449 -5.17064 0
M  V30 3848 C 482.218 6.43627 -5.25174 0
M  V30 3849 O 482.956 7.43686 -4.60469 0
M  V30 3850 C 481.55 5.40275 -4.31916 0
M  V30 3851 O 482.348 5.25193 -3.14386 0
M  V30 3852 C 480.212 6.04847 -4.05327 0
M  V30 3853 N 479.169 5.04166 -3.98114 0
M  V30 3854 C 479.231 3.96049 -4.75587 0
M  V30 3855 N 478.186 3.15559 -4.54006 0
M  V30 3856 C 477.452 3.78802 -3.62491 0
M  V30 3857 C 476.146 3.476 -3.10071 0
M  V30 3858 O 475.413 2.51136 -3.37021 0
M  V30 3859 N 475.716 4.39088 -2.19956 0
M  V30 3860 C 476.465 5.53215 -1.81733 0
M  V30 3861 N 475.868 6.31963 -0.860928 0
M  V30 3862 N 477.618 5.86688 -2.32562 0
M  V30 3863 C 478.075 4.97525 -3.23407 0
M  V30 3864 H 480.244 6.62195 -3.11261 0
M  V30 3865 H 481.427 4.42488 -4.8131 0
M  V30 3866 H 482.912 5.93051 -5.9305 0
M  V30 3867 H 481.217 7.92655 -6.402 0
M  V30 3868 H 481.027 6.26671 -8.0846 0
M  V30 3869 H 479.396 6.29101 -7.32804 0
M  V30 3870 H 474.82 4.25523 -1.77604 0
M  V30 3871 H 480.027 3.75576 -5.47333 0
M  V30 3872 H 474.957 6.04684 -0.468946 0
M  V30 3873 H 476.333 7.18054 -0.542422 0
M  V30 3874 H 482.037 5.84223 -2.47279 0
M  V30 3875 P 483.893 7.39546 -4.75277 0
M  V30 3876 O 485.315 7.84966 -5.01146 0
M  V30 3877 O 483.533 5.9812 -5.08098 0
M  V30 3878 O 483.57 7.57503 -3.1866 0
M  V30 3879 C 483.41 8.97357 -2.74833 0
M  V30 3880 C 483.95 9.0745 -1.32694 0
M  V30 3881 O 482.895 8.62072 -0.606159 0
M  V30 3882 C 485.168 8.25383 -0.938334 0
M  V30 3883 O 485.906 8.74577 0.146954 0
M  V30 3884 C 484.5 6.8802 -0.712559 0
M  V30 3885 O 485.298 6.11791 0.194623 0
M  V30 3886 C 483.162 7.27966 -0.139777 0
M  V30 3887 N 482.119 6.39368 -0.623421 0
M  V30 3888 C 482.181 5.90299 -1.85969 0
M  V30 3889 N 481.136 5.10919 -2.1133 0
M  V30 3890 C 480.402 5.14646 -1.0015 0
M  V30 3891 C 479.096 4.60057 -0.729219 0
M  V30 3892 O 478.363 3.93476 -1.47746 0
M  V30 3893 N 478.666 4.88302 0.523505 0
M  V30 3894 C 479.415 5.63646 1.46207 0
M  V30 3895 N 478.818 5.78186 2.69239 0
M  V30 3896 N 480.568 6.19285 1.21544 0
M  V30 3897 C 481.025 5.93392 -0.0308487 0
M  V30 3898 H 483.194 7.25354 0.961601 0
M  V30 3899 H 484.377 6.3246 -1.65676 0
M  V30 3900 H 485.862 8.19533 -1.78278 0
M  V30 3901 H 484.167 10.1294 -1.10029 0
M  V30 3902 H 483.977 9.64276 -3.41316 0
M  V30 3903 H 482.346 9.25417 -2.76357 0
M  V30 3904 H 477.77 4.53993 0.806451 0
M  V30 3905 H 482.977 6.11865 -2.57394 0
M  V30 3906 H 477.907 5.34046 2.87467 0
M  V30 3907 H 479.283 6.33391 3.42578 0
M  V30 3908 H 484.987 6.25169 1.0783 0
M  V30 3909 P 486.844 8.791 2.9035e-12 0
M  V30 3910 O 488.266 9.31096 0.027933 0
M  V30 3911 O 486.484 7.77869 -1.04071 0
M  V30 3912 O 486.521 8.09533 1.41463 0
M  V30 3913 C 486.361 9.0349 2.53943 0
M  V30 3914 C 486.901 8.35226 3.79016 0
M  V30 3915 O 485.845 7.57992 4.15078 0
M  V30 3916 C 488.119 7.45087 3.67298 0
M  V30 3917 O 488.857 7.27796 4.85194 0
M  V30 3918 C 487.45 6.17323 3.12027 0
M  V30 3919 O 488.249 5.04231 3.47188 0
M  V30 3920 C 486.113 6.19961 3.81809 0
M  V30 3921 H 486.145 5.58218 4.73051 0
M  V30 3922 H 487.328 6.21726 2.02589 0
M  V30 3923 H 488.812 7.86112 2.9231 0
M  V30 3924 H 487.118 9.11627 4.55076 0
M  V30 3925 H 486.928 9.9573 2.34194 0
M  V30 3926 H 485.298 9.2792 2.67832 0
M  V30 3927 H 487.937 4.67702 4.28772 0
M  V30 3928 P 489.795 7.39546 4.75277 0
M  V30 3929 O 491.217 7.81777 5.05738 0
M  V30 3930 O 489.435 7.1065 3.32998 0
M  V30 3931 O 489.472 6.04542 5.56673 0
M  V30 3932 C 489.312 6.22772 7.02095 0
M  V30 3933 C 489.852 4.97725 7.70406 0
M  V30 3934 O 488.796 4.13256 7.58987 0
M  V30 3935 C 491.07 4.28231 7.11815 0
M  V30 3936 O 491.808 3.49945 8.01648 0
M  V30 3937 C 490.401 3.5063 5.96244 0
M  V30 3938 O 491.2 2.36482 5.64681 0
M  V30 3939 C 489.064 3.15122 6.56374 0
M  V30 3940 H 489.096 2.13853 6.99751 0
M  V30 3941 H 490.279 4.13501 5.06559 0
M  V30 3942 H 491.763 5.03285 6.70911 0
M  V30 3943 H 490.069 5.20877 8.75697 0
M  V30 3944 H 489.879 7.11046 7.35349 0
M  V30 3945 H 488.249 6.35815 7.26986 0
M  V30 3946 H 490.888 1.61644 6.13565 0
M  V30 3947 P 492.745 3.65191 7.99657 0
M  V30 3948 O 494.166 3.84292 8.48206 0
M  V30 3949 O 492.385 4.17805 6.64342 0
M  V30 3950 O 492.422 2.07613 7.95143 0
M  V30 3951 C 492.261 1.44344 9.27435 0
M  V30 3952 C 492.802 0.0220036 9.17197 0
M  V30 3953 O 491.747 -0.626794 8.61824 0
M  V30 3954 C 494.02 -0.24586 8.30336 0
M  V30 3955 O 494.758 -1.39011 8.63583 0
M  V30 3956 C 493.352 -0.273849 6.91158 0
M  V30 3957 O 494.15 -1.05728 6.029 0
M  V30 3958 C 492.014 -0.897649 7.22545 0
M  V30 3959 N 490.971 -0.292839 6.41732 0
M  V30 3960 C 491.14 0.950603 5.91308 0
M  V30 3961 N 490.113 1.37732 5.21105 0
M  V30 3962 C 489.228 0.318109 5.26039 0
M  V30 3963 C 487.961 0.146766 4.6727 0
M  V30 3964 N 487.362 1.08519 3.89983 0
M  V30 3965 N 487.396 -1.06525 4.95887 0
M  V30 3966 C 487.998 -2.0378 5.71347 0
M  V30 3967 N 489.175 -1.92445 6.27451 0
M  V30 3968 C 489.75 -0.715382 6.00353 0
M  V30 3969 H 492.046 -1.98383 7.04189 0
M  V30 3970 H 493.229 0.733318 6.49674 0
M  V30 3971 H 494.712 0.60668 8.36503 0
M  V30 3972 H 493.018 -0.362662 10.1825 0
M  V30 3973 H 492.828 2.00611 10.0304 0
M  V30 3974 H 491.198 1.41843 9.55327 0
M  V30 3975 H 487.462 -2.97041 5.85344 0
M  V30 3976 H 492.04 1.54076 6.07465 0
M  V30 3977 H 486.432 0.901517 3.49562 0
M  V30 3978 H 487.836 1.97957 3.71669 0
M  V30 3979 H 493.838 -1.95704 6.0346 0
M  V30 3980 P 495.696 -1.25109 8.70152 0
M  V30 3981 O 497.118 -1.35274 9.21221 0
M  V30 3982 O 495.336 -0.0769065 7.84762 0
M  V30 3983 O 495.373 -2.55232 7.81161 0
M  V30 3984 C 495.213 -3.79939 8.58154 0
M  V30 3985 C 495.753 -4.94023 7.72785 0
M  V30 3986 O 494.697 -5.18726 6.91205 0
M  V30 3987 C 496.971 -4.69597 6.85231 0
M  V30 3988 O 497.709 -5.83832 6.51337 0
M  V30 3989 C 496.302 -3.96706 5.66633 0
M  V30 3990 O 497.101 -4.15414 4.49689 0
M  V30 3991 C 494.965 -4.66153 5.59313 0
M  V30 3992 H 494.997 -5.47679 4.85214 0
M  V30 3993 H 496.18 -2.89008 5.86566 0
M  V30 3994 H 497.664 -4.0121 7.36511 0
M  V30 3995 H 495.97 -5.80182 8.37584 0
M  V30 3996 H 495.78 -3.73517 9.52265 0
M  V30 3997 H 494.15 -3.97163 8.80359 0
M  V30 3998 H 496.789 -4.90969 4.01921 0
M  V30 3999 P 498.646 -5.75688 6.64379 0
M  V30 4000 O 500.068 -6.11849 7.01846 0
M  V30 4001 O 498.286 -4.30744 6.56026 0
M  V30 4002 O 498.323 -6.37042 5.19165 0
M  V30 4003 C 498.163 -7.83578 5.16515 0
M  V30 4004 C 498.703 -8.33398 3.83019 0
M  V30 4005 O 497.647 -8.10074 3.01034 0
M  V30 4006 C 499.921 -7.65514 3.2257 0
M  V30 4007 O 500.659 -8.4329 2.32297 0
M  V30 4008 C 499.252 -6.40075 2.62207 0
M  V30 4009 O 500.051 -5.92589 1.53712 0
M  V30 4010 C 497.915 -6.9454 2.18503 0
M  V30 4011 H 497.947 -7.23063 1.12091 0
M  V30 4012 H 499.13 -5.6025 3.37201 0
M  V30 4013 H 500.614 -7.35707 4.02681 0
M  V30 4014 H 498.92 -9.40912 3.9095 0
M  V30 4015 H 498.73 -8.29056 5.99158 0
M  V30 4016 H 497.1 -8.10073 5.25882 0
M  V30 4017 H 499.739 -6.30324 0.726794 0
M  V30 4018 P 501.597 -8.4349 2.47671 0
M  V30 4019 O 503.019 -8.94167 2.5964 0
M  V30 4020 O 501.237 -7.1704 3.19006 0
M  V30 4021 O 501.274 -8.16596 0.923387 0
M  V30 4022 C 501.114 -9.38437 0.108857 0
M  V30 4023 C 501.654 -9.08175 -1.28353 0
M  V30 4024 O 500.598 -8.44229 -1.84713 0
M  V30 4025 C 502.872 -8.18386 -1.42505 0
M  V30 4026 O 503.61 -8.3501 -2.60497 0
M  V30 4027 C 502.203 -6.80225 -1.25468 0
M  V30 4028 O 503.002 -5.81621 -1.91066 0
M  V30 4029 C 500.866 -7.02416 -1.9168 0
M  V30 4030 H 500.898 -6.6888 -2.96621 0
M  V30 4031 H 502.081 -6.53617 -0.192223 0
M  V30 4032 H 503.565 -8.36622 -0.589963 0
M  V30 4033 H 501.871 -10.0291 -1.79807 0
M  V30 4034 H 501.681 -10.2138 0.558219 0
M  V30 4035 H 500.051 -9.6579 0.0444202 0
M  V30 4036 H 502.69 -5.69556 -2.79637 0
M  V30 4037 P 504.547 -8.4349 -2.47671 0
M  V30 4038 O 505.969 -8.92593 -2.65 0
M  V30 4039 O 504.187 -7.7568 -1.19296 0
M  V30 4040 O 504.224 -7.36886 -3.63805 0
M  V30 4041 C 504.064 -7.95349 -4.982 0
M  V30 4042 C 504.604 -6.94612 -5.98974 0
M  V30 4043 O 503.548 -6.10347 -6.11815 0
M  V30 4044 C 505.822 -6.11426 -5.62335 0
M  V30 4045 O 506.56 -5.6162 -6.70584 0
M  V30 4046 C 505.153 -5.04409 -4.73308 0
M  V30 4047 O 505.952 -3.85992 -4.75183 0
M  V30 4048 C 503.816 -4.8728 -5.41006 0
M  V30 4049 H 503.848 -4.02333 -6.11157 0
M  V30 4050 H 505.031 -5.39466 -3.69543 0
M  V30 4051 H 506.515 -6.71916 -5.01943 0
M  V30 4052 H 504.821 -7.4649 -6.93477 0
M  V30 4053 H 504.631 -8.89416 -5.05237 0
M  V30 4054 H 503.001 -8.14876 -5.18409 0
M  V30 4055 H 505.64 -3.27957 -5.4317 0
M  V30 4056 P 507.498 -5.75688 -6.64379 0
M  V30 4057 O 508.92 -6.07627 -7.05504 0
M  V30 4058 O 507.138 -5.88047 -5.19722 0
M  V30 4059 O 507.175 -4.2322 -7.04443 0
M  V30 4060 C 507.015 -3.99743 -8.4911 0
M  V30 4061 C 507.555 -2.60516 -8.79425 0
M  V30 4062 O 506.499 -1.82684 -8.4467 0
M  V30 4063 C 508.773 -2.10343 -8.03628 0
M  V30 4064 O 509.511 -1.09919 -8.67766 0
M  V30 4065 C 508.104 -1.68446 -6.70876 0
M  V30 4066 O 508.903 -0.678137 -6.08433 0
M  V30 4067 C 506.767 -1.17436 -7.18567 0
M  V30 4068 H 506.799 -0.0804732 -7.31656 0
M  V30 4069 H 507.982 -2.54037 -6.02537 0
M  V30 4070 H 509.466 -2.93881 -7.85526 0
M  V30 4071 H 507.772 -2.53065 -9.86973 0
M  V30 4072 H 507.582 -4.75072 -9.05887 0
M  V30 4073 H 505.952 -4.05244 -8.76668 0
M  V30 4074 H 508.591 0.177647 -6.34251 0
M  V30 4075 P 510.449 -1.25109 -8.70152 0
M  V30 4076 O 511.871 -1.29744 -9.22016 0
M  V30 4077 O 510.089 -2.13714 -7.55141 0
M  V30 4078 O 510.126 0.248149 -8.21425 0
M  V30 4079 C 509.966 1.22779 -9.30434 0
M  V30 4080 C 510.506 2.56293 -8.80664 0
M  V30 4081 O 509.45 3.02979 -8.09349 0
M  V30 4082 C 511.724 2.57523 -7.89775 0
M  V30 4083 O 512.462 3.7668 -7.89438 0
M  V30 4084 C 511.055 2.20997 -6.55446 0
M  V30 4085 O 511.854 2.71895 -5.48509 0
M  V30 4086 C 509.718 2.89693 -6.67988 0
M  V30 4087 H 509.75 3.88793 -6.19859 0
M  V30 4088 H 510.933 1.12046 -6.44229 0
M  V30 4089 H 512.417 1.7746 -8.19711 0
M  V30 4090 H 510.723 3.20706 -9.67112 0
M  V30 4091 H 510.533 0.901032 -10.1892 0
M  V30 4092 H 508.903 1.33049 -9.56592 0
M  V30 4093 H 511.542 3.57847 -5.23962 0
M  V30 4094 P 513.399 3.65191 -7.99657 0
M  V30 4095 O 514.82 3.89374 -8.45885 0
M  V30 4096 O 513.039 2.28472 -7.50807 0
M  V30 4097 O 513.076 4.64972 -6.77611 0
M  V30 4098 C 512.915 6.06383 -7.16428 0
M  V30 4099 C 513.456 6.91731 -6.02299 0
M  V30 4100 O 512.401 6.92369 -5.17005 0
M  V30 4101 C 514.674 6.43627 -5.25174 0
M  V30 4102 O 515.412 7.43686 -4.60469 0
M  V30 4103 C 514.006 5.40275 -4.31916 0
M  V30 4104 O 514.804 5.24878 -3.14911 0
M  V30 4105 C 512.668 6.04847 -4.05327 0
M  V30 4106 N 511.625 5.04166 -3.98114 0
M  V30 4107 C 511.794 3.84629 -4.59066 0
M  V30 4108 N 510.767 3.0363 -4.45343 0
M  V30 4109 C 509.882 3.76722 -3.68523 0
M  V30 4110 C 508.615 3.43528 -3.17088 0
M  V30 4111 N 508.016 2.23665 -3.37397 0
M  V30 4112 N 508.05 4.44526 -2.44231 0
M  V30 4113 C 508.652 5.65243 -2.20146 0
M  V30 4114 N 509.829 6.00221 -2.65453 0
M  V30 4115 C 510.404 5.00564 -3.39083 0
M  V30 4116 H 512.7 6.62104 -3.11218 0
M  V30 4117 H 513.883 4.42969 -4.80867 0
M  V30 4118 H 515.366 5.92458 -5.93643 0
M  V30 4119 H 513.672 7.93295 -6.39407 0
M  V30 4120 H 513.482 6.26671 -8.0846 0
M  V30 4121 H 511.852 6.29101 -7.32804 0
M  V30 4122 H 508.116 6.36894 -1.5883 0
M  V30 4123 H 512.694 3.58193 -5.14248 0
M  V30 4124 H 507.086 2.05145 -2.97047 0
M  V30 4125 H 508.49 1.51255 -3.92998 0
M  V30 4126 H 514.492 5.84223 -2.47279 0
M  V30 4127 P 516.35 7.39546 -4.75277 0
M  V30 4128 O 517.772 7.84798 -5.01039 0
M  V30 4129 O 515.99 5.9812 -5.08098 0
M  V30 4130 O 516.027 7.57503 -3.1866 0
M  V30 4131 C 515.867 8.97357 -2.74833 0
M  V30 4132 C 516.407 9.07548 -1.32709 0
M  V30 4133 O 515.351 8.62072 -0.606159 0
M  V30 4134 C 517.625 8.25383 -0.938334 0
M  V30 4135 O 518.363 8.74577 0.146954 0
M  V30 4136 C 516.956 6.8802 -0.712559 0
M  V30 4137 O 517.755 6.1189 0.194655 0
M  V30 4138 C 515.619 7.27966 -0.139777 0
M  V30 4139 H 515.651 7.25354 0.961601 0
M  V30 4140 H 516.834 6.32557 -1.65702 0
M  V30 4141 H 518.318 8.19355 -1.79097 0
M  V30 4142 H 516.624 10.1294 -1.10029 0
M  V30 4143 H 516.434 9.64276 -3.41316 0
M  V30 4144 H 514.804 9.25417 -2.76357 0
M  V30 4145 H 517.443 6.25267 1.07847 0
M  V30 4146 P 519.3 8.791 3.21367e-12 0
M  V30 4147 O 520.722 9.31096 0.027933 0
M  V30 4148 O 518.94 7.77869 -1.04071 0
M  V30 4149 O 518.977 8.09533 1.41463 0
M  V30 4150 C 518.817 9.0349 2.53943 0
M  V30 4151 C 519.357 8.35226 3.79016 0
M  V30 4152 O 518.301 7.57992 4.15078 0
M  V30 4153 C 520.575 7.45087 3.67298 0
M  V30 4154 O 521.313 7.27796 4.85194 0
M  V30 4155 C 519.906 6.17323 3.12027 0
M  V30 4156 O 520.705 5.04231 3.47188 0
M  V30 4157 C 518.569 6.19961 3.81809 0
M  V30 4158 H 518.601 5.58218 4.73051 0
M  V30 4159 H 519.784 6.21726 2.02589 0
M  V30 4160 H 521.268 7.86112 2.9231 0
M  V30 4161 H 519.574 9.11627 4.55076 0
M  V30 4162 H 519.384 9.9573 2.34194 0
M  V30 4163 H 517.754 9.2792 2.67832 0
M  V30 4164 H 520.393 4.67702 4.28772 0
M  V30 4165 P 522.251 7.39546 4.75277 0
M  V30 4166 O 523.673 7.81777 5.05738 0
M  V30 4167 O 521.891 7.1065 3.32998 0
M  V30 4168 O 521.928 6.04542 5.56673 0
M  V30 4169 C 521.768 6.22772 7.02095 0
M  V30 4170 C 522.308 4.97725 7.70406 0
M  V30 4171 O 521.252 4.13256 7.58987 0
M  V30 4172 C 523.526 4.28231 7.11815 0
M  V30 4173 O 524.264 3.49945 8.01648 0
M  V30 4174 C 522.857 3.5063 5.96244 0
M  V30 4175 O 523.656 2.36482 5.64681 0
M  V30 4176 C 521.52 3.15122 6.56374 0
M  V30 4177 H 521.552 2.13853 6.99751 0
M  V30 4178 H 522.735 4.13501 5.06559 0
M  V30 4179 H 524.219 5.03285 6.70911 0
M  V30 4180 H 522.525 5.20877 8.75697 0
M  V30 4181 H 522.335 7.11046 7.35349 0
M  V30 4182 H 520.705 6.35815 7.26986 0
M  V30 4183 H 523.344 1.61644 6.13565 0
M  V30 4184 P 525.201 3.65191 7.99657 0
M  V30 4185 O 526.623 3.8425 8.48115 0
M  V30 4186 O 524.841 4.17805 6.64342 0
M  V30 4187 O 524.878 2.07613 7.95143 0
M  V30 4188 C 524.718 1.44328 9.27336 0
M  V30 4189 C 525.258 0.0220036 9.17197 0
M  V30 4190 O 524.202 -0.626867 8.61923 0
M  V30 4191 C 526.476 -0.24586 8.30336 0
M  V30 4192 O 527.214 -1.39011 8.63583 0
M  V30 4193 C 525.807 -0.273849 6.91158 0
M  V30 4194 O 526.606 -1.06348 6.02892 0
M  V30 4195 C 524.47 -0.897649 7.22545 0
M  V30 4196 H 524.502 -1.9841 7.04286 0
M  V30 4197 H 525.685 0.739928 6.497 0
M  V30 4198 H 527.169 0.60668 8.36503 0
M  V30 4199 H 525.475 -0.352479 10.1829 0
M  V30 4200 H 525.285 2.00611 10.0304 0
M  V30 4201 H 523.655 1.41843 9.55327 0
M  V30 4202 H 526.294 -1.95734 6.03555 0
M  V30 4203 P 528.152 -1.25109 8.70152 0
M  V30 4204 O 529.574 -1.35274 9.21221 0
M  V30 4205 O 527.792 -0.0769065 7.84762 0
M  V30 4206 O 527.829 -2.55232 7.81161 0
M  V30 4207 C 527.669 -3.79939 8.58154 0
M  V30 4208 C 528.209 -4.94023 7.72785 0
M  V30 4209 O 527.153 -5.18726 6.91205 0
M  V30 4210 C 529.427 -4.69597 6.85231 0
M  V30 4211 O 530.165 -5.83832 6.51337 0
M  V30 4212 C 528.758 -3.96706 5.66633 0
M  V30 4213 O 529.557 -4.15414 4.49689 0
M  V30 4214 C 527.421 -4.66153 5.59313 0
M  V30 4215 H 527.453 -5.47679 4.85214 0
M  V30 4216 H 528.636 -2.89008 5.86566 0
M  V30 4217 H 530.12 -4.0121 7.36511 0
M  V30 4218 H 528.426 -5.80182 8.37584 0
M  V30 4219 H 528.236 -3.73517 9.52265 0
M  V30 4220 H 526.606 -3.97163 8.80359 0
M  V30 4221 H 529.245 -4.90969 4.01921 0
M  V30 4222 P 531.103 -5.75688 6.64379 0
M  V30 4223 O 532.525 -6.11849 7.01846 0
M  V30 4224 O 530.743 -4.30744 6.56026 0
M  V30 4225 O 530.78 -6.37042 5.19165 0
M  V30 4226 C 530.62 -7.83578 5.16515 0
M  V30 4227 C 531.16 -8.33398 3.83019 0
M  V30 4228 O 530.104 -8.10074 3.01034 0
M  V30 4229 C 532.378 -7.65514 3.2257 0
M  V30 4230 O 533.116 -8.4329 2.32297 0
M  V30 4231 C 531.709 -6.40075 2.62207 0
M  V30 4232 O 532.508 -5.92589 1.53712 0
M  V30 4233 C 530.372 -6.9454 2.18503 0
M  V30 4234 H 530.404 -7.23063 1.12091 0
M  V30 4235 H 531.587 -5.6025 3.37201 0
M  V30 4236 H 533.071 -7.35707 4.02681 0
M  V30 4237 H 531.377 -9.40912 3.9095 0
M  V30 4238 H 531.187 -8.29056 5.99158 0
M  V30 4239 H 529.557 -8.10073 5.25882 0
M  V30 4240 H 532.196 -6.30324 0.726794 0
M  V30 4241 P 534.053 -8.4349 2.47671 0
M  V30 4242 O 535.475 -8.94167 2.5964 0
M  V30 4243 O 533.693 -7.1704 3.19006 0
M  V30 4244 O 533.73 -8.16596 0.923387 0
M  V30 4245 C 533.57 -9.38437 0.108857 0
M  V30 4246 C 534.11 -9.08175 -1.28353 0
M  V30 4247 O 533.054 -8.44229 -1.84713 0
M  V30 4248 C 535.328 -8.18386 -1.42505 0
M  V30 4249 O 536.066 -8.3501 -2.60497 0
M  V30 4250 C 534.659 -6.80225 -1.25468 0
M  V30 4251 O 535.458 -5.81621 -1.91066 0
M  V30 4252 C 533.322 -7.02416 -1.9168 0
M  V30 4253 H 533.354 -6.6888 -2.96621 0
M  V30 4254 H 534.537 -6.53617 -0.192223 0
M  V30 4255 H 536.021 -8.36622 -0.589963 0
M  V30 4256 H 534.327 -10.0291 -1.79807 0
M  V30 4257 H 534.137 -10.2138 0.558219 0
M  V30 4258 H 532.507 -9.6579 0.0444202 0
M  V30 4259 H 535.146 -5.69556 -2.79637 0
M  V30 4260 P 537.004 -8.4349 -2.47671 0
M  V30 4261 O 538.426 -8.92785 -2.65057 0
M  V30 4262 O 536.644 -7.7568 -1.19296 0
M  V30 4263 O 536.681 -7.36886 -3.63805 0
M  V30 4264 C 536.521 -7.95349 -4.982 0
M  V30 4265 C 537.061 -6.94537 -5.98908 0
M  V30 4266 O 536.006 -6.10347 -6.11815 0
M  V30 4267 C 538.279 -6.11426 -5.62335 0
M  V30 4268 O 539.017 -5.6162 -6.70584 0
M  V30 4269 C 537.611 -5.04409 -4.73308 0
M  V30 4270 O 538.409 -3.85929 -4.75106 0
M  V30 4271 C 536.273 -4.8728 -5.41006 0
M  V30 4272 N 535.23 -4.65812 -4.42377 0
M  V30 4273 C 535.292 -5.27109 -3.24335 0
M  V30 4274 N 534.247 -4.94293 -2.47735 0
M  V30 4275 C 533.513 -4.1271 -3.23359 0
M  V30 4276 C 532.207 -3.56384 -2.99934 0
M  V30 4277 O 531.474 -3.69331 -2.00616 0
M  V30 4278 N 531.777 -2.80206 -4.03316 0
M  V30 4279 C 532.526 -2.58614 -5.2172 0
M  V30 4280 N 531.929 -1.75154 -6.13278 0
M  V30 4281 N 533.679 -3.13689 -5.47619 0
M  V30 4282 C 534.136 -3.90921 -4.46436 0
M  V30 4283 H 536.305 -4.02333 -6.11157 0
M  V30 4284 H 537.488 -5.39383 -3.69487 0
M  V30 4285 H 538.973 -6.71414 -5.02615 0
M  V30 4286 H 537.278 -7.4649 -6.93477 0
M  V30 4287 H 537.088 -8.89416 -5.05237 0
M  V30 4288 H 535.457 -8.14876 -5.18409 0
M  V30 4289 H 530.881 -2.36355 -3.95916 0
M  V30 4290 H 536.088 -5.95212 -2.93859 0
M  V30 4291 H 531.018 -1.32473 -5.91856 0
M  V30 4292 H 532.394 -1.5588 -7.03026 0
M  V30 4293 H 538.098 -3.27906 -5.43085 0
M  V30 4294 P 539.954 -5.75688 -6.64379 0
M  V30 4295 O 541.376 -6.07627 -7.05504 0
M  V30 4296 O 539.594 -5.88047 -5.19722 0
M  V30 4297 O 539.631 -4.2322 -7.04443 0
M  V30 4298 C 539.471 -3.99743 -8.4911 0
M  V30 4299 C 540.011 -2.60516 -8.79425 0
M  V30 4300 O 538.955 -1.82684 -8.4467 0
M  V30 4301 C 541.229 -2.10343 -8.03628 0
M  V30 4302 O 541.967 -1.09919 -8.67766 0
M  V30 4303 C 540.56 -1.68446 -6.70876 0
M  V30 4304 O 541.359 -0.678137 -6.08433 0
M  V30 4305 C 539.223 -1.17436 -7.18567 0
M  V30 4306 H 539.255 -0.0804732 -7.31656 0
M  V30 4307 H 540.438 -2.54037 -6.02537 0
M  V30 4308 H 541.922 -2.93881 -7.85526 0
M  V30 4309 H 540.228 -2.53065 -9.86973 0
M  V30 4310 H 540.038 -4.75072 -9.05887 0
M  V30 4311 H 538.408 -4.05244 -8.76668 0
M  V30 4312 H 541.047 0.177647 -6.34251 0
M  V30 4313 P 542.905 -1.25109 -8.70152 0
M  V30 4314 O 544.326 -1.29758 -9.22115 0
M  V30 4315 O 542.545 -2.13714 -7.55141 0
M  V30 4316 O 542.582 0.248149 -8.21425 0
M  V30 4317 C 542.421 1.22792 -9.30533 0
M  V30 4318 C 542.962 2.56293 -8.80664 0
M  V30 4319 O 541.907 3.02944 -8.09255 0
M  V30 4320 C 544.18 2.57523 -7.89775 0
M  V30 4321 O 544.918 3.7668 -7.89438 0
M  V30 4322 C 543.512 2.20997 -6.55446 0
M  V30 4323 O 544.31 2.71302 -5.48691 0
M  V30 4324 C 542.174 2.89693 -6.67988 0
M  V30 4325 N 541.131 2.08895 -6.07487 0
M  V30 4326 C 541.3 0.753809 -5.94137 0
M  V30 4327 N 540.273 0.146592 -5.38801 0
M  V30 4328 C 539.388 1.1768 -5.13693 0
M  V30 4329 C 538.121 1.17563 -4.52477 0
M  V30 4330 N 537.556 2.41918 -4.45789 0
M  V30 4331 C 538.158 3.56493 -4.90792 0
M  V30 4332 N 539.335 3.61423 -5.47817 0
M  V30 4333 C 539.91 2.37779 -5.5588 0
M  V30 4334 H 543.389 1.12673 -6.44018 0
M  V30 4335 H 544.872 1.7746 -8.19711 0
M  V30 4336 H 543.178 3.21673 -9.66791 0
M  V30 4337 H 542.988 0.901032 -10.1892 0
M  V30 4338 H 541.358 1.33049 -9.56592 0
M  V30 4339 H 542.2 0.233081 -6.26266 0
M  V30 4340 H 543.998 3.5779 -5.23879 0
M  V30 4341 P 545.855 3.65191 -7.99657 0
M  V30 4342 O 547.277 3.89416 -8.45976 0
M  V30 4343 O 545.495 2.28472 -7.50807 0
M  V30 4344 O 545.532 4.64972 -6.77611 0
M  V30 4345 C 545.372 6.06319 -7.16352 0
M  V30 4346 C 545.912 6.91655 -6.02234 0
M  V30 4347 O 544.857 6.92449 -5.17064 0
M  V30 4348 C 547.13 6.43627 -5.25174 0
M  V30 4349 O 547.868 7.43686 -4.60469 0
M  V30 4350 C 546.462 5.40275 -4.31916 0
M  V30 4351 O 547.26 5.25193 -3.14386 0
M  V30 4352 C 545.124 6.04847 -4.05327 0
M  V30 4353 N 544.081 5.04166 -3.98114 0
M  V30 4354 C 544.143 3.96049 -4.75587 0
M  V30 4355 N 543.098 3.15559 -4.54006 0
M  V30 4356 C 542.364 3.78802 -3.62491 0
M  V30 4357 C 541.058 3.476 -3.10071 0
M  V30 4358 O 540.325 2.51136 -3.37021 0
M  V30 4359 N 540.628 4.39088 -2.19956 0
M  V30 4360 C 541.377 5.53215 -1.81733 0
M  V30 4361 N 540.78 6.31963 -0.860928 0
M  V30 4362 N 542.53 5.86688 -2.32562 0
M  V30 4363 C 542.987 4.97525 -3.23407 0
M  V30 4364 H 545.156 6.62195 -3.11261 0
M  V30 4365 H 546.339 4.42488 -4.8131 0
M  V30 4366 H 547.824 5.93051 -5.9305 0
M  V30 4367 H 546.129 7.92655 -6.402 0
M  V30 4368 H 545.939 6.26671 -8.0846 0
M  V30 4369 H 544.308 6.29101 -7.32804 0
M  V30 4370 H 539.732 4.25523 -1.77604 0
M  V30 4371 H 544.939 3.75576 -5.47333 0
M  V30 4372 H 539.869 6.04684 -0.468946 0
M  V30 4373 H 541.245 7.18054 -0.542422 0
M  V30 4374 H 546.949 5.84223 -2.47279 0
M  V30 4375 P 548.806 7.39546 -4.75277 0
M  V30 4376 O 550.228 7.84798 -5.01039 0
M  V30 4377 O 548.446 5.9812 -5.08098 0
M  V30 4378 O 548.483 7.57503 -3.1866 0
M  V30 4379 C 548.323 8.97357 -2.74833 0
M  V30 4380 C 548.863 9.07548 -1.32709 0
M  V30 4381 O 547.807 8.62072 -0.606159 0
M  V30 4382 C 550.081 8.25383 -0.938334 0
M  V30 4383 O 550.819 8.74577 0.146954 0
M  V30 4384 C 549.412 6.8802 -0.712559 0
M  V30 4385 O 550.211 6.1189 0.194655 0
M  V30 4386 C 548.075 7.27966 -0.139777 0
M  V30 4387 H 548.107 7.25354 0.961601 0
M  V30 4388 H 549.29 6.32557 -1.65702 0
M  V30 4389 H 550.774 8.19355 -1.79097 0
M  V30 4390 H 549.08 10.1294 -1.10029 0
M  V30 4391 H 548.89 9.64276 -3.41316 0
M  V30 4392 H 547.26 9.25417 -2.76357 0
M  V30 4393 H 549.899 6.25267 1.07847 0
M  V30 4394 P 551.757 8.791 3.52383e-12 0
M  V30 4395 O 553.179 9.31096 0.027933 0
M  V30 4396 O 551.397 7.77869 -1.04071 0
M  V30 4397 O 551.434 8.09533 1.41463 0
M  V30 4398 C 551.274 9.0349 2.53943 0
M  V30 4399 C 551.814 8.35226 3.79016 0
M  V30 4400 O 550.758 7.57992 4.15078 0
M  V30 4401 C 553.032 7.45087 3.67298 0
M  V30 4402 O 553.77 7.27796 4.85194 0
M  V30 4403 C 552.363 6.17323 3.12027 0
M  V30 4404 O 553.162 5.04231 3.47188 0
M  V30 4405 C 551.026 6.19961 3.81809 0
M  V30 4406 H 551.058 5.58218 4.73051 0
M  V30 4407 H 552.241 6.21726 2.02589 0
M  V30 4408 H 553.725 7.86112 2.9231 0
M  V30 4409 H 552.031 9.11627 4.55076 0
M  V30 4410 H 551.841 9.9573 2.34194 0
M  V30 4411 H 550.211 9.2792 2.67832 0
M  V30 4412 H 552.85 4.67702 4.28772 0
M  V30 4413 P 554.707 7.39546 4.75277 0
M  V30 4414 O 556.129 7.81777 5.05738 0
M  V30 4415 O 554.347 7.1065 3.32998 0
M  V30 4416 O 554.384 6.04542 5.56673 0
M  V30 4417 C 554.224 6.22772 7.02095 0
M  V30 4418 C 554.764 4.97725 7.70406 0
M  V30 4419 O 553.708 4.13256 7.58987 0
M  V30 4420 C 555.982 4.28231 7.11815 0
M  V30 4421 O 556.72 3.49945 8.01648 0
M  V30 4422 C 555.313 3.5063 5.96244 0
M  V30 4423 O 556.112 2.36482 5.64681 0
M  V30 4424 C 553.976 3.15122 6.56374 0
M  V30 4425 H 554.008 2.13853 6.99751 0
M  V30 4426 H 555.191 4.13501 5.06559 0
M  V30 4427 H 556.675 5.03285 6.70911 0
M  V30 4428 H 554.981 5.20877 8.75697 0
M  V30 4429 H 554.791 7.11046 7.35349 0
M  V30 4430 H 553.161 6.35815 7.26986 0
M  V30 4431 H 555.8 1.61644 6.13565 0
M  V30 4432 P 557.658 3.65191 7.99657 0
M  V30 4433 O 559.08 3.8425 8.48115 0
M  V30 4434 O 557.298 4.17805 6.64342 0
M  V30 4435 O 557.335 2.07613 7.95143 0
M  V30 4436 C 557.175 1.44328 9.27336 0
M  V30 4437 C 557.715 0.0220036 9.17197 0
M  V30 4438 O 556.659 -0.626867 8.61923 0
M  V30 4439 C 558.933 -0.24586 8.30336 0
M  V30 4440 O 559.671 -1.39011 8.63583 0
M  V30 4441 C 558.264 -0.273849 6.91158 0
M  V30 4442 O 559.063 -1.06348 6.02892 0
M  V30 4443 C 556.927 -0.897649 7.22545 0
M  V30 4444 H 556.959 -1.9841 7.04286 0
M  V30 4445 H 558.142 0.739928 6.497 0
M  V30 4446 H 559.626 0.60668 8.36503 0
M  V30 4447 H 557.932 -0.352479 10.1829 0
M  V30 4448 H 557.742 2.00611 10.0304 0
M  V30 4449 H 556.112 1.41843 9.55327 0
M  V30 4450 H 558.751 -1.95734 6.03555 0
M  V30 4451 P 560.608 -1.25109 8.70152 0
M  V30 4452 O 562.03 -1.35274 9.21221 0
M  V30 4453 O 560.248 -0.0769065 7.84762 0
M  V30 4454 O 560.285 -2.55232 7.81161 0
M  V30 4455 C 560.125 -3.79939 8.58154 0
M  V30 4456 C 560.665 -4.94023 7.72785 0
M  V30 4457 O 559.609 -5.18726 6.91205 0
M  V30 4458 C 561.883 -4.69597 6.85231 0
M  V30 4459 O 562.621 -5.83832 6.51337 0
M  V30 4460 C 561.214 -3.96706 5.66633 0
M  V30 4461 O 562.013 -4.15414 4.49689 0
M  V30 4462 C 559.877 -4.66153 5.59313 0
M  V30 4463 H 559.909 -5.47679 4.85214 0
M  V30 4464 H 561.092 -2.89008 5.86566 0
M  V30 4465 H 562.576 -4.0121 7.36511 0
M  V30 4466 H 560.882 -5.80182 8.37584 0
M  V30 4467 H 560.692 -3.73517 9.52265 0
M  V30 4468 H 559.062 -3.97163 8.80359 0
M  V30 4469 H 561.701 -4.90969 4.01921 0
M  V30 4470 P 563.559 -5.75688 6.64379 0
M  V30 4471 O 564.98 -6.11915 7.01921 0
M  V30 4472 O 563.199 -4.30744 6.56026 0
M  V30 4473 O 563.236 -6.37042 5.19165 0
M  V30 4474 C 563.075 -7.83662 5.1657 0
M  V30 4475 C 563.616 -8.33398 3.83019 0
M  V30 4476 O 562.561 -8.0998 3.00999 0
M  V30 4477 C 564.834 -7.65514 3.2257 0
M  V30 4478 O 565.572 -8.4329 2.32297 0
M  V30 4479 C 564.166 -6.40075 2.62207 0
M  V30 4480 O 564.964 -5.92338 1.5428 0
M  V30 4481 C 562.828 -6.9454 2.18503 0
M  V30 4482 N 561.785 -5.95905 2.39948 0
M  V30 4483 C 561.954 -4.98383 3.32108 0
M  V30 4484 N 560.927 -4.16798 3.41761 0
M  V30 4485 C 560.042 -4.65287 2.47461 0
M  V30 4486 C 558.775 -4.18946 2.07461 0
M  V30 4487 N 558.21 -4.95327 1.09101 0
M  V30 4488 C 558.812 -6.04369 0.519812 0
M  V30 4489 N 559.989 -6.50694 0.855982 0
M  V30 4490 C 560.564 -5.75818 1.84322 0
M  V30 4491 H 564.043 -5.60502 3.36589 0
M  V30 4492 H 565.526 -7.35707 4.02681 0
M  V30 4493 H 563.832 -9.41302 3.90009 0
M  V30 4494 H 563.642 -8.29056 5.99158 0
M  V30 4495 H 562.012 -8.10073 5.25882 0
M  V30 4496 H 562.854 -4.88564 3.92502 0
M  V30 4497 H 564.652 -6.30224 0.72668 0
M  V30 4498 P 566.509 -8.4349 2.47671 0
M  V30 4499 O 567.931 -8.94359 2.59696 0
M  V30 4500 O 566.149 -7.1704 3.19006 0
M  V30 4501 O 566.186 -8.16596 0.923387 0
M  V30 4502 C 566.026 -9.38437 0.108857 0
M  V30 4503 C 566.566 -9.08076 -1.28339 0
M  V30 4504 O 565.511 -8.44229 -1.84713 0
M  V30 4505 C 567.784 -8.18386 -1.42505 0
M  V30 4506 O 568.522 -8.3501 -2.60497 0
M  V30 4507 C 567.116 -6.80225 -1.25468 0
M  V30 4508 O 567.914 -5.81526 -1.91035 0
M  V30 4509 C 565.778 -7.02416 -1.9168 0
M  V30 4510 N 564.735 -6.31033 -1.20314 0
M  V30 4511 C 564.797 -6.18781 0.121293 0
M  V30 4512 N 563.752 -5.49762 0.588272 0
M  V30 4513 C 563.018 -5.22015 -0.488988 0
M  V30 4514 C 561.712 -4.61966 -0.596448 0
M  V30 4515 O 560.979 -4.19162 0.309059 0
M  V30 4516 N 561.282 -4.53773 -1.878 0
M  V30 4517 C 562.031 -4.99623 -2.99082 0
M  V30 4518 N 561.434 -4.78912 -4.21227 0
M  V30 4519 N 563.184 -5.59957 -2.91093 0
M  V30 4520 C 563.641 -5.70225 -1.64218 0
M  V30 4521 H 565.81 -6.6888 -2.96621 0
M  V30 4522 H 566.993 -6.53517 -0.192194 0
M  V30 4523 H 568.478 -8.36563 -0.598329 0
M  V30 4524 H 566.783 -10.0291 -1.79807 0
M  V30 4525 H 566.593 -10.2138 0.558219 0
M  V30 4526 H 564.962 -9.6579 0.0444202 0
M  V30 4527 H 560.386 -4.12883 -2.05283 0
M  V30 4528 H 565.593 -6.59596 0.745856 0
M  V30 4529 H 560.523 -4.31425 -4.2628 0
M  V30 4530 H 561.899 -5.11219 -5.07148 0
M  V30 4531 H 567.603 -5.69466 -2.79593 0
M  V30 4532 P 569.46 -8.4349 -2.47671 0
M  V30 4533 O 570.882 -8.92593 -2.65 0
M  V30 4534 O 569.1 -7.7568 -1.19296 0
M  V30 4535 O 569.137 -7.36886 -3.63805 0
M  V30 4536 C 568.977 -7.95349 -4.982 0
M  V30 4537 C 569.517 -6.94612 -5.98974 0
M  V30 4538 O 568.461 -6.10347 -6.11815 0
M  V30 4539 C 570.735 -6.11426 -5.62335 0
M  V30 4540 O 571.473 -5.6162 -6.70584 0
M  V30 4541 C 570.066 -5.04409 -4.73308 0
M  V30 4542 O 570.865 -3.85992 -4.75183 0
M  V30 4543 C 568.729 -4.8728 -5.41006 0
M  V30 4544 H 568.761 -4.02333 -6.11157 0
M  V30 4545 H 569.944 -5.39466 -3.69543 0
M  V30 4546 H 571.428 -6.71916 -5.01943 0
M  V30 4547 H 569.734 -7.4649 -6.93477 0
M  V30 4548 H 569.544 -8.89416 -5.05237 0
M  V30 4549 H 567.914 -8.14876 -5.18409 0
M  V30 4550 H 570.553 -3.27957 -5.4317 0
M  V30 4551 P 572.411 -5.75688 -6.64379 0
M  V30 4552 O 573.833 -6.07627 -7.05504 0
M  V30 4553 O 572.051 -5.88047 -5.19722 0
M  V30 4554 O 572.088 -4.2322 -7.04443 0
M  V30 4555 C 571.928 -3.99743 -8.4911 0
M  V30 4556 C 572.468 -2.60516 -8.79425 0
M  V30 4557 O 571.412 -1.82684 -8.4467 0
M  V30 4558 C 573.686 -2.10343 -8.03628 0
M  V30 4559 O 574.424 -1.09919 -8.67766 0
M  V30 4560 C 573.017 -1.68446 -6.70876 0
M  V30 4561 O 573.816 -0.678137 -6.08433 0
M  V30 4562 C 571.68 -1.17436 -7.18567 0
M  V30 4563 H 571.712 -0.0804732 -7.31656 0
M  V30 4564 H 572.895 -2.54037 -6.02537 0
M  V30 4565 H 574.379 -2.93881 -7.85526 0
M  V30 4566 H 572.685 -2.53065 -9.86973 0
M  V30 4567 H 572.495 -4.75072 -9.05887 0
M  V30 4568 H 570.865 -4.05244 -8.76668 0
M  V30 4569 H 573.504 0.177647 -6.34251 0
M  V30 4570 P 575.361 -1.25109 -8.70152 0
M  V30 4571 O 576.783 -1.29744 -9.22016 0
M  V30 4572 O 575.001 -2.13714 -7.55141 0
M  V30 4573 O 575.038 0.248149 -8.21425 0
M  V30 4574 C 574.878 1.22779 -9.30434 0
M  V30 4575 C 575.418 2.56293 -8.80664 0
M  V30 4576 O 574.362 3.02979 -8.09349 0
M  V30 4577 C 576.636 2.57523 -7.89775 0
M  V30 4578 O 577.374 3.7668 -7.89438 0
M  V30 4579 C 575.967 2.20997 -6.55446 0
M  V30 4580 O 576.766 2.71895 -5.48509 0
M  V30 4581 C 574.63 2.89693 -6.67988 0
M  V30 4582 H 574.662 3.88793 -6.19859 0
M  V30 4583 H 575.845 1.12046 -6.44229 0
M  V30 4584 H 577.329 1.7746 -8.19711 0
M  V30 4585 H 575.635 3.20706 -9.67112 0
M  V30 4586 H 575.445 0.901032 -10.1892 0
M  V30 4587 H 573.815 1.33049 -9.56592 0
M  V30 4588 H 576.454 3.57847 -5.23962 0
M  V30 4589 P 578.312 3.65191 -7.99657 0
M  V30 4590 O 579.734 3.89332 -8.45794 0
M  V30 4591 O 577.952 2.28472 -7.50807 0
M  V30 4592 O 577.989 4.64972 -6.77611 0
M  V30 4593 C 577.829 6.06319 -7.16352 0
M  V30 4594 C 578.369 6.91731 -6.02299 0
M  V30 4595 O 577.313 6.92449 -5.17064 0
M  V30 4596 C 579.587 6.43627 -5.25174 0
M  V30 4597 O 580.325 7.43686 -4.60469 0
M  V30 4598 C 578.918 5.40275 -4.31916 0
M  V30 4599 O 579.717 5.25279 -3.14438 0
M  V30 4600 C 577.581 6.04847 -4.05327 0
M  V30 4601 H 577.613 6.62195 -3.11261 0
M  V30 4602 H 578.796 4.42556 -4.81383 0
M  V30 4603 H 580.28 5.92458 -5.93643 0
M  V30 4604 H 578.586 7.92655 -6.402 0
M  V30 4605 H 578.396 6.26671 -8.0846 0
M  V30 4606 H 576.766 6.29101 -7.32804 0
M  V30 4607 H 579.405 5.84315 -2.47318 0
M  V30 4608 P 581.262 7.39546 -4.75277 0
M  V30 4609 O 582.683 7.84882 -5.01092 0
M  V30 4610 O 580.902 5.9812 -5.08098 0
M  V30 4611 O 580.939 7.57503 -3.1866 0
M  V30 4612 C 580.778 8.97452 -2.74862 0
M  V30 4613 C 581.319 9.07548 -1.32709 0
M  V30 4614 O 580.264 8.61972 -0.606089 0
M  V30 4615 C 582.537 8.25383 -0.938334 0
M  V30 4616 O 583.275 8.74577 0.146954 0
M  V30 4617 C 581.869 6.8802 -0.712559 0
M  V30 4618 O 582.667 6.1181 0.188505 0
M  V30 4619 C 580.531 7.27966 -0.139777 0
M  V30 4620 N 579.488 6.39368 -0.623421 0
M  V30 4621 C 579.657 5.71761 -1.78245 0
M  V30 4622 N 578.63 4.962 -2.10491 0
M  V30 4623 C 577.745 5.16158 -1.0635 0
M  V30 4624 C 576.478 4.60425 -0.810266 0
M  V30 4625 N 575.879 3.7057 -1.62914 0
M  V30 4626 N 575.913 5.06 0.348685 0
M  V30 4627 C 576.515 5.94532 1.20395 0
M  V30 4628 N 577.692 6.48452 1.01191 0
M  V30 4629 C 578.267 6.04423 -0.146291 0
M  V30 4630 H 580.563 7.25255 0.961469 0
M  V30 4631 H 581.746 6.32625 -1.65044 0
M  V30 4632 H 583.229 8.19355 -1.79097 0
M  V30 4633 H 581.535 10.1305 -1.09016 0
M  V30 4634 H 581.345 9.64276 -3.41316 0
M  V30 4635 H 579.715 9.25417 -2.76357 0
M  V30 4636 H 575.979 6.21659 2.10714 0
M  V30 4637 H 580.557 5.79354 -2.38959 0
M  V30 4638 H 574.949 3.33174 -1.38982 0
M  V30 4639 H 576.353 3.39714 -2.48836 0
M  V30 4640 H 582.355 6.25169 1.0783 0
M  V30 4641 P 584.213 8.791 3.834e-12 0
M  V30 4642 O 585.635 9.31296 0.027939 0
M  V30 4643 O 583.853 7.77869 -1.04071 0
M  V30 4644 O 583.89 8.09533 1.41463 0
M  V30 4645 C 583.73 9.0349 2.53943 0
M  V30 4646 C 584.27 8.35135 3.78975 0
M  V30 4647 O 583.215 7.57992 4.15078 0
M  V30 4648 C 585.488 7.45087 3.67298 0
M  V30 4649 O 586.226 7.27796 4.85194 0
M  V30 4650 C 584.82 6.17323 3.12027 0
M  V30 4651 O 585.618 5.04149 3.47132 0
M  V30 4652 C 583.482 6.19961 3.81809 0
M  V30 4653 N 582.439 5.71575 2.93223 0
M  V30 4654 C 582.501 5.97133 1.62693 0
M  V30 4655 N 581.456 5.44066 0.984414 0
M  V30 4656 C 580.722 4.87093 1.93987 0
M  V30 4657 C 579.416 4.26449 1.8738 0
M  V30 4658 O 578.683 4.1089 0.884377 0
M  V30 4659 N 578.986 3.82483 3.08036 0
M  V30 4660 C 579.735 3.95124 4.27727 0
M  V30 4661 N 579.138 3.4084 5.39089 0
M  V30 4662 N 580.888 4.55264 4.3706 0
M  V30 4663 C 581.345 5.00861 3.18217 0
M  V30 4664 H 583.514 5.58218 4.73051 0
M  V30 4665 H 584.697 6.21631 2.02558 0
M  V30 4666 H 586.182 7.85819 2.93096 0
M  V30 4667 H 584.487 9.11627 4.55076 0
M  V30 4668 H 584.297 9.9573 2.34194 0
M  V30 4669 H 582.666 9.2792 2.67832 0
M  V30 4670 H 578.09 3.38323 3.1329 0
M  V30 4671 H 583.297 6.53891 1.14265 0
M  V30 4672 H 578.227 2.93852 5.30559 0
M  V30 4673 H 579.603 3.47631 6.30632 0
M  V30 4674 H 585.307 4.67628 4.28704 0
M  V30 4675 P 587.163 7.39546 4.75277 0
M  V30 4676 O 588.585 7.81777 5.05738 0
M  V30 4677 O 586.803 7.1065 3.32998 0
M  V30 4678 O 586.84 6.04542 5.56673 0
M  V30 4679 C 586.68 6.22772 7.02095 0
M  V30 4680 C 587.22 4.97725 7.70406 0
M  V30 4681 O 586.164 4.13256 7.58987 0
M  V30 4682 C 588.438 4.28231 7.11815 0
M  V30 4683 O 589.176 3.49945 8.01648 0
M  V30 4684 C 587.769 3.5063 5.96244 0
M  V30 4685 O 588.568 2.36482 5.64681 0
M  V30 4686 C 586.432 3.15122 6.56374 0
M  V30 4687 H 586.464 2.13853 6.99751 0
M  V30 4688 H 587.647 4.13501 5.06559 0
M  V30 4689 H 589.131 5.03285 6.70911 0
M  V30 4690 H 587.437 5.20877 8.75697 0
M  V30 4691 H 587.247 7.11046 7.35349 0
M  V30 4692 H 585.617 6.35815 7.26986 0
M  V30 4693 H 588.256 1.61644 6.13565 0
M  V30 4694 P 590.114 3.65191 7.99657 0
M  V30 4695 O 591.536 3.8425 8.48115 0
M  V30 4696 O 589.754 4.17805 6.64342 0
M  V30 4697 O 589.791 2.07613 7.95143 0
M  V30 4698 C 589.631 1.44328 9.27336 0
M  V30 4699 C 590.171 0.0220036 9.17197 0
M  V30 4700 O 589.115 -0.626867 8.61923 0
M  V30 4701 C 591.389 -0.24586 8.30336 0
M  V30 4702 O 592.127 -1.39011 8.63583 0
M  V30 4703 C 590.72 -0.273849 6.91158 0
M  V30 4704 O 591.519 -1.06348 6.02892 0
M  V30 4705 C 589.383 -0.897649 7.22545 0
M  V30 4706 H 589.415 -1.9841 7.04286 0
M  V30 4707 H 590.598 0.739928 6.497 0
M  V30 4708 H 592.082 0.60668 8.36503 0
M  V30 4709 H 590.388 -0.352479 10.1829 0
M  V30 4710 H 590.198 2.00611 10.0304 0
M  V30 4711 H 588.568 1.41843 9.55327 0
M  V30 4712 H 591.207 -1.95734 6.03555 0
M  V30 4713 P 593.065 -1.25109 8.70152 0
M  V30 4714 O 594.486 -1.35288 9.2132 0
M  V30 4715 O 592.705 -0.0769065 7.84762 0
M  V30 4716 O 592.742 -2.55232 7.81161 0
M  V30 4717 C 592.581 -3.79979 8.58246 0
M  V30 4718 C 593.122 -4.94023 7.72785 0
M  V30 4719 O 592.067 -5.18666 6.91125 0
M  V30 4720 C 594.34 -4.69597 6.85231 0
M  V30 4721 O 595.078 -5.83832 6.51337 0
M  V30 4722 C 593.672 -3.96706 5.66633 0
M  V30 4723 O 594.47 -4.14896 4.5003 0
M  V30 4724 C 592.334 -4.66153 5.59313 0
M  V30 4725 N 591.291 -3.71582 5.24027 0
M  V30 4726 C 591.46 -2.39715 5.48833 0
M  V30 4727 N 590.433 -1.65863 5.12845 0
M  V30 4728 C 589.548 -2.57637 4.5973 0
M  V30 4729 C 588.281 -2.40278 4.01027 0
M  V30 4730 N 587.716 -3.57711 3.59575 0
M  V30 4731 C 588.318 -4.80324 3.70476 0
M  V30 4732 N 589.495 -5.01121 4.23801 0
M  V30 4733 C 590.07 -3.84757 4.66372 0
M  V30 4734 H 593.549 -2.8955 5.86187 0
M  V30 4735 H 595.032 -4.0121 7.36511 0
M  V30 4736 H 593.338 -5.81019 8.37003 0
M  V30 4737 H 593.148 -3.73517 9.52265 0
M  V30 4738 H 591.518 -3.97163 8.80359 0
M  V30 4739 H 592.36 -1.98804 5.94332 0
M  V30 4740 H 594.158 -4.90891 4.01857 0
M  V30 4741 P 596.015 -5.75688 6.64379 0
M  V30 4742 O 597.437 -6.11849 7.01846 0
M  V30 4743 O 595.655 -4.30744 6.56026 0
M  V30 4744 O 595.692 -6.37042 5.19165 0
M  V30 4745 C 595.532 -7.83578 5.16515 0
M  V30 4746 C 596.072 -8.33398 3.83019 0
M  V30 4747 O 595.016 -8.10074 3.01034 0
M  V30 4748 C 597.29 -7.65514 3.2257 0
M  V30 4749 O 598.028 -8.4329 2.32297 0
M  V30 4750 C 596.621 -6.40075 2.62207 0
M  V30 4751 O 597.42 -5.92589 1.53712 0
M  V30 4752 C 595.284 -6.9454 2.18503 0
M  V30 4753 H 595.316 -7.23063 1.12091 0
M  V30 4754 H 596.499 -5.6025 3.37201 0
M  V30 4755 H 597.983 -7.35707 4.02681 0
M  V30 4756 H 596.289 -9.40912 3.9095 0
M  V30 4757 H 596.099 -8.29056 5.99158 0
M  V30 4758 H 594.469 -8.10073 5.25882 0
M  V30 4759 H 597.108 -6.30324 0.726794 0
M  V30 4760 P 598.966 -8.4349 2.47671 0
M  V30 4761 O 600.388 -8.94167 2.5964 0
M  V30 4762 O 598.606 -7.1704 3.19006 0
M  V30 4763 O 598.643 -8.16596 0.923387 0
M  V30 4764 C 598.483 -9.38437 0.108857 0
M  V30 4765 C 599.023 -9.08175 -1.28353 0
M  V30 4766 O 597.967 -8.44229 -1.84713 0
M  V30 4767 C 600.241 -8.18386 -1.42505 0
M  V30 4768 O 600.979 -8.3501 -2.60497 0
M  V30 4769 C 599.572 -6.80225 -1.25468 0
M  V30 4770 O 600.371 -5.81621 -1.91066 0
M  V30 4771 C 598.235 -7.02416 -1.9168 0
M  V30 4772 H 598.267 -6.6888 -2.96621 0
M  V30 4773 H 599.45 -6.53617 -0.192223 0
M  V30 4774 H 600.934 -8.36622 -0.589963 0
M  V30 4775 H 599.24 -10.0291 -1.79807 0
M  V30 4776 H 599.05 -10.2138 0.558219 0
M  V30 4777 H 597.42 -9.6579 0.0444202 0
M  V30 4778 H 600.059 -5.69556 -2.79637 0
M  V30 4779 P 601.916 -8.4349 -2.47671 0
M  V30 4780 O 603.337 -8.92689 -2.65029 0
M  V30 4781 O 601.556 -7.7568 -1.19296 0
M  V30 4782 O 601.593 -7.36886 -3.63805 0
M  V30 4783 C 601.432 -7.95433 -4.98253 0
M  V30 4784 C 601.973 -6.94612 -5.98974 0
M  V30 4785 O 600.918 -6.10277 -6.11744 0
M  V30 4786 C 603.191 -6.11426 -5.62335 0
M  V30 4787 O 603.929 -5.6162 -6.70584 0
M  V30 4788 C 602.523 -5.04409 -4.73308 0
M  V30 4789 O 603.321 -3.86404 -4.74719 0
M  V30 4790 C 601.185 -4.8728 -5.41006 0
M  V30 4791 N 600.142 -4.65812 -4.42377 0
M  V30 4792 C 600.311 -5.09132 -3.15382 0
M  V30 4793 N 599.284 -4.84021 -2.3716 0
M  V30 4794 C 598.399 -4.18386 -3.20441 0
M  V30 4795 C 597.132 -3.6275 -2.94905 0
M  V30 4796 N 596.533 -3.65794 -1.73372 0
M  V30 4797 N 596.567 -3.05008 -4.05243 0
M  V30 4798 C 597.169 -2.98348 -5.28159 0
M  V30 4799 N 598.346 -3.48171 -5.56333 0
M  V30 4800 C 598.921 -4.06869 -4.47212 0
M  V30 4801 H 601.217 -4.02278 -6.11074 0
M  V30 4802 H 602.4 -5.39013 -3.70026 0
M  V30 4803 H 603.883 -6.71916 -5.01943 0
M  V30 4804 H 602.189 -7.45796 -6.94223 0
M  V30 4805 H 601.999 -8.89416 -5.05237 0
M  V30 4806 H 600.369 -8.14876 -5.18409 0
M  V30 4807 H 596.633 -2.47853 -6.07807 0
M  V30 4808 H 601.211 -5.59989 -2.81362 0
M  V30 4809 H 595.603 -3.23218 -1.60782 0
M  V30 4810 H 597.007 -4.10523 -0.937856 0
M  V30 4811 H 603.009 -3.27906 -5.43085 0
M  V30 4812 P 604.867 -5.75688 -6.64379 0
M  V30 4813 O 606.289 -6.07627 -7.05504 0
M  V30 4814 O 604.507 -5.88047 -5.19722 0
M  V30 4815 O 604.544 -4.2322 -7.04443 0
M  V30 4816 C 604.384 -3.99743 -8.4911 0
M  V30 4817 C 604.924 -2.60516 -8.79425 0
M  V30 4818 O 603.868 -1.82684 -8.4467 0
M  V30 4819 C 606.142 -2.10343 -8.03628 0
M  V30 4820 O 606.88 -1.09919 -8.67766 0
M  V30 4821 C 605.473 -1.68446 -6.70876 0
M  V30 4822 O 606.272 -0.678137 -6.08433 0
M  V30 4823 C 604.136 -1.17436 -7.18567 0
M  V30 4824 H 604.168 -0.0804732 -7.31656 0
M  V30 4825 H 605.351 -2.54037 -6.02537 0
M  V30 4826 H 606.835 -2.93881 -7.85526 0
M  V30 4827 H 605.141 -2.53065 -9.86973 0
M  V30 4828 H 604.951 -4.75072 -9.05887 0
M  V30 4829 H 603.321 -4.05244 -8.76668 0
M  V30 4830 H 605.96 0.177647 -6.34251 0
M  V30 4831 P 607.817 -1.25109 -8.70152 0
M  V30 4832 O 609.238 -1.29758 -9.22115 0
M  V30 4833 O 607.457 -2.13714 -7.55141 0
M  V30 4834 O 607.494 0.248149 -8.21425 0
M  V30 4835 C 607.333 1.22792 -9.30533 0
M  V30 4836 C 607.874 2.56293 -8.80664 0
M  V30 4837 O 606.819 3.02944 -8.09255 0
M  V30 4838 C 609.092 2.57523 -7.89775 0
M  V30 4839 O 609.83 3.7668 -7.89438 0
M  V30 4840 C 608.424 2.20997 -6.55446 0
M  V30 4841 O 609.222 2.71302 -5.48691 0
M  V30 4842 C 607.086 2.89693 -6.67988 0
M  V30 4843 N 606.043 2.08895 -6.07487 0
M  V30 4844 C 606.212 0.753809 -5.94137 0
M  V30 4845 N 605.185 0.146592 -5.38801 0
M  V30 4846 C 604.3 1.1768 -5.13693 0
M  V30 4847 C 603.033 1.17563 -4.52477 0
M  V30 4848 N 602.468 2.41918 -4.45789 0
M  V30 4849 C 603.07 3.56493 -4.90792 0
M  V30 4850 N 604.247 3.61423 -5.47817 0
M  V30 4851 C 604.822 2.37779 -5.5588 0
M  V30 4852 H 608.301 1.12673 -6.44018 0
M  V30 4853 H 609.784 1.7746 -8.19711 0
M  V30 4854 H 608.09 3.21673 -9.66791 0
M  V30 4855 H 607.9 0.901032 -10.1892 0
M  V30 4856 H 606.27 1.33049 -9.56592 0
M  V30 4857 H 607.112 0.233081 -6.26266 0
M  V30 4858 H 608.91 3.5779 -5.23879 0
M  V30 4859 P 610.768 3.65191 -7.99657 0
M  V30 4860 O 612.19 3.89332 -8.45794 0
M  V30 4861 O 610.408 2.28472 -7.50807 0
M  V30 4862 O 610.445 4.64972 -6.77611 0
M  V30 4863 C 610.285 6.06319 -7.16352 0
M  V30 4864 C 610.825 6.91731 -6.02299 0
M  V30 4865 O 609.769 6.92449 -5.17064 0
M  V30 4866 C 612.043 6.43627 -5.25174 0
M  V30 4867 O 612.781 7.43686 -4.60469 0
M  V30 4868 C 611.374 5.40275 -4.31916 0
M  V30 4869 O 612.173 5.25279 -3.14438 0
M  V30 4870 C 610.037 6.04847 -4.05327 0
M  V30 4871 H 610.069 6.62195 -3.11261 0
M  V30 4872 H 611.252 4.42556 -4.81383 0
M  V30 4873 H 612.736 5.92458 -5.93643 0
M  V30 4874 H 611.042 7.92655 -6.402 0
M  V30 4875 H 610.852 6.26671 -8.0846 0
M  V30 4876 H 609.222 6.29101 -7.32804 0
M  V30 4877 H 611.861 5.84315 -2.47318 0
M  V30 4878 P 613.719 7.39546 -4.75277 0
M  V30 4879 O 615.141 7.84798 -5.01039 0
M  V30 4880 O 613.359 5.9812 -5.08098 0
M  V30 4881 O 613.396 7.57503 -3.1866 0
M  V30 4882 C 613.236 8.97357 -2.74833 0
M  V30 4883 C 613.776 9.07548 -1.32709 0
M  V30 4884 O 612.72 8.62072 -0.606159 0
M  V30 4885 C 614.994 8.25383 -0.938334 0
M  V30 4886 O 615.732 8.74577 0.146954 0
M  V30 4887 C 614.325 6.8802 -0.712559 0
M  V30 4888 O 615.124 6.1189 0.194655 0
M  V30 4889 C 612.988 7.27966 -0.139777 0
M  V30 4890 H 613.02 7.25354 0.961601 0
M  V30 4891 H 614.203 6.32557 -1.65702 0
M  V30 4892 H 615.687 8.19355 -1.79097 0
M  V30 4893 H 613.993 10.1294 -1.10029 0
M  V30 4894 H 613.803 9.64276 -3.41316 0
M  V30 4895 H 612.173 9.25417 -2.76357 0
M  V30 4896 H 614.812 6.25267 1.07847 0
M  V30 4897 P 616.669 8.791 4.14417e-12 0
M  V30 4898 O 618.09 9.31196 0.027936 0
M  V30 4899 O 616.309 7.77869 -1.04071 0
M  V30 4900 O 616.346 8.09533 1.41463 0
M  V30 4901 C 616.185 9.03587 2.5397 0
M  V30 4902 C 616.726 8.35226 3.79016 0
M  V30 4903 O 615.671 7.57904 4.1503 0
M  V30 4904 C 617.944 7.45087 3.67298 0
M  V30 4905 O 618.682 7.27796 4.85194 0
M  V30 4906 C 617.276 6.17323 3.12027 0
M  V30 4907 O 618.074 5.04496 3.46627 0
M  V30 4908 C 615.938 6.19961 3.81809 0
M  V30 4909 N 614.895 5.71575 2.93223 0
M  V30 4910 C 615.064 5.77362 1.59168 0
M  V30 4911 N 614.037 5.3123 0.911893 0
M  V30 4912 C 613.152 4.91717 1.89588 0
M  V30 4913 C 611.885 4.3114 1.8076 0
M  V30 4914 N 611.286 3.99821 0.632928 0
M  V30 4915 N 611.32 4.06823 3.02898 0
M  V30 4916 C 611.922 4.35062 4.22711 0
M  V30 4917 N 613.099 4.90805 4.35707 0
M  V30 4918 C 613.674 5.16382 3.14469 0
M  V30 4919 H 615.97 5.58142 4.72986 0
M  V30 4920 H 617.153 6.21428 2.0318 0
M  V30 4921 H 618.636 7.86112 2.9231 0
M  V30 4922 H 616.942 9.11171 4.55987 0
M  V30 4923 H 616.752 9.9573 2.34194 0
M  V30 4924 H 615.122 9.2792 2.67832 0
M  V30 4925 H 611.386 4.09052 5.13359 0
M  V30 4926 H 615.964 6.16575 1.12198 0
M  V30 4927 H 610.356 3.55423 0.632085 0
M  V30 4928 H 611.76 4.20317 -0.256712 0
M  V30 4929 H 617.762 4.67628 4.28704 0
M  V30 4930 P 619.62 7.39546 4.75277 0
M  V30 4931 O 621.042 7.81777 5.05738 0
M  V30 4932 O 619.26 7.1065 3.32998 0
M  V30 4933 O 619.297 6.04542 5.56673 0
M  V30 4934 C 619.137 6.22772 7.02095 0
M  V30 4935 C 619.677 4.97725 7.70406 0
M  V30 4936 O 618.621 4.13256 7.58987 0
M  V30 4937 C 620.895 4.28231 7.11815 0
M  V30 4938 O 621.633 3.49945 8.01648 0
M  V30 4939 C 620.226 3.5063 5.96244 0
M  V30 4940 O 621.025 2.36482 5.64681 0
M  V30 4941 C 618.889 3.15122 6.56374 0
M  V30 4942 H 618.921 2.13853 6.99751 0
M  V30 4943 H 620.104 4.13501 5.06559 0
M  V30 4944 H 621.588 5.03285 6.70911 0
M  V30 4945 H 619.894 5.20877 8.75697 0
M  V30 4946 H 619.704 7.11046 7.35349 0
M  V30 4947 H 618.074 6.35815 7.26986 0
M  V30 4948 H 620.713 1.61644 6.13565 0
M  V30 4949 P 622.57 3.65191 7.99657 0
M  V30 4950 O 623.992 3.8425 8.48115 0
M  V30 4951 O 622.21 4.17805 6.64342 0
M  V30 4952 O 622.247 2.07613 7.95143 0
M  V30 4953 C 622.087 1.44328 9.27336 0
M  V30 4954 C 622.627 0.0220036 9.17197 0
M  V30 4955 O 621.571 -0.626867 8.61923 0
M  V30 4956 C 623.845 -0.24586 8.30336 0
M  V30 4957 O 624.583 -1.39011 8.63583 0
M  V30 4958 C 623.176 -0.273849 6.91158 0
M  V30 4959 O 623.975 -1.06348 6.02892 0
M  V30 4960 C 621.839 -0.897649 7.22545 0
M  V30 4961 H 621.871 -1.9841 7.04286 0
M  V30 4962 H 623.054 0.739928 6.497 0
M  V30 4963 H 624.538 0.60668 8.36503 0
M  V30 4964 H 622.844 -0.352479 10.1829 0
M  V30 4965 H 622.654 2.00611 10.0304 0
M  V30 4966 H 621.024 1.41843 9.55327 0
M  V30 4967 H 623.663 -1.95734 6.03555 0
M  V30 4968 P 625.521 -1.25109 8.70152 0
M  V30 4969 O 626.942 -1.35288 9.2132 0
M  V30 4970 O 625.161 -0.0769065 7.84762 0
M  V30 4971 O 625.198 -2.55232 7.81161 0
M  V30 4972 C 625.037 -3.79979 8.58246 0
M  V30 4973 C 625.578 -4.94023 7.72785 0
M  V30 4974 O 624.523 -5.18666 6.91125 0
M  V30 4975 C 626.796 -4.69597 6.85231 0
M  V30 4976 O 627.534 -5.83832 6.51337 0
M  V30 4977 C 626.128 -3.96706 5.66633 0
M  V30 4978 O 626.926 -4.14896 4.5003 0
M  V30 4979 C 624.79 -4.66153 5.59313 0
M  V30 4980 N 623.747 -3.71582 5.24027 0
M  V30 4981 C 623.916 -2.39715 5.48833 0
M  V30 4982 N 622.889 -1.65863 5.12845 0
M  V30 4983 C 622.004 -2.57637 4.5973 0
M  V30 4984 C 620.737 -2.40278 4.01027 0
M  V30 4985 N 620.138 -1.19549 3.86744 0
M  V30 4986 N 620.172 -3.57711 3.59575 0
M  V30 4987 C 620.774 -4.80324 3.70476 0
M  V30 4988 N 621.951 -5.01121 4.23801 0
M  V30 4989 C 622.526 -3.84757 4.66372 0
M  V30 4990 H 624.822 -5.47604 4.85148 0
M  V30 4991 H 626.005 -2.8955 5.86187 0
M  V30 4992 H 627.488 -4.0121 7.36511 0
M  V30 4993 H 625.794 -5.81019 8.37003 0
M  V30 4994 H 625.604 -3.73517 9.52265 0
M  V30 4995 H 623.974 -3.97163 8.80359 0
M  V30 4996 H 620.238 -5.66348 3.3183 0
M  V30 4997 H 624.816 -1.98804 5.94332 0
M  V30 4998 H 619.208 -1.13147 3.4281 0
M  V30 4999 H 620.612 -0.344074 4.19692 0
M  V30 5000 H 626.614 -4.90891 4.01857 0
M  V30 5001 P 628.471 -5.75688 6.64379 0
M  V30 5002 O 629.893 -6.11981 7.01997 0
M  V30 5003 O 628.111 -4.30744 6.56026 0
M  V30 5004 O 628.148 -6.37042 5.19165 0
M  V30 5005 C 627.988 -7.83578 5.16515 0
M  V30 5006 C 628.528 -8.33307 3.82977 0
M  V30 5007 O 627.473 -8.10074 3.01034 0
M  V30 5008 C 629.746 -7.65514 3.2257 0
M  V30 5009 O 630.484 -8.4329 2.32297 0
M  V30 5010 C 629.078 -6.40075 2.62207 0
M  V30 5011 O 629.876 -5.92492 1.53687 0
M  V30 5012 C 627.74 -6.9454 2.18503 0
M  V30 5013 N 626.697 -5.95905 2.39948 0
M  V30 5014 C 626.759 -5.13994 3.44742 0
M  V30 5015 N 625.714 -4.30684 3.46712 0
M  V30 5016 C 624.98 -4.65583 2.41086 0
M  V30 5017 C 623.674 -4.20877 1.99581 0
M  V30 5018 O 622.941 -3.35913 2.52616 0
M  V30 5019 N 623.244 -4.83271 0.873406 0
M  V30 5020 C 623.993 -5.82006 0.185129 0
M  V30 5021 N 623.396 -6.30619 -0.95439 0
M  V30 5022 N 625.146 -6.28443 0.578524 0
M  V30 5023 C 625.603 -5.68486 1.70138 0
M  V30 5024 H 627.772 -7.23063 1.12091 0
M  V30 5025 H 628.955 -5.60165 3.3715 0
M  V30 5026 H 630.44 -7.3611 4.01946 0
M  V30 5027 H 628.745 -9.40912 3.9095 0
M  V30 5028 H 628.555 -8.29056 5.99158 0
M  V30 5029 H 626.924 -8.10073 5.25882 0
M  V30 5030 H 622.348 -4.58323 0.505262 0
M  V30 5031 H 627.555 -5.14564 4.1935 0
M  V30 5032 H 622.485 -5.93402 -1.25364 0
M  V30 5033 H 623.861 -7.0425 -1.50254 0
M  V30 5034 H 629.565 -6.30224 0.72668 0
M  V30 5035 P 631.422 -8.4349 2.47671 0
M  V30 5036 O 632.844 -8.94167 2.5964 0
M  V30 5037 O 631.062 -7.1704 3.19006 0
M  V30 5038 O 631.099 -8.16596 0.923387 0
M  V30 5039 C 630.939 -9.38437 0.108857 0
M  V30 5040 C 631.479 -9.08175 -1.28353 0
M  V30 5041 O 630.423 -8.44229 -1.84713 0
M  V30 5042 C 632.697 -8.18386 -1.42505 0
M  V30 5043 O 633.435 -8.3501 -2.60497 0
M  V30 5044 C 632.028 -6.80225 -1.25468 0
M  V30 5045 O 632.827 -5.81621 -1.91066 0
M  V30 5046 C 630.691 -7.02416 -1.9168 0
M  V30 5047 H 630.723 -6.6888 -2.96621 0
M  V30 5048 H 631.906 -6.53617 -0.192223 0
M  V30 5049 H 633.39 -8.36622 -0.589963 0
M  V30 5050 H 631.696 -10.0291 -1.79807 0
M  V30 5051 H 631.506 -10.2138 0.558219 0
M  V30 5052 H 629.876 -9.6579 0.0444202 0
M  V30 5053 H 632.515 -5.69556 -2.79637 0
M  V30 5054 P 634.373 -8.4349 -2.47671 0
M  V30 5055 O 635.795 -8.92593 -2.65 0
M  V30 5056 O 634.013 -7.7568 -1.19296 0
M  V30 5057 O 634.05 -7.36886 -3.63805 0
M  V30 5058 C 633.89 -7.95349 -4.982 0
M  V30 5059 C 634.43 -6.94612 -5.98974 0
M  V30 5060 O 633.374 -6.10347 -6.11815 0
M  V30 5061 C 635.648 -6.11426 -5.62335 0
M  V30 5062 O 636.386 -5.6162 -6.70584 0
M  V30 5063 C 634.979 -5.04409 -4.73308 0
M  V30 5064 O 635.778 -3.85992 -4.75183 0
M  V30 5065 C 633.642 -4.8728 -5.41006 0
M  V30 5066 H 633.674 -4.02333 -6.11157 0
M  V30 5067 H 634.857 -5.39466 -3.69543 0
M  V30 5068 H 636.341 -6.71916 -5.01943 0
M  V30 5069 H 634.647 -7.4649 -6.93477 0
M  V30 5070 H 634.457 -8.89416 -5.05237 0
M  V30 5071 H 632.827 -8.14876 -5.18409 0
M  V30 5072 H 635.466 -3.27957 -5.4317 0
M  V30 5073 P 637.323 -5.75688 -6.64379 0
M  V30 5074 O 638.745 -6.07627 -7.05504 0
M  V30 5075 O 636.963 -5.88047 -5.19722 0
M  V30 5076 O 637 -4.2322 -7.04443 0
M  V30 5077 C 636.84 -3.99743 -8.4911 0
M  V30 5078 C 637.38 -2.60516 -8.79425 0
M  V30 5079 O 636.324 -1.82684 -8.4467 0
M  V30 5080 C 638.598 -2.10343 -8.03628 0
M  V30 5081 O 639.336 -1.09919 -8.67766 0
M  V30 5082 C 637.929 -1.68446 -6.70876 0
M  V30 5083 O 638.728 -0.678137 -6.08433 0
M  V30 5084 C 636.592 -1.17436 -7.18567 0
M  V30 5085 H 636.624 -0.0804732 -7.31656 0
M  V30 5086 H 637.807 -2.54037 -6.02537 0
M  V30 5087 H 639.291 -2.93881 -7.85526 0
M  V30 5088 H 637.597 -2.53065 -9.86973 0
M  V30 5089 H 637.407 -4.75072 -9.05887 0
M  V30 5090 H 635.777 -4.05244 -8.76668 0
M  V30 5091 H 638.416 0.177647 -6.34251 0
M  V30 5092 P 640.274 -1.25109 -8.70152 0
M  V30 5093 O 641.696 -1.29744 -9.22016 0
M  V30 5094 O 639.914 -2.13714 -7.55141 0
M  V30 5095 O 639.951 0.248149 -8.21425 0
M  V30 5096 C 639.791 1.22779 -9.30434 0
M  V30 5097 C 640.331 2.56293 -8.80664 0
M  V30 5098 O 639.275 3.02979 -8.09349 0
M  V30 5099 C 641.549 2.57523 -7.89775 0
M  V30 5100 O 642.287 3.7668 -7.89438 0
M  V30 5101 C 640.88 2.20997 -6.55446 0
M  V30 5102 O 641.679 2.71895 -5.48509 0
M  V30 5103 C 639.543 2.89693 -6.67988 0
M  V30 5104 H 639.575 3.88793 -6.19859 0
M  V30 5105 H 640.758 1.12046 -6.44229 0
M  V30 5106 H 642.242 1.7746 -8.19711 0
M  V30 5107 H 640.548 3.20706 -9.67112 0
M  V30 5108 H 640.358 0.901032 -10.1892 0
M  V30 5109 H 638.728 1.33049 -9.56592 0
M  V30 5110 H 641.367 3.57847 -5.23962 0
M  V30 5111 P 643.224 3.65191 -7.99657 0
M  V30 5112 O 644.646 3.89332 -8.45794 0
M  V30 5113 O 642.864 2.28472 -7.50807 0
M  V30 5114 O 642.901 4.64972 -6.77611 0
M  V30 5115 C 642.741 6.06319 -7.16352 0
M  V30 5116 C 643.281 6.91731 -6.02299 0
M  V30 5117 O 642.225 6.92449 -5.17064 0
M  V30 5118 C 644.499 6.43627 -5.25174 0
M  V30 5119 O 645.237 7.43686 -4.60469 0
M  V30 5120 C 643.83 5.40275 -4.31916 0
M  V30 5121 O 644.629 5.25279 -3.14438 0
M  V30 5122 C 642.493 6.04847 -4.05327 0
M  V30 5123 H 642.525 6.62195 -3.11261 0
M  V30 5124 H 643.708 4.42556 -4.81383 0
M  V30 5125 H 645.192 5.92458 -5.93643 0
M  V30 5126 H 643.498 7.92655 -6.402 0
M  V30 5127 H 643.308 6.26671 -8.0846 0
M  V30 5128 H 641.678 6.29101 -7.32804 0
M  V30 5129 H 644.317 5.84315 -2.47318 0
M  V30 5130 P 646.175 7.39546 -4.75277 0
M  V30 5131 O 647.597 7.84798 -5.01039 0
M  V30 5132 O 645.815 5.9812 -5.08098 0
M  V30 5133 O 645.852 7.57503 -3.1866 0
M  V30 5134 C 645.692 8.97357 -2.74833 0
M  V30 5135 C 646.232 9.07548 -1.32709 0
M  V30 5136 O 645.176 8.62072 -0.606159 0
M  V30 5137 C 647.45 8.25383 -0.938334 0
M  V30 5138 O 648.188 8.74577 0.146954 0
M  V30 5139 C 646.781 6.8802 -0.712559 0
M  V30 5140 O 647.58 6.1189 0.194655 0
M  V30 5141 C 645.444 7.27966 -0.139777 0
M  V30 5142 H 645.476 7.25354 0.961601 0
M  V30 5143 H 646.659 6.32557 -1.65702 0
M  V30 5144 H 648.143 8.19355 -1.79097 0
M  V30 5145 H 646.449 10.1294 -1.10029 0
M  V30 5146 H 646.259 9.64276 -3.41316 0
M  V30 5147 H 644.629 9.25417 -2.76357 0
M  V30 5148 H 647.268 6.25267 1.07847 0
M  V30 5149 P 649.125 8.791 4.45433e-12 0
M  V30 5150 O 650.547 9.31096 0.027933 0
M  V30 5151 O 648.765 7.77869 -1.04071 0
M  V30 5152 O 648.802 8.09533 1.41463 0
M  V30 5153 C 648.642 9.0349 2.53943 0
M  V30 5154 C 649.182 8.35226 3.79016 0
M  V30 5155 O 648.126 7.57992 4.15078 0
M  V30 5156 C 650.4 7.45087 3.67298 0
M  V30 5157 O 651.138 7.27796 4.85194 0
M  V30 5158 C 649.731 6.17323 3.12027 0
M  V30 5159 O 650.53 5.04231 3.47188 0
M  V30 5160 C 648.394 6.19961 3.81809 0
M  V30 5161 H 648.426 5.58218 4.73051 0
M  V30 5162 H 649.609 6.21726 2.02589 0
M  V30 5163 H 651.093 7.86112 2.9231 0
M  V30 5164 H 649.399 9.11627 4.55076 0
M  V30 5165 H 649.209 9.9573 2.34194 0
M  V30 5166 H 647.579 9.2792 2.67832 0
M  V30 5167 H 650.218 4.67702 4.28772 0
M  V30 5168 P 652.076 7.39546 4.75277 0
M  V30 5169 O 653.498 7.81777 5.05738 0
M  V30 5170 O 651.716 7.1065 3.32998 0
M  V30 5171 O 651.753 6.04542 5.56673 0
M  V30 5172 C 651.593 6.22772 7.02095 0
M  V30 5173 C 652.133 4.97725 7.70406 0
M  V30 5174 O 651.077 4.13256 7.58987 0
M  V30 5175 C 653.351 4.28231 7.11815 0
M  V30 5176 O 654.089 3.49945 8.01648 0
M  V30 5177 C 652.682 3.5063 5.96244 0
M  V30 5178 O 653.481 2.36482 5.64681 0
M  V30 5179 C 651.345 3.15122 6.56374 0
M  V30 5180 H 651.377 2.13853 6.99751 0
M  V30 5181 H 652.56 4.13501 5.06559 0
M  V30 5182 H 654.044 5.03285 6.70911 0
M  V30 5183 H 652.35 5.20877 8.75697 0
M  V30 5184 H 652.16 7.11046 7.35349 0
M  V30 5185 H 650.53 6.35815 7.26986 0
M  V30 5186 H 653.169 1.61644 6.13565 0
M  V30 5187 P 655.027 3.65191 7.99657 0
M  V30 5188 O 656.449 3.8425 8.48115 0
M  V30 5189 O 654.667 4.17805 6.64342 0
M  V30 5190 O 654.704 2.07613 7.95143 0
M  V30 5191 C 654.544 1.44328 9.27336 0
M  V30 5192 C 655.084 0.0220036 9.17197 0
M  V30 5193 O 654.028 -0.626867 8.61923 0
M  V30 5194 C 656.302 -0.24586 8.30336 0
M  V30 5195 O 657.04 -1.39011 8.63583 0
M  V30 5196 C 655.633 -0.273849 6.91158 0
M  V30 5197 O 656.432 -1.06348 6.02892 0
M  V30 5198 C 654.296 -0.897649 7.22545 0
M  V30 5199 H 654.328 -1.9841 7.04286 0
M  V30 5200 H 655.511 0.739928 6.497 0
M  V30 5201 H 656.995 0.60668 8.36503 0
M  V30 5202 H 655.301 -0.352479 10.1829 0
M  V30 5203 H 655.111 2.00611 10.0304 0
M  V30 5204 H 653.481 1.41843 9.55327 0
M  V30 5205 H 656.12 -1.95734 6.03555 0
M  V30 5206 P 657.977 -1.25109 8.70152 0
M  V30 5207 O 659.399 -1.35274 9.21221 0
M  V30 5208 O 657.617 -0.0769065 7.84762 0
M  V30 5209 O 657.654 -2.55232 7.81161 0
M  V30 5210 C 657.494 -3.79939 8.58154 0
M  V30 5211 C 658.034 -4.94023 7.72785 0
M  V30 5212 O 656.978 -5.18726 6.91205 0
M  V30 5213 C 659.252 -4.69597 6.85231 0
M  V30 5214 O 659.99 -5.83832 6.51337 0
M  V30 5215 C 658.583 -3.96706 5.66633 0
M  V30 5216 O 659.382 -4.15414 4.49689 0
M  V30 5217 C 657.246 -4.66153 5.59313 0
M  V30 5218 H 657.278 -5.47679 4.85214 0
M  V30 5219 H 658.461 -2.89008 5.86566 0
M  V30 5220 H 659.945 -4.0121 7.36511 0
M  V30 5221 H 658.251 -5.80182 8.37584 0
M  V30 5222 H 658.061 -3.73517 9.52265 0
M  V30 5223 H 656.431 -3.97163 8.80359 0
M  V30 5224 H 659.07 -4.90969 4.01921 0
M  V30 5225 P 660.928 -5.75688 6.64379 0
M  V30 5226 O 662.35 -6.11849 7.01846 0
M  V30 5227 O 660.568 -4.30744 6.56026 0
M  V30 5228 O 660.605 -6.37042 5.19165 0
M  V30 5229 C 660.445 -7.83578 5.16515 0
M  V30 5230 C 660.985 -8.33398 3.83019 0
M  V30 5231 O 659.929 -8.10074 3.01034 0
M  V30 5232 C 662.203 -7.65514 3.2257 0
M  V30 5233 O 662.941 -8.4329 2.32297 0
M  V30 5234 C 661.534 -6.40075 2.62207 0
M  V30 5235 O 662.333 -5.92589 1.53712 0
M  V30 5236 C 660.197 -6.9454 2.18503 0
M  V30 5237 H 660.229 -7.23063 1.12091 0
M  V30 5238 H 661.412 -5.6025 3.37201 0
M  V30 5239 H 662.896 -7.35707 4.02681 0
M  V30 5240 H 661.202 -9.40912 3.9095 0
M  V30 5241 H 661.012 -8.29056 5.99158 0
M  V30 5242 H 659.382 -8.10073 5.25882 0
M  V30 5243 H 662.021 -6.30324 0.726794 0
M  V30 5244 P 663.878 -8.4349 2.47671 0
M  V30 5245 O 665.3 -8.94167 2.5964 0
M  V30 5246 O 663.518 -7.1704 3.19006 0
M  V30 5247 O 663.555 -8.16596 0.923387 0
M  V30 5248 C 663.395 -9.38437 0.108857 0
M  V30 5249 C 663.935 -9.08175 -1.28353 0
M  V30 5250 O 662.879 -8.44229 -1.84713 0
M  V30 5251 C 665.153 -8.18386 -1.42505 0
M  V30 5252 O 665.891 -8.3501 -2.60497 0
M  V30 5253 C 664.484 -6.80225 -1.25468 0
M  V30 5254 O 665.283 -5.81621 -1.91066 0
M  V30 5255 C 663.147 -7.02416 -1.9168 0
M  V30 5256 H 663.179 -6.6888 -2.96621 0
M  V30 5257 H 664.362 -6.53617 -0.192223 0
M  V30 5258 H 665.846 -8.36622 -0.589963 0
M  V30 5259 H 664.152 -10.0291 -1.79807 0
M  V30 5260 H 663.962 -10.2138 0.558219 0
M  V30 5261 H 662.332 -9.6579 0.0444202 0
M  V30 5262 H 664.971 -5.69556 -2.79637 0
M  V30 5263 P 666.829 -8.4349 -2.47671 0
M  V30 5264 O 668.251 -8.92593 -2.65 0
M  V30 5265 O 666.469 -7.7568 -1.19296 0
M  V30 5266 O 666.506 -7.36886 -3.63805 0
M  V30 5267 C 666.346 -7.95349 -4.982 0
M  V30 5268 C 666.886 -6.94612 -5.98974 0
M  V30 5269 O 665.83 -6.10347 -6.11815 0
M  V30 5270 C 668.104 -6.11426 -5.62335 0
M  V30 5271 O 668.842 -5.6162 -6.70584 0
M  V30 5272 C 667.435 -5.04409 -4.73308 0
M  V30 5273 O 668.234 -3.85992 -4.75183 0
M  V30 5274 C 666.098 -4.8728 -5.41006 0
M  V30 5275 H 666.13 -4.02333 -6.11157 0
M  V30 5276 H 667.313 -5.39466 -3.69543 0
M  V30 5277 H 668.797 -6.71916 -5.01943 0
M  V30 5278 H 667.103 -7.4649 -6.93477 0
M  V30 5279 H 666.913 -8.89416 -5.05237 0
M  V30 5280 H 665.283 -8.14876 -5.18409 0
M  V30 5281 H 667.922 -3.27957 -5.4317 0
M  V30 5282 P 669.779 -5.75688 -6.64379 0
M  V30 5283 O 671.2 -6.07692 -7.0558 0
M  V30 5284 O 669.419 -5.88047 -5.19722 0
M  V30 5285 O 669.456 -4.2322 -7.04443 0
M  V30 5286 C 669.295 -3.99785 -8.49201 0
M  V30 5287 C 669.836 -2.60516 -8.79425 0
M  V30 5288 O 668.781 -1.82663 -8.44573 0
M  V30 5289 C 671.054 -2.10343 -8.03628 0
M  V30 5290 O 671.792 -1.09919 -8.67766 0
M  V30 5291 C 670.386 -1.68446 -6.70876 0
M  V30 5292 O 671.184 -0.684109 -6.08265 0
M  V30 5293 C 669.048 -1.17436 -7.18567 0
M  V30 5294 N 668.005 -1.52699 -6.23988 0
M  V30 5295 C 668.174 -2.578 -5.40574 0
M  V30 5296 N 667.147 -2.78966 -4.61193 0
M  V30 5297 C 666.262 -1.78725 -4.95769 0
M  V30 5298 C 664.995 -1.45727 -4.44207 0
M  V30 5299 N 664.43 -0.374977 -5.05812 0
M  V30 5300 C 665.032 0.345585 -6.05615 0
M  V30 5301 N 666.209 0.0787651 -6.56253 0
M  V30 5302 C 666.784 -1.00499 -5.96189 0
M  V30 5303 H 670.263 -2.53396 -6.02698 0
M  V30 5304 H 671.746 -2.93881 -7.85526 0
M  V30 5305 H 670.052 -2.52078 -9.87225 0
M  V30 5306 H 669.862 -4.75072 -9.05887 0
M  V30 5307 H 668.232 -4.05244 -8.76668 0
M  V30 5308 H 669.074 -3.18977 -5.3945 0
M  V30 5309 H 670.872 0.177619 -6.34151 0
M  V30 5310 P 672.73 -1.25109 -8.70152 0
M  V30 5311 O 674.152 -1.29744 -9.22016 0
M  V30 5312 O 672.37 -2.13714 -7.55141 0
M  V30 5313 O 672.407 0.248149 -8.21425 0
M  V30 5314 C 672.247 1.22779 -9.30434 0
M  V30 5315 C 672.787 2.56293 -8.80664 0
M  V30 5316 O 671.731 3.02979 -8.09349 0
M  V30 5317 C 674.005 2.57523 -7.89775 0
M  V30 5318 O 674.743 3.7668 -7.89438 0
M  V30 5319 C 673.336 2.20997 -6.55446 0
M  V30 5320 O 674.135 2.71895 -5.48509 0
M  V30 5321 C 671.999 2.89693 -6.67988 0
M  V30 5322 H 672.031 3.88793 -6.19859 0
M  V30 5323 H 673.214 1.12046 -6.44229 0
M  V30 5324 H 674.698 1.7746 -8.19711 0
M  V30 5325 H 673.004 3.20706 -9.67112 0
M  V30 5326 H 672.814 0.901032 -10.1892 0
M  V30 5327 H 671.184 1.33049 -9.56592 0
M  V30 5328 H 673.823 3.57847 -5.23962 0
M  V30 5329 P 675.681 3.65191 -7.99657 0
M  V30 5330 O 677.103 3.89332 -8.45794 0
M  V30 5331 O 675.321 2.28472 -7.50807 0
M  V30 5332 O 675.358 4.64972 -6.77611 0
M  V30 5333 C 675.198 6.06319 -7.16352 0
M  V30 5334 C 675.738 6.91731 -6.02299 0
M  V30 5335 O 674.682 6.92449 -5.17064 0
M  V30 5336 C 676.956 6.43627 -5.25174 0
M  V30 5337 O 677.694 7.43686 -4.60469 0
M  V30 5338 C 676.287 5.40275 -4.31916 0
M  V30 5339 O 677.086 5.25279 -3.14438 0
M  V30 5340 C 674.95 6.04847 -4.05327 0
M  V30 5341 H 674.982 6.62195 -3.11261 0
M  V30 5342 H 676.165 4.42556 -4.81383 0
M  V30 5343 H 677.649 5.92458 -5.93643 0
M  V30 5344 H 675.955 7.92655 -6.402 0
M  V30 5345 H 675.765 6.26671 -8.0846 0
M  V30 5346 H 674.135 6.29101 -7.32804 0
M  V30 5347 H 676.774 5.84315 -2.47318 0
M  V30 5348 P 678.631 7.39546 -4.75277 0
M  V30 5349 O 680.053 7.84966 -5.01146 0
M  V30 5350 O 678.271 5.9812 -5.08098 0
M  V30 5351 O 678.308 7.57503 -3.1866 0
M  V30 5352 C 678.148 8.97357 -2.74833 0
M  V30 5353 C 678.688 9.0745 -1.32694 0
M  V30 5354 O 677.633 8.62072 -0.606159 0
M  V30 5355 C 679.906 8.25383 -0.938334 0
M  V30 5356 O 680.644 8.74577 0.146954 0
M  V30 5357 C 679.238 6.8802 -0.712559 0
M  V30 5358 O 680.036 6.11791 0.194623 0
M  V30 5359 C 677.9 7.27966 -0.139777 0
M  V30 5360 N 676.857 6.39368 -0.623421 0
M  V30 5361 C 676.919 5.90299 -1.85969 0
M  V30 5362 N 675.874 5.10919 -2.1133 0
M  V30 5363 C 675.14 5.14646 -1.0015 0
M  V30 5364 C 673.834 4.60057 -0.729219 0
M  V30 5365 O 673.101 3.93476 -1.47746 0
M  V30 5366 N 673.404 4.88302 0.523505 0
M  V30 5367 C 674.153 5.63646 1.46207 0
M  V30 5368 N 673.556 5.78186 2.69239 0
M  V30 5369 N 675.306 6.19285 1.21544 0
M  V30 5370 C 675.763 5.93392 -0.0308487 0
M  V30 5371 H 677.932 7.25354 0.961601 0
M  V30 5372 H 679.115 6.3246 -1.65676 0
M  V30 5373 H 680.6 8.19533 -1.78278 0
M  V30 5374 H 678.905 10.1294 -1.10029 0
M  V30 5375 H 678.715 9.64276 -3.41316 0
M  V30 5376 H 677.084 9.25417 -2.76357 0
M  V30 5377 H 672.508 4.53993 0.806451 0
M  V30 5378 H 677.715 6.11865 -2.57394 0
M  V30 5379 H 672.645 5.34046 2.87467 0
M  V30 5380 H 674.021 6.33391 3.42578 0
M  V30 5381 H 679.725 6.25169 1.0783 0
M  V30 5382 P 681.582 8.791 4.7645e-12 0
M  V30 5383 O 683.004 9.31096 0.027933 0
M  V30 5384 O 681.222 7.77869 -1.04071 0
M  V30 5385 O 681.259 8.09533 1.41463 0
M  V30 5386 C 681.099 9.0349 2.53943 0
M  V30 5387 C 681.639 8.35226 3.79016 0
M  V30 5388 O 680.583 7.57992 4.15078 0
M  V30 5389 C 682.857 7.45087 3.67298 0
M  V30 5390 O 683.595 7.27796 4.85194 0
M  V30 5391 C 682.188 6.17323 3.12027 0
M  V30 5392 O 682.987 5.04231 3.47188 0
M  V30 5393 C 680.851 6.19961 3.81809 0
M  V30 5394 H 680.883 5.58218 4.73051 0
M  V30 5395 H 682.066 6.21726 2.02589 0
M  V30 5396 H 683.55 7.86112 2.9231 0
M  V30 5397 H 681.856 9.11627 4.55076 0
M  V30 5398 H 681.666 9.9573 2.34194 0
M  V30 5399 H 680.036 9.2792 2.67832 0
M  V30 5400 H 682.675 4.67702 4.28772 0
M  V30 5401 P 684.532 7.39546 4.75277 0
M  V30 5402 O 685.954 7.81945 5.05847 0
M  V30 5403 O 684.172 7.1065 3.32998 0
M  V30 5404 O 684.209 6.04542 5.56673 0
M  V30 5405 C 684.049 6.22772 7.02095 0
M  V30 5406 C 684.589 4.97671 7.70322 0
M  V30 5407 O 683.534 4.13256 7.58987 0
M  V30 5408 C 685.807 4.28231 7.11815 0
M  V30 5409 O 686.545 3.49945 8.01648 0
M  V30 5410 C 685.139 3.5063 5.96244 0
M  V30 5411 O 685.937 2.36443 5.64589 0
M  V30 5412 C 683.801 3.15122 6.56374 0
M  V30 5413 N 682.758 3.22311 5.55692 0
M  V30 5414 C 682.82 4.14382 4.59701 0
M  V30 5415 N 681.775 4.04476 3.76958 0
M  V30 5416 C 681.041 3.04892 4.26534 0
M  V30 5417 C 679.735 2.57447 3.88189 0
M  V30 5418 O 679.002 2.9785 2.96543 0
M  V30 5419 N 679.305 1.55228 4.65922 0
M  V30 5420 C 680.054 1.01152 5.73447 0
M  V30 5421 N 679.457 -0.0472117 6.37783 0
M  V30 5422 N 681.207 1.467 6.13813 0
M  V30 5423 C 681.664 2.4931 5.38487 0
M  V30 5424 H 683.833 2.13853 6.99751 0
M  V30 5425 H 685.016 4.13438 5.06482 0
M  V30 5426 H 686.501 5.02614 6.71414 0
M  V30 5427 H 684.806 5.20877 8.75697 0
M  V30 5428 H 684.616 7.11046 7.35349 0
M  V30 5429 H 682.985 6.35815 7.26986 0
M  V30 5430 H 678.409 1.15238 4.46468 0
M  V30 5431 H 683.616 4.88312 4.49647 0
M  V30 5432 H 678.546 -0.396382 6.05203 0
M  V30 5433 H 679.922 -0.484997 7.18465 0
M  V30 5434 H 685.626 1.61619 6.13468 0
M  V30 5435 P 687.483 3.65191 7.99657 0
M  V30 5436 O 688.905 3.8425 8.48115 0
M  V30 5437 O 687.123 4.17805 6.64342 0
M  V30 5438 O 687.16 2.07613 7.95143 0
M  V30 5439 C 687 1.44328 9.27336 0
M  V30 5440 C 687.54 0.0220036 9.17197 0
M  V30 5441 O 686.484 -0.626867 8.61923 0
M  V30 5442 C 688.758 -0.24586 8.30336 0
M  V30 5443 O 689.496 -1.39011 8.63583 0
M  V30 5444 C 688.089 -0.273849 6.91158 0
M  V30 5445 O 688.888 -1.06348 6.02892 0
M  V30 5446 C 686.752 -0.897649 7.22545 0
M  V30 5447 H 686.784 -1.9841 7.04286 0
M  V30 5448 H 687.967 0.739928 6.497 0
M  V30 5449 H 689.451 0.60668 8.36503 0
M  V30 5450 H 687.757 -0.352479 10.1829 0
M  V30 5451 H 687.567 2.00611 10.0304 0
M  V30 5452 H 685.937 1.41843 9.55327 0
M  V30 5453 H 688.576 -1.95734 6.03555 0
M  V30 5454 P 690.433 -1.25109 8.70152 0
M  V30 5455 O 691.855 -1.35274 9.21221 0
M  V30 5456 O 690.073 -0.0769065 7.84762 0
M  V30 5457 O 690.11 -2.55232 7.81161 0
M  V30 5458 C 689.95 -3.79939 8.58154 0
M  V30 5459 C 690.49 -4.94023 7.72785 0
M  V30 5460 O 689.434 -5.18726 6.91205 0
M  V30 5461 C 691.708 -4.69597 6.85231 0
M  V30 5462 O 692.446 -5.83832 6.51337 0
M  V30 5463 C 691.039 -3.96706 5.66633 0
M  V30 5464 O 691.838 -4.15414 4.49689 0
M  V30 5465 C 689.702 -4.66153 5.59313 0
M  V30 5466 H 689.734 -5.47679 4.85214 0
M  V30 5467 H 690.917 -2.89008 5.86566 0
M  V30 5468 H 692.401 -4.0121 7.36511 0
M  V30 5469 H 690.707 -5.80182 8.37584 0
M  V30 5470 H 690.517 -3.73517 9.52265 0
M  V30 5471 H 688.887 -3.97163 8.80359 0
M  V30 5472 H 691.526 -4.90969 4.01921 0
M  V30 5473 P 693.384 -5.75688 6.64379 0
M  V30 5474 O 694.806 -6.11849 7.01846 0
M  V30 5475 O 693.024 -4.30744 6.56026 0
M  V30 5476 O 693.061 -6.37042 5.19165 0
M  V30 5477 C 692.901 -7.83578 5.16515 0
M  V30 5478 C 693.441 -8.33398 3.83019 0
M  V30 5479 O 692.385 -8.10074 3.01034 0
M  V30 5480 C 694.659 -7.65514 3.2257 0
M  V30 5481 O 695.397 -8.4329 2.32297 0
M  V30 5482 C 693.99 -6.40075 2.62207 0
M  V30 5483 O 694.789 -5.92589 1.53712 0
M  V30 5484 C 692.653 -6.9454 2.18503 0
M  V30 5485 H 692.685 -7.23063 1.12091 0
M  V30 5486 H 693.868 -5.6025 3.37201 0
M  V30 5487 H 695.352 -7.35707 4.02681 0
M  V30 5488 H 693.658 -9.40912 3.9095 0
M  V30 5489 H 693.468 -8.29056 5.99158 0
M  V30 5490 H 691.838 -8.10073 5.25882 0
M  V30 5491 H 694.477 -6.30324 0.726794 0
M  V30 5492 P 696.335 -8.4349 2.47671 0
M  V30 5493 O 697.757 -8.94167 2.5964 0
M  V30 5494 O 695.975 -7.1704 3.19006 0
M  V30 5495 O 696.012 -8.16596 0.923387 0
M  V30 5496 C 695.852 -9.38437 0.108857 0
M  V30 5497 C 696.392 -9.08175 -1.28353 0
M  V30 5498 O 695.336 -8.44229 -1.84713 0
M  V30 5499 C 697.61 -8.18386 -1.42505 0
M  V30 5500 O 698.348 -8.3501 -2.60497 0
M  V30 5501 C 696.941 -6.80225 -1.25468 0
M  V30 5502 O 697.74 -5.81621 -1.91066 0
M  V30 5503 C 695.604 -7.02416 -1.9168 0
M  V30 5504 H 695.636 -6.6888 -2.96621 0
M  V30 5505 H 696.819 -6.53617 -0.192223 0
M  V30 5506 H 698.303 -8.36622 -0.589963 0
M  V30 5507 H 696.609 -10.0291 -1.79807 0
M  V30 5508 H 696.419 -10.2138 0.558219 0
M  V30 5509 H 694.789 -9.6579 0.0444202 0
M  V30 5510 H 697.428 -5.69556 -2.79637 0
M  V30 5511 P 699.285 -8.4349 -2.47671 0
M  V30 5512 O 700.707 -8.92593 -2.65 0
M  V30 5513 O 698.925 -7.7568 -1.19296 0
M  V30 5514 O 698.962 -7.36886 -3.63805 0
M  V30 5515 C 698.802 -7.95349 -4.982 0
M  V30 5516 C 699.342 -6.94612 -5.98974 0
M  V30 5517 O 698.286 -6.10347 -6.11815 0
M  V30 5518 C 700.56 -6.11426 -5.62335 0
M  V30 5519 O 701.298 -5.6162 -6.70584 0
M  V30 5520 C 699.891 -5.04409 -4.73308 0
M  V30 5521 O 700.69 -3.85992 -4.75183 0
M  V30 5522 C 698.554 -4.8728 -5.41006 0
M  V30 5523 H 698.586 -4.02333 -6.11157 0
M  V30 5524 H 699.769 -5.39466 -3.69543 0
M  V30 5525 H 701.253 -6.71916 -5.01943 0
M  V30 5526 H 699.559 -7.4649 -6.93477 0
M  V30 5527 H 699.369 -8.89416 -5.05237 0
M  V30 5528 H 697.739 -8.14876 -5.18409 0
M  V30 5529 H 700.378 -3.27957 -5.4317 0
M  V30 5530 P 702.236 -5.75688 -6.64379 0
M  V30 5531 O 703.658 -6.07627 -7.05504 0
M  V30 5532 O 701.876 -5.88047 -5.19722 0
M  V30 5533 O 701.913 -4.2322 -7.04443 0
M  V30 5534 C 701.753 -3.99743 -8.4911 0
M  V30 5535 C 702.293 -2.60516 -8.79425 0
M  V30 5536 O 701.237 -1.82684 -8.4467 0
M  V30 5537 C 703.511 -2.10343 -8.03628 0
M  V30 5538 O 704.249 -1.09919 -8.67766 0
M  V30 5539 C 702.842 -1.68446 -6.70876 0
M  V30 5540 O 703.641 -0.678137 -6.08433 0
M  V30 5541 C 701.505 -1.17436 -7.18567 0
M  V30 5542 H 701.537 -0.0804732 -7.31656 0
M  V30 5543 H 702.72 -2.54037 -6.02537 0
M  V30 5544 H 704.204 -2.93881 -7.85526 0
M  V30 5545 H 702.51 -2.53065 -9.86973 0
M  V30 5546 H 702.32 -4.75072 -9.05887 0
M  V30 5547 H 700.69 -4.05244 -8.76668 0
M  V30 5548 H 703.329 0.177647 -6.34251 0
M  V30 5549 P 705.186 -1.25109 -8.70152 0
M  V30 5550 O 706.608 -1.29744 -9.22016 0
M  V30 5551 O 704.826 -2.13714 -7.55141 0
M  V30 5552 O 704.863 0.248149 -8.21425 0
M  V30 5553 C 704.703 1.22779 -9.30434 0
M  V30 5554 C 705.243 2.56293 -8.80664 0
M  V30 5555 O 704.187 3.02979 -8.09349 0
M  V30 5556 C 706.461 2.57523 -7.89775 0
M  V30 5557 O 707.199 3.7668 -7.89438 0
M  V30 5558 C 705.792 2.20997 -6.55446 0
M  V30 5559 O 706.591 2.71895 -5.48509 0
M  V30 5560 C 704.455 2.89693 -6.67988 0
M  V30 5561 H 704.487 3.88793 -6.19859 0
M  V30 5562 H 705.67 1.12046 -6.44229 0
M  V30 5563 H 707.154 1.7746 -8.19711 0
M  V30 5564 H 705.46 3.20706 -9.67112 0
M  V30 5565 H 705.27 0.901032 -10.1892 0
M  V30 5566 H 703.64 1.33049 -9.56592 0
M  V30 5567 H 706.279 3.57847 -5.23962 0
M  V30 5568 P 708.137 3.65191 -7.99657 0
M  V30 5569 O 709.559 3.89332 -8.45794 0
M  V30 5570 O 707.777 2.28472 -7.50807 0
M  V30 5571 O 707.814 4.64972 -6.77611 0
M  V30 5572 C 707.654 6.06319 -7.16352 0
M  V30 5573 C 708.194 6.91731 -6.02299 0
M  V30 5574 O 707.138 6.92449 -5.17064 0
M  V30 5575 C 709.412 6.43627 -5.25174 0
M  V30 5576 O 710.15 7.43686 -4.60469 0
M  V30 5577 C 708.743 5.40275 -4.31916 0
M  V30 5578 O 709.542 5.25279 -3.14438 0
M  V30 5579 C 707.406 6.04847 -4.05327 0
M  V30 5580 H 707.438 6.62195 -3.11261 0
M  V30 5581 H 708.621 4.42556 -4.81383 0
M  V30 5582 H 710.105 5.92458 -5.93643 0
M  V30 5583 H 708.411 7.92655 -6.402 0
M  V30 5584 H 708.221 6.26671 -8.0846 0
M  V30 5585 H 706.591 6.29101 -7.32804 0
M  V30 5586 H 709.23 5.84315 -2.47318 0
M  V30 5587 P 711.087 7.39546 -4.75277 0
M  V30 5588 O 712.509 7.84798 -5.01039 0
M  V30 5589 O 710.727 5.9812 -5.08098 0
M  V30 5590 O 710.764 7.57503 -3.1866 0
M  V30 5591 C 710.604 8.97357 -2.74833 0
M  V30 5592 C 711.144 9.07548 -1.32709 0
M  V30 5593 O 710.088 8.62072 -0.606159 0
M  V30 5594 C 712.362 8.25383 -0.938334 0
M  V30 5595 O 713.1 8.74577 0.146954 0
M  V30 5596 C 711.693 6.8802 -0.712559 0
M  V30 5597 O 712.492 6.1189 0.194655 0
M  V30 5598 C 710.356 7.27966 -0.139777 0
M  V30 5599 H 710.388 7.25354 0.961601 0
M  V30 5600 H 711.571 6.32557 -1.65702 0
M  V30 5601 H 713.055 8.19355 -1.79097 0
M  V30 5602 H 711.361 10.1294 -1.10029 0
M  V30 5603 H 711.171 9.64276 -3.41316 0
M  V30 5604 H 709.541 9.25417 -2.76357 0
M  V30 5605 H 712.18 6.25267 1.07847 0
M  V30 5606 P 714.038 8.791 5.07466e-12 0
M  V30 5607 O 715.46 9.31096 0.027933 0
M  V30 5608 O 713.678 7.77869 -1.04071 0
M  V30 5609 O 713.715 8.09533 1.41463 0
M  V30 5610 C 713.555 9.0349 2.53943 0
M  V30 5611 C 714.095 8.35226 3.79016 0
M  V30 5612 O 713.039 7.57992 4.15078 0
M  V30 5613 C 715.313 7.45087 3.67298 0
M  V30 5614 O 716.051 7.27796 4.85194 0
M  V30 5615 C 714.644 6.17323 3.12027 0
M  V30 5616 O 715.443 5.04231 3.47188 0
M  V30 5617 C 713.307 6.19961 3.81809 0
M  V30 5618 H 713.339 5.58218 4.73051 0
M  V30 5619 H 714.522 6.21726 2.02589 0
M  V30 5620 H 716.006 7.86112 2.9231 0
M  V30 5621 H 714.312 9.11627 4.55076 0
M  V30 5622 H 714.122 9.9573 2.34194 0
M  V30 5623 H 712.492 9.2792 2.67832 0
M  V30 5624 H 715.131 4.67702 4.28772 0
M  V30 5625 P 716.989 7.39546 4.75277 0
M  V30 5626 O 718.411 7.81777 5.05738 0
M  V30 5627 O 716.629 7.1065 3.32998 0
M  V30 5628 O 716.666 6.04542 5.56673 0
M  V30 5629 C 716.506 6.22772 7.02095 0
M  V30 5630 C 717.046 4.97725 7.70406 0
M  V30 5631 O 715.99 4.13256 7.58987 0
M  V30 5632 C 718.264 4.28231 7.11815 0
M  V30 5633 O 719.002 3.49945 8.01648 0
M  V30 5634 C 717.595 3.5063 5.96244 0
M  V30 5635 O 718.394 2.36482 5.64681 0
M  V30 5636 C 716.258 3.15122 6.56374 0
M  V30 5637 H 716.29 2.13853 6.99751 0
M  V30 5638 H 717.473 4.13501 5.06559 0
M  V30 5639 H 718.957 5.03285 6.70911 0
M  V30 5640 H 717.263 5.20877 8.75697 0
M  V30 5641 H 717.073 7.11046 7.35349 0
M  V30 5642 H 715.443 6.35815 7.26986 0
M  V30 5643 H 718.082 1.61644 6.13565 0
M  V30 5644 P 719.939 3.65191 7.99657 0
M  V30 5645 O 721.361 3.8425 8.48115 0
M  V30 5646 O 719.579 4.17805 6.64342 0
M  V30 5647 O 719.616 2.07613 7.95143 0
M  V30 5648 C 719.456 1.44328 9.27336 0
M  V30 5649 C 719.996 0.0220036 9.17197 0
M  V30 5650 O 718.94 -0.626867 8.61923 0
M  V30 5651 C 721.214 -0.24586 8.30336 0
M  V30 5652 O 721.952 -1.39011 8.63583 0
M  V30 5653 C 720.545 -0.273849 6.91158 0
M  V30 5654 O 721.344 -1.06348 6.02892 0
M  V30 5655 C 719.208 -0.897649 7.22545 0
M  V30 5656 H 719.24 -1.9841 7.04286 0
M  V30 5657 H 720.423 0.739928 6.497 0
M  V30 5658 H 721.907 0.60668 8.36503 0
M  V30 5659 H 720.213 -0.352479 10.1829 0
M  V30 5660 H 720.023 2.00611 10.0304 0
M  V30 5661 H 718.393 1.41843 9.55327 0
M  V30 5662 H 721.032 -1.95734 6.03555 0
M  V30 5663 P 722.89 -1.25109 8.70152 0
M  V30 5664 O 724.312 -1.35274 9.21221 0
M  V30 5665 O 722.53 -0.0769065 7.84762 0
M  V30 5666 O 722.567 -2.55232 7.81161 0
M  V30 5667 C 722.407 -3.79939 8.58154 0
M  V30 5668 C 722.947 -4.94023 7.72785 0
M  V30 5669 O 721.891 -5.18726 6.91205 0
M  V30 5670 C 724.165 -4.69597 6.85231 0
M  V30 5671 O 724.903 -5.83832 6.51337 0
M  V30 5672 C 723.496 -3.96706 5.66633 0
M  V30 5673 O 724.295 -4.15414 4.49689 0
M  V30 5674 C 722.159 -4.66153 5.59313 0
M  V30 5675 H 722.191 -5.47679 4.85214 0
M  V30 5676 H 723.374 -2.89008 5.86566 0
M  V30 5677 H 724.858 -4.0121 7.36511 0
M  V30 5678 H 723.164 -5.80182 8.37584 0
M  V30 5679 H 722.974 -3.73517 9.52265 0
M  V30 5680 H 721.344 -3.97163 8.80359 0
M  V30 5681 H 723.983 -4.90969 4.01921 0
M  V30 5682 P 725.84 -5.75688 6.64379 0
M  V30 5683 O 727.262 -6.11849 7.01846 0
M  V30 5684 O 725.48 -4.30744 6.56026 0
M  V30 5685 O 725.517 -6.37042 5.19165 0
M  V30 5686 C 725.357 -7.83578 5.16515 0
M  V30 5687 C 725.897 -8.33398 3.83019 0
M  V30 5688 O 724.841 -8.10074 3.01034 0
M  V30 5689 C 727.115 -7.65514 3.2257 0
M  V30 5690 O 727.853 -8.4329 2.32297 0
M  V30 5691 C 726.446 -6.40075 2.62207 0
M  V30 5692 O 727.245 -5.92589 1.53712 0
M  V30 5693 C 725.109 -6.9454 2.18503 0
M  V30 5694 H 725.141 -7.23063 1.12091 0
M  V30 5695 H 726.324 -5.6025 3.37201 0
M  V30 5696 H 727.808 -7.35707 4.02681 0
M  V30 5697 H 726.114 -9.40912 3.9095 0
M  V30 5698 H 725.924 -8.29056 5.99158 0
M  V30 5699 H 724.294 -8.10073 5.25882 0
M  V30 5700 H 726.933 -6.30324 0.726794 0
M  V30 5701 P 728.791 -8.4349 2.47671 0
M  V30 5702 O 730.212 -8.94263 2.59668 0
M  V30 5703 O 728.431 -7.1704 3.19006 0
M  V30 5704 O 728.468 -8.16596 0.923387 0
M  V30 5705 C 728.307 -9.38537 0.108869 0
M  V30 5706 C 728.848 -9.08175 -1.28353 0
M  V30 5707 O 727.793 -8.44131 -1.84692 0
M  V30 5708 C 730.066 -8.18386 -1.42505 0
M  V30 5709 O 730.804 -8.3501 -2.60497 0
M  V30 5710 C 729.398 -6.80225 -1.25468 0
M  V30 5711 O 730.196 -5.81716 -1.90454 0
M  V30 5712 C 728.06 -7.02416 -1.9168 0
M  V30 5713 N 727.017 -6.31033 -1.20314 0
M  V30 5714 C 727.186 -5.98817 0.0994088 0
M  V30 5715 N 726.159 -5.35403 0.621694 0
M  V30 5716 C 725.274 -5.25212 -0.43376 0
M  V30 5717 C 724.007 -4.64602 -0.519722 0
M  V30 5718 N 723.442 -4.7568 -1.76013 0
M  V30 5719 C 724.044 -5.3653 -2.83017 0
M  V30 5720 N 725.221 -5.93676 -2.79782 0
M  V30 5721 C 725.796 -5.84061 -1.56249 0
M  V30 5722 H 729.275 -6.53498 -0.198729 0
M  V30 5723 H 730.758 -8.36622 -0.589963 0
M  V30 5724 H 729.064 -10.0273 -1.8081 0
M  V30 5725 H 728.874 -10.2138 0.558219 0
M  V30 5726 H 727.244 -9.6579 0.0444202 0
M  V30 5727 H 728.086 -6.23209 0.660562 0
M  V30 5728 H 729.884 -5.69466 -2.79593 0
M  V30 5729 P 731.741 -8.4349 -2.47671 0
M  V30 5730 O 733.163 -8.92593 -2.65 0
M  V30 5731 O 731.381 -7.7568 -1.19296 0
M  V30 5732 O 731.418 -7.36886 -3.63805 0
M  V30 5733 C 731.258 -7.95349 -4.982 0
M  V30 5734 C 731.798 -6.94612 -5.98974 0
M  V30 5735 O 730.742 -6.10347 -6.11815 0
M  V30 5736 C 733.016 -6.11426 -5.62335 0
M  V30 5737 O 733.754 -5.6162 -6.70584 0
M  V30 5738 C 732.347 -5.04409 -4.73308 0
M  V30 5739 O 733.146 -3.85992 -4.75183 0
M  V30 5740 C 731.01 -4.8728 -5.41006 0
M  V30 5741 H 731.042 -4.02333 -6.11157 0
M  V30 5742 H 732.225 -5.39466 -3.69543 0
M  V30 5743 H 733.709 -6.71916 -5.01943 0
M  V30 5744 H 732.015 -7.4649 -6.93477 0
M  V30 5745 H 731.825 -8.89416 -5.05237 0
M  V30 5746 H 730.195 -8.14876 -5.18409 0
M  V30 5747 H 732.834 -3.27957 -5.4317 0
M  V30 5748 P 734.692 -5.75688 -6.64379 0
M  V30 5749 O 736.114 -6.07627 -7.05504 0
M  V30 5750 O 734.332 -5.88047 -5.19722 0
M  V30 5751 O 734.369 -4.2322 -7.04443 0
M  V30 5752 C 734.209 -3.99743 -8.4911 0
M  V30 5753 C 734.749 -2.60516 -8.79425 0
M  V30 5754 O 733.693 -1.82684 -8.4467 0
M  V30 5755 C 735.967 -2.10343 -8.03628 0
M  V30 5756 O 736.705 -1.09919 -8.67766 0
M  V30 5757 C 735.298 -1.68446 -6.70876 0
M  V30 5758 O 736.097 -0.678137 -6.08433 0
M  V30 5759 C 733.961 -1.17436 -7.18567 0
M  V30 5760 H 733.993 -0.0804732 -7.31656 0
M  V30 5761 H 735.176 -2.54037 -6.02537 0
M  V30 5762 H 736.66 -2.93881 -7.85526 0
M  V30 5763 H 734.966 -2.53065 -9.86973 0
M  V30 5764 H 734.776 -4.75072 -9.05887 0
M  V30 5765 H 733.146 -4.05244 -8.76668 0
M  V30 5766 H 735.785 0.177647 -6.34251 0
M  V30 5767 P 737.643 -1.25109 -8.70152 0
M  V30 5768 O 739.065 -1.29744 -9.22016 0
M  V30 5769 O 737.283 -2.13714 -7.55141 0
M  V30 5770 O 737.32 0.248149 -8.21425 0
M  V30 5771 C 737.16 1.22779 -9.30434 0
M  V30 5772 C 737.7 2.56293 -8.80664 0
M  V30 5773 O 736.644 3.02979 -8.09349 0
M  V30 5774 C 738.918 2.57523 -7.89775 0
M  V30 5775 O 739.656 3.7668 -7.89438 0
M  V30 5776 C 738.249 2.20997 -6.55446 0
M  V30 5777 O 739.048 2.71895 -5.48509 0
M  V30 5778 C 736.912 2.89693 -6.67988 0
M  V30 5779 H 736.944 3.88793 -6.19859 0
M  V30 5780 H 738.127 1.12046 -6.44229 0
M  V30 5781 H 739.611 1.7746 -8.19711 0
M  V30 5782 H 737.917 3.20706 -9.67112 0
M  V30 5783 H 737.726 0.901032 -10.1892 0
M  V30 5784 H 736.096 1.33049 -9.56592 0
M  V30 5785 H 738.736 3.57847 -5.23962 0
M  V30 5786 P 740.593 3.65191 -7.99657 0
M  V30 5787 O 742.015 3.89332 -8.45794 0
M  V30 5788 O 740.233 2.28472 -7.50807 0
M  V30 5789 O 740.27 4.64972 -6.77611 0
M  V30 5790 C 740.11 6.06319 -7.16352 0
M  V30 5791 C 740.65 6.91731 -6.02299 0
M  V30 5792 O 739.594 6.92449 -5.17064 0
M  V30 5793 C 741.868 6.43627 -5.25174 0
M  V30 5794 O 742.606 7.43686 -4.60469 0
M  V30 5795 C 741.199 5.40275 -4.31916 0
M  V30 5796 O 741.998 5.25279 -3.14438 0
M  V30 5797 C 739.862 6.04847 -4.05327 0
M  V30 5798 H 739.894 6.62195 -3.11261 0
M  V30 5799 H 741.077 4.42556 -4.81383 0
M  V30 5800 H 742.561 5.92458 -5.93643 0
M  V30 5801 H 740.867 7.92655 -6.402 0
M  V30 5802 H 740.677 6.26671 -8.0846 0
M  V30 5803 H 739.047 6.29101 -7.32804 0
M  V30 5804 H 741.686 5.84315 -2.47318 0
M  V30 5805 P 743.544 7.39546 -4.75277 0
M  V30 5806 O 744.966 7.84966 -5.01146 0
M  V30 5807 O 743.184 5.9812 -5.08098 0
M  V30 5808 O 743.221 7.57503 -3.1866 0
M  V30 5809 C 743.061 8.97357 -2.74833 0
M  V30 5810 C 743.601 9.0745 -1.32694 0
M  V30 5811 O 742.546 8.62072 -0.606159 0
M  V30 5812 C 744.819 8.25383 -0.938334 0
M  V30 5813 O 745.557 8.74577 0.146954 0
M  V30 5814 C 744.151 6.8802 -0.712559 0
M  V30 5815 O 744.949 6.11791 0.194623 0
M  V30 5816 C 742.813 7.27966 -0.139777 0
M  V30 5817 N 741.77 6.39368 -0.623421 0
M  V30 5818 C 741.832 5.90299 -1.85969 0
M  V30 5819 N 740.787 5.10919 -2.1133 0
M  V30 5820 C 740.053 5.14646 -1.0015 0
M  V30 5821 C 738.747 4.60057 -0.729219 0
M  V30 5822 O 738.014 3.93476 -1.47746 0
M  V30 5823 N 738.317 4.88302 0.523505 0
M  V30 5824 C 739.066 5.63646 1.46207 0
M  V30 5825 N 738.469 5.78186 2.69239 0
M  V30 5826 N 740.219 6.19285 1.21544 0
M  V30 5827 C 740.676 5.93392 -0.0308487 0
M  V30 5828 H 742.845 7.25354 0.961601 0
M  V30 5829 H 744.028 6.3246 -1.65676 0
M  V30 5830 H 745.513 8.19533 -1.78278 0
M  V30 5831 H 743.818 10.1294 -1.10029 0
M  V30 5832 H 743.628 9.64276 -3.41316 0
M  V30 5833 H 741.997 9.25417 -2.76357 0
M  V30 5834 H 737.421 4.53993 0.806451 0
M  V30 5835 H 742.628 6.11865 -2.57394 0
M  V30 5836 H 737.558 5.34046 2.87467 0
M  V30 5837 H 738.934 6.33391 3.42578 0
M  V30 5838 H 744.638 6.25169 1.0783 0
M  V30 5839 P 746.494 8.791 5.38483e-12 0
M  V30 5840 O 747.916 9.31096 0.027933 0
M  V30 5841 O 746.134 7.77869 -1.04071 0
M  V30 5842 O 746.171 8.09533 1.41463 0
M  V30 5843 C 746.011 9.0349 2.53943 0
M  V30 5844 C 746.551 8.35226 3.79016 0
M  V30 5845 O 745.495 7.57992 4.15078 0
M  V30 5846 C 747.769 7.45087 3.67298 0
M  V30 5847 O 748.507 7.27796 4.85194 0
M  V30 5848 C 747.1 6.17323 3.12027 0
M  V30 5849 O 747.899 5.04231 3.47188 0
M  V30 5850 C 745.763 6.19961 3.81809 0
M  V30 5851 H 745.795 5.58218 4.73051 0
M  V30 5852 H 746.978 6.21726 2.02589 0
M  V30 5853 H 748.462 7.86112 2.9231 0
M  V30 5854 H 746.768 9.11627 4.55076 0
M  V30 5855 H 746.578 9.9573 2.34194 0
M  V30 5856 H 744.948 9.2792 2.67832 0
M  V30 5857 H 747.587 4.67702 4.28772 0
M  V30 5858 P 749.445 7.39546 4.75277 0
M  V30 5859 O 750.867 7.81777 5.05738 0
M  V30 5860 O 749.085 7.1065 3.32998 0
M  V30 5861 O 749.122 6.04542 5.56673 0
M  V30 5862 C 748.962 6.22772 7.02095 0
M  V30 5863 C 749.502 4.97725 7.70406 0
M  V30 5864 O 748.446 4.13256 7.58987 0
M  V30 5865 C 750.72 4.28231 7.11815 0
M  V30 5866 O 751.458 3.49945 8.01648 0
M  V30 5867 C 750.051 3.5063 5.96244 0
M  V30 5868 O 750.85 2.36482 5.64681 0
M  V30 5869 C 748.714 3.15122 6.56374 0
M  V30 5870 H 748.746 2.13853 6.99751 0
M  V30 5871 H 749.929 4.13501 5.06559 0
M  V30 5872 H 751.413 5.03285 6.70911 0
M  V30 5873 H 749.719 5.20877 8.75697 0
M  V30 5874 H 749.529 7.11046 7.35349 0
M  V30 5875 H 747.899 6.35815 7.26986 0
M  V30 5876 H 750.538 1.61644 6.13565 0
M  V30 5877 P 752.395 3.65191 7.99657 0
M  V30 5878 O 753.816 3.84292 8.48206 0
M  V30 5879 O 752.035 4.17805 6.64342 0
M  V30 5880 O 752.072 2.07613 7.95143 0
M  V30 5881 C 751.911 1.44344 9.27435 0
M  V30 5882 C 752.452 0.0220036 9.17197 0
M  V30 5883 O 751.397 -0.626794 8.61824 0
M  V30 5884 C 753.67 -0.24586 8.30336 0
M  V30 5885 O 754.408 -1.39011 8.63583 0
M  V30 5886 C 753.002 -0.273849 6.91158 0
M  V30 5887 O 753.8 -1.05728 6.029 0
M  V30 5888 C 751.664 -0.897649 7.22545 0
M  V30 5889 N 750.621 -0.292839 6.41732 0
M  V30 5890 C 750.79 0.950603 5.91308 0
M  V30 5891 N 749.763 1.37732 5.21105 0
M  V30 5892 C 748.878 0.318109 5.26039 0
M  V30 5893 C 747.611 0.146766 4.6727 0
M  V30 5894 N 747.046 -1.06525 4.95887 0
M  V30 5895 C 747.648 -2.0378 5.71347 0
M  V30 5896 N 748.825 -1.92445 6.27451 0
M  V30 5897 C 749.4 -0.715382 6.00353 0
M  V30 5898 H 752.879 0.733318 6.49674 0
M  V30 5899 H 754.362 0.60668 8.36503 0
M  V30 5900 H 752.668 -0.362662 10.1825 0
M  V30 5901 H 752.478 2.00611 10.0304 0
M  V30 5902 H 750.848 1.41843 9.55327 0
M  V30 5903 H 751.69 1.54076 6.07465 0
M  V30 5904 H 753.488 -1.95704 6.0346 0
M  V30 5905 P 755.346 -1.25109 8.70152 0
M  V30 5906 O 756.768 -1.35274 9.21221 0
M  V30 5907 O 754.986 -0.0769065 7.84762 0
M  V30 5908 O 755.023 -2.55232 7.81161 0
M  V30 5909 C 754.863 -3.79939 8.58154 0
M  V30 5910 C 755.403 -4.94023 7.72785 0
M  V30 5911 O 754.347 -5.18726 6.91205 0
M  V30 5912 C 756.621 -4.69597 6.85231 0
M  V30 5913 O 757.359 -5.83832 6.51337 0
M  V30 5914 C 755.952 -3.96706 5.66633 0
M  V30 5915 O 756.751 -4.15414 4.49689 0
M  V30 5916 C 754.615 -4.66153 5.59313 0
M  V30 5917 H 754.647 -5.47679 4.85214 0
M  V30 5918 H 755.83 -2.89008 5.86566 0
M  V30 5919 H 757.314 -4.0121 7.36511 0
M  V30 5920 H 755.62 -5.80182 8.37584 0
M  V30 5921 H 755.43 -3.73517 9.52265 0
M  V30 5922 H 753.8 -3.97163 8.80359 0
M  V30 5923 H 756.439 -4.90969 4.01921 0
M  V30 5924 P 758.296 -5.75688 6.64379 0
M  V30 5925 O 759.718 -6.11849 7.01846 0
M  V30 5926 O 757.936 -4.30744 6.56026 0
M  V30 5927 O 757.973 -6.37042 5.19165 0
M  V30 5928 C 757.813 -7.83578 5.16515 0
M  V30 5929 C 758.353 -8.33398 3.83019 0
M  V30 5930 O 757.297 -8.10074 3.01034 0
M  V30 5931 C 759.571 -7.65514 3.2257 0
M  V30 5932 O 760.309 -8.4329 2.32297 0
M  V30 5933 C 758.902 -6.40075 2.62207 0
M  V30 5934 O 759.701 -5.92589 1.53712 0
M  V30 5935 C 757.565 -6.9454 2.18503 0
M  V30 5936 H 757.597 -7.23063 1.12091 0
M  V30 5937 H 758.78 -5.6025 3.37201 0
M  V30 5938 H 760.264 -7.35707 4.02681 0
M  V30 5939 H 758.57 -9.40912 3.9095 0
M  V30 5940 H 758.38 -8.29056 5.99158 0
M  V30 5941 H 756.75 -8.10073 5.25882 0
M  V30 5942 H 759.389 -6.30324 0.726794 0
M  V30 5943 P 761.247 -8.4349 2.47671 0
M  V30 5944 O 762.668 -8.94263 2.59668 0
M  V30 5945 O 760.887 -7.1704 3.19006 0
M  V30 5946 O 760.924 -8.16596 0.923387 0
M  V30 5947 C 760.763 -9.38537 0.108869 0
M  V30 5948 C 761.304 -9.08175 -1.28353 0
M  V30 5949 O 760.249 -8.44131 -1.84692 0
M  V30 5950 C 762.522 -8.18386 -1.42505 0
M  V30 5951 O 763.26 -8.3501 -2.60497 0
M  V30 5952 C 761.854 -6.80225 -1.25468 0
M  V30 5953 O 762.652 -5.81716 -1.90454 0
M  V30 5954 C 760.516 -7.02416 -1.9168 0
M  V30 5955 N 759.473 -6.31033 -1.20314 0
M  V30 5956 C 759.642 -5.98817 0.0994088 0
M  V30 5957 N 758.615 -5.35403 0.621694 0
M  V30 5958 C 757.73 -5.25212 -0.43376 0
M  V30 5959 C 756.463 -4.64602 -0.519722 0
M  V30 5960 N 755.864 -4.01457 0.519136 0
M  V30 5961 N 755.898 -4.7568 -1.76013 0
M  V30 5962 C 756.5 -5.3653 -2.83017 0
M  V30 5963 N 757.677 -5.93676 -2.79782 0
M  V30 5964 C 758.252 -5.84061 -1.56249 0
M  V30 5965 H 760.548 -6.68789 -2.9658 0
M  V30 5966 H 761.731 -6.53498 -0.198729 0
M  V30 5967 H 763.214 -8.36622 -0.589963 0
M  V30 5968 H 761.52 -10.0273 -1.8081 0
M  V30 5969 H 761.33 -10.2138 0.558219 0
M  V30 5970 H 759.7 -9.6579 0.0444202 0
M  V30 5971 H 755.964 -5.37113 -3.77321 0
M  V30 5972 H 760.542 -6.23209 0.660562 0
M  V30 5973 H 754.934 -3.58834 0.394862 0
M  V30 5974 H 756.338 -3.96059 1.43048 0
M  V30 5975 H 762.34 -5.69466 -2.79593 0
M  V30 5976 P 764.198 -8.4349 -2.47671 0
M  V30 5977 O 765.62 -8.92593 -2.65 0
M  V30 5978 O 763.838 -7.7568 -1.19296 0
M  V30 5979 O 763.875 -7.36886 -3.63805 0
M  V30 5980 C 763.715 -7.95349 -4.982 0
M  V30 5981 C 764.255 -6.94612 -5.98974 0
M  V30 5982 O 763.199 -6.10347 -6.11815 0
M  V30 5983 C 765.473 -6.11426 -5.62335 0
M  V30 5984 O 766.211 -5.6162 -6.70584 0
M  V30 5985 C 764.804 -5.04409 -4.73308 0
M  V30 5986 O 765.603 -3.85992 -4.75183 0
M  V30 5987 C 763.467 -4.8728 -5.41006 0
M  V30 5988 H 763.499 -4.02333 -6.11157 0
M  V30 5989 H 764.682 -5.39466 -3.69543 0
M  V30 5990 H 766.166 -6.71916 -5.01943 0
M  V30 5991 H 764.472 -7.4649 -6.93477 0
M  V30 5992 H 764.282 -8.89416 -5.05237 0
M  V30 5993 H 762.652 -8.14876 -5.18409 0
M  V30 5994 H 765.291 -3.27957 -5.4317 0
M  V30 5995 P 767.148 -5.75688 -6.64379 0
M  V30 5996 O 768.57 -6.07627 -7.05504 0
M  V30 5997 O 766.788 -5.88047 -5.19722 0
M  V30 5998 O 766.825 -4.2322 -7.04443 0
M  V30 5999 C 766.665 -3.99743 -8.4911 0
M  V30 6000 C 767.205 -2.60516 -8.79425 0
M  V30 6001 O 766.149 -1.82684 -8.4467 0
M  V30 6002 C 768.423 -2.10343 -8.03628 0
M  V30 6003 O 769.161 -1.09919 -8.67766 0
M  V30 6004 C 767.754 -1.68446 -6.70876 0
M  V30 6005 O 768.553 -0.678137 -6.08433 0
M  V30 6006 C 766.417 -1.17436 -7.18567 0
M  V30 6007 H 766.449 -0.0804732 -7.31656 0
M  V30 6008 H 767.632 -2.54037 -6.02537 0
M  V30 6009 H 769.116 -2.93881 -7.85526 0
M  V30 6010 H 767.422 -2.53065 -9.86973 0
M  V30 6011 H 767.232 -4.75072 -9.05887 0
M  V30 6012 H 765.602 -4.05244 -8.76668 0
M  V30 6013 H 768.241 0.177647 -6.34251 0
M  V30 6014 P 770.099 -1.25109 -8.70152 0
M  V30 6015 O 771.521 -1.29744 -9.22016 0
M  V30 6016 O 769.739 -2.13714 -7.55141 0
M  V30 6017 O 769.776 0.248149 -8.21425 0
M  V30 6018 C 769.616 1.22779 -9.30434 0
M  V30 6019 C 770.156 2.56293 -8.80664 0
M  V30 6020 O 769.1 3.02979 -8.09349 0
M  V30 6021 C 771.374 2.57523 -7.89775 0
M  V30 6022 O 772.112 3.7668 -7.89438 0
M  V30 6023 C 770.705 2.20997 -6.55446 0
M  V30 6024 O 771.504 2.71895 -5.48509 0
M  V30 6025 C 769.368 2.89693 -6.67988 0
M  V30 6026 H 769.4 3.88793 -6.19859 0
M  V30 6027 H 770.583 1.12046 -6.44229 0
M  V30 6028 H 772.067 1.7746 -8.19711 0
M  V30 6029 H 770.373 3.20706 -9.67112 0
M  V30 6030 H 770.183 0.901032 -10.1892 0
M  V30 6031 H 768.553 1.33049 -9.56592 0
M  V30 6032 H 771.192 3.57847 -5.23962 0
M  V30 6033 P 773.049 3.65191 -7.99657 0
M  V30 6034 O 774.47 3.89374 -8.45885 0
M  V30 6035 O 772.689 2.28472 -7.50807 0
M  V30 6036 O 772.726 4.64972 -6.77611 0
M  V30 6037 C 772.565 6.06383 -7.16428 0
M  V30 6038 C 773.106 6.91731 -6.02299 0
M  V30 6039 O 772.051 6.92369 -5.17005 0
M  V30 6040 C 774.324 6.43627 -5.25174 0
M  V30 6041 O 775.062 7.43686 -4.60469 0
M  V30 6042 C 773.656 5.40275 -4.31916 0
M  V30 6043 O 774.454 5.24878 -3.14911 0
M  V30 6044 C 772.318 6.04847 -4.05327 0
M  V30 6045 N 771.275 5.04166 -3.98114 0
M  V30 6046 C 771.444 3.84629 -4.59066 0
M  V30 6047 N 770.417 3.0363 -4.45343 0
M  V30 6048 C 769.532 3.76722 -3.68523 0
M  V30 6049 C 768.265 3.43528 -3.17088 0
M  V30 6050 N 767.666 2.23665 -3.37397 0
M  V30 6051 N 767.7 4.44526 -2.44231 0
M  V30 6052 C 768.302 5.65243 -2.20146 0
M  V30 6053 N 769.479 6.00221 -2.65453 0
M  V30 6054 C 770.054 5.00564 -3.39083 0
M  V30 6055 H 772.35 6.62104 -3.11218 0
M  V30 6056 H 773.533 4.42969 -4.80867 0
M  V30 6057 H 775.016 5.92458 -5.93643 0
M  V30 6058 H 773.322 7.93295 -6.39407 0
M  V30 6059 H 773.132 6.26671 -8.0846 0
M  V30 6060 H 771.502 6.29101 -7.32804 0
M  V30 6061 H 767.766 6.36894 -1.5883 0
M  V30 6062 H 772.344 3.58193 -5.14248 0
M  V30 6063 H 766.736 2.05145 -2.97047 0
M  V30 6064 H 768.14 1.51255 -3.92998 0
M  V30 6065 H 774.142 5.84223 -2.47279 0
M  V30 6066 P 776 7.39546 -4.75277 0
M  V30 6067 O 777.421 7.84882 -5.01092 0
M  V30 6068 O 775.64 5.9812 -5.08098 0
M  V30 6069 O 775.677 7.57503 -3.1866 0
M  V30 6070 C 775.516 8.97452 -2.74862 0
M  V30 6071 C 776.057 9.07548 -1.32709 0
M  V30 6072 O 775.002 8.61972 -0.606089 0
M  V30 6073 C 777.275 8.25383 -0.938334 0
M  V30 6074 O 778.013 8.74577 0.146954 0
M  V30 6075 C 776.607 6.8802 -0.712559 0
M  V30 6076 O 777.405 6.1181 0.188505 0
M  V30 6077 C 775.269 7.27966 -0.139777 0
M  V30 6078 N 774.226 6.39368 -0.623421 0
M  V30 6079 C 774.395 5.71761 -1.78245 0
M  V30 6080 N 773.368 4.962 -2.10491 0
M  V30 6081 C 772.483 5.16158 -1.0635 0
M  V30 6082 C 771.216 4.60425 -0.810266 0
M  V30 6083 N 770.617 3.7057 -1.62914 0
M  V30 6084 N 770.651 5.06 0.348685 0
M  V30 6085 C 771.253 5.94532 1.20395 0
M  V30 6086 N 772.43 6.48452 1.01191 0
M  V30 6087 C 773.005 6.04423 -0.146291 0
M  V30 6088 H 775.301 7.25255 0.961469 0
M  V30 6089 H 776.484 6.32625 -1.65044 0
M  V30 6090 H 777.967 8.19355 -1.79097 0
M  V30 6091 H 776.273 10.1305 -1.09016 0
M  V30 6092 H 776.083 9.64276 -3.41316 0
M  V30 6093 H 774.453 9.25417 -2.76357 0
M  V30 6094 H 770.717 6.21659 2.10714 0
M  V30 6095 H 775.295 5.79354 -2.38959 0
M  V30 6096 H 769.687 3.33174 -1.38982 0
M  V30 6097 H 771.091 3.39714 -2.48836 0
M  V30 6098 H 777.093 6.25169 1.0783 0
M  V30 6099 P 778.95 8.791 5.69499e-12 0
M  V30 6100 O 780.372 9.31096 0.027933 0
M  V30 6101 O 778.59 7.77869 -1.04071 0
M  V30 6102 O 778.627 8.09533 1.41463 0
M  V30 6103 C 778.467 9.0349 2.53943 0
M  V30 6104 C 779.007 8.35226 3.79016 0
M  V30 6105 O 777.951 7.57992 4.15078 0
M  V30 6106 C 780.225 7.45087 3.67298 0
M  V30 6107 O 780.963 7.27796 4.85194 0
M  V30 6108 C 779.556 6.17323 3.12027 0
M  V30 6109 O 780.355 5.04231 3.47188 0
M  V30 6110 C 778.219 6.19961 3.81809 0
M  V30 6111 H 778.251 5.58218 4.73051 0
M  V30 6112 H 779.434 6.21726 2.02589 0
M  V30 6113 H 780.918 7.86112 2.9231 0
M  V30 6114 H 779.224 9.11627 4.55076 0
M  V30 6115 H 779.034 9.9573 2.34194 0
M  V30 6116 H 777.404 9.2792 2.67832 0
M  V30 6117 H 780.043 4.67702 4.28772 0
M  V30 6118 P 781.901 7.39546 4.75277 0
M  V30 6119 O 783.323 7.81777 5.05738 0
M  V30 6120 O 781.541 7.1065 3.32998 0
M  V30 6121 O 781.578 6.04542 5.56673 0
M  V30 6122 C 781.418 6.22772 7.02095 0
M  V30 6123 C 781.958 4.97725 7.70406 0
M  V30 6124 O 780.902 4.13256 7.58987 0
M  V30 6125 C 783.176 4.28231 7.11815 0
M  V30 6126 O 783.914 3.49945 8.01648 0
M  V30 6127 C 782.507 3.5063 5.96244 0
M  V30 6128 O 783.306 2.36482 5.64681 0
M  V30 6129 C 781.17 3.15122 6.56374 0
M  V30 6130 H 781.202 2.13853 6.99751 0
M  V30 6131 H 782.385 4.13501 5.06559 0
M  V30 6132 H 783.869 5.03285 6.70911 0
M  V30 6133 H 782.175 5.20877 8.75697 0
M  V30 6134 H 781.985 7.11046 7.35349 0
M  V30 6135 H 780.355 6.35815 7.26986 0
M  V30 6136 H 782.994 1.61644 6.13565 0
M  V30 6137 P 784.852 3.65191 7.99657 0
M  V30 6138 O 786.274 3.8425 8.48115 0
M  V30 6139 O 784.492 4.17805 6.64342 0
M  V30 6140 O 784.529 2.07613 7.95143 0
M  V30 6141 C 784.369 1.44328 9.27336 0
M  V30 6142 C 784.909 0.0220036 9.17197 0
M  V30 6143 O 783.853 -0.626867 8.61923 0
M  V30 6144 C 786.127 -0.24586 8.30336 0
M  V30 6145 O 786.865 -1.39011 8.63583 0
M  V30 6146 C 785.458 -0.273849 6.91158 0
M  V30 6147 O 786.257 -1.06348 6.02892 0
M  V30 6148 C 784.121 -0.897649 7.22545 0
M  V30 6149 H 784.153 -1.9841 7.04286 0
M  V30 6150 H 785.336 0.739928 6.497 0
M  V30 6151 H 786.82 0.60668 8.36503 0
M  V30 6152 H 785.126 -0.352479 10.1829 0
M  V30 6153 H 784.936 2.00611 10.0304 0
M  V30 6154 H 783.306 1.41843 9.55327 0
M  V30 6155 H 785.945 -1.95734 6.03555 0
M  V30 6156 P 787.802 -1.25109 8.70152 0
M  V30 6157 O 789.224 -1.35274 9.21221 0
M  V30 6158 O 787.442 -0.0769065 7.84762 0
M  V30 6159 O 787.479 -2.55232 7.81161 0
M  V30 6160 C 787.319 -3.79939 8.58154 0
M  V30 6161 C 787.859 -4.94023 7.72785 0
M  V30 6162 O 786.803 -5.18726 6.91205 0
M  V30 6163 C 789.077 -4.69597 6.85231 0
M  V30 6164 O 789.815 -5.83832 6.51337 0
M  V30 6165 C 788.408 -3.96706 5.66633 0
M  V30 6166 O 789.207 -4.15414 4.49689 0
M  V30 6167 C 787.071 -4.66153 5.59313 0
M  V30 6168 H 787.103 -5.47679 4.85214 0
M  V30 6169 H 788.286 -2.89008 5.86566 0
M  V30 6170 H 789.77 -4.0121 7.36511 0
M  V30 6171 H 788.076 -5.80182 8.37584 0
M  V30 6172 H 787.886 -3.73517 9.52265 0
M  V30 6173 H 786.256 -3.97163 8.80359 0
M  V30 6174 H 788.895 -4.90969 4.01921 0
M  V30 6175 P 790.753 -5.75688 6.64379 0
M  V30 6176 O 792.175 -6.11849 7.01846 0
M  V30 6177 O 790.393 -4.30744 6.56026 0
M  V30 6178 O 790.43 -6.37042 5.19165 0
M  V30 6179 C 790.27 -7.83578 5.16515 0
M  V30 6180 C 790.81 -8.33398 3.83019 0
M  V30 6181 O 789.754 -8.10074 3.01034 0
M  V30 6182 C 792.028 -7.65514 3.2257 0
M  V30 6183 O 792.766 -8.4329 2.32297 0
M  V30 6184 C 791.359 -6.40075 2.62207 0
M  V30 6185 O 792.158 -5.92589 1.53712 0
M  V30 6186 C 790.022 -6.9454 2.18503 0
M  V30 6187 H 790.054 -7.23063 1.12091 0
M  V30 6188 H 791.237 -5.6025 3.37201 0
M  V30 6189 H 792.721 -7.35707 4.02681 0
M  V30 6190 H 791.027 -9.40912 3.9095 0
M  V30 6191 H 790.837 -8.29056 5.99158 0
M  V30 6192 H 789.207 -8.10073 5.25882 0
M  V30 6193 H 791.846 -6.30324 0.726794 0
M  V30 6194 P 793.703 -8.4349 2.47671 0
M  V30 6195 O 795.125 -8.94167 2.5964 0
M  V30 6196 O 793.343 -7.1704 3.19006 0
M  V30 6197 O 793.38 -8.16596 0.923387 0
M  V30 6198 C 793.22 -9.38437 0.108857 0
M  V30 6199 C 793.76 -9.08175 -1.28353 0
M  V30 6200 O 792.704 -8.44229 -1.84713 0
M  V30 6201 C 794.978 -8.18386 -1.42505 0
M  V30 6202 O 795.716 -8.3501 -2.60497 0
M  V30 6203 C 794.309 -6.80225 -1.25468 0
M  V30 6204 O 795.108 -5.81621 -1.91066 0
M  V30 6205 C 792.972 -7.02416 -1.9168 0
M  V30 6206 H 793.004 -6.6888 -2.96621 0
M  V30 6207 H 794.187 -6.53617 -0.192223 0
M  V30 6208 H 795.671 -8.36622 -0.589963 0
M  V30 6209 H 793.977 -10.0291 -1.79807 0
M  V30 6210 H 793.787 -10.2138 0.558219 0
M  V30 6211 H 792.157 -9.6579 0.0444202 0
M  V30 6212 H 794.796 -5.69556 -2.79637 0
M  V30 6213 P 796.654 -8.4349 -2.47671 0
M  V30 6214 O 798.076 -8.92593 -2.65 0
M  V30 6215 O 796.294 -7.7568 -1.19296 0
M  V30 6216 O 796.331 -7.36886 -3.63805 0
M  V30 6217 C 796.171 -7.95349 -4.982 0
M  V30 6218 C 796.711 -6.94612 -5.98974 0
M  V30 6219 O 795.655 -6.10347 -6.11815 0
M  V30 6220 C 797.929 -6.11426 -5.62335 0
M  V30 6221 O 798.667 -5.6162 -6.70584 0
M  V30 6222 C 797.26 -5.04409 -4.73308 0
M  V30 6223 O 798.059 -3.85992 -4.75183 0
M  V30 6224 C 795.923 -4.8728 -5.41006 0
M  V30 6225 H 795.955 -4.02333 -6.11157 0
M  V30 6226 H 797.138 -5.39466 -3.69543 0
M  V30 6227 H 798.622 -6.71916 -5.01943 0
M  V30 6228 H 796.928 -7.4649 -6.93477 0
M  V30 6229 H 796.738 -8.89416 -5.05237 0
M  V30 6230 H 795.108 -8.14876 -5.18409 0
M  V30 6231 H 797.747 -3.27957 -5.4317 0
M  V30 6232 P 799.604 -5.75688 -6.64379 0
M  V30 6233 O 801.025 -6.07692 -7.0558 0
M  V30 6234 O 799.244 -5.88047 -5.19722 0
M  V30 6235 O 799.281 -4.2322 -7.04443 0
M  V30 6236 C 799.12 -3.99785 -8.49201 0
M  V30 6237 C 799.661 -2.60516 -8.79425 0
M  V30 6238 O 798.606 -1.82663 -8.44573 0
M  V30 6239 C 800.879 -2.10343 -8.03628 0
M  V30 6240 O 801.617 -1.09919 -8.67766 0
M  V30 6241 C 800.211 -1.68446 -6.70876 0
M  V30 6242 O 801.009 -0.684109 -6.08265 0
M  V30 6243 C 798.873 -1.17436 -7.18567 0
M  V30 6244 N 797.83 -1.52699 -6.23988 0
M  V30 6245 C 797.999 -2.578 -5.40574 0
M  V30 6246 N 796.972 -2.78966 -4.61193 0
M  V30 6247 C 796.087 -1.78725 -4.95769 0
M  V30 6248 C 794.82 -1.45727 -4.44207 0
M  V30 6249 N 794.255 -0.374977 -5.05812 0
M  V30 6250 C 794.857 0.345585 -6.05615 0
M  V30 6251 N 796.034 0.0787651 -6.56253 0
M  V30 6252 C 796.609 -1.00499 -5.96189 0
M  V30 6253 H 800.088 -2.53396 -6.02698 0
M  V30 6254 H 801.571 -2.93881 -7.85526 0
M  V30 6255 H 799.877 -2.52078 -9.87225 0
M  V30 6256 H 799.687 -4.75072 -9.05887 0
M  V30 6257 H 798.057 -4.05244 -8.76668 0
M  V30 6258 H 798.899 -3.18977 -5.3945 0
M  V30 6259 H 800.697 0.177619 -6.34151 0
M  V30 6260 P 802.555 -1.25109 -8.70152 0
M  V30 6261 O 803.956 -1.3516 -9.26897 0
M  V30 6262 O 802.177 -2.18141 -7.59181 0
M  V30 6263 O 802.232 0.248118 -8.21325 0
M  V30 6264 C 802.072 1.22779 -9.30434 0
M  V30 6265 C 802.612 2.56265 -8.80568 0
M  V30 6266 O 801.556 3.02944 -8.09255 0
M  V30 6267 C 803.829 2.57523 -7.89775 0
M  V30 6268 O 804.568 3.7668 -7.89438 0
M  V30 6269 C 803.162 2.20997 -6.55446 0
M  V30 6270 O 803.96 2.71851 -5.48419 0
M  V30 6271 C 801.824 2.89693 -6.67988 0
M  V30 6272 N 800.781 2.08895 -6.07487 0
M  V30 6273 C 799.746 2.72974 -5.43836 0
M  V30 6274 O 799.785 3.97779 -5.34036 0
M  V30 6275 N 798.734 2.0005 -4.91983 0
M  V30 6276 C 798.782 0.66501 -5.00098 0
M  V30 6277 C 799.878 -0.0100979 -5.61099 0
M  V30 6278 C 800.844 0.74189 -6.14236 0
M  V30 6279 H 801.856 3.8874 -6.19774 0
M  V30 6280 H 803.039 1.12673 -6.44018 0
M  V30 6281 H 804.523 1.783 -8.19631 0
M  V30 6282 H 802.829 3.21673 -9.66791 0
M  V30 6283 H 802.638 0.901032 -10.1892 0
M  V30 6284 H 801.008 1.33036 -9.56493 0
M  V30 6285 H 799.926 -1.09591 -5.64358 0
M  V30 6286 H 801.69 0.260263 -6.6359 0
M  V30 6287 H 803.744 3.62759 -5.33442 0
M  V30 6288 P 805.506 3.65191 -7.99657 0
M  V30 6289 O 806.928 3.89332 -8.45794 0
M  V30 6290 O 805.146 2.28472 -7.50807 0
M  V30 6291 O 805.183 4.64972 -6.77611 0
M  V30 6292 C 805.023 6.06319 -7.16352 0
M  V30 6293 C 805.563 6.91731 -6.02299 0
M  V30 6294 O 804.507 6.92449 -5.17064 0
M  V30 6295 C 806.781 6.43627 -5.25174 0
M  V30 6296 O 807.519 7.43686 -4.60469 0
M  V30 6297 C 806.112 5.40275 -4.31916 0
M  V30 6298 O 806.911 5.25279 -3.14438 0
M  V30 6299 C 804.775 6.04847 -4.05327 0
M  V30 6300 H 804.807 6.62195 -3.11261 0
M  V30 6301 H 805.99 4.42556 -4.81383 0
M  V30 6302 H 807.474 5.92458 -5.93643 0
M  V30 6303 H 805.78 7.92655 -6.402 0
M  V30 6304 H 805.59 6.26671 -8.0846 0
M  V30 6305 H 803.96 6.29101 -7.32804 0
M  V30 6306 H 806.599 5.84315 -2.47318 0
M  V30 6307 P 808.456 7.39546 -4.75277 0
M  V30 6308 O 809.877 7.84882 -5.01092 0
M  V30 6309 O 808.096 5.9812 -5.08098 0
M  V30 6310 O 808.133 7.57503 -3.1866 0
M  V30 6311 C 807.972 8.97452 -2.74862 0
M  V30 6312 C 808.513 9.07548 -1.32709 0
M  V30 6313 O 807.458 8.61972 -0.606089 0
M  V30 6314 C 809.731 8.25383 -0.938334 0
M  V30 6315 O 810.469 8.74577 0.146954 0
M  V30 6316 C 809.063 6.8802 -0.712559 0
M  V30 6317 O 809.861 6.1181 0.188505 0
M  V30 6318 C 807.725 7.27966 -0.139777 0
M  V30 6319 N 806.682 6.39368 -0.623421 0
M  V30 6320 C 806.851 5.71761 -1.78245 0
M  V30 6321 N 805.824 4.962 -2.10491 0
M  V30 6322 C 804.939 5.16158 -1.0635 0
M  V30 6323 C 803.672 4.60425 -0.810266 0
M  V30 6324 N 803.073 3.7057 -1.62914 0
M  V30 6325 N 803.107 5.06 0.348685 0
M  V30 6326 C 803.709 5.94532 1.20395 0
M  V30 6327 N 804.886 6.48452 1.01191 0
M  V30 6328 C 805.461 6.04423 -0.146291 0
M  V30 6329 H 807.757 7.25255 0.961469 0
M  V30 6330 H 808.94 6.32625 -1.65044 0
M  V30 6331 H 810.423 8.19355 -1.79097 0
M  V30 6332 H 808.729 10.1305 -1.09016 0
M  V30 6333 H 808.539 9.64276 -3.41316 0
M  V30 6334 H 806.909 9.25417 -2.76357 0
M  V30 6335 H 803.173 6.21659 2.10714 0
M  V30 6336 H 807.751 5.79354 -2.38959 0
M  V30 6337 H 802.143 3.33174 -1.38982 0
M  V30 6338 H 803.547 3.39714 -2.48836 0
M  V30 6339 H 809.549 6.25169 1.0783 0
M  V30 6340 P 811.407 8.791 6.00516e-12 0
M  V30 6341 O 812.829 9.31096 0.027933 0
M  V30 6342 O 811.047 7.77869 -1.04071 0
M  V30 6343 O 811.084 8.09533 1.41463 0
M  V30 6344 C 810.924 9.0349 2.53943 0
M  V30 6345 C 811.464 8.35226 3.79016 0
M  V30 6346 O 810.408 7.57992 4.15078 0
M  V30 6347 C 812.682 7.45087 3.67298 0
M  V30 6348 O 813.42 7.27796 4.85194 0
M  V30 6349 C 812.013 6.17323 3.12027 0
M  V30 6350 O 812.812 5.04231 3.47188 0
M  V30 6351 C 810.676 6.19961 3.81809 0
M  V30 6352 H 810.708 5.58218 4.73051 0
M  V30 6353 H 811.891 6.21726 2.02589 0
M  V30 6354 H 813.375 7.86112 2.9231 0
M  V30 6355 H 811.681 9.11627 4.55076 0
M  V30 6356 H 811.491 9.9573 2.34194 0
M  V30 6357 H 809.861 9.2792 2.67832 0
M  V30 6358 H 812.5 4.67702 4.28772 0
M  V30 6359 P 814.357 7.39546 4.75277 0
M  V30 6360 O 815.779 7.81777 5.05738 0
M  V30 6361 O 813.997 7.1065 3.32998 0
M  V30 6362 O 814.034 6.04542 5.56673 0
M  V30 6363 C 813.874 6.22772 7.02095 0
M  V30 6364 C 814.414 4.97725 7.70406 0
M  V30 6365 O 813.358 4.13256 7.58987 0
M  V30 6366 C 815.632 4.28231 7.11815 0
M  V30 6367 O 816.37 3.49945 8.01648 0
M  V30 6368 C 814.963 3.5063 5.96244 0
M  V30 6369 O 815.762 2.36482 5.64681 0
M  V30 6370 C 813.626 3.15122 6.56374 0
M  V30 6371 H 813.658 2.13853 6.99751 0
M  V30 6372 H 814.841 4.13501 5.06559 0
M  V30 6373 H 816.325 5.03285 6.70911 0
M  V30 6374 H 814.631 5.20877 8.75697 0
M  V30 6375 H 814.441 7.11046 7.35349 0
M  V30 6376 H 812.811 6.35815 7.26986 0
M  V30 6377 H 815.45 1.61644 6.13565 0
M  V30 6378 P 817.308 3.65191 7.99657 0
M  V30 6379 O 818.729 3.84292 8.48206 0
M  V30 6380 O 816.948 4.17805 6.64342 0
M  V30 6381 O 816.985 2.07613 7.95143 0
M  V30 6382 C 816.824 1.44344 9.27435 0
M  V30 6383 C 817.365 0.0220036 9.17197 0
M  V30 6384 O 816.31 -0.626794 8.61824 0
M  V30 6385 C 818.583 -0.24586 8.30336 0
M  V30 6386 O 819.321 -1.39011 8.63583 0
M  V30 6387 C 817.915 -0.273849 6.91158 0
M  V30 6388 O 818.713 -1.05728 6.029 0
M  V30 6389 C 816.577 -0.897649 7.22545 0
M  V30 6390 N 815.534 -0.292839 6.41732 0
M  V30 6391 C 815.703 0.950603 5.91308 0
M  V30 6392 N 814.676 1.37732 5.21105 0
M  V30 6393 C 813.791 0.318109 5.26039 0
M  V30 6394 C 812.524 0.146766 4.6727 0
M  V30 6395 N 811.925 1.08519 3.89983 0
M  V30 6396 N 811.959 -1.06525 4.95887 0
M  V30 6397 C 812.561 -2.0378 5.71347 0
M  V30 6398 N 813.738 -1.92445 6.27451 0
M  V30 6399 C 814.313 -0.715382 6.00353 0
M  V30 6400 H 816.609 -1.98383 7.04189 0
M  V30 6401 H 817.792 0.733318 6.49674 0
M  V30 6402 H 819.275 0.60668 8.36503 0
M  V30 6403 H 817.581 -0.362662 10.1825 0
M  V30 6404 H 817.391 2.00611 10.0304 0
M  V30 6405 H 815.761 1.41843 9.55327 0
M  V30 6406 H 812.025 -2.97041 5.85344 0
M  V30 6407 H 816.603 1.54076 6.07465 0
M  V30 6408 H 810.995 0.901517 3.49562 0
M  V30 6409 H 812.399 1.97957 3.71669 0
M  V30 6410 H 818.401 -1.95704 6.0346 0
M  V30 6411 P 820.258 -1.25109 8.70152 0
M  V30 6412 O 821.679 -1.35288 9.2132 0
M  V30 6413 O 819.898 -0.0769065 7.84762 0
M  V30 6414 O 819.935 -2.55232 7.81161 0
M  V30 6415 C 819.774 -3.79979 8.58246 0
M  V30 6416 C 820.315 -4.94023 7.72785 0
M  V30 6417 O 819.26 -5.18666 6.91125 0
M  V30 6418 C 821.533 -4.69597 6.85231 0
M  V30 6419 O 822.271 -5.83832 6.51337 0
M  V30 6420 C 820.865 -3.96706 5.66633 0
M  V30 6421 O 821.663 -4.14896 4.5003 0
M  V30 6422 C 819.527 -4.66153 5.59313 0
M  V30 6423 N 818.484 -3.71582 5.24027 0
M  V30 6424 C 818.653 -2.39715 5.48833 0
M  V30 6425 N 817.626 -1.65863 5.12845 0
M  V30 6426 C 816.741 -2.57637 4.5973 0
M  V30 6427 C 815.474 -2.40278 4.01027 0
M  V30 6428 N 814.875 -1.19549 3.86744 0
M  V30 6429 N 814.909 -3.57711 3.59575 0
M  V30 6430 C 815.511 -4.80324 3.70476 0
M  V30 6431 N 816.688 -5.01121 4.23801 0
M  V30 6432 C 817.263 -3.84757 4.66372 0
M  V30 6433 H 819.559 -5.47604 4.85148 0
M  V30 6434 H 820.742 -2.8955 5.86187 0
M  V30 6435 H 822.225 -4.0121 7.36511 0
M  V30 6436 H 820.531 -5.81019 8.37003 0
M  V30 6437 H 820.341 -3.73517 9.52265 0
M  V30 6438 H 818.711 -3.97163 8.80359 0
M  V30 6439 H 814.975 -5.66348 3.3183 0
M  V30 6440 H 819.553 -1.98804 5.94332 0
M  V30 6441 H 813.945 -1.13147 3.4281 0
M  V30 6442 H 815.349 -0.344074 4.19692 0
M  V30 6443 H 821.351 -4.90891 4.01857 0
M  V30 6444 P 823.209 -5.75688 6.64379 0
M  V30 6445 O 824.631 -6.11849 7.01846 0
M  V30 6446 O 822.849 -4.30744 6.56026 0
M  V30 6447 O 822.886 -6.37042 5.19165 0
M  V30 6448 C 822.726 -7.83578 5.16515 0
M  V30 6449 C 823.266 -8.33398 3.83019 0
M  V30 6450 O 822.21 -8.10074 3.01034 0
M  V30 6451 C 824.484 -7.65514 3.2257 0
M  V30 6452 O 825.222 -8.4329 2.32297 0
M  V30 6453 C 823.815 -6.40075 2.62207 0
M  V30 6454 O 824.614 -5.92589 1.53712 0
M  V30 6455 C 822.478 -6.9454 2.18503 0
M  V30 6456 H 822.51 -7.23063 1.12091 0
M  V30 6457 H 823.693 -5.6025 3.37201 0
M  V30 6458 H 825.177 -7.35707 4.02681 0
M  V30 6459 H 823.483 -9.40912 3.9095 0
M  V30 6460 H 823.293 -8.29056 5.99158 0
M  V30 6461 H 821.663 -8.10073 5.25882 0
M  V30 6462 H 824.302 -6.30324 0.726794 0
M  V30 6463 P 826.16 -8.4349 2.47671 0
M  V30 6464 O 827.582 -8.94359 2.59696 0
M  V30 6465 O 825.8 -7.1704 3.19006 0
M  V30 6466 O 825.837 -8.16596 0.923387 0
M  V30 6467 C 825.677 -9.38437 0.108857 0
M  V30 6468 C 826.217 -9.08076 -1.28339 0
M  V30 6469 O 825.162 -8.44229 -1.84713 0
M  V30 6470 C 827.435 -8.18386 -1.42505 0
M  V30 6471 O 828.173 -8.3501 -2.60497 0
M  V30 6472 C 826.767 -6.80225 -1.25468 0
M  V30 6473 O 827.565 -5.81526 -1.91035 0
M  V30 6474 C 825.429 -7.02416 -1.9168 0
M  V30 6475 N 824.386 -6.31033 -1.20314 0
M  V30 6476 C 824.448 -6.18781 0.121293 0
M  V30 6477 N 823.403 -5.49762 0.588272 0
M  V30 6478 C 822.669 -5.22015 -0.488988 0
M  V30 6479 C 821.363 -4.61966 -0.596448 0
M  V30 6480 O 820.63 -4.19162 0.309059 0
M  V30 6481 N 820.933 -4.53773 -1.878 0
M  V30 6482 C 821.682 -4.99623 -2.99082 0
M  V30 6483 N 821.085 -4.78912 -4.21227 0
M  V30 6484 N 822.835 -5.59957 -2.91093 0
M  V30 6485 C 823.292 -5.70225 -1.64218 0
M  V30 6486 H 825.461 -6.6888 -2.96621 0
M  V30 6487 H 826.644 -6.53517 -0.192194 0
M  V30 6488 H 828.129 -8.36563 -0.598329 0
M  V30 6489 H 826.434 -10.0291 -1.79807 0
M  V30 6490 H 826.244 -10.2138 0.558219 0
M  V30 6491 H 824.613 -9.6579 0.0444202 0
M  V30 6492 H 820.037 -4.12883 -2.05283 0
M  V30 6493 H 825.244 -6.59596 0.745856 0
M  V30 6494 H 820.174 -4.31425 -4.2628 0
M  V30 6495 H 821.55 -5.11219 -5.07148 0
M  V30 6496 H 827.254 -5.69466 -2.79593 0
M  V30 6497 P 829.11 -8.4349 -2.47671 0
M  V30 6498 O 830.532 -8.92593 -2.65 0
M  V30 6499 O 828.75 -7.7568 -1.19296 0
M  V30 6500 O 828.787 -7.36886 -3.63805 0
M  V30 6501 C 828.627 -7.95349 -4.982 0
M  V30 6502 C 829.167 -6.94612 -5.98974 0
M  V30 6503 O 828.111 -6.10347 -6.11815 0
M  V30 6504 C 830.385 -6.11426 -5.62335 0
M  V30 6505 O 831.123 -5.6162 -6.70584 0
M  V30 6506 C 829.716 -5.04409 -4.73308 0
M  V30 6507 O 830.515 -3.85992 -4.75183 0
M  V30 6508 C 828.379 -4.8728 -5.41006 0
M  V30 6509 H 828.411 -4.02333 -6.11157 0
M  V30 6510 H 829.594 -5.39466 -3.69543 0
M  V30 6511 H 831.078 -6.71916 -5.01943 0
M  V30 6512 H 829.384 -7.4649 -6.93477 0
M  V30 6513 H 829.194 -8.89416 -5.05237 0
M  V30 6514 H 827.564 -8.14876 -5.18409 0
M  V30 6515 H 830.203 -3.27957 -5.4317 0
M  V30 6516 P 832.061 -5.75688 -6.64379 0
M  V30 6517 O 833.462 -6.14823 -7.06682 0
M  V30 6518 O 831.683 -5.93957 -5.20728 0
M  V30 6519 O 831.738 -4.23169 -7.04357 0
M  V30 6520 C 831.578 -3.99743 -8.4911 0
M  V30 6521 C 832.118 -2.60487 -8.79329 0
M  V30 6522 O 831.062 -1.82663 -8.44573 0
M  V30 6523 C 833.335 -2.10343 -8.03628 0
M  V30 6524 O 834.074 -1.09919 -8.67766 0
M  V30 6525 C 832.668 -1.68446 -6.70876 0
M  V30 6526 O 833.466 -0.678026 -6.08333 0
M  V30 6527 C 831.33 -1.17436 -7.18567 0
M  V30 6528 N 830.287 -1.52699 -6.23988 0
M  V30 6529 C 829.252 -0.643793 -6.05085 0
M  V30 6530 O 829.291 0.459118 -6.64315 0
M  V30 6531 N 828.24 -0.976931 -5.22038 0
M  V30 6532 C 828.288 -2.14429 -4.56662 0
M  V30 6533 C 829.384 -3.04203 -4.71481 0
M  V30 6534 C 830.35 -2.69669 -5.56838 0
M  V30 6535 H 831.362 -0.0804622 -7.31556 0
M  V30 6536 H 832.545 -2.53396 -6.02698 0
M  V30 6537 H 834.029 -2.9313 -7.85914 0
M  V30 6538 H 832.335 -2.52078 -9.87225 0
M  V30 6539 H 832.144 -4.75072 -9.05887 0
M  V30 6540 H 830.514 -4.05202 -8.76577 0
M  V30 6541 H 829.432 -3.97309 -4.15519 0
M  V30 6542 H 831.196 -3.36869 -5.72318 0
M  V30 6543 H 833.25 0.167718 -6.44882 0
M  V30 6544 P 835.011 -1.25109 -8.70152 0
M  V30 6545 O 836.433 -1.29744 -9.22016 0
M  V30 6546 O 834.651 -2.13714 -7.55141 0
M  V30 6547 O 834.688 0.248149 -8.21425 0
M  V30 6548 C 834.528 1.22779 -9.30434 0
M  V30 6549 C 835.068 2.56293 -8.80664 0
M  V30 6550 O 834.012 3.02979 -8.09349 0
M  V30 6551 C 836.286 2.57523 -7.89775 0
M  V30 6552 O 837.024 3.7668 -7.89438 0
M  V30 6553 C 835.617 2.20997 -6.55446 0
M  V30 6554 O 836.416 2.71895 -5.48509 0
M  V30 6555 C 834.28 2.89693 -6.67988 0
M  V30 6556 H 834.312 3.88793 -6.19859 0
M  V30 6557 H 835.495 1.12046 -6.44229 0
M  V30 6558 H 836.979 1.7746 -8.19711 0
M  V30 6559 H 835.285 3.20706 -9.67112 0
M  V30 6560 H 835.095 0.901032 -10.1892 0
M  V30 6561 H 833.465 1.33049 -9.56592 0
M  V30 6562 H 836.104 3.57847 -5.23962 0
M  V30 6563 P 837.962 3.65191 -7.99657 0
M  V30 6564 O 839.383 3.89374 -8.45885 0
M  V30 6565 O 837.602 2.28472 -7.50807 0
M  V30 6566 O 837.639 4.64972 -6.77611 0
M  V30 6567 C 837.478 6.06383 -7.16428 0
M  V30 6568 C 838.019 6.91731 -6.02299 0
M  V30 6569 O 836.964 6.92369 -5.17005 0
M  V30 6570 C 839.237 6.43627 -5.25174 0
M  V30 6571 O 839.975 7.43686 -4.60469 0
M  V30 6572 C 838.569 5.40275 -4.31916 0
M  V30 6573 O 839.367 5.24878 -3.14911 0
M  V30 6574 C 837.231 6.04847 -4.05327 0
M  V30 6575 N 836.188 5.04166 -3.98114 0
M  V30 6576 C 836.357 3.84629 -4.59066 0
M  V30 6577 N 835.33 3.0363 -4.45343 0
M  V30 6578 C 834.445 3.76722 -3.68523 0
M  V30 6579 C 833.178 3.43528 -3.17088 0
M  V30 6580 N 832.579 2.23665 -3.37397 0
M  V30 6581 N 832.613 4.44526 -2.44231 0
M  V30 6582 C 833.215 5.65243 -2.20146 0
M  V30 6583 N 834.392 6.00221 -2.65453 0
M  V30 6584 C 834.967 5.00564 -3.39083 0
M  V30 6585 H 837.263 6.62104 -3.11218 0
M  V30 6586 H 838.446 4.42969 -4.80867 0
M  V30 6587 H 839.929 5.92458 -5.93643 0
M  V30 6588 H 838.235 7.93295 -6.39407 0
M  V30 6589 H 838.045 6.26671 -8.0846 0
M  V30 6590 H 836.415 6.29101 -7.32804 0
M  V30 6591 H 832.679 6.36894 -1.5883 0
M  V30 6592 H 837.257 3.58193 -5.14248 0
M  V30 6593 H 831.649 2.05145 -2.97047 0
M  V30 6594 H 833.053 1.51255 -3.92998 0
M  V30 6595 H 839.055 5.84223 -2.47279 0
M  V30 6596 P 840.912 7.39546 -4.75277 0
M  V30 6597 O 842.334 7.84798 -5.01039 0
M  V30 6598 O 840.552 5.9812 -5.08098 0
M  V30 6599 O 840.589 7.57503 -3.1866 0
M  V30 6600 C 840.429 8.97357 -2.74833 0
M  V30 6601 C 840.969 9.07548 -1.32709 0
M  V30 6602 O 839.913 8.62072 -0.606159 0
M  V30 6603 C 842.187 8.25383 -0.938334 0
M  V30 6604 O 842.925 8.74577 0.146954 0
M  V30 6605 C 841.518 6.8802 -0.712559 0
M  V30 6606 O 842.317 6.1189 0.194655 0
M  V30 6607 C 840.181 7.27966 -0.139777 0
M  V30 6608 H 840.213 7.25354 0.961601 0
M  V30 6609 H 841.396 6.32557 -1.65702 0
M  V30 6610 H 842.88 8.19355 -1.79097 0
M  V30 6611 H 841.186 10.1294 -1.10029 0
M  V30 6612 H 840.996 9.64276 -3.41316 0
M  V30 6613 H 839.366 9.25417 -2.76357 0
M  V30 6614 H 842.005 6.25267 1.07847 0
M  V30 6615 P 843.863 8.791 6.31533e-12 0
M  V30 6616 O 845.285 9.31096 0.027933 0
M  V30 6617 O 843.503 7.77869 -1.04071 0
M  V30 6618 O 843.54 8.09533 1.41463 0
M  V30 6619 C 843.38 9.0349 2.53943 0
M  V30 6620 C 843.92 8.35226 3.79016 0
M  V30 6621 O 842.864 7.57992 4.15078 0
M  V30 6622 C 845.138 7.45087 3.67298 0
M  V30 6623 O 845.876 7.27796 4.85194 0
M  V30 6624 C 844.469 6.17323 3.12027 0
M  V30 6625 O 845.268 5.04231 3.47188 0
M  V30 6626 C 843.132 6.19961 3.81809 0
M  V30 6627 H 843.164 5.58218 4.73051 0
M  V30 6628 H 844.347 6.21726 2.02589 0
M  V30 6629 H 845.831 7.86112 2.9231 0
M  V30 6630 H 844.137 9.11627 4.55076 0
M  V30 6631 H 843.947 9.9573 2.34194 0
M  V30 6632 H 842.317 9.2792 2.67832 0
M  V30 6633 H 844.956 4.67702 4.28772 0
M  V30 6634 P 846.814 7.39546 4.75277 0
M  V30 6635 O 848.236 7.81777 5.05738 0
M  V30 6636 O 846.454 7.1065 3.32998 0
M  V30 6637 O 846.491 6.04542 5.56673 0
M  V30 6638 C 846.331 6.22772 7.02095 0
M  V30 6639 C 846.871 4.97725 7.70406 0
M  V30 6640 O 845.815 4.13256 7.58987 0
M  V30 6641 C 848.089 4.28231 7.11815 0
M  V30 6642 O 848.827 3.49945 8.01648 0
M  V30 6643 C 847.42 3.5063 5.96244 0
M  V30 6644 O 848.219 2.36482 5.64681 0
M  V30 6645 C 846.083 3.15122 6.56374 0
M  V30 6646 H 846.115 2.13853 6.99751 0
M  V30 6647 H 847.298 4.13501 5.06559 0
M  V30 6648 H 848.782 5.03285 6.70911 0
M  V30 6649 H 847.088 5.20877 8.75697 0
M  V30 6650 H 846.898 7.11046 7.35349 0
M  V30 6651 H 845.268 6.35815 7.26986 0
M  V30 6652 H 847.907 1.61644 6.13565 0
M  V30 6653 P 849.764 3.65191 7.99657 0
M  V30 6654 O 851.186 3.8425 8.48115 0
M  V30 6655 O 849.404 4.17805 6.64342 0
M  V30 6656 O 849.441 2.07613 7.95143 0
M  V30 6657 C 849.281 1.44328 9.27336 0
M  V30 6658 C 849.821 0.0220036 9.17197 0
M  V30 6659 O 848.765 -0.626867 8.61923 0
M  V30 6660 C 851.039 -0.24586 8.30336 0
M  V30 6661 O 851.777 -1.39011 8.63583 0
M  V30 6662 C 850.37 -0.273849 6.91158 0
M  V30 6663 O 851.169 -1.06348 6.02892 0
M  V30 6664 C 849.033 -0.897649 7.22545 0
M  V30 6665 H 849.065 -1.9841 7.04286 0
M  V30 6666 H 850.248 0.739928 6.497 0
M  V30 6667 H 851.732 0.60668 8.36503 0
M  V30 6668 H 850.038 -0.352479 10.1829 0
M  V30 6669 H 849.848 2.00611 10.0304 0
M  V30 6670 H 848.218 1.41843 9.55327 0
M  V30 6671 H 850.857 -1.95734 6.03555 0
M  V30 6672 P 852.715 -1.25109 8.70152 0
M  V30 6673 O 854.137 -1.35274 9.21221 0
M  V30 6674 O 852.355 -0.0769065 7.84762 0
M  V30 6675 O 852.392 -2.55232 7.81161 0
M  V30 6676 C 852.232 -3.79939 8.58154 0
M  V30 6677 C 852.772 -4.94023 7.72785 0
M  V30 6678 O 851.716 -5.18726 6.91205 0
M  V30 6679 C 853.99 -4.69597 6.85231 0
M  V30 6680 O 854.728 -5.83832 6.51337 0
M  V30 6681 C 853.321 -3.96706 5.66633 0
M  V30 6682 O 854.12 -4.15414 4.49689 0
M  V30 6683 C 851.984 -4.66153 5.59313 0
M  V30 6684 H 852.016 -5.47679 4.85214 0
M  V30 6685 H 853.199 -2.89008 5.86566 0
M  V30 6686 H 854.683 -4.0121 7.36511 0
M  V30 6687 H 852.989 -5.80182 8.37584 0
M  V30 6688 H 852.799 -3.73517 9.52265 0
M  V30 6689 H 851.169 -3.97163 8.80359 0
M  V30 6690 H 853.808 -4.90969 4.01921 0
M  V30 6691 P 855.665 -5.75688 6.64379 0
M  V30 6692 O 857.087 -6.11849 7.01846 0
M  V30 6693 O 855.305 -4.30744 6.56026 0
M  V30 6694 O 855.342 -6.37042 5.19165 0
M  V30 6695 C 855.182 -7.83578 5.16515 0
M  V30 6696 C 855.722 -8.33398 3.83019 0
M  V30 6697 O 854.666 -8.10074 3.01034 0
M  V30 6698 C 856.94 -7.65514 3.2257 0
M  V30 6699 O 857.678 -8.4329 2.32297 0
M  V30 6700 C 856.271 -6.40075 2.62207 0
M  V30 6701 O 857.07 -5.92589 1.53712 0
M  V30 6702 C 854.934 -6.9454 2.18503 0
M  V30 6703 H 854.966 -7.23063 1.12091 0
M  V30 6704 H 856.149 -5.6025 3.37201 0
M  V30 6705 H 857.633 -7.35707 4.02681 0
M  V30 6706 H 855.939 -9.40912 3.9095 0
M  V30 6707 H 855.749 -8.29056 5.99158 0
M  V30 6708 H 854.119 -8.10073 5.25882 0
M  V30 6709 H 856.758 -6.30324 0.726794 0
M  V30 6710 P 858.616 -8.4349 2.47671 0
M  V30 6711 O 860.038 -8.94167 2.5964 0
M  V30 6712 O 858.256 -7.1704 3.19006 0
M  V30 6713 O 858.293 -8.16596 0.923387 0
M  V30 6714 C 858.133 -9.38437 0.108857 0
M  V30 6715 C 858.673 -9.08175 -1.28353 0
M  V30 6716 O 857.617 -8.44229 -1.84713 0
M  V30 6717 C 859.891 -8.18386 -1.42505 0
M  V30 6718 O 860.629 -8.3501 -2.60497 0
M  V30 6719 C 859.222 -6.80225 -1.25468 0
M  V30 6720 O 860.021 -5.81621 -1.91066 0
M  V30 6721 C 857.885 -7.02416 -1.9168 0
M  V30 6722 H 857.917 -6.6888 -2.96621 0
M  V30 6723 H 859.1 -6.53617 -0.192223 0
M  V30 6724 H 860.584 -8.36622 -0.589963 0
M  V30 6725 H 858.89 -10.0291 -1.79807 0
M  V30 6726 H 858.7 -10.2138 0.558219 0
M  V30 6727 H 857.07 -9.6579 0.0444202 0
M  V30 6728 H 859.709 -5.69556 -2.79637 0
M  V30 6729 P 861.566 -8.4349 -2.47671 0
M  V30 6730 O 862.987 -8.92689 -2.65029 0
M  V30 6731 O 861.206 -7.7568 -1.19296 0
M  V30 6732 O 861.243 -7.36886 -3.63805 0
M  V30 6733 C 861.082 -7.95433 -4.98253 0
M  V30 6734 C 861.623 -6.94612 -5.98974 0
M  V30 6735 O 860.568 -6.10277 -6.11744 0
M  V30 6736 C 862.841 -6.11426 -5.62335 0
M  V30 6737 O 863.579 -5.6162 -6.70584 0
M  V30 6738 C 862.173 -5.04409 -4.73308 0
M  V30 6739 O 862.971 -3.86404 -4.74719 0
M  V30 6740 C 860.835 -4.8728 -5.41006 0
M  V30 6741 N 859.792 -4.65812 -4.42377 0
M  V30 6742 C 859.961 -5.09132 -3.15382 0
M  V30 6743 N 858.934 -4.84021 -2.3716 0
M  V30 6744 C 858.049 -4.18386 -3.20441 0
M  V30 6745 C 856.782 -3.6275 -2.94905 0
M  V30 6746 N 856.183 -3.65794 -1.73372 0
M  V30 6747 N 856.217 -3.05008 -4.05243 0
M  V30 6748 C 856.819 -2.98348 -5.28159 0
M  V30 6749 N 857.996 -3.48171 -5.56333 0
M  V30 6750 C 858.571 -4.06869 -4.47212 0
M  V30 6751 H 860.867 -4.02278 -6.11074 0
M  V30 6752 H 862.05 -5.39013 -3.70026 0
M  V30 6753 H 863.533 -6.71916 -5.01943 0
M  V30 6754 H 861.839 -7.45796 -6.94223 0
M  V30 6755 H 861.649 -8.89416 -5.05237 0
M  V30 6756 H 860.019 -8.14876 -5.18409 0
M  V30 6757 H 856.283 -2.47853 -6.07807 0
M  V30 6758 H 860.861 -5.59989 -2.81362 0
M  V30 6759 H 855.253 -3.23218 -1.60782 0
M  V30 6760 H 856.657 -4.10523 -0.937856 0
M  V30 6761 H 862.659 -3.27906 -5.43085 0
M  V30 6762 P 864.517 -5.75688 -6.64379 0
M  V30 6763 O 865.939 -6.07627 -7.05504 0
M  V30 6764 O 864.157 -5.88047 -5.19722 0
M  V30 6765 O 864.194 -4.2322 -7.04443 0
M  V30 6766 C 864.034 -3.99743 -8.4911 0
M  V30 6767 C 864.574 -2.60516 -8.79425 0
M  V30 6768 O 863.518 -1.82684 -8.4467 0
M  V30 6769 C 865.792 -2.10343 -8.03628 0
M  V30 6770 O 866.53 -1.09919 -8.67766 0
M  V30 6771 C 865.123 -1.68446 -6.70876 0
M  V30 6772 O 865.922 -0.678137 -6.08433 0
M  V30 6773 C 863.786 -1.17436 -7.18567 0
M  V30 6774 H 863.818 -0.0804732 -7.31656 0
M  V30 6775 H 865.001 -2.54037 -6.02537 0
M  V30 6776 H 866.485 -2.93881 -7.85526 0
M  V30 6777 H 864.791 -2.53065 -9.86973 0
M  V30 6778 H 864.601 -4.75072 -9.05887 0
M  V30 6779 H 862.971 -4.05244 -8.76668 0
M  V30 6780 H 865.61 0.177647 -6.34251 0
M  V30 6781 P 867.468 -1.25109 -8.70152 0
M  V30 6782 O 868.889 -1.29758 -9.22115 0
M  V30 6783 O 867.108 -2.13714 -7.55141 0
M  V30 6784 O 867.145 0.248149 -8.21425 0
M  V30 6785 C 866.984 1.22792 -9.30533 0
M  V30 6786 C 867.525 2.56293 -8.80664 0
M  V30 6787 O 866.47 3.02944 -8.09255 0
M  V30 6788 C 868.743 2.57523 -7.89775 0
M  V30 6789 O 869.481 3.7668 -7.89438 0
M  V30 6790 C 868.075 2.20997 -6.55446 0
M  V30 6791 O 868.873 2.71302 -5.48691 0
M  V30 6792 C 866.737 2.89693 -6.67988 0
M  V30 6793 N 865.694 2.08895 -6.07487 0
M  V30 6794 C 865.863 0.753809 -5.94137 0
M  V30 6795 N 864.836 0.146592 -5.38801 0
M  V30 6796 C 863.951 1.1768 -5.13693 0
M  V30 6797 C 862.684 1.17563 -4.52477 0
M  V30 6798 N 862.085 0.057481 -4.04759 0
M  V30 6799 N 862.119 2.41918 -4.45789 0
M  V30 6800 C 862.721 3.56493 -4.90792 0
M  V30 6801 N 863.898 3.61423 -5.47817 0
M  V30 6802 C 864.473 2.37779 -5.5588 0
M  V30 6803 H 866.769 3.8874 -6.19774 0
M  V30 6804 H 867.952 1.12673 -6.44018 0
M  V30 6805 H 869.435 1.7746 -8.19711 0
M  V30 6806 H 867.741 3.21673 -9.66791 0
M  V30 6807 H 867.551 0.901032 -10.1892 0
M  V30 6808 H 865.921 1.33049 -9.56592 0
M  V30 6809 H 862.185 4.49919 -4.77947 0
M  V30 6810 H 866.763 0.233081 -6.26266 0
M  V30 6811 H 861.155 0.119831 -3.60801 0
M  V30 6812 H 862.559 -0.852272 -4.12385 0
M  V30 6813 H 868.561 3.5779 -5.23879 0
M  V30 6814 P 870.418 3.65191 -7.99657 0
M  V30 6815 O 871.84 3.89416 -8.45976 0
M  V30 6816 O 870.058 2.28472 -7.50807 0
M  V30 6817 O 870.095 4.64972 -6.77611 0
M  V30 6818 C 869.935 6.06319 -7.16352 0
M  V30 6819 C 870.475 6.91655 -6.02234 0
M  V30 6820 O 869.42 6.92449 -5.17064 0
M  V30 6821 C 871.693 6.43627 -5.25174 0
M  V30 6822 O 872.431 7.43686 -4.60469 0
M  V30 6823 C 871.025 5.40275 -4.31916 0
M  V30 6824 O 871.823 5.25193 -3.14386 0
M  V30 6825 C 869.687 6.04847 -4.05327 0
M  V30 6826 N 868.644 5.04166 -3.98114 0
M  V30 6827 C 868.706 3.96049 -4.75587 0
M  V30 6828 N 867.661 3.15559 -4.54006 0
M  V30 6829 C 866.927 3.78802 -3.62491 0
M  V30 6830 C 865.621 3.476 -3.10071 0
M  V30 6831 O 864.888 2.51136 -3.37021 0
M  V30 6832 N 865.191 4.39088 -2.19956 0
M  V30 6833 C 865.94 5.53215 -1.81733 0
M  V30 6834 N 865.343 6.31963 -0.860928 0
M  V30 6835 N 867.093 5.86688 -2.32562 0
M  V30 6836 C 867.55 4.97525 -3.23407 0
M  V30 6837 H 869.719 6.62195 -3.11261 0
M  V30 6838 H 870.902 4.42488 -4.8131 0
M  V30 6839 H 872.387 5.93051 -5.9305 0
M  V30 6840 H 870.692 7.92655 -6.402 0
M  V30 6841 H 870.502 6.26671 -8.0846 0
M  V30 6842 H 868.871 6.29101 -7.32804 0
M  V30 6843 H 864.295 4.25523 -1.77604 0
M  V30 6844 H 869.502 3.75576 -5.47333 0
M  V30 6845 H 864.432 6.04684 -0.468946 0
M  V30 6846 H 865.808 7.18054 -0.542422 0
M  V30 6847 H 871.512 5.84223 -2.47279 0
M  V30 6848 P 873.369 7.39546 -4.75277 0
M  V30 6849 O 874.79 7.84882 -5.01092 0
M  V30 6850 O 873.009 5.9812 -5.08098 0
M  V30 6851 O 873.046 7.57503 -3.1866 0
M  V30 6852 C 872.885 8.97452 -2.74862 0
M  V30 6853 C 873.426 9.07548 -1.32709 0
M  V30 6854 O 872.371 8.61972 -0.606089 0
M  V30 6855 C 874.644 8.25383 -0.938334 0
M  V30 6856 O 875.382 8.74577 0.146954 0
M  V30 6857 C 873.976 6.8802 -0.712559 0
M  V30 6858 O 874.774 6.1181 0.188505 0
M  V30 6859 C 872.638 7.27966 -0.139777 0
M  V30 6860 N 871.595 6.39368 -0.623421 0
M  V30 6861 C 871.764 5.71761 -1.78245 0
M  V30 6862 N 870.737 4.962 -2.10491 0
M  V30 6863 C 869.852 5.16158 -1.0635 0
M  V30 6864 C 868.585 4.60425 -0.810266 0
M  V30 6865 N 867.986 3.7057 -1.62914 0
M  V30 6866 N 868.02 5.06 0.348685 0
M  V30 6867 C 868.622 5.94532 1.20395 0
M  V30 6868 N 869.799 6.48452 1.01191 0
M  V30 6869 C 870.374 6.04423 -0.146291 0
M  V30 6870 H 872.67 7.25255 0.961469 0
M  V30 6871 H 873.853 6.32625 -1.65044 0
M  V30 6872 H 875.336 8.19355 -1.79097 0
M  V30 6873 H 873.642 10.1305 -1.09016 0
M  V30 6874 H 873.452 9.64276 -3.41316 0
M  V30 6875 H 871.822 9.25417 -2.76357 0
M  V30 6876 H 868.086 6.21659 2.10714 0
M  V30 6877 H 872.664 5.79354 -2.38959 0
M  V30 6878 H 867.056 3.33174 -1.38982 0
M  V30 6879 H 868.46 3.39714 -2.48836 0
M  V30 6880 H 874.462 6.25169 1.0783 0
M  V30 6881 P 876.319 8.791 6.62549e-12 0
M  V30 6882 O 877.741 9.31296 0.027939 0
M  V30 6883 O 875.959 7.77869 -1.04071 0
M  V30 6884 O 875.996 8.09533 1.41463 0
M  V30 6885 C 875.836 9.0349 2.53943 0
M  V30 6886 C 876.376 8.35135 3.78975 0
M  V30 6887 O 875.321 7.57992 4.15078 0
M  V30 6888 C 877.594 7.45087 3.67298 0
M  V30 6889 O 878.332 7.27796 4.85194 0
M  V30 6890 C 876.926 6.17323 3.12027 0
M  V30 6891 O 877.724 5.04149 3.47132 0
M  V30 6892 C 875.588 6.19961 3.81809 0
M  V30 6893 N 874.545 5.71575 2.93223 0
M  V30 6894 C 874.607 5.97133 1.62693 0
M  V30 6895 N 873.562 5.44066 0.984414 0
M  V30 6896 C 872.828 4.87093 1.93987 0
M  V30 6897 C 871.522 4.26449 1.8738 0
M  V30 6898 O 870.789 4.1089 0.884377 0
M  V30 6899 N 871.092 3.82483 3.08036 0
M  V30 6900 C 871.841 3.95124 4.27727 0
M  V30 6901 N 871.244 3.4084 5.39089 0
M  V30 6902 N 872.994 4.55264 4.3706 0
M  V30 6903 C 873.451 5.00861 3.18217 0
M  V30 6904 H 875.62 5.58218 4.73051 0
M  V30 6905 H 876.803 6.21631 2.02558 0
M  V30 6906 H 878.288 7.85819 2.93096 0
M  V30 6907 H 876.593 9.11627 4.55076 0
M  V30 6908 H 876.403 9.9573 2.34194 0
M  V30 6909 H 874.772 9.2792 2.67832 0
M  V30 6910 H 870.196 3.38323 3.1329 0
M  V30 6911 H 875.403 6.53891 1.14265 0
M  V30 6912 H 870.333 2.93852 5.30559 0
M  V30 6913 H 871.709 3.47631 6.30632 0
M  V30 6914 H 877.413 4.67628 4.28704 0
M  V30 6915 P 879.27 7.39546 4.75277 0
M  V30 6916 O 880.692 7.81777 5.05738 0
M  V30 6917 O 878.91 7.1065 3.32998 0
M  V30 6918 O 878.947 6.04542 5.56673 0
M  V30 6919 C 878.787 6.22772 7.02095 0
M  V30 6920 C 879.327 4.97725 7.70406 0
M  V30 6921 O 878.271 4.13256 7.58987 0
M  V30 6922 C 880.545 4.28231 7.11815 0
M  V30 6923 O 881.283 3.49945 8.01648 0
M  V30 6924 C 879.876 3.5063 5.96244 0
M  V30 6925 O 880.675 2.36482 5.64681 0
M  V30 6926 C 878.539 3.15122 6.56374 0
M  V30 6927 H 878.571 2.13853 6.99751 0
M  V30 6928 H 879.754 4.13501 5.06559 0
M  V30 6929 H 881.238 5.03285 6.70911 0
M  V30 6930 H 879.544 5.20877 8.75697 0
M  V30 6931 H 879.354 7.11046 7.35349 0
M  V30 6932 H 877.724 6.35815 7.26986 0
M  V30 6933 H 880.363 1.61644 6.13565 0
M  V30 6934 P 882.22 3.65191 7.99657 0
M  V30 6935 O 883.642 3.8425 8.48115 0
M  V30 6936 O 881.86 4.17805 6.64342 0
M  V30 6937 O 881.897 2.07613 7.95143 0
M  V30 6938 C 881.737 1.44328 9.27336 0
M  V30 6939 C 882.277 0.0220036 9.17197 0
M  V30 6940 O 881.221 -0.626867 8.61923 0
M  V30 6941 C 883.495 -0.24586 8.30336 0
M  V30 6942 O 884.233 -1.39011 8.63583 0
M  V30 6943 C 882.826 -0.273849 6.91158 0
M  V30 6944 O 883.625 -1.06348 6.02892 0
M  V30 6945 C 881.489 -0.897649 7.22545 0
M  V30 6946 H 881.521 -1.9841 7.04286 0
M  V30 6947 H 882.704 0.739928 6.497 0
M  V30 6948 H 884.188 0.60668 8.36503 0
M  V30 6949 H 882.494 -0.352479 10.1829 0
M  V30 6950 H 882.304 2.00611 10.0304 0
M  V30 6951 H 880.674 1.41843 9.55327 0
M  V30 6952 H 883.313 -1.95734 6.03555 0
M  V30 6953 P 885.171 -1.25109 8.70152 0
M  V30 6954 O 886.593 -1.35274 9.21221 0
M  V30 6955 O 884.811 -0.0769065 7.84762 0
M  V30 6956 O 884.848 -2.55232 7.81161 0
M  V30 6957 C 884.688 -3.79939 8.58154 0
M  V30 6958 C 885.228 -4.94023 7.72785 0
M  V30 6959 O 884.172 -5.18726 6.91205 0
M  V30 6960 C 886.446 -4.69597 6.85231 0
M  V30 6961 O 887.184 -5.83832 6.51337 0
M  V30 6962 C 885.777 -3.96706 5.66633 0
M  V30 6963 O 886.576 -4.15414 4.49689 0
M  V30 6964 C 884.44 -4.66153 5.59313 0
M  V30 6965 H 884.472 -5.47679 4.85214 0
M  V30 6966 H 885.655 -2.89008 5.86566 0
M  V30 6967 H 887.139 -4.0121 7.36511 0
M  V30 6968 H 885.445 -5.80182 8.37584 0
M  V30 6969 H 885.255 -3.73517 9.52265 0
M  V30 6970 H 883.625 -3.97163 8.80359 0
M  V30 6971 H 886.264 -4.90969 4.01921 0
M  V30 6972 P 888.122 -5.75688 6.64379 0
M  V30 6973 O 889.544 -6.11849 7.01846 0
M  V30 6974 O 887.762 -4.30744 6.56026 0
M  V30 6975 O 887.799 -6.37042 5.19165 0
M  V30 6976 C 887.639 -7.83578 5.16515 0
M  V30 6977 C 888.179 -8.33398 3.83019 0
M  V30 6978 O 887.123 -8.10074 3.01034 0
M  V30 6979 C 889.397 -7.65514 3.2257 0
M  V30 6980 O 890.135 -8.4329 2.32297 0
M  V30 6981 C 888.728 -6.40075 2.62207 0
M  V30 6982 O 889.527 -5.92589 1.53712 0
M  V30 6983 C 887.391 -6.9454 2.18503 0
M  V30 6984 H 887.423 -7.23063 1.12091 0
M  V30 6985 H 888.606 -5.6025 3.37201 0
M  V30 6986 H 890.09 -7.35707 4.02681 0
M  V30 6987 H 888.396 -9.40912 3.9095 0
M  V30 6988 H 888.206 -8.29056 5.99158 0
M  V30 6989 H 886.576 -8.10073 5.25882 0
M  V30 6990 H 889.215 -6.30324 0.726794 0
M  V30 6991 P 891.072 -8.4349 2.47671 0
M  V30 6992 O 892.493 -8.94263 2.59668 0
M  V30 6993 O 890.712 -7.1704 3.19006 0
M  V30 6994 O 890.749 -8.16596 0.923387 0
M  V30 6995 C 890.588 -9.38537 0.108869 0
M  V30 6996 C 891.129 -9.08175 -1.28353 0
M  V30 6997 O 890.074 -8.44131 -1.84692 0
M  V30 6998 C 892.347 -8.18386 -1.42505 0
M  V30 6999 O 893.085 -8.3501 -2.60497 0
M  V30 7000 C 891.679 -6.80225 -1.25468 0
M  V30 7001 O 892.477 -5.81716 -1.90454 0
M  V30 7002 C 890.341 -7.02416 -1.9168 0
M  V30 7003 N 889.298 -6.31033 -1.20314 0
M  V30 7004 C 889.467 -5.98817 0.0994088 0
M  V30 7005 N 888.44 -5.35403 0.621694 0
M  V30 7006 C 887.555 -5.25212 -0.43376 0
M  V30 7007 C 886.288 -4.64602 -0.519722 0
M  V30 7008 N 885.689 -4.01457 0.519136 0
M  V30 7009 N 885.723 -4.7568 -1.76013 0
M  V30 7010 C 886.325 -5.3653 -2.83017 0
M  V30 7011 N 887.502 -5.93676 -2.79782 0
M  V30 7012 C 888.077 -5.84061 -1.56249 0
M  V30 7013 H 890.373 -6.68789 -2.9658 0
M  V30 7014 H 891.556 -6.53498 -0.198729 0
M  V30 7015 H 893.039 -8.36622 -0.589963 0
M  V30 7016 H 891.345 -10.0273 -1.8081 0
M  V30 7017 H 891.155 -10.2138 0.558219 0
M  V30 7018 H 889.525 -9.6579 0.0444202 0
M  V30 7019 H 885.789 -5.37113 -3.77321 0
M  V30 7020 H 890.367 -6.23209 0.660562 0
M  V30 7021 H 884.759 -3.58834 0.394862 0
M  V30 7022 H 886.163 -3.96059 1.43048 0
M  V30 7023 H 892.165 -5.69466 -2.79593 0
M  V30 7024 P 894.023 -8.4349 -2.47671 0
M  V30 7025 O 895.445 -8.92593 -2.65 0
M  V30 7026 O 893.663 -7.7568 -1.19296 0
M  V30 7027 O 893.7 -7.36886 -3.63805 0
M  V30 7028 C 893.54 -7.95349 -4.982 0
M  V30 7029 C 894.08 -6.94612 -5.98974 0
M  V30 7030 O 893.024 -6.10347 -6.11815 0
M  V30 7031 C 895.298 -6.11426 -5.62335 0
M  V30 7032 O 896.036 -5.6162 -6.70584 0
M  V30 7033 C 894.629 -5.04409 -4.73308 0
M  V30 7034 O 895.428 -3.85992 -4.75183 0
M  V30 7035 C 893.292 -4.8728 -5.41006 0
M  V30 7036 H 893.324 -4.02333 -6.11157 0
M  V30 7037 H 894.507 -5.39466 -3.69543 0
M  V30 7038 H 895.991 -6.71916 -5.01943 0
M  V30 7039 H 894.297 -7.4649 -6.93477 0
M  V30 7040 H 894.107 -8.89416 -5.05237 0
M  V30 7041 H 892.477 -8.14876 -5.18409 0
M  V30 7042 H 895.116 -3.27957 -5.4317 0
M  V30 7043 P 896.973 -5.75688 -6.64379 0
M  V30 7044 O 898.395 -6.07627 -7.05504 0
M  V30 7045 O 896.613 -5.88047 -5.19722 0
M  V30 7046 O 896.65 -4.2322 -7.04443 0
M  V30 7047 C 896.49 -3.99743 -8.4911 0
M  V30 7048 C 897.03 -2.60516 -8.79425 0
M  V30 7049 O 895.974 -1.82684 -8.4467 0
M  V30 7050 C 898.248 -2.10343 -8.03628 0
M  V30 7051 O 898.986 -1.09919 -8.67766 0
M  V30 7052 C 897.579 -1.68446 -6.70876 0
M  V30 7053 O 898.378 -0.678137 -6.08433 0
M  V30 7054 C 896.242 -1.17436 -7.18567 0
M  V30 7055 H 896.274 -0.0804732 -7.31656 0
M  V30 7056 H 897.457 -2.54037 -6.02537 0
M  V30 7057 H 898.941 -2.93881 -7.85526 0
M  V30 7058 H 897.247 -2.53065 -9.86973 0
M  V30 7059 H 897.057 -4.75072 -9.05887 0
M  V30 7060 H 895.427 -4.05244 -8.76668 0
M  V30 7061 H 898.066 0.177647 -6.34251 0
M  V30 7062 P 899.924 -1.25109 -8.70152 0
M  V30 7063 O 901.346 -1.29744 -9.22016 0
M  V30 7064 O 899.564 -2.13714 -7.55141 0
M  V30 7065 O 899.601 0.248149 -8.21425 0
M  V30 7066 C 899.441 1.22779 -9.30434 0
M  V30 7067 C 899.981 2.56293 -8.80664 0
M  V30 7068 O 898.925 3.02979 -8.09349 0
M  V30 7069 C 901.199 2.57523 -7.89775 0
M  V30 7070 O 901.937 3.7668 -7.89438 0
M  V30 7071 C 900.53 2.20997 -6.55446 0
M  V30 7072 O 901.329 2.71895 -5.48509 0
M  V30 7073 C 899.193 2.89693 -6.67988 0
M  V30 7074 H 899.225 3.88793 -6.19859 0
M  V30 7075 H 900.408 1.12046 -6.44229 0
M  V30 7076 H 901.892 1.7746 -8.19711 0
M  V30 7077 H 900.198 3.20706 -9.67112 0
M  V30 7078 H 900.008 0.901032 -10.1892 0
M  V30 7079 H 898.378 1.33049 -9.56592 0
M  V30 7080 H 901.017 3.57847 -5.23962 0
M  V30 7081 P 902.874 3.65191 -7.99657 0
M  V30 7082 O 904.275 3.87414 -8.52829 0
M  V30 7083 O 902.496 2.26932 -7.566 0
M  V30 7084 O 902.551 4.64915 -6.77529 0
M  V30 7085 C 902.391 6.06319 -7.16352 0
M  V30 7086 C 902.931 6.91655 -6.02234 0
M  V30 7087 O 901.875 6.92369 -5.17005 0
M  V30 7088 C 904.148 6.43627 -5.25174 0
M  V30 7089 O 904.887 7.43686 -4.60469 0
M  V30 7090 C 903.481 5.40275 -4.31916 0
M  V30 7091 O 904.279 5.25193 -3.14386 0
M  V30 7092 C 902.143 6.04847 -4.05327 0
M  V30 7093 N 901.1 5.04166 -3.98114 0
M  V30 7094 C 900.065 5.2366 -3.09923 0
M  V30 7095 O 900.104 6.23355 -2.34204 0
M  V30 7096 N 899.053 4.34279 -3.05727 0
M  V30 7097 C 899.101 3.26317 -3.84756 0
M  V30 7098 N 898.091 2.40281 -3.79534 0
M  V30 7099 C 900.197 3.02504 -4.72573 0
M  V30 7100 C 901.163 3.94493 -4.76618 0
M  V30 7101 H 902.175 6.62104 -3.11218 0
M  V30 7102 H 903.358 4.42969 -4.80867 0
M  V30 7103 H 904.842 5.93122 -5.93121 0
M  V30 7104 H 903.148 7.93295 -6.39407 0
M  V30 7105 H 902.957 6.26671 -8.0846 0
M  V30 7106 H 901.327 6.29036 -7.32728 0
M  V30 7107 H 900.245 2.12921 -5.34017 0
M  V30 7108 H 902.009 3.80658 -5.44176 0
M  V30 7109 H 897.301 2.57561 -3.15653 0
M  V30 7110 H 898.096 1.56492 -4.39044 0
M  V30 7111 H 904.063 5.93572 -2.52637 0
M  V30 7112 P 905.825 7.39546 -4.75277 0
M  V30 7113 O 907.247 7.84798 -5.01039 0
M  V30 7114 O 905.465 5.9812 -5.08098 0
M  V30 7115 O 905.502 7.57503 -3.1866 0
M  V30 7116 C 905.342 8.97357 -2.74833 0
M  V30 7117 C 905.882 9.07548 -1.32709 0
M  V30 7118 O 904.826 8.62072 -0.606159 0
M  V30 7119 C 907.1 8.25383 -0.938334 0
M  V30 7120 O 907.838 8.74577 0.146954 0
M  V30 7121 C 906.431 6.8802 -0.712559 0
M  V30 7122 O 907.23 6.1189 0.194655 0
M  V30 7123 C 905.094 7.27966 -0.139777 0
M  V30 7124 H 905.126 7.25354 0.961601 0
M  V30 7125 H 906.309 6.32557 -1.65702 0
M  V30 7126 H 907.793 8.19355 -1.79097 0
M  V30 7127 H 906.099 10.1294 -1.10029 0
M  V30 7128 H 905.909 9.64276 -3.41316 0
M  V30 7129 H 904.279 9.25417 -2.76357 0
M  V30 7130 H 906.918 6.25267 1.07847 0
M  V30 7131 P 908.776 8.791 6.93566e-12 0
M  V30 7132 O 910.198 9.31096 0.027933 0
M  V30 7133 O 908.416 7.77869 -1.04071 0
M  V30 7134 O 908.453 8.09533 1.41463 0
M  V30 7135 C 908.293 9.0349 2.53943 0
M  V30 7136 C 908.833 8.35226 3.79016 0
M  V30 7137 O 907.777 7.57992 4.15078 0
M  V30 7138 C 910.051 7.45087 3.67298 0
M  V30 7139 O 910.789 7.27796 4.85194 0
M  V30 7140 C 909.382 6.17323 3.12027 0
M  V30 7141 O 910.181 5.04231 3.47188 0
M  V30 7142 C 908.045 6.19961 3.81809 0
M  V30 7143 H 908.077 5.58218 4.73051 0
M  V30 7144 H 909.26 6.21726 2.02589 0
M  V30 7145 H 910.744 7.86112 2.9231 0
M  V30 7146 H 909.05 9.11627 4.55076 0
M  V30 7147 H 908.86 9.9573 2.34194 0
M  V30 7148 H 907.23 9.2792 2.67832 0
M  V30 7149 H 909.869 4.67702 4.28772 0
M  V30 7150 P 911.726 7.39546 4.75277 0
M  V30 7151 O 913.148 7.81777 5.05738 0
M  V30 7152 O 911.366 7.1065 3.32998 0
M  V30 7153 O 911.403 6.04542 5.56673 0
M  V30 7154 C 911.243 6.22772 7.02095 0
M  V30 7155 C 911.783 4.97725 7.70406 0
M  V30 7156 O 910.727 4.13256 7.58987 0
M  V30 7157 C 913.001 4.28231 7.11815 0
M  V30 7158 O 913.739 3.49945 8.01648 0
M  V30 7159 C 912.332 3.5063 5.96244 0
M  V30 7160 O 913.131 2.36482 5.64681 0
M  V30 7161 C 910.995 3.15122 6.56374 0
M  V30 7162 H 911.027 2.13853 6.99751 0
M  V30 7163 H 912.21 4.13501 5.06559 0
M  V30 7164 H 913.694 5.03285 6.70911 0
M  V30 7165 H 912 5.20877 8.75697 0
M  V30 7166 H 911.81 7.11046 7.35349 0
M  V30 7167 H 910.18 6.35815 7.26986 0
M  V30 7168 H 912.819 1.61644 6.13565 0
M  V30 7169 P 914.677 3.65191 7.99657 0
M  V30 7170 O 916.099 3.8425 8.48115 0
M  V30 7171 O 914.317 4.17805 6.64342 0
M  V30 7172 O 914.354 2.07613 7.95143 0
M  V30 7173 C 914.194 1.44328 9.27336 0
M  V30 7174 C 914.734 0.0220036 9.17197 0
M  V30 7175 O 913.678 -0.626867 8.61923 0
M  V30 7176 C 915.952 -0.24586 8.30336 0
M  V30 7177 O 916.69 -1.39011 8.63583 0
M  V30 7178 C 915.283 -0.273849 6.91158 0
M  V30 7179 O 916.082 -1.06348 6.02892 0
M  V30 7180 C 913.946 -0.897649 7.22545 0
M  V30 7181 H 913.978 -1.9841 7.04286 0
M  V30 7182 H 915.161 0.739928 6.497 0
M  V30 7183 H 916.645 0.60668 8.36503 0
M  V30 7184 H 914.951 -0.352479 10.1829 0
M  V30 7185 H 914.761 2.00611 10.0304 0
M  V30 7186 H 913.131 1.41843 9.55327 0
M  V30 7187 H 915.77 -1.95734 6.03555 0
M  V30 7188 P 917.627 -1.25109 8.70152 0
M  V30 7189 O 919.049 -1.35274 9.21221 0
M  V30 7190 O 917.267 -0.0769065 7.84762 0
M  V30 7191 O 917.304 -2.55232 7.81161 0
M  V30 7192 C 917.144 -3.79939 8.58154 0
M  V30 7193 C 917.684 -4.94023 7.72785 0
M  V30 7194 O 916.628 -5.18726 6.91205 0
M  V30 7195 C 918.902 -4.69597 6.85231 0
M  V30 7196 O 919.64 -5.83832 6.51337 0
M  V30 7197 C 918.233 -3.96706 5.66633 0
M  V30 7198 O 919.032 -4.15414 4.49689 0
M  V30 7199 C 916.896 -4.66153 5.59313 0
M  V30 7200 H 916.928 -5.47679 4.85214 0
M  V30 7201 H 918.111 -2.89008 5.86566 0
M  V30 7202 H 919.595 -4.0121 7.36511 0
M  V30 7203 H 917.901 -5.80182 8.37584 0
M  V30 7204 H 917.711 -3.73517 9.52265 0
M  V30 7205 H 916.081 -3.97163 8.80359 0
M  V30 7206 H 918.72 -4.90969 4.01921 0
M  V30 7207 P 920.578 -5.75688 6.64379 0
M  V30 7208 O 922 -6.11849 7.01846 0
M  V30 7209 O 920.218 -4.30744 6.56026 0
M  V30 7210 O 920.255 -6.37042 5.19165 0
M  V30 7211 C 920.095 -7.83578 5.16515 0
M  V30 7212 C 920.635 -8.33398 3.83019 0
M  V30 7213 O 919.579 -8.10074 3.01034 0
M  V30 7214 C 921.853 -7.65514 3.2257 0
M  V30 7215 O 922.591 -8.4329 2.32297 0
M  V30 7216 C 921.184 -6.40075 2.62207 0
M  V30 7217 O 921.983 -5.92589 1.53712 0
M  V30 7218 C 919.847 -6.9454 2.18503 0
M  V30 7219 H 919.879 -7.23063 1.12091 0
M  V30 7220 H 921.062 -5.6025 3.37201 0
M  V30 7221 H 922.546 -7.35707 4.02681 0
M  V30 7222 H 920.852 -9.40912 3.9095 0
M  V30 7223 H 920.662 -8.29056 5.99158 0
M  V30 7224 H 919.032 -8.10073 5.25882 0
M  V30 7225 H 921.671 -6.30324 0.726794 0
M  V30 7226 P 923.528 -8.4349 2.47671 0
M  V30 7227 O 924.949 -8.94263 2.59668 0
M  V30 7228 O 923.168 -7.1704 3.19006 0
M  V30 7229 O 923.205 -8.16596 0.923387 0
M  V30 7230 C 923.044 -9.38537 0.108869 0
M  V30 7231 C 923.585 -9.08175 -1.28353 0
M  V30 7232 O 922.53 -8.44131 -1.84692 0
M  V30 7233 C 924.803 -8.18386 -1.42505 0
M  V30 7234 O 925.541 -8.3501 -2.60497 0
M  V30 7235 C 924.135 -6.80225 -1.25468 0
M  V30 7236 O 924.933 -5.81716 -1.90454 0
M  V30 7237 C 922.797 -7.02416 -1.9168 0
M  V30 7238 N 921.754 -6.31033 -1.20314 0
M  V30 7239 C 921.923 -5.98817 0.0994088 0
M  V30 7240 N 920.896 -5.35403 0.621694 0
M  V30 7241 C 920.011 -5.25212 -0.43376 0
M  V30 7242 C 918.744 -4.64602 -0.519722 0
M  V30 7243 N 918.145 -4.01457 0.519136 0
M  V30 7244 N 918.179 -4.7568 -1.76013 0
M  V30 7245 C 918.781 -5.3653 -2.83017 0
M  V30 7246 N 919.958 -5.93676 -2.79782 0
M  V30 7247 C 920.533 -5.84061 -1.56249 0
M  V30 7248 H 922.829 -6.68789 -2.9658 0
M  V30 7249 H 924.012 -6.53498 -0.198729 0
M  V30 7250 H 925.495 -8.36622 -0.589963 0
M  V30 7251 H 923.801 -10.0273 -1.8081 0
M  V30 7252 H 923.611 -10.2138 0.558219 0
M  V30 7253 H 921.981 -9.6579 0.0444202 0
M  V30 7254 H 918.245 -5.37113 -3.77321 0
M  V30 7255 H 922.823 -6.23209 0.660562 0
M  V30 7256 H 917.215 -3.58834 0.394862 0
M  V30 7257 H 918.619 -3.96059 1.43048 0
M  V30 7258 H 924.621 -5.69466 -2.79593 0
M  V30 7259 P 926.479 -8.4349 -2.47671 0
M  V30 7260 O 927.901 -8.92593 -2.65 0
M  V30 7261 O 926.119 -7.7568 -1.19296 0
M  V30 7262 O 926.156 -7.36886 -3.63805 0
M  V30 7263 C 925.996 -7.95349 -4.982 0
M  V30 7264 C 926.536 -6.94612 -5.98974 0
M  V30 7265 O 925.48 -6.10347 -6.11815 0
M  V30 7266 C 927.754 -6.11426 -5.62335 0
M  V30 7267 O 928.492 -5.6162 -6.70584 0
M  V30 7268 C 927.085 -5.04409 -4.73308 0
M  V30 7269 O 927.884 -3.85992 -4.75183 0
M  V30 7270 C 925.748 -4.8728 -5.41006 0
M  V30 7271 H 925.78 -4.02333 -6.11157 0
M  V30 7272 H 926.963 -5.39466 -3.69543 0
M  V30 7273 H 928.447 -6.71916 -5.01943 0
M  V30 7274 H 926.753 -7.4649 -6.93477 0
M  V30 7275 H 926.563 -8.89416 -5.05237 0
M  V30 7276 H 924.933 -8.14876 -5.18409 0
M  V30 7277 H 927.572 -3.27957 -5.4317 0
M  V30 7278 P 929.43 -5.75688 -6.64379 0
M  V30 7279 O 930.852 -6.07627 -7.05504 0
M  V30 7280 O 929.07 -5.88047 -5.19722 0
M  V30 7281 O 929.107 -4.2322 -7.04443 0
M  V30 7282 C 928.947 -3.99743 -8.4911 0
M  V30 7283 C 929.487 -2.60516 -8.79425 0
M  V30 7284 O 928.431 -1.82684 -8.4467 0
M  V30 7285 C 930.705 -2.10343 -8.03628 0
M  V30 7286 O 931.443 -1.09919 -8.67766 0
M  V30 7287 C 930.036 -1.68446 -6.70876 0
M  V30 7288 O 930.835 -0.678137 -6.08433 0
M  V30 7289 C 928.699 -1.17436 -7.18567 0
M  V30 7290 H 928.731 -0.0804732 -7.31656 0
M  V30 7291 H 929.914 -2.54037 -6.02537 0
M  V30 7292 H 931.398 -2.93881 -7.85526 0
M  V30 7293 H 929.704 -2.53065 -9.86973 0
M  V30 7294 H 929.514 -4.75072 -9.05887 0
M  V30 7295 H 927.884 -4.05244 -8.76668 0
M  V30 7296 H 930.523 0.177647 -6.34251 0
M  V30 7297 P 932.38 -1.25109 -8.70152 0
M  V30 7298 O 933.802 -1.29744 -9.22016 0
M  V30 7299 O 932.02 -2.13714 -7.55141 0
M  V30 7300 O 932.057 0.248149 -8.21425 0
M  V30 7301 C 931.897 1.22779 -9.30434 0
M  V30 7302 C 932.437 2.56293 -8.80664 0
M  V30 7303 O 931.381 3.02979 -8.09349 0
M  V30 7304 C 933.655 2.57523 -7.89775 0
M  V30 7305 O 934.393 3.7668 -7.89438 0
M  V30 7306 C 932.986 2.20997 -6.55446 0
M  V30 7307 O 933.785 2.71895 -5.48509 0
M  V30 7308 C 931.649 2.89693 -6.67988 0
M  V30 7309 H 931.681 3.88793 -6.19859 0
M  V30 7310 H 932.864 1.12046 -6.44229 0
M  V30 7311 H 934.348 1.7746 -8.19711 0
M  V30 7312 H 932.654 3.20706 -9.67112 0
M  V30 7313 H 932.464 0.901032 -10.1892 0
M  V30 7314 H 930.834 1.33049 -9.56592 0
M  V30 7315 H 933.473 3.57847 -5.23962 0
M  V30 7316 P 935.331 3.65191 -7.99657 0
M  V30 7317 O 936.752 3.89374 -8.45885 0
M  V30 7318 O 934.971 2.28472 -7.50807 0
M  V30 7319 O 935.008 4.64972 -6.77611 0
M  V30 7320 C 934.847 6.06383 -7.16428 0
M  V30 7321 C 935.388 6.91731 -6.02299 0
M  V30 7322 O 934.333 6.92369 -5.17005 0
M  V30 7323 C 936.606 6.43627 -5.25174 0
M  V30 7324 O 937.344 7.43686 -4.60469 0
M  V30 7325 C 935.938 5.40275 -4.31916 0
M  V30 7326 O 936.736 5.24878 -3.14911 0
M  V30 7327 C 934.6 6.04847 -4.05327 0
M  V30 7328 N 933.557 5.04166 -3.98114 0
M  V30 7329 C 933.726 3.84629 -4.59066 0
M  V30 7330 N 932.699 3.0363 -4.45343 0
M  V30 7331 C 931.814 3.76722 -3.68523 0
M  V30 7332 C 930.547 3.43528 -3.17088 0
M  V30 7333 N 929.982 4.44526 -2.44231 0
M  V30 7334 C 930.584 5.65243 -2.20146 0
M  V30 7335 N 931.761 6.00221 -2.65453 0
M  V30 7336 C 932.336 5.00564 -3.39083 0
M  V30 7337 H 935.815 4.42969 -4.80867 0
M  V30 7338 H 937.298 5.92458 -5.93643 0
M  V30 7339 H 935.604 7.93295 -6.39407 0
M  V30 7340 H 935.414 6.26671 -8.0846 0
M  V30 7341 H 933.784 6.29101 -7.32804 0
M  V30 7342 H 934.626 3.58193 -5.14248 0
M  V30 7343 H 936.424 5.84223 -2.47279 0
M  V30 7344 P 938.281 7.39546 -4.75277 0
M  V30 7345 O 939.703 7.84798 -5.01039 0
M  V30 7346 O 937.921 5.9812 -5.08098 0
M  V30 7347 O 937.958 7.57503 -3.1866 0
M  V30 7348 C 937.798 8.97357 -2.74833 0
M  V30 7349 C 938.338 9.07548 -1.32709 0
M  V30 7350 O 937.282 8.62072 -0.606159 0
M  V30 7351 C 939.556 8.25383 -0.938334 0
M  V30 7352 O 940.294 8.74577 0.146954 0
M  V30 7353 C 938.887 6.8802 -0.712559 0
M  V30 7354 O 939.686 6.1189 0.194655 0
M  V30 7355 C 937.55 7.27966 -0.139777 0
M  V30 7356 H 937.582 7.25354 0.961601 0
M  V30 7357 H 938.765 6.32557 -1.65702 0
M  V30 7358 H 940.249 8.19355 -1.79097 0
M  V30 7359 H 938.555 10.1294 -1.10029 0
M  V30 7360 H 938.365 9.64276 -3.41316 0
M  V30 7361 H 936.735 9.25417 -2.76357 0
M  V30 7362 H 939.374 6.25267 1.07847 0
M  V30 7363 P 941.232 8.791 7.24582e-12 0
M  V30 7364 O 942.654 9.31096 0.027933 0
M  V30 7365 O 940.872 7.77869 -1.04071 0
M  V30 7366 O 940.909 8.09533 1.41463 0
M  V30 7367 C 940.749 9.0349 2.53943 0
M  V30 7368 C 941.289 8.35226 3.79016 0
M  V30 7369 O 940.233 7.57992 4.15078 0
M  V30 7370 C 942.507 7.45087 3.67298 0
M  V30 7371 O 943.245 7.27796 4.85194 0
M  V30 7372 C 941.838 6.17323 3.12027 0
M  V30 7373 O 942.637 5.04231 3.47188 0
M  V30 7374 C 940.501 6.19961 3.81809 0
M  V30 7375 H 940.533 5.58218 4.73051 0
M  V30 7376 H 941.716 6.21726 2.02589 0
M  V30 7377 H 943.2 7.86112 2.9231 0
M  V30 7378 H 941.506 9.11627 4.55076 0
M  V30 7379 H 941.316 9.9573 2.34194 0
M  V30 7380 H 939.686 9.2792 2.67832 0
M  V30 7381 H 942.325 4.67702 4.28772 0
M  V30 7382 P 944.182 7.39546 4.75277 0
M  V30 7383 O 945.604 7.81777 5.05738 0
M  V30 7384 O 943.822 7.1065 3.32998 0
M  V30 7385 O 943.859 6.04542 5.56673 0
M  V30 7386 C 943.699 6.22772 7.02095 0
M  V30 7387 C 944.239 4.97725 7.70406 0
M  V30 7388 O 943.183 4.13256 7.58987 0
M  V30 7389 C 945.457 4.28231 7.11815 0
M  V30 7390 O 946.195 3.49945 8.01648 0
M  V30 7391 C 944.788 3.5063 5.96244 0
M  V30 7392 O 945.587 2.36482 5.64681 0
M  V30 7393 C 943.451 3.15122 6.56374 0
M  V30 7394 H 943.483 2.13853 6.99751 0
M  V30 7395 H 944.666 4.13501 5.06559 0
M  V30 7396 H 946.15 5.03285 6.70911 0
M  V30 7397 H 944.456 5.20877 8.75697 0
M  V30 7398 H 944.266 7.11046 7.35349 0
M  V30 7399 H 942.636 6.35815 7.26986 0
M  V30 7400 H 945.275 1.61644 6.13565 0
M  V30 7401 P 947.133 3.65191 7.99657 0
M  V30 7402 O 948.555 3.8425 8.48115 0
M  V30 7403 O 946.773 4.17805 6.64342 0
M  V30 7404 O 946.81 2.07613 7.95143 0
M  V30 7405 C 946.65 1.44328 9.27336 0
M  V30 7406 C 947.19 0.0220036 9.17197 0
M  V30 7407 O 946.134 -0.626867 8.61923 0
M  V30 7408 C 948.408 -0.24586 8.30336 0
M  V30 7409 O 949.146 -1.39011 8.63583 0
M  V30 7410 C 947.739 -0.273849 6.91158 0
M  V30 7411 O 948.538 -1.06348 6.02892 0
M  V30 7412 C 946.402 -0.897649 7.22545 0
M  V30 7413 H 946.434 -1.9841 7.04286 0
M  V30 7414 H 947.617 0.739928 6.497 0
M  V30 7415 H 949.101 0.60668 8.36503 0
M  V30 7416 H 947.407 -0.352479 10.1829 0
M  V30 7417 H 947.217 2.00611 10.0304 0
M  V30 7418 H 945.587 1.41843 9.55327 0
M  V30 7419 H 948.226 -1.95734 6.03555 0
M  V30 7420 P 950.084 -1.25109 8.70152 0
M  V30 7421 O 951.505 -1.35288 9.2132 0
M  V30 7422 O 949.724 -0.0769065 7.84762 0
M  V30 7423 O 949.761 -2.55232 7.81161 0
M  V30 7424 C 949.6 -3.79979 8.58246 0
M  V30 7425 C 950.141 -4.94023 7.72785 0
M  V30 7426 O 949.086 -5.18666 6.91125 0
M  V30 7427 C 951.359 -4.69597 6.85231 0
M  V30 7428 O 952.097 -5.83832 6.51337 0
M  V30 7429 C 950.691 -3.96706 5.66633 0
M  V30 7430 O 951.489 -4.14896 4.5003 0
M  V30 7431 C 949.353 -4.66153 5.59313 0
M  V30 7432 N 948.31 -3.71582 5.24027 0
M  V30 7433 C 948.479 -2.39715 5.48833 0
M  V30 7434 N 947.452 -1.65863 5.12845 0
M  V30 7435 C 946.567 -2.57637 4.5973 0
M  V30 7436 C 945.3 -2.40278 4.01027 0
M  V30 7437 N 944.735 -3.57711 3.59575 0
M  V30 7438 C 945.337 -4.80324 3.70476 0
M  V30 7439 N 946.514 -5.01121 4.23801 0
M  V30 7440 C 947.089 -3.84757 4.66372 0
M  V30 7441 H 950.568 -2.8955 5.86187 0
M  V30 7442 H 952.051 -4.0121 7.36511 0
M  V30 7443 H 950.357 -5.81019 8.37003 0
M  V30 7444 H 950.167 -3.73517 9.52265 0
M  V30 7445 H 948.537 -3.97163 8.80359 0
M  V30 7446 H 949.379 -1.98804 5.94332 0
M  V30 7447 H 951.177 -4.90891 4.01857 0
M  V30 7448 P 953.034 -5.75688 6.64379 0
M  V30 7449 O 954.456 -6.11849 7.01846 0
M  V30 7450 O 952.674 -4.30744 6.56026 0
M  V30 7451 O 952.711 -6.37042 5.19165 0
M  V30 7452 C 952.551 -7.83578 5.16515 0
M  V30 7453 C 953.091 -8.33398 3.83019 0
M  V30 7454 O 952.035 -8.10074 3.01034 0
M  V30 7455 C 954.309 -7.65514 3.2257 0
M  V30 7456 O 955.047 -8.4329 2.32297 0
M  V30 7457 C 953.64 -6.40075 2.62207 0
M  V30 7458 O 954.439 -5.92589 1.53712 0
M  V30 7459 C 952.303 -6.9454 2.18503 0
M  V30 7460 H 952.335 -7.23063 1.12091 0
M  V30 7461 H 953.518 -5.6025 3.37201 0
M  V30 7462 H 955.002 -7.35707 4.02681 0
M  V30 7463 H 953.308 -9.40912 3.9095 0
M  V30 7464 H 953.118 -8.29056 5.99158 0
M  V30 7465 H 951.488 -8.10073 5.25882 0
M  V30 7466 H 954.127 -6.30324 0.726794 0
M  V30 7467 P 955.985 -8.4349 2.47671 0
M  V30 7468 O 957.407 -8.94167 2.5964 0
M  V30 7469 O 955.625 -7.1704 3.19006 0
M  V30 7470 O 955.662 -8.16596 0.923387 0
M  V30 7471 C 955.502 -9.38437 0.108857 0
M  V30 7472 C 956.042 -9.08175 -1.28353 0
M  V30 7473 O 954.986 -8.44229 -1.84713 0
M  V30 7474 C 957.26 -8.18386 -1.42505 0
M  V30 7475 O 957.998 -8.3501 -2.60497 0
M  V30 7476 C 956.591 -6.80225 -1.25468 0
M  V30 7477 O 957.39 -5.81621 -1.91066 0
M  V30 7478 C 955.254 -7.02416 -1.9168 0
M  V30 7479 H 955.286 -6.6888 -2.96621 0
M  V30 7480 H 956.469 -6.53617 -0.192223 0
M  V30 7481 H 957.953 -8.36622 -0.589963 0
M  V30 7482 H 956.259 -10.0291 -1.79807 0
M  V30 7483 H 956.069 -10.2138 0.558219 0
M  V30 7484 H 954.439 -9.6579 0.0444202 0
M  V30 7485 H 957.078 -5.69556 -2.79637 0
M  V30 7486 P 958.935 -8.4349 -2.47671 0
M  V30 7487 O 960.357 -8.92593 -2.65 0
M  V30 7488 O 958.575 -7.7568 -1.19296 0
M  V30 7489 O 958.612 -7.36886 -3.63805 0
M  V30 7490 C 958.452 -7.95349 -4.982 0
M  V30 7491 C 958.992 -6.94612 -5.98974 0
M  V30 7492 O 957.936 -6.10347 -6.11815 0
M  V30 7493 C 960.21 -6.11426 -5.62335 0
M  V30 7494 O 960.948 -5.6162 -6.70584 0
M  V30 7495 C 959.541 -5.04409 -4.73308 0
M  V30 7496 O 960.34 -3.85992 -4.75183 0
M  V30 7497 C 958.204 -4.8728 -5.41006 0
M  V30 7498 H 958.236 -4.02333 -6.11157 0
M  V30 7499 H 959.419 -5.39466 -3.69543 0
M  V30 7500 H 960.903 -6.71916 -5.01943 0
M  V30 7501 H 959.209 -7.4649 -6.93477 0
M  V30 7502 H 959.019 -8.89416 -5.05237 0
M  V30 7503 H 957.389 -8.14876 -5.18409 0
M  V30 7504 H 960.028 -3.27957 -5.4317 0
M  V30 7505 P 961.886 -5.75688 -6.64379 0
M  V30 7506 O 963.308 -6.07627 -7.05504 0
M  V30 7507 O 961.526 -5.88047 -5.19722 0
M  V30 7508 O 961.563 -4.2322 -7.04443 0
M  V30 7509 C 961.403 -3.99743 -8.4911 0
M  V30 7510 C 961.943 -2.60516 -8.79425 0
M  V30 7511 O 960.887 -1.82684 -8.4467 0
M  V30 7512 C 963.161 -2.10343 -8.03628 0
M  V30 7513 O 963.899 -1.09919 -8.67766 0
M  V30 7514 C 962.492 -1.68446 -6.70876 0
M  V30 7515 O 963.291 -0.678137 -6.08433 0
M  V30 7516 C 961.155 -1.17436 -7.18567 0
M  V30 7517 H 961.187 -0.0804732 -7.31656 0
M  V30 7518 H 962.37 -2.54037 -6.02537 0
M  V30 7519 H 963.854 -2.93881 -7.85526 0
M  V30 7520 H 962.16 -2.53065 -9.86973 0
M  V30 7521 H 961.97 -4.75072 -9.05887 0
M  V30 7522 H 960.34 -4.05244 -8.76668 0
M  V30 7523 H 962.979 0.177647 -6.34251 0
M  V30 7524 P 964.836 -1.25109 -8.70152 0
M  V30 7525 O 966.258 -1.29744 -9.22016 0
M  V30 7526 O 964.476 -2.13714 -7.55141 0
M  V30 7527 O 964.513 0.248149 -8.21425 0
M  V30 7528 C 964.353 1.22779 -9.30434 0
M  V30 7529 C 964.893 2.56293 -8.80664 0
M  V30 7530 O 963.837 3.02979 -8.09349 0
M  V30 7531 C 966.111 2.57523 -7.89775 0
M  V30 7532 O 966.849 3.7668 -7.89438 0
M  V30 7533 C 965.442 2.20997 -6.55446 0
M  V30 7534 O 966.241 2.71895 -5.48509 0
M  V30 7535 C 964.105 2.89693 -6.67988 0
M  V30 7536 H 964.137 3.88793 -6.19859 0
M  V30 7537 H 965.32 1.12046 -6.44229 0
M  V30 7538 H 966.804 1.7746 -8.19711 0
M  V30 7539 H 965.11 3.20706 -9.67112 0
M  V30 7540 H 964.92 0.901032 -10.1892 0
M  V30 7541 H 963.29 1.33049 -9.56592 0
M  V30 7542 H 965.929 3.57847 -5.23962 0
M  V30 7543 P 967.787 3.65191 -7.99657 0
M  V30 7544 O 969.209 3.89332 -8.45794 0
M  V30 7545 O 967.427 2.28472 -7.50807 0
M  V30 7546 O 967.464 4.64972 -6.77611 0
M  V30 7547 C 967.304 6.06319 -7.16352 0
M  V30 7548 C 967.844 6.91731 -6.02299 0
M  V30 7549 O 966.788 6.92449 -5.17064 0
M  V30 7550 C 969.062 6.43627 -5.25174 0
M  V30 7551 O 969.8 7.43686 -4.60469 0
M  V30 7552 C 968.393 5.40275 -4.31916 0
M  V30 7553 O 969.192 5.25279 -3.14438 0
M  V30 7554 C 967.056 6.04847 -4.05327 0
M  V30 7555 H 967.088 6.62195 -3.11261 0
M  V30 7556 H 968.271 4.42556 -4.81383 0
M  V30 7557 H 969.755 5.92458 -5.93643 0
M  V30 7558 H 968.061 7.92655 -6.402 0
M  V30 7559 H 967.871 6.26671 -8.0846 0
M  V30 7560 H 966.241 6.29101 -7.32804 0
M  V30 7561 H 968.88 5.84315 -2.47318 0
M  V30 7562 P 970.738 7.39546 -4.75277 0
M  V30 7563 O 972.16 7.84798 -5.01039 0
M  V30 7564 O 970.378 5.9812 -5.08098 0
M  V30 7565 O 970.415 7.57503 -3.1866 0
M  V30 7566 C 970.255 8.97357 -2.74833 0
M  V30 7567 C 970.795 9.07548 -1.32709 0
M  V30 7568 O 969.739 8.62072 -0.606159 0
M  V30 7569 C 972.013 8.25383 -0.938334 0
M  V30 7570 O 972.751 8.74577 0.146954 0
M  V30 7571 C 971.344 6.8802 -0.712559 0
M  V30 7572 O 972.143 6.1189 0.194655 0
M  V30 7573 C 970.007 7.27966 -0.139777 0
M  V30 7574 H 970.039 7.25354 0.961601 0
M  V30 7575 H 971.222 6.32557 -1.65702 0
M  V30 7576 H 972.706 8.19355 -1.79097 0
M  V30 7577 H 971.012 10.1294 -1.10029 0
M  V30 7578 H 970.822 9.64276 -3.41316 0
M  V30 7579 H 969.192 9.25417 -2.76357 0
M  V30 7580 H 971.831 6.25267 1.07847 0
M  V30 7581 P 973.688 8.791 7.55599e-12 0
M  V30 7582 O 975.11 9.31296 0.027939 0
M  V30 7583 O 973.328 7.77869 -1.04071 0
M  V30 7584 O 973.365 8.09533 1.41463 0
M  V30 7585 C 973.205 9.0349 2.53943 0
M  V30 7586 C 973.745 8.35135 3.78975 0
M  V30 7587 O 972.69 7.57992 4.15078 0
M  V30 7588 C 974.963 7.45087 3.67298 0
M  V30 7589 O 975.701 7.27796 4.85194 0
M  V30 7590 C 974.295 6.17323 3.12027 0
M  V30 7591 O 975.093 5.04149 3.47132 0
M  V30 7592 C 972.957 6.19961 3.81809 0
M  V30 7593 N 971.914 5.71575 2.93223 0
M  V30 7594 C 971.976 5.97133 1.62693 0
M  V30 7595 N 970.931 5.44066 0.984414 0
M  V30 7596 C 970.197 4.87093 1.93987 0
M  V30 7597 C 968.891 4.26449 1.8738 0
M  V30 7598 O 968.158 4.1089 0.884377 0
M  V30 7599 N 968.461 3.82483 3.08036 0
M  V30 7600 C 969.21 3.95124 4.27727 0
M  V30 7601 N 968.613 3.4084 5.39089 0
M  V30 7602 N 970.363 4.55264 4.3706 0
M  V30 7603 C 970.82 5.00861 3.18217 0
M  V30 7604 H 972.989 5.58218 4.73051 0
M  V30 7605 H 974.172 6.21631 2.02558 0
M  V30 7606 H 975.657 7.85819 2.93096 0
M  V30 7607 H 973.962 9.11627 4.55076 0
M  V30 7608 H 973.772 9.9573 2.34194 0
M  V30 7609 H 972.141 9.2792 2.67832 0
M  V30 7610 H 967.565 3.38323 3.1329 0
M  V30 7611 H 972.772 6.53891 1.14265 0
M  V30 7612 H 967.702 2.93852 5.30559 0
M  V30 7613 H 969.078 3.47631 6.30632 0
M  V30 7614 H 974.782 4.67628 4.28704 0
M  V30 7615 P 976.639 7.39546 4.75277 0
M  V30 7616 O 978.061 7.81777 5.05738 0
M  V30 7617 O 976.279 7.1065 3.32998 0
M  V30 7618 O 976.316 6.04542 5.56673 0
M  V30 7619 C 976.156 6.22772 7.02095 0
M  V30 7620 C 976.696 4.97725 7.70406 0
M  V30 7621 O 975.64 4.13256 7.58987 0
M  V30 7622 C 977.914 4.28231 7.11815 0
M  V30 7623 O 978.652 3.49945 8.01648 0
M  V30 7624 C 977.245 3.5063 5.96244 0
M  V30 7625 O 978.044 2.36482 5.64681 0
M  V30 7626 C 975.908 3.15122 6.56374 0
M  V30 7627 H 975.94 2.13853 6.99751 0
M  V30 7628 H 977.123 4.13501 5.06559 0
M  V30 7629 H 978.607 5.03285 6.70911 0
M  V30 7630 H 976.913 5.20877 8.75697 0
M  V30 7631 H 976.723 7.11046 7.35349 0
M  V30 7632 H 975.093 6.35815 7.26986 0
M  V30 7633 H 977.732 1.61644 6.13565 0
M  V30 7634 P 979.589 3.65191 7.99657 0
M  V30 7635 O 981.011 3.8425 8.48115 0
M  V30 7636 O 979.229 4.17805 6.64342 0
M  V30 7637 O 979.266 2.07613 7.95143 0
M  V30 7638 C 979.106 1.44328 9.27336 0
M  V30 7639 C 979.646 0.0220036 9.17197 0
M  V30 7640 O 978.59 -0.626867 8.61923 0
M  V30 7641 C 980.864 -0.24586 8.30336 0
M  V30 7642 O 981.602 -1.39011 8.63583 0
M  V30 7643 C 980.195 -0.273849 6.91158 0
M  V30 7644 O 980.994 -1.06348 6.02892 0
M  V30 7645 C 978.858 -0.897649 7.22545 0
M  V30 7646 H 978.89 -1.9841 7.04286 0
M  V30 7647 H 980.073 0.739928 6.497 0
M  V30 7648 H 981.557 0.60668 8.36503 0
M  V30 7649 H 979.863 -0.352479 10.1829 0
M  V30 7650 H 979.673 2.00611 10.0304 0
M  V30 7651 H 978.043 1.41843 9.55327 0
M  V30 7652 H 980.682 -1.95734 6.03555 0
M  V30 7653 P 982.54 -1.25109 8.70152 0
M  V30 7654 O 983.961 -1.35288 9.2132 0
M  V30 7655 O 982.18 -0.0769065 7.84762 0
M  V30 7656 O 982.217 -2.55232 7.81161 0
M  V30 7657 C 982.056 -3.79979 8.58246 0
M  V30 7658 C 982.597 -4.94023 7.72785 0
M  V30 7659 O 981.542 -5.18666 6.91125 0
M  V30 7660 C 983.815 -4.69597 6.85231 0
M  V30 7661 O 984.553 -5.83832 6.51337 0
M  V30 7662 C 983.147 -3.96706 5.66633 0
M  V30 7663 O 983.945 -4.14896 4.5003 0
M  V30 7664 C 981.809 -4.66153 5.59313 0
M  V30 7665 N 980.766 -3.71582 5.24027 0
M  V30 7666 C 980.935 -2.39715 5.48833 0
M  V30 7667 N 979.908 -1.65863 5.12845 0
M  V30 7668 C 979.023 -2.57637 4.5973 0
M  V30 7669 C 977.756 -2.40278 4.01027 0
M  V30 7670 N 977.191 -3.57711 3.59575 0
M  V30 7671 C 977.793 -4.80324 3.70476 0
M  V30 7672 N 978.97 -5.01121 4.23801 0
M  V30 7673 C 979.545 -3.84757 4.66372 0
M  V30 7674 H 983.024 -2.8955 5.86187 0
M  V30 7675 H 984.507 -4.0121 7.36511 0
M  V30 7676 H 982.813 -5.81019 8.37003 0
M  V30 7677 H 982.623 -3.73517 9.52265 0
M  V30 7678 H 980.993 -3.97163 8.80359 0
M  V30 7679 H 981.835 -1.98804 5.94332 0
M  V30 7680 H 983.633 -4.90891 4.01857 0
M  V30 7681 P 985.49 -5.75688 6.64379 0
M  V30 7682 O 986.912 -6.11849 7.01846 0
M  V30 7683 O 985.13 -4.30744 6.56026 0
M  V30 7684 O 985.167 -6.37042 5.19165 0
M  V30 7685 C 985.007 -7.83578 5.16515 0
M  V30 7686 C 985.547 -8.33398 3.83019 0
M  V30 7687 O 984.491 -8.10074 3.01034 0
M  V30 7688 C 986.765 -7.65514 3.2257 0
M  V30 7689 O 987.503 -8.4329 2.32297 0
M  V30 7690 C 986.096 -6.40075 2.62207 0
M  V30 7691 O 986.895 -5.92589 1.53712 0
M  V30 7692 C 984.759 -6.9454 2.18503 0
M  V30 7693 H 984.791 -7.23063 1.12091 0
M  V30 7694 H 985.974 -5.6025 3.37201 0
M  V30 7695 H 987.458 -7.35707 4.02681 0
M  V30 7696 H 985.764 -9.40912 3.9095 0
M  V30 7697 H 985.574 -8.29056 5.99158 0
M  V30 7698 H 983.944 -8.10073 5.25882 0
M  V30 7699 H 986.583 -6.30324 0.726794 0
M  V30 7700 P 988.441 -8.4349 2.47671 0
M  V30 7701 O 989.863 -8.94167 2.5964 0
M  V30 7702 O 988.081 -7.1704 3.19006 0
M  V30 7703 O 988.118 -8.16596 0.923387 0
M  V30 7704 C 987.958 -9.38437 0.108857 0
M  V30 7705 C 988.498 -9.08175 -1.28353 0
M  V30 7706 O 987.442 -8.44229 -1.84713 0
M  V30 7707 C 989.716 -8.18386 -1.42505 0
M  V30 7708 O 990.454 -8.3501 -2.60497 0
M  V30 7709 C 989.047 -6.80225 -1.25468 0
M  V30 7710 O 989.846 -5.81621 -1.91066 0
M  V30 7711 C 987.71 -7.02416 -1.9168 0
M  V30 7712 H 987.742 -6.6888 -2.96621 0
M  V30 7713 H 988.925 -6.53617 -0.192223 0
M  V30 7714 H 990.409 -8.36622 -0.589963 0
M  V30 7715 H 988.715 -10.0291 -1.79807 0
M  V30 7716 H 988.525 -10.2138 0.558219 0
M  V30 7717 H 986.895 -9.6579 0.0444202 0
M  V30 7718 H 989.534 -5.69556 -2.79637 0
M  V30 7719 P 991.392 -8.4349 -2.47671 0
M  V30 7720 O 992.814 -8.92593 -2.65 0
M  V30 7721 O 991.032 -7.7568 -1.19296 0
M  V30 7722 O 991.069 -7.36886 -3.63805 0
M  V30 7723 C 990.909 -7.95349 -4.982 0
M  V30 7724 C 991.449 -6.94612 -5.98974 0
M  V30 7725 O 990.393 -6.10347 -6.11815 0
M  V30 7726 C 992.667 -6.11426 -5.62335 0
M  V30 7727 O 993.405 -5.6162 -6.70584 0
M  V30 7728 C 991.998 -5.04409 -4.73308 0
M  V30 7729 O 992.797 -3.85992 -4.75183 0
M  V30 7730 C 990.661 -4.8728 -5.41006 0
M  V30 7731 H 990.693 -4.02333 -6.11157 0
M  V30 7732 H 991.876 -5.39466 -3.69543 0
M  V30 7733 H 993.36 -6.71916 -5.01943 0
M  V30 7734 H 991.666 -7.4649 -6.93477 0
M  V30 7735 H 991.476 -8.89416 -5.05237 0
M  V30 7736 H 989.846 -8.14876 -5.18409 0
M  V30 7737 H 992.485 -3.27957 -5.4317 0
M  V30 7738 P 994.342 -5.75688 -6.64379 0
M  V30 7739 O 995.764 -6.07627 -7.05504 0
M  V30 7740 O 993.982 -5.88047 -5.19722 0
M  V30 7741 O 994.019 -4.2322 -7.04443 0
M  V30 7742 C 993.859 -3.99743 -8.4911 0
M  V30 7743 C 994.399 -2.60516 -8.79425 0
M  V30 7744 O 993.343 -1.82684 -8.4467 0
M  V30 7745 C 995.617 -2.10343 -8.03628 0
M  V30 7746 O 996.355 -1.09919 -8.67766 0
M  V30 7747 C 994.948 -1.68446 -6.70876 0
M  V30 7748 O 995.747 -0.678137 -6.08433 0
M  V30 7749 C 993.611 -1.17436 -7.18567 0
M  V30 7750 H 993.643 -0.0804732 -7.31656 0
M  V30 7751 H 994.826 -2.54037 -6.02537 0
M  V30 7752 H 996.31 -2.93881 -7.85526 0
M  V30 7753 H 994.616 -2.53065 -9.86973 0
M  V30 7754 H 994.426 -4.75072 -9.05887 0
M  V30 7755 H 992.796 -4.05244 -8.76668 0
M  V30 7756 H 995.435 0.177647 -6.34251 0
M  V30 7757 H 997.988 -1.2072 -8.15311 0
M  V30 END ATOM
M  V30 BEGIN BOND
M  V30 END BOND
M  V30 END CTAB
M  END
$$$$
