drugbank_target|P46925 Plasmepsin-2 (DB01218; DB02505; DB03063; DB04373; DB04378; DB11638)
 OpenBabel12092119583D

  0  0  0     0  0            999 V3000
M  V30 BEGIN CTAB
M  V30 COUNTS 7210 7298 0 0 0
M  V30 BEGIN ATOM
M  V30 1 H -0.908 1.98254 -0.117106 0
M  V30 2 N 0 1.576 0 0
M  V30 3 C 0.933 2.03868 1.02534 0
M  V30 4 C 1.911 0.928543 1.3348 0
M  V30 5 O 3.095 1.19667 1.45644 0
M  V30 6 C 0.222 2.43627 2.35294 0
M  V30 7 C -0.732 3.65373 2.2001 0
M  V30 8 S 0.101 5.13292 1.52614 0
M  V30 9 C 1.257 5.56322 2.86805 0
M  V30 10 H 1.49 2.90518 0.631377 0
M  V30 11 H -0.977 1.52953 0.210867 0
M  V30 12 H 0.981 2.67203 3.11629 0
M  V30 13 H -0.358 1.57376 2.7183 0
M  V30 14 H -1.165 3.90944 3.18086 0
M  V30 15 H -1.563 3.418 1.51819 0
M  V30 16 H 0.729 5.58782 3.83104 0
M  V30 17 H 1.672 6.56266 2.65933 0
M  V30 18 H 2.08 4.83886 2.90714 0
M  V30 19 N 1.4781 -0.272755 1.55222 0
M  V30 20 C 2.7551 -1.02562 1.66555 0
M  V30 21 C 3.1351 -2.04282 0.532189 0
M  V30 22 O 2.4831 -2.23662 -0.467717 0
M  V30 23 C 2.6931 -1.6822 3.05782 0
M  V30 24 C 4.0411 -2.19373 3.63539 0
M  V30 25 O 5.0651 -1.78206 3.08417 0
M  V30 26 O 3.9241 -2.94883 4.60115 0
M  V30 27 H 1.0181 -0.475755 0.676451 0
M  V30 28 H 3.5641 -0.268593 1.67561 0
M  V30 29 H 2.3361 -0.945112 3.79715 0
M  V30 30 H 1.9591 -2.50609 3.08676 0
M  V30 31 N 2.9562 -1.48159 -0.537278 0
M  V30 32 C 4.2052 -1.5506 -1.28993 0
M  V30 33 C 4.5182 -0.226211 -1.94288 0
M  V30 34 O 5.7242 -0.173395 -2.70946 0
M  V30 35 C 4.1802 -2.73429 -2.34018 0
M  V30 36 C 3.7882 -4.1248 -1.74825 0
M  V30 37 C 5.5322 -2.89638 -3.10339 0
M  V30 38 C 3.4392 -5.22121 -2.77747 0
M  V30 39 H 2.3692 -0.577231 -0.485098 0
M  V30 40 H 5.0202 -1.74478 -0.568317 0
M  V30 41 H 3.4022 -2.47431 -3.09182 0
M  V30 42 H 4.5762 -4.48466 -1.05899 0
M  V30 43 H 2.8912 -4.01327 -1.11022 0
M  V30 44 H 5.4882 -3.68718 -3.87235 0
M  V30 45 H 5.8312 -1.9882 -3.65754 0
M  V30 46 H 6.3642 -3.15502 -2.42288 0
M  V30 47 H 3.1032 -6.1488 -2.27161 0
M  V30 48 H 2.6232 -4.90631 -3.45024 0
M  V30 49 H 4.3022 -5.49924 -3.4087 0
M  V30 50 N 4.4343 0.785586 -1.36625 0
M  V30 51 C 5.6623 1.57448 -1.3423 0
M  V30 52 C 6.0773 1.88649 0.0755653 0
M  V30 53 O 5.4343 1.50414 1.03354 0
M  V30 54 C 5.4853 2.89316 -2.16745 0
M  V30 55 O 5.2063 2.59459 -3.53005 0
M  V30 56 C 6.7073 3.83606 -2.22174 0
M  V30 57 H 3.9273 0.488226 -0.4603 0
M  V30 58 H 6.4713 0.974733 -1.79775 0
M  V30 59 H 4.6263 3.4575 -1.74745 0
M  V30 60 H 5.0403 3.43804 -3.96105 0
M  V30 61 H 6.5143 4.73181 -2.8426 0
M  V30 62 H 6.9913 4.21734 -1.22627 0
M  V30 63 H 7.5973 3.33104 -2.64427 0
M  V30 64 N 5.9124 1.20967 1.01018 0
M  V30 65 C 7.1584 1.02526 1.74975 0
M  V30 66 C 7.4914 -0.4408 1.89131 0
M  V30 67 O 6.7664 -1.32718 1.42184 0
M  V30 68 C 7.0494 1.71699 3.1653 0
M  V30 69 C 6.9024 3.25791 3.10129 0
M  V30 70 C 8.2214 1.45531 4.15342 0
M  V30 71 H 5.3404 0.373863 0.635134 0
M  V30 72 H 7.9824 1.49071 1.17805 0
M  V30 73 H 6.1324 1.32128 3.65341 0
M  V30 74 H 7.8044 3.74697 2.69072 0
M  V30 75 H 6.0474 3.56363 2.47362 0
M  V30 76 H 6.7184 3.69353 4.10222 0
M  V30 77 H 9.1944 1.79872 3.75213 0
M  V30 78 H 8.0704 1.96453 5.1254 0
M  V30 79 H 8.3314 0.384237 4.40427 0
M  V30 80 N 7.3905 -1.2043 1.01659 0
M  V30 81 C 8.8065 -1.41852 0.731442 0
M  V30 82 C 9.0065 -1.89358 -0.688898 0
M  V30 83 O 8.0625 -2.06247 -1.45666 0
M  V30 84 C 9.3755 -2.44019 1.75714 0
M  V30 85 C 10.9235 -2.57785 1.77527 0
M  V30 86 C 11.3985 -3.63194 2.79023 0
M  V30 87 N 12.8895 -3.70678 2.77763 0
M  V30 88 C 13.6245 -4.51897 3.52954 0
M  V30 89 N 13.1205 -5.36921 4.37821 0
M  V30 90 N 14.9135 -4.4643 3.41551 0
M  V30 91 H 7.0645 -0.879093 1.93354 0
M  V30 92 H 9.3275 -0.448425 0.835236 0
M  V30 93 H 9.0335 -2.1611 2.77469 0
M  V30 94 H 8.9075 -3.43007 1.56927 0
M  V30 95 H 11.2945 -2.85023 0.764569 0
M  V30 96 H 11.3755 -1.58992 2.00387 0
M  V30 97 H 11.0195 -3.36699 3.80258 0
M  V30 98 H 10.9495 -4.61609 2.53425 0
M  V30 99 H 13.4405 -3.09944 2.16201 0
M  V30 100 H 13.7535 -5.95981 4.91962 0
M  V30 101 H 12.0985 -5.36424 4.41899 0
M  V30 102 H 15.2895 -3.79042 2.74672 0
M  V30 103 H 15.4625 -5.09491 4.00404 0
M  V30 104 N 8.8686 -0.792821 -1.36206 0
M  V30 105 C 9.7786 -0.194808 -2.3379 0
M  V30 106 C 10.7946 0.654869 -1.61206 0
M  V30 107 O 11.9706 0.569856 -1.9317 0
M  V30 108 C 9.0356 0.657721 -3.40404 0
M  V30 109 C 8.0966 -0.210849 -4.28782 0
M  V30 110 C 7.3296 0.601086 -5.30304 0
M  V30 111 O 7.5526 1.83682 -5.40016 0
M  V30 112 O 6.4866 -0.000808277 -6.019 0
M  V30 113 H 10.3126 -1.00172 -2.86704 0
M  V30 114 H 7.8976 -0.554341 -1.38735 0
M  V30 115 H 9.7796 1.14375 -4.05581 0
M  V30 116 H 8.4546 1.44247 -2.89784 0
M  V30 117 H 7.3616 -0.743714 -3.66633 0
M  V30 118 H 8.6946 -0.959195 -4.82763 0
M  V30 119 N 10.3467 1.47872 -0.545128 0
M  V30 120 C 11.2967 2.26842 0.229456 0
M  V30 121 C 12.2807 1.33626 0.896267 0
M  V30 122 O 13.4727 1.58063 0.79657 0
M  V30 123 C 10.6017 3.19089 1.26638 0
M  V30 124 C 9.6877 4.19783 0.603598 0
M  V30 125 N 10.0787 5.0479 -0.319405 0
M  V30 126 C 8.3767 4.3765 0.858989 0
M  V30 127 C 9.0777 5.77433 -0.703241 0
M  V30 128 N 8.0537 5.43566 -0.0608309 0
M  V30 129 H 11.8557 2.89947 -0.480391 0
M  V30 130 H 9.3697 1.58263 -0.364209 0
M  V30 131 H 11.3667 3.74337 1.83515 0
M  V30 132 H 10.0267 2.5754 1.97745 0
M  V30 133 H 11.0377 5.13244 -0.692889 0
M  V30 134 H 7.7147 3.87281 1.55948 0
M  V30 135 H 9.1047 6.55824 -1.46098 0
M  V30 136 N 11.8248 0.280983 1.55075 0
M  V30 137 C 13.1018 -0.386207 1.91749 0
M  V30 138 C 13.4818 -1.73264 1.20594 0
M  V30 139 O 12.8298 -2.26034 0.334784 0
M  V30 140 C 13.0398 -0.520687 3.45094 0
M  V30 141 C 14.3878 -0.800865 4.16979 0
M  V30 142 O 15.4118 -0.605271 3.5102 0
M  V30 143 O 14.2708 -1.1753 5.33712 0
M  V30 144 H 11.3648 -0.212408 0.799257 0
M  V30 145 H 13.9108 0.327568 1.66509 0
M  V30 146 H 12.6828 0.426633 3.88967 0
M  V30 147 H 12.3058 -1.2837 3.76307 0
M  V30 148 N 13.3029 -1.57598 0.00835791 0
M  V30 149 C 14.5499 -1.90928 -0.674732 0
M  V30 150 C 14.8779 -0.88277 -1.73313 0
M  V30 151 O 14.1329 0.111294 -1.95383 0
M  V30 152 C 14.4319 -3.3101 -1.34787 0
M  V30 153 C 14.0979 -4.48922 -0.421861 0
M  V30 154 C 12.7599 -4.8091 -0.166927 0
M  V30 155 C 15.1119 -5.20755 0.215211 0
M  V30 156 C 12.4399 -5.821 0.733232 0
M  V30 157 C 14.7919 -6.22905 1.1033 0
M  V30 158 C 13.4559 -6.53346 1.36733 0
M  V30 159 H 12.7259 -0.698656 -0.246902 0
M  V30 160 H 15.3729 -1.91387 0.0656779 0
M  V30 161 H 13.6779 -3.26714 -2.16253 0
M  V30 162 H 15.3749 -3.54061 -1.8826 0
M  V30 163 H 11.9649 -4.23934 -0.630729 0
M  V30 164 H 16.1489 -4.9629 0.0312829 0
M  V30 165 H 11.4049 -6.04042 0.945712 0
M  V30 166 H 15.5789 -6.77694 1.60325 0
M  V30 167 H 13.2059 -7.31573 2.06652 0
M  V30 168 N 14.781 0.264519 -1.55364 0
M  V30 169 C 15.728 1.32717 -1.88825 0
M  V30 170 C 16.698 1.48675 -0.740605 0
M  V30 171 O 17.883 1.62945 -0.992657 0
M  V30 172 C 15.023 2.68089 -2.17307 0
M  V30 173 C 14.136 2.60284 -3.44785 0
M  V30 174 C 13.271 3.87892 -3.62924 0
M  V30 175 C 12.31 3.74631 -4.84064 0
M  V30 176 N 11.447 4.94092 -4.98816 0
M  V30 177 H 16.287 1.03481 -2.79456 0
M  V30 178 H 13.824 0.499757 -1.3835 0
M  V30 179 H 15.782 3.46864 -2.31821 0
M  V30 180 H 14.412 2.95509 -1.299 0
M  V30 181 H 13.464 1.73173 -3.38697 0
M  V30 182 H 14.776 2.46388 -4.33698 0
M  V30 183 H 13.93 4.75109 -3.77302 0
M  V30 184 H 12.669 4.04664 -2.7221 0
M  V30 185 H 11.674 2.85797 -4.69681 0
M  V30 186 H 12.899 3.5937 -5.76221 0
M  V30 187 H 10.845 5.11259 -4.11036 0
M  V30 188 H 10.762 4.8276 -5.81789 0
M  V30 189 H 12.03 5.82857 -5.17588 0
M  V30 190 N 16.2591 1.48442 0.529413 0
M  V30 191 C 17.2091 1.59407 1.63014 0
M  V30 192 C 18.1931 0.451166 1.54445 0
M  V30 193 O 19.3851 0.702635 1.62456 0
M  V30 194 C 16.5141 1.63746 3.01732 0
M  V30 195 C 15.6001 2.83518 3.15402 0
M  V30 196 N 15.9911 4.07929 2.99045 0
M  V30 197 C 14.2891 2.80862 3.46457 0
M  V30 198 C 14.9901 4.8829 3.16146 0
M  V30 199 N 13.9661 4.21117 3.43746 0
M  V30 200 H 17.7681 2.53343 1.48978 0
M  V30 201 H 15.2821 1.44821 0.734885 0
M  V30 202 H 17.2791 1.69695 3.80801 0
M  V30 203 H 15.9391 0.709264 3.16859 0
M  V30 204 H 16.9501 4.38357 2.75796 0
M  V30 205 H 13.6271 1.97301 3.67938 0
M  V30 206 H 15.0171 5.97028 3.08232 0
M  V30 207 N 17.7372 -0.778329 1.37039 0
M  V30 208 C 18.9852 -1.53361 1.31623 0
M  V30 209 C 19.3062 -1.94739 -0.100831 0
M  V30 210 O 18.5762 -1.65797 -1.04347 0
M  V30 211 H 17.1562 -0.568794 0.484234 0
M  V30 212 H 19.8182 -0.926742 1.71457 0
M  V30 213 H 18.9142 -2.43606 1.95096 0
M  V30 214 N 19.2153 -1.21501 -1.00376 0
M  V30 215 C 20.4623 -1.03299 -1.74171 0
M  V30 216 C 20.7903 0.433326 -1.89612 0
M  V30 217 O 20.0453 1.33779 -1.42834 0
M  V30 218 C 20.3443 -1.67673 -3.15627 0
M  V30 219 C 20.0103 -3.17533 -3.2013 0
M  V30 220 C 18.6723 -3.58427 -3.21067 0
M  V30 221 C 21.0243 -4.13504 -3.17275 0
M  V30 222 C 18.3523 -4.93794 -3.16835 0
M  V30 223 C 20.7043 -5.48834 -3.14585 0
M  V30 224 C 19.3683 -5.89123 -3.13831 0
M  V30 225 H 18.6383 -0.377999 -0.637336 0
M  V30 226 H 21.2853 -1.51111 -1.17634 0
M  V30 227 H 19.5903 -1.12158 -3.75404 0
M  V30 228 H 21.2873 -1.51091 -3.71446 0
M  V30 229 H 17.8773 -2.84965 -3.20145 0
M  V30 230 H 22.0613 -3.82936 -3.15711 0
M  V30 231 H 17.3173 -5.24255 -3.1459 0
M  V30 232 H 21.4913 -6.22934 -3.1133 0
M  V30 233 H 19.1183 -6.93984 -3.10307 0
M  V30 234 N 20.6934 1.19889 -1.02296 0
M  V30 235 C 21.9424 1.88743 -0.711257 0
M  V30 236 C 22.2554 1.80112 0.762817 0
M  V30 237 O 23.4614 2.44161 1.18733 0
M  V30 238 C 21.9174 3.38525 -1.22185 0
M  V30 239 C 21.5254 3.55727 -2.72328 0
M  V30 240 C 23.2694 4.12893 -0.985864 0
M  V30 241 C 21.1764 4.99369 -3.16835 0
M  V30 242 H 20.1064 0.706885 -0.262353 0
M  V30 243 H 22.7574 1.35586 -1.23648 0
M  V30 244 H 21.1394 3.91044 -0.624571 0
M  V30 245 H 22.3134 3.13564 -3.3766 0
M  V30 246 H 20.6284 2.94739 -2.9414 0
M  V30 247 H 23.2254 5.18813 -1.29374 0
M  V30 248 H 23.5684 4.16228 0.0775055 0
M  V30 249 H 24.1014 3.66494 -1.54684 0
M  V30 250 H 20.8404 5.01193 -4.22476 0
M  V30 251 H 20.3604 5.42317 -2.56228 0
M  V30 252 H 22.0394 5.67988 -3.09837 0
M  V30 253 N 22.1715 0.800033 1.35784 0
M  V30 254 C 23.1185 0.203848 2.29898 0
M  V30 255 C 24.0885 -0.658375 1.52495 0
M  V30 256 O 25.2735 -0.604832 1.8096 0
M  V30 257 C 22.4135 -0.64688 3.38983 0
M  V30 258 C 21.5265 0.235054 4.3136 0
M  V30 259 C 20.6615 -0.623054 5.27533 0
M  V30 260 C 19.7005 0.259682 6.11549 0
M  V30 261 N 18.8375 -0.558019 6.99879 0
M  V30 262 H 23.6775 1.01186 2.80295 0
M  V30 263 H 21.2145 0.51053 1.37957 0
M  V30 264 H 23.1725 -1.15521 4.00887 0
M  V30 265 H 21.8025 -1.42021 2.89879 0
M  V30 266 H 20.8545 0.861438 3.70518 0
M  V30 267 H 22.1665 0.914768 4.9034 0
M  V30 268 H 21.3205 -1.19678 5.94779 0
M  V30 269 H 20.0595 -1.33636 4.69034 0
M  V30 270 H 19.0645 0.845726 5.43256 0
M  V30 271 H 20.2895 0.970748 6.72126 0
M  V30 272 H 18.2355 -1.25542 6.43875 0
M  V30 273 H 18.1525 0.0637872 7.55973 0
M  V30 274 H 19.4205 -1.11523 7.71481 0
M  V30 275 N 23.6496 -1.47581 0.552962 0
M  V30 276 C 24.8746 -2.07378 0.0300593 0
M  V30 277 C 25.2996 -1.40355 -1.25229 0
M  V30 278 O 24.6576 -0.477099 -1.7491 0
M  V30 279 C 24.7056 -3.60274 -0.153231 0
M  V30 280 O 23.8096 -3.94041 -1.21678 0
M  V30 281 H 23.1506 -0.662158 0.0494182 0
M  V30 282 H 25.6806 -1.89662 0.767434 0
M  V30 283 H 25.6906 -4.0633 -0.368761 0
M  V30 284 H 24.3656 -4.08455 0.783397 0
M  V30 285 H 22.9426 -3.59735 -0.982079 0
M  V30 286 N 25.1277 -0.289203 -1.54924 0
M  V30 287 C 26.0757 0.607966 -2.24514 0
M  V30 288 C 27.0697 1.14655 -1.24702 0
M  V30 289 O 28.2757 1.09856 -1.4259 0
M  V30 290 H 24.6507 0.21464 -0.720718 0
M  V30 291 H 26.6217 -0.00164182 -2.984 0
M  V30 292 C 25.3707 1.77406 -2.99036 0
M  V30 293 H 24.6937 1.36884 -3.75637 0
M  V30 294 H 26.1337 2.37814 -3.51028 0
M  V30 295 C 24.5927 2.67107 -2.05318 0
M  V30 296 O 25.1227 3.6787 -1.61353 0
M  V30 297 N 23.3287 2.34582 -1.71521 0
M  V30 298 H 22.8757 1.52688 -2.07471 0
M  V30 299 H 22.8337 2.94867 -1.0909 0
M  V30 300 N 26.6058 1.57591 -0.0167156 0
M  V30 301 C 27.8308 1.9598 0.67872 0
M  V30 302 C 28.2558 0.892546 1.65575 0
M  V30 303 O 27.6138 -0.147772 1.80697 0
M  V30 304 C 27.6618 3.33468 1.37227 0
M  V30 305 O 26.7658 3.28954 2.48722 0
M  V30 306 H 26.1068 0.639339 0.17928 0
M  V30 307 H 28.6368 2.04463 -0.0748802 0
M  V30 308 H 28.6468 3.69417 1.7319 0
M  V30 309 H 27.3218 4.10694 0.656007 0
M  V30 310 H 25.8988 3.04705 2.14963 0
M  V30 311 N 28.0839 -0.256276 1.55502 0
M  V30 312 C 29.3119 -1.00342 1.8094 0
M  V30 313 C 29.7269 -1.79307 0.59114 0
M  V30 314 O 29.0839 -1.77114 -0.440081 0
M  V30 315 C 29.1349 -1.94875 3.04476 0
M  V30 316 O 28.8559 -1.19107 4.21598 0
M  V30 317 C 30.3569 -2.81266 3.42644 0
M  V30 318 H 27.5769 -0.295685 0.602338 0
M  V30 319 H 30.1209 -0.281998 2.02546 0
M  V30 320 H 28.2759 -2.62457 2.84947 0
M  V30 321 H 28.6899 -1.82969 4.91551 0
M  V30 322 H 30.1639 -3.43362 4.32211 0
M  V30 323 H 30.6409 -3.51897 2.62802 0
M  V30 324 H 31.2469 -2.1915 3.64491 0
M  V30 325 N 29.562 -1.4872 -0.521534 0
M  V30 326 C 30.809 -1.57168 -1.27689 0
M  V30 327 C 31.137 -0.249275 -1.92896 0
M  V30 328 O 30.392 0.761162 -1.80291 0
M  V30 329 C 30.691 -2.66497 -2.38148 0
M  V30 330 C 30.357 -4.08664 -1.90538 0
M  V30 331 C 29.019 -4.47357 -1.77271 0
M  V30 332 C 31.371 -4.97724 -1.54663 0
M  V30 333 C 28.699 -5.72905 -1.26478 0
M  V30 334 C 31.051 -6.2377 -1.05329 0
M  V30 335 C 29.715 -6.61311 -0.906861 0
M  V30 336 H 28.985 -0.575117 -0.467249 0
M  V30 337 H 31.632 -1.82472 -0.581051 0
M  V30 338 H 29.937 -2.35085 -3.13437 0
M  V30 339 H 31.634 -2.70246 -2.96257 0
M  V30 340 H 28.224 -3.78111 -2.01816 0
M  V30 341 H 32.408 -4.68501 -1.63768 0
M  V30 342 H 27.664 -6.00709 -1.13835 0
M  V30 343 H 31.838 -6.9217 -0.76644 0
M  V30 344 H 29.465 -7.5848 -0.511083 0
M  V30 345 N 31.0401 0.771051 -1.3745 0
M  V30 346 C 32.3171 1.519 -1.23231 0
M  V30 347 C 32.6971 2.10383 0.173809 0
M  V30 348 O 32.0451 1.95583 1.18151 0
M  V30 349 C 32.2551 2.59933 -2.32886 0
M  V30 350 C 33.6031 3.27316 -2.70461 0
M  V30 351 O 34.6271 2.70228 -2.32068 0
M  V30 352 O 33.4861 4.30531 -3.36608 0
M  V30 353 H 30.5801 0.672803 -0.480901 0
M  V30 354 H 33.1261 0.807957 -1.49232 0
M  V30 355 H 31.8981 2.14842 -3.27045 0
M  V30 356 H 31.5211 3.38637 -2.08353 0
M  V30 357 N 32.5182 1.22032 0.997298 0
M  V30 358 C 33.7662 1.04016 1.73278 0
M  V30 359 C 34.0872 -0.426255 1.90284 0
M  V30 360 O 33.3572 -1.30694 1.45931 0
M  V30 361 H 31.9372 0.381897 0.642 0
M  V30 362 H 34.5992 1.5347 1.20137 0
M  V30 363 H 33.6952 1.51441 2.72896 0
M  V30 364 N 33.9963 -1.19345 1.0293 0
M  V30 365 C 34.9263 -2.2481 0.631105 0
M  V30 366 C 35.9073 -1.66245 -0.360104 0
M  V30 367 O 37.0923 -1.92677 -0.242726 0
M  V30 368 C 34.2223 -3.47295 -0.0184607 0
M  V30 369 C 33.1763 -4.18536 0.895073 0
M  V30 370 C 32.5023 -5.34586 0.110592 0
M  V30 371 C 33.8023 -4.73287 2.209 0
M  V30 372 H 35.4963 -2.58372 1.51275 0
M  V30 373 H 33.0423 -1.24194 0.728818 0
M  V30 374 H 34.9953 -4.20268 -0.308675 0
M  V30 375 H 33.7193 -3.12933 -0.934907 0
M  V30 376 H 32.3783 -3.47446 1.16949 0
M  V30 377 H 32.0263 -4.96469 -0.807902 0
M  V30 378 H 31.7263 -5.83183 0.719087 0
M  V30 379 H 33.2503 -6.10355 -0.172871 0
M  V30 380 H 34.6643 -5.38013 1.98028 0
M  V30 381 H 33.0613 -5.32373 2.76946 0
M  V30 382 H 34.1313 -3.91331 2.86336 0
M  V30 383 N 35.4744 -0.807222 -1.35358 0
M  V30 384 C 36.4224 -0.20614 -2.31685 0
M  V30 385 C 37.4164 0.644445 -1.56663 0
M  V30 386 O 38.6224 0.537538 -1.71786 0
M  V30 387 H 34.9974 -0.0479006 -0.750473 0
M  V30 388 H 36.9684 -1.03369 -2.79924 0
M  V30 389 C 35.7174 0.630212 -3.41941 0
M  V30 390 H 35.0404 -0.0149558 -3.99797 0
M  V30 391 H 36.4804 1.01716 -4.11619 0
M  V30 392 C 34.9394 1.79601 -2.85035 0
M  V30 393 O 35.4694 2.89351 -2.78637 0
M  V30 394 N 33.6754 1.60774 -2.42074 0
M  V30 395 H 33.2224 0.715009 -2.47478 0
M  V30 396 H 33.1804 2.38933 -2.04349 0
M  V30 397 N 36.9525 1.47285 -0.560781 0
M  V30 398 C 38.2015 2.01668 -0.035895 0
M  V30 399 C 38.5145 1.44021 1.32353 0
M  V30 400 O 39.7205 1.90088 1.93853 0
M  V30 401 C 38.1765 3.59897 -0.0136659 0
M  V30 402 C 37.7845 4.26536 -1.37006 0
M  V30 403 C 39.5285 4.22017 0.458425 0
M  V30 404 C 37.4355 5.76782 -1.30675 0
M  V30 405 H 36.3655 0.753938 -0.00964879 0
M  V30 406 H 39.0165 1.69243 -0.709166 0
M  V30 407 H 37.3985 3.89301 0.725325 0
M  V30 408 H 38.5725 4.0877 -2.12705 0
M  V30 409 H 36.8875 3.76419 -1.78038 0
M  V30 410 H 39.4845 5.32124 0.524247 0
M  V30 411 H 39.8275 3.89437 1.4712 0
M  V30 412 H 40.3605 3.97159 -0.225818 0
M  V30 413 H 37.0995 6.13988 -2.29564 0
M  V30 414 H 36.6195 5.96875 -0.591622 0
M  V30 415 H 38.2985 6.39063 -1.01033 0
M  V30 416 N 38.4306 0.297415 1.54768 0
M  V30 417 C 39.7076 -0.365847 1.92148 0
M  V30 418 C 40.0876 -1.71975 1.22424 0
M  V30 419 O 39.4356 -2.25666 0.358739 0
M  V30 420 C 39.6456 -0.484056 3.45627 0
M  V30 421 C 40.9936 -0.756594 4.17805 0
M  V30 422 O 42.0176 -0.568007 3.51642 0
M  V30 423 O 40.8766 -1.11863 5.34929 0
M  V30 424 H 37.9706 -0.203919 0.801465 0
M  V30 425 H 40.5166 0.34521 1.66152 0
M  V30 426 H 39.2886 0.467865 3.88493 0
M  V30 427 H 38.9116 -1.24372 3.77647 0
M  V30 428 N 39.9087 -1.5758 0.0250728 0
M  V30 429 C 40.8567 -2.11125 -0.97617 0
M  V30 430 C 41.8507 -1.03689 -1.33959 0
M  V30 431 O 43.0567 -1.22128 -1.3223 0
M  V30 432 H 39.4317 -0.674468 -0.332561 0
M  V30 433 H 41.4027 -2.94194 -0.499223 0
M  V30 434 C 40.1517 -2.65017 -2.2508 0
M  V30 435 H 39.4747 -3.47333 -1.9799 0
M  V30 436 H 40.9147 -3.06133 -2.93357 0
M  V30 437 C 39.3737 -1.57574 -2.97779 0
M  V30 438 O 39.9037 -0.973203 -3.89733 0
M  V30 439 N 38.1097 -1.29716 -2.60043 0
M  V30 440 H 37.6567 -1.789 -1.85345 0
M  V30 441 H 37.6147 -0.58051 -3.08994 0
M  V30 442 N 41.3868 0.248026 -1.55636 0
M  V30 443 C 42.6118 0.998028 -1.81808 0
M  V30 444 C 43.0368 1.78207 -0.601979 0
M  V30 445 O 42.3948 1.75653 0.448961 0
M  V30 446 C 42.4428 1.9125 -3.05705 0
M  V30 447 O 41.5468 3.00406 -2.82542 0
M  V30 448 H 40.8878 0.284045 -0.600179 0
M  V30 449 H 43.4178 0.269357 -2.02819 0
M  V30 450 H 43.4278 2.32737 -3.35108 0
M  V30 451 H 42.1028 1.33602 -3.93857 0
M  V30 452 H 40.6798 2.63056 -2.64303 0
M  V30 453 N 42.8649 1.48995 0.513639 0
M  V30 454 C 43.8119 1.6473 1.61656 0
M  V30 455 C 44.7819 0.488984 1.58739 0
M  V30 456 O 45.9669 0.714478 1.76918 0
M  V30 457 C 43.1069 1.7082 2.99858 0
M  V30 458 C 42.2199 2.9787 3.12885 0
M  V30 459 C 41.3549 2.95017 4.41744 0
M  V30 460 C 40.3939 4.16702 4.48359 0
M  V30 461 N 39.5309 4.11832 5.68629 0
M  V30 462 H 44.3709 2.58909 1.47547 0
M  V30 463 H 41.9079 1.28382 0.71808 0
M  V30 464 H 43.8659 1.72331 3.79944 0
M  V30 465 H 42.4959 0.801181 3.12699 0
M  V30 466 H 41.5479 3.06029 2.25944 0
M  V30 467 H 42.8599 3.8786 3.13633 0
M  V30 468 H 42.0139 2.95021 5.30139 0
M  V30 469 H 40.7529 2.02784 4.43542 0
M  V30 470 H 39.7579 4.16955 3.58369 0
M  V30 471 H 40.9829 5.10113 4.48287 0
M  V30 472 H 38.9289 3.22428 5.71293 0
M  V30 473 H 38.8459 4.95543 5.7094 0
M  V30 474 H 40.1139 4.1592 6.59266 0
M  V30 475 N 44.343 -0.763751 1.37857 0
M  V30 476 C 45.291 -1.89864 1.34367 0
M  V30 477 C 46.285 -1.67816 0.231143 0
M  V30 478 O 47.491 -1.75508 0.399617 0
M  V30 479 H 43.866 -0.624501 0.41893 0
M  V30 480 H 45.837 -1.89925 2.30155 0
M  V30 481 C 44.586 -3.27227 1.1755 0
M  V30 482 H 43.909 -3.44773 2.02414 0
M  V30 483 H 45.349 -4.06911 1.1916 0
M  V30 484 C 43.808 -3.36692 -0.118311 0
M  V30 485 O 44.338 -3.86374 -1.09902 0
M  V30 486 N 42.544 -2.90092 -0.171717 0
M  V30 487 H 42.091 -2.49853 0.627012 0
M  V30 488 H 42.049 -2.96806 -1.03699 0
M  V30 489 N 45.8211 -1.22559 -0.990812 0
M  V30 490 C 46.7681 -0.997519 -2.0813 0
M  V30 491 C 47.7381 0.0814702 -1.659 0
M  V30 492 O 48.9231 -0.0685424 -1.90677 0
M  V30 493 C 46.0631 -0.583615 -3.40129 0
M  V30 494 C 45.1761 -1.7336 -3.9569 0
M  V30 495 C 44.3111 -1.26748 -5.15857 0
M  V30 496 C 43.3501 -2.38888 -5.63559 0
M  V30 497 N 42.4871 -1.93308 -6.74964 0
M  V30 498 H 47.3271 -1.93099 -2.26973 0
M  V30 499 H 44.8641 -0.962114 -1.11273 0
M  V30 500 H 46.8221 -0.324801 -4.15934 0
M  V30 501 H 45.4521 0.312845 -3.2128 0
M  V30 502 H 44.5041 -2.10669 -3.16738 0
M  V30 503 H 45.8161 -2.57704 -4.27071 0
M  V30 504 H 44.9701 -0.966173 -5.98957 0
M  V30 505 H 43.7091 -0.394272 -4.86104 0
M  V30 506 H 42.7141 -2.69805 -4.79046 0
M  V30 507 H 43.9391 -3.26728 -5.95336 0
M  V30 508 H 41.8851 -1.08352 -6.4699 0
M  V30 509 H 41.8021 -2.71217 -7.05675 0
M  V30 510 H 43.0701 -1.66252 -7.61564 0
M  V30 511 N 47.2992 1.18797 -1.03562 0
M  V30 512 C 48.2462 2.22253 -0.622259 0
M  V30 513 C 49.2162 1.61987 0.36736 0
M  V30 514 O 50.4012 1.88986 0.262492 0
M  V30 515 C 47.5412 3.45097 0.0138462 0
M  V30 516 C 46.6542 4.19722 -1.02263 0
M  V30 517 C 45.7892 5.30009 -0.355573 0
M  V30 518 C 44.8282 5.96399 -1.37749 0
M  V30 519 N 43.9652 6.98234 -0.735766 0
M  V30 520 H 48.8052 2.56968 -1.50903 0
M  V30 521 H 46.3422 1.26245 -0.755017 0
M  V30 522 H 48.3002 4.15279 0.399948 0
M  V30 523 H 46.9302 3.11018 0.864158 0
M  V30 524 H 45.9822 3.48418 -1.52673 0
M  V30 525 H 47.2942 4.65227 -1.79903 0
M  V30 526 H 46.4482 6.0664 0.0850095 0
M  V30 527 H 45.1872 4.85592 0.452967 0
M  V30 528 H 44.1922 5.18512 -1.82826 0
M  V30 529 H 45.4172 6.42899 -2.18764 0
M  V30 530 H 43.3632 6.55979 0.0525597 0
M  V30 531 H 43.2802 7.41965 -1.44995 0
M  V30 532 H 44.5482 7.78845 -0.31941 0
M  V30 533 N 48.7773 0.814389 1.34928 0
M  V30 534 C 49.7243 0.22822 2.29669 0
M  V30 535 C 50.6943 -0.642164 1.53184 0
M  V30 536 O 51.8793 -0.585605 1.81591 0
M  V30 537 C 49.0193 -0.61089 3.3965 0
M  V30 538 C 48.1323 0.280792 4.31086 0
M  V30 539 C 47.2673 -0.567067 5.28165 0
M  V30 540 C 46.3063 0.324531 6.11239 0
M  V30 541 N 45.4433 -0.483756 7.00431 0
M  V30 542 H 50.2833 1.04153 2.79206 0
M  V30 543 H 47.8203 0.525133 1.37407 0
M  V30 544 H 49.7783 -1.11263 4.0209 0
M  V30 545 H 48.4083 -1.38939 2.91369 0
M  V30 546 H 47.4603 0.900688 3.69583 0
M  V30 547 H 48.7723 0.966723 4.89342 0
M  V30 548 H 47.9263 -1.13363 5.96015 0
M  V30 549 H 46.6653 -1.28654 4.70425 0
M  V30 550 H 45.6703 0.903298 5.42329 0
M  V30 551 H 46.8953 1.04198 6.71059 0
M  V30 552 H 44.8413 -1.18706 6.45171 0
M  V30 553 H 44.7583 0.143965 7.55863 0
M  V30 554 H 46.0263 -1.03334 7.7262 0
M  V30 555 N 50.2554 -1.46986 0.568584 0
M  V30 556 C 51.5044 -2.01646 0.0465894 0
M  V30 557 C 51.8174 -1.44721 -1.31587 0
M  V30 558 O 53.0234 -1.91113 -1.92842 0
M  V30 559 C 51.4794 -3.59885 0.032752 0
M  V30 560 C 51.0874 -4.25804 1.39266 0
M  V30 561 C 52.8314 -4.22255 -0.436038 0
M  V30 562 C 50.7384 -5.76081 1.33732 0
M  V30 563 H 49.6684 -0.753876 0.013647 0
M  V30 564 H 52.3194 -1.68864 0.718131 0
M  V30 565 H 50.7014 -3.8968 -0.704669 0
M  V30 566 H 51.8754 -4.07637 2.1487 0
M  V30 567 H 50.1904 -3.7547 1.80032 0
M  V30 568 H 52.7874 -5.32394 -0.49602 0
M  V30 569 H 53.1304 -3.90212 -1.45053 0
M  V30 570 H 53.6634 -3.97033 0.246877 0
M  V30 571 H 50.4024 -6.12761 2.32817 0
M  V30 572 H 49.9224 -5.96553 0.623267 0
M  V30 573 H 51.6014 -6.38518 1.0442 0
M  V30 574 N 51.7335 -0.305618 -1.54608 0
M  V30 575 C 52.6655 0.602161 -2.21149 0
M  V30 576 C 53.6785 1.09394 -1.20569 0
M  V30 577 O 54.8675 1.0106 -1.47136 0
M  V30 578 C 51.9675 1.83692 -2.84799 0
M  V30 579 C 51.1405 1.48686 -4.11353 0
M  V30 580 C 50.1995 2.57725 -4.58764 0
M  V30 581 O 49.2255 2.22623 -5.23858 0
M  V30 582 N 50.4275 3.88346 -4.31471 0
M  V30 583 H 53.1925 0.0324966 -2.99682 0
M  V30 584 H 50.7535 -0.128021 -1.61393 0
M  V30 585 H 52.7455 2.55994 -3.13448 0
M  V30 586 H 51.3155 2.31486 -2.10078 0
M  V30 587 H 50.5355 0.596269 -3.89664 0
M  V30 588 H 51.8235 1.22842 -4.93748 0
M  V30 589 H 51.2215 4.19671 -3.79331 0
M  V30 590 H 49.7785 4.56932 -4.64818 0
M  V30 591 N 53.2116 1.57565 -0.0334293 0
M  V30 592 C 54.1586 2.10478 0.946981 0
M  V30 593 C 55.1286 1.00787 1.32027 0
M  V30 594 O 56.3136 1.28232 1.41284 0
M  V30 595 C 53.4536 2.63994 2.22263 0
M  V30 596 C 52.5666 3.87709 1.90541 0
M  V30 597 C 51.7016 4.29604 3.12433 0
M  V30 598 C 50.7406 5.46065 2.76549 0
M  V30 599 N 49.8776 5.83096 3.9108 0
M  V30 600 H 54.7176 2.93963 0.488846 0
M  V30 601 H 52.2546 1.45296 0.22969 0
M  V30 602 H 54.2126 2.93114 2.96884 0
M  V30 603 H 52.8426 1.83333 2.65685 0
M  V30 604 H 51.8946 3.65291 1.06144 0
M  V30 605 H 53.2066 4.72403 1.60116 0
M  V30 606 H 52.3606 4.60182 3.9537 0
M  V30 607 H 51.0996 3.43685 3.46023 0
M  V30 608 H 50.1046 5.15176 1.92026 0
M  V30 609 H 51.3296 6.33685 2.44171 0
M  V30 610 H 49.2756 5.00132 4.24504 0
M  V30 611 H 49.1926 6.6244 3.64293 0
M  V30 612 H 50.4606 6.18282 4.74708 0
M  V30 613 N 54.6897 -0.239769 1.55765 0
M  V30 614 C 55.9377 -0.964892 1.77579 0
M  V30 615 C 56.2587 -1.85582 0.598699 0
M  V30 616 O 55.5287 -1.92075 -0.385226 0
M  V30 617 H 54.1087 -0.359265 0.654933 0
M  V30 618 H 56.7707 -0.256001 1.93211 0
M  V30 619 H 55.8667 -1.58243 2.69009 0
M  V30 620 N 56.1678 -1.49265 -0.50573 0
M  V30 621 C 57.4148 -1.58513 -1.26015 0
M  V30 622 C 57.7428 -0.26972 -1.92621 0
M  V30 623 O 56.9978 0.741997 -1.81088 0
M  V30 624 C 57.2968 -2.69008 -2.35308 0
M  V30 625 C 56.9628 -4.10662 -1.86192 0
M  V30 626 C 55.6248 -4.49212 -1.72516 0
M  V30 627 C 57.9768 -4.99336 -1.49375 0
M  V30 628 C 55.3048 -5.74214 -1.20394 0
M  V30 629 C 57.6568 -6.24852 -0.987072 0
M  V30 630 C 56.3208 -6.62236 -0.836669 0
M  V30 631 H 55.5908 -0.580041 -0.461122 0
M  V30 632 H 58.2378 -1.83078 -0.561665 0
M  V30 633 H 56.5428 -2.38396 -3.10926 0
M  V30 634 H 58.2398 -2.73373 -2.93374 0
M  V30 635 H 54.8298 -3.8023 -1.97795 0
M  V30 636 H 59.0138 -4.70212 -1.5879 0
M  V30 637 H 54.2698 -6.01883 -1.07458 0
M  V30 638 H 58.4438 -6.92944 -0.692983 0
M  V30 639 H 56.0708 -7.58979 -0.430607 0
M  V30 640 N 57.6459 0.756429 -1.3826 0
M  V30 641 C 58.5779 1.87971 -1.31147 0
M  V30 642 C 59.5909 1.61248 -0.224239 0
M  V30 643 O 60.7799 1.71881 -0.481581 0
M  V30 644 C 57.8799 3.23545 -1.00857 0
M  V30 645 C 57.0529 3.77794 -2.20432 0
M  V30 646 C 56.1119 4.91877 -1.86931 0
M  V30 647 O 55.1379 5.06659 -2.59395 0
M  V30 648 N 56.3399 5.74643 -0.822568 0
M  V30 649 H 59.1049 1.94585 -2.2794 0
M  V30 650 H 56.6659 0.936234 -1.32084 0
M  V30 651 H 58.6579 3.97403 -0.765021 0
M  V30 652 H 57.2279 3.12335 -0.128687 0
M  V30 653 H 56.4479 2.95534 -2.6087 0
M  V30 654 H 57.7359 4.10771 -3.00241 0
M  V30 655 H 57.1339 5.65266 -0.221575 0
M  V30 656 H 55.6909 6.48661 -0.638899 0
M  V30 657 N 59.124 1.23083 0.984299 0
M  V30 658 C 60.373 1.05466 1.71929 0
M  V30 659 C 60.686 -0.409211 1.91272 0
M  V30 660 O 61.892 -0.705226 2.62181 0
M  V30 661 C 60.348 1.83874 3.09384 0
M  V30 662 C 59.956 3.34566 2.97943 0
M  V30 663 C 61.7 1.74734 3.8687 0
M  V30 664 C 59.607 4.05381 4.30605 0
M  V30 665 H 58.537 0.391039 0.644674 0
M  V30 666 H 61.188 1.47013 1.09815 0
M  V30 667 H 59.57 1.35131 3.72231 0
M  V30 668 H 60.744 3.90767 2.44209 0
M  V30 669 H 59.059 3.44476 2.33934 0
M  V30 670 H 61.656 2.24957 4.85076 0
M  V30 671 H 61.999 0.709372 4.10212 0
M  V30 672 H 62.532 2.21067 3.30717 0
M  V30 673 H 59.271 5.09467 4.1246 0
M  V30 674 H 58.791 3.53967 4.84218 0
M  V30 675 H 60.47 4.11458 4.99311 0
M  V30 676 N 60.6021 -1.18246 1.0419 0
M  V30 677 C 61.5321 -2.24127 0.654914 0
M  V30 678 C 62.5131 -1.66617 -0.342451 0
M  V30 679 O 63.6981 -1.92924 -0.222277 0
M  V30 680 C 60.8281 -3.47295 0.0183757 0
M  V30 681 C 59.7821 -4.17563 0.939414 0
M  V30 682 C 59.1081 -5.34438 0.167286 0
M  V30 683 C 60.4081 -4.70917 2.25908 0
M  V30 684 H 62.1021 -2.56753 1.54007 0
M  V30 685 H 59.6481 -1.23414 0.74195 0
M  V30 686 H 61.6011 -4.20572 -0.264082 0
M  V30 687 H 60.3251 -3.13907 -0.901664 0
M  V30 688 H 58.9841 -3.46186 1.20628 0
M  V30 689 H 58.6321 -4.97298 -0.7552 0
M  V30 690 H 58.3321 -5.82388 0.780901 0
M  V30 691 H 59.8561 -6.10504 -0.108125 0
M  V30 692 H 61.2701 -5.35882 2.03724 0
M  V30 693 H 59.6671 -5.29406 2.82577 0
M  V30 694 H 60.7371 -3.88272 2.9047 0
M  V30 695 N 62.0802 -0.821533 -1.34494 0
M  V30 696 C 63.3102 -0.421272 -2.02259 0
M  V30 697 C 63.7182 0.977047 -1.6202 0
M  V30 698 O 63.0612 1.64348 -0.820703 0
M  V30 699 C 63.1232 -0.44231 -3.56769 0
M  V30 700 C 62.7872 -1.79372 -4.20327 0
M  V30 701 C 63.7842 -2.75435 -4.40944 0
M  V30 702 C 61.4692 -2.08182 -4.57127 0
M  V30 703 C 63.4632 -3.98482 -4.97484 0
M  V30 704 C 61.1502 -3.31489 -5.13379 0
M  V30 705 C 62.1482 -4.26457 -5.33501 0
M  V30 706 O 61.8362 -5.47585 -5.88562 0
M  V30 707 H 61.5682 -0.167473 -0.654927 0
M  V30 708 H 64.1222 -1.11073 -1.72777 0
M  V30 709 H 62.3522 0.303836 -3.85505 0
M  V30 710 H 64.0412 -0.0622925 -4.05852 0
M  V30 711 H 64.8072 -2.54473 -4.12878 0
M  V30 712 H 60.6862 -1.35066 -4.4077 0
M  V30 713 H 64.2302 -4.72618 -5.13106 0
M  V30 714 H 60.1272 -3.52316 -5.40873 0
M  V30 715 H 60.8952 -5.49086 -6.06998 0
M  V30 716 N 63.5583 1.46682 -0.576371 0
M  V30 717 C 64.8043 2.02712 -0.0596221 0
M  V30 718 C 65.1373 1.44765 1.29448 0
M  V30 719 O 64.4123 0.610355 1.84675 0
M  V30 720 C 64.6953 3.60098 0.0129503 0
M  V30 721 C 64.5483 4.28441 -1.3696 0
M  V30 722 C 65.8673 4.34224 0.71678 0
M  V30 723 H 62.9863 0.736637 -0.0231407 0
M  V30 724 H 65.6283 1.74898 -0.742351 0
M  V30 725 H 63.7783 3.83926 0.594378 0
M  V30 726 H 65.4503 4.15896 -1.9957 0
M  V30 727 H 63.6933 3.8805 -1.93907 0
M  V30 728 H 64.3643 5.3716 -1.27135 0
M  V30 729 H 66.8403 4.15503 0.222908 0
M  V30 730 H 65.7163 5.43936 0.73657 0
M  V30 731 H 65.9773 4.04823 1.77682 0
M  V30 732 N 65.0364 0.313813 1.54444 0
M  V30 733 C 65.9664 -0.549454 2.26943 0
M  V30 734 C 66.9474 -1.12741 1.27372 0
M  V30 735 O 68.1324 -1.15436 1.56167 0
M  V30 736 C 65.2624 -1.71523 3.01989 0
M  V30 737 C 64.2164 -1.26703 4.08816 0
M  V30 738 C 63.5424 -2.51898 4.71647 0
M  V30 739 C 64.8424 -0.388962 5.2085 0
M  V30 740 H 66.5364 0.0552661 2.99349 0
M  V30 741 H 64.0824 0.0280207 1.43973 0
M  V30 742 H 66.0354 -2.32535 3.51433 0
M  V30 743 H 64.7594 -2.34639 2.27183 0
M  V30 744 H 63.4184 -0.679896 3.6024 0
M  V30 745 H 63.0664 -3.13356 3.93468 0
M  V30 746 H 62.7664 -2.22605 5.43802 0
M  V30 747 H 64.2904 -3.1369 5.23861 0
M  V30 748 H 65.7044 -0.905107 5.6611 0
M  V30 749 H 64.1014 -0.18924 5.99802 0
M  V30 750 H 65.1714 0.582699 4.81386 0
M  V30 751 N 66.5145 -1.57545 0.0417849 0
M  V30 752 C 67.4445 -2.14009 -0.933929 0
M  V30 753 C 68.4255 -1.05938 -1.33083 0
M  V30 754 O 69.6105 -1.33833 -1.40721 0
M  V30 755 C 66.7405 -2.67747 -2.21199 0
M  V30 756 C 65.6945 -3.80718 -1.95544 0
M  V30 757 C 65.0205 -4.20935 -3.29724 0
M  V30 758 C 66.3205 -5.06258 -1.28452 0
M  V30 759 H 68.0145 -2.95788 -0.463645 0
M  V30 760 H 65.5605 -1.42285 -0.221573 0
M  V30 761 H 67.5135 -3.05886 -2.89848 0
M  V30 762 H 66.2375 -1.83147 -2.70416 0
M  V30 763 H 64.8965 -3.43037 -1.2931 0
M  V30 764 H 64.5445 -3.33298 -3.76724 0
M  V30 765 H 64.2445 -4.9707 -3.13361 0
M  V30 766 H 65.7685 -4.61666 -3.9962 0
M  V30 767 H 67.1825 -5.41903 -1.8712 0
M  V30 768 H 65.5795 -5.87475 -1.22445 0
M  V30 769 H 66.6495 -4.84207 -0.259219 0
M  V30 770 N 67.9926 0.231505 -1.5589 0
M  V30 771 C 69.2396 0.957352 -1.78441 0
M  V30 772 C 69.5676 1.84726 -0.60882 0
M  V30 773 O 68.8226 1.91416 0.40725 0
M  V30 774 C 69.1216 1.83577 -3.0665 0
M  V30 775 C 68.7876 1.09993 -4.37278 0
M  V30 776 C 67.4496 0.896629 -4.72773 0
M  V30 777 C 69.8016 0.579558 -5.17968 0
M  V30 778 C 67.1296 0.160896 -5.86479 0
M  V30 779 C 69.4816 -0.142783 -6.32439 0
M  V30 780 C 68.1456 -0.357427 -6.66542 0
M  V30 781 H 67.4156 0.35032 -0.65296 0
M  V30 782 H 70.0626 0.226259 -1.90159 0
M  V30 783 H 68.3676 2.63441 -2.90011 0
M  V30 784 H 70.0646 2.39934 -3.21298 0
M  V30 785 H 66.6546 1.26835 -4.09403 0
M  V30 786 H 70.8386 0.724125 -4.90989 0
M  V30 787 H 66.0946 -0.0157293 -6.11398 0
M  V30 788 H 70.2686 -0.553559 -6.94196 0
M  V30 789 H 67.8956 -0.929466 -7.54497 0
M  V30 790 N 69.4707 1.49531 0.497807 0
M  V30 791 C 70.7107 1.60799 1.26187 0
M  V30 792 C 71.0747 0.289627 1.89803 0
M  V30 793 O 72.2757 0.277512 2.67364 0
M  V30 794 C 70.5467 2.73729 2.29798 0
M  V30 795 S 72.1057 3.04968 3.155 0
M  V30 796 H 68.9237 0.567145 0.428798 0
M  V30 797 H 71.5257 1.87204 0.563477 0
M  V30 798 H 70.2297 3.68036 1.81597 0
M  V30 799 H 69.7607 2.49328 3.04301 0
M  V30 800 H 71.7757 2.46735 4.30507 0
M  V30 801 N 70.9488 -0.749086 1.3866 0
M  V30 802 C 72.1738 -1.54344 1.38538 0
M  V30 803 C 72.5988 -1.88088 -0.0216655 0
M  V30 804 O 71.9568 -1.50899 -1.00494 0
M  V30 805 C 72.0048 -2.8164 2.25192 0
M  V30 806 O 71.1088 -3.7698 1.67212 0
M  V30 807 H 70.4498 -0.466654 0.472367 0
M  V30 808 H 72.9798 -0.925355 1.82478 0
M  V30 809 H 72.9898 -3.30519 2.3921 0
M  V30 810 H 71.6648 -2.56411 3.27454 0
M  V30 811 H 70.2418 -3.35699 1.6236 0
M  V30 812 N 72.4269 -1.23603 -0.977757 0
M  V30 813 C 73.6729 -1.07129 -1.72195 0
M  V30 814 C 74.0059 0.390501 -1.90233 0
M  V30 815 O 73.2809 1.28902 -1.45653 0
M  V30 816 C 73.5639 -1.80031 -3.11867 0
M  V30 817 C 73.4169 -3.33899 -3.01383 0
M  V30 818 C 74.7359 -1.56492 -4.11337 0
M  V30 819 H 71.8549 -0.390571 -0.624999 0
M  V30 820 H 74.4969 -1.52142 -1.13811 0
M  V30 821 H 72.6469 -1.41768 -3.6171 0
M  V30 822 H 74.3189 -3.81699 -2.59043 0
M  V30 823 H 72.5619 -3.62796 -2.37827 0
M  V30 824 H 73.2329 -3.801 -4.00285 0
M  V30 825 H 75.7089 -1.89757 -3.70313 0
M  V30 826 H 74.5849 -2.09973 -5.07151 0
M  V30 827 H 74.8459 -0.500874 -4.39254 0
M  V30 828 N 73.905 1.17692 -1.04816 0
M  V30 829 C 74.838 2.20436 -0.590173 0
M  V30 830 C 75.816 1.58115 0.379244 0
M  V30 831 O 77 1.86228 0.291762 0
M  V30 832 C 74.127 3.38424 0.136817 0
M  V30 833 C 73.173 4.19176 -0.787023 0
M  V30 834 S 74.006 4.84815 -2.27409 0
M  V30 835 C 75.162 6.06195 -1.55817 0
M  V30 836 H 75.395 2.58944 -1.46067 0
M  V30 837 H 72.928 1.28246 -0.859784 0
M  V30 838 H 74.886 4.06798 0.550076 0
M  V30 839 H 73.547 2.98312 0.983299 0
M  V30 840 H 72.74 5.03499 -0.224681 0
M  V30 841 H 72.342 3.56219 -1.13947 0
M  V30 842 H 74.634 6.72078 -0.855387 0
M  V30 843 H 75.577 6.6695 -2.37873 0
M  V30 844 H 75.985 5.54701 -1.04722 0
M  V30 845 N 75.3831 0.828654 1.34056 0
M  V30 846 C 76.6231 0.425394 1.99924 0
M  V30 847 C 76.9871 -0.994294 1.64249 0
M  V30 848 O 78.1881 -1.50074 2.23005 0
M  V30 849 C 76.4591 0.628071 3.51838 0
M  V30 850 S 78.0181 0.318511 4.37642 0
M  V30 851 H 74.8361 0.160465 0.692656 0
M  V30 852 H 77.4381 1.07572 1.63244 0
M  V30 853 H 76.1421 1.66089 3.7529 0
M  V30 854 H 75.6731 -0.0367799 3.93383 0
M  V30 855 H 77.6881 -0.865632 4.88591 0
M  V30 856 N 76.8612 -1.46375 0.584142 0
M  V30 857 C 78.1092 -2.01978 0.0701287 0
M  V30 858 C 78.4302 -1.4579 -1.295 0
M  V30 859 O 77.7002 -0.64314 -1.85042 0
M  V30 860 H 76.2802 -0.746648 0.0229345 0
M  V30 861 H 78.9422 -1.79461 0.760245 0
M  V30 862 H 78.0382 -3.121 0.0022064 0
M  V30 863 N 78.3393 -0.321999 -1.54275 0
M  V30 864 C 79.2693 0.537411 -2.27231 0
M  V30 865 C 80.2503 1.12064 -1.27968 0
M  V30 866 O 81.4353 1.14606 -1.56777 0
M  V30 867 C 78.5653 1.69919 -3.02894 0
M  V30 868 C 77.5193 1.24534 -4.09482 0
M  V30 869 C 76.8453 2.49394 -4.72977 0
M  V30 870 C 78.1453 0.361335 -5.21049 0
M  V30 871 H 79.8393 -0.0711406 -2.99315 0
M  V30 872 H 77.3853 -0.0356555 -1.43956 0
M  V30 873 H 79.3383 2.30668 -3.52662 0
M  V30 874 H 78.0623 2.33431 -2.28424 0
M  V30 875 H 76.7213 0.660782 -3.60596 0
M  V30 876 H 76.3693 3.11265 -3.95124 0
M  V30 877 H 76.0693 2.19718 -5.44975 0
M  V30 878 H 77.5933 3.10908 -5.25517 0
M  V30 879 H 79.0073 0.875072 -5.66582 0
M  V30 880 H 77.4043 0.157428 -5.99893 0
M  V30 881 H 78.4743 -0.60822 -4.8107 0
M  V30 882 N 79.8174 1.5752 -0.0501392 0
M  V30 883 C 81.0644 1.9265 0.623874 0
M  V30 884 C 81.3924 0.928411 1.70912 0
M  V30 885 O 80.6474 -0.0594525 1.9561 0
M  V30 886 C 80.9464 3.34467 1.25963 0
M  V30 887 C 80.6124 4.49883 0.302689 0
M  V30 888 C 79.2744 4.81184 0.0393636 0
M  V30 889 C 81.6264 5.20002 -0.353205 0
M  V30 890 C 78.9544 5.79951 -0.887308 0
M  V30 891 C 81.3064 6.1976 -1.26806 0
M  V30 892 C 79.9704 6.49491 -1.54007 0
M  V30 893 H 79.2404 0.704957 0.228292 0
M  V30 894 H 81.8874 1.91146 -0.116398 0
M  V30 895 H 80.1924 3.32333 2.07514 0
M  V30 896 H 81.8894 3.58928 1.78806 0
M  V30 897 H 78.4794 4.25457 0.518109 0
M  V30 898 H 82.6634 4.96033 -0.162854 0
M  V30 899 H 77.9194 6.01322 -1.10553 0
M  V30 900 H 82.0934 6.73205 -1.78236 0
M  V30 901 H 79.7204 7.25837 -2.25976 0
M  V30 902 N 81.2955 -0.223234 1.56011 0
M  V30 903 C 82.5255 -0.963413 1.82762 0
M  V30 904 C 82.9335 -1.78516 0.626804 0
M  V30 905 O 82.2765 -1.78974 -0.414014 0
M  V30 906 C 82.3385 -1.93126 3.0322 0
M  V30 907 C 82.0025 -1.2942 4.38291 0
M  V30 908 C 82.9995 -0.684916 5.15369 0
M  V30 909 C 80.6845 -1.30647 4.85012 0
M  V30 910 C 82.6785 -0.0963971 6.37327 0
M  V30 911 C 80.3655 -0.71411 6.06913 0
M  V30 912 C 81.3635 -0.110123 6.82911 0
M  V30 913 O 81.0515 0.47303 8.02507 0
M  V30 914 H 80.7835 -0.288011 0.611576 0
M  V30 915 H 83.3375 -0.244103 2.03944 0
M  V30 916 H 81.5675 -2.68952 2.77852 0
M  V30 917 H 83.2565 -2.53685 3.16857 0
M  V30 918 H 84.0225 -0.667774 4.80381 0
M  V30 919 H 79.9015 -1.76598 4.25833 0
M  V30 920 H 83.4455 0.375657 6.96588 0
M  V30 921 H 79.3425 -0.728659 6.41374 0
M  V30 922 H 80.1105 0.367186 8.17676 0
M  V30 923 N 82.7736 -1.49793 -0.48987 0
M  V30 924 C 84.0036 -1.6333 -1.26518 0
M  V30 925 C 84.4116 -0.308392 -1.8667 0
M  V30 926 O 83.7546 0.717512 -1.69108 0
M  V30 927 C 83.8166 -2.6522 -2.4269 0
M  V30 928 C 83.4806 -4.09279 -2.03321 0
M  V30 929 C 84.4776 -4.95738 -1.56652 0
M  V30 930 C 82.1626 -4.55082 -2.12616 0
M  V30 931 C 84.1566 -6.26041 -1.19795 0
M  V30 932 C 81.8436 -5.85396 -1.75371 0
M  V30 933 C 82.8416 -6.707 -1.29036 0
M  V30 934 O 82.5296 -7.98584 -0.92299 0
M  V30 935 H 82.2616 -0.552502 -0.389509 0
M  V30 936 H 84.8156 -1.96642 -0.593381 0
M  V30 937 H 83.0456 -2.27112 -3.12981 0
M  V30 938 H 84.7346 -2.68171 -3.04695 0
M  V30 939 H 85.5006 -4.61575 -1.48908 0
M  V30 940 H 81.3796 -3.88844 -2.47631 0
M  V30 941 H 84.9236 -6.92578 -0.835582 0
M  V30 942 H 80.8206 -6.19085 -1.82768 0
M  V30 943 H 81.5886 -8.11692 -1.05349 0
M  V30 944 N 84.2517 0.741722 -1.39055 0
M  V30 945 C 85.4977 1.50336 -1.36113 0
M  V30 946 C 85.8307 1.94148 0.0450796 0
M  V30 947 O 85.1057 1.66301 1.00868 0
M  V30 948 C 85.3887 2.74773 -2.32749 0
M  V30 949 C 85.2417 2.37023 -3.82283 0
M  V30 950 C 86.5607 3.76846 -2.27322 0
M  V30 951 H 83.6797 0.545351 -0.495743 0
M  V30 952 H 86.3217 0.848624 -1.69995 0
M  V30 953 H 84.4717 3.30639 -2.03986 0
M  V30 954 H 86.1437 1.8684 -4.21768 0
M  V30 955 H 84.3867 1.69334 -3.99385 0
M  V30 956 H 85.0577 3.26104 -4.45376 0
M  V30 957 H 87.5337 3.30548 -2.5274 0
M  V30 958 H 86.4097 4.6159 -2.97028 0
M  V30 959 H 86.6707 4.23286 -1.27599 0
M  V30 960 N 85.7298 1.2412 0.971189 0
M  V30 961 C 86.9598 1.10415 1.7462 0
M  V30 962 C 87.3678 -0.346462 1.86001 0
M  V30 963 O 86.7108 -1.25104 1.34517 0
M  V30 964 C 86.7728 1.66596 3.18568 0
M  V30 965 C 86.4368 3.15446 3.3067 0
M  V30 966 C 87.4338 4.12636 3.16271 0
M  V30 967 C 85.1188 3.55337 3.55022 0
M  V30 968 C 87.1128 5.47699 3.26044 0
M  V30 969 C 84.7998 4.90542 3.64434 0
M  V30 970 C 85.7978 5.86532 3.49956 0
M  V30 971 O 85.4858 7.19279 3.59017 0
M  V30 972 H 85.2178 0.386616 0.55453 0
M  V30 973 H 87.7718 1.64633 1.22821 0
M  V30 974 H 86.0018 1.06808 3.71657 0
M  V30 975 H 87.6908 1.48232 3.77865 0
M  V30 976 H 88.4568 3.8316 2.97344 0
M  V30 977 H 84.3358 2.8113 3.65359 0
M  V30 978 H 87.8798 6.22603 3.14661 0
M  V30 979 H 83.7768 5.19691 3.82873 0
M  V30 980 H 84.5448 7.27153 3.75754 0
M  V30 981 N 87.2079 -1.17134 1.05439 0
M  V30 982 C 88.1179 -2.24878 0.668365 0
M  V30 983 C 89.1339 -1.71186 -0.311687 0
M  V30 984 O 90.3099 -2.00738 -0.163161 0
M  V30 985 C 87.3749 -3.46662 0.051648 0
M  V30 986 C 86.4359 -4.15429 1.08246 0
M  V30 987 C 85.6689 -5.31399 0.495082 0
M  V30 988 O 85.8919 -5.66153 -0.694743 0
M  V30 989 O 84.8259 -5.89187 1.23056 0
M  V30 990 H 88.6519 -2.60189 1.56637 0
M  V30 991 H 86.2369 -1.24482 0.826104 0
M  V30 992 H 88.1189 -4.20394 -0.290966 0
M  V30 993 H 86.7939 -3.13142 -0.819971 0
M  V30 994 H 85.7009 -3.43704 1.47711 0
M  V30 995 H 87.0339 -4.52982 1.92532 0
M  V30 996 N 88.686 -0.835752 -1.33615 0
M  V30 997 C 89.634 -0.255238 -2.31195 0
M  V30 998 C 90.628 0.61107 -1.57995 0
M  V30 999 O 91.834 0.500979 -1.72888 0
M  V30 1000 H 88.209 -0.0638085 -0.749288 0
M  V30 1001 H 90.18 -1.09283 -2.77669 0
M  V30 1002 C 88.929 0.55754 -3.43201 0
M  V30 1003 H 88.252 -0.0997553 -3.99676 0
M  V30 1004 H 89.692 0.929622 -4.13683 0
M  V30 1005 C 88.151 1.73515 -2.88781 0
M  V30 1006 O 88.681 2.83376 -2.84712 0
M  V30 1007 N 86.887 1.55603 -2.4543 0
M  V30 1008 H 86.434 0.662354 -2.48939 0
M  V30 1009 H 86.392 2.34545 -2.09371 0
M  V30 1010 N 90.1641 1.46063 -0.591896 0
M  V30 1011 C 91.4101 2.02638 -0.0811191 0
M  V30 1012 C 91.7431 1.4613 1.27905 0
M  V30 1013 O 91.0181 0.629908 1.84017 0
M  V30 1014 C 91.3011 3.60091 -0.0252436 0
M  V30 1015 C 91.1541 4.26965 -1.41496 0
M  V30 1016 C 92.4731 4.3496 0.670685 0
M  V30 1017 H 89.5921 0.73635 -0.0309524 0
M  V30 1018 H 92.2341 1.741 -0.760859 0
M  V30 1019 H 90.3841 3.84535 0.553624 0
M  V30 1020 H 92.0561 4.13756 -2.0397 0
M  V30 1021 H 90.2991 3.85971 -1.98011 0
M  V30 1022 H 90.9701 5.35781 -1.32825 0
M  V30 1023 H 93.4461 4.15716 0.178825 0
M  V30 1024 H 92.3221 5.44686 0.678837 0
M  V30 1025 H 92.5831 4.06685 1.73379 0
M  V30 1026 N 91.6422 0.330177 1.54103 0
M  V30 1027 C 92.8882 -0.263542 2.01685 0
M  V30 1028 C 93.2432 -1.49258 1.21408 0
M  V30 1029 O 92.5362 -1.89395 0.289852 0
M  V30 1030 C 92.7302 -0.643134 3.51566 0
M  V30 1031 C 92.5592 0.547571 4.46354 0
M  V30 1032 C 91.3292 1.04873 4.94297 0
M  V30 1033 C 93.5272 1.40184 4.94826 0
M  V30 1034 N 91.5092 2.20316 5.73005 0
M  V30 1035 C 92.8802 2.40335 5.71524 0
M  V30 1036 C 94.9352 1.42884 4.76958 0
M  V30 1037 C 93.6382 3.42998 6.32254 0
M  V30 1038 C 95.6642 2.44421 5.38528 0
M  V30 1039 C 95.0262 3.43298 6.15082 0
M  V30 1040 H 91.1252 -0.0601026 0.779687 0
M  V30 1041 H 93.7092 0.466714 1.89023 0
M  V30 1042 H 91.8802 -1.34251 3.6446 0
M  V30 1043 H 93.6122 -1.21889 3.85908 0
M  V30 1044 H 90.3672 0.618956 4.69538 0
M  V30 1045 H 90.7912 2.78565 6.17034 0
M  V30 1046 H 95.4332 0.678049 4.17328 0
M  V30 1047 H 93.1512 4.1898 6.91 0
M  V30 1048 H 96.7372 2.4732 5.26616 0
M  V30 1049 H 95.6172 4.20579 6.61878 0
M  V30 1050 N 93.1203 -1.57491 0.0584922 0
M  V30 1051 C 94.0503 -2.14988 -0.911178 0
M  V30 1052 C 95.0313 -1.07343 -1.31952 0
M  V30 1053 O 96.2163 -1.35318 -1.39294 0
M  V30 1054 C 93.3463 -2.70078 -2.18347 0
M  V30 1055 C 92.3003 -3.82771 -1.91495 0
M  V30 1056 C 91.6263 -4.24408 -3.25241 0
M  V30 1057 C 92.9263 -5.07592 -1.23075 0
M  V30 1058 H 94.6203 -2.96263 -0.432246 0
M  V30 1059 H 92.1663 -1.42512 -0.206469 0
M  V30 1060 H 94.1193 -3.08943 -2.86587 0
M  V30 1061 H 92.8433 -1.86005 -2.68458 0
M  V30 1062 H 91.5023 -3.44389 -1.25664 0
M  V30 1063 H 91.1503 -3.37275 -3.73168 0
M  V30 1064 H 90.8503 -5.00366 -3.08071 0
M  V30 1065 H 92.3743 -4.65879 -3.94701 0
M  V30 1066 H 93.7883 -5.43857 -1.81362 0
M  V30 1067 H 92.1853 -5.88741 -1.16207 0
M  V30 1068 H 93.2553 -4.84454 -0.207847 0
M  V30 1069 N 94.5984 0.214957 -1.56127 0
M  V30 1070 C 95.5304 1.29004 -1.89448 0
M  V30 1071 C 96.5434 1.42716 -0.783326 0
M  V30 1072 O 97.7324 1.43496 -1.06166 0
M  V30 1073 C 94.8324 2.66482 -2.09381 0
M  V30 1074 C 94.0054 2.74633 -3.40434 0
M  V30 1075 C 93.0644 3.9317 -3.49719 0
M  V30 1076 O 92.0904 3.812 -4.227 0
M  V30 1077 N 93.2924 5.07765 -2.81346 0
M  V30 1078 H 96.0574 1.00743 -2.82261 0
M  V30 1079 H 93.6184 0.40497 -1.56753 0
M  V30 1080 H 95.6104 3.44173 -2.12901 0
M  V30 1081 H 94.1804 2.87314 -1.23163 0
M  V30 1082 H 93.4004 1.83368 -3.48955 0
M  V30 1083 H 94.6884 2.77054 -4.26754 0
M  V30 1084 H 94.0864 5.20386 -2.21843 0
M  V30 1085 H 92.6434 5.83474 -2.90519 0
M  V30 1086 N 96.0765 1.50051 0.48192 0
M  V30 1087 C 97.4925 1.37237 0.814756 0
M  V30 1088 C 97.6925 0.420109 1.97072 0
M  V30 1089 O 96.7485 -0.141246 2.52105 0
M  V30 1090 C 98.0615 2.78375 1.13701 0
M  V30 1091 C 99.6095 2.87213 1.2441 0
M  V30 1092 C 100.084 4.29161 1.59954 0
M  V30 1093 N 101.575 4.32061 1.66967 0
M  V30 1094 C 102.31 5.38879 1.95952 0
M  V30 1095 N 101.806 6.55918 2.23031 0
M  V30 1096 N 103.599 5.26312 1.97363 0
M  V30 1097 H 95.7505 2.10546 -0.28005 0
M  V30 1098 H 98.0135 0.945921 -0.0627454 0
M  V30 1099 H 97.7195 3.49845 0.360787 0
M  V30 1100 H 97.5935 3.14941 2.07586 0
M  V30 1101 H 99.9805 2.15969 2.01101 0
M  V30 1102 H 100.061 2.54204 0.285299 0
M  V30 1103 H 99.7055 5.00938 0.838067 0
M  V30 1104 H 99.6355 4.59648 2.56966 0
M  V30 1105 H 102.126 3.47661 1.48123 0
M  V30 1106 H 102.439 7.33139 2.44391 0
M  V30 1107 H 100.784 6.59112 2.20447 0
M  V30 1108 H 103.975 4.33876 1.75697 0
M  V30 1109 H 104.148 6.09649 2.19618 0
M  V30 1110 N 97.5546 -0.734337 1.39446 0
M  V30 1111 C 98.8316 -1.48579 1.27215 0
M  V30 1112 C 99.2116 -2.1077 -0.117968 0
M  V30 1113 O 98.5596 -1.98646 -1.12924 0
M  V30 1114 C 98.7696 -2.53667 2.39696 0
M  V30 1115 C 100.118 -3.20031 2.79044 0
M  V30 1116 O 101.142 -2.6398 2.39151 0
M  V30 1117 O 100.001 -4.21455 3.47905 0
M  V30 1118 H 97.0946 -0.659816 0.49857 0
M  V30 1119 H 99.6406 -0.768106 1.51322 0
M  V30 1120 H 98.4126 -2.06096 3.32626 0
M  V30 1121 H 98.0356 -3.32994 2.17258 0
M  V30 1122 N 99.0327 -1.24633 -0.964593 0
M  V30 1123 C 99.9807 -1.03917 -2.08096 0
M  V30 1124 C 100.975 0.0268581 -1.69379 0
M  V30 1125 O 102.181 -0.127952 -1.79545 0
M  V30 1126 H 98.5557 -0.319044 -0.680966 0
M  V30 1127 H 100.527 -1.98581 -2.22729 0
M  V30 1128 C 99.2757 -0.663983 -3.41301 0
M  V30 1129 H 98.5987 -1.47605 -3.71555 0
M  V30 1130 H 100.039 -0.558663 -4.20303 0
M  V30 1131 C 98.4977 0.629169 -3.30973 0
M  V30 1132 O 99.0277 1.67404 -3.65156 0
M  V30 1133 N 97.2337 0.611057 -2.84103 0
M  V30 1134 H 96.7807 -0.239593 -2.56483 0
M  V30 1135 H 96.7387 1.47647 -2.77575 0
M  V30 1136 N 100.511 1.16574 -1.06058 0
M  V30 1137 C 101.421 2.2452 -0.680282 0
M  V30 1138 C 102.437 1.71348 0.302604 0
M  V30 1139 O 103.613 2.00822 0.152513 0
M  V30 1140 C 100.678 3.46629 -0.0700315 0
M  V30 1141 C 99.7388 4.14849 -1.10448 0
M  V30 1142 C 98.9718 5.31129 -0.523256 0
M  V30 1143 O 99.1948 5.66514 0.664709 0
M  V30 1144 O 98.1288 5.88526 -1.26179 0
M  V30 1145 H 101.955 2.59355 -1.58015 0
M  V30 1146 H 99.5398 1.24043 -0.832694 0
M  V30 1147 H 101.422 4.20543 0.268667 0
M  V30 1148 H 100.097 3.13573 0.803353 0
M  V30 1149 H 99.0038 3.42916 -1.49532 0
M  V30 1150 H 100.337 4.51954 -1.94931 0
M  V30 1151 N 101.989 0.842826 1.3317 0
M  V30 1152 C 102.922 0.223862 2.27099 0
M  V30 1153 C 103.9 -0.631311 1.49844 0
M  V30 1154 O 105.084 -0.590708 1.79005 0
M  V30 1155 C 102.211 -0.685313 3.31694 0
M  V30 1156 C 101.257 0.094919 4.26394 0
M  V30 1157 S 102.09 1.45546 5.15341 0
M  V30 1158 C 103.246 0.551685 6.23464 0
M  V30 1159 H 103.479 1.02015 2.79249 0
M  V30 1160 H 101.012 0.639797 1.4052 0
M  V30 1161 H 102.97 -1.20426 3.92438 0
M  V30 1162 H 101.631 -1.4553 2.78352 0
M  V30 1163 H 100.824 -0.597059 5.00451 0
M  V30 1164 H 100.426 0.545054 3.70007 0
M  V30 1165 H 102.718 -0.248877 6.77043 0
M  V30 1166 H 103.661 1.26253 6.96754 0
M  V30 1167 H 104.069 0.131275 5.64347 0
M  V30 1168 N 103.467 -1.45747 0.599634 0
M  V30 1169 C 104.415 -2.322 -0.136426 0
M  V30 1170 C 105.409 -1.45497 -0.867583 0
M  V30 1171 O 106.615 -1.62027 -0.78405 0
M  V30 1172 H 102.99 -0.749368 -0.0628588 0
M  V30 1173 H 104.961 -2.92072 0.611281 0
M  V30 1174 C 103.71 -3.28974 -1.12567 0
M  V30 1175 H 103.033 -3.9568 -0.572484 0
M  V30 1176 H 104.473 -3.92212 -1.61077 0
M  V30 1177 C 102.932 -2.55561 -2.19523 0
M  V30 1178 O 103.462 -2.33111 -3.27143 0
M  V30 1179 N 101.668 -2.15832 -1.94589 0
M  V30 1180 H 101.215 -2.3429 -1.07078 0
M  V30 1181 H 101.173 -1.67034 -2.66359 0
M  V30 1182 N 104.945 -0.338344 -1.53925 0
M  V30 1183 C 105.855 0.529421 -2.28548 0
M  V30 1184 C 106.871 1.11645 -1.3346 0
M  V30 1185 O 108.047 1.13325 -1.66492 0
M  V30 1186 C 105.112 1.66713 -3.03987 0
M  V30 1187 C 104.173 1.11041 -4.14691 0
M  V30 1188 C 103.406 2.19389 -4.86522 0
M  V30 1189 O 103.629 3.40013 -4.57982 0
M  V30 1190 O 102.563 1.83976 -5.73094 0
M  V30 1191 H 106.389 -0.0770399 -3.03602 0
M  V30 1192 H 103.974 -0.103555 -1.49041 0
M  V30 1193 H 105.856 2.32918 -3.5118 0
M  V30 1194 H 104.531 2.25949 -2.31794 0
M  V30 1195 H 103.438 0.413024 -3.71813 0
M  V30 1196 H 104.771 0.562975 -4.8897 0
M  V30 1197 N 106.423 1.57458 -0.0668435 0
M  V30 1198 C 107.672 1.92477 0.602947 0
M  V30 1199 C 107.985 0.948419 1.71068 0
M  V30 1200 O 109.191 1.19124 2.43971 0
M  V30 1201 C 107.647 3.41903 1.12383 0
M  V30 1202 C 107.255 4.47975 0.04737 0
M  V30 1203 C 108.999 3.85931 1.76797 0
M  V30 1204 C 106.906 5.88529 0.582022 0
M  V30 1205 H 105.836 0.718387 0.22899 0
M  V30 1206 H 108.487 1.82978 -0.138276 0
M  V30 1207 H 106.869 3.46459 1.91787 0
M  V30 1208 H 108.043 4.55029 -0.726978 0
M  V30 1209 H 106.358 4.13384 -0.500243 0
M  V30 1210 H 108.955 4.88322 2.17821 0
M  V30 1211 H 109.298 3.23029 2.62599 0
M  V30 1212 H 109.831 3.83958 1.04024 0
M  V30 1213 H 106.57 6.55065 -0.238721 0
M  V30 1214 H 106.09 5.85004 1.324 0
M  V30 1215 H 107.769 6.38258 1.05999 0
M  V30 1216 N 107.901 -0.206675 1.56239 0
M  V30 1217 C 108.831 -1.25909 1.96645 0
M  V30 1218 C 109.812 -1.48097 0.836734 0
M  V30 1219 O 110.997 -1.6003 1.10019 0
M  V30 1220 C 108.127 -2.6058 2.29599 0
M  V30 1221 C 107.081 -2.53024 3.452 0
M  V30 1222 C 106.407 -3.91861 3.63798 0
M  V30 1223 C 107.707 -2.06524 4.79734 0
M  V30 1224 H 109.401 -0.923369 2.84806 0
M  V30 1225 H 106.947 -0.442735 1.37025 0
M  V30 1226 H 108.9 -3.34375 2.56459 0
M  V30 1227 H 107.624 -2.95869 1.38307 0
M  V30 1228 H 106.283 -1.81684 3.18412 0
M  V30 1229 H 105.931 -4.24483 2.69857 0
M  V30 1230 H 105.631 -3.87683 4.4156 0
M  V30 1231 H 107.155 -4.67296 3.93022 0
M  V30 1232 H 108.569 -2.70072 5.05702 0
M  V30 1233 H 106.966 -2.13374 5.60885 0
M  V30 1234 H 108.036 -1.01802 4.74093 0
M  V30 1235 N 109.379 -1.50304 -0.473955 0
M  V30 1236 C 110.326 -1.68959 -1.57231 0
M  V30 1237 C 111.296 -0.530899 -1.57387 0
M  V30 1238 O 112.481 -0.761133 -1.74961 0
M  V30 1239 C 109.621 -1.7871 -2.95223 0
M  V30 1240 C 108.734 -3.06061 -3.04878 0
M  V30 1241 C 107.869 -3.06626 -4.33767 0
M  V30 1242 C 106.908 -4.28443 -4.37154 0
M  V30 1243 N 106.045 -4.26763 -5.5751 0
M  V30 1244 H 110.885 -2.6273 -1.40631 0
M  V30 1245 H 108.422 -1.30241 -0.683789 0
M  V30 1246 H 110.38 -1.82344 -3.75242 0
M  V30 1247 H 109.01 -0.883806 -3.10465 0
M  V30 1248 H 108.062 -3.11911 -2.17751 0
M  V30 1249 H 109.374 -3.96039 -3.0324 0
M  V30 1250 H 108.528 -3.08973 -5.22131 0
M  V30 1251 H 107.267 -2.14473 -4.3801 0
M  V30 1252 H 106.272 -4.2631 -3.47188 0
M  V30 1253 H 107.497 -5.2182 -4.34605 0
M  V30 1254 H 105.443 -3.37462 -5.62544 0
M  V30 1255 H 105.36 -5.10507 -5.57601 0
M  V30 1256 H 106.628 -4.33253 -6.48006 0
M  V30 1257 N 110.857 0.726932 -1.39834 0
M  V30 1258 C 111.805 1.86235 -1.39353 0
M  V30 1259 C 112.799 1.67144 -0.275555 0
M  V30 1260 O 114.005 1.74387 -0.44601 0
M  V30 1261 H 110.38 0.613174 -0.43534 0
M  V30 1262 H 112.351 1.83756 -2.35109 0
M  V30 1263 C 111.1 3.23995 -1.26185 0
M  V30 1264 H 110.423 3.39285 -2.11484 0
M  V30 1265 H 111.863 4.03609 -1.29907 0
M  V30 1266 C 110.322 3.36888 0.0290018 0
M  V30 1267 O 110.852 3.89152 0.99619 0
M  V30 1268 N 109.058 2.90446 0.0947437 0
M  V30 1269 H 108.605 2.48102 -0.693035 0
M  V30 1270 H 108.563 2.99451 0.957932 0
M  V30 1271 N 112.336 1.25143 0.95797 0
M  V30 1272 C 113.561 1.12521 1.74223 0
M  V30 1273 C 113.986 -0.317402 1.85403 0
M  V30 1274 O 113.344 -1.2299 1.33204 0
M  V30 1275 C 113.392 1.78062 3.1357 0
M  V30 1276 O 112.496 1.058 3.98598 0
M  V30 1277 H 111.837 0.39304 0.535178 0
M  V30 1278 H 114.367 1.65641 1.201 0
M  V30 1279 H 114.377 1.84213 3.64046 0
M  V30 1280 H 113.052 2.83021 3.04749 0
M  V30 1281 H 111.629 1.07506 3.57067 0
M  V30 1282 N 113.814 -1.1601 1.06675 0
M  V30 1283 C 114.724 -2.24156 0.692179 0
M  V30 1284 C 115.74 -1.71507 -0.293513 0
M  V30 1285 O 116.916 -2.009 -0.141861 0
M  V30 1286 C 113.981 -3.46587 0.0884131 0
M  V30 1287 C 113.042 -4.14257 1.12646 0
M  V30 1288 C 112.275 -5.30844 0.551416 0
M  V30 1289 O 112.498 -5.66858 -0.634656 0
M  V30 1290 O 111.432 -5.87848 1.29298 0
M  V30 1291 H 115.258 -2.58513 1.59388 0
M  V30 1292 H 112.843 -1.23599 0.83926 0
M  V30 1293 H 114.725 -4.20679 -0.246361 0
M  V30 1294 H 113.4 -3.13994 -0.786712 0
M  V30 1295 H 112.307 -3.42118 1.51348 0
M  V30 1296 H 113.64 -4.50914 1.97325 0
M  V30 1297 N 115.292 -0.849877 -1.32721 0
M  V30 1298 C 116.242 -0.262892 -2.26479 0
M  V30 1299 C 117.226 0.588493 -1.49752 0
M  V30 1300 O 118.418 0.438659 -1.71478 0
M  V30 1301 C 115.547 0.551818 -3.38836 0
M  V30 1302 C 114.633 -0.311689 -4.22953 0
M  V30 1303 N 115.024 -1.39567 -4.86163 0
M  V30 1304 C 113.322 -0.100611 -4.45887 0
M  V30 1305 C 114.023 -1.92651 -5.48872 0
M  V30 1306 N 112.999 -1.22637 -5.29586 0
M  V30 1307 H 116.801 -1.09166 -2.72873 0
M  V30 1308 H 114.315 -0.695486 -1.46754 0
M  V30 1309 H 116.312 0.988713 -4.05006 0
M  V30 1310 H 114.972 1.37844 -2.93988 0
M  V30 1311 H 115.983 -1.77859 -4.86402 0
M  V30 1312 H 112.66 0.691681 -4.11731 0
M  V30 1313 H 114.05 -2.83487 -6.09167 0
M  V30 1314 N 116.77 1.45427 -0.607355 0
M  V30 1315 C 117.7 2.3329 0.0989352 0
M  V30 1316 C 118.681 1.46816 0.859007 0
M  V30 1317 O 119.866 1.75588 0.829604 0
M  V30 1318 C 116.996 3.29518 1.09705 0
M  V30 1319 C 115.95 4.25626 0.450206 0
M  V30 1320 C 115.276 5.11542 1.55655 0
M  V30 1321 C 116.576 5.18505 -0.628455 0
M  V30 1322 H 118.27 2.92595 -0.634716 0
M  V30 1323 H 115.816 1.40696 -0.306681 0
M  V30 1324 H 117.769 3.89855 1.59971 0
M  V30 1325 H 116.493 2.68372 1.86129 0
M  V30 1326 H 115.152 3.66586 -0.0315886 0
M  V30 1327 H 114.8 4.46765 2.31107 0
M  V30 1328 H 114.5 5.76647 1.12925 0
M  V30 1329 H 116.024 5.74748 2.06148 0
M  V30 1330 H 117.438 5.72916 -0.209877 0
M  V30 1331 H 115.835 5.92085 -0.977489 0
M  V30 1332 H 116.905 4.60948 -1.50514 0
M  V30 1333 N 118.248 0.346503 1.53744 0
M  V30 1334 C 119.476 -0.25041 2.05379 0
M  V30 1335 C 119.891 -1.43979 1.22129 0
M  V30 1336 O 119.248 -1.80677 0.257321 0
M  V30 1337 C 119.299 -0.662575 3.55376 0
M  V30 1338 O 119.02 0.479515 4.35468 0
M  V30 1339 C 120.521 -1.31989 4.23195 0
M  V30 1340 H 117.741 -0.0478198 0.669294 0
M  V30 1341 H 120.285 0.499346 1.9831 0
M  V30 1342 H 118.44 -1.36227 3.62658 0
M  V30 1343 H 118.854 0.15037 5.24284 0
M  V30 1344 H 120.328 -1.55902 5.29527 0
M  V30 1345 H 120.805 -2.27436 3.75725 0
M  V30 1346 H 121.411 -0.662154 4.20114 0
M  V30 1347 N 119.726 -1.57421 0.075193 0
M  V30 1348 C 120.975 -1.92794 -0.592731 0
M  V30 1349 C 121.288 -0.957478 -1.70563 0
M  V30 1350 O 122.494 -1.20417 -2.43335 0
M  V30 1351 C 120.95 -3.42495 -1.10569 0
M  V30 1352 C 120.558 -4.47994 -0.0236121 0
M  V30 1353 C 122.302 -3.86864 -1.74748 0
M  V30 1354 C 120.209 -5.88829 -0.550803 0
M  V30 1355 H 119.139 -0.719591 -0.225177 0
M  V30 1356 H 121.79 -1.82902 0.147978 0
M  V30 1357 H 120.172 -3.47471 -1.89947 0
M  V30 1358 H 121.346 -4.54637 0.751099 0
M  V30 1359 H 119.661 -4.13113 0.522159 0
M  V30 1360 H 122.258 -4.8947 -2.15229 0
M  V30 1361 H 122.601 -3.24417 -2.60882 0
M  V30 1362 H 123.134 -3.84504 -1.01986 0
M  V30 1363 H 119.873 -6.54929 0.273457 0
M  V30 1364 H 119.393 -5.85698 -1.29296 0
M  V30 1365 H 121.072 -6.38811 -1.02613 0
M  V30 1366 N 121.204 0.198386 -1.56346 0
M  V30 1367 C 122.452 0.91747 -1.80075 0
M  V30 1368 C 122.773 1.83929 -0.647692 0
M  V30 1369 O 122.043 1.93029 0.334166 0
M  V30 1370 H 120.623 0.341774 -0.664228 0
M  V30 1371 H 123.285 0.204684 -1.93822 0
M  V30 1372 H 122.381 1.51055 -2.7311 0
M  V30 1373 N 122.682 1.50554 0.465978 0
M  V30 1374 C 123.929 1.61798 1.21768 0
M  V30 1375 C 124.257 0.320696 1.91838 0
M  V30 1376 O 123.512 -0.693724 1.82992 0
M  V30 1377 C 123.811 2.75152 2.28093 0
M  V30 1378 C 123.477 4.15454 1.75239 0
M  V30 1379 C 122.139 4.53628 1.60546 0
M  V30 1380 C 124.491 5.03121 1.36083 0
M  V30 1381 C 121.819 5.77204 1.05128 0
M  V30 1382 C 124.171 6.27249 0.821056 0
M  V30 1383 C 122.835 6.64221 0.660795 0
M  V30 1384 H 122.105 0.592063 0.445582 0
M  V30 1385 H 124.752 1.84503 0.512927 0
M  V30 1386 H 123.057 2.46556 3.04496 0
M  V30 1387 H 124.754 2.81055 2.86023 0
M  V30 1388 H 121.344 3.85341 1.87644 0
M  V30 1389 H 125.528 4.74257 1.46267 0
M  V30 1390 H 120.784 6.0452 0.91462 0
M  V30 1391 H 124.958 6.94537 0.509018 0
M  V30 1392 H 122.585 7.59854 0.229226 0
M  V30 1393 N 124.16 -0.719506 1.40217 0
M  V30 1394 C 125.107 -1.83359 1.40172 0
M  V30 1395 C 126.077 -1.64065 0.259206 0
M  V30 1396 O 127.262 -1.85254 0.456677 0
M  V30 1397 C 124.402 -3.2103 1.26624 0
M  V30 1398 C 123.515 -3.51923 2.50548 0
M  V30 1399 C 122.65 -4.79079 2.29471 0
M  V30 1400 C 121.689 -5.02863 3.48992 0
M  V30 1401 N 120.826 -6.2123 3.27135 0
M  V30 1402 H 125.666 -1.82733 2.35399 0
M  V30 1403 H 123.203 -0.892688 1.16917 0
M  V30 1404 H 125.161 -4.00524 1.16776 0
M  V30 1405 H 123.791 -3.20895 0.350176 0
M  V30 1406 H 122.843 -2.67014 2.70939 0
M  V30 1407 H 124.155 -3.6541 3.39525 0
M  V30 1408 H 123.309 -5.66582 2.16955 0
M  V30 1409 H 122.048 -4.67794 1.37913 0
M  V30 1410 H 121.053 -4.13816 3.6199 0
M  V30 1411 H 122.278 -5.16023 4.41472 0
M  V30 1412 H 120.224 -6.11204 2.38256 0
M  V30 1413 H 120.141 -6.35375 4.09675 0
M  V30 1414 H 121.409 -7.11532 3.18344 0
M  V30 1415 N 125.638 -1.25649 -0.95132 0
M  V30 1416 C 126.884 -1.10757 -1.69884 0
M  V30 1417 C 127.217 0.350061 -1.91019 0
M  V30 1418 O 126.492 1.25783 -1.48354 0
M  V30 1419 C 126.775 -1.86606 -3.07978 0
M  V30 1420 C 126.628 -3.40217 -2.94232 0
M  V30 1421 C 127.947 -1.65182 -4.07925 0
M  V30 1422 H 125.066 -0.40374 -0.616574 0
M  V30 1423 H 127.708 -1.54521 -1.10558 0
M  V30 1424 H 125.858 -1.49409 -3.58621 0
M  V30 1425 H 127.53 -3.87108 -2.50889 0
M  V30 1426 H 125.773 -3.67759 -2.30078 0
M  V30 1427 H 126.444 -3.88505 -3.92133 0
M  V30 1428 H 128.92 -1.9757 -3.66204 0
M  V30 1429 H 127.796 -2.20683 -5.02583 0
M  V30 1430 H 128.057 -0.593933 -4.38092 0
M  V30 1431 N 127.117 1.15442 -1.07289 0
M  V30 1432 C 128.027 2.23786 -0.704057 0
M  V30 1433 C 129.043 1.7166 0.284413 0
M  V30 1434 O 130.219 2.00972 0.131205 0
M  V30 1435 C 127.284 3.46535 -0.106792 0
M  V30 1436 C 126.345 4.13654 -1.14842 0
M  V30 1437 C 125.578 5.30544 -0.57956 0
M  V30 1438 O 125.801 5.67187 0.604585 0
M  V30 1439 O 124.735 5.87154 -1.32414 0
M  V30 1440 H 128.561 2.57664 -1.60757 0
M  V30 1441 H 126.146 1.23152 -0.845803 0
M  V30 1442 H 128.028 4.20804 0.224048 0
M  V30 1443 H 126.703 3.14407 0.770049 0
M  V30 1444 H 125.61 3.4131 -1.5316 0
M  V30 1445 H 126.943 4.49861 -1.99714 0
M  V30 1446 N 128.595 0.856903 1.32268 0
M  V30 1447 C 129.543 0.291987 2.3076 0
M  V30 1448 C 130.537 -0.585857 1.58947 0
M  V30 1449 O 131.743 -0.47341 1.73663 0
M  V30 1450 H 128.118 0.075721 0.748178 0
M  V30 1451 H 130.089 1.13687 2.75895 0
M  V30 1452 C 128.838 -0.502869 3.44044 0
M  V30 1453 H 128.161 0.163328 3.99466 0
M  V30 1454 H 129.601 -0.863691 4.1511 0
M  V30 1455 C 128.06 -1.68898 2.91505 0
M  V30 1456 O 128.59 -2.78811 2.89184 0
M  V30 1457 N 126.796 -1.51679 2.47875 0
M  V30 1458 H 126.343 -0.622666 2.49961 0
M  V30 1459 H 126.301 -2.31184 2.13076 0
M  V30 1460 N 130.073 -1.45103 0.615059 0
M  V30 1461 C 131.036 -2.29025 -0.0895485 0
M  V30 1462 C 132.036 -1.40174 -0.787906 0
M  V30 1463 O 133.226 -1.62217 -0.634933 0
M  V30 1464 C 130.358 -3.21376 -1.13711 0
M  V30 1465 H 131.551 -2.92807 0.648382 0
M  V30 1466 H 129.104 -1.51749 0.374444 0
M  V30 1467 H 129.839 -2.6241 -1.90556 0
M  V30 1468 H 129.624 -3.86834 -0.640475 0
M  V30 1469 H 131.114 -3.84459 -1.63036 0
M  V30 1470 N 131.551 -0.354651 -1.53558 0
M  V30 1471 C 132.501 0.513179 -2.2215 0
M  V30 1472 C 133.485 1.05734 -1.21281 0
M  V30 1473 O 134.677 0.989202 -1.46778 0
M  V30 1474 C 131.806 1.65798 -3.00609 0
M  V30 1475 C 130.892 1.12722 -4.08845 0
M  V30 1476 N 131.283 0.318563 -5.04796 0
M  V30 1477 C 129.581 1.40307 -4.23356 0
M  V30 1478 C 130.282 0.0292224 -5.81693 0
M  V30 1479 N 129.258 0.623891 -5.40008 0
M  V30 1480 H 133.06 -0.111586 -2.93688 0
M  V30 1481 H 130.574 -0.162091 -1.61589 0
M  V30 1482 H 132.571 2.29176 -3.48258 0
M  V30 1483 H 131.231 2.28591 -2.306 0
M  V30 1484 H 132.242 -0.0413091 -5.17884 0
M  V30 1485 H 128.919 2.03458 -3.6457 0
M  V30 1486 H 130.309 -0.623808 -6.68998 0
M  V30 1487 N 133.029 1.57378 -0.0835403 0
M  V30 1488 C 134.306 1.85363 0.624507 0
M  V30 1489 C 134.686 0.978239 1.87066 0
M  V30 1490 O 134.034 0.0475908 2.2845 0
M  V30 1491 C 134.244 3.35795 0.950947 0
M  V30 1492 C 135.592 4.03581 1.31939 0
M  V30 1493 O 136.616 3.40609 1.04232 0
M  V30 1494 O 135.475 5.14672 1.83779 0
M  V30 1495 H 132.569 0.766162 0.311329 0
M  V30 1496 H 135.115 1.69307 -0.115362 0
M  V30 1497 H 133.887 3.91244 0.0663899 0
M  V30 1498 H 133.51 3.57154 1.74719 0
M  V30 1499 N 134.507 -0.190092 1.56449 0
M  V30 1500 C 135.923 -0.54113 1.50146 0
M  V30 1501 C 136.123 -1.85603 0.784465 0
M  V30 1502 O 135.179 -2.5024 0.337051 0
M  V30 1503 C 136.492 -0.591241 2.9483 0
M  V30 1504 C 138.04 -0.679732 3.0553 0
M  V30 1505 C 138.515 -0.760908 4.51635 0
M  V30 1506 N 140.006 -0.824302 4.55806 0
M  V30 1507 C 140.741 -0.907365 5.66175 0
M  V30 1508 N 140.237 -0.952422 6.86222 0
M  V30 1509 N 142.03 -0.94494 5.541 0
M  V30 1510 H 134.181 0.67235 2.01478 0
M  V30 1511 H 136.444 0.240127 0.917084 0
M  V30 1512 H 136.15 0.305905 3.50367 0
M  V30 1513 H 136.024 -1.44422 3.48457 0
M  V30 1514 H 138.411 -1.56731 2.50039 0
M  V30 1515 H 138.492 0.199549 2.5502 0
M  V30 1516 H 138.136 0.122336 5.07753 0
M  V30 1517 H 138.066 -1.65606 4.99882 0
M  V30 1518 H 140.557 -0.798526 3.69367 0
M  V30 1519 H 140.87 -1.01645 7.66086 0
M  V30 1520 H 139.215 -0.921014 6.8887 0
M  V30 1521 H 142.406 -0.906612 4.59236 0
M  V30 1522 H 142.579 -1.00622 6.4014 0
M  V30 1523 N 135.985 -1.50799 -0.457987 0
M  V30 1524 C 137.234 -1.6168 -1.20593 0
M  V30 1525 C 137.547 -0.32888 -1.92815 0
M  V30 1526 O 138.753 -0.316773 -2.69646 0
M  V30 1527 C 137.209 -2.8545 -2.19195 0
M  V30 1528 C 136.817 -4.21168 -1.52715 0
M  V30 1529 C 138.561 -3.05681 -2.94549 0
M  V30 1530 C 136.468 -5.3611 -2.4968 0
M  V30 1531 H 135.398 -0.602134 -0.453818 0
M  V30 1532 H 138.049 -1.77245 -0.475031 0
M  V30 1533 H 136.431 -2.63472 -2.95632 0
M  V30 1534 H 137.605 -4.53449 -0.819775 0
M  V30 1535 H 135.92 -4.06648 -0.895922 0
M  V30 1536 H 138.517 -3.88727 -3.67145 0
M  V30 1537 H 138.86 -2.17929 -3.54701 0
M  V30 1538 H 139.393 -3.27901 -2.25223 0
M  V30 1539 H 136.132 -6.26057 -1.94249 0
M  V30 1540 H 135.652 -5.0823 -3.18532 0
M  V30 1541 H 137.331 -5.6722 -3.11241 0
M  V30 1542 N 137.463 0.71206 -1.40597 0
M  V30 1543 C 138.393 1.83889 -1.43899 0
M  V30 1544 C 139.374 1.67442 -0.299504 0
M  V30 1545 O 140.559 1.87421 -0.508624 0
M  V30 1546 C 137.689 3.21877 -1.30431 0
M  V30 1547 C 136.643 3.53002 -2.42019 0
M  V30 1548 C 135.969 4.90172 -2.13626 0
M  V30 1549 C 137.269 3.53643 -3.84362 0
M  V30 1550 H 138.963 1.81383 -2.38203 0
M  V30 1551 H 136.509 0.871237 -1.14654 0
M  V30 1552 H 138.462 4.00404 -1.31357 0
M  V30 1553 H 137.186 3.24968 -0.326049 0
M  V30 1554 H 135.845 2.76818 -2.40349 0
M  V30 1555 H 135.493 4.89869 -1.14182 0
M  V30 1556 H 135.193 5.11962 -2.88389 0
M  V30 1557 H 136.717 5.71028 -2.1624 0
M  V30 1558 H 138.131 4.22203 -3.87837 0
M  V30 1559 H 136.528 3.86961 -4.58673 0
M  V30 1560 H 137.598 2.52954 -4.13693 0
M  V30 1561 N 138.941 1.26152 0.944643 0
M  V30 1562 C 139.888 1.07408 2.04285 0
M  V30 1563 C 140.858 -0.0198413 1.66088 0
M  V30 1564 O 142.043 0.139264 1.90291 0
M  V30 1565 C 139.183 0.70945 3.37729 0
M  V30 1566 C 138.296 1.87926 3.88983 0
M  V30 1567 C 137.431 1.45807 5.10797 0
M  V30 1568 C 136.47 2.5964 5.54305 0
M  V30 1569 N 135.607 2.18226 6.67324 0
M  V30 1570 H 140.447 2.01389 2.1965 0
M  V30 1571 H 137.984 1.00275 1.07626 0
M  V30 1572 H 139.942 0.478948 4.14442 0
M  V30 1573 H 138.572 -0.193389 3.2222 0
M  V30 1574 H 137.624 2.22279 3.08701 0
M  V30 1575 H 138.936 2.73377 4.17213 0
M  V30 1576 H 138.09 1.18781 5.94959 0
M  V30 1577 H 136.829 0.574414 4.84305 0
M  V30 1578 H 135.834 2.87399 4.68702 0
M  V30 1579 H 137.059 3.48599 5.828 0
M  V30 1580 H 135.005 1.3229 6.42523 0
M  V30 1581 H 134.922 2.97221 6.95123 0
M  V30 1582 H 136.19 1.94403 7.54869 0
M  V30 1583 N 140.419 -1.14872 1.07899 0
M  V30 1584 C 141.647 -1.89661 0.82683 0
M  V30 1585 C 142.062 -1.78312 -0.620519 0
M  V30 1586 O 141.419 -1.13888 -1.42604 0
M  V30 1587 C 141.47 -3.39817 1.23316 0
M  V30 1588 O 141.191 -3.50845 2.62372 0
M  V30 1589 C 142.692 -4.31615 1.0111 0
M  V30 1590 H 139.912 -0.60092 0.298557 0
M  V30 1591 H 142.456 -1.4551 1.43691 0
M  V30 1592 H 140.611 -3.8161 0.667286 0
M  V30 1593 H 141.025 -4.44076 2.79101 0
M  V30 1594 H 142.499 -5.35367 1.34486 0
M  V30 1595 H 142.976 -4.39169 -0.0522168 0
M  V30 1596 H 143.582 -3.95572 1.56215 0
M  V30 1597 N 141.898 -0.863906 -1.31812 0
M  V30 1598 C 143.147 -0.46801 -1.96195 0
M  V30 1599 C 143.46 0.983474 -1.69077 0
M  V30 1600 O 144.666 1.48523 -2.27273 0
M  V30 1601 C 143.122 -0.785995 -3.51212 0
M  V30 1602 C 142.73 -2.25383 -3.87178 0
M  V30 1603 C 144.474 -0.458274 -4.22019 0
M  V30 1604 C 142.381 -2.51455 -5.3528 0
M  V30 1605 H 141.311 -0.171283 -0.734287 0
M  V30 1606 H 143.962 -1.05597 -1.50072 0
M  V30 1607 H 142.344 -0.127359 -3.95795 0
M  V30 1608 H 143.518 -2.95502 -3.53575 0
M  V30 1609 H 141.833 -2.54698 -3.2942 0
M  V30 1610 H 144.43 -0.630369 -5.30971 0
M  V30 1611 H 144.773 0.600834 -4.11941 0
M  V30 1612 H 145.306 -1.07319 -3.8305 0
M  V30 1613 H 142.045 -3.56025 -5.50387 0
M  V30 1614 H 141.565 -1.85923 -5.70257 0
M  V30 1615 H 143.244 -2.35874 -6.02472 0
M  V30 1616 N 143.376 1.44774 -0.622745 0
M  V30 1617 C 144.323 2.30635 0.0871679 0
M  V30 1618 C 145.293 1.42994 0.845097 0
M  V30 1619 O 146.478 1.71907 0.827812 0
M  V30 1620 C 143.618 3.28144 1.06844 0
M  V30 1621 C 142.731 4.30888 0.309809 0
M  V30 1622 C 141.866 5.15494 1.28215 0
M  V30 1623 C 140.905 6.09953 0.512198 0
M  V30 1624 N 140.042 6.87287 1.43458 0
M  V30 1625 H 144.882 2.90803 -0.650974 0
M  V30 1626 H 142.419 1.43286 -0.33281 0
M  V30 1627 H 144.377 3.83157 1.65066 0
M  V30 1628 H 143.007 2.69695 1.77382 0
M  V30 1629 H 142.059 3.78414 -0.388181 0
M  V30 1630 H 143.371 4.97955 -0.290254 0
M  V30 1631 H 142.525 5.74983 1.93596 0
M  V30 1632 H 141.264 4.48481 1.91614 0
M  V30 1633 H 140.269 5.49581 -0.155151 0
M  V30 1634 H 141.494 6.78999 -0.116958 0
M  V30 1635 H 139.44 6.2295 2.05594 0
M  V30 1636 H 139.357 7.50763 0.888335 0
M  V30 1637 H 140.625 7.51306 2.07749 0
M  V30 1638 N 144.854 0.36279 1.53368 0
M  V30 1639 C 146.082 -0.228613 2.05633 0
M  V30 1640 C 146.497 -1.42676 1.23649 0
M  V30 1641 O 145.854 -1.80394 0.27647 0
M  V30 1642 C 145.905 -0.624845 3.56059 0
M  V30 1643 O 145.626 0.525675 4.34935 0
M  V30 1644 C 147.127 -1.27493 4.24571 0
M  V30 1645 H 144.347 -0.0407183 0.669763 0
M  V30 1646 H 146.891 0.520352 1.97769 0
M  V30 1647 H 145.046 -1.32373 3.64083 0
M  V30 1648 H 145.46 0.205969 5.24095 0
M  V30 1649 H 146.934 -1.50277 5.31151 0
M  V30 1650 H 147.411 -2.23439 3.78116 0
M  V30 1651 H 148.017 -0.617558 4.20792 0
M  V30 1652 N 146.332 -1.57332 0.0918853 0
M  V30 1653 C 147.282 -2.10385 -0.87876 0
M  V30 1654 C 148.266 -1.01814 -1.24591 0
M  V30 1655 O 149.458 -1.28093 -1.22152 0
M  V30 1656 C 146.587 -2.68517 -2.13901 0
M  V30 1657 C 145.673 -3.84126 -1.79744 0
M  V30 1658 N 146.064 -4.92288 -1.1613 0
M  V30 1659 C 144.362 -3.93801 -2.09373 0
M  V30 1660 C 145.063 -5.7295 -1.00513 0
M  V30 1661 N 144.039 -5.21876 -1.5214 0
M  V30 1662 H 147.841 -2.91395 -0.38293 0
M  V30 1663 H 145.355 -1.62017 -0.111423 0
M  V30 1664 H 147.352 -3.04852 -2.84378 0
M  V30 1665 H 146.012 -1.88961 -2.64053 0
M  V30 1666 H 147.023 -5.1123 -0.828504 0
M  V30 1667 H 143.7 -3.25249 -2.61762 0
M  V30 1668 H 145.09 -6.69978 -0.507902 0
M  V30 1669 N 147.81 0.181792 -1.56548 0
M  V30 1670 C 148.757 1.22521 -1.95595 0
M  V30 1671 C 149.727 1.4454 -0.818373 0
M  V30 1672 O 150.912 1.57454 -1.07763 0
M  V30 1673 C 148.052 2.56193 -2.31212 0
M  V30 1674 C 147.165 2.41641 -3.58097 0
M  V30 1675 C 146.3 3.68108 -3.82975 0
M  V30 1676 C 145.339 3.48445 -5.03242 0
M  V30 1677 N 144.476 4.66956 -5.24306 0
M  V30 1678 H 149.316 0.885226 -2.84548 0
M  V30 1679 H 146.853 0.425718 -1.40805 0
M  V30 1680 H 148.811 3.34088 -2.49882 0
M  V30 1681 H 147.441 2.88208 -1.45382 0
M  V30 1682 H 146.493 1.54976 -3.474 0
M  V30 1683 H 147.805 2.23052 -4.46149 0
M  V30 1684 H 146.959 4.54441 -4.01956 0
M  V30 1685 H 145.698 3.89666 -2.93278 0
M  V30 1686 H 144.703 2.60499 -4.8417 0
M  V30 1687 H 145.928 3.2832 -5.9446 0
M  V30 1688 H 143.874 4.88752 -4.37559 0
M  V30 1689 H 143.791 4.51242 -6.06561 0
M  V30 1690 H 145.059 5.54602 -5.47756 0
M  V30 1691 N 149.288 1.51039 0.449983 0
M  V30 1692 C 150.218 1.74379 1.55288 0
M  V30 1693 C 151.199 0.593236 1.5942 0
M  V30 1694 O 152.384 0.834625 1.7535 0
M  V30 1695 C 149.514 1.85728 2.93466 0
M  V30 1696 C 148.468 3.01078 3.04197 0
M  V30 1697 C 147.794 2.97595 4.44231 0
M  V30 1698 C 149.094 4.41254 2.7945 0
M  V30 1699 H 150.788 2.66725 1.36008 0
M  V30 1700 H 148.334 1.2835 0.652864 0
M  V30 1701 H 150.287 2.0064 3.70569 0
M  V30 1702 H 149.011 0.900207 3.13949 0
M  V30 1703 H 147.67 2.85851 2.29531 0
M  V30 1704 H 147.318 1.99691 4.61663 0
M  V30 1705 H 147.018 3.75046 4.52343 0
M  V30 1706 H 148.542 3.14583 5.23326 0
M  V30 1707 H 149.956 4.56897 3.46292 0
M  V30 1708 H 148.353 5.20315 2.98985 0
M  V30 1709 H 149.423 4.52164 1.75144 0
M  V30 1710 N 150.766 -0.704594 1.40972 0
M  V30 1711 C 151.713 -1.81862 1.42109 0
M  V30 1712 C 152.683 -1.63781 0.276593 0
M  V30 1713 O 153.868 -1.84759 0.4763 0
M  V30 1714 C 151.008 -3.19669 1.30022 0
M  V30 1715 C 150.121 -3.49246 2.54267 0
M  V30 1716 C 149.256 -4.76618 2.3454 0
M  V30 1717 C 148.295 -4.99133 3.54306 0
M  V30 1718 N 147.432 -6.17726 3.33706 0
M  V30 1719 H 152.272 -1.80226 2.37324 0
M  V30 1720 H 149.809 -0.880238 1.17857 0
M  V30 1721 H 151.767 -3.99263 1.21018 0
M  V30 1722 H 150.397 -3.20506 0.384192 0
M  V30 1723 H 149.449 -2.64125 2.73756 0
M  V30 1724 H 150.761 -3.61788 3.43381 0
M  V30 1725 H 149.915 -5.64249 2.22952 0
M  V30 1726 H 148.654 -4.66305 1.42867 0
M  V30 1727 H 147.659 -4.09953 3.66359 0
M  V30 1728 H 148.884 -5.11311 4.4692 0
M  V30 1729 H 146.83 -6.08642 2.44725 0
M  V30 1730 H 146.747 -6.30995 4.16391 0
M  V30 1731 H 148.015 -7.08115 3.25873 0
M  V30 1732 N 152.244 -1.26651 -0.937939 0
M  V30 1733 C 153.192 -1.08308 -2.05845 0
M  V30 1734 C 154.186 -0.0090757 -1.69398 0
M  V30 1735 O 155.392 -0.166007 -1.79233 0
M  V30 1736 H 151.767 -0.333416 -0.674046 0
M  V30 1737 H 153.738 -2.03261 -2.18467 0
M  V30 1738 C 152.487 -0.736229 -3.39816 0
M  V30 1739 H 151.81 -1.55453 -3.6834 0
M  V30 1740 H 153.25 -0.64769 -4.19024 0
M  V30 1741 C 151.709 0.558824 -3.32233 0
M  V30 1742 O 152.239 1.59621 -3.68624 0
M  V30 1743 N 150.445 0.550657 -2.85335 0
M  V30 1744 H 149.992 -0.293943 -2.55917 0
M  V30 1745 H 149.95 1.41726 -2.80644 0
M  V30 1746 N 153.722 1.14298 -1.08507 0
M  V30 1747 C 154.952 1.88945 -0.835663 0
M  V30 1748 C 155.36 1.78894 0.615928 0
M  V30 1749 O 154.703 1.1468 1.43506 0
M  V30 1750 C 154.765 3.39585 -1.17994 0
M  V30 1751 C 154.429 3.7342 -2.63451 0
M  V30 1752 C 155.426 3.73454 -3.61702 0
M  V30 1753 C 153.111 4.03368 -2.99332 0
M  V30 1754 C 155.105 4.02961 -4.93864 0
M  V30 1755 C 152.792 4.32538 -4.31687 0
M  V30 1756 C 153.79 4.32318 -5.28763 0
M  V30 1757 O 153.478 4.6078 -6.58739 0
M  V30 1758 H 153.21 0.605307 -0.300965 0
M  V30 1759 H 155.764 1.45673 -1.44806 0
M  V30 1760 H 153.994 3.83315 -0.51055 0
M  V30 1761 H 155.683 3.9554 -0.911182 0
M  V30 1762 H 156.449 3.50403 -3.35325 0
M  V30 1763 H 152.328 4.02692 -2.24411 0
M  V30 1764 H 155.872 4.02704 -5.69627 0
M  V30 1765 H 151.769 4.55059 -4.57812 0
M  V30 1766 H 152.537 4.78492 -6.64069 0
M  V30 1767 N 155.201 0.870884 1.31352 0
M  V30 1768 C 156.45 0.478408 1.95944 0
M  V30 1769 C 156.763 -0.974493 1.69597 0
M  V30 1770 O 157.969 -1.47316 2.28058 0
M  V30 1771 C 156.425 0.804609 3.50791 0
M  V30 1772 C 156.033 2.27433 3.85977 0
M  V30 1773 C 157.777 0.480648 4.2177 0
M  V30 1774 C 155.684 2.5429 5.33939 0
M  V30 1775 H 154.614 0.175175 0.733369 0
M  V30 1776 H 157.265 1.06391 1.4951 0
M  V30 1777 H 155.647 0.148347 3.95722 0
M  V30 1778 H 156.821 2.97373 3.52002 0
M  V30 1779 H 155.136 2.56442 3.28065 0
M  V30 1780 H 157.733 0.658519 5.30629 0
M  V30 1781 H 158.076 -0.578979 4.12254 0
M  V30 1782 H 158.609 1.09349 3.82476 0
M  V30 1783 H 155.348 3.58939 5.48491 0
M  V30 1784 H 154.868 1.88945 5.69263 0
M  V30 1785 H 156.547 2.39066 6.01212 0
M  V30 1786 N 156.679 -1.44442 0.630414 0
M  V30 1787 C 157.626 -2.30678 -0.0749355 0
M  V30 1788 C 158.596 -1.4344 -0.837502 0
M  V30 1789 O 159.781 -1.72343 -0.818684 0
M  V30 1790 C 156.921 -3.28706 -1.05103 0
M  V30 1791 C 156.034 -4.31046 -0.286954 0
M  V30 1792 C 155.169 -5.16167 -1.2548 0
M  V30 1793 C 154.208 -6.10216 -0.479843 0
M  V30 1794 N 153.345 -6.88039 -1.39811 0
M  V30 1795 H 158.185 -2.90454 0.666386 0
M  V30 1796 H 155.722 -1.43107 0.340404 0
M  V30 1797 H 157.68 -3.84027 -1.63031 0
M  V30 1798 H 156.31 -2.70632 -1.75949 0
M  V30 1799 H 155.362 -3.78203 0.408243 0
M  V30 1800 H 156.674 -4.97794 0.316657 0
M  V30 1801 H 155.828 -5.76002 -1.90544 0
M  V30 1802 H 154.567 -4.49491 -1.89233 0
M  V30 1803 H 153.572 -5.49491 0.184295 0
M  V30 1804 H 154.797 -6.78928 0.152965 0
M  V30 1805 H 152.743 -6.24032 -2.02287 0
M  V30 1806 H 152.66 -7.51223 -0.848508 0
M  V30 1807 H 153.928 -7.52397 -2.03762 0
M  V30 1808 N 158.157 -0.370918 -1.53173 0
M  V30 1809 C 159.067 0.480823 -2.2962 0
M  V30 1810 C 160.083 1.08789 -1.35798 0
M  V30 1811 O 161.259 1.09768 -1.68858 0
M  V30 1812 C 158.324 1.60227 -3.07454 0
M  V30 1813 C 157.385 1.0222 -4.16953 0
M  V30 1814 C 156.618 2.0902 -4.91066 0
M  V30 1815 O 156.841 3.30222 -4.65091 0
M  V30 1816 O 155.775 1.71778 -5.76867 0
M  V30 1817 H 159.601 -0.141421 -3.03371 0
M  V30 1818 H 157.186 -0.135146 -1.48787 0
M  V30 1819 H 159.068 2.25417 -3.56041 0
M  V30 1820 H 157.743 2.20982 -2.36535 0
M  V30 1821 H 156.65 0.334064 -3.72605 0
M  V30 1822 H 157.983 0.459131 -4.90054 0
M  V30 1823 N 159.635 1.57281 -0.100228 0
M  V30 1824 C 160.86 1.99302 0.573881 0
M  V30 1825 C 161.285 0.979059 1.60611 0
M  V30 1826 O 160.643 -0.0517803 1.81226 0
M  V30 1827 C 160.691 3.40274 1.19358 0
M  V30 1828 O 159.795 3.41676 2.30935 0
M  V30 1829 H 159.136 0.647944 0.145138 0
M  V30 1830 H 161.666 2.03779 -0.183156 0
M  V30 1831 H 161.676 3.78078 1.53365 0
M  V30 1832 H 160.351 4.13594 0.437385 0
M  V30 1833 H 158.928 3.15672 1.98509 0
M  V30 1834 N 161.113 -0.173488 1.56642 0
M  V30 1835 C 162.359 -0.891784 1.8214 0
M  V30 1836 C 162.692 -1.8199 0.677736 0
M  V30 1837 O 161.967 -1.91842 -0.320446 0
M  V30 1838 C 162.25 -1.68933 3.18015 0
M  V30 1839 C 162.103 -0.784487 4.42906 0
M  V30 1840 C 163.422 -2.65748 3.50808 0
M  V30 1841 H 160.541 -0.322761 0.662567 0
M  V30 1842 H 163.183 -0.158095 1.89341 0
M  V30 1843 H 161.333 -2.31482 3.12007 0
M  V30 1844 H 163.005 -0.172046 4.60979 0
M  V30 1845 H 161.248 -0.0924117 4.33702 0
M  V30 1846 H 161.919 -1.37799 5.34524 0
M  V30 1847 H 164.395 -2.13327 3.57255 0
M  V30 1848 H 163.271 -3.18619 4.4696 0
M  V30 1849 H 163.532 -3.45842 2.75401 0
M  V30 1850 N 162.591 -1.51276 -0.441967 0
M  V30 1851 C 163.539 -1.72823 -1.55676 0
M  V30 1852 C 164.533 -0.59445 -1.58627 0
M  V30 1853 O 165.739 -0.775715 -1.62427 0
M  V30 1854 H 162.114 -0.545983 -0.517113 0
M  V30 1855 H 164.085 -2.6628 -1.34675 0
M  V30 1856 C 162.834 -1.86619 -2.93375 0
M  V30 1857 H 162.157 -2.73264 -2.91834 0
M  V30 1858 H 163.597 -2.05709 -3.70756 0
M  V30 1859 C 162.056 -0.624842 -3.31055 0
M  V30 1860 O 162.586 0.222636 -4.01083 0
M  V30 1861 N 160.792 -0.470288 -2.86769 0
M  V30 1862 H 160.339 -1.161 -2.29953 0
M  V30 1863 H 160.297 0.359051 -3.12343 0
M  V30 1864 N 164.069 0.697108 -1.41344 0
M  V30 1865 C 165.316 1.45714 -1.40619 0
M  V30 1866 C 165.644 1.94494 -0.0147907 0
M  V30 1867 O 164.899 1.69794 0.973066 0
M  V30 1868 C 165.198 2.68553 -2.35826 0
M  V30 1869 C 164.864 2.38438 -3.82698 0
M  V30 1870 C 163.526 2.29936 -4.22709 0
M  V30 1871 C 165.878 2.13567 -4.75435 0
M  V30 1872 C 163.206 1.94656 -5.53467 0
M  V30 1873 C 165.558 1.79797 -6.06511 0
M  V30 1874 C 164.222 1.69789 -6.45545 0
M  V30 1875 H 163.492 0.533206 -0.51456 0
M  V30 1876 H 166.139 0.796901 -1.74131 0
M  V30 1877 H 164.444 3.39503 -1.95563 0
M  V30 1878 H 166.141 3.2669 -2.32539 0
M  V30 1879 H 162.731 2.4595 -3.51008 0
M  V30 1880 H 166.915 2.19082 -4.45328 0
M  V30 1881 H 162.171 1.8546 -5.82593 0
M  V30 1882 H 166.345 1.59572 -6.77872 0
M  V30 1883 H 163.972 1.4222 -7.46778 0
M  V30 1884 N 165.547 1.27147 0.931209 0
M  V30 1885 C 166.477 1.12081 2.04842 0
M  V30 1886 C 167.458 0.0232364 1.70084 0
M  V30 1887 O 168.643 0.197085 1.93197 0
M  V30 1888 C 165.773 0.76354 3.38803 0
M  V30 1889 C 164.727 1.81396 3.87659 0
M  V30 1890 C 164.053 1.31075 5.18385 0
M  V30 1891 C 165.353 3.21739 4.11438 0
M  V30 1892 H 167.047 2.05537 2.17703 0
M  V30 1893 H 164.593 0.989603 1.04608 0
M  V30 1894 H 166.546 0.644982 4.16435 0
M  V30 1895 H 165.27 -0.206727 3.25945 0
M  V30 1896 H 163.929 1.92136 3.12217 0
M  V30 1897 H 163.577 0.330037 5.01916 0
M  V30 1898 H 163.277 2.013 5.52044 0
M  V30 1899 H 164.801 1.20506 5.98591 0
M  V30 1900 H 166.215 3.14019 4.79651 0
M  V30 1901 H 164.612 3.89644 4.56397 0
M  V30 1902 H 165.682 3.67054 3.16859 0
M  V30 1903 N 167.025 -1.13721 1.09112 0
M  V30 1904 C 167.973 -2.21103 0.722219 0
M  V30 1905 C 168.967 -1.67147 -0.275374 0
M  V30 1906 O 170.173 -1.79477 -0.137176 0
M  V30 1907 H 166.548 -0.720445 0.215553 0
M  V30 1908 H 168.519 -2.49483 1.63709 0
M  V30 1909 C 167.268 -3.47352 0.15543 0
M  V30 1910 H 166.591 -3.89206 0.914246 0
M  V30 1911 H 168.031 -4.2395 -0.0647967 0
M  V30 1912 C 166.49 -3.1814 -1.10852 0
M  V30 1913 O 167.02 -3.36604 -2.19227 0
M  V30 1914 N 165.226 -2.72045 -1.02176 0
M  V30 1915 H 164.773 -2.57221 -0.139764 0
M  V30 1916 H 164.731 -2.52875 -1.8682 0
M  V30 1917 N 168.503 -0.877838 -1.30888 0
M  V30 1918 C 169.728 -0.506629 -2.01117 0
M  V30 1919 C 170.153 0.895564 -1.65412 0
M  V30 1920 O 169.511 1.5923 -0.866922 0
M  V30 1921 C 169.559 -0.680223 -3.54126 0
M  V30 1922 O 168.663 0.277033 -4.11468 0
M  V30 1923 H 168.004 -0.200518 -0.633 0
M  V30 1924 H 170.534 -1.18342 -1.66902 0
M  V30 1925 H 170.544 -0.5765 -4.03907 0
M  V30 1926 H 169.219 -1.70261 -3.79452 0
M  V30 1927 H 167.796 0.127606 -3.72682 0
M  V30 1928 N 169.982 1.44106 -0.638065 0
M  V30 1929 C 171.23 2.01579 -0.145043 0
M  V30 1930 C 171.551 1.50496 1.24 0
M  V30 1931 O 170.821 0.711374 1.82527 0
M  V30 1932 H 169.401 0.745282 -0.05063 0
M  V30 1933 H 172.063 1.76516 -0.826327 0
M  V30 1934 H 171.159 3.11877 -0.118039 0
M  V30 1935 N 171.46 0.379036 1.52974 0
M  V30 1936 C 172.39 -0.452706 2.29069 0
M  V30 1937 C 173.371 -1.07237 1.32039 0
M  V30 1938 O 174.556 -1.08708 1.60923 0
M  V30 1939 C 171.686 -1.5856 3.08992 0
M  V30 1940 C 170.64 -1.0925 4.13822 0
M  V30 1941 C 169.966 -2.31668 4.81907 0
M  V30 1942 C 171.266 -0.167702 5.22031 0
M  V30 1943 H 172.96 0.182181 2.98845 0
M  V30 1944 H 170.506 0.0890592 1.43724 0
M  V30 1945 H 172.459 -2.1742 3.6098 0
M  V30 1946 H 171.183 -2.24792 2.36931 0
M  V30 1947 H 169.842 -0.526494 3.628 0
M  V30 1948 H 169.49 -2.96386 4.06404 0
M  V30 1949 H 169.19 -1.9934 5.52754 0
M  V30 1950 H 170.714 -2.91189 5.36695 0
M  V30 1951 H 172.128 -0.664186 5.6944 0
M  V30 1952 H 170.525 0.0653265 6.00064 0
M  V30 1953 H 171.595 0.786347 4.78482 0
M  V30 1954 N 172.938 -1.57226 0.108567 0
M  V30 1955 C 174.166 -1.99179 -0.559954 0
M  V30 1956 C 174.581 -0.988022 -1.60884 0
M  V30 1957 O 173.938 0.0205512 -1.82488 0
M  V30 1958 C 173.989 -3.41159 -1.19552 0
M  V30 1959 O 173.71 -4.37694 -0.188577 0
M  V30 1960 C 175.211 -3.98188 -1.94837 0
M  V30 1961 H 172.431 -0.654228 -0.149088 0
M  V30 1962 H 174.975 -2.03598 0.19183 0
M  V30 1963 H 173.13 -3.37711 -1.89815 0
M  V30 1964 H 173.544 -5.20469 -0.649014 0
M  V30 1965 H 175.018 -4.99644 -2.34648 0
M  V30 1966 H 175.495 -3.3675 -2.81951 0
M  V30 1967 H 176.101 -4.0515 -1.2936 0
M  V30 1968 N 174.416 0.165178 -1.56732 0
M  V30 1969 C 175.363 1.2044 -1.96883 0
M  V30 1970 C 176.333 1.43664 -0.833657 0
M  V30 1971 O 177.518 1.56302 -1.09427 0
M  V30 1972 C 174.658 2.53727 -2.33916 0
M  V30 1973 C 173.771 2.3783 -3.6064 0
M  V30 1974 C 172.906 3.64026 -3.86857 0
M  V30 1975 C 171.945 3.43088 -5.06909 0
M  V30 1976 N 171.082 4.61369 -5.29229 0
M  V30 1977 H 175.922 0.854996 -2.85471 0
M  V30 1978 H 173.459 0.41076 -1.41249 0
M  V30 1979 H 175.417 3.31419 -2.53411 0
M  V30 1980 H 174.047 2.8665 -1.48431 0
M  V30 1981 H 173.099 1.51282 -3.49024 0
M  V30 1982 H 174.411 2.18308 -4.4849 0
M  V30 1983 H 173.565 4.50152 -4.06753 0
M  V30 1984 H 172.304 3.86533 -2.97394 0
M  V30 1985 H 171.309 2.55349 -4.86906 0
M  V30 1986 H 172.534 3.21997 -5.97909 0
M  V30 1987 H 170.48 4.84084 -4.42718 0
M  V30 1988 H 170.397 4.44783 -6.11313 0
M  V30 1989 H 171.665 5.48761 -5.53608 0
M  V30 1990 N 175.894 1.51508 0.433938 0
M  V30 1991 C 177.122 1.68157 1.20543 0
M  V30 1992 C 177.537 0.380362 1.84929 0
M  V30 1993 O 176.894 -0.641446 1.70856 0
M  V30 1994 C 176.945 2.79965 2.28696 0
M  V30 1995 O 176.666 4.05045 1.66943 0
M  V30 1996 C 178.167 3.07912 3.18912 0
M  V30 1997 H 175.387 0.56421 0.363191 0
M  V30 1998 H 177.931 1.97941 0.513754 0
M  V30 1999 H 176.086 2.5277 2.93574 0
M  V30 2000 H 176.5 4.67165 2.38448 0
M  V30 2001 H 177.974 3.89719 3.90926 0
M  V30 2002 H 178.451 2.20456 3.79863 0
M  V30 2003 H 179.057 3.36779 2.59731 0
M  V30 2004 N 177.372 -0.689602 1.41712 0
M  V30 2005 C 178.32 -1.82475 1.44242 0
M  V30 2006 C 179.314 -1.66354 0.319774 0
M  V30 2007 O 180.52 -1.73143 0.492089 0
M  V30 2008 H 176.895 -0.601416 0.451445 0
M  V30 2009 H 178.866 -1.77458 2.39899 0
M  V30 2010 C 177.615 -3.20535 1.3473 0
M  V30 2011 H 176.938 -3.33559 2.20405 0
M  V30 2012 H 178.378 -4.00023 1.40562 0
M  V30 2013 C 176.837 -3.36846 0.0603281 0
M  V30 2014 O 177.367 -3.91656 -0.892663 0
M  V30 2015 N 175.573 -2.90595 -0.0177039 0
M  V30 2016 H 175.12 -2.46178 0.758572 0
M  V30 2017 H 175.078 -3.01886 -0.878201 0
M  V30 2018 N 178.85 -1.27639 -0.924453 0
M  V30 2019 C 180.08 -1.16819 -1.70402 0
M  V30 2020 C 180.488 0.277191 -1.87158 0
M  V30 2021 O 179.831 1.20025 -1.39067 0
M  V30 2022 C 179.893 -1.78305 -3.12166 0
M  V30 2023 C 179.557 -3.27502 -3.18734 0
M  V30 2024 C 180.554 -4.2409 -3.00738 0
M  V30 2025 C 178.239 -3.68269 -3.4159 0
M  V30 2026 C 180.233 -5.59422 -3.05492 0
M  V30 2027 C 177.92 -5.0373 -3.45977 0
M  V30 2028 C 178.918 -5.99116 -3.27946 0
M  V30 2029 O 178.606 -7.32108 -3.32074 0
M  V30 2030 H 178.338 -0.406931 -0.539799 0
M  V30 2031 H 180.892 -1.69078 -1.16626 0
M  V30 2032 H 179.122 -1.20528 -3.67437 0
M  V30 2033 H 180.811 -1.62154 -3.72103 0
M  V30 2034 H 181.577 -3.93931 -2.82919 0
M  V30 2035 H 177.456 -2.94496 -3.54673 0
M  V30 2036 H 181 -6.33852 -2.91337 0
M  V30 2037 H 176.897 -5.33543 -3.63321 0
M  V30 2038 H 177.665 -7.40598 -3.48507 0
M  V30 2039 N 180.328 1.1314 -1.09713 0
M  V30 2040 C 181.258 2.20748 -0.761102 0
M  V30 2041 C 182.239 1.68061 0.262566 0
M  V30 2042 O 183.424 1.93765 0.129977 0
M  V30 2043 C 180.554 3.46812 -0.184054 0
M  V30 2044 C 179.508 4.12606 -1.13757 0
M  V30 2045 C 178.834 5.33031 -0.422083 0
M  V30 2046 C 180.134 4.59603 -2.48118 0
M  V30 2047 H 181.828 2.49113 -1.66082 0
M  V30 2048 H 179.374 1.19734 -0.799987 0
M  V30 2049 H 181.327 4.21353 0.0631215 0
M  V30 2050 H 180.051 3.17851 0.750868 0
M  V30 2051 H 178.71 3.40036 -1.37007 0
M  V30 2052 H 178.358 5.00335 0.517072 0
M  V30 2053 H 178.058 5.77999 -1.05788 0
M  V30 2054 H 179.582 6.10325 -0.183277 0
M  V30 2055 H 180.996 5.25552 -2.29059 0
M  V30 2056 H 179.393 5.15321 -3.07514 0
M  V30 2057 H 180.463 3.73971 -3.08665 0
M  V30 2058 N 181.806 0.884767 1.30421 0
M  V30 2059 C 183.054 0.502112 1.95763 0
M  V30 2060 C 183.375 -0.951815 1.70192 0
M  V30 2061 O 182.645 -1.6692 1.0254 0
M  V30 2062 H 181.225 0.182694 0.724315 0
M  V30 2063 H 183.887 1.1278 1.58955 0
M  V30 2064 H 182.983 0.672188 3.04775 0
M  V30 2065 N 183.284 -1.43765 0.645699 0
M  V30 2066 C 184.509 -2.06767 0.161883 0
M  V30 2067 C 184.934 -1.48034 -1.16049 0
M  V30 2068 O 184.292 -0.587369 -1.71522 0
M  V30 2069 C 184.34 -3.60519 0.0762003 0
M  V30 2070 O 183.444 -4.00982 -0.963721 0
M  V30 2071 H 182.785 -0.657675 0.091429 0
M  V30 2072 H 185.315 -1.84397 0.886499 0
M  V30 2073 H 185.325 -4.07853 -0.109604 0
M  V30 2074 H 184 -4.02646 1.04157 0
M  V30 2075 H 182.577 -3.65253 -0.751312 0
M  V30 2076 N 184.763 -0.387143 -1.52771 0
M  V30 2077 C 185.988 0.198407 -2.06449 0
M  V30 2078 C 186.413 1.39918 -1.25716 0
M  V30 2079 O 185.771 1.79099 -0.281657 0
M  V30 2080 C 185.819 0.548893 -3.56398 0
M  V30 2081 O 184.923 1.64315 -3.78252 0
M  V30 2082 H 184.264 0.0237731 -0.663574 0
M  V30 2083 H 186.794 -0.553989 -1.96957 0
M  V30 2084 H 186.804 0.813812 -3.99801 0
M  V30 2085 H 185.479 -0.329005 -4.14597 0
M  V30 2086 H 184.056 1.37211 -3.46738 0
M  V30 2087 N 186.241 1.57166 -0.116904 0
M  V30 2088 C 187.189 2.16457 0.851418 0
M  V30 2089 C 188.183 1.11323 1.27686 0
M  V30 2090 O 189.389 1.2963 1.24884 0
M  V30 2091 H 185.764 0.69271 0.292672 0
M  V30 2092 H 187.735 2.96605 0.32685 0
M  V30 2093 C 186.484 2.77689 2.09246 0
M  V30 2094 H 185.807 3.58285 1.77402 0
M  V30 2095 H 187.247 3.22716 2.7501 0
M  V30 2096 C 185.706 1.74667 2.88085 0
M  V30 2097 O 186.236 1.19877 3.83396 0
M  V30 2098 N 184.442 1.44656 2.52038 0
M  V30 2099 H 183.989 1.89402 1.74599 0
M  V30 2100 H 183.947 0.759675 3.05084 0
M  V30 2101 N 187.719 -0.156864 1.56817 0
M  V30 2102 C 188.996 -0.899244 1.73704 0
M  V30 2103 C 189.376 -1.99771 0.682254 0
M  V30 2104 O 188.724 -2.26515 -0.300522 0
M  V30 2105 C 188.934 -1.45075 3.17418 0
M  V30 2106 C 190.282 -1.91802 3.7881 0
M  V30 2107 O 191.306 -1.54838 3.20786 0
M  V30 2108 O 190.165 -2.5994 4.80722 0
M  V30 2109 H 187.259 -0.424267 0.709878 0
M  V30 2110 H 189.805 -0.143561 1.69092 0
M  V30 2111 H 188.577 -0.660846 3.85679 0
M  V30 2112 H 188.2 -2.27021 3.26416 0
M  V30 2113 N 189.197 -1.51736 -0.425897 0
M  V30 2114 C 190.145 -1.74464 -1.53834 0
M  V30 2115 C 191.139 -0.611241 -1.57988 0
M  V30 2116 O 192.345 -0.792899 -1.61596 0
M  V30 2117 H 188.72 -0.551437 -0.511293 0
M  V30 2118 H 190.691 -2.67694 -1.31843 0
M  V30 2119 C 189.44 -1.8972 -2.91379 0
M  V30 2120 H 188.763 -2.76344 -2.88919 0
M  V30 2121 H 190.203 -2.09629 -3.68553 0
M  V30 2122 C 188.662 -0.65992 -3.30374 0
M  V30 2123 O 189.192 0.180083 -4.01296 0
M  V30 2124 N 187.398 -0.500677 -2.86254 0
M  V30 2125 H 186.945 -1.18532 -2.28709 0
M  V30 2126 H 186.903 0.325903 -3.12706 0
M  V30 2127 N 190.675 0.682077 -1.42076 0
M  V30 2128 C 191.924 1.43786 -1.41451 0
M  V30 2129 C 192.237 1.95574 -0.0317074 0
M  V30 2130 O 193.443 2.71326 0.0971462 0
M  V30 2131 C 191.899 2.60071 -2.48779 0
M  V30 2132 C 191.507 2.15013 -3.93031 0
M  V30 2133 C 193.251 3.37626 -2.57311 0
M  V30 2134 C 191.158 3.28336 -4.91883 0
M  V30 2135 H 190.088 0.540143 -0.526082 0
M  V30 2136 H 192.739 0.739157 -1.67955 0
M  V30 2137 H 191.121 3.32275 -2.15429 0
M  V30 2138 H 192.295 1.5001 -4.35699 0
M  V30 2139 H 190.61 1.50416 -3.88284 0
M  V30 2140 H 193.207 4.22012 -3.28345 0
M  V30 2141 H 193.55 3.83727 -1.61429 0
M  V30 2142 H 194.083 2.72488 -2.89819 0
M  V30 2143 H 190.822 2.87234 -5.89217 0
M  V30 2144 H 190.342 3.92145 -4.53853 0
M  V30 2145 H 192.021 3.93913 -5.13265 0
M  V30 2146 N 192.153 1.28127 0.917671 0
M  V30 2147 C 193.063 1.13556 2.05286 0
M  V30 2148 C 194.079 0.0630914 1.73886 0
M  V30 2149 O 195.255 0.271598 1.9956 0
M  V30 2150 C 192.32 0.794676 3.3747 0
M  V30 2151 C 191.381 1.94909 3.82504 0
M  V30 2152 C 190.614 1.62437 5.0838 0
M  V30 2153 O 190.837 0.536905 5.67867 0
M  V30 2154 O 189.771 2.46677 5.4903 0
M  V30 2155 H 193.597 2.08844 2.20495 0
M  V30 2156 H 191.182 1.07409 1.03845 0
M  V30 2157 H 193.064 0.618344 4.16839 0
M  V30 2158 H 191.739 -0.128581 3.23445 0
M  V30 2159 H 190.646 2.18055 3.03978 0
M  V30 2160 H 191.979 2.85291 4.01086 0
M  V30 2161 N 193.631 -1.12557 1.10312 0
M  V30 2162 C 194.561 -2.20341 0.772798 0
M  V30 2163 C 195.542 -1.68198 -0.25365 0
M  V30 2164 O 196.727 -1.93831 -0.119699 0
M  V30 2165 C 193.857 -3.46709 0.202443 0
M  V30 2166 C 192.811 -4.11996 1.15943 0
M  V30 2167 C 192.137 -5.328 0.450345 0
M  V30 2168 C 193.437 -4.5828 2.50552 0
M  V30 2169 H 195.131 -2.48229 1.674 0
M  V30 2170 H 192.677 -1.19308 0.806326 0
M  V30 2171 H 194.63 -4.2138 -0.0407752 0
M  V30 2172 H 193.354 -3.18245 -0.734001 0
M  V30 2173 H 192.013 -3.39305 1.38808 0
M  V30 2174 H 191.661 -5.00602 -0.490531 0
M  V30 2175 H 191.361 -5.7743 1.08851 0
M  V30 2176 H 192.885 -6.10219 0.215642 0
M  V30 2177 H 194.299 -5.2433 2.31843 0
M  V30 2178 H 192.696 -5.13683 3.10242 0
M  V30 2179 H 193.766 -3.72329 3.10643 0
M  V30 2180 N 195.109 -0.891671 -1.2995 0
M  V30 2181 C 196.355 -0.514261 -1.96171 0
M  V30 2182 C 196.688 0.935506 -1.70182 0
M  V30 2183 O 195.963 1.66204 -1.01028 0
M  V30 2184 C 196.246 -0.797719 -3.51153 0
M  V30 2185 C 196.099 -2.2986 -3.86632 0
M  V30 2186 C 197.418 -0.278749 -4.39216 0
M  V30 2187 H 194.537 -0.188314 -0.712535 0
M  V30 2188 H 197.179 -1.11689 -1.53706 0
M  V30 2189 H 195.329 -0.284826 -3.87455 0
M  V30 2190 H 197.001 -2.88042 -3.60319 0
M  V30 2191 H 195.244 -2.76257 -3.34462 0
M  V30 2192 H 195.915 -2.44753 -4.94773 0
M  V30 2193 H 198.391 -0.717825 -4.09862 0
M  V30 2194 H 197.267 -0.506353 -5.46559 0
M  V30 2195 H 197.528 0.820266 -4.34424 0
M  V30 2196 N 196.587 1.43421 -0.653314 0
M  V30 2197 C 197.864 1.95361 -0.0966581 0
M  V30 2198 C 198.244 1.59461 1.38331 0
M  V30 2199 O 197.592 0.879777 2.10884 0
M  V30 2200 C 197.802 3.47311 -0.342988 0
M  V30 2201 C 199.15 4.23875 -0.24798 0
M  V30 2202 O 200.174 3.55133 -0.275553 0
M  V30 2203 O 199.033 5.4623 -0.171771 0
M  V30 2204 H 196.127 0.826945 0.00956291 0
M  V30 2205 H 198.673 1.5336 -0.726558 0
M  V30 2206 H 197.445 3.66569 -1.36906 0
M  V30 2207 H 197.068 3.9631 0.319975 0
M  V30 2208 N 198.065 0.39524 1.52563 0
M  V30 2209 C 199.312 -0.185044 2.01653 0
M  V30 2210 C 199.64 -1.46317 1.28146 0
M  V30 2211 O 198.895 -1.9213 0.372074 0
M  V30 2212 C 199.194 -0.493444 3.53977 0
M  V30 2213 C 198.86 0.69384 4.4553 0
M  V30 2214 C 197.522 1.01954 4.70275 0
M  V30 2215 C 199.874 1.48785 4.99512 0
M  V30 2216 C 197.202 2.14069 5.46252 0
M  V30 2217 C 199.554 2.59965 5.76716 0
M  V30 2218 C 198.218 2.93037 5.99738 0
M  V30 2219 H 197.488 -0.0677123 0.7379 0
M  V30 2220 H 200.135 0.533807 1.8391 0
M  V30 2221 H 198.44 -1.29369 3.69825 0
M  V30 2222 H 200.137 -0.955163 3.89458 0
M  V30 2223 H 196.727 0.429987 4.26438 0
M  V30 2224 H 200.911 1.24946 4.80315 0
M  V30 2225 H 196.167 2.40056 5.62302 0
M  V30 2226 H 200.341 3.21887 6.17545 0
M  V30 2227 H 197.968 3.8003 6.58393 0
M  V30 2228 N 199.544 -1.57102 0.125237 0
M  V30 2229 C 200.476 -2.12726 -0.853237 0
M  V30 2230 C 201.489 -1.07145 -1.22571 0
M  V30 2231 O 202.678 -1.34497 -1.17358 0
M  V30 2232 C 199.778 -2.61709 -2.15317 0
M  V30 2233 C 198.951 -3.91456 -1.95143 0
M  V30 2234 C 198.01 -4.25973 -3.08923 0
M  V30 2235 O 197.036 -4.94682 -2.81564 0
M  V30 2236 N 198.238 -3.83795 -4.35524 0
M  V30 2237 H 201.003 -2.97307 -0.377964 0
M  V30 2238 H 198.564 -1.61792 -0.0590011 0
M  V30 2239 H 200.556 -2.81826 -2.90441 0
M  V30 2240 H 199.126 -1.81974 -2.54174 0
M  V30 2241 H 198.346 -3.80185 -1.04177 0
M  V30 2242 H 199.634 -4.76283 -1.78976 0
M  V30 2243 H 199.032 -3.2839 -4.60626 0
M  V30 2244 H 197.589 -4.09008 -5.07499 0
M  V30 2245 N 201.022 0.148545 -1.56898 0
M  V30 2246 C 201.97 1.20265 -1.99096 0
M  V30 2247 C 202.964 1.44559 -0.883123 0
M  V30 2248 O 204.17 1.4487 -1.0683 0
M  V30 2249 H 200.545 0.404786 -0.63376 0
M  V30 2250 H 202.516 0.82004 -2.86911 0
M  V30 2251 C 201.265 2.52886 -2.3863 0
M  V30 2252 H 200.588 2.35021 -3.23427 0
M  V30 2253 H 202.028 3.25274 -2.7198 0
M  V30 2254 C 200.487 3.13315 -1.23837 0
M  V30 2255 O 201.017 3.98077 -0.538268 0
M  V30 2256 N 199.223 2.72742 -1.00301 0
M  V30 2257 H 198.77 2.03912 -1.5741 0
M  V30 2258 H 198.728 3.13507 -0.236838 0
M  V30 2259 N 202.5 1.5196 0.417844 0
M  V30 2260 C 203.749 1.6482 1.16264 0
M  V30 2261 C 204.062 0.379886 1.91876 0
M  V30 2262 O 205.268 0.388154 2.68711 0
M  V30 2263 C 203.724 2.91161 2.1155 0
M  V30 2264 C 203.332 4.25068 1.41495 0
M  V30 2265 C 205.076 3.13383 2.86341 0
M  V30 2266 C 202.983 5.42541 2.35379 0
M  V30 2267 H 201.913 0.613954 0.437694 0
M  V30 2268 H 204.564 1.78442 0.427871 0
M  V30 2269 H 202.946 2.71218 2.88543 0
M  V30 2270 H 204.12 4.55463 0.699263 0
M  V30 2271 H 202.435 4.0888 0.787792 0
M  V30 2272 H 205.032 3.98324 3.5671 0
M  V30 2273 H 205.375 2.27256 3.48798 0
M  V30 2274 H 205.908 3.33757 2.1645 0
M  V30 2275 H 202.647 6.30987 1.77582 0
M  V30 2276 H 202.167 5.16497 3.04945 0
M  V30 2277 H 203.846 5.75272 2.96093 0
M  V30 2278 N 203.978 -0.674533 1.42435 0
M  V30 2279 C 204.911 -1.79924 1.40366 0
M  V30 2280 C 205.889 -1.60378 0.267899 0
M  V30 2281 O 207.073 -1.82847 0.458159 0
M  V30 2282 C 204.2 -3.16927 1.19478 0
M  V30 2283 C 203.246 -3.55221 2.36051 0
M  V30 2284 S 204.079 -3.5762 3.98583 0
M  V30 2285 C 205.235 -4.97315 3.80038 0
M  V30 2286 H 205.468 -1.81405 2.35541 0
M  V30 2287 H 203.001 -0.845221 1.29211 0
M  V30 2288 H 204.959 -3.96007 1.08114 0
M  V30 2289 H 203.62 -3.13031 0.258883 0
M  V30 2290 H 202.813 -4.54804 2.17185 0
M  V30 2291 H 202.415 -2.83502 2.43932 0
M  V30 2292 H 204.707 -5.85401 3.41045 0
M  V30 2293 H 205.65 -5.21228 4.79298 0
M  V30 2294 H 206.058 -4.69845 3.12899 0
M  V30 2295 N 205.456 -1.28612 -0.910864 0
M  V30 2296 C 206.703 -1.15934 -1.66029 0
M  V30 2297 C 207.031 0.291483 -1.92303 0
M  V30 2298 O 206.286 1.22816 -1.52364 0
M  V30 2299 C 206.585 -1.90624 -3.0232 0
M  V30 2300 C 206.251 -3.40405 -2.95695 0
M  V30 2301 C 204.913 -3.81255 -2.93595 0
M  V30 2302 C 207.265 -4.359 -2.85728 0
M  V30 2303 C 204.593 -5.15936 -2.79334 0
M  V30 2304 C 206.945 -5.70657 -2.73007 0
M  V30 2305 C 205.609 -6.10779 -2.69267 0
M  V30 2306 H 204.879 -0.424234 -0.607541 0
M  V30 2307 H 207.526 -1.5942 -1.06101 0
M  V30 2308 H 205.831 -1.39696 -3.6605 0
M  V30 2309 H 207.528 -1.78228 -3.59215 0
M  V30 2310 H 204.118 -3.07927 -2.98125 0
M  V30 2311 H 208.302 -4.053 -2.86436 0
M  V30 2312 H 203.558 -5.46146 -2.74835 0
M  V30 2313 H 207.732 -6.44311 -2.64264 0
M  V30 2314 H 205.359 -7.1509 -2.57974 0
M  V30 2315 N 206.934 1.1197 -1.10907 0
M  V30 2316 C 208.164 1.8713 -0.875553 0
M  V30 2317 C 208.572 1.8016 0.577843 0
M  V30 2318 O 207.915 1.17699 1.41042 0
M  V30 2319 C 207.977 3.37005 -1.2517 0
M  V30 2320 C 207.641 3.67748 -2.71313 0
M  V30 2321 C 208.638 3.65698 -3.69542 0
M  V30 2322 C 206.323 3.96928 -3.07821 0
M  V30 2323 C 208.317 3.92395 -5.023 0
M  V30 2324 C 206.004 4.23284 -4.40765 0
M  V30 2325 C 207.002 4.21005 -5.37814 0
M  V30 2326 O 206.69 4.46704 -6.68364 0
M  V30 2327 H 206.422 0.598786 -0.313737 0
M  V30 2328 H 208.976 1.42568 -1.47863 0
M  V30 2329 H 207.206 3.82146 -0.591741 0
M  V30 2330 H 208.895 3.93519 -0.994877 0
M  V30 2331 H 209.661 3.43211 -3.42682 0
M  V30 2332 H 205.54 3.97841 -2.32902 0
M  V30 2333 H 209.084 3.90531 -5.78041 0
M  V30 2334 H 204.981 4.45246 -4.67361 0
M  V30 2335 H 205.749 4.64299 -6.74069 0
M  V30 2336 N 208.412 0.89855 1.29475 0
M  V30 2337 C 209.66 0.522847 1.9522 0
M  V30 2338 C 209.981 -0.93371 1.71192 0
M  V30 2339 O 209.251 -1.65823 1.04305 0
M  V30 2340 H 207.831 0.190366 0.722336 0
M  V30 2341 H 210.493 1.14459 1.5775 0
M  V30 2342 H 209.589 0.704476 3.04045 0
M  V30 2343 N 209.89 -1.43072 0.660911 0
M  V30 2344 C 211.167 -1.95307 0.107017 0
M  V30 2345 C 211.547 -1.60192 -1.37484 0
M  V30 2346 O 210.895 -0.890949 -2.10415 0
M  V30 2347 C 211.105 -3.47124 0.361402 0
M  V30 2348 C 212.453 -4.23738 0.270455 0
M  V30 2349 O 213.477 -3.54981 0.294382 0
M  V30 2350 O 212.336 -5.46131 0.200737 0
M  V30 2351 H 209.43 -0.826984 -0.00517729 0
M  V30 2352 H 211.976 -1.52972 0.734681 0
M  V30 2353 H 210.748 -3.65837 1.38848 0
M  V30 2354 H 210.371 -3.96475 -0.298953 0
M  V30 2355 N 211.368 -0.403325 -1.52352 0
M  V30 2356 C 212.331 0.413051 -2.25447 0
M  V30 2357 C 213.331 0.978513 -1.276 0
M  V30 2358 O 214.521 0.858305 -1.51587 0
M  V30 2359 C 211.653 1.58087 -3.02029 0
M  V30 2360 H 212.846 -0.227094 -2.99039 0
M  V30 2361 H 210.399 -0.155722 -1.55522 0
M  V30 2362 H 211.134 2.25804 -2.32772 0
M  V30 2363 H 210.919 1.18195 -3.73861 0
M  V30 2364 H 212.409 2.1585 -3.57489 0
M  V30 2365 N 212.846 1.57033 -0.133567 0
M  V30 2366 C 213.756 2.19632 0.824564 0
M  V30 2367 C 214.772 1.17666 1.28182 0
M  V30 2368 O 215.948 1.50193 1.3418 0
M  V30 2369 C 213.013 2.79499 2.05137 0
M  V30 2370 C 212.074 3.96548 1.64464 0
M  V30 2371 C 211.307 4.5355 2.81297 0
M  V30 2372 O 211.53 4.09438 3.97136 0
M  V30 2373 O 210.464 5.44018 2.57542 0
M  V30 2374 H 214.29 3.01991 0.321766 0
M  V30 2375 H 211.875 1.49112 0.0927889 0
M  V30 2376 H 213.757 3.17602 2.7696 0
M  V30 2377 H 212.432 2.00162 2.54395 0
M  V30 2378 H 211.339 3.63186 0.897048 0
M  V30 2379 H 212.672 4.77364 1.19934 0
M  V30 2380 N 214.325 -0.140222 1.56975 0
M  V30 2381 C 215.571 -0.852949 1.83991 0
M  V30 2382 C 215.904 -1.80512 0.716187 0
M  V30 2383 O 215.179 -1.92479 -0.279681 0
M  V30 2384 C 215.462 -1.6215 3.21527 0
M  V30 2385 C 215.315 -0.690363 4.4447 0
M  V30 2386 C 216.634 -2.58247 3.56366 0
M  V30 2387 H 213.753 -0.308634 0.669264 0
M  V30 2388 H 216.395 -0.117898 1.89634 0
M  V30 2389 H 214.545 -2.24812 3.16847 0
M  V30 2390 H 216.217 -0.0742264 4.6124 0
M  V30 2391 H 214.46 -0.000396433 4.338 0
M  V30 2392 H 215.131 -1.2643 5.37326 0
M  V30 2393 H 217.607 -2.05701 3.61699 0
M  V30 2394 H 216.483 -3.09067 4.53617 0
M  V30 2395 H 216.744 -3.39923 2.82674 0
M  V30 2396 N 215.803 -1.52179 -0.40978 0
M  V30 2397 C 217.051 -1.65878 -1.15451 0
M  V30 2398 C 217.372 -0.390771 -1.91044 0
M  V30 2399 O 216.642 0.594323 -1.86667 0
M  V30 2400 H 215.222 -0.611405 -0.429177 0
M  V30 2401 H 217.884 -1.89219 -0.467134 0
M  V30 2402 H 216.98 -2.49954 -1.86894 0
M  V30 2403 N 217.281 0.66697 -1.42791 0
M  V30 2404 C 218.558 1.4234 -1.34159 0
M  V30 2405 C 218.938 2.11093 0.0172729 0
M  V30 2406 O 218.286 2.03808 1.03318 0
M  V30 2407 C 218.496 2.41942 -2.51526 0
M  V30 2408 C 219.844 3.06353 -2.93995 0
M  V30 2409 O 220.868 2.52269 -2.51473 0
M  V30 2410 O 219.727 4.04376 -3.67617 0
M  V30 2411 H 216.821 0.635277 -0.529483 0
M  V30 2412 H 219.367 0.695034 -1.54814 0
M  V30 2413 H 218.139 1.89991 -3.42081 0
M  V30 2414 H 217.762 3.22249 -2.32898 0
M  V30 2415 N 218.759 1.29093 0.90403 0
M  V30 2416 C 219.707 1.13727 2.02901 0
M  V30 2417 C 220.701 0.0539853 1.69314 0
M  V30 2418 O 221.907 0.213469 1.7873 0
M  V30 2419 H 218.282 0.35117 0.664969 0
M  V30 2420 H 220.253 2.08982 2.13001 0
M  V30 2421 C 219.002 0.826066 3.37745 0
M  V30 2422 H 218.325 1.65164 3.64089 0
M  V30 2423 H 219.765 0.758559 4.17159 0
M  V30 2424 C 218.224 -0.470541 3.33598 0
M  V30 2425 O 218.754 -1.49792 3.72727 0
M  V30 2426 N 216.96 -0.474812 2.86695 0
M  V30 2427 H 216.507 0.361692 2.55048 0
M  V30 2428 H 216.465 -1.34236 2.84303 0
M  V30 2429 N 220.237 -1.11381 1.11499 0
M  V30 2430 C 221.169 -2.17207 0.731704 0
M  V30 2431 C 222.182 -1.61066 -0.236957 0
M  V30 2432 O 223.371 -1.78489 -0.0197591 0
M  V30 2433 C 220.471 -3.38846 0.0607624 0
M  V30 2434 C 219.644 -4.24451 1.0564 0
M  V30 2435 C 218.703 -5.24562 0.4149 0
M  V30 2436 O 217.729 -5.59071 1.069 0
M  V30 2437 N 218.931 -5.74651 -0.821943 0
M  V30 2438 H 221.696 -2.50699 1.64225 0
M  V30 2439 H 219.257 -1.26908 1.00529 0
M  V30 2440 H 221.249 -4.02911 -0.380139 0
M  V30 2441 H 219.819 -3.03411 -0.752376 0
M  V30 2442 H 219.039 -3.56833 1.67524 0
M  V30 2443 H 220.327 -4.78486 1.72998 0
M  V30 2444 H 219.725 -5.48797 -1.37252 0
M  V30 2445 H 218.282 -6.40549 -1.20582 0
M  V30 2446 N 221.715 -0.905404 -1.28997 0
M  V30 2447 C 222.647 -0.344748 -2.26592 0
M  V30 2448 C 223.66 0.512135 -1.54535 0
M  V30 2449 O 224.849 0.328368 -1.75454 0
M  V30 2450 C 221.949 0.526587 -3.34784 0
M  V30 2451 C 221.122 -0.305871 -4.36329 0
M  V30 2452 C 220.181 0.499209 -5.23827 0
M  V30 2453 O 219.207 -0.0853004 -5.69136 0
M  V30 2454 N 220.409 1.80408 -5.51755 0
M  V30 2455 H 223.174 -1.18359 -2.75338 0
M  V30 2456 H 220.735 -0.770481 -1.42391 0
M  V30 2457 H 222.727 1.07171 -3.90252 0
M  V30 2458 H 221.297 1.26613 -2.85811 0
M  V30 2459 H 220.517 -1.0324 -3.80441 0
M  V30 2460 H 221.805 -0.875773 -5.01206 0
M  V30 2461 H 221.203 2.3016 -5.16762 0
M  V30 2462 H 219.76 2.29621 -6.10014 0
M  V30 2463 N 223.193 1.4272 -0.668489 0
M  V30 2464 C 224.604 1.84793 -0.266151 0
M  V30 2465 C 224.955 1.55959 1.19043 0
M  V30 2466 O 224.08 1.01622 1.91055 0
M  V30 2467 C 224.675 3.35436 -0.476271 0
M  V30 2468 C 223.234 3.76182 -0.128113 0
M  V30 2469 C 222.381 2.66344 -0.771777 0
M  V30 2470 H 225.332 1.32656 -0.871098 0
M  V30 2471 H 225.353 3.79515 0.273561 0
M  V30 2472 H 224.865 3.5639 -1.53647 0
M  V30 2473 H 222.966 3.60836 0.928891 0
M  V30 2474 H 223.079 4.75766 -0.564231 0
M  V30 2475 H 221.443 2.53885 -0.203652 0
M  V30 2476 H 222.226 2.90123 -1.83531 0
M  V30 2477 N 224.671 0.411399 1.52136 0
M  V30 2478 C 225.918 -0.163645 2.01838 0
M  V30 2479 C 226.246 -1.4495 1.29691 0
M  V30 2480 O 225.501 -1.91725 0.392431 0
M  V30 2481 C 225.8 -0.455872 3.54481 0
M  V30 2482 C 225.466 0.741055 4.44769 0
M  V30 2483 C 224.128 1.06936 4.69167 0
M  V30 2484 C 226.48 1.54075 4.97906 0
M  V30 2485 C 223.808 2.19851 5.43951 0
M  V30 2486 C 226.16 2.66067 5.73926 0
M  V30 2487 C 224.824 2.99381 5.96596 0
M  V30 2488 H 224.094 -0.0598821 0.738576 0
M  V30 2489 H 226.741 0.553283 1.83333 0
M  V30 2490 H 225.046 -1.2544 3.71177 0
M  V30 2491 H 226.743 -0.913802 3.90449 0
M  V30 2492 H 223.333 0.475192 4.25958 0
M  V30 2493 H 227.517 1.30033 4.78963 0
M  V30 2494 H 222.773 2.46006 5.59724 0
M  V30 2495 H 226.947 3.28419 6.14096 0
M  V30 2496 H 224.574 3.86992 6.54325 0
M  V30 2497 N 226.149 -1.5696 0.141893 0
M  V30 2498 C 227.377 -2.00322 -0.517579 0
M  V30 2499 C 227.792 -1.02193 -1.58752 0
M  V30 2500 O 227.149 -0.0181619 -1.82491 0
M  V30 2501 C 227.2 -3.43618 -1.12289 0
M  V30 2502 O 226.921 -4.37995 -0.0956929 0
M  V30 2503 C 228.422 -4.02231 -1.86347 0
M  V30 2504 H 225.642 -0.657243 -0.135177 0
M  V30 2505 H 228.186 -2.03146 0.234973 0
M  V30 2506 H 226.341 -3.41662 -1.82609 0
M  V30 2507 H 226.755 -5.21729 -0.538469 0
M  V30 2508 H 228.229 -5.04509 -2.23997 0
M  V30 2509 H 228.706 -3.42655 -2.74744 0
M  V30 2510 H 229.312 -4.07802 -1.20737 0
M  V30 2511 N 227.627 0.131896 -1.57047 0
M  V30 2512 C 228.874 0.841932 -1.84168 0
M  V30 2513 C 229.202 1.8048 -0.725066 0
M  V30 2514 O 228.457 1.93618 0.284692 0
M  V30 2515 C 228.756 1.63703 -3.17704 0
M  V30 2516 C 228.422 0.81961 -4.43388 0
M  V30 2517 C 227.084 0.594148 -4.77518 0
M  V30 2518 C 229.436 0.248977 -5.20605 0
M  V30 2519 C 226.764 -0.212409 -5.86315 0
M  V30 2520 C 229.116 -0.544701 -6.30251 0
M  V30 2521 C 227.78 -0.780599 -6.6292 0
M  V30 2522 H 227.05 0.308085 -0.673917 0
M  V30 2523 H 229.697 0.104867 -1.91213 0
M  V30 2524 H 228.002 2.44464 -3.06177 0
M  V30 2525 H 229.699 2.19015 -3.35907 0
M  V30 2526 H 226.289 1.00542 -4.16641 0
M  V30 2527 H 230.473 0.410408 -4.946 0
M  V30 2528 H 225.729 -0.404524 -6.1006 0
M  V30 2529 H 229.903 -0.993922 -6.89271 0
M  V30 2530 H 227.53 -1.40742 -7.47058 0
M  V30 2531 N 229.106 1.52395 0.401703 0
M  V30 2532 C 230.355 1.66044 1.14509 0
M  V30 2533 C 230.668 0.400216 1.91462 0
M  V30 2534 O 231.874 0.416632 2.68284 0
M  V30 2535 C 230.33 2.93388 2.0845 0
M  V30 2536 C 229.938 4.26545 1.36978 0
M  V30 2537 C 231.682 3.16402 2.83001 0
M  V30 2538 C 229.589 5.45007 2.29611 0
M  V30 2539 H 228.519 0.618562 0.431158 0
M  V30 2540 H 231.17 1.78886 0.40892 0
M  V30 2541 H 229.552 2.74263 2.8565 0
M  V30 2542 H 230.726 4.56179 0.650916 0
M  V30 2543 H 229.041 4.09692 0.74438 0
M  V30 2544 H 231.638 4.02085 3.52465 0
M  V30 2545 H 231.981 2.30943 3.46368 0
M  V30 2546 H 232.514 3.36034 2.12898 0
M  V30 2547 H 229.253 6.32835 1.70879 0
M  V30 2548 H 228.773 5.19702 2.9945 0
M  V30 2549 H 230.452 5.7838 2.89974 0
M  V30 2550 N 230.584 -0.659388 1.43143 0
M  V30 2551 C 231.514 -1.78422 1.50625 0
M  V30 2552 C 232.495 -1.66216 0.361443 0
M  V30 2553 O 233.68 -1.85404 0.577834 0
M  V30 2554 C 230.81 -3.16815 1.42287 0
M  V30 2555 C 229.764 -3.43777 2.54954 0
M  V30 2556 C 229.09 -4.81905 2.31671 0
M  V30 2557 C 230.39 -3.39134 3.97222 0
M  V30 2558 H 232.084 -1.72417 2.44771 0
M  V30 2559 H 229.63 -0.828084 1.17808 0
M  V30 2560 H 231.583 -3.95253 1.46127 0
M  V30 2561 H 230.307 -3.23534 0.446435 0
M  V30 2562 H 228.966 -2.67707 2.50457 0
M  V30 2563 H 228.614 -4.85294 1.32284 0
M  V30 2564 H 228.314 -5.00906 3.07192 0
M  V30 2565 H 229.838 -5.62609 2.37284 0
M  V30 2566 H 231.252 -4.07518 4.03239 0
M  V30 2567 H 229.649 -3.69671 4.72719 0
M  V30 2568 H 230.719 -2.37426 4.22797 0
M  V30 2569 N 232.062 -1.29571 -0.897171 0
M  V30 2570 C 233.339 -1.08365 -1.62839 0
M  V30 2571 C 233.719 0.371331 -2.07808 0
M  V30 2572 O 233.067 1.3606 -1.83576 0
M  V30 2573 C 233.277 -2.0735 -2.80726 0
M  V30 2574 C 234.625 -2.38406 -3.51351 0
M  V30 2575 O 235.649 -2.05564 -2.90898 0
M  V30 2576 O 234.508 -2.9453 -4.60341 0
M  V30 2577 H 231.602 -0.415345 -0.715134 0
M  V30 2578 H 234.148 -1.40952 -0.945018 0
M  V30 2579 H 232.92 -3.05339 -2.44711 0
M  V30 2580 H 232.543 -1.75507 -3.56767 0
M  V30 2581 N 233.54 1.10788 -1.12088 0
M  V30 2582 C 234.768 1.86461 -0.896651 0
M  V30 2583 C 235.183 1.80492 0.553912 0
M  V30 2584 O 234.54 1.19102 1.38278 0
M  V30 2585 C 234.591 3.35006 -1.35843 0
M  V30 2586 O 234.312 3.40866 -2.75213 0
M  V30 2587 C 235.813 4.27565 -1.1706 0
M  V30 2588 H 233.033 0.589425 -0.320654 0
M  V30 2589 H 235.577 1.40076 -1.48993 0
M  V30 2590 H 233.732 3.7887 -0.808458 0
M  V30 2591 H 234.146 4.33411 -2.9539 0
M  V30 2592 H 235.62 5.30007 -1.54263 0
M  V30 2593 H 236.097 4.3906 -0.110814 0
M  V30 2594 H 236.703 3.89501 -1.70789 0
M  V30 2595 N 235.018 0.912232 1.28515 0
M  V30 2596 C 236.266 0.543523 1.94654 0
M  V30 2597 C 236.587 -0.9155 1.72173 0
M  V30 2598 O 235.857 -1.64708 1.06058 0
M  V30 2599 H 234.437 0.198017 0.720277 0
M  V30 2600 H 237.099 1.16126 1.56527 0
M  V30 2601 H 236.195 0.736684 3.03281 0
M  V30 2602 N 236.496 -1.42363 0.676048 0
M  V30 2603 C 237.721 -2.06377 0.205705 0
M  V30 2604 C 238.146 -1.50463 -1.12883 0
M  V30 2605 O 237.504 -0.623619 -1.70237 0
M  V30 2606 C 237.552 -3.60277 0.152655 0
M  V30 2607 O 236.656 -4.02935 -0.87845 0
M  V30 2608 H 235.997 -0.655588 0.105359 0
M  V30 2609 H 238.527 -1.82475 0.925412 0
M  V30 2610 H 238.537 -4.07993 -0.0230675 0
M  V30 2611 H 237.212 -4.00346 1.12675 0
M  V30 2612 H 235.789 -3.66764 -0.673668 0
M  V30 2613 N 237.974 -0.419461 -1.51915 0
M  V30 2614 C 238.937 0.389116 -2.25873 0
M  V30 2615 C 239.937 0.964924 -1.28631 0
M  V30 2616 O 241.127 0.842179 -1.52489 0
M  V30 2617 C 238.259 1.54874 -3.03689 0
M  V30 2618 H 239.452 -0.258799 -2.98781 0
M  V30 2619 H 237.005 -0.172209 -1.55348 0
M  V30 2620 H 237.74 2.23323 -2.35154 0
M  V30 2621 H 237.525 1.14223 -3.75094 0
M  V30 2622 H 239.015 2.12046 -3.59759 0
M  V30 2623 N 239.452 1.56882 -0.150215 0
M  V30 2624 C 240.4 2.18214 0.805313 0
M  V30 2625 C 241.394 1.14006 1.25296 0
M  V30 2626 O 242.6 1.3225 1.22107 0
M  V30 2627 H 238.975 0.698762 0.277913 0
M  V30 2628 H 240.946 2.97231 0.263862 0
M  V30 2629 C 239.695 2.82065 2.03309 0
M  V30 2630 H 239.018 3.61968 1.69763 0
M  V30 2631 H 240.458 3.28477 2.68103 0
M  V30 2632 C 238.917 1.80739 2.84315 0
M  V30 2633 O 239.447 1.27983 3.80767 0
M  V30 2634 N 237.653 1.4997 2.48913 0
M  V30 2635 H 237.2 1.93062 1.70542 0
M  V30 2636 H 237.158 0.824217 3.03404 0
M  V30 2637 N 240.93 -0.123565 1.57115 0
M  V30 2638 C 241.86 -1.15309 2.03042 0
M  V30 2639 C 242.841 -1.43454 0.914061 0
M  V30 2640 O 244.026 -1.53973 1.18347 0
M  V30 2641 C 241.156 -2.48043 2.43089 0
M  V30 2642 C 240.11 -2.3437 3.58127 0
M  V30 2643 C 239.436 -3.72026 3.84059 0
M  V30 2644 C 240.736 -1.80804 4.90007 0
M  V30 2645 H 242.43 -0.771102 2.893 0
M  V30 2646 H 239.976 -0.369479 1.39179 0
M  V30 2647 H 241.929 -3.20311 2.73823 0
M  V30 2648 H 240.653 -2.88122 1.53796 0
M  V30 2649 H 239.312 -1.64551 3.27595 0
M  V30 2650 H 238.96 -4.09582 2.91979 0
M  V30 2651 H 238.66 -3.63732 4.6149 0
M  V30 2652 H 240.184 -4.45806 4.1724 0
M  V30 2653 H 241.598 -2.42886 5.19307 0
M  V30 2654 H 239.995 -1.83343 5.71407 0
M  V30 2655 H 241.065 -0.76528 4.78823 0
M  V30 2656 N 242.408 -1.52605 -0.393616 0
M  V30 2657 C 243.654 -1.68624 -1.13743 0
M  V30 2658 C 244.009 -0.418687 -1.87789 0
M  V30 2659 O 243.302 0.58747 -1.82371 0
M  V30 2660 C 243.496 -2.85721 -2.14705 0
M  V30 2661 C 243.325 -4.23742 -1.50575 0
M  V30 2662 C 242.095 -4.89033 -1.2718 0
M  V30 2663 C 244.293 -5.05293 -0.958311 0
M  V30 2664 N 242.275 -6.11048 -0.591058 0
M  V30 2665 C 243.646 -6.18673 -0.405367 0
M  V30 2666 C 245.701 -4.90517 -0.854274 0
M  V30 2667 C 244.404 -7.18895 0.241434 0
M  V30 2668 C 246.43 -5.90986 -0.221301 0
M  V30 2669 C 245.792 -7.03669 0.320894 0
M  V30 2670 H 241.891 -0.670556 -0.402342 0
M  V30 2671 H 244.475 -1.89946 -0.427607 0
M  V30 2672 H 242.646 -2.65987 -2.83029 0
M  V30 2673 H 244.378 -2.90699 -2.8156 0
M  V30 2674 H 241.133 -4.47672 -1.54554 0
M  V30 2675 H 241.557 -6.76474 -0.266862 0
M  V30 2676 H 246.199 -4.03612 -1.25926 0
M  V30 2677 H 243.917 -8.05413 0.658448 0
M  V30 2678 H 247.503 -5.81626 -0.142111 0
M  V30 2679 H 246.383 -7.80078 0.802956 0
M  V30 2680 N 243.887 0.651787 -1.4349 0
M  V30 2681 C 245.133 1.41376 -1.45398 0
M  V30 2682 C 245.466 1.94041 -0.0784823 0
M  V30 2683 O 244.741 1.72379 0.900878 0
M  V30 2684 C 245.024 2.59414 -2.49752 0
M  V30 2685 C 244.877 2.12232 -3.96582 0
M  V30 2686 C 246.196 3.61626 -2.50827 0
M  V30 2687 H 243.315 0.512719 -0.529422 0
M  V30 2688 H 245.957 0.738796 -1.75048 0
M  V30 2689 H 244.107 3.16997 -2.246 0
M  V30 2690 H 245.779 1.59639 -4.32797 0
M  V30 2691 H 244.022 1.43592 -4.09346 0
M  V30 2692 H 244.693 2.9712 -4.65214 0
M  V30 2693 H 247.169 3.13805 -2.7325 0
M  V30 2694 H 246.045 4.41766 -3.25783 0
M  V30 2695 H 246.306 4.14314 -1.5426 0
M  V30 2696 N 245.365 1.30045 0.890287 0
M  V30 2697 C 246.776 1.16738 1.45702 0
M  V30 2698 C 247.127 -0.233939 1.948 0
M  V30 2699 O 246.252 -1.13021 1.84541 0
M  V30 2700 C 246.847 2.11313 2.64825 0
M  V30 2701 C 245.406 2.02001 3.17604 0
M  V30 2702 C 244.553 2.01699 1.90296 0
M  V30 2703 H 247.504 1.42392 0.700726 0
M  V30 2704 H 247.525 1.69086 3.40867 0
M  V30 2705 H 247.037 3.13294 2.2906 0
M  V30 2706 H 245.138 1.03142 3.5804 0
M  V30 2707 H 245.251 2.90128 3.81264 0
M  V30 2708 H 243.615 1.46427 2.08402 0
M  V30 2709 H 244.398 3.05402 1.56795 0
M  V30 2710 N 246.843 -1.10192 1.12674 0
M  V30 2711 C 248.068 -1.86523 0.906853 0
M  V30 2712 C 248.493 -1.80221 -0.538711 0
M  V30 2713 O 247.851 -1.17396 -1.38158 0
M  V30 2714 C 247.899 -3.32758 1.3894 0
M  V30 2715 O 247.003 -4.08449 0.5695 0
M  V30 2716 H 246.344 -0.578678 0.325619 0
M  V30 2717 H 248.874 -1.39203 1.49946 0
M  V30 2718 H 248.884 -3.83608 1.38958 0
M  V30 2719 H 247.559 -3.36661 2.44197 0
M  V30 2720 H 246.136 -3.67427 0.636528 0
M  V30 2721 N 248.321 -0.919034 -1.28029 0
M  V30 2722 C 249.567 -0.555757 -1.95036 0
M  V30 2723 C 249.9 0.899198 -1.72128 0
M  V30 2724 O 249.175 1.64023 -1.04531 0
M  V30 2725 C 249.458 -0.872024 -3.49382 0
M  V30 2726 C 249.311 -2.3801 -3.81669 0
M  V30 2727 C 250.63 -0.37185 -4.38526 0
M  V30 2728 H 247.749 -0.203386 -0.708381 0
M  V30 2729 H 250.391 -1.14924 -1.51303 0
M  V30 2730 H 248.541 -0.366946 -3.86763 0
M  V30 2731 H 250.213 -2.9562 -3.54128 0
M  V30 2732 H 248.456 -2.83289 -3.28526 0
M  V30 2733 H 249.127 -2.55192 -4.8947 0
M  V30 2734 H 251.603 -0.804602 -4.08247 0
M  V30 2735 H 250.479 -0.622173 -5.45362 0
M  V30 2736 H 250.74 0.727934 -4.36066 0
M  V30 2737 N 249.799 1.42003 -0.683588 0
M  V30 2738 C 250.746 2.30798 -0.0107309 0
M  V30 2739 C 251.716 1.4645 0.783688 0
M  V30 2740 O 252.901 1.75263 0.754156 0
M  V30 2741 C 250.041 3.3238 0.928306 0
M  V30 2742 C 249.154 4.31814 0.126776 0
M  V30 2743 C 248.289 5.20468 1.06236 0
M  V30 2744 C 247.328 6.11577 0.253035 0
M  V30 2745 N 246.465 6.92754 1.14179 0
M  V30 2746 H 251.305 2.8778 -0.773727 0
M  V30 2747 H 248.842 1.41745 -0.393283 0
M  V30 2748 H 250.8 3.89813 1.48666 0
M  V30 2749 H 249.43 2.76976 1.65783 0
M  V30 2750 H 248.482 3.76427 -0.54833 0
M  V30 2751 H 249.794 4.96276 -0.501192 0
M  V30 2752 H 248.948 5.82677 1.69035 0
M  V30 2753 H 247.687 4.56204 1.7242 0
M  V30 2754 H 246.692 5.48428 -0.388108 0
M  V30 2755 H 247.917 6.77892 -0.404839 0
M  V30 2756 H 245.863 6.3111 1.78987 0
M  V30 2757 H 245.78 7.53855 0.569111 0
M  V30 2758 H 247.048 7.59441 1.75697 0
M  V30 2759 N 251.277 0.427512 1.51691 0
M  V30 2760 C 252.517 -0.141524 2.03909 0
M  V30 2761 C 252.881 -1.40811 1.30523 0
M  V30 2762 O 254.082 -2.05676 1.73063 0
M  V30 2763 C 252.353 -0.364962 3.55532 0
M  V30 2764 S 253.912 -0.898812 4.29496 0
M  V30 2765 H 250.73 -0.0364542 0.710065 0
M  V30 2766 H 253.332 0.584659 1.86553 0
M  V30 2767 H 252.036 0.56336 4.06515 0
M  V30 2768 H 251.567 -1.1185 3.77164 0
M  V30 2769 H 253.582 -2.17747 4.45871 0
M  V30 2770 N 252.755 -1.56801 0.158532 0
M  V30 2771 C 253.983 -2.00859 -0.496303 0
M  V30 2772 C 254.398 -1.03871 -1.57659 0
M  V30 2773 O 253.755 -0.0375165 -1.82461 0
M  V30 2774 C 253.806 -3.4479 -1.08638 0
M  V30 2775 O 253.527 -4.38072 -0.0492322 0
M  V30 2776 C 255.028 -4.04185 -1.8207 0
M  V30 2777 H 252.248 -0.65864 -0.128199 0
M  V30 2778 H 254.792 -2.02885 0.256506 0
M  V30 2779 H 252.947 -3.43579 -1.78975 0
M  V30 2780 H 253.361 -5.2227 -0.483102 0
M  V30 2781 H 254.835 -5.06857 -2.18633 0
M  V30 2782 H 255.312 -3.45549 -2.71095 0
M  V30 2783 H 255.918 -4.0906 -1.16405 0
M  V30 2784 N 254.233 0.115231 -1.57178 0
M  V30 2785 C 255.461 0.836437 -1.89239 0
M  V30 2786 C 255.876 1.73256 -0.750175 0
M  V30 2787 O 255.233 1.80357 0.278832 0
M  V30 2788 C 255.284 1.66671 -3.20785 0
M  V30 2789 O 255.005 0.806652 -4.3061 0
M  V30 2790 C 256.506 2.49274 -3.66575 0
M  V30 2791 H 253.726 0.240253 -0.626514 0
M  V30 2792 H 256.27 0.0984932 -2.04263 0
M  V30 2793 H 254.425 2.35737 -3.0742 0
M  V30 2794 H 254.839 1.37969 -5.06028 0
M  V30 2795 H 256.313 3.03055 -4.6137 0
M  V30 2796 H 256.79 3.26807 -2.93417 0
M  V30 2797 H 257.396 1.85443 -3.82741 0
M  V30 2798 N 255.711 1.52812 0.385517 0
M  V30 2799 C 256.674 1.77188 1.45386 0
M  V30 2800 C 257.674 0.641953 1.4743 0
M  V30 2801 O 258.864 0.910033 1.4854 0
M  V30 2802 C 255.996 1.87582 2.8465 0
M  V30 2803 H 257.189 2.72583 1.25054 0
M  V30 2804 H 254.742 1.43586 0.617467 0
M  V30 2805 H 255.477 0.941849 3.10322 0
M  V30 2806 H 255.262 2.69748 2.84567 0
M  V30 2807 H 256.752 2.08102 3.62054 0
M  V30 2808 N 257.189 -0.644168 1.43834 0
M  V30 2809 C 258.437 -1.40117 1.45642 0
M  V30 2810 C 258.758 -1.94814 0.0852413 0
M  V30 2811 O 258.028 -1.74988 -0.880688 0
M  V30 2812 H 256.608 -0.52005 0.536243 0
M  V30 2813 H 259.27 -0.7591 1.7951 0
M  V30 2814 H 258.366 -2.23902 2.17427 0
M  V30 2815 N 258.668 -1.30515 -0.883378 0
M  V30 2816 C 259.908 -1.20716 -1.64946 0
M  V30 2817 C 260.272 0.234072 -1.90568 0
M  V30 2818 O 261.473 0.455335 -2.64915 0
M  V30 2819 C 259.744 -2.01444 -2.9522 0
M  V30 2820 S 261.303 -2.0836 -3.86175 0
M  V30 2821 H 258.121 -0.430165 -0.566109 0
M  V30 2822 H 260.723 -1.65011 -1.04841 0
M  V30 2823 H 259.427 -3.05268 -2.74298 0
M  V30 2824 H 258.958 -1.57817 -3.60357 0
M  V30 2825 H 260.973 -1.21215 -4.81167 0
M  V30 2826 N 260.146 1.09593 -1.13257 0
M  V30 2827 C 261.076 2.18214 -0.830946 0
M  V30 2828 C 262.057 1.68812 0.208966 0
M  V30 2829 O 263.242 1.9408 0.0682666 0
M  V30 2830 C 260.372 3.46051 -0.294296 0
M  V30 2831 C 259.326 4.08778 -1.26826 0
M  V30 2832 C 258.652 5.31419 -0.591449 0
M  V30 2833 C 259.952 4.51476 -2.62615 0
M  V30 2834 H 261.646 2.43703 -1.73923 0
M  V30 2835 H 259.192 1.17128 -0.837675 0
M  V30 2836 H 261.145 4.2134 -0.0709606 0
M  V30 2837 H 259.869 3.20079 0.649366 0
M  V30 2838 H 258.528 3.35505 -1.47756 0
M  V30 2839 H 258.176 5.01727 0.357633 0
M  V30 2840 H 257.876 5.74341 -1.24123 0
M  V30 2841 H 259.4 6.09433 -0.377355 0
M  V30 2842 H 260.814 5.17999 -2.45663 0
M  V30 2843 H 259.211 5.05277 -3.23752 0
M  V30 2844 H 260.281 3.63962 -3.20406 0
M  V30 2845 N 261.624 0.925811 1.2754 0
M  V30 2846 C 262.852 0.581509 1.9856 0
M  V30 2847 C 263.267 -0.840041 1.69082 0
M  V30 2848 O 262.624 -1.55805 0.950312 0
M  V30 2849 C 262.675 0.795589 3.52637 0
M  V30 2850 O 262.396 2.16121 3.81082 0
M  V30 2851 C 263.897 0.459744 4.4091 0
M  V30 2852 H 261.117 0.220538 0.633722 0
M  V30 2853 H 263.661 1.24232 1.6244 0
M  V30 2854 H 261.816 0.18161 3.86974 0
M  V30 2855 H 262.23 2.2098 4.75676 0
M  V30 2856 H 263.704 0.660244 5.48037 0
M  V30 2857 H 264.181 -0.604625 4.35018 0
M  V30 2858 H 264.787 1.05178 4.12089 0
M  V30 2859 N 263.102 -1.41638 0.69111 0
M  V30 2860 C 264.049 -2.30789 0.0229705 0
M  V30 2861 C 265.019 -1.46863 -0.775911 0
M  V30 2862 O 266.204 -1.75661 -0.74485 0
M  V30 2863 C 263.344 -3.32868 -0.910666 0
M  V30 2864 C 262.457 -4.31875 -0.103874 0
M  V30 2865 C 261.592 -5.21024 -1.03475 0
M  V30 2866 C 260.631 -6.11702 -0.220598 0
M  V30 2867 N 259.768 -6.93349 -1.10504 0
M  V30 2868 H 264.608 -2.87366 0.788978 0
M  V30 2869 H 262.145 -1.41535 0.400794 0
M  V30 2870 H 264.103 -3.90596 -1.46597 0
M  V30 2871 H 262.733 -2.77851 -1.64312 0
M  V30 2872 H 261.785 -3.76131 0.568285 0
M  V30 2873 H 263.097 -4.96003 0.527504 0
M  V30 2874 H 262.251 -5.83565 -1.65943 0
M  V30 2875 H 260.99 -4.57112 -1.69999 0
M  V30 2876 H 259.995 -5.48215 0.417187 0
M  V30 2877 H 261.22 -6.77668 0.440784 0
M  V30 2878 H 259.166 -6.3205 -1.75638 0
M  V30 2879 H 259.083 -7.54146 -0.529125 0
M  V30 2880 H 260.351 -7.60362 -1.71667 0
M  V30 2881 N 264.58 -0.43555 -1.51462 0
M  V30 2882 C 265.53 0.394701 -2.24558 0
M  V30 2883 C 266.514 0.99157 -1.26715 0
M  V30 2884 O 267.706 0.910007 -1.51815 0
M  V30 2885 C 264.835 1.4963 -3.08975 0
M  V30 2886 C 263.921 0.908912 -4.14246 0
M  V30 2887 N 264.312 0.0505335 -5.05775 0
M  V30 2888 C 262.61 1.17668 -4.30198 0
M  V30 2889 C 263.311 -0.279161 -5.8103 0
M  V30 2890 N 262.287 0.336767 -5.42556 0
M  V30 2891 H 266.089 -0.267106 -2.92684 0
M  V30 2892 H 263.603 -0.247518 -1.60503 0
M  V30 2893 H 265.6 2.10394 -3.59917 0
M  V30 2894 H 264.26 2.16046 -2.42393 0
M  V30 2895 H 265.271 -0.31577 -5.16936 0
M  V30 2896 H 261.948 1.83847 -3.74842 0
M  V30 2897 H 263.338 -0.977553 -6.64751 0
M  V30 2898 N 266.058 1.56714 -0.166846 0
M  V30 2899 C 266.988 2.20754 0.760913 0
M  V30 2900 C 267.969 1.16178 1.24244 0
M  V30 2901 O 269.154 1.44592 1.29641 0
M  V30 2902 C 266.284 2.84478 1.99223 0
M  V30 2903 C 265.238 3.95053 1.64672 0
M  V30 2904 C 264.564 4.45805 2.95232 0
M  V30 2905 C 265.864 5.14865 0.878155 0
M  V30 2906 H 267.558 2.98537 0.22713 0
M  V30 2907 H 265.104 1.43596 0.107805 0
M  V30 2908 H 267.057 3.27951 2.64624 0
M  V30 2909 H 265.781 2.04056 2.55007 0
M  V30 2910 H 264.44 3.52228 1.01641 0
M  V30 2911 H 264.088 3.62181 3.49047 0
M  V30 2912 H 263.788 5.204 2.7287 0
M  V30 2913 H 265.312 4.91962 3.6167 0
M  V30 2914 H 266.726 5.55059 1.43466 0
M  V30 2915 H 265.123 5.95348 0.753738 0
M  V30 2916 H 266.193 4.84735 -0.126377 0
M  V30 2917 N 267.536 -0.106894 1.57237 0
M  V30 2918 C 268.766 -0.825191 1.89405 0
M  V30 2919 C 269.174 -1.73374 0.757496 0
M  V30 2920 O 268.517 -1.81552 -0.280115 0
M  V30 2921 C 268.579 -1.70102 3.1671 0
M  V30 2922 C 268.243 -0.965523 4.46684 0
M  V30 2923 C 269.24 -0.300741 5.19029 0
M  V30 2924 C 266.925 -0.943105 4.93367 0
M  V30 2925 C 268.919 0.376622 6.36286 0
M  V30 2926 C 266.606 -0.261949 6.10538 0
M  V30 2927 C 267.604 0.396748 6.81847 0
M  V30 2928 O 267.292 1.06701 7.96787 0
M  V30 2929 H 267.024 -0.241852 0.631255 0
M  V30 2930 H 269.578 -0.0921491 2.05193 0
M  V30 2931 H 267.808 -2.47601 2.97036 0
M  V30 2932 H 269.497 -2.29483 3.34802 0
M  V30 2933 H 270.263 -0.309599 4.84011 0
M  V30 2934 H 266.142 -1.44524 4.3776 0
M  V30 2935 H 269.686 0.891334 6.91882 0
M  V30 2936 H 265.583 -0.250896 6.45012 0
M  V30 2937 H 266.351 0.972707 8.127 0
M  V30 2938 N 269.014 -1.53014 -0.377408 0
M  V30 2939 C 270.291 -1.59215 -1.13622 0
M  V30 2940 C 270.671 -0.392407 -2.07421 0
M  V30 2941 O 270.019 0.618342 -2.19975 0
M  V30 2942 C 270.229 -2.93669 -1.88573 0
M  V30 2943 C 271.577 -3.47822 -2.43526 0
M  V30 2944 O 272.601 -2.9562 -1.98715 0
M  V30 2945 O 271.46 -4.39055 -3.25412 0
M  V30 2946 H 268.554 -0.642625 -0.52054 0
M  V30 2947 H 271.1 -1.65353 -0.381625 0
M  V30 2948 H 269.872 -3.7243 -1.20048 0
M  V30 2949 H 269.495 -2.90968 -2.70968 0
M  V30 2950 N 270.492 0.636531 -1.44174 0
M  V30 2951 C 271.717 1.42847 -1.50364 0
M  V30 2952 C 272.142 1.87665 -0.127867 0
M  V30 2953 O 271.5 1.58408 0.88185 0
M  V30 2954 C 271.548 2.62854 -2.4686 0
M  V30 2955 O 270.652 3.62501 -1.9664 0
M  V30 2956 H 269.993 0.427642 -0.507955 0
M  V30 2957 H 272.523 0.777422 -1.89255 0
M  V30 2958 H 272.533 3.10465 -2.64718 0
M  V30 2959 H 271.208 2.29578 -3.46795 0
M  V30 2960 H 269.785 3.21735 -1.88523 0
M  V30 2961 N 271.97 1.30982 0.876444 0
M  V30 2962 C 273.195 1.23373 1.66715 0
M  V30 2963 C 273.62 -0.19885 1.87046 0
M  V30 2964 O 272.978 -1.1427 1.40756 0
M  V30 2965 C 273.026 1.97644 3.01611 0
M  V30 2966 O 272.13 1.30935 3.91062 0
M  V30 2967 H 271.471 0.426279 0.509099 0
M  V30 2968 H 274.001 1.72944 1.09323 0
M  V30 2969 H 274.011 2.06992 3.51594 0
M  V30 2970 H 272.686 3.01829 2.86133 0
M  V30 2971 H 271.263 1.29996 3.49507 0
M  V30 2972 N 273.449 -1.08991 1.13837 0
M  V30 2973 C 274.396 -2.15748 0.819835 0
M  V30 2974 C 275.366 -1.64636 -0.220026 0
M  V30 2975 O 276.551 -1.90582 -0.0912757 0
M  V30 2976 C 273.691 -3.4382 0.296913 0
M  V30 2977 C 272.804 -4.0881 1.39636 0
M  V30 2978 C 271.939 -5.24655 0.831314 0
M  V30 2979 C 270.978 -5.81575 1.90886 0
M  V30 2980 N 270.115 -6.88774 1.36142 0
M  V30 2981 H 274.955 -2.42338 1.73426 0
M  V30 2982 H 272.492 -1.18935 0.865613 0
M  V30 2983 H 274.45 -4.17193 -0.0244339 0
M  V30 2984 H 273.08 -3.17535 -0.580628 0
M  V30 2985 H 272.132 -3.33258 1.83422 0
M  V30 2986 H 273.444 -4.47141 2.21058 0
M  V30 2987 H 272.598 -6.04942 0.461515 0
M  V30 2988 H 271.337 -4.87698 -0.013932 0
M  V30 2989 H 270.342 -4.99946 2.28767 0
M  V30 2990 H 271.567 -6.20592 2.75758 0
M  V30 2991 H 269.513 -6.53788 0.538254 0
M  V30 2992 H 269.43 -7.25898 2.11208 0
M  V30 2993 H 270.698 -7.72806 1.01933 0
M  V30 2994 N 274.927 -0.932562 -1.27047 0
M  V30 2995 C 276.152 -0.591474 -1.98787 0
M  V30 2996 C 276.577 0.824601 -1.69062 0
M  V30 2997 O 275.935 1.5541 -0.933677 0
M  V30 2998 C 275.983 -0.829808 -3.50922 0
M  V30 2999 O 275.087 0.102266 -4.12273 0
M  V30 3000 H 274.428 -0.227185 -0.623926 0
M  V30 3001 H 276.958 -1.25314 -1.61733 0
M  V30 3002 H 276.968 -0.747292 -4.01098 0
M  V30 3003 H 275.643 -1.86201 -3.7189 0
M  V30 3004 H 274.22 -0.0305761 -3.72887 0
M  V30 3005 N 276.405 1.4127 -0.698611 0
M  V30 3006 C 277.821 1.55241 -0.370462 0
M  V30 3007 C 278.021 1.67351 1.12231 0
M  V30 3008 O 277.077 1.65363 1.90818 0
M  V30 3009 C 278.39 2.78997 -1.12165 0
M  V30 3010 C 279.938 2.92797 -1.1063 0
M  V30 3011 C 280.413 4.19445 -1.8393 0
M  V30 3012 N 281.904 4.26409 -1.80914 0
M  V30 3013 C 282.639 5.23271 -2.34467 0
M  V30 3014 N 282.135 6.26145 -2.96504 0
M  V30 3015 N 283.928 5.15232 -2.24706 0
M  V30 3016 H 276.079 1.31654 -1.66676 0
M  V30 3017 H 278.342 0.635393 -0.703548 0
M  V30 3018 H 278.048 2.76268 -2.17644 0
M  V30 3019 H 277.922 3.70606 -0.702209 0
M  V30 3020 H 280.309 2.95039 -0.0597713 0
M  V30 3021 H 280.39 2.02353 -1.56483 0
M  V30 3022 H 280.034 4.17964 -2.88563 0
M  V30 3023 H 279.964 5.08866 -1.35509 0
M  V30 3024 H 282.455 3.527 -1.35687 0
M  V30 3025 H 282.768 6.96451 -3.34927 0
M  V30 3026 H 281.113 6.26638 -3.00583 0
M  V30 3027 H 284.304 4.33789 -1.7591 0
M  V30 3028 H 284.477 5.90552 -2.66745 0
M  V30 3029 N 277.883 0.443576 1.51229 0
M  V30 3030 C 279.111 -0.11929 2.06556 0
M  V30 3031 C 279.526 -1.35921 1.31038 0
M  V30 3032 O 278.883 -1.78675 0.371704 0
M  V30 3033 C 278.934 -0.435228 3.5887 0
M  V30 3034 O 278.655 0.755486 4.31537 0
M  V30 3035 C 280.156 -1.04808 4.30732 0
M  V30 3036 H 277.376 -0.0051584 0.67098 0
M  V30 3037 H 279.92 0.624453 1.94733 0
M  V30 3038 H 278.075 -1.12887 3.70588 0
M  V30 3039 H 278.489 0.483491 5.22267 0
M  V30 3040 H 279.963 -1.2191 5.3837 0
M  V30 3041 H 280.44 -2.03081 3.89429 0
M  V30 3042 H 281.046 -0.393637 4.23474 0
M  V30 3043 N 279.361 -1.56624 0.175154 0
M  V30 3044 C 280.591 -2.01082 -0.474283 0
M  V30 3045 C 280.999 -1.05447 -1.57091 0
M  V30 3046 O 280.342 -0.0480595 -1.83637 0
M  V30 3047 C 280.404 -3.41963 -1.10911 0
M  V30 3048 C 280.068 -4.56742 -0.153666 0
M  V30 3049 C 281.065 -5.16076 0.629448 0
M  V30 3050 C 278.75 -5.02277 -0.0483776 0
M  V30 3051 C 280.744 -6.19377 1.50501 0
M  V30 3052 C 278.431 -6.05427 0.830768 0
M  V30 3053 C 279.429 -6.63849 1.60605 0
M  V30 3054 O 279.117 -7.64998 2.47049 0
M  V30 3055 H 278.849 -0.664261 -0.125432 0
M  V30 3056 H 281.403 -2.03549 0.275163 0
M  V30 3057 H 279.633 -3.36422 -1.90676 0
M  V30 3058 H 281.322 -3.70352 -1.66114 0
M  V30 3059 H 282.088 -4.81776 0.558297 0
M  V30 3060 H 277.967 -4.56513 -0.641611 0
M  V30 3061 H 281.511 -6.64906 2.1106 0
M  V30 3062 H 277.408 -6.39151 0.903107 0
M  V30 3063 H 278.176 -7.82336 2.40607 0
M  V30 3064 N 280.839 0.0985539 -1.57292 0
M  V30 3065 C 281.749 1.13824 -2.05137 0
M  V30 3066 C 282.765 1.44076 -0.975604 0
M  V30 3067 O 283.941 1.54786 -1.28853 0
M  V30 3068 C 281.006 2.43969 -2.46333 0
M  V30 3069 C 280.067 2.2093 -3.68087 0
M  V30 3070 C 279.3 3.44869 -4.0731 0
M  V30 3071 O 279.523 4.52972 -3.46659 0
M  V30 3072 O 278.457 3.34661 -5.00285 0
M  V30 3073 H 282.283 0.761881 -2.93988 0
M  V30 3074 H 279.868 0.310818 -1.46131 0
M  V30 3075 H 281.75 3.20609 -2.73473 0
M  V30 3076 H 280.425 2.81038 -1.60621 0
M  V30 3077 H 279.332 1.42081 -3.46069 0
M  V30 3078 H 280.665 1.88755 -4.54568 0
M  V30 3079 N 282.317 1.53212 0.369288 0
M  V30 3080 C 283.264 1.79388 1.45219 0
M  V30 3081 C 284.234 0.638059 1.53356 0
M  V30 3082 O 285.419 0.879852 1.69302 0
M  V30 3083 C 282.559 1.98623 2.82211 0
M  V30 3084 C 281.672 3.26337 2.8307 0
M  V30 3085 C 280.807 3.35779 4.11614 0
M  V30 3086 C 279.846 4.5754 4.06601 0
M  V30 3087 N 278.983 4.64155 5.26787 0
M  V30 3088 H 283.823 2.71794 1.22198 0
M  V30 3089 H 281.36 1.34642 0.592444 0
M  V30 3090 H 283.318 2.07761 3.61789 0
M  V30 3091 H 281.948 1.09558 3.03639 0
M  V30 3092 H 281 3.26171 1.95747 0
M  V30 3093 H 282.312 4.15988 2.75237 0
M  V30 3094 H 281.466 3.44208 4.99606 0
M  V30 3095 H 280.205 2.44137 4.22195 0
M  V30 3096 H 279.21 4.49215 3.16996 0
M  V30 3097 H 280.435 5.50519 3.97625 0
M  V30 3098 H 278.381 3.75413 5.3796 0
M  V30 3099 H 278.298 5.47706 5.21109 0
M  V30 3100 H 279.566 4.76863 6.16621 0
M  V30 3101 N 283.795 -0.628877 1.44509 0
M  V30 3102 C 285.072 -1.38733 1.37886 0
M  V30 3103 C 285.452 -2.11065 0.0387008 0
M  V30 3104 O 284.8 -2.06476 -0.97878 0
M  V30 3105 C 285.01 -2.35188 2.57852 0
M  V30 3106 C 286.358 -2.9845 3.02014 0
M  V30 3107 O 287.382 -2.45513 2.58073 0
M  V30 3108 O 286.241 -3.94487 3.78209 0
M  V30 3109 H 283.335 -0.621015 0.54614 0
M  V30 3110 H 285.881 -0.653744 1.56602 0
M  V30 3111 H 284.653 -1.80855 3.46998 0
M  V30 3112 H 284.276 -3.1596 2.4136 0
M  V30 3113 N 285.273 -1.31445 -0.869486 0
M  V30 3114 C 286.521 -1.20918 -1.61936 0
M  V30 3115 C 286.842 0.232683 -1.93607 0
M  V30 3116 O 286.112 1.15352 -1.58338 0
M  V30 3117 H 284.692 -0.44454 -0.600328 0
M  V30 3118 H 287.354 -1.64776 -1.0409 0
M  V30 3119 H 286.45 -1.78124 -2.56278 0
M  V30 3120 N 286.751 1.08385 -1.14413 0
M  V30 3121 C 287.979 1.84517 -0.936001 0
M  V30 3122 C 288.394 1.81626 0.515503 0
M  V30 3123 O 287.751 1.22008 1.35721 0
M  V30 3124 C 287.802 3.32049 -1.42918 0
M  V30 3125 O 287.523 3.34951 -2.82381 0
M  V30 3126 C 289.024 4.24986 -1.26103 0
M  V30 3127 H 286.244 0.582491 -0.333084 0
M  V30 3128 H 288.788 1.36885 -1.5193 0
M  V30 3129 H 286.943 3.7707 -0.888641 0
M  V30 3130 H 287.357 4.27048 -3.04517 0
M  V30 3131 H 288.831 5.26615 -1.6547 0
M  V30 3132 H 289.308 4.38726 -0.20392 0
M  V30 3133 H 289.914 3.85791 -1.79012 0
M  V30 3134 N 288.23 0.939286 1.26551 0
M  V30 3135 C 289.177 0.446088 2.26448 0
M  V30 3136 C 290.147 -0.493234 1.58608 0
M  V30 3137 O 291.332 -0.409857 1.86346 0
M  V30 3138 C 288.472 -0.284375 3.43926 0
M  V30 3139 C 287.585 0.690399 4.26448 0
M  V30 3140 C 286.72 -0.0610712 5.31165 0
M  V30 3141 C 285.759 0.905649 6.05363 0
M  V30 3142 N 284.896 0.186055 7.01853 0
M  V30 3143 H 289.736 1.30291 2.68008 0
M  V30 3144 H 287.273 0.65371 1.31776 0
M  V30 3145 H 289.231 -0.724313 4.10864 0
M  V30 3146 H 287.861 -1.10535 3.03285 0
M  V30 3147 H 286.913 1.24885 3.59316 0
M  V30 3148 H 288.225 1.42873 4.779 0
M  V30 3149 H 287.379 -0.56038 6.04106 0
M  V30 3150 H 286.118 -0.832297 4.80546 0
M  V30 3151 H 285.123 1.4161 5.3125 0
M  V30 3152 H 286.348 1.67685 6.58072 0
M  V30 3153 H 284.294 -0.566714 6.53548 0
M  V30 3154 H 284.211 0.863752 7.51049 0
M  V30 3155 H 285.479 -0.292221 7.78952 0
M  V30 3156 N 289.708 -1.40897 0.706093 0
M  V30 3157 C 290.954 -2.01352 0.241889 0
M  V30 3158 C 291.287 -1.55832 -1.15888 0
M  V30 3159 O 290.562 -0.774145 -1.7843 0
M  V30 3160 C 290.845 -3.58752 0.311311 0
M  V30 3161 C 290.698 -4.1437 1.74978 0
M  V30 3162 C 292.017 -4.38914 -0.322922 0
M  V30 3163 H 289.136 -0.731562 0.0893687 0
M  V30 3164 H 291.778 -1.67504 0.896802 0
M  V30 3165 H 289.928 -3.87718 -0.246302 0
M  V30 3166 H 291.6 -3.96239 2.36205 0
M  V30 3167 H 289.843 -3.69016 2.28057 0
M  V30 3168 H 290.514 -5.23532 1.74981 0
M  V30 3169 H 292.99 -4.15822 0.152089 0
M  V30 3170 H 291.866 -5.48358 -0.243855 0
M  V30 3171 H 292.127 -4.19176 -1.40513 0
M  V30 3172 N 291.186 -0.45159 -1.50991 0
M  V30 3173 C 292.096 0.358431 -2.31846 0
M  V30 3174 C 293.112 1.01438 -1.41373 0
M  V30 3175 O 294.288 1.00663 -1.74439 0
M  V30 3176 C 291.353 1.43704 -3.15515 0
M  V30 3177 C 290.414 0.799742 -4.21785 0
M  V30 3178 C 289.647 1.82696 -5.01456 0
M  V30 3179 O 289.87 3.05105 -4.81941 0
M  V30 3180 O 288.804 1.40958 -5.85162 0
M  V30 3181 H 292.63 -0.302032 -3.02194 0
M  V30 3182 H 290.215 -0.213825 -1.47862 0
M  V30 3183 H 292.097 2.06227 -3.67489 0
M  V30 3184 H 290.772 2.08133 -2.47916 0
M  V30 3185 H 289.679 0.136084 -3.73852 0
M  V30 3186 H 291.012 0.198718 -4.91799 0
M  V30 3187 N 292.664 1.56529 -0.183458 0
M  V30 3188 C 293.597 2.14417 0.781052 0
M  V30 3189 C 294.575 1.07761 1.21763 0
M  V30 3190 O 295.759 1.35807 1.30724 0
M  V30 3191 C 292.886 2.69361 2.05335 0
M  V30 3192 C 291.932 3.885 1.75982 0
M  V30 3193 S 292.765 5.27568 0.918256 0
M  V30 3194 C 293.921 5.85926 2.20095 0
M  V30 3195 H 294.154 2.95893 0.2889 0
M  V30 3196 H 291.687 1.54368 0.0313844 0
M  V30 3197 H 293.645 3.01662 2.78406 0
M  V30 3198 H 292.306 1.87949 2.51663 0
M  V30 3199 H 291.499 4.25314 2.70415 0
M  V30 3200 H 291.101 3.57149 1.10999 0
M  V30 3201 H 293.393 5.99579 3.15453 0
M  V30 3202 H 294.336 6.82761 1.87731 0
M  V30 3203 H 294.744 5.14438 2.32409 0
M  V30 3204 N 294.142 -0.090211 1.57342 0
M  V30 3205 C 295.09 -1.12792 2.03422 0
M  V30 3206 C 296.084 -1.41182 0.936166 0
M  V30 3207 O 297.29 -1.40805 1.12133 0
M  V30 3208 H 293.665 -0.380986 0.648347 0
M  V30 3209 H 295.636 -0.71299 2.89757 0
M  V30 3210 C 294.385 -2.43855 2.47851 0
M  V30 3211 H 293.708 -2.22855 3.31927 0
M  V30 3212 H 295.148 -3.14955 2.83865 0
M  V30 3213 C 293.607 -3.08503 1.3538 0
M  V30 3214 O 294.137 -3.95805 0.685641 0
M  V30 3215 N 292.343 -2.68831 1.10355 0
M  V30 3216 H 291.89 -1.97929 1.64869 0
M  V30 3217 H 291.848 -3.12412 0.353031 0
M  V30 3218 N 295.62 -1.53406 -0.361157 0
M  V30 3219 C 296.85 -1.73465 -1.1222 0
M  V30 3220 C 297.258 -0.465486 -1.83384 0
M  V30 3221 O 296.601 0.571611 -1.7458 0
M  V30 3222 C 296.663 -2.84834 -2.19339 0
M  V30 3223 C 296.327 -4.25038 -1.67903 0
M  V30 3224 C 297.324 -5.07231 -1.14074 0
M  V30 3225 C 295.009 -4.71464 -1.73282 0
M  V30 3226 C 297.003 -6.33942 -0.663068 0
M  V30 3227 C 294.69 -5.98153 -1.25127 0
M  V30 3228 C 295.688 -6.79223 -0.717296 0
M  V30 3229 O 295.376 -8.03533 -0.242865 0
M  V30 3230 H 295.108 -0.583526 -0.341283 0
M  V30 3231 H 297.662 -2.00964 -0.424591 0
M  V30 3232 H 295.892 -2.5282 -2.92607 0
M  V30 3233 H 297.581 -2.9303 -2.80871 0
M  V30 3234 H 298.347 -4.72534 -1.09254 0
M  V30 3235 H 294.226 -4.08432 -2.13786 0
M  V30 3236 H 297.77 -6.97167 -0.245612 0
M  V30 3237 H 293.667 -6.32347 -1.29642 0
M  V30 3238 H 294.435 -8.177 -0.361786 0
M  V30 3239 N 297.098 0.621204 -1.44841 0
M  V30 3240 C 298.344 1.3826 -1.48365 0
M  V30 3241 C 298.677 1.93831 -0.119624 0
M  V30 3242 O 297.952 1.74251 0.864111 0
M  V30 3243 C 298.235 2.54058 -2.55199 0
M  V30 3244 C 298.088 2.03772 -4.00995 0
M  V30 3245 C 299.407 3.56225 -2.58442 0
M  V30 3246 H 296.526 0.501374 -0.540179 0
M  V30 3247 H 299.168 0.7015 -1.76576 0
M  V30 3248 H 297.318 3.12162 -2.31274 0
M  V30 3249 H 298.99 1.50423 -4.36086 0
M  V30 3250 H 297.233 1.34876 -4.12299 0
M  V30 3251 H 297.904 2.87185 -4.71411 0
M  V30 3252 H 300.38 3.07939 -2.79844 0
M  V30 3253 H 299.256 4.34756 -3.3508 0
M  V30 3254 H 299.517 4.10949 -1.63013 0
M  V30 3255 N 298.576 1.31904 0.862503 0
M  V30 3256 C 299.801 1.25135 1.65397 0
M  V30 3257 C 300.226 -0.179 1.87246 0
M  V30 3258 O 299.584 -1.1277 1.4196 0
M  V30 3259 C 299.632 2.00832 2.99498 0
M  V30 3260 O 298.736 1.35075 3.89652 0
M  V30 3261 H 298.077 0.431655 0.504549 0
M  V30 3262 H 300.607 1.74094 1.07483 0
M  V30 3263 H 300.617 2.10709 3.49379 0
M  V30 3264 H 299.292 3.04847 2.82916 0
M  V30 3265 H 297.869 1.33696 3.48109 0
M  V30 3266 N 300.054 -1.07777 1.14986 0
M  V30 3267 C 301.302 -1.79934 0.920235 0
M  V30 3268 C 301.623 -1.86955 -0.554336 0
M  V30 3269 O 300.893 -1.36731 -1.40291 0
M  V30 3270 H 299.473 -0.666424 0.337473 0
M  V30 3271 H 302.135 -1.3027 1.44968 0
M  V30 3272 H 301.231 -2.82539 1.32583 0
M  V30 3273 N 301.532 -0.945985 -1.26051 0
M  V30 3274 C 302.76 -0.613025 -1.9761 0
M  V30 3275 C 303.175 0.813035 -1.70397 0
M  V30 3276 O 302.532 1.54274 -0.974979 0
M  V30 3277 C 302.583 -0.85159 -3.51326 0
M  V30 3278 O 302.304 -2.22157 -3.77595 0
M  V30 3279 C 303.805 -0.529831 -4.40122 0
M  V30 3280 H 301.025 -0.230593 -0.630133 0
M  V30 3281 H 303.569 -1.268 -1.60443 0
M  V30 3282 H 301.724 -0.243151 -3.86636 0
M  V30 3283 H 302.138 -2.2852 -4.721 0
M  V30 3284 H 303.612 -0.747348 -5.46917 0
M  V30 3285 H 304.089 0.535341 -4.35925 0
M  V30 3286 H 304.695 -1.11721 -4.10364 0
M  V30 3287 N 303.011 1.40521 -0.713556 0
M  V30 3288 C 304.257 2.01221 -0.252564 0
M  V30 3289 C 304.59 1.56444 1.1506 0
M  V30 3290 O 303.865 0.783597 1.78017 0
M  V30 3291 C 304.148 3.58582 -0.330332 0
M  V30 3292 C 304.001 4.13437 -1.77173 0
M  V30 3293 C 305.32 4.39079 0.299641 0
M  V30 3294 H 302.439 0.731077 -0.0932471 0
M  V30 3295 H 305.081 1.67026 -0.905673 0
M  V30 3296 H 303.231 3.87844 0.225737 0
M  V30 3297 H 304.903 3.9498 -2.38303 0
M  V30 3298 H 303.146 3.67801 -2.3001 0
M  V30 3299 H 303.817 5.22597 -1.77755 0
M  V30 3300 H 306.293 4.15735 -0.174139 0
M  V30 3301 H 305.169 5.4848 0.214771 0
M  V30 3302 H 305.43 4.19915 1.38288 0
M  V30 3303 N 304.489 0.459591 1.5075 0
M  V30 3304 C 305.714 -0.0996819 2.0716 0
M  V30 3305 C 306.139 -1.33761 1.32249 0
M  V30 3306 O 305.497 -1.77551 0.366786 0
M  V30 3307 C 305.545 -0.378226 3.58611 0
M  V30 3308 O 304.649 -1.46081 3.85661 0
M  V30 3309 H 303.99 0.00791392 0.663953 0
M  V30 3310 H 306.52 0.647329 1.9409 0
M  V30 3311 H 306.53 -0.622135 4.03229 0
M  V30 3312 H 305.205 0.526439 4.12555 0
M  V30 3313 H 303.782 -1.20511 3.5289 0
M  V30 3314 N 305.967 -1.56429 0.191757 0
M  V30 3315 C 307.215 -1.97095 -0.447006 0
M  V30 3316 C 307.536 -1.07967 -1.62383 0
M  V30 3317 O 306.806 -0.150248 -1.95323 0
M  V30 3318 H 305.386 -0.727832 -0.168135 0
M  V30 3319 H 308.048 -1.92911 0.27771 0
M  V30 3320 H 307.144 -3.01848 -0.793371 0
M  V30 3321 N 307.445 0.0818655 -1.57387 0
M  V30 3322 C 308.692 0.782914 -1.86753 0
M  V30 3323 C 309.02 1.78082 -0.782118 0
M  V30 3324 O 308.275 1.94426 0.22295 0
M  V30 3325 C 308.574 1.53513 -3.22752 0
M  V30 3326 C 308.24 0.678134 -4.45771 0
M  V30 3327 C 306.902 0.441929 -4.79166 0
M  V30 3328 C 309.254 0.0832243 -5.21134 0
M  V30 3329 C 306.582 -0.398833 -5.85343 0
M  V30 3330 C 308.934 -0.744935 -6.28199 0
M  V30 3331 C 307.598 -0.991107 -6.60101 0
M  V30 3332 H 306.868 0.286489 -0.683378 0
M  V30 3333 H 309.515 0.0439808 -1.91449 0
M  V30 3334 H 307.82 2.34599 -3.138 0
M  V30 3335 H 309.517 2.08218 -3.42705 0
M  V30 3336 H 306.107 0.872357 -4.19628 0
M  V30 3337 H 310.291 0.252847 -4.95655 0
M  V30 3338 H 305.547 -0.598405 -6.08465 0
M  V30 3339 H 309.721 -1.21271 -6.8576 0
M  V30 3340 H 307.348 -1.64437 -7.42202 0
M  V30 3341 N 308.923 1.53595 0.353017 0
M  V30 3342 C 310.17 1.70385 1.09431 0
M  V30 3343 C 310.498 0.462113 1.88931 0
M  V30 3344 O 309.753 -0.556074 1.87633 0
M  V30 3345 C 310.052 2.91313 2.07054 0
M  V30 3346 C 309.718 4.27308 1.43939 0
M  V30 3347 C 308.38 4.64287 1.26454 0
M  V30 3348 C 310.732 5.11829 0.983883 0
M  V30 3349 C 308.06 5.83412 0.620226 0
M  V30 3350 C 310.412 6.31611 0.353516 0
M  V30 3351 C 309.076 6.67293 0.166272 0
M  V30 3352 H 308.346 0.623484 0.400436 0
M  V30 3353 H 310.993 1.87799 0.374655 0
M  V30 3354 H 309.298 2.68463 2.85368 0
M  V30 3355 H 310.995 3.01497 2.64387 0
M  V30 3356 H 307.585 3.98198 1.58543 0
M  V30 3357 H 311.769 4.838 1.10685 0
M  V30 3358 H 307.025 6.09639 0.463681 0
M  V30 3359 H 311.199 6.964 -0.00757555 0
M  V30 3360 H 308.826 7.59461 -0.335047 0
M  V30 3361 N 310.401 -0.613514 1.45168 0
M  V30 3362 C 311.626 -1.40437 1.52618 0
M  V30 3363 C 312.051 -1.87438 0.157707 0
M  V30 3364 O 311.409 -1.59791 -0.856537 0
M  V30 3365 C 311.457 -2.58894 2.51011 0
M  V30 3366 O 310.561 -3.59326 2.02382 0
M  V30 3367 H 309.902 -0.419506 0.514695 0
M  V30 3368 H 312.432 -0.747215 1.90467 0
M  V30 3369 H 312.442 -3.06214 2.69624 0
M  V30 3370 H 311.117 -2.24032 3.50403 0
M  V30 3371 H 309.694 -3.18695 1.93618 0
M  V30 3372 N 311.879 -1.3236 -0.855495 0
M  V30 3373 C 312.826 -1.21225 -1.964 0
M  V30 3374 C 313.796 -0.0946204 -1.6583 0
M  V30 3375 O 314.981 -0.27002 -1.8888 0
M  V30 3376 C 312.121 -0.940419 -3.32039 0
M  V30 3377 C 311.234 -2.14276 -3.75113 0
M  V30 3378 C 310.369 -1.80648 -4.9954 0
M  V30 3379 C 309.408 -2.97208 -5.35102 0
M  V30 3380 N 308.545 -2.63678 -6.50706 0
M  V30 3381 H 313.385 -2.16042 -2.05255 0
M  V30 3382 H 310.922 -1.07451 -1.00463 0
M  V30 3383 H 312.88 -0.763311 -4.10158 0
M  V30 3384 H 311.51 -0.0290413 -3.22787 0
M  V30 3385 H 310.562 -2.43017 -2.92655 0
M  V30 3386 H 311.874 -3.01468 -3.97389 0
M  V30 3387 H 311.028 -1.59484 -5.85363 0
M  V30 3388 H 309.767 -0.906678 -4.79198 0
M  V30 3389 H 308.772 -3.19004 -4.47791 0
M  V30 3390 H 309.997 -3.87918 -5.57401 0
M  V30 3391 H 307.943 -1.76238 -6.31883 0
M  V30 3392 H 307.86 -3.444 -6.72997 0
M  V30 3393 H 309.128 -2.45942 -7.39684 0
M  V30 3394 N 313.357 1.07166 -1.15556 0
M  V30 3395 C 314.634 1.76546 -0.842069 0
M  V30 3396 C 315.014 2.00453 0.661939 0
M  V30 3397 O 314.362 1.62452 1.60691 0
M  V30 3398 C 314.572 3.07266 -1.65495 0
M  V30 3399 C 315.92 3.81578 -1.86234 0
M  V30 3400 O 316.944 3.17083 -1.62287 0
M  V30 3401 O 315.803 4.97419 -2.26355 0
M  V30 3402 H 312.897 0.766756 -0.309862 0
M  V30 3403 H 315.443 1.13514 -1.26145 0
M  V30 3404 H 314.215 2.85494 -2.67598 0
M  V30 3405 H 313.838 3.7803 -1.23203 0
M  V30 3406 N 314.835 0.952656 1.25548 0
M  V30 3407 C 315.765 0.489287 2.28316 0
M  V30 3408 C 316.746 -0.463359 1.63667 0
M  V30 3409 O 317.931 -0.36274 1.90782 0
M  V30 3410 C 315.061 -0.235603 3.465 0
M  V30 3411 C 314.015 0.631593 4.23314 0
M  V30 3412 C 313.341 -0.223923 5.34231 0
M  V30 3413 C 314.641 1.90871 4.86174 0
M  V30 3414 H 316.335 1.34822 2.67326 0
M  V30 3415 H 313.881 0.649728 1.28509 0
M  V30 3416 H 315.834 -0.570882 4.17515 0
M  V30 3417 H 314.558 -1.12877 3.06474 0
M  V30 3418 H 313.217 0.949929 3.54079 0
M  V30 3419 H 312.865 -1.11678 4.90446 0
M  V30 3420 H 312.565 0.35299 5.86539 0
M  V30 3421 H 314.089 -0.554214 6.0808 0
M  V30 3422 H 315.503 1.63997 5.49343 0
M  V30 3423 H 313.9 2.43112 5.4865 0
M  V30 3424 H 314.97 2.61304 4.08471 0
M  V30 3425 N 316.313 -1.40141 0.720998 0
M  V30 3426 C 317.559 -2.01084 0.263231 0
M  V30 3427 C 317.892 -1.57052 -1.14229 0
M  V30 3428 O 317.167 -0.793027 -1.77599 0
M  V30 3429 C 317.45 -3.58401 0.349344 0
M  V30 3430 C 317.303 -4.12491 1.79363 0
M  V30 3431 C 318.622 -4.39231 -0.276351 0
M  V30 3432 H 315.741 -0.730572 0.0971228 0
M  V30 3433 H 318.383 -1.66543 0.914518 0
M  V30 3434 H 316.533 -3.87958 -0.205165 0
M  V30 3435 H 318.205 -3.93711 2.40394 0
M  V30 3436 H 316.448 -3.66576 2.31958 0
M  V30 3437 H 317.119 -5.21646 1.80524 0
M  V30 3438 H 319.595 -4.15637 0.196184 0
M  V30 3439 H 318.471 -5.48586 -0.185681 0
M  V30 3440 H 318.732 -4.20643 -1.36059 0
M  V30 3441 N 317.792 -0.46758 -1.50504 0
M  V30 3442 C 319.02 0.0864133 -2.06719 0
M  V30 3443 C 319.435 1.33819 -1.33184 0
M  V30 3444 O 318.792 1.78061 -0.400083 0
M  V30 3445 C 318.843 0.378079 -3.59517 0
M  V30 3446 O 318.564 -0.824044 -4.3028 0
M  V30 3447 C 320.065 0.979426 -4.32345 0
M  V30 3448 H 317.285 -0.00551697 -0.670977 0
M  V30 3449 H 319.829 -0.655354 -1.93715 0
M  V30 3450 H 317.984 1.06977 -3.72337 0
M  V30 3451 H 318.398 -0.566518 -5.21432 0
M  V30 3452 H 319.872 1.1333 -5.40241 0
M  V30 3453 H 320.349 1.9686 -3.9261 0
M  V30 3454 H 320.955 0.326216 -4.24047 0
M  V30 3455 N 319.27 1.56325 -0.20005 0
M  V30 3456 C 320.516 1.98012 0.438059 0
M  V30 3457 C 320.849 1.08702 1.60927 0
M  V30 3458 O 320.124 0.140064 1.93995 0
M  V30 3459 C 320.407 3.48841 0.893419 0
M  V30 3460 C 320.26 4.48928 -0.279947 0
M  V30 3461 C 321.579 4.03498 1.75719 0
M  V30 3462 H 318.698 0.719918 0.157757 0
M  V30 3463 H 321.34 1.87743 -0.291968 0
M  V30 3464 H 319.49 3.57723 1.51547 0
M  V30 3465 H 321.162 4.52079 -0.91772 0
M  V30 3466 H 319.405 4.23694 -0.930919 0
M  V30 3467 H 320.076 5.5194 0.0812601 0
M  V30 3468 H 322.552 3.97427 1.23253 0
M  V30 3469 H 321.428 5.09393 2.04476 0
M  V30 3470 H 321.689 3.4906 2.71311 0
M  V30 3471 N 320.748 -0.0735177 1.57428 0
M  V30 3472 C 321.996 -0.771472 1.86796 0
M  V30 3473 C 322.317 -1.78201 0.791804 0
M  V30 3474 O 321.587 -1.95074 -0.179718 0
M  V30 3475 H 320.167 -0.28791 0.689287 0
M  V30 3476 H 322.829 -0.0500161 1.94836 0
M  V30 3477 H 321.925 -1.28874 2.8425 0
M  V30 3478 N 322.226 -1.5378 -0.344866 0
M  V30 3479 C 323.174 -1.82373 -1.4437 0
M  V30 3480 C 324.168 -0.694128 -1.54526 0
M  V30 3481 O 325.374 -0.877442 -1.57165 0
M  V30 3482 H 321.749 -0.577765 -0.481344 0
M  V30 3483 H 323.72 -2.74306 -1.17468 0
M  V30 3484 C 322.469 -2.04898 -2.80913 0
M  V30 3485 H 321.792 -2.9127 -2.73865 0
M  V30 3486 H 323.232 -2.28871 -3.56923 0
M  V30 3487 C 321.691 -0.834116 -3.26411 0
M  V30 3488 O 322.221 -0.0328885 -4.01687 0
M  V30 3489 N 320.427 -0.65171 -2.83198 0
M  V30 3490 H 319.974 -1.30489 -2.22104 0
M  V30 3491 H 319.932 0.159686 -3.13994 0
M  V30 3492 N 323.704 0.605807 -1.45491 0
M  V30 3493 C 324.634 1.72709 -1.57143 0
M  V30 3494 C 325.615 1.6476 -0.422884 0
M  V30 3495 O 326.8 1.83132 -0.646247 0
M  V30 3496 C 323.93 3.11316 -1.53948 0
M  V30 3497 C 322.884 3.34077 -2.67537 0
M  V30 3498 C 322.21 4.72975 -2.49397 0
M  V30 3499 C 323.51 3.24158 -4.09535 0
M  V30 3500 H 325.204 1.63214 -2.51001 0
M  V30 3501 H 322.75 0.78379 -1.208 0
M  V30 3502 H 324.703 3.89557 -1.60696 0
M  V30 3503 H 323.427 3.21655 -0.566205 0
M  V30 3504 H 322.086 2.58227 -2.6022 0
M  V30 3505 H 321.734 4.8005 -1.50205 0
M  V30 3506 H 321.434 4.8916 -3.25571 0
M  V30 3507 H 322.958 5.53414 -2.58002 0
M  V30 3508 H 324.372 3.92271 -4.18086 0
M  V30 3509 H 322.769 3.51872 -4.86113 0
M  V30 3510 H 323.839 2.2157 -4.31317 0
M  V30 3511 N 325.182 1.32811 0.848464 0
M  V30 3512 C 326.407 1.26882 1.6406 0
M  V30 3513 C 326.832 -0.15913 1.87426 0
M  V30 3514 O 326.19 -1.11258 1.43148 0
M  V30 3515 C 326.238 2.03997 2.97351 0
M  V30 3516 O 325.342 1.39201 3.88197 0
M  V30 3517 H 324.683 0.436982 0.499943 0
M  V30 3518 H 327.213 1.75224 1.0563 0
M  V30 3519 H 327.223 2.14403 3.47124 0
M  V30 3520 H 325.898 3.0783 2.79666 0
M  V30 3521 H 324.475 1.37381 3.46671 0
M  V30 3522 N 326.66 -1.06551 1.16123 0
M  V30 3523 C 327.59 -2.15935 0.88851 0
M  V30 3524 C 328.571 -1.69306 -0.164135 0
M  V30 3525 O 329.756 -1.94193 -0.0167857 0
M  V30 3526 C 326.886 -3.45149 0.385942 0
M  V30 3527 C 325.84 -4.05271 1.3762 0
M  V30 3528 C 325.166 -5.29664 0.732137 0
M  V30 3529 C 326.466 -4.44355 2.74493 0
M  V30 3530 H 328.16 -2.39006 1.80323 0
M  V30 3531 H 325.706 -1.14866 0.868435 0
M  V30 3532 H 327.659 -4.21004 0.182647 0
M  V30 3533 H 326.383 -3.21689 -0.564274 0
M  V30 3534 H 325.042 -3.3147 1.56599 0
M  V30 3535 H 324.69 -5.02499 -0.224483 0
M  V30 3536 H 324.39 -5.70848 1.39307 0
M  V30 3537 H 325.914 -6.08218 0.538802 0
M  V30 3538 H 327.328 -5.11303 2.59311 0
M  V30 3539 H 325.725 -4.96515 3.37035 0
M  V30 3540 H 326.795 -3.55339 3.29943 0
M  V30 3541 N 328.138 -0.959301 -1.25041 0
M  V30 3542 C 329.549 -0.65667 -1.74771 0
M  V30 3543 C 329.9 0.827852 -1.77879 0
M  V30 3544 O 329.025 1.64783 -1.40269 0
M  V30 3545 C 329.62 -1.1853 -3.1739 0
M  V30 3546 C 328.179 -0.932734 -3.6466 0
M  V30 3547 C 327.326 -1.32558 -2.43564 0
M  V30 3548 H 330.277 -1.13558 -1.10862 0
M  V30 3549 H 330.298 -0.547582 -3.76539 0
M  V30 3550 H 329.81 -2.26576 -3.15095 0
M  V30 3551 H 327.911 0.13257 -3.72364 0
M  V30 3552 H 328.024 -1.57248 -4.52559 0
M  V30 3553 H 326.388 -0.743956 -2.43593 0
M  V30 3554 H 327.171 -2.41537 -2.43957 0
M  V30 3555 N 329.616 1.39756 -0.72842 0
M  V30 3556 C 330.846 2.04651 -0.283117 0
M  V30 3557 C 331.254 1.5502 1.08469 0
M  V30 3558 O 330.597 0.707343 1.69536 0
M  V30 3559 C 330.659 3.58947 -0.199309 0
M  V30 3560 C 330.323 4.31525 -1.5045 0
M  V30 3561 C 331.32 4.5861 -2.44894 0
M  V30 3562 C 329.005 4.70195 -1.76698 0
M  V30 3563 C 330.999 5.23366 -3.63822 0
M  V30 3564 C 328.686 5.3468 -2.95906 0
M  V30 3565 C 329.684 5.61198 -3.89289 0
M  V30 3566 O 329.372 6.24347 -5.06404 0
M  V30 3567 H 329.104 0.664777 -0.122666 0
M  V30 3568 H 331.658 1.79913 -0.990987 0
M  V30 3569 H 329.888 3.82556 0.56461 0
M  V30 3570 H 331.577 4.0534 0.213125 0
M  V30 3571 H 332.343 4.29187 -2.25883 0
M  V30 3572 H 328.222 4.48916 -1.04859 0
M  V30 3573 H 331.766 5.4398 -4.36728 0
M  V30 3574 H 327.663 5.63524 -3.14819 0
M  V30 3575 H 328.431 6.42842 -5.06652 0
M  V30 3576 N 331.094 0.475555 1.50254 0
M  V30 3577 C 332.041 -0.316293 2.28622 0
M  V30 3578 C 333.011 -0.983227 1.33873 0
M  V30 3579 O 334.196 -0.994805 1.62814 0
M  V30 3580 C 331.336 -1.38975 3.1588 0
M  V30 3581 C 330.449 -0.737146 4.25664 0
M  V30 3582 C 329.584 -1.78887 5.00173 0
M  V30 3583 C 328.623 -1.11676 6.01826 0
M  V30 3584 N 327.76 -2.11154 6.69596 0
M  V30 3585 H 332.6 0.358297 2.95838 0
M  V30 3586 H 330.137 0.188541 1.45887 0
M  V30 3587 H 332.095 -2.02383 3.64825 0
M  V30 3588 H 330.725 -2.03344 2.50701 0
M  V30 3589 H 329.777 0.0096065 3.80399 0
M  V30 3590 H 331.089 -0.206816 4.98371 0
M  V30 3591 H 330.243 -2.49865 5.52859 0
M  V30 3592 H 328.982 -2.35302 4.27182 0
M  V30 3593 H 327.987 -0.392633 5.48396 0
M  V30 3594 H 329.212 -0.55945 6.76792 0
M  V30 3595 H 327.158 -2.66577 5.99394 0
M  V30 3596 H 327.075 -1.63118 7.38193 0
M  V30 3597 H 328.343 -2.81497 7.26897 0
M  V30 3598 N 332.573 -1.56217 0.208337 0
M  V30 3599 C 333.82 -1.97949 -0.42692 0
M  V30 3600 C 334.148 -1.09562 -1.60706 0
M  V30 3601 O 333.403 -0.137616 -1.95216 0
M  V30 3602 C 333.702 -3.45441 -0.916797 0
M  V30 3603 C 333.368 -4.50646 0.151391 0
M  V30 3604 C 332.03 -4.79139 0.444867 0
M  V30 3605 C 334.382 -5.13811 0.874492 0
M  V30 3606 C 331.71 -5.68084 1.46619 0
M  V30 3607 C 334.062 -6.03861 1.88506 0
M  V30 3608 C 332.726 -6.30704 2.18559 0
M  V30 3609 H 331.996 -0.724345 -0.156221 0
M  V30 3610 H 334.643 -1.89006 0.308084 0
M  V30 3611 H 332.948 -3.51521 -1.73032 0
M  V30 3612 H 334.645 -3.75094 -1.41794 0
M  V30 3613 H 331.235 -4.28511 -0.0875068 0
M  V30 3614 H 335.419 -4.91879 0.660996 0
M  V30 3615 H 330.675 -5.87151 1.7048 0
M  V30 3616 H 334.849 -6.51861 2.45051 0
M  V30 3617 H 332.476 -6.99424 2.97843 0
M  V30 3618 N 334.051 0.0651679 -1.57465 0
M  V30 3619 C 335.3 0.761916 -1.86756 0
M  V30 3620 C 335.613 1.78406 -0.801925 0
M  V30 3621 O 336.819 2.53084 -0.982885 0
M  V30 3622 C 335.275 1.40603 -3.31299 0
M  V30 3623 C 334.883 0.422115 -4.46007 0
M  V30 3624 C 336.627 2.08476 -3.69781 0
M  V30 3625 C 334.534 1.07252 -5.81593 0
M  V30 3626 H 333.464 0.288308 -0.696702 0
M  V30 3627 H 336.115 0.015344 -1.83494 0
M  V30 3628 H 334.497 2.20109 -3.29193 0
M  V30 3629 H 335.671 -0.343613 -4.59517 0
M  V30 3630 H 333.986 -0.152527 -4.16121 0
M  V30 3631 H 336.583 2.57925 -4.68379 0
M  V30 3632 H 336.926 2.88712 -2.99919 0
M  V30 3633 H 337.459 1.35792 -3.73905 0
M  V30 3634 H 334.198 0.310342 -6.54765 0
M  V30 3635 H 333.718 1.80895 -5.71872 0
M  V30 3636 H 335.397 1.59043 -6.27148 0
M  V30 3637 N 335.529 1.53961 0.336706 0
M  V30 3638 C 336.439 1.85432 1.43708 0
M  V30 3639 C 337.455 0.745053 1.57242 0
M  V30 3640 O 338.631 1.03804 1.72588 0
M  V30 3641 C 335.696 2.06349 2.78605 0
M  V30 3642 C 334.757 3.30191 2.74358 0
M  V30 3643 C 333.99 3.50101 4.02822 0
M  V30 3644 O 334.213 2.7371 5.00439 0
M  V30 3645 O 333.147 4.43547 4.06878 0
M  V30 3646 H 336.973 2.78975 1.20028 0
M  V30 3647 H 334.558 1.39701 0.52952 0
M  V30 3648 H 336.44 2.21513 3.58483 0
M  V30 3649 H 335.115 1.15995 3.02203 0
M  V30 3650 H 334.022 3.20425 1.93078 0
M  V30 3651 H 335.355 4.2056 2.55715 0
M  V30 3652 N 337.007 -0.598083 1.45811 0
M  V30 3653 C 338.253 -1.35882 1.50545 0
M  V30 3654 C 338.586 -1.93616 0.150445 0
M  V30 3655 O 337.861 -1.75604 -0.83628 0
M  V30 3656 C 338.144 -2.49966 2.59208 0
M  V30 3657 C 337.997 -1.97367 4.04186 0
M  V30 3658 C 339.316 -3.52068 2.64076 0
M  V30 3659 H 336.435 -0.492717 0.548087 0
M  V30 3660 H 339.077 -0.673319 1.77669 0
M  V30 3661 H 337.227 -3.08443 2.3621 0
M  V30 3662 H 338.899 -1.43466 4.38423 0
M  V30 3663 H 337.142 -1.283 4.14393 0
M  V30 3664 H 337.813 -2.79649 4.75921 0
M  V30 3665 H 340.289 -3.03448 2.84708 0
M  V30 3666 H 339.165 -4.2937 3.41954 0
M  V30 3667 H 339.426 -4.08304 1.69531 0
M  V30 3668 N 338.485 -1.33259 -0.841409 0
M  V30 3669 C 339.734 -1.23921 -1.59143 0
M  V30 3670 C 340.047 0.1941 -1.94635 0
M  V30 3671 O 341.253 0.409474 -2.68394 0
M  V30 3672 C 339.709 -2.17119 -2.87032 0
M  V30 3673 C 339.317 -3.65606 -2.58914 0
M  V30 3674 C 341.061 -2.16648 -3.65053 0
M  V30 3675 C 338.968 -4.50726 -3.82884 0
M  V30 3676 H 337.898 -0.460264 -0.597221 0
M  V30 3677 H 340.549 -1.58307 -0.927959 0
M  V30 3678 H 338.931 -1.75663 -3.54906 0
M  V30 3679 H 340.105 -4.15487 -1.99267 0
M  V30 3680 H 338.42 -3.68341 -1.942 0
M  V30 3681 H 341.017 -2.77474 -4.57069 0
M  V30 3682 H 341.36 -1.16088 -3.99787 0
M  V30 3683 H 341.893 -2.56453 -3.041 0
M  V30 3684 H 338.632 -5.52151 -3.53283 0
M  V30 3685 H 338.152 -4.0559 -4.41879 0
M  V30 3686 H 339.831 -4.64401 -4.50489 0
M  V30 3687 N 339.963 1.05934 -1.16686 0
M  V30 3688 C 341.24 1.75643 -0.860747 0
M  V30 3689 C 341.62 2.01144 0.640641 0
M  V30 3690 O 340.968 1.64147 1.58959 0
M  V30 3691 C 341.178 3.05493 -1.68745 0
M  V30 3692 C 342.526 3.79581 -1.90271 0
M  V30 3693 O 343.55 3.15344 -1.65641 0
M  V30 3694 O 342.409 4.9499 -2.31618 0
M  V30 3695 H 339.503 0.763426 -0.317977 0
M  V30 3696 H 342.049 1.1217 -1.27342 0
M  V30 3697 H 340.821 2.8264 -2.70611 0
M  V30 3698 H 340.444 3.76702 -1.27206 0
M  V30 3699 N 341.441 0.965919 1.2453 0
M  V30 3700 C 342.669 0.644385 1.96609 0
M  V30 3701 C 343.084 -0.785823 1.71669 0
M  V30 3702 O 342.441 -1.52703 0.999399 0
M  V30 3703 C 342.492 0.907375 3.49927 0
M  V30 3704 O 342.213 2.28136 3.74013 0
M  V30 3705 C 343.714 0.599784 4.39224 0
M  V30 3706 H 340.934 0.240588 0.626385 0
M  V30 3707 H 343.478 1.29337 1.58405 0
M  V30 3708 H 341.633 0.304631 3.862 0
M  V30 3709 H 342.047 2.36002 4.68405 0
M  V30 3710 H 343.521 0.834263 5.45659 0
M  V30 3711 H 343.998 -0.465921 4.36722 0
M  V30 3712 H 344.604 1.18235 4.08535 0
M  V30 3713 N 342.919 -1.39368 0.735821 0
M  V30 3714 C 343.867 -2.32443 0.0855131 0
M  V30 3715 C 344.861 -1.53104 -0.724954 0
M  V30 3716 O 346.067 -1.68762 -0.626047 0
M  V30 3717 H 342.442 -0.751948 0.00885257 0
M  V30 3718 H 344.413 -2.84916 0.886883 0
M  V30 3719 C 343.162 -3.38206 -0.806983 0
M  V30 3720 H 342.485 -3.99335 -0.19274 0
M  V30 3721 H 343.925 -4.05779 -1.2296 0
M  V30 3722 C 342.384 -2.75321 -1.94165 0
M  V30 3723 O 342.914 -2.63231 -3.03435 0
M  V30 3724 N 341.12 -2.33396 -1.73132 0
M  V30 3725 H 340.667 -2.4343 -0.842596 0
M  V30 3726 H 340.625 -1.91661 -2.49225 0
M  V30 3727 N 344.397 -0.483516 -1.5 0
M  V30 3728 C 345.645 0.067027 -2.01989 0
M  V30 3729 C 345.966 1.3909 -1.36671 0
M  V30 3730 O 345.236 1.88978 -0.516152 0
M  V30 3731 H 343.816 0.0277606 -0.746484 0
M  V30 3732 H 346.478 -0.636773 -1.84204 0
M  V30 3733 H 345.574 0.209484 -3.11396 0
M  V30 3734 N 345.875 1.56104 -0.216619 0
M  V30 3735 C 347.122 1.98172 0.416416 0
M  V30 3736 C 347.45 1.10413 1.60122 0
M  V30 3737 O 346.705 0.147967 1.9514 0
M  V30 3738 C 347.004 3.45923 0.898464 0
M  V30 3739 C 346.67 4.50559 -0.175288 0
M  V30 3740 C 345.332 4.78897 -0.470271 0
M  V30 3741 C 347.684 5.1334 -0.901728 0
M  V30 3742 C 345.012 5.67299 -1.4963 0
M  V30 3743 C 347.364 6.02853 -1.91705 0
M  V30 3744 C 346.028 6.29537 -2.21901 0
M  V30 3745 H 345.298 0.725164 0.152377 0
M  V30 3746 H 347.945 1.88839 -0.318103 0
M  V30 3747 H 346.25 3.52434 1.71165 0
M  V30 3748 H 347.947 3.75841 1.39803 0
M  V30 3749 H 344.537 4.28551 0.0647806 0
M  V30 3750 H 348.721 4.91521 -0.687072 0
M  V30 3751 H 343.977 5.86239 -1.73592 0
M  V30 3752 H 348.151 6.50552 -2.48505 0
M  V30 3753 H 345.778 6.97835 -3.01548 0
M  V30 3754 N 347.353 -0.0568162 1.57498 0
M  V30 3755 C 348.263 -1.08346 2.08083 0
M  V30 3756 C 349.279 -1.41439 1.01346 0
M  V30 3757 O 350.455 -1.51316 1.32912 0
M  V30 3758 C 347.52 -2.37352 2.52715 0
M  V30 3759 C 346.581 -2.11093 3.73816 0
M  V30 3760 C 345.814 -3.33949 4.1631 0
M  V30 3761 O 346.037 -4.43622 3.58547 0
M  V30 3762 O 344.971 -3.21279 5.08983 0
M  V30 3763 H 348.797 -0.683667 2.95905 0
M  V30 3764 H 346.382 -0.271965 1.46904 0
M  V30 3765 H 348.264 -3.13246 2.81877 0
M  V30 3766 H 346.939 -2.76681 1.68016 0
M  V30 3767 H 345.846 -1.32856 3.49714 0
M  V30 3768 H 347.179 -1.76637 4.59413 0
M  V30 3769 N 348.832 -1.54138 -0.328536 0
M  V30 3770 C 350.243 -1.63395 -0.903272 0
M  V30 3771 C 350.594 -0.524828 -1.8905 0
M  V30 3772 O 349.719 0.343068 -2.13663 0
M  V30 3773 C 350.314 -2.9618 -1.64507 0
M  V30 3774 C 348.873 -3.0765 -2.1686 0
M  V30 3775 C 348.02 -2.58933 -0.992416 0
M  V30 3776 H 350.971 -1.58344 -0.106253 0
M  V30 3777 H 350.992 -2.86061 -2.50897 0
M  V30 3778 H 350.504 -3.76884 -0.926302 0
M  V30 3779 H 348.605 -2.31611 -2.91868 0
M  V30 3780 H 348.718 -4.1337 -2.42202 0
M  V30 3781 H 347.082 -2.14706 -1.37016 0
M  V30 3782 H 347.865 -3.42089 -0.288041 0
M  V30 3783 N 350.31 0.590341 -1.46126 0
M  V30 3784 C 351.538 1.37504 -1.54597 0
M  V30 3785 C 351.953 1.87897 -0.184447 0
M  V30 3786 O 351.31 1.63192 0.816984 0
M  V30 3787 C 351.361 2.56779 -2.54454 0
M  V30 3788 O 351.082 2.08476 -3.85317 0
M  V30 3789 C 352.583 3.49427 -2.72792 0
M  V30 3790 H 349.803 0.420325 -0.523037 0
M  V30 3791 H 352.347 0.718383 -1.91467 0
M  V30 3792 H 350.502 3.1845 -2.20609 0
M  V30 3793 H 350.916 2.86097 -4.396 0
M  V30 3794 H 352.39 4.29619 -3.466 0
M  V30 3795 H 352.867 4.00876 -1.79429 0
M  V30 3796 H 353.473 2.93598 -3.07702 0
M  V30 3797 N 351.788 1.33704 0.83433 0
M  V30 3798 C 353.018 1.28281 1.6195 0
M  V30 3799 C 353.426 -0.147603 1.88623 0
M  V30 3800 O 352.769 -1.1016 1.47005 0
M  V30 3801 C 352.831 1.99386 2.99141 0
M  V30 3802 C 352.495 3.48681 2.95416 0
M  V30 3803 C 353.492 4.438 2.70809 0
M  V30 3804 C 351.177 3.90925 3.15409 0
M  V30 3805 C 353.171 5.79138 2.66229 0
M  V30 3806 C 350.858 5.26366 3.10454 0
M  V30 3807 C 351.856 6.20284 2.85895 0
M  V30 3808 O 351.544 7.53245 2.80852 0
M  V30 3809 H 351.276 0.44315 0.510484 0
M  V30 3810 H 353.83 1.76711 1.04702 0
M  V30 3811 H 352.06 1.45554 3.58261 0
M  V30 3812 H 353.749 1.87403 3.60049 0
M  V30 3813 H 354.515 4.12485 2.5511 0
M  V30 3814 H 350.394 3.18229 3.33543 0
M  V30 3815 H 353.938 6.52416 2.4698 0
M  V30 3816 H 349.835 5.57304 3.25703 0
M  V30 3817 H 350.603 7.62846 2.96661 0
M  V30 3818 N 353.266 -1.05314 1.17247 0
M  V30 3819 C 354.494 -1.81971 0.984593 0
M  V30 3820 C 354.909 -1.82929 -0.467166 0
M  V30 3821 O 354.266 -1.25564 -1.32438 0
M  V30 3822 C 354.317 -3.28143 1.51672 0
M  V30 3823 O 354.038 -3.27347 2.91163 0
M  V30 3824 C 355.539 -4.21493 1.37326 0
M  V30 3825 H 352.759 -0.573455 0.348411 0
M  V30 3826 H 355.303 -1.32808 1.55506 0
M  V30 3827 H 353.458 -3.74582 0.988302 0
M  V30 3828 H 353.872 -4.18824 3.15732 0
M  V30 3829 H 355.346 -5.22043 1.79375 0
M  V30 3830 H 355.823 -4.38031 0.320169 0
M  V30 3831 H 356.429 -3.80909 1.89178 0
M  V30 3832 N 354.744 -0.972509 -1.24016 0
M  V30 3833 C 355.707 -0.511403 -2.23422 0
M  V30 3834 C 356.707 0.394679 -1.55881 0
M  V30 3835 O 357.897 0.189469 -1.73167 0
M  V30 3836 C 355.029 0.258769 -3.39916 0
M  V30 3837 H 356.222 -1.39024 -2.6573 0
M  V30 3838 H 353.775 -0.757585 -1.36713 0
M  V30 3839 H 354.51 1.1545 -3.03054 0
M  V30 3840 H 354.295 -0.391522 -3.9014 0
M  V30 3841 H 355.785 0.570244 -4.13688 0
M  V30 3842 N 356.222 1.38976 -0.743202 0
M  V30 3843 C 357.447 2.05161 -0.303936 0
M  V30 3844 C 357.872 1.55677 1.05576 0
M  V30 3845 O 357.23 0.704131 1.67068 0
M  V30 3846 C 357.278 3.59138 -0.324373 0
M  V30 3847 O 356.382 4.06668 0.685204 0
M  V30 3848 H 355.723 0.649815 -0.136518 0
M  V30 3849 H 358.253 1.77852 -1.01142 0
M  V30 3850 H 358.263 4.07639 -0.171618 0
M  V30 3851 H 356.938 3.94515 -1.31647 0
M  V30 3852 H 355.515 3.69561 0.497913 0
M  V30 3853 N 357.7 0.491464 1.49741 0
M  V30 3854 C 358.928 -0.0535151 2.06831 0
M  V30 3855 C 359.343 -1.31683 1.35296 0
M  V30 3856 O 358.7 -1.77402 0.42836 0
M  V30 3857 C 358.751 -0.320835 3.60073 0
M  V30 3858 O 358.472 0.892394 4.28915 0
M  V30 3859 C 359.973 -0.910519 4.33848 0
M  V30 3860 H 357.193 0.0161909 0.670805 0
M  V30 3861 H 359.737 0.68609 1.92647 0
M  V30 3862 H 357.892 -1.0104 3.73991 0
M  V30 3863 H 358.306 0.649401 5.20464 0
M  V30 3864 H 359.78 -1.04721 5.41976 0
M  V30 3865 H 360.257 -1.90589 3.95692 0
M  V30 3866 H 360.863 -0.258712 4.24512 0
M  V30 3867 N 359.178 -1.55987 0.224894 0
M  V30 3868 C 360.425 -1.9839 -0.4059 0
M  V30 3869 C 360.753 -1.11261 -1.59535 0
M  V30 3870 O 360.008 -0.158314 -1.95059 0
M  V30 3871 C 360.307 -3.46394 -0.880106 0
M  V30 3872 C 359.973 -4.5046 0.19918 0
M  V30 3873 C 358.635 -4.7864 0.495661 0
M  V30 3874 C 360.987 -5.12855 0.928939 0
M  V30 3875 C 358.315 -5.66497 1.52636 0
M  V30 3876 C 360.667 -6.01828 1.949 0
M  V30 3877 C 359.331 -6.28351 2.25236 0
M  V30 3878 H 358.601 -0.725961 -0.148529 0
M  V30 3879 H 361.248 -1.88668 0.328113 0
M  V30 3880 H 359.553 -3.53337 -1.69294 0
M  V30 3881 H 361.25 -3.76577 -1.37808 0
M  V30 3882 H 357.84 -4.28579 -0.0420526 0
M  V30 3883 H 362.024 -4.9115 0.713129 0
M  V30 3884 H 357.28 -5.8531 1.76698 0
M  V30 3885 H 361.454 -6.49225 2.51951 0
M  V30 3886 H 359.081 -6.96226 3.05244 0
M  V30 3887 N 360.656 0.0484629 -1.57525 0
M  V30 3888 C 361.933 0.777447 -1.79486 0
M  V30 3889 C 362.313 1.94597 -0.818251 0
M  V30 3890 O 361.661 2.28047 0.143767 0
M  V30 3891 C 361.871 1.22864 -3.26658 0
M  V30 3892 C 363.219 1.65251 -3.91123 0
M  V30 3893 O 364.243 1.32372 -3.3069 0
M  V30 3894 O 363.102 2.26207 -4.97486 0
M  V30 3895 H 360.196 0.374357 -0.737419 0
M  V30 3896 H 362.742 0.0267359 -1.69679 0
M  V30 3897 H 361.514 0.393589 -3.89316 0
M  V30 3898 H 361.137 2.03996 -3.41279 0
M  V30 3899 N 362.134 1.5431 0.320358 0
M  V30 3900 C 363.382 1.72327 1.05583 0
M  V30 3901 C 363.703 0.50149 1.88441 0
M  V30 3902 O 362.973 -0.48448 1.89815 0
M  V30 3903 H 361.553 0.635387 0.3928 0
M  V30 3904 H 364.215 1.91621 0.356019 0
M  V30 3905 H 363.311 2.60426 1.72003 0
M  V30 3906 N 363.613 -0.582584 1.46437 0
M  V30 3907 C 364.862 -1.337 1.5102 0
M  V30 3908 C 365.175 -1.94891 0.166359 0
M  V30 3909 O 366.381 -2.71351 0.0899954 0
M  V30 3910 C 364.837 -2.42315 2.66104 0
M  V30 3911 C 364.445 -1.87427 4.06909 0
M  V30 3912 C 366.189 -3.19099 2.79958 0
M  V30 3913 C 364.096 -2.93672 5.13333 0
M  V30 3914 H 363.026 -0.502619 0.562041 0
M  V30 3915 H 365.677 -0.621701 1.72647 0
M  V30 3916 H 364.059 -3.16645 2.37807 0
M  V30 3917 H 365.233 -1.19639 4.44998 0
M  V30 3918 H 363.548 -1.2331 3.97723 0
M  V30 3919 H 366.145 -3.9839 3.56636 0
M  V30 3920 H 366.488 -3.71695 1.87479 0
M  V30 3921 H 367.021 -2.51875 3.07902 0
M  V30 3922 H 363.76 -2.45962 6.07604 0
M  V30 3923 H 363.28 -3.59948 4.79789 0
M  V30 3924 H 364.959 -3.5762 5.39182 0
M  V30 3925 N 365.091 -1.34144 -0.827227 0
M  V30 3926 C 366.021 -1.28005 -1.95287 0
M  V30 3927 C 367.002 -0.158321 -1.69362 0
M  V30 3928 O 368.187 -0.349987 -1.9102 0
M  V30 3929 C 365.317 -1.03036 -3.31664 0
M  V30 3930 C 364.271 -2.11628 -3.72019 0
M  V30 3931 C 363.597 -1.71854 -5.0633 0
M  V30 3932 C 364.897 -3.53417 -3.8457 0
M  V30 3933 H 366.591 -2.22187 -2.00682 0
M  V30 3934 H 364.137 -1.0696 -0.964135 0
M  V30 3935 H 366.09 -0.973863 -4.09993 0
M  V30 3936 H 364.814 -0.0529391 -3.26557 0
M  V30 3937 H 363.473 -2.16339 -2.95961 0
M  V30 3938 H 363.121 -0.727841 -4.97706 0
M  V30 3939 H 362.821 -2.44531 -5.34302 0
M  V30 3940 H 364.345 -1.67692 -5.87122 0
M  V30 3941 H 365.759 -3.51142 -4.5318 0
M  V30 3942 H 364.156 -4.24679 -4.2399 0
M  V30 3943 H 365.226 -3.91072 -2.86689 0
M  V30 3944 N 366.569 1.04691 -1.17803 0
M  V30 3945 C 367.817 1.7743 -0.967617 0
M  V30 3946 C 368.138 1.88359 0.504574 0
M  V30 3947 O 367.408 1.40402 1.36617 0
M  V30 3948 H 365.988 0.657242 -0.355024 0
M  V30 3949 H 368.65 1.2638 -1.48371 0
M  V30 3950 H 367.746 2.78924 -1.40027 0
M  V30 3951 N 368.047 0.979072 1.23499 0
M  V30 3952 C 368.977 0.537606 2.27227 0
M  V30 3953 C 369.958 -0.428539 1.64613 0
M  V30 3954 O 371.143 -0.322191 1.91509 0
M  V30 3955 C 368.273 -0.162052 3.46922 0
M  V30 3956 C 367.227 0.721242 4.21879 0
M  V30 3957 C 366.553 -0.110555 5.34586 0
M  V30 3958 C 367.853 2.01141 4.82016 0
M  V30 3959 H 369.547 1.40462 2.64406 0
M  V30 3960 H 367.093 0.67684 1.27102 0
M  V30 3961 H 369.046 -0.482192 4.18632 0
M  V30 3962 H 367.77 -1.06351 3.08799 0
M  V30 3963 H 366.429 1.02482 3.51984 0
M  V30 3964 H 366.077 -1.0125 4.92704 0
M  V30 3965 H 365.777 0.477325 5.85658 0
M  V30 3966 H 367.301 -0.425107 6.09118 0
M  V30 3967 H 368.715 1.75612 5.45741 0
M  V30 3968 H 367.112 2.54695 5.43369 0
M  V30 3969 H 368.182 2.69909 4.02836 0
M  V30 3970 N 369.525 -1.3858 0.750561 0
M  V30 3971 C 370.773 -1.99789 0.30477 0
M  V30 3972 C 371.094 -1.59874 -1.11649 0
M  V30 3973 O 370.364 -0.85417 -1.76297 0
M  V30 3974 H 368.944 -0.738902 0.109694 0
M  V30 3975 H 371.606 -1.69391 0.963983 0
M  V30 3976 H 370.702 -3.09952 0.365499 0
M  V30 3977 N 371.003 -0.499398 -1.49478 0
M  V30 3978 C 372.249 0.0377587 -2.03365 0
M  V30 3979 C 372.604 1.3484 -1.37244 0
M  V30 3980 O 371.897 1.85 -0.498547 0
M  V30 3981 C 372.091 0.248424 -3.56536 0
M  V30 3982 C 371.92 -1.04025 -4.37503 0
M  V30 3983 C 370.69 -1.59159 -4.79579 0
M  V30 3984 C 372.888 -1.9431 -4.76181 0
M  V30 3985 N 370.87 -2.82634 -5.44969 0
M  V30 3986 C 372.241 -3.02364 -5.41272 0
M  V30 3987 C 374.296 -1.95008 -4.58123 0
M  V30 3988 C 372.999 -4.1114 -5.90217 0
M  V30 3989 C 375.025 -3.02758 -5.08027 0
M  V30 3990 C 374.387 -4.09531 -5.73118 0
M  V30 3991 H 370.486 -0.026923 -0.781536 0
M  V30 3992 H 373.07 -0.673901 -1.82665 0
M  V30 3993 H 371.241 0.929139 -3.77123 0
M  V30 3994 H 372.973 0.782445 -3.97064 0
M  V30 3995 H 369.728 -1.13696 -4.5975 0
M  V30 3996 H 370.152 -3.45416 -5.82252 0
M  V30 3997 H 374.794 -1.13766 -4.07207 0
M  V30 3998 H 372.512 -4.93181 -6.40155 0
M  V30 3999 H 376.098 -3.04315 -4.95866 0
M  V30 4000 H 374.978 -4.91534 -6.11035 0
M  V30 4001 N 372.481 1.55866 -0.233164 0
M  V30 4002 C 373.428 2.20796 0.67215 0
M  V30 4003 C 374.398 1.16731 1.18166 0
M  V30 4004 O 375.583 1.45129 1.23864 0
M  V30 4005 C 372.723 2.90072 1.86955 0
M  V30 4006 C 371.836 4.08759 1.39786 0
M  V30 4007 C 370.971 4.65787 2.55374 0
M  V30 4008 C 370.01 5.76752 2.04998 0
M  V30 4009 N 369.147 6.28021 3.13901 0
M  V30 4010 H 373.987 2.9779 0.111749 0
M  V30 4011 H 371.524 1.47036 0.0434007 0
M  V30 4012 H 373.482 3.28428 2.57276 0
M  V30 4013 H 372.112 2.15575 2.40265 0
M  V30 4014 H 371.164 3.7581 0.589173 0
M  V30 4015 H 372.476 4.88906 0.98856 0
M  V30 4016 H 371.63 5.06646 3.33758 0
M  V30 4017 H 370.369 3.84828 2.99598 0
M  V30 4018 H 369.374 5.35383 1.25079 0
M  V30 4019 H 370.599 6.59553 1.61759 0
M  V30 4020 H 368.545 5.49971 3.57586 0
M  V30 4021 H 368.462 7.03323 2.7726 0
M  V30 4022 H 369.73 6.73538 3.92386 0
M  V30 4023 N 373.959 -0.0401083 1.57549 0
M  V30 4024 C 375.236 -0.767917 1.79896 0
M  V30 4025 C 375.616 -1.9416 0.82856 0
M  V30 4026 O 374.964 -2.2812 -0.131671 0
M  V30 4027 C 375.174 -1.2113 3.27305 0
M  V30 4028 C 376.522 -1.63175 3.91994 0
M  V30 4029 O 377.546 -1.30616 3.31388 0
M  V30 4030 O 376.405 -2.23565 4.98679 0
M  V30 4031 H 373.499 -0.370441 0.739393 0
M  V30 4032 H 376.045 -0.017737 1.69691 0
M  V30 4033 H 374.817 -0.372937 3.89519 0
M  V30 4034 H 374.44 -2.02183 3.42356 0
M  V30 4035 N 375.437 -1.54477 -0.31217 0
M  V30 4036 C 376.367 -1.87652 -1.38957 0
M  V30 4037 C 377.348 -0.734358 -1.53431 0
M  V30 4038 O 378.533 -0.98911 -1.67123 0
M  V30 4039 C 375.663 -2.11396 -2.75552 0
M  V30 4040 C 374.617 -3.27243 -2.75855 0
M  V30 4041 C 373.943 -3.36382 -4.15633 0
M  V30 4042 C 375.243 -4.64622 -2.38587 0
M  V30 4043 H 376.937 -2.77887 -1.11442 0
M  V30 4044 H 374.483 -1.33707 -0.534655 0
M  V30 4045 H 376.436 -2.33189 -3.51 0
M  V30 4046 H 375.16 -1.17921 -3.04569 0
M  V30 4047 H 373.819 -3.05356 -2.02863 0
M  V30 4048 H 373.467 -2.40445 -4.41809 0
M  V30 4049 H 373.167 -4.14249 -4.1674 0
M  V30 4050 H 374.691 -3.60422 -4.92877 0
M  V30 4051 H 376.105 -4.86219 -3.03749 0
M  V30 4052 H 374.502 -5.45121 -2.50925 0
M  V30 4053 H 375.572 -4.66097 -1.33723 0
M  V30 4054 N 376.915 0.57481 -1.46744 0
M  V30 4055 C 378.14 1.36341 -1.56288 0
M  V30 4056 C 378.565 1.86954 -0.207347 0
M  V30 4057 O 377.923 1.62006 0.813871 0
M  V30 4058 C 377.971 2.52147 -2.57787 0
M  V30 4059 O 377.075 3.53834 -2.11838 0
M  V30 4060 H 376.416 0.405713 -0.525636 0
M  V30 4061 H 378.946 0.696453 -1.92382 0
M  V30 4062 H 378.956 2.98958 -2.77648 0
M  V30 4063 H 377.631 2.14663 -3.5622 0
M  V30 4064 H 376.208 3.1345 -2.01999 0
M  V30 4065 N 378.394 1.34581 0.820102 0
M  V30 4066 C 379.643 1.26437 1.57151 0
M  V30 4067 C 379.956 -0.163111 1.94919 0
M  V30 4068 O 381.162 -0.366722 2.69012 0
M  V30 4069 C 379.618 2.21658 2.83541 0
M  V30 4070 C 379.226 3.69679 2.53065 0
M  V30 4071 C 380.97 2.22428 3.61561 0
M  V30 4072 C 378.877 4.56761 3.75664 0
M  V30 4073 H 377.807 0.469707 0.589823 0
M  V30 4074 H 380.458 1.59763 0.902656 0
M  V30 4075 H 378.84 1.81287 3.52067 0
M  V30 4076 H 380.014 4.18605 1.92631 0
M  V30 4077 H 378.329 3.71384 1.88316 0
M  V30 4078 H 380.926 2.8471 4.52597 0
M  V30 4079 H 381.269 1.22434 3.97889 0
M  V30 4080 H 381.802 2.61259 2.99981 0
M  V30 4081 H 378.541 5.57702 3.44454 0
M  V30 4082 H 378.061 4.12568 4.35371 0
M  V30 4083 H 379.74 4.71509 4.43044 0
M  V30 4084 N 379.872 -1.04064 1.18357 0
M  V30 4085 C 381.12 -1.76915 0.977013 0
M  V30 4086 C 381.441 -1.88624 -0.494577 0
M  V30 4087 O 380.711 -1.41125 -1.3587 0
M  V30 4088 H 379.291 -0.65535 0.358504 0
M  V30 4089 H 381.953 -1.25592 1.49039 0
M  V30 4090 H 381.049 -2.78178 1.41504 0
M  V30 4091 N 381.35 -0.985608 -1.22978 0
M  V30 4092 C 382.575 -0.675254 -1.961 0
M  V30 4093 C 383 0.752154 -1.72407 0
M  V30 4094 O 382.358 1.5131 -0.998751 0
M  V30 4095 C 382.406 -0.977899 -3.47087 0
M  V30 4096 O 381.51 -0.072685 -4.12336 0
M  V30 4097 H 380.851 -0.253443 -0.613728 0
M  V30 4098 H 383.381 -1.32061 -1.56272 0
M  V30 4099 H 383.391 -0.916739 -3.97567 0
M  V30 4100 H 382.066 -2.01807 -3.63657 0
M  V30 4101 H 380.643 -0.188703 -3.72422 0
M  V30 4102 N 382.828 1.3818 -0.7579 0
M  V30 4103 C 384.074 2.00316 -0.316453 0
M  V30 4104 C 384.407 1.60026 1.10025 0
M  V30 4105 O 383.682 0.839835 1.75434 0
M  V30 4106 C 383.965 3.57349 -0.444245 0
M  V30 4107 C 383.818 4.07591 -1.90236 0
M  V30 4108 C 385.137 4.3981 0.1598 0
M  V30 4109 H 382.256 0.727741 -0.116459 0
M  V30 4110 H 384.898 1.6406 -0.958352 0
M  V30 4111 H 383.048 3.88365 0.102233 0
M  V30 4112 H 384.72 3.87199 -2.50748 0
M  V30 4113 H 382.963 3.60297 -2.41595 0
M  V30 4114 H 383.634 5.16677 -1.94291 0
M  V30 4115 H 386.11 4.14971 -0.306314 0
M  V30 4116 H 384.986 5.48885 0.0401675 0
M  V30 4117 H 385.247 4.24102 1.24859 0
M  V30 4118 N 384.306 0.507319 1.49211 0
M  V30 4119 C 385.583 -0.0982702 1.95353 0
M  V30 4120 C 385.963 -1.53516 1.449 0
M  V30 4121 O 385.311 -2.18594 0.66551 0
M  V30 4122 C 385.521 -0.00440283 3.49 0
M  V30 4123 C 386.869 -0.175147 4.24239 0
M  V30 4124 O 387.893 -0.0792891 3.56112 0
M  V30 4125 O 386.752 -0.37276 5.45227 0
M  V30 4126 H 383.846 -0.0918236 0.821887 0
M  V30 4127 H 386.392 0.570307 1.5983 0
M  V30 4128 H 385.164 0.997402 3.78375 0
M  V30 4129 H 384.787 -0.712845 3.91158 0
M  V30 4130 N 385.784 -1.5574 0.241426 0
M  V30 4131 C 387.195 -1.84842 -0.262755 0
M  V30 4132 C 387.546 -1.16317 -1.58003 0
M  V30 4133 O 386.671 -0.439653 -2.11887 0
M  V30 4134 C 387.266 -3.35332 -0.483523 0
M  V30 4135 C 385.825 -3.6468 -0.931977 0
M  V30 4136 C 384.972 -2.77299 -0.0061151 0
M  V30 4137 H 387.923 -1.51761 0.464129 0
M  V30 4138 H 387.944 -3.56615 -1.32688 0
M  V30 4139 H 387.456 -3.85178 0.47537 0
M  V30 4140 H 385.557 -3.20307 -1.90353 0
M  V30 4141 H 385.67 -4.72498 -0.792628 0
M  V30 4142 H 384.034 -2.49408 -0.516503 0
M  V30 4143 H 384.817 -3.2995 0.948052 0
M  V30 4144 N 387.262 0.0317525 -1.57568 0
M  V30 4145 C 388.511 0.722131 -1.8833 0
M  V30 4146 C 388.824 1.76664 -0.839587 0
M  V30 4147 O 390.03 2.50942 -1.03635 0
M  V30 4148 C 388.486 1.33544 -3.34207 0
M  V30 4149 C 388.094 0.327415 -4.46802 0
M  V30 4150 C 389.838 2.00585 -3.7412 0
M  V30 4151 C 387.745 0.948915 -5.83738 0
M  V30 4152 H 386.675 0.273466 -0.702661 0
M  V30 4153 H 389.326 -0.0235811 -1.83485 0
M  V30 4154 H 387.708 2.13077 -3.33788 0
M  V30 4155 H 388.882 -0.441006 -4.58685 0
M  V30 4156 H 387.197 -0.240758 -4.15703 0
M  V30 4157 H 389.794 2.47932 -4.73744 0
M  V30 4158 H 390.137 2.82285 -3.05975 0
M  V30 4159 H 390.67 1.27831 -3.76702 0
M  V30 4160 H 387.409 0.171387 -6.55276 0
M  V30 4161 H 386.929 1.68724 -5.7558 0
M  V30 4162 H 388.608 1.45705 -6.3038 0
M  V30 4163 N 388.74 1.54641 0.303973 0
M  V30 4164 C 389.986 1.74038 1.04109 0
M  V30 4165 C 390.319 0.523051 1.87024 0
M  V30 4166 O 389.594 -0.479874 1.88487 0
M  V30 4167 C 389.877 3.02761 1.94955 0
M  V30 4168 C 389.73 4.34787 1.1524 0
M  V30 4169 C 391.049 3.27336 2.94175 0
M  V30 4170 H 388.168 0.63323 0.377079 0
M  V30 4171 H 390.81 1.87354 0.316001 0
M  V30 4172 H 388.96 2.9154 2.56782 0
M  V30 4173 H 390.632 4.57922 0.557236 0
M  V30 4174 H 388.875 4.31407 0.455053 0
M  V30 4175 H 389.546 5.21116 1.8205 0
M  V30 4176 H 392.022 3.38148 2.42477 0
M  V30 4177 H 390.898 4.18726 3.54908 0
M  V30 4178 H 391.159 2.45491 3.67677 0
M  V30 4179 N 390.218 -0.567019 1.47046 0
M  V30 4180 C 391.464 -1.32658 1.53394 0
M  V30 4181 C 391.797 -1.93254 0.19148 0
M  V30 4182 O 391.072 -1.77338 -0.798844 0
M  V30 4183 C 391.355 -2.44412 2.64452 0
M  V30 4184 C 391.208 -1.88749 4.08282 0
M  V30 4185 C 392.527 -3.46387 2.71485 0
M  V30 4186 H 389.646 -0.48098 0.558415 0
M  V30 4187 H 392.288 -0.635481 1.79058 0
M  V30 4188 H 390.438 -3.03363 2.427 0
M  V30 4189 H 392.11 -1.34134 4.41368 0
M  V30 4190 H 390.353 -1.19481 4.17021 0
M  V30 4191 H 391.024 -2.69491 4.81745 0
M  V30 4192 H 393.5 -2.9734 2.91081 0
M  V30 4193 H 392.376 -4.2202 3.50985 0
M  V30 4194 H 392.637 -4.04616 1.78153 0
M  V30 4195 N 391.696 -1.35014 -0.812953 0
M  V30 4196 C 392.606 -1.2951 -1.95613 0
M  V30 4197 C 393.622 -0.20107 -1.72834 0
M  V30 4198 O 394.798 -0.42932 -1.96771 0
M  V30 4199 C 391.863 -1.06033 -3.30088 0
M  V30 4200 C 390.924 -2.24688 -3.65805 0
M  V30 4201 C 390.157 -2.02322 -4.93864 0
M  V30 4202 O 390.38 -0.986464 -5.61805 0
M  V30 4203 O 389.314 -2.89525 -5.27692 0
M  V30 4204 H 393.14 -2.25705 -2.03202 0
M  V30 4205 H 390.725 -1.15321 -0.949811 0
M  V30 4206 H 392.607 -0.94763 -4.10607 0
M  V30 4207 H 391.282 -0.128852 -3.23443 0
M  V30 4208 H 390.189 -2.41521 -2.85689 0
M  V30 4209 H 391.522 -3.16261 -3.77147 0
M  V30 4210 N 393.175 1.03435 -1.18907 0
M  V30 4211 C 394.105 2.13503 -0.945448 0
M  V30 4212 C 395.086 1.69682 0.119189 0
M  V30 4213 O 396.271 1.94169 -0.034707 0
M  V30 4214 C 393.401 3.44004 -0.477316 0
M  V30 4215 C 392.355 4.0148 -1.48316 0
M  V30 4216 C 391.681 5.27537 -0.872311 0
M  V30 4217 C 392.981 4.36921 -2.86177 0
M  V30 4218 H 394.675 2.34141 -1.86597 0
M  V30 4219 H 392.221 1.12523 -0.898584 0
M  V30 4220 H 394.174 4.20372 -0.294204 0
M  V30 4221 H 392.898 3.23072 0.478786 0
M  V30 4222 H 391.557 3.27201 -1.65332 0
M  V30 4223 H 391.205 5.02917 0.0911752 0
M  V30 4224 H 390.905 5.66954 -1.54393 0
M  V30 4225 H 392.429 6.06576 -0.699871 0
M  V30 4226 H 393.843 5.04248 -2.72776 0
M  V30 4227 H 392.24 4.87405 -3.50081 0
M  V30 4228 H 393.31 3.46466 -3.39248 0
M  V30 4229 N 394.653 0.992116 1.22453 0
M  V30 4230 C 395.6 0.541731 2.24352 0
M  V30 4231 C 396.57 -0.425519 1.60557 0
M  V30 4232 O 397.755 -0.330453 1.87917 0
M  V30 4233 C 394.895 -0.138248 3.44823 0
M  V30 4234 C 394.008 0.870649 4.23136 0
M  V30 4235 C 393.143 0.164269 5.30946 0
M  V30 4236 C 392.182 1.16159 6.00977 0
M  V30 4237 N 391.319 0.483568 7.00433 0
M  V30 4238 H 396.159 1.41541 2.62241 0
M  V30 4239 H 393.696 0.709013 1.28885 0
M  V30 4240 H 395.654 -0.5494 4.13567 0
M  V30 4241 H 394.284 -0.975721 3.077 0
M  V30 4242 H 393.336 1.40013 3.53696 0
M  V30 4243 H 394.648 1.63014 4.7141 0
M  V30 4244 H 393.802 -0.303653 6.0594 0
M  V30 4245 H 392.541 -0.627733 4.83643 0
M  V30 4246 H 391.546 1.64015 5.24766 0
M  V30 4247 H 392.771 1.95445 6.50368 0
M  V30 4248 H 390.717 -0.289012 6.55363 0
M  V30 4249 H 390.634 1.18152 7.4671 0
M  V30 4250 H 391.902 0.0384219 7.79491 0
M  V30 4251 N 396.131 -1.37776 0.765217 0
M  V30 4252 C 397.079 -2.32209 0.134798 0
M  V30 4253 C 398.073 -1.54607 -0.692315 0
M  V30 4254 O 399.279 -1.70052 -0.590109 0
M  V30 4255 H 395.654 -0.751591 0.0248005 0
M  V30 4256 H 397.625 -2.8297 0.947119 0
M  V30 4257 C 396.374 -3.39841 -0.735063 0
M  V30 4258 H 395.697 -3.99654 -0.107991 0
M  V30 4259 H 397.137 -4.08296 -1.14326 0
M  V30 4260 C 395.596 -2.79378 -1.88281 0
M  V30 4261 O 396.126 -2.69608 -2.97783 0
M  V30 4262 N 394.332 -2.37016 -1.68142 0
M  V30 4263 H 393.879 -2.45162 -0.790772 0
M  V30 4264 H 393.837 -1.96905 -2.45104 0
M  V30 4265 N 397.609 -0.515225 -1.4894 0
M  V30 4266 C 398.541 0.292481 -2.27326 0
M  V30 4267 C 399.554 0.917838 -1.3446 0
M  V30 4268 O 400.743 0.798772 -1.5963 0
M  V30 4269 C 397.843 1.42803 -3.07344 0
M  V30 4270 C 397.016 0.907347 -4.27885 0
M  V30 4271 C 396.075 1.92222 -4.89834 0
M  V30 4272 O 395.101 1.48506 -5.49486 0
M  V30 4273 N 396.303 3.25355 -4.80754 0
M  V30 4274 H 399.068 -0.379721 -2.97285 0
M  V30 4275 H 396.629 -0.348638 -1.58102 0
M  V30 4276 H 398.621 2.10481 -3.45658 0
M  V30 4277 H 397.191 2.00414 -2.39902 0
M  V30 4278 H 396.411 0.0550218 -3.94162 0
M  V30 4279 H 397.699 0.538108 -5.05946 0
M  V30 4280 H 397.097 3.6355 -4.33414 0
M  V30 4281 H 395.654 3.88707 -5.23211 0
M  V30 4282 N 399.087 1.5561 -0.249682 0
M  V30 4283 C 400.035 2.22894 0.664906 0
M  V30 4284 C 401.029 1.21743 1.17792 0
M  V30 4285 O 402.235 1.39748 1.13449 0
M  V30 4286 H 398.61 0.715022 0.232912 0
M  V30 4287 H 400.581 2.98307 0.0742998 0
M  V30 4288 C 399.33 2.94424 1.84959 0
M  V30 4289 H 398.653 3.72031 1.46399 0
M  V30 4290 H 400.093 3.44862 2.4667 0
M  V30 4291 C 398.552 1.98454 2.72245 0
M  V30 4292 O 399.082 1.51939 3.71857 0
M  V30 4293 N 397.288 1.65496 2.38871 0
M  V30 4294 H 396.835 2.03517 1.57919 0
M  V30 4295 H 396.793 1.0155 2.97548 0
M  V30 4296 N 400.565 -0.0233959 1.57583 0
M  V30 4297 C 401.512 -1.02224 2.06927 0
M  V30 4298 C 402.482 -1.35575 0.959617 0
M  V30 4299 O 403.667 -1.45815 1.23055 0
M  V30 4300 C 400.807 -2.31636 2.5581 0
M  V30 4301 C 399.92 -2.04394 3.80588 0
M  V30 4302 C 399.055 -3.27717 4.18061 0
M  V30 4303 C 398.094 -2.96056 5.3574 0
M  V30 4304 N 397.231 -4.11847 5.68618 0
M  V30 4305 H 402.071 -0.594504 2.9201 0
M  V30 4306 H 399.608 -0.281921 1.44373 0
M  V30 4307 H 401.566 -3.07258 2.82221 0
M  V30 4308 H 400.196 -2.72122 1.73636 0
M  V30 4309 H 399.248 -1.19244 3.61227 0
M  V30 4310 H 400.56 -1.77042 4.66323 0
M  V30 4311 H 399.714 -4.11702 4.4563 0
M  V30 4312 H 398.453 -3.58188 3.30988 0
M  V30 4313 H 397.458 -2.10474 5.07918 0
M  V30 4314 H 398.683 -2.66857 6.24471 0
M  V30 4315 H 396.629 -4.42258 4.84504 0
M  V30 4316 H 396.546 -3.87938 6.48876 0
M  V30 4317 H 397.814 -4.96689 6.00766 0
M  V30 4318 N 402.043 -1.548 -0.295768 0
M  V30 4319 C 403.292 -1.73538 -1.02798 0
M  V30 4320 C 403.605 -0.531159 -1.8825 0
M  V30 4321 O 404.811 -0.600458 -2.64777 0
M  V30 4322 C 403.267 -3.07051 -1.87744 0
M  V30 4323 C 402.875 -4.34968 -1.07269 0
M  V30 4324 C 404.619 -3.35146 -2.60533 0
M  V30 4325 C 402.526 -5.5953 -1.91521 0
M  V30 4326 H 401.456 -0.646794 -0.387522 0
M  V30 4327 H 404.107 -1.81278 -0.284718 0
M  V30 4328 H 402.489 -2.93289 -2.66078 0
M  V30 4329 H 403.663 -4.5958 -0.335117 0
M  V30 4330 H 401.978 -4.13847 -0.460384 0
M  V30 4331 H 404.575 -4.2541 -3.23929 0
M  V30 4332 H 404.918 -2.54255 -3.29636 0
M  V30 4333 H 405.451 -3.49902 -1.89244 0
M  V30 4334 H 402.19 -6.43103 -1.26878 0
M  V30 4335 H 401.71 -5.39096 -2.62937 0
M  V30 4336 H 403.389 -5.96982 -2.49442 0
M  V30 4337 N 403.521 0.559213 -1.47345 0
M  V30 4338 C 404.431 1.69388 -1.62311 0
M  V30 4339 C 405.447 1.6648 -0.505993 0
M  V30 4340 O 406.623 1.85964 -0.773262 0
M  V30 4341 C 403.688 3.05894 -1.63185 0
M  V30 4342 C 402.749 3.19885 -2.86307 0
M  V30 4343 C 401.982 4.49879 -2.87131 0
M  V30 4344 O 402.205 5.35217 -1.97229 0
M  V30 4345 O 401.139 4.67618 -3.78968 0
M  V30 4346 H 404.965 1.59706 -2.58317 0
M  V30 4347 H 402.55 0.728989 -1.30407 0
M  V30 4348 H 404.432 3.87133 -1.66451 0
M  V30 4349 H 403.107 3.15964 -0.70345 0
M  V30 4350 H 402.014 2.38052 -2.88587 0
M  V30 4351 H 403.347 3.14718 -3.78435 0
M  V30 4352 N 404.999 1.35443 0.805782 0
M  V30 4353 C 405.947 1.28465 1.93906 0
M  V30 4354 C 406.941 0.17943 1.68447 0
M  V30 4355 O 408.147 0.345459 1.76654 0
M  V30 4356 H 404.522 0.399528 0.637088 0
M  V30 4357 H 406.493 2.24206 1.96912 0
M  V30 4358 C 405.242 1.07432 3.30687 0
M  V30 4359 H 404.565 1.91716 3.50835 0
M  V30 4360 H 406.005 1.06591 4.10383 0
M  V30 4361 C 404.464 -0.22179 3.36169 0
M  V30 4362 O 404.994 -1.21731 3.82811 0
M  V30 4363 N 403.2 -0.260841 2.89427 0
M  V30 4364 H 402.747 0.549884 2.51663 0
M  V30 4365 H 402.705 -1.12777 2.93477 0
M  V30 4366 N 406.477 -1.02803 1.19454 0
M  V30 4367 C 407.44 -2.09264 0.934955 0
M  V30 4368 C 408.44 -1.60576 -0.0849015 0
M  V30 4369 O 409.63 -1.73554 0.149933 0
M  V30 4370 C 406.762 -3.38482 0.40531 0
M  V30 4371 H 407.955 -2.33726 1.87916 0
M  V30 4372 H 405.508 -1.19426 1.00832 0
M  V30 4373 H 406.243 -3.19689 -0.544899 0
M  V30 4374 H 406.028 -3.75142 1.14065 0
M  V30 4375 H 407.518 -4.16894 0.242806 0
M  V30 4376 N 407.956 -0.998596 -1.21925 0
M  V30 4377 C 408.886 -0.573688 -2.26343 0
M  V30 4378 C 409.867 0.402296 -1.65274 0
M  V30 4379 O 411.052 0.291683 -1.91997 0
M  V30 4380 C 408.182 0.106839 -3.47136 0
M  V30 4381 C 407.136 -0.788269 -4.20678 0
M  V30 4382 C 406.462 0.0254927 -5.34694 0
M  V30 4383 C 407.762 -2.08784 -4.78755 0
M  V30 4384 H 409.456 -1.44651 -2.62138 0
M  V30 4385 H 407.002 -0.696975 -1.26009 0
M  V30 4386 H 408.955 0.415531 -4.19346 0
M  V30 4387 H 407.679 1.01424 -3.10452 0
M  V30 4388 H 406.338 -1.08069 -3.50309 0
M  V30 4389 H 405.986 0.933989 -4.94253 0
M  V30 4390 H 405.686 -0.570437 -5.84825 0
M  V30 4391 H 407.21 0.328147 -6.09718 0
M  V30 4392 H 408.624 -1.84272 -5.42878 0
M  V30 4393 H 407.021 -2.63307 -5.39249 0
M  V30 4394 H 408.091 -2.76284 -3.98491 0
M  V30 4395 N 409.434 1.37368 -0.772513 0
M  V30 4396 C 410.681 1.99673 -0.337182 0
M  V30 4397 C 411.009 1.61324 1.0865 0
M  V30 4398 O 410.264 0.851377 1.7621 0
M  V30 4399 C 410.563 3.54817 -0.428876 0
M  V30 4400 C 410.229 4.12936 -1.81092 0
M  V30 4401 C 408.891 4.28523 -2.1891 0
M  V30 4402 C 411.243 4.44801 -2.71664 0
M  V30 4403 C 408.571 4.73277 -3.46735 0
M  V30 4404 C 410.923 4.90981 -3.98899 0
M  V30 4405 C 409.587 5.04773 -4.36761 0
M  V30 4406 H 408.857 0.730656 -0.123384 0
M  V30 4407 H 411.504 1.64124 -0.986686 0
M  V30 4408 H 409.809 3.90618 0.304167 0
M  V30 4409 H 411.506 4.00933 -0.0733334 0
M  V30 4410 H 408.096 4.01233 -1.50699 0
M  V30 4411 H 412.28 4.32344 -2.43706 0
M  V30 4412 H 407.536 4.82142 -3.75964 0
M  V30 4413 H 411.71 5.14603 -4.69208 0
M  V30 4414 H 409.337 5.39211 -5.35868 0
M  V30 4415 N 410.912 0.523116 1.48665 0
M  V30 4416 C 412.14 -0.0096312 2.06898 0
M  V30 4417 C 412.555 -1.28784 1.38059 0
M  V30 4418 O 411.912 -1.76453 0.465893 0
M  V30 4419 C 411.963 -0.244386 3.60673 0
M  V30 4420 O 411.684 0.983172 4.26925 0
M  V30 4421 C 413.185 -0.818289 4.35682 0
M  V30 4422 H 410.405 0.0304161 0.67031 0
M  V30 4423 H 412.949 0.726799 1.91149 0
M  V30 4424 H 411.104 -0.930847 3.76051 0
M  V30 4425 H 411.518 0.759653 5.1897 0
M  V30 4426 H 412.992 -0.93201 5.44075 0
M  V30 4427 H 413.469 -1.82153 3.99646 0
M  V30 4428 H 414.075 -0.168609 4.24966 0
M  V30 4429 N 412.39 -1.55475 0.257931 0
M  V30 4430 C 413.637 -1.99207 -0.363728 0
M  V30 4431 C 413.965 -1.1462 -1.57139 0
M  V30 4432 O 413.22 -0.199653 -1.94679 0
M  V30 4433 C 413.519 -3.48183 -0.806433 0
M  V30 4434 C 413.185 -4.49936 0.294684 0
M  V30 4435 C 411.847 -4.77481 0.597076 0
M  V30 4436 C 414.199 -5.10769 1.03751 0
M  V30 4437 C 411.527 -5.63132 1.64618 0
M  V30 4438 C 413.879 -5.97558 2.07622 0
M  V30 4439 C 412.543 -6.23432 2.38514 0
M  V30 4440 H 411.813 -0.728949 -0.133097 0
M  V30 4441 H 414.46 -1.8793 0.368059 0
M  V30 4442 H 412.765 -3.56848 -1.61761 0
M  V30 4443 H 414.462 -3.79415 -1.29789 0
M  V30 4444 H 411.052 -4.28572 0.0488649 0
M  V30 4445 H 415.236 -4.89527 0.817149 0
M  V30 4446 H 410.492 -5.8143 1.89074 0
M  V30 4447 H 414.666 -6.43735 2.65666 0
M  V30 4448 H 412.293 -6.89594 3.19943 0
M  V30 4449 N 413.868 0.0150385 -1.57593 0
M  V30 4450 C 415.098 0.713359 -1.93894 0
M  V30 4451 C 415.506 1.68663 -0.857289 0
M  V30 4452 O 414.849 1.82876 0.173788 0
M  V30 4453 C 414.911 1.51348 -3.26089 0
M  V30 4454 C 414.575 0.703451 -4.51554 0
M  V30 4455 C 415.572 -0.00237924 -5.199 0
M  V30 4456 C 413.257 0.653854 -4.98026 0
M  V30 4457 C 415.251 -0.746955 -6.33008 0
M  V30 4458 C 412.938 -0.0944578 -6.11027 0
M  V30 4459 C 413.936 -0.793609 -6.78374 0
M  V30 4460 O 413.624 -1.52974 -7.89211 0
M  V30 4461 H 413.356 0.204637 -0.644282 0
M  V30 4462 H 415.91 -0.0276411 -2.05381 0
M  V30 4463 H 414.14 2.29862 -3.10967 0
M  V30 4464 H 415.829 2.09572 -3.47612 0
M  V30 4465 H 416.595 0.0268803 -4.84993 0
M  V30 4466 H 412.474 1.18756 -4.45441 0
M  V30 4467 H 416.018 -1.2932 -6.85509 0
M  V30 4468 H 411.915 -0.125591 -6.45378 0
M  V30 4469 H 412.683 -1.44488 -8.05646 0
M  V30 4470 N 415.346 1.54954 0.287554 0
M  V30 4471 C 416.276 1.89839 1.35954 0
M  V30 4472 C 417.257 0.758675 1.52244 0
M  V30 4473 O 418.442 1.01557 1.65529 0
M  V30 4474 C 415.572 2.15753 2.72154 0
M  V30 4475 C 414.526 3.3159 2.70614 0
M  V30 4476 C 413.852 3.42952 4.10229 0
M  V30 4477 C 415.152 4.68359 2.31165 0
M  V30 4478 H 416.846 2.79625 1.07007 0
M  V30 4479 H 414.392 1.3454 0.513316 0
M  V30 4480 H 416.345 2.38743 3.47246 0
M  V30 4481 H 415.069 1.22752 3.02654 0
M  V30 4482 H 413.728 3.08545 1.97979 0
M  V30 4483 H 413.376 2.47443 4.37928 0
M  V30 4484 H 413.076 4.20826 4.10097 0
M  V30 4485 H 414.6 3.68218 4.87081 0
M  V30 4486 H 416.014 4.9099 2.95976 0
M  V30 4487 H 414.411 5.49044 2.42221 0
M  V30 4488 H 415.481 4.68165 1.26291 0
M  V30 4489 N 416.824 -0.551391 1.4764 0
M  V30 4490 C 418.235 -1.13349 1.48354 0
M  V30 4491 C 418.586 -1.94709 0.241432 0
M  V30 4492 O 417.711 -2.06306 -0.653205 0
M  V30 4493 C 418.306 -2.0623 2.68802 0
M  V30 4494 C 416.865 -2.597 2.72457 0
M  V30 4495 C 416.012 -1.36201 2.41546 0
M  V30 4496 H 418.963 -0.337698 1.55065 0
M  V30 4497 H 418.984 -2.90196 2.46103 0
M  V30 4498 H 418.496 -1.46987 3.59188 0
M  V30 4499 H 416.597 -3.22724 1.86225 0
M  V30 4500 H 416.71 -3.00296 3.73308 0
M  V30 4501 H 415.074 -1.67068 1.9225 0
M  V30 4502 H 415.857 -0.787425 3.34147 0
M  V30 4503 N 418.302 -1.35869 -0.798587 0
M  V30 4504 C 419.548 -1.2978 -1.55836 0
M  V30 4505 C 419.881 0.125322 -1.93795 0
M  V30 4506 O 419.156 1.07658 -1.61987 0
M  V30 4507 C 419.439 -2.21188 -2.84162 0
M  V30 4508 C 419.292 -3.72155 -2.52628 0
M  V30 4509 C 420.611 -2.11545 -3.85923 0
M  V30 4510 H 417.73 -0.472769 -0.565383 0
M  V30 4511 H 420.372 -1.66341 -0.918192 0
M  V30 4512 H 418.522 -1.90139 -3.38791 0
M  V30 4513 H 420.194 -4.13682 -2.04121 0
M  V30 4514 H 418.437 -3.92042 -1.85704 0
M  V30 4515 H 419.108 -4.31511 -3.44242 0
M  V30 4516 H 421.584 -2.38855 -3.40716 0
M  V30 4517 H 420.46 -2.77688 -4.73477 0
M  V30 4518 H 420.721 -1.09987 -4.282 0
M  V30 4519 N 419.78 1.02168 -1.19998 0
M  V30 4520 C 420.73 2.08969 -0.911921 0
M  V30 4521 C 421.714 1.60404 0.12621 0
M  V30 4522 O 422.906 1.76817 -0.0804706 0
M  V30 4523 C 420.035 3.402 -0.460277 0
M  V30 4524 C 419.121 3.9548 -1.53155 0
M  V30 4525 N 419.512 4.24332 -2.75275 0
M  V30 4526 C 417.81 4.23572 -1.39653 0
M  V30 4527 C 418.511 4.68834 -3.44339 0
M  V30 4528 N 417.487 4.70804 -2.71744 0
M  V30 4529 H 421.289 2.29178 -1.83997 0
M  V30 4530 H 418.803 1.20094 -1.09322 0
M  V30 4531 H 420.8 4.16235 -0.235337 0
M  V30 4532 H 419.46 3.21408 0.4612 0
M  V30 4533 H 420.471 4.13393 -3.11973 0
M  V30 4534 H 417.148 4.14005 -0.539067 0
M  V30 4535 H 418.538 5.00019 -4.4881 0
M  V30 4536 N 421.258 1.00505 1.21394 0
M  V30 4537 C 422.535 0.603277 1.86064 0
M  V30 4538 C 422.915 -0.919095 1.90042 0
M  V30 4539 O 422.263 -1.80607 1.39977 0
M  V30 4540 C 422.473 1.23772 3.26315 0
M  V30 4541 C 423.821 1.34586 4.02705 0
M  V30 4542 O 424.845 1.19304 3.35626 0
M  V30 4543 O 423.704 1.59169 5.22807 0
M  V30 4544 H 420.798 0.206634 0.800769 0
M  V30 4545 H 423.344 1.1017 1.29076 0
M  V30 4546 H 422.116 2.27848 3.18121 0
M  V30 4547 H 421.739 0.725648 3.90922 0
M  V30 4548 N 422.737 -1.36956 0.779787 0
M  V30 4549 C 423.684 -2.30175 0.169697 0
M  V30 4550 C 424.654 -1.51501 -0.68094 0
M  V30 4551 O 425.839 -1.80042 -0.631629 0
M  V30 4552 C 422.979 -3.37985 -0.697131 0
M  V30 4553 C 422.092 -4.31661 0.170992 0
M  V30 4554 C 421.227 -5.2655 -0.701298 0
M  V30 4555 C 420.266 -6.11867 0.168869 0
M  V30 4556 N 419.403 -6.98973 -0.661855 0
M  V30 4557 H 424.243 -2.81767 0.970135 0
M  V30 4558 H 421.78 -1.38699 0.489994 0
M  V30 4559 H 423.738 -3.99128 -1.2146 0
M  V30 4560 H 422.368 -2.87739 -1.46309 0
M  V30 4561 H 421.42 -3.71756 0.80634 0
M  V30 4562 H 422.732 -4.91644 0.841875 0
M  V30 4563 H 421.886 -5.92937 -1.28494 0
M  V30 4564 H 420.625 -4.66998 -1.40584 0
M  V30 4565 H 419.63 -5.44452 0.764986 0
M  V30 4566 H 420.855 -6.73493 0.870863 0
M  V30 4567 H 418.801 -6.41941 -1.35086 0
M  V30 4568 H 418.718 -7.55984 -0.0484447 0
M  V30 4569 H 419.986 -7.6974 -1.22963 0
M  V30 4570 N 424.215 -0.530993 -1.48385 0
M  V30 4571 C 425.165 0.251092 -2.26613 0
M  V30 4572 C 426.149 0.908977 -1.32765 0
M  V30 4573 O 427.341 0.811616 -1.57295 0
M  V30 4574 C 424.47 1.29677 -3.17866 0
M  V30 4575 C 423.556 0.643627 -4.19188 0
M  V30 4576 N 423.947 -0.271223 -5.05072 0
M  V30 4577 C 422.245 0.900711 -4.3681 0
M  V30 4578 C 422.946 -0.648109 -5.78078 0
M  V30 4579 N 421.922 -0.00895987 -5.43599 0
M  V30 4580 H 425.724 -0.452702 -2.90393 0
M  V30 4581 H 423.238 -0.349091 -1.58604 0
M  V30 4582 H 425.235 1.87079 -3.72568 0
M  V30 4583 H 423.895 2.00193 -2.55642 0
M  V30 4584 H 424.906 -0.643883 -5.13882 0
M  V30 4585 H 421.583 1.59636 -3.85775 0
M  V30 4586 H 422.973 -1.39833 -6.57188 0
M  V30 4587 N 425.693 1.55336 -0.266172 0
M  V30 4588 C 426.921 2.03801 0.356756 0
M  V30 4589 C 427.336 1.14485 1.50129 0
M  V30 4590 O 426.693 0.163121 1.8177 0
M  V30 4591 C 426.744 3.51455 0.846281 0
M  V30 4592 O 426.465 4.37371 -0.252663 0
M  V30 4593 C 427.966 4.15767 1.53794 0
M  V30 4594 H 425.186 0.665906 0.0825218 0
M  V30 4595 H 427.73 2.00636 -0.39566 0
M  V30 4596 H 425.885 3.55092 1.54881 0
M  V30 4597 H 426.299 5.24358 0.122173 0
M  V30 4598 H 427.773 5.20714 1.83198 0
M  V30 4599 H 428.25 3.63404 2.46646 0
M  V30 4600 H 428.856 4.16107 0.879488 0
M  V30 4601 N 427.171 -0.0066808 1.57599 0
M  V30 4602 C 428.419 -0.691552 1.899 0
M  V30 4603 C 428.74 -1.74682 0.866672 0
M  V30 4604 O 428.01 -1.95661 -0.0968189 0
M  V30 4605 H 426.59 -0.258416 0.700878 0
M  V30 4606 H 429.252 0.0326655 1.94873 0
M  V30 4607 H 428.348 -1.16702 2.8946 0
M  V30 4608 N 428.649 -1.55105 -0.279332 0
M  V30 4609 C 429.896 -1.75412 -1.01177 0
M  V30 4610 C 430.224 -0.551728 -1.86511 0
M  V30 4611 O 429.479 0.465919 -1.90073 0
M  V30 4612 C 429.778 -3.0086 -1.92919 0
M  V30 4613 C 429.444 -4.33689 -1.23387 0
M  V30 4614 C 428.106 -4.69792 -1.04159 0
M  V30 4615 C 430.458 -5.15941 -0.738562 0
M  V30 4616 C 427.786 -5.85707 -0.341166 0
M  V30 4617 C 430.138 -6.32579 -0.0517636 0
M  V30 4618 C 428.802 -6.67326 0.152292 0
M  V30 4619 H 428.072 -0.641879 -0.370233 0
M  V30 4620 H 430.719 -1.89373 -0.284627 0
M  V30 4621 H 429.024 -2.81773 -2.72234 0
M  V30 4622 H 430.721 -3.13768 -2.49701 0
M  V30 4623 H 427.311 -4.05309 -1.39364 0
M  V30 4624 H 431.495 -4.8853 -0.874764 0
M  V30 4625 H 426.751 -6.11157 -0.172287 0
M  V30 4626 H 430.925 -6.9557 0.339828 0
M  V30 4627 H 428.552 -7.56998 0.697014 0
M  V30 4628 N 430.127 0.543554 -1.4793 0
M  V30 4629 C 431.057 1.65888 -1.64327 0
M  V30 4630 C 432.038 1.62818 -0.492383 0
M  V30 4631 O 433.223 1.80226 -0.723338 0
M  V30 4632 C 430.353 3.04506 -1.67013 0
M  V30 4633 C 429.307 3.2243 -2.81466 0
M  V30 4634 C 428.633 4.61972 -2.69233 0
M  V30 4635 C 429.933 3.06496 -4.22915 0
M  V30 4636 H 431.627 1.52421 -2.57698 0
M  V30 4637 H 429.173 0.731849 -1.24016 0
M  V30 4638 H 431.126 3.82391 -1.77074 0
M  V30 4639 H 429.85 3.18964 -0.70212 0
M  V30 4640 H 428.509 2.46957 -2.70938 0
M  V30 4641 H 428.157 4.73247 -1.7043 0
M  V30 4642 H 427.857 4.74911 -3.46025 0
M  V30 4643 H 429.381 5.41974 -2.81242 0
M  V30 4644 H 430.795 3.74186 -4.34348 0
M  V30 4645 H 429.192 3.30938 -5.006 0
M  V30 4646 H 430.262 2.03077 -4.40327 0
M  V30 4647 N 431.605 1.3629 0.791371 0
M  V30 4648 C 432.833 1.33562 1.58016 0
M  V30 4649 C 433.248 -0.0835616 1.88615 0
M  V30 4650 O 432.605 -1.0399 1.49974 0
M  V30 4651 C 432.656 2.15517 2.90232 0
M  V30 4652 O 432.377 3.51902 2.60953 0
M  V30 4653 C 433.878 2.20546 3.84544 0
M  V30 4654 H 431.098 0.458226 0.490173 0
M  V30 4655 H 433.642 1.79361 0.982345 0
M  V30 4656 H 431.797 1.73278 3.46487 0
M  V30 4657 H 432.211 3.94644 3.4548 0
M  V30 4658 H 433.685 2.82252 4.74382 0
M  V30 4659 H 434.162 1.20838 4.2225 0
M  V30 4660 H 434.768 2.63013 3.34222 0
M  V30 4661 N 433.083 -1.0153 1.20538 0
M  V30 4662 C 434.332 -1.74558 1.01057 0
M  V30 4663 C 434.645 -1.90168 -0.457756 0
M  V30 4664 O 435.851 -2.60301 -0.771722 0
M  V30 4665 C 434.307 -3.13963 1.75941 0
M  V30 4666 C 433.915 -3.06361 3.26875 0
M  V30 4667 C 435.659 -3.91191 1.64832 0
M  V30 4668 C 433.566 -4.40782 3.94291 0
M  V30 4669 H 432.496 -0.654417 0.374505 0
M  V30 4670 H 435.147 -1.13521 1.44171 0
M  V30 4671 H 433.529 -3.75549 1.25614 0
M  V30 4672 H 434.703 -2.54074 3.84425 0
M  V30 4673 H 433.018 -2.42625 3.38411 0
M  V30 4674 H 435.615 -4.90644 2.12539 0
M  V30 4675 H 435.958 -4.11884 0.604745 0
M  V30 4676 H 436.491 -3.36236 2.12579 0
M  V30 4677 H 433.23 -4.25292 4.98805 0
M  V30 4678 H 432.75 -4.9307 3.41529 0
M  V30 4679 H 434.429 -5.09621 3.98617 0
M  V30 4680 N 434.561 -1.01147 -1.20859 0
M  V30 4681 C 435.809 -0.696486 -1.89719 0
M  V30 4682 C 436.13 0.775788 -1.78904 0
M  V30 4683 O 435.4 1.55759 -1.18811 0
M  V30 4684 H 433.98 -0.254628 -0.702263 0
M  V30 4685 H 436.642 -1.28197 -1.46804 0
M  V30 4686 H 435.738 -0.975357 -2.96468 0
M  V30 4687 N 436.039 1.36541 -0.78704 0
M  V30 4688 C 437.287 1.98911 -0.357633 0
M  V30 4689 C 437.608 1.62778 1.07371 0
M  V30 4690 O 436.878 0.900612 1.73971 0
M  V30 4691 H 435.458 0.735734 -0.129246 0
M  V30 4692 H 438.12 1.66776 -1.00855 0
M  V30 4693 H 437.216 3.08874 -0.447549 0
M  V30 4694 N 437.518 0.538854 1.48102 0
M  V30 4695 C 438.767 0.0059532 2.01699 0
M  V30 4696 C 439.08 -1.34476 1.42041 0
M  V30 4697 O 440.286 -1.96653 1.87189 0
M  V30 4698 C 438.742 -0.0397627 3.59878 0
M  V30 4699 C 438.35 1.30659 4.28523 0
M  V30 4700 C 440.094 -0.521024 4.2129 0
M  V30 4701 C 438.001 1.22098 5.78659 0
M  V30 4702 H 436.931 -0.00154456 0.753998 0
M  V30 4703 H 439.582 0.683963 1.70277 0
M  V30 4704 H 437.964 -0.783037 3.88181 0
M  V30 4705 H 439.138 2.06613 4.11883 0
M  V30 4706 H 437.453 1.7243 3.79021 0
M  V30 4707 H 440.05 -0.603184 5.31287 0
M  V30 4708 H 440.393 -1.52885 3.8721 0
M  V30 4709 H 440.926 0.166834 3.9745 0
M  V30 4710 H 437.665 2.20424 6.17328 0
M  V30 4711 H 437.185 0.50295 5.97688 0
M  V30 4712 H 438.864 0.915345 6.40492 0
M  V30 4713 N 438.996 -1.55193 0.274407 0
M  V30 4714 C 439.906 -2.26164 -0.623473 0
M  V30 4715 C 440.922 -1.28729 -1.17068 0
M  V30 4716 O 442.098 -1.61663 -1.20112 0
M  V30 4717 C 439.163 -2.96833 -1.7914 0
M  V30 4718 C 438.224 -4.09745 -1.28093 0
M  V30 4719 C 437.457 -4.77034 -2.3932 0
M  V30 4720 O 437.68 -4.4353 -3.5866 0
M  V30 4721 O 436.614 -5.64996 -2.07516 0
M  V30 4722 H 440.44 -3.03661 -0.0485661 0
M  V30 4723 H 438.025 -1.49341 0.0418382 0
M  V30 4724 H 439.907 -3.41248 -2.4724 0
M  V30 4725 H 438.582 -2.22253 -2.35341 0
M  V30 4726 H 437.489 -3.69787 -0.566416 0
M  V30 4727 H 438.822 -4.86224 -0.764683 0
M  V30 4728 N 440.474 -0.00167713 -1.576 0
M  V30 4729 C 441.384 1.00548 -2.1196 0
M  V30 4730 C 442.4 1.3758 -1.06526 0
M  V30 4731 O 443.576 1.46278 -1.38436 0
M  V30 4732 C 440.641 2.27809 -2.6135 0
M  V30 4733 C 439.702 1.97074 -3.81393 0
M  V30 4734 C 438.935 3.18267 -4.28417 0
M  V30 4735 O 439.158 4.30009 -3.74765 0
M  V30 4736 O 438.092 3.02167 -5.20556 0
M  V30 4737 H 441.918 0.573373 -2.98238 0
M  V30 4738 H 439.503 0.217255 -1.47812 0
M  V30 4739 H 441.385 3.02568 -2.93309 0
M  V30 4740 H 440.06 2.70254 -1.78169 0
M  V30 4741 H 438.967 1.19785 -3.54404 0
M  V30 4742 H 440.3 1.59464 -4.65652 0
M  V30 4743 N 441.952 1.55251 0.271103 0
M  V30 4744 C 443.368 1.47133 0.618393 0
M  V30 4745 C 443.568 0.686994 1.89427 0
M  V30 4746 O 442.624 0.206609 2.51653 0
M  V30 4747 C 443.937 2.91361 0.743593 0
M  V30 4748 C 445.485 3.01587 0.837522 0
M  V30 4749 C 445.96 4.47073 0.994483 0
M  V30 4750 N 447.451 4.50909 1.05996 0
M  V30 4751 C 448.186 5.60698 1.20024 0
M  V30 4752 N 447.682 6.80348 1.30759 0
M  V30 4753 N 449.475 5.48444 1.23149 0
M  V30 4754 H 441.626 2.04698 -0.566784 0
M  V30 4755 H 443.889 0.928319 -0.192165 0
M  V30 4756 H 443.595 3.51483 -0.123493 0
M  V30 4757 H 443.469 3.40484 1.62328 0
M  V30 4758 H 445.856 2.4156 1.69507 0
M  V30 4759 H 445.937 2.55713 -0.0668086 0
M  V30 4760 H 445.581 5.07703 0.141582 0
M  V30 4761 H 445.511 4.90605 1.91349 0
M  V30 4762 H 448.002 3.6472 0.989316 0
M  V30 4763 H 448.315 7.59772 1.41303 0
M  V30 4764 H 446.66 6.83156 1.27761 0
M  V30 4765 H 449.851 4.53907 1.14394 0
M  V30 4766 H 450.024 6.34049 1.33738 0
M  V30 4767 N 443.43 -0.535701 1.48216 0
M  V30 4768 C 444.677 -1.29183 1.55942 0
M  V30 4769 C 445.005 -1.93125 0.230857 0
M  V30 4770 O 444.26 -1.79556 -0.778331 0
M  V30 4771 C 444.559 -2.4068 2.64212 0
M  V30 4772 C 444.225 -1.94428 4.06827 0
M  V30 4773 C 442.887 -1.81532 4.45645 0
M  V30 4774 C 445.239 -1.59405 4.96225 0
M  V30 4775 C 442.567 -1.31939 5.71672 0
M  V30 4776 C 444.919 -1.11276 6.22736 0
M  V30 4777 C 443.583 -0.969924 6.60416 0
M  V30 4778 H 442.853 -0.472715 0.570632 0
M  V30 4779 H 445.5 -0.598437 1.81909 0
M  V30 4780 H 443.805 -3.15666 2.32083 0
M  V30 4781 H 445.502 -2.98822 2.67407 0
M  V30 4782 H 442.092 -2.05415 3.76168 0
M  V30 4783 H 446.276 -1.68231 4.66917 0
M  V30 4784 H 441.532 -1.19562 5.99596 0
M  V30 4785 H 445.706 -0.832453 6.91407 0
M  V30 4786 H 443.333 -0.583436 7.57958 0
M  V30 4787 N 444.908 -1.36708 -0.784132 0
M  V30 4788 C 446.138 -1.34203 -1.57077 0
M  V30 4789 C 446.546 0.0774945 -1.89041 0
M  V30 4790 O 445.889 1.04628 -1.50992 0
M  V30 4791 C 445.951 -2.10351 -2.91535 0
M  V30 4792 C 445.615 -3.59405 -2.82272 0
M  V30 4793 C 446.612 -4.53545 -2.54151 0
M  V30 4794 C 444.297 -4.02362 -3.00683 0
M  V30 4795 C 446.291 -5.8862 -2.44551 0
M  V30 4796 C 443.978 -5.37526 -2.90704 0
M  V30 4797 C 444.976 -6.30468 -2.62677 0
M  V30 4798 O 444.664 -7.63149 -2.52702 0
M  V30 4799 H 444.396 -0.461791 -0.493685 0
M  V30 4800 H 446.95 -1.80475 -0.980712 0
M  V30 4801 H 445.18 -1.5875 -3.52612 0
M  V30 4802 H 446.869 -2.00636 -3.52845 0
M  V30 4803 H 447.635 -4.21669 -2.39625 0
M  V30 4804 H 443.514 -3.30389 -3.21503 0
M  V30 4805 H 447.058 -6.61133 -2.22596 0
M  V30 4806 H 442.955 -5.69008 -3.04795 0
M  V30 4807 H 443.723 -7.73331 -2.68144 0
M  V30 4808 N 446.386 1.0089 -1.21074 0
M  V30 4809 C 447.296 2.13039 -0.982425 0
M  V30 4810 C 448.312 1.73881 0.0642161 0
M  V30 4811 O 449.488 2.01012 -0.12496 0
M  V30 4812 C 446.553 3.42377 -0.545803 0
M  V30 4813 C 445.614 3.95731 -1.6642 0
M  V30 4814 C 444.847 5.18896 -1.24832 0
M  V30 4815 O 445.07 5.70273 -0.120265 0
M  V30 4816 O 444.004 5.65597 -2.05873 0
M  V30 4817 H 447.83 2.35175 -1.92163 0
M  V30 4818 H 445.415 1.1142 -0.995285 0
M  V30 4819 H 447.297 4.20244 -0.311912 0
M  V30 4820 H 445.972 3.21639 0.364727 0
M  V30 4821 H 444.879 3.19108 -1.95246 0
M  V30 4822 H 446.212 4.20872 -2.55201 0
M  V30 4823 N 447.864 1.01787 1.20321 0
M  V30 4824 C 449.112 0.706538 1.89347 0
M  V30 4825 C 449.433 -0.766289 1.79313 0
M  V30 4826 O 448.703 -1.55126 1.19635 0
M  V30 4827 H 447.283 0.258348 0.700903 0
M  V30 4828 H 449.945 1.28974 1.46122 0
M  V30 4829 H 449.041 0.991066 2.95946 0
M  V30 4830 N 449.342 -1.36122 0.79427 0
M  V30 4831 C 450.753 -1.81646 0.431446 0
M  V30 4832 C 451.104 -1.66043 -1.04518 0
M  V30 4833 O 450.229 -1.1841 -1.8113 0
M  V30 4834 C 450.824 -3.29785 0.776341 0
M  V30 4835 C 449.383 -3.73501 0.466282 0
M  V30 4836 C 448.53 -2.58313 1.00844 0
M  V30 4837 H 451.481 -1.24274 0.986995 0
M  V30 4838 H 451.502 -3.80437 0.0692413 0
M  V30 4839 H 451.014 -3.4111 1.8511 0
M  V30 4840 H 449.115 -3.67733 -0.600245 0
M  V30 4841 H 449.228 -4.68754 0.990288 0
M  V30 4842 H 447.592 -2.5102 0.431406 0
M  V30 4843 H 448.375 -2.72421 2.08906 0
M  V30 4844 N 450.82 -0.546701 -1.47814 0
M  V30 4845 C 451.75 0.195317 -2.32682 0
M  V30 4846 C 452.731 0.918981 -1.43139 0
M  V30 4847 O 453.916 0.901501 -1.72008 0
M  V30 4848 C 451.046 1.23237 -3.247 0
M  V30 4849 C 450 0.625818 -4.234 0
M  V30 4850 C 449.326 1.76674 -5.04669 0
M  V30 4851 C 450.626 -0.413515 -5.2066 0
M  V30 4852 H 452.32 -0.513184 -2.94969 0
M  V30 4853 H 449.866 -0.248241 -1.41844 0
M  V30 4854 H 451.819 1.75955 -3.82907 0
M  V30 4855 H 450.543 1.97067 -2.60446 0
M  V30 4856 H 449.202 0.120023 -3.66403 0
M  V30 4857 H 448.85 2.49383 -4.36826 0
M  V30 4858 H 448.55 1.36673 -5.71484 0
M  V30 4859 H 450.074 2.29738 -5.65732 0
M  V30 4860 H 451.488 0.0272042 -5.73294 0
M  V30 4861 H 449.885 -0.731825 -5.95621 0
M  V30 4862 H 450.955 -1.31325 -4.66778 0
M  V30 4863 N 452.299 1.55045 -0.282633 0
M  V30 4864 C 453.527 2.04168 0.33512 0
M  V30 4865 C 453.942 1.16071 1.48906 0
M  V30 4866 O 453.299 0.182391 1.81586 0
M  V30 4867 C 453.35 3.52332 0.808957 0
M  V30 4868 O 453.071 4.37078 -0.299038 0
M  V30 4869 C 454.572 4.17375 1.49375 0
M  V30 4870 H 451.792 0.666744 0.0754543 0
M  V30 4871 H 454.336 2.00205 -0.416918 0
M  V30 4872 H 452.491 3.56715 1.51106 0
M  V30 4873 H 452.905 5.24458 0.0665514 0
M  V30 4874 H 454.379 5.22627 1.77664 0
M  V30 4875 H 454.856 3.65999 2.42778 0
M  V30 4876 H 455.462 4.17016 0.835305 0
M  V30 4877 N 453.777 0.010035 1.57597 0
M  V30 4878 C 455.007 -0.682422 1.95004 0
M  V30 4879 C 455.415 -1.67278 0.884014 0
M  V30 4880 O 454.758 -1.83129 -0.144672 0
M  V30 4881 C 454.82 -1.46141 3.28456 0
M  V30 4882 C 454.484 -0.631523 4.52615 0
M  V30 4883 C 455.481 0.0850905 5.1983 0
M  V30 4884 C 453.166 -0.574539 4.99003 0
M  V30 4885 C 455.16 0.847566 6.3174 0
M  V30 4886 C 452.847 0.191655 6.10799 0
M  V30 4887 C 453.845 0.901432 6.77025 0
M  V30 4888 O 453.533 1.65511 7.86677 0
M  V30 4889 H 453.265 -0.194361 0.647456 0
M  V30 4890 H 455.819 0.060312 2.05311 0
M  V30 4891 H 454.049 -2.24885 3.14585 0
M  V30 4892 H 455.738 -2.04016 3.50902 0
M  V30 4893 H 456.504 0.0502812 4.84974 0
M  V30 4894 H 452.383 -1.11654 4.47274 0
M  V30 4895 H 455.927 1.4021 6.83364 0
M  V30 4896 H 451.824 0.228249 6.45096 0
M  V30 4897 H 452.592 1.57287 8.03245 0
M  V30 4898 N 455.255 -1.55392 -0.262866 0
M  V30 4899 C 456.165 -1.92077 -1.34698 0
M  V30 4900 C 457.181 -0.819227 -1.53508 0
M  V30 4901 O 458.357 -1.11921 -1.67439 0
M  V30 4902 C 455.422 -2.19407 -2.68443 0
M  V30 4903 C 454.483 -3.42905 -2.58292 0
M  V30 4904 C 453.716 -3.68921 -3.85659 0
M  V30 4905 O 453.939 -2.97275 -4.8681 0
M  V30 4906 O 452.873 -4.62455 -3.85252 0
M  V30 4907 H 456.699 -2.84384 -1.06581 0
M  V30 4908 H 454.284 -1.42069 -0.462264 0
M  V30 4909 H 456.166 -2.38365 -3.47506 0
M  V30 4910 H 454.841 -1.30282 -2.96325 0
M  V30 4911 H 453.748 -3.29272 -1.7757 0
M  V30 4912 H 455.081 -4.32282 -2.35358 0
M  V30 4913 N 456.733 0.527833 -1.48498 0
M  V30 4914 C 457.68 1.6322 -1.6318 0
M  V30 4915 C 458.65 1.59199 -0.473815 0
M  V30 4916 O 459.835 1.77591 -0.697563 0
M  V30 4917 C 456.975 3.01474 -1.67951 0
M  V30 4918 C 456.088 3.15713 -2.94871 0
M  V30 4919 C 455.223 4.44539 -2.90789 0
M  V30 4920 C 454.262 4.52315 -4.12404 0
M  V30 4921 N 453.399 5.72533 -4.06387 0
M  V30 4922 H 458.239 1.50011 -2.57489 0
M  V30 4923 H 455.776 0.730298 -1.27691 0
M  V30 4924 H 457.734 3.81572 -1.68698 0
M  V30 4925 H 456.364 3.1345 -0.771306 0
M  V30 4926 H 455.416 2.28854 -3.03859 0
M  V30 4927 H 456.728 3.1732 -3.8485 0
M  V30 4928 H 455.882 5.3293 -2.89949 0
M  V30 4929 H 454.621 4.45457 -1.98542 0
M  V30 4930 H 453.626 3.62331 -4.13517 0
M  V30 4931 H 454.851 4.53134 -5.05812 0
M  V30 4932 H 452.797 5.74344 -3.16962 0
M  V30 4933 H 452.714 5.75643 -4.90073 0
M  V30 4934 H 453.982 6.63204 -4.0961 0
M  V30 4935 N 458.211 1.37122 0.776871 0
M  V30 4936 C 459.141 1.35164 1.90402 0
M  V30 4937 C 460.122 0.221069 1.68657 0
M  V30 4938 O 461.307 0.420642 1.8959 0
M  V30 4939 C 458.437 1.15274 3.27611 0
M  V30 4940 C 457.391 2.25289 3.63908 0
M  V30 4941 C 456.717 1.90527 4.99603 0
M  V30 4942 C 458.017 3.67446 3.71188 0
M  V30 4943 H 459.711 2.29482 1.92297 0
M  V30 4944 H 457.257 1.10465 0.923773 0
M  V30 4945 H 459.21 1.12536 4.06096 0
M  V30 4946 H 457.934 0.174102 3.26136 0
M  V30 4947 H 456.593 2.27174 2.87728 0
M  V30 4948 H 456.241 0.91206 4.94662 0
M  V30 4949 H 455.941 2.64193 5.24858 0
M  V30 4950 H 457.465 1.89367 5.80493 0
M  V30 4951 H 458.879 3.67719 4.39836 0
M  V30 4952 H 457.276 4.40123 4.07936 0
M  V30 4953 H 458.346 4.01443 2.71977 0
M  V30 4954 N 459.689 -1.00246 1.21608 0
M  V30 4955 C 460.637 -2.11193 0.97469 0
M  V30 4956 C 461.631 -1.69216 -0.0789303 0
M  V30 4957 O 462.837 -1.79853 0.0726806 0
M  V30 4958 H 459.212 -0.690455 0.297953 0
M  V30 4959 H 461.183 -2.2873 1.91638 0
M  V30 4960 C 459.932 -3.43182 0.558717 0
M  V30 4961 H 459.255 -3.75918 1.3611 0
M  V30 4962 H 460.695 -4.21823 0.429154 0
M  V30 4963 C 459.154 -3.28882 -0.730648 0
M  V30 4964 O 459.684 -3.59835 -1.78554 0
M  V30 4965 N 457.89 -2.8209 -0.698131 0
M  V30 4966 H 457.437 -2.57099 0.16061 0
M  V30 4967 H 457.395 -2.72903 -1.56113 0
M  V30 4968 N 461.167 -1.02423 -1.1978 0
M  V30 4969 C 462.117 -0.571689 -2.20716 0
M  V30 4970 C 463.101 0.377077 -1.56419 0
M  V30 4971 O 464.293 0.198801 -1.7588 0
M  V30 4972 C 461.422 0.0808555 -3.43205 0
M  V30 4973 C 460.508 -0.890073 -4.14655 0
M  V30 4974 N 460.899 -2.05065 -4.62366 0
M  V30 4975 C 459.197 -0.71252 -4.40272 0
M  V30 4976 C 459.898 -2.66264 -5.17183 0
M  V30 4977 N 458.874 -1.94264 -5.07703 0
M  V30 4978 H 462.676 -1.45636 -2.55279 0
M  V30 4979 H 460.19 -0.890596 -1.35802 0
M  V30 4980 H 462.187 0.422654 -4.14752 0
M  V30 4981 H 460.847 0.961274 -3.10144 0
M  V30 4982 H 461.858 -2.43026 -4.57339 0
M  V30 4983 H 458.535 0.119199 -4.1733 0
M  V30 4984 H 459.925 -3.64526 -5.64421 0
M  V30 4985 N 462.645 1.35699 -0.801477 0
M  V30 4986 C 463.922 1.9324 -0.302937 0
M  V30 4987 C 464.302 1.73209 1.20672 0
M  V30 4988 O 463.65 1.09809 2.00385 0
M  V30 4989 C 463.86 3.41728 -0.708747 0
M  V30 4990 C 465.208 4.18868 -0.695328 0
M  V30 4991 O 466.232 3.5022 -0.649971 0
M  V30 4992 O 465.091 5.41342 -0.749081 0
M  V30 4993 H 462.185 0.82331 -0.0780367 0
M  V30 4994 H 464.731 1.44806 -0.884832 0
M  V30 4995 H 463.503 3.50015 -1.74944 0
M  V30 4996 H 463.126 3.97471 -0.101384 0
M  V30 4997 N 464.123 0.554532 1.47522 0
M  V30 4998 C 465.053 -0.182974 2.32782 0
M  V30 4999 C 466.034 -0.911377 1.43624 0
M  V30 5000 O 467.219 -0.892366 1.72483 0
M  V30 5001 C 464.349 -1.21513 3.25349 0
M  V30 5002 C 463.303 -0.603355 4.23726 0
M  V30 5003 C 462.629 -1.73995 5.05598 0
M  V30 5004 C 463.929 0.441121 5.20434 0
M  V30 5005 H 465.623 0.52882 2.94693 0
M  V30 5006 H 463.169 0.255759 1.41711 0
M  V30 5007 H 465.122 -1.73922 3.83835 0
M  V30 5008 H 463.846 -1.95683 2.61487 0
M  V30 5009 H 462.505 -0.10059 3.66462 0
M  V30 5010 H 462.153 -2.47063 4.38143 0
M  V30 5011 H 461.853 -1.3364 5.72201 0
M  V30 5012 H 463.377 -2.26735 5.66942 0
M  V30 5013 H 464.791 0.00319931 5.733 0
M  V30 5014 H 463.188 0.763402 5.95224 0
M  V30 5015 H 464.258 1.33799 4.66075 0
M  V30 5016 N 465.601 -1.54893 0.290851 0
M  V30 5017 C 466.831 -2.04047 -0.323818 0
M  V30 5018 C 467.239 -1.16809 -1.48837 0
M  V30 5019 O 466.582 -0.184145 -1.82775 0
M  V30 5020 C 466.644 -3.49248 -0.852395 0
M  V30 5021 C 466.308 -4.56623 0.185557 0
M  V30 5022 C 467.305 -5.09985 1.01053 0
M  V30 5023 C 464.99 -5.01252 0.324332 0
M  V30 5024 C 466.984 -6.06507 1.96031 0
M  V30 5025 C 464.671 -5.97596 1.27757 0
M  V30 5026 C 465.669 -6.50107 2.09405 0
M  V30 5027 O 465.357 -7.44565 3.03114 0
M  V30 5028 H 465.089 -0.671735 -0.0758129 0
M  V30 5029 H 467.643 -2.00947 0.425393 0
M  V30 5030 H 465.873 -3.49639 -1.65195 0
M  V30 5031 H 467.562 -3.81654 -1.38185 0
M  V30 5032 H 468.328 -4.76307 0.914129 0
M  V30 5033 H 464.207 -4.60015 -0.301213 0
M  V30 5034 H 467.751 -6.47418 2.598 0
M  V30 5035 H 463.648 -6.30691 1.37473 0
M  V30 5036 H 464.416 -7.62334 2.97976 0
M  V30 5037 N 467.08 -0.0183926 -1.57589 0
M  V30 5038 C 468.326 0.657813 -1.92469 0
M  V30 5039 C 468.681 1.70349 -0.894375 0
M  V30 5040 O 467.974 1.91384 0.0910389 0
M  V30 5041 C 468.168 1.32676 -3.31861 0
M  V30 5042 C 467.997 0.347403 -4.48356 0
M  V30 5043 C 466.767 -0.0488653 -5.05276 0
M  V30 5044 C 468.965 -0.393931 -5.12789 0
M  V30 5045 N 466.947 -1.02451 -6.05291 0
M  V30 5046 C 468.318 -1.22367 -6.07804 0
M  V30 5047 C 470.373 -0.455789 -4.95809 0
M  V30 5048 C 469.076 -2.10966 -6.87667 0
M  V30 5049 C 471.102 -1.32908 -5.76272 0
M  V30 5050 C 470.464 -2.14662 -6.70894 0
M  V30 5051 H 466.563 0.21335 -0.752334 0
M  V30 5052 H 469.147 -0.0830547 -1.94523 0
M  V30 5053 H 467.318 2.03782 -3.30647 0
M  V30 5054 H 469.05 1.95913 -3.54119 0
M  V30 5055 H 465.805 0.323356 -4.72495 0
M  V30 5056 H 466.229 -1.50826 -6.59985 0
M  V30 5057 H 470.871 0.162017 -4.22489 0
M  V30 5058 H 468.589 -2.73807 -7.603 0
M  V30 5059 H 472.175 -1.38109 -5.6517 0
M  V30 5060 H 471.055 -2.81143 -7.32071 0
M  V30 5061 N 468.558 1.5553 0.254621 0
M  V30 5062 C 469.49 1.86104 1.33783 0
M  V30 5063 C 470.503 0.746752 1.44663 0
M  V30 5064 O 471.692 1.0248 1.46151 0
M  V30 5065 C 468.792 2.02532 2.71724 0
M  V30 5066 C 467.965 3.33335 2.83208 0
M  V30 5067 C 467.024 3.396 4.01943 0
M  V30 5068 O 466.05 4.12862 3.91834 0
M  V30 5069 N 467.252 2.68332 5.1476 0
M  V30 5070 H 470.017 2.79605 1.07893 0
M  V30 5071 H 467.578 1.55672 0.444732 0
M  V30 5072 H 469.57 2.04074 3.4948 0
M  V30 5073 H 468.14 1.15811 2.90356 0
M  V30 5074 H 467.36 3.44176 1.92189 0
M  V30 5075 H 468.648 4.19565 2.87824 0
M  V30 5076 H 468.046 2.08528 5.25864 0
M  V30 5077 H 466.603 2.75575 5.90679 0
M  V30 5078 N 470.036 -0.519951 1.48776 0
M  V30 5079 C 471.285 -1.27175 1.56555 0
M  V30 5080 C 471.598 -1.9401 0.248869 0
M  V30 5081 O 472.804 -2.70725 0.205004 0
M  V30 5082 C 471.26 -2.30811 2.76142 0
M  V30 5083 C 470.868 -1.7 4.14493 0
M  V30 5084 C 472.612 -3.06937 2.9324 0
M  V30 5085 C 470.519 -2.71635 5.25327 0
M  V30 5086 H 469.449 -0.478329 0.582853 0
M  V30 5087 H 472.1 -0.547916 1.75129 0
M  V30 5088 H 470.482 -3.06274 2.51023 0
M  V30 5089 H 471.656 -1.00658 4.49672 0
M  V30 5090 H 469.971 -1.06331 4.02595 0
M  V30 5091 H 472.568 -3.82905 3.73213 0
M  V30 5092 H 472.911 -3.63409 2.03075 0
M  V30 5093 H 473.444 -2.38589 3.18308 0
M  V30 5094 H 470.183 -2.1997 6.1749 0
M  V30 5095 H 469.703 -3.39275 4.94624 0
M  V30 5096 H 471.382 -3.34429 5.53865 0
M  V30 5097 N 471.514 -1.37532 -0.769588 0
M  V30 5098 C 472.742 -1.36059 -1.55871 0
M  V30 5099 C 473.157 0.053544 -1.88724 0
M  V30 5100 O 472.514 1.01591 -1.5161 0
M  V30 5101 C 472.565 -2.20107 -2.86767 0
M  V30 5102 O 472.286 -3.56009 -2.55321 0
M  V30 5103 C 473.787 -2.26636 -3.80987 0
M  V30 5104 H 471.007 -0.465967 -0.482821 0
M  V30 5105 H 473.551 -1.80901 -0.953686 0
M  V30 5106 H 471.706 -1.78768 -3.43687 0
M  V30 5107 H 472.12 -4.0009 -3.39158 0
M  V30 5108 H 473.594 -2.89763 -4.69831 0
M  V30 5109 H 474.071 -1.2754 -4.20274 0
M  V30 5110 H 474.677 -2.68296 -3.29996 0
M  V30 5111 N 472.992 0.995999 -1.22138 0
M  V30 5112 C 473.922 2.10387 -1.01289 0
M  V30 5113 C 474.903 1.69975 0.0651454 0
M  V30 5114 O 476.088 1.9396 -0.0964628 0
M  V30 5115 C 473.218 3.42312 -0.586517 0
M  V30 5116 C 472.172 3.96558 -1.61014 0
M  V30 5117 C 471.498 5.24494 -1.0397 0
M  V30 5118 C 472.798 4.27595 -2.99933 0
M  V30 5119 H 474.492 2.28086 -1.93951 0
M  V30 5120 H 472.038 1.09607 -0.933928 0
M  V30 5121 H 473.991 4.19223 -0.427793 0
M  V30 5122 H 472.715 3.24431 0.375761 0
M  V30 5123 H 471.374 3.21776 -1.75658 0
M  V30 5124 H 471.022 5.02953 -0.0688703 0
M  V30 5125 H 470.722 5.61755 -1.72352 0
M  V30 5126 H 472.246 6.04042 -0.892494 0
M  V30 5127 H 473.66 4.95315 -2.8868 0
M  V30 5128 H 472.057 4.76021 -3.6541 0
M  V30 5129 H 473.127 3.35498 -3.50099 0
M  V30 5130 N 474.47 1.03057 1.19235 0
M  V30 5131 C 475.747 0.642608 1.84743 0
M  V30 5132 C 476.127 -0.878577 1.91948 0
M  V30 5133 O 475.475 -1.77597 1.43776 0
M  V30 5134 C 475.685 1.30665 3.23616 0
M  V30 5135 C 477.033 1.43098 3.9976 0
M  V30 5136 O 478.057 1.26396 3.3302 0
M  V30 5137 O 476.916 1.70223 5.19313 0
M  V30 5138 H 474.01 0.223573 0.796206 0
M  V30 5139 H 476.556 1.12883 1.26711 0
M  V30 5140 H 475.328 2.34544 3.13217 0
M  V30 5141 H 474.951 0.808405 3.89295 0
M  V30 5142 N 475.948 -1.35272 0.808662 0
M  V30 5143 C 476.911 -2.28082 0.226093 0
M  V30 5144 C 477.911 -1.49673 -0.587762 0
M  V30 5145 O 479.101 -1.69404 -0.405943 0
M  V30 5146 C 476.233 -3.33955 -0.684596 0
M  V30 5147 H 477.426 -2.81116 1.04469 0
M  V30 5148 H 474.979 -1.45162 0.579466 0
M  V30 5149 H 475.714 -2.86111 -1.5268 0
M  V30 5150 H 475.499 -3.91965 -0.102699 0
M  V30 5151 H 476.989 -4.03219 -1.08646 0
M  V30 5152 N 477.426 -0.562348 -1.47226 0
M  V30 5153 C 478.376 0.202967 -2.27095 0
M  V30 5154 C 479.36 0.880611 -1.34663 0
M  V30 5155 O 480.552 0.778069 -1.58981 0
M  V30 5156 C 477.681 1.22906 -3.20545 0
M  V30 5157 C 476.767 0.554566 -4.20459 0
M  V30 5158 N 477.158 -0.378295 -5.04383 0
M  V30 5159 C 475.456 0.807854 -4.38623 0
M  V30 5160 C 476.157 -0.770583 -5.76573 0
M  V30 5161 N 475.133 -0.124263 -5.43458 0
M  V30 5162 H 478.935 -0.514196 -2.89367 0
M  V30 5163 H 476.449 -0.382655 -1.57827 0
M  V30 5164 H 478.446 1.79134 -3.76453 0
M  V30 5165 H 477.106 1.94726 -2.59831 0
M  V30 5166 H 478.117 -0.75274 -5.124 0
M  V30 5167 H 474.794 1.51418 -3.89075 0
M  V30 5168 H 476.184 -1.53742 -6.54074 0
M  V30 5169 N 478.904 1.54736 -0.299062 0
M  V30 5170 C 480.15 2.00397 0.311244 0
M  V30 5171 C 480.483 1.18716 1.53688 0
M  V30 5172 O 479.758 0.263154 1.92712 0
M  V30 5173 C 480.041 3.53817 0.669761 0
M  V30 5174 C 479.894 4.46239 -0.564882 0
M  V30 5175 C 481.213 4.13856 1.49702 0
M  V30 5176 H 478.332 0.728493 0.111653 0
M  V30 5177 H 480.974 1.85506 -0.410774 0
M  V30 5178 H 479.124 3.66637 1.28491 0
M  V30 5179 H 480.796 4.45328 -1.20337 0
M  V30 5180 H 479.039 4.16916 -1.19849 0
M  V30 5181 H 479.71 5.5134 -0.269918 0
M  V30 5182 H 482.186 4.04461 0.977284 0
M  V30 5183 H 481.062 5.21365 1.71666 0
M  V30 5184 H 481.323 3.65608 2.48563 0
M  V30 5185 N 480.382 0.0267497 1.57577 0
M  V30 5186 C 481.63 -0.651116 1.91324 0
M  V30 5187 C 481.951 -1.72804 0.90353 0
M  V30 5188 O 481.221 -1.95822 -0.0552946 0
M  V30 5189 H 479.801 -0.243491 0.706202 0
M  V30 5190 H 482.463 0.0739935 1.94759 0
M  V30 5191 H 481.559 -1.10536 2.9187 0
M  V30 5192 N 481.861 -1.55662 -0.24637 0
M  V30 5193 C 482.809 -1.91186 -1.3248 0
M  V30 5194 C 483.803 -0.790996 -1.49799 0
M  V30 5195 O 485.009 -0.975617 -1.51267 0
M  V30 5196 H 481.384 -0.607207 -0.443626 0
M  V30 5197 H 483.355 -2.81221 -0.997853 0
M  V30 5198 C 482.104 -2.22349 -2.67313 0
M  V30 5199 H 481.427 -3.08097 -2.54786 0
M  V30 5200 H 482.867 -2.51107 -3.41645 0
M  V30 5201 C 481.326 -1.04001 -3.20446 0
M  V30 5202 O 481.856 -0.28828 -4.00664 0
M  V30 5203 N 480.062 -0.830494 -2.7848 0
M  V30 5204 H 479.609 -1.4435 -2.13356 0
M  V30 5205 H 479.567 -0.0403258 -3.14374 0
M  V30 5206 N 483.339 0.512053 -1.4905 0
M  V30 5207 C 484.588 1.26343 -1.57227 0
M  V30 5208 C 484.901 1.93876 -0.259155 0
M  V30 5209 O 486.107 2.70612 -0.219358 0
M  V30 5210 C 484.563 2.29343 -2.77362 0
M  V30 5211 C 484.171 1.67799 -4.15388 0
M  V30 5212 C 485.915 3.05378 -2.94864 0
M  V30 5213 C 483.822 2.68845 -5.2676 0
M  V30 5214 H 482.752 0.475231 -0.585382 0
M  V30 5215 H 485.403 0.53862 -1.75417 0
M  V30 5216 H 483.785 3.04938 -2.52643 0
M  V30 5217 H 484.959 0.982715 -4.50199 0
M  V30 5218 H 483.274 1.04194 -4.03153 0
M  V30 5219 H 485.871 3.80921 -3.75238 0
M  V30 5220 H 486.214 3.62327 -2.05 0
M  V30 5221 H 486.747 2.36898 -3.19569 0
M  V30 5222 H 483.486 2.16692 -6.18647 0
M  V30 5223 H 483.006 3.36647 -4.96416 0
M  V30 5224 H 484.685 3.31487 -5.5563 0
M  V30 5225 N 484.817 1.37938 0.762283 0
M  V30 5226 C 485.75 1.2884 1.88349 0
M  V30 5227 C 486.728 0.167084 1.61739 0
M  V30 5228 O 487.912 0.34292 1.85355 0
M  V30 5229 C 485.039 0.994257 3.23778 0
M  V30 5230 C 484.085 2.13376 3.69287 0
M  V30 5231 S 484.918 3.75439 3.81845 0
M  V30 5232 C 486.074 3.48195 5.20107 0
M  V30 5233 H 486.307 2.23736 1.95779 0
M  V30 5234 H 483.84 1.23672 0.924368 0
M  V30 5235 H 485.798 0.83138 4.01993 0
M  V30 5236 H 484.459 0.0626251 3.14038 0
M  V30 5237 H 483.652 1.88319 4.67495 0
M  V30 5238 H 483.254 2.25726 2.98201 0
M  V30 5239 H 485.546 3.0377 6.05583 0
M  V30 5240 H 486.489 4.45765 5.50181 0
M  V30 5241 H 486.897 2.82905 4.88493 0
M  V30 5242 N 486.295 -0.989507 1.22664 0
M  V30 5243 C 487.225 -2.09847 1.02404 0
M  V30 5244 C 488.206 -1.70007 -0.0561303 0
M  V30 5245 O 489.391 -1.93906 0.106748 0
M  V30 5246 C 486.521 -3.41996 0.604663 0
M  V30 5247 C 485.475 -3.95699 1.63115 0
M  V30 5248 C 484.801 -5.23936 1.0675 0
M  V30 5249 C 486.101 -4.25999 3.02196 0
M  V30 5250 H 487.795 -2.27054 1.95158 0
M  V30 5251 H 485.341 -1.09111 0.939727 0
M  V30 5252 H 487.294 -4.1899 0.45002 0
M  V30 5253 H 486.018 -3.24626 -0.35855 0
M  V30 5254 H 484.677 -3.2084 1.77362 0
M  V30 5255 H 484.325 -5.02909 0.0955422 0
M  V30 5256 H 484.025 -5.60833 1.75328 0
M  V30 5257 H 485.549 -6.0356 0.924516 0
M  V30 5258 H 486.963 -4.93777 2.91303 0
M  V30 5259 H 485.36 -4.74076 3.67929 0
M  V30 5260 H 486.43 -3.33636 3.51873 0
M  V30 5261 N 487.773 -1.03688 -1.18687 0
M  V30 5262 C 488.683 -0.634908 -2.25845 0
M  V30 5263 C 489.699 0.337065 -1.70704 0
M  V30 5264 O 490.875 0.192943 -2.00474 0
M  V30 5265 C 487.94 -0.000180054 -3.467 0
M  V30 5266 C 487.001 -1.02067 -4.1699 0
M  V30 5267 C 486.234 -0.41614 -5.32075 0
M  V30 5268 O 486.457 0.778712 -5.65059 0
M  V30 5269 O 485.391 -1.14296 -5.90948 0
M  V30 5270 H 489.217 -1.52757 -2.62486 0
M  V30 5271 H 486.802 -0.807533 -1.25695 0
M  V30 5272 H 488.684 0.353342 -4.19916 0
M  V30 5273 H 487.359 0.866367 -3.11891 0
M  V30 5274 H 486.266 -1.42592 -3.45859 0
M  V30 5275 H 487.599 -1.85786 -4.5579 0
M  V30 5276 N 489.251 1.34841 -0.815825 0
M  V30 5277 C 490.198 2.29644 -0.230664 0
M  V30 5278 C 491.168 1.53253 0.640533 0
M  V30 5279 O 492.353 1.81653 0.583672 0
M  V30 5280 C 489.493 3.39715 0.607275 0
M  V30 5281 C 488.606 4.31056 -0.28538 0
M  V30 5282 C 487.741 5.28225 0.561446 0
M  V30 5283 C 486.78 6.11204 -0.331035 0
M  V30 5284 N 485.917 7.00483 0.476302 0
M  V30 5285 H 490.757 2.79095 -1.0445 0
M  V30 5286 H 488.294 1.37351 -0.526595 0
M  V30 5287 H 490.252 4.02208 1.10835 0
M  V30 5288 H 488.882 2.91517 1.38629 0
M  V30 5289 H 487.934 3.69487 -0.904621 0
M  V30 5290 H 489.246 4.89239 -0.97193 0
M  V30 5291 H 488.4 5.96135 1.12728 0
M  V30 5292 H 487.139 4.70562 1.28153 0
M  V30 5293 H 486.144 5.42232 -0.909069 0
M  V30 5294 H 487.369 6.70947 -1.04912 0
M  V30 5295 H 485.315 6.45296 1.18019 0
M  V30 5296 H 485.232 7.55847 -0.152008 0
M  V30 5297 H 486.5 7.7273 1.02512 0
M  V30 5298 N 490.729 0.570148 1.46925 0
M  V30 5299 C 491.692 -0.159933 2.28641 0
M  V30 5300 C 492.692 -0.830638 1.37685 0
M  V30 5301 O 493.882 -0.684516 1.60187 0
M  V30 5302 C 491.014 -1.2354 3.17727 0
M  V30 5303 H 492.207 0.558035 2.94662 0
M  V30 5304 H 489.76 0.327603 1.52828 0
M  V30 5305 H 490.495 -1.98535 2.56426 0
M  V30 5306 H 490.28 -0.759125 3.84681 0
M  V30 5307 H 491.77 -1.74782 3.79264 0
M  V30 5308 N 492.207 -1.54576 0.307264 0
M  V30 5309 C 493.155 -2.25208 -0.581723 0
M  V30 5310 C 494.149 -1.26031 -1.13192 0
M  V30 5311 O 495.355 -1.43862 -1.08184 0
M  V30 5312 H 491.73 -0.723173 -0.206214 0
M  V30 5313 H 493.701 -2.98378 0.0364663 0
M  V30 5314 C 492.45 -3.01086 -1.73904 0
M  V30 5315 H 491.773 -3.77208 -1.32491 0
M  V30 5316 H 493.213 -3.5378 -2.33701 0
M  V30 5317 C 491.672 -2.08422 -2.64692 0
M  V30 5318 O 492.202 -1.65636 -3.65961 0
M  V30 5319 N 490.408 -1.74247 -2.32564 0
M  V30 5320 H 489.955 -2.09238 -1.50257 0
M  V30 5321 H 489.913 -1.12524 -2.93574 0
M  V30 5322 N 493.685 -0.035106 -1.57561 0
M  V30 5323 C 494.925 0.646316 -1.93913 0
M  V30 5324 C 495.289 1.68947 -0.912185 0
M  V30 5325 O 496.49 2.42381 -1.1621 0
M  V30 5326 C 494.761 1.24136 -3.35149 0
M  V30 5327 S 496.32 1.94302 -3.93436 0
M  V30 5328 H 493.138 0.212642 -0.678457 0
M  V30 5329 H 495.74 -0.100203 -1.95243 0
M  V30 5330 H 494.444 0.46979 -4.07702 0
M  V30 5331 H 493.975 2.02505 -3.37276 0
M  V30 5332 H 495.99 3.22205 -3.77357 0
M  V30 5333 N 495.163 1.55791 0.238111 0
M  V30 5334 C 496.412 1.77234 0.962868 0
M  V30 5335 C 496.725 0.600661 1.86149 0
M  V30 5336 O 497.931 0.698315 2.62366 0
M  V30 5337 C 496.387 3.13808 1.76218 0
M  V30 5338 C 495.995 4.3865 0.910518 0
M  V30 5339 C 497.739 3.44585 2.47914 0
M  V30 5340 C 495.646 5.66252 1.70623 0
M  V30 5341 H 494.576 0.660731 0.36325 0
M  V30 5342 H 497.227 1.8221 0.217242 0
M  V30 5343 H 495.609 3.02963 2.55009 0
M  V30 5344 H 496.783 4.60507 0.164316 0
M  V30 5345 H 495.098 4.15271 0.30647 0
M  V30 5346 H 497.695 4.3714 3.07917 0
M  V30 5347 H 498.038 2.66314 3.19973 0
M  V30 5348 H 498.571 3.56685 1.76127 0
M  V30 5349 H 495.31 6.47369 1.02923 0
M  V30 5350 H 494.83 5.48483 2.42748 0
M  V30 5351 H 496.509 6.05829 2.27114 0
M  V30 5352 N 496.642 -0.504142 1.49319 0
M  V30 5353 C 497.888 -1.26033 1.58882 0
M  V30 5354 C 498.221 -1.92268 0.273274 0
M  V30 5355 O 497.496 -1.80567 -0.72291 0
M  V30 5356 C 497.779 -2.32976 2.7458 0
M  V30 5357 C 497.632 -1.71263 4.1592 0
M  V30 5358 C 498.951 -3.34561 2.85932 0
M  V30 5359 H 496.07 -0.456863 0.578312 0
M  V30 5360 H 498.712 -0.558965 1.81592 0
M  V30 5361 H 496.862 -2.92796 2.55348 0
M  V30 5362 H 498.534 -1.15294 4.4666 0
M  V30 5363 H 496.777 -1.01686 4.21714 0
M  V30 5364 H 497.448 -2.48816 4.92742 0
M  V30 5365 H 499.924 -2.84727 3.0343 0
M  V30 5366 H 498.8 -4.06754 3.68568 0
M  V30 5367 H 499.061 -3.96695 1.95154 0
M  V30 5368 N 498.12 -1.38341 -0.754957 0
M  V30 5369 C 499.397 -1.24995 -1.50451 0
M  V30 5370 C 499.777 0.149244 -2.10572 0
M  V30 5371 O 499.125 1.15861 -1.96948 0
M  V30 5372 C 499.335 -2.35904 -2.57197 0
M  V30 5373 C 500.683 -2.74262 -3.24138 0
M  V30 5374 O 501.707 -2.35205 -2.67501 0
M  V30 5375 O 500.566 -3.4161 -4.26574 0
M  V30 5376 H 497.66 -0.48872 -0.667144 0
M  V30 5377 H 500.206 -1.50165 -0.790486 0
M  V30 5378 H 498.978 -3.2953 -2.11011 0
M  V30 5379 H 498.601 -2.12291 -3.36182 0
M  V30 5380 N 499.598 0.982988 -1.23187 0
M  V30 5381 C 500.823 1.76455 -1.08988 0
M  V30 5382 C 501.248 1.84726 0.354691 0
M  V30 5383 O 500.606 1.30699 1.25649 0
M  V30 5384 C 500.654 3.17094 -1.71708 0
M  V30 5385 O 499.758 4.00648 -0.977477 0
M  V30 5386 H 499.099 0.542988 -0.382177 0
M  V30 5387 H 501.629 1.23413 -1.63188 0
M  V30 5388 H 501.639 3.67684 -1.76841 0
M  V30 5389 H 500.314 3.10389 -2.76823 0
M  V30 5390 H 498.891 3.59161 -1.0029 0
M  V30 5391 N 501.076 1.04316 1.18135 0
M  V30 5392 C 502.324 0.746542 1.87806 0
M  V30 5393 C 502.645 -0.728082 1.80898 0
M  V30 5394 O 501.915 -1.52554 1.22899 0
M  V30 5395 H 500.495 0.273157 0.695265 0
M  V30 5396 H 503.157 1.32044 1.43354 0
M  V30 5397 H 502.253 1.05362 2.93778 0
M  V30 5398 N 502.554 -1.34406 0.822964 0
M  V30 5399 C 503.782 -2.02508 0.424039 0
M  V30 5400 C 504.197 -1.61975 -0.970022 0
M  V30 5401 O 503.554 -0.825228 -1.62777 0
M  V30 5402 C 503.605 -3.57789 0.516657 0
M  V30 5403 O 503.326 -3.96853 1.85577 0
M  V30 5404 C 504.827 -4.43157 0.112637 0
M  V30 5405 H 502.047 -0.649063 0.170173 0
M  V30 5406 H 504.591 -1.7168 1.11113 0
M  V30 5407 H 502.746 -3.87207 -0.122353 0
M  V30 5408 H 503.16 -4.91538 1.83005 0
M  V30 5409 H 504.634 -5.51527 0.228526 0
M  V30 5410 H 505.111 -4.28939 -0.943837 0
M  V30 5411 H 505.717 -4.19067 0.725449 0
M  V30 5412 N 504.032 -0.577932 -1.46621 0
M  V30 5413 C 505.257 -0.0652536 -2.07297 0
M  V30 5414 C 505.682 1.22828 -1.4246 0
M  V30 5415 O 505.04 1.74075 -0.506718 0
M  V30 5416 C 505.088 0.0920589 -3.60482 0
M  V30 5417 O 504.192 1.14972 -3.96049 0
M  V30 5418 H 503.533 -0.06065 -0.661224 0
M  V30 5419 H 506.063 -0.799515 -1.88332 0
M  V30 5420 H 506.073 0.299741 -4.06897 0
M  V30 5421 H 504.748 -0.852612 -4.07067 0
M  V30 5422 H 503.325 0.920879 -3.61351 0
M  V30 5423 N 505.51 1.54411 -0.315457 0
M  V30 5424 C 506.473 2.22713 0.54142 0
M  V30 5425 C 507.473 1.2179 1.04995 0
M  V30 5426 O 508.663 1.46426 0.943667 0
M  V30 5427 C 505.795 2.92485 1.75116 0
M  V30 5428 H 506.988 2.99849 -0.0555508 0
M  V30 5429 H 504.541 1.56159 -0.0664453 0
M  V30 5430 H 505.276 2.19466 2.38758 0
M  V30 5431 H 505.061 3.66483 1.39401 0
M  V30 5432 H 506.551 3.44548 2.35959 0
M  V30 5433 N 506.988 0.0434614 1.5754 0
M  V30 5434 C 508.237 -0.631454 1.91561 0
M  V30 5435 C 508.55 -1.72457 0.92292 0
M  V30 5436 O 509.756 -2.45712 1.15489 0
M  V30 5437 C 508.212 -1.17447 3.40197 0
M  V30 5438 C 507.82 -0.113867 4.47855 0
M  V30 5439 C 509.564 -1.82507 3.83264 0
M  V30 5440 C 507.471 -0.669326 5.876 0
M  V30 5441 H 506.401 -0.239629 0.714908 0
M  V30 5442 H 509.052 0.111097 1.83163 0
M  V30 5443 H 507.434 -1.96909 3.43574 0
M  V30 5444 H 508.608 0.659348 4.56058 0
M  V30 5445 H 506.923 0.438821 4.14081 0
M  V30 5446 H 509.52 -2.25047 4.85034 0
M  V30 5447 H 509.863 -2.67365 3.19095 0
M  V30 5448 H 510.396 -1.09712 3.82372 0
M  V30 5449 H 507.135 0.141449 6.55347 0
M  V30 5450 H 506.655 -1.4107 5.82974 0
M  V30 5451 H 508.334 -1.15463 6.36614 0
M  V30 5452 N 508.466 -1.55915 -0.229846 0
M  V30 5453 C 509.694 -1.82617 -0.972562 0
M  V30 5454 C 510.109 -0.621488 -1.78278 0
M  V30 5455 O 509.466 0.409956 -1.77836 0
M  V30 5456 C 509.517 -3.0774 -1.89679 0
M  V30 5457 O 509.238 -4.23559 -1.11934 0
M  V30 5458 C 510.739 -3.47368 -2.75409 0
M  V30 5459 H 507.959 -0.60727 -0.285419 0
M  V30 5460 H 510.503 -2.02996 -0.247579 0
M  V30 5461 H 508.658 -2.89361 -2.57583 0
M  V30 5462 H 509.072 -4.94586 -1.74599 0
M  V30 5463 H 510.546 -4.37977 -3.35977 0
M  V30 5464 H 511.023 -2.68737 -3.47386 0
M  V30 5465 H 511.629 -3.68158 -2.12931 0
M  V30 5466 N 509.944 0.496216 -1.49584 0
M  V30 5467 C 511.19 1.25189 -1.59548 0
M  V30 5468 C 511.523 1.9212 -0.283466 0
M  V30 5469 O 510.798 1.80947 0.713324 0
M  V30 5470 C 511.081 2.31516 -2.75812 0
M  V30 5471 C 510.934 1.69054 -4.16822 0
M  V30 5472 C 512.253 3.3304 -2.87702 0
M  V30 5473 H 509.372 0.45379 -0.580727 0
M  V30 5474 H 512.014 0.549327 -1.81886 0
M  V30 5475 H 510.164 2.91438 -2.56897 0
M  V30 5476 H 511.836 1.12923 -4.47265 0
M  V30 5477 H 510.079 0.994485 -4.22247 0
M  V30 5478 H 510.75 2.462 -4.94054 0
M  V30 5479 H 513.226 2.83114 -3.04936 0
M  V30 5480 H 512.102 4.04794 -3.7072 0
M  V30 5481 H 512.363 3.95655 -1.97255 0
M  V30 5482 N 511.423 1.38739 0.74761 0
M  V30 5483 C 512.834 1.31507 1.32524 0
M  V30 5484 C 513.185 -0.0263963 1.96182 0
M  V30 5485 O 512.31 -0.92849 1.95469 0
M  V30 5486 C 512.905 2.38162 2.40966 0
M  V30 5487 C 511.464 2.34489 2.94434 0
M  V30 5488 C 510.611 2.20712 1.67873 0
M  V30 5489 H 513.562 1.4901 0.546043 0
M  V30 5490 H 513.583 2.04222 3.21051 0
M  V30 5491 H 513.095 3.35783 1.94605 0
M  V30 5492 H 511.196 1.40467 3.45108 0
M  V30 5493 H 511.309 3.28861 3.48407 0
M  V30 5494 H 509.673 1.67667 1.91729 0
M  V30 5495 H 510.456 3.20285 1.23582 0
M  V30 5496 N 512.901 -0.976442 1.23707 0
M  V30 5497 C 514.129 -1.75341 1.09833 0
M  V30 5498 C 514.544 -1.8553 -0.349885 0
M  V30 5499 O 513.901 -1.33732 -1.24185 0
M  V30 5500 C 513.952 -3.17833 1.72233 0
M  V30 5501 O 513.673 -3.08167 3.11391 0
M  V30 5502 C 515.174 -4.11906 1.63853 0
M  V30 5503 H 512.394 -0.550137 0.384175 0
M  V30 5504 H 514.938 -1.2265 1.63638 0
M  V30 5505 H 513.093 -3.67538 1.22452 0
M  V30 5506 H 513.507 -3.97897 3.41729 0
M  V30 5507 H 514.981 -5.09579 2.12211 0
M  V30 5508 H 515.458 -4.35109 0.598092 0
M  V30 5509 H 516.064 -3.68107 2.13019 0
M  V30 5510 N 514.379 -1.04941 -1.1758 0
M  V30 5511 C 515.656 -0.671918 -1.83697 0
M  V30 5512 C 516.036 0.847929 -1.93322 0
M  V30 5513 O 515.384 1.75287 -1.46583 0
M  V30 5514 C 515.594 -1.35797 -3.21497 0
M  V30 5515 C 516.942 -1.4944 -3.97433 0
M  V30 5516 O 517.966 -1.31678 -3.30967 0
M  V30 5517 O 516.825 -1.78463 -5.1654 0
M  V30 5518 H 513.919 -0.236212 -0.792548 0
M  V30 5519 H 516.465 -1.14884 -1.24899 0
M  V30 5520 H 515.237 -2.39498 -3.09446 0
M  V30 5521 H 514.86 -0.870236 -3.8796 0
M  V30 5522 N 515.857 1.33968 -0.830081 0
M  V30 5523 C 517.104 1.98063 -0.421566 0
M  V30 5524 C 517.432 1.65787 1.0171 0
M  V30 5525 O 516.687 0.925348 1.72441 0
M  V30 5526 C 516.986 3.52679 -0.57898 0
M  V30 5527 C 516.652 4.04884 -1.98443 0
M  V30 5528 C 515.314 4.18852 -2.36888 0
M  V30 5529 C 517.666 4.32879 -2.90285 0
M  V30 5530 C 514.994 4.58145 -3.66497 0
M  V30 5531 C 517.346 4.7362 -4.19364 0
M  V30 5532 C 516.01 4.85794 -4.57778 0
M  V30 5533 H 515.28 0.724765 -0.154262 0
M  V30 5534 H 517.927 1.59792 -1.05541 0
M  V30 5535 H 516.232 3.91556 0.138219 0
M  V30 5536 H 517.929 4.00261 -0.243317 0
M  V30 5537 H 514.519 3.9448 -1.67581 0
M  V30 5538 H 518.703 4.21619 -2.61823 0
M  V30 5539 H 513.959 4.65762 -3.96075 0
M  V30 5540 H 518.133 4.9424 -4.90612 0
M  V30 5541 H 515.76 5.15998 -5.58256 0
M  V30 5542 N 517.335 0.585699 1.46312 0
M  V30 5543 C 518.265 -0.133556 2.33118 0
M  V30 5544 C 519.246 -0.880707 1.45525 0
M  V30 5545 O 520.431 -0.855579 1.74337 0
M  V30 5546 C 517.561 -1.14585 3.27853 0
M  V30 5547 C 516.515 -0.513341 4.2491 0
M  V30 5548 C 515.841 -1.63231 5.09175 0
M  V30 5549 C 517.141 0.551413 5.19381 0
M  V30 5550 H 518.835 0.59121 2.93505 0
M  V30 5551 H 516.381 0.285761 1.41136 0
M  V30 5552 H 518.334 -1.65741 3.87438 0
M  V30 5553 H 517.058 -1.90093 2.65579 0
M  V30 5554 H 515.717 -0.0228349 3.66593 0
M  V30 5555 H 515.365 -2.37713 4.43285 0
M  V30 5556 H 515.065 -1.21473 5.74907 0
M  V30 5557 H 516.589 -2.14658 5.71624 0
M  V30 5558 H 518.003 0.124804 5.73164 0
M  V30 5559 H 516.4 0.889486 5.93471 0
M  V30 5560 H 517.47 1.43655 4.63132 0
M  V30 5561 N 518.813 -1.54241 0.323641 0
M  V30 5562 C 519.761 -2.25813 -0.557804 0
M  V30 5563 C 520.755 -1.27225 -1.11849 0
M  V30 5564 O 521.961 -1.45001 -1.06652 0
M  V30 5565 H 518.336 -0.72532 -0.198532 0
M  V30 5566 H 520.307 -2.98322 0.0681112 0
M  V30 5567 C 519.056 -3.02913 -1.70701 0
M  V30 5568 H 518.379 -3.78593 -1.28482 0
M  V30 5569 H 519.819 -3.56238 -2.29935 0
M  V30 5570 C 518.278 -2.11217 -2.62467 0
M  V30 5571 O 518.808 -1.69508 -3.64184 0
M  V30 5572 N 517.014 -1.76704 -2.30703 0
M  V30 5573 H 516.561 -2.1082 -1.48029 0
M  V30 5574 H 516.519 -1.15631 -2.92364 0
M  V30 5575 N 520.291 -0.0518155 -1.57515 0
M  V30 5576 C 521.238 0.922352 -2.11569 0
M  V30 5577 C 522.208 1.30842 -1.02321 0
M  V30 5578 O 523.393 1.39778 -1.29872 0
M  V30 5579 C 520.533 2.19167 -2.6657 0
M  V30 5580 C 519.646 1.86003 -3.89906 0
M  V30 5581 C 518.781 3.07398 -4.33221 0
M  V30 5582 C 517.82 2.70158 -5.49255 0
M  V30 5583 N 516.957 3.84248 -5.8762 0
M  V30 5584 H 521.797 0.454506 -2.94514 0
M  V30 5585 H 519.334 0.212718 -1.45554 0
M  V30 5586 H 521.292 2.93443 -2.96559 0
M  V30 5587 H 519.922 2.63528 -1.86421 0
M  V30 5588 H 518.974 1.01874 -3.66505 0
M  V30 5589 H 520.286 1.54592 -4.74239 0
M  V30 5590 H 519.44 3.89972 -4.64765 0
M  V30 5591 H 518.179 3.41988 -3.477 0
M  V30 5592 H 517.184 1.86001 -5.17382 0
M  V30 5593 H 518.409 2.36759 -6.36492 0
M  V30 5594 H 516.355 4.18638 -5.05053 0
M  V30 5595 H 516.272 3.56538 -6.66646 0
M  V30 5596 H 517.54 4.6746 -6.2378 0
M  V30 5597 N 521.769 1.56035 0.221574 0
M  V30 5598 C 522.702 1.87427 1.30178 0
M  V30 5599 C 523.68 0.731658 1.45209 0
M  V30 5600 O 524.864 0.980016 1.61022 0
M  V30 5601 C 521.991 2.08127 2.67209 0
M  V30 5602 C 521.037 3.30813 2.69194 0
M  V30 5603 S 521.87 4.86738 2.23263 0
M  V30 5604 C 523.026 5.10474 3.62171 0
M  V30 5605 H 523.259 2.78756 1.03355 0
M  V30 5606 H 520.792 1.48469 0.423813 0
M  V30 5607 H 522.75 2.20736 3.46101 0
M  V30 5608 H 521.411 1.17595 2.91256 0
M  V30 5609 H 520.604 3.42341 3.6989 0
M  V30 5610 H 520.206 3.1706 1.98366 0
M  V30 5611 H 522.498 4.9937 4.5786 0
M  V30 5612 H 523.441 6.12359 3.55558 0
M  V30 5613 H 523.849 4.38208 3.55857 0
M  V30 5614 N 523.247 -0.488276 1.49845 0
M  V30 5615 C 524.177 -1.59675 1.70371 0
M  V30 5616 C 525.158 -1.60878 0.552473 0
M  V30 5617 O 526.343 -1.77417 0.78973 0
M  V30 5618 C 523.473 -2.98098 1.782 0
M  V30 5619 C 522.427 -3.11761 2.93239 0
M  V30 5620 C 521.753 -4.51661 2.86193 0
M  V30 5621 C 523.053 -2.90589 4.33999 0
M  V30 5622 H 524.747 -1.42752 2.63177 0
M  V30 5623 H 522.293 -0.685317 1.26647 0
M  V30 5624 H 524.246 -3.75555 1.91144 0
M  V30 5625 H 522.97 -3.16138 0.820018 0
M  V30 5626 H 521.629 -2.36732 2.79917 0
M  V30 5627 H 521.277 -4.66595 1.87877 0
M  V30 5628 H 520.977 -4.61742 3.63412 0
M  V30 5629 H 522.501 -5.31162 3.01163 0
M  V30 5630 H 523.915 -3.57807 4.47936 0
M  V30 5631 H 522.312 -3.1213 5.12538 0
M  V30 5632 H 523.382 -1.86595 4.4756 0
M  V30 5633 N 524.725 -1.39134 -0.740242 0
M  V30 5634 C 525.657 -1.33332 -1.86428 0
M  V30 5635 C 526.67 -0.243042 -1.60976 0
M  V30 5636 O 527.859 -0.501608 -1.71307 0
M  V30 5637 C 524.959 -1.04626 -3.22346 0
M  V30 5638 C 524.132 -2.24826 -3.75196 0
M  V30 5639 C 523.191 -1.92659 -4.89662 0
M  V30 5640 O 522.217 -2.6529 -5.03597 0
M  V30 5641 N 523.419 -0.889575 -5.73643 0
M  V30 5642 H 526.184 -2.30196 -1.91911 0
M  V30 5643 H 523.745 -1.33168 -0.920756 0
M  V30 5644 H 525.737 -0.811347 -3.96484 0
M  V30 5645 H 524.307 -0.165129 -3.12164 0
M  V30 5646 H 523.527 -2.64301 -2.9247 0
M  V30 5647 H 524.815 -3.05015 -4.07239 0
M  V30 5648 H 524.213 -0.287529 -5.64969 0
M  V30 5649 H 522.77 -0.714557 -6.47871 0
M  V30 5650 N 526.204 0.969867 -1.24223 0
M  V30 5651 C 527.152 2.08535 -1.03034 0
M  V30 5652 C 528.146 1.69366 0.0340379 0
M  V30 5653 O 529.352 1.79597 -0.12034 0
M  V30 5654 H 525.727 0.682313 -0.316154 0
M  V30 5655 H 527.698 2.23569 -1.97635 0
M  V30 5656 C 526.447 3.4158 -0.649509 0
M  V30 5657 H 525.77 3.72177 -1.46028 0
M  V30 5658 H 527.21 4.20536 -0.540841 0
M  V30 5659 C 525.669 3.30703 0.643194 0
M  V30 5660 O 526.199 3.64443 1.68951 0
M  V30 5661 N 524.405 2.83841 0.623095 0
M  V30 5662 H 523.952 2.56583 -0.228719 0
M  V30 5663 H 523.91 2.76946 1.48823 0
M  V30 5664 N 527.682 1.05563 1.17022 0
M  V30 5665 C 528.612 0.681026 2.23348 0
M  V30 5666 C 529.593 -0.322983 1.67005 0
M  V30 5667 O 530.778 -0.199746 1.9317 0
M  V30 5668 C 527.908 0.0589053 3.4725 0
M  V30 5669 C 526.862 0.988082 4.16438 0
M  V30 5670 C 526.188 0.229646 5.34207 0
M  V30 5671 C 527.488 2.31388 4.68249 0
M  V30 5672 H 529.182 1.56993 2.54938 0
M  V30 5673 H 526.728 0.756302 1.2254 0
M  V30 5674 H 528.681 -0.214982 4.20851 0
M  V30 5675 H 527.405 -0.864968 3.14938 0
M  V30 5676 H 526.064 1.24659 3.44754 0
M  V30 5677 H 525.712 -0.697111 4.98146 0
M  V30 5678 H 525.412 0.848815 5.81437 0
M  V30 5679 H 526.936 -0.0368694 6.10589 0
M  V30 5680 H 528.35 2.09964 5.33468 0
M  V30 5681 H 526.747 2.88736 5.26072 0
M  V30 5682 H 527.817 2.94982 3.84855 0
M  V30 5683 N 529.16 -1.33526 0.837174 0
M  V30 5684 C 530.437 -1.92369 0.354065 0
M  V30 5685 C 530.817 -1.76348 -1.16038 0
M  V30 5686 O 530.165 -1.15083 -1.97403 0
M  V30 5687 C 530.375 -3.39728 0.799101 0
M  V30 5688 C 531.723 -4.16877 0.806139 0
M  V30 5689 O 532.747 -3.48373 0.742597 0
M  V30 5690 O 531.606 -5.39166 0.892345 0
M  V30 5691 H 528.7 -0.820952 0.0998378 0
M  V30 5692 H 531.246 -1.42409 0.922913 0
M  V30 5693 H 530.018 -3.45254 1.84162 0
M  V30 5694 H 529.641 -3.97062 0.206731 0
M  V30 5695 N 530.638 -0.59345 -1.46 0
M  V30 5696 C 531.884 -0.0832754 -2.02629 0
M  V30 5697 C 532.217 1.27749 -1.46266 0
M  V30 5698 O 531.492 1.8395 -0.631866 0
M  V30 5699 C 531.775 -0.0290756 -3.60088 0
M  V30 5700 C 531.628 -1.41951 -4.26814 0
M  V30 5701 C 532.947 0.666055 -4.35031 0
M  V30 5702 H 530.066 -0.031736 -0.736316 0
M  V30 5703 H 532.708 -0.762711 -1.74019 0
M  V30 5704 H 530.858 0.549532 -3.84594 0
M  V30 5705 H 532.53 -2.04411 -4.13538 0
M  V30 5706 H 530.773 -1.98422 -3.8576 0
M  V30 5707 H 531.444 -1.33395 -5.3564 0
M  V30 5708 H 533.92 0.174401 -4.15734 0
M  V30 5709 H 532.796 0.673041 -5.44758 0
M  V30 5710 H 533.057 1.72946 -4.06869 0
M  V30 5711 N 532.116 1.54067 -0.331816 0
M  V30 5712 C 533.365 1.99895 0.269209 0
M  V30 5713 C 533.678 1.22371 1.52593 0
M  V30 5714 O 534.884 1.58618 2.20347 0
M  V30 5715 C 533.34 3.55972 0.530244 0
M  V30 5716 C 532.948 4.4234 -0.709901 0
M  V30 5717 C 534.692 4.10247 1.09077 0
M  V30 5718 C 532.599 5.89905 -0.420312 0
M  V30 5719 H 531.529 0.746741 0.104371 0
M  V30 5720 H 534.18 1.78014 -0.445324 0
M  V30 5721 H 532.562 3.73873 1.30518 0
M  V30 5722 H 533.736 4.36215 -1.48504 0
M  V30 5723 H 532.051 3.98997 -1.19123 0
M  V30 5724 H 534.648 5.18095 1.32219 0
M  V30 5725 H 534.991 3.62739 2.0427 0
M  V30 5726 H 535.524 3.96011 0.376824 0
M  V30 5727 H 532.263 6.41623 -1.34164 0
M  V30 5728 H 531.783 5.98962 0.316962 0
M  V30 5729 H 533.462 6.46991 -0.0331956 0
M  V30 5730 N 533.594 0.0601682 1.57485 0
M  V30 5731 C 534.541 -0.91112 2.12055 0
M  V30 5732 C 535.511 -1.30298 1.03013 0
M  V30 5733 O 536.696 -1.39087 1.30612 0
M  V30 5734 C 533.836 -2.1775 2.67729 0
M  V30 5735 C 532.949 -1.83933 3.90887 0
M  V30 5736 C 532.084 -3.05096 4.34845 0
M  V30 5737 C 531.123 -2.67241 5.5068 0
M  V30 5738 N 530.26 -3.81127 5.8965 0
M  V30 5739 H 535.1 -0.43888 2.9475 0
M  V30 5740 H 532.637 -0.204995 1.45665 0
M  V30 5741 H 534.595 -2.91866 2.98111 0
M  V30 5742 H 533.225 -2.62535 1.87816 0
M  V30 5743 H 532.277 -0.999287 3.6704 0
M  V30 5744 H 533.589 -1.52074 4.75052 0
M  V30 5745 H 532.743 -3.87502 4.66827 0
M  V30 5746 H 531.482 -3.40139 3.49509 0
M  V30 5747 H 530.487 -1.83254 5.18361 0
M  V30 5748 H 531.712 -2.3338 6.37738 0
M  V30 5749 H 529.658 -4.15954 5.07266 0
M  V30 5750 H 529.575 -3.52997 6.68528 0
M  V30 5751 H 530.843 -4.64145 6.2625 0
M  V30 5752 N 535.072 -1.5615 -0.213296 0
M  V30 5753 C 536.318 -1.79812 -0.937849 0
M  V30 5754 C 536.651 -0.631201 -1.83656 0
M  V30 5755 O 535.926 0.369165 -1.90964 0
M  V30 5756 C 536.209 -3.13613 -1.76972 0
M  V30 5757 C 536.062 -4.40766 -0.89695 0
M  V30 5758 C 537.381 -3.43931 -2.7459 0
M  V30 5759 H 534.5 -0.654138 -0.339518 0
M  V30 5760 H 537.142 -1.88877 -0.20623 0
M  V30 5761 H 535.292 -3.06015 -2.39347 0
M  V30 5762 H 536.964 -4.60392 -0.289306 0
M  V30 5763 H 535.207 -4.33326 -0.202756 0
M  V30 5764 H 535.878 -5.30843 -1.51358 0
M  V30 5765 H 538.354 -3.5171 -2.22349 0
M  V30 5766 H 537.23 -4.38706 -3.29891 0
M  V30 5767 H 537.491 -2.6651 -3.52739 0
M  V30 5768 N 536.55 0.480323 -1.50102 0
M  V30 5769 C 537.961 1.06142 -1.53593 0
M  V30 5770 C 538.312 1.93335 -0.334055 0
M  V30 5771 O 537.437 2.09188 0.55403 0
M  V30 5772 C 538.032 1.9317 -2.78336 0
M  V30 5773 C 536.591 2.46405 -2.84538 0
M  V30 5774 C 535.738 1.24521 -2.4777 0
M  V30 5775 H 538.689 0.26333 -1.565 0
M  V30 5776 H 538.71 2.78123 -2.59669 0
M  V30 5777 H 538.222 1.29683 -3.65792 0
M  V30 5778 H 536.323 3.13472 -2.01411 0
M  V30 5779 H 536.436 2.82143 -3.87211 0
M  V30 5780 H 534.8 1.57706 -2.00003 0
M  V30 5781 H 535.583 0.627102 -3.37524 0
M  V30 5782 N 538.028 1.39524 0.732853 0
M  V30 5783 C 539.275 1.36865 1.49246 0
M  V30 5784 C 539.603 -0.0347118 1.94469 0
M  V30 5785 O 538.858 -1.01596 1.67262 0
M  V30 5786 C 539.157 2.28916 2.74468 0
M  V30 5787 C 538.823 3.76506 2.481 0
M  V30 5788 C 537.485 4.16721 2.40619 0
M  V30 5789 C 539.837 4.69846 2.25598 0
M  V30 5790 C 537.165 5.48334 2.08679 0
M  V30 5791 C 539.517 6.01739 1.95174 0
M  V30 5792 C 538.181 6.41015 1.86163 0
M  V30 5793 H 537.451 0.500824 0.546129 0
M  V30 5794 H 540.098 1.72047 0.840958 0
M  V30 5795 H 538.403 1.86859 3.4437 0
M  V30 5796 H 540.1 2.2415 3.32502 0
M  V30 5797 H 536.69 3.44635 2.54803 0
M  V30 5798 H 540.874 4.39608 2.30344 0
M  V30 5799 H 536.13 5.77685 2.00226 0
M  V30 5800 H 540.304 6.73591 1.76771 0
M  V30 5801 H 537.931 7.42917 1.61179 0
M  V30 5802 N 539.506 -0.963266 1.24736 0
M  V30 5803 C 540.436 -2.07628 1.06832 0
M  V30 5804 C 541.417 -1.70088 -0.0200566 0
M  V30 5805 O 542.602 -1.93636 0.147854 0
M  V30 5806 C 539.732 -3.40636 0.677069 0
M  V30 5807 C 538.686 -3.9215 1.71471 0
M  V30 5808 C 538.012 -5.21553 1.1784 0
M  V30 5809 C 539.312 -4.19493 3.11164 0
M  V30 5810 H 541.006 -2.22864 1.9993 0
M  V30 5811 H 538.552 -1.07093 0.96266 0
M  V30 5812 H 540.505 -4.17941 0.538792 0
M  V30 5813 H 539.229 -3.25313 -0.289612 0
M  V30 5814 H 537.888 -3.17005 1.84128 0
M  V30 5815 H 537.536 -5.02593 0.202195 0
M  V30 5816 H 537.236 -5.56988 1.87185 0
M  V30 5817 H 538.76 -6.01463 1.05233 0
M  V30 5818 H 540.174 -4.87487 3.01711 0
M  V30 5819 H 538.571 -4.66165 3.77902 0
M  V30 5820 H 539.641 -3.26097 3.58871 0
M  V30 5821 N 540.985 -1.06182 -1.16461 0
M  V30 5822 C 542.396 -0.802426 -1.68576 0
M  V30 5823 C 542.747 0.67412 -1.84255 0
M  V30 5824 O 541.872 1.52303 -1.5373 0
M  V30 5825 C 542.467 -1.45002 -3.06202 0
M  V30 5826 C 541.026 -1.23843 -3.55443 0
M  V30 5827 C 540.173 -1.52724 -2.31454 0
M  V30 5828 H 543.124 -1.22545 -1.00839 0
M  V30 5829 H 543.145 -0.864731 -3.70544 0
M  V30 5830 H 542.657 -2.52466 -2.94759 0
M  V30 5831 H 540.758 -0.183487 -3.72148 0
M  V30 5832 H 540.871 -1.95036 -4.37604 0
M  V30 5833 H 539.235 -0.947726 -2.36411 0
M  V30 5834 H 540.018 -2.61343 -2.22609 0
M  V30 5835 N 542.463 1.3308 -0.844243 0
M  V30 5836 C 543.71 1.97605 -0.44255 0
M  V30 5837 C 544.038 1.66856 0.999458 0
M  V30 5838 O 543.293 0.943586 1.7145 0
M  V30 5839 C 543.592 3.52045 -0.616354 0
M  V30 5840 C 543.258 4.02757 -2.02726 0
M  V30 5841 C 541.92 4.16316 -2.41317 0
M  V30 5842 C 544.272 4.29776 -2.9486 0
M  V30 5843 C 541.6 4.54232 -3.71335 0
M  V30 5844 C 543.952 4.69146 -4.24364 0
M  V30 5845 C 542.616 4.80911 -4.62904 0
M  V30 5846 H 541.886 0.723088 -0.161941 0
M  V30 5847 H 544.533 1.58663 -1.0723 0
M  V30 5848 H 542.838 3.91681 0.0966812 0
M  V30 5849 H 544.535 3.99981 -0.285756 0
M  V30 5850 H 541.125 3.9268 -1.71756 0
M  V30 5851 H 545.309 4.18818 -2.6628 0
M  V30 5852 H 540.565 4.61535 -4.00993 0
M  V30 5853 H 544.739 4.89008 -4.95827 0
M  V30 5854 H 542.366 5.10048 -5.63698 0
M  V30 5855 N 543.941 0.601185 1.45683 0
M  V30 5856 C 545.171 0.0999093 2.06358 0
M  V30 5857 C 545.579 -1.21831 1.44754 0
M  V30 5858 O 544.922 -1.75157 0.553695 0
M  V30 5859 C 544.984 -0.12085 3.59297 0
M  V30 5860 C 544.648 1.11459 4.432 0
M  V30 5861 C 545.645 2.03118 4.7858 0
M  V30 5862 C 543.33 1.34162 4.84051 0
M  V30 5863 C 545.324 3.15814 5.53661 0
M  V30 5864 C 543.011 2.4716 5.58888 0
M  V30 5865 C 544.009 3.37814 5.93608 0
M  V30 5866 O 543.697 4.48846 6.66928 0
M  V30 5867 H 543.429 0.0630316 0.673055 0
M  V30 5868 H 545.983 0.826982 1.88016 0
M  V30 5869 H 544.213 -0.902744 3.76015 0
M  V30 5870 H 545.902 -0.572925 4.01836 0
M  V30 5871 H 546.668 1.86801 4.47583 0
M  V30 5872 H 542.547 0.645018 4.56465 0
M  V30 5873 H 546.091 3.86596 5.8068 0
M  V30 5874 H 541.988 2.63432 5.89299 0
M  V30 5875 H 542.756 4.47446 6.85371 0
M  V30 5876 N 545.419 -1.53889 0.339982 0
M  V30 5877 C 546.665 -2.01152 -0.258003 0
M  V30 5878 C 546.998 -1.22749 -1.50487 0
M  V30 5879 O 546.273 -0.314156 -1.91946 0
M  V30 5880 C 546.556 -3.55468 -0.575717 0
M  V30 5881 C 546.409 -4.44584 0.682996 0
M  V30 5882 C 547.728 -4.1768 -1.38677 0
M  V30 5883 H 544.847 -0.731198 -0.0922992 0
M  V30 5884 H 547.489 -1.84352 0.459814 0
M  V30 5885 H 545.639 -3.69914 -1.18725 0
M  V30 5886 H 547.311 -4.41981 1.32102 0
M  V30 5887 H 545.554 -4.13592 1.3086 0
M  V30 5888 H 546.225 -5.5043 0.416001 0
M  V30 5889 H 548.701 -4.0691 -0.869705 0
M  V30 5890 H 547.577 -5.25734 -1.57783 0
M  V30 5891 H 547.838 -3.72069 -2.38782 0
M  V30 5892 N 546.897 -0.0685191 -1.57451 0
M  V30 5893 C 548.125 0.610462 -1.97689 0
M  V30 5894 C 548.54 1.63346 -0.946758 0
M  V30 5895 O 547.897 1.82377 0.0669868 0
M  V30 5896 C 547.948 1.28196 -3.38006 0
M  V30 5897 O 547.669 0.299906 -4.37072 0
M  V30 5898 C 549.17 2.04907 -3.931 0
M  V30 5899 H 546.39 0.165689 -0.650222 0
M  V30 5900 H 548.934 -0.139953 -2.04021 0
M  V30 5901 H 547.089 1.98348 -3.32771 0
M  V30 5902 H 547.503 0.78126 -5.18649 0
M  V30 5903 H 548.977 2.47287 -4.93511 0
M  V30 5904 H 549.454 2.9043 -3.29465 0
M  V30 5905 H 550.06 1.39629 -4.01726 0
M  V30 5906 N 548.375 1.56261 0.205012 0
M  V30 5907 C 549.305 1.96779 1.257 0
M  V30 5908 C 550.286 0.838309 1.48008 0
M  V30 5909 O 551.471 1.10189 1.59913 0
M  V30 5910 C 548.601 2.29876 2.60335 0
M  V30 5911 C 547.555 3.45469 2.52656 0
M  V30 5912 C 546.881 3.64215 3.91473 0
M  V30 5913 C 548.181 4.79954 2.06014 0
M  V30 5914 H 549.875 2.84904 0.920338 0
M  V30 5915 H 547.421 1.37072 0.441277 0
M  V30 5916 H 549.374 2.56814 3.34102 0
M  V30 5917 H 548.098 1.38622 2.95722 0
M  V30 5918 H 546.757 3.18605 1.81345 0
M  V30 5919 H 546.405 2.70309 4.24196 0
M  V30 5920 H 546.105 4.41973 3.87213 0
M  V30 5921 H 547.629 3.93519 4.66878 0
M  V30 5922 H 549.043 5.05989 2.69533 0
M  V30 5923 H 547.44 5.61111 2.12777 0
M  V30 5924 H 548.51 4.74201 1.01297 0
M  V30 5925 N 549.853 -0.472356 1.50355 0
M  V30 5926 C 551.093 -1.23439 1.62918 0
M  V30 5927 C 551.457 -1.89284 0.321801 0
M  V30 5928 O 552.658 -2.66854 0.322852 0
M  V30 5929 C 550.929 -2.25119 2.7759 0
M  V30 5930 S 552.488 -3.10278 3.10279 0
M  V30 5931 H 549.306 -0.41911 0.574341 0
M  V30 5932 H 551.908 -0.531621 1.88133 0
M  V30 5933 H 550.612 -1.75324 3.71066 0
M  V30 5934 H 550.143 -3.00026 2.54457 0
M  V30 5935 H 552.158 -4.26257 2.54007 0
M  V30 5936 N 551.331 -1.39911 -0.725443 0
M  V30 5937 C 552.279 -1.39552 -1.86086 0
M  V30 5938 C 553.273 -0.277334 -1.67114 0
M  V30 5939 O 554.479 -0.447865 -1.74339 0
M  V30 5940 H 550.854 -0.435993 -0.612711 0
M  V30 5941 H 552.825 -2.35305 -1.83505 0
M  V30 5942 C 551.574 -1.26529 -3.2386 0
M  V30 5943 H 550.897 -2.11845 -3.3906 0
M  V30 5944 H 552.337 -1.30336 -4.03471 0
M  V30 5945 C 550.796 0.0254168 -3.3689 0
M  V30 5946 O 551.326 0.992048 -3.89257 0
M  V30 5947 N 549.532 0.0916528 -2.90455 0
M  V30 5948 H 549.079 -0.695675 -2.48028 0
M  V30 5949 H 549.037 0.954745 -2.99553 0
M  V30 5950 N 552.809 0.956637 -1.25245 0
M  V30 5951 C 553.757 2.0743 -1.0524 0
M  V30 5952 C 554.751 1.69392 0.0160725 0
M  V30 5953 O 555.957 1.7946 -0.139382 0
M  V30 5954 H 552.332 0.678921 -0.323373 0
M  V30 5955 H 554.303 2.2146 -1.99995 0
M  V30 5956 C 553.052 3.40872 -0.685702 0
M  V30 5957 H 552.375 3.70607 -1.49968 0
M  V30 5958 H 553.815 4.19939 -0.585415 0
M  V30 5959 C 552.274 3.31367 0.608082 0
M  V30 5960 O 552.804 3.66214 1.65076 0
M  V30 5961 N 551.01 2.84486 0.592955 0
M  V30 5962 H 550.557 2.56326 -0.25592 0
M  V30 5963 H 550.515 2.78509 1.45877 0
M  V30 5964 N 554.287 1.06798 1.15896 0
M  V30 5965 C 555.512 0.808739 1.90982 0
M  V30 5966 C 555.937 -0.6316 1.77179 0
M  V30 5967 O 555.295 -1.4407 1.10061 0
M  V30 5968 C 555.343 1.21468 3.39526 0
M  V30 5969 O 554.447 0.356562 4.10856 0
M  V30 5970 H 553.788 0.29512 0.594811 0
M  V30 5971 H 556.318 1.42513 1.46804 0
M  V30 5972 H 556.328 1.18844 3.90308 0
M  V30 5973 H 555.003 2.26379 3.48891 0
M  V30 5974 H 553.58 0.444808 3.70238 0
M  V30 5975 N 555.766 -1.3263 0.851289 0
M  V30 5976 C 556.713 -2.28952 0.291469 0
M  V30 5977 C 557.683 -1.54897 -0.599676 0
M  V30 5978 O 558.868 -1.83137 -0.535305 0
M  V30 5979 C 556.008 -3.41206 -0.516992 0
M  V30 5980 C 555.121 -4.30148 0.399566 0
M  V30 5981 C 554.256 -5.29527 -0.4212 0
M  V30 5982 C 553.295 -6.10112 0.492969 0
M  V30 5983 N 552.432 -7.01499 -0.290414 0
M  V30 5984 H 557.272 -2.76228 1.11813 0
M  V30 5985 H 554.809 -1.35907 0.562826 0
M  V30 5986 H 556.767 -4.05005 -1.00132 0
M  V30 5987 H 555.397 -2.9509 -1.30851 0
M  V30 5988 H 554.449 -3.66959 1.00227 0
M  V30 5989 H 555.761 -4.8649 1.1013 0
M  V30 5990 H 554.915 -5.98914 -0.968832 0
M  V30 5991 H 553.654 -4.73794 -1.15632 0
M  V30 5992 H 552.659 -5.39632 1.05251 0
M  V30 5993 H 553.884 -6.6793 1.22664 0
M  V30 5994 H 551.83 -6.48199 -1.00868 0
M  V30 5995 H 551.747 -7.55178 0.352354 0
M  V30 5996 H 553.015 -7.75176 -0.819882 0
M  V30 5997 N 557.244 -0.608902 -1.45362 0
M  V30 5998 C 558.174 0.0964526 -2.33301 0
M  V30 5999 C 559.155 0.857444 -1.46908 0
M  V30 6000 O 560.34 0.827735 -1.75676 0
M  V30 6001 C 557.47 1.09354 -3.29635 0
M  V30 6002 C 556.424 0.445676 -4.25673 0
M  V30 6003 C 555.75 1.5511 -5.11708 0
M  V30 6004 C 557.05 -0.633972 -5.18438 0
M  V30 6005 H 558.744 -0.637829 -2.92527 0
M  V30 6006 H 556.29 -0.308178 -1.40664 0
M  V30 6007 H 558.243 1.59556 -3.90025 0
M  V30 6008 H 556.967 1.85843 -2.6857 0
M  V30 6009 H 555.626 -0.0354897 -3.66583 0
M  V30 6010 H 555.274 2.30631 -4.4701 0
M  V30 6011 H 554.974 1.12311 -5.76767 0
M  V30 6012 H 556.498 2.05537 -5.74967 0
M  V30 6013 H 557.912 -0.215974 -5.72893 0
M  V30 6014 H 556.309 -0.983789 -5.91981 0
M  V30 6015 H 557.379 -1.51005 -4.60788 0
M  V30 6016 N 558.722 1.53707 -0.348139 0
M  V30 6017 C 560.133 1.86213 0.134797 0
M  V30 6018 C 560.484 1.26925 1.49614 0
M  V30 6019 O 559.609 0.584573 2.08355 0
M  V30 6020 C 560.204 3.37866 0.251371 0
M  V30 6021 C 558.763 3.70233 0.678543 0
M  V30 6022 C 557.91 2.76683 -0.184925 0
M  V30 6023 H 560.861 1.48204 -0.567571 0
M  V30 6024 H 560.882 3.64908 1.07806 0
M  V30 6025 H 560.394 3.80988 -0.739581 0
M  V30 6026 H 558.495 3.32659 1.67835 0
M  V30 6027 H 558.608 4.76836 0.465251 0
M  V30 6028 H 556.972 2.52374 0.343465 0
M  V30 6029 H 557.755 3.22635 -1.1731 0
M  V30 6030 N 560.2 0.0768682 1.57412 0
M  V30 6031 C 561.428 -0.59997 1.9801 0
M  V30 6032 C 561.843 -1.62842 0.955408 0
M  V30 6033 O 561.2 -1.8241 -0.057314 0
M  V30 6034 C 561.251 -1.26401 3.38681 0
M  V30 6035 O 560.972 -0.276723 4.37225 0
M  V30 6036 C 562.473 -2.0282 3.94182 0
M  V30 6037 H 559.693 -0.162239 0.651091 0
M  V30 6038 H 562.237 0.150771 2.03943 0
M  V30 6039 H 560.392 -1.96581 3.33819 0
M  V30 6040 H 560.806 -0.753744 5.19056 0
M  V30 6041 H 562.28 -2.44667 4.94815 0
M  V30 6042 H 562.757 -2.88678 3.31001 0
M  V30 6043 H 563.363 -1.37496 4.02461 0
M  V30 6044 N 561.678 -1.56367 -0.196722 0
M  V30 6045 C 562.925 -1.80529 -0.917366 0
M  V30 6046 C 563.253 -0.649817 -1.83324 0
M  V30 6047 O 562.508 0.36451 -1.92275 0
M  V30 6048 C 562.807 -3.10663 -1.767 0
M  V30 6049 C 562.473 -4.3962 -1.00225 0
M  V30 6050 C 561.135 -4.74653 -0.791095 0
M  V30 6051 C 563.487 -5.1913 -0.464035 0
M  V30 6052 C 560.815 -5.86692 -0.0302155 0
M  V30 6053 C 563.167 -6.31964 0.283625 0
M  V30 6054 C 561.831 -6.65581 0.505813 0
M  V30 6055 H 561.101 -0.660602 -0.335688 0
M  V30 6056 H 563.748 -1.90615 -0.183844 0
M  V30 6057 H 562.053 -2.95807 -2.56915 0
M  V30 6058 H 563.75 -3.26563 -2.32718 0
M  V30 6059 H 560.34 -4.12127 -1.17684 0
M  V30 6060 H 564.524 -4.9248 -0.614575 0
M  V30 6061 H 559.78 -6.11211 0.151917 0
M  V30 6062 H 563.954 -6.92791 0.708057 0
M  V30 6063 H 561.581 -7.52239 1.0973 0
M  V30 6064 N 563.156 0.464375 -1.50603 0
M  V30 6065 C 564.066 1.58723 -1.72754 0
M  V30 6066 C 565.082 1.62925 -0.610844 0
M  V30 6067 O 566.258 1.8067 -0.889963 0
M  V30 6068 C 563.323 2.94897 -1.82309 0
M  V30 6069 C 562.384 3.0103 -3.06071 0
M  V30 6070 C 561.617 4.30708 -3.1516 0
M  V30 6071 O 561.84 5.2159 -2.30868 0
M  V30 6072 O 560.774 4.42571 -4.0794 0
M  V30 6073 H 564.6 1.42954 -2.67951 0
M  V30 6074 H 562.185 0.644579 -1.3478 0
M  V30 6075 H 564.067 3.75764 -1.90735 0
M  V30 6076 H 562.742 3.10851 -0.902967 0
M  V30 6077 H 561.649 2.19217 -3.03142 0
M  V30 6078 H 562.982 2.90014 -3.97684 0
M  V30 6079 N 564.634 1.40294 0.718013 0
M  V30 6080 C 565.881 1.3844 1.47786 0
M  V30 6081 C 566.209 -0.0140838 1.94495 0
M  V30 6082 O 565.464 -0.998165 1.68331 0
M  V30 6083 C 565.763 2.31814 2.72024 0
M  V30 6084 C 565.429 3.79117 2.44093 0
M  V30 6085 C 564.091 4.19249 2.36185 0
M  V30 6086 C 566.443 4.72212 2.20602 0
M  V30 6087 C 563.771 5.50516 2.02851 0
M  V30 6088 C 566.123 6.03775 1.88781 0
M  V30 6089 C 564.787 6.42953 1.79354 0
M  V30 6090 H 564.057 0.506588 0.540786 0
M  V30 6091 H 566.704 1.72929 0.822663 0
M  V30 6092 H 565.009 1.90501 3.42369 0
M  V30 6093 H 566.706 2.27664 3.30106 0
M  V30 6094 H 563.296 3.47318 2.51133 0
M  V30 6095 H 567.48 4.42026 2.25669 0
M  V30 6096 H 562.736 5.79776 1.94088 0
M  V30 6097 H 566.91 6.75428 1.69617 0
M  V30 6098 H 564.537 7.44584 1.53291 0
M  V30 6099 N 566.112 -0.949982 1.2575 0
M  V30 6100 C 567.34 -1.72972 1.13527 0
M  V30 6101 C 567.755 -1.8623 -0.310453 0
M  V30 6102 O 567.112 -1.36336 -1.2132 0
M  V30 6103 C 567.163 -3.14108 1.78936 0
M  V30 6104 O 566.884 -3.01493 3.17858 0
M  V30 6105 C 568.385 -4.08338 1.72554 0
M  V30 6106 H 565.605 -0.541864 0.395758 0
M  V30 6107 H 568.149 -1.19151 1.66202 0
M  V30 6108 H 566.304 -3.64858 1.30221 0
M  V30 6109 H 566.718 -3.90559 3.50092 0
M  V30 6110 H 568.192 -5.04963 2.22973 0
M  V30 6111 H 568.669 -4.33742 0.690251 0
M  V30 6112 H 569.275 -3.63506 2.2078 0
M  V30 6113 N 567.59 -1.07411 -1.15328 0
M  V30 6114 C 568.815 -0.818856 -1.90551 0
M  V30 6115 C 569.24 0.622194 -1.77512 0
M  V30 6116 O 568.598 1.43484 -1.10824 0
M  V30 6117 C 568.646 -1.23267 -3.38877 0
M  V30 6118 O 567.75 -0.378345 -4.10661 0
M  V30 6119 H 567.091 -0.29827 -0.593238 0
M  V30 6120 H 569.621 -1.43289 -1.46046 0
M  V30 6121 H 569.631 -1.20912 -3.89672 0
M  V30 6122 H 568.306 -2.28226 -3.47686 0
M  V30 6123 H 566.883 -0.464437 -3.69996 0
M  V30 6124 N 569.068 1.32177 -0.85831 0
M  V30 6125 C 569.978 2.32561 -0.308606 0
M  V30 6126 C 570.994 1.64209 0.575462 0
M  V30 6127 O 572.17 1.95719 0.474961 0
M  V30 6128 C 569.235 3.43207 0.490909 0
M  V30 6129 C 568.296 4.27243 -0.419733 0
M  V30 6130 C 567.529 5.32605 0.341719 0
M  V30 6131 O 567.752 5.48332 1.57125 0
M  V30 6132 O 566.686 6.0118 -0.294379 0
M  V30 6133 H 570.512 2.81477 -1.14037 0
M  V30 6134 H 568.097 1.35866 -0.621349 0
M  V30 6135 H 569.979 4.10677 0.944574 0
M  V30 6136 H 568.654 2.96474 1.29941 0
M  V30 6137 H 567.561 3.62569 -0.921652 0
M  V30 6138 H 568.894 4.7751 -1.19352 0
M  V30 6139 N 570.547 0.616602 1.45037 0
M  V30 6140 C 571.495 -0.109318 2.32343 0
M  V30 6141 C 572.489 -0.850543 1.465 0
M  V30 6142 O 573.695 -0.765088 1.62931 0
M  V30 6143 H 570.07 -0.0541091 0.750051 0
M  V30 6144 H 572.041 0.645326 2.91338 0
M  V30 6145 C 570.79 -1.0872 3.30266 0
M  V30 6146 H 570.113 -0.526267 3.96321 0
M  V30 6147 H 571.553 -1.56489 3.94065 0
M  V30 6148 C 570.012 -2.16525 2.58105 0
M  V30 6149 O 570.542 -3.244 2.36913 0
M  V30 6150 N 568.748 -1.92057 2.18088 0
M  V30 6151 H 568.295 -1.04337 2.35524 0
M  V30 6152 H 568.253 -2.64391 1.70131 0
M  V30 6153 N 572.025 -1.5352 0.356285 0
M  V30 6154 C 573.273 -2.00719 -0.235837 0
M  V30 6155 C 573.594 -1.24551 -1.5004 0
M  V30 6156 O 572.864 -0.356185 -1.92635 0
M  V30 6157 H 571.444 -0.741542 -0.0901366 0
M  V30 6158 H 574.106 -1.88887 0.480378 0
M  V30 6159 H 573.202 -3.08551 -0.469357 0
M  V30 6160 N 573.503 -0.0852151 -1.57369 0
M  V30 6161 C 574.45 0.877268 -2.13478 0
M  V30 6162 C 575.42 1.28642 -1.05073 0
M  V30 6163 O 576.605 1.36992 -1.32808 0
M  V30 6164 C 573.745 2.13464 -2.71159 0
M  V30 6165 C 572.858 1.77691 -3.93764 0
M  V30 6166 C 571.993 2.98139 -4.39643 0
M  V30 6167 C 571.032 2.58447 -5.54862 0
M  V30 6168 N 570.169 3.71698 -5.95639 0
M  V30 6169 H 575.009 0.391933 -2.95411 0
M  V30 6170 H 572.546 0.181796 -1.45972 0
M  V30 6171 H 574.504 2.87086 -3.02717 0
M  V30 6172 H 573.134 2.59514 -1.91969 0
M  V30 6173 H 572.186 0.940768 -3.68583 0
M  V30 6174 H 573.498 1.44497 -4.77412 0
M  V30 6175 H 572.652 3.80026 -4.72933 0
M  V30 6176 H 571.391 3.34536 -3.54876 0
M  V30 6177 H 570.396 1.74984 -5.21211 0
M  V30 6178 H 571.621 2.23205 -6.41371 0
M  V30 6179 H 569.567 4.07831 -5.13819 0
M  V30 6180 H 569.484 3.42317 -6.74059 0
M  V30 6181 H 570.752 4.54123 -6.33555 0
M  V30 6182 N 574.981 1.5647 0.188427 0
M  V30 6183 C 576.211 1.84863 0.922463 0
M  V30 6184 C 576.619 0.666413 1.77075 0
M  V30 6185 O 575.962 -0.374044 1.79852 0
M  V30 6186 C 576.024 3.07447 1.86324 0
M  V30 6187 C 575.688 4.41066 1.19625 0
M  V30 6188 C 576.685 5.16767 0.569946 0
M  V30 6189 C 574.37 4.87802 1.19811 0
M  V30 6190 C 576.364 6.37384 -0.045594 0
M  V30 6191 C 574.051 6.08353 0.57874 0
M  V30 6192 C 575.049 6.82987 -0.0420259 0
M  V30 6193 O 574.737 8.01254 -0.651675 0
M  V30 6194 H 574.469 0.61784 0.274316 0
M  V30 6195 H 577.023 2.04437 0.198613 0
M  V30 6196 H 575.253 2.83774 2.62696 0
M  V30 6197 H 576.942 3.2243 2.46564 0
M  V30 6198 H 577.708 4.81749 0.560601 0
M  V30 6199 H 573.587 4.29662 1.67069 0
M  V30 6200 H 577.131 6.95578 -0.530731 0
M  V30 6201 H 573.028 6.42838 0.58561 0
M  V30 6202 H 573.796 8.16655 -0.549236 0
M  V30 6203 N 576.459 -0.456382 1.50847 0
M  V30 6204 C 577.687 -1.23026 1.66349 0
M  V30 6205 C 578.102 -1.85473 0.352868 0
M  V30 6206 O 577.459 -1.69885 -0.666739 0
M  V30 6207 C 577.51 -2.32827 2.76539 0
M  V30 6208 O 577.231 -1.72938 4.02522 0
M  V30 6209 C 578.732 -3.23448 3.03144 0
M  V30 6210 H 575.952 -0.371527 0.558756 0
M  V30 6211 H 578.496 -0.543082 1.97157 0
M  V30 6212 H 576.651 -2.97294 2.48384 0
M  V30 6213 H 577.065 -2.45357 4.63573 0
M  V30 6214 H 578.539 -3.96669 3.83872 0
M  V30 6215 H 579.016 -3.83094 2.14793 0
M  V30 6216 H 579.622 -2.64702 3.32886 0
M  V30 6217 N 577.937 -1.40673 -0.710563 0
M  V30 6218 C 578.867 -1.44095 -1.83736 0
M  V30 6219 C 579.848 -0.301286 -1.67411 0
M  V30 6220 O 581.033 -0.510618 -1.87367 0
M  V30 6221 C 578.163 -1.30773 -3.21738 0
M  V30 6222 C 577.117 -2.42395 -3.52745 0
M  V30 6223 C 576.443 -2.14147 -4.89944 0
M  V30 6224 C 577.743 -3.84738 -3.53234 0
M  V30 6225 H 579.437 -2.38396 -1.81129 0
M  V30 6226 H 576.983 -1.14746 -0.870017 0
M  V30 6227 H 578.936 -1.31783 -4.00264 0
M  V30 6228 H 577.66 -0.329507 -3.24934 0
M  V30 6229 H 576.319 -2.40643 -2.76562 0
M  V30 6230 H 575.967 -1.14703 -4.89747 0
M  V30 6231 H 575.667 -2.88934 -5.11655 0
M  V30 6232 H 577.191 -2.16848 -5.70797 0
M  V30 6233 H 578.605 -3.88286 -4.2179 0
M  V30 6234 H 577.002 -4.59085 -3.86473 0
M  V30 6235 H 578.072 -4.13962 -2.52514 0
M  V30 6236 N 579.415 0.9433 -1.26252 0
M  V30 6237 C 580.325 2.07532 -1.09397 0
M  V30 6238 C 581.341 1.73977 -0.0280449 0
M  V30 6239 O 582.517 2.00067 -0.231337 0
M  V30 6240 C 579.582 3.39002 -0.726523 0
M  V30 6241 C 578.643 3.86353 -1.87163 0
M  V30 6242 C 577.876 5.11549 -1.52162 0
M  V30 6243 O 578.099 5.68834 -0.422385 0
M  V30 6244 O 577.033 5.53889 -2.35565 0
M  V30 6245 H 580.859 2.24658 -2.04359 0
M  V30 6246 H 578.444 1.05988 -1.05295 0
M  V30 6247 H 580.326 4.18 -0.534236 0
M  V30 6248 H 579.001 3.2312 0.193721 0
M  V30 6249 H 577.908 3.0831 -2.11886 0
M  V30 6250 H 579.241 4.06752 -2.77152 0
M  V30 6251 N 580.893 1.08022 1.14757 0
M  V30 6252 C 582.304 0.829144 1.67279 0
M  V30 6253 C 582.655 -0.644721 1.85305 0
M  V30 6254 O 581.78 -1.49838 1.56133 0
M  V30 6255 C 582.375 1.49855 3.03857 0
M  V30 6256 C 580.934 1.29482 3.53428 0
M  V30 6257 C 580.081 1.56386 2.28995 0
M  V30 6258 H 583.032 1.24134 0.988762 0
M  V30 6259 H 583.053 0.923572 3.69121 0
M  V30 6260 H 582.565 2.57123 2.90705 0
M  V30 6261 H 580.666 0.242669 3.71809 0
M  V30 6262 H 580.779 2.01974 4.34446 0
M  V30 6263 H 579.143 0.985217 2.34874 0
M  V30 6264 H 579.926 2.64851 2.18423 0
M  V30 6265 N 582.371 -1.3172 0.865308 0
M  V30 6266 C 583.281 -2.32394 0.320935 0
M  V30 6267 C 584.297 -1.64511 -0.566746 0
M  V30 6268 O 585.473 -1.95969 -0.464575 0
M  V30 6269 C 582.538 -3.43462 -0.472701 0
M  V30 6270 C 581.599 -4.27015 0.442385 0
M  V30 6271 C 580.832 -5.32779 -0.313469 0
M  V30 6272 O 581.055 -5.49158 -1.54214 0
M  V30 6273 O 579.989 -6.01015 0.326257 0
M  V30 6274 H 583.815 -2.80868 1.15528 0
M  V30 6275 H 581.4 -1.35535 0.628545 0
M  V30 6276 H 583.282 -4.11172 -0.922781 0
M  V30 6277 H 581.957 -2.97159 -1.28367 0
M  V30 6278 H 580.864 -3.62075 0.940866 0
M  V30 6279 H 582.197 -4.76871 1.21882 0
M  V30 6280 N 583.85 -0.624285 -1.44708 0
M  V30 6281 C 585.08 -0.132726 -2.06173 0
M  V30 6282 C 585.488 1.19513 -1.46674 0
M  V30 6283 O 584.831 1.74254 -0.581491 0
M  V30 6284 C 584.893 0.0636732 -3.59444 0
M  V30 6285 C 584.557 -1.18496 -4.4137 0
M  V30 6286 C 585.553 -2.10706 -4.75288 0
M  V30 6287 C 583.239 -1.41846 -4.81856 0
M  V30 6288 C 585.233 -3.24582 -5.48567 0
M  V30 6289 C 582.92 -2.5602 -5.54885 0
M  V30 6290 C 583.918 -3.47215 -5.88159 0
M  V30 6291 O 583.606 -4.59399 -6.59703 0
M  V30 6292 H 583.338 -0.0737313 -0.671967 0
M  V30 6293 H 585.892 -0.856789 -1.86677 0
M  V30 6294 H 584.122 0.842809 -3.77404 0
M  V30 6295 H 585.811 0.508924 -4.02697 0
M  V30 6296 H 586.577 -1.93898 -4.44554 0
M  V30 6297 H 582.456 -0.717556 -4.55381 0
M  V30 6298 H 586 -3.95785 -5.74456 0
M  V30 6299 H 581.897 -2.72774 -5.85034 0
M  V30 6300 H 582.665 -4.58293 -6.78166 0
M  V30 6301 N 585.328 1.53329 -0.364422 0
M  V30 6302 C 586.558 2.05359 0.226096 0
M  V30 6303 C 586.966 1.23777 1.43094 0
M  V30 6304 O 586.309 0.271139 1.81688 0
M  V30 6305 C 586.371 3.52918 0.684794 0
M  V30 6306 C 586.035 4.55218 -0.403206 0
M  V30 6307 C 587.032 5.04583 -1.2527 0
M  V30 6308 C 584.717 4.99134 -0.563117 0
M  V30 6309 C 586.711 5.96463 -2.24745 0
M  V30 6310 C 584.398 5.9082 -1.56124 0
M  V30 6311 C 585.396 6.39375 -2.40184 0
M  V30 6312 O 585.084 7.29255 -3.38293 0
M  V30 6313 H 584.816 0.674588 0.0436772 0
M  V30 6314 H 587.37 1.98688 -0.520782 0
M  V30 6315 H 585.6 3.57122 1.48326 0
M  V30 6316 H 587.289 3.87812 1.19818 0
M  V30 6317 H 588.055 4.71403 -1.14034 0
M  V30 6318 H 583.934 4.60928 0.0813909 0
M  V30 6319 H 587.478 6.34285 -2.90393 0
M  V30 6320 H 583.375 6.23414 -1.67407 0
M  V30 6321 H 584.143 7.47249 -3.34009 0
M  V30 6322 N 586.806 0.0935595 1.57322 0
M  V30 6323 C 587.736 -0.863062 2.16964 0
M  V30 6324 C 588.717 -1.29528 1.10256 0
M  V30 6325 O 589.902 -1.36245 1.38387 0
M  V30 6326 C 587.032 -2.12276 2.74875 0
M  V30 6327 C 585.986 -1.82921 3.86942 0
M  V30 6328 C 585.312 -3.15707 4.31548 0
M  V30 6329 C 586.612 -1.11737 5.10208 0
M  V30 6330 H 588.306 -0.366145 2.97153 0
M  V30 6331 H 585.852 -0.174673 1.42937 0
M  V30 6332 H 587.805 -2.79634 3.1525 0
M  V30 6333 H 586.529 -2.64248 1.91938 0
M  V30 6334 H 585.188 -1.17961 3.47103 0
M  V30 6335 H 584.836 -3.65563 3.45504 0
M  V30 6336 H 584.536 -2.96849 5.07104 0
M  V30 6337 H 586.06 -3.84226 4.74555 0
M  V30 6338 H 587.474 -1.69203 5.47762 0
M  V30 6339 H 585.871 -1.03064 5.91183 0
M  V30 6340 H 586.941 -0.0998818 4.84797 0
M  V30 6341 N 588.284 -1.56567 -0.180126 0
M  V30 6342 C 589.216 -1.92275 -1.24751 0
M  V30 6343 C 590.229 -0.814922 -1.40936 0
M  V30 6344 O 591.418 -1.09336 -1.41095 0
M  V30 6345 C 588.518 -2.15265 -2.61752 0
M  V30 6346 C 587.691 -3.46467 -2.66981 0
M  V30 6347 C 586.75 -3.58391 -3.85283 0
M  V30 6348 O 585.776 -4.31086 -3.7169 0
M  V30 6349 N 586.978 -2.92587 -5.01371 0
M  V30 6350 H 589.743 -2.84435 -0.944302 0
M  V30 6351 H 587.304 -1.57617 -0.369952 0
M  V30 6352 H 589.296 -2.20515 -3.39345 0
M  V30 6353 H 587.866 -1.29533 -2.845 0
M  V30 6354 H 587.086 -3.52953 -1.75549 0
M  V30 6355 H 588.374 -4.32819 -2.67479 0
M  V30 6356 H 587.772 -2.3338 -5.15316 0
M  V30 6357 H 586.329 -3.03444 -5.76858 0
M  V30 6358 N 589.762 0.448376 -1.51087 0
M  V30 6359 C 590.712 1.54156 -1.67988 0
M  V30 6360 C 591.696 1.5178 -0.534015 0
M  V30 6361 O 592.888 1.58419 -0.789448 0
M  V30 6362 C 590.017 2.92437 -1.79822 0
M  V30 6363 C 589.103 2.99611 -3.00157 0
M  V30 6364 N 589.494 2.7655 -4.23502 0
M  V30 6365 C 587.792 3.30764 -2.99184 0
M  V30 6366 C 588.493 2.89281 -5.0467 0
M  V30 6367 N 587.469 3.20473 -4.39088 0
M  V30 6368 H 591.271 1.35061 -2.61028 0
M  V30 6369 H 588.785 0.655504 -1.48583 0
M  V30 6370 H 590.782 3.71068 -1.90037 0
M  V30 6371 H 589.442 3.1256 -0.879554 0
M  V30 6372 H 590.453 2.5169 -4.52628 0
M  V30 6373 H 587.13 3.56732 -2.16907 0
M  V30 6374 H 588.52 2.75499 -6.12821 0
M  V30 6375 N 591.24 1.41047 0.703093 0
M  V30 6376 C 592.489 1.39301 1.4587 0
M  V30 6377 C 592.802 0.00267077 1.956 0
M  V30 6378 O 594.008 -0.137414 2.71152 0
M  V30 6379 C 592.464 2.44891 2.63735 0
M  V30 6380 C 592.072 3.89796 2.20824 0
M  V30 6381 C 593.816 2.5227 3.41409 0
M  V30 6382 C 591.723 4.86955 3.35602 0
M  V30 6383 H 590.653 0.518005 0.547893 0
M  V30 6384 H 593.304 1.66839 0.764009 0
M  V30 6385 H 591.686 2.10472 3.35436 0
M  V30 6386 H 592.86 4.33424 1.56461 0
M  V30 6387 H 591.175 3.86008 1.56163 0
M  V30 6388 H 593.772 3.22044 4.26839 0
M  V30 6389 H 594.115 1.55714 3.86081 0
M  V30 6390 H 594.648 2.85742 2.7676 0
M  V30 6391 H 591.387 5.84888 2.9595 0
M  V30 6392 H 590.907 4.47982 3.98839 0
M  V30 6393 H 592.586 5.07361 4.01489 0
M  V30 6394 N 592.718 -0.936591 1.26751 0
M  V30 6395 C 593.628 -2.06949 1.10496 0
M  V30 6396 C 594.644 -1.7396 0.037271 0
M  V30 6397 O 595.82 -1.99941 0.241944 0
M  V30 6398 C 592.885 -3.38612 0.744491 0
M  V30 6399 C 591.946 -3.85355 1.89209 0
M  V30 6400 C 591.179 -5.10735 1.54873 0
M  V30 6401 O 591.402 -5.68602 0.452546 0
M  V30 6402 O 590.336 -5.52632 2.38499 0
M  V30 6403 H 594.162 -2.23571 2.05547 0
M  V30 6404 H 591.747 -1.05428 1.05855 0
M  V30 6405 H 593.629 -4.17711 0.556396 0
M  V30 6406 H 592.304 -3.23218 -0.176582 0
M  V30 6407 H 591.211 -3.07182 2.13518 0
M  V30 6408 H 592.544 -4.05277 2.79305 0
M  V30 6409 N 594.196 -1.08629 -1.14182 0
M  V30 6410 C 595.473 -0.73002 -1.81466 0
M  V30 6411 C 595.853 0.785996 -1.95922 0
M  V30 6412 O 595.201 1.70535 -1.52086 0
M  V30 6413 C 595.411 -1.45957 -3.17014 0
M  V30 6414 C 596.759 -1.62008 -3.92477 0
M  V30 6415 O 597.783 -1.42141 -3.26611 0
M  V30 6416 O 596.642 -1.94806 -5.106 0
M  V30 6417 H 593.736 -0.261307 -0.784632 0
M  V30 6418 H 596.282 -1.188 -1.2118 0
M  V30 6419 H 595.054 -2.49221 -3.01669 0
M  V30 6420 H 594.677 -0.993222 -3.84995 0
M  V30 6421 N 595.674 1.31259 -0.872281 0
M  V30 6422 C 596.92 1.96913 -0.485083 0
M  V30 6423 C 597.253 1.68774 0.960667 0
M  V30 6424 O 596.528 0.985495 1.67685 0
M  V30 6425 C 596.811 3.52299 -0.745502 0
M  V30 6426 C 596.664 3.90002 -2.24095 0
M  V30 6427 C 597.983 4.39582 -0.213516 0
M  V30 6428 H 595.102 0.715252 -0.177716 0
M  V30 6429 H 597.744 1.55347 -1.09395 0
M  V30 6430 H 595.894 3.87835 -0.227276 0
M  V30 6431 H 597.566 3.64555 -2.82661 0
M  V30 6432 H 595.809 3.38526 -2.71261 0
M  V30 6433 H 596.48 4.98352 -2.37381 0
M  V30 6434 H 598.956 4.10882 -0.656902 0
M  V30 6435 H 597.832 5.47251 -0.42516 0
M  V30 6436 H 598.093 4.33158 0.884666 0
M  V30 6437 N 597.152 0.631951 1.44375 0
M  V30 6438 C 598.4 0.136497 2.01639 0
M  V30 6439 C 598.721 -1.24637 1.49969 0
M  V30 6440 O 597.991 -1.82827 0.70363 0
M  V30 6441 H 596.571 0.0474703 0.74549 0
M  V30 6442 H 599.233 0.818837 1.76865 0
M  V30 6443 H 598.329 0.104817 3.11924 0
M  V30 6444 N 598.631 -1.53133 0.372548 0
M  V30 6445 C 600.042 -1.86404 -0.105155 0
M  V30 6446 C 600.393 -1.29289 -1.47576 0
M  V30 6447 O 599.518 -0.617646 -2.07398 0
M  V30 6448 C 600.113 -3.38223 -0.197588 0
M  V30 6449 C 598.672 -3.71266 -0.619556 0
M  V30 6450 C 597.819 -2.76353 0.228919 0
M  V30 6451 H 600.77 -1.47282 0.591077 0
M  V30 6452 H 600.791 -3.66577 -1.01987 0
M  V30 6453 H 600.303 -3.79763 0.800099 0
M  V30 6454 H 598.404 -3.35287 -1.62522 0
M  V30 6455 H 598.517 -4.77515 -0.389332 0
M  V30 6456 H 596.881 -2.52888 -0.303271 0
M  V30 6457 H 597.664 -3.20728 1.22428 0
M  V30 6458 N 600.109 -0.101901 -1.5727 0
M  V30 6459 C 601.357 0.559091 -1.94213 0
M  V30 6460 C 601.678 1.68297 -0.984948 0
M  V30 6461 O 600.948 1.95863 -0.0381975 0
M  V30 6462 H 599.528 0.20952 -0.717015 0
M  V30 6463 H 602.19 -0.166831 -1.94185 0
M  V30 6464 H 601.286 0.96485 -2.96811 0
M  V30 6465 N 601.587 1.56661 0.17182 0
M  V30 6466 C 602.517 1.99401 1.21498 0
M  V30 6467 C 603.498 0.869516 1.46197 0
M  V30 6468 O 604.683 1.13556 1.57539 0
M  V30 6469 C 601.813 2.35346 2.55401 0
M  V30 6470 C 600.767 3.5075 2.45272 0
M  V30 6471 C 600.093 3.72437 3.8366 0
M  V30 6472 C 601.393 4.84216 1.95787 0
M  V30 6473 H 603.087 2.86792 0.859699 0
M  V30 6474 H 600.633 1.37977 0.412103 0
M  V30 6475 H 602.586 2.63843 3.2858 0
M  V30 6476 H 601.31 1.44864 2.92715 0
M  V30 6477 H 599.969 3.2238 1.74547 0
M  V30 6478 H 599.617 2.79246 4.18367 0
M  V30 6479 H 599.317 4.50087 3.77751 0
M  V30 6480 H 600.841 4.03334 4.58426 0
M  V30 6481 H 602.255 5.11592 2.5874 0
M  V30 6482 H 600.652 5.65498 2.00827 0
M  V30 6483 H 601.722 4.76243 0.912159 0
M  V30 6484 N 603.065 -0.440357 1.51323 0
M  V30 6485 C 604.305 -1.19956 1.65499 0
M  V30 6486 C 604.669 -1.88559 0.361878 0
M  V30 6487 O 605.87 -2.66109 0.379383 0
M  V30 6488 C 604.141 -2.1918 2.82303 0
M  V30 6489 S 605.7 -3.03627 3.1679 0
M  V30 6490 H 602.518 -0.406833 0.583102 0
M  V30 6491 H 605.12 -0.491596 1.89218 0
M  V30 6492 H 603.824 -1.67414 3.74701 0
M  V30 6493 H 603.355 -2.94561 2.60763 0
M  V30 6494 H 605.37 -4.20773 2.62991 0
M  V30 6495 N 604.543 -1.41418 -0.695603 0
M  V30 6496 C 605.476 -1.3768 -1.81988 0
M  V30 6497 C 606.454 -0.244061 -1.60758 0
M  V30 6498 O 607.638 -0.430965 -1.83507 0
M  V30 6499 C 604.765 -1.1476 -3.18666 0
M  V30 6500 C 603.811 -2.30752 -3.58686 0
M  V30 6501 S 604.644 -3.9323 -3.63498 0
M  V30 6502 C 605.8 -3.72613 -5.02902 0
M  V30 6503 H 606.033 -2.32822 -1.84882 0
M  V30 6504 H 603.566 -1.27942 -0.86431 0
M  V30 6505 H 605.524 -1.02223 -3.97569 0
M  V30 6506 H 604.185 -0.212385 -3.13381 0
M  V30 6507 H 603.378 -2.10409 -4.57978 0
M  V30 6508 H 602.98 -2.39696 -2.87092 0
M  V30 6509 H 605.272 -3.32317 -5.904 0
M  V30 6510 H 606.215 -4.71507 -5.28286 0
M  V30 6511 H 606.623 -3.0589 -4.74438 0
M  V30 6512 N 606.021 0.929856 -1.27246 0
M  V30 6513 C 606.951 2.04722 -1.12299 0
M  V30 6514 C 607.932 1.70082 -0.0250464 0
M  V30 6515 O 609.117 1.93176 -0.199141 0
M  V30 6516 C 606.247 3.38721 -0.767145 0
M  V30 6517 C 605.201 3.87466 -1.81808 0
M  V30 6518 C 604.527 5.18246 -1.31626 0
M  V30 6519 C 605.827 4.11095 -3.22177 0
M  V30 6520 H 607.521 2.17485 -2.05769 0
M  V30 6521 H 605.067 1.04503 -0.990715 0
M  V30 6522 H 607.02 4.16366 -0.649413 0
M  V30 6523 H 605.744 3.25967 0.203259 0
M  V30 6524 H 604.403 3.12012 -1.92468 0
M  V30 6525 H 604.051 5.01881 -0.335378 0
M  V30 6526 H 603.751 5.51829 -2.01887 0
M  V30 6527 H 605.275 5.98462 -1.21143 0
M  V30 6528 H 606.689 4.79316 -3.1453 0
M  V30 6529 H 605.086 4.55982 -3.90129 0
M  V30 6530 H 606.156 3.16468 -3.67391 0
M  V30 6531 N 607.499 1.09233 1.13605 0
M  V30 6532 C 608.447 0.724572 2.21027 0
M  V30 6533 C 609.441 -0.273595 1.67176 0
M  V30 6534 O 610.647 -0.135266 1.79491 0
M  V30 6535 H 607.022 0.216319 0.720215 0
M  V30 6536 H 608.993 1.63975 2.49309 0
M  V30 6537 C 607.742 0.159126 3.47336 0
M  V30 6538 H 607.065 0.918387 3.89109 0
M  V30 6539 H 608.505 -0.0602851 4.23957 0
M  V30 6540 C 606.964 -1.10514 3.18258 0
M  V30 6541 O 607.494 -2.18869 3.36837 0
M  V30 6542 N 605.7 -1.01886 2.72154 0
M  V30 6543 H 605.247 -0.137027 2.57235 0
M  V30 6544 H 605.205 -1.8655 2.53074 0
M  V30 6545 N 608.977 -1.30795 0.87923 0
M  V30 6546 C 610.226 -1.95636 0.490875 0
M  V30 6547 C 610.539 -1.70214 -0.963674 0
M  V30 6548 O 611.745 -2.28991 -1.45861 0
M  V30 6549 C 610.201 -3.50271 0.826929 0
M  V30 6550 C 609.809 -3.84521 2.29886 0
M  V30 6551 C 611.553 -4.21456 0.507494 0
M  V30 6552 C 609.46 -5.32309 2.57685 0
M  V30 6553 H 608.39 -0.732238 0.179841 0
M  V30 6554 H 611.041 -1.48829 1.07341 0
M  V30 6555 H 609.423 -3.9562 0.173542 0
M  V30 6556 H 610.597 -3.50102 2.99609 0
M  V30 6557 H 608.912 -3.26425 2.58526 0
M  V30 6558 H 611.509 -5.30199 0.692293 0
M  V30 6559 H 611.852 -4.12614 -0.552718 0
M  V30 6560 H 612.385 -3.81772 1.11782 0
M  V30 6561 H 609.124 -5.46195 3.62424 0
M  V30 6562 H 608.644 -5.68048 1.92566 0
M  V30 6563 H 610.323 -5.99678 2.42889 0
M  V30 6564 N 610.455 -0.639598 -1.44038 0
M  V30 6565 C 611.704 -0.144885 -2.01179 0
M  V30 6566 C 612.017 1.24372 -1.50967 0
M  V30 6567 O 613.223 1.83291 -2.00292 0
M  V30 6568 C 611.679 -0.208244 -3.59297 0
M  V30 6569 C 611.287 -1.59869 -4.18504 0
M  V30 6570 C 613.031 0.229568 -4.23879 0
M  V30 6571 C 610.938 -1.61671 -5.68873 0
M  V30 6572 H 609.868 -0.0504005 -0.752314 0
M  V30 6573 H 612.519 -0.799639 -1.65161 0
M  V30 6574 H 610.901 0.513767 -3.92653 0
M  V30 6575 H 612.075 -2.34496 -3.96671 0
M  V30 6576 H 610.39 -1.98131 -3.66242 0
M  V30 6577 H 612.987 0.235758 -5.3418 0
M  V30 6578 H 613.33 1.25848 -3.96822 0
M  V30 6579 H 613.863 -0.440233 -3.95357 0
M  V30 6580 H 610.602 -2.62427 -6.00677 0
M  V30 6581 H 610.122 -0.913489 -5.92803 0
M  V30 6582 H 611.801 -1.35439 -6.32665 0
M  V30 6583 N 611.933 1.52934 -0.380664 0
M  V30 6584 C 613.181 2.01069 0.203874 0
M  V30 6585 C 613.502 1.26922 1.4804 0
M  V30 6586 O 612.772 0.386787 1.92044 0
M  V30 6587 H 611.352 0.742882 0.0783279 0
M  V30 6588 H 614.014 1.88099 -0.510368 0
M  V30 6589 H 613.11 3.09258 0.42021 0
M  V30 6590 N 613.412 0.11024 1.57214 0
M  V30 6591 C 614.342 -0.840002 2.17867 0
M  V30 6592 C 615.323 -1.28352 1.11624 0
M  V30 6593 O 616.508 -1.3477 1.39824 0
M  V30 6594 C 613.638 -2.09349 2.77111 0
M  V30 6595 C 612.592 -1.78807 3.8886 0
M  V30 6596 C 611.918 -3.11112 4.34872 0
M  V30 6597 C 613.218 -1.0632 5.11364 0
M  V30 6598 H 614.912 -0.334608 2.97524 0
M  V30 6599 H 612.458 -0.159502 1.43114 0
M  V30 6600 H 614.411 -2.76275 3.18198 0
M  V30 6601 H 613.135 -2.62198 1.9473 0
M  V30 6602 H 611.794 -1.14273 3.48335 0
M  V30 6603 H 611.442 -3.61877 3.49362 0
M  V30 6604 H 611.142 -2.91453 5.10224 0
M  V30 6605 H 612.666 -3.79171 4.78604 0
M  V30 6606 H 614.08 -1.63383 5.49526 0
M  V30 6607 H 612.477 -0.967876 5.92243 0
M  V30 6608 H 613.547 -0.0484569 4.84876 0
M  V30 6609 N 614.89 -1.56749 -0.16351 0
M  V30 6610 C 616.167 -1.73321 -0.906599 0
M  V30 6611 C 616.547 -0.673779 -2.00059 0
M  V30 6612 O 615.895 0.310121 -2.26386 0
M  V30 6613 C 616.105 -3.168 -1.46419 0
M  V30 6614 C 617.453 -3.77993 -1.93407 0
M  V30 6615 O 618.477 -3.20127 -1.56196 0
M  V30 6616 O 617.336 -4.79615 -2.61976 0
M  V30 6617 H 614.43 -0.708073 -0.427272 0
M  V30 6618 H 616.976 -1.69029 -0.150727 0
M  V30 6619 H 615.748 -3.85396 -0.677189 0
M  V30 6620 H 615.371 -3.2545 -2.28403 0
M  V30 6621 N 616.368 0.432326 -1.51554 0
M  V30 6622 C 617.615 1.18134 -1.64471 0
M  V30 6623 C 617.943 1.91076 -0.363349 0
M  V30 6624 O 617.198 1.84492 0.65279 0
M  V30 6625 C 617.497 2.21907 -2.80164 0
M  V30 6626 C 617.163 1.65941 -4.19255 0
M  V30 6627 C 615.825 1.50401 -4.57092 0
M  V30 6628 C 618.177 1.24843 -5.06027 0
M  V30 6629 C 615.505 0.922443 -5.79403 0
M  V30 6630 C 617.857 0.68113 -6.28922 0
M  V30 6631 C 616.521 0.512673 -6.65528 0
M  V30 6632 H 615.791 0.432283 -0.601841 0
M  V30 6633 H 618.438 0.471701 -1.856 0
M  V30 6634 H 616.743 2.98928 -2.53277 0
M  V30 6635 H 618.44 2.79691 -2.87357 0
M  V30 6636 H 615.03 1.79014 -3.89425 0
M  V30 6637 H 619.214 1.35667 -4.77397 0
M  V30 6638 H 614.47 0.779733 -6.06408 0
M  V30 6639 H 618.644 0.35418 -6.95499 0
M  V30 6640 H 616.271 0.0599084 -7.60176 0
M  V30 6641 N 617.846 1.41785 0.688094 0
M  V30 6642 C 619.257 1.3701 1.26828 0
M  V30 6643 C 619.608 0.056835 1.96118 0
M  V30 6644 O 618.733 -0.84475 1.99231 0
M  V30 6645 C 619.328 2.48168 2.30648 0
M  V30 6646 C 617.887 2.46766 2.84224 0
M  V30 6647 C 617.034 2.27633 1.58361 0
M  V30 6648 H 619.985 1.51192 0.482351 0
M  V30 6649 H 620.006 2.17655 3.121 0
M  V30 6650 H 619.518 3.43735 1.80188 0
M  V30 6651 H 617.619 1.54978 3.3884 0
M  V30 6652 H 617.732 3.43342 3.34145 0
M  V30 6653 H 616.096 1.75648 1.84445 0
M  V30 6654 H 616.879 3.25238 1.09887 0
M  V30 6655 N 619.324 -0.923095 1.27737 0
M  V30 6656 C 620.57 -1.67375 1.14514 0
M  V30 6657 C 620.903 -1.91751 -0.307424 0
M  V30 6658 O 620.178 -1.51119 -1.22447 0
M  V30 6659 C 620.461 -3.03745 1.9342 0
M  V30 6660 C 620.314 -2.86581 3.46686 0
M  V30 6661 C 621.633 -4.04144 1.74228 0
M  V30 6662 H 618.752 -0.607427 0.417374 0
M  V30 6663 H 621.394 -1.07089 1.56946 0
M  V30 6664 H 619.544 -3.55204 1.5736 0
M  V30 6665 H 621.216 -2.42203 3.92601 0
M  V30 6666 H 619.459 -2.21829 3.72793 0
M  V30 6667 H 620.13 -3.83381 3.97143 0
M  V30 6668 H 622.606 -3.61712 2.05678 0
M  V30 6669 H 621.482 -4.97543 2.31824 0
M  V30 6670 H 621.743 -4.36661 0.691373 0
M  V30 6671 N 620.802 -1.09834 -1.13024 0
M  V30 6672 C 622.213 -0.855651 -1.65938 0
M  V30 6673 C 622.564 0.615159 -1.86307 0
M  V30 6674 O 621.689 1.47335 -1.58497 0
M  V30 6675 C 622.284 -1.5467 -3.01434 0
M  V30 6676 C 620.843 -1.35088 -3.51323 0
M  V30 6677 C 619.99 -1.6001 -2.26478 0
M  V30 6678 H 622.941 -1.25691 -0.968889 0
M  V30 6679 H 622.962 -0.982179 -3.67605 0
M  V30 6680 H 622.474 -2.61715 -2.86578 0
M  V30 6681 H 620.575 -0.30179 -3.71376 0
M  V30 6682 H 620.688 -2.0886 -4.31178 0
M  V30 6683 H 619.052 -1.02246 -2.33276 0
M  V30 6684 H 619.835 -2.68293 -2.14182 0
M  V30 6685 N 622.28 1.30327 -0.886154 0
M  V30 6686 C 623.508 2.00254 -0.520176 0
M  V30 6687 C 623.923 1.66419 0.891637 0
M  V30 6688 O 623.28 0.901951 1.58654 0
M  V30 6689 C 623.331 3.54916 -0.686775 0
M  V30 6690 O 623.052 3.87547 -2.04301 0
M  V30 6691 C 624.553 4.42115 -0.323945 0
M  V30 6692 H 621.773 0.640204 -0.200947 0
M  V30 6693 H 624.317 1.66183 -1.19178 0
M  V30 6694 H 622.472 3.8735 -0.0625273 0
M  V30 6695 H 622.886 4.82247 -2.06249 0
M  V30 6696 H 624.36 5.49808 -0.491407 0
M  V30 6697 H 624.837 4.32953 0.73811 0
M  V30 6698 H 625.443 4.15129 -0.924565 0
M  V30 6699 N 623.758 0.647228 1.43697 0
M  V30 6700 C 625.005 0.158188 2.01881 0
M  V30 6701 C 625.333 -1.22573 1.51017 0
M  V30 6702 O 624.588 -1.83086 0.69122 0
M  V30 6703 C 624.887 0.111481 3.57226 0
M  V30 6704 C 624.553 1.43633 4.27411 0
M  V30 6705 C 623.215 1.79915 4.463 0
M  V30 6706 C 625.567 2.31011 4.67208 0
M  V30 6707 C 622.895 3.03251 5.02251 0
M  V30 6708 C 625.247 3.53633 5.24525 0
M  V30 6709 C 623.911 3.90118 5.41631 0
M  V30 6710 H 623.181 0.0578851 0.738736 0
M  V30 6711 H 625.828 0.836746 1.72252 0
M  V30 6712 H 624.133 -0.650507 3.86362 0
M  V30 6713 H 625.83 -0.283682 3.99995 0
M  V30 6714 H 622.42 1.14403 4.1305 0
M  V30 6715 H 626.604 2.04272 4.52313 0
M  V30 6716 H 621.86 3.31575 5.13681 0
M  V30 6717 H 626.034 4.21561 5.5431 0
M  V30 6718 H 623.661 4.85768 5.84751 0
M  V30 6719 N 625.236 -1.5273 0.388769 0
M  V30 6720 C 626.485 -2.00757 -0.194833 0
M  V30 6721 C 626.798 -1.27951 -1.47946 0
M  V30 6722 O 628.004 -1.66686 -2.14308 0
M  V30 6723 C 626.46 -3.57695 -0.397762 0
M  V30 6724 C 626.068 -4.394 0.873583 0
M  V30 6725 C 627.812 -4.14012 -0.937759 0
M  V30 6726 C 625.719 -5.87938 0.638962 0
M  V30 6727 H 624.649 -0.750101 -0.0765845 0
M  V30 6728 H 627.3 -1.76239 0.511086 0
M  V30 6729 H 625.682 -3.7846 -1.16552 0
M  V30 6730 H 626.856 -4.30403 1.64591 0
M  V30 6731 H 625.171 -3.94301 1.33849 0
M  V30 6732 H 627.768 -5.22645 -1.12899 0
M  V30 6733 H 628.111 -3.7007 -1.90666 0
M  V30 6734 H 628.644 -3.97137 -0.229588 0
M  V30 6735 H 625.383 -6.36202 1.57885 0
M  V30 6736 H 624.903 -5.99726 -0.094443 0
M  V30 6737 H 626.582 -6.46423 0.273299 0
M  V30 6738 N 626.714 -0.118576 -1.57153 0
M  V30 6739 C 627.644 0.828436 -2.1831 0
M  V30 6740 C 628.625 1.27758 -1.12303 0
M  V30 6741 O 629.81 1.34026 -1.40537 0
M  V30 6742 C 626.94 2.07876 -2.78217 0
M  V30 6743 C 625.894 1.76742 -3.89803 0
M  V30 6744 C 625.22 3.08801 -4.36516 0
M  V30 6745 C 626.52 1.03606 -5.11921 0
M  V30 6746 H 628.214 0.318824 -2.97698 0
M  V30 6747 H 625.76 0.151911 -1.43196 0
M  V30 6748 H 627.713 2.74584 -3.19659 0
M  V30 6749 H 626.437 2.61161 -1.96118 0
M  V30 6750 H 625.096 1.12424 -3.48936 0
M  V30 6751 H 624.744 3.6002 -3.51276 0
M  V30 6752 H 624.444 2.88743 -5.11763 0
M  V30 6753 H 625.968 3.76627 -4.80608 0
M  V30 6754 H 627.382 1.60467 -5.50385 0
M  V30 6755 H 625.779 0.936454 -5.92748 0
M  V30 6756 H 626.849 0.0227421 -4.84895 0
M  V30 6757 N 628.193 1.56834 0.155195 0
M  V30 6758 C 629.441 1.82536 0.867462 0
M  V30 6759 C 629.762 0.698168 1.82073 0
M  V30 6760 O 629.032 -0.280807 1.93877 0
M  V30 6761 H 627.612 0.673401 0.323327 0
M  V30 6762 H 630.274 1.94313 0.151156 0
M  V30 6763 H 629.37 2.77171 1.43466 0
M  V30 6764 N 629.671 -0.424282 1.51781 0
M  V30 6765 C 630.948 -1.18464 1.55646 0
M  V30 6766 C 631.328 -2.08529 0.328438 0
M  V30 6767 O 630.676 -2.17969 -0.685693 0
M  V30 6768 C 630.886 -1.97514 2.87731 0
M  V30 6769 C 632.234 -2.54106 3.40169 0
M  V30 6770 O 633.258 -2.07711 2.89369 0
M  V30 6771 O 632.117 -3.38759 4.28841 0
M  V30 6772 H 629.211 -0.540055 0.626314 0
M  V30 6773 H 631.757 -0.432291 1.64102 0
M  V30 6774 H 630.529 -1.31444 3.68562 0
M  V30 6775 H 630.152 -2.79787 2.82498 0
M  V30 6776 N 631.149 -1.42148 -0.680565 0
M  V30 6777 C 632.56 -1.3768 -1.26099 0
M  V30 6778 C 632.911 -0.0672348 -1.96085 0
M  V30 6779 O 632.036 0.834172 -1.99676 0
M  V30 6780 C 632.631 -2.49387 -2.29328 0
M  V30 6781 C 631.19 -2.4827 -2.82911 0
M  V30 6782 C 630.337 -2.2847 -1.57152 0
M  V30 6783 H 633.288 -1.51446 -0.474326 0
M  V30 6784 H 633.309 -2.19307 -3.10941 0
M  V30 6785 H 632.821 -3.44686 -1.78363 0
M  V30 6786 H 630.922 -1.56773 -3.38013 0
M  V30 6787 H 631.035 -3.45109 -3.3232 0
M  V30 6788 H 629.399 -1.76623 -1.83511 0
M  V30 6789 H 630.182 -3.25816 -1.0816 0
M  V30 6790 N 632.627 0.916307 -1.28225 0
M  V30 6791 C 633.874 1.66518 -1.1523 0
M  V30 6792 C 634.202 1.92178 0.299632 0
M  V30 6793 O 633.457 1.51842 1.2346 0
M  V30 6794 C 633.756 3.03125 -1.8934 0
M  V30 6795 C 633.422 2.97135 -3.39148 0
M  V30 6796 C 632.084 2.95208 -3.80007 0
M  V30 6797 C 634.436 2.87574 -4.34685 0
M  V30 6798 C 631.764 2.81518 -5.14747 0
M  V30 6799 C 634.116 2.75424 -5.69495 0
M  V30 6800 C 632.78 2.71854 -6.09632 0
M  V30 6801 H 632.05 0.609334 -0.421655 0
M  V30 6802 H 634.697 1.06776 -1.58969 0
M  V30 6803 H 633.002 3.66639 -1.38143 0
M  V30 6804 H 634.699 3.59968 -1.76704 0
M  V30 6805 H 631.289 2.99428 -3.06661 0
M  V30 6806 H 635.473 2.88152 -4.04082 0
M  V30 6807 H 630.729 2.77148 -5.44976 0
M  V30 6808 H 634.903 2.66993 -6.43185 0
M  V30 6809 H 632.53 2.61003 -7.1399 0
M  V30 6810 N 634.105 1.10431 1.1244 0
M  V30 6811 C 635.038 0.696987 2.17296 0
M  V30 6812 C 636.016 -0.301673 1.59777 0
M  V30 6813 O 637.2 -0.200583 1.8743 0
M  V30 6814 C 634.327 0.0284094 3.38688 0
M  V30 6815 C 633.373 0.990536 4.14838 0
M  V30 6816 S 634.206 2.50785 4.73146 0
M  V30 6817 C 635.362 1.85198 5.97873 0
M  V30 6818 H 635.595 1.58523 2.51511 0
M  V30 6819 H 633.128 0.921312 1.239 0
M  V30 6820 H 635.086 -0.351009 4.08997 0
M  V30 6821 H 633.747 -0.836629 3.02753 0
M  V30 6822 H 632.94 0.469991 5.01804 0
M  V30 6823 H 632.542 1.31186 3.50237 0
M  V30 6824 H 634.834 1.18217 6.67106 0
M  V30 6825 H 635.777 2.7012 6.54554 0
M  V30 6826 H 636.185 1.31653 5.48933 0
M  V30 6827 N 635.583 -1.29855 0.893053 0
M  V30 6828 C 636.999 -1.48366 0.588199 0
M  V30 6829 C 637.199 -1.81654 -0.872018 0
M  V30 6830 O 636.255 -1.909 -1.65268 0
M  V30 6831 C 637.568 -2.60136 1.5083 0
M  V30 6832 C 639.116 -2.74014 1.51279 0
M  V30 6833 C 639.591 -3.88905 2.41902 0
M  V30 6834 N 641.082 -3.96228 2.39911 0
M  V30 6835 C 641.817 -4.84458 3.06738 0
M  V30 6836 N 641.313 -5.77426 3.8282 0
M  V30 6837 N 643.106 -4.77894 2.95929 0
M  V30 6838 H 635.257 -1.06522 1.83757 0
M  V30 6839 H 637.52 -0.528495 0.787018 0
M  V30 6840 H 637.226 -2.42383 2.54839 0
M  V30 6841 H 637.1 -3.56793 1.22388 0
M  V30 6842 H 639.487 -2.91167 0.480179 0
M  V30 6843 H 639.568 -1.77952 1.83757 0
M  V30 6844 H 639.212 -3.72508 3.45253 0
M  V30 6845 H 639.142 -4.84322 2.06737 0
M  V30 6846 H 641.633 -3.29728 1.84629 0
M  V30 6847 H 641.946 -6.41529 4.30883 0
M  V30 6848 H 640.291 -5.77332 3.86927 0
M  V30 6849 H 643.482 -4.04248 2.36012 0
M  V30 6850 H 643.655 -5.46444 3.48286 0
M  V30 6851 N 637.061 -0.65484 -1.43351 0
M  V30 6852 C 638.008 0.0357713 -2.30772 0
M  V30 6853 C 638.978 0.813035 -1.44841 0
M  V30 6854 O 640.163 0.789314 -1.73708 0
M  V30 6855 C 637.303 0.995084 -3.30442 0
M  V30 6856 C 636.416 0.21375 -4.31471 0
M  V30 6857 C 635.551 1.16701 -5.18222 0
M  V30 6858 C 634.59 0.376201 -6.10943 0
M  V30 6859 N 633.727 1.28113 -6.90313 0
M  V30 6860 H 638.567 -0.71559 -2.89281 0
M  V30 6861 H 636.104 -0.364645 -1.42509 0
M  V30 6862 H 638.062 1.5649 -3.86739 0
M  V30 6863 H 636.692 1.7133 -2.7358 0
M  V30 6864 H 635.744 -0.472377 -3.77456 0
M  V30 6865 H 637.056 -0.401103 -4.97185 0
M  V30 6866 H 636.21 1.8074 -5.79153 0
M  V30 6867 H 634.949 1.81577 -4.52638 0
M  V30 6868 H 633.954 -0.277534 -5.49099 0
M  V30 6869 H 635.179 -0.268178 -6.7857 0
M  V30 6870 H 633.125 1.91666 -6.27376 0
M  V30 6871 H 633.042 0.720879 -7.52555 0
M  V30 6872 H 634.31 1.90962 -7.55747 0
M  V30 6873 N 638.539 1.52521 -0.396863 0
M  V30 6874 C 639.769 2.05792 0.182485 0
M  V30 6875 C 640.177 1.26784 1.40436 0
M  V30 6876 O 639.52 0.309617 1.81072 0
M  V30 6877 C 639.582 3.54291 0.609781 0
M  V30 6878 C 639.246 4.5426 -0.499674 0
M  V30 6879 C 640.243 5.01812 -1.35944 0
M  V30 6880 C 637.928 4.97827 -0.668864 0
M  V30 6881 C 639.922 5.91562 -2.37346 0
M  V30 6882 C 637.609 5.87376 -1.68621 0
M  V30 6883 C 638.607 6.34137 -2.53692 0
M  V30 6884 O 638.295 7.21915 -3.53686 0
M  V30 6885 H 638.027 0.675362 0.0293583 0
M  V30 6886 H 640.581 1.97539 -0.56281 0
M  V30 6887 H 638.811 3.60188 1.40717 0
M  V30 6888 H 640.5 3.90267 1.11565 0
M  V30 6889 H 641.266 4.68879 -1.24008 0
M  V30 6890 H 637.145 4.60997 -0.0163971 0
M  V30 6891 H 640.689 6.27983 -3.03782 0
M  V30 6892 H 636.586 6.19723 -1.80593 0
M  V30 6893 H 637.354 7.39996 -3.49784 0
M  V30 6894 N 640.017 0.126909 1.57088 0
M  V30 6895 C 641.264 -0.529168 1.95464 0
M  V30 6896 C 641.592 -1.6618 1.01067 0
M  V30 6897 O 640.847 -1.95667 0.0360254 0
M  V30 6898 C 641.146 -1.095 3.40212 0
M  V30 6899 C 640.812 -0.0829015 4.50824 0
M  V30 6900 C 639.474 0.195377 4.80803 0
M  V30 6901 C 641.826 0.606411 5.1766 0
M  V30 6902 C 639.154 1.16912 5.74933 0
M  V30 6903 C 641.506 1.56884 6.12838 0
M  V30 6904 C 640.17 1.85502 6.41206 0
M  V30 6905 H 639.44 -0.193636 0.715252 0
M  V30 6906 H 642.087 0.209489 1.90351 0
M  V30 6907 H 640.392 -1.91058 3.42059 0
M  V30 6908 H 642.089 -1.61087 3.67222 0
M  V30 6909 H 638.679 -0.309979 4.27478 0
M  V30 6910 H 642.863 0.404597 4.94648 0
M  V30 6911 H 638.119 1.3975 5.95214 0
M  V30 6912 H 642.293 2.10859 6.6371 0
M  V30 6913 H 639.92 2.61109 7.13951 0
M  V30 6914 N 641.495 -1.56914 -0.146875 0
M  V30 6915 C 642.723 -1.87515 -0.874394 0
M  V30 6916 C 643.138 -0.715116 -1.74733 0
M  V30 6917 O 642.495 0.315113 -1.79759 0
M  V30 6918 C 642.546 -3.17362 -1.731 0
M  V30 6919 O 642.267 -4.28897 -0.893245 0
M  V30 6920 C 643.768 -3.61479 -2.56609 0
M  V30 6921 H 640.988 -0.621546 -0.252827 0
M  V30 6922 H 643.532 -2.04023 -0.139627 0
M  V30 6923 H 641.687 -3.02608 -2.41883 0
M  V30 6924 H 642.101 -5.03146 -1.48137 0
M  V30 6925 H 643.575 -4.5517 -3.12289 0
M  V30 6926 H 644.052 -2.86773 -3.32653 0
M  V30 6927 H 644.658 -3.78927 -1.93117 0
M  V30 6928 N 642.974 0.416227 -1.52004 0
M  V30 6929 C 644.22 1.16555 -1.6596 0
M  V30 6930 C 644.553 1.90347 -0.384906 0
M  V30 6931 O 643.828 1.84474 0.616405 0
M  V30 6932 C 644.111 2.1657 -2.87696 0
M  V30 6933 C 643.964 1.46722 -4.25197 0
M  V30 6934 C 645.283 3.17321 -3.04951 0
M  V30 6935 H 642.402 0.422369 -0.603965 0
M  V30 6936 H 645.044 0.452141 -1.84542 0
M  V30 6937 H 643.194 2.77411 -2.71985 0
M  V30 6938 H 644.866 0.89056 -4.52622 0
M  V30 6939 H 643.109 0.769263 -4.26925 0
M  V30 6940 H 643.78 2.19665 -5.0641 0
M  V30 6941 H 646.256 2.66552 -3.19514 0
M  V30 6942 H 645.132 3.84573 -3.91656 0
M  V30 6943 H 645.393 3.84643 -2.17951 0
M  V30 6944 N 644.452 1.42507 0.673017 0
M  V30 6945 C 645.699 1.43072 1.43306 0
M  V30 6946 C 646.027 0.0478004 1.94441 0
M  V30 6947 O 645.282 -0.944106 1.71421 0
M  V30 6948 C 645.581 2.40351 2.64511 0
M  V30 6949 C 645.247 3.8669 2.31908 0
M  V30 6950 C 643.909 4.26551 2.22728 0
M  V30 6951 C 646.261 4.78991 2.05467 0
M  V30 6952 C 643.589 5.56691 1.85234 0
M  V30 6953 C 645.941 6.09476 1.69477 0
M  V30 6954 C 644.605 6.48334 1.58808 0
M  V30 6955 H 643.875 0.523536 0.524395 0
M  V30 6956 H 646.522 1.75459 0.76723 0
M  V30 6957 H 644.827 2.01297 3.36135 0
M  V30 6958 H 646.524 2.38051 3.22696 0
M  V30 6959 H 643.114 3.55132 2.39956 0
M  V30 6960 H 647.298 4.48982 2.11492 0
M  V30 6961 H 642.554 5.85657 1.75545 0
M  V30 6962 H 646.728 6.80482 1.48043 0
M  V30 6963 H 644.355 7.49084 1.29525 0
M  V30 6964 N 645.93 -0.909495 1.28709 0
M  V30 6965 C 647.207 -1.63865 1.06806 0
M  V30 6966 C 647.587 -2.07445 -0.391143 0
M  V30 6967 O 646.935 -1.82269 -1.37805 0
M  V30 6968 C 647.145 -2.82692 2.04661 0
M  V30 6969 C 648.493 -3.5361 2.35042 0
M  V30 6970 O 649.517 -2.92847 2.02779 0
M  V30 6971 O 648.376 -4.63131 2.90124 0
M  V30 6972 H 645.47 -0.719065 0.408502 0
M  V30 6973 H 648.016 -0.958424 1.40044 0
M  V30 6974 H 646.788 -2.47614 3.0299 0
M  V30 6975 H 646.411 -3.58426 1.72095 0
M  V30 6976 N 647.408 -1.11026 -1.11852 0
M  V30 6977 C 648.638 -0.877544 -1.87037 0
M  V30 6978 C 649.046 0.575925 -1.80221 0
M  V30 6979 O 648.389 1.40916 -1.17849 0
M  V30 6980 C 648.451 -1.25529 -3.36872 0
M  V30 6981 C 648.115 -2.71704 -3.67459 0
M  V30 6982 C 649.112 -3.69931 -3.65304 0
M  V30 6983 C 646.797 -3.08243 -3.966 0
M  V30 6984 C 648.791 -5.02717 -3.9186 0
M  V30 6985 C 646.478 -4.41215 -4.22815 0
M  V30 6986 C 647.476 -5.38262 -4.20432 0
M  V30 6987 O 647.164 -6.68839 -4.45992 0
M  V30 6988 H 646.896 -0.314374 -0.598452 0
M  V30 6989 H 649.45 -1.48015 -1.42411 0
M  V30 6990 H 647.68 -0.595808 -3.82082 0
M  V30 6991 H 649.369 -0.999064 -3.93413 0
M  V30 6992 H 650.135 -3.43047 -3.42846 0
M  V30 6993 H 646.014 -2.33326 -3.97593 0
M  V30 6994 H 649.558 -5.78456 -3.89916 0
M  V30 6995 H 645.455 -4.67835 -4.44748 0
M  V30 6996 H 646.223 -6.74563 -4.63581 0
M  V30 6997 N 648.886 1.2938 -0.899927 0
M  V30 6998 C 650.163 1.9046 -0.445443 0
M  V30 6999 C 650.543 1.81683 1.07492 0
M  V30 7000 O 649.891 1.24371 1.91688 0
M  V30 7001 C 650.101 3.35529 -0.960279 0
M  V30 7002 C 651.449 4.12556 -1.00412 0
M  V30 7003 O 652.473 3.44434 -0.907965 0
M  V30 7004 O 651.332 5.34294 -1.14857 0
M  V30 7005 H 648.426 0.815253 -0.138893 0
M  V30 7006 H 650.972 1.37844 -0.989808 0
M  V30 7007 H 649.744 3.36074 -2.00425 0
M  V30 7008 H 649.367 3.95624 -0.395939 0
M  V30 7009 N 650.364 0.662433 1.43002 0
M  V30 7010 C 651.312 -0.035345 2.32573 0
M  V30 7011 C 652.306 -0.803505 1.49131 0
M  V30 7012 O 653.512 -0.712865 1.65282 0
M  V30 7013 H 649.887 -0.0302194 0.751393 0
M  V30 7014 H 651.858 0.737686 2.89138 0
M  V30 7015 C 650.607 -0.981575 3.33557 0
M  V30 7016 H 649.93 -0.399914 3.97795 0
M  V30 7017 H 651.37 -1.43873 3.98844 0
M  V30 7018 C 649.829 -2.08204 2.64863 0
M  V30 7019 O 650.359 -3.16698 2.47113 0
M  V30 7020 N 648.565 -1.85022 2.24088 0
M  V30 7021 H 648.112 -0.967909 2.38724 0
M  V30 7022 H 648.07 -2.58845 1.78457 0
M  V30 7023 N 651.842 -1.52309 0.404946 0
M  V30 7024 C 652.792 -2.23717 -0.439864 0
M  V30 7025 C 653.776 -1.24692 -1.0169 0
M  V30 7026 O 654.968 -1.49951 -0.940409 0
M  V30 7027 C 652.097 -3.05898 -1.55825 0
M  V30 7028 C 651.183 -4.12331 -0.992188 0
M  V30 7029 N 651.574 -5.0557 -0.152424 0
M  V30 7030 C 649.872 -4.2774 -1.26312 0
M  V30 7031 C 650.573 -5.81474 0.162041 0
M  V30 7032 N 649.549 -5.41767 -0.44601 0
M  V30 7033 H 653.351 -2.93162 0.208084 0
M  V30 7034 H 650.865 -1.60969 0.215131 0
M  V30 7035 H 652.862 -3.55605 -2.17603 0
M  V30 7036 H 651.522 -2.37991 -2.20886 0
M  V30 7037 H 652.533 -5.17468 0.211556 0
M  V30 7038 H 649.21 -3.71062 -1.91362 0
M  V30 7039 H 650.6 -6.66585 0.843423 0
M  V30 7040 N 653.32 -0.135238 -1.57019 0
M  V30 7041 C 654.545 0.529343 -2.00531 0
M  V30 7042 C 654.97 1.58391 -1.01459 0
M  V30 7043 O 654.328 1.81296 0.0113986 0
M  V30 7044 C 654.376 1.11748 -3.42848 0
M  V30 7045 O 653.48 2.23267 -3.46736 0
M  V30 7046 H 652.821 0.130669 -0.651016 0
M  V30 7047 H 655.351 -0.228503 -2.0332 0
M  V30 7048 H 655.361 1.44905 -3.81401 0
M  V30 7049 H 654.036 0.345147 -4.14465 0
M  V30 7050 H 652.613 1.91428 -3.20015 0
M  V30 7051 N 654.798 1.5699 0.138552 0
M  V30 7052 C 656.044 1.84081 0.85099 0
M  V30 7053 C 656.377 0.718107 1.80435 0
M  V30 7054 O 655.652 -0.277633 1.92508 0
M  V30 7055 C 655.935 3.21699 1.61808 0
M  V30 7056 C 655.788 4.44544 0.685633 0
M  V30 7057 C 657.107 3.5664 2.57868 0
M  V30 7058 H 654.226 0.669592 0.307922 0
M  V30 7059 H 656.868 1.89646 0.11588 0
M  V30 7060 H 655.018 3.17086 2.24474 0
M  V30 7061 H 656.69 4.61248 0.0693179 0
M  V30 7062 H 654.933 4.338 -0.00421993 0
M  V30 7063 H 655.604 5.3746 1.25858 0
M  V30 7064 H 658.08 3.61918 2.05316 0
M  V30 7065 H 656.956 4.53946 3.08584 0
M  V30 7066 H 657.217 2.83036 3.39622 0
M  V30 7067 N 656.276 -0.40816 1.52223 0
M  V30 7068 C 657.524 -1.15274 1.66001 0
M  V30 7069 C 657.845 -1.91003 0.392803 0
M  V30 7070 O 657.115 -1.8673 -0.592336 0
M  V30 7071 H 655.695 -0.428526 0.611861 0
M  V30 7072 H 658.357 -0.46512 1.89269 0
M  V30 7073 H 657.453 -1.86628 2.50153 0
M  V30 7074 N 657.755 -1.42862 -0.66545 0
M  V30 7075 C 659.004 -1.43119 -1.42126 0
M  V30 7076 C 659.317 -0.0545297 -1.95524 0
M  V30 7077 O 660.523 0.0654747 -2.71421 0
M  V30 7078 C 658.979 -2.51797 -2.5715 0
M  V30 7079 C 658.587 -3.95514 -2.10411 0
M  V30 7080 C 660.331 -2.61233 -3.346 0
M  V30 7081 C 658.238 -4.95682 -3.22573 0
M  V30 7082 H 657.168 -0.532349 -0.533966 0
M  V30 7083 H 659.819 -1.68806 -0.719506 0
M  V30 7084 H 658.201 -2.19292 -3.29738 0
M  V30 7085 H 659.375 -4.3742 -1.44915 0
M  V30 7086 H 657.69 -3.90012 -1.45874 0
M  V30 7087 H 660.287 -3.33248 -4.18151 0
M  V30 7088 H 660.63 -1.65896 -3.81817 0
M  V30 7089 H 661.163 -2.9298 -2.69087 0
M  V30 7090 H 657.902 -5.92529 -2.80338 0
M  V30 7091 H 657.422 -4.58399 -3.86821 0
M  V30 7092 H 659.101 -5.17828 -3.87896 0
M  V30 7093 N 659.233 0.902656 -1.29189 0
M  V30 7094 C 660.196 1.98797 -1.14071 0
M  V30 7095 C 661.196 1.60615 -0.0770549 0
M  V30 7096 O 662.386 1.71165 -0.323753 0
M  V30 7097 C 659.518 3.32688 -0.743739 0
M  V30 7098 H 660.711 2.13637 -2.10473 0
M  V30 7099 H 658.264 1.08678 -1.12334 0
M  V30 7100 H 658.999 3.23549 0.220554 0
M  V30 7101 H 658.784 3.61765 -1.51223 0
M  V30 7102 H 660.274 4.12337 -0.660935 0
M  V30 7103 N 660.711 1.11618 1.11262 0
M  V30 7104 C 661.641 0.79846 2.19424 0
M  V30 7105 C 662.622 -0.234003 1.68483 0
M  V30 7106 O 663.807 -0.0970704 1.93957 0
M  V30 7107 C 660.937 0.242892 3.4645 0
M  V30 7108 C 659.891 1.20744 4.10615 0
M  V30 7109 C 659.217 0.512494 5.32238 0
M  V30 7110 C 660.517 2.55884 4.55325 0
M  V30 7111 H 662.211 1.70286 2.46258 0
M  V30 7112 H 659.757 0.820195 1.18359 0
M  V30 7113 H 661.71 0.00840447 4.21399 0
M  V30 7114 H 660.434 -0.696811 3.1908 0
M  V30 7115 H 659.093 1.42759 3.37662 0
M  V30 7116 H 658.741 -0.432075 5.01141 0
M  V30 7117 H 658.441 1.15583 5.7612 0
M  V30 7118 H 659.965 0.286842 6.09926 0
M  V30 7119 H 661.379 2.37946 5.21588 0
M  V30 7120 H 659.776 3.16216 5.10027 0
M  V30 7121 H 660.846 3.14968 3.68678 0
M  V30 7122 N 662.189 -1.289 0.906776 0
M  V30 7123 C 663.152 -2.25777 0.394656 0
M  V30 7124 C 664.152 -1.53621 -0.475119 0
M  V30 7125 O 665.342 -1.71949 -0.279165 0
M  V30 7126 C 662.474 -3.38113 -0.43499 0
M  V30 7127 H 663.667 -2.72592 1.25033 0
M  V30 7128 H 661.22 -1.40463 0.685547 0
M  V30 7129 H 661.955 -2.96648 -1.31036 0
M  V30 7130 H 661.74 -3.91647 0.188334 0
M  V30 7131 H 663.23 -4.10168 -0.784365 0
M  V30 7132 N 663.667 -0.670007 -1.42649 0
M  V30 7133 C 664.614 0.0112928 -2.30797 0
M  V30 7134 C 665.584 0.797627 -1.45695 0
M  V30 7135 O 666.769 0.770845 -1.74535 0
M  V30 7136 C 663.909 0.95998 -3.31479 0
M  V30 7137 C 663.022 0.167975 -4.31673 0
M  V30 7138 C 662.157 1.11198 -5.19431 0
M  V30 7139 C 661.196 0.311381 -6.11307 0
M  V30 7140 N 660.333 1.20784 -6.91633 0
M  V30 7141 H 665.173 -0.746231 -2.88505 0
M  V30 7142 H 662.71 -0.379739 -1.42114 0
M  V30 7143 H 664.668 1.52379 -3.88377 0
M  V30 7144 H 663.298 1.68419 -2.75382 0
M  V30 7145 H 662.35 -0.512385 -3.76933 0
M  V30 7146 H 663.662 -0.453814 -4.96731 0
M  V30 7147 H 662.816 1.74587 -5.81037 0
M  V30 7148 H 661.555 1.76766 -4.54538 0
M  V30 7149 H 660.56 -0.335758 -5.48774 0
M  V30 7150 H 661.785 -0.340135 -6.78248 0
M  V30 7151 H 659.731 1.85001 -6.29373 0
M  V30 7152 H 659.648 0.64102 -7.53277 0
M  V30 7153 H 660.916 1.82936 -7.5773 0
M  V30 7154 N 665.145 1.52092 -0.413018 0
M  V30 7155 C 666.092 2.27119 0.410558 0
M  V30 7156 C 667.062 1.29692 1.03774 0
M  V30 7157 O 668.247 1.58561 1.06128 0
M  V30 7158 C 665.387 3.09863 1.51918 0
M  V30 7159 C 664.5 4.22252 0.912528 0
M  V30 7160 C 663.635 4.92348 1.99417 0
M  V30 7161 C 662.674 5.96694 1.36466 0
M  V30 7162 N 661.811 6.60292 2.38661 0
M  V30 7163 H 666.651 2.97067 -0.235661 0
M  V30 7164 H 664.188 1.46542 -0.128055 0
M  V30 7165 H 666.146 3.56144 2.17295 0
M  V30 7166 H 664.776 2.42078 2.13537 0
M  V30 7167 H 663.828 3.80113 0.147697 0
M  V30 7168 H 665.14 4.9709 0.412717 0
M  V30 7169 H 664.294 5.42054 2.72512 0
M  V30 7170 H 663.033 4.17087 2.52764 0
M  V30 7171 H 662.038 5.46304 0.61906 0
M  V30 7172 H 663.263 6.73899 0.838827 0
M  V30 7173 H 661.209 5.87858 2.91134 0
M  V30 7174 H 661.126 7.30816 1.93503 0
M  V30 7175 H 662.394 7.14635 3.11314 0
M  V30 7176 N 666.623 0.143563 1.56945 0
M  V30 7177 C 667.571 -0.814556 2.17871 0
M  V30 7178 C 668.565 -1.25778 1.13474 0
M  V30 7179 O 669.771 -1.22666 1.31731 0
M  V30 7180 H 666.146 -0.280873 0.697578 0
M  V30 7181 H 668.117 -0.276459 2.97117 0
M  V30 7182 C 666.866 -2.04503 2.81201 0
M  V30 7183 H 666.189 -1.71296 3.61245 0
M  V30 7184 H 667.629 -2.69493 3.27337 0
M  V30 7185 C 666.088 -2.85079 1.79532 0
M  V30 7186 O 666.618 -3.81306 1.26368 0
M  V30 7187 N 664.824 -2.49546 1.48913 0
M  V30 7188 H 664.371 -1.71359 1.92338 0
M  V30 7189 H 664.329 -3.03751 0.811348 0
M  V30 7190 N 668.101 -1.57061 -0.130224 0
M  V30 7191 C 669.031 -2.02552 -1.16168 0
M  V30 7192 C 670.012 -0.907971 -1.4384 0
M  V30 7193 O 671.197 -1.17693 -1.54473 0
M  V30 7194 C 668.327 -2.42035 -2.49071 0
M  V30 7195 C 667.281 -3.5713 -2.35886 0
M  V30 7196 C 666.607 -3.82478 -3.7365 0
M  V30 7197 C 667.907 -4.89236 -1.8288 0
M  V30 7198 H 669.601 -2.8897 -0.783359 0
M  V30 7199 H 667.147 -1.39021 -0.375376 0
M  V30 7200 H 669.1 -2.72462 -3.21469 0
M  V30 7201 H 667.824 -1.52573 -2.88771 0
M  V30 7202 H 666.483 -3.26895 -1.65938 0
M  V30 7203 H 666.131 -2.9024 -4.10816 0
M  V30 7204 H 665.831 -4.59944 -3.65685 0
M  V30 7205 H 667.355 -4.15347 -4.47571 0
M  V30 7206 H 668.769 -5.18272 -2.45085 0
M  V30 7207 H 667.166 -5.70624 -1.85763 0
M  V30 7208 H 668.236 -4.78494 -0.785571 0
M  V30 7209 O 669.618 0.274706 -1.59147 0
M  V30 7210 H 670.309 0.920013 -1.70457 0
M  V30 END ATOM
M  V30 BEGIN BOND
M  V30 END BOND
M  V30 END CTAB
M  END
$$$$
