drugbank_target|P46939 Utrophin (DB01593; DB14487; DB14533; DB14548)
 OpenBabel12092121033D

  0  0  0     0  0            999 V3000
M  V30 BEGIN CTAB
M  V30 COUNTS 55349 55785 0 0 0
M  V30 BEGIN ATOM
M  V30 1 H -0.908 1.98254 -0.117106 0
M  V30 2 N 0 1.576 0 0
M  V30 3 C 0.933 2.03868 1.02534 0
M  V30 4 C 1.911 0.928543 1.3348 0
M  V30 5 O 3.095 1.19667 1.45644 0
M  V30 6 C 0.222 2.43627 2.35294 0
M  V30 7 C -0.732 3.65373 2.2001 0
M  V30 8 S 0.101 5.13292 1.52614 0
M  V30 9 C 1.257 5.56322 2.86805 0
M  V30 10 H 1.49 2.90518 0.631377 0
M  V30 11 H -0.977 1.52953 0.210867 0
M  V30 12 H 0.981 2.67203 3.11629 0
M  V30 13 H -0.358 1.57376 2.7183 0
M  V30 14 H -1.165 3.90944 3.18086 0
M  V30 15 H -1.563 3.418 1.51819 0
M  V30 16 H 0.729 5.58782 3.83104 0
M  V30 17 H 1.672 6.56266 2.65933 0
M  V30 18 H 2.08 4.83886 2.90714 0
M  V30 19 N 1.4781 -0.272755 1.55222 0
M  V30 20 C 2.4411 -1.32041 1.87344 0
M  V30 21 C 3.4411 -1.42342 0.74803 0
M  V30 22 O 4.6311 -1.41488 1.0162 0
M  V30 23 C 1.7631 -2.70173 2.07893 0
M  V30 24 H 2.9561 -1.04789 2.80997 0
M  V30 25 H 0.5091 -0.51083 1.47717 0
M  V30 26 H 1.2441 -3.02605 1.16622 0
M  V30 27 H 1.0291 -2.64082 2.89833 0
M  V30 28 H 2.5191 -3.45869 2.34017 0
M  V30 29 N 2.9562 -1.48159 -0.537278 0
M  V30 30 C 3.9032 -1.62138 -1.64256 0
M  V30 31 C 4.8732 -0.463668 -1.59497 0
M  V30 32 O 6.0582 -0.686241 -1.78032 0
M  V30 33 C 3.1982 -1.66028 -3.02537 0
M  V30 34 C 2.3112 -2.92855 -3.17585 0
M  V30 35 C 1.4462 -2.87952 -4.46382 0
M  V30 36 C 0.4852 -4.09516 -4.54932 0
M  V30 37 N -0.3778 -4.02733 -5.75109 0
M  V30 38 H 4.4622 -2.56529 -1.51647 0
M  V30 39 H 1.9992 -1.27224 -0.738414 0
M  V30 40 H 3.9572 -1.66265 -3.82638 0
M  V30 41 H 2.5872 -0.751331 -3.13934 0
M  V30 42 H 1.6392 -3.02395 -2.30784 0
M  V30 43 H 2.9512 -3.82822 -3.19764 0
M  V30 44 H 2.1052 -2.8655 -5.34765 0
M  V30 45 H 0.8442 -1.95702 -4.46712 0
M  V30 46 H -0.1508 -4.11201 -3.64957 0
M  V30 47 H 1.0742 -5.02917 -4.56346 0
M  V30 48 H -0.9798 -3.13299 -5.76351 0
M  V30 49 H -1.0628 -4.86397 -5.78752 0
M  V30 50 H 0.2052 -4.05379 -6.65799 0
M  V30 51 N 4.4343 0.785586 -1.36625 0
M  V30 52 C 5.6643 1.5722 -1.34036 0
M  V30 53 C 6.0723 1.89033 0.0795062 0
M  V30 54 O 5.4153 1.50881 1.04789 0
M  V30 55 C 5.4773 2.91759 -2.10041 0
M  V30 56 C 5.1413 2.82654 -3.59104 0
M  V30 57 C 6.1383 2.54634 -4.53274 0
M  V30 58 C 3.8233 3.01111 -4.02042 0
M  V30 59 C 5.8173 2.45177 -5.88359 0
M  V30 60 C 3.5043 2.91276 -5.37216 0
M  V30 61 C 4.5023 2.63348 -6.30188 0
M  V30 62 O 4.1903 2.53514 -7.6288 0
M  V30 63 H 3.9223 0.494177 -0.461265 0
M  V30 64 H 6.4763 0.982632 -1.8037 0
M  V30 65 H 4.7063 3.52781 -1.58375 0
M  V30 66 H 6.3953 3.53059 -2.00261 0
M  V30 67 H 7.1613 2.40073 -4.21414 0
M  V30 68 H 3.0403 3.21854 -3.30047 0
M  V30 69 H 6.5843 2.23299 -6.60896 0
M  V30 70 H 2.4813 3.054 -5.68684 0
M  V30 71 H 3.2493 2.68967 -7.73045 0
M  V30 72 N 5.9124 1.20967 1.01018 0
M  V30 73 C 7.1604 1.02172 1.74371 0
M  V30 74 C 7.4814 -0.446414 1.89821 0
M  V30 75 O 6.7514 -1.32234 1.44537 0
M  V30 76 H 5.3314 0.375066 0.646014 0
M  V30 77 H 7.9934 1.52187 1.21758 0
M  V30 78 H 7.0894 1.48538 2.74487 0
M  V30 79 N 7.3905 -1.2043 1.01659 0
M  V30 80 C 8.3005 -2.2689 0.596484 0
M  V30 81 C 9.3165 -1.70107 -0.36599 0
M  V30 82 O 10.4925 -2.00117 -0.226942 0
M  V30 83 C 7.5575 -3.4665 -0.0586659 0
M  V30 84 C 6.6185 -4.18662 0.949751 0
M  V30 85 C 5.8515 -5.32705 0.32577 0
M  V30 86 O 6.0745 -5.63656 -0.874509 0
M  V30 87 O 5.0085 -5.92803 1.04249 0
M  V30 88 H 8.8345 -2.65041 1.4828 0
M  V30 89 H 6.4195 -1.27048 0.786082 0
M  V30 90 H 8.3015 -4.19256 -0.424564 0
M  V30 91 H 6.9765 -3.10375 -0.91918 0
M  V30 92 H 5.8835 -3.48229 1.36702 0
M  V30 93 H 7.2165 -4.58878 1.78023 0
M  V30 94 N 8.8686 -0.792821 -1.36206 0
M  V30 95 C 9.8186 -0.166598 -2.27391 0
M  V30 96 C 10.8026 0.651479 -1.47121 0
M  V30 97 O 11.9946 0.510994 -1.69463 0
M  V30 98 C 9.1236 0.695033 -3.36191 0
M  V30 99 C 8.2096 -0.132019 -4.23894 0
M  V30 100 N 8.6006 -1.18822 -4.91645 0
M  V30 101 C 6.8986 0.0885952 -4.45912 0
M  V30 102 C 7.5996 -1.69198 -5.56549 0
M  V30 103 N 6.5756 -1.00065 -5.34311 0
M  V30 104 H 10.3776 -0.974947 -2.77258 0
M  V30 105 H 7.8916 -0.632616 -1.49572 0
M  V30 106 H 9.8886 1.1596 -4.00448 0
M  V30 107 H 8.5486 1.50189 -2.87877 0
M  V30 108 H 9.5596 -1.57069 -4.93507 0
M  V30 109 H 6.2366 0.865688 -4.08426 0
M  V30 110 H 7.6266 -2.57395 -6.20643 0
M  V30 111 N 10.3467 1.47872 -0.545128 0
M  V30 112 C 11.2567 2.33633 0.212746 0
M  V30 113 C 12.2727 1.4744 0.923983 0
M  V30 114 O 13.4487 1.80393 0.895572 0
M  V30 115 C 10.5137 3.23884 1.23693 0
M  V30 116 C 9.5747 4.25961 0.534417 0
M  V30 117 C 8.8077 5.11899 1.5098 0
M  V30 118 O 9.0307 5.00077 2.7437 0
M  V30 119 O 7.9647 5.92831 1.0409 0
M  V30 120 H 11.7907 2.99714 -0.490416 0
M  V30 121 H 9.3757 1.46235 -0.305871 0
M  V30 122 H 11.2577 3.79666 1.82843 0
M  V30 123 H 9.9327 2.60446 1.92222 0
M  V30 124 H 8.8397 3.73972 -0.0979679 0
M  V30 125 H 10.1727 4.92079 -0.109213 0
M  V30 126 N 11.8248 0.280983 1.55075 0
M  V30 127 C 12.7878 -0.590896 2.21452 0
M  V30 128 C 13.7878 -1.07682 1.19421 0
M  V30 129 O 14.9778 -0.97605 1.44288 0
M  V30 130 C 12.1098 -1.81587 2.88511 0
M  V30 131 H 13.3028 -0.0112554 2.99898 0
M  V30 132 H 10.8558 0.0316438 1.56268 0
M  V30 133 H 11.5908 -2.43587 2.14093 0
M  V30 134 H 11.3758 -1.4753 3.63287 0
M  V30 135 H 12.8658 -2.43575 3.39206 0
M  V30 136 N 13.3029 -1.57598 0.00835791 0
M  V30 137 C 14.5279 -1.95617 -0.689103 0
M  V30 138 C 14.9529 -0.883753 -1.66046 0
M  V30 139 O 14.3109 0.157352 -1.80616 0
M  V30 140 C 14.3589 -3.32736 -1.38994 0
M  V30 141 O 13.4629 -3.27631 -2.50463 0
M  V30 142 H 12.8039 -0.638379 -0.182668 0
M  V30 143 H 15.3339 -2.045 0.064036 0
M  V30 144 H 15.3439 -3.68494 -1.75147 0
M  V30 145 H 14.0189 -4.1034 -0.677778 0
M  V30 146 H 12.5959 -3.03561 -2.16576 0
M  V30 147 N 14.781 0.264519 -1.55364 0
M  V30 148 C 16.192 0.834936 -1.6699 0
M  V30 149 C 16.543 1.86718 -0.602552 0
M  V30 150 O 15.668 2.14899 0.254425 0
M  V30 151 C 16.263 1.5212 -3.02729 0
M  V30 152 C 14.822 2.03954 -3.16354 0
M  V30 153 C 13.969 0.884498 -2.62815 0
M  V30 154 H 16.92 0.0406869 -1.58648 0
M  V30 155 H 16.941 2.38853 -2.96191 0
M  V30 156 H 16.453 0.769668 -3.80392 0
M  V30 157 H 14.554 2.82041 -2.43482 0
M  V30 158 H 14.667 2.24902 -4.23032 0
M  V30 159 H 13.031 1.2802 -2.20188 0
M  V30 160 H 13.814 0.14634 -3.42988 0
M  V30 161 N 16.2591 1.48442 0.529413 0
M  V30 162 C 17.5361 1.46978 1.29062 0
M  V30 163 C 17.9161 0.181769 2.10316 0
M  V30 164 O 17.2641 -0.836481 2.12639 0
M  V30 165 C 17.4741 2.7321 2.17157 0
M  V30 166 C 18.8221 3.21562 2.77278 0
M  V30 167 O 19.8461 2.74131 2.27444 0
M  V30 168 O 18.7051 4.04094 3.67927 0
M  V30 169 H 15.7991 0.587003 0.582543 0
M  V30 170 H 18.3451 1.60676 0.546021 0
M  V30 171 H 17.1171 3.58465 1.56903 0
M  V30 172 H 16.7401 2.62235 2.98862 0
M  V30 173 N 17.7372 -0.778329 1.37039 0
M  V30 174 C 18.6852 -1.91278 1.32345 0
M  V30 175 C 19.6792 -1.68051 0.213331 0
M  V30 176 O 20.8852 -1.75922 0.38098 0
M  V30 177 H 17.2602 -0.628909 0.412283 0
M  V30 178 H 19.2312 -1.92355 2.28127 0
M  V30 179 C 17.9802 -3.28455 1.14073 0
M  V30 180 H 17.3032 -3.46901 1.98746 0
M  V30 181 H 18.7432 -4.08152 1.14837 0
M  V30 182 C 17.2022 -3.36548 -0.154015 0
M  V30 183 O 17.7322 -3.85186 -1.13993 0
M  V30 184 N 15.9382 -2.89894 -0.202475 0
M  V30 185 H 15.4852 -2.50504 0.600476 0
M  V30 186 H 15.4432 -2.9569 -1.06841 0
M  V30 187 N 19.2153 -1.21501 -1.00376 0
M  V30 188 C 20.4633 -1.03095 -1.73827 0
M  V30 189 C 20.7843 0.436341 -1.90055 0
M  V30 190 O 20.0543 1.31466 -1.45236 0
M  V30 191 H 18.6343 -0.378487 -0.644016 0
M  V30 192 H 21.2963 -1.52831 -1.20949 0
M  V30 193 H 20.3923 -1.49991 -2.73695 0
M  V30 194 N 20.6934 1.19889 -1.02296 0
M  V30 195 C 21.6254 2.22334 -0.556787 0
M  V30 196 C 22.6384 1.58674 0.364199 0
M  V30 197 O 23.8274 1.77768 0.161533 0
M  V30 198 C 20.9274 3.38257 0.208694 0
M  V30 199 C 20.1004 4.31504 -0.71577 0
M  V30 200 C 19.1594 5.262 0.00325597 0
M  V30 201 O 18.1854 5.65798 -0.621357 0
M  V30 202 N 19.3874 5.66303 1.27599 0
M  V30 203 H 22.1524 2.62957 -1.43784 0
M  V30 204 H 19.7134 1.34495 -0.901261 0
M  V30 205 H 21.7054 3.98616 0.699111 0
M  V30 206 H 20.2754 2.96472 0.991102 0
M  V30 207 H 19.4954 3.69016 -1.38638 0
M  V30 208 H 20.7834 4.9072 -1.34428 0
M  V30 209 H 20.1814 5.36155 1.80429 0
M  V30 210 H 18.7384 6.28942 1.71102 0
M  V30 211 N 22.1715 0.800033 1.35784 0
M  V30 212 C 23.1195 0.193851 2.31791 0
M  V30 213 C 24.1135 -0.652744 1.56319 0
M  V30 214 O 25.3195 -0.546641 1.71499 0
M  V30 215 H 21.6945 0.04392 0.750716 0
M  V30 216 H 23.6655 1.01883 2.80468 0
M  V30 217 C 22.4145 -0.648338 3.41602 0
M  V30 218 H 21.7375 -0.00624665 3.998 0
M  V30 219 H 23.1775 -1.03898 4.11073 0
M  V30 220 C 21.6365 -1.8111 2.84079 0
M  V30 221 O 22.1665 -2.90825 2.77099 0
M  V30 222 N 20.3725 -1.62056 2.41218 0
M  V30 223 H 19.9195 -0.728123 2.47095 0
M  V30 224 H 19.8775 -2.40013 2.03079 0
M  V30 225 N 23.6496 -1.47581 0.552962 0
M  V30 226 C 24.5596 -2.33743 -0.200353 0
M  V30 227 C 25.5756 -1.47928 -0.916151 0
M  V30 228 O 26.7516 -1.80865 -0.885993 0
M  V30 229 C 23.8166 -3.24536 -1.21973 0
M  V30 230 C 22.8776 -4.26238 -0.511819 0
M  V30 231 C 22.1106 -5.12693 -1.48263 0
M  V30 232 O 22.3336 -5.01525 -2.71714 0
M  V30 233 O 21.2676 -5.93375 -1.00945 0
M  V30 234 H 25.0936 -2.9945 0.506304 0
M  V30 235 H 22.6786 -1.46071 0.313622 0
M  V30 236 H 24.5606 -3.80631 -1.80827 0
M  V30 237 H 23.2356 -2.61462 -1.90839 0
M  V30 238 H 22.1426 -3.73914 0.117799 0
M  V30 239 H 23.4756 -4.92014 0.135308 0
M  V30 240 N 25.1277 -0.289203 -1.54924 0
M  V30 241 C 26.3747 0.323519 -1.99899 0
M  V30 242 C 26.7027 1.54797 -1.17762 0
M  V30 243 O 25.9577 1.94237 -0.238835 0
M  V30 244 C 26.2567 0.736119 -3.49737 0
M  V30 245 C 25.9227 -0.385276 -4.49251 0
M  V30 246 C 24.5847 -0.693156 -4.76181 0
M  V30 247 C 26.9367 -1.14021 -5.08575 0
M  V30 248 C 24.2647 -1.7593 -5.59701 0
M  V30 249 C 26.6167 -2.19619 -5.93254 0
M  V30 250 C 25.2807 -2.51026 -6.185 0
M  V30 251 H 24.5507 0.118384 -0.731482 0
M  V30 252 H 27.1977 -0.405847 -1.8715 0
M  V30 253 H 25.5027 1.54539 -3.60035 0
M  V30 254 H 27.1997 1.22118 -3.81953 0
M  V30 255 H 23.7897 -0.135202 -4.28387 0
M  V30 256 H 27.9737 -0.915611 -4.87781 0
M  V30 257 H 23.2297 -2.0075 -5.77503 0
M  V30 258 H 27.4037 -2.78581 -6.38252 0
M  V30 259 H 25.0307 -3.33772 -6.83008 0
M  V30 260 N 26.6058 1.57591 -0.0167156 0
M  V30 261 C 27.8308 1.9598 0.67872 0
M  V30 262 C 28.2558 0.892546 1.65575 0
M  V30 263 O 27.6138 -0.147772 1.80697 0
M  V30 264 C 27.6618 3.33468 1.37227 0
M  V30 265 O 26.7658 3.28954 2.48722 0
M  V30 266 H 26.1068 0.639339 0.17928 0
M  V30 267 H 28.6368 2.04463 -0.0748802 0
M  V30 268 H 28.6468 3.69417 1.7319 0
M  V30 269 H 27.3218 4.10694 0.656007 0
M  V30 270 H 25.8988 3.04705 2.14963 0
M  V30 271 N 28.0839 -0.256276 1.55502 0
M  V30 272 C 29.3609 -1.00789 1.67633 0
M  V30 273 C 29.7409 -2.03706 0.553826 0
M  V30 274 O 29.0889 -2.24145 -0.443969 0
M  V30 275 C 29.2989 -1.64968 3.07549 0
M  V30 276 C 30.6469 -2.15505 3.65845 0
M  V30 277 O 31.6709 -1.74925 3.1029 0
M  V30 278 O 30.5299 -2.89986 4.63217 0
M  V30 279 H 27.6239 -0.468553 0.681459 0
M  V30 280 H 30.1699 -0.250806 1.67836 0
M  V30 281 H 28.9419 -0.904785 3.80696 0
M  V30 282 H 28.5649 -2.47321 3.11317 0
M  V30 283 N 29.562 -1.4872 -0.521534 0
M  V30 284 C 30.811 -1.56419 -1.27341 0
M  V30 285 C 31.124 -0.246805 -1.94037 0
M  V30 286 O 32.33 -0.202122 -2.70747 0
M  V30 287 C 30.786 -2.75896 -2.31105 0
M  V30 288 C 30.394 -4.14311 -1.70441 0
M  V30 289 C 32.138 -2.92913 -3.07249 0
M  V30 290 C 30.045 -5.25038 -2.72194 0
M  V30 291 H 28.975 -0.582344 -0.478949 0
M  V30 292 H 31.626 -1.75071 -0.549779 0
M  V30 293 H 30.008 -2.50697 -3.06541 0
M  V30 294 H 31.182 -4.49564 -1.01136 0
M  V30 295 H 29.497 -4.02482 -1.06759 0
M  V30 296 H 32.094 -3.72805 -3.83302 0
M  V30 297 H 32.437 -2.02689 -3.63625 0
M  V30 298 H 32.97 -3.18054 -2.38928 0
M  V30 299 H 29.709 -6.17255 -2.20627 0
M  V30 300 H 29.229 -4.94263 -3.39801 0
M  V30 301 H 30.908 -5.53508 -3.35019 0
M  V30 302 N 31.0401 0.771051 -1.3745 0
M  V30 303 C 32.2891 1.52491 -1.3202 0
M  V30 304 C 32.6021 1.9538 0.0927347 0
M  V30 305 O 33.8081 2.70159 0.269503 0
M  V30 306 C 32.2641 2.75366 -2.31736 0
M  V30 307 C 31.8721 2.39573 -3.78562 0
M  V30 308 C 33.6161 3.53307 -2.35318 0
M  V30 309 C 31.5231 3.58954 -4.70007 0
M  V30 310 H 30.4531 0.572506 -0.490666 0
M  V30 311 H 33.1041 0.844474 -1.62914 0
M  V30 312 H 31.4861 3.45303 -1.93861 0
M  V30 313 H 32.6601 1.77415 -4.25277 0
M  V30 314 H 30.9751 1.74805 -3.77932 0
M  V30 315 H 33.5721 4.42039 -3.00842 0
M  V30 316 H 33.9151 3.93217 -1.36698 0
M  V30 317 H 34.4481 2.90367 -2.71904 0
M  V30 318 H 31.1871 3.24125 -5.69757 0
M  V30 319 H 30.7071 4.20214 -4.27996 0
M  V30 320 H 32.3861 4.25758 -4.87175 0
M  V30 321 N 32.5182 1.22032 0.997298 0
M  V30 322 C 33.4652 0.986467 2.08656 0
M  V30 323 C 34.4352 -0.0902671 1.65855 0
M  V30 324 O 35.6202 0.0584294 1.90711 0
M  V30 325 C 32.7602 0.565569 3.40434 0
M  V30 326 C 31.8732 1.71259 3.96604 0
M  V30 327 C 31.0082 1.24011 5.16522 0
M  V30 328 C 30.0472 2.35896 5.64818 0
M  V30 329 N 29.1842 1.89726 6.7598 0
M  V30 330 H 34.0242 1.91892 2.27994 0
M  V30 331 H 31.5612 0.956199 1.11782 0
M  V30 332 H 33.5192 0.302738 4.161 0
M  V30 333 H 32.1492 -0.329879 3.2111 0
M  V30 334 H 31.2012 2.08986 3.17851 0
M  V30 335 H 32.5132 2.55436 4.28432 0
M  V30 336 H 31.6672 0.934395 5.99461 0
M  V30 337 H 30.4062 0.368487 4.86306 0
M  V30 338 H 29.4112 2.67261 4.8047 0
M  V30 339 H 30.6362 3.23567 5.97061 0
M  V30 340 H 28.5822 1.0492 6.47555 0
M  V30 341 H 28.4992 2.67471 7.07103 0
M  V30 342 H 29.7672 1.62211 7.62435 0
M  V30 343 N 33.9963 -1.19345 1.0293 0
M  V30 344 C 35.2213 -1.93538 0.745511 0
M  V30 345 C 35.6463 -1.75007 -0.689511 0
M  V30 346 O 35.0043 -1.05265 -1.47611 0
M  V30 347 C 35.0523 -3.43336 1.10239 0
M  V30 348 O 34.1563 -4.11806 0.221289 0
M  V30 349 H 33.4973 -0.604193 0.275404 0
M  V30 350 H 36.0273 -1.5141 1.37609 0
M  V30 351 H 36.0373 -3.94004 1.05947 0
M  V30 352 H 34.7123 -3.56146 2.14786 0
M  V30 353 H 33.2893 -3.715 0.322842 0
M  V30 354 N 35.4744 -0.807222 -1.35358 0
M  V30 355 C 36.8904 -0.491038 -1.51858 0
M  V30 356 C 37.0904 0.987648 -1.75635 0
M  V30 357 O 36.1464 1.77265 -1.79815 0
M  V30 358 C 37.4594 -1.33695 -2.69344 0
M  V30 359 C 39.0074 -1.33246 -2.83222 0
M  V30 360 C 39.4824 -2.1625 -4.03733 0
M  V30 361 N 40.9734 -2.1379 -4.10911 0
M  V30 362 C 41.7084 -2.74772 -5.03277 0
M  V30 363 N 41.2044 -3.44684 -6.0097 0
M  V30 364 N 42.9974 -2.6441 -4.96028 0
M  V30 365 H 35.1484 -1.76485 -1.18181 0
M  V30 366 H 37.4114 -0.751199 -0.578276 0
M  V30 367 H 37.1174 -2.38634 -2.58354 0
M  V30 368 H 36.9914 -0.990618 -3.6396 0
M  V30 369 H 39.3784 -0.290911 -2.93663 0
M  V30 370 H 39.4594 -1.71866 -1.89461 0
M  V30 371 H 39.1034 -3.20445 -3.94052 0
M  V30 372 H 39.0334 -1.74989 -4.96675 0
M  V30 373 H 41.5244 -1.62923 -3.40976 0
M  V30 374 H 41.8374 -3.88501 -6.68047 0
M  V30 375 H 40.1824 -3.48788 -6.01142 0
M  V30 376 H 43.3734 -2.0938 -4.18662 0
M  V30 377 H 43.5464 -3.12225 -5.6782 0
M  V30 378 N 36.9525 1.47285 -0.560781 0
M  V30 379 C 38.1775 2.07359 -0.0410566 0
M  V30 380 C 38.6025 1.41017 1.24483 0
M  V30 381 O 37.9605 0.486368 1.74654 0
M  V30 382 C 38.0085 3.6035 0.134123 0
M  V30 383 O 37.1125 3.94681 1.19587 0
M  V30 384 H 36.4535 0.661887 -0.0529291 0
M  V30 385 H 38.9835 1.89252 -0.777482 0
M  V30 386 H 38.9935 4.0652 0.347207 0
M  V30 387 H 37.6685 4.08034 -0.805047 0
M  V30 388 H 36.2455 3.60251 0.962987 0
M  V30 389 N 38.4306 0.297415 1.54768 0
M  V30 390 C 39.7076 -0.365847 1.92148 0
M  V30 391 C 40.0876 -1.71975 1.22424 0
M  V30 392 O 39.4356 -2.25666 0.358739 0
M  V30 393 C 39.6456 -0.484056 3.45627 0
M  V30 394 C 40.9936 -0.756594 4.17805 0
M  V30 395 O 42.0176 -0.568007 3.51642 0
M  V30 396 O 40.8766 -1.11863 5.34929 0
M  V30 397 H 37.9706 -0.203919 0.801465 0
M  V30 398 H 40.5166 0.34521 1.66152 0
M  V30 399 H 39.2886 0.467865 3.88493 0
M  V30 400 H 38.9116 -1.24372 3.77647 0
M  V30 401 N 39.9087 -1.5758 0.0250728 0
M  V30 402 C 40.8187 -2.1343 -0.973905 0
M  V30 403 C 41.8347 -1.08556 -1.35984 0
M  V30 404 O 43.0107 -1.40592 -1.44207 0
M  V30 405 C 40.0757 -2.64703 -2.23904 0
M  V30 406 C 39.1367 -3.84276 -1.91391 0
M  V30 407 C 38.3697 -4.33095 -3.11873 0
M  V30 408 O 38.5927 -3.81107 -4.24398 0
M  V30 409 O 37.5267 -5.24984 -2.94406 0
M  V30 410 H 41.3527 -2.99057 -0.529036 0
M  V30 411 H 38.9377 -1.48118 -0.195288 0
M  V30 412 H 40.8197 -2.97769 -2.98181 0
M  V30 413 H 39.4947 -1.82161 -2.6758 0
M  V30 414 H 38.4017 -3.56143 -1.14511 0
M  V30 415 H 39.7347 -4.67968 -1.52534 0
M  V30 416 N 41.3868 0.248026 -1.55636 0
M  V30 417 C 42.3368 1.30994 -1.86614 0
M  V30 418 C 43.3208 1.43543 -0.726918 0
M  V30 419 O 44.5128 1.46804 -0.988818 0
M  V30 420 C 41.6418 2.6656 -2.16335 0
M  V30 421 C 40.7278 2.58019 -3.36581 0
M  V30 422 N 41.1188 2.1911 -4.55878 0
M  V30 423 C 39.4168 2.89035 -3.39669 0
M  V30 424 C 40.1178 2.21174 -5.38012 0
M  V30 425 N 39.0938 2.60632 -4.77045 0
M  V30 426 H 42.8958 0.999583 -2.76379 0
M  V30 427 H 40.4098 0.456652 -1.55848 0
M  V30 428 H 42.4068 3.43194 -2.36692 0
M  V30 429 H 41.0668 2.98463 -1.27867 0
M  V30 430 H 42.0778 1.90672 -4.81523 0
M  V30 431 H 38.7548 3.25485 -2.61469 0
M  V30 432 H 40.1448 1.9344 -6.43452 0
M  V30 433 N 42.8649 1.48995 0.513639 0
M  V30 434 C 43.8129 1.65199 1.63744 0
M  V30 435 C 44.8069 0.51809 1.61283 0
M  V30 436 O 46.0129 0.697335 1.65943 0
M  V30 437 H 42.3879 0.52069 0.542574 0
M  V30 438 H 44.3589 2.59552 1.47226 0
M  V30 439 C 43.1079 1.72409 3.01945 0
M  V30 440 H 42.4309 2.59029 3.04539 0
M  V30 441 H 43.8709 1.87785 3.80148 0
M  V30 442 C 42.3299 0.46618 3.33659 0
M  V30 443 O 42.8599 -0.413744 3.99564 0
M  V30 444 N 41.0659 0.332931 2.88687 0
M  V30 445 H 40.6129 1.04996 2.35231 0
M  V30 446 H 40.5709 -0.507665 3.10274 0
M  V30 447 N 44.343 -0.763751 1.37857 0
M  V30 448 C 45.62 -1.51244 1.24035 0
M  V30 449 C 46 -2.10472 -0.162649 0
M  V30 450 O 45.348 -1.96206 -1.17112 0
M  V30 451 C 45.558 -2.58694 2.34261 0
M  V30 452 C 46.906 -3.25878 2.72193 0
M  V30 453 O 47.93 -2.68993 2.33497 0
M  V30 454 O 46.789 -4.2874 3.38887 0
M  V30 455 H 43.883 -0.670243 0.484462 0
M  V30 456 H 46.429 -0.800031 1.49658 0
M  V30 457 H 45.201 -2.13105 3.2818 0
M  V30 458 H 44.824 -3.37527 2.10146 0
M  V30 459 N 45.8211 -1.22559 -0.990812 0
M  V30 460 C 47.0671 -1.05297 -1.73322 0
M  V30 461 C 47.4001 0.410655 -1.89808 0
M  V30 462 O 46.6751 1.30439 -1.44277 0
M  V30 463 C 46.9581 -1.76713 -3.13759 0
M  V30 464 C 46.8111 -3.30684 -3.04907 0
M  V30 465 C 48.1301 -1.52121 -4.12974 0
M  V30 466 H 45.2491 -0.38392 -0.629106 0
M  V30 467 H 47.8911 -1.50926 -1.15418 0
M  V30 468 H 46.0411 -1.37924 -3.63193 0
M  V30 469 H 47.7131 -3.7893 -2.63077 0
M  V30 470 H 45.9561 -3.60253 -2.41661 0
M  V30 471 H 46.6271 -3.75833 -4.04294 0
M  V30 472 H 49.1031 -1.85819 -3.72304 0
M  V30 473 H 47.9791 -2.04582 -5.0935 0
M  V30 474 H 48.2401 -0.454257 -4.3976 0
M  V30 475 N 47.2992 1.18797 -1.03562 0
M  V30 476 C 48.2312 2.21731 -0.580337 0
M  V30 477 C 49.2442 1.59051 0.347349 0
M  V30 478 O 50.4332 1.77929 0.142669 0
M  V30 479 C 47.5332 3.38459 0.172805 0
M  V30 480 C 46.7062 4.3072 -0.761496 0
M  V30 481 C 45.7652 5.26174 -0.0525547 0
M  V30 482 O 44.7912 5.65108 -0.681333 0
M  V30 483 N 45.9932 5.67624 1.21586 0
M  V30 484 H 48.7582 2.61417 -1.46565 0
M  V30 485 H 46.3192 1.33531 -0.915476 0
M  V30 486 H 48.3112 3.99335 0.656793 0
M  V30 487 H 46.8812 2.97507 0.959602 0
M  V30 488 H 46.1012 3.67525 -1.42544 0
M  V30 489 H 47.3892 4.89267 -1.39626 0
M  V30 490 H 46.7872 5.38038 1.74732 0
M  V30 491 H 45.3442 6.30721 1.64421 0
M  V30 492 N 48.7773 0.814389 1.34928 0
M  V30 493 C 49.7243 0.22822 2.29669 0
M  V30 494 C 50.6943 -0.642164 1.53184 0
M  V30 495 O 51.8793 -0.585605 1.81591 0
M  V30 496 C 49.0193 -0.61089 3.3965 0
M  V30 497 C 48.1323 0.280792 4.31086 0
M  V30 498 C 47.2673 -0.567067 5.28165 0
M  V30 499 C 46.3063 0.324531 6.11239 0
M  V30 500 N 45.4433 -0.483756 7.00431 0
M  V30 501 H 50.2833 1.04153 2.79206 0
M  V30 502 H 47.8203 0.525133 1.37407 0
M  V30 503 H 49.7783 -1.11263 4.0209 0
M  V30 504 H 48.4083 -1.38939 2.91369 0
M  V30 505 H 47.4603 0.900688 3.69583 0
M  V30 506 H 48.7723 0.966723 4.89342 0
M  V30 507 H 47.9263 -1.13363 5.96015 0
M  V30 508 H 46.6653 -1.28654 4.70425 0
M  V30 509 H 45.6703 0.903298 5.42329 0
M  V30 510 H 46.8953 1.04198 6.71059 0
M  V30 511 H 44.8413 -1.18706 6.45171 0
M  V30 512 H 44.7583 0.143965 7.55863 0
M  V30 513 H 46.0263 -1.03334 7.7262 0
M  V30 514 N 50.2554 -1.46986 0.568584 0
M  V30 515 C 51.2024 -2.30153 -0.172707 0
M  V30 516 C 52.1724 -1.39759 -0.897586 0
M  V30 517 O 53.3574 -1.68716 -0.891044 0
M  V30 518 C 50.4974 -3.23952 -1.1895 0
M  V30 519 C 49.6104 -4.29441 -0.469517 0
M  V30 520 C 48.7454 -5.1038 -1.47259 0
M  V30 521 C 47.7844 -6.07632 -0.738225 0
M  V30 522 N 46.9214 -6.8149 -1.68868 0
M  V30 523 H 51.7614 -2.93019 0.542596 0
M  V30 524 H 49.2984 -1.44422 0.279401 0
M  V30 525 H 51.2564 -3.76767 -1.79173 0
M  V30 526 H 49.8864 -2.62926 -1.87269 0
M  V30 527 H 48.9384 -3.79594 0.247467 0
M  V30 528 H 50.2504 -4.98689 0.105241 0
M  V30 529 H 49.4044 -5.67402 -2.14803 0
M  V30 530 H 48.1434 -4.4106 -2.08128 0
M  V30 531 H 47.1484 -5.49778 -0.0489293 0
M  V30 532 H 48.3734 -6.78966 -0.135129 0
M  V30 533 H 46.3194 -6.14891 -2.28573 0
M  V30 534 H 46.2364 -7.46948 -1.16636 0
M  V30 535 H 47.5044 -7.43078 -2.3549 0
M  V30 536 N 51.7335 -0.305618 -1.54608 0
M  V30 537 C 52.9615 0.304775 -2.04643 0
M  V30 538 C 53.3765 1.47167 -1.18268 0
M  V30 539 O 52.7335 1.81296 -0.209328 0
M  V30 540 C 52.7845 0.756564 -3.53495 0
M  V30 541 O 52.5055 -0.36389 -4.36586 0
M  V30 542 C 54.0065 1.43163 -4.19546 0
M  V30 543 H 51.2265 0.0655481 -0.667791 0
M  V30 544 H 53.7705 -0.446592 -1.99564 0
M  V30 545 H 51.9255 1.45794 -3.58919 0
M  V30 546 H 52.3395 -0.0113121 -5.24499 0
M  V30 547 H 53.8135 1.69886 -5.25207 0
M  V30 548 H 54.2905 2.37318 -3.69563 0
M  V30 549 H 54.8965 0.773307 -4.18211 0
M  V30 550 N 53.2116 1.57565 -0.0334293 0
M  V30 551 C 54.4586 1.91978 0.644272 0
M  V30 552 C 54.7866 0.910231 1.71887 0
M  V30 553 O 54.0416 -0.0801961 1.95536 0
M  V30 554 C 54.3406 3.33112 1.29504 0
M  V30 555 C 54.0066 4.49537 0.350388 0
M  V30 556 C 52.6686 4.81115 0.0903974 0
M  V30 557 C 55.0206 5.20347 -0.298032 0
M  V30 558 C 52.3486 5.8086 -0.825746 0
M  V30 559 C 54.7006 6.2107 -1.20226 0
M  V30 560 C 53.3646 6.51088 -1.4711 0
M  V30 561 H 52.6346 0.702496 0.235756 0
M  V30 562 H 55.2816 1.91259 -0.0961176 0
M  V30 563 H 53.5866 3.30113 2.11028 0
M  V30 564 H 55.2836 3.57011 1.82603 0
M  V30 565 H 51.8736 4.24883 0.563205 0
M  V30 566 H 56.0576 4.96178 -0.110234 0
M  V30 567 H 51.3136 6.02461 -1.04169 0
M  V30 568 H 55.4876 6.75057 -1.71086 0
M  V30 569 H 53.1146 7.28193 -2.18264 0
M  V30 570 N 54.6897 -0.239769 1.55765 0
M  V30 571 C 55.9177 -0.98417 1.81994 0
M  V30 572 C 56.3327 -1.7867 0.610124 0
M  V30 573 O 55.6897 -1.77571 -0.421271 0
M  V30 574 C 55.7407 -1.91635 3.06526 0
M  V30 575 O 55.4617 -1.14629 4.22838 0
M  V30 576 C 56.9627 -2.77616 3.45607 0
M  V30 577 H 54.1827 -0.28928 0.605441 0
M  V30 578 H 56.7267 -0.260499 2.02834 0
M  V30 579 H 54.8817 -2.5942 2.87715 0
M  V30 580 H 55.2957 -1.77745 4.93464 0
M  V30 581 H 56.7697 -3.38759 4.35828 0
M  V30 582 H 57.2467 -3.4909 2.6652 0
M  V30 583 H 57.8527 -2.15271 3.66795 0
M  V30 584 N 56.1678 -1.49265 -0.50573 0
M  V30 585 C 57.1148 -1.65585 -1.6078 0
M  V30 586 C 58.0848 -0.497396 -1.58478 0
M  V30 587 O 59.2698 -0.72385 -1.76536 0
M  V30 588 C 56.4098 -1.72408 -2.98948 0
M  V30 589 C 55.5228 -2.99525 -3.11301 0
M  V30 590 C 54.6578 -2.97356 -4.40174 0
M  V30 591 C 53.6968 -4.19074 -4.46143 0
M  V30 592 N 52.8338 -4.14841 -5.66437 0
M  V30 593 H 57.6738 -2.59688 -1.46172 0
M  V30 594 H 55.2108 -1.28761 -0.711261 0
M  V30 595 H 57.1688 -1.74344 -3.79025 0
M  V30 596 H 55.7988 -0.817753 -3.1227 0
M  V30 597 H 54.8508 -3.07222 -2.24318 0
M  V30 598 H 56.1628 -3.89518 -3.11572 0
M  V30 599 H 55.3168 -2.97829 -5.28567 0
M  V30 600 H 54.0558 -2.05133 -4.42461 0
M  V30 601 H 53.0608 -4.1885 -3.56153 0
M  V30 602 H 54.2858 -5.12483 -4.45575 0
M  V30 603 H 52.2318 -3.25453 -5.69575 0
M  V30 604 H 52.1488 -4.98564 -5.68304 0
M  V30 605 H 53.4168 -4.1941 -6.57051 0
M  V30 606 N 57.6459 0.756429 -1.3826 0
M  V30 607 C 58.8919 1.5168 -1.35517 0
M  V30 608 C 59.2469 1.9232 0.0554451 0
M  V30 609 O 58.5399 1.62352 1.01746 0
M  V30 610 C 58.7339 2.78313 -2.24224 0
M  V30 611 C 58.5629 2.50053 -3.7377 0
M  V30 612 C 57.3329 2.43414 -4.42807 0
M  V30 613 C 59.5309 2.1702 -4.66269 0
M  V30 614 N 57.5129 2.07398 -5.77805 0
M  V30 615 C 58.8839 1.91271 -5.89759 0
M  V30 616 C 60.9389 2.03305 -4.54501 0
M  V30 617 C 59.6419 1.53192 -7.02798 0
M  V30 618 C 61.6679 1.66627 -5.67441 0
M  V30 619 C 61.0299 1.4175 -6.8999 0
M  V30 620 H 57.1289 0.554735 -0.551174 0
M  V30 621 H 59.7129 0.881106 -1.73622 0
M  V30 622 H 57.8839 3.39696 -1.88311 0
M  V30 623 H 59.6159 3.44343 -2.12627 0
M  V30 624 H 56.3709 2.59789 -3.95988 0
M  V30 625 H 56.7949 1.92044 -6.4919 0
M  V30 626 H 61.4369 2.21215 -3.60311 0
M  V30 627 H 59.1549 1.34022 -7.96909 0
M  V30 628 H 62.7409 1.56652 -5.60314 0
M  V30 629 H 61.6209 1.1379 -7.759 0
M  V30 630 N 59.124 1.23083 0.984299 0
M  V30 631 C 60.373 1.05466 1.71929 0
M  V30 632 C 60.686 -0.409211 1.91272 0
M  V30 633 O 61.892 -0.705226 2.62181 0
M  V30 634 C 60.348 1.83874 3.09384 0
M  V30 635 C 59.956 3.34566 2.97943 0
M  V30 636 C 61.7 1.74734 3.8687 0
M  V30 637 C 59.607 4.05381 4.30605 0
M  V30 638 H 58.537 0.391039 0.644674 0
M  V30 639 H 61.188 1.47013 1.09815 0
M  V30 640 H 59.57 1.35131 3.72231 0
M  V30 641 H 60.744 3.90767 2.44209 0
M  V30 642 H 59.059 3.44476 2.33934 0
M  V30 643 H 61.656 2.24957 4.85076 0
M  V30 644 H 61.999 0.709372 4.10212 0
M  V30 645 H 62.532 2.21067 3.30717 0
M  V30 646 H 59.271 5.09467 4.1246 0
M  V30 647 H 58.791 3.53967 4.84218 0
M  V30 648 H 60.47 4.11458 4.99311 0
M  V30 649 N 60.6021 -1.18246 1.0419 0
M  V30 650 C 61.5501 -2.23968 0.627792 0
M  V30 651 C 62.5441 -1.65828 -0.346019 0
M  V30 652 O 63.7501 -1.78733 -0.213175 0
M  V30 653 H 60.1251 -0.728939 0.184802 0
M  V30 654 H 62.0961 -2.56202 1.52981 0
M  V30 655 C 60.8451 -3.47699 0.00796591 0
M  V30 656 H 60.1681 -3.92734 0.748347 0
M  V30 657 H 61.6081 -4.23294 -0.24455 0
M  V30 658 C 60.0671 -3.13153 -1.24246 0
M  V30 659 O 60.5971 -3.27003 -2.33307 0
M  V30 660 N 58.8031 -2.67467 -1.13622 0
M  V30 661 H 58.3501 -2.56396 -0.248734 0
M  V30 662 H 58.3081 -2.44724 -1.97377 0
M  V30 663 N 62.0802 -0.821533 -1.34494 0
M  V30 664 C 63.0432 -0.247847 -2.27856 0
M  V30 665 C 64.0432 0.573453 -1.50227 0
M  V30 666 O 65.2332 0.389759 -1.69784 0
M  V30 667 C 62.3652 0.652698 -3.34593 0
M  V30 668 H 63.5582 -1.07146 -2.80107 0
M  V30 669 H 61.1112 -0.593291 -1.44602 0
M  V30 670 H 61.8462 1.49943 -2.87555 0
M  V30 671 H 61.6312 0.065292 -3.92046 0
M  V30 672 H 63.1212 1.04793 -4.04238 0
M  V30 673 N 63.5583 1.46682 -0.576371 0
M  V30 674 C 64.9743 1.57822 -0.237562 0
M  V30 675 C 65.1743 1.57237 1.26011 0
M  V30 676 O 64.2303 1.48596 2.04146 0
M  V30 677 C 65.5433 2.87499 -0.881168 0
M  V30 678 C 67.0913 3.01119 -0.85417 0
M  V30 679 C 67.5663 4.33524 -1.4772 0
M  V30 680 N 69.0573 4.40207 -1.44125 0
M  V30 681 C 69.7923 5.4126 -1.89276 0
M  V30 682 N 69.2883 6.49021 -2.42371 0
M  V30 683 N 71.0813 5.32422 -1.80231 0
M  V30 684 H 63.2323 1.45306 -1.54919 0
M  V30 685 H 65.4953 0.692733 -0.647167 0
M  V30 686 H 65.2013 2.9372 -1.93447 0
M  V30 687 H 65.0753 3.75224 -0.385592 0
M  V30 688 H 67.4623 2.94485 0.190491 0
M  V30 689 H 67.5433 2.14887 -1.3877 0
M  V30 690 H 67.1873 4.40916 -2.52103 0
M  V30 691 H 67.1173 5.1852 -0.918947 0
M  V30 692 H 69.6083 3.62931 -1.05307 0
M  V30 693 H 69.9213 7.2233 -2.74698 0
M  V30 694 H 68.2663 6.49858 -2.46393 0
M  V30 695 H 71.4573 4.47137 -1.38514 0
M  V30 696 H 71.6303 6.11034 -2.15735 0
M  V30 697 N 65.0364 0.313813 1.54444 0
M  V30 698 C 66.2834 -0.291675 2.00388 0
M  V30 699 C 66.6114 -1.52904 1.2021 0
M  V30 700 O 65.8664 -1.93833 0.269707 0
M  V30 701 C 66.1654 -0.680386 3.50864 0
M  V30 702 C 65.8314 0.456699 4.48581 0
M  V30 703 C 64.4934 0.768824 4.75018 0
M  V30 704 C 66.8454 1.22098 5.06697 0
M  V30 705 C 64.1734 1.84812 5.56831 0
M  V30 706 C 66.5254 2.29029 5.89685 0
M  V30 707 C 65.1894 2.60834 6.14428 0
M  V30 708 H 64.4594 -0.106732 0.733273 0
M  V30 709 H 67.1064 0.43557 1.86481 0
M  V30 710 H 65.4114 -1.48791 3.62448 0
M  V30 711 H 67.1084 -1.16026 3.83847 0
M  V30 712 H 63.6984 0.203337 4.28117 0
M  V30 713 H 67.8824 0.993096 4.86263 0
M  V30 714 H 63.1384 2.09912 5.74236 0
M  V30 715 H 67.3124 2.887 6.33739 0
M  V30 716 H 64.9394 3.44596 6.77612 0
M  V30 717 N 66.5145 -1.57545 0.0417849 0
M  V30 718 C 67.7395 -1.97035 -0.647455 0
M  V30 719 C 68.1645 -0.918775 -1.64135 0
M  V30 720 O 67.5225 0.119006 -1.80909 0
M  V30 721 C 67.5705 -3.35609 -1.31905 0
M  V30 722 O 66.6745 -3.3287 -2.43457 0
M  V30 723 H 66.0155 -0.64211 -0.169086 0
M  V30 724 H 68.5455 -2.04318 0.107399 0
M  V30 725 H 68.5555 -3.72126 -1.67291 0
M  V30 726 H 67.2305 -4.11685 -0.590586 0
M  V30 727 H 65.8075 -3.08087 -2.10088 0
M  V30 728 N 67.9926 0.231505 -1.5589 0
M  V30 729 C 68.9396 1.28682 -1.91598 0
M  V30 730 C 69.9096 1.47071 -0.771974 0
M  V30 731 O 71.0946 1.60802 -1.027 0
M  V30 732 C 68.2346 2.6342 -2.22944 0
M  V30 733 C 67.3476 2.52912 -3.50228 0
M  V30 734 C 66.4826 3.80106 -3.7107 0
M  V30 735 C 65.5216 3.64279 -4.91902 0
M  V30 736 N 64.6586 4.834 -5.09184 0
M  V30 737 H 69.4986 0.975305 -2.81588 0
M  V30 738 H 67.0356 0.470299 -1.39379 0
M  V30 739 H 68.9936 3.41869 -2.39126 0
M  V30 740 H 67.6236 2.92687 -1.36139 0
M  V30 741 H 66.6756 1.6595 -3.42294 0
M  V30 742 H 67.9876 2.37133 -4.38827 0
M  V30 743 H 67.1416 4.66999 -3.87295 0
M  V30 744 H 65.8806 3.98799 -2.80733 0
M  V30 745 H 64.8856 2.7577 -4.75637 0
M  V30 746 H 66.1106 3.47067 -5.83714 0
M  V30 747 H 64.0566 5.02425 -4.21788 0
M  V30 748 H 63.9736 4.70311 -5.91898 0
M  V30 749 H 65.2416 5.71747 -5.29835 0
M  V30 750 N 69.4707 1.49531 0.497807 0
M  V30 751 C 70.6957 1.63159 1.28039 0
M  V30 752 C 71.1207 0.30418 1.85624 0
M  V30 753 O 70.4787 -0.728618 1.66015 0
M  V30 754 C 70.5267 2.70537 2.38416 0
M  V30 755 O 69.6307 2.29931 3.42353 0
M  V30 756 H 68.9717 0.546001 0.377861 0
M  V30 757 H 71.5017 1.9574 0.59558 0
M  V30 758 H 71.5117 2.92802 2.84132 0
M  V30 759 H 70.1867 3.6689 1.95869 0
M  V30 760 H 68.7637 2.18009 3.02533 0
M  V30 761 N 70.9488 -0.749086 1.3866 0
M  V30 762 C 72.1968 -1.50535 1.34847 0
M  V30 763 C 72.5178 -1.94909 -0.0595016 0
M  V30 764 O 71.7878 -1.67973 -1.00806 0
M  V30 765 H 70.3678 -0.558395 0.49619 0
M  V30 766 H 73.0298 -0.890165 1.73384 0
M  V30 767 H 72.1258 -2.39413 2.00219 0
M  V30 768 N 72.4269 -1.23603 -0.977757 0
M  V30 769 C 73.3739 -1.01954 -2.07061 0
M  V30 770 C 74.3439 0.0638697 -1.65977 0
M  V30 771 O 75.5289 -0.0887624 -1.90593 0
M  V30 772 C 72.6689 -0.619658 -3.39491 0
M  V30 773 C 71.7819 -1.77547 -3.93829 0
M  V30 774 C 70.9169 -1.32212 -5.14484 0
M  V30 775 C 69.9559 -2.44852 -5.60994 0
M  V30 776 N 69.0929 -2.00456 -6.72876 0
M  V30 777 H 73.9329 -1.95495 -2.24913 0
M  V30 778 H 71.4699 -0.973861 -1.10247 0
M  V30 779 H 73.4279 -0.368898 -4.15566 0
M  V30 780 H 72.0579 0.278752 -3.21594 0
M  V30 781 H 71.1099 -2.14016 -3.14486 0
M  V30 782 H 72.4219 -2.62219 -4.24314 0
M  V30 783 H 71.5759 -1.02965 -5.97899 0
M  V30 784 H 70.3149 -0.445808 -4.85658 0
M  V30 785 H 69.3199 -2.74871 -4.76157 0
M  V30 786 H 70.5449 -3.33024 -5.91837 0
M  V30 787 H 68.4909 -1.15208 -6.45804 0
M  V30 788 H 68.4079 -2.78687 -7.02759 0
M  V30 789 H 69.6759 -1.7432 -7.59758 0
M  V30 790 N 73.905 1.17692 -1.04816 0
M  V30 791 C 75.316 1.69501 -0.782698 0
M  V30 792 C 75.667 1.83456 0.695577 0
M  V30 793 O 74.792 1.51942 1.54086 0
M  V30 794 C 75.387 3.07874 -1.41419 0
M  V30 795 C 73.946 3.56864 -1.19686 0
M  V30 796 C 73.093 2.3322 -1.50012 0
M  V30 797 H 76.044 1.02262 -1.2136 0
M  V30 798 H 76.065 3.71528 -0.821428 0
M  V30 799 H 75.577 2.97685 -2.49009 0
M  V30 800 H 73.678 3.72337 -0.140043 0
M  V30 801 H 73.791 4.39851 -1.89916 0
M  V30 802 H 72.155 2.37501 -0.920071 0
M  V30 803 H 72.938 2.25644 -2.58727 0
M  V30 804 N 75.3831 0.828654 1.34056 0
M  V30 805 C 76.7941 0.477534 1.8049 0
M  V30 806 C 77.1451 -1.00258 1.6865 0
M  V30 807 O 76.2701 -1.78057 1.22982 0
M  V30 808 C 76.8651 0.860018 3.27703 0
M  V30 809 C 75.4241 0.561185 3.72193 0
M  V30 810 C 74.5711 1.07385 2.55663 0
M  V30 811 H 77.5221 1.0183 1.21722 0
M  V30 812 H 77.5431 0.166038 3.80138 0
M  V30 813 H 77.0551 1.93731 3.36288 0
M  V30 814 H 75.1561 -0.506465 3.69142 0
M  V30 815 H 75.2691 1.10926 4.66082 0
M  V30 816 H 73.6331 0.495149 2.49841 0
M  V30 817 H 74.4161 2.15771 2.67016 0
M  V30 818 N 76.8612 -1.46375 0.584142 0
M  V30 819 C 78.1102 -2.01585 0.0679741 0
M  V30 820 C 78.4232 -1.46109 -1.30045 0
M  V30 821 O 79.6292 -1.93148 -1.90804 0
M  V30 822 C 78.0852 -3.5983 0.0709207 0
M  V30 823 C 77.6932 -4.24303 1.43775 0
M  V30 824 C 79.4372 -4.22693 -0.391228 0
M  V30 825 C 77.3442 -5.74631 1.39834 0
M  V30 826 H 76.2742 -0.753689 0.0216421 0
M  V30 827 H 78.9252 -1.68093 0.736001 0
M  V30 828 H 77.3072 -3.90405 -0.663299 0
M  V30 829 H 78.4812 -4.05335 2.19181 0
M  V30 830 H 76.7962 -3.73539 1.84004 0
M  V30 831 H 79.3932 -5.3289 -0.439524 0
M  V30 832 H 79.7362 -3.91728 -1.40906 0
M  V30 833 H 80.2692 -3.96749 0.288974 0
M  V30 834 H 77.0082 -6.10258 2.39303 0
M  V30 835 H 76.5282 -5.95858 0.686505 0
M  V30 836 H 78.2072 -6.37375 1.11187 0
M  V30 837 N 78.3393 -0.321999 -1.54275 0
M  V30 838 C 79.2873 0.560206 -2.25753 0
M  V30 839 C 80.2813 1.11984 -1.27106 0
M  V30 840 O 81.4873 1.06806 -1.44888 0
M  V30 841 H 77.8623 0.199304 -0.725108 0
M  V30 842 H 79.8333 -0.0649365 -2.98329 0
M  V30 843 C 78.5823 1.71023 -3.02731 0
M  V30 844 H 77.9053 1.28885 -3.78456 0
M  V30 845 H 79.3453 2.30314 -3.55993 0
M  V30 846 C 77.8043 2.62692 -2.10938 0
M  V30 847 O 78.3343 3.64364 -1.6912 0
M  V30 848 N 76.5403 2.30891 -1.76459 0
M  V30 849 H 76.0873 1.48253 -2.10663 0
M  V30 850 H 76.0453 2.92487 -1.1532 0
M  V30 851 N 79.8174 1.5752 -0.0501392 0
M  V30 852 C 81.0944 1.83996 0.663685 0
M  V30 853 C 81.4744 0.938339 1.89099 0
M  V30 854 O 80.8224 -0.00087759 2.285 0
M  V30 855 C 81.0324 3.33702 1.02196 0
M  V30 856 C 82.3804 4.00691 1.40469 0
M  V30 857 O 83.4044 3.38321 1.11433 0
M  V30 858 O 82.2634 5.10658 1.94654 0
M  V30 859 H 79.3574 0.759385 0.32751 0
M  V30 860 H 81.9034 1.69514 -0.0794238 0
M  V30 861 H 80.6754 3.91015 0.149364 0
M  V30 862 H 80.2984 3.53368 1.82255 0
M  V30 863 N 81.2955 -0.223234 1.56011 0
M  V30 864 C 82.2285 -1.30377 1.87289 0
M  V30 865 C 83.2065 -1.45286 0.730112 0
M  V30 866 O 84.3905 -1.61126 0.978302 0
M  V30 867 C 81.5175 -2.67431 2.07843 0
M  V30 868 C 80.5635 -2.69546 3.30526 0
M  V30 869 S 81.3965 -2.23781 4.865 0
M  V30 870 C 82.5525 -3.62714 5.10088 0
M  V30 871 H 82.7855 -1.03652 2.78646 0
M  V30 872 H 80.3185 -0.425393 1.48424 0
M  V30 873 H 82.2765 -3.46336 2.20368 0
M  V30 874 H 80.9375 -2.91381 1.17285 0
M  V30 875 H 80.1305 -3.70255 3.41947 0
M  V30 876 H 79.7325 -1.98703 3.16849 0
M  V30 877 H 82.0245 -4.58391 4.98883 0
M  V30 878 H 82.9675 -3.5621 6.11981 0
M  V30 879 H 83.3755 -3.56323 4.37829 0
M  V30 880 N 82.7736 -1.49793 -0.48987 0
M  V30 881 C 84.0206 -1.59841 -1.24327 0
M  V30 882 C 84.3486 -0.290135 -1.92324 0
M  V30 883 O 83.6036 0.722749 -1.81865 0
M  V30 884 C 83.9026 -2.71488 -2.32441 0
M  V30 885 C 83.5686 -4.12614 -1.81826 0
M  V30 886 C 82.2306 -4.51017 -1.67742 0
M  V30 887 C 84.5826 -5.00892 -1.4407 0
M  V30 888 C 81.9106 -5.75459 -1.14297 0
M  V30 889 C 84.2626 -6.25863 -0.920742 0
M  V30 890 C 82.9266 -6.63086 -0.766383 0
M  V30 891 H 82.1966 -0.584899 -0.454944 0
M  V30 892 H 84.8436 -1.83663 -0.542215 0
M  V30 893 H 83.1486 -2.4168 -3.0838 0
M  V30 894 H 84.8456 -2.76469 -2.90458 0
M  V30 895 H 81.4356 -3.82307 -1.93751 0
M  V30 896 H 85.6196 -4.7187 -1.53794 0
M  V30 897 H 80.8756 -6.02989 -1.01068 0
M  V30 898 H 85.0496 -6.9364 -0.619448 0
M  V30 899 H 82.6766 -7.59393 -0.350083 0
M  V30 900 N 84.2517 0.741722 -1.39055 0
M  V30 901 C 85.4797 1.53098 -1.39171 0
M  V30 902 C 85.8947 1.88794 0.0155099 0
M  V30 903 O 85.2517 1.53626 0.985159 0
M  V30 904 C 85.3027 2.82274 -2.2584 0
M  V30 905 O 85.0237 2.48097 -3.61081 0
M  V30 906 C 86.5247 3.76343 -2.34266 0
M  V30 907 H 83.7447 0.473335 -0.4756 0
M  V30 908 H 86.2887 0.917045 -1.82785 0
M  V30 909 H 84.4437 3.40015 -1.85656 0
M  V30 910 H 84.8577 3.31029 -4.06842 0
M  V30 911 H 86.3317 4.63898 -2.9917 0
M  V30 912 H 86.8087 4.17619 -1.35982 0
M  V30 913 H 87.4147 3.24523 -2.74891 0
M  V30 914 N 85.7298 1.2412 0.971189 0
M  V30 915 C 87.0068 0.986867 1.6888 0
M  V30 916 C 87.3868 -0.491857 2.0529 0
M  V30 917 O 86.7348 -1.46531 1.75331 0
M  V30 918 C 86.9448 1.9063 2.92338 0
M  V30 919 C 88.2928 2.17515 3.64654 0
M  V30 920 O 89.3168 1.88254 3.02388 0
M  V30 921 O 88.1758 2.6719 4.7673 0
M  V30 922 H 85.2698 0.372944 0.738134 0
M  V30 923 H 87.8158 1.35203 1.02559 0
M  V30 924 H 86.5878 2.90552 2.62097 0
M  V30 925 H 86.2108 1.54408 3.66393 0
M  V30 926 N 87.2079 -1.17134 1.05439 0
M  V30 927 C 88.1379 -2.2342 0.678649 0
M  V30 928 C 89.1189 -1.66971 -0.32476 0
M  V30 929 O 90.3039 -1.93149 -0.201802 0
M  V30 930 C 87.4339 -3.47256 0.0552099 0
M  V30 931 C 86.3879 -4.16543 0.98365 0
M  V30 932 C 85.7139 -5.34231 0.223961 0
M  V30 933 C 87.0139 -4.68495 2.3089 0
M  V30 934 H 88.7079 -2.55105 1.56722 0
M  V30 935 H 86.2539 -1.2262 0.754998 0
M  V30 936 H 88.2069 -4.20828 -0.21946 0
M  V30 937 H 86.9309 -3.14846 -0.868319 0
M  V30 938 H 85.5899 -3.44887 1.24293 0
M  V30 939 H 85.2379 -4.98071 -0.702412 0
M  V30 940 H 84.9379 -5.81527 0.842627 0
M  V30 941 H 86.4619 -6.10585 -0.0433671 0
M  V30 942 H 87.8759 -5.33691 2.09396 0
M  V30 943 H 86.2729 -5.26379 2.88176 0
M  V30 944 H 87.3429 -3.85169 2.94572 0
M  V30 945 N 88.686 -0.835752 -1.33615 0
M  V30 946 C 89.633 -0.26473 -2.29277 0
M  V30 947 C 90.603 0.617712 -1.54187 0
M  V30 948 O 91.788 0.556641 -1.825 0
M  V30 949 C 88.928 0.556777 -3.40579 0
M  V30 950 C 88.041 -0.349339 -4.30585 0
M  V30 951 C 87.176 0.482969 -5.29 0
M  V30 952 C 86.215 -0.421732 -6.10645 0
M  V30 953 N 85.352 0.372262 -7.01112 0
M  V30 954 H 90.192 -1.08582 -2.77514 0
M  V30 955 H 87.729 -0.546927 -1.36554 0
M  V30 956 H 89.687 1.04852 -4.03809 0
M  V30 957 H 88.317 1.34286 -2.93542 0
M  V30 958 H 87.369 -0.959372 -3.68104 0
M  V30 959 H 88.681 -1.04445 -4.87742 0
M  V30 960 H 87.835 1.03866 -5.97743 0
M  V30 961 H 86.574 1.21153 -4.72412 0
M  V30 962 H 85.579 -0.989464 -5.40823 0
M  V30 963 H 86.804 -1.14861 -6.69316 0
M  V30 964 H 84.75 1.08426 -6.46977 0
M  V30 965 H 84.667 -0.264198 -7.55538 0
M  V30 966 H 85.935 0.910293 -7.74167 0
M  V30 967 N 90.1641 1.46063 -0.591896 0
M  V30 968 C 91.4411 1.95595 -0.0137119 0
M  V30 969 C 91.8211 1.5345 1.4497 0
M  V30 970 O 91.1691 0.789543 2.14426 0
M  V30 971 C 91.3791 3.48453 -0.195373 0
M  V30 972 C 92.7271 4.24546 -0.0679765 0
M  V30 973 O 93.7511 3.55982 -0.124681 0
M  V30 974 O 92.6101 5.46467 0.0600579 0
M  V30 975 H 89.7041 0.825795 0.0446279 0
M  V30 976 H 92.2501 1.56303 -0.660859 0
M  V30 977 H 91.0221 3.72045 -1.21235 0
M  V30 978 H 90.6451 3.94597 0.487775 0
M  V30 979 N 91.6422 0.330177 1.54103 0
M  V30 980 C 92.8902 -0.269871 2.0029 0
M  V30 981 C 93.2112 -1.52133 1.21986 0
M  V30 982 O 92.4812 -1.93212 0.323438 0
M  V30 983 H 91.0612 -0.10271 0.739905 0
M  V30 984 H 93.7232 0.448249 1.89675 0
M  V30 985 H 92.8192 -0.52166 3.07709 0
M  V30 986 N 93.1203 -1.57491 0.0584922 0
M  V30 987 C 94.5363 -1.56792 -0.298091 0
M  V30 988 C 94.7363 -1.06679 -1.70944 0
M  V30 989 O 93.7923 -0.726672 -2.41818 0
M  V30 990 C 95.1053 -3.00461 -0.119879 0
M  V30 991 C 96.6533 -3.1242 -0.190428 0
M  V30 992 C 97.1283 -4.57982 -0.0406567 0
M  V30 993 N 98.6193 -4.63099 -0.0966958 0
M  V30 994 C 99.3543 -5.734 -0.00502943 0
M  V30 995 N 98.8503 -6.9266 0.139402 0
M  V30 996 N 100.643 -5.62067 -0.0611391 0
M  V30 997 H 92.7943 -1.88386 0.98105 0
M  V30 998 H 95.0573 -0.867865 0.381463 0
M  V30 999 H 94.7633 -3.41187 0.85349 0
M  V30 1000 H 94.6373 -3.66843 -0.877833 0
M  V30 1001 H 97.0243 -2.71589 -1.15427 0
M  V30 1002 H 97.1053 -2.48702 0.598405 0
M  V30 1003 H 96.7493 -4.995 0.919897 0
M  V30 1004 H 96.6793 -5.19715 -0.848727 0
M  V30 1005 H 99.1703 -3.77331 -0.207277 0
M  V30 1006 H 99.4833 -7.72536 0.201855 0
M  V30 1007 H 97.8283 -6.94781 0.174586 0
M  V30 1008 H 101.019 -4.67782 -0.172583 0
M  V30 1009 H 101.192 -6.47999 0.0137562 0
M  V30 1010 N 94.5984 0.214957 -1.56127 0
M  V30 1011 C 95.5454 1.26642 -1.92952 0
M  V30 1012 C 96.5154 1.46244 -0.78753 0
M  V30 1013 O 97.7004 1.59704 -1.04399 0
M  V30 1014 C 94.8404 2.6104 -2.25726 0
M  V30 1015 C 93.9534 2.49183 -3.52891 0
M  V30 1016 C 93.0884 3.76149 -3.7508 0
M  V30 1017 C 92.1274 3.59041 -4.95738 0
M  V30 1018 N 91.2644 4.77972 -5.14283 0
M  V30 1019 H 96.1044 0.945384 -2.82607 0
M  V30 1020 H 93.6414 0.455489 -1.3987 0
M  V30 1021 H 95.5994 3.39313 -2.42739 0
M  V30 1022 H 94.2294 2.91227 -1.39236 0
M  V30 1023 H 93.2814 1.6231 -3.44034 0
M  V30 1024 H 94.5934 2.32466 -4.41318 0
M  V30 1025 H 93.7474 4.62865 -3.92226 0
M  V30 1026 H 92.4864 3.95799 -2.84947 0
M  V30 1027 H 91.4914 2.7071 -4.78535 0
M  V30 1028 H 92.7164 3.40856 -5.87362 0
M  V30 1029 H 90.6624 4.97923 -4.27093 0
M  V30 1030 H 90.5794 4.64006 -5.96853 0
M  V30 1031 H 91.8474 5.66096 -5.35869 0
M  V30 1032 N 96.0765 1.50051 0.48192 0
M  V30 1033 C 97.0065 1.71046 1.58951 0
M  V30 1034 C 97.9875 0.559288 1.60642 0
M  V30 1035 O 99.1725 0.797243 1.77081 0
M  V30 1036 C 96.3025 1.79462 2.97339 0
M  V30 1037 C 95.2565 2.94558 3.10515 0
M  V30 1038 C 94.5825 2.88105 4.50444 0
M  V30 1039 C 95.8825 4.35227 2.88747 0
M  V30 1040 H 97.5765 2.6378 1.41635 0
M  V30 1041 H 95.1225 1.26936 0.679942 0
M  V30 1042 H 97.0755 1.92734 3.74742 0
M  V30 1043 H 95.7995 0.833412 3.15788 0
M  V30 1044 H 94.4585 2.80918 2.35543 0
M  V30 1045 H 94.1065 1.89853 4.65795 0
M  V30 1046 H 93.8065 3.65366 4.60197 0
M  V30 1047 H 95.3305 3.03412 5.29881 0
M  V30 1048 H 96.7445 4.49449 3.55905 0
M  V30 1049 H 95.1415 5.13856 3.09955 0
M  V30 1050 H 96.2115 4.48347 1.84696 0
M  V30 1051 N 97.5546 -0.734337 1.39446 0
M  V30 1052 C 98.4846 -1.86155 1.40955 0
M  V30 1053 C 99.4656 -1.67898 0.272827 0
M  V30 1054 O 100.651 -1.88207 0.478743 0
M  V30 1055 C 97.7806 -3.23912 1.25294 0
M  V30 1056 C 96.7346 -3.56808 2.36373 0
M  V30 1057 C 96.0606 -4.93508 2.058 0
M  V30 1058 C 97.3606 -3.59713 3.78687 0
M  V30 1059 H 99.0546 -1.8515 2.35287 0
M  V30 1060 H 96.6006 -0.889367 1.13253 0
M  V30 1061 H 98.5536 -4.02443 1.2497 0
M  V30 1062 H 97.2776 -3.25446 0.274308 0
M  V30 1063 H 95.9366 -2.80606 2.35914 0
M  V30 1064 H 95.5846 -4.91623 1.06374 0
M  V30 1065 H 95.2846 -5.16486 2.80208 0
M  V30 1066 H 96.8086 -5.74396 2.07128 0
M  V30 1067 H 98.2226 -4.2832 3.81071 0
M  V30 1068 H 96.6196 -3.94209 4.52459 0
M  V30 1069 H 97.6896 -2.59504 4.09617 0
M  V30 1070 N 99.0327 -1.24633 -0.964593 0
M  V30 1071 C 100.31 -0.995809 -1.68354 0
M  V30 1072 C 100.69 0.480964 -2.05548 0
M  V30 1073 O 100.038 1.45599 -1.76105 0
M  V30 1074 C 100.248 -1.92177 -2.91323 0
M  V30 1075 C 101.596 -2.19446 -3.63495 0
M  V30 1076 O 102.62 -1.89855 -3.01386 0
M  V30 1077 O 101.479 -2.69714 -4.75307 0
M  V30 1078 H 98.5727 -0.376854 -0.736146 0
M  V30 1079 H 101.119 -1.35745 -1.0184 0
M  V30 1080 H 99.8907 -2.91938 -2.60553 0
M  V30 1081 H 99.5137 -1.56349 -3.65569 0
M  V30 1082 N 100.511 1.16574 -1.06058 0
M  V30 1083 C 101.441 2.23057 -0.690488 0
M  V30 1084 C 102.422 1.67141 0.315901 0
M  V30 1085 O 103.607 1.93253 0.191556 0
M  V30 1086 C 100.737 3.47222 -0.073625 0
M  V30 1087 C 99.6908 4.16016 -1.00573 0
M  V30 1088 C 99.0168 5.34104 -0.252289 0
M  V30 1089 C 100.317 4.67264 -2.33371 0
M  V30 1090 H 102.011 2.54271 -1.58072 0
M  V30 1091 H 99.5568 1.22218 -0.76149 0
M  V30 1092 H 101.51 4.20939 0.19714 0
M  V30 1093 H 100.234 3.15302 0.85161 0
M  V30 1094 H 98.8928 3.44223 -1.2612 0
M  V30 1095 H 98.5408 4.98437 0.675988 0
M  V30 1096 H 98.2408 5.81072 -0.873455 0
M  V30 1097 H 99.7648 6.10599 0.0109857 0
M  V30 1098 H 101.179 5.32573 -2.12223 0
M  V30 1099 H 99.5758 5.24843 -2.90963 0
M  V30 1100 H 100.646 3.83602 -2.96611 0
M  V30 1101 N 101.989 0.842826 1.3317 0
M  V30 1102 C 102.919 0.294028 2.31641 0
M  V30 1103 C 103.9 -0.600401 1.59151 0
M  V30 1104 O 105.085 -0.523124 1.87022 0
M  V30 1105 C 102.215 -0.528416 3.43257 0
M  V30 1106 C 101.169 0.27056 4.27144 0
M  V30 1107 C 100.495 -0.675881 5.30411 0
M  V30 1108 C 101.795 1.48981 5.00602 0
M  V30 1109 H 103.489 1.11681 2.77791 0
M  V30 1110 H 101.035 0.538478 1.33553 0
M  V30 1111 H 102.988 -0.922674 4.11175 0
M  V30 1112 H 101.712 -1.38445 2.95805 0
M  V30 1113 H 100.371 0.646427 3.60856 0
M  V30 1114 H 100.019 -1.52842 4.79216 0
M  V30 1115 H 99.7189 -0.145374 5.8742 0
M  V30 1116 H 101.243 -1.06757 6.01195 0
M  V30 1117 H 102.657 1.16849 5.61266 0
M  V30 1118 H 101.054 1.95739 5.6728 0
M  V30 1119 H 102.124 2.25746 4.29147 0
M  V30 1120 N 103.467 -1.45747 0.599634 0
M  V30 1121 C 104.377 -2.34262 -0.125888 0
M  V30 1122 C 105.393 -1.50768 -0.868625 0
M  V30 1123 O 106.569 -1.83592 -0.828003 0
M  V30 1124 C 103.634 -3.28252 -1.11587 0
M  V30 1125 C 102.695 -4.27651 -0.375956 0
M  V30 1126 C 101.928 -5.1715 -1.31877 0
M  V30 1127 O 102.151 -5.09916 -2.55621 0
M  V30 1128 O 101.085 -5.96286 -0.820157 0
M  V30 1129 H 104.911 -2.97688 0.601315 0
M  V30 1130 H 102.496 -1.44999 0.359934 0
M  V30 1131 H 104.378 -3.86191 -1.68626 0
M  V30 1132 H 103.053 -2.67401 -1.82424 0
M  V30 1133 H 101.96 -3.7335 0.236698 0
M  V30 1134 H 103.293 -4.91334 0.29177 0
M  V30 1135 N 104.945 -0.338344 -1.53925 0
M  V30 1136 C 106.193 0.259245 -2.0043 0
M  V30 1137 C 106.514 1.51484 -1.22791 0
M  V30 1138 O 105.784 1.93037 -0.33368 0
M  V30 1139 H 104.364 0.0987845 -0.740439 0
M  V30 1140 H 107.026 -0.458302 -1.89435 0
M  V30 1141 H 106.122 0.505334 -3.07982 0
M  V30 1142 N 106.423 1.57458 -0.0668435 0
M  V30 1143 C 107.353 2.15468 0.899764 0
M  V30 1144 C 108.334 1.08042 1.31381 0
M  V30 1145 O 109.519 1.36054 1.38574 0
M  V30 1146 C 106.649 2.71232 2.16911 0
M  V30 1147 C 105.603 3.83781 1.89463 0
M  V30 1148 C 104.929 4.26127 3.22986 0
M  V30 1149 C 106.229 5.08238 1.20381 0
M  V30 1150 H 107.923 2.96488 0.416529 0
M  V30 1151 H 105.469 1.4262 0.198908 0
M  V30 1152 H 107.422 3.10458 2.84945 0
M  V30 1153 H 106.146 1.87426 2.67468 0
M  V30 1154 H 104.805 3.45051 1.23836 0
M  V30 1155 H 104.453 3.39249 3.71374 0
M  V30 1156 H 104.153 5.01993 3.05413 0
M  V30 1157 H 105.677 4.67966 3.92225 0
M  V30 1158 H 107.091 5.44811 1.78475 0
M  V30 1159 H 105.488 5.89349 1.13083 0
M  V30 1160 H 106.558 4.84558 0.182153 0
M  V30 1161 N 107.901 -0.206675 1.56239 0
M  V30 1162 C 109.129 -0.945345 1.8404 0
M  V30 1163 C 109.544 -1.77336 0.647885 0
M  V30 1164 O 108.901 -1.78425 -0.383511 0
M  V30 1165 C 108.952 -1.8509 3.10522 0
M  V30 1166 O 108.673 -1.05634 4.25174 0
M  V30 1167 C 110.174 -2.70222 3.51418 0
M  V30 1168 H 107.394 -0.276372 0.61144 0
M  V30 1169 H 109.938 -0.217417 2.03341 0
M  V30 1170 H 108.093 -2.53259 2.93153 0
M  V30 1171 H 108.507 -1.67238 4.97124 0
M  V30 1172 H 109.981 -3.29438 4.42916 0
M  V30 1173 H 110.458 -3.43358 2.73864 0
M  V30 1174 H 111.064 -2.07443 3.71278 0
M  V30 1175 N 109.379 -1.50304 -0.473955 0
M  V30 1176 C 110.627 -1.60832 -1.22382 0
M  V30 1177 C 110.948 -0.30939 -1.9253 0
M  V30 1178 O 110.218 0.67296 -1.83978 0
M  V30 1179 H 108.798 -0.592652 -0.454723 0
M  V30 1180 H 111.46 -1.87068 -0.546968 0
M  V30 1181 H 110.556 -2.41803 -1.97327 0
M  V30 1182 N 110.857 0.726932 -1.39834 0
M  V30 1183 C 112.085 1.51613 -1.40787 0
M  V30 1184 C 112.5 1.88799 -0.00451505 0
M  V30 1185 O 111.857 1.54662 0.968809 0
M  V30 1186 C 111.908 2.79863 -2.28821 0
M  V30 1187 O 111.629 2.44253 -3.63692 0
M  V30 1188 C 113.13 3.73837 -2.38245 0
M  V30 1189 H 110.35 0.468264 -0.480593 0
M  V30 1190 H 112.894 0.897607 -1.83748 0
M  V30 1191 H 111.049 3.38027 -1.89252 0
M  V30 1192 H 111.463 3.26695 -4.1033 0
M  V30 1193 H 112.937 4.60699 -3.04073 0
M  V30 1194 H 113.414 4.16153 -1.40403 0
M  V30 1195 H 114.02 3.21589 -2.78317 0
M  V30 1196 N 112.336 1.25143 0.95797 0
M  V30 1197 C 113.561 1.12521 1.74223 0
M  V30 1198 C 113.986 -0.317402 1.85403 0
M  V30 1199 O 113.344 -1.2299 1.33204 0
M  V30 1200 C 113.392 1.78062 3.1357 0
M  V30 1201 O 112.496 1.058 3.98598 0
M  V30 1202 H 111.837 0.39304 0.535178 0
M  V30 1203 H 114.367 1.65641 1.201 0
M  V30 1204 H 114.377 1.84213 3.64046 0
M  V30 1205 H 113.052 2.83021 3.04749 0
M  V30 1206 H 111.629 1.07506 3.57067 0
M  V30 1207 N 113.814 -1.1601 1.06675 0
M  V30 1208 C 114.744 -2.22688 0.702307 0
M  V30 1209 C 115.725 -1.67306 -0.307032 0
M  V30 1210 O 116.91 -1.93352 -0.181305 0
M  V30 1211 C 114.04 -3.47178 0.092038 0
M  V30 1212 C 112.994 -4.15477 1.02777 0
M  V30 1213 C 112.32 -5.33963 0.28061 0
M  V30 1214 C 113.62 -4.66019 2.35846 0
M  V30 1215 H 115.314 -2.53429 1.59419 0
M  V30 1216 H 112.86 -1.21813 0.767961 0
M  V30 1217 H 114.813 -4.21037 -0.174814 0
M  V30 1218 H 113.537 -3.15749 -0.834877 0
M  V30 1219 H 112.196 -3.43549 1.27944 0
M  V30 1220 H 111.844 -4.98788 -0.649545 0
M  V30 1221 H 111.544 -5.806 0.904258 0
M  V30 1222 H 113.068 -6.10596 0.021396 0
M  V30 1223 H 114.482 -5.3144 2.15045 0
M  V30 1224 H 112.879 -5.23293 2.93743 0
M  V30 1225 H 113.949 -3.82023 2.98641 0
M  V30 1226 N 115.292 -0.849877 -1.32721 0
M  V30 1227 C 116.703 -0.506188 -1.79707 0
M  V30 1228 C 117.054 0.975627 -1.70223 0
M  V30 1229 O 116.179 1.76078 -1.25799 0
M  V30 1230 C 116.774 -0.912044 -3.26293 0
M  V30 1231 C 115.333 -0.620326 -3.71253 0
M  V30 1232 C 114.48 -1.11439 -2.53922 0
M  V30 1233 H 117.431 -1.03754 -1.20087 0
M  V30 1234 H 117.452 -0.226493 -3.79825 0
M  V30 1235 H 116.964 -1.99057 -3.33164 0
M  V30 1236 H 115.065 0.447674 -3.69901 0
M  V30 1237 H 115.178 -1.18327 -4.64258 0
M  V30 1238 H 113.542 -0.534834 -2.49021 0
M  V30 1239 H 114.325 -2.19992 -2.6355 0
M  V30 1240 N 116.77 1.45427 -0.607355 0
M  V30 1241 C 117.717 2.3053 0.111625 0
M  V30 1242 C 118.687 1.4209 0.860216 0
M  V30 1243 O 119.872 1.71019 0.845998 0
M  V30 1244 C 117.012 3.26992 1.10319 0
M  V30 1245 C 116.125 4.30535 0.355493 0
M  V30 1246 C 115.26 5.14105 1.33676 0
M  V30 1247 C 114.299 6.09376 0.576862 0
M  V30 1248 N 113.436 6.85727 1.5074 0
M  V30 1249 H 118.276 2.91477 -0.620093 0
M  V30 1250 H 115.813 1.43631 -0.317594 0
M  V30 1251 H 117.771 3.81385 1.6912 0
M  V30 1252 H 116.401 2.67799 1.80232 0
M  V30 1253 H 115.453 3.78805 -0.348023 0
M  V30 1254 H 116.765 4.98235 -0.237423 0
M  V30 1255 H 115.919 5.72897 1.99684 0
M  V30 1256 H 114.658 4.46423 1.9636 0
M  V30 1257 H 113.663 5.49715 -0.0968519 0
M  V30 1258 H 114.888 6.79085 -0.0449341 0
M  V30 1259 H 112.834 6.20735 2.12189 0
M  V30 1260 H 112.751 7.49778 0.967913 0
M  V30 1261 H 114.019 7.4906 2.15706 0
M  V30 1262 N 118.248 0.346503 1.53744 0
M  V30 1263 C 119.158 -0.517293 2.28826 0
M  V30 1264 C 120.174 -1.10935 1.3405 0
M  V30 1265 O 121.35 -1.1244 1.6709 0
M  V30 1266 C 118.415 -1.65098 3.04866 0
M  V30 1267 C 117.476 -1.0884 4.15274 0
M  V30 1268 C 116.709 -2.16806 4.87679 0
M  V30 1269 O 116.932 -3.3758 4.59778 0
M  V30 1270 O 115.866 -1.80934 5.74061 0
M  V30 1271 H 119.692 0.0931396 3.03557 0
M  V30 1272 H 117.277 0.111458 1.48984 0
M  V30 1273 H 119.159 -2.31053 3.5241 0
M  V30 1274 H 117.834 -2.24717 2.32989 0
M  V30 1275 H 116.741 -0.3933 3.72027 0
M  V30 1276 H 118.074 -0.537036 4.89261 0
M  V30 1277 N 119.726 -1.57421 0.075193 0
M  V30 1278 C 121.142 -1.57099 -0.281444 0
M  V30 1279 C 121.342 -1.08486 -1.69803 0
M  V30 1280 O 120.398 -0.752279 -2.41033 0
M  V30 1281 C 121.711 -3.00571 -0.0880041 0
M  V30 1282 C 123.259 -3.12605 -0.157281 0
M  V30 1283 C 123.734 -4.57999 0.0079207 0
M  V30 1284 N 125.225 -4.63176 -0.0475725 0
M  V30 1285 C 125.96 -5.73373 0.0557876 0
M  V30 1286 N 125.456 -6.92473 0.21286 0
M  V30 1287 N 127.249 -5.621 -0.00152098 0
M  V30 1288 H 119.4 -1.87335 1.00098 0
M  V30 1289 H 121.663 -0.86377 0.390646 0
M  V30 1290 H 121.369 -3.40262 0.889629 0
M  V30 1291 H 121.243 -3.67754 -0.838875 0
M  V30 1292 H 123.63 -2.72798 -1.1254 0
M  V30 1293 H 123.711 -2.48053 0.62475 0
M  V30 1294 H 123.355 -4.98496 0.972824 0
M  V30 1295 H 123.285 -5.20586 -0.793556 0
M  V30 1296 H 125.776 -3.7753 -0.167244 0
M  V30 1297 H 126.089 -7.72279 0.283781 0
M  V30 1298 H 124.434 -6.94556 0.248267 0
M  V30 1299 H 127.625 -4.67938 -0.122958 0
M  V30 1300 H 127.798 -6.47948 0.0824844 0
M  V30 1301 N 121.204 0.198386 -1.56346 0
M  V30 1302 C 122.452 0.91747 -1.80075 0
M  V30 1303 C 122.773 1.83929 -0.647692 0
M  V30 1304 O 122.043 1.93029 0.334166 0
M  V30 1305 H 120.623 0.341774 -0.664228 0
M  V30 1306 H 123.285 0.204684 -1.93822 0
M  V30 1307 H 122.381 1.51055 -2.7311 0
M  V30 1308 N 122.682 1.50554 0.465978 0
M  V30 1309 C 123.907 1.65838 1.24549 0
M  V30 1310 C 124.332 0.343486 1.84937 0
M  V30 1311 O 123.69 -0.69324 1.67523 0
M  V30 1312 C 123.738 2.75533 2.32624 0
M  V30 1313 O 122.842 2.37142 3.37398 0
M  V30 1314 H 122.183 0.553893 0.366194 0
M  V30 1315 H 124.713 1.96959 0.553927 0
M  V30 1316 H 124.723 2.98763 2.77857 0
M  V30 1317 H 123.398 3.70962 1.88043 0
M  V30 1318 H 121.975 2.24377 2.97841 0
M  V30 1319 N 124.16 -0.719506 1.40217 0
M  V30 1320 C 125.388 -1.50864 1.41589 0
M  V30 1321 C 125.803 -1.88794 0.0145275 0
M  V30 1322 O 125.16 -1.55174 -0.960594 0
M  V30 1323 C 125.211 -2.78646 2.30302 0
M  V30 1324 O 124.932 -2.42321 3.64983 0
M  V30 1325 C 126.433 -3.72569 2.40224 0
M  V30 1326 H 123.653 -0.465709 0.48307 0
M  V30 1327 H 126.197 -0.88785 1.84221 0
M  V30 1328 H 124.352 -3.37019 1.91042 0
M  V30 1329 H 124.766 -3.24514 4.12057 0
M  V30 1330 H 126.24 -4.5908 3.06512 0
M  V30 1331 H 126.717 -4.15403 1.42608 0
M  V30 1332 H 127.323 -3.20109 2.80019 0
M  V30 1333 N 125.638 -1.25649 -0.95132 0
M  V30 1334 C 127.054 -1.02542 -1.223 0
M  V30 1335 C 127.254 0.255715 -1.99871 0
M  V30 1336 O 126.31 0.967558 -2.33226 0
M  V30 1337 C 127.623 -2.25065 -1.99415 0
M  V30 1338 C 129.171 -2.29861 -2.12446 0
M  V30 1339 C 129.646 -3.52048 -2.92961 0
M  V30 1340 N 131.137 -3.52465 -3.00538 0
M  V30 1341 C 131.872 -4.43672 -3.63239 0
M  V30 1342 N 131.368 -5.45157 -4.27523 0
M  V30 1343 N 133.161 -4.31346 -3.60412 0
M  V30 1344 H 125.312 -2.07951 -0.432471 0
M  V30 1345 H 127.575 -0.91339 -0.253816 0
M  V30 1346 H 127.281 -3.18194 -1.49817 0
M  V30 1347 H 127.155 -2.28502 -3.00111 0
M  V30 1348 H 129.542 -1.37252 -2.61239 0
M  V30 1349 H 129.623 -2.3044 -1.11044 0
M  V30 1350 H 129.267 -4.44981 -2.44856 0
M  V30 1351 H 129.197 -3.48715 -3.94596 0
M  V30 1352 H 131.688 -2.79056 -2.54826 0
M  V30 1353 H 132.001 -6.10958 -4.73234 0
M  V30 1354 H 130.346 -5.49025 -4.26141 0
M  V30 1355 H 133.537 -3.51288 -3.09377 0
M  V30 1356 H 133.71 -5.02624 -4.0899 0
M  V30 1357 N 127.117 1.15442 -1.07289 0
M  V30 1358 C 128.363 1.86489 -0.796846 0
M  V30 1359 C 128.696 1.82078 0.675371 0
M  V30 1360 O 127.971 1.24346 1.4956 0
M  V30 1361 C 128.254 3.35626 -1.30489 0
M  V30 1362 C 128.107 3.48673 -2.84161 0
M  V30 1363 C 129.426 4.30357 -0.920907 0
M  V30 1364 H 126.545 0.677144 -0.290939 0
M  V30 1365 H 129.187 1.35633 -1.33056 0
M  V30 1366 H 127.337 3.79068 -0.850883 0
M  V30 1367 H 129.009 3.14099 -3.37846 0
M  V30 1368 H 127.252 2.90253 -3.22391 0
M  V30 1369 H 127.923 4.53453 -3.14777 0
M  V30 1370 H 130.399 3.94871 -1.3121 0
M  V30 1371 H 129.275 5.33193 -1.30372 0
M  V30 1372 H 129.536 4.4176 0.173226 0
M  V30 1373 N 128.595 0.856903 1.32268 0
M  V30 1374 C 129.545 0.274899 2.26337 0
M  V30 1375 C 130.529 -0.580543 1.50062 0
M  V30 1376 O 131.721 -0.429559 1.71708 0
M  V30 1377 C 128.85 -0.533841 3.39124 0
M  V30 1378 C 127.936 0.334114 4.22782 0
M  V30 1379 N 128.327 1.42143 4.85416 0
M  V30 1380 C 126.625 0.124256 4.45827 0
M  V30 1381 C 127.326 1.95559 5.47843 0
M  V30 1382 N 126.302 1.25444 5.28928 0
M  V30 1383 H 130.104 1.10612 2.72291 0
M  V30 1384 H 127.618 0.703258 1.46383 0
M  V30 1385 H 129.615 -0.96722 4.05525 0
M  V30 1386 H 128.275 -1.36283 2.94715 0
M  V30 1387 H 129.286 1.80436 4.85451 0
M  V30 1388 H 125.963 -0.669837 4.12092 0
M  V30 1389 H 127.353 2.86714 6.07655 0
M  V30 1390 N 130.073 -1.45103 0.615059 0
M  V30 1391 C 131.036 -2.29025 -0.0895485 0
M  V30 1392 C 132.036 -1.40174 -0.787906 0
M  V30 1393 O 133.226 -1.62217 -0.634933 0
M  V30 1394 C 130.358 -3.21376 -1.13711 0
M  V30 1395 H 131.551 -2.92807 0.648382 0
M  V30 1396 H 129.104 -1.51749 0.374444 0
M  V30 1397 H 129.839 -2.6241 -1.90556 0
M  V30 1398 H 129.624 -3.86834 -0.640475 0
M  V30 1399 H 131.114 -3.84459 -1.63036 0
M  V30 1400 N 131.551 -0.354651 -1.53558 0
M  V30 1401 C 132.481 0.489091 -2.2832 0
M  V30 1402 C 133.462 1.09324 -1.30316 0
M  V30 1403 O 134.647 1.11255 -1.59173 0
M  V30 1404 C 131.777 1.63456 -3.0643 0
M  V30 1405 C 130.731 1.1582 -4.12031 0
M  V30 1406 C 130.057 2.39305 -4.7816 0
M  V30 1407 C 131.357 0.250731 -5.21698 0
M  V30 1408 H 133.051 -0.134614 -2.99097 0
M  V30 1409 H 130.597 -0.0661826 -1.43848 0
M  V30 1410 H 132.55 2.23136 -3.57475 0
M  V30 1411 H 131.274 2.28533 -2.33325 0
M  V30 1412 H 129.933 0.584146 -3.61916 0
M  V30 1413 H 129.581 3.02814 -4.01637 0
M  V30 1414 H 129.281 2.08109 -5.49513 0
M  V30 1415 H 130.805 2.99691 -5.31994 0
M  V30 1416 H 132.219 0.754695 -5.68311 0
M  V30 1417 H 130.616 0.0301468 -6.00092 0
M  V30 1418 H 131.686 -0.710125 -4.79672 0
M  V30 1419 N 133.029 1.57378 -0.0835403 0
M  V30 1420 C 133.977 2.14602 0.89714 0
M  V30 1421 C 134.971 1.08589 1.30018 0
M  V30 1422 O 136.177 1.26952 1.27606 0
M  V30 1423 H 132.552 0.686346 0.3073 0
M  V30 1424 H 134.523 2.95845 0.38969 0
M  V30 1425 C 133.272 2.73188 2.15089 0
M  V30 1426 H 132.595 3.54442 1.84962 0
M  V30 1427 H 134.035 3.1681 2.81793 0
M  V30 1428 C 132.494 1.68517 2.91725 0
M  V30 1429 O 133.024 1.11718 3.85852 0
M  V30 1430 N 131.23 1.39277 2.55049 0
M  V30 1431 H 130.777 1.85655 1.78577 0
M  V30 1432 H 130.735 0.694791 3.06627 0
M  V30 1433 N 134.507 -0.190092 1.56449 0
M  V30 1434 C 135.455 -1.25501 1.95837 0
M  V30 1435 C 136.449 -1.4685 0.844485 0
M  V30 1436 O 137.655 -1.47651 1.02952 0
M  V30 1437 H 134.03 -0.421447 0.622805 0
M  V30 1438 H 136.001 -0.895821 2.84636 0
M  V30 1439 C 134.75 -2.59124 2.31841 0
M  V30 1440 H 134.073 -2.43514 3.17082 0
M  V30 1441 H 135.513 -3.32371 2.6326 0
M  V30 1442 C 133.972 -3.16488 1.15486 0
M  V30 1443 O 134.502 -3.99365 0.432535 0
M  V30 1444 N 132.708 -2.75305 0.930349 0
M  V30 1445 H 132.255 -2.08013 1.51948 0
M  V30 1446 H 132.213 -3.14024 0.153634 0
M  V30 1447 N 135.985 -1.50799 -0.457987 0
M  V30 1448 C 137.231 -1.62683 -1.21088 0
M  V30 1449 C 137.564 -0.332268 -1.91336 0
M  V30 1450 O 136.839 0.667043 -1.82704 0
M  V30 1451 C 137.122 -2.81615 -2.24422 0
M  V30 1452 C 136.975 -4.20989 -1.58392 0
M  V30 1453 C 138.294 -2.96085 -3.2561 0
M  V30 1454 H 135.413 -0.592087 -0.438864 0
M  V30 1455 H 138.055 -1.83225 -0.50286 0
M  V30 1456 H 136.205 -2.64231 -2.84806 0
M  V30 1457 H 137.877 -4.49994 -1.01504 0
M  V30 1458 H 136.12 -4.24641 -0.886704 0
M  V30 1459 H 136.791 -5.0016 -2.33547 0
M  V30 1460 H 139.267 -3.12042 -2.75262 0
M  V30 1461 H 138.143 -3.80902 -3.95228 0
M  V30 1462 H 138.404 -2.0726 -3.90507 0
M  V30 1463 N 137.463 0.71206 -1.40597 0
M  V30 1464 C 138.411 1.84746 -1.41321 0
M  V30 1465 C 139.405 1.66842 -0.293268 0
M  V30 1466 O 140.611 1.73904 -0.464481 0
M  V30 1467 H 136.986 0.608522 -0.441819 0
M  V30 1468 H 138.957 1.81252 -2.37045 0
M  V30 1469 C 137.706 3.22638 -1.29614 0
M  V30 1470 H 137.029 3.37023 -2.15071 0
M  V30 1471 H 138.469 4.02209 -1.3418 0
M  V30 1472 C 136.928 3.36899 -0.00673121 0
M  V30 1473 O 137.458 3.90186 0.954859 0
M  V30 1474 N 135.664 2.9053 0.0639327 0
M  V30 1475 H 135.211 2.47353 -0.719311 0
M  V30 1476 H 135.169 3.0045 0.926118 0
M  V30 1477 N 138.941 1.26152 0.944643 0
M  V30 1478 C 140.357 1.03189 1.21754 0
M  V30 1479 C 140.557 -0.245112 2.00004 0
M  V30 1480 O 139.613 -0.955176 2.33736 0
M  V30 1481 C 140.926 2.26119 1.98219 0
M  V30 1482 C 142.474 2.30984 2.11224 0
M  V30 1483 C 142.949 3.53597 2.91089 0
M  V30 1484 N 144.44 3.54053 2.98664 0
M  V30 1485 C 145.175 4.45593 3.60881 0
M  V30 1486 N 144.671 5.47416 4.24626 0
M  V30 1487 N 146.464 4.33252 3.58119 0
M  V30 1488 H 138.615 2.08177 0.421437 0
M  V30 1489 H 140.878 0.914723 0.248969 0
M  V30 1490 H 140.584 3.18984 1.48128 0
M  V30 1491 H 140.458 2.3009 2.98895 0
M  V30 1492 H 142.845 1.38635 2.60508 0
M  V30 1493 H 142.926 2.31026 1.09821 0
M  V30 1494 H 142.57 4.46273 2.42493 0
M  V30 1495 H 142.5 3.50802 3.92741 0
M  V30 1496 H 144.991 2.80403 2.53343 0
M  V30 1497 H 145.304 6.13459 4.69987 0
M  V30 1498 H 143.649 5.51278 4.23223 0
M  V30 1499 H 146.84 3.52924 3.0751 0
M  V30 1500 H 147.013 5.04786 4.06319 0
M  V30 1501 N 140.419 -1.14872 1.07899 0
M  V30 1502 C 141.665 -1.86064 0.806725 0
M  V30 1503 C 141.998 -1.82434 -0.665706 0
M  V30 1504 O 141.273 -1.25138 -1.48899 0
M  V30 1505 C 141.556 -3.34929 1.32267 0
M  V30 1506 C 141.409 -3.47161 2.86006 0
M  V30 1507 C 142.728 -4.29863 0.943717 0
M  V30 1508 H 139.847 -0.675591 0.294526 0
M  V30 1509 H 142.489 -1.34925 1.33773 0
M  V30 1510 H 140.639 -3.78611 0.870974 0
M  V30 1511 H 142.311 -3.12302 3.39507 0
M  V30 1512 H 140.554 -2.88539 3.23925 0
M  V30 1513 H 141.225 -4.51777 3.17177 0
M  V30 1514 H 143.701 -3.9417 1.33302 0
M  V30 1515 H 142.577 -5.32494 1.33198 0
M  V30 1516 H 142.838 -4.41846 -0.149796 0
M  V30 1517 N 141.898 -0.863906 -1.31812 0
M  V30 1518 C 142.828 -0.330843 -2.31144 0
M  V30 1519 C 143.809 0.575005 -1.60087 0
M  V30 1520 O 144.994 0.493304 -1.8783 0
M  V30 1521 C 142.124 0.47374 -3.44054 0
M  V30 1522 C 141.078 -0.338481 -4.26659 0
M  V30 1523 C 140.404 0.591412 -5.31419 0
M  V30 1524 C 141.704 -1.56926 -4.98168 0
M  V30 1525 H 143.398 -1.16086 -2.75979 0
M  V30 1526 H 140.944 -0.559657 -1.32679 0
M  V30 1527 H 142.897 0.857143 -4.12591 0
M  V30 1528 H 141.621 1.33721 -2.9797 0
M  V30 1529 H 140.28 -0.703754 -3.59782 0
M  V30 1530 H 139.928 1.45199 -4.81587 0
M  V30 1531 H 139.628 0.0519022 -5.87577 0
M  V30 1532 H 141.152 0.97179 -6.02817 0
M  V30 1533 H 142.566 -1.25764 -5.59336 0
M  V30 1534 H 140.963 -2.04739 -5.64094 0
M  V30 1535 H 142.033 -2.32544 -4.25501 0
M  V30 1536 N 143.376 1.44774 -0.622745 0
M  V30 1537 C 144.308 2.28856 0.125485 0
M  V30 1538 C 145.321 1.40811 0.817069 0
M  V30 1539 O 146.51 1.65044 0.679918 0
M  V30 1540 C 143.61 3.16963 1.19949 0
M  V30 1541 C 142.783 4.33374 0.592064 0
M  V30 1542 C 141.842 5.02577 1.55893 0
M  V30 1543 O 140.868 5.58873 1.07933 0
M  V30 1544 N 142.07 5.03256 2.89334 0
M  V30 1545 H 144.835 2.93713 -0.596068 0
M  V30 1546 H 142.396 1.55129 -0.463303 0
M  V30 1547 H 144.388 3.60123 1.84644 0
M  V30 1548 H 142.958 2.53913 1.82337 0
M  V30 1549 H 142.178 3.93509 -0.233322 0
M  V30 1550 H 143.466 5.08527 0.166738 0
M  V30 1551 H 142.864 4.58836 3.30887 0
M  V30 1552 H 141.421 5.50232 3.49412 0
M  V30 1553 N 144.854 0.36279 1.53368 0
M  V30 1554 C 146.1 -0.228113 2.01513 0
M  V30 1555 C 146.433 -1.48648 1.2497 0
M  V30 1556 O 145.708 -1.91459 0.342616 0
M  V30 1557 C 145.991 -0.522884 3.56284 0
M  V30 1558 C 145.844 0.74892 4.43521 0
M  V30 1559 C 147.163 -1.32461 4.19693 0
M  V30 1560 H 144.282 -0.0814343 0.732487 0
M  V30 1561 H 146.924 0.48713 1.83649 0
M  V30 1562 H 145.074 -1.1322 3.71636 0
M  V30 1563 H 146.746 1.38648 4.39971 0
M  V30 1564 H 144.989 1.36986 4.11603 0
M  V30 1565 H 145.66 0.497667 5.49752 0
M  V30 1566 H 148.136 -0.809203 4.08156 0
M  V30 1567 H 147.012 -1.49961 5.28018 0
M  V30 1568 H 147.273 -2.33232 3.75573 0
M  V30 1569 N 146.332 -1.57332 0.0918853 0
M  V30 1570 C 147.262 -2.16872 -0.865371 0
M  V30 1571 C 148.243 -1.10118 -1.29646 0
M  V30 1572 O 149.428 -1.38242 -1.36392 0
M  V30 1573 C 146.558 -2.74649 -2.12569 0
M  V30 1574 C 145.512 -3.86747 -1.83333 0
M  V30 1575 C 144.838 -4.31212 -3.16166 0
M  V30 1576 C 146.138 -5.10089 -1.1228 0
M  V30 1577 H 147.832 -2.97114 -0.369307 0
M  V30 1578 H 145.378 -1.42918 -0.176194 0
M  V30 1579 H 147.331 -3.14952 -2.7997 0
M  V30 1580 H 146.055 -1.91657 -2.64452 0
M  V30 1581 H 144.714 -3.46978 -1.18331 0
M  V30 1582 H 144.362 -3.45115 -3.6593 0
M  V30 1583 H 144.062 -5.06788 -2.97388 0
M  V30 1584 H 145.586 -4.74146 -3.84731 0
M  V30 1585 H 147 -5.47582 -1.69785 0
M  V30 1586 H 145.397 -5.91073 -1.03693 0
M  V30 1587 H 146.467 -4.84786 -0.105041 0
M  V30 1588 N 147.81 0.181792 -1.56548 0
M  V30 1589 C 148.76 1.22961 -1.92002 0
M  V30 1590 C 149.744 1.40331 -0.787146 0
M  V30 1591 O 150.936 1.42478 -1.05019 0
M  V30 1592 C 148.065 2.57144 -2.27446 0
M  V30 1593 C 147.151 2.43512 -3.47222 0
M  V30 1594 N 147.542 1.99577 -4.64761 0
M  V30 1595 C 145.84 2.74368 -3.51622 0
M  V30 1596 C 146.541 1.98156 -5.46909 0
M  V30 1597 N 145.517 2.40164 -4.8767 0
M  V30 1598 H 149.319 0.881462 -2.8037 0
M  V30 1599 H 146.833 0.390141 -1.57644 0
M  V30 1600 H 148.83 3.32847 -2.51035 0
M  V30 1601 H 147.49 2.92771 -1.40411 0
M  V30 1602 H 148.501 1.70078 -4.89177 0
M  V30 1603 H 145.178 3.14102 -2.75038 0
M  V30 1604 H 146.568 1.65975 -6.51077 0
M  V30 1605 N 149.288 1.51039 0.449983 0
M  V30 1606 C 150.22 1.67617 1.56324 0
M  V30 1607 C 151.233 0.557083 1.52972 0
M  V30 1608 O 152.422 0.830989 1.57977 0
M  V30 1609 C 149.522 1.66402 2.95235 0
M  V30 1610 C 148.695 2.9469 3.23229 0
M  V30 1611 C 147.754 2.85832 4.41799 0
M  V30 1612 O 146.78 3.59785 4.41071 0
M  V30 1613 N 147.982 2.00821 5.44657 0
M  V30 1614 H 150.747 2.63648 1.42512 0
M  V30 1615 H 148.308 1.48767 0.638737 0
M  V30 1616 H 150.3 1.58062 3.72557 0
M  V30 1617 H 148.87 0.780182 3.02708 0
M  V30 1618 H 148.09 3.16996 2.34323 0
M  V30 1619 H 149.378 3.79636 3.38754 0
M  V30 1620 H 148.776 1.40091 5.48079 0
M  V30 1621 H 147.333 1.98368 6.20881 0
M  V30 1622 N 150.766 -0.704594 1.40972 0
M  V30 1623 C 151.714 -1.83994 1.42299 0
M  V30 1624 C 152.708 -1.66684 0.302111 0
M  V30 1625 O 153.914 -1.73655 0.473697 0
M  V30 1626 H 150.289 -0.606171 0.44504 0
M  V30 1627 H 152.26 -1.79992 2.38003 0
M  V30 1628 C 151.009 -3.21946 1.31323 0
M  V30 1629 H 150.332 -3.35878 2.16855 0
M  V30 1630 H 151.772 -4.01491 1.36311 0
M  V30 1631 C 150.231 -3.36891 0.0245977 0
M  V30 1632 O 150.761 -3.90687 -0.934153 0
M  V30 1633 N 148.967 -2.90559 -0.0485243 0
M  V30 1634 H 148.514 -2.46968 0.732419 0
M  V30 1635 H 148.472 -3.00937 -0.910171 0
M  V30 1636 N 152.244 -1.26651 -0.937939 0
M  V30 1637 C 153.192 -1.08308 -2.05845 0
M  V30 1638 C 154.186 -0.0090757 -1.69398 0
M  V30 1639 O 155.392 -0.166007 -1.79233 0
M  V30 1640 H 151.767 -0.333416 -0.674046 0
M  V30 1641 H 153.738 -2.03261 -2.18467 0
M  V30 1642 C 152.487 -0.736229 -3.39816 0
M  V30 1643 H 151.81 -1.55453 -3.6834 0
M  V30 1644 H 153.25 -0.64769 -4.19024 0
M  V30 1645 C 151.709 0.558824 -3.32233 0
M  V30 1646 O 152.239 1.59621 -3.68624 0
M  V30 1647 N 150.445 0.550657 -2.85335 0
M  V30 1648 H 149.992 -0.293943 -2.55917 0
M  V30 1649 H 149.95 1.41726 -2.80644 0
M  V30 1650 N 153.722 1.14298 -1.08507 0
M  V30 1651 C 154.968 1.85633 -0.816581 0
M  V30 1652 C 155.301 1.82784 0.656021 0
M  V30 1653 O 154.576 1.25926 1.48233 0
M  V30 1654 C 154.859 3.34223 -1.34041 0
M  V30 1655 C 154.712 3.45639 -2.87843 0
M  V30 1656 C 156.031 4.29356 -0.9665 0
M  V30 1657 H 153.15 0.67402 -0.298104 0
M  V30 1658 H 155.792 1.34214 -1.34487 0
M  V30 1659 H 153.942 3.78144 -0.89104 0
M  V30 1660 H 155.614 3.10498 -3.41158 0
M  V30 1661 H 153.857 2.86817 -3.25451 0
M  V30 1662 H 154.528 4.50089 -3.19569 0
M  V30 1663 H 157.004 3.93457 -1.35391 0
M  V30 1664 H 155.88 5.3178 -1.3602 0
M  V30 1665 H 156.141 4.41919 0.126362 0
M  V30 1666 N 155.201 0.870884 1.31352 0
M  V30 1667 C 156.111 0.330783 2.32256 0
M  V30 1668 C 157.127 -0.559767 1.6475 0
M  V30 1669 O 158.303 -0.456263 1.96164 0
M  V30 1670 C 155.368 -0.458137 3.4366 0
M  V30 1671 C 154.429 0.460482 4.26823 0
M  V30 1672 C 153.662 -0.290881 5.32907 0
M  V30 1673 O 153.885 -1.51885 5.49806 0
M  V30 1674 O 152.819 0.351732 6.00871 0
M  V30 1675 H 156.645 1.16718 2.80376 0
M  V30 1676 H 154.23 0.634285 1.35267 0
M  V30 1677 H 156.112 -0.905343 4.1156 0
M  V30 1678 H 154.787 -1.27106 2.97701 0
M  V30 1679 H 153.694 0.956207 3.61673 0
M  V30 1680 H 155.027 1.23903 4.7635 0
M  V30 1681 N 156.679 -1.44442 0.630414 0
M  V30 1682 C 157.609 -2.33418 -0.0618083 0
M  V30 1683 C 158.59 -1.48165 -0.835541 0
M  V30 1684 O 159.775 -1.76886 -0.801564 0
M  V30 1685 C 156.905 -3.31222 -1.04449 0
M  V30 1686 C 155.859 -4.26288 -0.382436 0
M  V30 1687 C 155.185 -5.13954 -1.47497 0
M  V30 1688 C 156.485 -5.1744 0.710865 0
M  V30 1689 H 158.179 -2.91548 0.681184 0
M  V30 1690 H 155.725 -1.40191 0.329026 0
M  V30 1691 H 157.678 -3.92351 -1.53748 0
M  V30 1692 H 156.402 -2.71299 -1.81836 0
M  V30 1693 H 155.061 -3.6649 0.0899054 0
M  V30 1694 H 154.709 -4.50385 -2.2397 0
M  V30 1695 H 154.409 -5.7837 -1.03737 0
M  V30 1696 H 155.933 -5.77955 -1.96979 0
M  V30 1697 H 157.347 -5.72509 0.300996 0
M  V30 1698 H 155.744 -5.90455 1.07156 0
M  V30 1699 H 156.814 -4.58496 1.57829 0
M  V30 1700 N 158.157 -0.370918 -1.53173 0
M  V30 1701 C 159.403 0.217423 -2.01631 0
M  V30 1702 C 159.736 1.47983 -1.25756 0
M  V30 1703 O 159.011 1.91274 -0.352764 0
M  V30 1704 C 159.294 0.503982 -3.56556 0
M  V30 1705 C 159.147 -0.77243 -4.43118 0
M  V30 1706 C 160.466 1.30234 -4.20389 0
M  V30 1707 H 157.585 0.0775486 -0.732909 0
M  V30 1708 H 160.227 -0.496863 -1.83388 0
M  V30 1709 H 158.377 1.11248 -3.72231 0
M  V30 1710 H 160.049 -1.4098 -4.39229 0
M  V30 1711 H 158.292 -1.39167 -4.10871 0
M  V30 1712 H 158.963 -0.526815 -5.4948 0
M  V30 1713 H 161.439 0.787546 -4.08579 0
M  V30 1714 H 160.315 1.47158 -5.28806 0
M  V30 1715 H 160.576 2.31237 -3.76805 0
M  V30 1716 N 159.635 1.57281 -0.100228 0
M  V30 1717 C 160.583 2.15542 0.874328 0
M  V30 1718 C 161.577 1.09962 1.28859 0
M  V30 1719 O 162.783 1.28298 1.26252 0
M  V30 1720 H 159.158 0.689567 0.300003 0
M  V30 1721 H 161.129 2.96241 0.35829 0
M  V30 1722 C 159.878 2.75454 2.1218 0
M  V30 1723 H 159.201 3.56384 1.81193 0
M  V30 1724 H 160.641 3.19781 2.78417 0
M  V30 1725 C 159.1 1.71602 2.89921 0
M  V30 1726 O 159.63 1.15804 3.84646 0
M  V30 1727 N 157.836 1.41975 2.53558 0
M  V30 1728 H 157.383 1.87539 1.76598 0
M  V30 1729 H 157.341 0.727274 3.05873 0
M  V30 1730 N 161.113 -0.173488 1.56642 0
M  V30 1731 C 162.362 -0.888758 1.81063 0
M  V30 1732 C 162.675 -1.83506 0.67712 0
M  V30 1733 O 163.881 -2.59254 0.806206 0
M  V30 1734 C 162.337 -1.63091 3.20826 0
M  V30 1735 C 161.945 -0.728357 4.4204 0
M  V30 1736 C 163.689 -2.33454 3.54541 0
M  V30 1737 C 161.596 -1.47062 5.72823 0
M  V30 1738 H 160.526 -0.335618 0.675186 0
M  V30 1739 H 163.177 -0.141712 1.82952 0
M  V30 1740 H 161.559 -2.42263 3.13248 0
M  V30 1741 H 162.733 0.0262449 4.60793 0
M  V30 1742 H 161.048 -0.134492 4.16183 0
M  V30 1743 H 163.645 -2.89578 4.49498 0
M  V30 1744 H 163.988 -3.08687 2.79317 0
M  V30 1745 H 164.521 -1.61227 3.63663 0
M  V30 1746 H 161.26 -0.760658 6.51072 0
M  V30 1747 H 160.78 -2.1986 5.58052 0
M  V30 1748 H 162.459 -2.01868 6.14702 0
M  V30 1749 N 162.591 -1.51276 -0.441967 0
M  V30 1750 C 163.839 -1.63392 -1.18943 0
M  V30 1751 C 164.16 -0.350159 -1.9183 0
M  V30 1752 O 163.43 0.633784 -1.85364 0
M  V30 1753 H 162.01 -0.602164 -0.442049 0
M  V30 1754 H 164.672 -1.88186 -0.507165 0
M  V30 1755 H 163.768 -2.45934 -1.92154 0
M  V30 1756 N 164.069 0.697108 -1.41344 0
M  V30 1757 C 165.317 1.45426 -1.40341 0
M  V30 1758 C 165.638 1.94996 -0.0128787 0
M  V30 1759 O 164.908 1.71599 0.945027 0
M  V30 1760 H 163.488 0.539594 -0.516573 0
M  V30 1761 H 166.15 0.825201 -1.76569 0
M  V30 1762 H 165.246 2.31817 -2.08967 0
M  V30 1763 N 165.547 1.27147 0.931209 0
M  V30 1764 C 166.775 1.16082 1.71267 0
M  V30 1765 C 167.19 -0.282772 1.8667 0
M  V30 1766 O 166.547 -1.19283 1.38122 0
M  V30 1767 C 166.598 1.8358 3.11417 0
M  V30 1768 O 166.319 3.22299 2.96741 0
M  V30 1769 C 167.82 1.78597 4.05732 0
M  V30 1770 H 165.04 0.403758 0.535929 0
M  V30 1771 H 167.584 1.67953 1.16671 0
M  V30 1772 H 165.739 1.35623 3.62885 0
M  V30 1773 H 166.153 3.55851 3.85319 0
M  V30 1774 H 167.627 2.30444 5.01597 0
M  V30 1775 H 168.104 0.754564 4.3267 0
M  V30 1776 H 168.71 2.26152 3.60188 0
M  V30 1777 N 167.025 -1.13721 1.09112 0
M  V30 1778 C 168.302 -1.81155 0.737706 0
M  V30 1779 C 168.682 -1.96253 -0.777683 0
M  V30 1780 O 168.03 -1.52807 -1.69889 0
M  V30 1781 C 168.24 -3.16392 1.47299 0
M  V30 1782 C 169.588 -3.91787 1.63671 0
M  V30 1783 O 170.612 -3.26005 1.43524 0
M  V30 1784 O 169.471 -5.0977 1.96969 0
M  V30 1785 H 166.565 -0.783518 0.26463 0
M  V30 1786 H 169.111 -1.20676 1.19312 0
M  V30 1787 H 167.883 -3.0061 2.50498 0
M  V30 1788 H 167.506 -3.8457 1.00953 0
M  V30 1789 N 168.503 -0.877838 -1.30888 0
M  V30 1790 C 169.752 -0.488793 -1.95688 0
M  V30 1791 C 170.065 0.965485 -1.70111 0
M  V30 1792 O 171.271 1.46104 -2.28836 0
M  V30 1793 C 169.727 -0.823201 -3.50359 0
M  V30 1794 C 169.335 -2.29477 -3.84765 0
M  V30 1795 C 171.079 -0.503009 -4.21509 0
M  V30 1796 C 168.986 -2.57118 -5.32583 0
M  V30 1797 H 167.916 -0.179062 -0.732429 0
M  V30 1798 H 170.567 -1.07183 -1.48943 0
M  V30 1799 H 168.949 -0.169331 -3.95638 0
M  V30 1800 H 170.123 -2.99236 -3.5042 0
M  V30 1801 H 168.438 -2.58178 -3.267 0
M  V30 1802 H 171.035 -0.68665 -5.30273 0
M  V30 1803 H 171.378 0.557109 -4.12555 0
M  V30 1804 H 171.911 -1.11376 -3.8189 0
M  V30 1805 H 168.65 -3.61843 -5.4658 0
M  V30 1806 H 168.17 -1.91961 -5.68253 0
M  V30 1807 H 169.849 -2.42251 -5.99936 0
M  V30 1808 N 169.982 1.44106 -0.638065 0
M  V30 1809 C 171.228 2.02277 -0.145546 0
M  V30 1810 C 171.561 1.50125 1.23191 0
M  V30 1811 O 170.836 0.688133 1.8192 0
M  V30 1812 C 171.119 3.59829 -0.139791 0
M  V30 1813 C 170.972 4.22247 -1.55008 0
M  V30 1814 C 172.291 4.36873 0.531966 0
M  V30 1815 H 169.41 0.734992 -0.0543632 0
M  V30 1816 H 172.052 1.71592 -0.815863 0
M  V30 1817 H 170.202 3.86102 0.431007 0
M  V30 1818 H 171.874 4.07057 -2.1703 0
M  V30 1819 H 170.117 3.79476 -2.10191 0
M  V30 1820 H 170.788 5.31284 -1.49804 0
M  V30 1821 H 173.264 4.16074 0.0464781 0
M  V30 1822 H 172.14 5.4657 0.505206 0
M  V30 1823 H 172.401 4.11995 1.60352 0
M  V30 1824 N 171.46 0.379036 1.52974 0
M  V30 1825 C 172.737 -0.263479 1.93817 0
M  V30 1826 C 173.117 -1.65244 1.31368 0
M  V30 1827 O 172.465 -2.23448 0.477856 0
M  V30 1828 C 172.675 -0.300166 3.47707 0
M  V30 1829 C 174.023 -0.534061 4.21228 0
M  V30 1830 O 175.047 -0.38081 3.54159 0
M  V30 1831 O 173.906 -0.833501 5.40106 0
M  V30 1832 H 171 -0.161149 0.811147 0
M  V30 1833 H 173.546 0.432798 1.64088 0
M  V30 1834 H 172.318 0.673138 3.85467 0
M  V30 1835 H 171.941 -1.04179 3.83709 0
M  V30 1836 N 172.938 -1.57226 0.108567 0
M  V30 1837 C 174.186 -1.94448 -0.550853 0
M  V30 1838 C 174.507 -0.992074 -1.67878 0
M  V30 1839 O 173.777 -0.0465 -1.95845 0
M  V30 1840 H 172.357 -0.717897 -0.206479 0
M  V30 1841 H 175.019 -1.94112 0.175062 0
M  V30 1842 H 174.115 -2.97218 -0.952259 0
M  V30 1843 N 174.416 0.165178 -1.56732 0
M  V30 1844 C 175.364 1.22369 -1.97809 0
M  V30 1845 C 176.358 1.45488 -0.867741 0
M  V30 1846 O 177.564 1.45995 -1.05288 0
M  V30 1847 H 173.939 0.411486 -0.629431 0
M  V30 1848 H 175.91 0.850425 -2.86025 0
M  V30 1849 C 174.659 2.55403 -2.35934 0
M  V30 1850 H 173.982 2.38438 -3.20916 0
M  V30 1851 H 175.422 3.2814 -2.68514 0
M  V30 1852 C 173.881 3.14611 -1.20506 0
M  V30 1853 O 174.411 3.98626 -0.496016 0
M  V30 1854 N 172.617 2.7379 -0.97403 0
M  V30 1855 H 172.164 2.0557 -1.55238 0
M  V30 1856 H 172.122 3.1374 -0.203573 0
M  V30 1857 N 175.894 1.51508 0.433938 0
M  V30 1858 C 176.844 1.69451 1.52546 0
M  V30 1859 C 177.828 0.548474 1.51263 0
M  V30 1860 O 179.02 0.804529 1.57659 0
M  V30 1861 C 176.149 1.82604 2.90707 0
M  V30 1862 C 175.235 3.03002 2.96733 0
M  V30 1863 N 175.626 4.26121 2.72496 0
M  V30 1864 C 173.924 3.02327 3.27894 0
M  V30 1865 C 174.625 5.07407 2.84452 0
M  V30 1866 N 173.601 4.42126 3.16269 0
M  V30 1867 H 177.403 2.62305 1.32564 0
M  V30 1868 H 174.917 1.49202 0.641297 0
M  V30 1869 H 176.914 1.93569 3.69238 0
M  V30 1870 H 175.574 0.909339 3.11707 0
M  V30 1871 H 176.585 4.55009 2.4736 0
M  V30 1872 H 173.262 2.20301 3.54646 0
M  V30 1873 H 174.652 6.15422 2.69639 0
M  V30 1874 N 177.372 -0.689602 1.41712 0
M  V30 1875 C 178.319 -1.80345 1.44029 0
M  V30 1876 C 179.289 -1.63478 0.293948 0
M  V30 1877 O 180.474 -1.84244 0.495869 0
M  V30 1878 C 177.614 -3.18272 1.33405 0
M  V30 1879 C 176.727 -3.46529 2.57956 0
M  V30 1880 C 175.862 -4.74103 2.39582 0
M  V30 1881 C 174.901 -4.95347 3.5958 0
M  V30 1882 N 174.038 -6.14151 3.40239 0
M  V30 1883 H 178.878 -1.77698 2.39222 0
M  V30 1884 H 176.415 -0.867688 1.18784 0
M  V30 1885 H 178.373 -3.97956 1.25246 0
M  V30 1886 H 177.003 -3.2008 0.418164 0
M  V30 1887 H 176.055 -2.61207 2.76542 0
M  V30 1888 H 177.367 -3.58126 3.47199 0
M  V30 1889 H 176.521 -5.61853 2.28924 0
M  V30 1890 H 175.26 -4.64763 1.47805 0
M  V30 1891 H 174.265 -4.06044 3.70686 0
M  V30 1892 H 175.49 -5.06542 4.52318 0
M  V30 1893 H 173.436 -6.06013 2.51167 0
M  V30 1894 H 173.353 -6.26543 4.23061 0
M  V30 1895 H 174.621 -7.04619 3.33365 0
M  V30 1896 N 178.85 -1.27639 -0.924453 0
M  V30 1897 C 179.78 -1.13166 -2.04244 0
M  V30 1898 C 180.761 -0.032256 -1.70069 0
M  V30 1899 O 181.946 -0.207328 -1.9309 0
M  V30 1900 C 179.076 -0.781496 -3.38393 0
M  V30 1901 C 178.03 -1.83449 -3.86692 0
M  V30 1902 C 177.356 -1.33822 -5.17683 0
M  V30 1903 C 178.656 -3.23917 -4.09726 0
M  V30 1904 H 180.35 -2.06689 -2.1661 0
M  V30 1905 H 177.896 -0.995136 -1.04082 0
M  V30 1906 H 179.849 -0.667057 -4.16087 0
M  V30 1907 H 178.573 0.189439 -3.2605 0
M  V30 1908 H 177.232 -1.93789 -3.11193 0
M  V30 1909 H 176.88 -0.35665 -5.01734 0
M  V30 1910 H 176.58 -2.04224 -5.50968 0
M  V30 1911 H 178.104 -1.23679 -5.97943 0
M  V30 1912 H 179.518 -3.16559 -4.77978 0
M  V30 1913 H 177.915 -3.92059 -4.54324 0
M  V30 1914 H 178.985 -3.68729 -3.14908 0
M  V30 1915 N 180.328 1.1314 -1.09713 0
M  V30 1916 C 181.556 1.88321 -0.856898 0
M  V30 1917 C 181.971 1.79276 0.592073 0
M  V30 1918 O 181.328 1.16142 1.40774 0
M  V30 1919 C 181.379 3.37812 -1.28706 0
M  V30 1920 O 181.1 3.46627 -2.67921 0
M  V30 1921 C 182.601 4.29952 -1.07964 0
M  V30 1922 H 179.821 0.596094 -0.308079 0
M  V30 1923 H 182.365 1.43205 -1.45988 0
M  V30 1924 H 180.52 3.805 -0.727912 0
M  V30 1925 H 180.934 4.39579 -2.8613 0
M  V30 1926 H 182.408 5.33159 -1.42986 0
M  V30 1927 H 182.885 4.39196 -0.0176577 0
M  V30 1928 H 183.491 3.93036 -1.62489 0
M  V30 1929 N 181.806 0.884767 1.30421 0
M  V30 1930 C 182.736 0.367574 2.30589 0
M  V30 1931 C 183.717 -0.549464 1.60981 0
M  V30 1932 O 184.902 -0.46336 1.88591 0
M  V30 1933 C 182.032 -0.418944 3.44764 0
M  V30 1934 C 180.986 0.406316 4.26067 0
M  V30 1935 C 180.312 -0.506793 5.32293 0
M  V30 1936 C 181.612 1.64832 4.95608 0
M  V30 1937 H 183.306 1.20462 2.74097 0
M  V30 1938 H 180.852 0.580695 1.31772 0
M  V30 1939 H 182.805 -0.791395 4.13902 0
M  V30 1940 H 181.529 -1.28964 3.0006 0
M  V30 1941 H 180.188 0.760903 3.58617 0
M  V30 1942 H 179.836 -1.37519 4.83836 0
M  V30 1943 H 179.536 0.0415828 5.87585 0
M  V30 1944 H 181.06 -0.875764 6.04287 0
M  V30 1945 H 182.474 1.34646 5.57264 0
M  V30 1946 H 180.871 2.13688 5.60765 0
M  V30 1947 H 181.941 2.39284 4.21748 0
M  V30 1948 N 183.284 -1.43765 0.645699 0
M  V30 1949 C 184.532 -2.01499 0.155731 0
M  V30 1950 C 184.853 -1.51151 -1.232 0
M  V30 1951 O 184.123 -0.721044 -1.82148 0
M  V30 1952 H 182.703 -0.745003 0.0545817 0
M  V30 1953 H 185.365 -1.76075 0.835677 0
M  V30 1954 H 184.461 -3.1181 0.134577 0
M  V30 1955 N 184.763 -0.387143 -1.52771 0
M  V30 1956 C 185.693 0.440551 -2.29306 0
M  V30 1957 C 186.674 1.06535 -1.32606 0
M  V30 1958 O 187.859 1.07853 -1.61497 0
M  V30 1959 C 184.989 1.56919 -3.09829 0
M  V30 1960 C 183.943 1.07054 -4.14395 0
M  V30 1961 C 183.269 2.29109 -4.83129 0
M  V30 1962 C 184.569 0.140015 -5.22112 0
M  V30 1963 H 186.263 -0.198026 -2.98744 0
M  V30 1964 H 183.809 -0.09668 -1.43675 0
M  V30 1965 H 185.762 2.15503 -3.62128 0
M  V30 1966 H 184.486 2.23532 -2.3812 0
M  V30 1967 H 183.145 0.507247 -3.63074 0
M  V30 1968 H 182.793 2.94227 -4.0797 0
M  V30 1969 H 182.493 1.96406 -5.53804 0
M  V30 1970 H 184.017 2.88339 -5.38231 0
M  V30 1971 H 185.431 0.633978 -5.69784 0
M  V30 1972 H 183.828 -0.0971485 -6.00021 0
M  V30 1973 H 184.898 -0.811711 -4.78058 0
M  V30 1974 N 186.241 1.57166 -0.116904 0
M  V30 1975 C 187.171 2.18222 0.830759 0
M  V30 1976 C 188.152 1.12167 1.27877 0
M  V30 1977 O 189.337 1.40394 1.34176 0
M  V30 1978 C 186.467 2.77996 2.08172 0
M  V30 1979 C 185.421 3.89614 1.77157 0
M  V30 1980 C 184.747 4.36187 3.09265 0
M  V30 1981 C 186.047 5.1181 1.04151 0
M  V30 1982 H 187.741 2.97664 0.321992 0
M  V30 1983 H 185.287 1.4318 0.153434 0
M  V30 1984 H 187.24 3.19366 2.74924 0
M  V30 1985 H 185.964 1.9584 2.6137 0
M  V30 1986 H 184.623 3.48816 1.12796 0
M  V30 1987 H 184.271 3.50893 3.60393 0
M  V30 1988 H 183.971 5.11455 2.89288 0
M  V30 1989 H 185.495 4.80207 3.77139 0
M  V30 1990 H 186.909 5.50214 1.61052 0
M  V30 1991 H 185.306 5.92648 0.942762 0
M  V30 1992 H 186.376 4.84892 0.0279022 0
M  V30 1993 N 187.719 -0.156864 1.56817 0
M  V30 1994 C 188.965 -0.867645 1.83966 0
M  V30 1995 C 189.32 -1.79233 0.699511 0
M  V30 1996 O 188.613 -1.89186 -0.303176 0
M  V30 1997 C 188.807 -1.68737 3.1506 0
M  V30 1998 C 188.636 -0.843548 4.41718 0
M  V30 1999 C 187.406 -0.512994 5.02689 0
M  V30 2000 C 189.604 -0.178416 5.1399 0
M  V30 2001 N 187.586 0.345456 6.12927 0
M  V30 2002 C 188.957 0.540586 6.17639 0
M  V30 2003 C 191.012 -0.0980696 4.97803 0
M  V30 2004 C 189.715 1.33233 7.06853 0
M  V30 2005 C 191.741 0.680387 5.87473 0
M  V30 2006 C 191.103 1.3877 6.90596 0
M  V30 2007 H 187.202 -0.295642 0.723961 0
M  V30 2008 H 189.786 -0.13365 1.94241 0
M  V30 2009 H 187.957 -2.39268 3.0595 0
M  V30 2010 H 189.689 -2.34056 3.30151 0
M  V30 2011 H 186.444 -0.846476 4.65974 0
M  V30 2012 H 186.868 0.765415 6.72659 0
M  V30 2013 H 191.51 -0.630562 4.18071 0
M  V30 2014 H 189.228 1.87612 7.8602 0
M  V30 2015 H 192.814 0.744415 5.77018 0
M  V30 2016 H 191.694 1.9804 7.58782 0
M  V30 2017 N 189.197 -1.51736 -0.425897 0
M  V30 2018 C 190.422 -1.69082 -1.20108 0
M  V30 2019 C 190.847 -0.392398 -1.83962 0
M  V30 2020 O 190.205 0.64858 -1.69302 0
M  V30 2021 C 190.253 -2.81604 -2.25237 0
M  V30 2022 O 189.357 -2.46004 -3.30992 0
M  V30 2023 H 188.698 -0.563408 -0.35138 0
M  V30 2024 H 191.228 -1.98358 -0.501512 0
M  V30 2025 H 191.238 -3.06025 -2.69838 0
M  V30 2026 H 189.913 -3.75817 -1.78142 0
M  V30 2027 H 188.49 -2.32195 -2.91787 0
M  V30 2028 N 190.675 0.682077 -1.42076 0
M  V30 2029 C 191.924 1.43786 -1.41451 0
M  V30 2030 C 192.237 1.95574 -0.0317074 0
M  V30 2031 O 193.443 2.71326 0.0971462 0
M  V30 2032 C 191.899 2.60071 -2.48779 0
M  V30 2033 C 191.507 2.15013 -3.93031 0
M  V30 2034 C 193.251 3.37626 -2.57311 0
M  V30 2035 C 191.158 3.28336 -4.91883 0
M  V30 2036 H 190.088 0.540143 -0.526082 0
M  V30 2037 H 192.739 0.739157 -1.67955 0
M  V30 2038 H 191.121 3.32275 -2.15429 0
M  V30 2039 H 192.295 1.5001 -4.35699 0
M  V30 2040 H 190.61 1.50416 -3.88284 0
M  V30 2041 H 193.207 4.22012 -3.28345 0
M  V30 2042 H 193.55 3.83727 -1.61429 0
M  V30 2043 H 194.083 2.72488 -2.89819 0
M  V30 2044 H 190.822 2.87234 -5.89217 0
M  V30 2045 H 190.342 3.92145 -4.53853 0
M  V30 2046 H 192.021 3.93913 -5.13265 0
M  V30 2047 N 192.153 1.28127 0.917671 0
M  V30 2048 C 193.402 1.14432 1.66097 0
M  V30 2049 C 193.715 -0.307247 1.93172 0
M  V30 2050 O 194.921 -0.565259 2.65551 0
M  V30 2051 C 193.377 2.00015 2.99202 0
M  V30 2052 C 192.985 3.49889 2.79789 0
M  V30 2053 C 194.729 1.94996 3.77064 0
M  V30 2054 C 192.636 4.27636 4.08511 0
M  V30 2055 H 191.566 0.424662 0.62304 0
M  V30 2056 H 194.217 1.52628 1.01868 0
M  V30 2057 H 192.599 1.54672 3.64544 0
M  V30 2058 H 193.773 4.03162 2.23152 0
M  V30 2059 H 192.088 3.56392 2.15345 0
M  V30 2060 H 194.685 2.50354 4.72469 0
M  V30 2061 H 195.028 0.925819 4.05875 0
M  V30 2062 H 195.561 2.38287 3.18534 0
M  V30 2063 H 192.3 5.30615 3.84874 0
M  V30 2064 H 191.82 3.79137 4.64774 0
M  V30 2065 H 193.499 4.37346 4.76799 0
M  V30 2066 N 193.631 -1.12557 1.10312 0
M  V30 2067 C 194.561 -2.20341 0.772798 0
M  V30 2068 C 195.542 -1.68198 -0.25365 0
M  V30 2069 O 196.727 -1.93831 -0.119699 0
M  V30 2070 C 193.857 -3.46709 0.202443 0
M  V30 2071 C 192.811 -4.11996 1.15943 0
M  V30 2072 C 192.137 -5.328 0.450345 0
M  V30 2073 C 193.437 -4.5828 2.50552 0
M  V30 2074 H 195.131 -2.48229 1.674 0
M  V30 2075 H 192.677 -1.19308 0.806326 0
M  V30 2076 H 194.63 -4.2138 -0.0407752 0
M  V30 2077 H 193.354 -3.18245 -0.734001 0
M  V30 2078 H 192.013 -3.39305 1.38808 0
M  V30 2079 H 191.661 -5.00602 -0.490531 0
M  V30 2080 H 191.361 -5.7743 1.08851 0
M  V30 2081 H 192.885 -6.10219 0.215642 0
M  V30 2082 H 194.299 -5.2433 2.31843 0
M  V30 2083 H 192.696 -5.13683 3.10242 0
M  V30 2084 H 193.766 -3.72329 3.10643 0
M  V30 2085 N 195.109 -0.891671 -1.2995 0
M  V30 2086 C 196.059 -0.334811 -2.25528 0
M  V30 2087 C 197.043 0.540553 -1.51548 0
M  V30 2088 O 198.235 0.383882 -1.72787 0
M  V30 2089 C 195.364 0.44374 -3.4042 0
M  V30 2090 C 194.45 -0.44609 -4.21747 0
M  V30 2091 N 194.841 -1.54963 -4.81477 0
M  V30 2092 C 193.139 -0.242415 -4.45341 0
M  V30 2093 C 193.84 -2.10015 -5.42465 0
M  V30 2094 N 192.816 -1.39423 -5.25416 0
M  V30 2095 H 196.618 -1.17792 -2.69262 0
M  V30 2096 H 194.132 -0.741822 -1.44467 0
M  V30 2097 H 196.129 0.859362 -4.07947 0
M  V30 2098 H 194.789 1.28421 -2.98225 0
M  V30 2099 H 195.8 -1.93244 -4.80497 0
M  V30 2100 H 192.477 0.560342 -4.13723 0
M  V30 2101 H 193.867 -3.02724 -5.9984 0
M  V30 2102 N 196.587 1.43421 -0.653314 0
M  V30 2103 C 197.833 2.02641 -0.175593 0
M  V30 2104 C 198.188 1.5062 1.19713 0
M  V30 2105 O 197.481 0.689697 1.78756 0
M  V30 2106 C 197.675 3.57176 -0.126623 0
M  V30 2107 C 197.504 4.24191 -1.49306 0
M  V30 2108 C 196.274 4.60257 -2.08547 0
M  V30 2109 C 198.472 4.53193 -2.43148 0
M  V30 2110 N 196.454 5.12345 -3.38194 0
M  V30 2111 C 197.825 5.06601 -3.57429 0
M  V30 2112 C 199.88 4.35161 -2.41949 0
M  V30 2113 C 198.583 5.43875 -4.70736 0
M  V30 2114 C 200.609 4.73498 -3.54336 0
M  V30 2115 C 199.971 5.27039 -4.67343 0
M  V30 2116 H 196.07 0.77441 -0.108686 0
M  V30 2117 H 198.654 1.74596 -0.861638 0
M  V30 2118 H 196.825 3.84784 0.528766 0
M  V30 2119 H 198.557 4.03078 0.36198 0
M  V30 2120 H 195.312 4.45302 -1.61255 0
M  V30 2121 H 195.736 5.42842 -4.04538 0
M  V30 2122 H 200.378 3.9304 -1.55818 0
M  V30 2123 H 198.096 5.8494 -5.57558 0
M  V30 2124 H 201.682 4.61241 -3.5461 0
M  V30 2125 H 200.562 5.56153 -5.52868 0
M  V30 2126 N 198.065 0.39524 1.52563 0
M  V30 2127 C 198.997 -0.472201 2.24283 0
M  V30 2128 C 200.01 -1.02178 1.26742 0
M  V30 2129 O 201.199 -0.923097 1.52778 0
M  V30 2130 C 198.299 -1.66775 2.95024 0
M  V30 2131 C 197.472 -1.2445 4.19322 0
M  V30 2132 C 196.531 -2.30539 4.7301 0
M  V30 2133 O 195.557 -1.91702 5.35947 0
M  V30 2134 N 196.759 -3.6253 4.53379 0
M  V30 2135 H 199.524 0.142282 2.99362 0
M  V30 2136 H 197.085 0.2219 1.60372 0
M  V30 2137 H 199.077 -2.37283 3.27839 0
M  V30 2138 H 197.647 -2.18845 2.23217 0
M  V30 2139 H 196.867 -0.368069 3.92478 0
M  V30 2140 H 198.155 -0.938457 5.0007 0
M  V30 2141 H 197.553 -3.96841 4.03154 0
M  V30 2142 H 196.11 -4.29055 4.90668 0
M  V30 2143 N 199.544 -1.57102 0.125237 0
M  V30 2144 C 200.79 -1.95697 -0.532035 0
M  V30 2145 C 201.123 -1.009 -1.6593 0
M  V30 2146 O 200.398 -0.047347 -1.94442 0
M  V30 2147 C 200.681 -3.44181 -1.05884 0
M  V30 2148 C 200.534 -4.49752 0.0654392 0
M  V30 2149 C 201.853 -3.94655 -1.9477 0
M  V30 2150 H 198.972 -0.711571 -0.191925 0
M  V30 2151 H 201.614 -1.88923 0.20206 0
M  V30 2152 H 199.764 -3.50085 -1.68442 0
M  V30 2153 H 201.436 -4.55943 0.700982 0
M  V30 2154 H 199.679 -4.27653 0.727709 0
M  V30 2155 H 200.35 -5.50924 -0.344505 0
M  V30 2156 H 202.826 -3.91094 -1.42074 0
M  V30 2157 H 201.702 -4.99057 -2.28546 0
M  V30 2158 H 201.963 -3.35718 -2.87656 0
M  V30 2159 N 201.022 0.148545 -1.56898 0
M  V30 2160 C 201.969 1.18345 -1.98149 0
M  V30 2161 C 202.939 1.42772 -0.848848 0
M  V30 2162 O 204.124 1.55132 -1.11079 0
M  V30 2163 C 201.264 2.51231 -2.36594 0
M  V30 2164 C 200.377 2.33991 -3.63142 0
M  V30 2165 C 199.512 3.59902 -3.90697 0
M  V30 2166 C 198.551 3.37692 -5.1052 0
M  V30 2167 N 197.688 4.5573 -5.34092 0
M  V30 2168 H 202.528 0.82467 -2.86362 0
M  V30 2169 H 200.065 0.395756 -1.41676 0
M  V30 2170 H 202.023 3.28713 -2.56912 0
M  V30 2171 H 200.653 2.85059 -1.51463 0
M  V30 2172 H 199.705 1.47572 -3.50609 0
M  V30 2173 H 201.017 2.13539 -4.5078 0
M  V30 2174 H 200.171 4.45813 -4.11505 0
M  V30 2175 H 198.91 3.83357 -3.01477 0
M  V30 2176 H 197.915 2.5017 -4.89587 0
M  V30 2177 H 199.14 3.15637 -6.0129 0
M  V30 2178 H 197.086 4.79361 -4.47827 0
M  V30 2179 H 197.003 4.38274 -6.15996 0
M  V30 2180 H 198.271 5.42858 -5.59397 0
M  V30 2181 N 202.5 1.5196 0.417844 0
M  V30 2182 C 203.777 1.56146 1.17803 0
M  V30 2183 C 204.157 0.337275 2.08388 0
M  V30 2184 O 203.505 -0.676447 2.18258 0
M  V30 2185 C 203.715 2.88566 1.96293 0
M  V30 2186 C 205.063 3.41244 2.52662 0
M  V30 2187 O 206.087 2.90247 2.06483 0
M  V30 2188 O 204.946 4.30273 3.36938 0
M  V30 2189 H 202.04 0.628598 0.537395 0
M  V30 2190 H 204.586 1.64283 0.425331 0
M  V30 2191 H 203.358 3.69116 1.2988 0
M  V30 2192 H 202.981 2.83681 2.78587 0
M  V30 2193 N 203.978 -0.674533 1.42435 0
M  V30 2194 C 205.224 -1.43671 1.43131 0
M  V30 2195 C 205.557 -1.94142 0.0476021 0
M  V30 2196 O 204.832 -1.70924 -0.928188 0
M  V30 2197 C 205.115 -2.63355 2.45594 0
M  V30 2198 C 204.968 -2.18514 3.93156 0
M  V30 2199 C 206.287 -3.65571 2.45043 0
M  V30 2200 H 203.406 -0.521077 0.521198 0
M  V30 2201 H 206.048 -0.766551 1.7385 0
M  V30 2202 H 204.198 -3.2053 2.19528 0
M  V30 2203 H 205.87 -1.66504 4.30202 0
M  V30 2204 H 204.113 -1.50086 4.07009 0
M  V30 2205 H 204.784 -3.04484 4.60428 0
M  V30 2206 H 207.26 -3.18113 2.68223 0
M  V30 2207 H 206.136 -4.46893 3.18713 0
M  V30 2208 H 206.397 -4.16716 1.47649 0
M  V30 2209 N 205.456 -1.28612 -0.910864 0
M  V30 2210 C 206.389 -1.07109 -2.01502 0
M  V30 2211 C 207.367 0.013706 -1.62594 0
M  V30 2212 O 208.551 -0.134796 -1.88017 0
M  V30 2213 C 205.678 -0.628255 -3.32822 0
M  V30 2214 C 204.724 -1.71012 -3.90714 0
M  V30 2215 S 205.557 -3.30676 -4.21205 0
M  V30 2216 C 206.713 -2.88234 -5.55583 0
M  V30 2217 H 206.946 -2.00591 -2.19432 0
M  V30 2218 H 204.479 -1.12633 -1.05609 0
M  V30 2219 H 206.437 -0.37946 -4.08742 0
M  V30 2220 H 205.098 0.28678 -3.12788 0
M  V30 2221 H 204.291 -1.35195 -4.85529 0
M  V30 2222 H 203.893 -1.91186 -3.21441 0
M  V30 2223 H 206.185 -2.34584 -6.35591 0
M  V30 2224 H 207.128 -3.81857 -5.96314 0
M  V30 2225 H 207.536 -2.26862 -5.16908 0
M  V30 2226 N 206.934 1.1197 -1.10907 0
M  V30 2227 C 207.881 2.17846 -0.762345 0
M  V30 2228 C 208.851 1.63995 0.263599 0
M  V30 2229 O 210.036 1.90273 0.141773 0
M  V30 2230 C 207.176 3.44487 -0.205651 0
M  V30 2231 C 206.289 4.12369 -1.28748 0
M  V30 2232 C 205.424 5.26674 -0.691919 0
M  V30 2233 C 204.463 5.86431 -1.75399 0
M  V30 2234 N 203.6 6.92142 -1.17833 0
M  V30 2235 H 208.44 2.46851 -1.6694 0
M  V30 2236 H 205.977 1.21188 -0.833776 0
M  V30 2237 H 207.935 4.16981 0.135037 0
M  V30 2238 H 206.565 3.15884 0.664613 0
M  V30 2239 H 205.617 3.38003 -1.74522 0
M  V30 2240 H 206.929 4.52844 -2.09125 0
M  V30 2241 H 206.083 6.05953 -0.300963 0
M  V30 2242 H 204.822 4.8749 0.143232 0
M  V30 2243 H 203.827 5.05835 -2.15432 0
M  V30 2244 H 205.052 6.27685 -2.59208 0
M  V30 2245 H 202.998 6.54985 -0.364725 0
M  V30 2246 H 202.915 7.31242 -1.91887 0
M  V30 2247 H 204.183 7.75237 -0.81408 0
M  V30 2248 N 208.412 0.89855 1.29475 0
M  V30 2249 C 209.689 0.443416 1.90508 0
M  V30 2250 C 210.069 -1.07685 1.81569 0
M  V30 2251 O 209.417 -1.9182 1.24166 0
M  V30 2252 C 209.627 0.956708 3.35631 0
M  V30 2253 C 210.975 0.999728 4.12663 0
M  V30 2254 O 211.999 0.904299 3.4453 0
M  V30 2255 O 210.858 1.14289 5.34416 0
M  V30 2256 H 207.952 0.138025 0.815401 0
M  V30 2257 H 210.498 0.98834 1.37949 0
M  V30 2258 H 209.27 2.00067 3.36287 0
M  V30 2259 H 208.893 0.391728 3.95666 0
M  V30 2260 N 209.89 -1.43072 0.660911 0
M  V30 2261 C 211.136 -2.0202 0.177708 0
M  V30 2262 C 211.469 -1.52066 -1.20787 0
M  V30 2263 O 210.744 -0.716987 -1.80802 0
M  V30 2264 C 211.027 -3.59561 0.197019 0
M  V30 2265 C 210.88 -4.19727 1.61706 0
M  V30 2266 C 212.199 -4.37664 -0.462396 0
M  V30 2267 H 209.318 -0.734034 0.0660494 0
M  V30 2268 H 211.96 -1.70272 0.843058 0
M  V30 2269 H 210.11 -3.86739 -0.369527 0
M  V30 2270 H 211.782 -4.03553 2.23479 0
M  V30 2271 H 210.025 -3.76084 2.16201 0
M  V30 2272 H 210.696 -5.28834 1.58237 0
M  V30 2273 H 213.172 -4.16095 0.0197215 0
M  V30 2274 H 212.048 -5.47305 -0.418188 0
M  V30 2275 H 212.309 -4.14493 -1.53778 0
M  V30 2276 N 211.368 -0.403325 -1.52352 0
M  V30 2277 C 212.301 0.469463 -2.23319 0
M  V30 2278 C 213.279 1.05272 -1.23922 0
M  V30 2279 O 214.463 1.10169 -1.52954 0
M  V30 2280 C 211.59 1.6511 -2.9573 0
M  V30 2281 C 210.636 1.19178 -4.0951 0
M  V30 2282 S 211.469 0.161718 -5.35256 0
M  V30 2283 C 212.625 1.34882 -6.11194 0
M  V30 2284 H 212.858 -0.133134 -2.97002 0
M  V30 2285 H 210.391 -0.187588 -1.53256 0
M  V30 2286 H 212.349 2.3287 -3.38056 0
M  V30 2287 H 211.01 2.22503 -2.21701 0
M  V30 2288 H 210.203 2.07444 -4.59329 0
M  V30 2289 H 209.805 0.592911 -3.6927 0
M  V30 2290 H 212.097 2.27345 -6.38217 0
M  V30 2291 H 213.04 0.89128 -7.02468 0
M  V30 2292 H 213.448 1.57198 -5.42171 0
M  V30 2293 N 212.846 1.57033 -0.133567 0
M  V30 2294 C 214.071 2.00475 0.531477 0
M  V30 2295 C 214.496 1.01291 1.58499 0
M  V30 2296 O 213.854 -0.0133279 1.81295 0
M  V30 2297 C 213.902 3.42729 1.12113 0
M  V30 2298 O 213.006 3.46498 2.23636 0
M  V30 2299 H 212.347 0.650876 0.131362 0
M  V30 2300 H 214.877 2.03344 -0.22634 0
M  V30 2301 H 214.887 3.81246 1.4531 0
M  V30 2302 H 213.562 4.14428 0.349557 0
M  V30 2303 H 212.139 3.19811 1.91769 0
M  V30 2304 N 214.325 -0.140222 1.56975 0
M  V30 2305 C 215.602 -0.880769 1.74648 0
M  V30 2306 C 215.982 -1.99036 0.703404 0
M  V30 2307 O 215.33 -2.26821 -0.27648 0
M  V30 2308 C 215.54 -1.417 3.18939 0
M  V30 2309 C 216.888 -1.87774 3.80823 0
M  V30 2310 O 217.912 -1.51427 3.2241 0
M  V30 2311 O 216.771 -2.54827 4.83452 0
M  V30 2312 H 213.865 -0.416713 0.714338 0
M  V30 2313 H 216.411 -0.125618 1.69234 0
M  V30 2314 H 215.183 -0.619902 3.86359 0
M  V30 2315 H 214.806 -2.23546 3.28805 0
M  V30 2316 N 215.803 -1.52179 -0.40978 0
M  V30 2317 C 216.733 -1.78435 -1.5061 0
M  V30 2318 C 217.714 -0.635295 -1.57791 0
M  V30 2319 O 218.899 -0.880823 -1.73076 0
M  V30 2320 C 216.029 -1.93444 -2.88439 0
M  V30 2321 C 214.983 -3.09038 -2.96108 0
M  V30 2322 C 214.309 -3.09268 -4.36185 0
M  V30 2323 C 215.609 -4.48508 -2.67652 0
M  V30 2324 H 217.303 -2.70237 -1.28889 0
M  V30 2325 H 214.849 -1.30036 -0.618605 0
M  V30 2326 H 216.802 -2.10394 -3.65119 0
M  V30 2327 H 215.526 -0.983129 -3.11452 0
M  V30 2328 H 214.185 -2.91837 -2.21872 0
M  V30 2329 H 213.833 -2.11861 -4.56206 0
M  V30 2330 H 213.533 -3.86907 -4.42241 0
M  V30 2331 H 215.057 -3.28348 -5.14801 0
M  V30 2332 H 216.471 -4.65918 -3.34056 0
M  V30 2333 H 214.868 -5.28059 -2.85085 0
M  V30 2334 H 215.938 -4.56649 -1.63095 0
M  V30 2335 N 217.281 0.66697 -1.42791 0
M  V30 2336 C 218.213 1.7925 -1.42836 0
M  V30 2337 C 219.226 1.59496 -0.326333 0
M  V30 2338 O 220.415 1.6847 -0.589916 0
M  V30 2339 C 217.515 3.16476 -1.21229 0
M  V30 2340 C 216.688 3.63011 -2.44013 0
M  V30 2341 C 215.747 4.78993 -2.17834 0
M  V30 2342 O 214.773 4.89137 -2.91091 0
M  V30 2343 N 215.975 5.68248 -1.18635 0
M  V30 2344 H 218.74 1.79695 -2.39854 0
M  V30 2345 H 216.301 0.850338 -1.37771 0
M  V30 2346 H 218.293 3.91734 -1.01621 0
M  V30 2347 H 216.863 3.10884 -0.32706 0
M  V30 2348 H 216.083 2.78346 -2.79137 0
M  V30 2349 H 217.371 3.90845 -3.25757 0
M  V30 2350 H 216.769 5.62712 -0.580615 0
M  V30 2351 H 215.326 6.43285 -1.05013 0
M  V30 2352 N 218.759 1.29093 0.90403 0
M  V30 2353 C 219.691 1.09658 2.01266 0
M  V30 2354 C 220.704 0.0453729 1.62737 0
M  V30 2355 O 221.893 0.289446 1.76138 0
M  V30 2356 C 218.993 0.646278 3.32681 0
M  V30 2357 C 218.166 1.77505 3.99763 0
M  V30 2358 C 217.225 1.31649 5.09465 0
M  V30 2359 O 216.251 2.02045 5.32134 0
M  V30 2360 N 217.453 0.184997 5.80205 0
M  V30 2361 H 220.218 2.05135 2.18494 0
M  V30 2362 H 217.779 1.20975 1.07594 0
M  V30 2363 H 219.771 0.322906 4.0341 0
M  V30 2364 H 218.341 -0.215916 3.11853 0
M  V30 2365 H 217.561 2.26752 3.22455 0
M  V30 2366 H 218.849 2.53198 4.41325 0
M  V30 2367 H 218.247 -0.402021 5.6427 0
M  V30 2368 H 216.804 -0.0790358 6.51752 0
M  V30 2369 N 220.237 -1.11381 1.11499 0
M  V30 2370 C 221.465 -1.86934 0.88675 0
M  V30 2371 C 221.88 -1.80195 -0.563476 0
M  V30 2372 O 221.237 -1.18367 -1.38908 0
M  V30 2373 C 221.288 -3.35722 1.34064 0
M  V30 2374 O 221.009 -3.4232 2.73401 0
M  V30 2375 C 222.51 -4.2818 1.14791 0
M  V30 2376 H 219.73 -0.591117 0.317523 0
M  V30 2377 H 222.274 -1.40865 1.48248 0
M  V30 2378 H 220.429 -3.79294 0.788355 0
M  V30 2379 H 220.843 -4.34971 2.93087 0
M  V30 2380 H 222.317 -5.30817 1.5145 0
M  V30 2381 H 222.794 -4.39113 0.0875279 0
M  V30 2382 H 223.4 -3.90402 1.68721 0
M  V30 2383 N 221.715 -0.905404 -1.28997 0
M  V30 2384 C 222.663 -0.377431 -2.29517 0
M  V30 2385 C 223.657 0.526461 -1.61012 0
M  V30 2386 O 224.863 0.40863 -1.753 0
M  V30 2387 H 221.238 -0.103437 -0.744852 0
M  V30 2388 H 223.209 -1.23848 -2.71485 0
M  V30 2389 C 221.958 0.374833 -3.45674 0
M  V30 2390 H 221.281 -0.311474 -3.98585 0
M  V30 2391 H 222.721 0.70903 -4.1803 0
M  V30 2392 C 221.18 1.57963 -2.97572 0
M  V30 2393 O 221.71 2.67886 -2.99333 0
M  V30 2394 N 219.916 1.42375 -2.53333 0
M  V30 2395 H 219.463 0.529466 -2.521 0
M  V30 2396 H 219.421 2.23117 -2.21509 0
M  V30 2397 N 223.193 1.4272 -0.668489 0
M  V30 2398 C 224.418 2.06484 -0.194758 0
M  V30 2399 C 224.843 1.49862 1.13679 0
M  V30 2400 O 224.201 0.614582 1.70565 0
M  V30 2401 C 224.249 3.60353 -0.133546 0
M  V30 2402 O 223.353 4.02464 0.899806 0
M  V30 2403 H 222.694 0.656137 -0.10188 0
M  V30 2404 H 225.224 1.82964 -0.915722 0
M  V30 2405 H 225.234 4.07976 0.0447041 0
M  V30 2406 H 223.909 4.00938 -1.1055 0
M  V30 2407 H 222.486 3.66402 0.693109 0
M  V30 2408 N 224.671 0.411399 1.52136 0
M  V30 2409 C 225.581 -0.419774 2.30814 0
M  V30 2410 C 226.597 -1.0515 1.38634 0
M  V30 2411 O 227.773 -1.05252 1.71709 0
M  V30 2412 C 224.838 -1.52019 3.11594 0
M  V30 2413 C 223.899 -0.91129 4.19516 0
M  V30 2414 C 223.132 -1.95927 4.96436 0
M  V30 2415 O 223.355 -3.17775 4.73683 0
M  V30 2416 O 222.289 -1.56423 5.81219 0
M  V30 2417 H 226.115 0.221805 3.02889 0
M  V30 2418 H 223.7 0.174547 1.48377 0
M  V30 2419 H 225.582 -2.15898 3.61892 0
M  V30 2420 H 224.257 -2.14633 2.42311 0
M  V30 2421 H 223.164 -0.235157 3.7336 0
M  V30 2422 H 224.497 -0.32904 4.91099 0
M  V30 2423 N 226.149 -1.5696 0.141893 0
M  V30 2424 C 227.096 -2.16501 -0.799737 0
M  V30 2425 C 228.066 -1.09643 -1.24771 0
M  V30 2426 O 229.251 -1.3766 -1.32115 0
M  V30 2427 C 226.391 -2.78679 -2.03549 0
M  V30 2428 C 225.504 -3.99914 -1.6338 0
M  V30 2429 C 224.639 -4.50106 -2.82096 0
M  V30 2430 C 223.678 -5.63819 -2.38275 0
M  V30 2431 N 222.815 -6.08651 -3.49983 0
M  V30 2432 H 227.655 -2.96632 -0.285179 0
M  V30 2433 H 225.192 -1.46533 -0.129053 0
M  V30 2434 H 227.15 -3.1287 -2.75986 0
M  V30 2435 H 225.78 -2.012 -2.52425 0
M  V30 2436 H 224.832 -3.71735 -0.807279 0
M  V30 2437 H 226.144 -4.82311 -1.27192 0
M  V30 2438 H 225.298 -4.86325 -3.62729 0
M  V30 2439 H 224.037 -3.66706 -3.21525 0
M  V30 2440 H 223.042 -5.2718 -1.56081 0
M  V30 2441 H 224.267 -6.49 -1.99938 0
M  V30 2442 H 222.213 -5.28188 -3.89042 0
M  V30 2443 H 222.13 -6.85961 -3.17794 0
M  V30 2444 H 223.398 -6.49515 -4.30988 0
M  V30 2445 N 227.627 0.131896 -1.57047 0
M  V30 2446 C 228.876 0.84044 -1.83356 0
M  V30 2447 C 229.189 1.81646 -0.725535 0
M  V30 2448 O 230.395 2.57025 -0.874659 0
M  V30 2449 C 228.851 1.54528 -3.25037 0
M  V30 2450 C 228.459 0.610902 -4.43815 0
M  V30 2451 C 230.203 2.23972 -3.60606 0
M  V30 2452 C 228.11 1.31823 -5.76521 0
M  V30 2453 H 227.04 0.317599 -0.683847 0
M  V30 2454 H 229.691 0.0931561 -1.83263 0
M  V30 2455 H 228.073 2.33873 -3.19561 0
M  V30 2456 H 229.247 -0.148407 -4.60561 0
M  V30 2457 H 227.562 0.0241016 -4.16393 0
M  V30 2458 H 230.159 2.77558 -4.57018 0
M  V30 2459 H 230.502 3.01173 -2.87403 0
M  V30 2460 H 231.035 1.51529 -3.6781 0
M  V30 2461 H 227.774 0.587771 -6.52859 0
M  V30 2462 H 227.294 2.04987 -5.63685 0
M  V30 2463 H 228.973 1.855 -6.19838 0
M  V30 2464 N 229.106 1.52395 0.401703 0
M  V30 2465 C 230.036 1.79231 1.49661 0
M  V30 2466 C 231.017 0.643654 1.57452 0
M  V30 2467 O 232.202 0.889989 1.72606 0
M  V30 2468 C 229.332 1.94971 2.87409 0
M  V30 2469 C 228.286 3.10604 2.94465 0
M  V30 2470 C 227.612 3.11577 4.34538 0
M  V30 2471 C 228.912 4.49921 2.6527 0
M  V30 2472 H 230.606 2.70917 1.27454 0
M  V30 2473 H 228.152 1.30362 0.6117 0
M  V30 2474 H 230.105 2.12328 3.63999 0
M  V30 2475 H 228.829 0.999632 3.10926 0
M  V30 2476 H 227.488 2.93009 2.20321 0
M  V30 2477 H 227.136 2.14277 4.55076 0
M  V30 2478 H 226.836 3.89247 4.40183 0
M  V30 2479 H 228.36 3.31073 5.13053 0
M  V30 2480 H 229.774 4.67683 3.31581 0
M  V30 2481 H 228.171 5.29564 2.82281 0
M  V30 2482 H 229.241 4.57507 1.60671 0
M  V30 2483 N 230.584 -0.659388 1.43143 0
M  V30 2484 C 231.514 -1.78422 1.50625 0
M  V30 2485 C 232.495 -1.66216 0.361443 0
M  V30 2486 O 233.68 -1.85404 0.577834 0
M  V30 2487 C 230.81 -3.16815 1.42287 0
M  V30 2488 C 229.764 -3.43777 2.54954 0
M  V30 2489 C 229.09 -4.81905 2.31671 0
M  V30 2490 C 230.39 -3.39134 3.97222 0
M  V30 2491 H 232.084 -1.72417 2.44771 0
M  V30 2492 H 229.63 -0.828084 1.17808 0
M  V30 2493 H 231.583 -3.95253 1.46127 0
M  V30 2494 H 230.307 -3.23534 0.446435 0
M  V30 2495 H 228.966 -2.67707 2.50457 0
M  V30 2496 H 228.614 -4.85294 1.32284 0
M  V30 2497 H 228.314 -5.00906 3.07192 0
M  V30 2498 H 229.838 -5.62609 2.37284 0
M  V30 2499 H 231.252 -4.07518 4.03239 0
M  V30 2500 H 229.649 -3.69671 4.72719 0
M  V30 2501 H 230.719 -2.37426 4.22797 0
M  V30 2502 N 232.062 -1.29571 -0.897171 0
M  V30 2503 C 233.287 -1.20705 -1.68656 0
M  V30 2504 C 233.712 0.228582 -1.86706 0
M  V30 2505 O 233.07 1.16494 -1.3892 0
M  V30 2506 C 233.118 -1.9282 -3.04717 0
M  V30 2507 O 232.222 -1.24697 -3.93096 0
M  V30 2508 H 231.563 -0.418126 -0.515816 0
M  V30 2509 H 234.093 -1.71183 -1.12061 0
M  V30 2510 H 234.103 -2.01372 -3.54843 0
M  V30 2511 H 232.778 -2.97239 -2.90899 0
M  V30 2512 H 231.355 -1.2442 -3.51531 0
M  V30 2513 N 233.54 1.10788 -1.12088 0
M  V30 2514 C 234.786 1.8313 -0.885148 0
M  V30 2515 C 235.141 1.8336 0.582839 0
M  V30 2516 O 234.434 1.28062 1.42516 0
M  V30 2517 C 234.628 3.29294 -1.38926 0
M  V30 2518 C 234.457 3.43302 -2.90472 0
M  V30 2519 C 233.227 3.55928 -3.58669 0
M  V30 2520 C 235.425 3.37014 -3.88492 0
M  V30 2521 N 233.407 3.58475 -4.98366 0
M  V30 2522 C 234.778 3.46263 -5.14298 0
M  V30 2523 C 236.833 3.20589 -3.80955 0
M  V30 2524 C 235.536 3.4078 -6.33452 0
M  V30 2525 C 237.562 3.16427 -4.99628 0
M  V30 2526 C 236.924 3.26253 -6.2429 0
M  V30 2527 H 233.023 0.685054 -0.377128 0
M  V30 2528 H 235.607 1.3251 -1.4265 0
M  V30 2529 H 233.778 3.78416 -0.874999 0
M  V30 2530 H 235.51 3.89578 -1.09596 0
M  V30 2531 H 232.265 3.58779 -3.09151 0
M  V30 2532 H 232.689 3.6337 -5.71219 0
M  V30 2533 H 237.331 3.11873 -2.85474 0
M  V30 2534 H 235.049 3.48263 -7.29204 0
M  V30 2535 H 238.635 3.04874 -4.95523 0
M  V30 2536 H 237.515 3.2303 -7.14578 0
M  V30 2537 N 235.018 0.912232 1.28515 0
M  V30 2538 C 236.264 0.545405 1.95328 0
M  V30 2539 C 236.597 -0.908313 1.71649 0
M  V30 2540 O 235.872 -1.64575 1.03659 0
M  V30 2541 C 236.155 0.853483 3.4984 0
M  V30 2542 C 236.008 2.35982 3.82926 0
M  V30 2543 C 237.327 0.348589 4.38717 0
M  V30 2544 H 234.446 0.199626 0.709449 0
M  V30 2545 H 237.088 1.1412 1.5191 0
M  V30 2546 H 235.238 0.34643 3.86952 0
M  V30 2547 H 236.91 2.93738 3.55691 0
M  V30 2548 H 235.153 2.81543 3.30024 0
M  V30 2549 H 235.824 2.52593 4.90816 0
M  V30 2550 H 238.3 0.78294 4.08668 0
M  V30 2551 H 237.176 0.593242 5.45685 0
M  V30 2552 H 237.437 -0.751049 4.35674 0
M  V30 2553 N 236.496 -1.42363 0.676048 0
M  V30 2554 C 237.912 -1.55811 0.345718 0
M  V30 2555 C 238.112 -1.65544 -1.14879 0
M  V30 2556 O 237.168 -1.62306 -1.93424 0
M  V30 2557 C 238.481 -2.80746 1.07713 0
M  V30 2558 C 240.029 -2.9452 1.05958 0
M  V30 2559 C 240.504 -4.22318 1.77233 0
M  V30 2560 N 241.995 -4.29233 1.74108 0
M  V30 2561 C 242.73 -5.26935 2.26113 0
M  V30 2562 N 242.226 -6.30783 2.86505 0
M  V30 2563 N 244.019 -5.18741 2.1648 0
M  V30 2564 H 236.17 -1.34289 1.6456 0
M  V30 2565 H 238.433 -0.646506 0.69335 0
M  V30 2566 H 238.139 -2.79696 2.13221 0
M  V30 2567 H 238.013 -3.71676 0.64316 0
M  V30 2568 H 240.4 -2.95097 0.0128255 0
M  V30 2569 H 240.481 -2.04817 1.53244 0
M  V30 2570 H 240.125 -4.22502 2.81877 0
M  V30 2571 H 240.055 -5.10958 1.27396 0
M  V30 2572 H 242.546 -3.54814 1.30059 0
M  V30 2573 H 242.859 -7.01691 3.23805 0
M  V30 2574 H 241.204 -6.31341 2.90575 0
M  V30 2575 H 244.395 -4.36533 1.68987 0
M  V30 2576 H 244.568 -5.94721 2.57316 0
M  V30 2577 N 237.974 -0.419461 -1.51915 0
M  V30 2578 C 238.906 0.43646 -2.25006 0
M  V30 2579 C 239.919 1.00149 -1.28351 0
M  V30 2580 O 241.108 0.898674 -1.54227 0
M  V30 2581 C 238.208 1.6206 -2.9764 0
M  V30 2582 C 237.381 1.17763 -4.21249 0
M  V30 2583 C 236.44 2.22985 -4.76617 0
M  V30 2584 O 235.466 1.83151 -5.38929 0
M  V30 2585 N 236.668 3.55271 -4.59089 0
M  V30 2586 H 239.433 -0.18989 -2.99098 0
M  V30 2587 H 236.994 -0.247386 -1.59999 0
M  V30 2588 H 238.986 2.32038 -3.31573 0
M  V30 2589 H 237.556 2.15266 -2.2667 0
M  V30 2590 H 236.776 0.305582 -3.93014 0
M  V30 2591 H 238.064 0.858781 -5.015 0
M  V30 2592 H 237.462 3.90377 -4.09417 0
M  V30 2593 H 236.019 4.21195 -4.97432 0
M  V30 2594 N 239.452 1.56882 -0.150215 0
M  V30 2595 C 240.68 2.00593 0.506948 0
M  V30 2596 C 241.095 1.03033 1.58208 0
M  V30 2597 O 240.452 0.0278396 1.82479 0
M  V30 2598 C 240.503 3.44209 1.10465 0
M  V30 2599 O 240.224 4.3804 0.0724636 0
M  V30 2600 C 241.725 4.03214 1.84211 0
M  V30 2601 H 238.945 0.65795 0.13169 0
M  V30 2602 H 241.489 2.03018 -0.245743 0
M  V30 2603 H 239.644 3.42625 1.80795 0
M  V30 2604 H 240.058 5.22007 0.510793 0
M  V30 2605 H 241.532 5.0569 2.21318 0
M  V30 2606 H 242.009 3.44107 2.72923 0
M  V30 2607 H 242.615 4.08437 1.18572 0
M  V30 2608 N 240.93 -0.123565 1.57115 0
M  V30 2609 C 242.158 -0.846461 1.88793 0
M  V30 2610 C 242.573 -1.73652 0.740976 0
M  V30 2611 O 241.93 -1.80207 -0.288393 0
M  V30 2612 C 241.981 -1.6837 3.19897 0
M  V30 2613 O 241.702 -0.829477 4.30176 0
M  V30 2614 C 243.203 -2.51214 3.65248 0
M  V30 2615 H 240.423 -0.243573 0.625231 0
M  V30 2616 H 242.967 -0.109324 2.04208 0
M  V30 2617 H 241.122 -2.37364 3.06165 0
M  V30 2618 H 241.536 -1.40651 5.0529 0
M  V30 2619 H 243.01 -3.05497 4.59756 0
M  V30 2620 H 243.487 -3.28359 2.9168 0
M  V30 2621 H 244.093 -1.8747 3.81752 0
M  V30 2622 N 242.408 -1.52605 -0.393616 0
M  V30 2623 C 243.824 -1.41753 -0.733357 0
M  V30 2624 C 244.024 -0.534293 -1.94287 0
M  V30 2625 O 243.08 -0.0059787 -2.52499 0
M  V30 2626 C 244.393 -2.84531 -0.972772 0
M  V30 2627 C 245.941 -2.93978 -1.07453 0
M  V30 2628 C 246.416 -4.37756 -1.3466 0
M  V30 2629 N 247.907 -4.4106 -1.41492 0
M  V30 2630 C 248.642 -5.49387 -1.642 0
M  V30 2631 N 248.138 -6.67806 -1.8441 0
M  V30 2632 N 249.931 -5.36923 -1.66342 0
M  V30 2633 H 242.082 -2.08555 0.402328 0
M  V30 2634 H 244.345 -0.940654 0.117789 0
M  V30 2635 H 244.051 -3.51353 -0.156204 0
M  V30 2636 H 243.925 -3.26508 -1.88871 0
M  V30 2637 H 246.312 -2.27326 -1.88167 0
M  V30 2638 H 246.393 -2.55435 -0.136605 0
M  V30 2639 H 246.037 -5.04972 -0.544581 0
M  V30 2640 H 245.967 -4.73848 -2.2973 0
M  V30 2641 H 248.458 -3.55705 -1.27601 0
M  V30 2642 H 248.771 -7.46141 -2.01231 0
M  V30 2643 H 247.116 -6.70843 -1.81644 0
M  V30 2644 H 250.307 -4.43381 -1.50102 0
M  V30 2645 H 250.48 -6.21416 -1.837 0
M  V30 2646 N 243.887 0.651787 -1.4349 0
M  V30 2647 C 245.298 1.233 -1.40193 0
M  V30 2648 C 245.649 1.9591 -0.106727 0
M  V30 2649 O 244.774 2.01316 0.793773 0
M  V30 2650 C 245.369 2.24257 -2.53957 0
M  V30 2651 C 243.928 2.77852 -2.5392 0
M  V30 2652 C 243.075 1.52517 -2.3159 0
M  V30 2653 H 246.026 0.443717 -1.52371 0
M  V30 2654 H 246.047 3.0646 -2.25528 0
M  V30 2655 H 245.559 1.71382 -3.4821 0
M  V30 2656 H 243.66 3.34786 -1.63551 0
M  V30 2657 H 243.773 3.25299 -3.51735 0
M  V30 2658 H 242.137 1.79915 -1.80285 0
M  V30 2659 H 242.92 1.01574 -3.27929 0
M  V30 2660 N 245.365 1.30045 0.890287 0
M  V30 2661 C 246.595 1.21296 1.67245 0
M  V30 2662 C 247.003 -0.227471 1.87828 0
M  V30 2663 O 246.346 -1.16296 1.422 0
M  V30 2664 C 246.408 1.86519 3.07329 0
M  V30 2665 C 246.072 3.35837 3.09939 0
M  V30 2666 C 247.069 4.31915 2.89389 0
M  V30 2667 C 244.754 3.77196 3.31706 0
M  V30 2668 C 246.748 5.67325 2.90552 0
M  V30 2669 C 244.435 5.12725 3.32499 0
M  V30 2670 C 245.433 6.076 3.11947 0
M  V30 2671 O 245.121 7.40655 3.12547 0
M  V30 2672 H 244.853 0.4211 0.528821 0
M  V30 2673 H 247.407 1.72111 1.12103 0
M  V30 2674 H 245.637 1.30228 3.64112 0
M  V30 2675 H 247.326 1.71963 3.67673 0
M  V30 2676 H 248.092 4.01294 2.72375 0
M  V30 2677 H 243.971 3.03796 3.4674 0
M  V30 2678 H 247.515 6.41354 2.74429 0
M  V30 2679 H 243.412 5.42988 3.49047 0
M  V30 2680 H 244.18 7.49577 3.28749 0
M  V30 2681 N 246.843 -1.10192 1.12674 0
M  V30 2682 C 248.068 -1.86523 0.906853 0
M  V30 2683 C 248.493 -1.80221 -0.538711 0
M  V30 2684 O 247.851 -1.17396 -1.38158 0
M  V30 2685 C 247.899 -3.32758 1.3894 0
M  V30 2686 O 247.003 -4.08449 0.5695 0
M  V30 2687 H 246.344 -0.578678 0.325619 0
M  V30 2688 H 248.874 -1.39203 1.49946 0
M  V30 2689 H 248.884 -3.83608 1.38958 0
M  V30 2690 H 247.559 -3.36661 2.44197 0
M  V30 2691 H 246.136 -3.67427 0.636528 0
M  V30 2692 N 248.321 -0.919034 -1.28029 0
M  V30 2693 C 249.253 -0.368762 -2.26214 0
M  V30 2694 C 250.266 0.495716 -1.55069 0
M  V30 2695 O 251.455 0.30974 -1.75792 0
M  V30 2696 C 248.555 0.491049 -3.35324 0
M  V30 2697 C 247.728 -0.352133 -4.3598 0
M  V30 2698 C 246.787 0.443622 -5.24327 0
M  V30 2699 O 245.813 -0.14566 -5.69014 0
M  V30 2700 N 247.015 1.74545 -5.53637 0
M  V30 2701 H 249.78 -1.21273 -2.74068 0
M  V30 2702 H 247.341 -0.785541 -1.41566 0
M  V30 2703 H 249.333 1.03026 -3.91366 0
M  V30 2704 H 247.903 1.23574 -2.87138 0
M  V30 2705 H 247.123 -1.07269 -3.79324 0
M  V30 2706 H 248.411 -0.928883 -5.00249 0
M  V30 2707 H 247.809 2.24666 -5.19174 0
M  V30 2708 H 246.366 2.23138 -6.12416 0
M  V30 2709 N 249.799 1.42003 -0.683588 0
M  V30 2710 C 251.045 2.01712 -0.209825 0
M  V30 2711 C 251.378 1.53968 1.18353 0
M  V30 2712 O 250.653 0.745661 1.79639 0
M  V30 2713 C 250.936 3.59202 -0.254197 0
M  V30 2714 C 250.789 4.17102 -1.68363 0
M  V30 2715 C 252.108 4.38344 0.392709 0
M  V30 2716 H 249.227 0.732891 -0.0777189 0
M  V30 2717 H 251.869 1.68909 -0.87004 0
M  V30 2718 H 250.019 3.87278 0.307954 0
M  V30 2719 H 251.691 3.99946 -2.29871 0
M  V30 2720 H 249.934 3.72597 -2.22157 0
M  V30 2721 H 250.605 5.26249 -1.6663 0
M  V30 2722 H 253.081 4.16011 -0.0859162 0
M  V30 2723 H 251.957 5.47901 0.331063 0
M  V30 2724 H 252.218 4.16887 1.47164 0
M  V30 2725 N 251.277 0.427512 1.51691 0
M  V30 2726 C 252.225 -0.403359 2.29076 0
M  V30 2727 C 253.219 -1.02962 1.34518 0
M  V30 2728 O 254.425 -0.965715 1.51901 0
M  V30 2729 H 250.8 -0.148879 0.737115 0
M  V30 2730 H 252.771 0.270295 2.97173 0
M  V30 2731 C 251.52 -1.49763 3.13794 0
M  V30 2732 H 250.843 -1.02508 3.86435 0
M  V30 2733 H 252.283 -2.05244 3.71014 0
M  V30 2734 C 250.742 -2.47536 2.28533 0
M  V30 2735 O 251.272 -3.51848 1.93819 0
M  V30 2736 N 249.478 -2.18187 1.91945 0
M  V30 2737 H 249.025 -1.33389 2.20375 0
M  V30 2738 H 248.983 -2.83848 1.35195 0
M  V30 2739 N 252.755 -1.56801 0.158532 0
M  V30 2740 C 254.001 -1.96781 -0.490405 0
M  V30 2741 C 254.334 -1.04397 -1.63753 0
M  V30 2742 O 253.609 -0.0885805 -1.94298 0
M  V30 2743 C 253.892 -3.4635 -0.985594 0
M  V30 2744 C 253.745 -4.49512 0.160824 0
M  V30 2745 C 255.064 -3.98697 -1.86355 0
M  V30 2746 H 252.183 -0.715482 -0.176788 0
M  V30 2747 H 254.825 -1.88451 0.242088 0
M  V30 2748 H 252.975 -3.53579 -1.60978 0
M  V30 2749 H 254.647 -4.54353 0.797537 0
M  V30 2750 H 252.89 -4.26013 0.818256 0
M  V30 2751 H 253.561 -5.51531 -0.227569 0
M  V30 2752 H 256.037 -3.94019 -1.33746 0
M  V30 2753 H 254.913 -5.03792 -2.17909 0
M  V30 2754 H 255.174 -3.41744 -2.8047 0
M  V30 2755 N 254.233 0.115231 -1.57178 0
M  V30 2756 C 255.163 1.1423 -2.03651 0
M  V30 2757 C 256.144 1.42967 -0.921655 0
M  V30 2758 O 257.329 1.53343 -1.19162 0
M  V30 2759 C 254.459 2.4675 -2.44401 0
M  V30 2760 C 253.413 2.32467 -3.59365 0
M  V30 2761 C 252.739 3.69984 -3.86026 0
M  V30 2762 C 254.039 1.78203 -4.90959 0
M  V30 2763 H 255.733 0.755749 -2.89705 0
M  V30 2764 H 253.279 0.362093 -1.39373 0
M  V30 2765 H 255.232 3.18854 -2.75517 0
M  V30 2766 H 253.956 2.87302 -1.55322 0
M  V30 2767 H 252.615 1.62811 -3.28463 0
M  V30 2768 H 252.263 4.08028 -2.94147 0
M  V30 2769 H 251.963 3.61279 -4.63412 0
M  V30 2770 H 253.487 4.43587 -4.19599 0
M  V30 2771 H 254.901 2.40128 -5.20587 0
M  V30 2772 H 253.298 1.8031 -5.72371 0
M  V30 2773 H 254.368 0.739876 -4.79222 0
M  V30 2774 N 255.711 1.52812 0.385517 0
M  V30 2775 C 256.659 1.78482 1.49155 0
M  V30 2776 C 257.653 0.652914 1.56312 0
M  V30 2777 O 258.859 0.835464 1.59436 0
M  V30 2778 H 255.234 0.5648 0.496493 0
M  V30 2779 H 257.205 2.71095 1.24699 0
M  V30 2780 C 255.954 1.97378 2.86247 0
M  V30 2781 H 255.277 2.83907 2.81491 0
M  V30 2782 H 256.717 2.19327 3.62866 0
M  V30 2783 C 255.176 0.74728 3.28508 0
M  V30 2784 O 255.706 -0.0736232 4.01633 0
M  V30 2785 N 253.912 0.576396 2.84826 0
M  V30 2786 H 253.459 1.24555 2.25486 0
M  V30 2787 H 253.417 -0.24288 3.1346 0
M  V30 2788 N 257.189 -0.644168 1.43834 0
M  V30 2789 C 258.436 -1.40395 1.4593 0
M  V30 2790 C 258.764 -1.94305 0.0869658 0
M  V30 2791 O 258.019 -1.73288 -0.909378 0
M  V30 2792 C 258.318 -2.59615 2.45631 0
M  V30 2793 C 257.984 -2.2407 3.91284 0
M  V30 2794 C 256.646 -2.14089 4.30952 0
M  V30 2795 C 258.998 -1.95775 4.83034 0
M  V30 2796 C 256.326 -1.73981 5.6031 0
M  V30 2797 C 258.678 -1.57163 6.12766 0
M  V30 2798 C 257.342 -1.45713 6.51402 0
M  V30 2799 H 256.612 -0.513741 0.533995 0
M  V30 2800 H 259.259 -0.731724 1.76969 0
M  V30 2801 H 257.564 -3.32011 2.08028 0
M  V30 2802 H 259.261 -3.17834 2.44504 0
M  V30 2803 H 255.851 -2.32753 3.59895 0
M  V30 2804 H 260.035 -2.02403 4.53152 0
M  V30 2805 H 255.291 -1.63709 5.89075 0
M  V30 2806 H 259.465 -1.34303 6.83327 0
M  V30 2807 H 257.092 -1.14406 7.51542 0
M  V30 2808 N 258.668 -1.30515 -0.883378 0
M  V30 2809 C 259.896 -1.22359 -1.66841 0
M  V30 2810 C 260.311 0.213296 -1.87591 0
M  V30 2811 O 259.668 1.14075 -1.42454 0
M  V30 2812 C 259.719 -1.95011 -3.04389 0
M  V30 2813 O 259.44 -3.3309 -2.84575 0
M  V30 2814 C 260.941 -1.93532 -3.98824 0
M  V30 2815 H 258.161 -0.423371 -0.520575 0
M  V30 2816 H 260.705 -1.72167 -1.10357 0
M  V30 2817 H 258.86 -1.48997 -3.57601 0
M  V30 2818 H 259.274 -3.69907 -3.71846 0
M  V30 2819 H 260.748 -2.48902 -4.92699 0
M  V30 2820 H 261.225 -0.914627 -4.29571 0
M  V30 2821 H 261.831 -2.39364 -3.51547 0
M  V30 2822 N 260.146 1.09593 -1.13257 0
M  V30 2823 C 261.374 1.855 -0.916378 0
M  V30 2824 C 261.789 1.81069 0.534738 0
M  V30 2825 O 261.146 1.20562 1.37007 0
M  V30 2826 C 261.197 3.33546 -1.39388 0
M  V30 2827 O 260.918 3.37927 -2.78813 0
M  V30 2828 C 262.419 4.26299 -1.21588 0
M  V30 2829 H 259.639 0.585991 -0.326887 0
M  V30 2830 H 262.183 1.38488 -1.5047 0
M  V30 2831 H 260.338 3.77992 -0.848597 0
M  V30 2832 H 260.752 4.30254 -2.9997 0
M  V30 2833 H 262.226 5.28341 -1.59876 0
M  V30 2834 H 262.703 4.38918 -0.157376 0
M  V30 2835 H 263.309 3.87668 -1.7491 0
M  V30 2836 N 261.624 0.925811 1.2754 0
M  V30 2837 C 262.849 0.580924 1.99098 0
M  V30 2838 C 263.274 -0.833555 1.68622 0
M  V30 2839 O 262.632 -1.55903 0.925422 0
M  V30 2840 C 262.68 0.811186 3.51358 0
M  V30 2841 O 261.784 -0.124129 4.12213 0
M  V30 2842 H 261.125 0.223873 0.625122 0
M  V30 2843 H 263.655 1.24455 1.62395 0
M  V30 2844 H 263.665 0.72601 4.01489 0
M  V30 2845 H 262.34 1.84227 3.72872 0
M  V30 2846 H 260.917 0.0108006 3.72898 0
M  V30 2847 N 263.102 -1.41638 0.69111 0
M  V30 2848 C 264.348 -2.02104 0.229258 0
M  V30 2849 C 264.703 -1.53741 -1.15678 0
M  V30 2850 O 263.996 -0.736849 -1.76865 0
M  V30 2851 C 264.19 -3.56714 0.221277 0
M  V30 2852 C 264.019 -4.20083 1.605 0
M  V30 2853 C 262.789 -4.54566 2.20676 0
M  V30 2854 C 264.987 -4.46587 2.55078 0
M  V30 2855 N 262.969 -5.03199 3.5166 0
M  V30 2856 C 264.34 -4.96946 3.70735 0
M  V30 2857 C 266.395 -4.28593 2.53401 0
M  V30 2858 C 265.098 -5.31203 4.8499 0
M  V30 2859 C 267.124 -4.63936 3.66765 0
M  V30 2860 C 266.486 -5.14463 4.81152 0
M  V30 2861 H 262.585 -0.771256 0.12918 0
M  V30 2862 H 265.169 -1.72251 0.907626 0
M  V30 2863 H 263.34 -3.86051 -0.426562 0
M  V30 2864 H 265.072 -4.03896 -0.254983 0
M  V30 2865 H 261.827 -4.4087 1.73005 0
M  V30 2866 H 262.251 -5.31926 4.18789 0
M  V30 2867 H 266.893 -3.88771 1.66184 0
M  V30 2868 H 264.611 -5.69951 5.72871 0
M  V30 2869 H 268.197 -4.51677 3.66714 0
M  V30 2870 H 267.077 -5.41299 5.67419 0
M  V30 2871 N 264.58 -0.43555 -1.51462 0
M  V30 2872 C 265.808 0.130242 -2.0649 0
M  V30 2873 C 266.223 1.36614 -1.30315 0
M  V30 2874 O 265.58 1.78869 -0.362223 0
M  V30 2875 C 265.631 0.454253 -3.58635 0
M  V30 2876 O 265.352 -0.73259 -4.31931 0
M  V30 2877 C 266.853 1.07091 -4.3017 0
M  V30 2878 H 264.073 0.00871669 -0.670943 0
M  V30 2879 H 266.617 -0.614117 -1.95061 0
M  V30 2880 H 264.772 1.14851 -3.69984 0
M  V30 2881 H 265.186 -0.455787 -5.22516 0
M  V30 2882 H 266.66 1.24764 -5.37716 0
M  V30 2883 H 267.137 2.05144 -3.88346 0
M  V30 2884 H 267.743 0.416089 -4.2326 0
M  V30 2885 N 266.058 1.56714 -0.166846 0
M  V30 2886 C 267.335 1.88412 0.525373 0
M  V30 2887 C 267.715 1.07602 1.81618 0
M  V30 2888 O 267.063 0.168621 2.27877 0
M  V30 2889 C 267.273 3.40363 0.771613 0
M  V30 2890 C 268.621 4.10007 1.1036 0
M  V30 2891 O 269.645 3.45655 0.860304 0
M  V30 2892 O 268.504 5.2369 1.56239 0
M  V30 2893 H 265.598 0.781587 0.270278 0
M  V30 2894 H 268.144 1.68458 -0.204946 0
M  V30 2895 H 266.916 3.91046 -0.141093 0
M  V30 2896 H 266.539 3.65914 1.55541 0
M  V30 2897 N 267.536 -0.106894 1.57237 0
M  V30 2898 C 268.784 -0.810921 1.85117 0
M  V30 2899 C 269.105 -1.7984 0.753827 0
M  V30 2900 O 268.375 -1.94649 -0.221056 0
M  V30 2901 H 266.955 -0.302466 0.683025 0
M  V30 2902 H 269.617 -0.0913324 1.94686 0
M  V30 2903 H 268.713 -1.34875 2.81452 0
M  V30 2904 N 269.014 -1.53014 -0.377408 0
M  V30 2905 C 269.944 -1.81589 -1.46791 0
M  V30 2906 C 270.925 -0.668622 -1.56408 0
M  V30 2907 O 272.11 -0.917337 -1.71168 0
M  V30 2908 C 269.24 -1.99519 -2.8427 0
M  V30 2909 C 268.194 -3.15249 -2.89486 0
M  V30 2910 C 267.52 -3.18451 -4.29527 0
M  V30 2911 C 268.82 -4.54084 -2.58079 0
M  V30 2912 H 270.514 -2.7291 -1.23127 0
M  V30 2913 H 268.06 -1.31319 -0.590883 0
M  V30 2914 H 270.013 -2.18092 -3.60575 0
M  V30 2915 H 268.737 -1.04897 -3.09296 0
M  V30 2916 H 267.396 -2.96477 -2.15631 0
M  V30 2917 H 267.044 -2.2149 -4.5161 0
M  V30 2918 H 266.744 -3.962 -4.33934 0
M  V30 2919 H 268.268 -3.39193 -5.07721 0
M  V30 2920 H 269.682 -4.72899 -3.24098 0
M  V30 2921 H 268.079 -5.33987 -2.7382 0
M  V30 2922 H 269.149 -4.60006 -1.53372 0
M  V30 2923 N 270.492 0.636531 -1.44174 0
M  V30 2924 C 271.455 1.73063 -1.50273 0
M  V30 2925 C 272.455 1.56113 -0.385397 0
M  V30 2926 O 273.645 1.61707 -0.64781 0
M  V30 2927 C 270.777 3.12096 -1.37145 0
M  V30 2928 H 271.97 1.69031 -2.47727 0
M  V30 2929 H 269.523 0.849706 -1.31186 0
M  V30 2930 H 270.258 3.21728 -0.407636 0
M  V30 2931 H 270.043 3.25805 -2.18159 0
M  V30 2932 H 271.533 3.91846 -1.44382 0
M  V30 2933 N 271.97 1.30982 0.876444 0
M  V30 2934 C 273.217 1.20296 1.62896 0
M  V30 2935 C 273.545 -0.240395 1.93009 0
M  V30 2936 O 272.8 -1.18733 1.55567 0
M  V30 2937 C 273.099 1.98572 2.9716 0
M  V30 2938 C 272.765 3.48125 2.86566 0
M  V30 2939 C 271.427 3.88905 2.83383 0
M  V30 2940 C 273.779 4.43322 2.74071 0
M  V30 2941 C 271.107 5.2316 2.65556 0
M  V30 2942 C 273.459 5.77695 2.57781 0
M  V30 2943 C 272.123 6.17704 2.52979 0
M  V30 2944 H 271.393 0.440193 0.59608 0
M  V30 2945 H 274.04 1.62177 1.01837 0
M  V30 2946 H 272.345 1.49352 3.62217 0
M  V30 2947 H 274.042 1.8769 3.54364 0
M  V30 2948 H 270.632 3.15723 2.89856 0
M  V30 2949 H 274.816 4.12752 2.75589 0
M  V30 2950 H 270.072 5.53241 2.60259 0
M  V30 2951 H 274.246 6.51091 2.47089 0
M  V30 2952 H 271.873 7.21678 2.38924 0
M  V30 2953 N 273.449 -1.08991 1.13837 0
M  V30 2954 C 274.397 -2.17841 0.815347 0
M  V30 2955 C 275.391 -1.68164 -0.204233 0
M  V30 2956 O 276.597 -1.79897 -0.0609304 0
M  V30 2957 H 272.972 -0.710654 0.245915 0
M  V30 2958 H 274.943 -2.42315 1.74143 0
M  V30 2959 C 273.692 -3.46381 0.302614 0
M  V30 2960 H 273.015 -3.84979 1.0785 0
M  V30 2961 H 274.455 -4.23844 0.115074 0
M  V30 2962 C 272.914 -3.22556 -0.972591 0
M  V30 2963 O 273.444 -3.45599 -2.04754 0
M  V30 2964 N 271.65 -2.76134 -0.905455 0
M  V30 2965 H 271.197 -2.57582 -0.0305421 0
M  V30 2966 H 271.155 -2.60571 -1.75926 0
M  V30 2967 N 274.927 -0.932562 -1.27047 0
M  V30 2968 C 275.89 -0.440064 -2.24936 0
M  V30 2969 C 276.89 0.444071 -1.54547 0
M  V30 2970 O 278.08 0.244465 -1.72476 0
M  V30 2971 C 275.212 0.36678 -3.38921 0
M  V30 2972 H 276.405 -1.305 -2.70018 0
M  V30 2973 H 273.958 -0.713707 -1.39054 0
M  V30 2974 H 274.693 1.25033 -2.99228 0
M  V30 2975 H 274.478 -0.267204 -3.91188 0
M  V30 2976 H 275.968 0.701567 -4.11665 0
M  V30 2977 N 276.405 1.4127 -0.698611 0
M  V30 2978 C 277.651 2.01478 -0.231207 0
M  V30 2979 C 277.984 1.55215 1.16713 0
M  V30 2980 O 277.259 0.764672 1.78838 0
M  V30 2981 C 277.542 3.58912 -0.292281 0
M  V30 2982 C 277.395 4.15293 -1.72778 0
M  V30 2983 C 278.714 4.38736 0.346194 0
M  V30 2984 H 275.833 0.732025 -0.0854878 0
M  V30 2985 H 278.475 1.67977 -0.887906 0
M  V30 2986 H 276.625 3.87582 0.26686 0
M  V30 2987 H 278.297 3.97486 -2.341 0
M  V30 2988 H 276.54 3.7022 -2.26096 0
M  V30 2989 H 277.211 5.24452 -1.72202 0
M  V30 2990 H 279.687 4.15897 -0.130035 0
M  V30 2991 H 278.563 5.48221 0.272932 0
M  V30 2992 H 278.824 4.18425 1.42734 0
M  V30 2993 N 277.883 0.443576 1.51229 0
M  V30 2994 C 278.813 -0.355142 2.30783 0
M  V30 2995 C 279.794 -1.0154 1.36468 0
M  V30 2996 O 280.979 -1.01785 1.65389 0
M  V30 2997 C 278.109 -1.45312 3.15439 0
M  V30 2998 C 277.063 -0.916002 4.18083 0
M  V30 2999 C 276.389 -2.1102 4.91299 0
M  V30 3000 C 277.689 0.0538602 5.22272 0
M  V30 3001 H 279.383 0.308767 2.97804 0
M  V30 3002 H 276.929 0.149937 1.43217 0
M  V30 3003 H 278.882 -2.01914 3.69876 0
M  V30 3004 H 277.606 -2.14541 2.46252 0
M  V30 3005 H 276.265 -0.372145 3.64706 0
M  V30 3006 H 275.913 -2.78882 4.18609 0
M  V30 3007 H 275.613 -1.75717 5.60712 0
M  V30 3008 H 277.137 -2.68164 5.48562 0
M  V30 3009 H 278.551 -0.422069 5.71744 0
M  V30 3010 H 276.948 0.319776 5.99247 0
M  V30 3011 H 278.018 0.98858 4.74716 0
M  V30 3012 N 279.361 -1.56624 0.175154 0
M  V30 3013 C 280.311 -2.14747 -0.766004 0
M  V30 3014 C 281.295 -1.08275 -1.19018 0
M  V30 3015 O 282.487 -1.34388 -1.15191 0
M  V30 3016 C 279.616 -2.79478 -1.99366 0
M  V30 3017 C 278.702 -3.93114 -1.5913 0
M  V30 3018 N 279.093 -4.97752 -0.89872 0
M  V30 3019 C 277.391 -4.04345 -1.88204 0
M  V30 3020 C 278.092 -5.77473 -0.700012 0
M  V30 3021 N 277.068 -5.29207 -1.24263 0
M  V30 3022 H 280.87 -2.93015 -0.22793 0
M  V30 3023 H 278.384 -1.6238 -0.0253843 0
M  V30 3024 H 280.381 -3.19498 -2.67818 0
M  V30 3025 H 279.041 -2.02692 -2.53665 0
M  V30 3026 H 280.052 -5.14903 -0.556347 0
M  V30 3027 H 276.729 -3.38667 -2.44153 0
M  V30 3028 H 278.119 -6.71728 -0.152047 0
M  V30 3029 N 280.839 0.0985539 -1.57292 0
M  V30 3030 C 282.255 0.45267 -1.53046 0
M  V30 3031 C 282.455 1.80713 -0.891342 0
M  V30 3032 O 281.511 2.4785 -0.482375 0
M  V30 3033 C 282.824 0.418341 -2.97776 0
M  V30 3034 C 284.372 0.500443 -3.08973 0
M  V30 3035 C 284.847 0.496297 -4.55303 0
M  V30 3036 N 286.338 0.557151 -4.59837 0
M  V30 3037 C 287.073 0.575726 -5.70502 0
M  V30 3038 N 286.569 0.550714 -6.90608 0
M  V30 3039 N 288.362 0.620277 -5.58667 0
M  V30 3040 H 280.513 -0.788673 -1.97215 0
M  V30 3041 H 282.776 -0.293188 -0.901524 0
M  V30 3042 H 282.482 -0.509659 -3.47988 0
M  V30 3043 H 282.356 1.2386 -3.56284 0
M  V30 3044 H 284.743 1.41886 -2.58751 0
M  V30 3045 H 284.824 -0.347894 -2.53423 0
M  V30 3046 H 284.468 -0.418162 -5.06176 0
M  V30 3047 H 284.398 1.3618 -5.08687 0
M  V30 3048 H 286.889 0.581816 -3.73394 0
M  V30 3049 H 287.202 0.568075 -7.70709 0
M  V30 3050 H 285.547 0.517816 -6.93068 0
M  V30 3051 H 288.738 0.637322 -4.63741 0
M  V30 3052 H 288.911 0.631283 -6.44918 0
M  V30 3053 N 282.317 1.53212 0.369288 0
M  V30 3054 C 283.267 1.75769 1.45222 0
M  V30 3055 C 284.251 0.612136 1.48801 0
M  V30 3056 O 285.443 0.870674 1.54105 0
M  V30 3057 C 282.572 1.94769 2.82701 0
M  V30 3058 C 281.658 3.15315 2.83615 0
M  V30 3059 N 282.049 4.37295 2.54178 0
M  V30 3060 C 280.347 3.15962 3.14776 0
M  V30 3061 C 281.048 5.19015 2.62675 0
M  V30 3062 N 280.024 4.55142 2.97232 0
M  V30 3063 H 283.826 2.67691 1.2132 0
M  V30 3064 H 281.34 1.51787 0.577438 0
M  V30 3065 H 283.337 2.09056 3.60696 0
M  V30 3066 H 281.997 1.04073 3.07569 0
M  V30 3067 H 283.008 4.65091 2.27839 0
M  V30 3068 H 279.685 2.35144 3.44983 0
M  V30 3069 H 281.075 6.26305 2.43294 0
M  V30 3070 N 283.795 -0.628877 1.44509 0
M  V30 3071 C 284.742 -1.74074 1.51549 0
M  V30 3072 C 285.712 -1.62084 0.363021 0
M  V30 3073 O 286.897 -1.81975 0.573567 0
M  V30 3074 C 284.037 -3.12328 1.46784 0
M  V30 3075 C 283.15 -3.35277 2.72422 0
M  V30 3076 C 282.285 -4.63515 2.59475 0
M  V30 3077 C 281.324 -4.7965 3.80266 0
M  V30 3078 N 280.461 -5.99168 3.65981 0
M  V30 3079 H 285.301 -1.67392 2.46544 0
M  V30 3080 H 282.838 -0.816527 1.22357 0
M  V30 3081 H 284.796 -3.92286 1.42012 0
M  V30 3082 H 283.426 -3.18018 0.553544 0
M  V30 3083 H 282.478 -2.49242 2.87372 0
M  V30 3084 H 283.79 -3.43078 3.62076 0
M  V30 3085 H 282.944 -5.51638 2.52548 0
M  V30 3086 H 281.683 -4.58076 1.67384 0
M  V30 3087 H 280.688 -3.89957 3.87574 0
M  V30 3088 H 281.913 -4.86902 4.73395 0
M  V30 3089 H 279.859 -5.94814 2.76644 0
M  V30 3090 H 279.776 -6.08035 4.49254 0
M  V30 3091 H 281.044 -6.89846 3.6295 0
M  V30 3092 N 285.273 -1.31445 -0.869486 0
M  V30 3093 C 286.684 -1.19042 -1.43826 0
M  V30 3094 C 287.035 0.202919 -1.95148 0
M  V30 3095 O 286.16 1.10071 -1.86315 0
M  V30 3096 C 286.755 -2.15499 -2.6143 0
M  V30 3097 C 285.314 -2.07028 -3.14351 0
M  V30 3098 C 284.461 -2.04701 -1.87063 0
M  V30 3099 H 287.412 -1.43489 -0.677984 0
M  V30 3100 H 287.433 -1.74488 -3.38134 0
M  V30 3101 H 286.945 -3.16899 -2.24046 0
M  V30 3102 H 285.046 -1.08825 -3.56354 0
M  V30 3103 H 285.159 -2.96157 -3.766 0
M  V30 3104 H 283.523 -1.49724 -2.06046 0
M  V30 3105 H 284.306 -3.07857 -1.51917 0
M  V30 3106 N 286.751 1.08385 -1.14413 0
M  V30 3107 C 288.028 1.77429 -0.823297 0
M  V30 3108 C 288.408 1.9974 0.683163 0
M  V30 3109 O 287.756 1.60739 1.62405 0
M  V30 3110 C 287.966 3.09004 -1.62227 0
M  V30 3111 C 289.314 3.83532 -1.82177 0
M  V30 3112 O 290.338 3.18786 -1.58915 0
M  V30 3113 O 289.197 4.99792 -2.21067 0
M  V30 3114 H 286.291 0.769999 -0.301712 0
M  V30 3115 H 288.837 1.14846 -1.24934 0
M  V30 3116 H 287.609 2.88316 -2.64555 0
M  V30 3117 H 287.232 3.79316 -1.19187 0
M  V30 3118 N 288.23 0.939286 1.26551 0
M  V30 3119 C 289.16 0.465044 2.28822 0
M  V30 3120 C 290.141 -0.480692 1.63167 0
M  V30 3121 O 291.326 -0.382955 1.90387 0
M  V30 3122 C 288.456 -0.27234 3.46231 0
M  V30 3123 C 287.41 0.58666 4.2396 0
M  V30 3124 C 286.736 -0.280573 5.33963 0
M  V30 3125 C 288.036 1.85704 4.88171 0
M  V30 3126 H 289.73 1.31979 2.68741 0
M  V30 3127 H 287.276 0.636061 1.29191 0
M  V30 3128 H 289.229 -0.615133 4.16886 0
M  V30 3129 H 287.953 -1.16121 3.0526 0
M  V30 3130 H 286.612 0.91232 3.55067 0
M  V30 3131 H 286.26 -1.16874 4.89234 0
M  V30 3132 H 285.96 0.29076 5.8688 0
M  V30 3133 H 287.484 -0.618678 6.07458 0
M  V30 3134 H 288.898 1.58161 5.51052 0
M  V30 3135 H 287.295 2.37279 5.51197 0
M  V30 3136 H 288.365 2.56957 4.11219 0
M  V30 3137 N 289.708 -1.40897 0.706093 0
M  V30 3138 C 290.955 -2.01054 0.241531 0
M  V30 3139 C 291.283 -1.55956 -1.16223 0
M  V30 3140 O 290.538 -0.766336 -1.80072 0
M  V30 3141 C 290.837 -3.5646 0.259099 0
M  V30 3142 C 290.503 -4.21106 1.61184 0
M  V30 3143 C 289.165 -4.38479 1.98216 0
M  V30 3144 C 291.517 -4.57256 2.50132 0
M  V30 3145 C 288.845 -4.89282 3.2376 0
M  V30 3146 C 291.197 -5.09454 3.7502 0
M  V30 3147 C 289.861 -5.25037 4.12181 0
M  V30 3148 H 289.131 -0.73571 0.0883825 0
M  V30 3149 H 291.778 -1.68645 0.907257 0
M  V30 3150 H 290.083 -3.88721 -0.490189 0
M  V30 3151 H 291.78 -4.00826 -0.11804 0
M  V30 3152 H 288.37 -4.07966 1.31384 0
M  V30 3153 H 292.554 -4.43479 2.228 0
M  V30 3154 H 287.81 -4.99531 3.52532 0
M  V30 3155 H 291.984 -5.36404 4.44121 0
M  V30 3156 H 289.611 -5.64164 5.09532 0
M  V30 3157 N 291.186 -0.45159 -1.50991 0
M  V30 3158 C 292.411 0.110667 -2.07105 0
M  V30 3159 C 292.836 1.3446 -1.31538 0
M  V30 3160 O 292.194 1.77743 -0.357365 0
M  V30 3161 C 292.242 0.397238 -3.58405 0
M  V30 3162 O 291.346 1.48124 -3.84881 0
M  V30 3163 H 290.687 -0.00439271 -0.663985 0
M  V30 3164 H 293.217 -0.637026 -1.9443 0
M  V30 3165 H 293.227 0.64351 -4.02893 0
M  V30 3166 H 291.902 -0.504553 -4.12828 0
M  V30 3167 H 290.479 1.22381 -3.52246 0
M  V30 3168 N 292.664 1.56529 -0.183458 0
M  V30 3169 C 293.91 1.98304 0.452466 0
M  V30 3170 C 294.265 1.06799 1.60037 0
M  V30 3171 O 293.558 0.110049 1.91284 0
M  V30 3172 C 293.752 3.43939 0.971637 0
M  V30 3173 C 293.581 4.49528 -0.124425 0
M  V30 3174 C 292.351 5.01981 -0.578168 0
M  V30 3175 C 294.549 5.05836 -0.929207 0
M  V30 3176 N 292.531 5.91219 -1.65327 0
M  V30 3177 C 293.902 5.91632 -1.85396 0
M  V30 3178 C 295.957 4.88302 -0.972929 0
M  V30 3179 C 294.66 6.61768 -2.81878 0
M  V30 3180 C 296.686 5.59168 -1.92574 0
M  V30 3181 C 296.048 6.44701 -2.83795 0
M  V30 3182 H 292.147 0.770551 0.133324 0
M  V30 3183 H 294.731 1.92581 -0.286473 0
M  V30 3184 H 292.902 3.50184 1.68006 0
M  V30 3185 H 294.634 3.72702 1.5772 0
M  V30 3186 H 291.389 4.73282 -0.173639 0
M  V30 3187 H 291.813 6.40543 -2.19167 0
M  V30 3188 H 296.455 4.21861 -0.28168 0
M  V30 3189 H 294.173 7.27415 -3.51984 0
M  V30 3190 H 297.759 5.47582 -1.96583 0
M  V30 3191 H 296.639 6.98573 -3.56322 0
M  V30 3192 N 294.142 -0.090211 1.57342 0
M  V30 3193 C 295.419 -0.824761 1.77361 0
M  V30 3194 C 295.799 -1.96698 0.76637 0
M  V30 3195 O 295.147 -2.27586 -0.204179 0
M  V30 3196 C 295.357 -1.31481 3.23286 0
M  V30 3197 C 296.705 -1.75563 3.86604 0
M  V30 3198 O 297.729 -1.41093 3.27065 0
M  V30 3199 O 296.588 -2.39317 4.91314 0
M  V30 3200 H 293.682 -0.393776 0.727234 0
M  V30 3201 H 296.228 -0.0717138 1.69548 0
M  V30 3202 H 295 -0.496671 3.88135 0
M  V30 3203 H 294.623 -2.12973 3.35751 0
M  V30 3204 N 295.62 -1.53406 -0.361157 0
M  V30 3205 C 296.567 -1.80156 -1.44265 0
M  V30 3206 C 297.537 -0.646183 -1.53015 0
M  V30 3207 O 298.722 -0.888818 -1.68833 0
M  V30 3208 C 295.862 -2.00116 -2.81154 0
M  V30 3209 C 294.975 -3.27833 -2.81335 0
M  V30 3210 C 294.11 -3.37957 -4.09828 0
M  V30 3211 C 293.149 -4.59689 -4.04168 0
M  V30 3212 N 292.286 -4.66942 -5.24318 0
M  V30 3213 H 297.126 -2.72438 -1.20754 0
M  V30 3214 H 294.663 -1.34954 -0.585296 0
M  V30 3215 H 296.621 -2.09677 -3.60682 0
M  V30 3216 H 295.251 -1.11167 -3.03054 0
M  V30 3217 H 294.303 -3.27204 -1.94014 0
M  V30 3218 H 295.615 -4.17442 -2.73027 0
M  V30 3219 H 294.769 -3.46853 -4.97773 0
M  V30 3220 H 293.508 -2.46372 -4.20894 0
M  V30 3221 H 292.513 -4.50889 -3.14609 0
M  V30 3222 H 293.738 -5.5262 -3.947 0
M  V30 3223 H 291.684 -3.7826 -5.35962 0
M  V30 3224 H 291.601 -5.50462 -5.18197 0
M  V30 3225 H 292.869 -4.80127 -6.14084 0
M  V30 3226 N 297.098 0.621204 -1.44841 0
M  V30 3227 C 298.344 1.3826 -1.48365 0
M  V30 3228 C 298.677 1.93831 -0.119624 0
M  V30 3229 O 297.952 1.74251 0.864111 0
M  V30 3230 C 298.235 2.54058 -2.55199 0
M  V30 3231 C 298.088 2.03772 -4.00995 0
M  V30 3232 C 299.407 3.56225 -2.58442 0
M  V30 3233 H 296.526 0.501374 -0.540179 0
M  V30 3234 H 299.168 0.7015 -1.76576 0
M  V30 3235 H 297.318 3.12162 -2.31274 0
M  V30 3236 H 298.99 1.50423 -4.36086 0
M  V30 3237 H 297.233 1.34876 -4.12299 0
M  V30 3238 H 297.904 2.87185 -4.71411 0
M  V30 3239 H 300.38 3.07939 -2.79844 0
M  V30 3240 H 299.256 4.34756 -3.3508 0
M  V30 3241 H 299.517 4.10949 -1.63013 0
M  V30 3242 N 298.576 1.31904 0.862503 0
M  V30 3243 C 299.822 1.22197 1.61851 0
M  V30 3244 C 300.155 -0.217641 1.92977 0
M  V30 3245 O 299.43 -1.15264 1.56666 0
M  V30 3246 C 299.713 2.07378 2.94391 0
M  V30 3247 C 299.566 3.59678 2.70096 0
M  V30 3248 C 300.885 1.92891 3.95577 0
M  V30 3249 H 298.004 0.445255 0.587296 0
M  V30 3250 H 300.646 1.6177 0.99651 0
M  V30 3251 H 298.796 1.73758 3.47477 0
M  V30 3252 H 300.468 4.03472 2.23625 0
M  V30 3253 H 298.711 3.82735 2.04197 0
M  V30 3254 H 299.382 4.14595 3.64438 0
M  V30 3255 H 301.858 2.22327 3.51724 0
M  V30 3256 H 300.734 2.54781 4.86187 0
M  V30 3257 H 300.995 0.894315 4.3296 0
M  V30 3258 N 300.054 -1.07777 1.14986 0
M  V30 3259 C 301.001 -2.14867 0.842672 0
M  V30 3260 C 301.971 -1.6486 -0.202552 0
M  V30 3261 O 303.156 -1.90668 -0.0710568 0
M  V30 3262 C 300.296 -3.43486 0.333363 0
M  V30 3263 C 299.409 -4.07306 1.43965 0
M  V30 3264 C 298.544 -5.23744 0.886914 0
M  V30 3265 C 297.583 -5.79517 1.97043 0
M  V30 3266 N 296.72 -6.87291 1.4344 0
M  V30 3267 H 301.56 -2.40485 1.75986 0
M  V30 3268 H 299.097 -1.1801 0.878179 0
M  V30 3269 H 301.055 -4.17195 0.0198163 0
M  V30 3270 H 299.685 -3.18133 -0.546916 0
M  V30 3271 H 298.737 -3.31293 1.86946 0
M  V30 3272 H 300.049 -4.44771 2.25788 0
M  V30 3273 H 299.203 -6.04419 0.525651 0
M  V30 3274 H 297.942 -4.87685 0.0377957 0
M  V30 3275 H 296.947 -4.97491 2.34057 0
M  V30 3276 H 298.172 -6.17632 2.82325 0
M  V30 3277 H 296.118 -6.5318 0.607567 0
M  V30 3278 H 296.035 -7.23617 2.18895 0
M  V30 3279 H 297.303 -7.71682 1.10124 0
M  V30 3280 N 301.532 -0.945985 -1.26051 0
M  V30 3281 C 302.465 -0.403619 -2.24602 0
M  V30 3282 C 303.443 0.510241 -1.54387 0
M  V30 3283 O 304.627 0.446593 -1.83133 0
M  V30 3284 C 301.754 0.419564 -3.36091 0
M  V30 3285 C 300.8 -0.433454 -4.24292 0
M  V30 3286 S 301.633 -1.86037 -5.02146 0
M  V30 3287 C 302.789 -1.04538 -6.17108 0
M  V30 3288 H 303.022 -1.23883 -2.7026 0
M  V30 3289 H 300.555 -0.749438 -1.34992 0
M  V30 3290 H 302.513 0.888595 -4.00767 0
M  V30 3291 H 301.174 1.22951 -2.89036 0
M  V30 3292 H 300.367 0.197486 -5.03613 0
M  V30 3293 H 299.969 -0.837357 -3.64506 0
M  V30 3294 H 302.261 -0.289923 -6.76879 0
M  V30 3295 H 303.204 -1.81222 -6.84518 0
M  V30 3296 H 303.612 -0.579319 -5.61519 0
M  V30 3297 N 303.011 1.40521 -0.713556 0
M  V30 3298 C 304.236 2.05759 -0.26035 0
M  V30 3299 C 304.661 1.53403 1.08854 0
M  V30 3300 O 304.019 0.668535 1.68524 0
M  V30 3301 C 304.067 3.59745 -0.248122 0
M  V30 3302 O 303.171 4.05123 0.77131 0
M  V30 3303 H 302.512 0.652564 -0.122703 0
M  V30 3304 H 305.042 1.79958 -0.973467 0
M  V30 3305 H 305.052 4.07911 -0.0851129 0
M  V30 3306 H 303.727 3.97218 -1.2325 0
M  V30 3307 H 302.304 3.68422 0.57619 0
M  V30 3308 N 304.489 0.459591 1.5075 0
M  V30 3309 C 305.9 0.00171547 1.867 0
M  V30 3310 C 306.251 -1.39934 1.37525 0
M  V30 3311 O 305.376 -2.03523 0.735349 0
M  V30 3312 C 305.971 -0.00366298 3.388 0
M  V30 3313 C 304.53 -0.406026 3.74204 0
M  V30 3314 C 303.677 0.38673 2.7459 0
M  V30 3315 H 306.628 0.674413 1.43657 0
M  V30 3316 H 306.649 -0.808371 3.71814 0
M  V30 3317 H 306.161 1.01617 3.74561 0
M  V30 3318 H 304.262 -1.43063 3.4404 0
M  V30 3319 H 304.375 -0.115362 4.78961 0
M  V30 3320 H 302.739 -0.158019 2.54209 0
M  V30 3321 H 303.522 1.40585 3.13194 0
M  V30 3322 N 305.967 -1.56429 0.191757 0
M  V30 3323 C 307.216 -1.9666 -0.448088 0
M  V30 3324 C 307.529 -1.08136 -1.62991 0
M  V30 3325 O 308.735 -1.38135 -2.33733 0
M  V30 3326 C 307.191 -3.49753 -0.848585 0
M  V30 3327 C 306.799 -4.46935 0.308764 0
M  V30 3328 C 308.543 -3.9876 -1.4557 0
M  V30 3329 C 306.45 -5.91293 -0.112506 0
M  V30 3330 H 305.38 -0.734312 -0.171179 0
M  V30 3331 H 308.031 -1.81301 0.283242 0
M  V30 3332 H 306.413 -3.60604 -1.63649 0
M  V30 3333 H 307.587 -4.47813 1.08627 0
M  V30 3334 H 305.902 -4.08102 0.827158 0
M  V30 3335 H 308.499 -5.04086 -1.78328 0
M  V30 3336 H 308.842 -3.42875 -2.36099 0
M  V30 3337 H 309.375 -3.9101 -0.731836 0
M  V30 3338 H 306.114 -6.51097 0.758514 0
M  V30 3339 H 305.634 -5.93676 -0.854941 0
M  V30 3340 H 307.313 -6.44663 -0.549448 0
M  V30 3341 N 307.445 0.0818655 -1.57387 0
M  V30 3342 C 308.355 1.11642 -2.06333 0
M  V30 3343 C 309.371 1.43033 -0.99083 0
M  V30 3344 O 310.547 1.53411 -1.30488 0
M  V30 3345 C 307.612 2.41342 -2.48907 0
M  V30 3346 C 306.673 2.17014 -3.7041 0
M  V30 3347 C 305.906 3.4053 -4.10944 0
M  V30 3348 O 306.129 4.4927 -3.51444 0
M  V30 3349 O 305.063 3.29336 -5.03807 0
M  V30 3350 H 308.889 0.730657 -2.9478 0
M  V30 3351 H 306.474 0.295301 -1.46452 0
M  V30 3352 H 308.356 3.17691 -2.76858 0
M  V30 3353 H 307.031 2.79319 -1.63593 0
M  V30 3354 H 305.938 1.38403 -3.47556 0
M  V30 3355 H 307.271 1.83923 -4.56545 0
M  V30 3356 N 308.923 1.53595 0.353017 0
M  V30 3357 C 310.339 1.43648 0.695516 0
M  V30 3358 C 310.539 0.585617 1.92802 0
M  V30 3359 O 309.595 0.0729223 2.52395 0
M  V30 3360 C 310.908 2.8701 0.896991 0
M  V30 3361 C 312.456 2.96723 0.996209 0
M  V30 3362 C 312.931 4.41173 1.23007 0
M  V30 3363 N 314.422 4.44657 1.29749 0
M  V30 3364 C 315.157 5.53547 1.49577 0
M  V30 3365 N 314.653 6.72461 1.66639 0
M  V30 3366 N 316.446 5.41145 1.52048 0
M  V30 3367 H 308.597 2.07415 -0.457481 0
M  V30 3368 H 310.86 0.9372 -0.142687 0
M  V30 3369 H 310.566 3.51644 0.0629938 0
M  V30 3370 H 310.44 3.31401 1.80148 0
M  V30 3371 H 312.827 2.32235 1.82074 0
M  V30 3372 H 312.908 2.55707 0.0688331 0
M  V30 3373 H 312.552 5.06238 0.410505 0
M  V30 3374 H 312.482 4.79772 2.17086 0
M  V30 3375 H 314.973 3.58963 1.18126 0
M  V30 3376 H 315.286 7.51214 1.81378 0
M  V30 3377 H 313.631 6.75423 1.63794 0
M  V30 3378 H 316.822 4.47205 1.38294 0
M  V30 3379 H 316.995 6.26068 1.67159 0
M  V30 3380 N 310.401 -0.613514 1.45168 0
M  V30 3381 C 311.331 -1.7354 1.56225 0
M  V30 3382 C 312.312 -1.64981 0.41414 0
M  V30 3383 O 313.497 -1.83472 0.636526 0
M  V30 3384 C 310.627 -3.12128 1.52295 0
M  V30 3385 C 309.581 -3.35491 2.65762 0
M  V30 3386 C 308.907 -4.74291 2.46885 0
M  V30 3387 C 310.207 -3.26325 4.0781 0
M  V30 3388 H 311.901 -1.64543 2.50132 0
M  V30 3389 H 309.447 -0.790185 1.20383 0
M  V30 3390 H 311.4 -3.90404 1.58628 0
M  V30 3391 H 310.124 -3.2195 0.549139 0
M  V30 3392 H 308.783 -2.59603 2.58847 0
M  V30 3393 H 308.431 -4.80839 1.47657 0
M  V30 3394 H 308.131 -4.9088 3.22972 0
M  V30 3395 H 309.655 -5.54775 2.55063 0
M  V30 3396 H 311.069 -3.94483 4.16 0
M  V30 3397 H 309.466 -3.54445 4.8424 0
M  V30 3398 H 310.536 -2.23855 4.30136 0
M  V30 3399 N 311.879 -1.3236 -0.855495 0
M  V30 3400 C 312.789 -1.23221 -1.99634 0
M  V30 3401 C 313.805 -0.145983 -1.73387 0
M  V30 3402 O 314.981 -0.366502 -1.98037 0
M  V30 3403 C 312.046 -0.954782 -3.33294 0
M  V30 3404 C 311.107 -2.12937 -3.72769 0
M  V30 3405 C 310.34 -1.86508 -5.00051 0
M  V30 3406 O 310.563 -0.807231 -5.64659 0
M  V30 3407 O 309.497 -2.72591 -5.36636 0
M  V30 3408 H 313.323 -2.19126 -2.1028 0
M  V30 3409 H 310.908 -1.12241 -0.986018 0
M  V30 3410 H 312.79 -0.816519 -4.13414 0
M  V30 3411 H 311.465 -0.0258854 -3.2369 0
M  V30 3412 H 310.372 -2.3231 -2.93228 0
M  V30 3413 H 311.705 -3.04102 -3.87018 0
M  V30 3414 N 313.357 1.07166 -1.15556 0
M  V30 3415 C 314.307 2.12649 -0.82247 0
M  V30 3416 C 315.291 1.59725 0.194129 0
M  V30 3417 O 316.483 1.76999 -0.00540402 0
M  V30 3418 C 313.612 3.41847 -0.315572 0
M  V30 3419 C 312.698 4.0162 -1.36244 0
M  V30 3420 N 313.089 4.35625 -2.5703 0
M  V30 3421 C 311.387 4.29114 -1.21562 0
M  V30 3422 C 312.088 4.83017 -3.24144 0
M  V30 3423 N 311.064 4.81906 -2.51531 0
M  V30 3424 H 314.866 2.36776 -1.74111 0
M  V30 3425 H 312.38 1.24622 -1.0413 0
M  V30 3426 H 314.377 4.16859 -0.0585855 0
M  V30 3427 H 313.037 3.19163 0.597105 0
M  V30 3428 H 314.048 4.26253 -2.94158 0
M  V30 3429 H 310.725 4.15919 -0.362988 0
M  V30 3430 H 312.115 5.18605 -4.27198 0
M  V30 3431 N 314.835 0.952656 1.25548 0
M  V30 3432 C 315.798 0.475794 2.24207 0
M  V30 3433 C 316.798 -0.419428 1.55234 0
M  V30 3434 O 317.988 -0.216994 1.72843 0
M  V30 3435 C 315.12 -0.312814 3.39462 0
M  V30 3436 H 316.313 1.34779 2.67908 0
M  V30 3437 H 313.866 0.735739 1.37901 0
M  V30 3438 H 314.601 -1.20257 3.01179 0
M  V30 3439 H 314.386 0.329404 3.90714 0
M  V30 3440 H 315.876 -0.635986 4.12729 0
M  V30 3441 N 316.313 -1.40141 0.720998 0
M  V30 3442 C 317.56 -2.00787 0.262842 0
M  V30 3443 C 317.888 -1.5718 -1.14563 0
M  V30 3444 O 317.143 -0.785391 -1.79249 0
M  V30 3445 C 317.442 -3.56165 0.296892 0
M  V30 3446 C 317.108 -4.19373 1.65641 0
M  V30 3447 C 315.77 -4.36352 2.02855 0
M  V30 3448 C 318.122 -4.54578 2.54968 0
M  V30 3449 C 315.45 -4.8582 3.28931 0
M  V30 3450 C 317.802 -5.05447 3.80402 0
M  V30 3451 C 316.466 -5.20635 4.17726 0
M  V30 3452 H 315.736 -0.734731 0.0961807 0
M  V30 3453 H 318.383 -1.67673 0.925093 0
M  V30 3454 H 316.688 -3.8922 -0.448932 0
M  V30 3455 H 318.385 -4.00929 -0.0755208 0
M  V30 3456 H 314.975 -4.06549 1.35704 0
M  V30 3457 H 319.159 -4.41091 2.27491 0
M  V30 3458 H 314.415 -4.95764 3.57811 0
M  V30 3459 H 318.589 -5.31663 4.49786 0
M  V30 3460 H 316.216 -5.58728 5.15487 0
M  V30 3461 N 317.792 -0.46758 -1.50504 0
M  V30 3462 C 319.017 0.0886943 -2.0721 0
M  V30 3463 C 319.442 1.33057 -1.32956 0
M  V30 3464 O 318.8 1.77354 -0.376197 0
M  V30 3465 C 318.848 0.359202 -3.58806 0
M  V30 3466 O 317.952 1.44034 -3.8643 0
M  V30 3467 H 317.293 -0.0114349 -0.663902 0
M  V30 3468 H 319.823 -0.657613 -1.93744 0
M  V30 3469 H 319.833 0.600742 -4.03553 0
M  V30 3470 H 318.508 -0.548311 -4.1227 0
M  V30 3471 H 317.085 1.18638 -3.53524 0
M  V30 3472 N 319.27 1.56325 -0.20005 0
M  V30 3473 C 320.217 2.1932 0.718833 0
M  V30 3474 C 321.187 1.14198 1.20615 0
M  V30 3475 O 322.372 1.42469 1.26914 0
M  V30 3476 C 319.512 2.86041 1.93066 0
M  V30 3477 C 318.625 4.05702 1.48425 0
M  V30 3478 C 317.76 4.60266 2.65196 0
M  V30 3479 C 316.799 5.72273 2.17185 0
M  V30 3480 N 315.936 6.21221 3.27152 0
M  V30 3481 H 320.776 2.97486 0.17489 0
M  V30 3482 H 318.313 1.46911 0.0745794 0
M  V30 3483 H 320.271 3.22897 2.64184 0
M  V30 3484 H 318.901 2.1043 2.44783 0
M  V30 3485 H 317.953 3.74475 0.668755 0
M  V30 3486 H 319.265 4.86699 1.09204 0
M  V30 3487 H 318.419 4.99453 3.4443 0
M  V30 3488 H 317.158 3.78386 3.07693 0
M  V30 3489 H 316.163 5.3261 1.36407 0
M  V30 3490 H 317.388 6.55974 1.75713 0
M  V30 3491 H 315.334 5.42263 3.69171 0
M  V30 3492 H 315.251 6.97284 2.92116 0
M  V30 3493 H 316.519 6.65063 4.06585 0
M  V30 3494 N 320.748 -0.0735177 1.57428 0
M  V30 3495 C 321.711 -1.07192 2.02589 0
M  V30 3496 C 322.711 -1.31695 0.922661 0
M  V30 3497 O 323.901 -1.27445 1.18758 0
M  V30 3498 C 321.033 -2.41599 2.40506 0
M  V30 3499 H 322.226 -0.682727 2.92025 0
M  V30 3500 H 319.779 -0.319193 1.53006 0
M  V30 3501 H 320.514 -2.85354 1.5409 0
M  V30 3502 H 320.299 -2.25156 3.21009 0
M  V30 3503 H 321.789 -3.13367 2.76027 0
M  V30 3504 N 322.226 -1.5378 -0.344866 0
M  V30 3505 C 323.158 -1.77988 -1.44406 0
M  V30 3506 C 324.171 -0.661138 -1.48771 0
M  V30 3507 O 325.36 -0.937842 -1.51877 0
M  V30 3508 C 322.46 -1.86345 -2.8307 0
M  V30 3509 C 321.633 -3.16256 -3.0216 0
M  V30 3510 C 320.692 -3.15588 -4.21059 0
M  V30 3511 O 319.718 -3.89314 -4.15239 0
M  V30 3512 N 320.92 -2.37864 -5.29529 0
M  V30 3513 H 323.685 -2.72839 -1.24012 0
M  V30 3514 H 321.246 -1.52814 -0.534737 0
M  V30 3515 H 323.238 -1.83351 -3.60783 0
M  V30 3516 H 321.808 -0.986858 -2.96614 0
M  V30 3517 H 321.028 -3.32385 -2.11929 0
M  V30 3518 H 322.316 -4.0207 -3.11797 0
M  V30 3519 H 321.714 -1.77514 -5.37127 0
M  V30 3520 H 320.271 -2.40668 -6.05741 0
M  V30 3521 N 323.704 0.605807 -1.45491 0
M  V30 3522 C 324.932 1.39136 -1.5313 0
M  V30 3523 C 325.347 1.88082 -0.164507 0
M  V30 3524 O 324.704 1.62316 0.834247 0
M  V30 3525 C 324.755 2.59463 -2.51716 0
M  V30 3526 O 324.476 2.12551 -3.83084 0
M  V30 3527 C 325.977 3.52301 -2.6907 0
M  V30 3528 H 323.197 0.425849 -0.51855 0
M  V30 3529 H 325.741 0.73865 -1.90694 0
M  V30 3530 H 323.896 3.20772 -2.17219 0
M  V30 3531 H 324.31 2.90744 -4.36541 0
M  V30 3532 H 325.784 4.33271 -3.42024 0
M  V30 3533 H 326.261 4.02757 -1.75167 0
M  V30 3534 H 326.867 2.96845 -3.04571 0
M  V30 3535 N 325.182 1.32811 0.848464 0
M  V30 3536 C 326.412 1.26556 1.63301 0
M  V30 3537 C 326.82 -0.1676 1.88456 0
M  V30 3538 O 326.163 -1.11713 1.45828 0
M  V30 3539 C 326.225 1.96202 3.01239 0
M  V30 3540 C 325.889 3.45528 2.99098 0
M  V30 3541 C 326.886 4.40903 2.75501 0
M  V30 3542 C 324.571 3.87558 3.19537 0
M  V30 3543 C 326.565 5.76282 2.72356 0
M  V30 3544 C 324.252 5.23044 3.16019 0
M  V30 3545 C 325.25 6.17217 2.92458 0
M  V30 3546 O 324.938 7.50223 2.88825 0
M  V30 3547 H 324.67 0.43771 0.515156 0
M  V30 3548 H 327.224 1.7559 1.0657 0
M  V30 3549 H 325.454 1.41746 3.59785 0
M  V30 3550 H 327.143 1.83573 3.62016 0
M  V30 3551 H 327.909 4.09756 2.5947 0
M  V30 3552 H 323.788 3.14674 3.369 0
M  V30 3553 H 327.332 6.4976 2.53886 0
M  V30 3554 H 323.229 5.53818 3.31596 0
M  V30 3555 H 323.997 7.59657 3.04735 0
M  V30 3556 N 326.66 -1.06551 1.16123 0
M  V30 3557 C 327.59 -2.15935 0.88851 0
M  V30 3558 C 328.571 -1.69306 -0.164135 0
M  V30 3559 O 329.756 -1.94193 -0.0167857 0
M  V30 3560 C 326.886 -3.45149 0.385942 0
M  V30 3561 C 325.84 -4.05271 1.3762 0
M  V30 3562 C 325.166 -5.29664 0.732137 0
M  V30 3563 C 326.466 -4.44355 2.74493 0
M  V30 3564 H 328.16 -2.39006 1.80323 0
M  V30 3565 H 325.706 -1.14866 0.868435 0
M  V30 3566 H 327.659 -4.21004 0.182647 0
M  V30 3567 H 326.383 -3.21689 -0.564274 0
M  V30 3568 H 325.042 -3.3147 1.56599 0
M  V30 3569 H 324.69 -5.02499 -0.224483 0
M  V30 3570 H 324.39 -5.70848 1.39307 0
M  V30 3571 H 325.914 -6.08218 0.538802 0
M  V30 3572 H 327.328 -5.11303 2.59311 0
M  V30 3573 H 325.725 -4.96515 3.37035 0
M  V30 3574 H 326.795 -3.55339 3.29943 0
M  V30 3575 N 328.138 -0.959301 -1.25041 0
M  V30 3576 C 329.386 -0.615393 -1.92503 0
M  V30 3577 C 329.707 0.850969 -1.75452 0
M  V30 3578 O 328.977 1.60658 -1.12098 0
M  V30 3579 H 327.557 -0.224613 -0.712431 0
M  V30 3580 H 330.219 -1.21855 -1.5211 0
M  V30 3581 H 329.315 -0.848738 -3.00338 0
M  V30 3582 N 329.616 1.39756 -0.72842 0
M  V30 3583 C 330.865 1.99879 -0.270407 0
M  V30 3584 C 331.178 1.58449 1.14688 0
M  V30 3585 O 332.384 2.11362 1.70407 0
M  V30 3586 C 330.84 3.57292 -0.43252 0
M  V30 3587 C 330.448 4.07688 -1.85727 0
M  V30 3588 C 332.192 4.24485 -0.0359507 0
M  V30 3589 C 330.099 5.5765 -1.96928 0
M  V30 3590 H 329.029 0.747689 -0.0973472 0
M  V30 3591 H 331.68 1.59837 -0.901355 0
M  V30 3592 H 330.062 3.95097 0.267219 0
M  V30 3593 H 331.236 3.81231 -2.58843 0
M  V30 3594 H 329.551 3.53135 -2.20646 0
M  V30 3595 H 332.148 5.34609 -0.0987484 0
M  V30 3596 H 332.491 4.03915 1.00787 0
M  V30 3597 H 333.024 3.9183 -0.686604 0
M  V30 3598 H 329.763 5.8309 -2.99476 0
M  V30 3599 H 329.283 5.8593 -1.28241 0
M  V30 3600 H 330.962 6.22957 -1.74737 0
M  V30 3601 N 331.094 0.475555 1.50254 0
M  V30 3602 C 332.004 -0.321501 2.32387 0
M  V30 3603 C 333.02 -0.991755 1.42969 0
M  V30 3604 O 334.196 -0.978747 1.76018 0
M  V30 3605 C 331.261 -1.38667 3.17762 0
M  V30 3606 C 330.322 -0.732538 4.23004 0
M  V30 3607 C 329.555 -1.74695 5.04299 0
M  V30 3608 O 329.778 -2.97399 4.86734 0
M  V30 3609 O 328.712 -1.31631 5.8733 0
M  V30 3610 H 332.538 0.350071 3.01676 0
M  V30 3611 H 330.123 0.237321 1.47503 0
M  V30 3612 H 332.005 -2.00354 3.70724 0
M  V30 3613 H 330.68 -2.04163 2.51196 0
M  V30 3614 H 329.587 -0.0765902 3.74022 0
M  V30 3615 H 330.92 -0.120452 4.92053 0
M  V30 3616 N 332.573 -1.56217 0.208337 0
M  V30 3617 C 333.52 -2.19699 -0.707192 0
M  V30 3618 C 334.49 -1.14836 -1.20008 0
M  V30 3619 O 335.675 -1.4314 -1.26157 0
M  V30 3620 C 332.815 -2.87061 -1.91546 0
M  V30 3621 C 331.928 -4.06483 -1.46271 0
M  V30 3622 C 331.063 -4.61665 -2.62752 0
M  V30 3623 C 330.102 -5.73417 -2.14147 0
M  V30 3624 N 329.239 -6.22948 -3.23853 0
M  V30 3625 H 334.079 -2.97575 -0.159111 0
M  V30 3626 H 331.616 -1.46948 -0.0667874 0
M  V30 3627 H 333.574 -3.24294 -2.62468 0
M  V30 3628 H 332.204 -2.11725 -2.43664 0
M  V30 3629 H 331.256 -3.74825 -0.648886 0
M  V30 3630 H 332.568 -4.87271 -1.06622 0
M  V30 3631 H 331.722 -5.01272 -3.41776 0
M  V30 3632 H 330.461 -3.80013 -3.05682 0
M  V30 3633 H 329.466 -5.33326 -1.33581 0
M  V30 3634 H 330.691 -6.56897 -1.72232 0
M  V30 3635 H 328.637 -5.44213 -3.6629 0
M  V30 3636 H 328.554 -6.98823 -2.88414 0
M  V30 3637 H 329.822 -6.6721 -4.03052 0
M  V30 3638 N 334.051 0.0651679 -1.57465 0
M  V30 3639 C 334.981 1.07693 -2.07182 0
M  V30 3640 C 335.962 1.39962 -0.966673 0
M  V30 3641 O 337.147 1.49475 -1.2398 0
M  V30 3642 C 334.277 2.3885 -2.52127 0
M  V30 3643 C 333.231 2.20917 -3.66579 0
M  V30 3644 C 332.557 3.57515 -3.97601 0
M  V30 3645 C 333.857 1.62493 -4.9638 0
M  V30 3646 H 335.551 0.663199 -2.91962 0
M  V30 3647 H 333.097 0.317569 -1.40455 0
M  V30 3648 H 335.05 3.09928 -2.85522 0
M  V30 3649 H 333.774 2.82215 -1.64384 0
M  V30 3650 H 332.433 1.52279 -3.33477 0
M  V30 3651 H 332.081 3.98463 -3.06979 0
M  V30 3652 H 331.781 3.46353 -4.74672 0
M  V30 3653 H 333.305 4.30013 -4.33499 0
M  V30 3654 H 334.719 2.23445 -5.27963 0
M  V30 3655 H 333.116 1.62009 -5.77818 0
M  V30 3656 H 334.186 0.587041 -4.81333 0
M  V30 3657 N 335.529 1.53961 0.336706 0
M  V30 3658 C 336.459 1.85417 1.41925 0
M  V30 3659 C 337.44 0.709856 1.5458 0
M  V30 3660 O 338.625 0.962396 1.68676 0
M  V30 3661 C 335.755 2.06985 2.78881 0
M  V30 3662 C 334.709 3.22813 2.81026 0
M  V30 3663 C 334.035 3.29727 4.20932 0
M  V30 3664 C 335.335 4.60767 2.45949 0
M  V30 3665 H 337.029 2.76079 1.15848 0
M  V30 3666 H 334.575 1.32839 0.555859 0
M  V30 3667 H 336.528 2.27575 3.54665 0
M  V30 3668 H 335.252 1.13061 3.06406 0
M  V30 3669 H 333.911 3.0209 2.07695 0
M  V30 3670 H 333.559 2.33385 4.45579 0
M  V30 3671 H 333.259 4.07566 4.23277 0
M  V30 3672 H 334.783 3.52536 4.98549 0
M  V30 3673 H 336.197 4.81325 3.11446 0
M  V30 3674 H 334.594 5.4106 2.59566 0
M  V30 3675 H 335.664 4.6391 1.41122 0
M  V30 3676 N 337.007 -0.598083 1.45811 0
M  V30 3677 C 338.284 -1.35777 1.40797 0
M  V30 3678 C 338.664 -2.10935 0.083462 0
M  V30 3679 O 338.012 -2.08505 -0.934763 0
M  V30 3680 C 338.222 -2.29666 2.62783 0
M  V30 3681 C 339.57 -2.91977 3.08277 0
M  V30 3682 O 340.594 -2.39984 2.63223 0
M  V30 3683 O 339.453 -3.86376 3.86491 0
M  V30 3684 H 336.547 -0.609291 0.55919 0
M  V30 3685 H 339.093 -0.620379 1.57954 0
M  V30 3686 H 337.865 -1.73454 3.50756 0
M  V30 3687 H 337.488 -3.1077 2.48008 0
M  V30 3688 N 338.485 -1.33259 -0.841409 0
M  V30 3689 C 339.896 -1.22066 -1.41269 0
M  V30 3690 C 340.247 0.161479 -1.95534 0
M  V30 3691 O 339.372 1.06094 -1.88608 0
M  V30 3692 C 339.967 -2.20996 -2.568 0
M  V30 3693 C 338.526 -2.13649 -3.09888 0
M  V30 3694 C 337.673 -2.08623 -1.82679 0
M  V30 3695 H 340.624 -1.44895 -0.647395 0
M  V30 3696 H 340.645 -1.81621 -3.34356 0
M  V30 3697 H 340.157 -3.2158 -2.17274 0
M  V30 3698 H 338.258 -1.16359 -3.53965 0
M  V30 3699 H 338.371 -3.04079 -3.70234 0
M  V30 3700 H 336.735 -1.54061 -2.02824 0
M  V30 3701 H 337.518 -3.1101 -1.45353 0
M  V30 3702 N 339.963 1.05934 -1.16686 0
M  V30 3703 C 340.873 2.17014 -0.891183 0
M  V30 3704 C 341.889 1.73453 0.137907 0
M  V30 3705 O 343.065 2.01361 -0.039592 0
M  V30 3706 C 340.13 3.44384 -0.400099 0
M  V30 3707 C 339.191 4.02433 -1.49486 0
M  V30 3708 C 338.424 5.23723 -1.02711 0
M  V30 3709 O 338.647 5.7027 0.121716 0
M  V30 3710 O 337.581 5.7382 -1.81699 0
M  V30 3711 H 341.407 2.43113 -1.82015 0
M  V30 3712 H 338.992 1.15541 -0.947132 0
M  V30 3713 H 340.874 4.21189 -0.133392 0
M  V30 3714 H 339.549 3.19802 0.500817 0
M  V30 3715 H 338.456 3.27102 -1.81535 0
M  V30 3716 H 339.789 4.31317 -2.37121 0
M  V30 3717 N 341.441 0.965919 1.2453 0
M  V30 3718 C 342.718 0.543777 1.87889 0
M  V30 3719 C 343.098 -0.97909 1.87021 0
M  V30 3720 O 342.446 -1.84969 1.3416 0
M  V30 3721 C 342.656 1.13327 3.30088 0
M  V30 3722 C 344.004 1.21707 4.06783 0
M  V30 3723 O 345.028 1.08566 3.39252 0
M  V30 3724 O 343.887 1.42456 5.27606 0
M  V30 3725 H 340.981 0.181054 0.806938 0
M  V30 3726 H 343.527 1.06007 1.32516 0
M  V30 3727 H 342.299 2.17612 3.25209 0
M  V30 3728 H 341.922 0.600911 3.93033 0
M  V30 3729 N 342.919 -1.39368 0.735821 0
M  V30 3730 C 344.165 -2.00794 0.284544 0
M  V30 3731 C 344.498 -1.58255 -1.12557 0
M  V30 3732 O 343.773 -0.811819 -1.76748 0
M  V30 3733 C 344.056 -3.58011 0.387337 0
M  V30 3734 C 343.909 -4.10566 1.83728 0
M  V30 3735 C 345.228 -4.395 -0.22975 0
M  V30 3736 H 342.347 -0.729501 0.104866 0
M  V30 3737 H 344.989 -1.65564 0.93213 0
M  V30 3738 H 343.139 -3.88154 -0.164006 0
M  V30 3739 H 344.811 -3.91139 2.44556 0
M  V30 3740 H 343.054 -3.64095 2.35833 0
M  V30 3741 H 343.725 -5.19702 1.86047 0
M  V30 3742 H 346.201 -4.15406 0.240257 0
M  V30 3743 H 345.077 -5.48752 -0.127485 0
M  V30 3744 H 345.338 -4.22062 -1.3159 0
M  V30 3745 N 344.397 -0.483516 -1.5 0
M  V30 3746 C 345.36 0.292965 -2.2732 0
M  V30 3747 C 346.36 0.909499 -1.32608 0
M  V30 3748 O 347.55 0.776745 -1.55924 0
M  V30 3749 C 344.682 1.41854 -3.09984 0
M  V30 3750 H 345.875 -0.385289 -2.97415 0
M  V30 3751 H 343.428 -0.237942 -1.54478 0
M  V30 3752 H 344.163 2.13148 -2.44414 0
M  V30 3753 H 343.948 0.982114 -3.79601 0
M  V30 3754 H 345.438 1.96597 -3.68429 0
M  V30 3755 N 345.875 1.56104 -0.216619 0
M  V30 3756 C 347.121 1.98466 0.417033 0
M  V30 3757 C 347.454 1.10403 1.59765 0
M  V30 3758 O 346.729 0.160632 1.93836 0
M  V30 3759 C 347.012 3.49769 0.85637 0
M  V30 3760 C 346.865 4.48606 -0.327546 0
M  V30 3761 C 348.184 4.05339 1.7143 0
M  V30 3762 H 345.303 0.721551 0.150112 0
M  V30 3763 H 347.945 1.87423 -0.311864 0
M  V30 3764 H 346.095 3.5931 1.47745 0
M  V30 3765 H 347.767 4.5108 -0.965618 0
M  V30 3766 H 346.01 4.22682 -0.975805 0
M  V30 3767 H 346.681 5.51995 0.0227149 0
M  V30 3768 H 349.157 3.98712 1.19031 0
M  V30 3769 H 348.033 5.11533 1.99061 0
M  V30 3770 H 348.294 3.51918 2.67593 0
M  V30 3771 N 347.353 -0.0568162 1.57498 0
M  V30 3772 C 348.285 -1.09292 2.01464 0
M  V30 3773 C 349.298 -1.34112 0.922913 0
M  V30 3774 O 350.487 -1.32089 1.20062 0
M  V30 3775 C 347.587 -2.44068 2.35125 0
M  V30 3776 C 346.76 -2.38995 3.66333 0
M  V30 3777 C 345.819 -3.55997 3.87495 0
M  V30 3778 O 344.845 -3.36746 4.58901 0
M  V30 3779 N 346.047 -4.76888 3.30996 0
M  V30 3780 H 348.812 -0.718386 2.90963 0
M  V30 3781 H 346.373 -0.245235 1.60032 0
M  V30 3782 H 348.365 -3.21011 2.46443 0
M  V30 3783 H 346.935 -2.73468 1.5144 0
M  V30 3784 H 346.155 -1.47336 3.65631 0
M  V30 3785 H 347.443 -2.3272 4.52458 0
M  V30 3786 H 346.841 -4.95431 2.73065 0
M  V30 3787 H 345.398 -5.51291 3.47738 0
M  V30 3788 N 348.832 -1.54138 -0.328536 0
M  V30 3789 C 349.762 -1.86167 -1.40939 0
M  V30 3790 C 350.743 -0.718044 -1.54202 0
M  V30 3791 O 351.928 -0.971328 -1.68163 0
M  V30 3792 C 349.058 -2.08461 -2.77779 0
M  V30 3793 C 348.012 -3.24299 -2.7931 0
M  V30 3794 C 347.338 -3.31955 -4.19178 0
M  V30 3795 C 348.638 -4.62065 -2.43502 0
M  V30 3796 H 350.332 -2.76689 -1.14383 0
M  V30 3797 H 347.878 -1.33132 -0.548806 0
M  V30 3798 H 349.831 -2.29453 -3.53454 0
M  V30 3799 H 348.555 -1.14684 -3.05802 0
M  V30 3800 H 347.214 -3.03187 -2.0609 0
M  V30 3801 H 346.862 -2.35745 -4.44335 0
M  V30 3802 H 346.562 -4.09805 -4.2111 0
M  V30 3803 H 348.086 -3.55175 -4.96672 0
M  V30 3804 H 349.5 -4.8297 -3.08889 0
M  V30 3805 H 347.897 -5.42429 -2.56693 0
M  V30 3806 H 348.967 -4.64652 -1.38659 0
M  V30 3807 N 350.31 0.590341 -1.46126 0
M  V30 3808 C 351.721 1.17243 -1.45296 0
M  V30 3809 C 352.072 1.95281 -0.189723 0
M  V30 3810 O 351.197 2.04502 0.707674 0
M  V30 3811 C 351.792 2.13284 -2.6324 0
M  V30 3812 C 350.351 2.66832 -2.65476 0
M  V30 3813 C 349.498 1.42557 -2.3785 0
M  V30 3814 H 352.449 0.378692 -1.54116 0
M  V30 3815 H 352.47 2.96619 -2.38323 0
M  V30 3816 H 351.982 1.56459 -3.55165 0
M  V30 3817 H 350.083 3.27548 -1.77603 0
M  V30 3818 H 350.196 3.10088 -3.65215 0
M  V30 3819 H 348.56 1.72107 -1.87753 0
M  V30 3820 H 349.343 0.875741 -3.31942 0
M  V30 3821 N 351.788 1.33704 0.83433 0
M  V30 3822 C 353.065 1.16011 1.57483 0
M  V30 3823 C 353.445 -0.27176 2.09343 0
M  V30 3824 O 352.793 -1.27146 1.89858 0
M  V30 3825 C 353.003 2.20507 2.70514 0
M  V30 3826 C 354.351 2.54898 3.39577 0
M  V30 3827 O 355.375 2.19209 2.80759 0
M  V30 3828 O 354.234 3.16158 4.45765 0
M  V30 3829 H 351.328 0.448992 0.694503 0
M  V30 3830 H 353.874 1.453 0.876691 0
M  V30 3831 H 352.646 3.16667 2.29865 0
M  V30 3832 H 352.269 1.92329 3.47987 0
M  V30 3833 N 353.266 -1.05314 1.17247 0
M  V30 3834 C 354.213 -2.13031 0.888058 0
M  V30 3835 C 355.183 -1.65253 -0.167537 0
M  V30 3836 O 356.368 -1.90775 -0.0305974 0
M  V30 3837 C 353.508 -3.42702 0.406147 0
M  V30 3838 C 352.621 -4.04161 1.52572 0
M  V30 3839 C 351.756 -5.21744 0.997808 0
M  V30 3840 C 350.795 -5.75207 2.09291 0
M  V30 3841 N 349.932 -6.84094 1.57986 0
M  V30 3842 H 354.772 -2.36698 1.81048 0
M  V30 3843 H 352.309 -1.16121 0.903013 0
M  V30 3844 H 354.267 -4.17059 0.108305 0
M  V30 3845 H 352.897 -3.19222 -0.479313 0
M  V30 3846 H 351.949 -3.27253 1.93931 0
M  V30 3847 H 353.261 -4.39881 2.35172 0
M  V30 3848 H 352.415 -6.03168 0.653739 0
M  V30 3849 H 351.154 -4.87495 0.141232 0
M  V30 3850 H 350.159 -4.92414 2.44557 0
M  V30 3851 H 351.384 -6.11505 2.95362 0
M  V30 3852 H 349.33 -6.51745 0.74598 0
M  V30 3853 H 349.247 -7.18811 2.34195 0
M  V30 3854 H 350.515 -7.69172 1.26468 0
M  V30 3855 N 354.744 -0.972509 -1.24016 0
M  V30 3856 C 355.691 -0.505969 -2.25186 0
M  V30 3857 C 356.661 0.451009 -1.5986 0
M  V30 3858 O 357.846 0.360307 -1.87367 0
M  V30 3859 C 354.986 0.193089 -3.44559 0
M  V30 3860 C 354.099 -0.803222 -4.24467 0
M  V30 3861 C 353.234 -0.0797793 -5.3114 0
M  V30 3862 C 352.273 -1.06583 -6.02749 0
M  V30 3863 N 351.41 -0.372074 -7.01113 0
M  V30 3864 H 356.25 -1.37351 -2.64459 0
M  V30 3865 H 353.787 -0.688419 -1.29997 0
M  V30 3866 H 355.745 0.615125 -4.1264 0
M  V30 3867 H 354.375 1.02455 -3.06109 0
M  V30 3868 H 353.427 -1.34368 -3.55878 0
M  V30 3869 H 354.739 -1.55494 -4.73944 0
M  V30 3870 H 353.893 0.400015 -6.0538 0
M  V30 3871 H 352.632 0.704597 -4.82583 0
M  V30 3872 H 351.637 -1.55645 -5.27309 0
M  V30 3873 H 352.862 -1.85074 -6.53395 0
M  V30 3874 H 350.808 0.393238 -6.5482 0
M  V30 3875 H 350.725 -1.06258 -7.48495 0
M  V30 3876 H 351.993 0.0855932 -7.79453 0
M  V30 3877 N 356.222 1.38976 -0.743202 0
M  V30 3878 C 357.447 2.05161 -0.303936 0
M  V30 3879 C 357.872 1.55677 1.05576 0
M  V30 3880 O 357.23 0.704131 1.67068 0
M  V30 3881 C 357.278 3.59138 -0.324373 0
M  V30 3882 O 356.382 4.06668 0.685204 0
M  V30 3883 H 355.723 0.649815 -0.136518 0
M  V30 3884 H 358.253 1.77852 -1.01142 0
M  V30 3885 H 358.263 4.07639 -0.171618 0
M  V30 3886 H 356.938 3.94515 -1.31647 0
M  V30 3887 H 355.515 3.69561 0.497913 0
M  V30 3888 N 357.7 0.491464 1.49741 0
M  V30 3889 C 358.949 -0.0582189 2.01616 0
M  V30 3890 C 359.262 -1.38927 1.3769 0
M  V30 3891 O 360.468 -2.02509 1.80838 0
M  V30 3892 C 358.924 -0.154235 3.59569 0
M  V30 3893 C 358.532 1.1696 4.32463 0
M  V30 3894 C 360.276 -0.65479 4.1942 0
M  V30 3895 C 358.183 1.03627 5.8225 0
M  V30 3896 H 357.113 -0.0255317 0.753568 0
M  V30 3897 H 359.764 0.629445 1.72367 0
M  V30 3898 H 358.146 -0.906138 3.85493 0
M  V30 3899 H 359.32 1.93405 4.18248 0
M  V30 3900 H 357.635 1.60285 3.84315 0
M  V30 3901 H 360.232 -0.771903 5.29099 0
M  V30 3902 H 360.575 -1.65127 3.8215 0
M  V30 3903 H 361.108 0.040304 3.9778 0
M  V30 3904 H 357.847 2.00672 6.24028 0
M  V30 3905 H 357.367 0.312546 5.98985 0
M  V30 3906 H 359.046 0.711114 6.4308 0
M  V30 3907 N 359.178 -1.55987 0.224894 0
M  V30 3908 C 360.427 -1.97566 -0.406273 0
M  V30 3909 C 360.74 -1.11569 -1.6066 0
M  V30 3910 O 361.946 -1.43062 -2.3075 0
M  V30 3911 C 360.402 -3.51474 -0.774207 0
M  V30 3912 C 360.01 -4.46179 0.403496 0
M  V30 3913 C 361.754 -4.01758 -1.37079 0
M  V30 3914 C 359.661 -5.91399 0.0129412 0
M  V30 3915 H 358.591 -0.737777 -0.155565 0
M  V30 3916 H 361.242 -1.80659 0.321635 0
M  V30 3917 H 359.624 -3.63994 -1.55963 0
M  V30 3918 H 360.798 -4.45409 1.18101 0
M  V30 3919 H 359.113 -4.06255 0.913536 0
M  V30 3920 H 361.71 -5.07756 -1.67596 0
M  V30 3921 H 362.053 -3.47805 -2.28773 0
M  V30 3922 H 362.586 -3.92475 -0.648733 0
M  V30 3923 H 359.325 -6.49341 0.896451 0
M  V30 3924 H 358.845 -5.95356 -0.728821 0
M  V30 3925 H 360.524 -6.45683 -0.412582 0
M  V30 3926 N 360.656 0.0484629 -1.57525 0
M  V30 3927 C 361.589 1.08755 -2.00618 0
M  V30 3928 C 362.567 1.36272 -0.887058 0
M  V30 3929 O 363.751 1.49255 -1.15131 0
M  V30 3930 C 360.878 2.42675 -2.36277 0
M  V30 3931 C 359.924 2.31142 -3.58435 0
M  V30 3932 S 360.757 1.68326 -5.08357 0
M  V30 3933 C 361.913 3.03776 -5.47239 0
M  V30 3934 H 362.146 0.720415 -2.88439 0
M  V30 3935 H 359.679 0.257801 -1.52233 0
M  V30 3936 H 361.637 3.19699 -2.57494 0
M  V30 3937 H 360.298 2.76541 -1.48942 0
M  V30 3938 H 359.491 3.29957 -3.80978 0
M  V30 3939 H 359.093 1.62258 -3.36969 0
M  V30 3940 H 361.385 4.00106 -5.46737 0
M  V30 3941 H 362.328 2.85988 -6.47778 0
M  V30 3942 H 362.736 3.05456 -4.74718 0
M  V30 3943 N 362.134 1.5431 0.320358 0
M  V30 3944 C 363.364 1.7638 1.07582 0
M  V30 3945 C 363.772 0.513944 1.82086 0
M  V30 3946 O 363.115 -0.525123 1.76035 0
M  V30 3947 C 363.177 2.9055 2.1171 0
M  V30 3948 C 362.841 4.2934 1.56575 0
M  V30 3949 C 363.838 5.10077 1.00586 0
M  V30 3950 C 361.523 4.75893 1.60722 0
M  V30 3951 C 363.517 6.35477 0.494756 0
M  V30 3952 C 361.204 6.0126 1.09224 0
M  V30 3953 C 362.202 6.80886 0.53696 0
M  V30 3954 O 361.89 8.03894 0.0297371 0
M  V30 3955 H 361.622 0.592369 0.325692 0
M  V30 3956 H 364.176 2.02019 0.37116 0
M  V30 3957 H 362.406 2.60489 2.85801 0
M  V30 3958 H 364.095 3.00373 2.73003 0
M  V30 3959 H 364.861 4.75265 0.966869 0
M  V30 3960 H 360.74 4.13957 2.02882 0
M  V30 3961 H 364.284 6.97574 0.0606842 0
M  V30 3962 H 360.181 6.35562 1.12831 0
M  V30 3963 H 360.949 8.18372 0.14486 0
M  V30 3964 N 363.613 -0.582584 1.46437 0
M  V30 3965 C 364.543 -1.70187 1.59871 0
M  V30 3966 C 365.524 -1.64066 0.449042 0
M  V30 3967 O 366.709 -1.82081 0.6753 0
M  V30 3968 C 363.839 -3.08827 1.58881 0
M  V30 3969 C 362.793 -3.29779 2.72819 0
M  V30 3970 C 362.119 -4.68947 2.5689 0
M  V30 3971 C 363.419 -3.17601 4.1464 0
M  V30 3972 H 365.113 -1.592 2.53566 0
M  V30 3973 H 362.659 -0.764472 1.22032 0
M  V30 3974 H 364.612 -3.86951 1.66873 0
M  V30 3975 H 363.336 -3.20713 0.617306 0
M  V30 3976 H 361.995 -2.54054 2.64296 0
M  V30 3977 H 361.643 -4.77599 1.57823 0
M  V30 3978 H 361.343 -4.83919 3.33312 0
M  V30 3979 H 362.867 -5.4924 2.66773 0
M  V30 3980 H 364.281 -3.8557 4.24274 0
M  V30 3981 H 362.678 -3.44094 4.9165 0
M  V30 3982 H 363.748 -2.14681 4.34788 0
M  V30 3983 N 365.091 -1.34144 -0.827227 0
M  V30 3984 C 366.319 -1.29325 -1.61501 0
M  V30 3985 C 366.734 0.13354 -1.88327 0
M  V30 3986 O 366.091 1.0793 -1.47164 0
M  V30 3987 C 366.142 -2.07746 -2.95844 0
M  V30 3988 O 365.863 -3.4486 -2.70191 0
M  V30 3989 C 367.364 -2.10273 -3.90256 0
M  V30 3990 H 364.584 -0.445069 -0.50215 0
M  V30 3991 H 367.128 -1.76693 -1.02955 0
M  V30 3992 H 365.283 -1.6403 -3.5096 0
M  V30 3993 H 365.697 -3.85345 -3.55822 0
M  V30 3994 H 367.171 -2.69575 -4.81698 0
M  V30 3995 H 367.648 -1.096 -4.25305 0
M  V30 3996 H 368.254 -2.54059 -3.41078 0
M  V30 3997 N 366.569 1.04691 -1.17803 0
M  V30 3998 C 367.794 1.81984 -0.994813 0
M  V30 3999 C 368.219 1.82586 0.452112 0
M  V30 4000 O 367.577 1.23854 1.324 0
M  V30 4001 C 367.625 3.2575 -1.54659 0
M  V30 4002 O 366.729 4.05267 -0.763728 0
M  V30 4003 H 366.07 0.562483 -0.352857 0
M  V30 4004 H 368.6 1.3189 -1.56417 0
M  V30 4005 H 368.61 3.76541 -1.57102 0
M  V30 4006 H 367.285 3.24627 -2.59981 0
M  V30 4007 H 365.862 3.63972 -0.811108 0
M  V30 4008 N 368.047 0.979072 1.23499 0
M  V30 4009 C 368.977 0.537606 2.27227 0
M  V30 4010 C 369.958 -0.428539 1.64613 0
M  V30 4011 O 371.143 -0.322191 1.91509 0
M  V30 4012 C 368.273 -0.162052 3.46922 0
M  V30 4013 C 367.227 0.721242 4.21879 0
M  V30 4014 C 366.553 -0.110555 5.34586 0
M  V30 4015 C 367.853 2.01141 4.82016 0
M  V30 4016 H 369.547 1.40462 2.64406 0
M  V30 4017 H 367.093 0.67684 1.27102 0
M  V30 4018 H 369.046 -0.482192 4.18632 0
M  V30 4019 H 367.77 -1.06351 3.08799 0
M  V30 4020 H 366.429 1.02482 3.51984 0
M  V30 4021 H 366.077 -1.0125 4.92704 0
M  V30 4022 H 365.777 0.477325 5.85658 0
M  V30 4023 H 367.301 -0.425107 6.09118 0
M  V30 4024 H 368.715 1.75612 5.45741 0
M  V30 4025 H 367.112 2.54695 5.43369 0
M  V30 4026 H 368.182 2.69909 4.02836 0
M  V30 4027 N 369.525 -1.3858 0.750561 0
M  V30 4028 C 370.772 -2.00184 0.305373 0
M  V30 4029 C 371.1 -1.59575 -1.11203 0
M  V30 4030 O 370.355 -0.823236 -1.77542 0
M  V30 4031 C 370.654 -3.55455 0.372373 0
M  V30 4032 C 370.32 -4.15765 1.745 0
M  V30 4033 C 368.982 -4.31951 2.12065 0
M  V30 4034 C 371.334 -4.49067 2.64553 0
M  V30 4035 C 368.662 -4.78734 3.39162 0
M  V30 4036 C 371.014 -4.97265 3.91038 0
M  V30 4037 C 369.678 -5.11658 4.28676 0
M  V30 4038 H 368.948 -0.732526 0.111744 0
M  V30 4039 H 371.595 -1.65673 0.960451 0
M  V30 4040 H 369.9 -3.90084 -0.366272 0
M  V30 4041 H 371.597 -4.00999 0.00953918 0
M  V30 4042 H 368.187 -4.03579 1.44297 0
M  V30 4043 H 372.371 -4.36166 2.36796 0
M  V30 4044 H 367.627 -4.88062 3.68246 0
M  V30 4045 H 371.801 -5.22003 4.60962 0
M  V30 4046 H 369.428 -5.47668 5.27222 0
M  V30 4047 N 371.003 -0.499398 -1.49478 0
M  V30 4048 C 371.913 0.284489 -2.32869 0
M  V30 4049 C 372.929 0.968885 -1.44529 0
M  V30 4050 O 374.105 0.95062 -1.77553 0
M  V30 4051 C 371.17 1.33594 -3.19928 0
M  V30 4052 C 370.231 0.665149 -4.24116 0
M  V30 4053 C 369.464 1.6665 -5.07014 0
M  V30 4054 O 369.687 2.89618 -4.91404 0
M  V30 4055 O 368.621 1.22271 -5.8935 0
M  V30 4056 H 372.447 -0.39802 -3.01081 0
M  V30 4057 H 370.032 -0.260758 -1.47107 0
M  V30 4058 H 371.914 1.94431 -3.73864 0
M  V30 4059 H 370.589 2.0014 -2.54412 0
M  V30 4060 H 369.496 0.0170769 -3.74096 0
M  V30 4061 H 370.829 0.0421555 -4.92182 0
M  V30 4062 N 372.481 1.55866 -0.233164 0
M  V30 4063 C 373.727 1.98897 0.395959 0
M  V30 4064 C 374.06 1.12091 1.58585 0
M  V30 4065 O 373.335 0.181182 1.93654 0
M  V30 4066 C 373.618 3.50658 0.819224 0
M  V30 4067 C 373.471 4.48233 -0.375109 0
M  V30 4068 C 374.79 4.07135 1.67121 0
M  V30 4069 H 371.909 0.723102 0.142451 0
M  V30 4070 H 374.551 1.87082 -0.331725 0
M  V30 4071 H 372.701 3.60857 1.43925 0
M  V30 4072 H 374.373 4.50031 -1.01341 0
M  V30 4073 H 372.616 4.21624 -1.02058 0
M  V30 4074 H 373.287 5.51988 -0.0358328 0
M  V30 4075 H 375.763 3.99952 1.14795 0
M  V30 4076 H 374.639 5.13615 1.93625 0
M  V30 4077 H 374.9 3.54736 2.63846 0
M  V30 4078 N 373.959 -0.0401083 1.57549 0
M  V30 4079 C 374.889 -1.04384 2.08869 0
M  V30 4080 C 375.87 -1.38407 0.988817 0
M  V30 4081 O 377.055 -1.47483 1.26342 0
M  V30 4082 C 374.185 -2.34808 2.55895 0
M  V30 4083 C 373.139 -2.15057 3.70047 0
M  V30 4084 C 372.465 -3.51145 4.03239 0
M  V30 4085 C 373.765 -1.54576 4.98902 0
M  V30 4086 H 375.459 -0.616666 2.92981 0
M  V30 4087 H 373.005 -0.295184 1.40942 0
M  V30 4088 H 374.958 -3.05346 2.90417 0
M  V30 4089 H 373.682 -2.79565 1.68853 0
M  V30 4090 H 372.341 -1.46954 3.35857 0
M  V30 4091 H 371.989 -3.93529 3.13279 0
M  V30 4092 H 371.689 -3.38758 4.80122 0
M  V30 4093 H 373.213 -4.23062 4.40285 0
M  V30 4094 H 374.627 -2.15017 5.31451 0
M  V30 4095 H 373.024 -1.52796 5.80322 0
M  V30 4096 H 374.094 -0.51039 4.82206 0
M  V30 4097 N 375.437 -1.54477 -0.31217 0
M  V30 4098 C 376.848 -1.64344 -0.885891 0
M  V30 4099 C 377.199 -0.54485 -1.88483 0
M  V30 4100 O 376.324 0.320387 -2.14015 0
M  V30 4101 C 376.919 -2.97908 -1.61357 0
M  V30 4102 C 375.478 -3.09933 -2.13585 0
M  V30 4103 C 374.625 -2.59971 -0.964897 0
M  V30 4104 H 377.576 -1.58448 -0.0894528 0
M  V30 4105 H 377.597 -2.88706 -2.47848 0
M  V30 4106 H 377.109 -3.77845 -0.886277 0
M  V30 4107 H 375.21 -2.34694 -2.89395 0
M  V30 4108 H 375.323 -4.15916 -2.37804 0
M  V30 4109 H 373.687 -2.16147 -1.34731 0
M  V30 4110 H 374.47 -3.42376 -0.251742 0
M  V30 4111 N 376.915 0.57481 -1.46744 0
M  V30 4112 C 377.847 1.69804 -1.53946 0
M  V30 4113 C 378.86 1.57098 -0.427106 0
M  V30 4114 O 380.049 1.64378 -0.695863 0
M  V30 4115 C 377.149 3.08125 -1.4111 0
M  V30 4116 C 376.322 3.46757 -2.66605 0
M  V30 4117 C 375.381 4.6417 -2.47855 0
M  V30 4118 O 374.407 4.69634 -3.21609 0
M  V30 4119 N 375.609 5.59553 -1.54534 0
M  V30 4120 H 378.374 1.64077 -2.50796 0
M  V30 4121 H 375.935 0.761 -1.429 0
M  V30 4122 H 377.927 3.84478 -1.26328 0
M  V30 4123 H 376.497 3.08175 -0.524109 0
M  V30 4124 H 375.717 2.6003 -2.96274 0
M  V30 4125 H 377.005 3.69337 -3.49954 0
M  V30 4126 H 376.403 5.57881 -0.937304 0
M  V30 4127 H 374.96 6.35304 -1.45711 0
M  V30 4128 N 378.394 1.34581 0.820102 0
M  V30 4129 C 379.326 1.22236 1.93884 0
M  V30 4130 C 380.339 0.148776 1.62119 0
M  V30 4131 O 381.528 0.400877 1.7394 0
M  V30 4132 C 378.628 0.856542 3.27897 0
M  V30 4133 C 377.801 2.02569 3.87666 0
M  V30 4134 C 376.86 1.63782 5.00062 0
M  V30 4135 O 375.886 2.35477 5.18208 0
M  V30 4136 N 377.088 0.553611 5.77854 0
M  V30 4137 H 379.853 2.18615 2.05006 0
M  V30 4138 H 377.414 1.27573 0.99683 0
M  V30 4139 H 379.406 0.578806 4.0054 0
M  V30 4140 H 377.976 -0.0171518 3.12595 0
M  V30 4141 H 377.196 2.468 3.07382 0
M  V30 4142 H 378.484 2.80752 4.24329 0
M  V30 4143 H 377.882 -0.0423528 5.65684 0
M  V30 4144 H 376.439 0.335614 6.50935 0
M  V30 4145 N 379.872 -1.04064 1.18357 0
M  V30 4146 C 381.118 -1.77528 0.980397 0
M  V30 4147 C 381.451 -1.87948 -0.48879 0
M  V30 4148 O 380.726 -1.3876 -1.36293 0
M  V30 4149 C 381.009 -3.20797 1.63588 0
M  V30 4150 C 380.862 -3.1832 3.17793 0
M  V30 4151 C 382.181 -4.18911 1.34914 0
M  V30 4152 H 379.3 -0.644443 0.357578 0
M  V30 4153 H 381.942 -1.2156 1.46024 0
M  V30 4154 H 380.092 -3.68586 1.22788 0
M  V30 4155 H 381.764 -2.78521 3.67728 0
M  V30 4156 H 380.007 -2.56351 3.49952 0
M  V30 4157 H 380.678 -4.19489 3.58794 0
M  V30 4158 H 383.154 -3.7967 1.70265 0
M  V30 4159 H 382.03 -5.17374 1.83346 0
M  V30 4160 H 382.291 -4.41262 0.272027 0
M  V30 4161 N 381.35 -0.985608 -1.22978 0
M  V30 4162 C 382.578 -0.675582 -1.95559 0
M  V30 4163 C 382.993 0.758413 -1.72897 0
M  V30 4164 O 382.35 1.51094 -1.02357 0
M  V30 4165 C 382.401 -0.96293 -3.48439 0
M  V30 4166 O 382.122 -2.34057 -3.70336 0
M  V30 4167 C 383.623 -0.669585 -4.38214 0
M  V30 4168 H 380.843 -0.250523 -0.622478 0
M  V30 4169 H 383.387 -1.3184 -1.56328 0
M  V30 4170 H 381.542 -0.366033 -3.85667 0
M  V30 4171 H 381.956 -2.43424 -4.64591 0
M  V30 4172 H 383.43 -0.920967 -5.44263 0
M  V30 4173 H 383.907 0.396383 -4.37408 0
M  V30 4174 H 384.513 -1.2472 -4.06602 0
M  V30 4175 N 382.828 1.3818 -0.7579 0
M  V30 4176 C 384.077 1.99261 -0.312744 0
M  V30 4177 C 384.39 1.60846 1.11301 0
M  V30 4178 O 385.596 2.14929 1.65885 0
M  V30 4179 C 384.052 3.56294 -0.50821 0
M  V30 4180 C 383.66 4.03657 -1.94333 0
M  V30 4181 C 385.404 4.24313 -0.125982 0
M  V30 4182 C 383.311 5.53347 -2.08712 0
M  V30 4183 H 382.241 0.745456 -0.113185 0
M  V30 4184 H 384.892 1.57889 -0.935056 0
M  V30 4185 H 383.274 3.95575 0.183353 0
M  V30 4186 H 384.448 3.75655 -2.66871 0
M  V30 4187 H 382.763 3.48376 -2.28086 0
M  V30 4188 H 385.36 5.34279 -0.212125 0
M  V30 4189 H 385.703 4.05962 0.921964 0
M  V30 4190 H 386.236 3.90285 -0.769563 0
M  V30 4191 H 382.975 5.76607 -3.11777 0
M  V30 4192 H 382.495 5.83078 -1.4064 0
M  V30 4193 H 384.174 6.19111 -1.87912 0
M  V30 4194 N 384.306 0.507319 1.49211 0
M  V30 4195 C 385.583 -0.0982702 1.95353 0
M  V30 4196 C 385.963 -1.53516 1.449 0
M  V30 4197 O 385.311 -2.18594 0.66551 0
M  V30 4198 C 385.521 -0.00440283 3.49 0
M  V30 4199 C 386.869 -0.175147 4.24239 0
M  V30 4200 O 387.893 -0.0792891 3.56112 0
M  V30 4201 O 386.752 -0.37276 5.45227 0
M  V30 4202 H 383.846 -0.0918236 0.821887 0
M  V30 4203 H 386.392 0.570307 1.5983 0
M  V30 4204 H 385.164 0.997402 3.78375 0
M  V30 4205 H 384.787 -0.712845 3.91158 0
M  V30 4206 N 385.784 -1.5574 0.241426 0
M  V30 4207 C 386.747 -2.19877 -0.647063 0
M  V30 4208 C 387.747 -1.16642 -1.10686 0
M  V30 4209 O 388.937 -1.41757 -1.01245 0
M  V30 4210 C 386.069 -2.83797 -1.88871 0
M  V30 4211 H 387.262 -2.99772 -0.087574 0
M  V30 4212 H 384.815 -1.56298 -0.00813574 0
M  V30 4213 H 385.55 -2.07824 -2.48957 0
M  V30 4214 H 385.335 -3.59414 -1.56728 0
M  V30 4215 H 386.825 -3.32898 -2.52129 0
M  V30 4216 N 387.262 0.0317525 -1.57568 0
M  V30 4217 C 388.511 0.722131 -1.8833 0
M  V30 4218 C 388.824 1.76664 -0.839587 0
M  V30 4219 O 390.03 2.50942 -1.03635 0
M  V30 4220 C 388.486 1.33544 -3.34207 0
M  V30 4221 C 388.094 0.327415 -4.46802 0
M  V30 4222 C 389.838 2.00585 -3.7412 0
M  V30 4223 C 387.745 0.948915 -5.83738 0
M  V30 4224 H 386.675 0.273466 -0.702661 0
M  V30 4225 H 389.326 -0.0235811 -1.83485 0
M  V30 4226 H 387.708 2.13077 -3.33788 0
M  V30 4227 H 388.882 -0.441006 -4.58685 0
M  V30 4228 H 387.197 -0.240758 -4.15703 0
M  V30 4229 H 389.794 2.47932 -4.73744 0
M  V30 4230 H 390.137 2.82285 -3.05975 0
M  V30 4231 H 390.67 1.27831 -3.76702 0
M  V30 4232 H 387.409 0.171387 -6.55276 0
M  V30 4233 H 386.929 1.68724 -5.7558 0
M  V30 4234 H 388.608 1.45705 -6.3038 0
M  V30 4235 N 388.74 1.54641 0.303973 0
M  V30 4236 C 390.156 1.45788 0.649463 0
M  V30 4237 C 390.356 0.64666 1.90842 0
M  V30 4238 O 389.412 0.153183 2.52035 0
M  V30 4239 C 390.725 2.89718 0.805227 0
M  V30 4240 C 392.273 2.99742 0.901305 0
M  V30 4241 C 392.748 4.44863 1.08909 0
M  V30 4242 N 394.239 4.48559 1.15536 0
M  V30 4243 C 394.974 5.58026 1.3189 0
M  V30 4244 N 394.47 6.77422 1.45161 0
M  V30 4245 N 396.263 5.45708 1.34755 0
M  V30 4246 H 388.414 2.05854 -0.523237 0
M  V30 4247 H 390.677 0.932186 -0.172431 0
M  V30 4248 H 390.383 3.51666 -0.0489108 0
M  V30 4249 H 390.257 3.36964 1.69513 0
M  V30 4250 H 392.644 2.3791 1.74593 0
M  V30 4251 H 392.725 2.55797 -0.0125531 0
M  V30 4252 H 392.369 5.07288 0.249241 0
M  V30 4253 H 392.299 4.86436 2.01713 0
M  V30 4254 H 394.79 3.6254 1.06646 0
M  V30 4255 H 395.103 7.56604 1.57387 0
M  V30 4256 H 393.448 6.80292 1.42223 0
M  V30 4257 H 396.639 4.51378 1.23996 0
M  V30 4258 H 396.812 6.3107 1.47157 0
M  V30 4259 N 390.218 -0.567019 1.47046 0
M  V30 4260 C 391.128 -1.70247 1.6141 0
M  V30 4261 C 392.144 -1.66746 0.497157 0
M  V30 4262 O 393.32 -1.86371 0.763389 0
M  V30 4263 C 390.385 -3.06756 1.61561 0
M  V30 4264 C 389.446 -3.21399 2.84607 0
M  V30 4265 C 388.679 -4.51396 2.84741 0
M  V30 4266 O 388.902 -5.36255 1.94388 0
M  V30 4267 O 387.836 -4.69621 3.76483 0
M  V30 4268 H 391.662 -1.61073 2.57467 0
M  V30 4269 H 389.247 -0.735894 1.30019 0
M  V30 4270 H 391.129 -3.8801 1.64396 0
M  V30 4271 H 389.804 -3.16333 0.686684 0
M  V30 4272 H 388.711 -2.39579 2.8732 0
M  V30 4273 H 390.044 -3.16721 3.76761 0
M  V30 4274 N 391.696 -1.35014 -0.812953 0
M  V30 4275 C 392.942 -1.2812 -1.57204 0
M  V30 4276 C 393.275 0.145869 -1.93651 0
M  V30 4277 O 392.55 1.0937 -1.60836 0
M  V30 4278 C 392.833 -2.18162 -2.86492 0
M  V30 4279 C 392.686 -3.69454 -2.56561 0
M  V30 4280 C 394.005 -2.07439 -3.88145 0
M  V30 4281 H 391.124 -0.466746 -0.570366 0
M  V30 4282 H 393.766 -1.65357 -0.935783 0
M  V30 4283 H 391.916 -1.86535 -3.40789 0
M  V30 4284 H 393.588 -4.11493 -2.08497 0
M  V30 4285 H 391.831 -3.9005 -1.89851 0
M  V30 4286 H 392.502 -4.27835 -3.48799 0
M  V30 4287 H 394.978 -2.35228 -3.4323 0
M  V30 4288 H 393.854 -2.7265 -4.76396 0
M  V30 4289 H 394.115 -1.05439 -4.29343 0
M  V30 4290 N 393.175 1.03435 -1.18907 0
M  V30 4291 C 394.085 2.15075 -0.937015 0
M  V30 4292 C 395.101 1.73706 0.101085 0
M  V30 4293 O 396.277 2.01232 -0.0822948 0
M  V30 4294 C 393.342 3.43458 -0.473057 0
M  V30 4295 C 392.403 3.99172 -1.57989 0
M  V30 4296 C 391.636 5.21427 -1.13797 0
M  V30 4297 O 391.859 5.704 0.000725941 0
M  V30 4298 O 390.793 5.69837 -1.9383 0
M  V30 4299 H 394.619 2.39198 -1.87131 0
M  V30 4300 H 392.204 1.13506 -0.971427 0
M  V30 4301 H 394.086 4.20811 -0.222702 0
M  V30 4302 H 392.761 3.20793 0.432869 0
M  V30 4303 H 391.668 3.23178 -1.88433 0
M  V30 4304 H 393.001 4.2619 -2.46217 0
M  V30 4305 N 394.653 0.992116 1.22453 0
M  V30 4306 C 395.881 0.685944 1.95198 0
M  V30 4307 C 396.296 -0.749233 1.73297 0
M  V30 4308 O 395.653 -1.50549 1.03156 0
M  V30 4309 C 395.704 0.981395 3.47924 0
M  V30 4310 O 395.425 2.36018 3.6909 0
M  V30 4311 C 396.926 0.692815 4.37853 0
M  V30 4312 H 394.146 0.253821 0.621141 0
M  V30 4313 H 396.69 1.32668 1.55626 0
M  V30 4314 H 394.845 0.386481 3.85467 0
M  V30 4315 H 395.259 2.45884 4.63294 0
M  V30 4316 H 396.733 0.949818 5.43767 0
M  V30 4317 H 397.21 -0.373181 4.37612 0
M  V30 4318 H 397.816 1.26874 4.05935 0
M  V30 4319 N 396.131 -1.37776 0.765217 0
M  V30 4320 C 397.061 -2.32945 0.160953 0
M  V30 4321 C 398.042 -1.55454 -0.690516 0
M  V30 4322 O 399.227 -1.83721 -0.629318 0
M  V30 4323 C 396.357 -3.39669 -0.724031 0
M  V30 4324 C 395.311 -4.27992 0.0256173 0
M  V30 4325 C 394.637 -5.25673 -0.978383 0
M  V30 4326 C 395.937 -5.08309 1.20082 0
M  V30 4327 H 397.631 -2.83728 0.955969 0
M  V30 4328 H 395.177 -1.36416 0.461149 0
M  V30 4329 H 397.13 -4.05219 -1.15652 0
M  V30 4330 H 395.854 -2.87396 -1.5515 0
M  V30 4331 H 394.513 -3.63964 0.438812 0
M  V30 4332 H 394.161 -4.69682 -1.80022 0
M  V30 4333 H 393.861 -5.85625 -0.481378 0
M  V30 4334 H 395.385 -5.94098 -1.40995 0
M  V30 4335 H 396.799 -5.67034 0.845307 0
M  V30 4336 H 395.196 -5.77554 1.62947 0
M  V30 4337 H 396.266 -4.41365 2.00811 0
M  V30 4338 N 397.609 -0.515225 -1.4894 0
M  V30 4339 C 399.02 -0.0710067 -1.86565 0
M  V30 4340 C 399.371 1.34733 -1.42623 0
M  V30 4341 O 398.496 2.00653 -0.810379 0
M  V30 4342 C 399.091 -0.122083 -3.3858 0
M  V30 4343 C 397.65 0.266863 -3.75453 0
M  V30 4344 C 396.797 -0.488376 -2.72966 0
M  V30 4345 H 399.748 -0.727266 -1.41055 0
M  V30 4346 H 399.769 0.669818 -3.74558 0
M  V30 4347 H 399.281 -1.15448 -3.70531 0
M  V30 4348 H 397.382 1.30196 -3.49113 0
M  V30 4349 H 397.495 -0.0624811 -4.79059 0
M  V30 4350 H 395.859 0.0635622 -2.54621 0
M  V30 4351 H 396.642 -1.52113 -3.07761 0
M  V30 4352 N 399.087 1.5561 -0.249682 0
M  V30 4353 C 400.503 1.59254 0.105103 0
M  V30 4354 C 400.703 1.26685 1.56694 0
M  V30 4355 O 399.759 1.0155 2.31179 0
M  V30 4356 C 401.072 2.99687 -0.246592 0
M  V30 4357 C 402.62 3.12416 -0.191118 0
M  V30 4358 C 403.095 4.55074 -0.516885 0
M  V30 4359 N 404.586 4.60835 -0.467489 0
M  V30 4360 C 405.321 5.69201 -0.69268 0
M  V30 4361 N 404.817 6.85817 -0.981146 0
M  V30 4362 N 406.61 5.58635 -0.623198 0
M  V30 4363 H 398.761 1.75049 -1.20298 0
M  V30 4364 H 401.024 0.815003 -0.484225 0
M  V30 4365 H 400.73 3.28267 -1.26228 0
M  V30 4366 H 400.604 3.74798 0.424962 0
M  V30 4367 H 402.991 2.83615 0.815247 0
M  V30 4368 H 403.072 2.39573 -0.896563 0
M  V30 4369 H 402.716 4.84596 -1.52082 0
M  V30 4370 H 402.646 5.26181 0.210068 0
M  V30 4371 H 405.137 3.7705 -0.253373 0
M  V30 4372 H 405.45 7.64341 -1.14032 0
M  V30 4373 H 403.795 6.87494 -1.01865 0
M  V30 4374 H 406.986 4.66406 -0.397863 0
M  V30 4375 H 407.159 6.43017 -0.802093 0
M  V30 4376 N 400.565 -0.0233959 1.57583 0
M  V30 4377 C 401.512 -1.02224 2.06927 0
M  V30 4378 C 402.482 -1.35575 0.959617 0
M  V30 4379 O 403.667 -1.45815 1.23055 0
M  V30 4380 C 400.807 -2.31636 2.5581 0
M  V30 4381 C 399.92 -2.04394 3.80588 0
M  V30 4382 C 399.055 -3.27717 4.18061 0
M  V30 4383 C 398.094 -2.96056 5.3574 0
M  V30 4384 N 397.231 -4.11847 5.68618 0
M  V30 4385 H 402.071 -0.594504 2.9201 0
M  V30 4386 H 399.608 -0.281921 1.44373 0
M  V30 4387 H 401.566 -3.07258 2.82221 0
M  V30 4388 H 400.196 -2.72122 1.73636 0
M  V30 4389 H 399.248 -1.19244 3.61227 0
M  V30 4390 H 400.56 -1.77042 4.66323 0
M  V30 4391 H 399.714 -4.11702 4.4563 0
M  V30 4392 H 398.453 -3.58188 3.30988 0
M  V30 4393 H 397.458 -2.10474 5.07918 0
M  V30 4394 H 398.683 -2.66857 6.24471 0
M  V30 4395 H 396.629 -4.42258 4.84504 0
M  V30 4396 H 396.546 -3.87938 6.48876 0
M  V30 4397 H 397.814 -4.96689 6.00766 0
M  V30 4398 N 402.043 -1.548 -0.295768 0
M  V30 4399 C 403.273 -1.78069 -1.04762 0
M  V30 4400 C 403.681 -0.542847 -1.81245 0
M  V30 4401 O 403.024 0.497051 -1.76848 0
M  V30 4402 C 403.086 -2.93881 -2.07061 0
M  V30 4403 C 402.75 -4.31777 -1.49725 0
M  V30 4404 C 403.747 -5.11613 -0.924581 0
M  V30 4405 C 401.432 -4.78389 -1.5313 0
M  V30 4406 C 403.426 -6.36184 -0.393594 0
M  V30 4407 C 401.113 -6.02921 -0.996447 0
M  V30 4408 C 402.111 -6.81654 -0.428569 0
M  V30 4409 O 401.799 -8.0384 0.0981593 0
M  V30 4410 H 401.531 -0.597475 -0.316226 0
M  V30 4411 H 404.085 -2.02584 -0.338973 0
M  V30 4412 H 402.315 -2.65003 -2.81621 0
M  V30 4413 H 404.004 -3.04679 -2.6819 0
M  V30 4414 H 404.77 -4.76743 -0.891136 0
M  V30 4415 H 400.649 -4.17132 -1.9627 0
M  V30 4416 H 404.193 -6.97582 0.0503014 0
M  V30 4417 H 400.09 -6.37277 -1.02706 0
M  V30 4418 H 400.858 -8.18499 -0.0146455 0
M  V30 4419 N 403.521 0.559213 -1.47345 0
M  V30 4420 C 404.468 1.66645 -1.59682 0
M  V30 4421 C 405.438 1.60168 -0.43994 0
M  V30 4422 O 406.623 1.79031 -0.659736 0
M  V30 4423 C 403.763 3.04969 -1.61518 0
M  V30 4424 C 402.876 3.21897 -2.88108 0
M  V30 4425 C 402.011 4.50608 -2.81294 0
M  V30 4426 C 401.05 4.60961 -4.02717 0
M  V30 4427 N 400.187 5.81024 -3.94151 0
M  V30 4428 H 405.027 1.55439 -2.54249 0
M  V30 4429 H 402.564 0.757219 -1.26113 0
M  V30 4430 H 404.522 3.85064 -1.60566 0
M  V30 4431 H 403.152 3.15015 -0.704645 0
M  V30 4432 H 402.204 2.35248 -2.98936 0
M  V30 4433 H 403.516 3.25412 -3.78032 0
M  V30 4434 H 402.67 5.3896 -2.7858 0
M  V30 4435 H 401.409 4.49568 -1.89049 0
M  V30 4436 H 400.414 3.71021 -4.05738 0
M  V30 4437 H 401.639 4.63761 -4.96087 0
M  V30 4438 H 399.585 5.80938 -3.04708 0
M  V30 4439 H 399.502 5.85909 -4.77752 0
M  V30 4440 H 400.77 6.71744 -3.9545 0
M  V30 4441 N 404.999 1.35443 0.805782 0
M  V30 4442 C 405.946 1.28431 1.91766 0
M  V30 4443 C 406.916 0.156102 1.65365 0
M  V30 4444 O 408.101 0.339936 1.87747 0
M  V30 4445 C 405.241 1.06301 3.2832 0
M  V30 4446 C 404.354 2.2805 3.66902 0
M  V30 4447 C 403.489 1.99064 4.92491 0
M  V30 4448 C 402.528 3.16863 5.23703 0
M  V30 4449 N 401.665 2.87647 6.40471 0
M  V30 4450 H 406.505 2.23511 1.97096 0
M  V30 4451 H 404.042 1.11105 0.964054 0
M  V30 4452 H 406 0.915012 4.07042 0
M  V30 4453 H 404.63 0.148822 3.22457 0
M  V30 4454 H 403.682 2.53711 2.83434 0
M  V30 4455 H 404.994 3.1601 3.85927 0
M  V30 4456 H 404.148 1.81099 5.7904 0
M  V30 4457 H 402.887 1.0839 4.75503 0
M  V30 4458 H 401.892 3.35404 4.35642 0
M  V30 4459 H 403.117 4.08339 5.4262 0
M  V30 4460 H 401.063 1.99568 6.24907 0
M  V30 4461 H 400.98 3.69141 6.59751 0
M  V30 4462 H 402.248 2.73226 7.30047 0
M  V30 4463 N 406.477 -1.02803 1.19454 0
M  V30 4464 C 407.387 -2.14575 0.948408 0
M  V30 4465 C 408.403 -1.73757 -0.091871 0
M  V30 4466 O 409.579 -2.01185 0.0929654 0
M  V30 4467 C 406.644 -3.43202 0.491265 0
M  V30 4468 C 405.705 -3.98328 1.60103 0
M  V30 4469 C 404.938 -5.20816 1.16561 0
M  V30 4470 O 405.161 -5.70392 0.0295238 0
M  V30 4471 O 404.095 -5.68801 1.96849 0
M  V30 4472 H 407.921 -2.38202 1.88397 0
M  V30 4473 H 405.506 -1.12989 0.977433 0
M  V30 4474 H 407.388 -4.20687 0.245015 0
M  V30 4475 H 406.063 -3.21018 -0.415851 0
M  V30 4476 H 404.97 -3.22174 1.90144 0
M  V30 4477 H 406.303 -4.24879 2.48473 0
M  V30 4478 N 407.956 -0.998596 -1.21925 0
M  V30 4479 C 409.196 -0.685948 -1.92546 0
M  V30 4480 C 409.56 0.768441 -1.75952 0
M  V30 4481 O 410.761 1.19277 -2.40887 0
M  V30 4482 C 409.032 -1.08767 -3.40448 0
M  V30 4483 S 410.591 -0.894251 -4.29591 0
M  V30 4484 H 407.409 -0.250622 -0.665364 0
M  V30 4485 H 410.011 -1.28207 -1.47591 0
M  V30 4486 H 408.715 -2.14242 -3.50041 0
M  V30 4487 H 408.246 -0.48357 -3.90417 0
M  V30 4488 H 410.261 0.212149 -4.95746 0
M  V30 4489 N 409.434 1.37368 -0.772513 0
M  V30 4490 C 410.344 2.34053 -0.160081 0
M  V30 4491 C 411.36 1.60216 0.678728 0
M  V30 4492 O 412.536 1.92303 0.59847 0
M  V30 4493 C 409.601 3.3939 0.708182 0
M  V30 4494 C 408.662 4.29048 -0.147172 0
M  V30 4495 C 407.895 5.29354 0.679744 0
M  V30 4496 O 408.118 5.3723 1.91678 0
M  V30 4497 O 407.052 6.01835 0.0885444 0
M  V30 4498 H 410.878 2.88159 -0.959053 0
M  V30 4499 H 408.463 1.39543 -0.533685 0
M  V30 4500 H 410.345 4.03839 1.20384 0
M  V30 4501 H 409.02 2.8761 1.48533 0
M  V30 4502 H 407.927 3.67697 -0.689205 0
M  V30 4503 H 409.26 4.84134 -0.887423 0
M  V30 4504 N 410.912 0.523116 1.48665 0
M  V30 4505 C 411.822 -0.247406 2.33292 0
M  V30 4506 C 412.838 -0.945769 1.46052 0
M  V30 4507 O 414.014 -0.922253 1.79043 0
M  V30 4508 C 411.079 -1.28487 3.22012 0
M  V30 4509 C 410.14 -0.597592 4.2512 0
M  V30 4510 C 409.373 -1.58563 5.09601 0
M  V30 4511 O 409.596 -2.81763 4.95949 0
M  V30 4512 O 408.53 -1.12879 5.91221 0
M  V30 4513 H 412.356 0.445869 3.00409 0
M  V30 4514 H 409.941 0.284128 1.46673 0
M  V30 4515 H 411.823 -1.88459 3.7691 0
M  V30 4516 H 410.498 -1.96068 2.57564 0
M  V30 4517 H 409.405 0.0424407 3.74076 0
M  V30 4518 H 410.738 0.0361517 4.92187 0
M  V30 4519 N 412.39 -1.55475 0.257931 0
M  V30 4520 C 413.3 -2.2549 -0.647425 0
M  V30 4521 C 414.316 -1.2748 -1.18427 0
M  V30 4522 O 415.492 -1.6038 -1.2182 0
M  V30 4523 C 412.557 -2.94916 -1.82278 0
M  V30 4524 C 411.618 -4.08363 -1.32432 0
M  V30 4525 C 410.851 -4.74469 -2.44366 0
M  V30 4526 O 411.074 -4.39701 -3.63344 0
M  V30 4527 O 410.008 -5.62763 -2.13497 0
M  V30 4528 H 413.834 -3.03593 -0.0807707 0
M  V30 4529 H 411.419 -1.49377 0.0259962 0
M  V30 4530 H 413.301 -3.38606 -2.50846 0
M  V30 4531 H 411.976 -2.19744 -2.37685 0
M  V30 4532 H 410.883 -3.69166 -0.605605 0
M  V30 4533 H 412.216 -4.85385 -0.816211 0
M  V30 4534 N 413.868 0.0150385 -1.57593 0
M  V30 4535 C 414.831 0.995996 -2.06428 0
M  V30 4536 C 415.831 1.2818 -0.970903 0
M  V30 4537 O 417.021 1.22949 -1.23406 0
M  V30 4538 C 414.153 2.32506 -2.49307 0
M  V30 4539 H 415.346 0.573873 -2.94358 0
M  V30 4540 H 412.899 0.262186 -1.54085 0
M  V30 4541 H 413.634 2.79438 -1.64575 0
M  V30 4542 H 413.419 2.13087 -3.29145 0
M  V30 4543 H 414.909 3.02906 -2.87468 0
M  V30 4544 N 415.346 1.54954 0.287554 0
M  V30 4545 C 416.595 1.74081 1.01877 0
M  V30 4546 C 416.908 0.541135 1.87966 0
M  V30 4547 O 418.114 0.614491 2.64455 0
M  V30 4548 C 416.57 3.08042 1.86113 0
M  V30 4549 C 416.178 4.35531 1.04961 0
M  V30 4550 C 417.922 3.36523 2.58752 0
M  V30 4551 C 415.829 5.60538 1.88551 0
M  V30 4552 H 414.759 0.64884 0.384087 0
M  V30 4553 H 417.41 1.81426 0.275101 0
M  V30 4554 H 415.792 2.94696 2.64519 0
M  V30 4555 H 416.966 4.59751 0.31074 0
M  V30 4556 H 415.281 4.14085 0.43843 0
M  V30 4557 H 417.878 4.27122 3.21668 0
M  V30 4558 H 418.221 2.56 3.28283 0
M  V30 4559 H 418.754 3.50901 1.87386 0
M  V30 4560 H 415.493 6.43767 1.23466 0
M  V30 4561 H 415.013 5.40483 2.60074 0
M  V30 4562 H 416.692 5.98297 2.46273 0
M  V30 4563 N 416.824 -0.551391 1.4764 0
M  V30 4564 C 417.772 -1.67896 1.60978 0
M  V30 4565 C 418.766 -1.62549 0.476877 0
M  V30 4566 O 419.972 -1.67664 0.654878 0
M  V30 4567 H 416.347 -0.555649 0.506713 0
M  V30 4568 H 418.318 -1.53784 2.55721 0
M  V30 4569 C 417.067 -3.06234 1.64669 0
M  V30 4570 H 416.39 -3.11033 2.51194 0
M  V30 4571 H 417.83 -3.84804 1.7805 0
M  V30 4572 C 416.289 -3.34737 0.381115 0
M  V30 4573 O 416.819 -3.98381 -0.515297 0
M  V30 4574 N 415.025 -2.8944 0.259354 0
M  V30 4575 H 414.572 -2.37827 0.98976 0
M  V30 4576 H 414.53 -3.08882 -0.586464 0
M  V30 4577 N 418.302 -1.35869 -0.798587 0
M  V30 4578 C 419.551 -1.28921 -1.5512 0
M  V30 4579 C 419.864 0.13208 -1.95154 0
M  V30 4580 O 421.07 0.323879 -2.69561 0
M  V30 4581 C 419.526 -2.26141 -2.79979 0
M  V30 4582 C 419.134 -3.73658 -2.47151 0
M  V30 4583 C 420.878 -2.28152 -3.57976 0
M  V30 4584 C 418.785 -4.62679 -3.6835 0
M  V30 4585 H 417.715 -0.479031 -0.582276 0
M  V30 4586 H 420.366 -1.61179 -0.877125 0
M  V30 4587 H 418.748 -1.86865 -3.49138 0
M  V30 4588 H 419.922 -4.21616 -1.85947 0
M  V30 4589 H 418.237 -3.74333 -1.82383 0
M  V30 4590 H 420.834 -2.91875 -4.4801 0
M  V30 4591 H 421.177 -1.28748 -3.95891 0
M  V30 4592 H 421.71 -2.65998 -2.95787 0
M  V30 4593 H 418.449 -5.63111 -3.35538 0
M  V30 4594 H 417.969 -4.19442 -4.28752 0
M  V30 4595 H 419.648 -4.78498 -4.35487 0
M  V30 4596 N 419.78 1.02168 -1.19998 0
M  V30 4597 C 420.712 2.10705 -0.901994 0
M  V30 4598 C 421.725 1.6244 0.108216 0
M  V30 4599 O 422.914 1.78082 -0.12214 0
M  V30 4600 C 420.014 3.37291 -0.329834 0
M  V30 4601 C 419.187 4.14714 -1.39035 0
M  V30 4602 C 418.246 5.19606 -0.830432 0
M  V30 4603 O 417.272 5.48809 -1.50989 0
M  V30 4604 N 418.474 5.79366 0.362696 0
M  V30 4605 H 421.239 2.36856 -1.83628 0
M  V30 4606 H 418.8 1.18518 -1.10296 0
M  V30 4607 H 420.792 4.04657 0.0587633 0
M  V30 4608 H 419.362 3.0843 0.508891 0
M  V30 4609 H 418.582 3.42392 -1.9535 0
M  V30 4610 H 419.87 4.63226 -2.10474 0
M  V30 4611 H 419.268 5.57968 0.932081 0
M  V30 4612 H 417.825 6.48106 0.69299 0
M  V30 4613 N 421.258 1.00505 1.21394 0
M  V30 4614 C 422.483 0.706367 1.95001 0
M  V30 4615 C 422.908 -0.72463 1.73582 0
M  V30 4616 O 422.266 -1.49702 1.0227 0
M  V30 4617 C 422.314 1.03299 3.45487 0
M  V30 4618 O 421.418 0.138275 4.12168 0
M  V30 4619 H 420.759 0.263175 0.609619 0
M  V30 4620 H 423.289 1.34531 1.54151 0
M  V30 4621 H 423.299 0.979872 3.96059 0
M  V30 4622 H 421.974 2.07567 3.60401 0
M  V30 4623 H 420.551 0.247928 3.72075 0
M  V30 4624 N 422.737 -1.36956 0.779787 0
M  V30 4625 C 423.965 -2.03755 0.359398 0
M  V30 4626 C 424.38 -1.58807 -1.02106 0
M  V30 4627 O 423.737 -0.773024 -1.6532 0
M  V30 4628 C 423.788 -3.59251 0.402568 0
M  V30 4629 O 423.509 -4.02557 1.72858 0
M  V30 4630 C 425.01 -4.43291 -0.0284068 0
M  V30 4631 H 422.23 -0.654148 0.149437 0
M  V30 4632 H 424.774 -1.75128 1.05595 0
M  V30 4633 H 422.929 -3.86621 -0.245478 0
M  V30 4634 H 423.343 -4.97111 1.67275 0
M  V30 4635 H 424.817 -5.51975 0.0529466 0
M  V30 4636 H 425.294 -4.25719 -1.07982 0
M  V30 4637 H 425.9 -4.21163 0.591758 0
M  V30 4638 N 424.215 -0.530993 -1.48385 0
M  V30 4639 C 425.178 0.220497 -2.28137 0
M  V30 4640 C 426.178 0.866851 -1.35434 0
M  V30 4641 O 427.368 0.726746 -1.58316 0
M  V30 4642 C 424.5 1.31921 -3.1434 0
M  V30 4643 H 425.693 -0.479714 -2.96038 0
M  V30 4644 H 423.246 -0.286968 -1.53643 0
M  V30 4645 H 423.981 2.05264 -2.51072 0
M  V30 4646 H 423.766 0.86085 -3.82533 0
M  V30 4647 H 425.256 1.84776 -3.74497 0
M  V30 4648 N 425.693 1.55336 -0.266172 0
M  V30 4649 C 427.104 1.85236 0.233315 0
M  V30 4650 C 427.455 1.18816 1.56132 0
M  V30 4651 O 426.58 0.473307 2.11161 0
M  V30 4652 C 427.175 3.36059 0.430113 0
M  V30 4653 C 425.734 3.66116 0.873842 0
M  V30 4654 C 424.881 2.77274 -0.0380016 0
M  V30 4655 H 427.832 1.51004 -0.488214 0
M  V30 4656 H 427.853 3.58681 1.26998 0
M  V30 4657 H 427.365 3.84373 -0.536588 0
M  V30 4658 H 425.466 3.23295 1.85233 0
M  V30 4659 H 425.579 4.73699 0.717358 0
M  V30 4660 H 423.943 2.50198 0.476759 0
M  V30 4661 H 424.726 3.284 -1.00042 0
M  V30 4662 N 427.171 -0.0066808 1.57599 0
M  V30 4663 C 428.081 -1.01671 2.11424 0
M  V30 4664 C 429.097 -1.38143 1.05795 0
M  V30 4665 O 430.273 -1.47011 1.37658 0
M  V30 4666 C 427.338 -2.29192 2.60139 0
M  V30 4667 C 426.399 -1.99094 3.80342 0
M  V30 4668 C 425.632 -3.20535 4.26724 0
M  V30 4669 O 425.855 -4.3199 3.72479 0
M  V30 4670 O 424.789 -3.04924 5.18946 0
M  V30 4671 H 428.615 -0.589181 2.9793 0
M  V30 4672 H 426.2 -0.225091 1.47695 0
M  V30 4673 H 428.082 -3.0412 2.917 0
M  V30 4674 H 426.757 -2.71195 1.76733 0
M  V30 4675 H 425.664 -1.21663 3.53764 0
M  V30 4676 H 426.997 -1.61931 4.648 0
M  V30 4677 N 428.649 -1.55105 -0.279332 0
M  V30 4678 C 429.559 -1.90638 -1.36727 0
M  V30 4679 C 430.575 -0.802899 -1.54368 0
M  V30 4680 O 431.751 -1.10138 -1.68616 0
M  V30 4681 C 428.816 -2.16547 -2.70755 0
M  V30 4682 C 427.877 -3.40146 -2.61915 0
M  V30 4683 C 427.11 -3.6481 -3.8955 0
M  V30 4684 O 427.333 -2.92095 -4.89935 0
M  V30 4685 O 426.267 -4.58343 -3.90135 0
M  V30 4686 H 430.093 -2.83237 -1.09591 0
M  V30 4687 H 427.678 -1.4157 -0.477306 0
M  V30 4688 H 429.56 -2.34665 -3.50014 0
M  V30 4689 H 428.235 -1.27131 -2.9769 0
M  V30 4690 H 427.142 -3.2737 -1.81052 0
M  V30 4691 H 428.475 -4.29761 -2.3993 0
M  V30 4692 N 430.127 0.543554 -1.4793 0
M  V30 4693 C 431.037 1.67657 -1.64098 0
M  V30 4694 C 432.053 1.65934 -0.523622 0
M  V30 4695 O 433.229 1.85133 -0.792943 0
M  V30 4696 C 430.294 3.04146 -1.66421 0
M  V30 4697 C 429.355 3.16831 -2.89684 0
M  V30 4698 C 428.588 4.46809 -2.91886 0
M  V30 4699 O 428.811 5.33095 -2.02895 0
M  V30 4700 O 427.745 4.63573 -3.83906 0
M  V30 4701 H 431.571 1.56957 -2.59997 0
M  V30 4702 H 429.156 0.715116 -1.31173 0
M  V30 4703 H 431.038 3.85346 -1.70548 0
M  V30 4704 H 429.713 3.152 -0.736923 0
M  V30 4705 H 428.62 2.34977 -2.91095 0
M  V30 4706 H 429.953 3.10687 -3.81752 0
M  V30 4707 N 431.605 1.3629 0.791371 0
M  V30 4708 C 432.555 1.26988 1.89362 0
M  V30 4709 C 433.539 0.161795 1.60084 0
M  V30 4710 O 434.731 0.394426 1.72549 0
M  V30 4711 C 431.86 1.05944 3.26544 0
M  V30 4712 C 430.946 2.21211 3.61838 0
M  V30 4713 N 431.337 3.46518 3.68455 0
M  V30 4714 C 429.635 2.12933 3.91887 0
M  V30 4715 C 430.336 4.2241 3.99931 0
M  V30 4716 N 429.312 3.51329 4.14812 0
M  V30 4717 H 433.114 2.21908 1.92702 0
M  V30 4718 H 430.628 1.28982 0.986787 0
M  V30 4719 H 432.625 0.973666 4.05371 0
M  V30 4720 H 431.285 0.119223 3.24481 0
M  V30 4721 H 432.296 3.80677 3.51148 0
M  V30 4722 H 428.973 1.26855 3.97761 0
M  V30 4723 H 430.363 5.30767 4.1199 0
M  V30 4724 N 433.083 -1.0153 1.20538 0
M  V30 4725 C 433.993 -2.13557 0.971113 0
M  V30 4726 C 435.009 -1.73845 -0.0734366 0
M  V30 4727 O 436.185 -2.01075 0.114299 0
M  V30 4728 C 433.25 -3.42661 0.527639 0
M  V30 4729 C 432.311 -3.96608 1.64319 0
M  V30 4730 C 431.544 -5.1955 1.22078 0
M  V30 4731 O 431.767 -5.70329 0.0900198 0
M  V30 4732 O 430.701 -5.66681 2.02871 0
M  V30 4733 H 434.527 -2.3619 1.90913 0
M  V30 4734 H 432.112 -1.11946 0.989362 0
M  V30 4735 H 433.994 -4.20404 0.289621 0
M  V30 4736 H 432.669 -3.21441 -0.381779 0
M  V30 4737 H 431.576 -3.20139 1.93551 0
M  V30 4738 H 432.909 -4.22219 2.52966 0
M  V30 4739 N 434.561 -1.01147 -1.20859 0
M  V30 4740 C 435.786 -0.716698 -1.94623 0
M  V30 4741 C 436.211 0.715415 -1.73964 0
M  V30 4742 O 435.569 1.49157 -1.03062 0
M  V30 4743 C 435.617 -1.0513 -3.44935 0
M  V30 4744 O 434.721 -0.160131 -4.12089 0
M  V30 4745 H 434.062 -0.266404 -0.608214 0
M  V30 4746 H 436.592 -1.35346 -1.53436 0
M  V30 4747 H 436.602 -1.00086 -3.95533 0
M  V30 4748 H 435.277 -2.09475 -3.59295 0
M  V30 4749 H 433.854 -0.267657 -3.71938 0
M  V30 4750 N 436.039 1.36541 -0.78704 0
M  V30 4751 C 437.45 1.81873 -0.421807 0
M  V30 4752 C 437.801 1.65487 1.05397 0
M  V30 4753 O 436.926 1.17448 1.81755 0
M  V30 4754 C 437.521 3.30192 -0.758841 0
M  V30 4755 C 436.08 3.73743 -0.446468 0
M  V30 4756 C 435.227 2.58844 -0.994728 0
M  V30 4757 H 438.178 1.24796 -0.98039 0
M  V30 4758 H 438.199 3.80468 -0.0490648 0
M  V30 4759 H 437.711 3.42087 -1.83299 0
M  V30 4760 H 435.812 3.6741 0.619739 0
M  V30 4761 H 435.925 4.69272 -0.965415 0
M  V30 4762 H 434.289 2.51245 -0.418087 0
M  V30 4763 H 435.072 2.73525 -2.07458 0
M  V30 4764 N 437.518 0.538854 1.48102 0
M  V30 4765 C 438.934 0.19732 1.58376 0
M  V30 4766 C 439.134 -1.29971 1.5398 0
M  V30 4767 O 438.19 -2.07861 1.43352 0
M  V30 4768 C 439.503 0.807716 2.89649 0
M  V30 4769 C 441.051 0.77726 3.03196 0
M  V30 4770 C 441.526 1.36639 4.37143 0
M  V30 4771 N 443.017 1.32875 4.43732 0
M  V30 4772 C 443.752 1.7544 5.45901 0
M  V30 4773 N 443.248 2.25776 6.54979 0
M  V30 4774 N 445.041 1.66623 5.36836 0
M  V30 4775 H 437.192 1.5117 1.49202 0
M  V30 4776 H 439.455 0.629327 0.708979 0
M  V30 4777 H 439.161 1.85909 2.98548 0
M  V30 4778 H 439.035 0.289975 3.76084 0
M  V30 4779 H 441.422 -0.265374 2.93904 0
M  V30 4780 H 441.503 1.33256 2.18349 0
M  V30 4781 H 441.147 2.408 4.47189 0
M  V30 4782 H 441.077 0.786689 5.20691 0
M  V30 4783 H 443.568 0.96037 3.65493 0
M  V30 4784 H 443.881 2.56226 7.29087 0
M  V30 4785 H 442.226 2.29775 6.55918 0
M  V30 4786 H 445.417 1.27089 4.50517 0
M  V30 4787 H 445.59 2.00115 6.16326 0
M  V30 4788 N 438.996 -1.55193 0.274407 0
M  V30 4789 C 439.959 -2.212 -0.600279 0
M  V30 4790 C 440.959 -1.18963 -1.08187 0
M  V30 4791 O 442.149 -1.43873 -0.982158 0
M  V30 4792 C 439.281 -2.87739 -1.82809 0
M  V30 4793 H 440.474 -2.9989 -0.0239682 0
M  V30 4794 H 438.027 -1.5628 0.0250192 0
M  V30 4795 H 438.762 -2.13058 -2.44493 0
M  V30 4796 H 438.547 -3.62658 -1.49069 0
M  V30 4797 H 440.037 -3.38171 -2.45011 0
M  V30 4798 N 440.474 -0.00167713 -1.576 0
M  V30 4799 C 441.384 1.00548 -2.1196 0
M  V30 4800 C 442.4 1.3758 -1.06526 0
M  V30 4801 O 443.576 1.46278 -1.38436 0
M  V30 4802 C 440.641 2.27809 -2.6135 0
M  V30 4803 C 439.702 1.97074 -3.81393 0
M  V30 4804 C 438.935 3.18267 -4.28417 0
M  V30 4805 O 439.158 4.30009 -3.74765 0
M  V30 4806 O 438.092 3.02167 -5.20556 0
M  V30 4807 H 441.918 0.573373 -2.98238 0
M  V30 4808 H 439.503 0.217255 -1.47812 0
M  V30 4809 H 441.385 3.02568 -2.93309 0
M  V30 4810 H 440.06 2.70254 -1.78169 0
M  V30 4811 H 438.967 1.19785 -3.54404 0
M  V30 4812 H 440.3 1.59464 -4.65652 0
M  V30 4813 N 441.952 1.55251 0.271103 0
M  V30 4814 C 443.18 1.79974 1.02064 0
M  V30 4815 C 443.595 0.574003 1.79863 0
M  V30 4816 O 442.952 -0.456962 1.76686 0
M  V30 4817 C 443.003 3.02603 1.97772 0
M  V30 4818 O 442.724 4.20443 1.23124 0
M  V30 4819 C 444.225 3.39944 2.84522 0
M  V30 4820 H 441.445 0.599489 0.301419 0
M  V30 4821 H 443.989 2.02268 0.301313 0
M  V30 4822 H 442.144 2.8243 2.65165 0
M  V30 4823 H 442.558 4.89783 1.87651 0
M  V30 4824 H 444.032 4.28915 3.47471 0
M  V30 4825 H 444.509 2.59432 3.54389 0
M  V30 4826 H 445.115 3.62383 2.22618 0
M  V30 4827 N 443.43 -0.535701 1.48216 0
M  V30 4828 C 444.841 -1.11769 1.49548 0
M  V30 4829 C 445.192 -1.94442 0.26207 0
M  V30 4830 O 444.317 -2.06987 -0.631287 0
M  V30 4831 C 444.912 -2.03367 2.70975 0
M  V30 4832 C 443.471 -2.56795 2.75196 0
M  V30 4833 C 442.618 -1.33631 2.42977 0
M  V30 4834 H 445.569 -0.321232 1.55415 0
M  V30 4835 H 445.59 -2.87569 2.49167 0
M  V30 4836 H 445.102 -1.43169 3.60727 0
M  V30 4837 H 443.203 -3.20731 1.89638 0
M  V30 4838 H 443.316 -2.9632 3.76472 0
M  V30 4839 H 441.68 -1.6502 1.94012 0
M  V30 4840 H 442.463 -0.75194 3.34964 0
M  V30 4841 N 444.908 -1.36708 -0.784132 0
M  V30 4842 C 446.133 -1.34565 -1.5782 0
M  V30 4843 C 446.558 0.0695257 -1.87971 0
M  V30 4844 O 445.916 1.04302 -1.48293 0
M  V30 4845 C 445.964 -2.17952 -2.87279 0
M  V30 4846 O 445.068 -1.57563 -3.81114 0
M  V30 4847 H 444.409 -0.460337 -0.478524 0
M  V30 4848 H 446.939 -1.80064 -0.971495 0
M  V30 4849 H 446.949 -2.30721 -3.365 0
M  V30 4850 H 445.624 -3.20823 -2.64661 0
M  V30 4851 H 444.201 -1.53764 -3.39722 0
M  V30 4852 N 446.386 1.0089 -1.21074 0
M  V30 4853 C 447.614 1.78191 -1.05145 0
M  V30 4854 C 448.029 1.84537 0.398952 0
M  V30 4855 O 447.386 1.30393 1.27687 0
M  V30 4856 C 447.437 3.22288 -1.63746 0
M  V30 4857 O 447.158 3.16315 -3.03111 0
M  V30 4858 C 448.659 4.16106 -1.52875 0
M  V30 4859 H 445.879 0.560129 -0.369454 0
M  V30 4860 H 448.423 1.26945 -1.60328 0
M  V30 4861 H 446.578 3.70655 -1.12664 0
M  V30 4862 H 446.992 4.06817 -3.31059 0
M  V30 4863 H 448.466 5.15026 -1.98626 0
M  V30 4864 H 448.943 4.36541 -0.482521 0
M  V30 4865 H 449.549 3.73625 -2.03185 0
M  V30 4866 N 447.864 1.01787 1.20321 0
M  V30 4867 C 449.11 0.708985 1.90003 0
M  V30 4868 C 449.443 -0.759572 1.78729 0
M  V30 4869 O 448.718 -1.55198 1.17234 0
M  V30 4870 C 449.001 1.1469 3.41348 0
M  V30 4871 C 448.854 2.67586 3.61549 0
M  V30 4872 C 450.173 0.71915 4.34185 0
M  V30 4873 H 447.292 0.259034 0.689978 0
M  V30 4874 H 449.934 1.26584 1.41692 0
M  V30 4875 H 448.084 0.673128 3.82624 0
M  V30 4876 H 449.756 3.22826 3.29517 0
M  V30 4877 H 447.999 3.085 3.04976 0
M  V30 4878 H 448.67 2.93281 4.67643 0
M  V30 4879 H 451.146 1.12647 4.00562 0
M  V30 4880 H 450.022 1.05358 5.38694 0
M  V30 4881 H 450.283 -0.379111 4.40472 0
M  V30 4882 N 449.342 -1.36122 0.79427 0
M  V30 4883 C 450.57 -2.03362 0.380989 0
M  V30 4884 C 450.985 -1.59881 -1.00416 0
M  V30 4885 O 450.342 -0.790515 -1.6449 0
M  V30 4886 C 450.393 -3.58804 0.440649 0
M  V30 4887 O 450.114 -4.007 1.77118 0
M  V30 4888 C 451.615 -4.43296 0.0186117 0
M  V30 4889 H 448.835 -0.652526 0.156367 0
M  V30 4890 H 451.379 -1.73998 1.07447 0
M  V30 4891 H 449.534 -3.8686 -0.204458 0
M  V30 4892 H 449.948 -4.95309 1.72538 0
M  V30 4893 H 451.422 -5.51887 0.111488 0
M  V30 4894 H 451.899 -4.2684 -1.03461 0
M  V30 4895 H 452.505 -4.20512 0.636395 0
M  V30 4896 N 450.82 -0.546701 -1.47814 0
M  V30 4897 C 451.73 0.21026 -2.33656 0
M  V30 4898 C 452.746 0.922413 -1.47538 0
M  V30 4899 O 453.922 0.893652 -1.80488 0
M  V30 4900 C 450.987 1.23348 -3.24016 0
M  V30 4901 C 450.048 0.529883 -4.26017 0
M  V30 4902 C 449.281 1.50435 -5.12059 0
M  V30 4903 O 449.504 2.73837 -5.00369 0
M  V30 4904 O 448.438 1.03459 -5.92942 0
M  V30 4905 H 452.264 -0.493605 -2.99662 0
M  V30 4906 H 449.849 -0.307427 -1.46203 0
M  V30 4907 H 451.731 1.82438 -3.79861 0
M  V30 4908 H 450.406 1.91945 -2.60651 0
M  V30 4909 H 449.313 -0.101948 -3.73961 0
M  V30 4910 H 450.646 -0.11445 -4.92067 0
M  V30 4911 N 452.299 1.55045 -0.282633 0
M  V30 4912 C 453.545 2.00056 0.332481 0
M  V30 4913 C 453.878 1.1708 1.54939 0
M  V30 4914 O 453.153 0.2427 1.9298 0
M  V30 4915 C 453.436 3.53086 0.70725 0
M  V30 4916 C 453.289 4.46813 -0.517521 0
M  V30 4917 C 454.608 4.12245 1.54084 0
M  V30 4918 H 451.727 0.727268 0.119373 0
M  V30 4919 H 454.369 1.85932 -0.391076 0
M  V30 4920 H 452.519 3.65253 1.32372 0
M  V30 4921 H 454.191 4.46579 -1.15607 0
M  V30 4922 H 452.434 4.18163 -1.1542 0
M  V30 4923 H 453.105 5.51595 -0.211426 0
M  V30 4924 H 455.581 4.03401 1.02013 0
M  V30 4925 H 454.457 5.19515 1.77186 0
M  V30 4926 H 454.718 3.62951 2.52427 0
M  V30 4927 N 453.777 0.010035 1.57597 0
M  V30 4928 C 455.054 -0.710296 1.82248 0
M  V30 4929 C 455.434 -1.91426 0.889911 0
M  V30 4930 O 454.782 -2.28424 -0.0590292 0
M  V30 4931 C 454.992 -1.10655 3.30993 0
M  V30 4932 C 456.34 -1.50621 3.96987 0
M  V30 4933 O 457.364 -1.20007 3.35375 0
M  V30 4934 O 456.223 -2.07587 5.05539 0
M  V30 4935 H 453.317 -0.34673 0.750804 0
M  V30 4936 H 455.863 0.0362578 1.69661 0
M  V30 4937 H 454.635 -0.248826 3.90508 0
M  V30 4938 H 454.258 -1.91189 3.48615 0
M  V30 4939 N 455.255 -1.55392 -0.262866 0
M  V30 4940 C 456.188 -1.8391 -1.35101 0
M  V30 4941 C 457.166 -0.692901 -1.47097 0
M  V30 4942 O 458.35 -0.936979 -1.63563 0
M  V30 4943 C 455.477 -2.00969 -2.72634 0
M  V30 4944 C 454.523 -3.23559 -2.7787 0
M  V30 4945 S 455.356 -4.80647 -2.3609 0
M  V30 4946 C 456.512 -5.00692 -3.75578 0
M  V30 4947 H 456.745 -2.75918 -1.1071 0
M  V30 4948 H 454.278 -1.47294 -0.463029 0
M  V30 4949 H 456.236 -2.11482 -3.51832 0
M  V30 4950 H 454.897 -1.09832 -2.94272 0
M  V30 4951 H 454.09 -3.32413 -3.78837 0
M  V30 4952 H 453.692 -3.11689 -2.06702 0
M  V30 4953 H 455.984 -4.87055 -4.70939 0
M  V30 4954 H 456.927 -6.02717 -3.71669 0
M  V30 4955 H 457.335 -4.28619 -3.6735 0
M  V30 4956 N 456.733 0.527833 -1.48498 0
M  V30 4957 C 458.01 1.28905 -1.47115 0
M  V30 4958 C 458.39 2.10297 -0.184007 0
M  V30 4959 O 457.738 2.12728 0.834218 0
M  V30 4960 C 457.948 2.16866 -2.73441 0
M  V30 4961 C 459.296 2.76936 -3.21857 0
M  V30 4962 O 460.32 2.27152 -2.74373 0
M  V30 4963 O 459.179 3.67496 -4.04486 0
M  V30 4964 H 456.273 0.581918 -0.587623 0
M  V30 4965 H 458.819 0.544311 -1.60734 0
M  V30 4966 H 457.591 1.56521 -3.58632 0
M  V30 4967 H 457.214 2.98583 -2.62553 0
M  V30 4968 N 458.211 1.37122 0.776871 0
M  V30 4969 C 459.141 1.35164 1.90402 0
M  V30 4970 C 460.122 0.221069 1.68657 0
M  V30 4971 O 461.307 0.420642 1.8959 0
M  V30 4972 C 458.437 1.15274 3.27611 0
M  V30 4973 C 457.391 2.25289 3.63908 0
M  V30 4974 C 456.717 1.90527 4.99603 0
M  V30 4975 C 458.017 3.67446 3.71188 0
M  V30 4976 H 459.711 2.29482 1.92297 0
M  V30 4977 H 457.257 1.10465 0.923773 0
M  V30 4978 H 459.21 1.12536 4.06096 0
M  V30 4979 H 457.934 0.174102 3.26136 0
M  V30 4980 H 456.593 2.27174 2.87728 0
M  V30 4981 H 456.241 0.91206 4.94662 0
M  V30 4982 H 455.941 2.64193 5.24858 0
M  V30 4983 H 457.465 1.89367 5.80493 0
M  V30 4984 H 458.879 3.67719 4.39836 0
M  V30 4985 H 457.276 4.40123 4.07936 0
M  V30 4986 H 458.346 4.01443 2.71977 0
M  V30 4987 N 459.689 -1.00246 1.21608 0
M  V30 4988 C 460.966 -1.71336 0.943568 0
M  V30 4989 C 461.346 -2.03972 -0.543943 0
M  V30 4990 O 460.694 -1.71545 -1.50946 0
M  V30 4991 C 460.904 -2.97094 1.83128 0
M  V30 4992 C 462.252 -3.70071 2.08165 0
M  V30 4993 O 463.276 -3.07081 1.80498 0
M  V30 4994 O 462.135 -4.83376 2.54971 0
M  V30 4995 H 459.229 -0.747386 0.354039 0
M  V30 4996 H 461.775 -1.05967 1.32549 0
M  V30 4997 H 460.547 -2.69407 2.83788 0
M  V30 4998 H 460.17 -3.70204 1.45034 0
M  V30 4999 N 461.167 -1.02423 -1.1978 0
M  V30 5000 C 462.392 -0.7373 -1.93852 0
M  V30 5001 C 462.817 0.696923 -1.74713 0
M  V30 5002 O 462.175 1.48056 -1.04638 0
M  V30 5003 C 462.223 -1.08783 -3.438 0
M  V30 5004 O 461.327 -0.20383 -4.11896 0
M  V30 5005 H 460.668 -0.27284 -0.605355 0
M  V30 5006 H 463.198 -1.36966 -1.51992 0
M  V30 5007 H 463.208 -1.04276 -3.9445 0
M  V30 5008 H 461.883 -2.13274 -3.57053 0
M  V30 5009 H 460.46 -0.307091 -3.71633 0
M  V30 5010 N 462.645 1.35699 -0.801477 0
M  V30 5011 C 463.875 2.02862 -0.3912 0
M  V30 5012 C 464.283 1.60552 1.00099 0
M  V30 5013 O 463.626 0.796215 1.65548 0
M  V30 5014 C 463.688 3.57386 -0.389299 0
M  V30 5015 C 463.352 4.22943 -1.73113 0
M  V30 5016 C 464.349 4.44984 -2.68859 0
M  V30 5017 C 462.034 4.60167 -2.01373 0
M  V30 5018 C 464.028 5.03345 -3.91053 0
M  V30 5019 C 461.715 5.18243 -3.23832 0
M  V30 5020 C 462.713 5.39773 -4.1849 0
M  V30 5021 O 462.401 5.96626 -5.38788 0
M  V30 5022 H 462.133 0.657341 -0.157732 0
M  V30 5023 H 464.687 1.74407 -1.08496 0
M  V30 5024 H 462.917 3.85011 0.361031 0
M  V30 5025 H 464.606 4.059 -0.0020365 0
M  V30 5026 H 465.372 4.1661 -2.48316 0
M  V30 5027 H 461.251 4.42726 -1.28508 0
M  V30 5028 H 464.795 5.20065 -4.64949 0
M  V30 5029 H 460.692 5.46044 -3.44248 0
M  V30 5030 H 461.46 6.15082 -5.40015 0
M  V30 5031 N 464.123 0.554532 1.47522 0
M  V30 5032 C 465.055 -0.232106 2.28022 0
M  V30 5033 C 466.068 -0.881865 1.36847 0
M  V30 5034 O 467.257 -0.756168 1.61692 0
M  V30 5035 C 464.357 -1.34604 3.11022 0
M  V30 5036 C 463.53 -0.793582 4.30141 0
M  V30 5037 C 462.589 -1.79168 4.94758 0
M  V30 5038 O 461.615 -1.33886 5.5323 0
M  V30 5039 N 462.817 -3.12495 4.89211 0
M  V30 5040 H 465.582 0.458407 2.96173 0
M  V30 5041 H 463.143 0.390433 1.57122 0
M  V30 5042 H 465.135 -2.01243 3.51118 0
M  V30 5043 H 463.705 -1.93983 2.45131 0
M  V30 5044 H 462.925 0.0495025 3.94169 0
M  V30 5045 H 464.213 -0.403776 5.07195 0
M  V30 5046 H 463.611 -3.51931 4.42901 0
M  V30 5047 H 462.168 -3.74698 5.33333 0
M  V30 5048 N 465.601 -1.54893 0.290851 0
M  V30 5049 C 466.85 -1.99111 -0.322113 0
M  V30 5050 C 467.163 -1.18283 -1.55784 0
M  V30 5051 O 468.369 -1.5272 -2.24475 0
M  V30 5052 C 466.825 -3.54442 -0.624438 0
M  V30 5053 C 466.433 -4.44066 0.592373 0
M  V30 5054 C 468.177 -4.07211 -1.19916 0
M  V30 5055 C 466.084 -5.90812 0.263762 0
M  V30 5056 H 465.014 -0.743712 -0.124133 0
M  V30 5057 H 467.665 -1.79132 0.39797 0
M  V30 5058 H 466.047 -3.70281 -1.40384 0
M  V30 5059 H 467.221 -4.39999 1.36886 0
M  V30 5060 H 465.536 -4.02015 1.08502 0
M  V30 5061 H 468.133 -5.14407 -1.45909 0
M  V30 5062 H 468.476 -3.57196 -2.13815 0
M  V30 5063 H 469.009 -3.94873 -0.481687 0
M  V30 5064 H 465.748 -6.44955 1.17105 0
M  V30 5065 H 465.268 -5.97911 -0.475655 0
M  V30 5066 H 466.947 -6.46852 -0.138354 0
M  V30 5067 N 467.08 -0.0183926 -1.57589 0
M  V30 5068 C 468.043 0.951986 -2.08494 0
M  V30 5069 C 469.043 1.26092 -0.997874 0
M  V30 5070 O 470.233 1.20304 -1.25987 0
M  V30 5071 C 467.365 2.27165 -2.54182 0
M  V30 5072 H 468.558 0.511307 -2.95509 0
M  V30 5073 H 466.111 0.229444 -1.54607 0
M  V30 5074 H 466.846 2.75884 -1.70465 0
M  V30 5075 H 466.631 2.06057 -3.33591 0
M  V30 5076 H 468.121 2.9674 -2.93828 0
M  V30 5077 N 468.558 1.5553 0.254621 0
M  V30 5078 C 469.488 1.9268 1.31897 0
M  V30 5079 C 470.469 0.790797 1.506 0
M  V30 5080 O 471.654 1.05045 1.63337 0
M  V30 5081 C 468.784 2.21477 2.67517 0
M  V30 5082 C 467.738 3.37256 2.63519 0
M  V30 5083 C 467.064 3.51576 4.02862 0
M  V30 5084 C 468.364 4.73157 2.21179 0
M  V30 5085 H 470.058 2.81832 1.01051 0
M  V30 5086 H 467.604 1.35599 0.484662 0
M  V30 5087 H 469.557 2.46055 3.42104 0
M  V30 5088 H 468.281 1.29144 2.99982 0
M  V30 5089 H 466.94 3.12675 1.9139 0
M  V30 5090 H 466.588 2.56676 4.32581 0
M  V30 5091 H 466.288 4.2943 4.01078 0
M  V30 5092 H 467.812 3.78467 4.79161 0
M  V30 5093 H 469.226 4.97158 2.85494 0
M  V30 5094 H 467.623 5.54058 2.30521 0
M  V30 5095 H 468.693 4.70739 1.16332 0
M  V30 5096 N 470.036 -0.519951 1.48776 0
M  V30 5097 C 470.946 -1.65025 1.66745 0
M  V30 5098 C 471.962 -1.6508 0.549954 0
M  V30 5099 O 473.138 -1.83848 0.822295 0
M  V30 5100 C 470.203 -3.0146 1.71238 0
M  V30 5101 C 469.264 -3.12182 2.94688 0
M  V30 5102 C 468.497 -4.42109 2.98958 0
M  V30 5103 O 468.72 -5.29799 2.1135 0
M  V30 5104 O 467.654 -4.57406 3.91233 0
M  V30 5105 H 471.48 -1.52801 2.62461 0
M  V30 5106 H 469.065 -0.694157 1.32294 0
M  V30 5107 H 470.947 -3.82584 1.76657 0
M  V30 5108 H 469.622 -3.13988 0.786975 0
M  V30 5109 H 468.529 -2.30316 2.94797 0
M  V30 5110 H 469.862 -3.04574 3.86646 0
M  V30 5111 N 471.514 -1.37532 -0.769588 0
M  V30 5112 C 472.424 -1.35668 -1.91393 0
M  V30 5113 C 473.44 -0.255954 -1.72107 0
M  V30 5114 O 474.616 -0.491704 -1.95305 0
M  V30 5115 C 471.681 -1.16481 -3.26547 0
M  V30 5116 C 470.742 -2.36212 -3.58472 0
M  V30 5117 C 469.975 -2.17932 -4.87177 0
M  V30 5118 O 470.198 -1.1647 -5.58382 0
M  V30 5119 O 469.132 -3.06167 -5.18214 0
M  V30 5120 H 472.958 -2.32055 -1.95918 0
M  V30 5121 H 470.543 -1.18284 -0.912641 0
M  V30 5122 H 472.425 -1.07778 -4.07384 0
M  V30 5123 H 471.1 -0.231687 -3.2287 0
M  V30 5124 H 470.007 -2.50488 -2.77861 0
M  V30 5125 H 471.34 -3.281 -3.66894 0
M  V30 5126 N 472.992 0.995999 -1.22138 0
M  V30 5127 C 474.238 1.73767 -1.04561 0
M  V30 5128 C 474.571 1.89633 0.418698 0
M  V30 5129 O 473.846 1.43723 1.3105 0
M  V30 5130 C 474.129 3.14505 -1.75382 0
M  V30 5131 C 473.982 3.06306 -3.29388 0
M  V30 5132 C 475.301 4.13615 -1.50369 0
M  V30 5133 H 472.42 0.630728 -0.38125 0
M  V30 5134 H 475.062 1.16057 -1.50435 0
M  V30 5135 H 473.212 3.63775 -1.36383 0
M  V30 5136 H 474.884 2.64681 -3.77812 0
M  V30 5137 H 473.127 2.43186 -3.59226 0
M  V30 5138 H 473.798 4.05884 -3.74116 0
M  V30 5139 H 476.274 3.73089 -1.84239 0
M  V30 5140 H 475.15 5.10212 -2.02421 0
M  V30 5141 H 475.411 4.39949 -0.435611 0
M  V30 5142 N 474.47 1.03057 1.19235 0
M  V30 5143 C 475.4 0.633497 2.24742 0
M  V30 5144 C 476.381 -0.358335 1.66283 0
M  V30 5145 O 477.566 -0.240676 1.92703 0
M  V30 5146 C 474.696 -0.0147648 3.47297 0
M  V30 5147 C 473.65 0.899527 4.18441 0
M  V30 5148 C 472.976 0.116281 5.34574 0
M  V30 5149 C 474.276 2.21404 4.73051 0
M  V30 5150 H 475.97 1.5155 2.58211 0
M  V30 5151 H 473.516 0.73014 1.24117 0
M  V30 5152 H 475.469 -0.304202 4.20301 0
M  V30 5153 H 474.193 -0.931577 3.13032 0
M  V30 5154 H 472.852 1.17319 3.47321 0
M  V30 5155 H 472.5 -0.802619 4.96555 0
M  V30 5156 H 472.2 0.725293 5.83107 0
M  V30 5157 H 473.724 -0.166376 6.10373 0
M  V30 5158 H 475.138 1.98601 5.37802 0
M  V30 5159 H 473.535 2.77512 5.32078 0
M  V30 5160 H 474.605 2.86752 3.91026 0
M  V30 5161 N 475.948 -1.35272 0.808662 0
M  V30 5162 C 477.176 -2.02946 0.402537 0
M  V30 5163 C 477.591 -1.60937 -0.987147 0
M  V30 5164 O 476.948 -0.807917 -1.63643 0
M  V30 5165 C 476.999 -3.58317 0.47868 0
M  V30 5166 O 476.72 -3.98799 1.81358 0
M  V30 5167 C 478.221 -4.43251 0.0656281 0
M  V30 5168 H 475.441 -0.650831 0.163279 0
M  V30 5169 H 477.985 -1.72849 1.09286 0
M  V30 5170 H 476.14 -3.87055 -0.163415 0
M  V30 5171 H 476.554 -4.93451 1.77781 0
M  V30 5172 H 478.028 -5.51738 0.170017 0
M  V30 5173 H 478.505 -4.27913 -0.989278 0
M  V30 5174 H 479.111 -4.19813 0.68096 0
M  V30 5175 N 477.426 -0.562348 -1.47226 0
M  V30 5176 C 478.672 -0.0485293 -2.03342 0
M  V30 5177 C 479.027 1.28898 -1.42839 0
M  V30 5178 O 478.32 1.82719 -0.576563 0
M  V30 5179 C 478.514 0.0969817 -3.57268 0
M  V30 5180 C 478.343 -1.22487 -4.32697 0
M  V30 5181 C 477.113 -1.79357 -4.72397 0
M  V30 5182 C 479.311 -2.14332 -4.67511 0
M  V30 5183 N 477.293 -3.05493 -5.32491 0
M  V30 5184 C 478.664 -3.25049 -5.27961 0
M  V30 5185 C 480.719 -2.14263 -4.4944 0
M  V30 5186 C 479.422 -4.35804 -5.72248 0
M  V30 5187 C 481.448 -3.24033 -4.94729 0
M  V30 5188 C 480.81 -4.3347 -5.55233 0
M  V30 5189 H 476.909 -0.0600464 -0.779691 0
M  V30 5190 H 479.493 -0.750769 -1.79643 0
M  V30 5191 H 477.664 0.768353 -3.80724 0
M  V30 5192 H 479.396 0.613333 -4.00025 0
M  V30 5193 H 476.151 -1.33093 -4.54514 0
M  V30 5194 H 476.575 -3.698 -5.67077 0
M  V30 5195 H 481.217 -1.30935 -4.02015 0
M  V30 5196 H 478.935 -5.19888 -6.18661 0
M  V30 5197 H 482.521 -3.25073 -4.82513 0
M  V30 5198 H 481.401 -5.17008 -5.89638 0
M  V30 5199 N 478.904 1.54736 -0.299062 0
M  V30 5200 C 479.834 2.26409 0.571085 0
M  V30 5201 C 480.815 1.2629 1.13951 0
M  V30 5202 O 482 1.55059 1.16921 0
M  V30 5203 C 479.13 3.00338 1.74396 0
M  V30 5204 C 478.084 4.07588 1.30599 0
M  V30 5205 C 477.41 4.69222 2.56387 0
M  V30 5206 C 478.71 5.20455 0.438645 0
M  V30 5207 H 480.404 2.99388 -0.0266991 0
M  V30 5208 H 477.95 1.43993 -0.0142812 0
M  V30 5209 H 479.903 3.49198 2.35878 0
M  V30 5210 H 478.627 2.24934 2.36796 0
M  V30 5211 H 477.286 3.59575 0.71424 0
M  V30 5212 H 476.934 3.9046 3.17097 0
M  V30 5213 H 476.634 5.41653 2.27784 0
M  V30 5214 H 478.158 5.20844 3.18675 0
M  V30 5215 H 479.572 5.65221 0.959085 0
M  V30 5216 H 477.969 5.99594 0.246466 0
M  V30 5217 H 479.039 4.8192 -0.536738 0
M  V30 5218 N 480.382 0.0267497 1.57577 0
M  V30 5219 C 481.312 -0.954308 2.13108 0
M  V30 5220 C 482.293 -1.34088 1.04663 0
M  V30 5221 O 483.478 -1.41992 1.32484 0
M  V30 5222 C 480.608 -2.23744 2.65624 0
M  V30 5223 C 479.562 -1.99168 3.78835 0
M  V30 5224 C 478.888 -3.33726 4.17769 0
M  V30 5225 C 480.188 -1.33277 5.0501 0
M  V30 5226 H 481.882 -0.491848 2.95332 0
M  V30 5227 H 479.428 -0.23514 1.42067 0
M  V30 5228 H 481.381 -2.92754 3.03106 0
M  V30 5229 H 480.105 -2.72151 1.80558 0
M  V30 5230 H 478.764 -1.32577 3.41788 0
M  V30 5231 H 478.412 -3.79888 3.29688 0
M  V30 5232 H 478.112 -3.18089 4.94058 0
M  V30 5233 H 479.636 -4.04008 4.57832 0
M  V30 5234 H 481.05 -1.92283 5.40093 0
M  V30 5235 H 479.447 -1.28045 5.8628 0
M  V30 5236 H 480.517 -0.305411 4.83937 0
M  V30 5237 N 481.861 -1.55662 -0.24637 0
M  V30 5238 C 483.086 -1.81914 -0.996093 0
M  V30 5239 C 483.511 -0.603875 -1.78143 0
M  V30 5240 O 482.869 0.447091 -1.75701 0
M  V30 5241 C 482.917 -3.05908 -1.90925 0
M  V30 5242 O 482.021 -2.82861 -3.00105 0
M  V30 5243 H 481.362 -0.600481 -0.283406 0
M  V30 5244 H 483.892 -2.02848 -0.267199 0
M  V30 5245 H 483.902 -3.35356 -2.3238 0
M  V30 5246 H 482.577 -3.93999 -1.33183 0
M  V30 5247 H 481.154 -2.64583 -2.62775 0
M  V30 5248 N 483.339 0.512053 -1.4905 0
M  V30 5249 C 484.302 1.59704 -1.64399 0
M  V30 5250 C 485.302 1.52285 -0.516317 0
M  V30 5251 O 486.492 1.55635 -0.782527 0
M  V30 5252 C 483.624 2.9935 -1.63102 0
M  V30 5253 H 484.817 1.47428 -2.61161 0
M  V30 5254 H 482.37 0.735469 -1.37915 0
M  V30 5255 H 483.105 3.17116 -0.678836 0
M  V30 5256 H 482.89 3.06144 -2.44986 0
M  V30 5257 H 484.38 3.782 -1.77072 0
M  V30 5258 N 484.817 1.37938 0.762283 0
M  V30 5259 C 485.727 1.36681 1.90671 0
M  V30 5260 C 486.743 0.265078 1.71969 0
M  V30 5261 O 487.919 0.502055 1.95042 0
M  V30 5262 C 484.984 1.18211 3.25925 0
M  V30 5263 C 484.045 2.3811 3.57214 0
M  V30 5264 C 483.278 2.20512 4.86014 0
M  V30 5265 O 483.501 1.19429 5.57757 0
M  V30 5266 O 482.435 3.08911 5.16583 0
M  V30 5267 H 486.261 2.33091 1.94685 0
M  V30 5268 H 483.846 1.18767 0.906356 0
M  V30 5269 H 485.728 1.09937 4.06807 0
M  V30 5270 H 484.403 0.248807 3.22742 0
M  V30 5271 H 483.31 2.51958 2.76529 0
M  V30 5272 H 484.643 3.30041 3.65149 0
M  V30 5273 N 486.295 -0.989507 1.22664 0
M  V30 5274 C 487.572 -1.70326 0.961688 0
M  V30 5275 C 487.952 -2.04537 -0.522279 0
M  V30 5276 O 487.3 -1.73136 -1.49118 0
M  V30 5277 C 487.51 -2.95135 1.86269 0
M  V30 5278 C 488.858 -3.67842 2.12078 0
M  V30 5279 O 489.882 -3.0515 1.83745 0
M  V30 5280 O 488.741 -4.80644 2.60083 0
M  V30 5281 H 485.835 -0.743589 0.361946 0
M  V30 5282 H 488.381 -1.04555 1.33665 0
M  V30 5283 H 487.153 -2.66382 2.8663 0
M  V30 5284 H 486.776 -3.68645 1.48952 0
M  V30 5285 N 487.773 -1.03688 -1.18687 0
M  V30 5286 C 489.001 -0.757918 -1.92518 0
M  V30 5287 C 489.416 0.684398 -1.75959 0
M  V30 5288 O 488.773 1.46617 -1.08673 0
M  V30 5289 C 488.824 -1.10985 -3.44042 0
M  V30 5290 O 488.545 -2.49554 -3.60076 0
M  V30 5291 C 490.046 -0.854844 -4.3498 0
M  V30 5292 H 487.266 -0.276699 -0.611293 0
M  V30 5293 H 489.81 -1.38352 -1.50595 0
M  V30 5294 H 487.965 -0.529279 -3.83767 0
M  V30 5295 H 488.379 -2.6291 -4.53849 0
M  V30 5296 H 489.853 -1.15098 -5.39867 0
M  V30 5297 H 490.33 0.210507 -4.38695 0
M  V30 5298 H 490.936 -1.41853 -4.00946 0
M  V30 5299 N 489.251 1.34841 -0.815825 0
M  V30 5300 C 490.498 1.98499 -0.400535 0
M  V30 5301 C 490.826 1.64699 1.03463 0
M  V30 5302 O 490.081 0.907006 1.73412 0
M  V30 5303 C 490.38 3.53273 -0.541541 0
M  V30 5304 C 490.046 4.06966 -1.94138 0
M  V30 5305 C 488.708 4.21341 -2.32433 0
M  V30 5306 C 491.06 4.35933 -2.85677 0
M  V30 5307 C 488.388 4.62007 -3.61617 0
M  V30 5308 C 490.74 4.78042 -4.14317 0
M  V30 5309 C 489.404 4.90622 -4.52599 0
M  V30 5310 H 488.674 0.72636 -0.146566 0
M  V30 5311 H 491.321 1.60902 -1.0384 0
M  V30 5312 H 489.626 3.91387 0.179741 0
M  V30 5313 H 491.323 4.00497 -0.20085 0
M  V30 5314 H 487.913 3.96235 -1.63388 0
M  V30 5315 H 492.097 4.24372 -2.57337 0
M  V30 5316 H 487.353 4.69937 -3.91113 0
M  V30 5317 H 491.527 4.99415 -4.85342 0
M  V30 5318 H 489.154 5.2189 -5.52752 0
M  V30 5319 N 490.729 0.570148 1.46925 0
M  V30 5320 C 491.661 -0.207909 2.28255 0
M  V30 5321 C 492.674 -0.867301 1.37774 0
M  V30 5322 O 493.863 -0.738976 1.62485 0
M  V30 5323 C 490.963 -1.31298 3.12433 0
M  V30 5324 C 490.136 -0.747915 4.30958 0
M  V30 5325 C 489.195 -1.7391 4.9663 0
M  V30 5326 O 488.221 -1.2801 5.54619 0
M  V30 5327 N 489.423 -3.07288 4.92498 0
M  V30 5328 H 492.188 0.489794 2.95671 0
M  V30 5329 H 489.749 0.407076 1.56699 0
M  V30 5330 H 491.741 -1.97507 3.53232 0
M  V30 5331 H 490.311 -1.91373 2.47175 0
M  V30 5332 H 489.531 0.0913066 3.94094 0
M  V30 5333 H 490.819 -0.349958 5.07595 0
M  V30 5334 H 490.217 -3.47213 4.46609 0
M  V30 5335 H 488.774 -3.69021 5.37277 0
M  V30 5336 N 492.207 -1.54576 0.307264 0
M  V30 5337 C 493.117 -2.27435 -0.57536 0
M  V30 5338 C 494.133 -1.31183 -1.14311 0
M  V30 5339 O 495.309 -1.64175 -1.16656 0
M  V30 5340 C 492.374 -3.00566 -1.72803 0
M  V30 5341 C 491.435 -4.12369 -1.19373 0
M  V30 5342 C 490.668 -4.82003 -2.29147 0
M  V30 5343 O 490.891 -4.51038 -3.49171 0
M  V30 5344 O 489.825 -5.69271 -1.95485 0
M  V30 5345 H 493.651 -3.03696 0.0158558 0
M  V30 5346 H 491.236 -1.49219 0.0735064 0
M  V30 5347 H 493.118 -3.46416 -2.39946 0
M  V30 5348 H 491.793 -2.27195 -2.30574 0
M  V30 5349 H 490.7 -3.70905 -0.487851 0
M  V30 5350 H 492.033 -4.87736 -0.661376 0
M  V30 5351 N 493.685 -0.035106 -1.57561 0
M  V30 5352 C 494.617 0.973604 -2.07494 0
M  V30 5353 C 495.63 1.28504 -0.999534 0
M  V30 5354 O 496.819 1.24864 -1.27559 0
M  V30 5355 C 493.919 2.29945 -2.48955 0
M  V30 5356 C 493.092 2.1723 -3.79644 0
M  V30 5357 C 492.151 3.328 -4.07592 0
M  V30 5358 O 491.177 3.09418 -4.77754 0
M  V30 5359 N 492.379 4.56779 -3.58236 0
M  V30 5360 H 495.144 0.547525 -2.94656 0
M  V30 5361 H 492.705 0.151515 -1.61189 0
M  V30 5362 H 494.697 3.06097 -2.64739 0
M  V30 5363 H 493.267 2.64173 -1.67126 0
M  V30 5364 H 492.487 1.25768 -3.73599 0
M  V30 5365 H 493.775 2.05945 -4.65257 0
M  V30 5366 H 493.173 4.78668 -3.01485 0
M  V30 5367 H 491.73 5.30079 -3.79288 0
M  V30 5368 N 495.163 1.55791 0.238111 0
M  V30 5369 C 496.44 1.68798 0.98826 0
M  V30 5370 C 496.82 0.577562 2.03045 0
M  V30 5371 O 496.168 -0.41778 2.24648 0
M  V30 5372 C 496.378 3.09454 1.61367 0
M  V30 5373 C 497.726 3.68335 2.11221 0
M  V30 5374 O 498.75 3.1231 1.71292 0
M  V30 5375 O 497.609 4.6657 2.84561 0
M  V30 5376 H 494.703 0.686881 0.460568 0
M  V30 5377 H 497.249 1.68118 0.231202 0
M  V30 5378 H 496.021 3.81726 0.860295 0
M  V30 5379 H 495.644 3.14182 2.4367 0
M  V30 5380 N 496.642 -0.504142 1.49319 0
M  V30 5381 C 497.919 -1.26548 1.49147 0
M  V30 5382 C 498.299 -2.09977 0.21744 0
M  V30 5383 O 497.647 -2.14028 -0.800269 0
M  V30 5384 C 497.857 -2.12489 2.76857 0
M  V30 5385 C 499.205 -2.7178 3.26222 0
M  V30 5386 O 500.229 -2.22758 2.77952 0
M  V30 5387 O 499.088 -3.61015 4.10281 0
M  V30 5388 H 496.182 -0.572495 0.596806 0
M  V30 5389 H 498.728 -0.51867 1.61579 0
M  V30 5390 H 497.5 -1.50796 3.61077 0
M  V30 5391 H 497.123 -2.94368 2.6727 0
M  V30 5392 N 498.12 -1.38341 -0.754957 0
M  V30 5393 C 499.369 -1.33791 -1.5094 0
M  V30 5394 C 499.682 0.0699267 -1.95475 0
M  V30 5395 O 500.888 0.237956 -2.70455 0
M  V30 5396 C 499.344 -2.34934 -2.72643 0
M  V30 5397 C 498.952 -3.81332 -2.35138 0
M  V30 5398 C 500.696 -2.39425 -3.50536 0
M  V30 5399 C 498.603 -4.74164 -3.53444 0
M  V30 5400 H 497.533 -0.497314 -0.566741 0
M  V30 5401 H 500.184 -1.63888 -0.825403 0
M  V30 5402 H 498.566 -1.97878 -3.43017 0
M  V30 5403 H 499.74 -4.27319 -1.7244 0
M  V30 5404 H 498.055 -3.79946 -1.70382 0
M  V30 5405 H 500.652 -3.0598 -4.38498 0
M  V30 5406 H 500.995 -1.41278 -3.91594 0
M  V30 5407 H 501.528 -2.75274 -2.87174 0
M  V30 5408 H 498.267 -5.73501 -3.17453 0
M  V30 5409 H 497.787 -4.3287 -4.15191 0
M  V30 5410 H 499.466 -4.92111 -4.20043 0
M  V30 5411 N 499.598 0.982988 -1.23187 0
M  V30 5412 C 500.823 1.76455 -1.08988 0
M  V30 5413 C 501.248 1.84726 0.354691 0
M  V30 5414 O 500.606 1.30699 1.25649 0
M  V30 5415 C 500.654 3.17094 -1.71708 0
M  V30 5416 O 499.758 4.00648 -0.977477 0
M  V30 5417 H 499.099 0.542988 -0.382177 0
M  V30 5418 H 501.629 1.23413 -1.63188 0
M  V30 5419 H 501.639 3.67684 -1.76841 0
M  V30 5420 H 500.314 3.10389 -2.76823 0
M  V30 5421 H 498.891 3.59161 -1.0029 0
M  V30 5422 N 501.076 1.04316 1.18135 0
M  V30 5423 C 502.353 0.662166 1.84051 0
M  V30 5424 C 502.733 -0.858169 1.9287 0
M  V30 5425 O 502.081 -1.76062 1.45652 0
M  V30 5426 C 502.291 1.3409 3.22212 0
M  V30 5427 C 503.639 1.4733 3.9822 0
M  V30 5428 O 504.663 1.29921 3.31661 0
M  V30 5429 O 503.522 1.75722 5.17479 0
M  V30 5430 H 500.616 0.232005 0.79379 0
M  V30 5431 H 503.162 1.1422 1.25506 0
M  V30 5432 H 501.934 2.37853 3.10711 0
M  V30 5433 H 501.557 0.849649 3.88416 0
M  V30 5434 N 502.554 -1.34406 0.822964 0
M  V30 5435 C 503.831 -1.92733 0.333641 0
M  V30 5436 C 504.211 -1.75107 -1.17901 0
M  V30 5437 O 503.559 -1.12983 -1.98613 0
M  V30 5438 C 503.769 -3.40557 0.763023 0
M  V30 5439 C 505.117 -4.17709 0.761879 0
M  V30 5440 O 506.141 -3.49141 0.705606 0
M  V30 5441 O 505 -5.40082 0.835109 0
M  V30 5442 H 502.094 -0.821964 0.0911249 0
M  V30 5443 H 504.64 -1.4338 0.907757 0
M  V30 5444 H 503.412 -3.47187 1.8049 0
M  V30 5445 H 503.035 -3.97259 0.164605 0
M  V30 5446 N 504.032 -0.577932 -1.46621 0
M  V30 5447 C 505.278 -0.0617793 -2.02706 0
M  V30 5448 C 505.611 1.29294 -1.44903 0
M  V30 5449 O 504.886 1.8461 -0.61232 0
M  V30 5450 C 505.169 0.00911824 -3.60099 0
M  V30 5451 C 505.022 -1.37416 -4.28295 0
M  V30 5452 C 506.341 0.712159 -4.343 0
M  V30 5453 H 503.46 -0.0239246 -0.736612 0
M  V30 5454 H 506.102 -0.744211 -1.74818 0
M  V30 5455 H 504.252 0.590292 -3.83989 0
M  V30 5456 H 505.924 -2.00013 -4.15683 0
M  V30 5457 H 504.167 -1.94319 -3.87843 0
M  V30 5458 H 504.838 -1.27707 -5.37024 0
M  V30 5459 H 507.314 0.218486 -4.15526 0
M  V30 5460 H 506.19 0.730782 -5.44014 0
M  V30 5461 H 506.451 1.77251 -4.05012 0
M  V30 5462 N 505.51 1.54411 -0.315457 0
M  V30 5463 C 506.42 2.27737 0.56329 0
M  V30 5464 C 507.436 1.31787 1.13614 0
M  V30 5465 O 508.612 1.64791 1.15784 0
M  V30 5466 C 505.677 3.01478 1.71207 0
M  V30 5467 C 504.738 4.12997 1.17185 0
M  V30 5468 C 503.971 4.83212 2.26588 0
M  V30 5469 O 504.194 4.52884 3.46775 0
M  V30 5470 O 503.128 5.70299 1.92463 0
M  V30 5471 H 506.954 3.03683 -0.0319614 0
M  V30 5472 H 504.539 1.49178 -0.0814188 0
M  V30 5473 H 506.421 3.47683 2.38106 0
M  V30 5474 H 505.096 2.28414 2.29366 0
M  V30 5475 H 504.003 3.71159 0.468174 0
M  V30 5476 H 505.336 4.8808 0.635501 0
M  V30 5477 N 506.988 0.0434614 1.5754 0
M  V30 5478 C 507.898 -0.94893 2.14552 0
M  V30 5479 C 508.914 -1.34707 1.10136 0
M  V30 5480 O 510.09 -1.42557 1.42266 0
M  V30 5481 C 507.155 -2.208 2.67298 0
M  V30 5482 C 506.216 -1.86893 3.86484 0
M  V30 5483 C 505.449 -3.06797 4.36705 0
M  V30 5484 O 505.672 -4.19921 3.86034 0
M  V30 5485 O 504.606 -2.8826 5.28384 0
M  V30 5486 H 508.432 -0.494099 2.99654 0
M  V30 5487 H 506.017 -0.177989 1.48336 0
M  V30 5488 H 507.899 -2.94686 3.01228 0
M  V30 5489 H 506.574 -2.65436 1.85272 0
M  V30 5490 H 505.481 -1.10347 3.57455 0
M  V30 5491 H 506.814 -1.47062 4.69716 0
M  V30 5492 N 508.466 -1.55915 -0.229846 0
M  V30 5493 C 509.712 -1.78807 -0.956868 0
M  V30 5494 C 510.045 -0.611687 -1.84315 0
M  V30 5495 O 509.32 0.389398 -1.90562 0
M  V30 5496 C 509.603 -3.11718 -1.80288 0
M  V30 5497 C 509.456 -4.3979 -0.943649 0
M  V30 5498 C 510.775 -3.40999 -2.78222 0
M  V30 5499 H 507.894 -0.6505 -0.346437 0
M  V30 5500 H 510.536 -1.88648 -0.226252 0
M  V30 5501 H 508.686 -3.03459 -2.42579 0
M  V30 5502 H 510.358 -4.60059 -0.338121 0
M  V30 5503 H 508.601 -4.33086 -0.248705 0
M  V30 5504 H 509.272 -5.29208 -1.5698 0
M  V30 5505 H 511.748 -3.49332 -2.26067 0
M  V30 5506 H 510.624 -4.35183 -3.34526 0
M  V30 5507 H 510.885 -2.62754 -3.55546 0
M  V30 5508 N 509.944 0.496216 -1.49584 0
M  V30 5509 C 510.891 1.59722 -1.66606 0
M  V30 5510 C 511.861 1.58158 -0.507477 0
M  V30 5511 O 513.046 1.76072 -0.735076 0
M  V30 5512 C 510.186 2.97844 -1.74308 0
M  V30 5513 C 509.299 3.09388 -3.01502 0
M  V30 5514 C 508.434 4.38271 -3.00153 0
M  V30 5515 C 507.473 4.43466 -4.21906 0
M  V30 5516 N 506.61 5.63784 -4.1844 0
M  V30 5517 H 511.45 1.44515 -2.60613 0
M  V30 5518 H 508.987 0.703048 -1.29212 0
M  V30 5519 H 510.945 3.77907 -1.76754 0
M  V30 5520 H 509.575 3.11743 -0.837619 0
M  V30 5521 H 508.627 2.22357 -3.08645 0
M  V30 5522 H 509.939 3.09085 -3.91494 0
M  V30 5523 H 509.093 5.2666 -3.01188 0
M  V30 5524 H 507.832 4.41146 -2.07947 0
M  V30 5525 H 506.837 3.53478 -4.21109 0
M  V30 5526 H 508.062 4.42303 -5.1531 0
M  V30 5527 H 506.008 5.67491 -3.29074 0
M  V30 5528 H 505.925 5.65118 -5.02173 0
M  V30 5529 H 507.193 6.54367 -4.23585 0
M  V30 5530 N 511.423 1.38739 0.74761 0
M  V30 5531 C 512.7 1.25791 1.49786 0
M  V30 5532 C 513.08 -0.138075 2.10648 0
M  V30 5533 O 512.428 -1.14815 1.9756 0
M  V30 5534 C 512.638 2.37265 2.55942 0
M  V30 5535 C 513.986 2.75978 3.22679 0
M  V30 5536 O 515.01 2.36621 2.6625 0
M  V30 5537 O 513.869 3.43867 4.24756 0
M  V30 5538 H 510.963 0.492251 0.664543 0
M  V30 5539 H 513.509 1.50582 0.782511 0
M  V30 5540 H 512.281 3.30644 2.0926 0
M  V30 5541 H 511.904 2.14071 3.35051 0
M  V30 5542 N 512.901 -0.976442 1.23707 0
M  V30 5543 C 513.833 -2.07212 0.979574 0
M  V30 5544 C 514.846 -1.6273 -0.0478528 0
M  V30 5545 O 516.035 -1.77506 0.18815 0
M  V30 5546 C 513.135 -3.35835 0.45479 0
M  V30 5547 C 512.308 -4.09268 1.54331 0
M  V30 5548 C 511.367 -5.16166 1.02271 0
M  V30 5549 O 510.393 -5.42827 1.71254 0
M  V30 5550 N 511.595 -5.80313 -0.147419 0
M  V30 5551 H 514.36 -2.29878 1.92292 0
M  V30 5552 H 511.921 -1.14343 1.14618 0
M  V30 5553 H 513.913 -4.04597 0.0914631 0
M  V30 5554 H 512.483 -3.10106 -0.394068 0
M  V30 5555 H 511.703 -3.34906 2.07923 0
M  V30 5556 H 512.991 -4.55095 2.27522 0
M  V30 5557 H 512.389 -5.61043 -0.724353 0
M  V30 5558 H 510.946 -6.50231 -0.451972 0
M  V30 5559 N 514.379 -1.04941 -1.1758 0
M  V30 5560 C 515.626 -0.757989 -1.87779 0
M  V30 5561 C 515.954 0.714827 -1.80888 0
M  V30 5562 O 515.209 1.53824 -1.20982 0
M  V30 5563 C 515.508 -1.18062 -3.37337 0
M  V30 5564 C 515.174 -2.65521 -3.6443 0
M  V30 5565 C 513.836 -3.05804 -3.71534 0
M  V30 5566 C 516.188 -3.60822 -3.76108 0
M  V30 5567 C 513.516 -4.40256 -3.87803 0
M  V30 5568 C 515.868 -4.95005 -3.93895 0
M  V30 5569 C 514.532 -5.34945 -3.99237 0
M  V30 5570 H 513.802 -0.277368 -0.68713 0
M  V30 5571 H 516.449 -1.31603 -1.39115 0
M  V30 5572 H 514.754 -0.541525 -3.8804 0
M  V30 5573 H 516.451 -0.932368 -3.9001 0
M  V30 5574 H 513.041 -2.33324 -3.59524 0
M  V30 5575 H 517.225 -3.30841 -3.69943 0
M  V30 5576 H 512.481 -4.70707 -3.90186 0
M  V30 5577 H 516.655 -5.68746 -4.01872 0
M  V30 5578 H 514.282 -6.39135 -4.11596 0
M  V30 5579 N 515.857 1.33968 -0.830081 0
M  V30 5580 C 516.82 2.27694 -0.26235 0
M  V30 5581 C 517.82 1.50589 0.563876 0
M  V30 5582 O 519.01 1.70028 0.378941 0
M  V30 5583 C 516.142 3.35002 0.63138 0
M  V30 5584 H 517.335 2.79419 -1.08928 0
M  V30 5585 H 514.888 1.44221 -0.602486 0
M  V30 5586 H 515.623 2.88504 1.48109 0
M  V30 5587 H 515.408 3.92079 0.0403276 0
M  V30 5588 H 516.898 4.04897 1.02217 0
M  V30 5589 N 517.335 0.585699 1.46312 0
M  V30 5590 C 518.563 0.0781299 2.06752 0
M  V30 5591 C 518.978 -1.22812 1.43396 0
M  V30 5592 O 518.335 -1.74318 0.540314 0
M  V30 5593 C 518.386 -0.0911927 3.61385 0
M  V30 5594 O 518.107 1.16336 4.22371 0
M  V30 5595 C 519.608 -0.632765 4.38761 0
M  V30 5596 H 516.828 0.0588188 0.668417 0
M  V30 5597 H 519.372 0.807218 1.87894 0
M  V30 5598 H 517.527 -0.770514 3.7966 0
M  V30 5599 H 517.941 0.979082 5.15281 0
M  V30 5600 H 519.415 -0.70041 5.47538 0
M  V30 5601 H 519.892 -1.65039 4.07012 0
M  V30 5602 H 520.498 0.0117856 4.25298 0
M  V30 5603 N 518.813 -1.54241 0.323641 0
M  V30 5604 C 519.763 -2.21071 -0.557833 0
M  V30 5605 C 520.747 -1.19126 -1.08157 0
M  V30 5606 O 521.939 -1.44755 -1.01857 0
M  V30 5607 C 519.068 -2.97208 -1.71821 0
M  V30 5608 C 518.154 -4.06491 -1.20936 0
M  V30 5609 N 518.545 -5.04052 -0.420202 0
M  V30 5610 C 516.843 -4.20443 -1.48808 0
M  V30 5611 C 517.544 -5.81516 -0.146413 0
M  V30 5612 N 516.52 -5.38641 -0.732562 0
M  V30 5613 H 520.322 -2.93853 0.0523921 0
M  V30 5614 H 517.836 -1.61883 0.129502 0
M  V30 5615 H 519.833 -3.4357 -2.36146 0
M  V30 5616 H 518.493 -2.25947 -2.33191 0
M  V30 5617 H 519.504 -5.17862 -0.0630401 0
M  V30 5618 H 516.181 -3.60396 -2.10762 0
M  V30 5619 H 517.571 -6.70119 0.488895 0
M  V30 5620 N 520.291 -0.0518155 -1.57515 0
M  V30 5621 C 521.201 0.937539 -2.15052 0
M  V30 5622 C 522.217 1.34121 -1.10849 0
M  V30 5623 O 523.393 1.418 -1.4302 0
M  V30 5624 C 520.458 2.19379 -2.68466 0
M  V30 5625 C 519.519 1.84841 -3.87469 0
M  V30 5626 C 518.752 3.04477 -4.38326 0
M  V30 5627 O 518.975 4.17868 -3.88256 0
M  V30 5628 O 517.909 2.85453 -5.29906 0
M  V30 5629 H 521.735 0.478201 -2.99912 0
M  V30 5630 H 519.32 0.17012 -1.48428 0
M  V30 5631 H 521.202 2.93084 -3.02787 0
M  V30 5632 H 519.877 2.64449 -1.86677 0
M  V30 5633 H 518.784 1.08449 -3.58036 0
M  V30 5634 H 520.117 1.44569 -4.7049 0
M  V30 5635 N 521.769 1.56035 0.221574 0
M  V30 5636 C 522.732 1.91584 1.2581 0
M  V30 5637 C 523.732 0.794425 1.39805 0
M  V30 5638 O 524.922 1.06217 1.38071 0
M  V30 5639 C 522.054 2.16663 2.63192 0
M  V30 5640 H 523.247 2.8429 0.954935 0
M  V30 5641 H 520.8 1.49316 0.461988 0
M  V30 5642 H 521.535 1.26508 2.98607 0
M  V30 5643 H 521.32 2.98358 2.5441 0
M  V30 5644 H 522.81 2.45262 3.37988 0
M  V30 5645 N 523.247 -0.488276 1.49845 0
M  V30 5646 C 524.494 -1.24157 1.59973 0
M  V30 5647 C 524.822 -1.92293 0.292182 0
M  V30 5648 O 524.077 -1.81942 -0.720813 0
M  V30 5649 C 524.376 -2.32152 2.71735 0
M  V30 5650 C 524.042 -1.81387 4.12807 0
M  V30 5651 C 522.704 -1.67262 4.51195 0
M  V30 5652 C 525.056 -1.43537 5.01045 0
M  V30 5653 C 522.384 -1.13685 5.7558 0
M  V30 5654 C 524.736 -0.914081 6.25961 0
M  V30 5655 C 523.4 -0.759327 6.63167 0
M  V30 5656 H 522.67 -0.454322 0.585383 0
M  V30 5657 H 525.317 -0.540261 1.83721 0
M  V30 5658 H 523.622 -3.08122 2.42008 0
M  V30 5659 H 525.319 -2.90164 2.76778 0
M  V30 5660 H 521.909 -1.93344 3.82513 0
M  V30 5661 H 526.093 -1.53292 4.72033 0
M  V30 5662 H 521.349 -1.00426 6.03096 0
M  V30 5663 H 525.523 -0.612066 6.93705 0
M  V30 5664 H 523.15 -0.342002 7.5943 0
M  V30 5665 N 524.725 -1.39134 -0.740242 0
M  V30 5666 C 525.658 -1.3182 -1.86276 0
M  V30 5667 C 526.636 -0.192794 -1.61453 0
M  V30 5668 O 527.82 -0.372365 -1.84786 0
M  V30 5669 C 524.947 -1.04564 -3.22155 0
M  V30 5670 C 523.993 -2.19224 -3.65846 0
M  V30 5671 S 524.826 -3.81466 -3.75824 0
M  V30 5672 C 525.982 -3.56425 -5.14502 0
M  V30 5673 H 526.215 -2.26822 -1.92195 0
M  V30 5674 H 523.748 -1.25127 -0.904576 0
M  V30 5675 H 525.706 -0.895228 -4.00619 0
M  V30 5676 H 524.367 -0.112578 -3.13898 0
M  V30 5677 H 523.56 -1.95732 -4.6444 0
M  V30 5678 H 523.162 -2.30441 -2.94572 0
M  V30 5679 H 525.454 -3.13366 -6.00673 0
M  V30 5680 H 526.397 -4.54462 -5.43019 0
M  V30 5681 H 526.805 -2.90641 -4.8393 0
M  V30 5682 N 526.204 0.969867 -1.24223 0
M  V30 5683 C 527.137 2.06279 -0.975926 0
M  V30 5684 C 528.115 1.62353 0.0895385 0
M  V30 5685 O 529.299 1.88442 -0.0469418 0
M  V30 5686 C 526.426 3.35391 -0.472315 0
M  V30 5687 C 525.472 3.98266 -1.526 0
M  V30 5688 S 526.305 4.36172 -3.10667 0
M  V30 5689 C 527.461 5.68423 -2.62003 0
M  V30 5690 H 527.694 2.28551 -1.90137 0
M  V30 5691 H 525.227 1.10748 -1.07584 0
M  V30 5692 H 527.185 4.10068 -0.188376 0
M  V30 5693 H 525.846 3.1111 0.432378 0
M  V30 5694 H 525.039 4.91307 -1.12399 0
M  V30 5695 H 524.641 3.30009 -1.75983 0
M  V30 5696 H 526.933 6.45842 -2.0468 0
M  V30 5697 H 527.876 6.13478 -3.53625 0
M  V30 5698 H 528.284 5.26928 -2.02502 0
M  V30 5699 N 527.682 1.05563 1.17022 0
M  V30 5700 C 528.592 0.670758 2.24807 0
M  V30 5701 C 529.608 -0.309865 1.71219 0
M  V30 5702 O 530.784 -0.161025 2.00755 0
M  V30 5703 C 527.849 0.055337 3.46656 0
M  V30 5704 C 526.91 1.08688 4.15314 0
M  V30 5705 C 526.143 0.500736 5.31346 0
M  V30 5706 O 526.366 -0.688718 5.66227 0
M  V30 5707 O 525.3 1.23683 5.89055 0
M  V30 5708 H 529.126 1.56914 2.60023 0
M  V30 5709 H 526.711 0.827428 1.24395 0
M  V30 5710 H 528.593 -0.286492 4.20425 0
M  V30 5711 H 527.268 -0.816638 3.13229 0
M  V30 5712 H 526.175 1.48077 3.43546 0
M  V30 5713 H 527.508 1.93014 4.52777 0
M  V30 5714 N 529.16 -1.33526 0.837174 0
M  V30 5715 C 530.09 -2.31764 0.284206 0
M  V30 5716 C 531.071 -1.58896 -0.607142 0
M  V30 5717 O 532.256 -1.86798 -0.531047 0
M  V30 5718 C 529.386 -3.43029 -0.542962 0
M  V30 5719 C 528.34 -4.27255 0.252451 0
M  V30 5720 C 527.666 -5.3012 -0.69836 0
M  V30 5721 C 528.966 -5.01229 1.46858 0
M  V30 5722 H 530.66 -2.78262 1.10502 0
M  V30 5723 H 528.206 -1.3378 0.532812 0
M  V30 5724 H 530.159 -4.1078 -0.940096 0
M  V30 5725 H 528.883 -2.95216 -1.39697 0
M  V30 5726 H 527.542 -3.61127 0.631124 0
M  V30 5727 H 527.19 -4.78564 -1.54872 0
M  V30 5728 H 526.89 -5.87353 -0.170274 0
M  V30 5729 H 528.414 -6.00737 -1.09305 0
M  V30 5730 H 529.828 -5.61756 1.14469 0
M  V30 5731 H 528.225 -5.68104 1.93333 0
M  V30 5732 H 529.295 -4.301 2.23924 0
M  V30 5733 N 530.638 -0.59345 -1.46 0
M  V30 5734 C 531.866 -0.0890934 -2.06708 0
M  V30 5735 C 532.281 1.2205 -1.44046 0
M  V30 5736 O 531.638 1.74029 -0.549551 0
M  V30 5737 C 531.689 0.0720263 -3.61428 0
M  V30 5738 O 531.41 -1.18574 -4.21748 0
M  V30 5739 C 532.911 0.609487 -4.3909 0
M  V30 5740 H 530.131 -0.0623628 -0.668096 0
M  V30 5741 H 532.675 -0.817171 -1.87464 0
M  V30 5742 H 530.83 0.750369 -3.80063 0
M  V30 5743 H 531.244 -1.0064 -5.14754 0
M  V30 5744 H 532.718 0.671363 -5.47902 0
M  V30 5745 H 533.195 1.62878 -4.07882 0
M  V30 5746 H 533.801 -0.03434 -4.25286 0
M  V30 5747 N 532.116 1.54067 -0.331816 0
M  V30 5748 C 533.079 2.23275 0.517768 0
M  V30 5749 C 534.079 1.22897 1.03697 0
M  V30 5750 O 535.269 1.47419 0.928084 0
M  V30 5751 C 532.401 2.94326 1.72004 0
M  V30 5752 H 533.594 2.99773 -0.0873507 0
M  V30 5753 H 531.147 1.56079 -0.0830042 0
M  V30 5754 H 531.882 2.21986 2.36417 0
M  V30 5755 H 531.667 3.67941 1.35507 0
M  V30 5756 H 533.157 3.47031 2.32291 0
M  V30 5757 N 533.594 0.0601682 1.57485 0
M  V30 5758 C 534.544 -0.920969 2.08572 0
M  V30 5759 C 535.528 -1.26617 0.992827 0
M  V30 5760 O 536.72 -1.24708 1.25606 0
M  V30 5761 C 533.849 -2.19267 2.64153 0
M  V30 5762 C 532.935 -1.87447 3.80427 0
M  V30 5763 N 533.326 -1.26025 4.89848 0
M  V30 5764 C 531.624 -2.17265 3.89502 0
M  V30 5765 C 532.325 -1.12036 5.70809 0
M  V30 5766 N 531.301 -1.62624 5.18705 0
M  V30 5767 H 535.103 -0.441561 2.90564 0
M  V30 5768 H 532.617 -0.144043 1.6176 0
M  V30 5769 H 534.614 -2.90462 2.99061 0
M  V30 5770 H 533.274 -2.67806 1.83603 0
M  V30 5771 H 534.285 -0.931336 5.09457 0
M  V30 5772 H 530.962 -2.68262 3.19909 0
M  V30 5773 H 532.352 -0.642783 6.68818 0
M  V30 5774 N 535.072 -1.5615 -0.213296 0
M  V30 5775 C 536.004 -1.89586 -1.28802 0
M  V30 5776 C 537.017 -0.784844 -1.42633 0
M  V30 5777 O 538.206 -1.06319 -1.43383 0
M  V30 5778 C 535.306 -2.09665 -2.66259 0
M  V30 5779 C 534.479 -3.40726 -2.7427 0
M  V30 5780 C 533.538 -3.50137 -3.92798 0
M  V30 5781 O 532.564 -4.23105 -3.8075 0
M  V30 5782 N 533.766 -2.81886 -5.07465 0
M  V30 5783 H 536.531 -2.82368 -1.00442 0
M  V30 5784 H 534.092 -1.56796 -0.403302 0
M  V30 5785 H 536.084 -2.13268 -3.43946 0
M  V30 5786 H 534.654 -1.23469 -2.87183 0
M  V30 5787 H 533.874 -3.4915 -1.82997 0
M  V30 5788 H 535.162 -4.27048 -2.76599 0
M  V30 5789 H 534.56 -2.22397 -5.2015 0
M  V30 5790 H 533.117 -2.91139 -5.83165 0
M  V30 5791 N 536.55 0.480323 -1.50102 0
M  V30 5792 C 537.775 1.26126 -1.64642 0
M  V30 5793 C 538.2 1.85257 -0.325823 0
M  V30 5794 O 537.558 1.66854 0.709194 0
M  V30 5795 C 537.606 2.35243 -2.73301 0
M  V30 5796 O 536.71 3.39646 -2.33911 0
M  V30 5797 H 536.051 0.371463 -0.550374 0
M  V30 5798 H 538.581 0.572696 -1.96421 0
M  V30 5799 H 538.591 2.80695 -2.96098 0
M  V30 5800 H 537.266 1.91574 -3.6915 0
M  V30 5801 H 535.843 2.99969 -2.21525 0
M  V30 5802 N 538.028 1.39524 0.732853 0
M  V30 5803 C 539.253 1.40329 1.52717 0
M  V30 5804 C 539.678 0.000286574 1.881 0
M  V30 5805 O 539.036 -0.987262 1.52062 0
M  V30 5806 C 539.084 2.28464 2.78992 0
M  V30 5807 O 538.188 1.716 3.75003 0
M  V30 5808 H 537.529 0.47778 0.461109 0
M  V30 5809 H 540.059 1.83546 0.903996 0
M  V30 5810 H 540.069 2.43051 3.27705 0
M  V30 5811 H 538.744 3.30425 2.52572 0
M  V30 5812 H 537.321 1.66267 3.33781 0
M  V30 5813 N 539.506 -0.963266 1.24736 0
M  V30 5814 C 540.752 -1.70933 1.09131 0
M  V30 5815 C 541.085 -1.90676 -0.368273 0
M  V30 5816 O 540.36 -1.47147 -1.27193 0
M  V30 5817 C 540.643 -3.09744 1.83658 0
M  V30 5818 C 540.496 -2.97465 3.37394 0
M  V30 5819 C 541.815 -4.09483 1.61282 0
M  V30 5820 H 538.934 -0.620398 0.397838 0
M  V30 5821 H 541.576 -1.12028 1.53459 0
M  V30 5822 H 539.726 -3.60031 1.4598 0
M  V30 5823 H 541.398 -2.54571 3.84696 0
M  V30 5824 H 539.641 -2.33576 3.65547 0
M  V30 5825 H 540.312 -3.95822 3.84745 0
M  V30 5826 H 542.788 -3.68073 1.94066 0
M  V30 5827 H 541.664 -5.04666 2.15878 0
M  V30 5828 H 541.925 -4.38639 0.552102 0
M  V30 5829 N 540.985 -1.06182 -1.16461 0
M  V30 5830 C 542.233 -0.776326 -1.86595 0
M  V30 5831 C 542.554 0.69921 -1.82033 0
M  V30 5832 O 541.824 1.50579 -1.2531 0
M  V30 5833 H 540.404 -0.284184 -0.690832 0
M  V30 5834 H 543.066 -1.34308 -1.41235 0
M  V30 5835 H 542.162 -1.10022 -2.92064 0
M  V30 5836 N 542.463 1.3308 -0.844243 0
M  V30 5837 C 543.688 2.02341 -0.455282 0
M  V30 5838 C 544.113 1.6308 0.93737 0
M  V30 5839 O 543.471 0.826118 1.61385 0
M  V30 5840 C 543.519 3.55743 -0.58988 0
M  V30 5841 O 542.623 4.1063 0.38166 0
M  V30 5842 H 541.964 0.637898 -0.184343 0
M  V30 5843 H 544.494 1.6986 -1.14056 0
M  V30 5844 H 544.504 4.05243 -0.473522 0
M  V30 5845 H 543.179 3.83662 -1.60549 0
M  V30 5846 H 541.756 3.72236 0.22241 0
M  V30 5847 N 543.941 0.601185 1.45683 0
M  V30 5848 C 545.187 0.0940202 2.02582 0
M  V30 5849 C 545.52 -1.26972 1.46941 0
M  V30 5850 O 544.795 -1.83613 0.641612 0
M  V30 5851 C 545.078 0.0481715 3.60068 0
M  V30 5852 C 544.931 1.44212 4.26055 0
M  V30 5853 C 546.25 -0.642975 4.35378 0
M  V30 5854 H 543.369 0.0356404 0.736138 0
M  V30 5855 H 546.011 0.771929 1.73612 0
M  V30 5856 H 544.161 -0.529128 3.8488 0
M  V30 5857 H 545.833 2.06601 4.12449 0
M  V30 5858 H 544.076 2.00465 3.84703 0
M  V30 5859 H 544.747 1.36234 5.34925 0
M  V30 5860 H 547.223 -0.152351 4.15821 0
M  V30 5861 H 546.099 -0.644141 5.45107 0
M  V30 5862 H 546.36 -1.70785 4.0778 0
M  V30 5863 N 545.419 -1.53889 0.339982 0
M  V30 5864 C 546.349 -2.27843 -0.510856 0
M  V30 5865 C 547.33 -1.29267 -1.10563 0
M  V30 5866 O 548.515 -1.58104 -1.12768 0
M  V30 5867 C 545.645 -3.04857 -1.66372 0
M  V30 5868 C 544.599 -4.10907 -1.19746 0
M  V30 5869 C 543.925 -4.75855 -2.43857 0
M  V30 5870 C 545.225 -5.21435 -0.300501 0
M  V30 5871 H 546.919 -2.99212 0.106067 0
M  V30 5872 H 544.465 -1.43904 0.0524533 0
M  V30 5873 H 546.418 -3.5533 -2.26537 0
M  V30 5874 H 545.142 -2.31133 -2.30749 0
M  V30 5875 H 543.801 -3.61342 -0.618654 0
M  V30 5876 H 543.449 -3.9873 -3.06633 0
M  V30 5877 H 543.149 -5.47502 -2.13343 0
M  V30 5878 H 544.673 -5.2911 -3.04754 0
M  V30 5879 H 546.087 -5.67565 -0.80889 0
M  V30 5880 H 544.484 -6.00036 -0.0874076 0
M  V30 5881 H 545.554 -4.80328 0.664321 0
M  V30 5882 N 546.897 -0.0685191 -1.57451 0
M  V30 5883 C 547.829 0.929372 -2.09512 0
M  V30 5884 C 548.842 1.26354 -1.02657 0
M  V30 5885 O 550.031 1.2213 -1.30179 0
M  V30 5886 C 547.131 2.24612 -2.53777 0
M  V30 5887 C 546.304 2.09128 -3.84167 0
M  V30 5888 C 545.363 3.24079 -4.14559 0
M  V30 5889 O 544.389 2.99215 -4.8421 0
M  V30 5890 N 545.591 4.49077 -3.67845 0
M  V30 5891 H 548.356 0.484901 -2.95751 0
M  V30 5892 H 545.917 0.11729 -1.61475 0
M  V30 5893 H 547.909 3.00412 -2.71172 0
M  V30 5894 H 546.479 2.60569 -1.72692 0
M  V30 5895 H 545.699 1.17815 -3.76182 0
M  V30 5896 H 546.987 1.9603 -4.69521 0
M  V30 5897 H 546.385 4.72165 -3.11571 0
M  V30 5898 H 544.942 5.21915 -3.90446 0
M  V30 5899 N 548.375 1.56261 0.205012 0
M  V30 5900 C 549.338 1.92908 1.23771 0
M  V30 5901 C 550.338 0.809208 1.38955 0
M  V30 5902 O 551.528 1.07676 1.36936 0
M  V30 5903 C 548.66 2.19442 2.60879 0
M  V30 5904 H 549.853 2.85287 0.924728 0
M  V30 5905 H 547.406 1.49798 0.446125 0
M  V30 5906 H 548.141 1.29668 2.97248 0
M  V30 5907 H 547.926 3.0104 2.51232 0
M  V30 5908 H 549.416 2.48833 3.35368 0
M  V30 5909 N 549.853 -0.472356 1.50355 0
M  V30 5910 C 551.101 -1.22211 1.60962 0
M  V30 5911 C 551.422 -1.92497 0.311439 0
M  V30 5912 O 550.692 -1.8405 -0.671002 0
M  V30 5913 H 549.272 -0.454092 0.593135 0
M  V30 5914 H 551.934 -0.544977 1.87126 0
M  V30 5915 H 551.03 -1.9707 2.42012 0
M  V30 5916 N 551.331 -1.39911 -0.725443 0
M  V30 5917 C 552.279 -1.39552 -1.86086 0
M  V30 5918 C 553.273 -0.277334 -1.67114 0
M  V30 5919 O 554.479 -0.447865 -1.74339 0
M  V30 5920 H 550.854 -0.435993 -0.612711 0
M  V30 5921 H 552.825 -2.35305 -1.83505 0
M  V30 5922 C 551.574 -1.26529 -3.2386 0
M  V30 5923 H 550.897 -2.11845 -3.3906 0
M  V30 5924 H 552.337 -1.30336 -4.03471 0
M  V30 5925 C 550.796 0.0254168 -3.3689 0
M  V30 5926 O 551.326 0.992048 -3.89257 0
M  V30 5927 N 549.532 0.0916528 -2.90455 0
M  V30 5928 H 549.079 -0.695675 -2.48028 0
M  V30 5929 H 549.037 0.954745 -2.99553 0
M  V30 5930 N 552.809 0.956637 -1.25245 0
M  V30 5931 C 553.741 2.05628 -1.01242 0
M  V30 5932 C 554.754 1.62785 0.0219579 0
M  V30 5933 O 555.943 1.77184 -0.216365 0
M  V30 5934 C 553.043 3.35069 -0.508161 0
M  V30 5935 C 552.216 4.06761 -1.60823 0
M  V30 5936 C 551.275 5.14473 -1.1047 0
M  V30 5937 O 550.301 5.40033 -1.79868 0
M  V30 5938 N 551.503 5.80474 0.0550773 0
M  V30 5939 H 554.268 2.2679 -1.95925 0
M  V30 5940 H 551.829 1.12505 -1.16423 0
M  V30 5941 H 553.821 4.044 -0.155819 0
M  V30 5942 H 552.391 3.10694 0.344683 0
M  V30 5943 H 551.611 3.31555 -2.13224 0
M  V30 5944 H 552.899 4.51418 -2.34733 0
M  V30 5945 H 552.297 5.62125 0.635004 0
M  V30 5946 H 550.854 6.50868 0.348469 0
M  V30 5947 N 554.287 1.06798 1.15896 0
M  V30 5948 C 555.217 0.704677 2.22613 0
M  V30 5949 C 556.198 -0.305252 1.67339 0
M  V30 5950 O 557.383 -0.179247 1.93371 0
M  V30 5951 C 554.513 0.0957325 3.47168 0
M  V30 5952 C 553.467 1.0322 4.15367 0
M  V30 5953 C 552.793 0.286293 5.33933 0
M  V30 5954 C 554.093 2.36341 4.65768 0
M  V30 5955 H 555.787 1.59688 2.53259 0
M  V30 5956 H 553.333 0.769257 1.21731 0
M  V30 5957 H 555.286 -0.170333 4.21056 0
M  V30 5958 H 554.01 -0.831516 3.15838 0
M  V30 5959 H 552.669 1.28309 3.43413 0
M  V30 5960 H 552.317 -0.644237 4.98857 0
M  V30 5961 H 552.017 0.910436 5.80504 0
M  V30 5962 H 553.541 0.0278938 6.10594 0
M  V30 5963 H 554.955 2.1561 5.31211 0
M  V30 5964 H 553.352 2.94299 5.2298 0
M  V30 5965 H 554.422 2.99047 3.81705 0
M  V30 5966 N 555.766 -1.3263 0.851289 0
M  V30 5967 C 557.015 -1.96633 0.449267 0
M  V30 5968 C 557.328 -1.68131 -0.999562 0
M  V30 5969 O 558.534 -2.25845 -1.50685 0
M  V30 5970 C 556.99 -3.51946 0.752446 0
M  V30 5971 C 556.598 -3.89311 2.21678 0
M  V30 5972 C 558.342 -4.22437 0.417983 0
M  V30 5973 C 556.249 -5.37655 2.46336 0
M  V30 5974 H 555.179 -0.735888 0.164269 0
M  V30 5975 H 557.83 -1.51073 1.0416 0
M  V30 5976 H 556.212 -3.95899 0.0895858 0
M  V30 5977 H 557.386 -3.56378 2.92115 0
M  V30 5978 H 555.701 -3.31836 2.51543 0
M  V30 5979 H 558.298 -5.31549 0.579674 0
M  V30 5980 H 558.641 -4.11349 -0.640115 0
M  V30 5981 H 559.174 -3.84057 1.03659 0
M  V30 5982 H 555.913 -5.5376 3.50757 0
M  V30 5983 H 555.433 -5.72005 1.80473 0
M  V30 5984 H 557.112 -6.04695 2.30115 0
M  V30 5985 N 557.244 -0.608902 -1.45362 0
M  V30 5986 C 558.472 -0.111013 -2.06602 0
M  V30 5987 C 558.887 1.20516 -1.45332 0
M  V30 5988 O 558.244 1.73437 -0.567978 0
M  V30 5989 C 558.295 0.033688 -3.61484 0
M  V30 5990 O 558.016 -1.23041 -4.20467 0
M  V30 5991 C 559.517 0.562882 -4.39712 0
M  V30 5992 H 556.737 -0.0694453 -0.667397 0
M  V30 5993 H 559.281 -0.837008 -1.86586 0
M  V30 5994 H 557.436 0.710016 -3.80838 0
M  V30 5995 H 557.85 -1.06094 -5.13658 0
M  V30 5996 H 559.324 0.613213 -5.48583 0
M  V30 5997 H 559.801 1.58543 -4.09586 0
M  V30 5998 H 560.407 -0.0794454 -4.25226 0
M  V30 5999 N 558.722 1.53707 -0.348139 0
M  V30 6000 C 559.654 2.22725 0.540946 0
M  V30 6001 C 560.667 1.2354 1.06027 0
M  V30 6002 O 561.856 1.49867 0.96964 0
M  V30 6003 C 558.956 2.89756 1.75768 0
M  V30 6004 C 558.129 4.15297 1.37285 0
M  V30 6005 C 557.188 4.65697 2.44976 0
M  V30 6006 O 556.214 5.29798 2.08092 0
M  V30 6007 N 557.416 4.42017 3.763 0
M  V30 6008 H 560.181 2.99658 -0.0501592 0
M  V30 6009 H 557.742 1.60979 -0.17248 0
M  V30 6010 H 559.734 3.20388 2.47252 0
M  V30 6011 H 558.304 2.16382 2.25605 0
M  V30 6012 H 557.524 3.9116 0.488584 0
M  V30 6013 H 558.812 4.96948 1.09179 0
M  V30 6014 H 558.21 3.9076 4.09051 0
M  V30 6015 H 556.767 4.77242 4.4394 0
M  V30 6016 N 560.2 0.0768682 1.57412 0
M  V30 6017 C 561.448 -0.589918 1.93299 0
M  V30 6018 C 561.769 -1.69842 0.958049 0
M  V30 6019 O 561.039 -1.95899 0.00703261 0
M  V30 6020 H 559.619 -0.220901 0.713591 0
M  V30 6021 H 562.281 0.135917 1.94425 0
M  V30 6022 H 561.377 -1.01195 2.95239 0
M  V30 6023 N 561.678 -1.56367 -0.196722 0
M  V30 6024 C 562.906 -1.84639 -0.933608 0
M  V30 6025 C 563.321 -0.659164 -1.76919 0
M  V30 6026 O 562.678 0.372142 -1.78665 0
M  V30 6027 C 562.729 -3.11694 -1.83109 0
M  V30 6028 O 562.45 -4.25838 -1.02924 0
M  V30 6029 C 563.951 -3.53132 -2.67979 0
M  V30 6030 H 561.171 -0.613188 -0.272473 0
M  V30 6031 H 563.715 -2.03475 -0.204465 0
M  V30 6032 H 561.87 -2.94759 -2.51387 0
M  V30 6033 H 562.284 -4.98178 -1.64069 0
M  V30 6034 H 563.758 -4.45005 -3.26611 0
M  V30 6035 H 564.235 -2.76045 -3.41608 0
M  V30 6036 H 564.841 -3.72592 -2.05074 0
M  V30 6037 N 563.156 0.464375 -1.50603 0
M  V30 6038 C 564.086 1.56944 -1.72889 0
M  V30 6039 C 565.067 1.59979 -0.577997 0
M  V30 6040 O 566.252 1.76138 -0.817855 0
M  V30 6041 C 563.382 2.95225 -1.8292 0
M  V30 6042 C 562.336 3.07056 -2.98162 0
M  V30 6043 C 561.662 4.47051 -2.93343 0
M  V30 6044 C 562.962 2.83648 -4.38567 0
M  V30 6045 H 564.656 1.38547 -2.65415 0
M  V30 6046 H 562.202 0.665082 -1.27721 0
M  V30 6047 H 564.155 3.72467 -1.97095 0
M  V30 6048 H 562.879 3.14793 -0.870209 0
M  V30 6049 H 561.538 2.32248 -2.83648 0
M  V30 6050 H 561.186 4.63547 -1.95276 0
M  V30 6051 H 560.886 4.55902 -3.70712 0
M  V30 6052 H 562.41 5.26304 -3.09575 0
M  V30 6053 H 563.824 3.50636 -4.53572 0
M  V30 6054 H 562.221 3.03937 -5.17438 0
M  V30 6055 H 563.291 1.79451 -4.50472 0
M  V30 6056 N 564.634 1.40294 0.718013 0
M  V30 6057 C 565.859 1.41941 1.5122 0
M  V30 6058 C 566.284 0.0202371 1.88089 0
M  V30 6059 O 565.642 -0.971078 1.53101 0
M  V30 6060 C 565.69 2.3141 2.76554 0
M  V30 6061 O 564.794 1.75567 3.73162 0
M  V30 6062 H 564.135 0.482644 0.456016 0
M  V30 6063 H 566.665 1.84494 0.884478 0
M  V30 6064 H 566.675 2.46513 3.25108 0
M  V30 6065 H 565.35 3.33085 2.49053 0
M  V30 6066 H 563.927 1.69798 3.31999 0
M  V30 6067 N 566.112 -0.949982 1.2575 0
M  V30 6068 C 567.389 -1.6718 1.01539 0
M  V30 6069 C 567.769 -2.06095 -0.456942 0
M  V30 6070 O 567.117 -1.77792 -1.43534 0
M  V30 6071 C 567.327 -2.8906 1.95564 0
M  V30 6072 C 568.675 -3.60909 2.23673 0
M  V30 6073 O 569.699 -2.9915 1.9336 0
M  V30 6074 O 568.558 -4.72127 2.75243 0
M  V30 6075 H 565.652 -0.731697 0.385419 0
M  V30 6076 H 568.198 -1.00249 1.36924 0
M  V30 6077 H 566.97 -2.57128 2.94959 0
M  V30 6078 H 566.593 -3.63719 1.60605 0
M  V30 6079 N 567.59 -1.07411 -1.15328 0
M  V30 6080 C 568.5 -0.706438 -2.23711 0
M  V30 6081 C 569.516 0.282586 -1.7169 0
M  V30 6082 O 570.692 0.129066 -2.00986 0
M  V30 6083 C 567.757 -0.11048 -3.46524 0
M  V30 6084 C 566.818 -1.15282 -4.13532 0
M  V30 6085 C 566.051 -0.585205 -5.30482 0
M  V30 6086 O 566.274 0.598549 -5.67251 0
M  V30 6087 O 565.208 -1.33039 -5.87013 0
M  V30 6088 H 569.034 -1.61031 -2.57493 0
M  V30 6089 H 566.619 -0.847113 -1.23062 0
M  V30 6090 H 568.501 0.21957 -4.20828 0
M  V30 6091 H 567.176 0.766703 -3.14489 0
M  V30 6092 H 566.083 -1.53523 -3.41147 0
M  V30 6093 H 567.416 -2.00192 -4.49649 0
M  V30 6094 N 569.068 1.32177 -0.85831 0
M  V30 6095 C 569.978 2.32561 -0.308606 0
M  V30 6096 C 570.994 1.64209 0.575462 0
M  V30 6097 O 572.17 1.95719 0.474961 0
M  V30 6098 C 569.235 3.43207 0.490909 0
M  V30 6099 C 568.296 4.27243 -0.419733 0
M  V30 6100 C 567.529 5.32605 0.341719 0
M  V30 6101 O 567.752 5.48332 1.57125 0
M  V30 6102 O 566.686 6.0118 -0.294379 0
M  V30 6103 H 570.512 2.81477 -1.14037 0
M  V30 6104 H 568.097 1.35866 -0.621349 0
M  V30 6105 H 569.979 4.10677 0.944574 0
M  V30 6106 H 568.654 2.96474 1.29941 0
M  V30 6107 H 567.561 3.62569 -0.921652 0
M  V30 6108 H 568.894 4.7751 -1.19352 0
M  V30 6109 N 570.547 0.616602 1.45037 0
M  V30 6110 C 571.457 -0.0985401 2.34393 0
M  V30 6111 C 572.473 -0.850971 1.51771 0
M  V30 6112 O 573.649 -0.806521 1.84546 0
M  V30 6113 C 570.714 -1.07748 3.29532 0
M  V30 6114 C 569.775 -0.326022 4.2806 0
M  V30 6115 C 569.008 -1.25833 5.18654 0
M  V30 6116 O 569.231 -2.49652 5.12864 0
M  V30 6117 O 568.165 -0.750512 5.97203 0
M  V30 6118 H 571.991 0.636016 2.96966 0
M  V30 6119 H 569.576 0.376832 1.44569 0
M  V30 6120 H 571.458 -1.64107 3.88133 0
M  V30 6121 H 570.133 -1.79291 2.69512 0
M  V30 6122 H 569.04 0.280253 3.73049 0
M  V30 6123 H 570.373 0.349091 4.9096 0
M  V30 6124 N 572.025 -1.5352 0.356285 0
M  V30 6125 C 573.272 -2.01117 -0.236303 0
M  V30 6126 C 573.6 -1.24381 -1.49531 0
M  V30 6127 O 572.855 -0.323057 -1.93015 0
M  V30 6128 C 573.154 -3.52607 -0.583369 0
M  V30 6129 C 572.82 -4.47151 0.58023 0
M  V30 6130 C 571.482 -4.72718 0.899528 0
M  V30 6131 C 573.834 -5.03137 1.36024 0
M  V30 6132 C 571.162 -5.51523 2.00098 0
M  V30 6133 C 573.514 -5.83145 2.45204 0
M  V30 6134 C 572.178 -6.07001 2.77679 0
M  V30 6135 H 571.448 -0.735938 -0.0864695 0
M  V30 6136 H 574.095 -1.85209 0.48683 0
M  V30 6137 H 572.4 -3.66413 -1.38739 0
M  V30 6138 H 574.097 -3.86901 -1.05397 0
M  V30 6139 H 570.687 -4.27394 0.321322 0
M  V30 6140 H 574.871 -4.83339 1.12682 0
M  V30 6141 H 570.127 -5.68229 2.25668 0
M  V30 6142 H 574.301 -6.25537 3.06067 0
M  V30 6143 H 571.928 -6.67851 3.63151 0
M  V30 6144 N 573.503 -0.0852151 -1.57369 0
M  V30 6145 C 574.413 0.891712 -2.16992 0
M  V30 6146 C 575.429 1.3174 -1.13669 0
M  V30 6147 O 576.605 1.38735 -1.45995 0
M  V30 6148 C 573.67 2.13635 -2.73059 0
M  V30 6149 C 572.731 1.7658 -3.91303 0
M  V30 6150 C 571.964 2.95111 -4.44686 0
M  V30 6151 O 572.187 4.09539 -3.97032 0
M  V30 6152 O 571.121 2.74149 -5.35841 0
M  V30 6153 H 574.947 0.414477 -3.00858 0
M  V30 6154 H 572.532 0.138598 -1.48756 0
M  V30 6155 H 574.414 2.86595 -3.08935 0
M  V30 6156 H 573.089 2.6043 -1.92244 0
M  V30 6157 H 571.996 1.00831 -3.60255 0
M  V30 6158 H 573.329 1.34557 -4.7345 0
M  V30 6159 N 574.981 1.5647 0.188427 0
M  V30 6160 C 576.23 1.80207 0.905995 0
M  V30 6161 C 576.543 0.659579 1.84144 0
M  V30 6162 O 577.749 0.781431 2.60011 0
M  V30 6163 C 576.205 3.19255 1.66145 0
M  V30 6164 C 575.813 4.41324 0.770504 0
M  V30 6165 C 577.557 3.52298 2.36826 0
M  V30 6166 C 575.464 5.71394 1.52521 0
M  V30 6167 H 574.394 0.671953 0.342045 0
M  V30 6168 H 577.045 1.82808 0.159164 0
M  V30 6169 H 575.427 3.10922 2.45242 0
M  V30 6170 H 576.601 4.60797 0.0177261 0
M  V30 6171 H 574.916 4.16035 0.174199 0
M  V30 6172 H 577.513 4.46715 2.93854 0
M  V30 6173 H 577.856 2.76359 3.11338 0
M  V30 6174 H 578.389 3.62108 1.6469 0
M  V30 6175 H 575.128 6.50316 0.82275 0
M  V30 6176 H 574.648 5.55928 2.25175 0
M  V30 6177 H 576.327 6.12747 2.07725 0
M  V30 6178 N 576.459 -0.456382 1.50847 0
M  V30 6179 C 577.391 -1.57033 1.66953 0
M  V30 6180 C 578.404 -1.53207 0.550593 0
M  V30 6181 O 579.593 -1.58328 0.824285 0
M  V30 6182 C 576.693 -2.95937 1.65149 0
M  V30 6183 C 575.866 -3.24475 2.93317 0
M  V30 6184 C 574.925 -4.43007 2.83957 0
M  V30 6185 O 573.951 -4.42592 3.57912 0
M  V30 6186 N 575.153 -5.45503 1.9851 0
M  V30 6187 H 577.918 -1.43629 2.63042 0
M  V30 6188 H 575.479 -0.645037 1.48495 0
M  V30 6189 H 577.471 -3.73224 1.56481 0
M  V30 6190 H 576.041 -3.03036 0.767343 0
M  V30 6191 H 575.261 -2.35664 3.16 0
M  V30 6192 H 576.549 -3.4036 3.78196 0
M  V30 6193 H 575.947 -5.48668 1.37766 0
M  V30 6194 H 574.504 -6.21716 1.95735 0
M  V30 6195 N 577.937 -1.40673 -0.710563 0
M  V30 6196 C 578.847 -1.43663 -1.85467 0
M  V30 6197 C 579.863 -0.328721 -1.70867 0
M  V30 6198 O 581.039 -0.574098 -1.93044 0
M  V30 6199 C 578.104 -1.30226 -3.21313 0
M  V30 6200 C 577.165 -2.51204 -3.48131 0
M  V30 6201 C 576.398 -2.38398 -4.77495 0
M  V30 6202 O 576.621 -1.40048 -5.5294 0
M  V30 6203 O 575.555 -3.2787 -5.04762 0
M  V30 6204 H 579.381 -2.40156 -1.859 0
M  V30 6205 H 576.966 -1.22049 -0.861652 0
M  V30 6206 H 578.848 -1.2496 -4.02446 0
M  V30 6207 H 577.523 -0.368419 -3.21597 0
M  V30 6208 H 576.43 -2.62048 -2.66987 0
M  V30 6209 H 577.763 -3.43366 -3.52648 0
M  V30 6210 N 579.415 0.9433 -1.26252 0
M  V30 6211 C 580.347 2.04542 -1.03417 0
M  V30 6212 C 581.36 1.62799 0.0046911 0
M  V30 6213 O 582.549 1.76944 -0.235146 0
M  V30 6214 C 579.649 3.34511 -0.543671 0
M  V30 6215 C 578.822 4.05033 -1.65128 0
M  V30 6216 C 577.881 5.13273 -1.1592 0
M  V30 6217 O 576.907 5.38095 -1.85586 0
M  V30 6218 N 578.109 5.805 -0.00649279 0
M  V30 6219 H 580.874 2.24699 -1.98319 0
M  V30 6220 H 578.435 1.11264 -1.1761 0
M  V30 6221 H 580.427 4.04212 -0.198703 0
M  V30 6222 H 578.997 3.11042 0.311711 0
M  V30 6223 H 578.217 3.29275 -2.16729 0
M  V30 6224 H 579.505 4.48903 -2.39508 0
M  V30 6225 H 578.903 5.62767 0.575347 0
M  V30 6226 H 577.46 6.51201 0.279416 0
M  V30 6227 N 580.893 1.08022 1.14757 0
M  V30 6228 C 581.826 0.650738 2.18725 0
M  V30 6229 C 582.804 -0.335496 1.59101 0
M  V30 6230 O 583.988 -0.240295 1.86962 0
M  V30 6231 C 581.115 -0.0434377 3.38672 0
M  V30 6232 C 580.161 0.90232 4.16846 0
M  V30 6233 S 580.994 2.40693 4.78359 0
M  V30 6234 C 582.15 1.72475 6.01667 0
M  V30 6235 H 582.383 1.53152 2.54817 0
M  V30 6236 H 579.916 0.894823 1.25826 0
M  V30 6237 H 581.874 -0.437684 4.0816 0
M  V30 6238 H 580.535 -0.900659 3.0091 0
M  V30 6239 H 579.728 0.363445 5.02688 0
M  V30 6240 H 579.33 1.23728 3.52941 0
M  V30 6241 H 581.622 1.0404 6.69464 0
M  V30 6242 H 582.565 2.56175 6.60136 0
M  V30 6243 H 582.973 1.19979 5.51602 0
M  V30 6244 N 582.371 -1.3172 0.865308 0
M  V30 6245 C 583.599 -2.01057 0.488251 0
M  V30 6246 C 584.014 -1.64979 -0.918 0
M  V30 6247 O 583.371 -0.876597 -1.60069 0
M  V30 6248 C 583.422 -3.55964 0.630224 0
M  V30 6249 O 583.143 -3.90749 1.98109 0
M  V30 6250 C 584.644 -4.42574 0.253567 0
M  V30 6251 H 581.864 -0.64332 0.190736 0
M  V30 6252 H 584.408 -1.68058 1.16519 0
M  V30 6253 H 582.563 -3.874 0.000895422 0
M  V30 6254 H 582.977 -4.85467 1.9855 0
M  V30 6255 H 584.451 -5.50521 0.403875 0
M  V30 6256 H 584.928 -4.31724 -0.806895 0
M  V30 6257 H 585.534 -4.16547 0.858404 0
M  V30 6258 N 583.85 -0.624285 -1.44708 0
M  V30 6259 C 584.779 0.0717025 -2.3339 0
M  V30 6260 C 585.76 0.841814 -1.47809 0
M  V30 6261 O 586.946 0.809056 -1.76544 0
M  V30 6262 C 584.076 1.05852 -3.30776 0
M  V30 6263 C 583.029 0.400503 -4.26122 0
M  V30 6264 C 582.356 1.49674 -5.13324 0
M  V30 6265 C 583.656 -0.688924 -5.17737 0
M  V30 6266 H 585.35 -0.668819 -2.91834 0
M  V30 6267 H 582.896 -0.32308 -1.40329 0
M  V30 6268 H 584.849 1.5541 -3.91696 0
M  V30 6269 H 583.572 1.82984 -2.70526 0
M  V30 6270 H 582.231 -0.0743687 -3.66525 0
M  V30 6271 H 581.88 2.25877 -4.49431 0
M  V30 6272 H 581.58 1.06188 -5.77926 0
M  V30 6273 H 583.104 1.99427 -5.77115 0
M  V30 6274 H 584.518 -0.276724 -5.72632 0
M  V30 6275 H 582.915 -1.04652 -5.90904 0
M  V30 6276 H 583.985 -1.55884 -4.5916 0
M  V30 6277 N 585.328 1.53329 -0.364422 0
M  V30 6278 C 586.258 2.28627 0.474543 0
M  V30 6279 C 587.239 1.31009 1.08492 0
M  V30 6280 O 588.424 1.59878 1.10239 0
M  V30 6281 C 585.554 3.07465 1.61501 0
M  V30 6282 C 584.508 4.1276 1.13194 0
M  V30 6283 C 583.834 4.79674 2.36255 0
M  V30 6284 C 585.134 5.21847 0.217507 0
M  V30 6285 H 586.828 2.99005 -0.153656 0
M  V30 6286 H 584.374 1.43803 -0.0753406 0
M  V30 6287 H 586.327 3.58889 2.20855 0
M  V30 6288 H 585.051 2.34775 2.27042 0
M  V30 6289 H 583.71 3.62281 0.56109 0
M  V30 6290 H 583.358 4.03557 3.00251 0
M  V30 6291 H 583.058 5.50827 2.04606 0
M  V30 6292 H 584.582 5.33892 2.96297 0
M  V30 6293 H 585.996 5.6878 0.718493 0
M  V30 6294 H 584.393 6.00099 -0.00806408 0
M  V30 6295 H 585.463 4.7921 -0.740653 0
M  V30 6296 N 586.806 0.0935595 1.57322 0
M  V30 6297 C 587.754 -0.883457 2.15169 0
M  V30 6298 C 588.748 -1.29324 1.09415 0
M  V30 6299 O 589.954 -1.26795 1.27762 0
M  V30 6300 H 586.329 -0.302923 0.688289 0
M  V30 6301 H 588.3 -0.370845 2.96087 0
M  V30 6302 C 587.049 -2.13345 2.74552 0
M  V30 6303 H 586.372 -1.82702 3.55612 0
M  V30 6304 H 587.812 -2.7977 3.18598 0
M  V30 6305 C 586.271 -2.90646 1.70371 0
M  V30 6306 O 586.801 -3.85133 1.14173 0
M  V30 6307 N 585.007 -2.54157 1.40899 0
M  V30 6308 H 584.554 -1.77391 1.86789 0
M  V30 6309 H 584.512 -3.06178 0.714301 0
M  V30 6310 N 588.284 -1.56567 -0.180126 0
M  V30 6311 C 589.247 -1.94852 -1.20686 0
M  V30 6312 C 590.247 -0.831212 -1.3765 0
M  V30 6313 O 591.437 -1.09841 -1.35206 0
M  V30 6314 C 588.569 -2.23565 -2.57355 0
M  V30 6315 H 589.762 -2.86722 -0.879225 0
M  V30 6316 H 587.315 -1.50489 -0.422237 0
M  V30 6317 H 588.05 -1.34381 -2.95148 0
M  V30 6318 H 587.835 -3.04999 -2.46411 0
M  V30 6319 H 589.325 -2.54137 -3.31367 0
M  V30 6320 N 589.762 0.448376 -1.51087 0
M  V30 6321 C 591.178 0.783984 -1.39017 0
M  V30 6322 C 591.378 1.96087 -0.463904 0
M  V30 6323 O 590.434 2.52357 0.0850534 0
M  V30 6324 C 591.747 1.07471 -2.80839 0
M  V30 6325 C 593.295 1.17981 -2.89913 0
M  V30 6326 C 593.77 1.50354 -4.32617 0
M  V30 6327 N 595.261 1.57301 -4.35673 0
M  V30 6328 C 595.996 1.839 -5.4311 0
M  V30 6329 N 595.492 2.08365 -6.60724 0
M  V30 6330 N 597.285 1.8559 -5.30578 0
M  V30 6331 H 589.436 -0.326881 -2.0987 0
M  V30 6332 H 591.699 -0.0838006 -0.944289 0
M  V30 6333 H 591.405 0.282768 -3.50561 0
M  V30 6334 H 591.279 2.00519 -3.19487 0
M  V30 6335 H 593.666 1.9624 -2.20395 0
M  V30 6336 H 593.747 0.228603 -2.54776 0
M  V30 6337 H 593.391 0.726273 -5.0268 0
M  V30 6338 H 593.321 2.46663 -4.65258 0
M  V30 6339 H 595.812 1.40342 -3.50874 0
M  V30 6340 H 596.125 2.27999 -7.38401 0
M  V30 6341 H 594.47 2.0571 -6.63859 0
M  V30 6342 H 597.661 1.65989 -4.37682 0
M  V30 6343 H 597.834 2.05983 -6.1439 0
M  V30 6344 N 591.24 1.41047 0.703093 0
M  V30 6345 C 592.486 1.41209 1.46396 0
M  V30 6346 C 592.841 0.0180188 1.92392 0
M  V30 6347 O 592.134 -0.954739 1.66118 0
M  V30 6348 C 592.328 2.34686 2.6955 0
M  V30 6349 C 592.157 3.83044 2.35601 0
M  V30 6350 C 590.927 4.51777 2.26331 0
M  V30 6351 C 593.125 4.74215 1.9906 0
M  V30 6352 N 591.107 5.85302 1.85188 0
M  V30 6353 C 592.478 5.96631 1.68616 0
M  V30 6354 C 594.533 4.61932 1.85805 0
M  V30 6355 C 593.236 7.08134 1.26249 0
M  V30 6356 C 595.262 5.73389 1.44842 0
M  V30 6357 C 594.624 6.94899 1.15304 0
M  V30 6358 H 590.723 0.571951 0.533288 0
M  V30 6359 H 593.307 1.76859 0.814179 0
M  V30 6360 H 591.478 2.01143 3.32259 0
M  V30 6361 H 593.21 2.25618 3.35974 0
M  V30 6362 H 589.965 4.05618 2.44482 0
M  V30 6363 H 590.389 6.56049 1.67119 0
M  V30 6364 H 595.031 3.68494 2.07298 0
M  V30 6365 H 592.749 8.01445 1.035 0
M  V30 6366 H 596.335 5.65886 1.35146 0
M  V30 6367 H 595.215 7.79679 0.840854 0
M  V30 6368 N 592.718 -0.936591 1.26751 0
M  V30 6369 C 593.628 -2.06949 1.10496 0
M  V30 6370 C 594.644 -1.7396 0.037271 0
M  V30 6371 O 595.82 -1.99941 0.241944 0
M  V30 6372 C 592.885 -3.38612 0.744491 0
M  V30 6373 C 591.946 -3.85355 1.89209 0
M  V30 6374 C 591.179 -5.10735 1.54873 0
M  V30 6375 O 591.402 -5.68602 0.452546 0
M  V30 6376 O 590.336 -5.52632 2.38499 0
M  V30 6377 H 594.162 -2.23571 2.05547 0
M  V30 6378 H 591.747 -1.05428 1.05855 0
M  V30 6379 H 593.629 -4.17711 0.556396 0
M  V30 6380 H 592.304 -3.23218 -0.176582 0
M  V30 6381 H 591.211 -3.07182 2.13518 0
M  V30 6382 H 592.544 -4.05277 2.79305 0
M  V30 6383 N 594.196 -1.08629 -1.14182 0
M  V30 6384 C 595.159 -0.722027 -2.1753 0
M  V30 6385 C 596.159 0.244305 -1.58933 0
M  V30 6386 O 597.349 0.0235545 -1.74184 0
M  V30 6387 C 594.481 -0.0663966 -3.40835 0
M  V30 6388 H 595.674 -1.63719 -2.51269 0
M  V30 6389 H 593.227 -0.884442 -1.28869 0
M  V30 6390 H 593.962 0.860389 -3.12678 0
M  V30 6391 H 593.747 -0.761598 -3.84632 0
M  V30 6392 H 595.237 0.173346 -4.1724 0
M  V30 6393 N 595.674 1.31259 -0.872281 0
M  V30 6394 C 596.604 2.30929 -0.345554 0
M  V30 6395 C 597.585 1.60449 0.5648 0
M  V30 6396 O 598.77 1.8814 0.481335 0
M  V30 6397 C 595.9 3.44348 0.451823 0
M  V30 6398 C 594.854 4.26435 -0.365641 0
M  V30 6399 C 594.18 5.31785 0.557562 0
M  V30 6400 C 595.48 4.97159 -1.60095 0
M  V30 6401 H 597.174 2.75234 -1.17841 0
M  V30 6402 H 594.72 1.3232 -0.568094 0
M  V30 6403 H 596.673 4.13128 0.830854 0
M  V30 6404 H 595.397 2.98816 1.31821 0
M  V30 6405 H 594.056 3.59326 -0.726649 0
M  V30 6406 H 593.704 4.82502 1.4213 0
M  V30 6407 H 593.404 5.87598 0.0144878 0
M  V30 6408 H 594.928 6.03424 0.933387 0
M  V30 6409 H 596.342 5.58523 -1.29323 0
M  V30 6410 H 594.739 5.62779 -2.08327 0
M  V30 6411 H 595.809 4.24012 -2.35249 0
M  V30 6412 N 597.152 0.631951 1.44375 0
M  V30 6413 C 598.568 0.297642 1.568 0
M  V30 6414 C 598.768 -1.19916 1.61934 0
M  V30 6415 O 597.824 -1.98324 1.56281 0
M  V30 6416 C 599.137 0.990286 2.83926 0
M  V30 6417 C 600.685 0.968507 2.97639 0
M  V30 6418 C 601.16 1.64163 4.27568 0
M  V30 6419 N 602.651 1.60826 4.34384 0
M  V30 6420 C 603.386 2.09802 5.33639 0
M  V30 6421 N 602.882 2.66973 6.39294 0
M  V30 6422 N 604.675 2.00426 5.25153 0
M  V30 6423 H 596.826 1.60353 1.39286 0
M  V30 6424 H 599.089 0.673142 0.667521 0
M  V30 6425 H 598.795 2.04519 2.8612 0
M  V30 6426 H 598.669 0.528563 3.73478 0
M  V30 6427 H 601.056 -0.0779247 2.94997 0
M  V30 6428 H 601.137 1.46873 2.09433 0
M  V30 6429 H 600.781 2.68752 4.3097 0
M  V30 6430 H 600.711 1.11624 5.14634 0
M  V30 6431 H 603.202 1.19087 3.58646 0
M  V30 6432 H 603.515 3.02074 7.11316 0
M  V30 6433 H 601.86 2.71024 6.39977 0
M  V30 6434 H 605.051 1.55483 4.41523 0
M  V30 6435 H 605.224 2.38906 6.02352 0
M  V30 6436 N 598.631 -1.53133 0.372548 0
M  V30 6437 C 599.877 -2.01654 -0.215277 0
M  V30 6438 C 600.21 -1.25914 -1.47849 0
M  V30 6439 O 599.485 -0.3548 -1.91237 0
M  V30 6440 C 599.768 -3.56609 -0.500187 0
M  V30 6441 C 599.621 -4.43036 0.777145 0
M  V30 6442 C 600.94 -4.20528 -1.29786 0
M  V30 6443 H 598.059 -0.732991 -0.0767686 0
M  V30 6444 H 600.701 -1.83335 0.498814 0
M  V30 6445 H 598.851 -3.7235 -1.10852 0
M  V30 6446 H 600.523 -4.39079 1.41447 0
M  V30 6447 H 598.766 -4.10723 1.39604 0
M  V30 6448 H 599.437 -5.49424 0.532662 0
M  V30 6449 H 601.913 -4.08663 -0.783198 0
M  V30 6450 H 600.789 -5.28962 -1.46596 0
M  V30 6451 H 601.05 -3.77051 -2.30836 0
M  V30 6452 N 600.109 -0.101901 -1.5727 0
M  V30 6453 C 601.019 0.868647 -2.17926 0
M  V30 6454 C 602.035 1.30527 -1.1506 0
M  V30 6455 O 603.211 1.37178 -1.47459 0
M  V30 6456 C 600.276 2.10727 -2.75309 0
M  V30 6457 C 599.337 1.7242 -3.93154 0
M  V30 6458 C 598.57 2.90377 -4.47791 0
M  V30 6459 O 598.793 4.05305 -4.01353 0
M  V30 6460 O 597.727 2.6845 -5.38719 0
M  V30 6461 H 601.553 0.382544 -3.01281 0
M  V30 6462 H 599.138 0.122812 -1.48894 0
M  V30 6463 H 601.02 2.83303 -3.11958 0
M  V30 6464 H 599.695 2.58376 -1.94996 0
M  V30 6465 H 598.602 0.970039 -3.61305 0
M  V30 6466 H 599.935 1.29528 -4.74851 0
M  V30 6467 N 601.587 1.56661 0.17182 0
M  V30 6468 C 602.812 1.86459 0.908165 0
M  V30 6469 C 603.237 0.688181 1.75059 0
M  V30 6470 O 602.595 -0.362753 1.77634 0
M  V30 6471 C 602.643 3.14669 1.76112 0
M  V30 6472 O 601.747 2.96858 2.86268 0
M  V30 6473 H 601.088 0.613318 0.254434 0
M  V30 6474 H 603.618 2.03892 0.170113 0
M  V30 6475 H 603.628 3.46061 2.16115 0
M  V30 6476 H 602.303 3.99905 1.14233 0
M  V30 6477 H 600.88 2.76819 2.49852 0
M  V30 6478 N 603.065 -0.440357 1.51323 0
M  V30 6479 C 603.998 -1.55414 1.67098 0
M  V30 6480 C 604.976 -1.54108 0.518599 0
M  V30 6481 O 606.16 -1.7328 0.742054 0
M  V30 6482 C 603.287 -2.93996 1.68179 0
M  V30 6483 C 602.333 -3.13338 2.89347 0
M  V30 6484 S 603.166 -2.89957 4.50206 0
M  V30 6485 C 604.322 -4.30826 4.54027 0
M  V30 6486 H 604.555 -1.41798 2.61306 0
M  V30 6487 H 602.088 -0.629841 1.40969 0
M  V30 6488 H 604.046 -3.73878 1.69487 0
M  V30 6489 H 602.707 -3.04976 0.751542 0
M  V30 6490 H 601.9 -4.14652 2.86495 0
M  V30 6491 H 601.502 -2.41276 2.85766 0
M  V30 6492 H 603.794 -5.23977 4.29481 0
M  V30 6493 H 604.737 -4.38712 5.55822 0
M  V30 6494 H 605.145 -4.1434 3.83384 0
M  V30 6495 N 604.543 -1.41418 -0.695603 0
M  V30 6496 C 605.82 -1.31264 -1.45014 0
M  V30 6497 C 606.2 0.0597994 -2.11015 0
M  V30 6498 O 605.548 1.07403 -2.01685 0
M  V30 6499 C 605.758 -2.466 -2.4696 0
M  V30 6500 C 607.106 -2.87763 -3.12214 0
M  V30 6501 O 608.13 -2.46339 -2.57285 0
M  V30 6502 O 606.989 -3.59395 -4.11701 0
M  V30 6503 H 604.083 -0.516576 -0.645816 0
M  V30 6504 H 606.629 -1.53382 -0.726084 0
M  V30 6505 H 605.401 -3.38183 -1.96845 0
M  V30 6506 H 605.024 -2.26358 -3.26876 0
M  V30 6507 N 606.021 0.929856 -1.27246 0
M  V30 6508 C 607.437 1.20542 -1.04603 0
M  V30 6509 C 607.637 2.00276 0.221754 0
M  V30 6510 O 606.693 2.34835 0.927833 0
M  V30 6511 C 608.006 1.95566 -2.28417 0
M  V30 6512 C 609.554 2.08513 -2.33433 0
M  V30 6513 C 610.029 2.86943 -3.5697 0
M  V30 6514 N 611.52 2.94512 -3.57515 0
M  V30 6515 C 612.255 3.55656 -4.49774 0
M  V30 6516 N 611.751 4.18209 -5.52334 0
M  V30 6517 N 613.544 3.53038 -4.37402 0
M  V30 6518 H 605.695 0.397113 -2.08655 0
M  V30 6519 H 607.958 0.238277 -0.917566 0
M  V30 6520 H 607.664 1.44395 -3.20691 0
M  V30 6521 H 607.538 2.9619 -2.33563 0
M  V30 6522 H 609.925 2.58872 -1.41666 0
M  V30 6523 H 610.006 1.07117 -2.32292 0
M  V30 6524 H 609.65 2.37268 -4.49072 0
M  V30 6525 H 609.58 3.8862 -3.55362 0
M  V30 6526 H 612.071 2.50053 -2.83341 0
M  V30 6527 H 612.384 4.62796 -6.18902 0
M  V30 6528 H 610.729 4.16761 -5.56179 0
M  V30 6529 H 613.92 3.0337 -3.56489 0
M  V30 6530 H 614.093 4.004 -5.09493 0
M  V30 6531 N 607.499 1.09233 1.13605 0
M  V30 6532 C 608.431 0.687794 2.18637 0
M  V30 6533 C 609.444 -0.26936 1.60556 0
M  V30 6534 O 610.633 -0.0557162 1.78413 0
M  V30 6535 C 607.733 -0.00751901 3.38899 0
M  V30 6536 C 606.906 0.97067 4.26494 0
M  V30 6537 C 605.965 0.309129 5.25291 0
M  V30 6538 O 604.991 0.956149 5.61112 0
M  V30 6539 N 606.193 -0.937555 5.72879 0
M  V30 6540 H 608.958 1.59141 2.53957 0
M  V30 6541 H 606.519 0.979515 1.28907 0
M  V30 6542 H 608.511 -0.461238 4.02063 0
M  V30 6543 H 607.081 -0.813353 3.01833 0
M  V30 6544 H 606.301 1.603 3.60135 0
M  V30 6545 H 607.589 1.63323 4.81875 0
M  V30 6546 H 606.987 -1.48281 5.4592 0
M  V30 6547 H 605.544 -1.33463 6.3799 0
M  V30 6548 N 608.977 -1.30795 0.87923 0
M  V30 6549 C 610.202 -2.01063 0.508769 0
M  V30 6550 C 610.627 -1.65508 -0.893803 0
M  V30 6551 O 609.985 -0.868616 -1.59138 0
M  V30 6552 C 610.033 -3.54054 0.683991 0
M  V30 6553 O 609.137 -4.11498 -0.272654 0
M  V30 6554 H 608.478 -0.632786 0.201191 0
M  V30 6555 H 611.008 -1.66776 1.18519 0
M  V30 6556 H 611.018 -4.03845 0.580798 0
M  V30 6557 H 609.693 -3.79271 1.70665 0
M  V30 6558 H 608.27 -3.72695 -0.12364 0
M  V30 6559 N 610.455 -0.639598 -1.44038 0
M  V30 6560 C 611.871 -0.305953 -1.5664 0
M  V30 6561 C 612.071 1.19055 -1.62567 0
M  V30 6562 O 611.127 1.97492 -1.57331 0
M  V30 6563 C 612.44 -1.00533 -2.83397 0
M  V30 6564 C 613.988 -0.984278 -2.97121 0
M  V30 6565 C 614.463 -1.66428 -4.26691 0
M  V30 6566 N 615.954 -1.63127 -4.33525 0
M  V30 6567 C 616.689 -2.12629 -5.32519 0
M  V30 6568 N 616.185 -2.70359 -6.3787 0
M  V30 6569 N 617.978 -2.03208 -5.24083 0
M  V30 6570 H 610.129 -1.6109 -1.38434 0
M  V30 6571 H 612.392 -0.676672 -0.663942 0
M  V30 6572 H 612.098 -2.06034 -2.85032 0
M  V30 6573 H 611.972 -0.548362 -3.73193 0
M  V30 6574 H 614.359 0.0622792 -2.95034 0
M  V30 6575 H 614.44 -1.47981 -2.08651 0
M  V30 6576 H 614.084 -2.71034 -4.29538 0
M  V30 6577 H 614.014 -1.14351 -5.14034 0
M  V30 6578 H 616.505 -1.20987 -3.58009 0
M  V30 6579 H 616.818 -3.05842 -7.09704 0
M  V30 6580 H 615.163 -2.74414 -6.38531 0
M  V30 6581 H 618.354 -1.57823 -4.40692 0
M  V30 6582 H 618.527 -2.42097 -6.01077 0
M  V30 6583 N 611.933 1.52934 -0.380664 0
M  V30 6584 C 612.863 2.29118 0.450268 0
M  V30 6585 C 613.844 1.32153 1.07096 0
M  V30 6586 O 615.029 1.61038 1.08537 0
M  V30 6587 C 612.159 3.09161 1.58231 0
M  V30 6588 C 611.113 4.13938 1.0881 0
M  V30 6589 C 610.439 4.82153 2.31155 0
M  V30 6590 C 611.739 5.22048 0.162146 0
M  V30 6591 H 613.433 2.98826 -0.185361 0
M  V30 6592 H 610.979 1.43715 -0.0905886 0
M  V30 6593 H 612.932 3.61211 2.17036 0
M  V30 6594 H 611.656 2.3717 2.2454 0
M  V30 6595 H 610.315 3.62855 0.522633 0
M  V30 6596 H 609.963 4.06719 2.95953 0
M  V30 6597 H 609.663 5.52966 1.98752 0
M  V30 6598 H 611.187 5.37004 2.90618 0
M  V30 6599 H 612.601 5.6951 0.658126 0
M  V30 6600 H 610.998 6.00057 -0.0717122 0
M  V30 6601 H 612.068 4.78398 -0.791438 0
M  V30 6602 N 613.412 0.11024 1.57214 0
M  V30 6603 C 614.362 -0.854147 2.11396 0
M  V30 6604 C 615.346 -1.23394 1.03261 0
M  V30 6605 O 616.538 -1.20649 1.2951 0
M  V30 6606 C 613.667 -2.10752 2.70995 0
M  V30 6607 C 612.753 -1.75249 3.86198 0
M  V30 6608 N 613.144 -1.10377 4.9361 0
M  V30 6609 C 611.442 -2.04763 3.96217 0
M  V30 6610 C 612.143 -0.938199 5.74084 0
M  V30 6611 N 611.119 -1.46039 5.23616 0
M  V30 6612 H 614.921 -0.348897 2.91822 0
M  V30 6613 H 612.435 -0.0925071 1.62136 0
M  V30 6614 H 614.432 -2.80801 3.0815 0
M  V30 6615 H 613.092 -2.61829 1.9203 0
M  V30 6616 H 614.103 -0.768785 5.12162 0
M  V30 6617 H 610.78 -2.57948 3.28282 0
M  V30 6618 H 612.17 -0.429678 6.70525 0
M  V30 6619 N 614.89 -1.56749 -0.16351 0
M  V30 6620 C 616.167 -1.73321 -0.906599 0
M  V30 6621 C 616.547 -0.673779 -2.00059 0
M  V30 6622 O 615.895 0.310121 -2.26386 0
M  V30 6623 C 616.105 -3.168 -1.46419 0
M  V30 6624 C 617.453 -3.77993 -1.93407 0
M  V30 6625 O 618.477 -3.20127 -1.56196 0
M  V30 6626 O 617.336 -4.79615 -2.61976 0
M  V30 6627 H 614.43 -0.708073 -0.427272 0
M  V30 6628 H 616.976 -1.69029 -0.150727 0
M  V30 6629 H 615.748 -3.85396 -0.677189 0
M  V30 6630 H 615.371 -3.2545 -2.28403 0
M  V30 6631 N 616.368 0.432326 -1.51554 0
M  V30 6632 C 617.614 1.18309 -1.64714 0
M  V30 6633 C 617.947 1.90745 -0.364696 0
M  V30 6634 O 617.222 1.8381 0.635936 0
M  V30 6635 C 617.505 2.1961 -2.85383 0
M  V30 6636 C 617.358 1.51223 -4.23617 0
M  V30 6637 C 618.677 3.20538 -3.01569 0
M  V30 6638 H 615.796 0.428751 -0.599451 0
M  V30 6639 H 618.438 0.471689 -1.84052 0
M  V30 6640 H 616.588 2.8028 -2.69027 0
M  V30 6641 H 618.26 0.938516 -4.51652 0
M  V30 6642 H 616.503 0.814501 -4.26085 0
M  V30 6643 H 617.174 2.25024 -5.04052 0
M  V30 6644 H 619.65 2.69926 -3.16669 0
M  V30 6645 H 618.526 3.88706 -3.87555 0
M  V30 6646 H 618.787 3.86933 -2.13859 0
M  V30 6647 N 617.846 1.41785 0.688094 0
M  V30 6648 C 618.776 1.47 1.8142 0
M  V30 6649 C 619.757 0.327881 1.6691 0
M  V30 6650 O 620.942 0.540362 1.86531 0
M  V30 6651 C 618.072 1.35876 3.19617 0
M  V30 6652 C 617.026 2.47976 3.48844 0
M  V30 6653 C 616.352 2.21915 4.86475 0
M  V30 6654 C 617.652 3.90309 3.47068 0
M  V30 6655 H 619.346 2.41247 1.77314 0
M  V30 6656 H 616.892 1.16116 0.851651 0
M  V30 6657 H 618.845 1.38134 3.98117 0
M  V30 6658 H 617.569 0.38116 3.24368 0
M  V30 6659 H 616.228 2.45013 2.72698 0
M  V30 6660 H 615.876 1.2248 4.8786 0
M  V30 6661 H 615.576 2.97037 5.06994 0
M  V30 6662 H 617.1 2.25901 5.67275 0
M  V30 6663 H 618.514 3.94947 4.1556 0
M  V30 6664 H 616.911 4.65175 3.7912 0
M  V30 6665 H 617.981 4.17927 2.45896 0
M  V30 6666 N 619.324 -0.923095 1.27737 0
M  V30 6667 C 620.257 -2.02515 1.05181 0
M  V30 6668 C 621.235 -1.62574 -0.0292204 0
M  V30 6669 O 622.419 -1.88137 0.116848 0
M  V30 6670 C 619.546 -3.33407 0.596468 0
M  V30 6671 C 618.592 -3.92328 1.67276 0
M  V30 6672 S 619.425 -4.24342 3.26641 0
M  V30 6673 C 620.581 -5.58308 2.82919 0
M  V30 6674 H 620.814 -2.21336 1.98488 0
M  V30 6675 H 618.347 -1.06679 1.1162 0
M  V30 6676 H 620.305 -4.09086 0.34044 0
M  V30 6677 H 618.966 -3.125 -0.316614 0
M  V30 6678 H 618.159 -4.86797 1.30556 0
M  V30 6679 H 617.761 -3.2325 1.8811 0
M  V30 6680 H 620.053 -6.37801 2.28509 0
M  V30 6681 H 620.996 -5.99931 3.7615 0
M  V30 6682 H 621.404 -5.19049 2.21919 0
M  V30 6683 N 620.802 -1.09834 -1.13024 0
M  V30 6684 C 621.712 -0.753731 -2.22162 0
M  V30 6685 C 622.728 0.246105 -1.72251 0
M  V30 6686 O 623.904 0.0864051 -2.01215 0
M  V30 6687 C 620.969 -0.183958 -3.46212 0
M  V30 6688 C 620.03 -1.24028 -4.10993 0
M  V30 6689 C 619.263 -0.697597 -5.29121 0
M  V30 6690 O 619.486 0.478092 -5.68393 0
M  V30 6691 O 618.42 -1.4546 -5.84059 0
M  V30 6692 H 622.246 -1.66456 -2.5402 0
M  V30 6693 H 619.831 -0.873026 -1.21238 0
M  V30 6694 H 621.713 0.130257 -4.21199 0
M  V30 6695 H 620.388 0.699823 -3.16045 0
M  V30 6696 H 619.295 -1.60725 -3.37814 0
M  V30 6697 H 620.628 -2.09685 -4.45301 0
M  V30 6698 N 622.28 1.30327 -0.886154 0
M  V30 6699 C 623.21 2.30549 -0.370028 0
M  V30 6700 C 624.191 1.61039 0.547751 0
M  V30 6701 O 625.376 1.8864 0.461353 0
M  V30 6702 C 622.506 3.44808 0.415275 0
M  V30 6703 C 621.46 4.26024 -0.41085 0
M  V30 6704 C 620.786 5.32347 0.501128 0
M  V30 6705 C 622.086 4.95433 -1.65359 0
M  V30 6706 H 623.78 2.73969 -1.20754 0
M  V30 6707 H 621.326 1.3171 -0.582097 0
M  V30 6708 H 623.279 4.13986 0.78699 0
M  V30 6709 H 622.003 3.00197 1.28644 0
M  V30 6710 H 620.662 3.58535 -0.764719 0
M  V30 6711 H 620.31 4.83982 1.37004 0
M  V30 6712 H 620.01 5.87581 -0.0478356 0
M  V30 6713 H 621.534 6.0438 0.869333 0
M  V30 6714 H 622.948 5.5712 -1.35239 0
M  V30 6715 H 621.345 5.60537 -2.14284 0
M  V30 6716 H 622.415 4.21493 -2.39733 0
M  V30 6717 N 623.758 0.647228 1.43697 0
M  V30 6718 C 624.69 -0.0866232 2.29036 0
M  V30 6719 C 625.703 -0.793051 1.42178 0
M  V30 6720 O 626.892 -0.651807 1.66174 0
M  V30 6721 C 623.992 -1.14552 3.18953 0
M  V30 6722 C 623.165 -0.518422 4.34317 0
M  V30 6723 C 622.224 -1.4734 5.05151 0
M  V30 6724 O 621.25 -0.984312 5.60625 0
M  V30 6725 N 622.452 -2.8075 5.08094 0
M  V30 6726 H 625.217 0.645834 2.92659 0
M  V30 6727 H 622.778 0.489567 1.54321 0
M  V30 6728 H 624.77 -1.78505 3.63205 0
M  V30 6729 H 623.34 -1.78001 2.56971 0
M  V30 6730 H 622.56 0.300079 3.93056 0
M  V30 6731 H 623.848 -0.080401 5.08736 0
M  V30 6732 H 623.246 -3.23052 4.64386 0
M  V30 6733 H 621.803 -3.40022 5.56083 0
M  V30 6734 N 625.236 -1.5273 0.388769 0
M  V30 6735 C 626.183 -2.26437 -0.446639 0
M  V30 6736 C 627.153 -1.28025 -1.05824 0
M  V30 6737 O 628.338 -1.56852 -1.08637 0
M  V30 6738 C 625.478 -3.07407 -1.56828 0
M  V30 6739 C 624.591 -4.20747 -0.979589 0
M  V30 6740 C 623.726 -4.89113 -2.07224 0
M  V30 6741 C 622.765 -5.94447 -1.45942 0
M  V30 6742 N 621.902 -6.56411 -2.49135 0
M  V30 6743 H 626.742 -2.97404 0.18837 0
M  V30 6744 H 624.279 -1.46727 0.104725 0
M  V30 6745 H 626.237 -3.52642 -2.22934 0
M  V30 6746 H 624.867 -2.3865 -2.17361 0
M  V30 6747 H 623.919 -3.7983 -0.208151 0
M  V30 6748 H 625.231 -4.9637 -0.491747 0
M  V30 6749 H 624.385 -5.3765 -2.81101 0
M  V30 6750 H 623.124 -4.13013 -2.59368 0
M  V30 6751 H 622.129 -5.4525 -0.705894 0
M  V30 6752 H 623.354 -6.7248 -0.945932 0
M  V30 6753 H 621.3 -5.83152 -3.00449 0
M  V30 6754 H 621.217 -7.27645 -2.05105 0
M  V30 6755 H 622.485 -7.09592 -3.22644 0
M  V30 6756 N 626.714 -0.118576 -1.57153 0
M  V30 6757 C 627.661 0.831789 -2.1529 0
M  V30 6758 C 628.631 1.26385 -1.07778 0
M  V30 6759 O 629.816 1.34144 -1.35684 0
M  V30 6760 C 626.956 2.07664 -2.75626 0
M  V30 6761 C 626.069 1.69298 -3.97444 0
M  V30 6762 C 625.204 2.88747 -4.45868 0
M  V30 6763 C 624.243 2.46619 -5.60219 0
M  V30 6764 N 623.38 3.5898 -6.03389 0
M  V30 6765 H 628.22 0.329183 -2.96176 0
M  V30 6766 H 625.757 0.150792 -1.46325 0
M  V30 6767 H 627.715 2.80601 -3.08738 0
M  V30 6768 H 626.345 2.55384 -1.97431 0
M  V30 6769 H 625.397 0.862374 -3.70496 0
M  V30 6770 H 626.709 1.34338 -4.80369 0
M  V30 6771 H 625.863 3.69909 -4.80887 0
M  V30 6772 H 624.602 3.26933 -3.61892 0
M  V30 6773 H 623.607 1.63889 -5.24805 0
M  V30 6774 H 624.832 2.0955 -6.45961 0
M  V30 6775 H 622.778 3.9684 -5.22354 0
M  V30 6776 H 622.695 3.27942 -6.81168 0
M  V30 6777 H 623.963 4.40583 -6.43045 0
M  V30 6778 N 628.193 1.56834 0.155195 0
M  V30 6779 C 629.125 1.94235 1.21677 0
M  V30 6780 C 630.138 0.83724 1.39621 0
M  V30 6781 O 631.327 1.11567 1.39338 0
M  V30 6782 C 628.427 2.19402 2.58294 0
M  V30 6783 C 627.6 3.50671 2.61436 0
M  V30 6784 C 626.659 3.64475 3.79532 0
M  V30 6785 O 625.685 4.36945 3.64784 0
M  V30 6786 N 626.887 3.00526 4.96653 0
M  V30 6787 H 629.652 2.85901 0.898932 0
M  V30 6788 H 627.213 1.58185 0.34483 0
M  V30 6789 H 629.205 2.25886 3.35794 0
M  V30 6790 H 627.775 1.34042 2.82403 0
M  V30 6791 H 626.995 3.55702 1.69912 0
M  V30 6792 H 628.283 4.3702 2.60559 0
M  V30 6793 H 627.681 2.41549 5.11538 0
M  V30 6794 H 626.238 3.12583 5.71958 0
M  V30 6795 N 629.671 -0.424282 1.51781 0
M  V30 6796 C 630.601 -1.52305 1.7699 0
M  V30 6797 C 631.582 -1.5839 0.620209 0
M  V30 6798 O 632.767 -1.73908 0.864268 0
M  V30 6799 C 629.897 -2.90271 1.90683 0
M  V30 6800 C 628.851 -2.99043 3.06198 0
M  V30 6801 C 628.177 -4.39116 3.05092 0
M  V30 6802 C 629.477 -2.7192 4.45934 0
M  V30 6803 H 631.171 -1.31461 2.68995 0
M  V30 6804 H 628.717 -0.630985 1.29439 0
M  V30 6805 H 630.67 -3.6711 2.06901 0
M  V30 6806 H 629.394 -3.12376 0.953365 0
M  V30 6807 H 628.053 -2.24646 2.89706 0
M  V30 6808 H 627.701 -4.58207 2.07498 0
M  V30 6809 H 627.401 -4.45912 3.82669 0
M  V30 6810 H 628.925 -5.17911 3.2342 0
M  V30 6811 H 630.339 -3.38487 4.62709 0
M  V30 6812 H 628.736 -2.90111 5.25315 0
M  V30 6813 H 629.806 -1.67445 4.55072 0
M  V30 6814 N 631.149 -1.42148 -0.680565 0
M  V30 6815 C 632.081 -1.41119 -1.80605 0
M  V30 6816 C 633.094 -0.311099 -1.598 0
M  V30 6817 O 634.283 -0.573813 -1.69026 0
M  V30 6818 C 631.383 -1.18204 -3.17618 0
M  V30 6819 C 630.556 -2.40537 -3.65322 0
M  V30 6820 C 629.615 -2.13254 -4.8105 0
M  V30 6821 O 628.641 -2.8641 -4.91892 0
M  V30 6822 N 629.843 -1.13208 -5.69354 0
M  V30 6823 H 632.608 -2.38128 -1.81975 0
M  V30 6824 H 630.169 -1.36953 -0.863446 0
M  V30 6825 H 632.161 -0.97878 -3.92686 0
M  V30 6826 H 630.731 -0.29738 -3.11182 0
M  V30 6827 H 629.951 -2.76468 -2.80996 0
M  V30 6828 H 631.239 -3.22012 -3.93936 0
M  V30 6829 H 630.637 -0.526893 -5.63241 0
M  V30 6830 H 629.194 -0.988699 -6.44258 0
M  V30 6831 N 632.627 0.916307 -1.28225 0
M  V30 6832 C 633.559 2.02303 -1.07732 0
M  V30 6833 C 634.572 1.62773 -0.0298421 0
M  V30 6834 O 635.761 1.76406 -0.272626 0
M  V30 6835 C 632.861 3.33282 -0.614504 0
M  V30 6836 C 632.034 4.01439 -1.73682 0
M  V30 6837 C 631.093 5.10698 -1.26781 0
M  V30 6838 O 630.119 5.34038 -1.96958 0
M  V30 6839 N 631.321 5.80355 -0.129624 0
M  V30 6840 H 634.086 2.20442 -2.03041 0
M  V30 6841 H 631.647 1.08744 -1.19943 0
M  V30 6842 H 633.639 4.03699 -0.284397 0
M  V30 6843 H 632.209 3.11633 0.245664 0
M  V30 6844 H 631.429 3.24604 -2.23665 0
M  V30 6845 H 632.717 4.43721 -2.48976 0
M  V30 6846 H 632.115 5.6386 0.455847 0
M  V30 6847 H 630.672 6.51647 0.141224 0
M  V30 6848 N 634.105 1.10431 1.1244 0
M  V30 6849 C 635.035 0.775143 2.20258 0
M  V30 6850 C 636.016 -0.25186 1.68225 0
M  V30 6851 O 637.201 -0.117637 1.93843 0
M  V30 6852 C 634.331 0.206133 3.46688 0
M  V30 6853 C 633.285 1.16382 4.11873 0
M  V30 6854 C 632.611 0.456014 5.32752 0
M  V30 6855 C 633.911 2.5104 4.58013 0
M  V30 6856 H 635.605 1.67665 2.4805 0
M  V30 6857 H 633.151 0.807595 1.19222 0
M  V30 6858 H 635.104 -0.036291 4.21384 0
M  V30 6859 H 633.828 -0.730614 3.18323 0
M  V30 6860 H 632.487 1.39169 3.39157 0
M  V30 6861 H 632.135 -0.485203 5.00654 0
M  V30 6862 H 631.835 1.09466 5.77314 0
M  V30 6863 H 633.359 0.222135 6.10196 0
M  V30 6864 H 634.773 2.32401 5.24083 0
M  V30 6865 H 633.17 3.10789 5.13352 0
M  V30 6866 H 634.24 3.11039 3.71998 0
M  V30 6867 N 635.583 -1.29855 0.893053 0
M  V30 6868 C 636.808 -2.00512 0.530066 0
M  V30 6869 C 637.233 -1.66446 -0.876199 0
M  V30 6870 O 636.591 -0.885446 -1.58207 0
M  V30 6871 C 636.639 -3.53308 0.721505 0
M  V30 6872 O 635.743 -4.11764 -0.228994 0
M  V30 6873 H 635.084 -0.630617 0.207891 0
M  V30 6874 H 637.614 -1.6551 1.20282 0
M  V30 6875 H 637.624 -4.03206 0.623599 0
M  V30 6876 H 636.299 -3.77439 1.74678 0
M  V30 6877 H 634.876 -3.72805 -0.0841034 0
M  V30 6878 N 637.061 -0.65484 -1.43351 0
M  V30 6879 C 638.024 0.0263562 -2.29185 0
M  V30 6880 C 639.024 0.748951 -1.42293 0
M  V30 6881 O 640.214 0.589957 -1.63906 0
M  V30 6882 C 637.346 1.04806 -3.2439 0
M  V30 6883 H 638.539 -0.728883 -2.90908 0
M  V30 6884 H 636.092 -0.416149 -1.50658 0
M  V30 6885 H 636.827 1.83247 -2.67565 0
M  V30 6886 H 636.612 0.533554 -3.88453 0
M  V30 6887 H 638.102 1.52372 -3.88809 0
M  V30 6888 N 638.539 1.52521 -0.396863 0
M  V30 6889 C 639.785 2.02641 0.175606 0
M  V30 6890 C 640.14 1.27782 1.43839 0
M  V30 6891 O 639.433 0.371921 1.87956 0
M  V30 6892 C 639.627 3.5403 0.489677 0
M  V30 6893 C 639.456 4.43551 -0.741113 0
M  V30 6894 C 638.226 4.8927 -1.26265 0
M  V30 6895 C 640.424 4.88263 -1.61565 0
M  V30 6896 N 638.406 5.62884 -2.4502 0
M  V30 6897 C 639.777 5.60534 -2.64955 0
M  V30 6898 C 641.832 4.70294 -1.63486 0
M  V30 6899 C 640.535 6.16744 -3.70162 0
M  V30 6900 C 642.561 5.27392 -2.67603 0
M  V30 6901 C 641.923 5.99575 -3.69715 0
M  V30 6902 H 638.022 0.781563 0.0261477 0
M  V30 6903 H 640.606 1.86816 -0.548454 0
M  V30 6904 H 638.777 3.69952 1.18279 0
M  V30 6905 H 640.509 3.90843 1.04996 0
M  V30 6906 H 637.264 4.66403 -0.822509 0
M  V30 6907 H 637.688 6.04339 -3.05128 0
M  V30 6908 H 642.33 4.13985 -0.858848 0
M  V30 6909 H 640.048 6.72131 -4.48626 0
M  V30 6910 H 643.634 5.15365 -2.69982 0
M  V30 6911 H 642.514 6.42967 -4.48958 0
M  V30 6912 N 640.017 0.126909 1.57088 0
M  V30 6913 C 640.947 -0.816847 2.18746 0
M  V30 6914 C 641.928 -1.27161 1.12979 0
M  V30 6915 O 643.113 -1.33279 1.41246 0
M  V30 6916 C 640.243 -2.06398 2.79315 0
M  V30 6917 C 639.197 -1.74673 3.90735 0
M  V30 6918 C 638.523 -3.06482 4.38147 0
M  V30 6919 C 639.823 -1.0089 5.12463 0
M  V30 6920 H 641.517 -0.303032 2.97863 0
M  V30 6921 H 639.063 -0.144314 1.43275 0
M  V30 6922 H 641.016 -2.72885 3.2111 0
M  V30 6923 H 639.74 -2.60118 1.975 0
M  V30 6924 H 638.399 -1.10572 3.49527 0
M  V30 6925 H 638.047 -3.58152 3.5318 0
M  V30 6926 H 637.747 -2.86025 5.13287 0
M  V30 6927 H 639.271 -3.74073 4.82599 0
M  V30 6928 H 640.685 -1.57546 5.51228 0
M  V30 6929 H 639.082 -0.905006 5.93237 0
M  V30 6930 H 640.152 0.00297335 4.849 0
M  V30 6931 N 641.495 -1.56914 -0.146875 0
M  V30 6932 C 642.723 -1.87515 -0.874394 0
M  V30 6933 C 643.138 -0.715116 -1.74733 0
M  V30 6934 O 642.495 0.315113 -1.79759 0
M  V30 6935 C 642.546 -3.17362 -1.731 0
M  V30 6936 O 642.267 -4.28897 -0.893245 0
M  V30 6937 C 643.768 -3.61479 -2.56609 0
M  V30 6938 H 640.988 -0.621546 -0.252827 0
M  V30 6939 H 643.532 -2.04023 -0.139627 0
M  V30 6940 H 641.687 -3.02608 -2.41883 0
M  V30 6941 H 642.101 -5.03146 -1.48137 0
M  V30 6942 H 643.575 -4.5517 -3.12289 0
M  V30 6943 H 644.052 -2.86773 -3.32653 0
M  V30 6944 H 644.658 -3.78927 -1.93117 0
M  V30 6945 N 642.974 0.416227 -1.52004 0
M  V30 6946 C 643.904 1.51365 -1.77795 0
M  V30 6947 C 644.885 1.58059 -0.628601 0
M  V30 6948 O 646.07 1.73447 -0.873478 0
M  V30 6949 C 643.2 2.89256 -1.92219 0
M  V30 6950 C 642.154 2.97415 -3.0778 0
M  V30 6951 C 641.48 4.37492 -3.07417 0
M  V30 6952 C 642.78 2.69551 -4.47369 0
M  V30 6953 H 644.474 1.30033 -2.69688 0
M  V30 6954 H 642.02 0.624112 -1.29772 0
M  V30 6955 H 643.973 3.66008 -2.08845 0
M  V30 6956 H 642.697 3.11866 -0.969917 0
M  V30 6957 H 641.356 2.23107 -2.90893 0
M  V30 6958 H 641.004 4.571 -2.09925 0
M  V30 6959 H 640.704 4.43877 -3.85029 0
M  V30 6960 H 642.228 5.16188 -3.26162 0
M  V30 6961 H 643.642 3.36028 -4.64497 0
M  V30 6962 H 642.039 2.87321 -5.26846 0
M  V30 6963 H 643.109 1.65029 -4.55953 0
M  V30 6964 N 644.452 1.42507 0.673017 0
M  V30 6965 C 645.68 1.46473 1.46128 0
M  V30 6966 C 646.095 0.0765912 1.88645 0
M  V30 6967 O 645.452 -0.909057 1.58248 0
M  V30 6968 C 645.503 2.39339 2.70923 0
M  V30 6969 O 645.224 3.72752 2.3019 0
M  V30 6970 C 646.725 2.52343 3.64469 0
M  V30 6971 H 643.945 0.49812 0.449575 0
M  V30 6972 H 646.489 1.87041 0.826802 0
M  V30 6973 H 644.644 2.02019 3.30556 0
M  V30 6974 H 645.058 4.22503 3.10791 0
M  V30 6975 H 646.532 3.2144 4.48754 0
M  V30 6976 H 647.009 1.56189 4.1049 0
M  V30 6977 H 647.615 2.90392 3.10729 0
M  V30 6978 N 645.93 -0.909495 1.28709 0
M  V30 6979 C 646.84 -2.04558 1.14861 0
M  V30 6980 C 647.856 -1.73842 0.0741621 0
M  V30 6981 O 649.032 -1.99383 0.2843 0
M  V30 6982 C 646.097 -3.36957 0.816148 0
M  V30 6983 C 645.158 -3.81255 1.97341 0
M  V30 6984 C 644.391 -5.07335 1.65671 0
M  V30 6985 O 644.614 -5.67514 0.573053 0
M  V30 6986 O 643.548 -5.47449 2.50167 0
M  V30 6987 H 647.374 -2.19161 2.10243 0
M  V30 6988 H 644.959 -1.03159 1.08068 0
M  V30 6989 H 646.841 -4.16436 0.644873 0
M  V30 6990 H 645.516 -3.2352 -0.107983 0
M  V30 6991 H 644.423 -3.02584 2.19986 0
M  V30 6992 H 645.756 -3.99261 2.87839 0
M  V30 6993 N 647.408 -1.11026 -1.11852 0
M  V30 6994 C 648.318 -0.777252 -2.2135 0
M  V30 6995 C 649.334 0.227821 -1.72502 0
M  V30 6996 O 650.51 0.0650587 -2.01295 0
M  V30 6997 C 647.575 -0.220668 -3.45997 0
M  V30 6998 C 646.636 -1.2838 -4.09655 0
M  V30 6999 C 645.869 -0.753678 -5.28352 0
M  V30 7000 O 646.092 0.417779 -5.68868 0
M  V30 7001 O 645.026 -1.51647 -5.82483 0
M  V30 7002 H 648.852 -1.69141 -2.5224 0
M  V30 7003 H 646.437 -0.885836 -1.20305 0
M  V30 7004 H 648.319 0.0855756 -4.21313 0
M  V30 7005 H 646.994 0.666262 -3.16769 0
M  V30 7006 H 645.901 -1.64299 -3.3609 0
M  V30 7007 H 647.234 -2.14396 -4.43052 0
M  V30 7008 N 648.886 1.2938 -0.899927 0
M  V30 7009 C 650.302 1.48052 -0.596059 0
M  V30 7010 C 650.502 1.82114 0.862372 0
M  V30 7011 O 649.558 1.91774 1.64253 0
M  V30 7012 C 650.871 2.59332 -1.52208 0
M  V30 7013 C 652.419 2.73208 -1.5273 0
M  V30 7014 C 652.894 3.87617 -2.43961 0
M  V30 7015 N 654.385 3.9495 -2.42009 0
M  V30 7016 C 655.12 4.82824 -3.09303 0
M  V30 7017 N 654.616 5.75387 -3.85877 0
M  V30 7018 N 656.409 4.76317 -2.98459 0
M  V30 7019 H 648.56 1.05546 -1.8432 0
M  V30 7020 H 650.823 0.524314 -0.78981 0
M  V30 7021 H 650.529 2.41029 -2.56121 0
M  V30 7022 H 650.403 3.56139 -1.24278 0
M  V30 7023 H 652.79 2.90908 -0.495614 0
M  V30 7024 H 652.871 1.76975 -1.84698 0
M  V30 7025 H 652.515 3.70672 -3.47224 0
M  V30 7026 H 652.445 4.83218 -2.09303 0
M  V30 7027 H 654.936 3.28744 -1.86375 0
M  V30 7028 H 655.249 6.39235 -4.34279 0
M  V30 7029 H 653.594 5.75272 -3.89984 0
M  V30 7030 H 656.785 4.0299 -2.38152 0
M  V30 7031 H 656.958 5.44589 -3.51179 0
M  V30 7032 N 650.364 0.662433 1.43002 0
M  V30 7033 C 651.613 0.176873 2.00923 0
M  V30 7034 C 651.926 -1.21954 1.52927 0
M  V30 7035 O 653.132 -1.80081 2.03182 0
M  V30 7036 C 651.588 0.265379 3.5892 0
M  V30 7037 C 651.196 1.66507 4.15908 0
M  V30 7038 C 652.94 -0.162103 4.2419 0
M  V30 7039 C 650.847 1.707 5.66229 0
M  V30 7040 H 649.777 0.0623627 0.751417 0
M  V30 7041 H 652.428 0.825813 1.63868 0
M  V30 7042 H 650.81 -0.451235 3.93421 0
M  V30 7043 H 651.984 2.40777 3.92891 0
M  V30 7044 H 650.299 2.03932 3.63044 0
M  V30 7045 H 652.896 -0.150745 5.34487 0
M  V30 7046 H 653.239 -1.19519 3.98774 0
M  V30 7047 H 653.772 0.503075 3.94606 0
M  V30 7048 H 650.511 2.7195 5.96426 0
M  V30 7049 H 650.031 1.00768 5.91275 0
M  V30 7050 H 651.71 1.45487 6.3043 0
M  V30 7051 N 651.842 -1.52309 0.404946 0
M  V30 7052 C 652.774 -2.24579 -0.45791 0
M  V30 7053 C 653.787 -1.2739 -1.01369 0
M  V30 7054 O 654.976 -1.53363 -0.91335 0
M  V30 7055 C 652.076 -2.9608 -1.64893 0
M  V30 7056 C 651.249 -4.20106 -1.21777 0
M  V30 7057 C 650.308 -4.74468 -2.27523 0
M  V30 7058 O 649.334 -5.37157 -1.88285 0
M  V30 7059 N 650.536 -4.55678 -3.59635 0
M  V30 7060 H 653.301 -2.99265 0.161341 0
M  V30 7061 H 650.862 -1.60228 0.232107 0
M  V30 7062 H 652.854 -3.29344 -2.35191 0
M  V30 7063 H 651.424 -2.24606 -2.17419 0
M  V30 7064 H 650.644 -3.92704 -0.343071 0
M  V30 7065 H 651.932 -5.00658 -0.906596 0
M  V30 7066 H 651.33 -4.05673 -3.94266 0
M  V30 7067 H 649.887 -4.9339 -4.25922 0
M  V30 7068 N 653.32 -0.135238 -1.57019 0
M  V30 7069 C 654.267 0.808908 -2.1616 0
M  V30 7070 C 655.237 1.25234 -1.09113 0
M  V30 7071 O 656.422 1.32697 -1.37099 0
M  V30 7072 C 653.562 2.04729 -2.77813 0
M  V30 7073 C 652.675 1.65074 -3.99218 0
M  V30 7074 C 651.81 2.84002 -4.48906 0
M  V30 7075 C 650.849 2.40663 -5.62803 0
M  V30 7076 N 649.986 3.5256 -6.07162 0
M  V30 7077 H 654.826 0.297751 -2.96509 0
M  V30 7078 H 652.363 0.135264 -1.46477 0
M  V30 7079 H 654.321 2.7731 -3.11697 0
M  V30 7080 H 652.951 2.53275 -2.00128 0
M  V30 7081 H 652.003 0.823029 -3.7139 0
M  V30 7082 H 653.315 1.29236 -4.81767 0
M  V30 7083 H 652.469 3.64788 -4.84783 0
M  V30 7084 H 651.208 3.23076 -3.65339 0
M  V30 7085 H 650.213 1.58314 -5.26514 0
M  V30 7086 H 651.438 2.02687 -6.48147 0
M  V30 7087 H 649.384 3.91278 -5.26534 0
M  V30 7088 H 649.301 3.20699 -6.84608 0
M  V30 7089 H 650.569 4.33738 -6.47682 0
M  V30 7090 N 654.798 1.5699 0.138552 0
M  V30 7091 C 655.731 1.94064 1.2006 0
M  V30 7092 C 656.709 0.807601 1.41126 0
M  V30 7093 O 657.893 1.06399 1.556 0
M  V30 7094 C 655.02 2.21999 2.55801 0
M  V30 7095 C 654.066 3.44617 2.5128 0
M  V30 7096 S 654.899 4.97888 1.97149 0
M  V30 7097 C 656.055 5.28954 3.34602 0
M  V30 7098 H 656.288 2.83843 0.884337 0
M  V30 7099 H 653.821 1.50507 0.344517 0
M  V30 7100 H 655.779 2.38772 3.33914 0
M  V30 7101 H 654.44 1.32869 2.84613 0
M  V30 7102 H 653.633 3.61466 3.51224 0
M  V30 7103 H 653.235 3.27129 1.8128 0
M  V30 7104 H 655.527 5.22938 4.30745 0
M  V30 7105 H 656.47 6.30346 3.22598 0
M  V30 7106 H 656.878 4.56455 3.32128 0
M  V30 7107 N 656.276 -0.40816 1.52223 0
M  V30 7108 C 657.186 -1.52202 1.78526 0
M  V30 7109 C 658.202 -1.60546 0.670892 0
M  V30 7110 O 659.378 -1.77242 0.956404 0
M  V30 7111 C 656.443 -2.87928 1.93128 0
M  V30 7112 C 655.504 -2.89463 3.17033 0
M  V30 7113 C 654.737 -4.18715 3.30929 0
M  V30 7114 O 654.96 -5.12662 2.50067 0
M  V30 7115 O 653.894 -4.27125 4.24084 0
M  V30 7116 H 657.72 -1.32911 2.73072 0
M  V30 7117 H 655.305 -0.594112 1.37079 0
M  V30 7118 H 657.187 -3.68426 2.04549 0
M  V30 7119 H 655.862 -3.07285 1.01772 0
M  V30 7120 H 654.769 -2.07815 3.11069 0
M  V30 7121 H 656.102 -2.75055 4.08174 0
M  V30 7122 N 657.755 -1.42862 -0.66545 0
M  V30 7123 C 658.983 -1.47246 -1.45349 0
M  V30 7124 C 659.398 -0.0865944 -1.88601 0
M  V30 7125 O 658.755 0.900652 -1.58728 0
M  V30 7126 C 658.806 -2.40772 -2.6965 0
M  V30 7127 O 658.527 -3.73968 -2.2821 0
M  V30 7128 C 660.028 -2.54272 -3.63126 0
M  V30 7129 H 657.248 -0.500497 -0.446927 0
M  V30 7130 H 659.792 -1.87477 -0.816871 0
M  V30 7131 H 657.947 -2.0377 -3.29479 0
M  V30 7132 H 658.361 -4.24146 -3.08546 0
M  V30 7133 H 659.835 -3.23815 -4.47043 0
M  V30 7134 H 660.312 -1.58364 -4.09656 0
M  V30 7135 H 660.918 -2.92036 -3.09185 0
M  V30 7136 N 659.233 0.902656 -1.29189 0
M  V30 7137 C 660.473 1.6672 -1.18254 0
M  V30 7138 C 660.837 1.90199 0.262336 0
M  V30 7139 O 662.038 2.6421 0.494612 0
M  V30 7140 C 660.309 2.98178 -1.9704 0
M  V30 7141 S 661.868 3.89226 -2.02605 0
M  V30 7142 H 658.686 0.572432 -0.421714 0
M  V30 7143 H 661.288 1.07279 -1.63436 0
M  V30 7144 H 659.992 2.788 -3.01163 0
M  V30 7145 H 659.523 3.62661 -1.5245 0
M  V30 7146 H 661.538 4.82913 -1.14059 0
M  V30 7147 N 660.711 1.11618 1.11262 0
M  V30 7148 C 662.122 0.881942 1.64556 0
M  V30 7149 C 662.473 -0.585442 1.87262 0
M  V30 7150 O 661.598 -1.44795 1.60821 0
M  V30 7151 C 662.193 1.59446 2.98935 0
M  V30 7152 C 660.752 1.40661 3.4913 0
M  V30 7153 C 659.899 1.63593 2.23903 0
M  V30 7154 H 662.85 1.27217 0.94877 0
M  V30 7155 H 662.871 1.04054 3.65996 0
M  V30 7156 H 662.383 2.66241 2.82378 0
M  V30 7157 H 660.484 0.360835 3.70849 0
M  V30 7158 H 660.597 2.15693 4.27801 0
M  V30 7159 H 658.961 1.05944 2.3162 0
M  V30 7160 H 659.744 2.71666 2.09886 0
M  V30 7161 N 662.189 -1.289 0.906776 0
M  V30 7162 C 663.119 -2.29932 0.406659 0
M  V30 7163 C 664.1 -1.6189 -0.522061 0
M  V30 7164 O 665.285 -1.8935 -0.431283 0
M  V30 7165 C 662.415 -3.45425 -0.360366 0
M  V30 7166 C 661.369 -4.25316 0.478574 0
M  V30 7167 C 660.695 -5.33076 -0.416373 0
M  V30 7168 C 661.995 -4.92739 1.7322 0
M  V30 7169 H 663.689 -2.72013 1.25097 0
M  V30 7170 H 661.235 -1.30768 0.602977 0
M  V30 7171 H 663.188 -4.15186 -0.721029 0
M  V30 7172 H 661.912 -3.02206 -1.23852 0
M  V30 7173 H 660.571 -3.57273 0.821662 0
M  V30 7174 H 660.219 -4.86101 -1.29287 0
M  V30 7175 H 659.919 -5.8743 0.141309 0
M  V30 7176 H 661.443 -6.05686 -0.773072 0
M  V30 7177 H 662.857 -5.54898 1.44086 0
M  V30 7178 H 661.254 -5.57057 2.23175 0
M  V30 7179 H 662.324 -4.17625 2.46408 0
M  V30 7180 N 663.667 -0.670007 -1.42649 0
M  V30 7181 C 664.944 -0.119451 -1.95235 0
M  V30 7182 C 665.324 1.36461 -1.61064 0
M  V30 7183 O 664.672 2.09843 -0.904329 0
M  V30 7184 C 664.882 -0.383498 -3.46887 0
M  V30 7185 C 666.23 -0.297431 -4.23557 0
M  V30 7186 O 667.254 -0.31698 -3.54787 0
M  V30 7187 O 666.113 -0.235507 -5.45992 0
M  V30 7188 H 663.207 -8.85474e-05 -0.827 0
M  V30 7189 H 665.753 -0.744406 -1.52501 0
M  V30 7190 H 664.525 -1.41174 -3.64946 0
M  V30 7191 H 664.148 0.273702 -3.96657 0
M  V30 7192 N 665.145 1.52092 -0.413018 0
M  V30 7193 C 666.422 1.94356 0.22024 0
M  V30 7194 C 666.802 1.35017 1.62277 0
M  V30 7195 O 666.15 0.527511 2.22328 0
M  V30 7196 C 666.36 3.48289 0.222638 0
M  V30 7197 C 667.708 4.22313 0.440098 0
M  V30 7198 O 668.732 3.54919 0.301826 0
M  V30 7199 O 667.591 5.41829 0.712984 0
M  V30 7200 H 664.685 0.814536 0.14304 0
M  V30 7201 H 667.231 1.63083 -0.469242 0
M  V30 7202 H 666.003 3.83872 -0.758836 0
M  V30 7203 H 665.626 3.85934 0.956057 0
M  V30 7204 N 666.623 0.143563 1.56945 0
M  V30 7205 C 667.9 -0.553285 1.87612 0
M  V30 7206 C 668.28 -1.83195 1.04894 0
M  V30 7207 O 667.628 -2.28102 0.134773 0
M  V30 7208 C 667.838 -0.822055 3.3918 0
M  V30 7209 C 669.186 -1.16435 4.08324 0
M  V30 7210 O 670.21 -0.911522 3.4434 0
M  V30 7211 O 669.069 -1.63996 5.21313 0
M  V30 7212 H 666.163 -0.281851 0.777489 0
M  V30 7213 H 668.709 0.179916 1.68744 0
M  V30 7214 H 667.481 0.0830265 3.91212 0
M  V30 7215 H 667.104 -1.60956 3.63564 0
M  V30 7216 N 668.101 -1.57061 -0.130224 0
M  V30 7217 C 669.347 -1.8453 -0.841216 0
M  V30 7218 C 669.68 -0.727666 -1.80052 0
M  V30 7219 O 668.955 0.267419 -1.92653 0
M  V30 7220 C 669.238 -3.22553 -1.60099 0
M  V30 7221 C 669.091 -4.44901 -0.662048 0
M  V30 7222 C 670.41 -3.58003 -2.55973 0
M  V30 7223 H 667.529 -0.671215 -0.304366 0
M  V30 7224 H 670.171 -1.89705 -0.105821 0
M  V30 7225 H 668.321 -3.18272 -2.22789 0
M  V30 7226 H 669.993 -4.61278 -0.0448559 0
M  V30 7227 H 668.236 -4.33791 0.0272253 0
M  V30 7228 H 668.907 -5.3812 -1.23006 0
M  V30 7229 H 671.383 -3.63002 -2.03393 0
M  V30 7230 H 670.259 -4.55576 -3.06172 0
M  V30 7231 H 670.52 -2.84833 -3.38116 0
M  V30 7232 N 669.579 0.400081 -1.52437 0
M  V30 7233 C 670.526 1.48803 -1.76426 0
M  V30 7234 C 671.496 1.5461 -0.607032 0
M  V30 7235 O 672.681 1.71041 -0.845563 0
M  V30 7236 C 669.821 2.86156 -1.92896 0
M  V30 7237 C 668.934 2.89587 -3.20567 0
M  V30 7238 C 668.069 4.18296 -3.27417 0
M  V30 7239 C 667.108 4.15736 -4.49255 0
M  V30 7240 N 666.245 5.36032 -4.53447 0
M  V30 7241 H 671.085 1.27649 -2.69276 0
M  V30 7242 H 668.622 0.619451 -1.33421 0
M  V30 7243 H 670.58 3.65901 -2.00429 0
M  V30 7244 H 669.21 3.05785 -1.03418 0
M  V30 7245 H 668.262 2.02278 -3.22161 0
M  V30 7246 H 669.574 2.83562 -4.10358 0
M  V30 7247 H 668.728 5.06439 -3.34072 0
M  V30 7248 H 667.467 4.27028 -2.35581 0
M  V30 7249 H 666.472 3.25982 -4.42737 0
M  V30 7250 H 667.697 4.08636 -5.42396 0
M  V30 7251 H 665.643 5.45415 -3.64498 0
M  V30 7252 H 665.56 5.32038 -5.37096 0
M  V30 7253 H 666.828 6.26104 -4.64343 0
M  V30 7254 N 671.057 1.43213 0.657864 0
M  V30 7255 C 672.282 1.48227 1.45064 0
M  V30 7256 C 672.707 0.0999939 1.87834 0
M  V30 7257 O 672.065 -0.905269 1.57081 0
M  V30 7258 C 672.113 2.42931 2.6649 0
M  V30 7259 O 671.217 1.91237 3.6538 0
M  V30 7260 H 670.558 0.501551 0.435135 0
M  V30 7261 H 673.088 1.8808 0.805431 0
M  V30 7262 H 673.098 2.6008 3.1436 0
M  V30 7263 H 671.773 3.43348 2.34701 0
M  V30 7264 H 670.35 1.83726 3.24498 0
M  V30 7265 N 672.536 -0.895792 1.29666 0
M  V30 7266 C 673.466 -2.01673 1.17688 0
M  V30 7267 C 674.447 -1.69955 0.0701317 0
M  V30 7268 O 675.632 -1.9258 0.250289 0
M  V30 7269 C 672.762 -3.36568 0.856681 0
M  V30 7270 C 671.716 -3.82509 1.92017 0
M  V30 7271 C 671.042 -5.14574 1.4532 0
M  V30 7272 C 672.342 -4.02409 3.32963 0
M  V30 7273 H 674.036 -2.11953 2.11463 0
M  V30 7274 H 671.582 -1.01839 1.01807 0
M  V30 7275 H 673.535 -4.14498 0.759577 0
M  V30 7276 H 672.259 -3.26391 -0.116763 0
M  V30 7277 H 670.918 -3.068 2.00673 0
M  V30 7278 H 670.566 -5.00815 0.468325 0
M  V30 7279 H 670.266 -5.46283 2.16447 0
M  V30 7280 H 671.79 -5.9504 1.36968 0
M  V30 7281 H 673.204 -4.70808 3.27127 0
M  V30 7282 H 671.601 -4.45478 4.02082 0
M  V30 7283 H 672.671 -3.06616 3.75652 0
M  V30 7284 N 674.014 -1.12206 -1.10668 0
M  V30 7285 C 674.946 -0.74552 -2.16736 0
M  V30 7286 C 675.959 0.226696 -1.61214 0
M  V30 7287 O 677.148 0.0083936 -1.78498 0
M  V30 7288 C 674.248 -0.0823368 -3.388 0
M  V30 7289 C 673.421 -1.08341 -4.2377 0
M  V30 7290 C 672.48 -0.448292 -5.24287 0
M  V30 7291 O 671.506 -1.10458 -5.58379 0
M  V30 7292 N 672.708 0.785336 -5.75163 0
M  V30 7293 H 675.473 -1.65818 -2.49649 0
M  V30 7294 H 673.034 -1.01335 -1.26265 0
M  V30 7295 H 675.026 0.354476 -4.03145 0
M  V30 7296 H 673.596 0.733041 -3.03884 0
M  V30 7297 H 672.816 -1.69792 -3.55759 0
M  V30 7298 H 674.104 -1.76042 -4.77375 0
M  V30 7299 H 673.502 1.33755 -5.4966 0
M  V30 7300 H 672.059 1.16501 -6.41304 0
M  V30 7301 N 675.492 1.28418 -0.913599 0
M  V30 7302 C 676.439 2.27301 -0.400373 0
M  V30 7303 C 677.409 1.57582 0.52509 0
M  V30 7304 O 678.594 1.85482 0.447318 0
M  V30 7305 C 675.734 3.43284 0.35361 0
M  V30 7306 C 674.847 4.27752 -0.604341 0
M  V30 7307 C 673.982 5.30934 0.168075 0
M  V30 7308 C 673.021 6.07065 -0.783499 0
M  V30 7309 N 672.158 7.02086 -0.0446112 0
M  V30 7310 H 676.998 2.70579 -1.24865 0
M  V30 7311 H 674.535 1.33067 -0.627028 0
M  V30 7312 H 676.493 4.09322 0.806945 0
M  V30 7313 H 675.123 3.00997 1.16623 0
M  V30 7314 H 674.175 3.61759 -1.17621 0
M  V30 7315 H 675.487 4.80682 -1.33216 0
M  V30 7316 H 674.641 6.02855 0.681979 0
M  V30 7317 H 673.38 4.78771 0.928947 0
M  V30 7318 H 672.385 5.33995 -1.30878 0
M  V30 7319 H 673.61 6.61317 -1.54392 0
M  V30 7320 H 671.556 6.52273 0.698272 0
M  V30 7321 H 671.473 7.52637 -0.712258 0
M  V30 7322 H 672.741 7.78205 0.449102 0
M  V30 7323 N 676.97 0.677563 1.42291 0
M  V30 7324 C 677.9 0.014968 2.33495 0
M  V30 7325 C 678.881 -0.786376 1.50831 0
M  V30 7326 O 680.066 -0.742975 1.79426 0
M  V30 7327 C 677.196 -0.935023 3.34477 0
M  V30 7328 C 676.15 -0.242074 4.27315 0
M  V30 7329 C 675.476 -1.30519 5.18526 0
M  V30 7330 C 676.776 0.880604 5.14823 0
M  V30 7331 H 678.47 0.776671 2.89151 0
M  V30 7332 H 676.016 0.37494 1.39033 0
M  V30 7333 H 677.969 -1.40766 3.97194 0
M  V30 7334 H 676.693 -1.72818 2.77131 0
M  V30 7335 H 675.352 0.210351 3.65996 0
M  V30 7336 H 675 -2.09041 4.57505 0
M  V30 7337 H 674.7 -0.846652 5.81468 0
M  V30 7338 H 676.224 -1.7787 5.84119 0
M  V30 7339 H 677.638 0.489062 5.7121 0
M  V30 7340 H 676.035 1.26511 5.86613 0
M  V30 7341 H 677.105 1.72818 4.53059 0
M  V30 7342 N 678.448 -1.51871 0.421078 0
M  V30 7343 C 679.378 -2.30231 -0.389363 0
M  V30 7344 C 680.359 -1.34946 -1.03555 0
M  V30 7345 O 681.544 -1.63859 -1.04229 0
M  V30 7346 C 678.674 -3.13247 -1.49979 0
M  V30 7347 C 677.628 -4.16677 -0.977966 0
M  V30 7348 C 676.954 -4.88112 -2.1829 0
M  V30 7349 C 678.254 -5.22295 -0.0236775 0
M  V30 7350 H 679.948 -2.98229 0.264524 0
M  V30 7351 H 677.494 -1.43424 0.12866 0
M  V30 7352 H 679.447 -3.66838 -2.07383 0
M  V30 7353 H 678.171 -2.4304 -2.18173 0
M  V30 7354 H 676.83 -3.64114 -0.426245 0
M  V30 7355 H 676.478 -4.14423 -2.85066 0
M  V30 7356 H 676.178 -5.58041 -1.84021 0
M  V30 7357 H 677.702 -5.44521 -2.76278 0
M  V30 7358 H 679.116 -5.71055 -0.506899 0
M  V30 7359 H 677.513 -5.99656 0.230782 0
M  V30 7360 H 678.583 -4.76131 0.917999 0
M  V30 7361 N 679.926 -0.151884 -1.56866 0
M  V30 7362 C 680.836 0.798876 -2.20579 0
M  V30 7363 C 681.852 1.268 -1.19154 0
M  V30 7364 O 683.028 1.32418 -1.51748 0
M  V30 7365 C 680.093 2.01861 -2.81874 0
M  V30 7366 C 679.154 1.59825 -3.9844 0
M  V30 7367 C 678.387 2.75984 -4.56802 0
M  V30 7368 O 678.61 3.92331 -4.14044 0
M  V30 7369 O 677.544 2.51175 -5.46987 0
M  V30 7370 H 681.37 0.2865 -3.02346 0
M  V30 7371 H 678.955 0.0753806 -1.4921 0
M  V30 7372 H 680.837 2.73235 -3.20813 0
M  V30 7373 H 679.512 2.52042 -2.03117 0
M  V30 7374 H 678.419 0.854601 -3.64208 0
M  V30 7375 H 679.752 1.14355 -4.78731 0
M  V30 7376 N 681.404 1.57128 0.121893 0
M  V30 7377 C 682.314 2.03425 1.16857 0
M  V30 7378 C 683.33 0.954108 1.45509 0
M  V30 7379 O 684.506 1.26541 1.56682 0
M  V30 7380 C 681.571 2.42685 2.47599 0
M  V30 7381 C 680.632 3.64767 2.2637 0
M  V30 7382 C 679.865 4.02145 3.50878 0
M  V30 7383 O 680.088 3.39897 4.58068 0
M  V30 7384 O 679.022 4.95262 3.42051 0
M  V30 7385 H 682.848 2.92825 0.80544 0
M  V30 7386 H 680.433 1.45654 0.332477 0
M  V30 7387 H 682.315 2.68684 3.24634 0
M  V30 7388 H 680.99 1.56432 2.83392 0
M  V30 7389 H 679.897 3.43922 1.47203 0
M  V30 7390 H 681.23 4.51716 1.95482 0
M  V30 7391 N 682.882 -0.391992 1.52647 0
M  V30 7392 C 683.832 -1.47815 1.73594 0
M  V30 7393 C 684.816 -1.49693 0.589979 0
M  V30 7394 O 686.008 -1.5538 0.847701 0
M  V30 7395 C 683.137 -2.85561 1.90551 0
M  V30 7396 C 682.223 -2.88264 3.1107 0
M  V30 7397 N 682.614 -2.60642 4.33474 0
M  V30 7398 C 680.912 -3.19432 3.11254 0
M  V30 7399 C 681.613 -2.70351 5.15058 0
M  V30 7400 N 680.589 -3.03956 4.50679 0
M  V30 7401 H 684.391 -1.2528 2.65861 0
M  V30 7402 H 681.905 -0.599907 1.50913 0
M  V30 7403 H 683.902 -3.63759 2.03678 0
M  V30 7404 H 682.562 -3.09081 0.994952 0
M  V30 7405 H 683.573 -2.34718 4.61658 0
M  V30 7406 H 680.25 -3.48436 2.29997 0
M  V30 7407 H 681.64 -2.52565 6.22624 0
M  V30 7408 N 684.36 -1.4356 -0.65026 0
M  V30 7409 C 685.307 -1.48948 -1.76304 0
M  V30 7410 C 686.277 -0.338919 -1.62605 0
M  V30 7411 O 687.462 -0.54649 -1.82806 0
M  V30 7412 C 684.602 -1.42131 -3.14472 0
M  V30 7413 C 683.715 -2.67415 -3.39284 0
M  V30 7414 C 682.85 -2.52565 -4.67316 0
M  V30 7415 C 681.889 -3.73103 -4.85243 0
M  V30 7416 N 681.026 -3.57046 -6.04535 0
M  V30 7417 H 685.866 -2.44032 -1.71034 0
M  V30 7418 H 683.403 -1.21131 -0.834601 0
M  V30 7419 H 685.361 -1.36172 -3.94351 0
M  V30 7420 H 683.991 -0.506273 -3.18805 0
M  V30 7421 H 683.043 -2.8364 -2.53481 0
M  V30 7422 H 684.355 -3.56943 -3.48415 0
M  V30 7423 H 683.509 -2.44331 -5.55326 0
M  V30 7424 H 682.248 -1.60566 -4.60511 0
M  V30 7425 H 681.253 -3.81743 -3.95667 0
M  V30 7426 H 682.478 -4.66115 -4.93876 0
M  V30 7427 H 680.424 -2.67783 -5.98856 0
M  V30 7428 H 680.341 -4.40178 -6.14638 0
M  V30 7429 H 681.609 -3.52669 -6.95158 0
M  V30 7430 N 685.838 0.888903 -1.30139 0
M  V30 7431 C 687.063 1.67884 -1.21777 0
M  V30 7432 C 687.488 1.86848 0.216689 0
M  V30 7433 O 686.846 1.39659 1.15608 0
M  V30 7434 C 686.894 3.03483 -1.94757 0
M  V30 7435 O 685.998 3.92294 -1.27198 0
M  V30 7436 H 685.339 0.513144 -0.421402 0
M  V30 7437 H 687.869 1.10968 -1.71893 0
M  V30 7438 H 687.879 3.53553 -2.03627 0
M  V30 7439 H 686.554 2.89 -2.99085 0
M  V30 7440 H 685.131 3.50732 -1.26655 0
M  V30 7441 N 687.317 1.12792 1.10072 0
M  V30 7442 C 688.247 0.821688 2.18565 0
M  V30 7443 C 689.228 -0.21612 1.68721 0
M  V30 7444 O 690.413 -0.0764932 1.94049 0
M  V30 7445 C 687.543 0.279624 3.46172 0
M  V30 7446 C 686.497 1.25092 4.09312 0
M  V30 7447 C 685.823 0.568916 5.31665 0
M  V30 7448 C 687.123 2.60699 4.52585 0
M  V30 7449 H 688.817 1.72888 2.44438 0
M  V30 7450 H 686.363 0.832702 1.17482 0
M  V30 7451 H 688.316 0.053099 4.21367 0
M  V30 7452 H 687.04 -0.662929 3.19801 0
M  V30 7453 H 685.699 1.46332 3.36129 0
M  V30 7454 H 685.347 -0.378898 5.01571 0
M  V30 7455 H 685.047 1.21687 5.74862 0
M  V30 7456 H 686.571 0.351517 6.09587 0
M  V30 7457 H 687.985 2.43465 5.19035 0
M  V30 7458 H 686.382 3.21608 5.06644 0
M  V30 7459 H 687.452 3.1886 3.65317 0
M  V30 7460 N 688.795 -1.27931 0.920396 0
M  V30 7461 C 689.727 -2.26175 0.371169 0
M  V30 7462 C 690.74 -1.55122 -0.494065 0
M  V30 7463 O 691.929 -1.75825 -0.30787 0
M  V30 7464 C 689.029 -3.35376 -0.487481 0
M  V30 7465 C 688.202 -4.35943 0.356772 0
M  V30 7466 C 687.261 -5.24374 -0.438042 0
M  V30 7467 O 686.287 -5.68998 0.151715 0
M  V30 7468 N 687.489 -5.53823 -1.73956 0
M  V30 7469 H 690.254 -2.73938 1.21564 0
M  V30 7470 H 687.815 -1.41482 0.787047 0
M  V30 7471 H 689.807 -3.91476 -1.02609 0
M  V30 7472 H 688.377 -2.87269 -1.23269 0
M  V30 7473 H 687.597 -3.7921 1.07672 0
M  V30 7474 H 688.885 -5.0015 0.934206 0
M  V30 7475 H 688.283 -5.19413 -2.24114 0
M  V30 7476 H 686.84 -6.12653 -2.22486 0
M  V30 7477 N 690.273 -0.685099 -1.4193 0
M  V30 7478 C 691.498 -0.218842 -2.06242 0
M  V30 7479 C 691.923 1.11923 -1.51178 0
M  V30 7480 O 691.281 1.69837 -0.634446 0
M  V30 7481 C 691.329 -0.175592 -3.60172 0
M  V30 7482 O 690.433 0.852776 -4.03487 0
M  V30 7483 H 689.774 -0.109531 -0.654904 0
M  V30 7484 H 692.304 -0.937013 -1.81882 0
M  V30 7485 H 692.314 -0.00291151 -4.08 0
M  V30 7486 H 690.989 -1.15222 -3.99621 0
M  V30 7487 H 689.566 0.650301 -3.67186 0
M  V30 7488 N 691.751 1.51645 -0.429126 0
M  V30 7489 C 693.028 1.94579 0.199614 0
M  V30 7490 C 693.408 1.3673 1.60836 0
M  V30 7491 O 692.756 0.551062 2.21756 0
M  V30 7492 C 692.966 3.48506 0.185685 0
M  V30 7493 C 694.314 4.22756 0.395282 0
M  V30 7494 O 695.338 3.55219 0.264165 0
M  V30 7495 O 694.197 5.42555 0.655475 0
M  V30 7496 H 691.291 0.816007 0.134393 0
M  V30 7497 H 693.837 1.62577 -0.486513 0
M  V30 7498 H 692.609 3.83045 -0.799508 0
M  V30 7499 H 692.232 3.86927 0.91507 0
M  V30 7500 N 693.229 0.160201 1.56784 0
M  V30 7501 C 694.159 -0.770264 2.2043 0
M  V30 7502 C 695.14 -1.24736 1.15651 0
M  V30 7503 O 696.325 -1.30253 1.44041 0
M  V30 7504 C 693.455 -2.00427 2.83631 0
M  V30 7505 C 692.409 -1.66345 3.94352 0
M  V30 7506 C 691.735 -2.97119 4.4455 0
M  V30 7507 C 693.035 -0.899972 5.14488 0
M  V30 7508 H 694.729 -0.239783 2.98438 0
M  V30 7509 H 692.275 -0.113891 1.43549 0
M  V30 7510 H 694.228 -2.66012 3.26827 0
M  V30 7511 H 692.952 -2.5587 2.02973 0
M  V30 7512 H 691.611 -1.03133 3.51794 0
M  V30 7513 H 691.259 -3.5058 3.60698 0
M  V30 7514 H 690.959 -2.75073 5.19238 0
M  V30 7515 H 692.483 -3.63753 4.90425 0
M  V30 7516 H 693.897 -1.45818 5.54446 0
M  V30 7517 H 692.294 -0.778968 5.95023 0
M  V30 7518 H 693.364 0.105827 4.84785 0
M  V30 7519 N 694.707 -1.5719 -0.113559 0
M  V30 7520 C 695.617 -2.04041 -1.15777 0
M  V30 7521 C 696.633 -0.961812 -1.45001 0
M  V30 7522 O 697.809 -1.2737 -1.56009 0
M  V30 7523 C 694.874 -2.43994 -2.46308 0
M  V30 7524 C 693.935 -3.65962 -2.24433 0
M  V30 7525 C 693.168 -4.04 -3.4874 0
M  V30 7526 O 693.391 -3.42321 -4.56259 0
M  V30 7527 O 692.325 -4.97069 -3.3942 0
M  V30 7528 H 696.151 -2.93248 -0.789899 0
M  V30 7529 H 693.736 -1.45828 -0.324748 0
M  V30 7530 H 695.618 -2.70401 -3.23204 0
M  V30 7531 H 694.293 -1.57932 -2.82558 0
M  V30 7532 H 693.2 -3.44697 -1.45377 0
M  V30 7533 H 694.533 -4.52746 -1.93084 0
M  V30 7534 N 696.185 0.383891 -1.52853 0
M  V30 7535 C 697.148 1.45197 -1.77343 0
M  V30 7536 C 698.148 1.47362 -0.643522 0
M  V30 7537 O 699.338 1.48443 -0.911613 0
M  V30 7538 C 696.47 2.8445 -1.87885 0
M  V30 7539 H 697.663 1.24764 -2.72716 0
M  V30 7540 H 695.216 0.615939 -1.43652 0
M  V30 7541 H 695.951 3.10222 -0.94515 0
M  V30 7542 H 695.736 2.8428 -2.70051 0
M  V30 7543 H 697.226 3.61832 -2.08488 0
M  V30 7544 N 697.663 1.43903 0.642637 0
M  V30 7545 C 698.573 1.52349 1.78401 0
M  V30 7546 C 699.589 0.409869 1.69104 0
M  V30 7547 O 700.765 0.665548 1.90085 0
M  V30 7548 C 697.83 1.45408 3.14734 0
M  V30 7549 C 696.891 2.67528 3.35749 0
M  V30 7550 C 696.124 2.60909 4.65577 0
M  V30 7551 O 696.347 1.6627 5.45628 0
M  V30 7552 O 695.281 3.5158 4.88544 0
M  V30 7553 H 699.107 2.48752 1.7423 0
M  V30 7554 H 696.692 1.26021 0.802439 0
M  V30 7555 H 698.574 1.44019 3.96026 0
M  V30 7556 H 697.249 0.521437 3.19473 0
M  V30 7557 H 696.156 2.74487 2.5418 0
M  V30 7558 H 697.489 3.598 3.35864 0
M  V30 7559 N 699.141 -0.881989 1.30609 0
M  V30 7560 C 700.073 -1.99375 1.13058 0
M  V30 7561 C 701.086 -1.62636 0.0729879 0
M  V30 7562 O 702.275 -1.75621 0.319301 0
M  V30 7563 C 699.375 -3.31536 0.702651 0
M  V30 7564 C 698.548 -3.96693 1.84265 0
M  V30 7565 C 697.607 -5.07158 1.40277 0
M  V30 7566 O 696.633 -5.28628 2.11048 0
M  V30 7567 N 697.835 -5.79808 0.283449 0
M  V30 7568 H 700.6 -2.14981 2.08814 0
M  V30 7569 H 698.161 -1.05526 1.22784 0
M  V30 7570 H 700.153 -4.02804 0.391331 0
M  V30 7571 H 698.723 -3.12175 -0.162954 0
M  V30 7572 H 697.943 -3.1856 2.32192 0
M  V30 7573 H 699.231 -4.36964 2.60653 0
M  V30 7574 H 698.629 -5.64871 -0.306189 0
M  V30 7575 H 697.186 -6.51792 0.0315985 0
M  V30 7576 N 700.619 -1.13374 -1.09472 0
M  V30 7577 C 701.865 -0.896516 -1.81908 0
M  V30 7578 C 702.198 0.575933 -1.85463 0
M  V30 7579 O 701.473 1.42618 -1.32251 0
M  V30 7580 C 701.756 -1.48445 -3.28079 0
M  V30 7581 C 701.609 -3.02598 -3.32798 0
M  V30 7582 C 702.928 -1.15226 -4.24748 0
M  V30 7583 H 700.047 -0.327127 -0.660422 0
M  V30 7584 H 702.689 -1.40195 -1.2824 0
M  V30 7585 H 700.839 -1.0546 -3.73912 0
M  V30 7586 H 702.511 -3.54335 -2.95372 0
M  V30 7587 H 700.754 -3.37613 -2.72397 0
M  V30 7588 H 701.425 -3.38835 -4.3577 0
M  V30 7589 H 703.901 -1.52369 -3.87199 0
M  V30 7590 H 702.777 -1.59012 -5.25363 0
M  V30 7591 H 703.038 -0.0658891 -4.42051 0
M  V30 7592 N 702.098 1.27442 -0.927168 0
M  V30 7593 C 703.045 2.26863 -0.424459 0
M  V30 7594 C 704.015 1.5813 0.508346 0
M  V30 7595 O 705.2 1.85946 0.42762 0
M  V30 7596 C 702.34 3.43639 0.31718 0
M  V30 7597 C 701.453 4.27087 -0.649675 0
M  V30 7598 C 700.588 5.31082 0.111753 0
M  V30 7599 C 699.627 6.062 -0.847843 0
M  V30 7600 N 698.764 7.01999 -0.119074 0
M  V30 7601 H 703.604 2.69239 -1.27728 0
M  V30 7602 H 701.141 1.32394 -0.641106 0
M  V30 7603 H 703.099 4.10155 0.763486 0
M  V30 7604 H 701.729 3.02217 1.13424 0
M  V30 7605 H 700.781 3.60491 -1.21451 0
M  V30 7606 H 702.093 4.79242 -1.38307 0
M  V30 7607 H 701.247 6.03544 0.618 0
M  V30 7608 H 699.986 4.7973 0.878114 0
M  V30 7609 H 698.991 5.32577 -1.36534 0
M  V30 7610 H 700.216 6.59642 -1.61398 0
M  V30 7611 H 698.162 6.52977 0.629051 0
M  V30 7612 H 698.079 7.5184 -0.792046 0
M  V30 7613 H 699.347 7.78638 0.366537 0
M  V30 7614 N 703.576 0.692616 1.41565 0
M  V30 7615 C 704.822 0.222664 2.01574 0
M  V30 7616 C 705.155 -1.1737 1.54719 0
M  V30 7617 O 704.43 -1.79161 0.757084 0
M  V30 7618 C 704.713 0.277064 3.59033 0
M  V30 7619 C 704.566 1.71016 4.16021 0
M  V30 7620 C 705.885 -0.36479 4.38586 0
M  V30 7621 H 703.004 0.0823839 0.732381 0
M  V30 7622 H 705.646 0.880778 1.68352 0
M  V30 7623 H 703.796 -0.283288 3.87466 0
M  V30 7624 H 705.468 2.32413 3.98475 0
M  V30 7625 H 703.711 2.24525 3.71175 0
M  V30 7626 H 704.382 1.69978 5.25178 0
M  V30 7627 H 706.858 0.112404 4.15948 0
M  V30 7628 H 705.734 -0.296169 5.481 0
M  V30 7629 H 705.995 -1.44506 4.17816 0
M  V30 7630 N 705.054 -1.51416 0.437162 0
M  V30 7631 C 706.002 -2.29328 -0.388765 0
M  V30 7632 C 706.996 -1.35171 -1.02104 0
M  V30 7633 O 708.202 -1.52513 -0.956024 0
M  V30 7634 H 704.577 -0.738048 -0.144183 0
M  V30 7635 H 706.548 -2.96995 0.289212 0
M  V30 7636 C 705.297 -3.14741 -1.47761 0
M  V30 7637 H 704.62 -3.8708 -1.00045 0
M  V30 7638 H 706.06 -3.72313 -2.02877 0
M  V30 7639 C 704.519 -2.30105 -2.46076 0
M  V30 7640 O 705.049 -1.96055 -3.50607 0
M  V30 7641 N 703.255 -1.93331 -2.1696 0
M  V30 7642 H 702.802 -2.2122 -1.31983 0
M  V30 7643 H 702.76 -1.36999 -2.82982 0
M  V30 7644 N 706.532 -0.168513 -1.56696 0
M  V30 7645 C 707.757 0.486688 -2.01609 0
M  V30 7646 C 708.182 1.56203 -1.04796 0
M  V30 7647 O 707.54 1.8128 -0.0270596 0
M  V30 7648 C 707.588 1.04451 -3.45141 0
M  V30 7649 O 706.692 2.15862 -3.51393 0
M  V30 7650 H 706.033 0.116831 -0.653641 0
M  V30 7651 H 708.563 -0.271579 -2.0279 0
M  V30 7652 H 708.573 1.36782 -3.84389 0
M  V30 7653 H 707.248 0.257155 -4.15104 0
M  V30 7654 H 705.825 1.84597 -3.24004 0
M  V30 7655 N 708.01 1.57248 0.105221 0
M  V30 7656 C 708.94 2.04374 1.12931 0
M  V30 7657 C 709.921 0.93074 1.42377 0
M  V30 7658 O 711.106 1.20136 1.52581 0
M  V30 7659 C 708.236 2.45967 2.45189 0
M  V30 7660 C 707.19 3.60838 2.30174 0
M  V30 7661 C 706.516 3.88374 3.67518 0
M  V30 7662 C 707.816 4.92084 1.75073 0
M  V30 7663 H 709.51 2.9018 0.737287 0
M  V30 7664 H 707.056 1.39601 0.353211 0
M  V30 7665 H 709.009 2.77542 3.17094 0
M  V30 7666 H 707.733 1.57148 2.86308 0
M  V30 7667 H 706.392 3.29493 1.60716 0
M  V30 7668 H 706.04 2.96739 4.06147 0
M  V30 7669 H 705.74 4.65703 3.58321 0
M  V30 7670 H 707.264 4.22415 4.40906 0
M  V30 7671 H 708.678 5.22106 2.36809 0
M  V30 7672 H 707.075 5.73507 1.76662 0
M  V30 7673 H 708.145 4.79684 0.709347 0
M  V30 7674 N 709.488 -0.375779 1.53054 0
M  V30 7675 C 710.716 -1.14036 1.72637 0
M  V30 7676 C 711.131 -1.83342 0.450687 0
M  V30 7677 O 710.488 -1.7318 -0.575749 0
M  V30 7678 C 710.539 -2.17841 2.88492 0
M  V30 7679 O 710.26 -1.51358 4.11123 0
M  V30 7680 C 711.761 -3.06924 3.19863 0
M  V30 7681 H 708.981 -0.341386 0.577665 0
M  V30 7682 H 711.525 -0.437809 1.99759 0
M  V30 7683 H 709.68 -2.8371 2.63794 0
M  V30 7684 H 710.094 -2.20439 4.75928 0
M  V30 7685 H 711.568 -3.75763 4.04359 0
M  V30 7686 H 712.045 -3.71169 2.34798 0
M  V30 7687 H 712.651 -2.46684 3.46449 0
M  V30 7688 N 710.966 -1.44241 -0.634997 0
M  V30 7689 C 711.916 -1.47247 -1.74076 0
M  V30 7690 C 712.9 -0.338708 -1.57295 0
M  V30 7691 O 714.092 -0.583751 -1.67097 0
M  V30 7692 C 711.221 -1.41579 -3.12746 0
M  V30 7693 C 710.307 -2.60055 -3.35011 0
M  V30 7694 N 710.698 -3.85321 -3.27661 0
M  V30 7695 C 708.996 -2.55168 -3.65794 0
M  V30 7696 C 709.697 -4.64241 -3.50508 0
M  V30 7697 N 708.673 -3.95254 -3.73196 0
M  V30 7698 H 712.475 -2.4195 -1.66845 0
M  V30 7699 H 709.989 -1.3915 -0.837326 0
M  V30 7700 H 711.986 -1.41816 -3.92038 0
M  V30 7701 H 710.646 -0.479108 -3.21146 0
M  V30 7702 H 711.657 -4.17345 -3.06665 0
M  V30 7703 H 708.334 -1.70276 -3.81198 0
M  V30 7704 H 709.724 -5.73267 -3.50449 0
M  V30 7705 N 712.444 0.87505 -1.31075 0
M  V30 7706 C 713.377 1.98471 -1.12625 0
M  V30 7707 C 714.355 1.6257 -0.0311379 0
M  V30 7708 O 715.539 1.87574 -0.186594 0
M  V30 7709 C 712.666 3.30963 -0.719799 0
M  V30 7710 C 711.712 3.85849 -1.81722 0
M  V30 7711 S 712.545 4.11926 -3.42165 0
M  V30 7712 C 713.701 5.47423 -3.03445 0
M  V30 7713 H 713.934 2.13817 -2.06566 0
M  V30 7714 H 711.467 1.02463 -1.15502 0
M  V30 7715 H 713.425 4.07541 -0.492035 0
M  V30 7716 H 712.086 3.1346 0.200413 0
M  V30 7717 H 711.279 4.81616 -1.48533 0
M  V30 7718 H 710.881 3.16046 -1.99977 0
M  V30 7719 H 713.173 6.28881 -2.52023 0
M  V30 7720 H 714.116 5.85557 -3.98157 0
M  V30 7721 H 714.524 5.10455 -2.41031 0
M  V30 7722 N 713.922 1.13953 1.08869 0
M  V30 7723 C 715.168 0.906151 1.8143 0
M  V30 7724 C 715.501 -0.566089 1.85766 0
M  V30 7725 O 714.776 -1.41915 1.33006 0
M  V30 7726 C 715.059 1.50183 3.27287 0
M  V30 7727 C 714.912 3.04359 3.31189 0
M  V30 7728 C 716.231 1.17477 4.24131 0
M  V30 7729 H 713.35 0.330624 0.658678 0
M  V30 7730 H 715.992 1.40873 1.27495 0
M  V30 7731 H 714.142 1.07442 3.73348 0
M  V30 7732 H 715.814 3.55896 2.93488 0
M  V30 7733 H 714.057 3.39053 2.70602 0
M  V30 7734 H 714.728 3.41141 4.33966 0
M  V30 7735 H 717.204 1.5442 3.86385 0
M  V30 7736 H 716.08 1.61795 5.24513 0
M  V30 7737 H 716.341 0.0893312 4.4201 0
M  V30 7738 N 715.4 -1.26948 0.933913 0
M  V30 7739 C 716.646 -1.94374 0.57848 0
M  V30 7740 C 716.979 -1.73166 -0.879048 0
M  V30 7741 O 716.254 -1.06438 -1.62792 0
M  V30 7742 C 716.537 -3.4834 0.912739 0
M  V30 7743 C 716.39 -3.78866 2.42448 0
M  V30 7744 C 717.709 -4.38062 0.423003 0
M  V30 7745 H 714.828 -0.705959 0.211639 0
M  V30 7746 H 717.47 -1.49951 1.16682 0
M  V30 7747 H 715.62 -3.86309 0.412058 0
M  V30 7748 H 717.292 -3.50654 2.99733 0
M  V30 7749 H 715.535 -3.25198 2.87104 0
M  V30 7750 H 716.206 -4.86458 2.60887 0
M  V30 7751 H 718.682 -4.0728 0.852191 0
M  V30 7752 H 717.558 -5.44599 0.685776 0
M  V30 7753 H 717.819 -4.36886 -0.676994 0
M  V30 7754 N 716.879 -0.700114 -1.41195 0
M  V30 7755 C 718.128 -0.230082 -2.00383 0
M  V30 7756 C 718.441 1.17857 -1.56106 0
M  V30 7757 O 719.647 1.74631 -2.07885 0
M  V30 7758 C 718.103 -0.360447 -3.5809 0
M  V30 7759 C 717.711 -1.77475 -4.11347 0
M  V30 7760 C 719.455 0.0495799 -4.24471 0
M  V30 7761 C 717.362 -1.85653 -5.61504 0
M  V30 7762 H 716.292 -0.0822633 -0.749499 0
M  V30 7763 H 718.943 -0.868969 -1.6162 0
M  V30 7764 H 717.325 0.346768 -3.94479 0
M  V30 7765 H 718.499 -2.51109 -3.86369 0
M  V30 7766 H 716.814 -2.13486 -3.57509 0
M  V30 7767 H 719.411 0.00898219 -5.34699 0
M  V30 7768 H 719.754 1.08904 -4.01803 0
M  V30 7769 H 720.287 -0.607521 -3.93134 0
M  V30 7770 H 717.026 -2.87667 -5.89006 0
M  V30 7771 H 716.546 -1.1641 -5.88395 0
M  V30 7772 H 718.225 -1.62151 -6.26351 0
M  V30 7773 N 718.357 1.51182 -0.445186 0
M  V30 7774 C 719.603 2.02452 0.11882 0
M  V30 7775 C 719.936 1.32824 1.41673 0
M  V30 7776 O 719.211 0.445637 1.89326 0
M  V30 7777 C 719.494 3.5859 0.329475 0
M  V30 7778 C 719.347 4.38823 -0.987638 0
M  V30 7779 C 720.666 4.26241 1.09575 0
M  V30 7780 H 717.785 0.735819 0.0417092 0
M  V30 7781 H 720.427 1.80747 -0.585718 0
M  V30 7782 H 718.577 3.77214 0.9296 0
M  V30 7783 H 720.249 4.3183 -1.62235 0
M  V30 7784 H 718.492 4.03594 -1.59041 0
M  V30 7785 H 719.163 5.46257 -0.794192 0
M  V30 7786 H 721.639 4.11934 0.587328 0
M  V30 7787 H 720.515 5.35354 1.21191 0
M  V30 7788 H 720.776 3.87635 2.12584 0
M  V30 7789 N 719.835 0.176821 1.56605 0
M  V30 7790 C 721.112 -0.513365 1.88743 0
M  V30 7791 C 721.492 -1.80929 1.08757 0
M  V30 7792 O 720.84 -2.27765 0.183127 0
M  V30 7793 C 721.05 -0.749925 3.40848 0
M  V30 7794 C 722.398 -1.07747 4.10701 0
M  V30 7795 O 723.422 -0.838277 3.46196 0
M  V30 7796 O 722.281 -1.52901 5.24675 0
M  V30 7797 H 719.375 -0.265296 0.783292 0
M  V30 7798 H 721.921 0.215669 1.68324 0
M  V30 7799 H 720.693 0.16599 3.90948 0
M  V30 7800 H 720.316 -1.53208 3.66897 0
M  V30 7801 N 721.313 -1.57302 -0.09688 0
M  V30 7802 C 722.223 -2.05258 -1.13606 0
M  V30 7803 C 723.239 -0.977137 -1.43972 0
M  V30 7804 O 724.415 -1.29018 -1.54649 0
M  V30 7805 C 721.48 -2.46593 -2.43706 0
M  V30 7806 C 720.541 -3.68322 -2.20538 0
M  V30 7807 C 719.774 -4.07676 -3.44435 0
M  V30 7808 O 719.997 -3.47141 -4.52603 0
M  V30 7809 O 718.931 -5.00641 -3.34129 0
M  V30 7810 H 722.757 -2.94069 -0.758752 0
M  V30 7811 H 720.342 -1.46164 -0.309263 0
M  V30 7812 H 722.224 -2.73814 -3.20318 0
M  V30 7813 H 720.899 -1.6092 -2.80867 0
M  V30 7814 H 719.806 -3.4622 -1.41713 0
M  V30 7815 H 721.139 -4.54769 -1.88271 0
M  V30 7816 N 722.791 0.367657 -1.53252 0
M  V30 7817 C 723.739 1.47061 -1.8021 0
M  V30 7818 C 724.733 1.55539 -0.671112 0
M  V30 7819 O 725.939 1.58451 -0.854014 0
M  V30 7820 H 722.314 0.489868 -0.570555 0
M  V30 7821 H 724.285 1.21527 -2.72532 0
M  V30 7822 C 723.034 2.83924 -2.00706 0
M  V30 7823 H 722.357 2.78158 -2.87172 0
M  V30 7824 H 723.797 3.60281 -2.23547 0
M  V30 7825 C 722.256 3.27613 -0.785568 0
M  V30 7826 O 722.786 4.01691 0.0267459 0
M  V30 7827 N 720.992 2.84134 -0.609597 0
M  V30 7828 H 720.539 2.24017 -1.27178 0
M  V30 7829 H 720.497 3.13723 0.206281 0
M  V30 7830 N 724.269 1.44576 0.627338 0
M  V30 7831 C 725.494 1.51271 1.41887 0
M  V30 7832 C 725.919 0.139814 1.8758 0
M  V30 7833 O 725.277 -0.871746 1.58966 0
M  V30 7834 C 725.325 2.48529 2.61277 0
M  V30 7835 O 724.429 1.98944 3.61241 0
M  V30 7836 H 723.77 0.510668 0.424399 0
M  V30 7837 H 726.3 1.89746 0.765356 0
M  V30 7838 H 726.31 2.66689 3.08773 0
M  V30 7839 H 724.985 3.48249 2.27366 0
M  V30 7840 H 723.562 1.90568 3.20528 0
M  V30 7841 N 725.747 -0.868086 1.31537 0
M  V30 7842 C 726.995 -1.61807 1.21091 0
M  V30 7843 C 727.316 -1.93631 -0.230623 0
M  V30 7844 O 726.586 -1.5846 -1.15183 0
M  V30 7845 H 725.166 -0.599854 0.445178 0
M  V30 7846 H 727.828 -1.03915 1.64887 0
M  V30 7847 H 726.924 -2.56088 1.78396 0
M  V30 7848 N 727.225 -1.14528 -1.08264 0
M  V30 7849 C 728.135 -0.84728 -2.18765 0
M  V30 7850 C 729.151 0.172826 -1.7314 0
M  V30 7851 O 730.327 0.000985336 -2.014 0
M  V30 7852 C 727.392 -0.330633 -3.4512 0
M  V30 7853 C 726.453 -1.41348 -4.05363 0
M  V30 7854 C 725.686 -0.921387 -5.25686 0
M  V30 7855 O 725.909 0.236587 -5.69909 0
M  V30 7856 O 724.843 -1.70101 -5.77364 0
M  V30 7857 H 728.669 -1.7708 -2.46731 0
M  V30 7858 H 726.254 -0.923661 -1.17426 0
M  V30 7859 H 728.136 -0.0485053 -4.21372 0
M  V30 7860 H 726.811 0.565147 -3.18728 0
M  V30 7861 H 725.718 -1.74908 -3.30693 0
M  V30 7862 H 727.051 -2.28383 -4.36007 0
M  V30 7863 N 728.703 1.26451 -0.940633 0
M  V30 7864 C 729.928 1.98407 -0.60412 0
M  V30 7865 C 730.353 1.69584 0.81382 0
M  V30 7866 O 729.711 0.943553 1.54812 0
M  V30 7867 C 729.759 3.50387 -0.852136 0
M  V30 7868 O 728.863 4.1233 0.076013 0
M  V30 7869 H 728.204 0.622466 -0.231153 0
M  V30 7870 H 730.734 1.60932 -1.26342 0
M  V30 7871 H 730.744 4.00614 -0.772816 0
M  V30 7872 H 729.419 3.70696 -1.88566 0
M  V30 7873 H 727.996 3.7286 -0.0543187 0
M  V30 7874 N 730.181 0.707592 1.40822 0
M  V30 7875 C 731.144 0.0587224 2.29125 0
M  V30 7876 C 732.144 -0.695624 1.44975 0
M  V30 7877 O 733.334 -0.528718 1.65983 0
M  V30 7878 C 730.466 -0.926939 3.28056 0
M  V30 7879 H 731.659 0.836349 2.88002 0
M  V30 7880 H 729.212 0.471778 1.4901 0
M  V30 7881 H 729.947 -1.7319 2.74182 0
M  V30 7882 H 729.732 -0.389015 3.90165 0
M  V30 7883 H 731.222 -1.37837 3.94196 0
M  V30 7884 N 731.66 -1.50943 0.453197 0
M  V30 7885 C 732.888 -2.06628 -0.106135 0
M  V30 7886 C 733.303 -1.31901 -1.35084 0
M  V30 7887 O 732.66 -0.383074 -1.78434 0
M  V30 7888 C 732.711 -3.5914 -0.412368 0
M  V30 7889 O 732.432 -4.31047 0.782948 0
M  V30 7890 C 733.933 -4.31391 -1.02064 0
M  V30 7891 H 731.153 -0.670999 -0.000885896 0
M  V30 7892 H 733.697 -1.94331 0.63684 0
M  V30 7893 H 731.852 -3.71299 -1.10526 0
M  V30 7894 H 732.266 -5.21948 0.516736 0
M  V30 7895 H 733.74 -5.39135 -1.1848 0
M  V30 7896 H 734.217 -3.90714 -2.00598 0
M  V30 7897 H 734.823 -4.23716 -0.366664 0
M  V30 7898 N 733.138 -0.185124 -1.56509 0
M  V30 7899 C 734.101 0.72591 -2.17401 0
M  V30 7900 C 735.101 1.14819 -1.12575 0
M  V30 7901 O 736.291 1.0629 -1.38015 0
M  V30 7902 C 733.423 1.98979 -2.76803 0
M  V30 7903 H 734.616 0.195588 -2.99262 0
M  V30 7904 H 732.169 0.0644772 -1.56167 0
M  V30 7905 H 732.904 2.56287 -1.98714 0
M  V30 7906 H 732.689 1.69583 -3.53531 0
M  V30 7907 H 734.179 2.63966 -3.23592 0
M  V30 7908 N 734.616 1.57351 0.0885366 0
M  V30 7909 C 735.865 1.85604 0.789556 0
M  V30 7910 C 736.178 0.775352 1.79576 0
M  V30 7911 O 737.384 0.945206 2.54515 0
M  V30 7912 C 735.84 3.29175 1.45506 0
M  V30 7913 C 735.448 4.45331 0.488278 0
M  V30 7914 C 737.192 3.66646 2.13942 0
M  V30 7915 C 735.099 5.79937 1.15874 0
M  V30 7916 H 734.029 0.692346 0.298619 0
M  V30 7917 H 736.68 1.83451 0.0425821 0
M  V30 7918 H 735.062 3.25889 2.24972 0
M  V30 7919 H 736.236 4.59977 -0.275359 0
M  V30 7920 H 734.551 4.16301 -0.0907363 0
M  V30 7921 H 737.148 4.64498 2.6485 0
M  V30 7922 H 737.491 2.956 2.93132 0
M  V30 7923 H 738.024 3.71848 1.41328 0
M  V30 7924 H 734.763 6.54232 0.407508 0
M  V30 7925 H 734.283 5.69123 1.89364 0
M  V30 7926 H 735.962 6.24718 1.68336 0
M  V30 7927 N 736.094 -0.359525 1.53444 0
M  V30 7928 C 737.024 -1.44662 1.8329 0
M  V30 7929 C 738.005 -1.55617 0.68683 0
M  V30 7930 O 739.19 -1.70086 0.93725 0
M  V30 7931 C 736.32 -2.81923 2.02822 0
M  V30 7932 C 735.274 -2.85787 3.18606 0
M  V30 7933 C 734.6 -4.25781 3.23442 0
M  V30 7934 C 735.9 -2.52762 4.57065 0
M  V30 7935 H 737.594 -1.19934 2.74329 0
M  V30 7936 H 735.14 -0.575517 1.31999 0
M  V30 7937 H 737.093 -3.58005 2.22285 0
M  V30 7938 H 735.817 -3.08051 1.085 0
M  V30 7939 H 734.476 -2.12157 2.98973 0
M  V30 7940 H 734.124 -4.48994 2.26745 0
M  V30 7941 H 733.824 -4.29281 4.01238 0
M  V30 7942 H 735.348 -5.03727 3.45096 0
M  V30 7943 H 736.762 -3.18557 4.76649 0
M  V30 7944 H 735.159 -2.67569 5.37147 0
M  V30 7945 H 736.229 -1.47993 4.61764 0
M  V30 7946 N 737.572 -1.44907 -0.619662 0
M  V30 7947 C 738.482 -1.55168 -1.75955 0
M  V30 7948 C 739.498 -0.43672 -1.6843 0
M  V30 7949 O 740.674 -0.695704 -1.89002 0
M  V30 7950 C 737.739 -1.50397 -3.12381 0
M  V30 7951 C 736.8 -2.72835 -3.31451 0
M  V30 7952 C 736.033 -2.68283 -4.61368 0
M  V30 7953 O 736.256 -1.74929 -5.42914 0
M  V30 7954 O 735.19 -3.59308 -4.82889 0
M  V30 7955 H 739.016 -2.51493 -1.7025 0
M  V30 7956 H 736.601 -1.27282 -0.782289 0
M  V30 7957 H 738.483 -1.50301 -3.93685 0
M  V30 7958 H 737.158 -0.572197 -3.18603 0
M  V30 7959 H 736.065 -2.78496 -2.49781 0
M  V30 7960 H 737.398 -3.65098 -3.30098 0
M  V30 7961 N 739.05 0.861098 -1.31996 0
M  V30 7962 C 740.327 1.59788 -1.12814 0
M  V30 7963 C 740.707 2.08753 0.313882 0
M  V30 7964 O 740.055 1.87258 1.30946 0
M  V30 7965 C 740.265 2.74901 -2.15012 0
M  V30 7966 C 741.613 3.44643 -2.48004 0
M  V30 7967 O 742.637 2.85119 -2.13508 0
M  V30 7968 O 741.496 4.52044 -3.07113 0
M  V30 7969 H 738.59 0.703408 -0.434909 0
M  V30 7970 H 741.136 0.905788 -1.43505 0
M  V30 7971 H 739.908 2.36198 -3.11971 0
M  V30 7972 H 739.531 3.51792 -1.85279 0
M  V30 7973 N 740.528 1.15101 1.07655 0
M  V30 7974 C 741.46 0.802722 2.14684 0
M  V30 7975 C 742.473 -0.183874 1.61758 0
M  V30 7976 O 743.662 0.0389349 1.78458 0
M  V30 7977 C 740.762 0.172135 3.38463 0
M  V30 7978 C 739.935 1.19538 4.20749 0
M  V30 7979 C 738.994 0.58714 5.22914 0
M  V30 7980 O 738.02 1.25224 5.55255 0
M  V30 7981 N 739.222 -0.632566 5.77043 0
M  V30 7982 H 741.987 1.72379 2.45164 0
M  V30 7983 H 739.548 1.04647 1.23534 0
M  V30 7984 H 741.54 -0.247465 4.03943 0
M  V30 7985 H 740.11 -0.652214 3.0572 0
M  V30 7986 H 739.33 1.79165 3.51132 0
M  V30 7987 H 740.618 1.88636 4.7254 0
M  V30 7988 H 740.016 -1.19135 5.53013 0
M  V30 7989 H 738.573 -0.994566 6.44167 0
M  V30 7990 N 742.006 -1.2595 0.947325 0
M  V30 7991 C 742.936 -2.28521 0.479604 0
M  V30 7992 C 743.917 -1.63469 -0.470293 0
M  V30 7993 O 745.102 -1.90627 -0.370824 0
M  V30 7994 C 742.232 -3.46397 -0.250289 0
M  V30 7995 C 741.186 -4.23578 0.613643 0
M  V30 7996 C 740.512 -5.34131 -0.246568 0
M  V30 7997 C 741.812 -4.86979 1.88809 0
M  V30 7998 H 743.506 -2.67895 1.33688 0
M  V30 7999 H 741.052 -1.28783 0.644274 0
M  V30 8000 H 743.005 -4.17269 -0.588576 0
M  V30 8001 H 741.729 -3.05993 -1.14175 0
M  V30 8002 H 740.388 -3.54478 0.93491 0
M  V30 8003 H 740.036 -4.89968 -1.13756 0
M  V30 8004 H 739.736 -5.86683 0.328123 0
M  V30 8005 H 741.26 -6.07839 -0.579986 0
M  V30 8006 H 742.674 -5.50034 1.61666 0
M  V30 8007 H 741.071 -5.49675 2.40784 0
M  V30 8008 H 742.141 -4.09575 2.5957 0
M  V30 8009 N 743.484 -0.715051 -1.40445 0
M  V30 8010 C 744.416 -0.0227516 -2.29189 0
M  V30 8011 C 745.429 0.724313 -1.458 0
M  V30 8012 O 746.618 0.571781 -1.69094 0
M  V30 8013 C 743.718 0.992038 -3.24055 0
M  V30 8014 C 742.891 0.310613 -4.36296 0
M  V30 8015 C 741.95 1.23071 -5.11605 0
M  V30 8016 O 740.976 0.71571 -5.64682 0
M  V30 8017 N 742.178 2.56188 -5.2091 0
M  V30 8018 H 744.943 -0.78473 -2.89244 0
M  V30 8019 H 742.504 -0.562637 -1.51809 0
M  V30 8020 H 744.496 1.60973 -3.71308 0
M  V30 8021 H 743.066 1.65538 -2.65171 0
M  V30 8022 H 742.286 -0.487269 -3.91177 0
M  V30 8023 H 743.574 -0.162415 -5.08541 0
M  V30 8024 H 742.972 3.00527 -4.7927 0
M  V30 8025 H 741.529 3.13103 -5.71673 0
M  V30 8026 N 744.962 1.50701 -0.461195 0
M  V30 8027 C 745.909 2.2831 0.338094 0
M  V30 8028 C 746.879 1.32928 0.995957 0
M  V30 8029 O 748.064 1.61857 1.0103 0
M  V30 8030 C 745.204 3.14539 1.41983 0
M  V30 8031 C 744.317 4.24942 0.77773 0
M  V30 8032 C 743.452 4.98443 1.83652 0
M  V30 8033 C 742.491 6.00733 1.17413 0
M  V30 8034 N 741.628 6.6755 2.17533 0
M  V30 8035 H 746.468 2.96167 -0.330051 0
M  V30 8036 H 744.005 1.4606 -0.174611 0
M  V30 8037 H 745.963 3.62877 2.05855 0
M  V30 8038 H 744.593 2.48749 2.05727 0
M  V30 8039 H 743.645 3.80391 0.0266924 0
M  V30 8040 H 744.957 4.98151 0.254362 0
M  V30 8041 H 744.111 5.50449 2.55129 0
M  V30 8042 H 742.85 4.24917 2.39367 0
M  V30 8043 H 741.855 5.47997 0.444944 0
M  V30 8044 H 743.08 6.76227 0.624006 0
M  V30 8045 H 741.026 5.96823 2.72284 0
M  V30 8046 H 740.943 7.36603 1.70154 0
M  V30 8047 H 742.211 7.24178 2.88421 0
M  V30 8048 N 746.441 0.193421 1.56409 0
M  V30 8049 C 747.371 -0.723334 2.22014 0
M  V30 8050 C 748.352 -1.22254 1.1827 0
M  V30 8051 O 749.537 -1.27168 1.46771 0
M  V30 8052 C 746.667 -1.94366 2.87818 0
M  V30 8053 C 745.621 -1.57943 3.97791 0
M  V30 8054 C 744.947 -2.87623 4.50752 0
M  V30 8055 C 746.247 -0.790639 5.16281 0
M  V30 8056 H 747.941 -0.176426 2.9888 0
M  V30 8057 H 745.487 -0.0834166 1.43758 0
M  V30 8058 H 747.44 -2.5902 3.32396 0
M  V30 8059 H 746.164 -2.51507 2.08355 0
M  V30 8060 H 744.823 -0.956482 3.53903 0
M  V30 8061 H 744.471 -3.4285 3.68053 0
M  V30 8062 H 744.171 -2.63998 5.24956 0
M  V30 8063 H 745.695 -3.53268 4.9803 0
M  V30 8064 H 747.109 -1.34024 5.57414 0
M  V30 8065 H 745.506 -0.65258 5.96541 0
M  V30 8066 H 746.576 0.208633 4.84451 0
M  V30 8067 N 747.919 -1.57396 -0.0801906 0
M  V30 8068 C 749.167 -1.86467 -0.779384 0
M  V30 8069 C 749.488 -0.784243 -1.78535 0
M  V30 8070 O 748.758 0.187986 -1.94996 0
M  V30 8071 H 747.338 -0.68806 -0.29083 0
M  V30 8072 H 750 -1.94813 -0.0582749 0
M  V30 8073 H 749.096 -2.83701 -1.30078 0
M  V30 8074 N 749.397 0.351382 -1.53633 0
M  V30 8075 C 750.307 1.45471 -1.84052 0
M  V30 8076 C 751.323 1.57945 -0.730015 0
M  V30 8077 O 752.499 1.73571 -1.02153 0
M  V30 8078 C 749.564 2.80562 -2.03681 0
M  V30 8079 C 748.625 2.77497 -3.27558 0
M  V30 8080 C 747.858 4.06144 -3.46241 0
M  V30 8081 O 748.081 5.03028 -2.68922 0
M  V30 8082 O 747.015 4.11092 -4.39645 0
M  V30 8083 H 750.841 1.22684 -2.77817 0
M  V30 8084 H 748.426 0.542827 -1.3919 0
M  V30 8085 H 750.308 3.6058 -2.18082 0
M  V30 8086 H 748.983 3.03296 -1.13106 0
M  V30 8087 H 747.89 1.96126 -3.18568 0
M  V30 8088 H 749.223 2.59716 -4.18101 0
M  V30 8089 N 750.875 1.45233 0.611969 0
M  V30 8090 C 752.291 1.29542 0.932251 0
M  V30 8091 C 752.491 0.24523 2.00002 0
M  V30 8092 O 751.547 -0.362333 2.49887 0
M  V30 8093 C 752.86 2.67301 1.37733 0
M  V30 8094 C 754.408 2.75163 1.49178 0
M  V30 8095 C 754.883 4.13437 1.97064 0
M  V30 8096 N 756.374 4.15709 2.04304 0
M  V30 8097 C 757.109 5.19566 2.42568 0
M  V30 8098 N 756.605 6.33771 2.79832 0
M  V30 8099 N 758.398 5.06923 2.42869 0
M  V30 8100 H 750.549 2.12192 -0.0938679 0
M  V30 8101 H 752.812 0.947775 0.0206569 0
M  V30 8102 H 752.518 3.45318 0.666951 0
M  V30 8103 H 752.392 2.95472 2.3447 0
M  V30 8104 H 754.779 1.97453 2.19309 0
M  V30 8105 H 754.86 2.50712 0.507674 0
M  V30 8106 H 754.504 4.91631 1.27521 0
M  V30 8107 H 754.434 4.35277 2.9638 0
M  V30 8108 H 756.925 3.33293 1.78113 0
M  V30 8109 H 757.238 7.08815 3.07898 0
M  V30 8110 H 755.583 6.37179 2.77538 0
M  V30 8111 H 758.774 4.1675 2.1316 0
M  V30 8112 H 758.947 5.87981 2.72364 0
M  V30 8113 N 752.353 -0.854086 1.3245 0
M  V30 8114 C 753.599 -1.6105 1.24235 0
M  V30 8115 C 753.954 -1.91421 -0.193877 0
M  V30 8116 O 753.247 -1.54599 -1.1318 0
M  V30 8117 C 753.441 -2.93746 2.03587 0
M  V30 8118 C 753.27 -2.76335 3.54781 0
M  V30 8119 C 752.04 -2.74687 4.24117 0
M  V30 8120 C 754.238 -2.50052 4.4942 0
M  V30 8121 N 752.22 -2.48493 5.6136 0
M  V30 8122 C 753.591 -2.33269 5.74444 0
M  V30 8123 C 755.646 -2.35525 4.38671 0
M  V30 8124 C 754.349 -2.03434 6.89933 0
M  V30 8125 C 756.375 -2.07081 5.5396 0
M  V30 8126 C 755.737 -1.91098 6.77983 0
M  V30 8127 H 751.836 -0.593008 0.50977 0
M  V30 8128 H 754.42 -1.00392 1.66822 0
M  V30 8129 H 752.591 -3.52382 1.63345 0
M  V30 8130 H 754.323 -3.58768 1.87263 0
M  V30 8131 H 751.078 -2.87647 3.7624 0
M  V30 8132 H 751.502 -2.38322 6.33665 0
M  V30 8133 H 756.144 -2.46602 3.43435 0
M  V30 8134 H 753.862 -1.91095 7.85181 0
M  V30 8135 H 757.448 -1.96618 5.4757 0
M  V30 8136 H 756.328 -1.69402 7.65684 0
M  V30 8137 N 753.831 -1.1567 -1.07043 0
M  V30 8138 C 755.059 -0.957471 -1.83412 0
M  V30 8139 C 755.474 0.494271 -1.82215 0
M  V30 8140 O 754.831 1.34288 -1.23584 0
M  V30 8141 C 754.882 -1.46784 -3.30359 0
M  V30 8142 O 754.603 -2.86271 -3.31633 0
M  V30 8143 C 756.104 -1.31054 -4.23485 0
M  V30 8144 H 753.324 -0.33986 -0.578564 0
M  V30 8145 H 755.868 -1.53518 -1.35102 0
M  V30 8146 H 754.023 -0.932586 -3.76007 0
M  V30 8147 H 754.437 -3.0948 -4.23465 0
M  V30 8148 H 755.911 -1.71605 -5.24648 0
M  V30 8149 H 756.388 -0.255107 -4.38458 0
M  V30 8150 H 756.994 -1.83503 -3.83676 0
M  V30 8151 N 755.309 1.25446 -0.953992 0
M  V30 8152 C 756.272 2.24156 -0.478179 0
M  V30 8153 C 757.272 1.55278 0.417776 0
M  V30 8154 O 758.462 1.72866 0.215155 0
M  V30 8155 C 755.594 3.39495 0.309202 0
M  V30 8156 H 756.787 2.67764 -1.35064 0
M  V30 8157 H 754.34 1.37822 -0.737206 0
M  V30 8158 H 755.075 3.01307 1.19936 0
M  V30 8159 H 754.86 3.90679 -0.333562 0
M  V30 8160 H 756.35 4.12796 0.631594 0
M  V30 8161 N 756.787 0.722489 1.40064 0
M  V30 8162 C 758.033 0.265371 2.01056 0
M  V30 8163 C 758.366 -1.14062 1.57174 0
M  V30 8164 O 757.641 -1.77514 0.794916 0
M  V30 8165 C 757.924 0.353157 3.58364 0
M  V30 8166 C 757.777 1.79802 4.123 0
M  V30 8167 C 759.096 -0.271677 4.39261 0
M  V30 8168 H 756.215 0.0979002 0.730469 0
M  V30 8169 H 758.857 0.916289 1.66446 0
M  V30 8170 H 757.007 -0.201037 3.87979 0
M  V30 8171 H 758.679 2.40813 3.93455 0
M  V30 8172 H 756.922 2.32348 3.66329 0
M  V30 8173 H 757.593 1.81079 5.21454 0
M  V30 8174 H 760.069 0.200607 4.15616 0
M  V30 8175 H 758.945 -0.179843 5.48605 0
M  V30 8176 H 759.206 -1.35611 4.20787 0
M  V30 8177 N 758.265 -1.50454 0.469181 0
M  V30 8178 C 759.505 -2.04222 -0.0852381 0
M  V30 8179 C 759.869 -1.34357 -1.37158 0
M  V30 8180 O 761.07 -1.78669 -2.00825 0
M  V30 8181 C 759.341 -3.56403 -0.266778 0
M  V30 8182 S 760.9 -4.31811 -0.780028 0
M  V30 8183 H 757.718 -0.7108 -0.0168589 0
M  V30 8184 H 760.32 -1.8487 0.635883 0
M  V30 8185 H 759.024 -4.04807 0.67525 0
M  V30 8186 H 758.555 -3.80106 -1.01407 0
M  V30 8187 H 760.57 -4.51706 -2.05368 0
M  V30 8188 N 759.743 -0.201713 -1.56304 0
M  V30 8189 C 761.159 0.154025 -1.58855 0
M  V30 8190 C 761.359 1.60516 -1.21807 0
M  V30 8191 O 760.415 2.34193 -0.94393 0
M  V30 8192 C 761.728 -0.154319 -3.00304 0
M  V30 8193 C 763.276 -0.0949578 -3.12856 0
M  V30 8194 C 763.751 -0.376703 -4.56448 0
M  V30 8195 N 765.242 -0.325558 -4.62054 0
M  V30 8196 C 765.977 -0.51732 -5.71062 0
M  V30 8197 N 765.473 -0.769789 -6.8851 0
M  V30 8198 N 767.266 -0.45112 -5.60287 0
M  V30 8199 H 759.417 -1.14858 -1.78666 0
M  V30 8200 H 761.68 -0.458934 -0.829508 0
M  V30 8201 H 761.386 -1.16074 -3.31994 0
M  V30 8202 H 761.26 0.540014 -3.73314 0
M  V30 8203 H 763.647 0.902075 -2.80974 0
M  V30 8204 H 763.728 -0.822468 -2.42217 0
M  V30 8205 H 763.372 -1.37108 -4.89044 0
M  V30 8206 H 763.302 0.371772 -5.25286 0
M  V30 8207 H 765.793 -0.137308 -3.7765 0
M  V30 8208 H 766.106 -0.904744 -7.67486 0
M  V30 8209 H 764.451 -0.806758 -6.90302 0
M  V30 8210 H 767.642 -0.254253 -4.67409 0
M  V30 8211 H 767.815 -0.603982 -6.45179 0
M  V30 8212 N 761.222 1.57436 0.0718424 0
M  V30 8213 C 762.468 1.88388 0.766904 0
M  V30 8214 C 762.823 0.7954 1.75189 0
M  V30 8215 O 762.116 -0.200438 1.90549 0
M  V30 8216 C 762.31 3.23723 1.51455 0
M  V30 8217 C 762.139 4.45632 0.603475 0
M  V30 8218 C 760.909 5.04728 0.240437 0
M  V30 8219 C 763.107 5.14203 -0.0997624 0
M  V30 8220 N 761.089 6.10163 -0.676363 0
M  V30 8221 C 762.46 6.13812 -0.873755 0
M  V30 8222 C 764.515 4.97605 -0.171238 0
M  V30 8223 C 763.218 6.98615 -1.71258 0
M  V30 8224 C 765.244 5.82935 -0.997041 0
M  V30 8225 C 764.606 6.82082 -1.75908 0
M  V30 8226 H 760.705 0.738888 0.256064 0
M  V30 8227 H 763.289 1.94679 0.0284273 0
M  V30 8228 H 761.46 3.1844 2.22375 0
M  V30 8229 H 763.192 3.42324 2.15862 0
M  V30 8230 H 759.947 4.69869 0.593284 0
M  V30 8231 H 760.371 6.67537 -1.12801 0
M  V30 8232 H 765.013 4.20869 0.403586 0
M  V30 8233 H 762.731 7.74726 -2.29838 0
M  V30 8234 H 766.317 5.72149 -1.05532 0
M  V30 8235 H 765.197 7.46964 -2.38778 0
M  V30 8236 N 762.7 -0.34323 1.53817 0
M  V30 8237 C 763.928 -1.10348 1.75017 0
M  V30 8238 C 764.343 -1.82345 0.489475 0
M  V30 8239 O 763.7 -1.74362 -0.538886 0
M  V30 8240 C 763.751 -2.11672 2.93048 0
M  V30 8241 O 763.472 -1.42603 4.14241 0
M  V30 8242 C 764.973 -3.0007 3.26301 0
M  V30 8243 H 762.193 -0.329056 0.584776 0
M  V30 8244 H 764.737 -0.395339 2.00642 0
M  V30 8245 H 762.892 -2.78051 2.69753 0
M  V30 8246 H 763.306 -2.10294 4.80496 0
M  V30 8247 H 764.78 -3.67101 4.12239 0
M  V30 8248 H 765.257 -3.66105 2.42618 0
M  V30 8249 H 765.863 -2.3928 3.51604 0
M  V30 8250 N 764.178 -1.45556 -0.604258 0
M  V30 8251 C 765.088 -1.57025 -1.74299 0
M  V30 8252 C 766.104 -0.45456 -1.67958 0
M  V30 8253 O 767.28 -0.715711 -1.88254 0
M  V30 8254 C 764.345 -1.53702 -3.10768 0
M  V30 8255 C 763.406 -2.76335 -3.28538 0
M  V30 8256 C 762.639 -2.73161 -4.58496 0
M  V30 8257 O 762.862 -1.80678 -5.41028 0
M  V30 8258 O 761.796 -3.64409 -4.79051 0
M  V30 8259 H 765.622 -2.53284 -1.67573 0
M  V30 8260 H 763.207 -1.28104 -0.768745 0
M  V30 8261 H 765.089 -1.54468 -3.92068 0
M  V30 8262 H 763.764 -0.605957 -3.17978 0
M  V30 8263 H 762.671 -2.8113 -2.46813 0
M  V30 8264 H 764.004 -3.68578 -3.26207 0
M  V30 8265 N 765.656 0.84705 -1.32902 0
M  V30 8266 C 766.566 1.98845 -1.2449 0
M  V30 8267 C 767.582 1.7329 -0.15702 0
M  V30 8268 O 768.758 1.978 -0.379104 0
M  V30 8269 C 765.823 3.32679 -0.975985 0
M  V30 8270 C 764.884 3.71405 -2.15306 0
M  V30 8271 C 764.117 4.98853 -1.89688 0
M  V30 8272 O 764.34 5.64134 -0.843168 0
M  V30 8273 O 763.274 5.34889 -2.76002 0
M  V30 8274 H 767.1 2.0888 -2.2046 0
M  V30 8275 H 764.685 0.978852 -1.12867 0
M  V30 8276 H 766.567 4.12885 -0.842826 0
M  V30 8277 H 765.242 3.23667 -0.0464954 0
M  V30 8278 H 764.149 2.91743 -2.34172 0
M  V30 8279 H 765.482 3.85073 -3.06561 0
M  V30 8280 N 767.134 1.16236 1.06428 0
M  V30 8281 C 768.55 0.906983 1.31324 0
M  V30 8282 C 768.75 -0.440872 1.96618 0
M  V30 8283 O 767.806 -1.1807 2.23194 0
M  V30 8284 C 769.119 2.05501 2.19522 0
M  V30 8285 C 770.667 2.09061 2.32943 0
M  V30 8286 C 771.142 3.23214 3.24495 0
M  V30 8287 N 772.633 3.22922 3.32078 0
M  V30 8288 C 773.368 4.07889 4.03006 0
M  V30 8289 N 772.864 5.02941 4.76469 0
M  V30 8290 N 774.657 3.95881 3.99043 0
M  V30 8291 H 766.808 2.03015 0.624388 0
M  V30 8292 H 769.071 0.88576 0.337835 0
M  V30 8293 H 768.777 3.02847 1.78819 0
M  V30 8294 H 768.651 1.99538 3.201 0
M  V30 8295 H 771.038 1.12308 2.72893 0
M  V30 8296 H 771.119 2.19089 1.32037 0
M  V30 8297 H 770.763 4.20225 2.85261 0
M  V30 8298 H 770.693 3.10423 4.25377 0
M  V30 8299 H 773.184 2.54093 2.79724 0
M  V30 8300 H 773.497 5.64196 5.28112 0
M  V30 8301 H 771.842 5.06922 4.75453 0
M  V30 8302 H 775.033 3.20927 3.40769 0
M  V30 8303 H 775.206 4.62321 4.54052 0
M  V30 8304 N 768.612 -1.24939 0.960631 0
M  V30 8305 C 769.858 -1.93425 0.629155 0
M  V30 8306 C 770.213 -1.73784 -0.825635 0
M  V30 8307 O 769.506 -1.07595 -1.58536 0
M  V30 8308 C 769.7 -3.45066 0.930809 0
M  V30 8309 C 769.529 -3.79455 2.41337 0
M  V30 8310 C 768.299 -4.01195 3.07197 0
M  V30 8311 C 770.497 -3.86492 3.39306 0
M  V30 8312 N 768.479 -4.22626 4.45265 0
M  V30 8313 C 769.85 -4.12682 4.62702 0
M  V30 8314 C 771.905 -3.69198 3.34061 0
M  V30 8315 C 770.608 -4.23376 5.81502 0
M  V30 8316 C 772.634 -3.81135 4.52206 0
M  V30 8317 C 771.996 -4.07743 5.74391 0
M  V30 8318 H 768.095 -0.729791 0.280943 0
M  V30 8319 H 770.679 -1.50597 1.23404 0
M  V30 8320 H 768.85 -3.86776 0.354801 0
M  V30 8321 H 770.582 -4.00826 0.558627 0
M  V30 8322 H 767.337 -3.97319 2.5775 0
M  V30 8323 H 767.761 -4.37335 5.16785 0
M  V30 8324 H 772.403 -3.47639 2.40638 0
M  V30 8325 H 770.121 -4.4375 6.75361 0
M  V30 8326 H 773.707 -3.69133 4.49702 0
M  V30 8327 H 772.587 -4.16768 6.64284 0
M  V30 8328 N 770.09 -0.729906 -1.39679 0
M  V30 8329 C 771.038 -0.0756589 -2.32477 0
M  V30 8330 C 772.032 0.731438 -1.52795 0
M  V30 8331 O 773.238 0.633195 -1.68495 0
M  V30 8332 H 769.613 -0.00566492 -0.751979 0
M  V30 8333 H 771.584 -0.874797 -2.85289 0
M  V30 8334 C 770.333 0.821313 -3.37861 0
M  V30 8335 H 769.656 0.209666 -3.9925 0
M  V30 8336 H 771.096 1.24679 -4.05254 0
M  V30 8337 C 769.555 1.9533 -2.74495 0
M  V30 8338 O 770.085 3.04548 -2.61942 0
M  V30 8339 N 768.291 1.74119 -2.3266 0
M  V30 8340 H 767.838 0.852908 -2.4307 0
M  V30 8341 H 767.796 2.50036 -1.90603 0
M  V30 8342 N 771.568 1.50203 -0.477153 0
M  V30 8343 C 772.984 1.59056 -0.131663 0
M  V30 8344 C 773.184 1.48473 1.36227 0
M  V30 8345 O 772.24 1.34635 2.13611 0
M  V30 8346 C 773.553 2.92741 -0.687254 0
M  V30 8347 C 775.101 3.0615 -0.651223 0
M  V30 8348 C 775.576 4.42419 -1.18446 0
M  V30 8349 N 777.067 4.48847 -1.14413 0
M  V30 8350 C 777.802 5.52689 -1.52717 0
M  V30 8351 N 777.298 6.63754 -1.98499 0
M  V30 8352 N 779.091 5.43267 -1.44282 0
M  V30 8353 H 771.242 1.55325 -1.44872 0
M  V30 8354 H 773.505 0.734395 -0.599473 0
M  V30 8355 H 773.211 3.0598 -1.73405 0
M  V30 8356 H 773.085 3.76961 -0.134215 0
M  V30 8357 H 775.472 2.92556 0.386677 0
M  V30 8358 H 775.553 2.23673 -1.24114 0
M  V30 8359 H 775.197 4.56763 -2.22103 0
M  V30 8360 H 775.127 5.23498 -0.570709 0
M  V30 8361 H 777.618 3.69152 -0.808416 0
M  V30 8362 H 777.931 7.39059 -2.25859 0
M  V30 8363 H 776.276 6.64858 -2.02456 0
M  V30 8364 H 779.467 4.55387 -1.08352 0
M  V30 8365 H 779.64 6.24074 -1.74459 0
M  V30 8366 N 773.046 0.209999 1.56195 0
M  V30 8367 C 773.976 -0.699746 2.22769 0
M  V30 8368 C 774.957 -1.20993 1.1956 0
M  V30 8369 O 776.142 -1.25605 1.48112 0
M  V30 8370 C 773.272 -1.91302 2.89863 0
M  V30 8371 C 772.226 -1.53715 3.99444 0
M  V30 8372 C 771.552 -2.82826 4.53777 0
M  V30 8373 C 772.852 -0.735836 5.17091 0
M  V30 8374 H 774.546 -0.144716 2.9905 0
M  V30 8375 H 772.092 -0.0681645 1.43839 0
M  V30 8376 H 774.045 -2.5548 3.35124 0
M  V30 8377 H 772.769 -2.49283 2.11011 0
M  V30 8378 H 771.428 -0.918892 3.54897 0
M  V30 8379 H 771.076 -3.38927 3.71669 0
M  V30 8380 H 770.776 -2.58415 5.27727 0
M  V30 8381 H 772.3 -3.47966 5.01749 0
M  V30 8382 H 773.714 -1.28105 5.58804 0
M  V30 8383 H 772.111 -0.589272 5.972 0
M  V30 8384 H 773.181 0.260004 4.84202 0
M  V30 8385 N 774.524 -1.57472 -0.0634922 0
M  V30 8386 C 775.456 -2.00999 -1.10145 0
M  V30 8387 C 776.469 -0.917219 -1.34503 0
M  V30 8388 O 777.658 -1.19501 -1.32596 0
M  V30 8389 C 774.758 -2.34089 -2.45063 0
M  V30 8390 C 773.931 -3.65317 -2.40546 0
M  V30 8391 C 772.99 -3.85982 -3.57637 0
M  V30 8392 O 772.016 -4.5747 -3.38689 0
M  V30 8393 N 773.218 -3.28971 -4.78287 0
M  V30 8394 H 775.983 -2.90656 -0.730714 0
M  V30 8395 H 773.544 -1.59926 -0.252017 0
M  V30 8396 H 775.536 -2.4508 -3.22053 0
M  V30 8397 H 774.106 -1.50279 -2.74107 0
M  V30 8398 H 773.326 -3.65003 -1.48885 0
M  V30 8399 H 774.614 -4.51468 -2.34636 0
M  V30 8400 H 774.012 -2.70962 -4.96584 0
M  V30 8401 H 772.569 -3.45398 -5.5276 0
M  V30 8402 N 776.003 0.335068 -1.53997 0
M  V30 8403 C 776.913 1.43511 -1.85585 0
M  V30 8404 C 777.929 1.57162 -0.746726 0
M  V30 8405 O 779.105 1.72477 -1.03988 0
M  V30 8406 C 776.17 2.78386 -2.06646 0
M  V30 8407 C 775.231 2.74007 -3.30483 0
M  V30 8408 C 774.464 4.02449 -3.50529 0
M  V30 8409 O 774.687 5.00147 -2.74242 0
M  V30 8410 O 773.621 4.06405 -4.4398 0
M  V30 8411 H 777.447 1.19731 -2.79102 0
M  V30 8412 H 775.032 0.528033 -1.39758 0
M  V30 8413 H 776.914 3.58247 -2.21894 0
M  V30 8414 H 775.589 3.0208 -1.16317 0
M  V30 8415 H 774.496 1.92736 -3.2063 0
M  V30 8416 H 775.829 2.55267 -4.20832 0
M  V30 8417 N 777.481 1.45874 0.596531 0
M  V30 8418 C 778.73 1.49737 1.35135 0
M  V30 8419 C 779.043 0.147755 1.95041 0
M  V30 8420 O 780.249 0.0640984 2.71424 0
M  V30 8421 C 778.705 2.6378 2.44843 0
M  V30 8422 C 778.313 4.05102 1.91301 0
M  V30 8423 C 780.057 2.769 3.21755 0
M  V30 8424 C 777.964 5.10508 2.98557 0
M  V30 8425 H 776.894 0.557219 0.507959 0
M  V30 8426 H 779.545 1.72046 0.638147 0
M  V30 8427 H 777.927 2.34774 3.189 0
M  V30 8428 H 779.101 4.43836 1.2388 0
M  V30 8429 H 777.416 3.96528 1.271 0
M  V30 8430 H 780.013 3.52819 4.01775 0
M  V30 8431 H 780.356 1.83924 3.73467 0
M  V30 8432 H 780.889 3.05485 2.54802 0
M  V30 8433 H 777.628 6.0523 2.51749 0
M  V30 8434 H 777.148 4.76332 3.6451 0
M  V30 8435 H 778.827 5.35745 3.62748 0
M  V30 8436 N 778.959 -0.83999 1.33349 0
M  V30 8437 C 779.907 -1.97113 1.23488 0
M  V30 8438 C 780.901 -1.68849 0.136503 0
M  V30 8439 O 782.107 -1.77476 0.300389 0
M  V30 8440 H 778.482 -0.647049 0.383185 0
M  V30 8441 H 780.453 -2.02554 2.19122 0
M  V30 8442 C 779.202 -3.33314 0.989815 0
M  V30 8443 H 778.525 -3.556 1.82726 0
M  V30 8444 H 779.965 -4.12963 0.961123 0
M  V30 8445 C 778.424 -3.35496 -0.307272 0
M  V30 8446 O 778.954 -3.79589 -1.31434 0
M  V30 8447 N 777.16 -2.88669 -0.334414 0
M  V30 8448 H 776.707 -2.5298 0.485659 0
M  V30 8449 H 776.665 -2.90512 -1.20209 0
M  V30 8450 N 780.437 -1.16799 -1.0581 0
M  V30 8451 C 781.686 -0.94698 -1.78088 0
M  V30 8452 C 781.999 0.526016 -1.88394 0
M  V30 8453 O 783.205 0.865061 -2.5735 0
M  V30 8454 C 781.661 -1.64508 -3.20102 0
M  V30 8455 C 781.269 -3.15618 -3.17946 0
M  V30 8456 C 783.013 -1.50622 -3.96879 0
M  V30 8457 C 780.92 -3.78144 -4.5471 0
M  V30 8458 H 779.85 -0.35067 -0.667493 0
M  V30 8459 H 782.501 -1.39985 -1.18645 0
M  V30 8460 H 780.883 -1.11993 -3.79834 0
M  V30 8461 H 782.057 -3.75016 -2.67768 0
M  V30 8462 H 780.372 -3.29444 -2.54667 0
M  V30 8463 H 782.969 -1.94713 -4.97987 0
M  V30 8464 H 783.312 -0.455864 -4.13797 0
M  V30 8465 H 783.845 -2.00319 -3.43682 0
M  V30 8466 H 780.584 -4.83149 -4.42998 0
M  V30 8467 H 780.104 -3.23532 -5.05062 0
M  V30 8468 H 781.783 -3.79986 -5.2366 0
M  V30 8469 N 781.915 1.24427 -0.967243 0
M  V30 8470 C 782.845 2.2773 -0.515899 0
M  V30 8471 C 783.826 1.64197 0.444227 0
M  V30 8472 O 785.011 1.91193 0.340451 0
M  V30 8473 C 782.141 3.46751 0.195149 0
M  V30 8474 C 781.095 4.22548 -0.680953 0
M  V30 8475 C 780.421 5.34456 0.161561 0
M  V30 8476 C 781.721 4.83914 -1.96532 0
M  V30 8477 H 783.415 2.65735 -1.37933 0
M  V30 8478 H 780.961 1.27742 -0.664681 0
M  V30 8479 H 782.914 4.18153 0.522117 0
M  V30 8480 H 781.638 3.07771 1.09292 0
M  V30 8481 H 780.297 3.52946 -0.991186 0
M  V30 8482 H 779.945 4.91716 1.05947 0
M  V30 8483 H 779.645 5.86087 -0.421418 0
M  V30 8484 H 781.169 6.08685 0.483211 0
M  V30 8485 H 782.583 5.47392 -1.70396 0
M  V30 8486 H 780.98 5.45775 -2.49499 0
M  V30 8487 H 782.05 4.05393 -2.66053 0
M  V30 8488 N 783.393 0.737304 1.3929 0
M  V30 8489 C 784.639 0.295581 2.01241 0
M  V30 8490 C 784.994 -1.10561 1.57461 0
M  V30 8491 O 784.287 -1.74346 0.7946 0
M  V30 8492 C 784.481 0.338438 3.55794 0
M  V30 8493 C 784.31 1.74225 4.14579 0
M  V30 8494 C 783.08 2.35502 4.47065 0
M  V30 8495 C 785.278 2.69623 4.37959 0
M  V30 8496 N 783.26 3.68014 4.91365 0
M  V30 8497 C 784.631 3.86873 4.84489 0
M  V30 8498 C 786.686 2.67355 4.2003 0
M  V30 8499 C 785.389 5.02193 5.14971 0
M  V30 8500 C 787.415 3.8182 4.51627 0
M  V30 8501 C 786.777 4.97806 4.98366 0
M  V30 8502 H 782.876 0.154468 0.766592 0
M  V30 8503 H 785.46 0.963768 1.69173 0
M  V30 8504 H 783.631 -0.299406 3.87244 0
M  V30 8505 H 785.363 -0.122053 4.04516 0
M  V30 8506 H 782.118 1.87406 4.34943 0
M  V30 8507 H 782.542 4.36051 5.17869 0
M  V30 8508 H 787.184 1.78876 3.83097 0
M  V30 8509 H 784.902 5.913 5.50809 0
M  V30 8510 H 788.488 3.81366 4.39376 0
M  V30 8511 H 787.368 5.84909 5.22351 0
M  V30 8512 N 784.871 -1.49948 0.485112 0
M  V30 8513 C 785.803 -2.26691 -0.338222 0
M  V30 8514 C 786.816 -1.32584 -0.944742 0
M  V30 8515 O 788.005 -1.57989 -0.830772 0
M  V30 8516 C 785.105 -3.04405 -1.48966 0
M  V30 8517 C 784.278 -4.25971 -0.993371 0
M  V30 8518 C 783.337 -4.85861 -2.02052 0
M  V30 8519 O 782.363 -5.46382 -1.59547 0
M  V30 8520 N 783.565 -4.74101 -3.34975 0
M  V30 8521 H 786.33 -2.97989 0.319748 0
M  V30 8522 H 783.891 -1.58772 0.316714 0
M  V30 8523 H 785.883 -3.41348 -2.17403 0
M  V30 8524 H 784.453 -2.35815 -2.05207 0
M  V30 8525 H 783.673 -3.93971 -0.134424 0
M  V30 8526 H 784.961 -5.0476 -0.639934 0
M  V30 8527 H 784.359 -4.26002 -3.72208 0
M  V30 8528 H 782.916 -5.15274 -3.9917 0
M  V30 8529 N 786.349 -0.21828 -1.56081 0
M  V30 8530 C 787.259 0.704602 -2.23769 0
M  V30 8531 C 788.275 1.21633 -1.24425 0
M  V30 8532 O 789.451 1.25862 -1.57228 0
M  V30 8533 C 786.516 1.89725 -2.90182 0
M  V30 8534 C 785.577 1.42782 -4.0486 0
M  V30 8535 C 784.81 2.56361 -4.68097 0
M  V30 8536 O 785.033 3.74417 -4.30312 0
M  V30 8537 O 783.967 2.2775 -5.57148 0
M  V30 8538 H 787.793 0.158007 -3.03289 0
M  V30 8539 H 785.378 0.0120279 -1.49395 0
M  V30 8540 H 787.26 2.59382 -3.32113 0
M  V30 8541 H 785.935 2.432 -2.13624 0
M  V30 8542 H 784.842 0.699359 -3.67505 0
M  V30 8543 H 786.175 0.939474 -4.83151 0
M  V30 8544 N 787.827 1.57504 0.0551401 0
M  V30 8545 C 788.757 2.07864 1.06372 0
M  V30 8546 C 789.738 0.975565 1.39344 0
M  V30 8547 O 790.923 1.24929 1.48682 0
M  V30 8548 C 788.053 2.53643 2.3724 0
M  V30 8549 C 787.007 3.67978 2.18578 0
M  V30 8550 C 786.333 3.9987 3.54976 0
M  V30 8551 C 787.633 4.97405 1.59329 0
M  V30 8552 H 789.327 2.92379 0.644595 0
M  V30 8553 H 786.873 1.40654 0.308619 0
M  V30 8554 H 788.826 2.8749 3.08103 0
M  V30 8555 H 787.55 1.66177 2.81163 0
M  V30 8556 H 786.209 3.3444 1.50152 0
M  V30 8557 H 785.857 3.0951 3.965 0
M  V30 8558 H 785.557 4.76867 3.43324 0
M  V30 8559 H 787.081 4.36228 4.27244 0
M  V30 8560 H 788.495 5.29375 2.20078 0
M  V30 8561 H 786.892 5.78837 1.58327 0
M  V30 8562 H 787.962 4.81697 0.55638 0
M  V30 8563 N 789.305 -0.326896 1.54172 0
M  V30 8564 C 790.235 -1.40741 1.86317 0
M  V30 8565 C 791.216 -1.54125 0.719684 0
M  V30 8566 O 792.401 -1.6806 0.973117 0
M  V30 8567 C 789.531 -2.77557 2.08757 0
M  V30 8568 C 788.485 -2.78965 3.24596 0
M  V30 8569 C 787.811 -4.18824 3.32401 0
M  V30 8570 C 789.111 -2.4301 4.62324 0
M  V30 8571 H 790.805 -1.14088 2.76811 0
M  V30 8572 H 788.351 -0.547389 1.3319 0
M  V30 8573 H 790.304 -3.53209 2.29829 0
M  V30 8574 H 789.028 -3.0568 1.15009 0
M  V30 8575 H 787.687 -2.05767 3.03406 0
M  V30 8576 H 787.335 -4.44083 2.36218 0
M  V30 8577 H 787.035 -4.20673 4.10253 0
M  V30 8578 H 788.559 -4.96294 3.55703 0
M  V30 8579 H 789.973 -3.08375 4.83299 0
M  V30 8580 H 788.37 -2.56116 5.42701 0
M  V30 8581 H 789.44 -1.38165 4.64799 0
M  V30 8582 N 790.784 -1.46188 -0.588786 0
M  V30 8583 C 791.694 -1.58865 -1.72624 0
M  V30 8584 C 792.71 -0.472348 -1.67466 0
M  V30 8585 O 793.886 -0.735638 -1.87484 0
M  V30 8586 C 790.951 -1.56989 -3.0912 0
M  V30 8587 C 790.012 -2.79804 -3.25589 0
M  V30 8588 C 789.245 -2.78009 -4.55573 0
M  V30 8589 O 789.468 -1.86406 -5.39082 0
M  V30 8590 O 788.402 -3.6947 -4.75159 0
M  V30 8591 H 792.228 -2.55047 -1.64878 0
M  V30 8592 H 789.813 -1.28912 -0.755115 0
M  V30 8593 H 791.695 -1.58618 -3.90408 0
M  V30 8594 H 790.37 -0.639648 -3.17317 0
M  V30 8595 H 789.277 -2.83732 -2.43818 0
M  V30 8596 H 790.61 -3.72017 -3.22279 0
M  V30 8597 N 792.262 0.832906 -1.33792 0
M  V30 8598 C 793.172 1.97514 -1.26592 0
M  V30 8599 C 794.188 1.73114 -0.175391 0
M  V30 8600 O 795.364 1.97387 -0.400062 0
M  V30 8601 C 792.429 3.31625 -1.01121 0
M  V30 8602 C 791.49 3.69101 -2.19233 0
M  V30 8603 C 790.723 4.96813 -1.94968 0
M  V30 8604 O 790.946 5.63208 -0.902955 0
M  V30 8605 O 789.88 5.31932 -2.8166 0
M  V30 8606 H 793.706 2.0653 -2.22664 0
M  V30 8607 H 791.291 0.966826 -1.13898 0
M  V30 8608 H 793.173 4.11968 -0.886571 0
M  V30 8609 H 791.848 3.23599 -0.080822 0
M  V30 8610 H 790.755 2.89243 -2.37253 0
M  V30 8611 H 792.088 3.818 -3.10628 0
M  V30 8612 N 793.74 1.17359 1.05189 0
M  V30 8613 C 794.672 0.848078 2.12933 0
M  V30 8614 C 795.685 -0.149521 1.62112 0
M  V30 8615 O 796.874 0.0767797 1.78335 0
M  V30 8616 C 793.974 0.243889 3.38021 0
M  V30 8617 C 793.147 1.28436 4.18118 0
M  V30 8618 C 792.206 0.697926 5.21551 0
M  V30 8619 O 791.232 1.36973 5.52473 0
M  V30 8620 N 792.434 -0.510024 5.78255 0
M  V30 8621 H 795.199 1.7754 2.41453 0
M  V30 8622 H 792.76 1.07244 1.21286 0
M  V30 8623 H 794.752 -0.161727 4.04377 0
M  V30 8624 H 793.322 -0.58722 3.07035 0
M  V30 8625 H 792.542 1.86573 3.47252 0
M  V30 8626 H 793.83 1.98617 4.68432 0
M  V30 8627 H 793.228 -1.07378 5.55416 0
M  V30 8628 H 791.785 -0.857705 6.46132 0
M  V30 8629 N 795.218 -1.23913 0.973828 0
M  V30 8630 C 796.458 -1.93889 0.647015 0
M  V30 8631 C 796.822 -1.74368 -0.803735 0
M  V30 8632 O 798.023 -2.38435 -1.24106 0
M  V30 8633 C 796.294 -3.4257 1.01885 0
M  V30 8634 S 797.853 -4.31306 0.807517 0
M  V30 8635 H 794.671 -0.670279 0.237165 0
M  V30 8636 H 797.273 -1.50144 1.25208 0
M  V30 8637 H 795.977 -3.54286 2.07146 0
M  V30 8638 H 795.508 -3.91312 0.404812 0
M  V30 8639 H 797.523 -4.95218 -0.311986 0
M  V30 8640 N 796.696 -0.74468 -1.38897 0
M  V30 8641 C 797.626 -0.126355 -2.33158 0
M  V30 8642 C 798.607 0.713517 -1.54412 0
M  V30 8643 O 799.792 0.656523 -1.82766 0
M  V30 8644 C 796.922 0.774375 -3.38557 0
M  V30 8645 C 795.876 0.0379214 -4.27983 0
M  V30 8646 C 795.202 1.05631 -5.24162 0
M  V30 8647 C 796.502 -1.12523 -5.10035 0
M  V30 8648 H 798.196 -0.913744 -2.85116 0
M  V30 8649 H 795.742 -0.440847 -1.37086 0
M  V30 8650 H 797.695 1.21655 -4.03458 0
M  V30 8651 H 796.419 1.59399 -2.85061 0
M  V30 8652 H 795.078 -0.384733 -3.64576 0
M  V30 8653 H 794.726 1.86975 -4.66958 0
M  V30 8654 H 794.426 0.568261 -5.84846 0
M  V30 8655 H 795.95 1.49799 -5.9194 0
M  V30 8656 H 797.364 -0.761037 -5.68226 0
M  V30 8657 H 795.761 -1.54355 -5.79909 0
M  V30 8658 H 796.831 -1.94237 -4.44297 0
M  V30 8659 N 798.174 1.49689 -0.493057 0
M  V30 8660 C 799.104 2.31826 0.279073 0
M  V30 8661 C 800.085 1.39733 0.969987 0
M  V30 8662 O 801.27 1.68646 0.962925 0
M  V30 8663 C 798.4 3.20046 1.34862 0
M  V30 8664 C 797.354 4.20869 0.77805 0
M  V30 8665 C 796.68 4.97971 1.94753 0
M  V30 8666 C 797.98 5.21813 -0.225543 0
M  V30 8667 H 799.674 2.96627 -0.406512 0
M  V30 8668 H 797.22 1.42647 -0.196943 0
M  V30 8669 H 799.173 3.76315 1.89645 0
M  V30 8670 H 797.897 2.53172 2.06328 0
M  V30 8671 H 796.556 3.65733 0.252036 0
M  V30 8672 H 796.204 4.27552 2.64969 0
M  V30 8673 H 795.904 5.66186 1.57187 0
M  V30 8674 H 797.428 5.57082 2.49984 0
M  V30 8675 H 798.842 5.72823 0.233864 0
M  V30 8676 H 797.239 5.97872 -0.516622 0
M  V30 8677 H 798.309 4.71209 -1.14412 0
M  V30 8678 N 799.652 0.226554 1.55963 0
M  V30 8679 C 800.599 -0.681504 2.20509 0
M  V30 8680 C 801.569 -1.1866 1.16229 0
M  V30 8681 O 802.754 -1.24478 1.44602 0
M  V30 8682 C 799.894 -1.88183 2.89277 0
M  V30 8683 C 799.007 -1.41517 4.08163 0
M  V30 8684 C 798.142 -2.57346 4.647 0
M  V30 8685 C 797.181 -2.07441 5.75877 0
M  V30 8686 N 796.318 -3.16561 6.26685 0
M  V30 8687 H 801.158 -0.124372 2.9774 0
M  V30 8688 H 798.695 -0.0496333 1.47016 0
M  V30 8689 H 800.653 -2.58666 3.27335 0
M  V30 8690 H 799.283 -2.41177 2.14555 0
M  V30 8691 H 798.335 -0.605099 3.75557 0
M  V30 8692 H 799.647 -1.00928 4.88482 0
M  V30 8693 H 798.801 -3.35903 5.05227 0
M  V30 8694 H 797.54 -3.01227 3.83554 0
M  V30 8695 H 796.545 -1.27347 5.34848 0
M  V30 8696 H 797.77 -1.64554 6.58862 0
M  V30 8697 H 795.716 -3.59914 5.48451 0
M  V30 8698 H 795.633 -2.80239 7.02141 0
M  V30 8699 H 796.901 -3.95238 6.71868 0
M  V30 8700 N 801.13 -1.57531 -0.0467866 0
M  V30 8701 C 802.093 -2.04379 -1.03738 0
M  V30 8702 C 803.093 -0.944881 -1.3011 0
M  V30 8703 O 804.283 -1.20904 -1.25411 0
M  V30 8704 C 801.415 -2.44572 -2.37482 0
M  V30 8705 H 802.608 -2.93142 -0.633063 0
M  V30 8706 H 800.161 -1.53526 -0.293177 0
M  V30 8707 H 800.896 -1.58911 -2.82697 0
M  V30 8708 H 800.681 -3.24785 -2.19675 0
M  V30 8709 H 802.171 -2.81307 -3.08636 0
M  V30 8710 N 802.608 0.318715 -1.54344 0
M  V30 8711 C 803.854 1.05383 -1.73971 0
M  V30 8712 C 804.209 1.85524 -0.509781 0
M  V30 8713 O 803.502 1.8502 0.49782 0
M  V30 8714 C 803.696 2.00514 -2.95853 0
M  V30 8715 C 803.525 1.29728 -4.30582 0
M  V30 8716 C 802.295 1.03177 -4.94654 0
M  V30 8717 C 804.493 0.710718 -5.09366 0
M  V30 8718 N 802.475 0.29232 -6.13204 0
M  V30 8719 C 803.846 0.103132 -6.19914 0
M  V30 8720 C 805.901 0.614011 -4.94099 0
M  V30 8721 C 804.604 -0.591782 -7.16862 0
M  V30 8722 C 806.63 -0.0672115 -5.91362 0
M  V30 8723 C 805.992 -0.663721 -7.01266 0
M  V30 8724 H 802.091 0.369157 -0.689382 0
M  V30 8725 H 804.675 0.334453 -1.91806 0
M  V30 8726 H 802.846 2.69719 -2.79475 0
M  V30 8727 H 804.578 2.67046 -3.04086 0
M  V30 8728 H 801.333 1.32536 -4.54677 0
M  V30 8729 H 801.757 -0.0634005 -6.7697 0
M  V30 8730 H 806.399 1.06091 -4.09273 0
M  V30 8731 H 804.117 -1.0505 -8.01243 0
M  V30 8732 H 807.703 -0.141742 -5.81627 0
M  V30 8733 H 806.583 -1.18248 -7.75234 0
M  V30 8734 N 804.086 1.46499 0.581025 0
M  V30 8735 C 805.016 1.60052 1.70017 0
M  V30 8736 C 805.997 0.450788 1.64018 0
M  V30 8737 O 807.182 0.677237 1.82009 0
M  V30 8738 C 804.312 1.5921 3.08658 0
M  V30 8739 C 803.266 2.73169 3.29488 0
M  V30 8740 C 802.592 2.57389 4.68674 0
M  V30 8741 C 803.892 4.14978 3.1716 0
M  V30 8742 H 805.586 2.53735 1.5893 0
M  V30 8743 H 803.132 1.22113 0.763173 0
M  V30 8744 H 805.085 1.67285 3.86773 0
M  V30 8745 H 803.809 0.620718 3.20647 0
M  V30 8746 H 802.468 2.64566 2.53773 0
M  V30 8747 H 802.116 1.58331 4.77431 0
M  V30 8748 H 801.816 3.33826 4.83564 0
M  V30 8749 H 803.34 2.67358 5.48956 0
M  V30 8750 H 804.754 4.24684 3.85119 0
M  V30 8751 H 803.151 4.92016 3.4357 0
M  V30 8752 H 804.221 4.35016 2.14218 0
M  V30 8753 N 805.565 -0.825799 1.34232 0
M  V30 8754 C 806.793 -1.61363 1.29497 0
M  V30 8755 C 807.208 -1.88341 -0.131536 0
M  V30 8756 O 806.565 -1.47279 -1.07773 0
M  V30 8757 C 806.616 -2.95623 2.08061 0
M  V30 8758 O 806.337 -2.69824 3.45147 0
M  V30 8759 C 807.838 -3.90032 2.10688 0
M  V30 8760 H 805.058 -0.501676 0.445603 0
M  V30 8761 H 807.602 -1.02767 1.76803 0
M  V30 8762 H 805.757 -3.50785 1.64404 0
M  V30 8763 H 806.171 -3.55412 3.85723 0
M  V30 8764 H 807.645 -4.81411 2.70087 0
M  V30 8765 H 808.122 -4.25188 1.10052 0
M  V30 8766 H 808.728 -3.40807 2.54422 0
M  V30 8767 N 807.043 -1.17915 -1.04565 0
M  V30 8768 C 807.953 -0.916449 -2.15959 0
M  V30 8769 C 808.969 0.117655 -1.73602 0
M  V30 8770 O 810.145 -0.063089 -2.01301 0
M  V30 8771 C 807.21 -0.440262 -3.43893 0
M  V30 8772 C 806.271 -1.54172 -4.00661 0
M  V30 8773 C 805.504 -1.08816 -5.22489 0
M  V30 8774 O 805.727 0.0551547 -5.70373 0
M  V30 8775 O 804.661 -1.88383 -5.7166 0
M  V30 8776 H 808.487 -1.8484 -2.40972 0
M  V30 8777 H 806.072 -0.960552 -1.14428 0
M  V30 8778 H 807.954 -0.182537 -4.21004 0
M  V30 8779 H 806.629 0.46346 -3.20365 0
M  V30 8780 H 805.536 -1.85341 -3.24961 0
M  V30 8781 H 806.869 -2.42139 -4.2852 0
M  V30 8782 N 808.521 1.23394 -0.980386 0
M  V30 8783 C 809.468 2.24859 -0.520298 0
M  V30 8784 C 810.438 1.60144 0.440821 0
M  V30 8785 O 811.623 1.87593 0.348369 0
M  V30 8786 C 808.763 3.44675 0.171145 0
M  V30 8787 C 807.876 4.23947 -0.830233 0
M  V30 8788 C 807.011 5.31079 -0.113597 0
M  V30 8789 C 806.05 6.02058 -1.10419 0
M  V30 8790 N 805.187 7.00862 -0.416709 0
M  V30 8791 H 810.027 2.63579 -1.39032 0
M  V30 8792 H 807.564 1.29556 -0.696682 0
M  V30 8793 H 809.522 4.13024 0.588838 0
M  V30 8794 H 808.152 3.06755 1.00504 0
M  V30 8795 H 807.204 3.55016 -1.36631 0
M  V30 8796 H 808.516 4.72945 -1.58508 0
M  V30 8797 H 807.67 6.05622 0.36146 0
M  V30 8798 H 806.409 4.83022 0.673854 0
M  V30 8799 H 805.414 5.26307 -1.59 0
M  V30 8800 H 806.639 6.52203 -1.8923 0
M  V30 8801 H 804.585 6.55057 0.351535 0
M  V30 8802 H 804.502 7.47804 -1.11021 0
M  V30 8803 H 805.77 7.79492 0.0359606 0
M  V30 8804 N 809.999 0.752036 1.385 0
M  V30 8805 C 810.909 0.125318 2.34265 0
M  V30 8806 C 811.925 -0.702437 1.59191 0
M  V30 8807 O 813.101 -0.626951 1.91393 0
M  V30 8808 C 810.166 -0.758486 3.38301 0
M  V30 8809 C 809.227 0.0834636 4.29219 0
M  V30 8810 C 808.46 -0.758252 5.28286 0
M  V30 8811 O 808.683 -1.99632 5.34325 0
M  V30 8812 O 807.617 -0.177878 6.01637 0
M  V30 8813 H 811.443 0.91617 2.89551 0
M  V30 8814 H 809.028 0.512911 1.4032 0
M  V30 8815 H 810.91 -1.26365 4.02007 0
M  V30 8816 H 809.585 -1.52786 2.85374 0
M  V30 8817 H 808.492 0.634545 3.68679 0
M  V30 8818 H 809.825 0.815455 4.85398 0
M  V30 8819 N 811.477 -1.49425 0.500989 0
M  V30 8820 C 812.387 -2.32899 -0.282011 0
M  V30 8821 C 813.403 -1.44632 -0.967346 0
M  V30 8822 O 814.579 -1.77654 -0.94873 0
M  V30 8823 C 811.644 -3.20069 -1.33253 0
M  V30 8824 C 810.705 -4.24186 -0.660636 0
M  V30 8825 C 809.938 -5.07191 -1.6611 0
M  V30 8826 O 810.161 -4.91712 -2.89094 0
M  V30 8827 O 809.095 -5.8948 -1.21643 0
M  V30 8828 H 812.921 -3.01038 0.401224 0
M  V30 8829 H 810.506 -1.47079 0.262323 0
M  V30 8830 H 812.388 -3.74071 -1.94033 0
M  V30 8831 H 811.063 -2.54625 -1.9987 0
M  V30 8832 H 809.97 -3.74098 -0.0130959 0
M  V30 8833 H 811.303 -4.92186 -0.0369179 0
M  V30 8834 N 812.955 -0.234822 -1.55841 0
M  V30 8835 C 813.918 0.656378 -2.196 0
M  V30 8836 C 814.918 1.11179 -1.16171 0
M  V30 8837 O 816.108 1.01845 -1.41326 0
M  V30 8838 C 813.24 1.90072 -2.82993 0
M  V30 8839 H 814.433 0.100281 -2.99732 0
M  V30 8840 H 811.986 0.0147613 -1.56293 0
M  V30 8841 H 812.721 2.49836 -2.06767 0
M  V30 8842 H 812.506 1.5825 -3.58747 0
M  V30 8843 H 813.996 2.53538 -3.31826 0
M  V30 8844 N 814.433 1.57553 0.0384317 0
M  V30 8845 C 815.363 2.0898 1.04161 0
M  V30 8846 C 816.344 0.99029 1.38301 0
M  V30 8847 O 817.529 1.26499 1.47349 0
M  V30 8848 C 814.659 2.56145 2.34536 0
M  V30 8849 C 813.613 3.70275 2.14663 0
M  V30 8850 C 812.939 4.03612 3.50715 0
M  V30 8851 C 814.239 4.99067 1.54045 0
M  V30 8852 H 815.933 2.93046 0.613548 0
M  V30 8853 H 813.479 1.40973 0.293684 0
M  V30 8854 H 815.432 2.90741 3.05037 0
M  V30 8855 H 814.156 1.6915 2.79385 0
M  V30 8856 H 812.815 3.36013 1.46597 0
M  V30 8857 H 812.463 3.13698 3.93195 0
M  V30 8858 H 812.163 4.80482 3.38247 0
M  V30 8859 H 813.687 4.40735 4.22593 0
M  V30 8860 H 815.101 5.3168 2.14451 0
M  V30 8861 H 813.498 5.80484 1.52178 0
M  V30 8862 H 814.568 4.8226 0.505259 0
M  V30 8863 N 815.911 -0.310526 1.54511 0
M  V30 8864 C 816.859 -1.40272 1.85544 0
M  V30 8865 C 817.853 -1.52941 0.728377 0
M  V30 8866 O 819.059 -1.55172 0.912234 0
M  V30 8867 H 815.434 -0.468355 0.588343 0
M  V30 8868 H 817.405 -1.11329 2.76855 0
M  V30 8869 C 816.154 -2.76279 2.11105 0
M  V30 8870 H 815.477 -2.67308 2.97298 0
M  V30 8871 H 816.917 -3.51736 2.36765 0
M  V30 8872 C 815.376 -3.24472 0.906618 0
M  V30 8873 O 815.906 -4.01514 0.122358 0
M  V30 8874 N 814.112 -2.81676 0.714632 0
M  V30 8875 H 813.659 -2.19143 1.35404 0
M  V30 8876 H 813.617 -3.14272 -0.089703 0
M  V30 8877 N 817.389 -1.46805 -0.573248 0
M  V30 8878 C 818.336 -1.58084 -1.68161 0
M  V30 8879 C 819.306 -0.424636 -1.6058 0
M  V30 8880 O 820.491 -0.642623 -1.79652 0
M  V30 8881 C 817.631 -1.58601 -3.06496 0
M  V30 8882 C 816.744 -2.85023 -3.24632 0
M  V30 8883 C 815.879 -2.76981 -4.53271 0
M  V30 8884 C 814.918 -3.983 -4.64783 0
M  V30 8885 N 814.055 -3.88589 -5.84759 0
M  V30 8886 H 818.895 -2.52755 -1.57858 0
M  V30 8887 H 816.432 -1.25385 -0.769218 0
M  V30 8888 H 818.39 -1.56885 -3.86579 0
M  V30 8889 H 817.02 -0.674553 -3.15673 0
M  V30 8890 H 816.072 -2.96678 -2.38089 0
M  V30 8891 H 817.384 -3.7491 -3.29004 0
M  V30 8892 H 816.538 -2.73424 -5.41594 0
M  V30 8893 H 815.277 -1.84751 -4.51352 0
M  V30 8894 H 814.282 -4.02179 -3.74876 0
M  V30 8895 H 815.507 -4.91639 -4.68474 0
M  V30 8896 H 813.453 -2.99151 -5.83819 0
M  V30 8897 H 813.37 -4.7214 -5.90441 0
M  V30 8898 H 814.638 -3.89022 -6.75486 0
M  V30 8899 N 818.867 0.818669 -1.34668 0
M  V30 8900 C 820.113 1.57746 -1.27453 0
M  V30 8901 C 820.446 1.93588 0.154077 0
M  V30 8902 O 819.721 1.60371 1.10051 0
M  V30 8903 C 820.004 2.87414 -2.16945 0
M  V30 8904 C 819.857 2.58125 -3.68363 0
M  V30 8905 C 821.176 3.89021 -2.05792 0
M  V30 8906 H 818.295 0.572339 -0.464324 0
M  V30 8907 H 820.937 0.942784 -1.64959 0
M  V30 8908 H 819.087 3.41576 -1.85089 0
M  V30 8909 H 820.759 2.10239 -4.10606 0
M  V30 8910 H 819.002 1.91503 -3.89242 0
M  V30 8911 H 819.673 3.5061 -4.26353 0
M  V30 8912 H 822.149 3.44224 -2.33771 0
M  V30 8913 H 821.025 4.77548 -2.70628 0
M  V30 8914 H 821.286 4.29786 -1.03618 0
M  V30 8915 N 820.346 1.18468 1.03938 0
M  V30 8916 C 821.278 0.870615 2.12021 0
M  V30 8917 C 822.291 -0.132318 1.62261 0
M  V30 8918 O 823.48 0.0956901 1.78243 0
M  V30 8919 C 820.58 0.279727 3.37744 0
M  V30 8920 C 819.753 1.32863 4.16733 0
M  V30 8921 C 818.812 0.753204 5.20781 0
M  V30 8922 O 817.838 1.42825 5.5099 0
M  V30 8923 N 819.04 -0.448664 5.78764 0
M  V30 8924 H 821.805 1.80091 2.39556 0
M  V30 8925 H 819.366 1.08524 1.20142 0
M  V30 8926 H 821.358 -0.118829 4.04526 0
M  V30 8927 H 819.928 -0.554621 3.07641 0
M  V30 8928 H 819.148 1.90245 3.45254 0
M  V30 8929 H 820.436 2.03574 4.66299 0
M  V30 8930 H 819.834 -1.01481 5.56523 0
M  V30 8931 H 818.391 -0.789125 6.47005 0
M  V30 8932 N 821.824 -1.22873 0.986916 0
M  V30 8933 C 823.052 -1.95487 0.677663 0
M  V30 8934 C 823.467 -1.72978 -0.756572 0
M  V30 8935 O 822.824 -1.02517 -1.50985 0
M  V30 8936 C 822.875 -3.48337 0.966638 0
M  V30 8937 O 822.596 -3.70087 2.34451 0
M  V30 8938 C 824.097 -4.38142 0.674248 0
M  V30 8939 H 821.317 -0.622211 0.251185 0
M  V30 8940 H 823.861 -1.56187 1.32007 0
M  V30 8941 H 822.016 -3.85628 0.370137 0
M  V30 8942 H 822.43 -4.64332 2.43918 0
M  V30 8943 H 823.904 -5.44165 0.926759 0
M  V30 8944 H 824.381 -4.3745 -0.391728 0
M  V30 8945 H 824.987 -4.06469 1.25152 0
M  V30 8946 N 823.302 -0.75937 -1.38099 0
M  V30 8947 C 824.527 -0.327859 -2.04792 0
M  V30 8948 C 824.952 1.03752 -1.56899 0
M  V30 8949 O 824.31 1.66235 -0.723581 0
M  V30 8950 C 824.358 -0.366264 -3.58735 0
M  V30 8951 O 823.462 0.637697 -4.0744 0
M  V30 8952 H 822.803 -0.144092 -0.648177 0
M  V30 8953 H 825.333 -1.03211 -1.7666 0
M  V30 8954 H 825.343 -0.219179 -4.07411 0
M  V30 8955 H 824.018 -1.36243 -3.92951 0
M  V30 8956 H 822.595 0.454749 -3.70117 0
M  V30 8957 N 824.78 1.49157 -0.508906 0
M  V30 8958 C 825.728 2.30922 0.278906 0
M  V30 8959 C 826.722 1.39889 0.955382 0
M  V30 8960 O 827.928 1.56901 0.882169 0
M  V30 8961 H 824.303 0.744087 0.108805 0
M  V30 8962 H 826.274 2.95277 -0.430583 0
M  V30 8963 C 825.023 3.21432 1.32576 0
M  V30 8964 H 824.346 3.91413 0.814634 0
M  V30 8965 H 825.786 3.81568 1.84882 0
M  V30 8966 C 824.245 2.41583 2.34817 0
M  V30 8967 O 824.775 2.1256 3.40854 0
M  V30 8968 N 822.981 2.03462 2.07489 0
M  V30 8969 H 822.528 2.27265 1.21278 0
M  V30 8970 H 822.486 1.50345 2.76123 0
M  V30 8971 N 826.258 0.243083 1.55714 0
M  V30 8972 C 827.505 -0.38272 1.9885 0
M  V30 8973 C 827.833 -1.58225 1.13115 0
M  V30 8974 O 827.088 -1.94861 0.181067 0
M  V30 8975 C 827.387 -0.839621 3.47398 0
M  V30 8976 C 827.053 0.251737 4.50197 0
M  V30 8977 C 825.715 0.551487 4.78029 0
M  V30 8978 C 828.067 0.988728 5.11736 0
M  V30 8979 C 825.395 1.59237 5.64677 0
M  V30 8980 C 827.747 2.0191 5.99512 0
M  V30 8981 C 826.411 2.32554 6.2568 0
M  V30 8982 H 825.681 -0.140047 0.727645 0
M  V30 8983 H 828.328 0.35011 1.88272 0
M  V30 8984 H 826.633 -1.65159 3.55288 0
M  V30 8985 H 828.33 -1.33404 3.78159 0
M  V30 8986 H 824.92 0.00796741 4.28599 0
M  V30 8987 H 829.104 0.7704 4.90284 0
M  V30 8988 H 824.36 1.83517 5.83208 0
M  V30 8989 H 828.534 2.59511 6.46241 0
M  V30 8990 H 826.161 3.13349 6.92616 0
M  V30 8991 N 827.736 -1.57571 -0.0300757 0
M  V30 8992 C 828.683 -2.06492 -1.03101 0
M  V30 8993 C 829.653 -0.953862 -1.3598 0
M  V30 8994 O 830.838 -1.22436 -1.46335 0
M  V30 8995 C 827.978 -2.54826 -2.32718 0
M  V30 8996 C 827.091 -3.79718 -2.06006 0
M  V30 8997 C 826.226 -4.16668 -3.29487 0
M  V30 8998 C 825.265 -5.3448 -2.98324 0
M  V30 8999 N 824.402 -5.66867 -4.14254 0
M  V30 9000 H 829.242 -2.91755 -0.606877 0
M  V30 9001 H 826.779 -1.44252 -0.288038 0
M  V30 9002 H 828.737 -2.80916 -3.08451 0
M  V30 9003 H 827.367 -1.72481 -2.72856 0
M  V30 9004 H 826.419 -3.60718 -1.20774 0
M  V30 9005 H 827.731 -4.65569 -1.79017 0
M  V30 9006 H 826.885 -4.43881 -4.13588 0
M  V30 9007 H 825.624 -3.29466 -3.59588 0
M  V30 9008 H 824.629 -5.07021 -2.12625 0
M  V30 9009 H 825.854 -6.23334 -2.69502 0
M  V30 9010 H 823.8 -4.82625 -4.44308 0
M  V30 9011 H 823.717 -6.47226 -3.90685 0
M  V30 9012 H 824.985 -5.98656 -4.99231 0
M  V30 9013 N 829.214 0.302327 -1.54673 0
M  V30 9014 C 830.491 1.05721 -1.64567 0
M  V30 9015 C 830.871 2.0526 -0.493108 0
M  V30 9016 O 830.219 2.22729 0.510315 0
M  V30 9017 C 830.429 1.74025 -3.02517 0
M  V30 9018 C 831.777 2.26271 -3.59286 0
M  V30 9019 O 832.801 1.8406 -3.0496 0
M  V30 9020 O 831.66 3.0361 -4.54404 0
M  V30 9021 H 828.754 0.488577 -0.667249 0
M  V30 9022 H 831.3 0.300521 -1.67018 0
M  V30 9023 H 830.072 1.0174 -3.77842 0
M  V30 9024 H 829.695 2.56454 -3.03838 0
M  V30 9025 N 830.692 1.47107 0.565454 0
M  V30 9026 C 831.624 1.55024 1.6882 0
M  V30 9027 C 832.637 0.4371 1.56822 0
M  V30 9028 O 833.826 0.706315 1.63931 0
M  V30 9029 C 830.926 1.43069 3.0722 0
M  V30 9030 C 830.099 2.68807 3.45053 0
M  V30 9031 C 829.158 2.50806 4.62583 0
M  V30 9032 O 828.184 3.24593 4.67577 0
M  V30 9033 N 829.386 1.58093 5.58558 0
M  V30 9034 H 832.151 2.51836 1.62477 0
M  V30 9035 H 829.712 1.43382 0.751885 0
M  V30 9036 H 831.704 1.28773 3.83666 0
M  V30 9037 H 830.274 0.543721 3.07835 0
M  V30 9038 H 829.494 2.97923 2.58138 0
M  V30 9039 H 830.782 3.52298 3.67101 0
M  V30 9040 H 830.18 0.972807 5.57273 0
M  V30 9041 H 828.737 1.49753 6.34364 0
M  V30 9042 N 832.17 -0.811516 1.35101 0
M  V30 9043 C 833.117 -1.92308 1.27617 0
M  V30 9044 C 834.087 -1.6543 0.149091 0
M  V30 9045 O 835.272 -1.8789 0.331974 0
M  V30 9046 C 832.412 -3.28768 1.04908 0
M  V30 9047 C 831.525 -3.67865 2.26493 0
M  V30 9048 C 830.66 -4.9333 1.96974 0
M  V30 9049 C 829.699 -5.25041 3.1464 0
M  V30 9050 N 828.836 -6.41685 2.84929 0
M  V30 9051 H 833.676 -1.98041 2.22674 0
M  V30 9052 H 831.213 -0.968755 1.10696 0
M  V30 9053 H 833.171 -4.07426 0.897749 0
M  V30 9054 H 831.801 -3.22517 0.135151 0
M  V30 9055 H 830.853 -2.84507 2.52507 0
M  V30 9056 H 832.165 -3.87263 3.14371 0
M  V30 9057 H 831.319 -5.79803 1.78643 0
M  V30 9058 H 830.058 -4.75958 1.06374 0
M  V30 9059 H 829.063 -4.3706 3.33554 0
M  V30 9060 H 830.288 -5.44346 4.06035 0
M  V30 9061 H 828.234 -6.25747 1.96918 0
M  V30 9062 H 828.151 -6.6131 3.66341 0
M  V30 9063 H 829.419 -7.31198 2.70128 0
M  V30 9064 N 833.648 -1.19017 -1.03309 0
M  V30 9065 C 834.558 -0.939303 -2.14975 0
M  V30 9066 C 835.574 0.0992359 -1.73717 0
M  V30 9067 O 836.75 -0.0844362 -2.01223 0
M  V30 9068 C 833.815 -0.476712 -3.43407 0
M  V30 9069 C 832.876 -1.58413 -3.99003 0
M  V30 9070 C 832.109 -1.14352 -5.21305 0
M  V30 9071 O 832.332 -0.00534408 -5.704 0
M  V30 9072 O 831.266 -1.94436 -5.6963 0
M  V30 9073 H 835.092 -1.87386 -2.38998 0
M  V30 9074 H 832.677 -0.972635 -1.13403 0
M  V30 9075 H 834.559 -0.22718 -4.20787 0
M  V30 9076 H 833.234 0.429455 -3.20839 0
M  V30 9077 H 832.141 -1.88777 -3.22977 0
M  V30 9078 H 833.474 -2.4667 -4.25928 0
M  V30 9079 N 835.127 1.22348 -0.993418 0
M  V30 9080 C 836.057 2.26584 -0.564088 0
M  V30 9081 C 837.038 1.65102 0.409298 0
M  V30 9082 O 838.223 1.91872 0.299819 0
M  V30 9083 C 835.353 3.47087 0.121554 0
M  V30 9084 C 834.307 4.21009 -0.770429 0
M  V30 9085 C 833.633 5.34678 0.0481586 0
M  V30 9086 C 834.933 4.79636 -2.06752 0
M  V30 9087 H 836.627 2.62749 -1.43538 0
M  V30 9088 H 834.173 1.26303 -0.691628 0
M  V30 9089 H 836.126 4.19166 0.433303 0
M  V30 9090 H 834.85 3.1002 1.0274 0
M  V30 9091 H 833.509 3.50764 -1.06583 0
M  V30 9092 H 833.157 4.93852 0.954933 0
M  V30 9093 H 832.857 5.85061 -0.545641 0
M  V30 9094 H 834.381 6.09573 0.353991 0
M  V30 9095 H 835.795 5.43654 -1.81969 0
M  V30 9096 H 834.192 5.4036 -2.61019 0
M  V30 9097 H 835.262 3.99659 -2.74592 0
M  V30 9098 N 836.605 0.766683 1.37694 0
M  V30 9099 C 837.83 0.338715 2.04615 0
M  V30 9100 C 838.255 -1.02918 1.57447 0
M  V30 9101 O 837.613 -1.65849 0.732386 0
M  V30 9102 C 837.661 0.385284 3.58536 0
M  V30 9103 O 836.765 -0.616081 4.07772 0
M  V30 9104 H 836.106 0.147527 0.647404 0
M  V30 9105 H 838.636 1.04146 1.7611 0
M  V30 9106 H 838.646 0.240782 4.07289 0
M  V30 9107 H 837.321 1.38325 3.92223 0
M  V30 9108 H 835.898 -0.435115 3.70353 0
M  V30 9109 N 838.083 -1.48885 0.516809 0
M  V30 9110 C 839.329 -2.02788 -0.0220928 0
M  V30 9111 C 839.662 -1.39433 -1.35175 0
M  V30 9112 O 838.937 -0.535459 -1.86984 0
M  V30 9113 C 839.22 -3.59753 -0.158012 0
M  V30 9114 C 839.073 -4.33611 1.19588 0
M  V30 9115 C 840.392 -4.30984 -0.891133 0
M  V30 9116 H 837.511 -0.736971 -0.00655488 0
M  V30 9117 H 840.153 -1.77746 0.671287 0
M  V30 9118 H 838.303 -3.8122 -0.748568 0
M  V30 9119 H 839.975 -4.23598 1.82653 0
M  V30 9120 H 838.218 -3.95547 1.78116 0
M  V30 9121 H 838.889 -5.41846 1.05391 0
M  V30 9122 H 841.365 -4.14267 -0.39012 0
M  V30 9123 H 840.241 -5.40527 -0.955107 0
M  V30 9124 H 840.502 -3.97336 -1.93847 0
M  V30 9125 N 839.561 -0.251338 -1.55583 0
M  V30 9126 C 840.786 0.379136 -2.03905 0
M  V30 9127 C 841.211 1.50428 -1.12929 0
M  V30 9128 O 840.569 1.80882 -0.123114 0
M  V30 9129 C 840.617 0.86009 -3.50193 0
M  V30 9130 O 839.721 1.96932 -3.62342 0
M  V30 9131 H 839.062 0.0820183 -0.658915 0
M  V30 9132 H 841.592 -0.378692 -2.01065 0
M  V30 9133 H 841.602 1.16214 -3.91099 0
M  V30 9134 H 840.277 0.0367559 -4.15884 0
M  V30 9135 H 838.854 1.67163 -3.33333 0
M  V30 9136 N 841.039 1.57585 0.0217189 0
M  V30 9137 C 842.285 1.89887 0.712099 0
M  V30 9138 C 842.618 0.849971 1.74611 0
M  V30 9139 O 841.893 -0.13407 1.94037 0
M  V30 9140 C 842.176 3.32815 1.37499 0
M  V30 9141 C 842.029 4.48405 0.353993 0
M  V30 9142 C 843.348 3.74786 2.30703 0
M  V30 9143 H 840.467 0.690588 0.257405 0
M  V30 9144 H 843.109 1.89983 -0.0251145 0
M  V30 9145 H 841.259 3.32863 2.00335 0
M  V30 9146 H 842.931 4.60491 -0.273015 0
M  V30 9147 H 841.174 4.32573 -0.32599 0
M  V30 9148 H 841.845 5.45316 0.85644 0
M  V30 9149 H 844.321 3.76151 1.77904 0
M  V30 9150 H 843.197 4.75585 2.74061 0
M  V30 9151 H 843.458 3.07449 3.17691 0
M  V30 9152 N 842.517 -0.29412 1.54831 0
M  V30 9153 C 843.933 -0.640167 1.46199 0
M  V30 9154 C 844.133 -1.90426 0.658798 0
M  V30 9155 O 843.189 -2.51932 0.169228 0
M  V30 9156 C 844.502 -0.786763 2.90225 0
M  V30 9157 C 846.05 -0.882201 3.0031 0
M  V30 9158 C 846.525 -1.06074 4.45547 0
M  V30 9159 N 848.016 -1.12678 4.49286 0
M  V30 9160 C 848.751 -1.28334 5.58854 0
M  V30 9161 N 848.247 -1.40845 6.78332 0
M  V30 9162 N 850.04 -1.31277 5.46555 0
M  V30 9163 H 842.191 0.536334 2.05517 0
M  V30 9164 H 844.454 0.178363 0.93107 0
M  V30 9165 H 844.16 0.0713018 3.51628 0
M  V30 9166 H 844.034 -1.67364 3.38037 0
M  V30 9167 H 846.421 -1.73075 2.39017 0
M  V30 9168 H 846.502 0.0288405 2.55784 0
M  V30 9169 H 846.146 -0.216935 5.07437 0
M  V30 9170 H 846.076 -1.98611 4.8771 0
M  V30 9171 H 848.567 -1.04335 3.63212 0
M  V30 9172 H 848.88 -1.52566 7.57591 0
M  V30 9173 H 847.225 -1.37888 6.81184 0
M  V30 9174 H 850.416 -1.2112 4.52159 0
M  V30 9175 H 850.589 -1.43136 6.31994 0
M  V30 9176 N 843.995 -1.47404 -0.557645 0
M  V30 9177 C 845.411 -1.32913 -0.88353 0
M  V30 9178 C 845.611 -0.31929 -1.98954 0
M  V30 9179 O 844.667 0.26934 -2.51059 0
M  V30 9180 C 845.98 -2.72229 -1.27718 0
M  V30 9181 C 847.528 -2.8051 -1.38863 0
M  V30 9182 C 848.003 -4.20466 -1.81583 0
M  V30 9183 N 849.494 -4.23005 -1.88735 0
M  V30 9184 C 850.229 -5.2821 -2.23118 0
M  V30 9185 N 849.725 -6.4372 -2.56117 0
M  V30 9186 N 851.518 -5.15588 -2.23888 0
M  V30 9187 H 843.669 -2.11698 0.172557 0
M  V30 9188 H 845.932 -0.947889 0.0145334 0
M  V30 9189 H 845.638 -3.47556 -0.538329 0
M  V30 9190 H 845.512 -3.03971 -2.23342 0
M  V30 9191 H 847.899 -2.05457 -2.11829 0
M  V30 9192 H 847.98 -2.52423 -0.414274 0
M  V30 9193 H 847.624 -4.96025 -1.09187 0
M  V30 9194 H 847.554 -4.45977 -2.80021 0
M  V30 9195 H 850.045 -3.39674 -1.65621 0
M  V30 9196 H 850.358 -7.19754 -2.81378 0
M  V30 9197 H 848.703 -6.47041 -2.53698 0
M  V30 9198 H 851.894 -4.24374 -1.97546 0
M  V30 9199 H 852.067 -5.97685 -2.50353 0
M  V30 9200 N 845.473 0.80434 -1.35529 0
M  V30 9201 C 846.403 1.93086 -1.31301 0
M  V30 9202 C 847.384 1.69068 -0.187044 0
M  V30 9203 O 848.569 1.90399 -0.382359 0
M  V30 9204 C 845.699 3.29867 -1.0865 0
M  V30 9205 C 844.653 3.68373 -2.17911 0
M  V30 9206 C 843.979 5.0334 -1.80423 0
M  V30 9207 C 845.279 3.78516 -3.59893 0
M  V30 9208 H 846.973 1.96882 -2.25561 0
M  V30 9209 H 844.519 0.945841 -1.08581 0
M  V30 9210 H 846.472 4.08281 -1.04331 0
M  V30 9211 H 845.196 3.2642 -0.108359 0
M  V30 9212 H 843.855 2.92247 -2.21331 0
M  V30 9213 H 843.503 4.96399 -0.812213 0
M  V30 9214 H 843.203 5.30074 -2.53565 0
M  V30 9215 H 844.727 5.84191 -1.77633 0
M  V30 9216 H 846.141 4.47155 -3.58783 0
M  V30 9217 H 844.538 4.16721 -4.31814 0
M  V30 9218 H 845.608 2.8001 -3.95882 0
M  V30 9219 N 846.951 1.19563 1.02676 0
M  V30 9220 C 847.914 0.937182 2.09164 0
M  V30 9221 C 848.914 -0.0831927 1.60585 0
M  V30 9222 O 850.104 0.15178 1.73538 0
M  V30 9223 C 847.236 0.408912 3.38439 0
M  V30 9224 H 848.429 1.88164 2.33526 0
M  V30 9225 H 845.982 1.00959 1.19319 0
M  V30 9226 H 846.717 -0.541497 3.19747 0
M  V30 9227 H 846.502 1.14464 3.7502 0
M  V30 9228 H 847.992 0.247242 4.16867 0
M  V30 9229 N 848.429 -1.21819 0.999893 0
M  V30 9230 C 849.678 -1.90066 0.675108 0
M  V30 9231 C 849.991 -1.78624 -0.79705 0
M  V30 9232 O 851.197 -2.41851 -1.23371 0
M  V30 9233 C 849.653 -3.40795 1.15702 0
M  V30 9234 C 849.261 -3.60859 2.6549 0
M  V30 9235 C 851.005 -4.147 0.906889 0
M  V30 9236 C 848.912 -5.05324 3.07248 0
M  V30 9237 H 847.842 -0.711763 0.248815 0
M  V30 9238 H 850.493 -1.3792 1.21038 0
M  V30 9239 H 848.875 -3.92164 0.549832 0
M  V30 9240 H 850.049 -3.19951 3.31614 0
M  V30 9241 H 848.364 -3.00298 2.88461 0
M  V30 9242 H 850.961 -5.21187 1.1945 0
M  V30 9243 H 851.304 -4.16004 -0.156923 0
M  V30 9244 H 851.837 -3.69379 1.47662 0
M  V30 9245 H 848.576 -5.09164 4.12834 0
M  V30 9246 H 848.096 -5.47108 2.45832 0
M  V30 9247 H 849.775 -5.73797 2.98941 0
M  V30 9248 N 849.908 -0.773975 -1.37286 0
M  V30 9249 C 850.838 -0.175782 -2.32837 0
M  V30 9250 C 851.819 0.680603 -1.5589 0
M  V30 9251 O 853.004 0.617607 -1.84117 0
M  V30 9252 C 850.134 0.702388 -3.40123 0
M  V30 9253 C 849.088 -0.0528687 -4.27967 0
M  V30 9254 C 848.414 0.944891 -5.26285 0
M  V30 9255 C 849.714 -1.23316 -5.07534 0
M  V30 9256 H 851.408 -0.974016 -2.83114 0
M  V30 9257 H 848.954 -0.469826 -1.3612 0
M  V30 9258 H 850.907 1.13069 -4.05947 0
M  V30 9259 H 849.631 1.53316 -2.88378 0
M  V30 9260 H 848.29 -0.461978 -3.63678 0
M  V30 9261 H 847.938 1.77028 -4.70819 0
M  V30 9262 H 847.638 0.444079 -5.8592 0
M  V30 9263 H 849.162 1.37209 -5.94984 0
M  V30 9264 H 850.576 -0.881395 -5.66484 0
M  V30 9265 H 848.973 -1.66621 -5.76504 0
M  V30 9266 H 850.043 -2.03617 -4.40077 0
M  V30 9267 N 851.386 1.48609 -0.524698 0
M  V30 9268 C 852.333 2.29539 0.240956 0
M  V30 9269 C 853.303 1.37033 0.938681 0
M  V30 9270 O 854.488 1.65996 0.940737 0
M  V30 9271 C 851.628 3.20278 1.28514 0
M  V30 9272 C 850.741 4.27858 0.596798 0
M  V30 9273 C 849.876 5.05784 1.62346 0
M  V30 9274 C 848.915 6.05173 0.918287 0
M  V30 9275 N 848.052 6.76176 1.89025 0
M  V30 9276 H 852.892 2.945 -0.455368 0
M  V30 9277 H 850.429 1.45188 -0.236403 0
M  V30 9278 H 852.387 3.71281 1.90279 0
M  V30 9279 H 851.017 2.57251 1.94992 0
M  V30 9280 H 850.069 3.80162 -0.134668 0
M  V30 9281 H 851.381 4.98782 0.0428506 0
M  V30 9282 H 850.535 5.60775 2.31553 0
M  V30 9283 H 849.274 4.34687 2.2113 0
M  V30 9284 H 848.279 5.49391 0.21212 0
M  V30 9285 H 849.504 6.78265 0.336633 0
M  V30 9286 H 847.45 6.07834 2.46726 0
M  V30 9287 H 847.367 7.43157 1.3876 0
M  V30 9288 H 848.635 7.35759 2.57446 0
M  V30 9289 N 852.864 0.259585 1.55447 0
M  V30 9290 C 853.774 -0.645026 2.25558 0
M  V30 9291 C 854.79 -1.18291 1.27606 0
M  V30 9292 O 855.966 -1.21649 1.6051 0
M  V30 9293 C 853.031 -1.81964 2.9511 0
M  V30 9294 C 852.092 -1.31997 4.08504 0
M  V30 9295 C 851.325 -2.43861 4.74729 0
M  V30 9296 O 851.548 -3.62876 4.40088 0
M  V30 9297 O 850.482 -2.12898 5.6299 0
M  V30 9298 H 854.308 -0.0775399 3.03601 0
M  V30 9299 H 851.893 0.0275859 1.49375 0
M  V30 9300 H 853.775 -2.50485 3.38873 0
M  V30 9301 H 852.45 -2.37451 2.19997 0
M  V30 9302 H 851.357 -0.601676 3.6923 0
M  V30 9303 H 852.69 -0.811045 4.85472 0
M  V30 9304 N 854.342 -1.57594 -0.0133615 0
M  V30 9305 C 855.619 -1.81173 -0.737273 0
M  V30 9306 C 855.999 -0.861395 -1.92726 0
M  V30 9307 O 855.347 0.0929324 -2.28311 0
M  V30 9308 C 855.557 -3.29314 -1.15557 0
M  V30 9309 C 856.905 -3.94707 -1.56498 0
M  V30 9310 O 857.929 -3.33557 -1.24973 0
M  V30 9311 O 856.788 -5.02402 -2.15069 0
M  V30 9312 H 853.882 -0.745575 -0.357837 0
M  V30 9313 H 856.428 -1.69696 0.0110674 0
M  V30 9314 H 855.2 -3.90096 -0.30677 0
M  V30 9315 H 854.823 -3.45739 -1.96343 0
M  V30 9316 N 855.82 0.285905 -1.54985 0
M  V30 9317 C 856.753 1.37817 -1.81884 0
M  V30 9318 C 857.731 1.4811 -0.670988 0
M  V30 9319 O 858.915 1.64936 -0.912595 0
M  V30 9320 C 856.042 2.75587 -1.969 0
M  V30 9321 C 855.088 2.82643 -3.19398 0
M  V30 9322 S 855.921 2.43199 -4.7709 0
M  V30 9323 C 857.077 3.82969 -4.95061 0
M  V30 9324 H 857.31 1.14794 -2.74244 0
M  V30 9325 H 854.843 0.484843 -1.4659 0
M  V30 9326 H 856.801 3.54932 -2.06236 0
M  V30 9327 H 855.462 2.9587 -1.05451 0
M  V30 9328 H 854.655 3.8373 -3.26753 0
M  V30 9329 H 854.257 2.11306 -3.08586 0
M  V30 9330 H 856.549 4.78117 -4.80011 0
M  V30 9331 H 857.492 3.80575 -5.97133 0
M  V30 9332 H 857.9 3.73673 -4.23118 0
M  V30 9333 N 857.298 1.47698 0.54982 0
M  V30 9334 C 858.208 1.63386 1.68351 0
M  V30 9335 C 859.224 0.516583 1.66155 0
M  V30 9336 O 860.4 0.785088 1.85468 0
M  V30 9337 C 857.465 1.6513 3.04849 0
M  V30 9338 C 856.526 2.88338 3.18056 0
M  V30 9339 C 855.759 2.8999 4.48042 0
M  V30 9340 O 855.982 2.00633 5.3395 0
M  V30 9341 O 854.916 3.81938 4.65196 0
M  V30 9342 H 858.742 2.59329 1.58057 0
M  V30 9343 H 856.327 1.30869 0.72067 0
M  V30 9344 H 858.209 1.68913 3.86065 0
M  V30 9345 H 856.884 0.723555 3.1551 0
M  V30 9346 H 855.791 2.90097 2.36209 0
M  V30 9347 H 857.124 3.80431 3.12302 0
M  V30 9348 N 858.776 -0.797141 1.35954 0
M  V30 9349 C 859.709 -1.91567 1.24005 0
M  V30 9350 C 860.687 -1.62112 0.125868 0
M  V30 9351 O 861.871 -1.86167 0.295638 0
M  V30 9352 C 858.998 -3.26204 0.911535 0
M  V30 9353 C 858.044 -3.74598 2.03909 0
M  V30 9354 S 858.877 -3.91276 3.656 0
M  V30 9355 C 860.033 -5.288 3.34846 0
M  V30 9356 H 860.266 -2.0141 2.18681 0
M  V30 9357 H 857.799 -0.955542 1.2128 0
M  V30 9358 H 859.757 -4.03979 0.728805 0
M  V30 9359 H 858.418 -3.14095 -0.0173159 0
M  V30 9360 H 857.611 -4.72137 1.7636 0
M  V30 9361 H 857.213 -3.03849 2.18064 0
M  V30 9362 H 859.505 -6.13117 2.8826 0
M  V30 9363 H 860.448 -5.61347 4.31619 0
M  V30 9364 H 860.856 -4.95534 2.70382 0
M  V30 9365 N 860.254 -1.20106 -1.0204 0
M  V30 9366 C 861.201 -0.946468 -2.10501 0
M  V30 9367 C 862.171 0.121902 -1.65652 0
M  V30 9368 O 863.356 -0.0220244 -1.90787 0
M  V30 9369 C 860.496 -0.500499 -3.41451 0
M  V30 9370 C 859.609 -1.63659 -3.998 0
M  V30 9371 C 858.744 -1.14131 -5.18794 0
M  V30 9372 C 857.783 -2.25074 -5.69217 0
M  V30 9373 N 856.92 -1.76791 -6.79477 0
M  V30 9374 H 861.76 -1.87506 -2.31615 0
M  V30 9375 H 859.297 -0.934693 -1.13587 0
M  V30 9376 H 861.255 -0.223276 -4.16602 0
M  V30 9377 H 859.885 0.391099 -3.20422 0
M  V30 9378 H 858.937 -2.02882 -3.21781 0
M  V30 9379 H 860.249 -2.47213 -4.33229 0
M  V30 9380 H 859.403 -0.819826 -6.01135 0
M  V30 9381 H 858.142 -0.275615 -4.86921 0
M  V30 9382 H 857.147 -2.58043 -4.85483 0
M  V30 9383 H 858.372 -3.12114 -6.03127 0
M  V30 9384 H 856.318 -0.925428 -6.4944 0
M  V30 9385 H 856.235 -2.53928 -7.12079 0
M  V30 9386 H 857.503 -1.47631 -7.65392 0
M  V30 9387 N 861.732 1.21287 -1.00634 0
M  V30 9388 C 863.148 1.42467 -0.719389 0
M  V30 9389 C 863.348 1.88767 0.704927 0
M  V30 9390 O 862.404 2.05004 1.47409 0
M  V30 9391 C 863.717 2.455 -1.73639 0
M  V30 9392 C 865.265 2.59281 -1.75335 0
M  V30 9393 C 865.74 3.65547 -2.75934 0
M  V30 9394 N 867.231 3.73019 -2.74611 0
M  V30 9395 C 867.966 4.54873 -3.4911 0
M  V30 9396 N 867.462 5.40614 -4.33253 0
M  V30 9397 N 869.255 4.49309 -3.37754 0
M  V30 9398 H 861.406 0.895454 -1.92602 0
M  V30 9399 H 863.669 0.455491 -0.831404 0
M  V30 9400 H 863.375 2.18455 -2.75627 0
M  V30 9401 H 863.249 3.44325 -1.54014 0
M  V30 9402 H 865.636 2.85661 -0.740377 0
M  V30 9403 H 865.717 1.60685 -1.99032 0
M  V30 9404 H 865.361 3.39911 -3.77389 0
M  V30 9405 H 865.291 4.63741 -2.49503 0
M  V30 9406 H 867.782 3.11766 -2.13565 0
M  V30 9407 H 868.095 6.0013 -4.86892 0
M  V30 9408 H 866.44 5.40151 -4.37335 0
M  V30 9409 H 869.631 3.81357 -2.71449 0
M  V30 9410 H 869.804 5.12867 -3.9607 0
M  V30 9411 N 863.21 0.781244 1.36873 0
M  V30 9412 C 864.142 0.132075 2.28819 0
M  V30 9413 C 865.155 -0.653925 1.49089 0
M  V30 9414 O 866.344 -0.490453 1.7163 0
M  V30 9415 C 863.444 -0.836297 3.28419 0
M  V30 9416 C 862.617 -0.102097 4.37281 0
M  V30 9417 C 861.676 -0.985217 5.16894 0
M  V30 9418 O 860.702 -0.445478 5.67454 0
M  V30 9419 N 861.904 -2.31043 5.3254 0
M  V30 9420 H 864.669 0.921838 2.85171 0
M  V30 9421 H 862.23 0.634427 1.48952 0
M  V30 9422 H 864.222 -1.43074 3.78566 0
M  V30 9423 H 862.792 -1.52698 2.72767 0
M  V30 9424 H 862.012 0.67335 3.88407 0
M  V30 9425 H 863.3 0.404862 5.07187 0
M  V30 9426 H 862.698 -2.77318 4.93063 0
M  V30 9427 H 861.255 -2.85472 5.8596 0
M  V30 9428 N 864.689 -1.48329 0.532571 0
M  V30 9429 C 865.917 -2.069 0.00354299 0
M  V30 9430 C 866.332 -1.38876 -1.27902 0
M  V30 9431 O 865.689 -0.477119 -1.76153 0
M  V30 9432 C 865.74 -3.60821 -0.221416 0
M  V30 9433 O 865.461 -4.26291 1.01034 0
M  V30 9434 C 866.962 -4.36194 -0.790531 0
M  V30 9435 H 864.182 -0.670103 0.0346836 0
M  V30 9436 H 866.726 -1.90682 0.738955 0
M  V30 9437 H 864.881 -3.76636 -0.906884 0
M  V30 9438 H 865.295 -5.18475 0.792683 0
M  V30 9439 H 866.769 -5.44657 -0.897347 0
M  V30 9440 H 867.246 -4.00798 -1.79605 0
M  V30 9441 H 867.852 -4.25064 -0.141546 0
M  V30 9442 N 866.167 -0.267825 -1.55308 0
M  V30 9443 C 867.097 0.616585 -2.25212 0
M  V30 9444 C 868.078 1.16472 -1.23969 0
M  V30 9445 O 869.263 1.20021 -1.52672 0
M  V30 9446 C 866.393 1.80412 -2.96764 0
M  V30 9447 C 865.347 1.38784 -4.04874 0
M  V30 9448 C 864.673 2.65789 -4.63961 0
M  V30 9449 C 865.973 0.543415 -5.19465 0
M  V30 9450 H 867.667 0.0336257 -2.99381 0
M  V30 9451 H 865.213 0.0147328 -1.43992 0
M  V30 9452 H 867.166 2.42866 -3.44375 0
M  V30 9453 H 865.89 2.4128 -2.20118 0
M  V30 9454 H 864.549 0.786541 -3.58063 0
M  V30 9455 H 864.197 3.24899 -3.83992 0
M  V30 9456 H 863.897 2.38651 -5.36954 0
M  V30 9457 H 865.421 3.29104 -5.14318 0
M  V30 9458 H 866.835 1.07277 -5.63174 0
M  V30 9459 H 865.232 0.367219 -5.98975 0
M  V30 9460 H 866.302 -0.439534 -4.82904 0
M  V30 9461 N 867.645 1.57599 0.00500368 0
M  V30 9462 C 868.922 1.81561 0.727654 0
M  V30 9463 C 869.302 0.871604 1.92266 0
M  V30 9464 O 868.65 -0.0808232 2.28357 0
M  V30 9465 C 868.86 3.29922 1.13809 0
M  V30 9466 C 870.208 3.95531 1.54403 0
M  V30 9467 O 871.232 3.34215 1.23202 0
M  V30 9468 O 870.091 5.03535 2.12402 0
M  V30 9469 H 867.185 0.747462 0.353878 0
M  V30 9470 H 869.731 1.69688 -0.0200667 0
M  V30 9471 H 868.503 3.90253 0.286078 0
M  V30 9472 H 868.126 3.46775 1.94507 0
M  V30 9473 N 869.123 -0.277682 1.55134 0
M  V30 9474 C 870.055 -1.36531 1.84098 0
M  V30 9475 C 871.068 -1.45756 0.725194 0
M  V30 9476 O 872.257 -1.47656 1.00299 0
M  V30 9477 C 869.357 -2.74701 1.98476 0
M  V30 9478 C 868.53 -2.88125 3.29094 0
M  V30 9479 C 867.589 -4.0694 3.33596 0
M  V30 9480 O 866.615 -3.9792 4.06999 0
M  V30 9481 N 867.817 -5.18687 2.60661 0
M  V30 9482 H 870.582 -1.12032 2.77973 0
M  V30 9483 H 868.143 -0.467793 1.54995 0
M  V30 9484 H 870.135 -3.52471 1.98863 0
M  V30 9485 H 868.705 -2.92043 1.11488 0
M  V30 9486 H 867.925 -1.97277 3.41285 0
M  V30 9487 H 869.213 -2.94021 4.15246 0
M  V30 9488 H 868.611 -5.28901 2.00699 0
M  V30 9489 H 867.168 -5.94705 2.66776 0
M  V30 9490 N 870.601 -1.47988 -0.541979 0
M  V30 9491 C 871.531 -1.64503 -1.65713 0
M  V30 9492 C 872.512 -0.494116 -1.62765 0
M  V30 9493 O 873.697 -0.725256 -1.80149 0
M  V30 9494 C 870.827 -1.67337 -3.04328 0
M  V30 9495 C 869.781 -2.81809 -3.2213 0
M  V30 9496 C 869.107 -2.69724 -4.61685 0
M  V30 9497 C 870.407 -4.23241 -3.06046 0
M  V30 9498 H 872.101 -2.5786 -1.52147 0
M  V30 9499 H 869.647 -1.24094 -0.730529 0
M  V30 9500 H 871.6 -1.77481 -3.82202 0
M  V30 9501 H 870.324 -0.705514 -3.18889 0
M  V30 9502 H 868.983 -2.71201 -2.46669 0
M  V30 9503 H 868.631 -1.70934 -4.73065 0
M  V30 9504 H 868.331 -3.4653 -4.74543 0
M  V30 9505 H 869.855 -2.81818 -5.41674 0
M  V30 9506 H 871.269 -4.34746 -3.73723 0
M  V30 9507 H 869.666 -5.00952 -3.30405 0
M  V30 9508 H 870.736 -4.40543 -2.02609 0
M  V30 9509 N 872.079 0.78992 -1.36375 0
M  V30 9510 C 873.304 1.58389 -1.33895 0
M  V30 9511 C 873.729 1.8794 0.0774934 0
M  V30 9512 O 873.087 1.4785 1.0493 0
M  V30 9513 C 873.135 2.88201 -2.16732 0
M  V30 9514 O 872.239 3.81778 -1.55946 0
M  V30 9515 H 871.58 0.480471 -0.458305 0
M  V30 9516 H 874.11 0.979119 -1.79651 0
M  V30 9517 H 874.12 3.37475 -2.29292 0
M  V30 9518 H 872.795 2.66019 -3.19698 0
M  V30 9519 H 871.372 3.40371 -1.52323 0
M  V30 9520 N 873.557 1.20646 1.01402 0
M  V30 9521 C 874.467 0.973385 2.13453 0
M  V30 9522 C 875.483 -0.0715865 1.73853 0
M  V30 9523 O 876.659 0.116438 2.01063 0
M  V30 9524 C 873.724 0.531285 3.42605 0
M  V30 9525 C 872.785 1.64741 3.96433 0
M  V30 9526 C 872.018 1.22631 5.1942 0
M  V30 9527 O 872.241 0.0960891 5.70319 0
M  V30 9528 O 871.175 2.03474 5.66465 0
M  V30 9529 H 875.001 1.91164 2.35987 0
M  V30 9530 H 872.586 0.990553 1.11841 0
M  V30 9531 H 874.468 0.294095 4.20373 0
M  V30 9532 H 873.143 -0.378358 3.21481 0
M  V30 9533 H 872.05 1.93891 3.19933 0
M  V30 9534 H 873.383 2.53415 4.2195 0
M  V30 9535 N 875.035 -1.20752 1.01276 0
M  V30 9536 C 876.284 -1.8934 0.695229 0
M  V30 9537 C 876.597 -1.79459 -0.77806 0
M  V30 9538 O 877.803 -2.43146 -1.20799 0
M  V30 9539 C 876.259 -3.39548 1.1931 0
M  V30 9540 C 875.867 -3.58023 2.69302 0
M  V30 9541 C 877.611 -4.13714 0.950823 0
M  V30 9542 C 875.518 -5.02037 3.1259 0
M  V30 9543 H 874.448 -0.709084 0.25635 0
M  V30 9544 H 877.099 -1.36629 1.22494 0
M  V30 9545 H 875.481 -3.91559 0.591395 0
M  V30 9546 H 876.655 -3.16416 3.34989 0
M  V30 9547 H 874.97 -2.97222 2.9163 0
M  V30 9548 H 877.567 -5.19891 1.24971 0
M  V30 9549 H 877.91 -4.16147 -0.112791 0
M  V30 9550 H 878.443 -3.67792 1.51571 0
M  V30 9551 H 875.182 -5.04757 4.18211 0
M  V30 9552 H 874.702 -5.44469 2.51621 0
M  V30 9553 H 876.381 -5.70594 3.0501 0
M  V30 9554 N 876.513 -0.788492 -1.36457 0
M  V30 9555 C 877.761 -0.359749 -1.98872 0
M  V30 9556 C 878.082 1.07197 -1.62892 0
M  V30 9557 O 877.352 1.73875 -0.902463 0
M  V30 9558 H 875.932 -0.130029 -0.735596 0
M  V30 9559 H 878.594 -1.01033 -1.66668 0
M  V30 9560 H 877.69 -0.450835 -3.08827 0
M  V30 9561 N 877.991 1.48044 -0.54043 0
M  V30 9562 C 878.923 2.2779 0.253854 0
M  V30 9563 C 879.936 1.35999 0.894883 0
M  V30 9564 O 881.125 1.60963 0.771563 0
M  V30 9565 C 878.225 3.09724 1.37566 0
M  V30 9566 C 877.398 4.29364 0.83459 0
M  V30 9567 C 876.457 4.93026 1.83881 0
M  V30 9568 O 875.483 5.51927 1.39159 0
M  V30 9569 N 876.685 4.86207 3.17149 0
M  V30 9570 H 879.45 2.96597 -0.430125 0
M  V30 9571 H 877.011 1.57487 -0.375423 0
M  V30 9572 H 879.003 3.49181 2.04584 0
M  V30 9573 H 877.573 2.43269 1.96314 0
M  V30 9574 H 876.793 3.94198 -0.0118878 0
M  V30 9575 H 878.081 5.06787 0.452155 0
M  V30 9576 H 877.479 4.39523 3.56141 0
M  V30 9577 H 876.036 5.29733 3.79771 0
M  V30 9578 N 879.47 0.276058 1.55163 0
M  V30 9579 C 880.747 -0.392292 1.91626 0
M  V30 9580 C 881.127 -1.73646 1.20043 0
M  V30 9581 O 880.475 -2.26139 0.327606 0
M  V30 9582 C 880.685 -0.531641 3.44927 0
M  V30 9583 C 882.033 -0.8141 4.16722 0
M  V30 9584 O 883.057 -0.616413 3.50826 0
M  V30 9585 O 881.916 -1.19224 5.33337 0
M  V30 9586 H 879.01 -0.214945 0.798579 0
M  V30 9587 H 881.556 0.32228 1.66612 0
M  V30 9588 H 880.328 0.414282 3.89101 0
M  V30 9589 H 879.951 -1.29564 3.75897 0
M  V30 9590 N 880.948 -1.576 0.00335426 0
M  V30 9591 C 882.194 -1.90996 -0.681799 0
M  V30 9592 C 882.527 -0.877643 -1.73237 0
M  V30 9593 O 881.802 0.103183 -1.94226 0
M  V30 9594 C 882.085 -3.34961 -1.32187 0
M  V30 9595 C 881.938 -4.48911 -0.28261 0
M  V30 9596 C 883.257 -3.78408 -2.24711 0
M  V30 9597 H 880.376 -0.694596 -0.246386 0
M  V30 9598 H 883.018 -1.89919 0.055336 0
M  V30 9599 H 881.168 -3.36008 -1.95014 0
M  V30 9600 H 882.84 -4.59999 0.346241 0
M  V30 9601 H 881.083 -4.32 0.394768 0
M  V30 9602 H 881.754 -5.46609 -0.769576 0
M  V30 9603 H 884.23 -3.78934 -1.71897 0
M  V30 9604 H 883.106 -4.79885 -2.66461 0
M  V30 9605 H 883.367 -3.12464 -3.1276 0
M  V30 9606 N 882.426 0.269451 -1.5528 0
M  V30 9607 C 883.674 0.998604 -1.75705 0
M  V30 9608 C 883.995 1.86691 -0.563175 0
M  V30 9609 O 883.265 1.91305 0.421811 0
M  V30 9610 H 881.845 0.371698 -0.647958 0
M  V30 9611 H 884.507 0.292826 -1.92688 0
M  V30 9612 H 883.603 1.63348 -2.6594 0
M  V30 9613 N 883.904 1.48273 0.534124 0
M  V30 9614 C 884.836 1.5857 1.65494 0
M  V30 9615 C 885.849 0.470266 1.5586 0
M  V30 9616 O 887.038 0.740928 1.62396 0
M  V30 9617 C 884.138 1.49554 3.04117 0
M  V30 9618 C 883.311 2.76066 3.39273 0
M  V30 9619 C 882.37 2.60562 4.57159 0
M  V30 9620 O 881.396 3.34438 4.60587 0
M  V30 9621 N 882.598 1.69906 5.55079 0
M  V30 9622 H 885.363 2.55226 1.57099 0
M  V30 9623 H 882.924 1.44944 0.721303 0
M  V30 9624 H 884.916 1.36882 3.80848 0
M  V30 9625 H 883.486 0.608895 3.06613 0
M  V30 9626 H 882.706 3.03332 2.51761 0
M  V30 9627 H 883.994 3.60006 3.59546 0
M  V30 9628 H 883.392 1.09079 5.55084 0
M  V30 9629 H 881.949 1.63175 6.31044 0
M  V30 9630 N 885.382 -0.782676 1.36792 0
M  V30 9631 C 886.312 -1.90973 1.34356 0
M  V30 9632 C 887.293 -1.6875 0.213917 0
M  V30 9633 O 888.478 -1.89766 0.412601 0
M  V30 9634 C 885.608 -3.28097 1.13884 0
M  V30 9635 C 884.562 -3.6486 2.23744 0
M  V30 9636 C 883.888 -5.00406 1.88408 0
M  V30 9637 C 885.188 -3.72742 3.6587 0
M  V30 9638 H 886.882 -1.93268 2.28665 0
M  V30 9639 H 884.428 -0.928447 1.10072 0
M  V30 9640 H 886.381 -4.06569 1.10813 0
M  V30 9641 H 885.105 -3.26206 0.160275 0
M  V30 9642 H 883.764 -2.88689 2.25952 0
M  V30 9643 H 883.412 -4.95044 0.891083 0
M  V30 9644 H 883.112 -5.25973 2.61966 0
M  V30 9645 H 884.636 -5.81291 1.86905 0
M  V30 9646 H 886.05 -4.4139 3.65852 0
M  V30 9647 H 884.447 -4.09798 4.38389 0
M  V30 9648 H 885.517 -2.73676 4.00287 0
M  V30 9649 N 886.86 -1.21182 -1.00761 0
M  V30 9650 C 887.79 -0.992773 -2.11344 0
M  V30 9651 C 888.771 0.0813618 -1.69905 0
M  V30 9652 O 889.956 -0.0779503 -1.94043 0
M  V30 9653 C 887.086 -0.553826 -3.42856 0
M  V30 9654 C 886.04 -1.57223 -3.98077 0
M  V30 9655 C 885.366 -0.989605 -5.25463 0
M  V30 9656 C 886.666 -2.95839 -4.30438 0
M  V30 9657 H 888.36 -1.91766 -2.29927 0
M  V30 9658 H 885.906 -0.923426 -1.10494 0
M  V30 9659 H 887.859 -0.387771 -4.19612 0
M  V30 9660 H 886.583 0.406702 -3.24058 0
M  V30 9661 H 885.242 -1.7258 -3.23437 0
M  V30 9662 H 884.89 -0.0208743 -5.02996 0
M  V30 9663 H 884.59 -1.66984 -5.63374 0
M  V30 9664 H 886.114 -0.834815 -6.04866 0
M  V30 9665 H 887.528 -2.8394 -4.98047 0
M  V30 9666 H 885.925 -3.60851 -4.79486 0
M  V30 9667 H 886.995 -3.46882 -3.38823 0
M  V30 9668 N 888.338 1.20213 -1.01915 0
M  V30 9669 C 889.615 1.85348 -0.62495 0
M  V30 9670 C 889.995 1.91101 0.896854 0
M  V30 9671 O 889.343 1.42075 1.78961 0
M  V30 9672 C 889.553 3.24849 -1.27571 0
M  V30 9673 C 890.901 4.01107 -1.39277 0
M  V30 9674 O 891.925 3.34211 -1.23212 0
M  V30 9675 O 890.784 5.20914 -1.6526 0
M  V30 9676 H 887.878 0.798303 -0.215965 0
M  V30 9677 H 890.424 1.27782 -1.11669 0
M  V30 9678 H 889.196 3.1544 -2.31545 0
M  V30 9679 H 888.819 3.90049 -0.77122 0
M  V30 9680 N 889.816 0.795718 1.36037 0
M  V30 9681 C 890.764 0.18649 2.31851 0
M  V30 9682 C 891.758 -0.657704 1.56111 0
M  V30 9683 O 892.964 -0.552083 1.71324 0
M  V30 9684 H 889.339 0.0415363 0.750852 0
M  V30 9685 H 891.31 1.00992 2.8079 0
M  V30 9686 C 890.059 -0.65918 3.41394 0
M  V30 9687 H 889.382 -0.01894 3.99796 0
M  V30 9688 H 890.822 -1.05202 4.10741 0
M  V30 9689 C 889.281 -1.82011 2.83502 0
M  V30 9690 O 889.811 -2.91703 2.76174 0
M  V30 9691 N 888.017 -1.62821 2.40703 0
M  V30 9692 H 887.564 -0.735965 2.46863 0
M  V30 9693 H 887.522 -2.40657 2.02316 0
M  V30 9694 N 891.294 -1.47756 0.548274 0
M  V30 9695 C 892.519 -2.07387 0.023475 0
M  V30 9696 C 892.944 -1.39956 -1.25674 0
M  V30 9697 O 892.302 -0.471543 -1.7506 0
M  V30 9698 C 892.35 -3.60224 -0.164669 0
M  V30 9699 O 891.454 -3.93653 -1.22928 0
M  V30 9700 H 890.795 -0.662312 0.0473156 0
M  V30 9701 H 893.325 -1.89905 0.761409 0
M  V30 9702 H 893.335 -4.06211 -0.38166 0
M  V30 9703 H 892.01 -4.08702 0.770425 0
M  V30 9704 H 890.587 -3.59422 -0.993495 0
M  V30 9705 N 892.772 -0.284283 -1.55015 0
M  V30 9706 C 893.719 0.599194 -2.22886 0
M  V30 9707 C 894.689 1.14264 -1.20553 0
M  V30 9708 O 895.874 1.19025 -1.49123 0
M  V30 9709 C 893.014 1.77317 -2.96062 0
M  V30 9710 C 892.127 1.26271 -4.13134 0
M  V30 9711 C 891.262 2.39922 -4.73931 0
M  V30 9712 C 890.301 1.85925 -5.8318 0
M  V30 9713 N 889.438 2.93084 -6.38002 0
M  V30 9714 H 894.278 0.0137816 -2.97997 0
M  V30 9715 H 891.815 -0.00496503 -1.47099 0
M  V30 9716 H 893.773 2.46339 -3.36709 0
M  V30 9717 H 892.403 2.33047 -2.23358 0
M  V30 9718 H 891.455 0.465296 -3.77544 0
M  V30 9719 H 892.767 0.827284 -4.91892 0
M  V30 9720 H 891.921 3.1692 -5.17346 0
M  V30 9721 H 890.66 2.86784 -3.9447 0
M  V30 9722 H 889.665 1.07409 -5.39206 0
M  V30 9723 H 890.89 1.39987 -6.64515 0
M  V30 9724 H 888.836 3.3931 -5.61431 0
M  V30 9725 H 888.753 2.53986 -7.12058 0
M  V30 9726 H 890.021 3.7003 -6.86075 0
M  V30 9727 N 894.251 1.57596 -0.0117121 0
M  V30 9728 C 895.214 2.08089 0.960816 0
M  V30 9729 C 896.214 0.992519 1.26514 0
M  V30 9730 O 897.404 1.25475 1.20837 0
M  V30 9731 C 894.536 2.53217 2.28241 0
M  V30 9732 H 895.729 2.9529 0.523829 0
M  V30 9733 H 893.282 1.54508 0.235995 0
M  V30 9734 H 894.017 1.69294 2.76604 0
M  V30 9735 H 893.802 3.32714 2.0747 0
M  V30 9736 H 895.292 2.92568 2.97983 0
M  V30 9737 N 895.729 -0.261212 1.5542 0
M  V30 9738 C 896.954 -1.01341 1.80955 0
M  V30 9739 C 897.379 -1.78711 0.586849 0
M  V30 9740 O 896.737 -1.75266 -0.463837 0
M  V30 9741 C 896.785 -1.93835 3.04073 0
M  V30 9742 O 895.889 -3.02791 2.79985 0
M  V30 9743 H 895.23 -0.289123 0.597749 0
M  V30 9744 H 897.76 -0.286543 2.02584 0
M  V30 9745 H 897.77 -2.3557 3.33123 0
M  V30 9746 H 896.445 -1.36936 3.9271 0
M  V30 9747 H 895.022 -2.65287 2.62063 0
M  V30 9748 N 897.207 -1.48554 -0.526253 0
M  V30 9749 C 898.154 -1.63354 -1.63046 0
M  V30 9750 C 899.124 -0.475509 -1.59148 0
M  V30 9751 O 900.309 -0.699453 -1.77517 0
M  V30 9752 C 897.449 -1.68271 -3.01295 0
M  V30 9753 C 896.562 -2.95207 -3.15399 0
M  V30 9754 C 895.697 -2.91262 -4.4423 0
M  V30 9755 C 894.736 -4.12886 -4.51876 0
M  V30 9756 N 893.873 -4.06996 -5.721 0
M  V30 9757 H 898.713 -2.57649 -1.49737 0
M  V30 9758 H 896.25 -1.27769 -0.728938 0
M  V30 9759 H 898.208 -1.69104 -3.81392 0
M  V30 9760 H 896.838 -0.774641 -3.13367 0
M  V30 9761 H 895.89 -3.04102 -2.2853 0
M  V30 9762 H 897.202 -3.85187 -3.1691 0
M  V30 9763 H 896.356 -2.90516 -5.32621 0
M  V30 9764 H 895.095 -1.99016 -4.45246 0
M  V30 9765 H 894.1 -4.13902 -3.61891 0
M  V30 9766 H 895.325 -5.06294 -4.52596 0
M  V30 9767 H 893.271 -3.17573 -5.74006 0
M  V30 9768 H 893.188 -4.90685 -5.75121 0
M  V30 9769 H 894.456 -4.10315 -6.62768 0
M  V30 9770 N 898.685 0.775411 -1.37205 0
M  V30 9771 C 899.632 1.88857 -1.32671 0
M  V30 9772 C 900.602 1.64976 -0.192899 0
M  V30 9773 O 901.787 1.86944 -0.381673 0
M  V30 9774 C 898.927 3.25871 -1.13588 0
M  V30 9775 C 898.04 3.61731 -2.36167 0
M  V30 9776 C 897.175 4.87934 -2.09985 0
M  V30 9777 C 896.214 5.16514 -3.2845 0
M  V30 9778 N 895.351 6.33905 -3.01842 0
M  V30 9779 H 900.191 1.92068 -2.27846 0
M  V30 9780 H 897.728 0.939066 -1.13225 0
M  V30 9781 H 899.686 4.04903 -1.00546 0
M  V30 9782 H 898.316 3.22045 -0.220613 0
M  V30 9783 H 897.368 2.77712 -2.59962 0
M  V30 9784 H 898.68 3.78792 -3.24528 0
M  V30 9785 H 897.834 5.74863 -1.93953 0
M  V30 9786 H 896.573 4.7297 -1.18956 0
M  V30 9787 H 895.578 4.28063 -3.45025 0
M  V30 9788 H 896.803 5.33389 -4.20325 0
M  V30 9789 H 894.749 6.20306 -2.13439 0
M  V30 9790 H 894.666 6.51364 -3.83746 0
M  V30 9791 H 895.934 7.23779 -2.8942 0
M  V30 9792 N 900.163 1.21714 1.00117 0
M  V30 9793 C 901.412 1.03087 1.73367 0
M  V30 9794 C 901.725 -0.435532 1.90689 0
M  V30 9795 O 902.931 -0.741291 2.61184 0
M  V30 9796 C 901.387 1.79593 3.11888 0
M  V30 9797 C 900.995 3.30428 3.02525 0
M  V30 9798 C 902.739 1.69386 3.89241 0
M  V30 9799 C 900.646 3.99408 4.3615 0
M  V30 9800 H 899.576 0.382117 0.650002 0
M  V30 9801 H 902.227 1.45486 1.11831 0
M  V30 9802 H 900.609 1.29988 3.74058 0
M  V30 9803 H 901.783 3.87364 2.49571 0
M  V30 9804 H 900.098 3.4122 2.38659 0
M  V30 9805 H 902.695 2.18251 4.8813 0
M  V30 9806 H 903.038 0.652773 4.1115 0
M  V30 9807 H 903.571 2.16489 3.33733 0
M  V30 9808 H 900.31 5.03735 4.19442 0
M  V30 9809 H 899.83 3.47261 4.8905 0
M  V30 9810 H 901.509 4.04537 5.04934 0
M  V30 9811 N 901.641 -1.19671 1.02551 0
M  V30 9812 C 902.589 -2.24812 0.596867 0
M  V30 9813 C 903.583 -1.65336 -0.368839 0
M  V30 9814 O 904.789 -1.78422 -0.237786 0
M  V30 9815 H 901.164 -0.731417 0.174739 0
M  V30 9816 H 903.135 -2.58286 1.49435 0
M  V30 9817 C 901.884 -3.47677 -0.0399514 0
M  V30 9818 H 901.207 -3.93728 0.694153 0
M  V30 9819 H 902.647 -4.22917 -0.302861 0
M  V30 9820 C 901.106 -3.11411 -1.2855 0
M  V30 9821 O 901.636 -3.23757 -2.37791 0
M  V30 9822 N 899.842 -2.65875 -1.17297 0
M  V30 9823 H 899.389 -2.56029 -0.284045 0
M  V30 9824 H 899.347 -2.41981 -2.00731 0
M  V30 9825 N 903.119 -0.802921 -1.35613 0
M  V30 9826 C 904.344 -0.392846 -2.03645 0
M  V30 9827 C 904.769 0.987075 -1.6012 0
M  V30 9828 O 904.127 1.63849 -0.776101 0
M  V30 9829 C 904.175 -0.480208 -3.57388 0
M  V30 9830 O 903.279 0.507751 -4.09262 0
M  V30 9831 H 902.62 -0.16464 -0.643265 0
M  V30 9832 H 905.15 -1.08779 -1.73287 0
M  V30 9833 H 905.16 -0.348683 -4.06507 0
M  V30 9834 H 903.835 -1.48675 -3.88418 0
M  V30 9835 H 902.412 0.336769 -3.71376 0
M  V30 9836 N 904.597 1.47463 -0.556102 0
M  V30 9837 C 905.874 1.9557 0.0339892 0
M  V30 9838 C 906.254 1.49869 1.48669 0
M  V30 9839 O 905.602 0.737019 2.16288 0
M  V30 9840 C 905.812 3.48826 -0.110343 0
M  V30 9841 C 907.16 4.24585 0.0355716 0
M  V30 9842 O 908.184 3.5618 -0.0378356 0
M  V30 9843 O 907.043 5.46158 0.193299 0
M  V30 9844 H 904.137 0.824461 0.0647521 0
M  V30 9845 H 906.683 1.57868 -0.622547 0
M  V30 9846 H 905.455 3.74891 -1.12126 0
M  V30 9847 H 905.078 3.9329 0.583855 0
M  V30 9848 N 906.075 0.2925 1.54862 0
M  V30 9849 C 907.3 -0.32494 2.04839 0
M  V30 9850 C 907.725 -1.47381 1.16877 0
M  V30 9851 O 907.083 -1.80492 0.171028 0
M  V30 9852 C 907.131 -0.76694 3.5235 0
M  V30 9853 O 906.235 -1.87256 3.67436 0
M  V30 9854 H 905.576 -0.0645195 0.660858 0
M  V30 9855 H 908.106 0.431867 1.9999 0
M  V30 9856 H 908.116 -1.05804 3.94043 0
M  V30 9857 H 906.791 0.0735212 4.15835 0
M  V30 9858 H 905.368 -1.58266 3.37648 0
M  V30 9859 N 907.553 -1.57587 0.0200696 0
M  V30 9860 C 908.463 -2.13119 -0.980676 0
M  V30 9861 C 909.479 -1.08124 -1.36328 0
M  V30 9862 O 910.655 -1.40134 -1.44653 0
M  V30 9863 C 907.72 -2.63991 -2.24743 0
M  V30 9864 C 906.781 -3.83667 -1.9261 0
M  V30 9865 C 906.014 -4.32103 -3.13246 0
M  V30 9866 O 906.237 -3.79758 -4.25606 0
M  V30 9867 O 905.171 -5.24047 -2.96072 0
M  V30 9868 H 908.997 -2.98887 -0.538528 0
M  V30 9869 H 906.582 -1.48055 -0.19999 0
M  V30 9870 H 908.464 -2.9682 -2.99125 0
M  V30 9871 H 907.139 -1.81311 -2.68157 0
M  V30 9872 H 906.046 -3.55778 -1.15641 0
M  V30 9873 H 907.379 -4.67482 -1.54019 0
M  V30 9874 N 909.032 0.252966 -1.55557 0
M  V30 9875 C 909.942 1.33472 -1.92931 0
M  V30 9876 C 910.958 1.52983 -0.828985 0
M  V30 9877 O 912.134 1.66723 -1.12984 0
M  V30 9878 C 909.199 2.6704 -2.21112 0
M  V30 9879 C 908.26 2.56103 -3.44542 0
M  V30 9880 C 907.493 3.83302 -3.71369 0
M  V30 9881 O 907.716 4.84907 -3.00368 0
M  V30 9882 O 906.65 3.823 -4.64898 0
M  V30 9883 H 910.476 1.04768 -2.85057 0
M  V30 9884 H 908.061 0.453208 -1.4236 0
M  V30 9885 H 909.943 3.45981 -2.40572 0
M  V30 9886 H 908.618 2.95489 -1.32166 0
M  V30 9887 H 907.525 1.7547 -3.30396 0
M  V30 9888 H 908.858 2.32601 -4.33772 0
M  V30 9889 N 910.51 1.48831 0.518367 0
M  V30 9890 C 911.44 1.67119 1.63075 0
M  V30 9891 C 912.421 0.519948 1.61958 0
M  V30 9892 O 913.606 0.753824 1.78972 0
M  V30 9893 C 910.736 1.72158 3.01627 0
M  V30 9894 C 909.69 2.86898 3.17606 0
M  V30 9895 C 909.016 2.77035 4.57335 0
M  V30 9896 C 910.316 4.28057 2.99274 0
M  V30 9897 H 912.01 2.60248 1.48025 0
M  V30 9898 H 909.556 1.2524 0.710694 0
M  V30 9899 H 911.509 1.83539 3.7933 0
M  V30 9900 H 910.233 0.756157 3.17726 0
M  V30 9901 H 908.892 2.75091 2.42323 0
M  V30 9902 H 908.54 1.78438 4.70286 0
M  V30 9903 H 908.24 3.54036 4.6897 0
M  V30 9904 H 909.764 2.904 5.37122 0
M  V30 9905 H 911.178 4.40636 3.6676 0
M  V30 9906 H 909.575 5.06145 3.22393 0
M  V30 9907 H 910.645 4.4371 1.95574 0
M  V30 9908 N 911.988 -0.768124 1.37614 0
M  V30 9909 C 913.216 -1.55726 1.36224 0
M  V30 9910 C 913.631 -1.8873 -0.0515357 0
M  V30 9911 O 912.988 -1.51718 -1.0143 0
M  V30 9912 C 913.039 -2.86533 2.20412 0
M  V30 9913 O 912.76 -2.54942 3.56281 0
M  V30 9914 C 914.261 -3.80745 2.27041 0
M  V30 9915 H 911.481 -0.482325 0.46648 0
M  V30 9916 H 914.025 -0.95176 1.81002 0
M  V30 9917 H 912.18 -3.43496 1.79134 0
M  V30 9918 H 912.594 -3.38732 4.00451 0
M  V30 9919 H 914.068 -4.69523 2.90263 0
M  V30 9920 H 914.545 -4.20138 1.27987 0
M  V30 9921 H 915.151 -3.2971 2.68647 0
M  V30 9922 N 913.466 -1.22244 -0.994698 0
M  V30 9923 C 914.398 -0.948706 -2.08644 0
M  V30 9924 C 915.411 0.0720049 -1.62641 0
M  V30 9925 O 916.6 -0.161778 -1.77765 0
M  V30 9926 C 913.7 -0.404885 -3.36473 0
M  V30 9927 C 912.873 -1.48239 -4.11514 0
M  V30 9928 C 911.932 -0.94597 -5.17627 0
M  V30 9929 O 910.958 -1.63177 -5.45309 0
M  V30 9930 N 912.16 0.23355 -5.8003 0
M  V30 9931 H 914.925 -1.88858 -2.32707 0
M  V30 9932 H 912.486 -1.12908 -1.16032 0
M  V30 9933 H 914.478 -0.0313903 -4.04688 0
M  V30 9934 H 913.048 0.440061 -3.09487 0
M  V30 9935 H 912.268 -2.02928 -3.37955 0
M  V30 9936 H 913.556 -2.20741 -4.58422 0
M  V30 9937 H 912.954 0.80756 -5.59906 0
M  V30 9938 H 911.511 0.54845 -6.49488 0
M  V30 9939 N 914.944 1.19125 -1.03184 0
M  V30 9940 C 916.36 1.40909 -0.749447 0
M  V30 9941 C 916.56 1.9022 0.664729 0
M  V30 9942 O 915.616 2.08085 1.43028 0
M  V30 9943 C 916.929 2.41761 -1.78807 0
M  V30 9944 C 918.477 2.55503 -1.80796 0
M  V30 9945 C 918.952 3.59612 -2.83626 0
M  V30 9946 N 920.443 3.6711 -2.82461 0
M  V30 9947 C 921.178 4.47366 -3.5868 0
M  V30 9948 N 920.674 5.31302 -4.44623 0
M  V30 9949 N 922.467 4.42044 -3.47208 0
M  V30 9950 H 914.618 0.854399 -1.94458 0
M  V30 9951 H 916.881 0.437753 -0.840878 0
M  V30 9952 H 916.587 2.12559 -2.80199 0
M  V30 9953 H 916.461 3.40981 -1.61283 0
M  V30 9954 H 918.848 2.84027 -0.800803 0
M  V30 9955 H 918.929 1.56427 -2.02396 0
M  V30 9956 H 918.573 3.3183 -3.84515 0
M  V30 9957 H 918.503 4.58345 -2.59283 0
M  V30 9958 H 920.994 3.07166 -2.2013 0
M  V30 9959 H 921.307 5.89667 -4.99512 0
M  V30 9960 H 919.652 5.30753 -4.48694 0
M  V30 9961 H 922.843 3.75513 -2.79477 0
M  V30 9962 H 923.016 5.0435 -4.06859 0
M  V30 9963 N 916.422 0.810101 1.35185 0
M  V30 9964 C 917.668 0.401839 1.99391 0
M  V30 9965 C 918.023 -1.02059 1.63101 0
M  V30 9966 O 917.316 -1.69889 0.8859 0
M  V30 9967 C 917.51 0.526561 3.535 0
M  V30 9968 C 917.339 1.95956 4.04761 0
M  V30 9969 C 916.109 2.58869 4.33953 0
M  V30 9970 C 918.307 2.92459 4.23051 0
M  V30 9971 N 916.289 3.93542 4.71166 0
M  V30 9972 C 917.66 4.12011 4.633 0
M  V30 9973 C 919.715 2.89244 4.05268 0
M  V30 9974 C 918.418 5.28784 4.87627 0
M  V30 9975 C 920.444 4.05223 4.30753 0
M  V30 9976 C 919.806 5.23524 4.71277 0
M  V30 9977 H 915.905 0.194886 0.757327 0
M  V30 9978 H 918.489 1.05209 1.63827 0
M  V30 9979 H 916.66 -0.0937151 3.88287 0
M  V30 9980 H 918.392 0.0925434 4.04594 0
M  V30 9981 H 915.147 2.10198 4.24398 0
M  V30 9982 H 915.571 4.62889 4.94027 0
M  V30 9983 H 920.213 1.98932 3.73076 0
M  V30 9984 H 917.931 6.19666 5.18691 0
M  V30 9985 H 921.517 4.04121 4.18542 0
M  V30 9986 H 920.397 6.11776 4.90612 0
M  V30 9987 N 917.9 -1.47166 0.563914 0
M  V30 9988 C 919.177 -1.95586 -0.0236172 0
M  V30 9989 C 919.557 -1.50655 -1.47872 0
M  V30 9990 O 918.905 -0.748479 -2.15894 0
M  V30 9991 C 919.115 -3.48762 0.128841 0
M  V30 9992 C 920.463 -4.24598 -0.0130544 0
M  V30 9993 O 921.487 -3.56155 0.0567242 0
M  V30 9994 O 920.346 -5.46253 -0.164332 0
M  V30 9995 H 917.44 -0.824793 -0.0603789 0
M  V30 9996 H 919.986 -1.57536 0.63091 0
M  V30 9997 H 918.758 -3.74291 1.14113 0
M  V30 9998 H 918.381 -3.93594 -0.56299 0
M  V30 9999 N 919.378 -0.300708 -1.54705 0
M  V30 10000 C 920.603 0.314073 -2.05008 0
M  V30 10001 C 921.028 1.46759 -1.17657 0
M  V30 10002 O 920.386 1.80398 -0.180598 0
M  V30 10003 C 920.434 0.748243 -3.52752 0
M  V30 10004 O 919.538 1.85305 -3.68424 0
M  V30 10005 H 918.879 0.0610139 -0.661191 0
M  V30 10006 H 921.409 -0.442467 -1.99758 0
M  V30 10007 H 921.419 1.03713 -3.94598 0
M  V30 10008 H 920.094 -0.095573 -4.1579 0
M  V30 10009 H 918.671 1.56473 -3.38483 0
M  V30 10010 N 920.856 1.57574 -0.0284266 0
M  V30 10011 C 921.786 2.1321 0.952039 0
M  V30 10012 C 922.767 1.04806 1.33977 0
M  V30 10013 O 923.952 1.32635 1.41851 0
M  V30 10014 C 921.082 2.65862 2.23461 0
M  V30 10015 C 920.036 3.79047 1.98765 0
M  V30 10016 C 919.362 4.18124 3.33281 0
M  V30 10017 C 920.662 5.05151 1.32739 0
M  V30 10018 H 922.356 2.95385 0.488705 0
M  V30 10019 H 919.902 1.42092 0.233628 0
M  V30 10020 H 921.855 3.03417 2.92431 0
M  V30 10021 H 920.579 1.80848 2.71959 0
M  V30 10022 H 919.238 3.41929 1.32213 0
M  V30 10023 H 918.886 3.30092 3.79537 0
M  V30 10024 H 918.586 4.94396 3.17563 0
M  V30 10025 H 920.11 4.58262 4.0352 0
M  V30 10026 H 921.524 5.40297 1.91708 0
M  V30 10027 H 919.921 5.86416 1.27421 0
M  V30 10028 H 920.991 4.83969 0.300261 0
M  V30 10029 N 922.334 -0.244713 1.55689 0
M  V30 10030 C 923.58 -0.973886 1.77886 0
M  V30 10031 C 923.913 -1.8489 0.594071 0
M  V30 10032 O 923.188 -1.90182 -0.407564 0
M  V30 10033 C 923.471 -1.83255 3.09983 0
M  V30 10034 C 923.324 -0.985571 4.3887 0
M  V30 10035 C 924.643 -2.81464 3.38329 0
M  V30 10036 H 921.762 -0.352629 0.647165 0
M  V30 10037 H 924.404 -0.244243 1.88424 0
M  V30 10038 H 922.554 -2.45464 3.01131 0
M  V30 10039 H 924.226 -0.382005 4.59716 0
M  V30 10040 H 922.469 -0.29002 4.32829 0
M  V30 10041 H 923.14 -1.62022 5.27686 0
M  V30 10042 H 925.616 -2.2939 3.47159 0
M  V30 10043 H 924.492 -3.38663 4.31971 0
M  V30 10044 H 924.753 -3.58037 2.59349 0
M  V30 10045 N 923.813 -1.49104 -0.510467 0
M  V30 10046 C 924.745 -1.61183 -1.6295 0
M  V30 10047 C 925.758 -0.495003 -1.55092 0
M  V30 10048 O 926.947 -0.766671 -1.61197 0
M  V30 10049 C 924.047 -1.54373 -3.01699 0
M  V30 10050 C 923.22 -2.81428 -3.34838 0
M  V30 10051 C 922.279 -2.67802 -4.52956 0
M  V30 10052 O 921.305 -3.41723 -4.55208 0
M  V30 10053 N 922.507 -1.78715 -5.52305 0
M  V30 10054 H 925.272 -2.57693 -1.53018 0
M  V30 10055 H 922.833 -1.46073 -0.698152 0
M  V30 10056 H 924.825 -1.42924 -3.78622 0
M  V30 10057 H 923.395 -0.657597 -3.05605 0
M  V30 10058 H 922.615 -3.07299 -2.46903 0
M  V30 10059 H 923.903 -3.6568 -3.53773 0
M  V30 10060 H 923.301 -1.17897 -5.53278 0
M  V30 10061 H 921.858 -1.73194 -6.28369 0
M  V30 10062 N 925.291 0.760815 -1.38019 0
M  V30 10063 C 926.707 1.06289 -1.19058 0
M  V30 10064 C 926.907 2.01471 -0.0342603 0
M  V30 10065 O 925.963 2.44713 0.62224 0
M  V30 10066 C 927.276 1.6499 -2.51394 0
M  V30 10067 C 928.824 1.77196 -2.58013 0
M  V30 10068 C 929.299 2.3931 -3.90506 0
M  V30 10069 N 930.79 2.46749 -3.92007 0
M  V30 10070 C 931.525 2.95687 -4.91281 0
M  V30 10071 N 931.021 3.44715 -6.00952 0
M  V30 10072 N 932.814 2.94661 -4.78677 0
M  V30 10073 H 924.965 0.129045 -2.12008 0
M  V30 10074 H 927.228 0.119878 -0.94039 0
M  V30 10075 H 926.934 1.0252 -3.36426 0
M  V30 10076 H 926.808 2.64146 -2.6927 0
M  V30 10077 H 929.195 2.38796 -1.7338 0
M  V30 10078 H 929.276 0.767645 -2.4401 0
M  V30 10079 H 928.92 1.78346 -4.75558 0
M  V30 10080 H 928.85 3.40369 -4.01817 0
M  V30 10081 H 931.341 2.12064 -3.12789 0
M  V30 10082 H 931.654 3.80492 -6.72641 0
M  V30 10083 H 929.999 3.42791 -6.04582 0
M  V30 10084 H 933.19 2.55665 -3.92113 0
M  V30 10085 H 933.363 3.32489 -5.56197 0
M  V30 10086 N 926.769 1.22769 0.988202 0
M  V30 10087 C 927.699 1.02627 2.09738 0
M  V30 10088 C 928.68 -0.0543211 1.70013 0
M  V30 10089 O 929.865 0.108811 1.93895 0
M  V30 10090 C 926.995 0.608302 3.41931 0
M  V30 10091 C 925.949 1.63536 3.95525 0
M  V30 10092 C 925.275 1.07308 5.23822 0
M  V30 10093 C 926.575 3.02649 4.25677 0
M  V30 10094 H 928.269 1.954 2.26847 0
M  V30 10095 H 925.815 0.940888 1.09011 0
M  V30 10096 H 927.768 0.454478 4.18942 0
M  V30 10097 H 926.492 -0.355095 3.24664 0
M  V30 10098 H 925.151 1.77704 3.20651 0
M  V30 10099 H 924.799 0.100894 5.02899 0
M  V30 10100 H 924.499 1.75925 5.60646 0
M  V30 10101 H 926.023 0.930938 6.03462 0
M  V30 10102 H 927.437 2.91828 4.93467 0
M  V30 10103 H 925.834 3.68434 4.73684 0
M  V30 10104 H 926.904 3.52228 3.33262 0
M  V30 10105 N 928.247 -1.18576 1.03814 0
M  V30 10106 C 929.157 -2.25778 0.637311 0
M  V30 10107 C 930.173 -1.7074 -0.335248 0
M  V30 10108 O 931.349 -2.00494 -0.19081 0
M  V30 10109 C 928.414 -3.467 0.00386953 0
M  V30 10110 C 927.475 -4.16881 1.02511 0
M  V30 10111 C 926.708 -5.32031 0.421802 0
M  V30 10112 O 926.931 -5.65142 -0.772699 0
M  V30 10113 O 925.865 -5.90826 1.14925 0
M  V30 10114 H 929.691 -2.62323 1.53037 0
M  V30 10115 H 927.276 -1.25609 0.80887 0
M  V30 10116 H 929.158 -4.19953 -0.348873 0
M  V30 10117 H 927.833 -3.11983 -0.863047 0
M  V30 10118 H 926.74 -3.45707 1.4296 0
M  V30 10119 H 928.073 -4.55592 1.86271 0
M  V30 10120 N 929.725 -0.817259 -1.34754 0
M  V30 10121 C 931.002 -0.325468 -1.92873 0
M  V30 10122 C 931.382 1.18643 -1.74606 0
M  V30 10123 O 930.73 1.9909 -1.1214 0
M  V30 10124 C 930.94 -0.74858 -3.40877 0
M  V30 10125 C 932.288 -0.744165 -4.18028 0
M  V30 10126 O 933.312 -0.690799 -3.49437 0
M  V30 10127 O 932.171 -0.812207 -5.40431 0
M  V30 10128 H 929.265 -0.0876397 -0.822343 0
M  V30 10129 H 931.811 -0.901671 -1.43764 0
M  V30 10130 H 930.583 -1.79017 -3.47949 0
M  V30 10131 H 930.206 -0.147764 -3.97325 0
M  V30 10132 N 931.203 1.46865 -0.571711 0
M  V30 10133 C 932.428 2.07323 -0.0564655 0
M  V30 10134 C 932.853 1.41938 1.23431 0
M  V30 10135 O 932.211 0.499334 1.74288 0
M  V30 10136 C 932.259 3.6044 0.107339 0
M  V30 10137 O 931.363 3.95558 1.1665 0
M  V30 10138 H 930.704 0.661475 -0.0578465 0
M  V30 10139 H 933.234 1.88669 -0.791524 0
M  V30 10140 H 933.244 4.06767 0.316987 0
M  V30 10141 H 931.919 4.07425 -0.835348 0
M  V30 10142 H 930.496 3.60957 0.936189 0
M  V30 10143 N 932.681 0.308908 1.54543 0
M  V30 10144 C 933.906 -0.303196 2.05172 0
M  V30 10145 C 934.331 -1.46133 1.18434 0
M  V30 10146 O 933.689 -1.803 0.190162 0
M  V30 10147 C 933.737 -0.729526 3.53143 0
M  V30 10148 O 932.841 -1.83348 3.69401 0
M  V30 10149 H 932.182 -0.0575066 0.661505 0
M  V30 10150 H 934.712 0.453055 1.99521 0
M  V30 10151 H 934.722 -1.01619 3.95143 0
M  V30 10152 H 933.397 0.117622 4.15734 0
M  V30 10153 H 931.974 -1.54676 3.39308 0
M  V30 10154 N 934.159 -1.57557 0.0367827 0
M  V30 10155 C 935.107 -2.11844 -0.960454 0
M  V30 10156 C 936.101 -1.04681 -1.33185 0
M  V30 10157 O 937.307 -1.23108 -1.31318 0
M  V30 10158 H 933.682 -0.676921 -0.32754 0
M  V30 10159 H 935.653 -2.94557 -0.477346 0
M  V30 10160 C 934.402 -2.66683 -2.23105 0
M  V30 10161 H 933.725 -3.48795 -1.95403 0
M  V30 10162 H 935.165 -3.08305 -2.91074 0
M  V30 10163 C 933.624 -1.59782 -2.96599 0
M  V30 10164 O 934.154 -1.00214 -3.88999 0
M  V30 10165 N 932.36 -1.31644 -2.59072 0
M  V30 10166 H 931.907 -1.80272 -1.8401 0
M  V30 10167 H 931.865 -0.603457 -3.08554 0
M  V30 10168 N 935.637 0.236453 -1.55816 0
M  V30 10169 C 936.569 1.31602 -1.87653 0
M  V30 10170 C 937.582 1.43782 -0.763584 0
M  V30 10171 O 938.771 1.44945 -1.04178 0
M  V30 10172 C 935.871 2.69342 -2.05689 0
M  V30 10173 C 935.044 2.79298 -3.36617 0
M  V30 10174 C 934.103 3.97952 -3.44268 0
M  V30 10175 O 933.129 3.86989 -4.17406 0
M  V30 10176 N 934.331 5.11594 -2.74321 0
M  V30 10177 H 937.096 1.04623 -2.80845 0
M  V30 10178 H 934.657 0.426534 -1.5618 0
M  V30 10179 H 936.649 3.47074 -2.08138 0
M  V30 10180 H 935.219 2.88984 -1.19192 0
M  V30 10181 H 934.439 1.8816 -3.46395 0
M  V30 10182 H 935.727 2.82908 -4.22895 0
M  V30 10183 H 935.125 5.23394 -2.14651 0
M  V30 10184 H 933.682 5.87422 -2.8245 0
M  V30 10185 N 937.115 1.49373 0.502552 0
M  V30 10186 C 938.361 1.59016 1.25864 0
M  V30 10187 C 938.694 0.27532 1.92238 0
M  V30 10188 O 937.969 -0.720988 1.80643 0
M  V30 10189 C 938.252 2.74828 2.32683 0
M  V30 10190 C 938.105 4.16102 1.7082 0
M  V30 10191 C 939.424 2.86288 3.34256 0
M  V30 10192 H 936.543 0.578798 0.456248 0
M  V30 10193 H 939.185 1.81651 0.557032 0
M  V30 10194 H 937.335 2.5566 2.92524 0
M  V30 10195 H 939.007 4.46782 1.14818 0
M  V30 10196 H 937.25 4.21822 1.01238 0
M  V30 10197 H 937.921 4.93006 2.48292 0
M  V30 10198 H 940.397 3.03733 2.84404 0
M  V30 10199 H 939.273 3.69001 4.06362 0
M  V30 10200 H 939.534 1.95576 3.96488 0
M  V30 10201 N 938.594 -0.753485 1.38421 0
M  V30 10202 C 939.822 -1.54272 1.37868 0
M  V30 10203 C 940.237 -1.88774 -0.0315155 0
M  V30 10204 O 939.594 -1.52785 -0.998148 0
M  V30 10205 C 939.645 -2.84179 2.23438 0
M  V30 10206 O 939.366 -2.51149 3.58965 0
M  V30 10207 C 940.867 -3.78316 2.31067 0
M  V30 10208 H 938.087 -0.47735 0.47157 0
M  V30 10209 H 940.631 -0.932509 1.82001 0
M  V30 10210 H 938.786 -3.41577 1.82767 0
M  V30 10211 H 939.2 -3.34466 4.04021 0
M  V30 10212 H 940.674 -4.66418 2.95226 0
M  V30 10213 H 941.151 -4.18757 1.32436 0
M  V30 10214 H 941.757 -3.26842 2.72129 0
M  V30 10215 N 940.072 -1.23292 -0.981677 0
M  V30 10216 C 941.004 -0.970782 -2.07626 0
M  V30 10217 C 942.017 0.0547506 -1.62708 0
M  V30 10218 O 943.206 -0.180623 -1.77584 0
M  V30 10219 C 940.306 -0.44055 -3.36024 0
M  V30 10220 C 939.479 -1.52595 -4.09919 0
M  V30 10221 C 938.538 -1.00082 -5.16595 0
M  V30 10222 O 937.564 -1.68951 -5.43548 0
M  V30 10223 N 938.766 0.172017 -5.80245 0
M  V30 10224 H 941.531 -1.91316 -2.30691 0
M  V30 10225 H 939.092 -1.14133 -1.14828 0
M  V30 10226 H 941.084 -0.0743111 -4.04632 0
M  V30 10227 H 939.654 0.407211 -3.09936 0
M  V30 10228 H 938.874 -2.06501 -3.35784 0
M  V30 10229 H 940.162 -2.2559 -4.56055 0
M  V30 10230 H 939.56 0.748129 -5.60731 0
M  V30 10231 H 938.117 0.479532 -6.50034 0
M  V30 10232 N 941.55 1.18024 -1.04442 0
M  V30 10233 C 942.513 2.19992 -0.643136 0
M  V30 10234 C 943.513 1.57949 0.301444 0
M  V30 10235 O 944.703 1.73986 0.0863341 0
M  V30 10236 C 941.835 3.40853 0.0565208 0
M  V30 10237 H 943.028 2.57008 -1.54554 0
M  V30 10238 H 940.581 1.31974 -0.837408 0
M  V30 10239 H 941.316 3.09373 0.972553 0
M  V30 10240 H 941.101 3.87128 -0.622439 0
M  V30 10241 H 942.591 4.16344 0.323652 0
M  V30 10242 N 943.028 0.824394 1.34319 0
M  V30 10243 C 944.274 0.413779 1.98534 0
M  V30 10244 C 944.607 -1.02089 1.65201 0
M  V30 10245 O 943.882 -1.71129 0.924402 0
M  V30 10246 C 944.165 0.61801 3.54757 0
M  V30 10247 C 944.018 2.0989 3.97827 0
M  V30 10248 C 945.337 0.0549041 4.40066 0
M  V30 10249 H 942.456 0.151815 0.721194 0
M  V30 10250 H 945.098 1.03723 1.5919 0
M  V30 10251 H 943.248 0.0873107 3.88402 0
M  V30 10252 H 944.92 2.69335 3.74508 0
M  V30 10253 H 943.163 2.58881 3.48085 0
M  V30 10254 H 943.834 2.1926 5.06586 0
M  V30 10255 H 946.31 0.508348 4.12983 0
M  V30 10256 H 945.186 0.227595 5.48428 0
M  V30 10257 H 945.447 -1.04025 4.29687 0
M  V30 10258 N 944.506 -1.46559 0.579492 0
M  V30 10259 C 945.469 -2.28739 -0.145371 0
M  V30 10260 C 946.469 -1.38211 -0.821854 0
M  V30 10261 O 947.659 -1.6062 -0.674302 0
M  V30 10262 C 944.791 -3.18507 -1.21515 0
M  V30 10263 H 945.984 -2.94301 0.576786 0
M  V30 10264 H 943.537 -1.52616 0.337327 0
M  V30 10265 H 944.272 -2.57685 -1.96899 0
M  V30 10266 H 944.057 -3.85157 -0.734616 0
M  V30 10267 H 945.547 -3.80369 -1.72363 0
M  V30 10268 N 945.984 -0.3171 -1.54377 0
M  V30 10269 C 946.931 0.551782 -2.24107 0
M  V30 10270 C 947.901 1.11681 -1.22949 0
M  V30 10271 O 949.086 1.15836 -1.51614 0
M  V30 10272 C 946.226 1.70997 -2.99756 0
M  V30 10273 C 945.339 1.17479 -4.15719 0
M  V30 10274 C 944.474 2.29815 -4.78914 0
M  V30 10275 C 943.513 1.73513 -5.86992 0
M  V30 10276 N 942.65 2.79485 -6.44075 0
M  V30 10277 H 947.49 -0.049431 -2.97959 0
M  V30 10278 H 945.027 -0.0361658 -1.47056 0
M  V30 10279 H 946.985 2.39141 -3.41859 0
M  V30 10280 H 945.615 2.28257 -2.28251 0
M  V30 10281 H 944.667 0.385109 -3.78446 0
M  V30 10282 H 945.979 0.72276 -4.93536 0
M  V30 10283 H 945.133 3.05875 -5.23952 0
M  V30 10284 H 943.872 2.78352 -4.00464 0
M  V30 10285 H 942.877 0.959475 -5.41363 0
M  V30 10286 H 944.102 1.2586 -6.67335 0
M  V30 10287 H 942.048 3.27325 -5.68502 0
M  V30 10288 H 941.965 2.38825 -7.17286 0
M  V30 10289 H 943.233 3.55394 -6.93769 0
M  V30 10290 N 947.462 1.57535 -0.0451378 0
M  V30 10291 C 948.392 2.14208 0.929372 0
M  V30 10292 C 949.373 1.06221 1.32858 0
M  V30 10293 O 950.558 1.34132 1.40436 0
M  V30 10294 C 947.688 2.68217 2.20629 0
M  V30 10295 C 946.642 3.81134 1.94734 0
M  V30 10296 C 945.968 4.21636 3.28828 0
M  V30 10297 C 947.268 5.06531 1.27374 0
M  V30 10298 H 948.962 2.95886 0.457348 0
M  V30 10299 H 946.508 1.42332 0.218544 0
M  V30 10300 H 948.461 3.06502 2.89196 0
M  V30 10301 H 947.185 1.83722 2.70026 0
M  V30 10302 H 945.844 3.43312 1.28579 0
M  V30 10303 H 945.492 3.34099 3.76014 0
M  V30 10304 H 945.192 4.97736 3.12302 0
M  V30 10305 H 946.716 4.62516 3.98637 0
M  V30 10306 H 948.13 5.423 1.85967 0
M  V30 10307 H 946.527 5.87735 1.21194 0
M  V30 10308 H 947.597 4.84261 0.248913 0
M  V30 10309 N 948.94 -0.228186 1.55939 0
M  V30 10310 C 950.188 -0.951668 1.78291 0
M  V30 10311 C 950.509 -1.85132 0.612474 0
M  V30 10312 O 949.779 -1.92356 -0.370942 0
M  V30 10313 H 948.359 -0.354388 0.657585 0
M  V30 10314 H 951.021 -0.241635 1.93396 0
M  V30 10315 H 950.117 -1.56239 2.70177 0
M  V30 10316 N 950.418 -1.49637 -0.494624 0
M  V30 10317 C 951.351 -1.61387 -1.61337 0
M  V30 10318 C 952.329 -0.462704 -1.55878 0
M  V30 10319 O 953.513 -0.679103 -1.75842 0
M  V30 10320 C 950.64 -1.57471 -2.99867 0
M  V30 10321 C 949.686 -2.77863 -3.23565 0
M  V30 10322 S 950.519 -4.3946 -3.05999 0
M  V30 10323 C 951.675 -4.382 -4.46914 0
M  V30 10324 H 951.908 -2.56024 -1.51126 0
M  V30 10325 H 949.441 -1.38607 -0.680253 0
M  V30 10326 H 951.399 -1.55898 -3.79745 0
M  V30 10327 H 950.06 -0.641107 -3.07488 0
M  V30 10328 H 949.253 -2.71361 -4.24711 0
M  V30 10329 H 948.855 -2.76882 -2.51421 0
M  V30 10330 H 951.147 -4.10312 -5.3912 0
M  V30 10331 H 952.09 -5.39645 -4.58464 0
M  V30 10332 H 952.498 -3.68197 -4.27891 0
M  V30 10333 N 951.896 0.746133 -1.38819 0
M  V30 10334 C 953.121 1.54049 -1.38866 0
M  V30 10335 C 953.546 1.88092 0.0176624 0
M  V30 10336 O 952.904 1.51113 1.00173 0
M  V30 10337 C 952.952 2.8116 -2.25791 0
M  V30 10338 O 952.056 3.76623 -1.68014 0
M  V30 10339 H 951.397 0.465648 -0.473359 0
M  V30 10340 H 953.927 0.921469 -1.82675 0
M  V30 10341 H 953.937 3.30009 -2.39913 0
M  V30 10342 H 952.612 2.55713 -3.27999 0
M  V30 10343 H 951.189 3.35352 -1.63074 0
M  V30 10344 N 953.375 1.23811 0.975125 0
M  V30 10345 C 954.307 0.981779 2.07108 0
M  V30 10346 C 955.32 -0.0461211 1.62735 0
M  V30 10347 O 956.509 0.190039 1.77486 0
M  V30 10348 C 953.609 0.458364 3.35786 0
M  V30 10349 C 952.782 1.54767 4.09104 0
M  V30 10350 C 951.841 1.0282 5.16057 0
M  V30 10351 O 950.867 1.71831 5.42644 0
M  V30 10352 N 952.069 -0.141243 5.80328 0
M  V30 10353 H 954.834 1.92537 2.29673 0
M  V30 10354 H 952.395 1.1474 1.14221 0
M  V30 10355 H 954.387 0.0957686 4.04587 0
M  V30 10356 H 952.957 -0.390768 3.10148 0
M  V30 10357 H 952.177 2.08279 3.34684 0
M  V30 10358 H 953.465 2.28006 4.54853 0
M  V30 10359 H 952.863 -0.718382 5.6112 0
M  V30 10360 H 951.42 -0.445052 6.50279 0
M  V30 10361 N 954.853 -1.17469 1.05066 0
M  V30 10362 C 956.102 -1.87032 0.755114 0
M  V30 10363 C 956.415 -1.81844 -0.720572 0
M  V30 10364 O 957.621 -2.46866 -1.13002 0
M  V30 10365 C 956.077 -3.35581 1.30052 0
M  V30 10366 C 955.685 -3.49274 2.80556 0
M  V30 10367 C 957.429 -4.1048 1.08196 0
M  V30 10368 C 955.336 -4.91838 3.28404 0
M  V30 10369 H 954.266 -0.70057 0.278779 0
M  V30 10370 H 956.917 -1.32663 1.26779 0
M  V30 10371 H 955.299 -3.89479 0.715667 0
M  V30 10372 H 956.473 -3.05598 3.44886 0
M  V30 10373 H 954.788 -2.87793 3.00939 0
M  V30 10374 H 957.385 -5.15652 1.41447 0
M  V30 10375 H 957.728 -4.16295 0.0196603 0
M  V30 10376 H 958.261 -3.62784 1.63195 0
M  V30 10377 H 955 -4.91196 4.34058 0
M  V30 10378 H 954.52 -5.36189 2.68815 0
M  V30 10379 H 956.199 -5.60602 3.23009 0
M  V30 10380 N 956.331 -0.831506 -1.3388 0
M  V30 10381 C 957.742 -0.481375 -1.80388 0
M  V30 10382 C 958.093 0.998993 -1.68863 0
M  V30 10383 O 957.218 1.77795 -1.2336 0
M  V30 10384 C 957.813 -0.86699 -3.27519 0
M  V30 10385 C 956.372 -0.569105 -3.72073 0
M  V30 10386 C 955.519 -1.07929 -2.55434 0
M  V30 10387 H 958.47 -1.02089 -1.21505 0
M  V30 10388 H 958.491 -0.174128 -3.80101 0
M  V30 10389 H 958.003 -1.94447 -3.35875 0
M  V30 10390 H 956.104 0.498607 -3.69249 0
M  V30 10391 H 956.217 -1.11918 -4.65845 0
M  V30 10392 H 954.581 -0.500465 -2.49735 0
M  V30 10393 H 955.364 -2.16339 -2.66556 0
M  V30 10394 N 957.809 1.4625 -0.587256 0
M  V30 10395 C 958.741 2.28482 0.181256 0
M  V30 10396 C 959.754 1.38777 0.851163 0
M  V30 10397 O 960.943 1.63336 0.719963 0
M  V30 10398 C 958.043 3.13944 1.27643 0
M  V30 10399 C 957.216 4.31802 0.697569 0
M  V30 10400 C 956.275 4.98626 1.68102 0
M  V30 10401 O 955.301 5.56075 1.21529 0
M  V30 10402 N 956.503 4.96051 3.0152 0
M  V30 10403 H 959.268 2.95079 -0.524267 0
M  V30 10404 H 956.829 1.56213 -0.425336 0
M  V30 10405 H 958.821 3.55513 1.93371 0
M  V30 10406 H 957.391 2.49391 1.88475 0
M  V30 10407 H 956.611 3.93961 -0.137293 0
M  V30 10408 H 957.899 5.07969 0.290696 0
M  V30 10409 H 957.297 4.5063 3.41978 0
M  V30 10410 H 955.854 5.41547 3.62725 0
M  V30 10411 N 959.287 0.325282 1.54207 0
M  V30 10412 C 960.234 -0.539889 2.24397 0
M  V30 10413 C 961.204 -1.11028 1.2354 0
M  V30 10414 O 962.389 -1.1503 1.52226 0
M  V30 10415 C 959.529 -1.69405 3.00659 0
M  V30 10416 C 958.642 -1.15273 4.16337 0
M  V30 10417 C 957.777 -2.27272 4.80126 0
M  V30 10418 C 956.816 -1.70397 5.87904 0
M  V30 10419 N 955.953 -2.76065 6.45548 0
M  V30 10420 H 960.793 0.0652318 2.97929 0
M  V30 10421 H 958.33 0.043964 1.47034 0
M  V30 10422 H 960.288 -2.37325 3.43122 0
M  V30 10423 H 958.918 -2.27043 2.29458 0
M  V30 10424 H 957.97 -0.365034 3.78645 0
M  V30 10425 H 959.282 -0.696576 4.93912 0
M  V30 10426 H 958.436 -3.03092 5.25566 0
M  V30 10427 H 957.175 -2.76224 4.01935 0
M  V30 10428 H 956.18 -0.930752 5.41864 0
M  V30 10429 H 957.405 -1.22319 6.67993 0
M  V30 10430 H 955.351 -3.24306 5.7023 0
M  V30 10431 H 955.268 -2.35018 7.18542 0
M  V30 10432 H 956.536 -3.5171 6.95644 0
M  V30 10433 N 960.765 -1.57509 0.0534917 0
M  V30 10434 C 962.042 -1.84137 -0.659767 0
M  V30 10435 C 962.422 -0.942362 -1.88899 0
M  V30 10436 O 961.77 -0.00398566 -2.285 0
M  V30 10437 C 961.98 -3.33919 -1.01486 0
M  V30 10438 C 963.328 -4.00989 -1.39616 0
M  V30 10439 O 964.352 -3.38557 -1.10713 0
M  V30 10440 O 963.211 -5.11071 -1.93567 0
M  V30 10441 H 960.305 -0.760081 -0.325893 0
M  V30 10442 H 962.851 -1.69497 0.0830315 0
M  V30 10443 H 961.623 -3.91046 -0.141041 0
M  V30 10444 H 961.246 -3.53755 -1.81503 0
M  V30 10445 N 962.243 0.219913 -1.56058 0
M  V30 10446 C 963.173 1.27572 -1.9557 0
M  V30 10447 C 964.154 1.48801 -0.824148 0
M  V30 10448 O 965.339 1.60957 -1.08658 0
M  V30 10449 C 962.469 2.62517 -2.27381 0
M  V30 10450 C 961.423 2.55941 -3.43042 0
M  V30 10451 C 960.749 3.94931 -3.60463 0
M  V30 10452 C 962.049 2.10584 -4.77966 0
M  V30 10453 H 963.743 0.947482 -2.84013 0
M  V30 10454 H 961.289 0.454337 -1.36645 0
M  V30 10455 H 963.242 3.36538 -2.53615 0
M  V30 10456 H 961.966 2.97031 -1.35794 0
M  V30 10457 H 960.625 1.84377 -3.1686 0
M  V30 10458 H 960.273 4.26756 -2.66249 0
M  V30 10459 H 959.973 3.91413 -4.38258 0
M  V30 10460 H 961.497 4.70611 -3.89046 0
M  V30 10461 H 962.911 2.74349 -5.03394 0
M  V30 10462 H 961.308 2.18122 -5.59055 0
M  V30 10463 H 962.378 1.05818 -4.73213 0
M  V30 10464 N 963.721 1.49897 0.486681 0
M  V30 10465 C 964.651 1.7054 1.59494 0
M  V30 10466 C 965.632 0.554184 1.60819 0
M  V30 10467 O 966.817 0.791617 1.77333 0
M  V30 10468 C 963.947 1.78517 2.97908 0
M  V30 10469 C 962.901 2.93571 3.11449 0
M  V30 10470 C 962.227 2.86674 4.51356 0
M  V30 10471 C 963.527 4.34308 2.90127 0
M  V30 10472 H 965.221 2.63329 1.42472 0
M  V30 10473 H 962.767 1.2672 0.683969 0
M  V30 10474 H 964.72 1.91544 3.75352 0
M  V30 10475 H 963.444 0.823381 3.16051 0
M  V30 10476 H 962.103 2.80169 2.36433 0
M  V30 10477 H 961.751 1.88373 4.66395 0
M  V30 10478 H 961.451 3.63903 4.61355 0
M  V30 10479 H 962.975 3.01728 5.30841 0
M  V30 10480 H 964.389 4.48317 3.57331 0
M  V30 10481 H 962.786 5.12869 3.11585 0
M  V30 10482 H 963.856 4.47759 1.86119 0
M  V30 10483 N 965.199 -0.738761 1.39212 0
M  V30 10484 C 966.109 -1.88324 1.39897 0
M  V30 10485 C 967.125 -1.71494 0.294229 0
M  V30 10486 O 968.301 -1.94162 0.535087 0
M  V30 10487 C 965.366 -3.23871 1.23726 0
M  V30 10488 C 964.427 -3.53121 2.44139 0
M  V30 10489 C 963.66 -4.82202 2.2873 0
M  V30 10490 O 963.883 -5.55649 1.28879 0
M  V30 10491 O 962.817 -5.11265 3.17634 0
M  V30 10492 H 966.643 -1.90701 2.36362 0
M  V30 10493 H 964.228 -0.886067 1.20288 0
M  V30 10494 H 966.11 -4.04882 1.16826 0
M  V30 10495 H 964.785 -3.22274 0.303551 0
M  V30 10496 H 963.692 -2.72212 2.56615 0
M  V30 10497 H 965.025 -3.59495 3.36191 0
M  V30 10498 N 966.677 -1.24326 -0.968545 0
M  V30 10499 C 967.905 -1.10947 -1.74638 0
M  V30 10500 C 968.32 0.338064 -1.85749 0
M  V30 10501 O 967.677 1.23331 -1.3452 0
M  V30 10502 C 967.728 -1.74254 -3.1673 0
M  V30 10503 O 967.449 -3.13347 -3.06178 0
M  V30 10504 C 968.95 -1.66473 -4.10855 0
M  V30 10505 H 966.17 -0.38767 -0.547679 0
M  V30 10506 H 968.714 -1.64415 -1.21605 0
M  V30 10507 H 966.869 -1.2479 -3.66751 0
M  V30 10508 H 967.283 -3.44255 -3.95713 0
M  V30 10509 H 968.757 -2.15452 -5.08217 0
M  V30 10510 H 969.234 -0.625785 -4.34719 0
M  V30 10511 H 969.84 -2.15359 -3.66743 0
M  V30 10512 N 968.156 1.1691 -1.05688 0
M  V30 10513 C 969.402 1.8757 -0.771071 0
M  V30 10514 C 969.735 1.8113 0.700399 0
M  V30 10515 O 969.01 1.22273 1.5126 0
M  V30 10516 C 969.293 3.37392 -1.25851 0
M  V30 10517 C 969.146 3.52556 -2.79329 0
M  V30 10518 C 970.465 4.31585 -0.861512 0
M  V30 10519 H 967.584 0.681089 -0.281579 0
M  V30 10520 H 970.226 1.37453 -1.31174 0
M  V30 10521 H 968.376 3.80204 -0.798563 0
M  V30 10522 H 970.048 3.18725 -3.33485 0
M  V30 10523 H 968.291 2.94668 -3.1836 0
M  V30 10524 H 968.962 4.57748 -3.08498 0
M  V30 10525 H 971.438 3.96642 -1.25756 0
M  V30 10526 H 970.314 5.34939 -1.23012 0
M  V30 10527 H 970.575 4.4148 0.234089 0
M  V30 10528 N 969.634 0.838594 1.33437 0
M  V30 10529 C 971.05 0.526347 1.50671 0
M  V30 10530 C 971.25 -0.946387 1.77893 0
M  V30 10531 O 970.306 -1.7302 1.83903 0
M  V30 10532 C 971.619 1.39945 2.6615 0
M  V30 10533 C 973.167 1.3982 2.80035 0
M  V30 10534 C 973.642 2.25614 3.98576 0
M  V30 10535 N 975.133 2.23322 4.0581 0
M  V30 10536 C 975.868 2.86443 4.96727 0
M  V30 10537 N 975.364 3.58616 5.92762 0
M  V30 10538 N 977.157 2.75915 4.89722 0
M  V30 10539 H 969.308 1.79195 1.1403 0
M  V30 10540 H 971.571 0.764491 0.560586 0
M  V30 10541 H 971.277 2.44599 2.52714 0
M  V30 10542 H 971.151 1.07529 3.61548 0
M  V30 10543 H 973.538 0.35937 2.92904 0
M  V30 10544 H 973.619 1.76241 1.85399 0
M  V30 10545 H 973.263 3.29555 3.86466 0
M  V30 10546 H 973.193 1.86533 4.92456 0
M  V30 10547 H 975.684 1.70836 3.37081 0
M  V30 10548 H 975.997 4.03987 6.58798 0
M  V30 10549 H 974.342 3.62724 5.92838 0
M  V30 10550 H 977.533 2.19094 4.13661 0
M  V30 10551 H 977.706 3.25393 5.60378 0
M  V30 10552 N 971.112 -1.45937 0.595003 0
M  V30 10553 C 972.358 -2.0262 0.0854317 0
M  V30 10554 C 972.691 -1.46402 -1.27594 0
M  V30 10555 O 971.966 -0.633823 -1.83883 0
M  V30 10556 C 972.249 -3.60085 0.0329075 0
M  V30 10557 C 972.102 -4.26663 1.42405 0
M  V30 10558 C 973.421 -4.35101 -0.661426 0
M  V30 10559 H 970.54 -0.736282 0.0325196 0
M  V30 10560 H 973.182 -1.73938 0.764563 0
M  V30 10561 H 971.332 -3.84652 -0.545439 0
M  V30 10562 H 973.004 -4.13321 2.04851 0
M  V30 10563 H 971.247 -3.85549 1.98833 0
M  V30 10564 H 971.918 -5.35497 1.33965 0
M  V30 10565 H 974.394 -4.15753 -0.169977 0
M  V30 10566 H 973.27 -5.44829 -0.667243 0
M  V30 10567 H 973.531 -4.07053 -1.72513 0
M  V30 10568 N 972.59 -0.333456 -1.54032 0
M  V30 10569 C 974.006 0.0188405 -1.59589 0
M  V30 10570 C 974.206 1.49615 -1.34972 0
M  V30 10571 O 973.262 2.2535 -1.13901 0
M  V30 10572 C 974.575 -0.408273 -2.97915 0
M  V30 10573 C 976.123 -0.359763 -3.10926 0
M  V30 10574 C 976.598 -0.76219 -4.51613 0
M  V30 10575 N 978.089 -0.715981 -4.57633 0
M  V30 10576 C 978.824 -0.999436 -5.64623 0
M  V30 10577 N 978.32 -1.35053 -6.79509 0
M  V30 10578 N 980.113 -0.924343 -5.54448 0
M  V30 10579 H 972.264 -1.29587 -1.68289 0
M  V30 10580 H 974.527 -0.527584 -0.787629 0
M  V30 10581 H 974.233 -1.43793 -3.20962 0
M  V30 10582 H 974.107 0.221685 -3.76548 0
M  V30 10583 H 976.494 0.660703 -2.87609 0
M  V30 10584 H 976.575 -1.02479 -2.34375 0
M  V30 10585 H 976.219 -1.78062 -4.75664 0
M  V30 10586 H 976.149 -0.0747478 -5.26547 0
M  V30 10587 H 978.64 -0.456875 -3.75128 0
M  V30 10588 H 978.953 -1.55194 -7.57057 0
M  V30 10589 H 977.298 -1.38889 -6.80981 0
M  V30 10590 H 980.489 -0.649469 -4.63573 0
M  V30 10591 H 980.662 -1.1486 -6.37739 0
M  V30 10592 N 974.068 1.57479 -0.061844 0
M  V30 10593 C 974.978 2.15645 0.923826 0
M  V30 10594 C 975.994 1.117 1.33413 0
M  V30 10595 O 977.17 1.4392 1.40887 0
M  V30 10596 C 974.235 2.69857 2.17665 0
M  V30 10597 C 973.296 3.88638 1.8237 0
M  V30 10598 C 972.529 4.40256 3.01679 0
M  V30 10599 O 972.752 3.90908 4.15388 0
M  V30 10600 O 971.686 5.31713 2.82073 0
M  V30 10601 H 975.512 3.0021 0.459094 0
M  V30 10602 H 973.097 1.48534 0.160665 0
M  V30 10603 H 974.979 3.04647 2.9115 0
M  V30 10604 H 973.654 1.88357 2.63255 0
M  V30 10605 H 972.561 3.58719 1.06167 0
M  V30 10606 H 973.894 4.71401 1.4157 0
M  V30 10607 N 975.546 -0.211634 1.56173 0
M  V30 10608 C 976.478 -1.286 1.89723 0
M  V30 10609 C 977.491 -1.42549 0.786361 0
M  V30 10610 O 978.68 -1.4327 1.06471 0
M  V30 10611 C 975.78 -2.66036 2.09948 0
M  V30 10612 C 974.953 -2.73908 3.41018 0
M  V30 10613 C 974.012 -3.92425 3.50555 0
M  V30 10614 O 973.038 -3.803 4.2351 0
M  V30 10615 N 974.24 -5.07165 2.82426 0
M  V30 10616 H 977.005 -1.00142 2.82474 0
M  V30 10617 H 974.566 -0.401633 1.56839 0
M  V30 10618 H 976.558 -3.43719 2.13634 0
M  V30 10619 H 975.128 -2.87052 1.23774 0
M  V30 10620 H 974.348 -1.82625 3.49345 0
M  V30 10621 H 975.636 -2.76145 4.27342 0
M  V30 10622 H 975.034 -5.19913 2.2295 0
M  V30 10623 H 973.591 -5.82855 2.9176 0
M  V30 10624 N 977.024 -1.50153 -0.478725 0
M  V30 10625 C 977.987 -1.67916 -1.56003 0
M  V30 10626 C 978.987 -0.550111 -1.51097 0
M  V30 10627 O 980.177 -0.817001 -1.53853 0
M  V30 10628 C 977.309 -1.6973 -2.95643 0
M  V30 10629 H 978.502 -2.6438 -1.41573 0
M  V30 10630 H 976.055 -1.39519 -0.704565 0
M  V30 10631 H 976.79 -0.749306 -3.15525 0
M  V30 10632 H 976.575 -2.51745 -3.00611 0
M  V30 10633 H 978.065 -1.85453 -3.74162 0
M  V30 10634 N 978.502 0.731368 -1.39602 0
M  V30 10635 C 979.751 1.48647 -1.36334 0
M  V30 10636 C 980.064 1.95565 0.0367383 0
M  V30 10637 O 981.27 2.7082 0.192017 0
M  V30 10638 C 979.726 2.68616 -2.39528 0
M  V30 10639 C 979.334 2.28632 -3.85268 0
M  V30 10640 C 981.078 3.46422 -2.45341 0
M  V30 10641 C 978.985 3.45345 -4.80095 0
M  V30 10642 H 977.915 0.558218 -0.506861 0
M  V30 10643 H 980.566 0.797467 -1.65266 0
M  V30 10644 H 978.948 3.39609 -2.03671 0
M  V30 10645 H 980.122 1.65162 -4.30184 0
M  V30 10646 H 978.437 1.63909 -3.82783 0
M  V30 10647 H 981.034 4.33241 -3.13379 0
M  V30 10648 H 981.377 3.8914 -1.47904 0
M  V30 10649 H 981.91 2.82461 -2.80108 0
M  V30 10650 H 978.649 3.07674 -5.78807 0
M  V30 10651 H 978.169 4.07784 -4.39855 0
M  V30 10652 H 979.848 4.1163 -4.99169 0
M  V30 10653 N 979.98 1.24838 0.961938 0
M  V30 10654 C 981.208 1.11871 1.74047 0
M  V30 10655 C 981.623 -0.328209 1.85925 0
M  V30 10656 O 980.98 -1.22616 1.35173 0
M  V30 10657 C 981.031 1.75931 3.15801 0
M  V30 10658 O 980.752 3.14967 3.04512 0
M  V30 10659 C 982.253 1.68649 4.09966 0
M  V30 10660 H 979.473 0.390569 0.545616 0
M  V30 10661 H 982.017 1.65058 1.20732 0
M  V30 10662 H 980.172 1.26733 3.66084 0
M  V30 10663 H 980.586 3.46349 3.93882 0
M  V30 10664 H 982.06 2.18144 5.07067 0
M  V30 10665 H 982.537 0.648831 4.34381 0
M  V30 10666 H 983.143 2.17301 3.65596 0
M  V30 10667 N 981.458 -1.16348 1.06306 0
M  V30 10668 C 982.405 -2.20741 0.673962 0
M  V30 10669 C 983.375 -1.628 -0.329454 0
M  V30 10670 O 984.56 -1.89547 -0.218313 0
M  V30 10671 C 981.7 -3.45036 0.0667008 0
M  V30 10672 C 980.813 -4.17221 1.12031 0
M  V30 10673 C 979.948 -5.29034 0.479176 0
M  V30 10674 C 978.987 -5.93021 1.51631 0
M  V30 10675 N 978.124 -6.96327 0.898528 0
M  V30 10676 H 982.964 -2.53376 1.56859 0
M  V30 10677 H 980.501 -1.24449 0.784276 0
M  V30 10678 H 982.459 -4.16099 -0.302916 0
M  V30 10679 H 981.089 -3.1295 -0.791333 0
M  V30 10680 H 980.141 -3.4476 1.60763 0
M  V30 10681 H 981.453 -4.60902 1.90712 0
M  V30 10682 H 980.607 -6.06674 0.0565993 0
M  V30 10683 H 979.346 -4.86517 -0.33951 0
M  V30 10684 H 978.351 -5.14104 1.94878 0
M  V30 10685 H 979.576 -6.37618 2.3371 0
M  V30 10686 H 977.522 -6.55923 0.100555 0
M  V30 10687 H 977.439 -7.38379 1.62272 0
M  V30 10688 H 978.707 -7.77888 0.5011 0
M  V30 10689 N 982.937 -0.845659 -1.3299 0
M  V30 10690 C 983.884 -0.281761 -2.29074 0
M  V30 10691 C 984.854 0.606237 -1.54641 0
M  V30 10692 O 986.039 0.543063 -1.82908 0
M  V30 10693 C 983.179 0.531451 -3.40983 0
M  V30 10694 C 982.292 -0.381328 -4.30314 0
M  V30 10695 C 981.427 0.443643 -5.29344 0
M  V30 10696 C 980.466 -0.467101 -6.10315 0
M  V30 10697 N 979.603 0.320148 -7.0137 0
M  V30 10698 H 984.443 -1.10641 -2.76699 0
M  V30 10699 H 981.98 -0.55706 -1.36144 0
M  V30 10700 H 983.938 1.01848 -4.04577 0
M  V30 10701 H 982.568 1.32101 -2.94532 0
M  V30 10702 H 981.62 -0.986701 -3.6738 0
M  V30 10703 H 982.932 -1.08067 -4.86953 0
M  V30 10704 H 982.086 0.994212 -5.98498 0
M  V30 10705 H 980.825 1.17639 -4.73299 0
M  V30 10706 H 979.83 -1.02963 -5.40073 0
M  V30 10707 H 981.055 -1.19832 -6.68444 0
M  V30 10708 H 979.001 1.03615 -6.47765 0
M  V30 10709 H 978.918 -0.320338 -7.55321 0
M  V30 10710 H 980.186 0.852735 -7.74822 0
M  V30 10711 N 984.415 1.45619 -0.602734 0
M  V30 10712 C 985.64 2.07157 -0.100429 0
M  V30 10713 C 986.065 1.44524 1.20393 0
M  V30 10714 O 985.423 0.536191 1.7319 0
M  V30 10715 C 985.471 3.60587 0.0308604 0
M  V30 10716 O 984.575 3.97944 1.08234 0
M  V30 10717 H 983.916 0.6601 -0.0718643 0
M  V30 10718 H 986.446 1.86948 -0.831366 0
M  V30 10719 H 986.456 4.07348 0.230634 0
M  V30 10720 H 985.131 4.05561 -0.921581 0
M  V30 10721 H 983.708 3.62862 0.859414 0
M  V30 10722 N 985.893 0.34162 1.53853 0
M  V30 10723 C 986.84 -0.516058 2.24957 0
M  V30 10724 C 987.81 -1.09711 1.2471 0
M  V30 10725 O 988.995 -1.13409 1.53438 0
M  V30 10726 C 986.135 -1.66207 3.02439 0
M  V30 10727 C 985.248 -1.10851 4.17536 0
M  V30 10728 C 984.383 -2.22167 4.82509 0
M  V30 10729 C 983.422 -1.64152 5.89678 0
M  V30 10730 N 982.559 -2.69203 6.4844 0
M  V30 10731 H 987.399 0.0968275 2.97843 0
M  V30 10732 H 984.936 0.0595565 1.46979 0
M  V30 10733 H 986.894 -2.33672 3.4562 0
M  V30 10734 H 985.524 -2.24597 2.31853 0
M  V30 10735 H 984.576 -0.324853 3.7901 0
M  V30 10736 H 985.888 -0.644151 4.94623 0
M  V30 10737 H 985.042 -2.97501 5.28751 0
M  V30 10738 H 983.781 -2.71946 4.04842 0
M  V30 10739 H 982.786 -0.873228 5.42821 0
M  V30 10740 H 984.011 -1.15228 6.69253 0
M  V30 10741 H 981.957 -3.1824 5.73637 0
M  V30 10742 H 981.874 -2.27383 7.20994 0
M  V30 10743 H 983.142 -3.44312 6.99335 0
M  V30 10744 N 987.371 -1.57444 0.0701946 0
M  V30 10745 C 988.303 -2.09611 -0.927142 0
M  V30 10746 C 989.316 -1.02791 -1.26245 0
M  V30 10747 O 990.505 -1.30309 -1.21992 0
M  V30 10748 C 987.605 -2.54015 -2.24342 0
M  V30 10749 C 986.778 -3.84389 -2.08719 0
M  V30 10750 C 985.837 -4.14904 -3.23638 0
M  V30 10751 O 984.863 -4.84528 -2.98699 0
M  V30 10752 N 986.065 -3.68322 -4.48686 0
M  V30 10753 H 988.83 -2.95803 -0.481753 0
M  V30 10754 H 986.391 -1.61487 -0.115572 0
M  V30 10755 H 988.383 -2.71492 -3.00124 0
M  V30 10756 H 986.953 -1.72969 -2.60385 0
M  V30 10757 H 986.173 -3.76308 -1.17415 0
M  V30 10758 H 987.461 -4.69729 -1.9553 0
M  V30 10759 H 986.859 -3.12073 -4.71834 0
M  V30 10760 H 985.416 -3.91002 -5.21499 0
M  V30 10761 N 988.849 0.203349 -1.56283 0
M  V30 10762 C 989.759 1.27266 -1.9708 0
M  V30 10763 C 990.775 1.50268 -0.877236 0
M  V30 10764 O 991.951 1.63044 -1.18231 0
M  V30 10765 C 989.016 2.59871 -2.29495 0
M  V30 10766 C 988.077 2.45012 -3.52516 0
M  V30 10767 C 987.31 3.71293 -3.83376 0
M  V30 10768 O 987.533 4.75106 -3.15643 0
M  V30 10769 O 986.467 3.67316 -4.76826 0
M  V30 10770 H 990.293 0.956461 -2.88246 0
M  V30 10771 H 987.878 0.407688 -1.4373 0
M  V30 10772 H 989.76 3.38152 -2.51458 0
M  V30 10773 H 988.435 2.91135 -1.415 0
M  V30 10774 H 987.342 1.6487 -3.35811 0
M  V30 10775 H 988.675 2.18683 -4.40952 0
M  V30 10776 N 990.327 1.50405 0.470755 0
M  V30 10777 C 991.257 1.72222 1.57676 0
M  V30 10778 C 992.238 0.57121 1.60222 0
M  V30 10779 O 993.423 0.810381 1.76484 0
M  V30 10780 C 990.553 1.81666 2.95998 0
M  V30 10781 C 989.507 2.96857 3.08318 0
M  V30 10782 C 988.833 2.91445 4.4829 0
M  V30 10783 C 990.133 4.37361 2.85504 0
M  V30 10784 H 991.827 2.64825 1.39671 0
M  V30 10785 H 989.373 1.27438 0.67049 0
M  V30 10786 H 991.326 1.95514 3.73299 0
M  V30 10787 H 990.05 0.856856 3.1516 0
M  V30 10788 H 988.709 2.82661 2.33449 0
M  V30 10789 H 988.357 1.93309 4.64371 0
M  V30 10790 H 988.057 3.68776 4.57469 0
M  V30 10791 H 989.581 3.07341 5.27611 0
M  V30 10792 H 990.995 4.52081 3.52555 0
M  V30 10793 H 989.392 5.16145 3.06127 0
M  V30 10794 H 990.462 4.49708 1.81359 0
M  V30 10795 N 991.805 -0.723954 1.39988 0
M  V30 10796 C 993.216 -1.30273 1.33738 0
M  V30 10797 C 993.567 -1.96199 0.00690581 0
M  V30 10798 O 992.692 -1.97016 -0.895179 0
M  V30 10799 C 993.287 -2.36889 2.42217 0
M  V30 10800 C 991.846 -2.90412 2.39453 0
M  V30 10801 C 990.993 -1.64103 2.2353 0
M  V30 10802 H 993.944 -0.520672 1.49916 0
M  V30 10803 H 993.965 -3.17538 2.09642 0
M  V30 10804 H 993.477 -1.88878 3.39038 0
M  V30 10805 H 991.578 -3.42674 1.46304 0
M  V30 10806 H 991.691 -3.42775 3.34727 0
M  V30 10807 H 990.055 -1.88855 1.70897 0
M  V30 10808 H 990.838 -1.18128 3.22336 0
M  V30 10809 N 993.283 -1.25346 -0.955304 0
M  V30 10810 C 994.694 -1.09173 -1.51453 0
M  V30 10811 C 995.045 0.332755 -1.93358 0
M  V30 10812 O 994.17 1.22264 -1.78551 0
M  V30 10813 C 994.765 -1.97564 -2.75234 0
M  V30 10814 C 993.324 -1.85579 -3.27471 0
M  V30 10815 C 992.471 -1.91755 -2.00313 0
M  V30 10816 H 995.422 -1.38642 -0.772271 0
M  V30 10817 H 995.443 -1.51523 -3.49029 0
M  V30 10818 H 994.955 -3.01233 -2.44704 0
M  V30 10819 H 993.056 -0.847906 -3.62824 0
M  V30 10820 H 993.169 -2.70353 -3.95533 0
M  V30 10821 H 991.533 -1.35633 -2.15582 0
M  V30 10822 H 992.316 -2.97028 -1.72132 0
M  V30 10823 N 994.761 1.15782 -1.06922 0
M  V30 10824 C 996.172 1.68062 -0.813144 0
M  V30 10825 C 996.523 1.84681 0.662374 0
M  V30 10826 O 995.648 1.54696 1.51321 0
M  V30 10827 C 996.243 3.05273 -1.46949 0
M  V30 10828 C 994.802 3.54647 -1.26104 0
M  V30 10829 C 993.949 2.30477 -1.54194 0
M  V30 10830 H 996.9 1.00056 -1.23185 0
M  V30 10831 H 996.921 3.69986 -0.888308 0
M  V30 10832 H 996.433 2.93145 -2.54337 0
M  V30 10833 H 994.534 3.72024 -0.20718 0
M  V30 10834 H 994.647 4.36354 -1.97819 0
M  V30 10835 H 993.011 2.35803 -0.96276 0
M  V30 10836 H 993.794 2.2094 -2.62755 0
M  V30 10837 N 996.239 0.8527 1.3254 0
M  V30 10838 C 997.65 0.510012 1.79599 0
M  V30 10839 C 998.001 -0.972002 1.70431 0
M  V30 10840 O 997.126 -1.7581 1.26173 0
M  V30 10841 C 997.721 0.918986 3.26098 0
M  V30 10842 C 996.28 0.628227 3.7112 0
M  V30 10843 C 995.427 1.11979 2.53685 0
M  V30 10844 H 998.378 1.04009 1.19866 0
M  V30 10845 H 998.399 0.234577 3.79776 0
M  V30 10846 H 997.911 1.99765 3.32739 0
M  V30 10847 H 996.012 -0.4398 3.69995 0
M  V30 10848 H 996.125 1.19315 4.64005 0
M  V30 10849 H 994.489 0.540133 2.48907 0
M  V30 10850 H 995.272 2.20552 2.63081 0
M  V30 10851 N 997.718 -1.45297 0.610449 0
M  V30 10852 C 999.129 -1.85715 0.191488 0
M  V30 10853 C 999.48 -1.51036 -1.25229 0
M  V30 10854 O 998.605 -0.938422 -1.94994 0
M  V30 10855 C 999.2 -3.37082 0.340747 0
M  V30 10856 C 997.759 -3.76393 -0.0235433 0
M  V30 10857 C 996.906 -2.69237 0.663849 0
M  V30 10858 H 999.857 -1.36058 0.816948 0
M  V30 10859 H 999.878 -3.78105 -0.426233 0
M  V30 10860 H 999.39 -3.62291 1.39164 0
M  V30 10861 H 997.491 -3.56801 -1.07351 0
M  V30 10862 H 997.604 -4.77653 0.372102 0
M  V30 10863 H 995.968 -2.54499 0.101204 0
M  V30 10864 H 996.751 -2.97281 1.71694 0
M  V30 10865 N 999.196 -0.349774 -1.5367 0
M  V30 10866 C 1000.61 0.132815 -1.86227 0
M  V30 10867 C 1000.96 1.49479 -1.27084 0
M  V30 10868 O 1000.08 2.08292 -0.58679 0
M  V30 10869 C 1000.68 0.247775 -3.37893 0
M  V30 10870 C 999.237 0.674603 -3.70305 0
M  V30 10871 C 998.384 -0.187869 -2.76663 0
M  V30 10872 H 1001.33 -0.569148 -1.48143 0
M  V30 10873 H 1001.36 1.07418 -3.65023 0
M  V30 10874 H 1000.87 -0.743635 -3.80909 0
M  V30 10875 H 998.969 1.67481 -3.32837 0
M  V30 10876 H 999.082 0.460177 -4.76885 0
M  V30 10877 H 997.446 0.340779 -2.5241 0
M  V30 10878 H 998.229 -1.17653 -3.2251 0
M  V30 10879 N 1000.67 1.57404 -0.0785433 0
M  V30 10880 C 1001.62 2.13104 0.88631 0
M  V30 10881 C 1002.59 1.04527 1.29086 0
M  V30 10882 O 1003.78 1.32226 1.37553 0
M  V30 10883 C 1000.92 2.70252 2.14611 0
M  V30 10884 C 1000.03 3.93007 1.79358 0
M  V30 10885 C 999.164 4.38376 3 0
M  V30 10886 C 998.203 5.53761 2.60796 0
M  V30 10887 N 997.34 5.94058 3.74219 0
M  V30 10888 H 1002.18 2.95243 0.404452 0
M  V30 10889 H 999.717 1.45894 0.187982 0
M  V30 10890 H 1001.67 3.01497 2.88367 0
M  V30 10891 H 1000.3 1.90868 2.60326 0
M  V30 10892 H 999.357 3.68181 0.956384 0
M  V30 10893 H 1000.67 4.76795 1.4652 0
M  V30 10894 H 999.823 4.71317 3.82027 0
M  V30 10895 H 998.562 3.53455 3.36037 0
M  V30 10896 H 997.567 5.20464 1.77192 0
M  V30 10897 H 998.792 6.40419 2.25922 0
M  V30 10898 H 996.738 5.12085 4.10005 0
M  V30 10899 H 996.655 6.72602 3.45171 0
M  V30 10900 H 997.923 6.31624 4.56805 0
M  V30 10901 N 1002.15 -0.195058 1.56388 0
M  V30 10902 C 1003.1 -1.24175 1.94549 0
M  V30 10903 C 1004.07 -1.45229 0.806089 0
M  V30 10904 O 1005.25 -1.58362 1.06425 0
M  V30 10905 C 1002.39 -2.58145 2.29031 0
M  V30 10906 C 1001.51 -2.44669 3.56035 0
M  V30 10907 C 1000.64 -3.71342 3.7984 0
M  V30 10908 C 999.681 -3.52699 5.0027 0
M  V30 10909 N 998.818 -4.71385 5.20328 0
M  V30 10910 H 1003.66 -0.909319 2.83788 0
M  V30 10911 H 1001.19 -0.437641 1.40439 0
M  V30 10912 H 1003.15 -3.36195 2.4704 0
M  V30 10913 H 1001.78 -2.8943 1.42933 0
M  V30 10914 H 1000.83 -1.57916 3.46073 0
M  V30 10915 H 1002.15 -2.26827 4.44242 0
M  V30 10916 H 1001.3 -4.57832 3.98088 0
M  V30 10917 H 1000.04 -3.92138 2.89964 0
M  V30 10918 H 999.045 -2.64594 4.81944 0
M  V30 10919 H 1000.27 -3.33349 5.91655 0
M  V30 10920 H 998.216 -4.92444 4.33399 0
M  V30 10921 H 998.133 -4.56368 6.02714 0
M  V30 10922 H 999.401 -5.59226 5.43035 0
M  V30 10923 N 1003.63 -1.50653 -0.462772 0
M  V30 10924 C 1005.05 -1.38263 -0.797213 0
M  V30 10925 C 1005.25 -0.445172 -1.96521 0
M  V30 10926 O 1004.3 0.10913 -2.52264 0
M  V30 10927 C 1005.61 -2.798 -1.10146 0
M  V30 10928 C 1007.16 -2.88774 -1.20742 0
M  V30 10929 C 1007.64 -4.31163 -1.54476 0
M  V30 10930 N 1009.13 -4.34152 -1.61451 0
M  V30 10931 C 1009.86 -5.4133 -1.89074 0
M  V30 10932 N 1009.36 -6.58705 -2.1466 0
M  V30 10933 N 1011.15 -5.28783 -1.90645 0
M  V30 10934 H 1003.3 -2.10172 0.30684 0
M  V30 10935 H 1005.57 -0.945046 0.0747862 0
M  V30 10936 H 1005.27 -3.50276 -0.316207 0
M  V30 10937 H 1005.15 -3.17559 -2.03559 0
M  V30 10938 H 1007.53 -2.18512 -1.98334 0
M  V30 10939 H 1007.61 -2.54547 -0.252904 0
M  V30 10940 H 1007.26 -5.01965 -0.774207 0
M  V30 10941 H 1007.19 -4.62883 -2.51092 0
M  V30 10942 H 1009.68 -3.49519 -1.43684 0
M  V30 10943 H 1009.99 -7.36192 -2.35035 0
M  V30 10944 H 1008.34 -6.61866 -2.12035 0
M  V30 10945 H 1011.53 -4.36078 -1.70158 0
M  V30 10946 H 1011.7 -6.12396 -2.11836 0
M  V30 10947 N 1005.11 0.71652 -1.4037 0
M  V30 10948 C 1006.04 1.84138 -1.36477 0
M  V30 10949 C 1007.05 1.6054 -0.27033 0
M  V30 10950 O 1008.24 1.70431 -0.530612 0
M  V30 10951 C 1005.34 3.20523 -1.10082 0
M  V30 10952 C 1004.52 3.71326 -2.31162 0
M  V30 10953 C 1003.57 4.86322 -2.00942 0
M  V30 10954 O 1002.6 4.99022 -2.73799 0
M  V30 10955 N 1003.8 5.72051 -0.986812 0
M  V30 10956 H 1006.57 1.87977 -2.3342 0
M  V30 10957 H 1004.13 0.89802 -1.34712 0
M  V30 10958 H 1006.12 3.95049 -0.878526 0
M  V30 10959 H 1004.69 3.11838 -0.21809 0
M  V30 10960 H 1003.91 2.87941 -2.69227 0
M  V30 10961 H 1005.2 4.02003 -3.11883 0
M  V30 10962 H 1004.6 5.64399 -0.383381 0
M  V30 10963 H 1003.15 6.46565 -0.824419 0
M  V30 10964 N 1006.59 1.25851 0.948643 0
M  V30 10965 C 1007.84 1.10347 1.68838 0
M  V30 10966 C 1008.15 -0.354262 1.92365 0
M  V30 10967 O 1009.35 -0.629847 2.64093 0
M  V30 10968 C 1007.81 1.92659 3.03991 0
M  V30 10969 C 1007.42 3.42962 2.88238 0
M  V30 10970 C 1009.16 1.85743 3.81707 0
M  V30 10971 C 1007.07 4.17547 4.18818 0
M  V30 10972 H 1006 0.409342 0.63321 0
M  V30 10973 H 1008.65 1.50098 1.05559 0
M  V30 10974 H 1007.03 1.45736 3.68208 0
M  V30 10975 H 1008.21 3.97601 2.32917 0
M  V30 10976 H 1006.52 3.51035 2.23972 0
M  V30 10977 H 1009.12 2.38758 4.78434 0
M  V30 10978 H 1009.46 0.826568 4.08012 0
M  V30 10979 H 1009.99 2.30449 3.2425 0
M  V30 10980 H 1006.73 5.21072 3.97699 0
M  V30 10981 H 1006.25 3.6769 4.73882 0
M  V30 10982 H 1007.93 4.25589 4.87322 0
M  V30 10983 N 1008.06 -1.15214 1.07534 0
M  V30 10984 C 1009.01 -2.18022 0.667108 0
M  V30 10985 C 1010 -1.57911 -0.308714 0
M  V30 10986 O 1011.19 -1.76578 -0.122147 0
M  V30 10987 C 1008.32 -3.43232 0.0684348 0
M  V30 10988 C 1007.41 -4.10393 1.06951 0
M  V30 10989 N 1007.8 -4.53013 2.24973 0
M  V30 10990 C 1006.09 -4.36758 0.903262 0
M  V30 10991 C 1006.8 -5.05118 2.88498 0
M  V30 10992 N 1005.77 -4.98777 2.16153 0
M  V30 10993 H 1009.57 -2.48706 1.56597 0
M  V30 10994 H 1007.09 -1.31801 0.948796 0
M  V30 10995 H 1009.08 -4.16197 -0.241934 0
M  V30 10996 H 1007.74 -3.14031 -0.825525 0
M  V30 10997 H 1008.76 -4.4634 2.6268 0
M  V30 10998 H 1005.43 -4.17453 0.0623543 0
M  V30 10999 H 1006.82 -5.48039 3.8872 0
M  V30 11000 N 1009.54 -0.859717 -1.32086 0
M  V30 11001 C 1010.79 -0.466271 -1.97367 0
M  V30 11002 C 1011.12 0.976728 -1.6785 0
M  V30 11003 O 1010.4 1.68618 -0.969449 0
M  V30 11004 C 1010.68 -0.711851 -3.52994 0
M  V30 11005 C 1010.53 -2.20364 -3.92122 0
M  V30 11006 C 1011.85 -0.17156 -4.39765 0
M  V30 11007 H 1008.97 -0.170883 -0.716916 0
M  V30 11008 H 1011.61 -1.07907 -1.56384 0
M  V30 11009 H 1009.76 -0.190258 -3.88034 0
M  V30 11010 H 1011.43 -2.7917 -3.67236 0
M  V30 11011 H 1009.68 -2.68019 -3.41099 0
M  V30 11012 H 1010.35 -2.32615 -5.00594 0
M  V30 11013 H 1012.82 -0.617665 -4.1149 0
M  V30 11014 H 1011.7 -0.372921 -5.47632 0
M  V30 11015 H 1011.96 0.925959 -4.32294 0
M  V30 11016 N 1011.02 1.44971 -0.618145 0
M  V30 11017 C 1012.3 1.95539 -0.0489895 0
M  V30 11018 C 1012.68 1.5604 1.42179 0
M  V30 11019 O 1012.03 0.82809 2.12967 0
M  V30 11020 C 1012.24 3.48044 -0.258193 0
M  V30 11021 C 1013.58 4.24354 -0.144541 0
M  V30 11022 O 1014.61 3.55699 -0.18887 0
M  V30 11023 O 1013.47 5.46486 -0.038519 0
M  V30 11024 H 1010.56 0.826466 0.0297256 0
M  V30 11025 H 1013.11 1.55086 -0.688944 0
M  V30 11026 H 1011.88 3.69798 -1.27926 0
M  V30 11027 H 1011.5 3.95412 0.416522 0
M  V30 11028 N 1012.5 0.357919 1.53482 0
M  V30 11029 C 1013.75 -0.235241 2.00324 0
M  V30 11030 C 1014.06 -1.50494 1.24944 0
M  V30 11031 O 1015.27 -2.17623 1.62335 0
M  V30 11032 C 1013.72 -0.469748 3.56821 0
M  V30 11033 C 1013.33 0.784877 4.41071 0
M  V30 11034 C 1015.07 -1.02098 4.12039 0
M  V30 11035 C 1012.98 0.520377 5.89106 0
M  V30 11036 H 1011.91 -0.0916816 0.748405 0
M  V30 11037 H 1014.56 0.475474 1.77233 0
M  V30 11038 H 1012.94 -1.24153 3.76035 0
M  V30 11039 H 1014.12 1.55886 4.33631 0
M  V30 11040 H 1012.43 1.25878 3.96918 0
M  V30 11041 H 1015.03 -1.23406 5.20264 0
M  V30 11042 H 1015.37 -1.98084 3.66154 0
M  V30 11043 H 1015.91 -0.309554 3.96594 0
M  V30 11044 H 1012.65 1.45035 6.39254 0
M  V30 11045 H 1012.17 -0.215254 5.99414 0
M  V30 11046 H 1013.84 0.143006 6.46842 0
M  V30 11047 N 1013.98 -1.5736 0.0868897 0
M  V30 11048 C 1014.89 -2.17087 -0.889402 0
M  V30 11049 C 1015.9 -1.13809 -1.31619 0
M  V30 11050 O 1017.08 -1.46143 -1.38579 0
M  V30 11051 C 1014.14 -2.73286 -2.13344 0
M  V30 11052 C 1013.2 -3.91491 -1.76164 0
M  V30 11053 C 1012.44 -4.45 -2.94637 0
M  V30 11054 O 1012.66 -3.97467 -4.09116 0
M  V30 11055 O 1011.59 -5.36133 -2.73579 0
M  V30 11056 H 1015.42 -3.00902 -0.411275 0
M  V30 11057 H 1013.01 -1.4877 -0.137015 0
M  V30 11058 H 1014.89 -3.0924 -2.86266 0
M  V30 11059 H 1013.56 -1.92521 -2.60225 0
M  V30 11060 H 1012.47 -3.60363 -1.00447 0
M  V30 11061 H 1013.8 -4.73593 -1.34053 0
M  V30 11062 N 1015.45 0.186762 -1.56489 0
M  V30 11063 C 1016.42 1.21511 -1.94339 0
M  V30 11064 C 1017.42 1.38001 -0.82537 0
M  V30 11065 O 1018.61 1.3567 -1.09266 0
M  V30 11066 C 1015.74 2.583 -2.22472 0
M  V30 11067 H 1016.93 0.891371 -2.86347 0
M  V30 11068 H 1014.49 0.428612 -1.50308 0
M  V30 11069 H 1015.22 2.95715 -1.33129 0
M  V30 11070 H 1015.01 2.47701 -3.03951 0
M  V30 11071 H 1016.5 3.32441 -2.5273 0
M  V30 11072 N 1016.93 1.50896 0.454776 0
M  V30 11073 C 1017.88 1.70947 1.55067 0
M  V30 11074 C 1018.85 0.550899 1.56698 0
M  V30 11075 O 1020.03 0.783352 1.73978 0
M  V30 11076 C 1017.17 1.82455 2.92924 0
M  V30 11077 C 1016.29 3.09919 3.00956 0
M  V30 11078 C 1015.42 3.12125 4.29827 0
M  V30 11079 C 1014.46 4.33975 4.31662 0
M  V30 11080 N 1013.6 4.33828 5.5203 0
M  V30 11081 H 1018.44 2.645 1.37273 0
M  V30 11082 H 1015.98 1.31101 0.667148 0
M  V30 11083 H 1017.93 1.87108 3.72889 0
M  V30 11084 H 1016.56 0.92327 3.09315 0
M  V30 11085 H 1015.62 3.14659 2.13761 0
M  V30 11086 H 1016.93 3.99869 2.98172 0
M  V30 11087 H 1016.08 3.15598 5.18154 0
M  V30 11088 H 1014.82 2.20033 4.35243 0
M  V30 11089 H 1013.83 4.30697 3.41731 0
M  V30 11090 H 1015.05 5.27312 4.27924 0
M  V30 11091 H 1013 3.44598 5.58201 0
M  V30 11092 H 1012.91 5.17566 5.51055 0
M  V30 11093 H 1014.18 4.4147 6.42437 0
M  V30 11094 N 1018.41 -0.709066 1.40748 0
M  V30 11095 C 1019.36 -1.82312 1.4153 0
M  V30 11096 C 1020.33 -1.63868 0.271392 0
M  V30 11097 O 1021.51 -1.8491 0.470431 0
M  V30 11098 C 1018.65 -3.2008 1.29006 0
M  V30 11099 C 1017.77 -3.50051 2.53156 0
M  V30 11100 C 1016.9 -4.7736 2.33025 0
M  V30 11101 C 1015.94 -5.00255 3.52719 0
M  V30 11102 N 1015.08 -6.18782 3.31743 0
M  V30 11103 H 1019.92 -1.80978 2.36751 0
M  V30 11104 H 1017.45 -0.883975 1.17577 0
M  V30 11105 H 1019.41 -3.99645 1.19749 0
M  V30 11106 H 1018.04 -3.20626 0.374014 0
M  V30 11107 H 1017.09 -2.64993 2.72916 0
M  V30 11108 H 1018.41 -3.62877 3.42231 0
M  V30 11109 H 1017.56 -5.64954 2.21159 0
M  V30 11110 H 1016.3 -4.66756 1.41386 0
M  V30 11111 H 1015.3 -4.11114 3.65055 0
M  V30 11112 H 1016.53 -5.12728 4.45295 0
M  V30 11113 H 1014.47 -6.09416 2.42791 0
M  V30 11114 H 1014.39 -6.32313 4.14386 0
M  V30 11115 H 1015.66 -7.09146 3.23623 0
M  V30 11116 N 1019.89 -1.26353 -0.941956 0
M  V30 11117 C 1020.84 -1.07842 -2.04056 0
M  V30 11118 C 1021.81 0.0163064 -1.66092 0
M  V30 11119 O 1022.99 -0.143313 -1.90261 0
M  V30 11120 C 1020.13 -0.716636 -3.37577 0
M  V30 11121 C 1019.24 -1.88754 -3.88582 0
M  V30 11122 C 1018.38 -1.46893 -5.10486 0
M  V30 11123 C 1017.42 -2.60819 -5.53751 0
M  V30 11124 N 1016.56 -2.19646 -6.66858 0
M  V30 11125 H 1021.4 -2.01856 -2.19221 0
M  V30 11126 H 1018.93 -1.00504 -1.07412 0
M  V30 11127 H 1020.89 -0.487768 -4.14339 0
M  V30 11128 H 1019.52 0.18653 -3.22261 0
M  V30 11129 H 1018.57 -2.22936 -3.08227 0
M  V30 11130 H 1019.88 -2.74264 -4.1663 0
M  V30 11131 H 1019.04 -1.20047 -5.94705 0
M  V30 11132 H 1017.78 -0.584721 -4.84182 0
M  V30 11133 H 1016.78 -2.88396 -4.6809 0
M  V30 11134 H 1018.01 -3.49838 -5.82057 0
M  V30 11135 H 1015.95 -1.33657 -6.4224 0
M  V30 11136 H 1015.87 -2.987 -6.94489 0
M  V30 11137 H 1017.14 -1.96009 -7.54454 0
M  V30 11138 N 1021.37 1.14642 -1.08144 0
M  V30 11139 C 1022.61 1.85617 -0.809484 0
M  V30 11140 C 1022.94 1.8279 0.664672 0
M  V30 11141 O 1022.2 1.25178 1.50429 0
M  V30 11142 C 1022.5 3.33953 -1.2732 0
M  V30 11143 C 1022.16 3.56969 -2.7547 0
M  V30 11144 C 1020.82 3.6296 -3.15933 0
M  V30 11145 C 1023.18 3.66014 -3.71057 0
M  V30 11146 C 1020.5 3.75515 -4.50783 0
M  V30 11147 C 1022.86 3.80094 -5.05679 0
M  V30 11148 C 1021.52 3.84333 -5.45751 0
M  V30 11149 H 1020.79 0.67922 -0.296211 0
M  V30 11150 H 1023.44 1.35433 -1.35389 0
M  V30 11151 H 1021.74 3.86399 -0.648329 0
M  V30 11152 H 1023.44 3.87291 -1.03957 0
M  V30 11153 H 1020.03 3.52953 -2.4315 0
M  V30 11154 H 1024.21 3.60679 -3.40917 0
M  V30 11155 H 1019.47 3.77057 -4.81288 0
M  V30 11156 H 1023.64 3.86035 -5.79612 0
M  V30 11157 H 1021.27 3.93814 -6.50242 0
M  V30 11158 N 1022.85 0.866709 1.31628 0
M  V30 11159 C 1024.12 0.396828 1.91532 0
M  V30 11160 C 1024.5 -1.12081 1.78889 0
M  V30 11161 O 1023.85 -1.94791 1.19452 0
M  V30 11162 C 1024.06 0.874578 3.37864 0
M  V30 11163 C 1025.41 0.8988 4.14978 0
M  V30 11164 O 1026.43 0.820014 3.46633 0
M  V30 11165 O 1025.29 1.01223 5.37044 0
M  V30 11166 H 1022.39 0.1181 0.818524 0
M  V30 11167 H 1024.93 0.954407 1.40318 0
M  V30 11168 H 1023.7 1.91807 3.41066 0
M  V30 11169 H 1023.33 0.295126 3.96503 0
M  V30 11170 N 1024.32 -1.44642 0.625825 0
M  V30 11171 C 1025.29 -2.29085 -0.072526 0
M  V30 11172 C 1026.29 -1.40755 -0.777467 0
M  V30 11173 O 1027.48 -1.62684 -0.622861 0
M  V30 11174 C 1024.61 -3.22212 -1.1132 0
M  V30 11175 H 1025.8 -2.92317 0.670124 0
M  V30 11176 H 1023.35 -1.51466 0.38571 0
M  V30 11177 H 1024.09 -2.63819 -1.88601 0
M  V30 11178 H 1023.87 -3.87299 -0.611709 0
M  V30 11179 H 1025.36 -3.8566 -1.60175 0
M  V30 11180 N 1025.8 -0.366053 -1.5329 0
M  V30 11181 C 1027.05 0.224614 -2.00445 0
M  V30 11182 C 1027.36 1.49829 -1.2574 0
M  V30 11183 O 1028.57 2.16759 -1.63487 0
M  V30 11184 C 1027.03 0.450818 -3.57065 0
M  V30 11185 C 1026.63 -0.808257 -4.40649 0
M  V30 11186 C 1028.38 0.999116 -4.12575 0
M  V30 11187 C 1026.28 -0.551612 -5.88822 0
M  V30 11188 H 1025.21 0.0877114 -0.748881 0
M  V30 11189 H 1027.87 -0.484866 -1.76978 0
M  V30 11190 H 1026.25 1.22157 -3.76688 0
M  V30 11191 H 1027.42 -1.58184 -4.32798 0
M  V30 11192 H 1025.74 -1.27981 -3.96245 0
M  V30 11193 H 1028.33 1.20646 -5.20911 0
M  V30 11194 H 1028.68 1.96139 -3.67199 0
M  V30 11195 H 1029.21 0.288518 -3.96752 0
M  V30 11196 H 1025.95 -1.48423 -6.38475 0
M  V30 11197 H 1025.47 0.183462 -5.99519 0
M  V30 11198 H 1027.15 -0.177307 -6.46757 0
M  V30 11199 N 1027.28 1.57312 -0.0952337 0
M  V30 11200 C 1028.5 1.99119 0.580206 0
M  V30 11201 C 1028.93 0.973955 1.60922 0
M  V30 11202 O 1028.29 -0.0575338 1.81209 0
M  V30 11203 C 1028.34 3.39893 1.20438 0
M  V30 11204 O 1027.44 3.40941 2.32019 0
M  V30 11205 H 1026.78 0.64748 0.147195 0
M  V30 11206 H 1029.31 2.03836 -0.176686 0
M  V30 11207 H 1029.32 3.7759 1.54564 0
M  V30 11208 H 1028 4.13453 0.450514 0
M  V30 11209 H 1026.57 3.1504 1.9951 0
M  V30 11210 N 1028.76 -0.17846 1.56586 0
M  V30 11211 C 1029.72 -1.20479 1.94981 0
M  V30 11212 C 1030.72 -1.37561 0.832677 0
M  V30 11213 O 1031.91 -1.35089 1.09984 0
M  V30 11214 C 1029.04 -2.57117 2.23839 0
M  V30 11215 H 1030.24 -0.876173 2.86816 0
M  V30 11216 H 1027.79 -0.420635 1.50534 0
M  V30 11217 H 1028.52 -2.95005 1.34695 0
M  V30 11218 H 1028.31 -2.46086 3.05261 0
M  V30 11219 H 1029.8 -3.31096 2.5449 0
M  V30 11220 N 1030.24 -1.51135 -0.446768 0
M  V30 11221 C 1031.15 -1.74595 -1.56696 0
M  V30 11222 C 1032.16 -0.629816 -1.62201 0
M  V30 11223 O 1033.34 -0.910987 -1.79619 0
M  V30 11224 C 1030.4 -1.85738 -2.9275 0
M  V30 11225 C 1029.46 -3.09564 -2.97437 0
M  V30 11226 C 1028.7 -3.20165 -4.27001 0
M  V30 11227 O 1028.92 -2.36939 -5.1886 0
M  V30 11228 O 1027.85 -4.13077 -4.3778 0
M  V30 11229 H 1031.68 -2.69601 -1.39817 0
M  V30 11230 H 1029.26 -1.35523 -0.628805 0
M  V30 11231 H 1031.15 -1.95107 -3.73512 0
M  V30 11232 H 1029.82 -0.939184 -3.09776 0
M  V30 11233 H 1028.73 -3.05679 -2.15664 0
M  V30 11234 H 1030.06 -4.01041 -2.85353 0
M  V30 11235 N 1031.71 0.701592 -1.41122 0
M  V30 11236 C 1032.64 1.82815 -1.45262 0
M  V30 11237 C 1033.62 1.67215 -0.311939 0
M  V30 11238 O 1034.81 1.87038 -0.522538 0
M  V30 11239 C 1031.94 3.20899 -1.32819 0
M  V30 11240 C 1030.89 3.51194 -2.44636 0
M  V30 11241 C 1030.22 4.8857 -2.17263 0
M  V30 11242 C 1031.52 3.50777 -3.86979 0
M  V30 11243 H 1033.21 1.79608 -2.39544 0
M  V30 11244 H 1030.76 0.862693 -1.15298 0
M  V30 11245 H 1032.71 3.99417 -1.34329 0
M  V30 11246 H 1031.44 3.24717 -0.350191 0
M  V30 11247 H 1030.1 2.75024 -2.42399 0
M  V30 11248 H 1029.74 4.89007 -1.17819 0
M  V30 11249 H 1029.44 5.09805 -2.92186 0
M  V30 11250 H 1030.97 5.69405 -2.20478 0
M  V30 11251 H 1032.38 4.19309 -3.90964 0
M  V30 11252 H 1030.78 3.83542 -4.61536 0
M  V30 11253 H 1031.85 2.49873 -4.15562 0
M  V30 11254 N 1033.19 1.2685 0.935242 0
M  V30 11255 C 1034.12 1.1143 2.05196 0
M  V30 11256 C 1035.1 0.0178362 1.70091 0
M  V30 11257 O 1036.29 0.190951 1.93259 0
M  V30 11258 C 1033.42 0.752779 3.39044 0
M  V30 11259 C 1032.37 1.80164 3.88233 0
M  V30 11260 C 1031.7 1.29428 5.18799 0
M  V30 11261 C 1033 3.20431 4.12457 0
M  V30 11262 H 1034.69 2.04845 2.18355 0
M  V30 11263 H 1032.24 0.986276 1.04922 0
M  V30 11264 H 1034.19 0.631757 4.16637 0
M  V30 11265 H 1032.91 -0.217075 3.25878 0
M  V30 11266 H 1031.57 1.91144 3.12825 0
M  V30 11267 H 1031.22 0.3141 5.02018 0
M  V30 11268 H 1030.92 1.99546 5.5268 0
M  V30 11269 H 1032.45 1.18605 5.9897 0
M  V30 11270 H 1033.86 3.12495 4.80645 0
M  V30 11271 H 1032.26 3.88193 4.57631 0
M  V30 11272 H 1033.33 3.66046 3.18023 0
M  V30 11273 N 1034.67 -1.14067 1.0875 0
M  V30 11274 C 1035.62 -2.21332 0.715195 0
M  V30 11275 C 1036.61 -1.67059 -0.280679 0
M  V30 11276 O 1037.82 -1.79432 -0.142874 0
M  V30 11277 H 1034.19 -0.721126 0.213264 0
M  V30 11278 H 1036.16 -2.50002 1.62916 0
M  V30 11279 C 1034.91 -3.474 0.144401 0
M  V30 11280 H 1034.24 -3.89495 0.901884 0
M  V30 11281 H 1035.68 -4.23928 -0.0782564 0
M  V30 11282 C 1034.14 -3.17787 -1.11862 0
M  V30 11283 O 1034.67 -3.35906 -2.20295 0
M  V30 11284 N 1032.87 -2.71719 -1.03039 0
M  V30 11285 H 1032.42 -2.57175 -0.14793 0
M  V30 11286 H 1032.38 -2.52281 -1.87621 0
M  V30 11287 N 1036.15 -0.873678 -1.31166 0
M  V30 11288 C 1037.39 -0.496513 -1.97247 0
M  V30 11289 C 1037.75 0.941605 -1.67784 0
M  V30 11290 O 1037.04 1.65469 -0.965947 0
M  V30 11291 C 1037.24 -0.69462 -3.50585 0
M  V30 11292 C 1037.07 -2.15044 -3.94951 0
M  V30 11293 C 1035.84 -2.79278 -4.21108 0
M  V30 11294 C 1038.03 -3.1231 -4.08616 0
M  V30 11295 N 1036.02 -4.15574 -4.51853 0
M  V30 11296 C 1037.39 -4.33646 -4.43115 0
M  V30 11297 C 1039.44 -3.08251 -3.91006 0
M  V30 11298 C 1038.14 -5.51447 -4.61842 0
M  V30 11299 C 1040.17 -4.25314 -4.10929 0
M  V30 11300 C 1039.53 -5.45413 -4.45763 0
M  V30 11301 H 1035.63 -0.230797 -0.747166 0
M  V30 11302 H 1038.22 -1.12905 -1.58621 0
M  V30 11303 H 1036.39 -0.0916484 -3.88292 0
M  V30 11304 H 1038.12 -0.285475 -4.03692 0
M  V30 11305 H 1034.87 -2.30207 -4.13886 0
M  V30 11306 H 1035.3 -4.85932 -4.7138 0
M  V30 11307 H 1039.94 -2.16505 -3.6316 0
M  V30 11308 H 1037.66 -6.43707 -4.88535 0
M  V30 11309 H 1041.24 -4.2363 -3.98785 0
M  V30 11310 H 1040.12 -6.34487 -4.60865 0
M  V30 11311 N 1037.63 1.44308 -0.633487 0
M  V30 11312 C 1038.88 2.01239 -0.136356 0
M  V30 11313 C 1039.19 1.50438 1.25011 0
M  V30 11314 O 1040.39 1.99513 1.84138 0
M  V30 11315 C 1038.85 3.59382 -0.193011 0
M  V30 11316 C 1038.46 4.19178 -1.58093 0
M  V30 11317 C 1040.2 4.23778 0.247534 0
M  V30 11318 C 1038.11 5.69553 -1.59258 0
M  V30 11319 H 1037.04 0.752521 -0.0472109 0
M  V30 11320 H 1039.69 1.65498 -0.79263 0
M  V30 11321 H 1038.07 3.92432 0.530408 0
M  V30 11322 H 1039.25 3.97662 -2.32813 0
M  V30 11323 H 1037.56 3.67079 -1.96576 0
M  V30 11324 H 1040.16 5.34075 0.258401 0
M  V30 11325 H 1040.5 3.96285 1.27529 0
M  V30 11326 H 1041.03 3.9554 -0.423469 0
M  V30 11327 H 1037.77 6.01784 -2.59878 0
M  V30 11328 H 1037.29 5.93185 -0.888352 0
M  V30 11329 H 1038.97 6.33234 -1.32756 0
M  V30 11330 N 1039.1 0.374177 1.53094 0
M  V30 11331 C 1040.03 -0.459976 2.28925 0
M  V30 11332 C 1041.02 -1.07656 1.31698 0
M  V30 11333 O 1042.2 -1.09219 1.60577 0
M  V30 11334 C 1039.33 -1.5954 3.08487 0
M  V30 11335 C 1038.28 -1.10563 4.13473 0
M  V30 11336 C 1037.61 -2.33196 4.81169 0
M  V30 11337 C 1038.91 -0.184275 5.21975 0
M  V30 11338 H 1040.6 0.172692 2.98902 0
M  V30 11339 H 1038.15 0.0844956 1.43752 0
M  V30 11340 H 1040.1 -2.18565 3.60288 0
M  V30 11341 H 1038.83 -2.25543 2.36216 0
M  V30 11342 H 1037.49 -0.53801 3.62631 0
M  V30 11343 H 1037.13 -2.97675 4.05461 0
M  V30 11344 H 1036.83 -2.01094 5.52119 0
M  V30 11345 H 1038.36 -2.92892 5.35767 0
M  V30 11346 H 1039.77 -0.682262 5.69226 0
M  V30 11347 H 1038.17 0.0462746 6.00082 0
M  V30 11348 H 1039.24 0.771152 4.78729 0
M  V30 11349 N 1040.58 -1.57259 0.103575 0
M  V30 11350 C 1041.53 -2.14487 -0.852295 0
M  V30 11351 C 1042.5 -1.06567 -1.27407 0
M  V30 11352 O 1043.68 -1.34398 -1.35432 0
M  V30 11353 C 1040.82 -2.73632 -2.10284 0
M  V30 11354 C 1039.94 -3.95811 -1.73083 0
M  V30 11355 C 1039.07 -4.43093 -2.92988 0
M  V30 11356 C 1038.11 -5.5784 -2.51953 0
M  V30 11357 N 1037.25 -5.99936 -3.64721 0
M  V30 11358 H 1042.09 -2.95849 -0.35743 0
M  V30 11359 H 1039.63 -1.46175 -0.164748 0
M  V30 11360 H 1041.58 -3.06046 -2.83534 0
M  V30 11361 H 1040.21 -1.94985 -2.57256 0
M  V30 11362 H 1039.27 -3.69656 -0.897688 0
M  V30 11363 H 1040.58 -4.79066 -1.38916 0
M  V30 11364 H 1039.73 -4.77335 -3.74481 0
M  V30 11365 H 1038.47 -3.58756 -3.30372 0
M  V30 11366 H 1037.48 -5.23217 -1.6889 0
M  V30 11367 H 1038.7 -6.43932 -2.15705 0
M  V30 11368 H 1036.65 -5.18543 -4.01807 0
M  V30 11369 H 1036.56 -6.78008 -3.34427 0
M  V30 11370 H 1037.83 -6.38812 -4.46699 0
M  V30 11371 N 1042.06 0.170153 -1.56679 0
M  V30 11372 C 1043.31 0.883211 -1.83224 0
M  V30 11373 C 1043.66 1.7982 -0.68429 0
M  V30 11374 O 1042.95 1.88922 0.319204 0
M  V30 11375 C 1043.15 1.71402 -3.13618 0
M  V30 11376 C 1042.98 0.880967 -4.40986 0
M  V30 11377 C 1041.75 0.555594 -5.02236 0
M  V30 11378 C 1043.95 0.221986 -5.13821 0
M  V30 11379 N 1041.93 -0.293479 -6.13198 0
M  V30 11380 C 1043.3 -0.488202 -6.18075 0
M  V30 11381 C 1045.35 0.14027 -4.97702 0
M  V30 11382 C 1044.06 -1.27236 -7.07957 0
M  V30 11383 C 1046.08 -0.630556 -5.88029 0
M  V30 11384 C 1045.44 -1.3291 -6.91747 0
M  V30 11385 H 1041.54 0.301769 -0.721429 0
M  V30 11386 H 1044.13 0.150113 -1.9412 0
M  V30 11387 H 1042.3 2.41853 -3.03911 0
M  V30 11388 H 1044.03 2.36847 -3.28155 0
M  V30 11389 H 1040.79 0.885952 -4.6524 0
M  V30 11390 H 1041.21 -0.708359 -6.73284 0
M  V30 11391 H 1045.85 0.665983 -4.17522 0
M  V30 11392 H 1043.57 -1.80941 -7.87582 0
M  V30 11393 H 1047.16 -0.695468 -5.77628 0
M  V30 11394 H 1046.04 -1.916 -7.60433 0
M  V30 11395 N 1043.54 1.5137 0.438746 0
M  V30 11396 C 1044.49 1.72582 1.53245 0
M  V30 11397 C 1045.46 0.567488 1.56105 0
M  V30 11398 O 1046.64 0.80176 1.73137 0
M  V30 11399 C 1043.78 1.85551 2.90972 0
M  V30 11400 C 1042.89 3.13094 2.97652 0
M  V30 11401 C 1042.03 3.16666 4.26493 0
M  V30 11402 C 1041.07 4.38529 4.27035 0
M  V30 11403 N 1040.2 4.39659 5.47398 0
M  V30 11404 H 1045.04 2.65941 1.3446 0
M  V30 11405 H 1042.58 1.31801 0.653206 0
M  V30 11406 H 1044.54 1.91053 3.70884 0
M  V30 11407 H 1043.17 0.956025 3.08318 0
M  V30 11408 H 1042.22 3.16909 2.10412 0
M  V30 11409 H 1043.53 4.03009 2.93914 0
M  V30 11410 H 1042.69 3.21075 5.14777 0
M  V30 11411 H 1041.43 2.24637 4.32885 0
M  V30 11412 H 1040.43 4.34297 3.37144 0
M  V30 11413 H 1041.66 5.31821 4.22307 0
M  V30 11414 H 1039.6 3.50499 5.54514 0
M  V30 11415 H 1039.52 5.23382 5.45534 0
M  V30 11416 H 1040.79 4.48259 6.37718 0
M  V30 11417 N 1045.02 -0.694098 1.41492 0
M  V30 11418 C 1046.24 -1.48286 1.44288 0
M  V30 11419 C 1046.66 -1.88737 0.0485783 0
M  V30 11420 O 1046.02 -1.56881 -0.932449 0
M  V30 11421 C 1046.07 -2.74446 2.3529 0
M  V30 11422 O 1045.79 -2.35698 3.69294 0
M  V30 11423 C 1047.29 -3.68175 2.46905 0
M  V30 11424 H 1044.51 -0.45692 0.491391 0
M  V30 11425 H 1047.05 -0.854477 1.85793 0
M  V30 11426 H 1045.21 -3.33518 1.9709 0
M  V30 11427 H 1045.62 -3.17029 4.17843 0
M  V30 11428 H 1047.1 -4.53476 3.14743 0
M  V30 11429 H 1047.57 -4.12763 1.50078 0
M  V30 11430 H 1048.18 -3.15006 2.85747 0
M  V30 11431 N 1046.49 -1.27344 -0.928501 0
M  V30 11432 C 1047.46 -1.10043 -2.01055 0
M  V30 11433 C 1048.46 -0.0446793 -1.60738 0
M  V30 11434 O 1049.65 -0.289202 -1.71783 0
M  V30 11435 C 1046.78 -0.676559 -3.34119 0
M  V30 11436 H 1047.97 -2.06126 -2.17835 0
M  V30 11437 H 1045.53 -1.10121 -1.10919 0
M  V30 11438 H 1046.26 0.285697 -3.23039 0
M  V30 11439 H 1046.05 -1.43903 -3.64739 0
M  V30 11440 H 1047.54 -0.577725 -4.13584 0
M  V30 11441 N 1047.97 1.13488 -1.09353 0
M  V30 11442 C 1049.22 1.841 -0.82401 0
M  V30 11443 C 1049.53 1.84393 0.652586 0
M  V30 11444 O 1050.74 2.5089 1.03762 0
M  V30 11445 C 1049.2 3.30523 -1.42418 0
M  V30 11446 C 1048.8 3.38621 -2.93326 0
M  V30 11447 C 1050.55 4.06182 -1.23356 0
M  V30 11448 C 1048.46 4.79311 -3.46432 0
M  V30 11449 H 1047.39 0.68974 -0.304589 0
M  V30 11450 H 1050.04 1.27866 -1.31615 0
M  V30 11451 H 1048.42 3.86555 -0.859727 0
M  V30 11452 H 1049.59 2.92587 -3.5599 0
M  V30 11453 H 1047.91 2.76426 -3.11412 0
M  V30 11454 H 1050.5 5.10047 -1.60488 0
M  V30 11455 H 1050.85 4.15936 -0.174152 0
M  V30 11456 H 1051.38 3.56477 -1.76547 0
M  V30 11457 H 1048.12 4.74748 -4.5199 0
M  V30 11458 H 1047.64 5.25842 -2.8853 0
M  V30 11459 H 1049.32 5.48227 -3.43593 0
M  V30 11460 N 1049.45 0.880621 1.30701 0
M  V30 11461 C 1050.38 0.301443 2.27209 0
M  V30 11462 C 1051.4 -0.541533 1.53529 0
M  V30 11463 O 1052.59 -0.361791 1.74795 0
M  V30 11464 C 1049.69 -0.59038 3.33718 0
M  V30 11465 C 1048.86 0.222549 4.36833 0
M  V30 11466 C 1047.92 -0.599083 5.22779 0
M  V30 11467 O 1046.94 -0.0233267 5.69195 0
M  V30 11468 N 1048.15 -1.90904 5.48211 0
M  V30 11469 H 1050.91 1.13083 2.77547 0
M  V30 11470 H 1048.47 0.743168 1.43835 0
M  V30 11471 H 1050.46 -1.14599 3.88135 0
M  V30 11472 H 1049.03 -1.32044 2.83343 0
M  V30 11473 H 1048.25 0.959606 3.82342 0
M  V30 11474 H 1049.54 0.779965 5.02786 0
M  V30 11475 H 1048.94 -2.3998 5.12275 0
M  V30 11476 H 1047.5 -2.4122 6.05521 0
M  V30 11477 N 1050.93 -1.4397 0.641131 0
M  V30 11478 C 1052.16 -2.06303 0.157006 0
M  V30 11479 C 1052.57 -1.47981 -1.17248 0
M  V30 11480 O 1051.93 -0.606471 -1.72128 0
M  V30 11481 C 1051.98 -3.6147 0.0468425 0
M  V30 11482 O 1051.7 -4.17622 1.32376 0
M  V30 11483 C 1053.2 -4.40857 -0.464795 0
M  V30 11484 H 1050.42 -0.665684 0.0842946 0
M  V30 11485 H 1052.97 -1.84675 0.878363 0
M  V30 11486 H 1051.12 -3.82325 -0.625006 0
M  V30 11487 H 1051.54 -5.11167 1.17509 0
M  V30 11488 H 1053.01 -5.49813 -0.490862 0
M  V30 11489 H 1053.49 -4.13016 -1.4938 0
M  V30 11490 H 1054.09 -4.24943 0.174146 0
M  V30 11491 N 1052.41 -0.382291 -1.52893 0
M  V30 11492 C 1053.64 0.202408 -2.05908 0
M  V30 11493 C 1054.05 1.4109 -1.25456 0
M  V30 11494 O 1053.41 1.80027 -0.29942 0
M  V30 11495 C 1053.46 0.579452 -3.56826 0
M  V30 11496 O 1053.18 -0.58102 -4.3423 0
M  V30 11497 C 1054.68 1.22076 -4.2616 0
M  V30 11498 H 1051.9 0.0321859 -0.670228 0
M  V30 11499 H 1054.44 -0.545494 -1.9709 0
M  V30 11500 H 1052.6 1.27726 -3.65739 0
M  V30 11501 H 1053.01 -0.272693 -5.23791 0
M  V30 11502 H 1054.49 1.435 -5.33021 0
M  V30 11503 H 1054.96 2.18605 -3.80931 0
M  V30 11504 H 1055.57 0.563922 -4.21545 0
M  V30 11505 N 1053.89 1.57202 -0.111913 0
M  V30 11506 C 1054.8 2.18475 0.854753 0
M  V30 11507 C 1055.81 1.15888 1.29792 0
M  V30 11508 O 1056.99 1.48329 1.36237 0
M  V30 11509 C 1054.05 2.76645 2.0897 0
M  V30 11510 C 1053.11 3.94244 1.69913 0
M  V30 11511 C 1052.35 4.49631 2.8752 0
M  V30 11512 O 1052.57 4.03926 4.02741 0
M  V30 11513 O 1051.5 5.40417 2.65015 0
M  V30 11514 H 1055.33 3.01519 0.363352 0
M  V30 11515 H 1052.91 1.4897 0.113329 0
M  V30 11516 H 1054.8 3.13755 2.81311 0
M  V30 11517 H 1053.47 1.96637 2.5713 0
M  V30 11518 H 1052.38 3.61915 0.947013 0
M  V30 11519 H 1053.71 4.75666 1.26501 0
M  V30 11520 N 1055.36 -0.161842 1.56767 0
M  V30 11521 C 1056.61 -0.875278 1.81719 0
M  V30 11522 C 1056.93 -1.82998 0.690739 0
M  V30 11523 O 1058.13 -2.58648 0.82545 0
M  V30 11524 C 1056.59 -1.60703 3.22029 0
M  V30 11525 C 1056.2 -0.695486 4.42569 0
M  V30 11526 C 1057.94 -2.30813 3.56266 0
M  V30 11527 C 1055.85 -1.42801 5.73901 0
M  V30 11528 H 1054.78 -0.330591 0.677662 0
M  V30 11529 H 1057.43 -0.128112 1.83052 0
M  V30 11530 H 1055.81 -2.39929 3.1504 0
M  V30 11531 H 1056.98 0.0604882 4.6076 0
M  V30 11532 H 1055.3 -0.10356 4.16271 0
M  V30 11533 H 1057.9 -2.86229 4.51638 0
M  V30 11534 H 1058.24 -3.06603 2.81604 0
M  V30 11535 H 1058.77 -1.5852 3.64851 0
M  V30 11536 H 1055.51 -0.712253 6.51619 0
M  V30 11537 H 1055.03 -2.15707 5.5967 0
M  V30 11538 H 1056.71 -1.97295 6.16185 0
M  V30 11539 N 1056.84 -1.516 -0.430713 0
M  V30 11540 C 1057.79 -1.73392 -1.52328 0
M  V30 11541 C 1058.76 -0.575758 -1.55802 0
M  V30 11542 O 1059.94 -0.810931 -1.72709 0
M  V30 11543 C 1057.08 -1.87092 -2.89984 0
M  V30 11544 C 1056.2 -3.14668 -2.95987 0
M  V30 11545 C 1055.33 -3.18923 -4.24807 0
M  V30 11546 C 1054.37 -4.40787 -4.24703 0
M  V30 11547 N 1053.51 -4.42556 -5.45059 0
M  V30 11548 H 1058.35 -2.6665 -1.33048 0
M  V30 11549 H 1055.88 -1.32146 -0.646207 0
M  V30 11550 H 1057.84 -1.93017 -3.69865 0
M  V30 11551 H 1056.47 -0.972363 -3.07807 0
M  V30 11552 H 1055.52 -3.1802 -2.08728 0
M  V30 11553 H 1056.84 -4.04562 -2.91772 0
M  V30 11554 H 1055.99 -3.23801 -5.13067 0
M  V30 11555 H 1054.73 -2.2693 -4.31688 0
M  V30 11556 H 1053.73 -4.36079 -3.34836 0
M  V30 11557 H 1054.96 -5.34053 -4.19481 0
M  V30 11558 H 1052.91 -3.53435 -5.52648 0
M  V30 11559 H 1052.82 -5.26267 -5.42751 0
M  V30 11560 H 1054.09 -4.51634 -6.35332 0
M  V30 11561 N 1058.32 0.686584 -1.41858 0
M  V30 11562 C 1059.23 1.83002 -1.46791 0
M  V30 11563 C 1060.25 1.70284 -0.357675 0
M  V30 11564 O 1061.42 1.92042 -0.606781 0
M  V30 11565 C 1058.49 3.19056 -1.35661 0
M  V30 11566 C 1057.55 3.43817 -2.57077 0
M  V30 11567 C 1056.78 4.7338 -2.46469 0
M  V30 11568 O 1057 5.50483 -1.49413 0
M  V30 11569 O 1055.94 4.99124 -3.36391 0
M  V30 11570 H 1059.76 1.81797 -2.43277 0
M  V30 11571 H 1057.35 0.840812 -1.23494 0
M  V30 11572 H 1059.23 4.00267 -1.31773 0
M  V30 11573 H 1057.91 3.20925 -0.422951 0
M  V30 11574 H 1056.81 2.625 -2.66541 0
M  V30 11575 H 1058.15 3.4677 -3.49302 0
M  V30 11576 N 1059.8 1.27835 0.921735 0
M  V30 11577 C 1061.03 1.17182 1.70153 0
M  V30 11578 C 1061.44 -0.273207 1.87217 0
M  V30 11579 O 1060.78 -1.19729 1.39322 0
M  V30 11580 C 1060.84 1.78969 3.11786 0
M  V30 11581 C 1060.5 3.28179 3.18037 0
M  V30 11582 C 1061.5 4.24729 2.99835 0
M  V30 11583 C 1059.19 3.68995 3.40805 0
M  V30 11584 C 1061.18 5.60071 3.04301 0
M  V30 11585 C 1058.87 5.04465 3.44904 0
M  V30 11586 C 1059.87 5.99813 3.2667 0
M  V30 11587 O 1059.55 7.32813 3.30515 0
M  V30 11588 H 1059.29 0.408079 0.538932 0
M  V30 11589 H 1061.84 1.69326 1.16266 0
M  V30 11590 H 1060.07 1.2131 3.6718 0
M  V30 11591 H 1061.76 1.62946 3.71757 0
M  V30 11592 H 1062.52 3.94533 2.8208 0
M  V30 11593 H 1058.4 2.9525 3.54045 0
M  V30 11594 H 1061.95 6.34471 2.89987 0
M  V30 11595 H 1057.84 5.34315 3.62185 0
M  V30 11596 H 1058.61 7.41338 3.4693 0
M  V30 11597 N 1061.28 -1.12907 1.09954 0
M  V30 11598 C 1062.21 -2.17589 0.687769 0
M  V30 11599 C 1063.19 -1.59648 -0.308444 0
M  V30 11600 O 1064.37 -1.87343 -0.208527 0
M  V30 11601 C 1061.5 -3.38697 0.0140519 0
M  V30 11602 C 1060.54 -4.15254 0.972942 0
M  V30 11603 S 1061.38 -4.74205 2.48777 0
M  V30 11604 C 1062.53 -5.98653 1.82662 0
M  V30 11605 H 1062.77 -2.52181 1.57455 0
M  V30 11606 H 1060.3 -1.24289 0.916051 0
M  V30 11607 H 1062.26 -4.08844 -0.368343 0
M  V30 11608 H 1060.92 -3.02396 -0.849456 0
M  V30 11609 H 1060.11 -5.01999 0.448715 0
M  V30 11610 H 1059.71 -3.5079 1.297 0
M  V30 11611 H 1062 -6.67602 1.15388 0
M  V30 11612 H 1062.95 -6.55693 2.67343 0
M  V30 11613 H 1063.36 -5.49486 1.29325 0
M  V30 11614 N 1062.75 -0.88754 -1.30232 0
M  V30 11615 C 1063.7 -0.354497 -2.28061 0
M  V30 11616 C 1064.67 0.556732 -1.56492 0
M  V30 11617 O 1065.86 0.484597 -1.84543 0
M  V30 11618 C 1063 0.422701 -3.42501 0
M  V30 11619 C 1062.11 -0.518036 -4.28883 0
M  V30 11620 C 1061.24 0.275011 -5.30488 0
M  V30 11621 C 1060.28 -0.661032 -6.0852 0
M  V30 11622 N 1059.42 0.0968509 -7.02033 0
M  V30 11623 H 1064.26 -1.19388 -2.73039 0
M  V30 11624 H 1061.8 -0.600091 -1.34303 0
M  V30 11625 H 1063.75 0.889249 -4.07613 0
M  V30 11626 H 1062.38 1.22664 -2.98586 0
M  V30 11627 H 1061.44 -1.10308 -3.64055 0
M  V30 11628 H 1062.75 -1.23504 -4.83268 0
M  V30 11629 H 1061.9 0.803301 -6.01358 0
M  V30 11630 H 1060.64 1.02522 -4.76802 0
M  V30 11631 H 1059.65 -1.20093 -5.36524 0
M  V30 11632 H 1060.87 -1.41037 -6.64293 0
M  V30 11633 H 1058.82 0.829548 -6.50734 0
M  V30 11634 H 1058.73 -0.560476 -7.5392 0
M  V30 11635 H 1060 0.6058 -7.77142 0
M  V30 11636 N 1064.23 1.43628 -0.648757 0
M  V30 11637 C 1065.17 2.28001 0.0952198 0
M  V30 11638 C 1066.14 1.39569 0.834225 0
M  V30 11639 O 1067.33 1.69011 0.834711 0
M  V30 11640 C 1064.45 3.18886 1.14145 0
M  V30 11641 C 1063.5 4.23547 0.500996 0
M  V30 11642 S 1064.33 5.30609 -0.722118 0
M  V30 11643 C 1065.49 6.25062 0.323687 0
M  V30 11644 H 1065.72 2.90752 -0.620511 0
M  V30 11645 H 1063.26 1.48073 -0.437457 0
M  V30 11646 H 1065.21 3.71795 1.74008 0
M  V30 11647 H 1063.87 2.55322 1.82947 0
M  V30 11648 H 1063.07 4.87224 1.28954 0
M  V30 11649 H 1062.67 3.73993 -0.0234176 0
M  V30 11650 H 1064.96 6.66946 1.19118 0
M  V30 11651 H 1065.9 7.07554 -0.277939 0
M  V30 11652 H 1066.31 5.60658 0.657493 0
M  V30 11653 N 1065.71 0.390394 1.52688 0
M  V30 11654 C 1066.64 -0.479319 2.24132 0
M  V30 11655 C 1067.66 -1.0258 1.26416 0
M  V30 11656 O 1068.84 -0.927943 1.52484 0
M  V30 11657 C 1065.94 -1.67711 2.94493 0
M  V30 11658 C 1065.12 -1.2578 4.18925 0
M  V30 11659 C 1064.18 -2.3204 4.72275 0
M  V30 11660 O 1063.2 -1.93402 5.35336 0
M  V30 11661 N 1064.4 -3.63967 4.52226 0
M  V30 11662 H 1067.17 0.132777 2.99406 0
M  V30 11663 H 1064.73 0.216807 1.60442 0
M  V30 11664 H 1066.72 -2.38323 3.27084 0
M  V30 11665 H 1065.29 -2.19552 2.22521 0
M  V30 11666 H 1064.51 -0.380528 3.92359 0
M  V30 11667 H 1065.8 -0.954329 4.9977 0
M  V30 11668 H 1065.2 -3.98119 4.01892 0
M  V30 11669 H 1063.76 -4.30611 4.89303 0
M  V30 11670 N 1067.19 -1.57141 0.120249 0
M  V30 11671 C 1068.47 -1.8677 -0.581075 0
M  V30 11672 C 1068.85 -1.02163 -1.84732 0
M  V30 11673 O 1068.19 -0.100897 -2.28277 0
M  V30 11674 C 1068.4 -3.37923 -0.872316 0
M  V30 11675 C 1069.75 -4.0655 -1.22483 0
M  V30 11676 O 1070.78 -3.42948 -0.962539 0
M  V30 11677 O 1069.63 -5.18821 -1.71717 0
M  V30 11678 H 1066.73 -0.773219 -0.293362 0
M  V30 11679 H 1069.27 -1.68992 0.154846 0
M  V30 11680 H 1068.05 -3.91292 0.0249416 0
M  V30 11681 H 1067.67 -3.61135 -1.66335 0
M  V30 11682 N 1068.67 0.153526 -1.5685 0
M  V30 11683 C 1069.89 0.882335 -1.87143 0
M  V30 11684 C 1070.31 1.75034 -0.707702 0
M  V30 11685 O 1069.67 1.79624 0.32273 0
M  V30 11686 C 1069.72 1.74444 -3.16625 0
M  V30 11687 O 1069.44 0.911419 -4.28515 0
M  V30 11688 C 1070.94 2.58139 -3.60388 0
M  V30 11689 H 1068.16 0.25546 -0.620469 0
M  V30 11690 H 1070.7 0.148275 -2.03962 0
M  V30 11691 H 1068.86 2.43163 -3.0158 0
M  V30 11692 H 1069.27 1.50268 -5.02513 0
M  V30 11693 H 1070.75 3.14215 -4.53842 0
M  V30 11694 H 1071.22 3.33865 -2.85361 0
M  V30 11695 H 1071.83 1.94721 -3.78105 0
M  V30 11696 N 1070.14 1.51827 0.422667 0
M  V30 11697 C 1071.37 1.69337 1.19748 0
M  V30 11698 C 1071.79 0.396312 1.83878 0
M  V30 11699 O 1071.15 -0.644976 1.6944 0
M  V30 11700 C 1071.2 2.82082 2.24637 0
M  V30 11701 O 1070.3 2.46708 3.30468 0
M  V30 11702 H 1069.65 0.564154 0.35018 0
M  V30 11703 H 1072.18 1.98465 0.497289 0
M  V30 11704 H 1072.19 3.06599 2.69186 0
M  V30 11705 H 1070.86 3.76195 1.77341 0
M  V30 11706 H 1069.44 2.32815 2.91293 0
M  V30 11707 N 1071.62 -0.679052 1.4222 0
M  V30 11708 C 1072.53 -1.82221 1.47759 0
M  V30 11709 C 1073.55 -1.70092 0.3667 0
M  V30 11710 O 1074.72 -1.91718 0.616957 0
M  V30 11711 C 1071.79 -3.18332 1.37351 0
M  V30 11712 C 1070.85 -3.42449 2.58896 0
M  V30 11713 C 1070.08 -4.72067 2.48976 0
M  V30 11714 O 1070.31 -5.49683 1.5233 0
M  V30 11715 O 1069.24 -4.97333 3.39033 0
M  V30 11716 H 1073.07 -1.80504 2.44238 0
M  V30 11717 H 1070.65 -0.834251 1.23938 0
M  V30 11718 H 1072.53 -3.99563 1.33893 0
M  V30 11719 H 1071.21 -3.20696 0.439965 0
M  V30 11720 H 1070.12 -2.61083 2.6793 0
M  V30 11721 H 1071.45 -3.44912 3.51136 0
M  V30 11722 N 1073.1 -1.28322 -0.914942 0
M  V30 11723 C 1074.03 -1.06469 -2.01841 0
M  V30 11724 C 1075.01 0.0188681 -1.62589 0
M  V30 11725 O 1076.2 -0.128825 -1.88059 0
M  V30 11726 C 1073.32 -0.617685 -3.3302 0
M  V30 11727 C 1072.37 -1.6977 -3.91255 0
M  V30 11728 S 1073.2 -3.29337 -4.22253 0
M  V30 11729 C 1074.36 -2.86468 -5.56495 0
M  V30 11730 H 1074.59 -1.99893 -2.20068 0
M  V30 11731 H 1072.12 -1.12297 -1.05966 0
M  V30 11732 H 1074.08 -0.366481 -4.08861 0
M  V30 11733 H 1072.74 0.296709 -3.12695 0
M  V30 11734 H 1071.94 -1.33653 -4.85956 0
M  V30 11735 H 1071.54 -1.90164 -3.22046 0
M  V30 11736 H 1073.83 -2.32565 -6.36333 0
M  V30 11737 H 1074.77 -3.79962 -5.97523 0
M  V30 11738 H 1075.18 -2.2522 -5.17626 0
M  V30 11739 N 1074.58 1.12322 -1.10551 0
M  V30 11740 C 1075.53 2.18087 -0.755424 0
M  V30 11741 C 1076.5 1.6391 0.268805 0
M  V30 11742 O 1077.68 1.90227 0.147813 0
M  V30 11743 C 1074.82 3.4455 -0.194713 0
M  V30 11744 C 1073.93 4.12775 -1.27439 0
M  V30 11745 C 1073.07 5.26891 -0.675194 0
M  V30 11746 C 1072.11 5.86985 -1.73536 0
M  V30 11747 N 1071.24 6.92512 -1.15635 0
M  V30 11748 H 1076.08 2.47379 -1.66155 0
M  V30 11749 H 1073.62 1.21452 -0.829924 0
M  V30 11750 H 1075.58 4.16936 0.148275 0
M  V30 11751 H 1074.21 3.15671 0.674638 0
M  V30 11752 H 1073.26 3.38556 -1.73448 0
M  V30 11753 H 1074.57 4.53506 -2.07687 0
M  V30 11754 H 1073.73 6.06046 -0.281723 0
M  V30 11755 H 1072.47 4.87442 0.158708 0
M  V30 11756 H 1071.47 5.06517 -2.13825 0
M  V30 11757 H 1072.7 6.28505 -2.57213 0
M  V30 11758 H 1070.64 6.55098 -0.343928 0
M  V30 11759 H 1070.56 7.31848 -1.89565 0
M  V30 11760 H 1071.83 7.75492 -0.789463 0
M  V30 11761 N 1076.06 0.894434 1.2976 0
M  V30 11762 C 1077 0.366586 2.2787 0
M  V30 11763 C 1077.97 -0.548425 1.56785 0
M  V30 11764 O 1079.16 -0.474804 1.84798 0
M  V30 11765 C 1076.3 -0.404531 3.42721 0
M  V30 11766 C 1075.41 0.540774 4.28602 0
M  V30 11767 C 1074.55 -0.246875 5.30626 0
M  V30 11768 C 1073.59 0.693294 6.08161 0
M  V30 11769 N 1072.72 -0.059619 7.02075 0
M  V30 11770 H 1077.56 1.20834 2.72402 0
M  V30 11771 H 1075.1 0.607205 1.33983 0
M  V30 11772 H 1077.06 -0.86762 4.08079 0
M  V30 11773 H 1075.69 -1.21078 2.99232 0
M  V30 11774 H 1074.74 1.12237 3.63465 0
M  V30 11775 H 1076.05 1.26065 4.82606 0
M  V30 11776 H 1075.21 -0.771398 6.01776 0
M  V30 11777 H 1073.94 -0.999918 4.77339 0
M  V30 11778 H 1072.95 1.22936 5.35879 0
M  V30 11779 H 1074.17 1.44558 6.63536 0
M  V30 11780 H 1072.12 -0.795026 6.51165 0
M  V30 11781 H 1072.04 0.60045 7.53612 0
M  V30 11782 H 1073.31 -0.564577 7.77453 0
M  V30 11783 N 1077.53 -1.43282 0.656365 0
M  V30 11784 C 1078.48 -2.30776 -0.0333155 0
M  V30 11785 C 1079.45 -1.44928 -0.811493 0
M  V30 11786 O 1080.64 -1.73792 -0.787465 0
M  V30 11787 C 1077.78 -3.30548 -0.991566 0
M  V30 11788 C 1076.89 -4.31493 -0.209159 0
M  V30 11789 C 1076.02 -5.18346 -1.16149 0
M  V30 11790 C 1075.06 -6.10983 -0.369699 0
M  V30 11791 N 1074.2 -6.90449 -1.27378 0
M  V30 11792 H 1079.04 -2.89204 0.718668 0
M  V30 11793 H 1076.58 -1.4247 0.366161 0
M  V30 11794 H 1078.54 -3.86905 -1.56078 0
M  V30 11795 H 1077.17 -2.73762 -1.71039 0
M  V30 11796 H 1076.22 -3.77405 0.476394 0
M  V30 11797 H 1077.53 -4.97142 0.406394 0
M  V30 11798 H 1076.68 -5.79345 -1.80124 0
M  V30 11799 H 1075.42 -4.52831 -1.81095 0
M  V30 11800 H 1074.43 -5.49069 0.283377 0
M  V30 11801 H 1075.65 -6.78541 0.275399 0
M  V30 11802 H 1073.6 -6.27579 -1.90999 0
M  V30 11803 H 1073.52 -7.52631 -0.71287 0
M  V30 11804 H 1074.78 -7.5595 -1.90158 0
M  V30 11805 N 1079.01 -0.398486 -1.52479 0
M  V30 11806 C 1079.94 0.423498 -2.29627 0
M  V30 11807 C 1080.92 1.05547 -1.33394 0
M  V30 11808 O 1082.11 1.0665 -1.62294 0
M  V30 11809 C 1079.24 1.54612 -3.10986 0
M  V30 11810 C 1078.19 1.03971 -4.15179 0
M  V30 11811 C 1077.52 2.25512 -4.84818 0
M  V30 11812 C 1078.82 0.10121 -5.22202 0
M  V30 11813 H 1080.51 -0.220222 -2.98589 0
M  V30 11814 H 1078.06 -0.107355 -1.43599 0
M  V30 11815 H 1080.01 2.12806 -3.63719 0
M  V30 11816 H 1078.74 2.21756 -2.39774 0
M  V30 11817 H 1077.4 0.480251 -3.63441 0
M  V30 11818 H 1077.04 2.91187 -4.10145 0
M  V30 11819 H 1076.74 1.92285 -5.55248 0
M  V30 11820 H 1078.27 2.84331 -5.40359 0
M  V30 11821 H 1079.68 0.591617 -5.70239 0
M  V30 11822 H 1078.08 -0.141737 -5.99933 0
M  V30 11823 H 1079.15 -0.847216 -4.77441 0
M  V30 11824 N 1080.49 1.57075 -0.12858 0
M  V30 11825 C 1081.44 2.15816 0.818064 0
M  V30 11826 C 1082.41 1.08581 1.25696 0
M  V30 11827 O 1083.59 1.36535 1.33277 0
M  V30 11828 C 1080.73 2.76943 2.05905 0
M  V30 11829 C 1079.85 3.98514 1.66764 0
M  V30 11830 C 1078.98 4.47698 2.85902 0
M  V30 11831 C 1078.02 5.61778 2.43047 0
M  V30 11832 N 1077.16 6.05662 3.5513 0
M  V30 11833 H 1082 2.9638 0.310318 0
M  V30 11834 H 1079.53 1.46418 0.141472 0
M  V30 11835 H 1081.49 3.10519 2.78629 0
M  V30 11836 H 1080.12 1.99053 2.54122 0
M  V30 11837 H 1079.17 3.71038 0.838766 0
M  V30 11838 H 1080.49 4.81215 1.31277 0
M  V30 11839 H 1079.64 4.83233 3.66839 0
M  V30 11840 H 1078.38 3.63967 3.24622 0
M  V30 11841 H 1077.38 5.25838 1.60544 0
M  V30 11842 H 1078.61 6.47282 2.05433 0
M  V30 11843 H 1076.56 5.2487 3.93506 0
M  V30 11844 H 1076.47 6.83242 3.23598 0
M  V30 11845 H 1077.74 6.45838 4.36479 0
M  V30 11846 N 1081.97 -0.145205 1.5693 0
M  V30 11847 C 1082.93 -1.16316 1.97492 0
M  V30 11848 C 1083.93 -1.35764 0.861668 0
M  V30 11849 O 1085.12 -1.32726 1.12825 0
M  V30 11850 C 1082.25 -2.52311 2.29242 0
M  V30 11851 H 1083.45 -0.815138 2.8861 0
M  V30 11852 H 1081 -0.38861 1.51392 0
M  V30 11853 H 1081.74 -2.92081 1.40922 0
M  V30 11854 H 1081.52 -2.39555 3.10412 0
M  V30 11855 H 1083.01 -3.25624 2.61456 0
M  V30 11856 N 1083.45 -1.52049 -0.414609 0
M  V30 11857 C 1084.38 -1.77956 -1.51175 0
M  V30 11858 C 1085.36 -0.630282 -1.57992 0
M  V30 11859 O 1086.54 -0.875324 -1.73354 0
M  V30 11860 C 1083.67 -1.92527 -2.89051 0
M  V30 11861 C 1082.63 -3.08096 -2.97087 0
M  V30 11862 C 1081.95 -3.07882 -4.37164 0
M  V30 11863 C 1083.25 -4.47656 -2.69075 0
M  V30 11864 H 1084.95 -2.69827 -1.29746 0
M  V30 11865 H 1082.49 -1.29839 -0.62273 0
M  V30 11866 H 1084.45 -2.09234 -3.65786 0
M  V30 11867 H 1083.17 -0.973235 -3.11762 0
M  V30 11868 H 1081.83 -2.91131 -2.22797 0
M  V30 11869 H 1081.48 -2.10411 -4.56877 0
M  V30 11870 H 1081.18 -3.85501 -4.43467 0
M  V30 11871 H 1082.7 -3.26712 -5.15841 0
M  V30 11872 H 1084.12 -4.64855 -3.35534 0
M  V30 11873 H 1082.51 -5.27151 -2.8676 0
M  V30 11874 H 1083.58 -4.56129 -1.64544 0
M  V30 11875 N 1084.93 0.6715 -1.42579 0
M  V30 11876 C 1085.84 1.81435 -1.48723 0
M  V30 11877 C 1086.85 1.69895 -0.375716 0
M  V30 11878 O 1088.03 1.91388 -0.627115 0
M  V30 11879 C 1085.09 3.17599 -1.39038 0
M  V30 11880 C 1084.15 3.41071 -2.60709 0
M  V30 11881 C 1083.39 4.7074 -2.51476 0
M  V30 11882 O 1083.61 5.48868 -1.55243 0
M  V30 11883 O 1082.54 4.95528 -3.41666 0
M  V30 11884 H 1086.37 1.79206 -2.45191 0
M  V30 11885 H 1083.95 0.827666 -1.24379 0
M  V30 11886 H 1085.84 3.98847 -1.3601 0
M  V30 11887 H 1084.51 3.20458 -0.456966 0
M  V30 11888 H 1083.42 2.59659 -2.69311 0
M  V30 11889 H 1084.75 3.43045 -3.5296 0
M  V30 11890 N 1086.4 1.28806 0.908124 0
M  V30 11891 C 1087.35 1.13215 2.01125 0
M  V30 11892 C 1088.32 0.0277357 1.66077 0
M  V30 11893 O 1089.51 0.193707 1.89814 0
M  V30 11894 C 1086.65 0.805887 3.35558 0
M  V30 11895 C 1085.76 1.9899 3.83441 0
M  V30 11896 C 1084.89 1.60376 5.06412 0
M  V30 11897 C 1083.93 2.75409 5.46641 0
M  V30 11898 N 1083.07 2.37249 6.60801 0
M  V30 11899 H 1087.91 2.07598 2.13792 0
M  V30 11900 H 1085.45 1.03316 1.0471 0
M  V30 11901 H 1087.4 0.597451 4.129 0
M  V30 11902 H 1086.03 -0.101023 3.22642 0
M  V30 11903 H 1085.09 2.31029 3.02208 0
M  V30 11904 H 1086.4 2.85214 4.09212 0
M  V30 11905 H 1085.55 1.35772 5.91313 0
M  V30 11906 H 1084.29 0.712888 4.82462 0
M  V30 11907 H 1083.3 3.00705 4.60279 0
M  V30 11908 H 1084.52 3.65148 5.72577 0
M  V30 11909 H 1082.47 1.50638 6.3847 0
M  V30 11910 H 1082.38 3.17008 6.86325 0
M  V30 11911 H 1083.65 2.15943 7.48992 0
M  V30 11912 N 1087.88 -1.11734 1.11145 0
M  V30 11913 C 1088.79 -2.21267 0.779607 0
M  V30 11914 C 1089.81 -1.72526 -0.225986 0
M  V30 11915 O 1090.98 -2.01302 -0.0629166 0
M  V30 11916 C 1088.05 -3.45973 0.22435 0
M  V30 11917 C 1087.11 -4.09518 1.28816 0
M  V30 11918 C 1086.34 -5.28271 0.7593 0
M  V30 11919 O 1086.57 -5.68912 -0.411725 0
M  V30 11920 O 1085.5 -5.82322 1.52266 0
M  V30 11921 H 1089.33 -2.5206 1.6941 0
M  V30 11922 H 1086.91 -1.20211 0.887115 0
M  V30 11923 H 1088.79 -4.21322 -0.0810921 0
M  V30 11924 H 1087.47 -3.1684 -0.662891 0
M  V30 11925 H 1086.37 -3.35915 1.64657 0
M  V30 11926 H 1087.71 -4.42824 2.14868 0
M  V30 11927 N 1089.36 -0.901303 -1.29284 0
M  V30 11928 C 1090.29 -0.337552 -2.26701 0
M  V30 11929 C 1091.3 0.517039 -1.54371 0
M  V30 11930 O 1092.49 0.333937 -1.75349 0
M  V30 11931 C 1089.59 0.537214 -3.34615 0
M  V30 11932 C 1088.77 -0.292017 -4.36424 0
M  V30 11933 C 1087.83 0.515837 -5.23666 0
M  V30 11934 O 1086.85 -0.0672303 -5.6916 0
M  V30 11935 N 1088.05 1.82159 -5.51179 0
M  V30 11936 H 1090.82 -1.17484 -2.75713 0
M  V30 11937 H 1088.38 -0.765957 -1.42635 0
M  V30 11938 H 1090.37 1.0841 -3.8991 0
M  V30 11939 H 1088.94 1.2752 -2.85408 0
M  V30 11940 H 1088.16 -1.02031 -3.80767 0
M  V30 11941 H 1089.45 -0.859855 -5.01482 0
M  V30 11942 H 1088.85 2.318 -5.16028 0
M  V30 11943 H 1087.4 2.31556 -6.09282 0
M  V30 11944 N 1090.84 1.42931 -0.663954 0
M  V30 11945 C 1092.25 1.56098 -0.332496 0
M  V30 11946 C 1092.45 1.64564 1.16279 0
M  V30 11947 O 1091.51 1.6066 1.94794 0
M  V30 11948 C 1092.82 2.81649 -1.05329 0
M  V30 11949 C 1094.37 2.95408 -1.03457 0
M  V30 11950 C 1094.85 4.23805 -1.73647 0
M  V30 11951 N 1096.34 4.30693 -1.70462 0
M  V30 11952 C 1097.07 5.28833 -2.21637 0
M  V30 11953 N 1096.57 6.33189 -2.81147 0
M  V30 11954 N 1098.36 5.20558 -2.12075 0
M  V30 11955 H 1090.51 1.3568 -1.63416 0
M  V30 11956 H 1092.77 0.652361 -0.687844 0
M  V30 11957 H 1092.48 2.81494 -2.10842 0
M  V30 11958 H 1092.35 3.72208 -0.611626 0
M  V30 11959 H 1094.74 2.95097 0.0121936 0
M  V30 11960 H 1094.82 2.06109 -1.51502 0
M  V30 11961 H 1094.47 4.24876 -2.78285 0
M  V30 11962 H 1094.4 5.12019 -1.2306 0
M  V30 11963 H 1096.89 3.55904 -1.27046 0
M  V30 11964 H 1097.2 7.04411 -3.17844 0
M  V30 11965 H 1095.55 6.33781 -2.85212 0
M  V30 11966 H 1098.74 4.3795 -1.6528 0
M  V30 11967 H 1098.91 5.96881 -2.52264 0
M  V30 11968 N 1092.32 0.406567 1.52266 0
M  V30 11969 C 1093.23 -0.4271 2.30679 0
M  V30 11970 C 1094.24 -1.0559 1.383 0
M  V30 11971 O 1095.42 -1.05797 1.71374 0
M  V30 11972 C 1092.48 -1.53008 3.1111 0
M  V30 11973 C 1091.54 -0.924604 4.19225 0
M  V30 11974 C 1090.78 -1.97502 4.95811 0
M  V30 11975 O 1091 -3.19277 4.72671 0
M  V30 11976 O 1089.93 -1.58268 5.80719 0
M  V30 11977 H 1093.76 0.212187 3.02958 0
M  V30 11978 H 1091.34 0.169835 1.48432 0
M  V30 11979 H 1093.23 -2.17046 3.61205 0
M  V30 11980 H 1091.9 -2.15401 2.41628 0
M  V30 11981 H 1090.81 -0.247009 3.73284 0
M  V30 11982 H 1092.14 -0.34463 4.90992 0
M  V30 11983 N 1093.79 -1.57004 0.136909 0
M  V30 11984 C 1095.21 -1.58082 -0.21958 0
M  V30 11985 C 1095.41 -1.15065 -1.65415 0
M  V30 11986 O 1094.47 -0.846284 -2.37896 0
M  V30 11987 C 1095.78 -3.00685 0.0300112 0
M  V30 11988 C 1097.33 -3.12981 -0.0344899 0
M  V30 11989 C 1097.8 -4.57615 0.187639 0
M  V30 11990 N 1099.29 -4.63005 0.134219 0
M  V30 11991 C 1100.03 -5.72712 0.280743 0
M  V30 11992 N 1099.52 -6.91104 0.48443 0
M  V30 11993 N 1101.32 -5.61673 0.219055 0
M  V30 11994 H 1093.47 -1.83262 1.07372 0
M  V30 11995 H 1095.73 -0.847776 0.424241 0
M  V30 11996 H 1095.44 -3.36509 1.02247 0
M  V30 11997 H 1095.31 -3.70762 -0.693918 0
M  V30 11998 H 1097.7 -2.77004 -1.01749 0
M  V30 11999 H 1097.78 -2.45411 0.721608 0
M  V30 12000 H 1097.42 -4.94295 1.16769 0
M  V30 12001 H 1097.35 -5.23299 -0.588661 0
M  V30 12002 H 1099.84 -3.77895 -0.0189681 0
M  V30 12003 H 1100.16 -7.7057 0.586613 0
M  V30 12004 H 1098.5 -6.93047 0.520627 0
M  V30 12005 H 1101.69 -4.68061 0.0607606 0
M  V30 12006 H 1101.87 -6.47125 0.336683 0
M  V30 12007 N 1095.27 0.136881 -1.57004 0
M  V30 12008 C 1096.52 0.846257 -1.83088 0
M  V30 12009 C 1096.83 1.81876 -0.719765 0
M  V30 12010 O 1098.04 2.57302 -0.866494 0
M  V30 12011 C 1096.5 1.55559 -3.24545 0
M  V30 12012 C 1096.1 0.624989 -4.43619 0
M  V30 12013 C 1097.85 2.25115 -3.59893 0
M  V30 12014 C 1095.76 1.33653 -5.761 0
M  V30 12015 H 1094.69 0.319768 -0.682836 0
M  V30 12016 H 1097.34 0.0989741 -1.83233 0
M  V30 12017 H 1095.72 2.34887 -3.18817 0
M  V30 12018 H 1096.89 -0.133783 -4.60606 0
M  V30 12019 H 1095.21 0.0373216 -4.16383 0
M  V30 12020 H 1097.8 2.79008 -4.56134 0
M  V30 12021 H 1098.15 3.02084 -2.86446 0
M  V30 12022 H 1098.68 1.52696 -3.67327 0
M  V30 12023 H 1095.42 0.608495 -6.5267 0
M  V30 12024 H 1094.94 2.06776 -5.63031 0
M  V30 12025 H 1096.62 1.87467 -6.19246 0
M  V30 12026 N 1096.75 1.52266 0.40654 0
M  V30 12027 C 1098.16 1.58587 0.985241 0
M  V30 12028 C 1098.51 0.427955 1.91476 0
M  V30 12029 O 1097.64 -0.451341 2.11641 0
M  V30 12030 C 1098.23 2.87426 1.79365 0
M  V30 12031 C 1096.79 2.96217 2.32233 0
M  V30 12032 C 1095.94 2.53548 1.12288 0
M  V30 12033 H 1098.89 1.57598 0.186685 0
M  V30 12034 H 1098.91 2.72925 2.65127 0
M  V30 12035 H 1098.42 3.71682 1.11687 0
M  V30 12036 H 1096.52 2.1646 3.03275 0
M  V30 12037 H 1096.64 4.00511 2.62922 0
M  V30 12038 H 1095 2.07457 1.47763 0
M  V30 12039 H 1095.78 3.40181 0.461731 0
M  V30 12040 N 1098.23 -0.663929 1.42933 0
M  V30 12041 C 1099.64 -0.978346 1.26097 0
M  V30 12042 C 1099.84 -2.00756 0.172968 0
M  V30 12043 O 1098.9 -2.48418 -0.452184 0
M  V30 12044 C 1100.21 -1.4728 2.62162 0
M  V30 12045 C 1101.76 -1.59001 2.69606 0
M  V30 12046 C 1102.24 -2.1184 4.06064 0
M  V30 12047 N 1103.73 -2.19158 4.08074 0
M  V30 12048 C 1104.46 -2.61141 5.10483 0
M  V30 12049 N 1103.96 -3.02498 6.23271 0
M  V30 12050 N 1105.75 -2.60986 4.97838 0
M  V30 12051 H 1097.9 0.0173096 2.12393 0
M  V30 12052 H 1100.17 -0.0548116 0.946414 0
M  V30 12053 H 1099.87 -0.791008 3.42689 0
M  V30 12054 H 1099.75 -2.4497 2.86827 0
M  V30 12055 H 1102.13 -2.26284 1.89418 0
M  V30 12056 H 1102.21 -0.597728 2.48718 0
M  V30 12057 H 1101.86 -1.45162 4.86714 0
M  V30 12058 H 1101.79 -3.1188 4.2431 0
M  V30 12059 H 1104.28 -1.90013 3.26655 0
M  V30 12060 H 1104.59 -3.33251 6.97254 0
M  V30 12061 H 1102.94 -3.00328 6.2676 0
M  V30 12062 H 1106.13 -2.28046 4.08794 0
M  V30 12063 H 1106.3 -2.93384 5.7778 0
M  V30 12064 N 1099.71 -1.29285 -0.901281 0
M  V30 12065 C 1100.67 -1.14283 -1.98676 0
M  V30 12066 C 1101.67 -0.0787641 -1.60607 0
M  V30 12067 O 1102.86 -0.325574 -1.71131 0
M  V30 12068 C 1099.99 -0.747279 -3.32609 0
M  V30 12069 H 1101.18 -2.10701 -2.13413 0
M  V30 12070 H 1098.74 -1.12449 -1.08558 0
M  V30 12071 H 1099.47 0.217111 -3.23572 0
M  V30 12072 H 1099.26 -1.51608 -3.61604 0
M  V30 12073 H 1100.75 -0.665322 -4.12266 0
M  V30 12074 N 1101.18 1.11143 -1.11736 0
M  V30 12075 C 1102.46 1.79384 -0.779785 0
M  V30 12076 C 1102.84 1.98015 0.731668 0
M  V30 12077 O 1102.19 1.56731 1.66276 0
M  V30 12078 C 1102.4 3.12868 -1.54643 0
M  V30 12079 C 1103.75 3.8786 -1.7277 0
M  V30 12080 O 1104.77 3.22566 -1.51094 0
M  V30 12081 O 1103.63 5.05034 -2.08813 0
M  V30 12082 H 1100.72 0.777128 -0.282845 0
M  V30 12083 H 1103.27 1.17858 -1.22096 0
M  V30 12084 H 1102.04 2.94682 -2.57446 0
M  V30 12085 H 1101.67 3.82109 -1.09901 0
M  V30 12086 N 1102.66 0.908147 1.28804 0
M  V30 12087 C 1103.57 0.397167 2.31214 0
M  V30 12088 C 1104.59 -0.512352 1.66286 0
M  V30 12089 O 1105.76 -0.399893 1.9739 0
M  V30 12090 C 1102.83 -0.359522 3.44831 0
M  V30 12091 C 1101.89 0.582539 4.25329 0
M  V30 12092 C 1101.12 -0.138133 5.33521 0
M  V30 12093 O 1101.35 -1.36076 5.53931 0
M  V30 12094 O 1100.28 0.523682 5.99618 0
M  V30 12095 H 1104.11 1.247 2.76918 0
M  V30 12096 H 1101.69 0.672766 1.33395 0
M  V30 12097 H 1103.57 -0.787098 4.13984 0
M  V30 12098 H 1102.25 -1.18528 3.01219 0
M  V30 12099 H 1101.16 1.0594 3.58786 0
M  V30 12100 H 1102.49 1.37495 4.72605 0
M  V30 12101 N 1104.14 -1.42577 0.671525 0
M  V30 12102 C 1105.07 -2.33499 0.00506984 0
M  V30 12103 C 1106.05 -1.50497 -0.792763 0
M  V30 12104 O 1107.24 -1.79109 -0.750574 0
M  V30 12105 C 1104.37 -3.34077 -0.949194 0
M  V30 12106 C 1103.32 -4.27208 -0.260187 0
M  V30 12107 C 1102.65 -5.17968 -1.32716 0
M  V30 12108 C 1103.95 -5.15192 0.858772 0
M  V30 12109 H 1105.64 -2.89477 0.764407 0
M  V30 12110 H 1103.19 -1.39191 0.369043 0
M  V30 12111 H 1105.14 -3.96594 -1.42448 0
M  V30 12112 H 1103.86 -2.76396 -1.73991 0
M  V30 12113 H 1102.52 -3.66082 0.194834 0
M  V30 12114 H 1102.17 -4.56615 -2.10979 0
M  V30 12115 H 1101.87 -5.81104 -0.871293 0
M  V30 12116 H 1103.39 -5.83359 -1.80345 0
M  V30 12117 H 1104.81 -5.71412 0.464844 0
M  V30 12118 H 1103.21 -5.87144 1.24023 0
M  V30 12119 H 1104.28 -4.53787 1.70895 0
M  V30 12120 N 1105.62 -0.414636 -1.52048 0
M  V30 12121 C 1106.57 0.422766 -2.28726 0
M  V30 12122 C 1107.56 1.04099 -1.3364 0
M  V30 12123 O 1108.77 0.978559 -1.51077 0
M  V30 12124 H 1105.14 0.155123 -0.735827 0
M  V30 12125 H 1107.11 -0.245091 -2.97392 0
M  V30 12126 C 1105.86 1.52418 -3.12513 0
M  V30 12127 H 1105.18 1.05781 -3.85552 0
M  V30 12128 H 1106.62 2.08382 -3.6926 0
M  V30 12129 C 1105.08 2.49465 -2.26426 0
M  V30 12130 O 1105.61 3.53479 -1.90829 0
M  V30 12131 N 1103.82 2.19806 -1.90088 0
M  V30 12132 H 1103.37 1.35253 -2.19236 0
M  V30 12133 H 1103.32 2.84984 -1.32783 0
M  V30 12134 N 1107.1 1.56929 -0.145233 0
M  V30 12135 C 1108.03 2.13796 0.826078 0
M  V30 12136 C 1109.04 1.08697 1.21197 0
M  V30 12137 O 1110.23 1.3598 1.15635 0
M  V30 12138 C 1107.33 2.6443 2.11967 0
M  V30 12139 C 1106.5 3.9391 1.90142 0
M  V30 12140 C 1105.56 4.29872 3.03474 0
M  V30 12141 O 1104.59 4.98227 2.75242 0
M  V30 12142 N 1105.79 3.8931 4.30602 0
M  V30 12143 H 1108.56 2.97764 0.340073 0
M  V30 12144 H 1106.12 1.61854 0.0383928 0
M  V30 12145 H 1108.11 2.85502 2.86829 0
M  V30 12146 H 1106.68 1.85196 2.51836 0
M  V30 12147 H 1105.9 3.81481 0.993268 0
M  V30 12148 H 1107.19 4.78523 1.72896 0
M  V30 12149 H 1106.58 3.34229 4.56407 0
M  V30 12150 H 1105.14 4.15438 5.0225 0
M  V30 12151 N 1108.58 -0.128553 1.57075 0
M  V30 12152 C 1109.8 -0.85245 1.88523 0
M  V30 12153 C 1110.22 -1.73886 0.735459 0
M  V30 12154 O 1109.58 -1.80114 -0.294113 0
M  V30 12155 C 1109.63 -1.69384 3.19361 0
M  V30 12156 O 1109.35 -0.84313 4.2991 0
M  V30 12157 C 1110.85 -2.52373 3.64449 0
M  V30 12158 H 1108.07 -0.245556 0.624454 0
M  V30 12159 H 1110.61 -0.115807 2.04172 0
M  V30 12160 H 1108.77 -2.38335 3.0541 0
M  V30 12161 H 1109.18 -1.42255 5.0484 0
M  V30 12162 H 1110.66 -3.06955 4.58784 0
M  V30 12163 H 1111.13 -3.29283 2.90636 0
M  V30 12164 H 1111.74 -1.88681 3.81155 0
M  V30 12165 N 1110.05 -1.5248 -0.398459 0
M  V30 12166 C 1111.3 -1.66731 -1.14215 0
M  V30 12167 C 1111.62 -0.404957 -1.90749 0
M  V30 12168 O 1110.89 0.580434 -1.87104 0
M  V30 12169 H 1109.47 -0.614577 -0.424622 0
M  V30 12170 H 1112.13 -1.89561 -0.453059 0
M  V30 12171 H 1111.23 -2.51336 -1.85031 0
M  V30 12172 N 1111.53 0.65634 -1.43283 0
M  V30 12173 C 1112.46 1.78184 -1.44164 0
M  V30 12174 C 1113.48 1.59249 -0.338177 0
M  V30 12175 O 1114.67 1.68027 -0.60242 0
M  V30 12176 C 1111.77 3.15566 -1.23577 0
M  V30 12177 C 1110.94 3.61187 -2.46704 0
M  V30 12178 C 1110 4.77361 -2.21388 0
M  V30 12179 O 1109.02 4.8696 -2.94718 0
M  V30 12180 N 1110.23 5.67351 -1.22855 0
M  V30 12181 H 1112.99 1.77907 -2.41183 0
M  V30 12182 H 1110.55 0.840076 -1.38399 0
M  V30 12183 H 1112.54 3.90968 -1.04529 0
M  V30 12184 H 1111.11 3.10633 -0.350155 0
M  V30 12185 H 1110.33 2.76263 -2.81198 0
M  V30 12186 H 1111.62 3.88413 -3.28652 0
M  V30 12187 H 1111.02 5.62265 -0.622417 0
M  V30 12188 H 1109.58 6.42487 -1.09791 0
M  V30 12189 N 1113.01 1.29761 0.894412 0
M  V30 12190 C 1114.26 1.17409 1.64006 0
M  V30 12191 C 1114.57 -0.272355 1.93695 0
M  V30 12192 O 1115.78 -0.517269 2.66527 0
M  V30 12193 C 1114.23 2.05379 2.95546 0
M  V30 12194 C 1113.84 3.54878 2.73433 0
M  V30 12195 C 1115.59 2.01765 3.73485 0
M  V30 12196 C 1113.49 4.34935 4.00731 0
M  V30 12197 H 1112.42 0.43583 0.615279 0
M  V30 12198 H 1115.07 1.5444 0.990983 0
M  V30 12199 H 1113.46 1.61222 3.61695 0
M  V30 12200 H 1114.63 4.07122 2.15844 0
M  V30 12201 H 1112.94 3.60218 2.08882 0
M  V30 12202 H 1115.54 2.58835 4.67877 0
M  V30 12203 H 1115.88 0.998876 4.04139 0
M  V30 12204 H 1116.42 2.43994 3.14184 0
M  V30 12205 H 1113.16 5.3747 3.75241 0
M  V30 12206 H 1112.68 3.87458 4.5786 0
M  V30 12207 H 1114.36 4.45875 4.68833 0
M  V30 12208 N 1114.49 -1.10549 1.12324 0
M  V30 12209 C 1115.42 -2.18911 0.812416 0
M  V30 12210 C 1116.4 -1.68628 -0.22327 0
M  V30 12211 O 1117.58 -1.94015 -0.0847184 0
M  V30 12212 C 1114.71 -3.46288 0.264947 0
M  V30 12213 C 1113.67 -4.09838 1.23356 0
M  V30 12214 C 1112.99 -5.31901 0.546374 0
M  V30 12215 C 1114.29 -4.53686 2.58778 0
M  V30 12216 H 1115.99 -2.45169 1.71851 0
M  V30 12217 H 1113.53 -1.17834 0.827715 0
M  V30 12218 H 1115.49 -4.21385 0.0352364 0
M  V30 12219 H 1114.21 -3.19517 -0.676479 0
M  V30 12220 H 1112.87 -3.36746 1.44906 0
M  V30 12221 H 1112.52 -5.01406 -0.400157 0
M  V30 12222 H 1112.22 -5.75372 1.19249 0
M  V30 12223 H 1113.74 -6.09731 0.325673 0
M  V30 12224 H 1115.16 -5.20063 2.41263 0
M  V30 12225 H 1113.55 -5.08003 3.19457 0
M  V30 12226 H 1114.62 -3.66665 3.17309 0
M  V30 12227 N 1115.97 -0.914965 -1.28321 0
M  V30 12228 C 1117.21 -0.549562 -1.95212 0
M  V30 12229 C 1117.54 0.904658 -1.71842 0
M  V30 12230 O 1116.82 1.64354 -1.04009 0
M  V30 12231 C 1117.1 -0.860927 -3.49657 0
M  V30 12232 C 1116.96 -2.36797 -3.82423 0
M  V30 12233 C 1118.27 -0.357926 -4.38642 0
M  V30 12234 H 1115.39 -0.201136 -0.709023 0
M  V30 12235 H 1118.04 -1.14443 -1.51667 0
M  V30 12236 H 1116.19 -0.354665 -3.86878 0
M  V30 12237 H 1117.86 -2.94494 -3.55065 0
M  V30 12238 H 1116.1 -2.82245 -3.29424 0
M  V30 12239 H 1116.77 -2.53637 -4.90278 0
M  V30 12240 H 1119.25 -0.791636 -4.085 0
M  V30 12241 H 1118.12 -0.604855 -5.45557 0
M  V30 12242 H 1118.38 0.741775 -4.35833 0
M  V30 12243 N 1117.44 1.42219 -0.679077 0
M  V30 12244 C 1118.35 2.346 -0.00345919 0
M  V30 12245 C 1119.37 1.55327 0.784181 0
M  V30 12246 O 1120.55 1.87878 0.725524 0
M  V30 12247 C 1117.61 3.33905 0.933194 0
M  V30 12248 C 1116.67 4.29073 0.139607 0
M  V30 12249 C 1115.9 5.23634 1.03165 0
M  V30 12250 O 1116.13 5.23234 2.27119 0
M  V30 12251 O 1115.06 5.99901 0.490159 0
M  V30 12252 H 1118.89 2.9392 -0.764525 0
M  V30 12253 H 1116.47 1.42794 -0.439329 0
M  V30 12254 H 1118.35 3.949 1.47077 0
M  V30 12255 H 1117.03 2.77052 1.67404 0
M  V30 12256 H 1115.94 3.71478 -0.442177 0
M  V30 12257 H 1117.27 4.88979 -0.562214 0
M  V30 12258 N 1118.92 0.422693 1.51826 0
M  V30 12259 C 1119.85 -0.43167 2.25098 0
M  V30 12260 C 1120.87 -0.998758 1.28564 0
M  V30 12261 O 1122.06 -0.89539 1.54418 0
M  V30 12262 C 1119.16 -1.61426 2.97985 0
M  V30 12263 C 1118.33 -1.16866 4.21499 0
M  V30 12264 C 1117.39 -2.2197 4.77091 0
M  V30 12265 O 1116.41 -1.82004 5.39317 0
M  V30 12266 N 1117.62 -3.54293 4.59844 0
M  V30 12267 H 1120.38 0.196255 2.99057 0
M  V30 12268 H 1117.94 0.25079 1.59946 0
M  V30 12269 H 1119.93 -2.31331 3.32066 0
M  V30 12270 H 1118.5 -2.14783 2.27128 0
M  V30 12271 H 1117.72 -0.297217 3.93078 0
M  V30 12272 H 1119.01 -0.848106 5.01682 0
M  V30 12273 H 1118.41 -3.89505 4.10247 0
M  V30 12274 H 1116.97 -4.20135 4.98327 0
M  V30 12275 N 1120.4 -1.5685 0.153553 0
M  V30 12276 C 1121.33 -2.12888 -0.821829 0
M  V30 12277 C 1122.31 -1.05418 -1.23798 0
M  V30 12278 O 1123.49 -1.33288 -1.33292 0
M  V30 12279 C 1120.62 -2.65394 -2.10438 0
M  V30 12280 C 1119.67 -3.85071 -1.83364 0
M  V30 12281 S 1120.5 -5.2572 -1.01877 0
M  V30 12282 C 1121.66 -5.81619 -2.31236 0
M  V30 12283 H 1121.89 -2.95288 -0.345314 0
M  V30 12284 H 1119.42 -1.5428 -0.0608377 0
M  V30 12285 H 1121.38 -2.96294 -2.84113 0
M  V30 12286 H 1120.04 -1.83112 -2.55204 0
M  V30 12287 H 1119.23 -4.20076 -2.78482 0
M  V30 12288 H 1118.84 -3.54965 -1.17794 0
M  V30 12289 H 1121.13 -5.9345 -3.26838 0
M  V30 12290 H 1122.07 -6.79054 -2.00727 0
M  V30 12291 H 1122.48 -5.09909 -2.42184 0
M  V30 12292 N 1121.88 0.120221 -1.57141 0
M  V30 12293 C 1123.13 0.826586 -1.84423 0
M  V30 12294 C 1123.45 1.80473 -0.738553 0
M  V30 12295 O 1122.72 1.94454 0.23755 0
M  V30 12296 H 1121.3 0.308246 -0.680436 0
M  V30 12297 H 1123.96 0.107835 -1.94601 0
M  V30 12298 H 1123.05 1.37256 -2.80298 0
M  V30 12299 N 1123.36 1.52689 0.390367 0
M  V30 12300 C 1124.3 1.7737 1.47677 0
M  V30 12301 C 1125.27 0.616864 1.54221 0
M  V30 12302 O 1126.46 0.856437 1.70499 0
M  V30 12303 C 1123.6 1.94715 2.84921 0
M  V30 12304 C 1122.71 3.22405 2.8754 0
M  V30 12305 C 1121.85 3.30074 4.16202 0
M  V30 12306 C 1120.89 4.51893 4.12867 0
M  V30 12307 N 1120.02 4.56851 5.33134 0
M  V30 12308 H 1124.86 2.70084 1.25932 0
M  V30 12309 H 1122.4 1.33813 0.610943 0
M  V30 12310 H 1124.36 2.02755 3.64618 0
M  V30 12311 H 1122.99 1.05363 3.0512 0
M  V30 12312 H 1122.04 3.23442 2.00223 0
M  V30 12313 H 1123.35 4.12156 2.80943 0
M  V30 12314 H 1122.51 3.3729 5.04302 0
M  V30 12315 H 1121.24 2.38295 4.25519 0
M  V30 12316 H 1120.25 4.44803 3.23156 0
M  V30 12317 H 1121.47 5.44987 4.05174 0
M  V30 12318 H 1119.42 3.67963 5.43083 0
M  V30 12319 H 1119.34 5.40472 5.28607 0
M  V30 12320 H 1120.61 4.6832 6.23134 0
M  V30 12321 N 1124.83 -0.648732 1.43629 0
M  V30 12322 C 1125.74 -1.79046 1.51591 0
M  V30 12323 C 1126.76 -1.69276 0.402697 0
M  V30 12324 O 1127.94 -1.90366 0.657484 0
M  V30 12325 C 1125 -3.15347 1.44073 0
M  V30 12326 C 1124.06 -3.3688 2.66102 0
M  V30 12327 C 1123.3 -4.66679 2.58933 0
M  V30 12328 O 1123.52 -5.46328 1.63956 0
M  V30 12329 O 1122.45 -4.9003 3.49506 0
M  V30 12330 H 1126.28 -1.75283 2.48011 0
M  V30 12331 H 1123.86 -0.807774 1.2568 0
M  V30 12332 H 1125.75 -3.96633 1.42339 0
M  V30 12333 H 1124.42 -3.19691 0.50789 0
M  V30 12334 H 1123.33 -2.55341 2.73407 0
M  V30 12335 H 1124.66 -3.37386 3.58373 0
M  V30 12336 N 1126.31 -1.30234 -0.887518 0
M  V30 12337 C 1127.56 -1.18675 -1.63587 0
M  V30 12338 C 1127.88 0.259342 -1.93268 0
M  V30 12339 O 1127.15 1.17523 -1.56733 0
M  V30 12340 H 1125.73 -0.436224 -0.606397 0
M  V30 12341 H 1128.39 -1.63326 -1.06351 0
M  V30 12342 H 1127.49 -1.74575 -2.58708 0
M  V30 12343 N 1127.79 1.09952 -1.12909 0
M  V30 12344 C 1128.72 2.18477 -0.824014 0
M  V30 12345 C 1129.7 1.68744 0.214324 0
M  V30 12346 O 1130.89 1.94057 0.0744281 0
M  V30 12347 C 1128.02 3.46143 -0.283308 0
M  V30 12348 C 1126.97 4.09178 -1.25528 0
M  V30 12349 C 1126.3 5.31604 -0.574574 0
M  V30 12350 C 1127.6 4.52308 -2.6118 0
M  V30 12351 H 1129.29 2.44254 -1.73148 0
M  V30 12352 H 1126.84 1.17394 -0.833952 0
M  V30 12353 H 1128.79 4.21361 -0.057583 0
M  V30 12354 H 1127.51 3.19872 0.659525 0
M  V30 12355 H 1126.17 3.35973 -1.4669 0
M  V30 12356 H 1125.82 5.01611 0.37356 0
M  V30 12357 H 1125.52 5.74732 -1.22299 0
M  V30 12358 H 1127.04 6.0955 -0.358004 0
M  V30 12359 H 1128.46 5.18776 -2.44017 0
M  V30 12360 H 1126.86 5.06302 -3.22147 0
M  V30 12361 H 1127.93 3.64977 -3.19249 0
M  V30 12362 N 1129.27 0.921757 1.27833 0
M  V30 12363 C 1130.68 0.604496 1.76643 0
M  V30 12364 C 1131.03 -0.880294 1.75343 0
M  V30 12365 O 1130.16 -1.68875 1.35315 0
M  V30 12366 C 1130.75 1.09055 3.20768 0
M  V30 12367 C 1129.31 0.824066 3.67268 0
M  V30 12368 C 1128.46 1.25269 2.47392 0
M  V30 12369 H 1131.41 1.10217 1.14184 0
M  V30 12370 H 1131.43 0.435558 3.77999 0
M  V30 12371 H 1130.94 2.17122 3.21682 0
M  V30 12372 H 1129.04 -0.243055 3.71806 0
M  V30 12373 H 1129.15 1.43743 4.57028 0
M  V30 12374 H 1127.52 0.671313 2.45694 0
M  V30 12375 H 1128.3 2.34188 2.5102 0
M  V30 12376 N 1130.75 -1.41857 0.686609 0
M  V30 12377 C 1131.97 -2.05699 0.222561 0
M  V30 12378 C 1132.39 -1.51636 -1.12481 0
M  V30 12379 O 1131.75 -0.660925 -1.70112 0
M  V30 12380 C 1131.8 -3.61138 0.161818 0
M  V30 12381 O 1131.52 -4.13199 1.45596 0
M  V30 12382 C 1133.02 -4.42112 -0.324304 0
M  V30 12383 H 1130.24 -0.662665 0.10543 0
M  V30 12384 H 1132.78 -1.81788 0.936671 0
M  V30 12385 H 1130.94 -3.8412 -0.503056 0
M  V30 12386 H 1131.35 -5.0717 1.33712 0
M  V30 12387 H 1132.83 -5.51097 -0.315694 0
M  V30 12388 H 1133.3 -4.1756 -1.36164 0
M  V30 12389 H 1133.91 -4.24174 0.309251 0
M  V30 12390 N 1132.22 -0.430739 -1.51599 0
M  V30 12391 C 1133.13 0.390347 -2.3133 0
M  V30 12392 C 1134.15 1.03376 -1.39962 0
M  V30 12393 O 1135.33 1.03057 -1.73035 0
M  V30 12394 C 1132.39 1.48039 -3.13505 0
M  V30 12395 C 1131.45 0.857792 -4.20643 0
M  V30 12396 C 1130.69 1.89589 -4.9889 0
M  V30 12397 O 1130.91 3.11717 -4.77691 0
M  V30 12398 O 1129.84 1.49009 -5.83164 0
M  V30 12399 H 1133.67 -0.260358 -3.02582 0
M  V30 12400 H 1131.25 -0.193428 -1.48143 0
M  V30 12401 H 1133.14 2.11272 -3.64612 0
M  V30 12402 H 1131.81 2.1153 -2.45024 0
M  V30 12403 H 1130.72 0.187592 -3.73629 0
M  V30 12404 H 1132.05 0.266474 -4.91478 0
M  V30 12405 N 1133.7 1.56767 -0.161869 0
M  V30 12406 C 1134.61 2.21083 0.784814 0
M  V30 12407 C 1135.63 1.19959 1.26039 0
M  V30 12408 O 1136.8 1.52588 1.31449 0
M  V30 12409 C 1133.87 2.83153 2.00063 0
M  V30 12410 C 1132.93 3.9945 1.57285 0
M  V30 12411 C 1132.16 4.5855 2.7307 0
M  V30 12412 O 1132.39 4.16534 3.89686 0
M  V30 12413 O 1131.32 5.48575 2.47688 0
M  V30 12414 H 1135.15 3.02522 0.267243 0
M  V30 12415 H 1132.73 1.49255 0.0658783 0
M  V30 12416 H 1134.61 3.22546 2.71186 0
M  V30 12417 H 1133.29 2.04718 2.50744 0
M  V30 12418 H 1132.2 3.64745 0.831393 0
M  V30 12419 H 1133.53 4.7945 1.11304 0
M  V30 12420 N 1135.18 -0.111886 1.57202 0
M  V30 12421 C 1136.43 -0.817022 1.84412 0
M  V30 12422 C 1136.74 -1.80708 0.748608 0
M  V30 12423 O 1137.95 -2.55891 0.907319 0
M  V30 12424 C 1136.4 -1.50376 3.26979 0
M  V30 12425 C 1136.01 -0.554334 4.44557 0
M  V30 12426 C 1137.76 -2.19361 3.63429 0
M  V30 12427 C 1135.66 -1.24471 5.78153 0
M  V30 12428 H 1134.59 -0.308864 0.687836 0
M  V30 12429 H 1137.24 -0.0698109 1.83367 0
M  V30 12430 H 1135.63 -2.29785 3.22514 0
M  V30 12431 H 1136.8 0.207045 4.60335 0
M  V30 12432 H 1135.12 0.0289261 4.1639 0
M  V30 12433 H 1137.71 -2.71716 4.60515 0
M  V30 12434 H 1138.06 -2.97488 2.91215 0
M  V30 12435 H 1138.59 -1.46833 3.69709 0
M  V30 12436 H 1135.33 -0.504584 6.53555 0
M  V30 12437 H 1134.85 -1.97792 5.66249 0
M  V30 12438 H 1136.53 -1.77591 6.2215 0
M  V30 12439 N 1136.66 -1.52894 -0.382264 0
M  V30 12440 C 1137.61 -1.78151 -1.46734 0
M  V30 12441 C 1138.58 -0.625034 -1.53891 0
M  V30 12442 O 1139.76 -0.865467 -1.70042 0
M  V30 12443 C 1136.9 -1.96223 -2.83885 0
M  V30 12444 C 1136.01 -3.23925 -2.85826 0
M  V30 12445 C 1135.15 -3.32277 -4.14446 0
M  V30 12446 C 1134.19 -4.54076 -4.10465 0
M  V30 12447 N 1133.32 -4.59672 -5.30703 0
M  V30 12448 H 1138.16 -2.70748 -1.24497 0
M  V30 12449 H 1135.7 -1.34135 -0.603838 0
M  V30 12450 H 1137.66 -2.04686 -3.63537 0
M  V30 12451 H 1136.29 -1.0698 -3.04557 0
M  V30 12452 H 1135.34 -3.245 -1.98505 0
M  V30 12453 H 1136.65 -4.1364 -2.78754 0
M  V30 12454 H 1135.81 -3.3996 -5.02506 0
M  V30 12455 H 1134.55 -2.40548 -4.2425 0
M  V30 12456 H 1133.55 -4.46511 -3.20793 0
M  V30 12457 H 1134.78 -5.47128 -4.02278 0
M  V30 12458 H 1132.72 -3.70838 -5.41124 0
M  V30 12459 H 1132.64 -5.43268 -5.25734 0
M  V30 12460 H 1133.91 -4.71618 -6.20642 0
M  V30 12461 N 1138.14 0.641106 -1.43971 0
M  V30 12462 C 1139.09 1.77474 -1.50352 0
M  V30 12463 C 1140.08 1.65173 -0.376052 0
M  V30 12464 O 1141.29 1.71373 -0.550572 0
M  V30 12465 H 1137.66 0.585747 -0.471597 0
M  V30 12466 H 1139.63 1.69213 -2.45784 0
M  V30 12467 C 1138.38 3.15778 -1.45532 0
M  V30 12468 H 1137.7 3.25886 -2.316 0
M  V30 12469 H 1139.14 3.95022 -1.54058 0
M  V30 12470 C 1137.6 3.36447 -0.174624 0
M  V30 12471 O 1138.13 3.9446 0.759215 0
M  V30 12472 N 1136.34 2.90487 -0.0809383 0
M  V30 12473 H 1135.89 2.43461 -0.841691 0
M  V30 12474 H 1135.84 3.04693 0.775231 0
M  V30 12475 N 1139.62 1.30703 0.880598 0
M  V30 12476 C 1140.86 1.19955 1.63519 0
M  V30 12477 C 1141.19 -0.244214 1.92658 0
M  V30 12478 O 1140.47 -1.17412 1.55063 0
M  V30 12479 C 1140.75 2.03302 2.97221 0
M  V30 12480 C 1140.61 3.55921 2.75028 0
M  V30 12481 C 1141.92 1.87421 3.98198 0
M  V30 12482 H 1139.04 0.43712 0.593376 0
M  V30 12483 H 1141.69 1.60382 1.01871 0
M  V30 12484 H 1139.84 1.68953 3.49839 0
M  V30 12485 H 1141.51 4.00352 2.29164 0
M  V30 12486 H 1139.75 3.79885 2.09452 0
M  V30 12487 H 1140.42 4.09533 3.70117 0
M  V30 12488 H 1142.9 2.17459 3.54755 0
M  V30 12489 H 1141.77 2.48057 4.89652 0
M  V30 12490 H 1142.03 0.834563 4.34151 0
M  V30 12491 N 1141.09 -1.09351 1.1349 0
M  V30 12492 C 1142.02 -2.18037 0.835588 0
M  V30 12493 C 1143 -1.68856 -0.205373 0
M  V30 12494 O 1144.19 -1.94094 -0.0641357 0
M  V30 12495 C 1141.32 -3.45987 0.301661 0
M  V30 12496 C 1140.27 -4.08507 1.27696 0
M  V30 12497 C 1139.6 -5.31292 0.602758 0
M  V30 12498 C 1140.9 -4.50916 2.63575 0
M  V30 12499 H 1142.59 -2.43332 1.74441 0
M  V30 12500 H 1140.14 -1.1695 0.840166 0
M  V30 12501 H 1142.09 -4.21324 0.079928 0
M  V30 12502 H 1140.82 -3.20217 -0.642552 0
M  V30 12503 H 1139.48 -3.3519 1.4847 0
M  V30 12504 H 1139.12 -5.01802 -0.346953 0
M  V30 12505 H 1138.82 -5.74075 1.25345 0
M  V30 12506 H 1140.35 -6.09351 0.390325 0
M  V30 12507 H 1141.76 -5.17474 2.46765 0
M  V30 12508 H 1140.16 -5.04586 3.24827 0
M  V30 12509 H 1141.23 -3.63279 3.2118 0
M  V30 12510 N 1142.57 -0.928524 -1.27343 0
M  V30 12511 C 1143.48 -0.433901 -2.30553 0
M  V30 12512 C 1144.5 0.485832 -1.6708 0
M  V30 12513 O 1145.67 0.36844 -1.98001 0
M  V30 12514 C 1142.74 0.304617 -3.45359 0
M  V30 12515 C 1141.8 -0.650131 -4.24349 0
M  V30 12516 C 1141.03 0.0532372 -5.33673 0
M  V30 12517 O 1141.26 1.27246 -5.56026 0
M  V30 12518 O 1140.19 -0.619009 -5.98709 0
M  V30 12519 H 1144.02 -1.2909 -2.74899 0
M  V30 12520 H 1141.6 -0.693903 -1.32308 0
M  V30 12521 H 1143.48 0.721137 -4.15184 0
M  V30 12522 H 1142.16 1.13721 -3.03066 0
M  V30 12523 H 1141.06 -1.11635 -3.57055 0
M  V30 12524 H 1142.4 -1.44996 -4.70358 0
M  V30 12525 N 1144.05 1.41491 -0.694123 0
M  V30 12526 C 1145 2.30783 -0.0278824 0
M  V30 12527 C 1145.97 1.47028 0.772783 0
M  V30 12528 O 1147.15 1.75819 0.74111 0
M  V30 12529 C 1144.29 3.33061 0.903579 0
M  V30 12530 C 1143.4 4.31896 0.0946823 0
M  V30 12531 C 1142.54 5.21243 1.02365 0
M  V30 12532 C 1141.58 6.11748 0.207578 0
M  V30 12533 N 1140.72 6.93583 1.09028 0
M  V30 12534 H 1145.56 2.87197 -0.795092 0
M  V30 12535 H 1143.09 1.41449 -0.403806 0
M  V30 12536 H 1145.05 3.90907 1.45765 0
M  V30 12537 H 1143.68 2.782 1.6372 0
M  V30 12538 H 1142.73 3.76009 -0.576289 0
M  V30 12539 H 1144.04 4.95889 -0.538059 0
M  V30 12540 H 1143.2 5.83917 1.647 0
M  V30 12541 H 1141.94 4.57473 1.69025 0
M  V30 12542 H 1140.94 5.48125 -0.428854 0
M  V30 12543 H 1142.17 6.77573 -0.455206 0
M  V30 12544 H 1140.11 6.32422 1.74292 0
M  V30 12545 H 1140.03 7.54257 0.513073 0
M  V30 12546 H 1141.3 7.60726 1.70048 0
M  V30 12547 N 1145.53 0.438773 1.51369 0
M  V30 12548 C 1146.77 -0.127401 2.02399 0
M  V30 12549 C 1147.11 -1.42235 1.32223 0
M  V30 12550 O 1146.38 -1.89513 0.437607 0
M  V30 12551 C 1146.66 -0.344673 3.58447 0
M  V30 12552 C 1146.52 0.969027 4.39238 0
M  V30 12553 C 1147.84 -1.11381 4.25773 0
M  V30 12554 H 1144.96 -0.0448281 0.735635 0
M  V30 12555 H 1147.6 0.57805 1.80993 0
M  V30 12556 H 1145.75 -0.945582 3.76817 0
M  V30 12557 H 1147.42 1.60403 4.32514 0
M  V30 12558 H 1145.66 1.57329 4.04265 0
M  V30 12559 H 1146.33 0.771029 5.46589 0
M  V30 12560 H 1148.81 -0.604785 4.11681 0
M  V30 12561 H 1147.69 -1.23459 5.34835 0
M  V30 12562 H 1147.95 -2.14225 3.8673 0
M  V30 12563 N 1147.01 -1.56678 0.170181 0
M  V30 12564 C 1148.23 -2.0166 -0.484543 0
M  V30 12565 C 1148.66 -1.04962 -1.56091 0
M  V30 12566 O 1148.01 -0.0289887 -1.81277 0
M  V30 12567 C 1148.06 -3.45252 -1.04084 0
M  V30 12568 O 1147.17 -3.51623 -2.15488 0
M  V30 12569 H 1146.51 -0.653765 -0.116135 0
M  V30 12570 H 1149.04 -2.02761 0.273737 0
M  V30 12571 H 1149.05 -3.84534 -1.36373 0
M  V30 12572 H 1147.72 -4.15131 -0.252738 0
M  V30 12573 H 1146.3 -3.242 -1.84252 0
M  V30 12574 N 1148.48 0.103547 -1.57259 0
M  V30 12575 C 1149.71 0.82624 -1.90232 0
M  V30 12576 C 1150.13 1.71902 -0.763641 0
M  V30 12577 O 1149.49 1.79043 0.285181 0
M  V30 12578 C 1149.54 1.62265 -3.22029 0
M  V30 12579 O 1148.64 2.73091 -3.09023 0
M  V30 12580 H 1147.98 0.227528 -0.6238 0
M  V30 12581 H 1150.51 0.081307 -2.04438 0
M  V30 12582 H 1150.52 2.00865 -3.5513 0
M  V30 12583 H 1149.2 0.967383 -4.04493 0
M  V30 12584 H 1147.78 2.3758 -2.8742 0
M  V30 12585 N 1149.96 1.53094 0.37415 0
M  V30 12586 C 1150.87 1.81872 1.48188 0
M  V30 12587 C 1151.89 0.706487 1.59012 0
M  V30 12588 O 1153.06 0.995648 1.75068 0
M  V30 12589 C 1150.13 1.99494 2.83554 0
M  V30 12590 C 1149.19 3.23402 2.82329 0
M  V30 12591 C 1148.42 3.40174 4.11239 0
M  V30 12592 O 1148.65 2.61425 5.06965 0
M  V30 12593 O 1147.58 4.33493 4.17573 0
M  V30 12594 H 1151.41 2.75965 1.26795 0
M  V30 12595 H 1148.99 1.38368 0.56343 0
M  V30 12596 H 1150.87 2.12705 3.63778 0
M  V30 12597 H 1149.55 1.08591 3.04942 0
M  V30 12598 H 1148.45 3.15621 2.00834 0
M  V30 12599 H 1149.79 4.14199 2.65894 0
M  V30 12600 N 1151.44 -0.633461 1.44309 0
M  V30 12601 C 1152.69 -1.39334 1.48181 0
M  V30 12602 C 1153.04 -1.92075 0.111835 0
M  V30 12603 O 1152.33 -1.70577 -0.87258 0
M  V30 12604 C 1152.53 -2.57783 2.47554 0
M  V30 12605 C 1152.36 -2.16638 3.94079 0
M  V30 12606 C 1151.13 -2.04027 4.62278 0
M  V30 12607 C 1153.32 -1.75694 4.83359 0
M  V30 12608 N 1151.31 -1.5642 5.93638 0
M  V30 12609 C 1152.68 -1.39315 6.04145 0
M  V30 12610 C 1154.73 -1.63053 4.70445 0
M  V30 12611 C 1153.44 -0.915604 7.13449 0
M  V30 12612 C 1155.46 -1.16703 5.79771 0
M  V30 12613 C 1154.82 -0.812735 6.99696 0
M  V30 12614 H 1150.92 -0.504757 0.597281 0
M  V30 12615 H 1153.51 -0.726948 1.8062 0
M  V30 12616 H 1151.68 -3.22053 2.17109 0
M  V30 12617 H 1153.41 -3.2457 2.41737 0
M  V30 12618 H 1150.16 -2.24407 4.17059 0
M  V30 12619 H 1150.59 -1.34922 6.63419 0
M  V30 12620 H 1155.23 -1.89078 3.78166 0
M  V30 12621 H 1152.95 -0.642869 8.05539 0
M  V30 12622 H 1156.53 -1.07385 5.71804 0
M  V30 12623 H 1155.41 -0.45957 7.82852 0
M  V30 12624 N 1152.92 -1.31168 -0.873655 0
M  V30 12625 C 1153.87 -1.18507 -1.98052 0
M  V30 12626 C 1154.84 -0.0717583 -1.65945 0
M  V30 12627 O 1156.02 -0.243965 -1.89234 0
M  V30 12628 C 1153.16 -0.894571 -3.33304 0
M  V30 12629 C 1152.27 -2.09086 -3.7803 0
M  V30 12630 C 1151.41 -1.73747 -5.01982 0
M  V30 12631 C 1150.45 -2.89805 -5.39147 0
M  V30 12632 N 1149.58 -2.54686 -6.54278 0
M  V30 12633 H 1154.42 -2.13193 -2.08213 0
M  V30 12634 H 1151.96 -1.06056 -1.01934 0
M  V30 12635 H 1153.92 -0.706714 -4.11171 0
M  V30 12636 H 1152.55 0.0154449 -3.22796 0
M  V30 12637 H 1151.6 -2.38961 -2.95976 0
M  V30 12638 H 1152.91 -2.95963 -4.01506 0
M  V30 12639 H 1152.07 -1.51402 -5.87505 0
M  V30 12640 H 1150.81 -0.840553 -4.80402 0
M  V30 12641 H 1149.81 -3.12803 -4.52144 0
M  V30 12642 H 1151.04 -3.802 -5.62694 0
M  V30 12643 H 1148.98 -1.67513 -6.34252 0
M  V30 12644 H 1148.9 -3.35093 -6.77679 0
M  V30 12645 H 1150.17 -2.35725 -7.43003 0
M  V30 12646 N 1154.4 1.08748 -1.14068 0
M  V30 12647 C 1155.34 2.17667 -0.819981 0
M  V30 12648 C 1156.34 1.68207 0.200654 0
M  V30 12649 O 1157.54 1.79909 0.0571014 0
M  V30 12650 H 1153.92 0.710129 -0.247427 0
M  V30 12651 H 1155.89 2.41944 -1.74659 0
M  V30 12652 C 1154.64 3.46315 -0.309985 0
M  V30 12653 H 1153.96 3.84748 -1.08669 0
M  V30 12654 H 1155.4 4.23818 -0.124094 0
M  V30 12655 C 1153.86 3.22762 0.965724 0
M  V30 12656 O 1154.39 3.46034 2.04018 0
M  V30 12657 N 1152.6 2.76326 0.899576 0
M  V30 12658 H 1152.14 2.57588 0.0250598 0
M  V30 12659 H 1152.1 2.60945 1.75371 0
M  V30 12660 N 1155.87 0.935264 1.26849 0
M  V30 12661 C 1157.12 0.580548 1.94313 0
M  V30 12662 C 1157.45 -0.877205 1.73259 0
M  V30 12663 O 1156.73 -1.62679 1.06611 0
M  V30 12664 C 1157.01 0.916445 3.48243 0
M  V30 12665 C 1156.86 2.42851 3.78607 0
M  V30 12666 C 1158.18 0.427665 4.38017 0
M  V30 12667 H 1155.3 0.21239 0.705733 0
M  V30 12668 H 1157.94 1.16841 1.49827 0
M  V30 12669 H 1156.09 0.416169 3.86265 0
M  V30 12670 H 1157.77 3.00106 3.50335 0
M  V30 12671 H 1156.01 2.8745 3.24892 0
M  V30 12672 H 1156.68 2.61405 4.8618 0
M  V30 12673 H 1159.16 0.856525 4.07189 0
M  V30 12674 H 1158.03 0.691571 5.44526 0
M  V30 12675 H 1158.29 -0.672344 4.36958 0
M  V30 12676 N 1157.35 -1.41121 0.701616 0
M  V30 12677 C 1158.58 -2.05973 0.242896 0
M  V30 12678 C 1159 -1.52474 -1.10151 0
M  V30 12679 O 1158.36 -0.654224 -1.69085 0
M  V30 12680 C 1158.41 -3.59943 0.217614 0
M  V30 12681 O 1157.51 -4.04454 -0.805629 0
M  V30 12682 H 1156.85 -0.653581 0.117166 0
M  V30 12683 H 1159.38 -1.80777 0.958175 0
M  V30 12684 H 1159.39 -4.07969 0.0505267 0
M  V30 12685 H 1158.07 -3.98249 1.19877 0
M  V30 12686 H 1156.65 -3.6792 -0.607404 0
M  V30 12687 N 1158.83 -0.446794 -1.51134 0
M  V30 12688 C 1159.76 0.395804 -2.25757 0
M  V30 12689 C 1160.78 0.978178 -1.30137 0
M  V30 12690 O 1161.96 0.87071 -1.55823 0
M  V30 12691 C 1159.06 1.56665 -3.00515 0
M  V30 12692 C 1158.24 1.10146 -4.23305 0
M  V30 12693 C 1157.3 2.14352 -4.80562 0
M  V30 12694 O 1156.32 1.73401 -5.42145 0
M  V30 12695 N 1157.52 3.46932 -4.65423 0
M  V30 12696 H 1160.29 -0.243808 -2.98707 0
M  V30 12697 H 1157.85 -0.276205 -1.59527 0
M  V30 12698 H 1159.84 2.26019 -3.35704 0
M  V30 12699 H 1158.41 2.11142 -2.30516 0
M  V30 12700 H 1157.63 0.234644 -3.93501 0
M  V30 12701 H 1158.92 0.768185 -5.02968 0
M  V30 12702 H 1158.32 3.82929 -4.16391 0
M  V30 12703 H 1156.88 4.12154 -5.04948 0
M  V30 12704 N 1160.31 1.56586 -0.178487 0
M  V30 12705 C 1161.26 2.1491 0.761432 0
M  V30 12706 C 1162.24 1.08528 1.18788 0
M  V30 12707 O 1163.43 1.34633 1.14904 0
M  V30 12708 C 1160.56 2.79902 1.98771 0
M  V30 12709 C 1159.65 3.93452 1.58293 0
M  V30 12710 N 1160.04 4.97942 0.888124 0
M  V30 12711 C 1158.34 4.04745 1.87343 0
M  V30 12712 C 1159.04 5.7762 0.68772 0
M  V30 12713 N 1158.02 5.2947 1.23136 0
M  V30 12714 H 1161.82 2.93063 0.221693 0
M  V30 12715 H 1159.33 1.62385 0.0219283 0
M  V30 12716 H 1161.33 3.20067 2.67138 0
M  V30 12717 H 1159.99 2.03232 2.53233 0
M  V30 12718 H 1161 5.1502 0.545387 0
M  V30 12719 H 1157.68 3.39186 2.43432 0
M  V30 12720 H 1159.07 6.71759 0.13775 0
M  V30 12721 N 1161.79 -0.095206 1.57312 0
M  V30 12722 C 1162.72 -1.11627 2.05089 0
M  V30 12723 C 1163.7 -1.41782 0.939787 0
M  V30 12724 O 1164.88 -1.51813 1.21105 0
M  V30 12725 C 1162.01 -2.43618 2.47523 0
M  V30 12726 C 1160.97 -2.27872 3.62296 0
M  V30 12727 C 1160.29 -3.65038 3.90706 0
M  V30 12728 C 1161.59 -1.71936 4.93189 0
M  V30 12729 H 1163.29 -0.718795 2.90644 0
M  V30 12730 H 1160.83 -0.344315 1.39823 0
M  V30 12731 H 1162.79 -3.1532 2.79556 0
M  V30 12732 H 1161.51 -2.85301 1.58968 0
M  V30 12733 H 1160.17 -1.58615 3.3051 0
M  V30 12734 H 1159.82 -4.04249 2.99319 0
M  V30 12735 H 1159.52 -3.55349 4.67976 0
M  V30 12736 H 1161.04 -4.38208 4.25213 0
M  V30 12737 H 1162.45 -2.33479 5.23603 0
M  V30 12738 H 1160.85 -1.73006 5.74621 0
M  V30 12739 H 1161.92 -0.678789 4.80125 0
M  V30 12740 N 1163.26 -1.53291 -0.366026 0
M  V30 12741 C 1164.17 -1.82656 -1.47221 0
M  V30 12742 C 1165.19 -0.71491 -1.58635 0
M  V30 12743 O 1166.37 -1.00492 -1.74538 0
M  V30 12744 C 1163.43 -2.00995 -2.82492 0
M  V30 12745 C 1162.49 -3.24895 -2.8061 0
M  V30 12746 C 1161.73 -3.4235 -4.09429 0
M  V30 12747 O 1161.95 -2.6411 -5.05571 0
M  V30 12748 O 1160.88 -4.35702 -4.15268 0
M  V30 12749 H 1164.71 -2.76634 -1.2533 0
M  V30 12750 H 1162.29 -1.38665 -0.556084 0
M  V30 12751 H 1164.18 -2.14632 -3.62645 0
M  V30 12752 H 1162.85 -1.10207 -3.04362 0
M  V30 12753 H 1161.76 -3.16682 -1.99157 0
M  V30 12754 H 1163.09 -4.15604 -2.63694 0
M  V30 12755 N 1164.74 0.6258 -1.44643 0
M  V30 12756 C 1166.02 1.38439 -1.38181 0
M  V30 12757 C 1166.4 2.11056 -0.0431928 0
M  V30 12758 O 1165.75 2.06683 0.974383 0
M  V30 12759 C 1165.96 2.34639 -2.58352 0
M  V30 12760 C 1167.31 2.97807 -3.02649 0
M  V30 12761 O 1168.33 2.44963 -2.58595 0
M  V30 12762 O 1167.19 3.93682 -3.79048 0
M  V30 12763 H 1164.28 0.619852 -0.54746 0
M  V30 12764 H 1166.83 0.650409 -1.56741 0
M  V30 12765 H 1165.6 1.80116 -3.47382 0
M  V30 12766 H 1165.22 3.15446 -2.42032 0
M  V30 12767 N 1166.22 1.31629 0.866686 0
M  V30 12768 C 1167.15 1.22151 1.99001 0
M  V30 12769 C 1168.13 0.107972 1.69757 0
M  V30 12770 O 1169.32 0.293125 1.91975 0
M  V30 12771 C 1166.45 0.93144 3.34577 0
M  V30 12772 C 1165.4 2.0049 3.78137 0
M  V30 12773 C 1164.73 1.56747 5.11209 0
M  V30 12774 C 1166.03 3.41844 3.94892 0
M  V30 12775 H 1167.72 2.16132 2.0719 0
M  V30 12776 H 1165.27 1.04051 0.995463 0
M  V30 12777 H 1167.22 0.851719 4.12703 0
M  V30 12778 H 1165.94 -0.0440289 3.2657 0
M  V30 12779 H 1164.6 2.07457 3.02253 0
M  V30 12780 H 1164.25 0.579767 4.99648 0
M  V30 12781 H 1163.95 2.28562 5.41326 0
M  V30 12782 H 1165.47 1.50188 5.91841 0
M  V30 12783 H 1166.89 3.37534 4.63405 0
M  V30 12784 H 1165.29 4.11905 4.36411 0
M  V30 12785 H 1166.36 3.82389 2.98172 0
M  V30 12786 N 1167.7 -1.08142 1.14644 0
M  V30 12787 C 1168.61 -2.18675 0.849607 0
M  V30 12788 C 1169.63 -1.73158 -0.170983 0
M  V30 12789 O 1170.8 -2.014 0.0011579 0
M  V30 12790 C 1167.87 -3.45084 0.334305 0
M  V30 12791 C 1166.93 -4.05213 1.41779 0
M  V30 12792 C 1166.16 -5.25588 0.926981 0
M  V30 12793 O 1166.38 -5.69934 -0.230522 0
M  V30 12794 O 1165.32 -5.77183 1.70715 0
M  V30 12795 H 1169.14 -2.46542 1.77343 0
M  V30 12796 H 1166.73 -1.17328 0.924911 0
M  V30 12797 H 1168.61 -4.21367 0.0529893 0
M  V30 12798 H 1167.29 -3.18788 -0.561755 0
M  V30 12799 H 1166.19 -3.30507 1.7526 0
M  V30 12800 H 1167.53 -4.35764 2.28847 0
M  V30 12801 N 1169.18 -0.941978 -1.26351 0
M  V30 12802 C 1170.59 -0.644413 -1.46012 0
M  V30 12803 C 1170.79 0.802031 -1.84851 0
M  V30 12804 O 1169.85 1.57859 -1.9707 0
M  V30 12805 C 1171.16 -1.60652 -2.54188 0
M  V30 12806 C 1172.71 -1.6163 -2.68038 0
M  V30 12807 C 1173.19 -2.56573 -3.79387 0
M  V30 12808 N 1174.68 -2.54863 -3.8678 0
M  V30 12809 C 1175.41 -3.2501 -4.72394 0
M  V30 12810 N 1174.91 -4.04586 -5.6239 0
M  V30 12811 N 1176.7 -3.13958 -4.66247 0
M  V30 12812 H 1168.85 -1.8769 -0.994293 0
M  V30 12813 H 1171.11 -0.806621 -0.498063 0
M  V30 12814 H 1170.82 -2.63907 -2.32478 0
M  V30 12815 H 1170.69 -1.3592 -3.5186 0
M  V30 12816 H 1173.08 -0.59099 -2.89122 0
M  V30 12817 H 1173.16 -1.90417 -1.70807 0
M  V30 12818 H 1172.81 -3.59223 -3.59056 0
M  V30 12819 H 1172.74 -2.25077 -4.76076 0
M  V30 12820 H 1175.23 -1.97082 -3.22439 0
M  V30 12821 H 1175.54 -4.55061 -6.24612 0
M  V30 12822 H 1173.89 -4.08687 -5.62139 0
M  V30 12823 H 1177.08 -2.51273 -3.94943 0
M  V30 12824 H 1177.25 -3.68894 -5.32749 0
M  V30 12825 N 1170.66 1.40747 -0.709091 0
M  V30 12826 C 1171.6 2.30741 -0.0523584 0
M  V30 12827 C 1172.57 1.4784 0.757145 0
M  V30 12828 O 1173.76 1.76595 0.72242 0
M  V30 12829 C 1170.9 3.34 0.868203 0
M  V30 12830 C 1170.01 4.31972 0.0488686 0
M  V30 12831 C 1169.15 5.223 0.968311 0
M  V30 12832 C 1168.18 6.11934 0.142682 0
M  V30 12833 N 1167.32 6.947 1.01665 0
M  V30 12834 H 1172.16 2.86338 -0.825509 0
M  V30 12835 H 1169.7 1.41013 -0.418785 0
M  V30 12836 H 1171.66 3.92431 1.41611 0
M  V30 12837 H 1170.29 2.79921 1.6076 0
M  V30 12838 H 1169.34 3.75377 -0.616137 0
M  V30 12839 H 1170.65 4.95291 -0.590625 0
M  V30 12840 H 1169.8 5.85631 1.58498 0
M  V30 12841 H 1168.54 4.5924 1.64164 0
M  V30 12842 H 1167.55 5.47639 -0.486965 0
M  V30 12843 H 1168.77 6.77052 -0.527046 0
M  V30 12844 H 1166.72 6.34236 1.67575 0
M  V30 12845 H 1166.64 7.54759 0.433045 0
M  V30 12846 H 1167.9 7.62487 1.6197 0
M  V30 12847 N 1172.13 0.454803 1.50895 0
M  V30 12848 C 1173.38 -0.107367 2.01414 0
M  V30 12849 C 1173.7 -1.42243 1.34262 0
M  V30 12850 O 1174.9 -2.06858 1.75846 0
M  V30 12851 C 1173.36 -0.241872 3.59086 0
M  V30 12852 C 1172.97 1.06379 4.35187 0
M  V30 12853 C 1174.71 -0.756873 4.17698 0
M  V30 12854 C 1172.62 0.893973 5.84604 0
M  V30 12855 H 1171.55 -0.0439003 0.752721 0
M  V30 12856 H 1174.2 0.587225 1.7385 0
M  V30 12857 H 1172.58 -0.999873 3.83169 0
M  V30 12858 H 1173.75 1.83148 4.2284 0
M  V30 12859 H 1172.07 1.50865 3.88109 0
M  V30 12860 H 1174.67 -0.900697 5.27059 0
M  V30 12861 H 1175.01 -1.74397 3.7801 0
M  V30 12862 H 1175.54 -0.0567088 3.9776 0
M  V30 12863 H 1172.28 1.85395 6.28736 0
M  V30 12864 H 1171.8 0.166387 5.99569 0
M  V30 12865 H 1173.48 0.554084 6.44623 0
M  V30 12866 N 1173.61 -1.56489 0.186789 0
M  V30 12867 C 1174.54 -2.15911 -0.769104 0
M  V30 12868 C 1175.56 -1.11872 -1.18273 0
M  V30 12869 O 1176.75 -1.38999 -1.1199 0
M  V30 12870 C 1173.85 -2.69957 -2.04882 0
M  V30 12871 C 1173.02 -3.98812 -1.79631 0
M  V30 12872 C 1172.08 -4.37767 -2.9197 0
M  V30 12873 O 1171.1 -5.0535 -2.61935 0
M  V30 12874 N 1172.31 -4.0059 -4.20128 0
M  V30 12875 H 1175.07 -2.98561 -0.261007 0
M  V30 12876 H 1172.63 -1.61899 0.00453357 0
M  V30 12877 H 1174.62 -2.93006 -2.79158 0
M  V30 12878 H 1173.19 -1.91808 -2.46837 0
M  V30 12879 H 1172.41 -3.8398 -0.891776 0
M  V30 12880 H 1173.7 -4.82939 -1.60148 0
M  V30 12881 H 1173.1 -3.46213 -4.47385 0
M  V30 12882 H 1171.66 -4.28608 -4.91059 0
M  V30 12883 N 1175.09 0.086862 -1.5736 0
M  V30 12884 C 1176.02 1.10538 -2.05678 0
M  V30 12885 C 1177 1.41281 -0.947293 0
M  V30 12886 O 1178.19 1.51169 -1.21908 0
M  V30 12887 C 1175.32 2.42302 -2.48812 0
M  V30 12888 C 1174.27 2.25948 -3.63499 0
M  V30 12889 C 1173.6 3.62961 -3.92637 0
M  V30 12890 C 1174.9 1.69319 -4.94094 0
M  V30 12891 H 1176.59 0.703371 -2.91021 0
M  V30 12892 H 1174.14 0.336895 -1.40004 0
M  V30 12893 H 1176.09 3.13833 -2.81224 0
M  V30 12894 H 1174.81 2.84454 -1.60479 0
M  V30 12895 H 1173.47 1.5686 -3.31347 0
M  V30 12896 H 1173.12 4.02656 -3.01459 0
M  V30 12897 H 1172.82 3.52862 -4.69853 0
M  V30 12898 H 1174.34 4.35946 -4.27531 0
M  V30 12899 H 1175.76 2.30699 -5.24834 0
M  V30 12900 H 1174.15 1.69957 -5.7553 0
M  V30 12901 H 1175.22 0.653318 -4.80479 0
M  V30 12902 N 1176.57 1.53483 0.357892 0
M  V30 12903 C 1177.5 1.76757 1.4591 0
M  V30 12904 C 1178.51 0.648502 1.49326 0
M  V30 12905 O 1179.7 0.924932 1.52667 0
M  V30 12906 C 1176.8 1.83938 2.8464 0
M  V30 12907 C 1175.97 3.13683 3.04831 0
M  V30 12908 C 1175.03 3.12007 4.23719 0
M  V30 12909 O 1174.06 3.8578 4.18524 0
M  V30 12910 N 1175.26 2.33366 5.31527 0
M  V30 12911 H 1178.03 2.71778 1.2632 0
M  V30 12912 H 1175.59 1.52355 0.547673 0
M  V30 12913 H 1177.58 1.80285 3.62325 0
M  V30 12914 H 1176.15 0.961675 2.9744 0
M  V30 12915 H 1175.37 3.30576 2.14739 0
M  V30 12916 H 1176.66 3.99412 3.15194 0
M  V30 12917 H 1176.06 1.72954 5.38613 0
M  V30 12918 H 1174.61 2.35524 6.07759 0
M  V30 12919 N 1178.05 -0.61812 1.44973 0
M  V30 12920 C 1178.96 -1.7579 1.55355 0
M  V30 12921 C 1179.97 -1.68384 0.438512 0
M  V30 12922 O 1181.15 -1.88928 0.697715 0
M  V30 12923 C 1178.21 -3.1222 1.50729 0
M  V30 12924 C 1177.27 -3.3116 2.73188 0
M  V30 12925 C 1176.51 -4.61082 2.68774 0
M  V30 12926 O 1176.73 -5.42728 1.75507 0
M  V30 12927 O 1175.66 -4.82506 3.59821 0
M  V30 12928 H 1179.49 -1.69983 2.51674 0
M  V30 12929 H 1177.07 -0.780934 1.27365 0
M  V30 12930 H 1178.96 -3.93524 1.5072 0
M  V30 12931 H 1177.63 -3.18541 0.575587 0
M  V30 12932 H 1176.54 -2.49485 2.78762 0
M  V30 12933 H 1177.87 -3.29709 3.65449 0
M  V30 12934 N 1179.52 -1.32087 -0.859693 0
M  V30 12935 C 1180.8 -1.12984 -1.59668 0
M  V30 12936 C 1181.18 0.311661 -2.08787 0
M  V30 12937 O 1180.53 1.30746 -1.87397 0
M  V30 12938 C 1180.74 -2.15305 -2.74672 0
M  V30 12939 C 1182.09 -2.48371 -3.44379 0
M  V30 12940 O 1183.11 -2.13811 -2.84891 0
M  V30 12941 O 1181.97 -3.07594 -4.51717 0
M  V30 12942 H 1179.06 -0.435657 -0.702945 0
M  V30 12943 H 1181.61 -1.43601 -0.90426 0
M  V30 12944 H 1180.38 -3.12223 -2.35866 0
M  V30 12945 H 1180 -1.85653 -3.51594 0
M  V30 12946 N 1181 1.07532 -1.15215 0
M  V30 12947 C 1182.25 1.79474 -0.920439 0
M  V30 12948 C 1182.56 1.87593 0.553926 0
M  V30 12949 O 1183.77 2.56037 0.903169 0
M  V30 12950 C 1182.23 3.22509 -1.59738 0
M  V30 12951 C 1181.83 3.22596 -3.10863 0
M  V30 12952 C 1183.58 3.99072 -1.44714 0
M  V30 12953 C 1181.48 4.60273 -3.71352 0
M  V30 12954 H 1180.41 0.672625 -0.340722 0
M  V30 12955 H 1183.07 1.2071 -1.38208 0
M  V30 12956 H 1181.45 3.81454 -1.06342 0
M  V30 12957 H 1182.62 2.73306 -3.70999 0
M  V30 12958 H 1180.94 2.5953 -3.25627 0
M  V30 12959 H 1183.53 5.00823 -1.87299 0
M  V30 12960 H 1183.88 4.14428 -0.394386 0
M  V30 12961 H 1184.41 3.46617 -1.95195 0
M  V30 12962 H 1181.15 4.50122 -4.76519 0
M  V30 12963 H 1180.67 5.09809 -3.15998 0
M  V30 12964 H 1182.35 5.29243 -3.7217 0
M  V30 12965 N 1182.48 0.948665 1.2585 0
M  V30 12966 C 1183.43 0.455115 2.28104 0
M  V30 12967 C 1184.42 -0.471508 1.62706 0
M  V30 12968 O 1185.63 -0.348895 1.76586 0
M  V30 12969 H 1182 0.128659 0.740912 0
M  V30 12970 H 1183.97 1.32991 2.67125 0
M  V30 12971 C 1182.72 -0.25729 3.46747 0
M  V30 12972 H 1182.05 0.44658 3.97298 0
M  V30 12973 H 1183.49 -0.566736 4.20195 0
M  V30 12974 C 1181.95 -1.47772 3.02762 0
M  V30 12975 O 1182.48 -2.57571 3.08253 0
M  V30 12976 N 1180.68 -1.33694 2.5802 0
M  V30 12977 H 1180.23 -0.443595 2.53752 0
M  V30 12978 H 1180.19 -2.1547 2.28954 0
M  V30 12979 N 1183.96 -1.40369 0.716545 0
M  V30 12980 C 1184.92 -2.29083 0.0733105 0
M  V30 12981 C 1185.92 -1.45415 -0.686378 0
M  V30 12982 O 1187.11 -1.66316 -0.518139 0
M  V30 12983 C 1184.24 -3.28639 -0.906032 0
M  V30 12984 H 1185.44 -2.87464 0.85467 0
M  V30 12985 H 1182.99 -1.48706 0.481256 0
M  V30 12986 H 1183.72 -2.75279 -1.71441 0
M  V30 12987 H 1183.51 -3.90405 -0.364163 0
M  V30 12988 H 1185 -3.95066 -1.35324 0
M  V30 12989 N 1185.44 -0.462799 -1.50652 0
M  V30 12990 C 1186.67 0.0928413 -2.06391 0
M  V30 12991 C 1187.07 1.34791 -1.3277 0
M  V30 12992 O 1186.42 1.79555 -0.388048 0
M  V30 12993 C 1186.48 0.45517 -3.56607 0
M  V30 12994 C 1186.14 -0.696698 -4.51658 0
M  V30 12995 C 1187.14 -1.57633 -4.95427 0
M  V30 12996 C 1184.83 -0.884669 -4.94448 0
M  V30 12997 C 1186.82 -2.62841 -5.80684 0
M  V30 12998 C 1184.51 -1.93998 -5.79489 0
M  V30 12999 C 1185.5 -2.81022 -6.22508 0
M  V30 13000 O 1185.19 -3.84738 -7.05856 0
M  V30 13001 H 1184.92 -3.18898e-05 -0.676 0
M  V30 13002 H 1187.48 -0.648161 -1.94905 0
M  V30 13003 H 1185.71 1.24924 -3.65966 0
M  V30 13004 H 1187.4 0.944923 -3.94748 0
M  V30 13005 H 1188.16 -1.44276 -4.63044 0
M  V30 13006 H 1184.04 -0.216807 -4.6049 0
M  V30 13007 H 1187.59 -3.30797 -6.14182 0
M  V30 13008 H 1183.48 -2.07366 -6.11285 0
M  V30 13009 H 1184.25 -3.81626 -7.24088 0
M  V30 13010 N 1186.91 1.56388 -0.195085 0
M  V30 13011 C 1188.16 1.9758 0.443686 0
M  V30 13012 C 1188.49 1.08196 1.61629 0
M  V30 13013 O 1187.74 0.121061 1.95325 0
M  V30 13014 C 1188.04 3.44651 0.946051 0
M  V30 13015 C 1187.71 4.50758 -0.11318 0
M  V30 13016 C 1186.37 4.79499 -0.404229 0
M  V30 13017 C 1188.72 5.14534 -0.830899 0
M  V30 13018 C 1186.05 5.69307 -1.41797 0
M  V30 13019 C 1188.4 6.05438 -1.83379 0
M  V30 13020 C 1187.07 6.32535 -2.13204 0
M  V30 13021 H 1186.34 0.722995 0.162356 0
M  V30 13022 H 1188.98 1.8926 -0.292049 0
M  V30 13023 H 1187.29 3.50042 1.76006 0
M  V30 13024 H 1188.99 3.73878 1.44969 0
M  V30 13025 H 1185.58 4.28421 0.123833 0
M  V30 13026 H 1189.76 4.92421 -0.61927 0
M  V30 13027 H 1185.02 5.88575 -1.65496 0
M  V30 13028 H 1189.19 6.53915 -2.39516 0
M  V30 13029 H 1186.82 7.01924 -2.91902 0
M  V30 13030 N 1188.39 -0.0785156 1.57404 0
M  V30 13031 C 1189.34 -1.09402 2.03224 0
M  V30 13032 C 1190.31 -1.38849 0.911596 0
M  V30 13033 O 1191.49 -1.50031 1.17878 0
M  V30 13034 C 1188.63 -2.40444 2.47549 0
M  V30 13035 C 1187.75 -2.17585 3.73203 0
M  V30 13036 C 1186.88 -3.42143 4.06339 0
M  V30 13037 C 1185.92 -3.14619 5.25054 0
M  V30 13038 N 1185.06 -4.31489 5.5386 0
M  V30 13039 H 1189.9 -0.696307 2.89751 0
M  V30 13040 H 1187.44 -0.332261 1.43298 0
M  V30 13041 H 1189.39 -3.16944 2.71298 0
M  V30 13042 H 1188.02 -2.78031 1.64009 0
M  V30 13043 H 1187.08 -1.3181 3.56834 0
M  V30 13044 H 1188.39 -1.93249 4.59844 0
M  V30 13045 H 1187.54 -4.27042 4.30953 0
M  V30 13046 H 1186.28 -3.69549 3.18253 0
M  V30 13047 H 1185.29 -2.28116 5.00243 0
M  V30 13048 H 1186.51 -2.88543 6.14752 0
M  V30 13049 H 1184.46 -4.58939 4.68734 0
M  V30 13050 H 1184.37 -4.10403 6.34906 0
M  V30 13051 H 1185.64 -5.17404 5.83021 0
M  V30 13052 N 1189.87 -1.5367 -0.349747 0
M  V30 13053 C 1190.8 -1.77528 -1.4497 0
M  V30 13054 C 1191.82 -0.656412 -1.4898 0
M  V30 13055 O 1193 -0.933016 -1.52174 0
M  V30 13056 C 1190.1 -1.85445 -2.8366 0
M  V30 13057 C 1189.28 -3.15295 -3.03163 0
M  V30 13058 C 1188.34 -3.1425 -4.22059 0
M  V30 13059 O 1187.36 -3.87994 -4.16472 0
M  V30 13060 N 1188.56 -2.36181 -5.30282 0
M  V30 13061 H 1191.33 -2.72444 -1.24877 0
M  V30 13062 H 1188.89 -1.52644 -0.539586 0
M  V30 13063 H 1190.88 -1.82204 -3.61364 0
M  V30 13064 H 1189.45 -0.977436 -2.96926 0
M  V30 13065 H 1188.67 -3.31711 -2.12983 0
M  V30 13066 H 1189.96 -4.01078 -3.13072 0
M  V30 13067 H 1189.36 -1.75808 -5.37688 0
M  V30 13068 H 1187.92 -2.38744 -6.06502 0
M  V30 13069 N 1191.35 0.610423 -1.45298 0
M  V30 13070 C 1192.28 1.73207 -1.56594 0
M  V30 13071 C 1193.26 1.64893 -0.417651 0
M  V30 13072 O 1194.44 1.83336 -0.64043 0
M  V30 13073 C 1191.57 3.11803 -1.52959 0
M  V30 13074 C 1190.53 3.34925 -2.66475 0
M  V30 13075 C 1189.85 4.73764 -2.47894 0
M  V30 13076 C 1191.15 3.25456 -4.08504 0
M  V30 13077 H 1192.85 1.6401 -2.50482 0
M  V30 13078 H 1190.39 0.787621 -1.20551 0
M  V30 13079 H 1192.35 3.90065 -1.59458 0
M  V30 13080 H 1191.07 3.21833 -0.55599 0
M  V30 13081 H 1189.73 2.59051 -2.59399 0
M  V30 13082 H 1189.38 4.80524 -1.4868 0
M  V30 13083 H 1189.08 4.90191 -3.24016 0
M  V30 13084 H 1190.6 5.54231 -2.56243 0
M  V30 13085 H 1192.02 3.93597 -4.16839 0
M  V30 13086 H 1190.41 3.53414 -4.84994 0
M  V30 13087 H 1191.48 2.22939 -4.30612 0
M  V30 13088 N 1192.83 1.32541 0.852676 0
M  V30 13089 C 1194.1 1.1383 1.59067 0
M  V30 13090 C 1194.48 -0.300584 2.08949 0
M  V30 13091 O 1193.83 -1.29751 1.88088 0
M  V30 13092 C 1194.04 2.16758 2.73527 0
M  V30 13093 C 1195.39 2.50194 3.43057 0
M  V30 13094 O 1196.41 2.15319 2.83754 0
M  V30 13095 O 1195.27 3.09985 4.50079 0
M  V30 13096 H 1192.37 0.439379 0.700625 0
M  V30 13097 H 1194.91 1.44078 0.896632 0
M  V30 13098 H 1193.68 3.13469 2.34207 0
M  V30 13099 H 1193.31 1.87515 3.50605 0
M  V30 13100 N 1194.3 -1.0692 1.15784 0
M  V30 13101 C 1195.21 -2.17762 0.872753 0
M  V30 13102 C 1196.23 -1.73329 -0.152608 0
M  V30 13103 O 1197.41 -2.01387 0.022519 0
M  V30 13104 C 1194.47 -3.4471 0.370887 0
M  V30 13105 C 1193.53 -4.03686 1.46069 0
M  V30 13106 C 1192.77 -5.24575 0.982675 0
M  V30 13107 O 1192.99 -5.70146 -0.17006 0
M  V30 13108 O 1191.92 -5.7534 1.76828 0
M  V30 13109 H 1195.75 -2.44648 1.79948 0
M  V30 13110 H 1193.33 -1.1634 0.937303 0
M  V30 13111 H 1195.22 -4.21287 0.0976779 0
M  V30 13112 H 1193.89 -3.19366 -0.527912 0
M  V30 13113 H 1192.8 -3.28629 1.78756 0
M  V30 13114 H 1194.13 -4.33312 2.33456 0
M  V30 13115 N 1195.78 -0.955326 -1.25345 0
M  V30 13116 C 1196.71 -0.494145 -2.28211 0
M  V30 13117 C 1197.69 0.459875 -1.63766 0
M  V30 13118 O 1198.88 0.358679 -1.90859 0
M  V30 13119 C 1196.01 0.228228 -3.46549 0
M  V30 13120 C 1194.96 -0.640601 -4.23179 0
M  V30 13121 C 1194.29 0.212553 -5.34277 0
M  V30 13122 C 1195.59 -1.91906 -4.85767 0
M  V30 13123 H 1197.28 -1.35391 -2.67039 0
M  V30 13124 H 1194.83 -0.652462 -1.2837 0
M  V30 13125 H 1196.78 0.561995 -4.17636 0
M  V30 13126 H 1195.51 1.12224 -3.06714 0
M  V30 13127 H 1194.16 -0.957462 -3.53876 0
M  V30 13128 H 1193.81 1.10634 -4.90682 0
M  V30 13129 H 1193.51 -0.365473 -5.86462 0
M  V30 13130 H 1195.04 0.541271 -6.08196 0
M  V30 13131 H 1196.45 -1.65165 -5.48993 0
M  V30 13132 H 1194.85 -2.44279 -5.48131 0
M  V30 13133 H 1195.92 -2.62173 -4.07914 0
M  V30 13134 N 1197.26 1.39987 -0.723979 0
M  V30 13135 C 1198.17 2.3447 -0.0780936 0
M  V30 13136 C 1199.19 1.57744 0.734368 0
M  V30 13137 O 1200.36 1.90091 0.665385 0
M  V30 13138 C 1197.43 3.36705 0.826492 0
M  V30 13139 C 1196.49 4.293 0.00303036 0
M  V30 13140 C 1195.72 5.26651 0.864535 0
M  V30 13141 O 1195.95 5.30194 2.10357 0
M  V30 13142 O 1194.88 6.01157 0.299057 0
M  V30 13143 H 1198.71 2.91338 -0.857646 0
M  V30 13144 H 1196.29 1.41324 -0.484536 0
M  V30 13145 H 1198.17 3.9938 1.34439 0
M  V30 13146 H 1196.85 2.82237 1.58505 0
M  V30 13147 H 1195.75 3.69883 -0.560136 0
M  V30 13148 H 1197.09 4.86942 -0.717494 0
M  V30 13149 N 1198.74 0.470782 1.50404 0
M  V30 13150 C 1199.69 -0.32355 2.28521 0
M  V30 13151 C 1200.66 -0.987472 1.3356 0
M  V30 13152 O 1201.84 -0.999969 1.62497 0
M  V30 13153 C 1198.98 -1.39977 3.15437 0
M  V30 13154 C 1198.09 -0.750656 4.25428 0
M  V30 13155 C 1197.23 -1.80474 4.99602 0
M  V30 13156 C 1196.27 -1.13586 6.01469 0
M  V30 13157 N 1195.41 -2.13279 6.68922 0
M  V30 13158 H 1200.25 0.348902 2.9595 0
M  V30 13159 H 1197.78 0.183908 1.45946 0
M  V30 13160 H 1199.74 -2.0354 3.6418 0
M  V30 13161 H 1198.37 -2.04139 2.50054 0
M  V30 13162 H 1197.42 -0.00247092 3.804 0
M  V30 13163 H 1198.73 -0.222638 4.98303 0
M  V30 13164 H 1197.89 -2.51619 5.52062 0
M  V30 13165 H 1196.63 -2.36657 4.26433 0
M  V30 13166 H 1195.63 -0.410042 5.48269 0
M  V30 13167 H 1196.86 -0.580935 6.76611 0
M  V30 13168 H 1194.8 -2.68479 5.98544 0
M  V30 13169 H 1194.72 -1.65461 7.37671 0
M  V30 13170 H 1195.99 -2.83804 7.26 0
M  V30 13171 N 1200.22 -1.56282 0.203376 0
M  V30 13172 C 1201.46 -1.98105 -0.433844 0
M  V30 13173 C 1201.8 -1.09044 -1.60695 0
M  V30 13174 O 1201.07 -0.144193 -1.93965 0
M  V30 13175 C 1201.35 -3.4903 -0.885992 0
M  V30 13176 C 1201.21 -4.48867 0.289501 0
M  V30 13177 C 1202.53 -4.03871 -1.7486 0
M  V30 13178 H 1199.65 -0.720252 -0.156224 0
M  V30 13179 H 1202.29 -1.87681 0.295963 0
M  V30 13180 H 1200.44 -3.58045 -1.50785 0
M  V30 13181 H 1202.11 -4.51883 0.92734 0
M  V30 13182 H 1200.35 -4.23495 0.939934 0
M  V30 13183 H 1201.02 -5.51956 -0.0695128 0
M  V30 13184 H 1203.5 -3.97688 -1.22407 0
M  V30 13185 H 1202.38 -5.09827 -2.03391 0
M  V30 13186 H 1202.64 -3.49637 -2.70567 0
M  V30 13187 N 1201.7 0.070167 -1.57444 0
M  V30 13188 C 1202.94 0.767842 -1.86513 0
M  V30 13189 C 1203.26 1.78659 -0.796257 0
M  V30 13190 O 1204.46 2.53395 -0.974845 0
M  V30 13191 C 1202.92 1.41654 -3.30851 0
M  V30 13192 C 1202.53 0.436273 -4.45871 0
M  V30 13193 C 1204.27 2.09649 -3.69117 0
M  V30 13194 C 1202.18 1.09098 -5.8125 0
M  V30 13195 H 1201.11 0.290519 -0.695784 0
M  V30 13196 H 1203.76 0.0211697 -1.83488 0
M  V30 13197 H 1202.14 2.21153 -3.28493 0
M  V30 13198 H 1203.32 -0.329022 -4.59624 0
M  V30 13199 H 1201.63 -0.139314 -4.16167 0
M  V30 13200 H 1204.23 2.59411 -4.67558 0
M  V30 13201 H 1204.57 2.89663 -2.99 0
M  V30 13202 H 1205.1 1.36979 -3.73472 0
M  V30 13203 H 1201.84 0.331128 -6.54663 0
M  V30 13204 H 1201.36 1.8271 -5.71294 0
M  V30 13205 H 1203.04 1.61034 -6.2664 0
M  V30 13206 N 1203.17 1.53854 0.341593 0
M  V30 13207 C 1204.12 1.81979 1.41959 0
M  V30 13208 C 1205.09 0.665616 1.5218 0
M  V30 13209 O 1206.28 0.910246 1.67688 0
M  V30 13210 C 1203.42 2.03681 2.78583 0
M  V30 13211 C 1202.53 3.31389 2.77137 0
M  V30 13212 C 1201.66 3.43148 4.05491 0
M  V30 13213 C 1200.7 4.64799 3.98282 0
M  V30 13214 N 1199.84 4.73581 5.18329 0
M  V30 13215 H 1204.68 2.73953 1.17275 0
M  V30 13216 H 1202.22 1.35689 0.568062 0
M  V30 13217 H 1204.17 2.14253 3.57983 0
M  V30 13218 H 1202.8 1.15017 3.01614 0
M  V30 13219 H 1201.86 3.29649 1.89832 0
M  V30 13220 H 1203.17 4.20885 2.67689 0
M  V30 13221 H 1202.32 3.53163 4.93316 0
M  V30 13222 H 1201.06 2.51712 4.17723 0
M  V30 13223 H 1200.07 4.54859 3.08842 0
M  V30 13224 H 1201.29 5.57601 3.87631 0
M  V30 13225 H 1199.24 3.85055 5.31102 0
M  V30 13226 H 1199.15 5.57016 5.11145 0
M  V30 13227 H 1200.42 4.87908 6.0792 0
M  V30 13228 N 1204.65 -0.602709 1.4562 0
M  V30 13229 C 1205.88 -1.3881 1.53426 0
M  V30 13230 C 1206.29 -1.88046 0.16851 0
M  V30 13231 O 1205.65 -1.62493 -0.830791 0
M  V30 13232 C 1205.7 -2.58927 2.52268 0
M  V30 13233 O 1205.42 -2.11735 3.83536 0
M  V30 13234 C 1206.92 -3.51728 2.69819 0
M  V30 13235 H 1204.14 -0.424744 0.519455 0
M  V30 13236 H 1206.69 -0.73459 1.90851 0
M  V30 13237 H 1204.84 -3.20309 2.17902 0
M  V30 13238 H 1205.26 -2.89814 4.37159 0
M  V30 13239 H 1206.73 -4.32542 3.42945 0
M  V30 13240 H 1207.21 -4.02383 1.76024 0
M  V30 13241 H 1207.81 -2.96196 3.05202 0
M  V30 13242 N 1206.13 -1.32992 -0.845635 0
M  V30 13243 C 1207.08 -1.22682 -1.95494 0
M  V30 13244 C 1208.05 -0.106942 -1.65755 0
M  V30 13245 O 1209.23 -0.28405 -1.88674 0
M  V30 13246 C 1206.37 -0.965068 -3.31331 0
M  V30 13247 C 1205.48 -2.17058 -3.7351 0
M  V30 13248 C 1204.62 -1.84355 -4.98183 0
M  V30 13249 C 1203.66 -3.01176 -5.32878 0
M  V30 13250 N 1202.8 -2.68506 -6.48729 0
M  V30 13251 H 1207.64 -2.17562 -2.03644 0
M  V30 13252 H 1205.17 -1.08194 -0.996613 0
M  V30 13253 H 1207.13 -0.793771 -4.09579 0
M  V30 13254 H 1205.76 -0.0530285 -3.22756 0
M  V30 13255 H 1204.81 -2.45185 -2.90841 0
M  V30 13256 H 1206.12 -3.04413 -3.95138 0
M  V30 13257 H 1205.28 -1.6383 -5.84162 0
M  V30 13258 H 1204.02 -0.942264 -4.78511 0
M  V30 13259 H 1203.02 -3.22323 -4.45408 0
M  V30 13260 H 1204.25 -3.9205 -5.54503 0
M  V30 13261 H 1202.19 -1.80929 -6.30556 0
M  V30 13262 H 1202.11 -3.49392 -6.70419 0
M  V30 13263 H 1203.38 -2.51432 -7.37836 0
M  V30 13264 N 1207.61 1.06304 -1.1635 0
M  V30 13265 C 1208.52 2.17296 -0.884289 0
M  V30 13266 C 1209.53 1.73408 0.143414 0
M  V30 13267 O 1210.71 2.01373 -0.0331987 0
M  V30 13268 C 1207.77 3.44509 -0.389163 0
M  V30 13269 C 1206.84 4.02906 -1.48208 0
M  V30 13270 C 1206.07 5.24047 -1.01048 0
M  V30 13271 O 1206.29 5.70229 0.139821 0
M  V30 13272 O 1205.23 5.74394 -1.79876 0
M  V30 13273 H 1209.05 2.4369 -1.81243 0
M  V30 13274 H 1206.64 1.15841 -0.943459 0
M  V30 13275 H 1208.52 4.21229 -0.120018 0
M  V30 13276 H 1207.19 3.19642 0.510968 0
M  V30 13277 H 1206.1 3.27677 -1.80496 0
M  V30 13278 H 1207.43 4.32068 -2.35751 0
M  V30 13279 N 1209.09 0.96196 1.24836 0
M  V30 13280 C 1210 0.494876 2.29321 0
M  V30 13281 C 1211.01 -0.441363 1.68309 0
M  V30 13282 O 1212.19 -0.315814 1.98908 0
M  V30 13283 C 1209.25 -0.212944 3.46045 0
M  V30 13284 C 1208.31 0.762411 4.22476 0
M  V30 13285 C 1207.55 0.0882756 5.33627 0
M  V30 13286 O 1207.77 -1.12459 5.59204 0
M  V30 13287 O 1206.7 0.777529 5.96857 0
M  V30 13288 H 1210.53 1.36333 2.7138 0
M  V30 13289 H 1208.11 0.728738 1.30421 0
M  V30 13290 H 1210 -0.610805 4.1695 0
M  V30 13291 H 1208.67 -1.05645 3.05975 0
M  V30 13292 H 1207.58 1.21062 3.5397 0
M  V30 13293 H 1208.91 1.57416 4.66349 0
M  V30 13294 N 1210.56 -1.39601 0.731392 0
M  V30 13295 C 1211.81 -2.01364 0.287048 0
M  V30 13296 C 1212.16 -1.56991 -1.11227 0
M  V30 13297 O 1211.46 -0.787202 -1.74682 0
M  V30 13298 C 1211.65 -3.55934 0.323352 0
M  V30 13299 C 1211.48 -4.15314 1.72466 0
M  V30 13300 C 1210.25 -4.48059 2.33605 0
M  V30 13301 C 1212.45 -4.39098 2.67764 0
M  V30 13302 N 1210.43 -4.9292 3.65927 0
M  V30 13303 C 1211.8 -4.86124 3.84816 0
M  V30 13304 C 1213.86 -4.2116 2.65572 0
M  V30 13305 C 1212.56 -5.17095 5.00005 0
M  V30 13306 C 1214.59 -4.53242 3.79902 0
M  V30 13307 C 1213.95 -5.00471 4.95689 0
M  V30 13308 H 1210.05 -0.76724 0.151217 0
M  V30 13309 H 1212.63 -1.6958 0.956588 0
M  V30 13310 H 1210.8 -3.87114 -0.315819 0
M  V30 13311 H 1212.53 -4.04461 -0.1392 0
M  V30 13312 H 1209.29 -4.35734 1.85561 0
M  V30 13313 H 1209.71 -5.19713 4.33851 0
M  V30 13314 H 1214.35 -3.83852 1.77251 0
M  V30 13315 H 1212.07 -5.5331 5.8896 0
M  V30 13316 H 1215.66 -4.40988 3.795 0
M  V30 13317 H 1214.54 -5.24826 5.8269 0
M  V30 13318 N 1212.04 -0.478751 -1.50152 0
M  V30 13319 C 1213.29 0.073694 -2.02666 0
M  V30 13320 C 1213.62 1.38679 -1.35947 0
M  V30 13321 O 1212.9 1.88286 -0.4877 0
M  V30 13322 C 1213.18 0.249516 -3.59235 0
M  V30 13323 C 1213.03 -1.08514 -4.36514 0
M  V30 13324 C 1214.35 1.00053 -4.28576 0
M  V30 13325 H 1211.47 0.0253082 -0.736565 0
M  V30 13326 H 1214.11 -0.625834 -1.79397 0
M  V30 13327 H 1212.26 0.845343 -3.79192 0
M  V30 13328 H 1213.93 -1.71814 -4.28109 0
M  V30 13329 H 1212.18 -1.67992 -3.99952 0
M  V30 13330 H 1212.85 -0.915676 -5.44352 0
M  V30 13331 H 1215.32 0.495422 -4.1314 0
M  V30 13332 H 1214.2 1.09236 -5.37921 0
M  V30 13333 H 1214.46 2.03896 -3.92274 0
M  V30 13334 N 1213.52 1.56172 -0.211661 0
M  V30 13335 C 1214.47 2.19849 0.702515 0
M  V30 13336 C 1215.44 1.15091 1.19763 0
M  V30 13337 O 1216.62 1.43408 1.25852 0
M  V30 13338 C 1213.76 2.87468 1.90935 0
M  V30 13339 C 1212.88 4.06794 1.45406 0
M  V30 13340 C 1212.01 4.62224 2.61769 0
M  V30 13341 C 1211.05 5.73872 2.12926 0
M  V30 13342 N 1210.19 6.23635 3.22526 0
M  V30 13343 H 1215.03 2.97608 0.152777 0
M  V30 13344 H 1212.56 1.46962 0.0636596 0
M  V30 13345 H 1214.52 3.24851 2.61777 0
M  V30 13346 H 1213.15 2.12244 2.43213 0
M  V30 13347 H 1212.2 3.74962 0.640907 0
M  V30 13348 H 1213.52 4.87497 1.05584 0
M  V30 13349 H 1212.67 5.01999 3.40709 0
M  V30 13350 H 1211.41 3.80662 3.04873 0
M  V30 13351 H 1210.41 5.33609 1.32445 0
M  V30 13352 H 1211.64 6.57262 1.70833 0
M  V30 13353 H 1209.58 5.44991 3.65131 0
M  V30 13354 H 1209.5 6.99435 2.86926 0
M  V30 13355 H 1210.77 6.68066 4.01631 0
M  V30 13356 N 1215 -0.0618163 1.57479 0
M  V30 13357 C 1215.95 -1.07953 2.00824 0
M  V30 13358 C 1216.93 -1.33916 0.891924 0
M  V30 13359 O 1218.12 -1.3405 1.15584 0
M  V30 13360 C 1215.25 -2.39041 2.46403 0
M  V30 13361 C 1214.34 -2.16309 3.64789 0
M  V30 13362 N 1214.73 -1.63534 4.78634 0
M  V30 13363 C 1213.03 -2.46739 3.71531 0
M  V30 13364 C 1213.73 -1.55849 5.60434 0
M  V30 13365 N 1212.71 -2.02255 5.04573 0
M  V30 13366 H 1216.51 -0.66497 2.86278 0
M  V30 13367 H 1214.02 -0.268722 1.60161 0
M  V30 13368 H 1216.02 -3.12722 2.757 0
M  V30 13369 H 1214.68 -2.81204 1.6234 0
M  V30 13370 H 1215.69 -1.32258 5.00728 0
M  V30 13371 H 1212.37 -2.92201 2.98203 0
M  V30 13372 H 1213.76 -1.15814 6.61843 0
M  V30 13373 N 1216.48 -1.54033 -0.333429 0
M  V30 13374 C 1217.7 -1.75716 -1.09232 0
M  V30 13375 C 1218.12 -0.501076 -1.82029 0
M  V30 13376 O 1217.48 0.527772 -1.74702 0
M  V30 13377 C 1217.53 -2.9439 -2.09802 0
M  V30 13378 O 1217.25 -4.15141 -1.39963 0
M  V30 13379 C 1218.75 -3.28206 -2.97987 0
M  V30 13380 H 1215.97 -0.586859 -0.325326 0
M  V30 13381 H 1218.51 -2.0089 -0.382555 0
M  V30 13382 H 1216.67 -2.71518 -2.76327 0
M  V30 13383 H 1217.08 -4.81826 -2.0723 0
M  V30 13384 H 1218.56 -4.14568 -3.64469 0
M  V30 13385 H 1219.03 -2.44944 -3.64553 0
M  V30 13386 H 1219.64 -3.5312 -2.37036 0
M  V30 13387 N 1217.95 0.594978 -1.45938 0
M  V30 13388 C 1219.18 1.38482 -1.54394 0
M  V30 13389 C 1219.6 1.87222 -0.181563 0
M  V30 13390 O 1218.96 1.60869 0.836119 0
M  V30 13391 C 1219.01 2.55676 -2.54287 0
M  V30 13392 O 1218.11 3.5672 -2.06941 0
M  V30 13393 H 1217.46 0.412918 -0.519995 0
M  V30 13394 H 1219.99 0.722899 -1.91404 0
M  V30 13395 H 1220 3.02756 -2.73501 0
M  V30 13396 H 1218.67 2.19552 -3.53228 0
M  V30 13397 H 1217.25 3.16204 -1.97661 0
M  V30 13398 N 1219.43 1.33438 0.838571 0
M  V30 13399 C 1220.68 1.24259 1.58879 0
M  V30 13400 C 1220.99 -0.189957 1.94675 0
M  V30 13401 O 1222.2 -0.40376 2.68481 0
M  V30 13402 C 1220.66 2.1773 2.86569 0
M  V30 13403 C 1220.26 3.66156 2.58135 0
M  V30 13404 C 1222.01 2.17424 3.64591 0
M  V30 13405 C 1219.92 4.5154 3.81923 0
M  V30 13406 H 1218.85 0.461534 0.59624 0
M  V30 13407 H 1221.5 1.58504 0.924588 0
M  V30 13408 H 1219.88 1.76418 3.54532 0
M  V30 13409 H 1221.05 4.1591 1.98382 0
M  V30 13410 H 1219.37 3.68754 1.93416 0
M  V30 13411 H 1221.96 2.78446 4.56478 0
M  V30 13412 H 1222.31 1.16939 3.99539 0
M  V30 13413 H 1222.84 2.571 3.03553 0
M  V30 13414 H 1219.58 5.52902 3.52107 0
M  V30 13415 H 1219.1 4.06529 4.41015 0
M  V30 13416 H 1220.78 4.65359 4.495 0
M  V30 13417 N 1220.91 -1.05686 1.16912 0
M  V30 13418 C 1222.14 -1.82821 0.979348 0
M  V30 13419 C 1222.56 -1.82196 -0.467575 0
M  V30 13420 O 1221.92 -1.22727 -1.33445 0
M  V30 13421 C 1221.97 -3.2705 1.51891 0
M  V30 13422 O 1221.07 -4.05899 0.729341 0
M  V30 13423 H 1220.41 -0.565455 0.348076 0
M  V30 13424 H 1222.94 -1.33211 1.55293 0
M  V30 13425 H 1222.95 -3.77859 1.53904 0
M  V30 13426 H 1221.63 -3.26819 2.5722 0
M  V30 13427 H 1220.2 -3.64646 0.780221 0
M  V30 13428 N 1222.39 -0.968567 -1.24324 0
M  V30 13429 C 1223.3 -0.50703 -2.29055 0
M  V30 13430 C 1224.31 0.432431 -1.68541 0
M  V30 13431 O 1225.49 0.30526 -1.99073 0
M  V30 13432 C 1222.56 0.194589 -3.46153 0
M  V30 13433 C 1221.62 -0.784805 -4.22066 0
M  V30 13434 C 1220.85 -0.116574 -5.33573 0
M  V30 13435 O 1221.07 1.09492 -5.59792 0
M  V30 13436 O 1220.01 -0.809171 -5.96436 0
M  V30 13437 H 1223.83 -1.3777 -2.70653 0
M  V30 13438 H 1221.42 -0.735645 -1.30033 0
M  V30 13439 H 1223.3 0.588684 -4.17268 0
M  V30 13440 H 1221.97 1.04021 -3.06531 0
M  V30 13441 H 1220.88 -1.22938 -3.53323 0
M  V30 13442 H 1222.21 -1.59887 -4.65507 0
M  V30 13443 N 1223.87 1.39211 -0.738786 0
M  V30 13444 C 1225.09 2.05256 -0.297421 0
M  V30 13445 C 1225.52 1.55341 1.06069 0
M  V30 13446 O 1224.87 0.698823 1.67291 0
M  V30 13447 C 1224.92 3.59239 -0.312969 0
M  V30 13448 O 1224.03 4.06448 0.698112 0
M  V30 13449 H 1223.37 0.650245 -0.134454 0
M  V30 13450 H 1225.9 1.78173 -1.00577 0
M  V30 13451 H 1225.91 4.07691 -0.158675 0
M  V30 13452 H 1224.58 3.94931 -1.30394 0
M  V30 13453 H 1223.16 3.69401 0.509643 0
M  V30 13454 N 1225.34 0.486708 1.49896 0
M  V30 13455 C 1226.57 -0.0622999 2.07306 0
M  V30 13456 C 1226.99 -1.31353 1.3464 0
M  V30 13457 O 1226.35 -1.76861 0.398752 0
M  V30 13458 C 1226.4 -0.313481 3.59235 0
M  V30 13459 O 1225.5 -1.39101 3.88233 0
M  V30 13460 H 1224.85 0.0198885 0.663702 0
M  V30 13461 H 1227.38 0.682232 1.92891 0
M  V30 13462 H 1227.39 -0.549302 4.04285 0
M  V30 13463 H 1226.06 0.600767 4.11538 0
M  V30 13464 H 1224.64 -1.14127 3.55006 0
M  V30 13465 N 1226.82 -1.56058 0.219941 0
M  V30 13466 C 1228.24 -1.59024 -0.135476 0
M  V30 13467 C 1228.44 -1.23672 -1.59083 0
M  V30 13468 O 1227.5 -0.971197 -2.33075 0
M  V30 13469 C 1228.81 -3.00103 0.189356 0
M  V30 13470 C 1230.36 -3.12724 0.131463 0
M  V30 13471 C 1230.83 -4.55977 0.429947 0
M  V30 13472 N 1232.32 -4.61643 0.37946 0
M  V30 13473 C 1233.06 -5.70419 0.58393 0
M  V30 13474 N 1232.55 -6.87565 0.850088 0
M  V30 13475 N 1234.35 -5.59722 0.516477 0
M  V30 13476 H 1226.5 -1.77313 1.16935 0
M  V30 13477 H 1228.76 -0.824096 0.468583 0
M  V30 13478 H 1228.47 -3.30616 1.19941 0
M  V30 13479 H 1228.34 -3.73919 -0.49641 0
M  V30 13480 H 1230.73 -2.82008 -0.869223 0
M  V30 13481 H 1230.81 -2.41241 0.85068 0
M  V30 13482 H 1230.45 -4.8741 1.42806 0
M  V30 13483 H 1230.38 -5.25684 -0.310444 0
M  V30 13484 H 1232.87 -3.77465 0.181373 0
M  V30 13485 H 1233.19 -7.66378 0.994251 0
M  V30 13486 H 1231.53 -6.89313 0.887265 0
M  V30 13487 H 1234.72 -4.6708 0.308784 0
M  V30 13488 H 1234.9 -6.4443 0.679236 0
M  V30 13489 N 1228.3 0.053464 -1.57509 0
M  V30 13490 C 1229.23 1.08863 -2.01696 0
M  V30 13491 C 1230.25 1.33916 -0.925765 0
M  V30 13492 O 1231.44 1.31833 -1.20343 0
M  V30 13493 C 1228.54 2.43567 -2.35644 0
M  V30 13494 C 1227.71 2.38215 -3.66841 0
M  V30 13495 C 1226.77 3.55172 -3.88252 0
M  V30 13496 O 1225.79 3.35769 -4.59617 0
M  V30 13497 N 1227 4.76182 -3.3201 0
M  V30 13498 H 1229.76 0.712192 -2.91115 0
M  V30 13499 H 1227.32 0.241829 -1.60084 0
M  V30 13500 H 1229.31 3.20486 -2.47125 0
M  V30 13501 H 1227.88 2.73145 -1.52022 0
M  V30 13502 H 1227.1 1.46557 -3.65943 0
M  V30 13503 H 1228.39 2.31757 -4.52953 0
M  V30 13504 H 1227.79 4.94849 -2.74118 0
M  V30 13505 H 1226.35 5.5055 -3.4891 0
M  V30 13506 N 1229.78 1.54207 0.325255 0
M  V30 13507 C 1231 1.7661 1.08736 0
M  V30 13508 C 1231.43 0.512449 1.80985 0
M  V30 13509 O 1230.79 -0.535913 1.73198 0
M  V30 13510 C 1230.84 2.95797 2.06243 0
M  V30 13511 O 1229.94 2.67225 3.14109 0
M  V30 13512 H 1229.28 0.585282 0.313593 0
M  V30 13513 H 1231.81 2.01225 0.370066 0
M  V30 13514 H 1231.82 3.23097 2.49143 0
M  V30 13515 H 1230.5 3.86712 1.53058 0
M  V30 13516 H 1229.07 2.50869 2.75897 0
M  V30 13517 N 1231.26 -0.58723 1.46251 0
M  V30 13518 C 1232.19 -1.70694 1.5933 0
M  V30 13519 C 1233.17 -1.64208 0.443831 0
M  V30 13520 O 1234.35 -1.82294 0.669516 0
M  V30 13521 C 1231.48 -3.0933 1.579 0
M  V30 13522 C 1230.44 -3.30643 2.7177 0
M  V30 13523 C 1229.76 -4.69761 2.554 0
M  V30 13524 C 1231.06 -3.18916 4.1363 0
M  V30 13525 H 1232.76 -1.60004 2.53059 0
M  V30 13526 H 1230.3 -0.768343 1.21789 0
M  V30 13527 H 1232.26 -3.87479 1.65644 0
M  V30 13528 H 1230.98 -3.20907 0.60712 0
M  V30 13529 H 1229.64 -2.54892 2.63488 0
M  V30 13530 H 1229.29 -4.78098 1.56306 0
M  V30 13531 H 1228.99 -4.84974 3.31774 0
M  V30 13532 H 1230.51 -5.50084 2.65028 0
M  V30 13533 H 1231.93 -3.86915 4.23048 0
M  V30 13534 H 1230.32 -3.45653 4.90555 0
M  V30 13535 H 1231.39 -2.1606 4.34104 0
M  V30 13536 N 1232.74 -1.33881 -0.831482 0
M  V30 13537 C 1234.15 -1.23112 -1.40358 0
M  V30 13538 C 1234.5 0.146944 -1.95649 0
M  V30 13539 O 1233.62 1.04689 -1.89391 0
M  V30 13540 C 1234.22 -2.22899 -2.5515 0
M  V30 13541 C 1232.78 -2.15946 -3.08292 0
M  V30 13542 C 1231.92 -2.09975 -1.81124 0
M  V30 13543 H 1234.87 -1.45372 -0.63661 0
M  V30 13544 H 1234.9 -1.841 -3.32997 0
M  V30 13545 H 1234.41 -3.23186 -2.14878 0
M  V30 13546 H 1232.51 -1.18987 -3.53091 0
M  V30 13547 H 1232.62 -3.06822 -3.67964 0
M  V30 13548 H 1230.99 -1.55564 -2.01673 0
M  V30 13549 H 1231.77 -3.12082 -1.43037 0
M  V30 13550 N 1234.21 1.05064 -1.1747 0
M  V30 13551 C 1235.44 1.82299 -0.98903 0
M  V30 13552 C 1235.86 1.82441 0.457907 0
M  V30 13553 O 1235.22 1.23433 1.32793 0
M  V30 13554 C 1235.27 3.26239 -1.53624 0
M  V30 13555 O 1234.37 4.05507 -0.750857 0
M  V30 13556 H 1233.71 0.563601 -0.35107 0
M  V30 13557 H 1236.24 1.32386 -1.55997 0
M  V30 13558 H 1236.25 3.77038 -1.55906 0
M  V30 13559 H 1234.93 3.25451 -2.58949 0
M  V30 13560 H 1233.51 3.64227 -0.799548 0
M  V30 13561 N 1235.69 0.975146 1.23809 0
M  V30 13562 C 1236.62 0.530389 2.27396 0
M  V30 13563 C 1237.6 -0.433763 1.64476 0
M  V30 13564 O 1238.79 -0.32827 1.91405 0
M  V30 13565 C 1235.92 -0.173066 3.46869 0
M  V30 13566 C 1234.87 0.707844 4.22106 0
M  V30 13567 C 1234.2 -0.127527 5.34548 0
M  V30 13568 C 1235.5 1.99609 4.82652 0
M  V30 13569 H 1237.19 1.39622 2.64851 0
M  V30 13570 H 1234.74 0.672802 1.27316 0
M  V30 13571 H 1236.69 -0.495481 4.18477 0
M  V30 13572 H 1235.41 -1.0733 3.0846 0
M  V30 13573 H 1234.07 1.01364 3.52308 0
M  V30 13574 H 1233.72 -1.02814 4.9238 0
M  V30 13575 H 1233.42 0.458728 5.85807 0
M  V30 13576 H 1234.95 -0.444443 6.0898 0
M  V30 13577 H 1236.36 1.73878 5.46296 0
M  V30 13578 H 1234.76 2.52969 5.44175 0
M  V30 13579 H 1235.83 2.68629 4.03691 0
M  V30 13580 N 1237.17 -1.38817 0.746158 0
M  V30 13581 C 1238.12 -2.30521 0.113517 0
M  V30 13582 C 1239.09 -1.49795 -0.717682 0
M  V30 13583 O 1240.27 -1.78448 -0.675345 0
M  V30 13584 C 1237.41 -3.36185 -0.779343 0
M  V30 13585 C 1236.52 -4.3195 0.0656784 0
M  V30 13586 C 1235.66 -5.24684 -0.829492 0
M  V30 13587 C 1234.7 -6.12097 0.0196112 0
M  V30 13588 N 1233.84 -6.97152 -0.832107 0
M  V30 13589 H 1238.68 -2.84048 0.901136 0
M  V30 13590 H 1236.21 -1.39853 0.456025 0
M  V30 13591 H 1238.17 -3.96048 -1.31156 0
M  V30 13592 H 1236.8 -2.84085 -1.53282 0
M  V30 13593 H 1235.85 -3.73611 0.715445 0
M  V30 13594 H 1237.16 -4.93551 0.721735 0
M  V30 13595 H 1236.32 -5.89627 -1.42915 0
M  V30 13596 H 1235.06 -4.63431 -1.5193 0
M  V30 13597 H 1234.06 -5.46156 0.631991 0
M  V30 13598 H 1235.29 -6.75416 0.706369 0
M  V30 13599 H 1233.23 -6.38456 -1.507 0
M  V30 13600 H 1233.15 -7.55642 -0.232782 0
M  V30 13601 H 1234.42 -7.66513 -1.41697 0
M  V30 13602 N 1238.65 -0.49465 -1.49636 0
M  V30 13603 C 1239.92 0.114829 -1.95263 0
M  V30 13604 C 1240.3 1.54739 -1.43593 0
M  V30 13605 O 1239.65 2.1915 -0.646953 0
M  V30 13606 C 1239.86 0.0339912 -3.48983 0
M  V30 13607 C 1241.21 0.211108 -4.24075 0
M  V30 13608 O 1242.23 0.109478 -3.56032 0
M  V30 13609 O 1241.09 0.418971 -5.44892 0
M  V30 13610 H 1238.19 0.0987883 -0.821078 0
M  V30 13611 H 1240.73 -0.556736 -1.60308 0
M  V30 13612 H 1239.51 -0.965287 -3.79207 0
M  V30 13613 H 1239.13 0.745982 -3.90539 0
M  V30 13614 N 1240.13 1.55939 -0.228214 0
M  V30 13615 C 1241.35 2.0332 0.409364 0
M  V30 13616 C 1241.78 1.10683 1.52088 0
M  V30 13617 O 1241.13 0.0962484 1.81044 0
M  V30 13618 C 1241.18 3.48877 0.911981 0
M  V30 13619 O 1240.29 3.59378 2.02289 0
M  V30 13620 H 1239.63 0.657625 0.0917909 0
M  V30 13621 H 1242.16 2.01605 -0.348802 0
M  V30 13622 H 1242.17 3.89331 1.22007 0
M  V30 13623 H 1240.84 4.15783 0.0984902 0
M  V30 13624 H 1239.42 3.30815 1.72093 0
M  V30 13625 N 1241.6 -0.0451101 1.57535 0
M  V30 13626 C 1242.84 -0.744146 1.90373 0
M  V30 13627 C 1243.21 -1.7337 0.825039 0
M  V30 13628 O 1244.41 -2.4798 1.03726 0
M  V30 13629 C 1242.68 -1.41028 3.28399 0
M  V30 13630 S 1244.24 -2.14069 3.8304 0
M  V30 13631 H 1241.06 -0.246888 0.666759 0
M  V30 13632 H 1243.66 0.000729019 1.955 0
M  V30 13633 H 1242.36 -0.67663 4.04784 0
M  V30 13634 H 1241.89 -2.19404 3.26536 0
M  V30 13635 H 1243.91 -3.40988 3.60474 0
M  V30 13636 N 1243.08 -1.54377 -0.317073 0
M  V30 13637 C 1244.01 -1.80563 -1.41172 0
M  V30 13638 C 1245.03 -0.687865 -1.47554 0
M  V30 13639 O 1246.22 -0.965084 -1.50161 0
M  V30 13640 C 1243.32 -1.9142 -2.79663 0
M  V30 13641 C 1242.49 -3.21655 -2.96407 0
M  V30 13642 C 1241.55 -3.23131 -4.15298 0
M  V30 13643 O 1240.57 -3.96741 -4.08149 0
M  V30 13644 N 1241.78 -2.47376 -5.25153 0
M  V30 13645 H 1244.54 -2.75032 -1.1907 0
M  V30 13646 H 1242.1 -1.53754 -0.507086 0
M  V30 13647 H 1244.09 -1.89828 -3.57418 0
M  V30 13648 H 1242.66 -1.0402 -2.94786 0
M  V30 13649 H 1241.88 -3.36154 -2.05899 0
M  V30 13650 H 1243.17 -4.07629 -3.04494 0
M  V30 13651 H 1242.57 -1.87173 -5.33838 0
M  V30 13652 H 1241.13 -2.51555 -6.01301 0
M  V30 13653 N 1244.56 0.579466 -1.4656 0
M  V30 13654 C 1245.98 0.903163 -1.31587 0
M  V30 13655 C 1246.18 1.99406 -0.28972 0
M  V30 13656 O 1245.23 2.50632 0.30658 0
M  V30 13657 C 1246.55 1.31745 -2.70303 0
M  V30 13658 C 1248.09 1.43012 -2.78418 0
M  V30 13659 C 1248.57 1.87805 -4.17724 0
M  V30 13660 N 1250.06 1.94993 -4.20157 0
M  V30 13661 C 1250.79 2.30934 -5.2484 0
M  V30 13662 N 1250.29 2.65645 -6.39847 0
M  V30 13663 N 1252.08 2.31517 -5.12207 0
M  V30 13664 H 1244.23 -0.141111 -2.11931 0
M  V30 13665 H 1246.5 -0.000460304 -0.948 0
M  V30 13666 H 1246.2 0.589864 -3.46718 0
M  V30 13667 H 1246.08 2.2783 -3.00622 0
M  V30 13668 H 1248.46 2.14856 -2.02289 0
M  V30 13669 H 1248.55 0.451701 -2.5178 0
M  V30 13670 H 1248.19 1.16539 -4.94349 0
M  V30 13671 H 1248.12 2.86611 -4.41771 0
M  V30 13672 H 1250.61 1.70645 -3.37178 0
M  V30 13673 H 1250.92 2.92032 -7.15498 0
M  V30 13674 H 1249.27 2.63276 -6.43204 0
M  V30 13675 H 1252.46 2.03824 -4.21394 0
M  V30 13676 H 1252.63 2.59199 -5.93902 0
M  V30 13677 N 1246.04 1.3432 0.824371 0
M  V30 13678 C 1246.95 1.27847 1.96704 0
M  V30 13679 C 1247.96 0.18641 1.72999 0
M  V30 13680 O 1249.14 0.412623 1.97128 0
M  V30 13681 C 1246.21 1.03231 3.30975 0
M  V30 13682 C 1245.27 2.21579 3.67697 0
M  V30 13683 C 1244.5 1.98128 4.95561 0
M  V30 13684 O 1244.72 0.938798 5.62621 0
M  V30 13685 O 1243.66 2.85041 5.30128 0
M  V30 13686 H 1247.48 2.23974 2.05108 0
M  V30 13687 H 1245.07 1.14512 0.959554 0
M  V30 13688 H 1246.95 0.912784 4.11395 0
M  V30 13689 H 1245.62 0.101425 3.23541 0
M  V30 13690 H 1244.53 2.3909 2.87727 0
M  V30 13691 H 1245.86 3.13052 3.79815 0
M  V30 13692 N 1247.52 -1.0444 1.18026 0
M  V30 13693 C 1248.45 -2.14297 0.927314 0
M  V30 13694 C 1249.43 -1.69575 -0.13357 0
M  V30 13695 O 1250.61 -1.94191 0.0182439 0
M  V30 13696 C 1247.74 -3.44397 0.448134 0
M  V30 13697 C 1246.7 -4.02723 1.44907 0
M  V30 13698 C 1246.02 -5.28257 0.827555 0
M  V30 13699 C 1247.32 -4.39331 2.82463 0
M  V30 13700 H 1249.02 -2.35715 1.84605 0
M  V30 13701 H 1246.56 -1.13281 0.889012 0
M  V30 13702 H 1248.52 -4.20606 0.258554 0
M  V30 13703 H 1247.24 -3.22654 -0.506159 0
M  V30 13704 H 1245.9 -3.28591 1.62552 0
M  V30 13705 H 1245.55 -5.02822 -0.13381 0
M  V30 13706 H 1245.25 -5.68242 1.49581 0
M  V30 13707 H 1246.77 -6.07147 0.64842 0
M  V30 13708 H 1248.18 -5.06543 2.68491 0
M  V30 13709 H 1246.58 -4.90355 3.45936 0
M  V30 13710 H 1247.65 -3.4933 3.36299 0
M  V30 13711 N 1248.99 -0.981699 -1.2329 0
M  V30 13712 C 1250.22 -0.66937 -1.95773 0
M  V30 13713 C 1250.64 0.763898 -1.72656 0
M  V30 13714 O 1249.99 1.51418 -1.01876 0
M  V30 13715 C 1250.05 -0.951863 -3.48743 0
M  V30 13716 O 1249.77 -2.3288 -3.71078 0
M  V30 13717 C 1251.27 -0.655668 -4.38424 0
M  V30 13718 H 1248.49 -0.248545 -0.623271 0
M  V30 13719 H 1251.03 -1.31343 -1.56746 0
M  V30 13720 H 1249.19 -0.353787 -3.85781 0
M  V30 13721 H 1249.6 -2.41948 -4.65362 0
M  V30 13722 H 1251.07 -0.903683 -5.44553 0
M  V30 13723 H 1251.55 0.410269 -4.3728 0
M  V30 13724 H 1252.16 -1.23428 -4.06996 0
M  V30 13725 N 1250.47 1.3842 -0.753509 0
M  V30 13726 C 1251.42 2.32315 -0.115107 0
M  V30 13727 C 1252.41 1.54015 0.705398 0
M  V30 13728 O 1253.62 1.69546 0.604505 0
M  V30 13729 H 1250 0.751774 -0.0184276 0
M  V30 13730 H 1251.97 2.83763 -0.923094 0
M  V30 13731 C 1250.72 3.39206 0.763849 0
M  V30 13732 H 1250.04 3.99548 0.14187 0
M  V30 13733 H 1251.48 4.07312 1.17783 0
M  V30 13734 C 1249.94 2.77771 1.90643 0
M  V30 13735 O 1250.47 2.67073 3.00058 0
M  V30 13736 N 1248.67 2.35582 1.70145 0
M  V30 13737 H 1248.22 2.44483 0.811528 0
M  V30 13738 H 1248.18 1.9482 2.46764 0
M  V30 13739 N 1251.95 0.502579 1.49372 0
M  V30 13740 C 1252.88 -0.264307 2.31999 0
M  V30 13741 C 1253.86 -0.96107 1.40348 0
M  V30 13742 O 1255.05 -0.952167 1.69255 0
M  V30 13743 C 1252.18 -1.32822 3.20898 0
M  V30 13744 C 1251.13 -0.751236 4.21355 0
M  V30 13745 C 1250.46 -1.91578 4.99201 0
M  V30 13746 C 1251.76 0.258764 5.21659 0
M  V30 13747 H 1253.45 0.425391 2.96363 0
M  V30 13748 H 1251 0.206022 1.42519 0
M  V30 13749 H 1252.95 -1.87245 3.77515 0
M  V30 13750 H 1251.67 -2.04712 2.54481 0
M  V30 13751 H 1250.33 -0.228743 3.65886 0
M  V30 13752 H 1249.98 -2.62241 4.2923 0
M  V30 13753 H 1249.68 -1.53578 5.67175 0
M  V30 13754 H 1251.2 -2.46432 5.58663 0
M  V30 13755 H 1252.62 -0.197385 5.7296 0
M  V30 13756 H 1251.02 0.554681 5.97531 0
M  V30 13757 H 1252.09 1.1741 4.70471 0
M  V30 13758 N 1253.43 -1.55816 0.23648 0
M  V30 13759 C 1254.36 -2.23924 -0.661834 0
M  V30 13760 C 1255.34 -1.21597 -1.18946 0
M  V30 13761 O 1256.52 -1.50222 -1.23073 0
M  V30 13762 C 1253.65 -2.93069 -1.86355 0
M  V30 13763 C 1252.61 -4.01996 -1.46913 0
M  V30 13764 C 1251.93 -4.58512 -2.75083 0
M  V30 13765 C 1253.23 -5.18265 -0.647964 0
M  V30 13766 H 1254.93 -2.99253 -0.0939368 0
M  V30 13767 H 1252.47 -1.43934 -0.0437407 0
M  V30 13768 H 1254.43 -3.39412 -2.49755 0
M  V30 13769 H 1253.15 -2.15212 -2.45665 0
M  V30 13770 H 1251.81 -3.56406 -0.858522 0
M  V30 13771 H 1251.46 -3.77368 -3.3257 0
M  V30 13772 H 1251.16 -5.32037 -2.49421 0
M  V30 13773 H 1252.68 -5.07583 -3.39399 0
M  V30 13774 H 1254.1 -5.60898 -1.18602 0
M  V30 13775 H 1252.49 -5.98114 -0.487823 0
M  V30 13776 H 1253.56 -4.83691 0.342151 0
M  V30 13777 N 1254.91 0.036755 -1.57557 0
M  V30 13778 C 1256.15 0.727665 -1.88546 0
M  V30 13779 C 1256.48 1.76304 -0.833179 0
M  V30 13780 O 1255.75 1.9544 0.13414 0
M  V30 13781 H 1254.33 0.271744 -0.695819 0
M  V30 13782 H 1256.99 0.00452915 -1.94899 0
M  V30 13783 H 1256.08 1.22205 -2.8718 0
M  V30 13784 N 1256.39 1.54543 0.308881 0
M  V30 13785 C 1257.32 1.87947 1.38557 0
M  V30 13786 C 1258.3 0.737622 1.53275 0
M  V30 13787 O 1259.48 0.992664 1.66913 0
M  V30 13788 C 1256.61 2.11982 2.75102 0
M  V30 13789 C 1255.57 3.2783 2.75158 0
M  V30 13790 C 1254.89 3.37266 4.14917 0
M  V30 13791 C 1256.19 4.65129 2.37598 0
M  V30 13792 H 1257.89 2.78123 1.1085 0
M  V30 13793 H 1255.43 1.3382 0.531808 0
M  V30 13794 H 1257.38 2.33935 3.50503 0
M  V30 13795 H 1256.11 1.18569 3.04317 0
M  V30 13796 H 1254.77 3.05787 2.02212 0
M  V30 13797 H 1254.42 2.41384 4.41296 0
M  V30 13798 H 1254.12 4.15135 4.15857 0
M  V30 13799 H 1255.64 3.61471 4.92109 0
M  V30 13800 H 1257.05 4.86865 3.02714 0
M  V30 13801 H 1255.45 5.45653 2.49765 0
M  V30 13802 H 1256.52 4.6638 1.32731 0
M  V30 13803 N 1257.86 -0.571685 1.46866 0
M  V30 13804 C 1258.81 -1.6751 1.54676 0
M  V30 13805 C 1259.8 -1.55673 0.406774 0
M  V30 13806 O 1260.99 -1.64401 0.655847 0
M  V30 13807 C 1258.12 -3.06295 1.55043 0
M  V30 13808 C 1257.2 -3.23388 2.74374 0
M  V30 13809 N 1257.6 -3.10598 3.99202 0
M  V30 13810 C 1255.89 -3.54354 2.7083 0
M  V30 13811 C 1256.59 -3.29993 4.79041 0
M  V30 13812 N 1255.57 -3.55659 4.11106 0
M  V30 13813 H 1259.37 -1.56168 2.48975 0
M  V30 13814 H 1256.89 -0.776036 1.42658 0
M  V30 13815 H 1258.88 -3.85502 1.58726 0
M  V30 13816 H 1257.54 -3.18759 0.618278 0
M  V30 13817 H 1258.55 -2.8823 4.30283 0
M  V30 13818 H 1255.23 -3.73435 1.86688 0
M  V30 13819 H 1256.62 -3.25194 5.87961 0
M  V30 13820 N 1259.34 -1.34755 -0.817236 0
M  V30 13821 C 1260.75 -1.24594 -1.39044 0
M  V30 13822 C 1261.1 0.126184 -1.95794 0
M  V30 13823 O 1260.23 1.02675 -1.90491 0
M  V30 13824 C 1260.82 -2.25592 -2.52772 0
M  V30 13825 C 1259.38 -2.19204 -3.05984 0
M  V30 13826 C 1258.53 -2.11884 -1.78886 0
M  V30 13827 H 1261.48 -1.46039 -0.621155 0
M  V30 13828 H 1261.5 -1.87622 -3.31026 0
M  V30 13829 H 1261.01 -3.25447 -2.11438 0
M  V30 13830 H 1259.11 -1.22725 -3.51809 0
M  V30 13831 H 1259.23 -3.10707 -3.64689 0
M  V30 13832 H 1257.59 -1.57694 -2.00012 0
M  V30 13833 H 1258.37 -3.13582 -1.39719 0
M  V30 13834 N 1260.82 1.03812 -1.18578 0
M  V30 13835 C 1261.77 2.11883 -0.915115 0
M  V30 13836 C 1262.74 1.65453 0.146479 0
M  V30 13837 O 1263.92 1.90799 0.00630058 0
M  V30 13838 C 1261.06 3.42157 -0.449755 0
M  V30 13839 C 1260.17 4.02185 -1.57706 0
M  V30 13840 C 1259.31 5.20431 -1.06417 0
M  V30 13841 C 1258.35 5.72496 -2.16599 0
M  V30 13842 N 1257.49 6.82027 -1.66685 0
M  V30 13843 H 1262.33 2.34373 -1.84047 0
M  V30 13844 H 1259.86 1.14962 -0.917728 0
M  V30 13845 H 1261.82 4.16888 -0.161407 0
M  V30 13846 H 1260.45 3.19806 0.438622 0
M  V30 13847 H 1259.5 3.24757 -1.98083 0
M  V30 13848 H 1260.81 4.36851 -2.40754 0
M  V30 13849 H 1259.97 6.02286 -0.730497 0
M  V30 13850 H 1258.71 4.87276 -0.203301 0
M  V30 13851 H 1257.71 4.8926 -2.50808 0
M  V30 13852 H 1258.94 6.07694 -3.03126 0
M  V30 13853 H 1256.88 6.50742 -0.828916 0
M  V30 13854 H 1256.8 7.1577 -2.43329 0
M  V30 13855 H 1258.07 7.67499 -1.36253 0
M  V30 13856 N 1262.3 0.988223 1.22768 0
M  V30 13857 C 1263.55 0.656941 1.90702 0
M  V30 13858 C 1263.86 -0.814058 1.77855 0
M  V30 13859 O 1265.07 -1.25673 2.40663 0
M  V30 13860 C 1263.52 1.12445 3.41883 0
M  V30 13861 C 1263.13 2.62034 3.63376 0
M  V30 13862 C 1264.87 0.867277 4.15546 0
M  V30 13863 C 1262.78 3.02412 5.08233 0
M  V30 13864 H 1261.71 0.242012 0.714105 0
M  V30 13865 H 1264.36 1.19716 1.39069 0
M  V30 13866 H 1262.74 0.512386 3.92671 0
M  V30 13867 H 1263.92 3.28546 3.23101 0
M  V30 13868 H 1262.23 2.85583 3.03037 0
M  V30 13869 H 1264.83 1.14471 5.22303 0
M  V30 13870 H 1265.17 -0.196611 4.15835 0
M  V30 13871 H 1265.71 1.4413 3.70771 0
M  V30 13872 H 1262.44 4.07957 5.1308 0
M  V30 13873 H 1261.96 2.406 5.49429 0
M  V30 13874 H 1263.64 2.93452 5.76624 0
M  V30 13875 N 1263.78 -1.38018 0.760839 0
M  V30 13876 C 1264.69 -2.34181 0.140232 0
M  V30 13877 C 1265.7 -1.59635 -0.692287 0
M  V30 13878 O 1266.88 -1.91788 -0.614752 0
M  V30 13879 C 1263.94 -3.38778 -0.73693 0
M  V30 13880 C 1263 -4.29157 0.110792 0
M  V30 13881 C 1262.24 -5.28758 -0.724599 0
M  V30 13882 O 1262.46 -5.35585 -1.96226 0
M  V30 13883 O 1261.39 -6.01738 -0.139565 0
M  V30 13884 H 1265.22 -2.88962 0.934588 0
M  V30 13885 H 1262.8 -1.3999 0.521835 0
M  V30 13886 H 1264.69 -4.02804 -1.23803 0
M  V30 13887 H 1263.36 -2.86341 -1.50966 0
M  V30 13888 H 1262.27 -3.68268 0.658007 0
M  V30 13889 H 1263.6 -4.84869 0.846346 0
M  V30 13890 N 1265.25 -0.510493 -1.49103 0
M  V30 13891 C 1266.19 0.309697 -2.26089 0
M  V30 13892 C 1267.16 0.962061 -1.31084 0
M  V30 13893 O 1268.35 0.990296 -1.60391 0
M  V30 13894 C 1265.48 1.43693 -3.06708 0
M  V30 13895 C 1264.52 0.897978 -4.1694 0
M  V30 13896 S 1265.35 -0.218781 -5.35053 0
M  V30 13897 C 1266.51 0.911396 -6.19229 0
M  V30 13898 H 1266.74 -0.343702 -2.95307 0
M  V30 13899 H 1264.28 -0.295944 -1.51537 0
M  V30 13900 H 1266.23 2.08277 -3.53739 0
M  V30 13901 H 1264.9 2.06198 -2.36941 0
M  V30 13902 H 1264.09 1.74303 -4.729 0
M  V30 13903 H 1263.69 0.329192 -3.72548 0
M  V30 13904 H 1265.98 1.8145 -6.5275 0
M  V30 13905 H 1266.93 0.390201 -7.07024 0
M  V30 13906 H 1267.33 1.18301 -5.51965 0
M  V30 13907 N 1266.73 1.55688 -0.24474 0
M  V30 13908 C 1267.69 2.20014 0.642382 0
M  V30 13909 C 1268.69 1.16877 1.10437 0
M  V30 13910 O 1269.88 1.41972 1.00943 0
M  V30 13911 C 1267.02 2.84198 1.88267 0
M  V30 13912 H 1268.21 2.9979 0.0811937 0
M  V30 13913 H 1265.76 1.56299 0.00480917 0
M  V30 13914 H 1266.5 2.08354 2.48514 0
M  V30 13915 H 1266.28 3.59747 1.55963 0
M  V30 13916 H 1267.77 3.33434 2.5142 0
M  V30 13917 N 1268.21 -0.0283989 1.57574 0
M  V30 13918 C 1269.63 -0.384054 1.5491 0
M  V30 13919 C 1269.83 -1.76564 0.970947 0
M  V30 13920 O 1268.88 -2.45455 0.592288 0
M  V30 13921 C 1270.19 -0.285297 2.99344 0
M  V30 13922 C 1271.74 -0.36233 3.10896 0
M  V30 13923 C 1272.22 -0.293014 4.57062 0
M  V30 13924 N 1273.71 -0.351788 4.61862 0
M  V30 13925 C 1274.44 -0.321054 5.725 0
M  V30 13926 N 1273.94 -0.242573 6.92375 0
M  V30 13927 N 1275.73 -0.370832 5.60875 0
M  V30 13928 H 1267.88 0.87573 1.93506 0
M  V30 13929 H 1270.15 0.33305 0.887571 0
M  V30 13930 H 1269.85 0.664146 3.45372 0
M  V30 13931 H 1269.73 -1.07869 3.61447 0
M  V30 13932 H 1272.11 -1.30221 2.64814 0
M  V30 13933 H 1272.19 0.460422 2.51622 0
M  V30 13934 H 1271.84 0.643197 5.03811 0
M  V30 13935 H 1271.77 -1.13388 5.14248 0
M  V30 13936 H 1274.26 -0.414929 3.75615 0
M  V30 13937 H 1274.57 -0.224239 7.72475 0
M  V30 13938 H 1272.92 -0.208612 6.94687 0
M  V30 13939 H 1276.11 -0.430141 4.6612 0
M  V30 13940 H 1276.28 -0.343412 6.47089 0
M  V30 13941 N 1269.69 -1.54705 -0.300681 0
M  V30 13942 C 1270.65 -1.84934 -1.35395 0
M  V30 13943 C 1271.65 -0.72226 -1.43666 0
M  V30 13944 O 1272.84 -0.990543 -1.43296 0
M  V30 13945 C 1269.97 -2.02991 -2.73875 0
M  V30 13946 H 1271.17 -2.79063 -1.09835 0
M  V30 13947 H 1268.72 -1.46772 -0.537365 0
M  V30 13948 H 1269.45 -1.11151 -3.04657 0
M  V30 13949 H 1269.24 -2.85027 -2.69262 0
M  V30 13950 H 1270.73 -2.27747 -3.5003 0
M  V30 13951 N 1271.17 0.563888 -1.47167 0
M  V30 13952 C 1272.39 1.35176 -1.57297 0
M  V30 13953 C 1272.82 1.86794 -0.221235 0
M  V30 13954 O 1272.17 1.62606 0.801809 0
M  V30 13955 C 1272.22 2.50225 -2.59654 0
M  V30 13956 O 1271.33 3.5225 -2.14461 0
M  V30 13957 H 1270.67 0.401795 -0.528637 0
M  V30 13958 H 1273.2 0.682137 -1.92894 0
M  V30 13959 H 1273.21 2.96886 -2.79862 0
M  V30 13960 H 1271.88 2.1201 -3.57805 0
M  V30 13961 H 1270.46 3.1194 -2.04323 0
M  V30 13962 N 1272.64 1.35187 0.810078 0
M  V30 13963 C 1273.88 1.29626 1.58039 0
M  V30 13964 C 1274.25 -0.12865 1.91569 0
M  V30 13965 O 1275.45 -0.308587 2.67023 0
M  V30 13966 C 1273.72 2.17414 2.83665 0
M  V30 13967 S 1275.28 2.29334 3.741 0
M  V30 13968 H 1272.1 0.460722 0.541531 0
M  V30 13969 H 1274.7 1.7054 0.955839 0
M  V30 13970 H 1273.4 3.19927 2.57051 0
M  V30 13971 H 1272.93 1.77444 3.51108 0
M  V30 13972 H 1274.95 1.47559 4.73752 0
M  V30 13973 N 1274.12 -1.03182 1.19127 0
M  V30 13974 C 1275.35 -1.80703 1.01791 0
M  V30 13975 C 1275.77 -1.83147 -0.428824 0
M  V30 13976 O 1275.13 -1.2553 -1.30812 0
M  V30 13977 C 1275.18 -3.23754 1.58794 0
M  V30 13978 O 1274.28 -4.04261 0.815274 0
M  V30 13979 H 1273.62 -0.557944 0.359992 0
M  V30 13980 H 1276.15 -1.29887 1.58084 0
M  V30 13981 H 1276.16 -3.7451 1.61884 0
M  V30 13982 H 1274.84 -3.2129 2.64094 0
M  V30 13983 H 1273.42 -3.62909 0.857392 0
M  V30 13984 N 1275.6 -0.99472 -1.22242 0
M  V30 13985 C 1276.56 -0.551619 -2.22463 0
M  V30 13986 C 1277.56 0.366498 -1.56568 0
M  V30 13987 O 1278.75 0.158204 -1.7348 0
M  V30 13988 C 1275.89 0.197416 -3.40328 0
M  V30 13989 H 1277.08 -1.43795 -2.63179 0
M  V30 13990 H 1274.63 -0.782121 -1.35324 0
M  V30 13991 H 1275.37 1.09965 -3.05087 0
M  V30 13992 H 1275.15 -0.461829 -3.89371 0
M  V30 13993 H 1276.64 0.495534 -4.1465 0
M  V30 13994 N 1277.08 1.37613 -0.768148 0
M  V30 13995 C 1278.01 2.3291 -0.165911 0
M  V30 13996 C 1278.99 1.556 0.687205 0
M  V30 13997 O 1280.17 1.83854 0.625407 0
M  V30 13998 C 1277.3 3.39822 0.7168 0
M  V30 13999 C 1276.26 4.27986 -0.0347264 0
M  V30 14000 C 1275.58 5.2588 0.967192 0
M  V30 14001 C 1276.88 5.08052 -1.21164 0
M  V30 14002 H 1278.58 2.83524 -0.962006 0
M  V30 14003 H 1276.12 1.36318 -0.464051 0
M  V30 14004 H 1278.08 4.05464 1.14789 0
M  V30 14005 H 1276.8 2.87725 1.54538 0
M  V30 14006 H 1275.46 3.6387 -0.446557 0
M  V30 14007 H 1275.11 4.70064 1.79022 0
M  V30 14008 H 1274.81 5.85726 0.468913 0
M  V30 14009 H 1276.33 5.94397 1.3973 0
M  V30 14010 H 1277.75 5.66853 -0.857373 0
M  V30 14011 H 1276.14 5.77206 -1.64176 0
M  V30 14012 H 1277.21 4.40936 -2.0175 0
M  V30 14013 N 1278.56 0.518393 1.4883 0
M  V30 14014 C 1279.49 -0.297703 2.2625 0
M  V30 14015 C 1280.47 -0.955096 1.31593 0
M  V30 14016 O 1281.65 -0.981776 1.60914 0
M  V30 14017 C 1278.78 -1.42065 3.07466 0
M  V30 14018 C 1277.82 -0.875854 4.1741 0
M  V30 14019 S 1278.66 0.247153 5.34929 0
M  V30 14020 C 1279.81 -0.878544 6.19703 0
M  V30 14021 H 1280.05 0.359358 2.9512 0
M  V30 14022 H 1277.58 0.303976 1.51378 0
M  V30 14023 H 1279.54 -2.06398 3.54838 0
M  V30 14024 H 1278.2 -2.04939 2.38031 0
M  V30 14025 H 1277.39 -1.71793 4.73818 0
M  V30 14026 H 1276.99 -0.30943 3.72718 0
M  V30 14027 H 1279.29 -1.77986 6.53703 0
M  V30 14028 H 1280.23 -0.3527 7.07221 0
M  V30 14029 H 1280.64 -1.15372 5.52584 0
M  V30 14030 N 1280.03 -1.55556 0.252993 0
M  V30 14031 C 1281.26 -2.03945 -0.376965 0
M  V30 14032 C 1281.68 -1.13089 -1.50308 0
M  V30 14033 O 1281.04 -0.125039 -1.80868 0
M  V30 14034 C 1281.09 -3.50284 -0.856363 0
M  V30 14035 O 1280.19 -3.62551 -1.96546 0
M  V30 14036 H 1279.54 -0.659002 -0.081317 0
M  V30 14037 H 1282.07 -2.01024 0.380831 0
M  V30 14038 H 1282.08 -3.91222 -1.15798 0
M  V30 14039 H 1280.75 -4.15887 -0.0323302 0
M  V30 14040 H 1279.33 -3.33511 -1.66808 0
M  V30 14041 N 1281.51 0.0200419 -1.57587 0
M  V30 14042 C 1282.44 1.0456 -2.0396 0
M  V30 14043 C 1283.46 1.31922 -0.953962 0
M  V30 14044 O 1284.65 1.2925 -1.23112 0
M  V30 14045 C 1281.75 2.38514 -2.40758 0
M  V30 14046 C 1280.92 2.3038 -3.71812 0
M  V30 14047 C 1279.98 3.46856 -3.95698 0
M  V30 14048 O 1279 3.25944 -4.66636 0
M  V30 14049 N 1280.21 4.69033 -3.42036 0
M  V30 14050 H 1282.97 0.650282 -2.9256 0
M  V30 14051 H 1280.53 0.207818 -1.60561 0
M  V30 14052 H 1282.52 3.15172 -2.53868 0
M  V30 14053 H 1281.09 2.69859 -1.57781 0
M  V30 14054 H 1280.31 1.38762 -3.6897 0
M  V30 14055 H 1281.6 2.22097 -4.57767 0
M  V30 14056 H 1281 4.88923 -2.84553 0
M  V30 14057 H 1279.56 5.43025 -3.6051 0
M  V30 14058 N 1282.99 1.54862 0.292472 0
M  V30 14059 C 1284.4 1.65459 0.864891 0
M  V30 14060 C 1284.75 0.568808 1.87774 0
M  V30 14061 O 1283.88 -0.293107 2.14406 0
M  V30 14062 C 1284.47 2.99939 1.5755 0
M  V30 14063 C 1283.03 3.12628 2.09621 0
M  V30 14064 C 1282.18 2.61179 0.931713 0
M  V30 14065 H 1285.13 1.58549 0.0692679 0
M  V30 14066 H 1285.15 2.91839 2.44152 0
M  V30 14067 H 1284.66 3.78943 0.838088 0
M  V30 14068 H 1282.76 2.3836 2.86383 0
M  V30 14069 H 1282.88 4.18911 2.32488 0
M  V30 14070 H 1281.24 2.17846 1.31967 0
M  V30 14071 H 1282.02 3.42669 0.208121 0
M  V30 14072 N 1284.47 -0.556076 1.47464 0
M  V30 14073 C 1285.69 -1.3434 1.58011 0
M  V30 14074 C 1286.12 -1.86674 0.231138 0
M  V30 14075 O 1285.48 -1.63029 -0.793174 0
M  V30 14076 C 1285.52 -2.48844 2.60977 0
M  V30 14077 O 1284.63 -3.51108 2.16326 0
M  V30 14078 H 1283.97 -0.398986 0.53076 0
M  V30 14079 H 1286.5 -0.671898 1.93253 0
M  V30 14080 H 1286.51 -2.95398 2.81432 0
M  V30 14081 H 1285.18 -2.10109 3.58925 0
M  V30 14082 H 1283.76 -3.10852 2.05975 0
M  V30 14083 N 1285.95 -1.35615 -0.802897 0
M  V30 14084 C 1286.91 -1.28705 -1.89651 0
M  V30 14085 C 1287.91 -0.197681 -1.5958 0
M  V30 14086 O 1289.1 -0.451618 -1.68244 0
M  V30 14087 C 1286.23 -0.991941 -3.26149 0
M  V30 14088 H 1287.43 -2.25951 -1.97196 0
M  V30 14089 H 1284.98 -1.20192 -0.999179 0
M  V30 14090 H 1285.71 -0.0235051 -3.24291 0
M  V30 14091 H 1285.5 -1.78013 -3.49362 0
M  V30 14092 H 1286.99 -0.969298 -4.06195 0
M  V30 14093 N 1287.43 1.02549 -1.19673 0
M  V30 14094 C 1288.84 1.57454 -1.00325 0
M  V30 14095 C 1289.19 1.91136 0.442889 0
M  V30 14096 O 1288.31 1.7126 1.32284 0
M  V30 14097 C 1288.91 2.86091 -1.81486 0
M  V30 14098 C 1287.47 3.37557 -1.6653 0
M  V30 14099 C 1286.61 2.1096 -1.79975 0
M  V30 14100 H 1289.56 0.850364 -1.33994 0
M  V30 14101 H 1289.59 3.5713 -1.31296 0
M  V30 14102 H 1289.1 2.61546 -2.86733 0
M  V30 14103 H 1287.2 3.67083 -0.638834 0
M  V30 14104 H 1287.31 4.1036 -2.47269 0
M  V30 14105 H 1285.68 2.22993 -1.23071 0
M  V30 14106 H 1286.46 1.88852 -2.86688 0
M  V30 14107 N 1288.9 1.00119 1.21713 0
M  V30 14108 C 1290.18 0.597366 1.86255 0
M  V30 14109 C 1290.56 -0.925124 1.89749 0
M  V30 14110 O 1289.91 -1.8105 1.39402 0
M  V30 14111 C 1290.12 1.22735 3.26707 0
M  V30 14112 C 1291.47 1.33307 4.03131 0
M  V30 14113 O 1292.49 1.18237 3.36003 0
M  V30 14114 O 1291.35 1.57509 5.2331 0
M  V30 14115 H 1288.44 0.204091 0.801421 0
M  V30 14116 H 1290.99 1.09759 1.29426 0
M  V30 14117 H 1289.76 2.26837 3.18843 0
M  V30 14118 H 1289.38 0.713232 3.91151 0
M  V30 14119 N 1290.38 -1.37203 0.775435 0
M  V30 14120 C 1291.63 -1.99601 0.341431 0
M  V30 14121 C 1291.96 -1.61555 -1.08306 0
M  V30 14122 O 1291.21 -0.855126 -1.76029 0
M  V30 14123 C 1291.51 -3.54725 0.436426 0
M  V30 14124 C 1291.18 -4.1255 1.8197 0
M  V30 14125 C 1289.84 -4.28056 2.19822 0
M  V30 14126 C 1292.19 -4.44222 2.7261 0
M  V30 14127 C 1289.52 -4.72538 3.47742 0
M  V30 14128 C 1291.87 -4.90131 3.99943 0
M  V30 14129 C 1290.53 -5.03842 4.37835 0
M  V30 14130 H 1289.8 -0.730391 0.124938 0
M  V30 14131 H 1292.45 -1.63914 0.990177 0
M  V30 14132 H 1290.76 -3.90681 -0.295852 0
M  V30 14133 H 1292.45 -4.00916 0.0818664 0
M  V30 14134 H 1289.04 -4.00911 1.51553 0
M  V30 14135 H 1293.23 -4.31824 2.44625 0
M  V30 14136 H 1288.48 -4.81341 3.76989 0
M  V30 14137 H 1292.66 -5.13604 4.70302 0
M  V30 14138 H 1290.28 -5.3807 5.37015 0
M  V30 14139 N 1291.86 -0.526279 -1.48553 0
M  V30 14140 C 1293.11 0.00918008 -2.02798 0
M  V30 14141 C 1293.44 1.34284 -1.4029 0
M  V30 14142 O 1292.71 1.86639 -0.547355 0
M  V30 14143 C 1293 0.135102 -3.59846 0
M  V30 14144 C 1292.85 -1.22347 -4.32841 0
M  V30 14145 C 1294.17 0.863673 -4.31542 0
M  V30 14146 H 1291.29 0.00186216 -0.736998 0
M  V30 14147 H 1293.93 -0.682591 -1.77315 0
M  V30 14148 H 1292.08 0.724279 -3.81689 0
M  V30 14149 H 1293.75 -1.85347 -4.22427 0
M  V30 14150 H 1291.99 -1.80631 -3.94405 0
M  V30 14151 H 1292.67 -1.08839 -5.41164 0
M  V30 14152 H 1295.14 0.363734 -4.14507 0
M  V30 14153 H 1294.02 0.92067 -5.41124 0
M  V30 14154 H 1294.28 1.91313 -3.98562 0
M  V30 14155 N 1293.34 1.5542 -0.261239 0
M  V30 14156 C 1294.27 2.19334 0.665214 0
M  V30 14157 C 1295.28 1.17388 1.128 0
M  V30 14158 O 1296.47 1.44183 1.0523 0
M  V30 14159 C 1293.57 2.79425 1.91768 0
M  V30 14160 C 1292.74 4.06929 1.60399 0
M  V30 14161 C 1291.8 4.51199 2.70751 0
M  V30 14162 O 1290.83 5.17272 2.37526 0
M  V30 14163 N 1292.03 4.20179 4.00537 0
M  V30 14164 H 1294.8 2.99467 0.118262 0
M  V30 14165 H 1292.36 1.61693 -0.0817727 0
M  V30 14166 H 1294.35 3.05992 2.64861 0
M  V30 14167 H 1292.92 2.03366 2.37405 0
M  V30 14168 H 1292.14 3.87798 0.707559 0
M  V30 14169 H 1293.43 4.9003 1.36924 0
M  V30 14170 H 1292.83 3.67164 4.30357 0
M  V30 14171 H 1291.38 4.51549 4.7005 0
M  V30 14172 N 1294.82 -0.0116844 1.57596 0
M  V30 14173 C 1296.23 -0.367602 1.55309 0
M  V30 14174 C 1296.43 -1.75524 0.98962 0
M  V30 14175 O 1295.49 -2.44813 0.618289 0
M  V30 14176 C 1296.8 -0.253532 2.99629 0
M  V30 14177 C 1298.35 -0.329335 3.11263 0
M  V30 14178 C 1298.82 -0.24452 4.57347 0
M  V30 14179 N 1300.31 -0.302782 4.62209 0
M  V30 14180 C 1301.05 -0.260315 5.72809 0
M  V30 14181 N 1300.55 -0.169124 6.92594 0
M  V30 14182 N 1302.34 -0.311323 5.61237 0
M  V30 14183 H 1294.49 0.896204 1.92567 0
M  V30 14184 H 1296.75 0.342445 0.883988 0
M  V30 14185 H 1296.46 0.70074 3.44648 0
M  V30 14186 H 1296.33 -1.04029 3.62571 0
M  V30 14187 H 1298.72 -1.27405 2.66181 0
M  V30 14188 H 1298.8 0.487084 2.5112 0
M  V30 14189 H 1298.44 0.696597 5.031 0
M  V30 14190 H 1298.37 -1.07927 5.15421 0
M  V30 14191 H 1300.87 -0.375067 3.76034 0
M  V30 14192 H 1301.18 -0.142296 7.72669 0
M  V30 14193 H 1299.52 -0.134919 6.94869 0
M  V30 14194 H 1302.71 -0.380678 4.6655 0
M  V30 14195 H 1302.89 -0.274761 6.47417 0
M  V30 14196 N 1296.29 -1.55015 -0.284256 0
M  V30 14197 C 1297.54 -1.74744 -1.01532 0
M  V30 14198 C 1297.86 -0.545334 -1.87219 0
M  V30 14199 O 1297.13 0.440046 -1.90894 0
M  V30 14200 H 1295.71 -0.644382 -0.377864 0
M  V30 14201 H 1298.37 -1.92399 -0.311199 0
M  V30 14202 H 1297.47 -2.64369 -1.65878 0
M  V30 14203 N 1297.77 0.548248 -1.47757 0
M  V30 14204 C 1299.02 1.30501 -1.54841 0
M  V30 14205 C 1299.35 1.93314 -0.214476 0
M  V30 14206 O 1298.6 1.7889 0.793526 0
M  V30 14207 C 1298.9 2.42911 -2.62162 0
M  V30 14208 C 1298.57 1.97871 -4.05164 0
M  V30 14209 C 1297.23 1.85304 -4.4409 0
M  V30 14210 C 1299.58 1.63606 -4.94856 0
M  V30 14211 C 1296.91 1.36781 -5.70533 0
M  V30 14212 C 1299.26 1.16552 -6.2177 0
M  V30 14213 C 1297.92 1.02588 -6.5957 0
M  V30 14214 H 1297.19 0.477536 -0.566604 0
M  V30 14215 H 1299.84 0.613837 -1.81395 0
M  V30 14216 H 1298.15 3.17622 -2.29398 0
M  V30 14217 H 1299.84 3.01078 -2.64864 0
M  V30 14218 H 1296.43 2.08597 -3.74413 0
M  V30 14219 H 1300.62 1.72184 -4.65474 0
M  V30 14220 H 1295.87 1.24641 -5.9856 0
M  V30 14221 H 1300.05 0.891041 -6.90676 0
M  V30 14222 H 1297.67 0.647675 -7.57436 0
M  V30 14223 N 1299.25 1.36039 0.795694 0
M  V30 14224 C 1300.53 1.20474 1.54096 0
M  V30 14225 C 1300.91 -0.211691 2.10036 0
M  V30 14226 O 1300.25 -1.21656 1.93422 0
M  V30 14227 C 1300.46 2.28164 2.64087 0
M  V30 14228 C 1301.81 2.64519 3.32137 0
M  V30 14229 O 1302.84 2.2716 2.74366 0
M  V30 14230 O 1301.7 3.28796 4.36527 0
M  V30 14231 H 1298.79 0.468699 0.681359 0
M  V30 14232 H 1301.34 1.47752 0.834716 0
M  V30 14233 H 1300.11 3.23121 2.20701 0
M  V30 14234 H 1299.73 2.02217 3.42336 0
M  V30 14235 N 1300.73 -1.01913 1.20215 0
M  V30 14236 C 1301.95 -1.79613 1.03702 0
M  V30 14237 C 1302.38 -1.83591 -0.409374 0
M  V30 14238 O 1301.74 -1.26911 -1.29473 0
M  V30 14239 C 1301.78 -3.22052 1.62219 0
M  V30 14240 O 1300.89 -4.03374 0.858106 0
M  V30 14241 H 1300.23 -0.554095 0.365889 0
M  V30 14242 H 1302.76 -1.28203 1.59452 0
M  V30 14243 H 1302.77 -3.72772 1.65847 0
M  V30 14244 H 1301.44 -3.18471 2.67487 0
M  V30 14245 H 1300.02 -3.6198 0.895835 0
M  V30 14246 N 1302.21 -1.00763 -1.2118 0
M  V30 14247 C 1303.45 -0.691826 -1.90316 0
M  V30 14248 C 1303.78 0.777678 -1.78276 0
M  V30 14249 O 1303.04 1.57962 -1.15526 0
M  V30 14250 C 1303.34 -1.06187 -3.41261 0
M  V30 14251 C 1303 -2.52608 -3.73497 0
M  V30 14252 C 1301.66 -2.92617 -3.82006 0
M  V30 14253 C 1304.02 -3.47442 -3.88502 0
M  V30 14254 C 1301.34 -4.26419 -4.02969 0
M  V30 14255 C 1303.7 -4.8092 -4.10973 0
M  V30 14256 C 1302.36 -5.20649 -4.17709 0
M  V30 14257 H 1301.63 -0.253157 -0.696414 0
M  V30 14258 H 1304.28 -1.26655 -1.43634 0
M  V30 14259 H 1302.58 -0.405428 -3.89697 0
M  V30 14260 H 1304.28 -0.795343 -3.93033 0
M  V30 14261 H 1300.87 -2.20603 -3.67468 0
M  V30 14262 H 1305.05 -3.17695 -3.81292 0
M  V30 14263 H 1300.31 -4.56767 -4.06416 0
M  V30 14264 H 1304.48 -5.54337 -4.21525 0
M  V30 14265 H 1302.11 -6.24343 -4.33705 0
M  V30 14266 N 1303.68 1.3679 -0.7827 0
M  V30 14267 C 1304.61 2.32721 -0.190604 0
M  V30 14268 C 1305.6 1.56321 0.670663 0
M  V30 14269 O 1306.78 1.84507 0.605871 0
M  V30 14270 C 1303.91 3.40564 0.680717 0
M  V30 14271 C 1302.86 4.27925 -0.080118 0
M  V30 14272 C 1302.19 5.26876 0.911361 0
M  V30 14273 C 1303.49 5.06738 -1.26545 0
M  V30 14274 H 1305.18 2.82488 -0.992023 0
M  V30 14275 H 1302.73 1.35818 -0.478484 0
M  V30 14276 H 1304.68 4.06659 1.10482 0
M  V30 14277 H 1303.41 2.89348 1.51477 0
M  V30 14278 H 1302.07 3.63376 -0.485125 0
M  V30 14279 H 1301.71 4.71936 1.74026 0
M  V30 14280 H 1301.41 5.8619 0.406762 0
M  V30 14281 H 1302.94 5.95846 1.33418 0
M  V30 14282 H 1304.35 5.65911 -0.917448 0
M  V30 14283 H 1302.75 5.75432 -1.70289 0
M  V30 14284 H 1303.82 4.38772 -2.06415 0
M  V30 14285 N 1305.16 0.53415 1.48272 0
M  V30 14286 C 1306.41 0.00156948 2.021 0
M  V30 14287 C 1306.73 -1.34371 1.41313 0
M  V30 14288 O 1306 -1.87117 0.579996 0
M  V30 14289 H 1304.58 -0.00240789 0.746996 0
M  V30 14290 H 1307.24 0.698928 1.81937 0
M  V30 14291 H 1306.34 -0.103671 3.11928 0
M  V30 14292 N 1306.64 -1.55279 0.269478 0
M  V30 14293 C 1308.06 -1.59374 -0.0848147 0
M  V30 14294 C 1308.26 -1.2867 -1.55068 0
M  V30 14295 O 1307.31 -1.04486 -2.29867 0
M  V30 14296 C 1308.63 -2.99349 0.284735 0
M  V30 14297 C 1310.17 -3.12147 0.230887 0
M  V30 14298 C 1310.65 -4.54379 0.574795 0
M  V30 14299 N 1312.14 -4.60202 0.526136 0
M  V30 14300 C 1312.87 -5.68273 0.765109 0
M  V30 14301 N 1312.37 -6.84512 1.0684 0
M  V30 14302 N 1314.16 -5.57796 0.694287 0
M  V30 14303 H 1306.31 -1.73503 1.22517 0
M  V30 14304 H 1308.58 -0.808771 0.494564 0
M  V30 14305 H 1308.28 -3.26633 1.30398 0
M  V30 14306 H 1308.16 -3.75309 -0.377199 0
M  V30 14307 H 1310.54 -2.84631 -0.779064 0
M  V30 14308 H 1310.63 -2.38412 0.926998 0
M  V30 14309 H 1310.27 -4.8262 1.58241 0
M  V30 14310 H 1310.2 -5.26406 -0.143044 0
M  V30 14311 H 1312.69 -3.76696 0.301368 0
M  V30 14312 H 1313 -7.62826 1.23757 0
M  V30 14313 H 1311.35 -6.86141 1.10612 0
M  V30 14314 H 1314.54 -4.65862 0.457226 0
M  V30 14315 H 1314.71 -6.41943 0.883913 0
M  V30 14316 N 1308.12 0.00332656 -1.576 0
M  V30 14317 C 1309.35 0.69893 -1.94418 0
M  V30 14318 C 1309.76 1.68021 -0.8698 0
M  V30 14319 O 1309.1 1.83 0.160193 0
M  V30 14320 C 1309.16 1.4892 -3.27205 0
M  V30 14321 C 1308.83 0.669874 -4.52064 0
M  V30 14322 C 1309.82 -0.0410157 -5.19884 0
M  V30 14323 C 1307.51 0.616824 -4.98498 0
M  V30 14324 C 1309.5 -0.793976 -6.32436 0
M  V30 14325 C 1307.19 -0.139864 -6.1094 0
M  V30 14326 C 1308.19 -0.844001 -6.77765 0
M  V30 14327 O 1307.87 -1.58835 -7.88052 0
M  V30 14328 H 1307.61 0.199843 -0.645785 0
M  V30 14329 H 1310.16 -0.0429034 -2.05355 0
M  V30 14330 H 1308.39 2.27544 -3.12667 0
M  V30 14331 H 1310.08 2.06983 -3.4916 0
M  V30 14332 H 1310.85 -0.00916281 -4.84999 0
M  V30 14333 H 1306.72 1.15442 -4.46312 0
M  V30 14334 H 1310.27 -1.34411 -6.84529 0
M  V30 14335 H 1306.17 -0.173549 -6.45267 0
M  V30 14336 H 1306.93 -1.50471 -8.0455 0
M  V30 14337 N 1309.6 1.55164 0.276031 0
M  V30 14338 C 1310.53 1.84243 1.36335 0
M  V30 14339 C 1311.54 0.726745 1.45679 0
M  V30 14340 O 1312.73 1.00456 1.4755 0
M  V30 14341 C 1309.83 1.98768 2.7449 0
M  V30 14342 C 1309 3.294 2.87775 0
M  V30 14343 C 1308.06 3.34029 4.06585 0
M  V30 14344 O 1307.09 4.07423 3.97486 0
M  V30 14345 N 1308.29 2.61213 5.18409 0
M  V30 14346 H 1311.06 2.78092 1.11736 0
M  V30 14347 H 1308.62 1.55044 0.466143 0
M  V30 14348 H 1310.61 1.99238 3.52259 0
M  V30 14349 H 1309.18 1.11799 2.91924 0
M  V30 14350 H 1308.4 3.41494 1.96914 0
M  V30 14351 H 1309.69 4.15558 2.93579 0
M  V30 14352 H 1309.08 2.01261 5.28687 0
M  V30 14353 H 1307.64 2.67409 5.9442 0
M  V30 14354 N 1311.07 -0.540404 1.48045 0
M  V30 14355 C 1312.04 -1.62813 1.61322 0
M  V30 14356 C 1313.04 -1.53243 0.487161 0
M  V30 14357 O 1314.23 -1.571 0.752684 0
M  V30 14358 C 1311.36 -3.02408 1.5736 0
M  V30 14359 H 1312.55 -1.52385 2.583 0
M  V30 14360 H 1310.11 -0.761654 1.36486 0
M  V30 14361 H 1310.84 -3.18353 0.618195 0
M  V30 14362 H 1310.63 -3.10763 2.39099 0
M  V30 14363 H 1312.12 -3.8151 1.69822 0
M  V30 14364 N 1312.55 -1.36459 -0.788468 0
M  V30 14365 C 1313.8 -1.30935 -1.54867 0
M  V30 14366 C 1314.13 0.110916 -1.93883 0
M  V30 14367 O 1313.41 1.06452 -1.62783 0
M  V30 14368 C 1313.69 -2.23294 -2.8251 0
M  V30 14369 C 1313.54 -3.74022 -2.49856 0
M  V30 14370 C 1314.86 -2.14407 -3.84341 0
M  V30 14371 H 1311.98 -0.476958 -0.561854 0
M  V30 14372 H 1314.62 -1.67018 -0.905805 0
M  V30 14373 H 1312.77 -1.92652 -3.37369 0
M  V30 14374 H 1314.44 -4.15187 -2.01041 0
M  V30 14375 H 1312.69 -3.93411 -1.82785 0
M  V30 14376 H 1313.36 -4.34057 -3.41026 0
M  V30 14377 H 1315.83 -2.41381 -3.38932 0
M  V30 14378 H 1314.71 -2.81199 -4.71401 0
M  V30 14379 H 1314.97 -1.13166 -4.27371 0
M  V30 14380 N 1314.03 1.01274 -1.20754 0
M  V30 14381 C 1314.96 2.10029 -0.917628 0
M  V30 14382 C 1315.98 1.62516 0.0961411 0
M  V30 14383 O 1317.16 1.77986 -0.135371 0
M  V30 14384 C 1314.26 3.37037 -0.354891 0
M  V30 14385 C 1313.44 4.1367 -1.42113 0
M  V30 14386 C 1312.5 5.18974 -0.869023 0
M  V30 14387 O 1311.52 5.47671 -1.55063 0
M  V30 14388 N 1312.72 5.79619 0.319631 0
M  V30 14389 H 1315.49 2.35485 -1.85383 0
M  V30 14390 H 1313.05 1.17695 -1.11173 0
M  V30 14391 H 1315.04 4.0469 0.0286895 0
M  V30 14392 H 1313.61 3.088 0.485956 0
M  V30 14393 H 1312.83 3.40931 -1.97889 0
M  V30 14394 H 1314.12 4.61649 -2.13911 0
M  V30 14395 H 1313.52 5.58646 0.89059 0
M  V30 14396 H 1312.08 6.48603 0.644807 0
M  V30 14397 N 1315.51 1.01404 1.20644 0
M  V30 14398 C 1316.42 0.591693 2.27016 0
M  V30 14399 C 1317.44 -0.36958 1.7003 0
M  V30 14400 O 1318.61 -0.231165 2.00069 0
M  V30 14401 C 1315.68 -0.0659827 3.46637 0
M  V30 14402 C 1314.74 0.940911 4.18862 0
M  V30 14403 C 1313.97 0.314526 5.32772 0
M  V30 14404 O 1314.19 -0.886404 5.63471 0
M  V30 14405 O 1313.13 1.02998 5.93022 0
M  V30 14406 H 1316.95 1.4772 2.65353 0
M  V30 14407 H 1314.54 0.783399 1.27213 0
M  V30 14408 H 1316.42 -0.433412 4.19165 0
M  V30 14409 H 1315.1 -0.925729 3.10181 0
M  V30 14410 H 1314 1.35966 3.48517 0
M  V30 14411 H 1315.34 1.77054 4.59252 0
M  V30 14412 N 1316.99 -1.36373 0.789944 0
M  V30 14413 C 1317.95 -2.28372 0.194639 0
M  V30 14414 C 1318.95 -1.48849 -0.608332 0
M  V30 14415 O 1320.14 -1.68829 -0.42925 0
M  V30 14416 C 1317.27 -3.3298 -0.730553 0
M  V30 14417 H 1318.47 -2.82529 1.00585 0
M  V30 14418 H 1316.02 -1.45946 0.559406 0
M  V30 14419 H 1316.75 -2.8398 -1.56608 0
M  V30 14420 H 1316.54 -3.91787 -0.156706 0
M  V30 14421 H 1318.03 -4.01684 -1.14192 0
M  V30 14422 N 1318.47 -0.542005 -1.47987 0
M  V30 14423 C 1319.71 -0.0123299 -2.02796 0
M  V30 14424 C 1320.04 1.32789 -1.41707 0
M  V30 14425 O 1319.32 1.86048 -0.567119 0
M  V30 14426 C 1319.6 0.0969277 -3.5997 0
M  V30 14427 C 1319.46 -1.26931 -4.31519 0
M  V30 14428 C 1320.77 0.817854 -4.32434 0
M  V30 14429 H 1317.89 -0.00595479 -0.736976 0
M  V30 14430 H 1320.54 -0.70136 -1.76581 0
M  V30 14431 H 1318.69 0.683755 -3.82436 0
M  V30 14432 H 1320.36 -1.89817 -4.20437 0
M  V30 14433 H 1318.6 -1.84804 -3.92467 0
M  V30 14434 H 1319.27 -1.14573 -5.39979 0
M  V30 14435 H 1321.75 0.319749 -4.1487 0
M  V30 14436 H 1320.62 0.863225 -5.4207 0
M  V30 14437 H 1320.88 1.87075 -4.00569 0
M  V30 14438 N 1319.94 1.55134 -0.277709 0
M  V30 14439 C 1320.85 2.26296 0.618658 0
M  V30 14440 C 1321.87 1.28978 1.16794 0
M  V30 14441 O 1323.05 1.61918 1.19768 0
M  V30 14442 C 1320.11 2.97214 1.78508 0
M  V30 14443 C 1319.17 4.10016 1.27221 0
M  V30 14444 C 1318.4 4.77543 2.38304 0
M  V30 14445 O 1318.63 4.44293 3.57715 0
M  V30 14446 O 1317.56 5.65437 2.06313 0
M  V30 14447 H 1321.39 3.03671 0.0421031 0
M  V30 14448 H 1318.97 1.49332 -0.0450166 0
M  V30 14449 H 1320.85 3.41773 2.46513 0
M  V30 14450 H 1319.53 2.22753 2.34867 0
M  V30 14451 H 1318.44 3.69907 0.558544 0
M  V30 14452 H 1319.77 4.86385 0.754333 0
M  V30 14453 N 1321.42 0.00503138 1.57599 0
M  V30 14454 C 1322.7 -0.716079 1.82021 0
M  V30 14455 C 1323.08 -1.91707 0.883829 0
M  V30 14456 O 1322.43 -2.28404 -0.0662812 0
M  V30 14457 C 1322.64 -1.11706 3.3064 0
M  V30 14458 C 1323.98 -1.51881 3.96506 0
M  V30 14459 O 1325.01 -1.21071 3.34993 0
M  V30 14460 O 1323.87 -2.09191 5.04877 0
M  V30 14461 H 1320.96 -0.349112 0.7497 0
M  V30 14462 H 1323.51 0.030871 1.69672 0
M  V30 14463 H 1322.28 -0.261223 3.90427 0
M  V30 14464 H 1321.9 -1.92295 3.48006 0
M  V30 14465 N 1322.9 -1.55308 -0.267798 0
M  V30 14466 C 1324.32 -1.47264 -0.61526 0
M  V30 14467 C 1324.52 -0.691025 -1.8928 0
M  V30 14468 O 1323.57 -0.211964 -2.51609 0
M  V30 14469 C 1324.88 -2.91519 -0.73739 0
M  V30 14470 C 1326.43 -3.01764 -0.831102 0
M  V30 14471 C 1326.91 -4.47283 -0.984965 0
M  V30 14472 N 1328.4 -4.51134 -1.05036 0
M  V30 14473 C 1329.13 -5.60952 -1.1883 0
M  V30 14474 N 1328.63 -6.80625 -1.29311 0
M  V30 14475 N 1330.42 -5.48705 -1.21982 0
M  V30 14476 H 1322.57 -2.04577 0.57114 0
M  V30 14477 H 1324.84 -0.927908 0.194141 0
M  V30 14478 H 1324.54 -3.51456 0.130974 0
M  V30 14479 H 1324.42 -3.40829 -1.61603 0
M  V30 14480 H 1326.8 -2.4192 -1.68993 0
M  V30 14481 H 1326.88 -2.55698 0.0722509 0
M  V30 14482 H 1326.53 -5.07732 -0.130776 0
M  V30 14483 H 1326.46 -4.91011 -1.90305 0
M  V30 14484 H 1328.95 -3.6493 -0.981551 0
M  V30 14485 H 1329.26 -7.60071 -1.39685 0
M  V30 14486 H 1327.61 -6.83426 -1.26306 0
M  V30 14487 H 1330.8 -4.5415 -1.13428 0
M  V30 14488 H 1330.97 -6.34332 -1.32388 0
M  V30 14489 N 1324.38 0.532545 -1.4833 0
M  V30 14490 C 1325.31 1.65325 -1.58746 0
M  V30 14491 C 1326.32 1.5581 -0.471925 0
M  V30 14492 O 1327.51 1.62317 -0.742656 0
M  V30 14493 C 1324.61 3.03957 -1.49877 0
M  V30 14494 C 1323.78 3.38979 -2.76427 0
M  V30 14495 C 1322.84 4.56881 -2.61048 0
M  V30 14496 O 1321.87 4.6023 -3.34928 0
M  V30 14497 N 1323.07 5.54898 -1.70496 0
M  V30 14498 H 1325.84 1.56827 -2.55393 0
M  V30 14499 H 1323.4 0.71976 -1.45021 0
M  V30 14500 H 1325.39 3.80702 -1.37288 0
M  V30 14501 H 1323.96 3.06548 -0.612158 0
M  V30 14502 H 1323.18 2.51438 -3.03599 0
M  V30 14503 H 1324.47 3.59163 -3.60388 0
M  V30 14504 H 1323.87 5.54968 -1.0967 0
M  V30 14505 H 1322.42 6.3087 -1.63847 0
M  V30 14506 N 1325.86 1.36875 0.78122 0
M  V30 14507 C 1326.79 1.27738 1.90304 0
M  V30 14508 C 1327.8 0.195147 1.61626 0
M  V30 14509 O 1328.99 0.450531 1.72721 0
M  V30 14510 C 1326.09 0.950103 3.25309 0
M  V30 14511 C 1325.26 2.13589 3.81705 0
M  V30 14512 C 1324.32 1.78037 4.95166 0
M  V30 14513 O 1323.35 2.50223 5.11251 0
M  V30 14514 N 1324.55 0.718886 5.76031 0
M  V30 14515 H 1327.31 2.24397 1.98661 0
M  V30 14516 H 1324.88 1.30376 0.959883 0
M  V30 14517 H 1326.87 0.693286 3.98717 0
M  V30 14518 H 1325.44 0.0723849 3.12516 0
M  V30 14519 H 1324.66 2.55502 3.00187 0
M  V30 14520 H 1325.95 2.9279 4.16114 0
M  V30 14521 H 1325.34 0.119681 5.65573 0
M  V30 14522 H 1323.9 0.521909 6.49707 0
M  V30 14523 N 1327.33 -1.00632 1.21289 0
M  V30 14524 C 1328.28 -2.07791 0.938459 0
M  V30 14525 C 1329.27 -1.60552 -0.105773 0
M  V30 14526 O 1330.46 -1.767 0.102981 0
M  V30 14527 C 1327.59 -3.39587 0.503563 0
M  V30 14528 C 1326.67 -3.93497 1.58179 0
M  V30 14529 N 1327.07 -4.20792 2.80656 0
M  V30 14530 C 1325.36 -4.21759 1.45035 0
M  V30 14531 C 1326.06 -4.64411 3.50281 0
M  V30 14532 N 1325.04 -4.67305 2.77717 0
M  V30 14533 H 1328.84 -2.26816 1.869 0
M  V30 14534 H 1326.36 -1.18692 1.10842 0
M  V30 14535 H 1328.35 -4.15902 0.288323 0
M  V30 14536 H 1327.01 -3.21969 -0.420233 0
M  V30 14537 H 1328.02 -4.09386 3.17212 0
M  V30 14538 H 1324.7 -4.13285 0.591745 0
M  V30 14539 H 1326.09 -4.94263 4.55141 0
M  V30 14540 N 1328.81 -1.02043 -1.20104 0
M  V30 14541 C 1329.74 -0.614421 -2.25271 0
M  V30 14542 C 1330.72 0.37242 -1.65973 0
M  V30 14543 O 1331.91 0.257005 -1.92492 0
M  V30 14544 C 1329.04 0.0442085 -3.47272 0
M  V30 14545 C 1327.99 -0.864019 -4.19188 0
M  V30 14546 C 1327.32 -0.0709551 -5.34653 0
M  V30 14547 C 1328.62 -2.17385 -4.74912 0
M  V30 14548 H 1330.31 -1.49355 -2.59487 0
M  V30 14549 H 1327.86 -0.719591 -1.24731 0
M  V30 14550 H 1329.81 0.339825 -4.20028 0
M  V30 14551 H 1328.53 0.958082 -3.12231 0
M  V30 14552 H 1327.19 -1.1437 -3.48303 0
M  V30 14553 H 1326.84 0.844688 -4.95857 0
M  V30 14554 H 1326.54 -0.67583 -5.83701 0
M  V30 14555 H 1328.07 0.218118 -6.1021 0
M  V30 14556 H 1329.48 -1.94034 -5.39466 0
M  V30 14557 H 1327.88 -2.72991 -5.34412 0
M  V30 14558 H 1328.95 -2.83427 -3.93443 0
M  V30 14559 N 1330.29 1.35952 -0.797165 0
M  V30 14560 C 1331.2 2.33726 -0.202271 0
M  V30 14561 C 1332.22 1.61415 0.649719 0
M  V30 14562 O 1333.39 1.93351 0.563686 0
M  V30 14563 C 1330.46 3.40612 0.64685 0
M  V30 14564 C 1329.52 4.28712 -0.224536 0
M  V30 14565 C 1328.75 5.30493 0.584153 0
M  V30 14566 O 1328.97 5.40599 1.81957 0
M  V30 14567 O 1327.91 6.01897 -0.0200239 0
M  V30 14568 H 1331.73 2.86383 -1.01087 0
M  V30 14569 H 1329.32 1.38557 -0.558768 0
M  V30 14570 H 1331.2 4.05944 1.1308 0
M  V30 14571 H 1329.88 2.90243 1.43321 0
M  V30 14572 H 1328.78 3.66394 -0.755415 0
M  V30 14573 H 1330.12 4.82454 -0.974603 0
M  V30 14574 N 1331.77 0.549846 1.47697 0
M  V30 14575 C 1332.72 -0.215119 2.31603 0
M  V30 14576 C 1333.71 -0.916441 1.4247 0
M  V30 14577 O 1334.92 -0.838565 1.59274 0
M  V30 14578 H 1331.29 -0.0882441 0.746805 0
M  V30 14579 H 1333.26 0.511847 2.93977 0
M  V30 14580 C 1332.01 -1.23662 3.24966 0
M  V30 14581 H 1331.33 -0.706384 3.9351 0
M  V30 14582 H 1332.77 -1.7429 3.86522 0
M  V30 14583 C 1331.23 -2.28066 2.47967 0
M  V30 14584 O 1331.76 -3.34862 2.21879 0
M  V30 14585 N 1329.97 -2.01799 2.09106 0
M  V30 14586 H 1329.52 -1.14965 2.30523 0
M  V30 14587 H 1329.47 -2.71872 1.57902 0
M  V30 14588 N 1333.25 -1.54984 0.285932 0
M  V30 14589 C 1334.16 -2.26621 -0.606648 0
M  V30 14590 C 1335.17 -1.29595 -1.16108 0
M  V30 14591 O 1336.35 -1.62551 -1.18908 0
M  V30 14592 C 1333.41 -2.98156 -1.76929 0
M  V30 14593 C 1332.47 -4.10685 -1.25045 0
M  V30 14594 C 1331.71 -4.788 -2.35768 0
M  V30 14595 O 1331.93 -4.46183 -3.55354 0
M  V30 14596 O 1330.86 -5.66523 -2.03312 0
M  V30 14597 H 1334.69 -3.03689 -0.0259981 0
M  V30 14598 H 1332.28 -1.49306 0.0529355 0
M  V30 14599 H 1334.16 -3.43076 -2.44697 0
M  V30 14600 H 1332.83 -2.23996 -2.33683 0
M  V30 14601 H 1331.74 -3.70198 -0.538919 0
M  V30 14602 H 1333.07 -4.86778 -0.728528 0
M  V30 14603 N 1334.72 -0.0133892 -1.57594 0
M  V30 14604 C 1335.65 0.972341 -2.12292 0
M  V30 14605 C 1336.64 1.34971 -1.03522 0
M  V30 14606 O 1337.82 1.4311 -1.31275 0
M  V30 14607 C 1334.95 2.25988 -2.63717 0
M  V30 14608 C 1333.9 2.02373 -3.77133 0
M  V30 14609 C 1333.23 3.37256 -4.14925 0
M  V30 14610 C 1334.53 1.37553 -5.03861 0
M  V30 14611 H 1336.22 0.516869 -2.94905 0
M  V30 14612 H 1333.77 0.247176 -1.41863 0
M  V30 14613 H 1335.72 2.95313 -3.00613 0
M  V30 14614 H 1334.45 2.73672 -1.78244 0
M  V30 14615 H 1333.11 1.3547 -3.40651 0
M  V30 14616 H 1332.75 3.82669 -3.26456 0
M  V30 14617 H 1332.45 3.22267 -4.91343 0
M  V30 14618 H 1333.98 4.07875 -4.5439 0
M  V30 14619 H 1335.39 1.96855 -5.38443 0
M  V30 14620 H 1333.79 1.33011 -5.85174 0
M  V30 14621 H 1334.86 0.346429 -4.83661 0
M  V30 14622 N 1336.2 1.55448 0.259558 0
M  V30 14623 C 1337.15 1.89248 1.32113 0
M  V30 14624 C 1338.12 0.745348 1.48438 0
M  V30 14625 O 1339.3 0.997854 1.62627 0
M  V30 14626 C 1336.44 2.18161 2.67394 0
M  V30 14627 C 1335.56 3.45614 2.59182 0
M  V30 14628 C 1334.69 3.6416 3.86731 0
M  V30 14629 C 1333.73 4.85258 3.73084 0
M  V30 14630 N 1332.87 5.00391 4.92497 0
M  V30 14631 H 1337.71 2.79785 1.02589 0
M  V30 14632 H 1335.25 1.38509 0.495338 0
M  V30 14633 H 1337.2 2.32927 3.46122 0
M  V30 14634 H 1335.83 1.30843 2.95093 0
M  V30 14635 H 1334.89 3.39248 1.72091 0
M  V30 14636 H 1336.2 4.34483 2.45002 0
M  V30 14637 H 1335.35 3.78817 4.73902 0
M  V30 14638 H 1334.09 2.73501 4.03793 0
M  V30 14639 H 1333.1 4.70591 2.84296 0
M  V30 14640 H 1334.32 5.77365 3.57528 0
M  V30 14641 H 1332.27 4.12666 5.09944 0
M  V30 14642 H 1332.18 5.83328 4.809 0
M  V30 14643 H 1333.45 5.19446 5.81202 0
M  V30 14644 N 1337.68 -0.524672 1.4861 0
M  V30 14645 C 1338.93 -1.27768 1.56588 0
M  V30 14646 C 1339.25 -1.93469 0.243899 0
M  V30 14647 O 1338.52 -1.8159 -0.734985 0
M  V30 14648 H 1337.1 -0.474566 0.576885 0
M  V30 14649 H 1339.76 -0.610114 1.85104 0
M  V30 14650 H 1338.86 -2.05416 2.34969 0
M  V30 14651 N 1339.16 -1.37287 -0.77395 0
M  V30 14652 C 1340.09 -1.28746 -1.89624 0
M  V30 14653 C 1341.1 -0.203715 -1.6152 0
M  V30 14654 O 1342.29 -0.459684 -1.72479 0
M  V30 14655 C 1339.39 -0.967342 -3.24801 0
M  V30 14656 C 1338.57 -2.1561 -3.80567 0
M  V30 14657 C 1337.62 -1.80661 -4.94215 0
M  V30 14658 O 1336.65 -2.5293 -5.09917 0
M  V30 14659 N 1337.85 -0.749424 -5.75642 0
M  V30 14660 H 1340.62 -2.25447 -1.97468 0
M  V30 14661 H 1338.18 -1.30883 -0.952956 0
M  V30 14662 H 1340.17 -0.714421 -3.98344 0
M  V30 14663 H 1338.74 -0.0889573 -3.12473 0
M  V30 14664 H 1337.96 -2.57091 -2.98828 0
M  V30 14665 H 1339.25 -2.94993 -4.14556 0
M  V30 14666 H 1338.65 -0.149673 -5.65502 0
M  V30 14667 H 1337.2 -0.556358 -6.49421 0
M  V30 14668 N 1340.64 0.999871 -1.21821 0
M  V30 14669 C 1342.05 1.5529 -1.03642 0
M  V30 14670 C 1342.4 1.92032 0.402246 0
M  V30 14671 O 1341.52 1.74027 1.28622 0
M  V30 14672 C 1342.12 2.82177 -1.87514 0
M  V30 14673 C 1340.68 3.33949 -1.73653 0
M  V30 14674 C 1339.82 2.07095 -1.84409 0
M  V30 14675 H 1342.78 0.821751 -1.35768 0
M  V30 14676 H 1342.8 3.54264 -1.38842 0
M  V30 14677 H 1342.31 2.55405 -2.92216 0
M  V30 14678 H 1340.41 3.65645 -0.716554 0
M  V30 14679 H 1340.52 4.05022 -2.55918 0
M  V30 14680 H 1338.89 2.20332 -1.27773 0
M  V30 14681 H 1339.67 1.82728 -2.90629 0
M  V30 14682 N 1342.11 1.02678 1.19562 0
M  V30 14683 C 1343.36 0.72059 1.88817 0
M  V30 14684 C 1343.68 -0.752942 1.79877 0
M  V30 14685 O 1342.95 -1.54233 1.20785 0
M  V30 14686 H 1341.53 0.26355 0.698964 0
M  V30 14687 H 1344.2 1.30056 1.4516 0
M  V30 14688 H 1343.29 1.01303 2.95202 0
M  V30 14689 N 1343.59 -1.35528 0.804364 0
M  V30 14690 C 1344.54 -2.27241 0.18591 0
M  V30 14691 C 1345.53 -1.47669 -0.638956 0
M  V30 14692 O 1346.72 -1.69891 -0.496578 0
M  V30 14693 C 1343.85 -3.36769 -0.666446 0
M  V30 14694 C 1342.93 -4.23767 0.168027 0
M  V30 14695 N 1343.32 -4.90618 1.22994 0
M  V30 14696 C 1341.62 -4.45971 -0.0507088 0
M  V30 14697 C 1342.32 -5.55092 1.7392 0
M  V30 14698 N 1341.3 -5.33441 1.04601 0
M  V30 14699 H 1345.1 -2.7642 0.998467 0
M  V30 14700 H 1342.62 -1.49029 0.645301 0
M  V30 14701 H 1344.61 -4.01419 -1.12554 0
M  V30 14702 H 1343.27 -2.89143 -1.47738 0
M  V30 14703 H 1344.28 -4.92155 1.61256 0
M  V30 14704 H 1340.96 -4.09147 -0.830958 0
M  V30 14705 H 1342.35 -6.18434 2.62659 0
M  V30 14706 N 1345.07 -0.557671 -1.47404 0
M  V30 14707 C 1346.03 0.179311 -2.28498 0
M  V30 14708 C 1347.03 0.842281 -1.36975 0
M  V30 14709 O 1348.22 0.698072 -1.59601 0
M  V30 14710 C 1345.36 1.26229 -3.16668 0
M  V30 14711 H 1346.55 -0.533033 -2.95125 0
M  V30 14712 H 1344.1 -0.314634 -1.531 0
M  V30 14713 H 1344.84 2.00702 -2.54733 0
M  V30 14714 H 1344.62 0.791712 -3.84024 0
M  V30 14715 H 1346.11 1.77991 -3.77768 0
M  V30 14716 N 1346.55 1.54831 -0.294147 0
M  V30 14717 C 1347.78 2.04115 0.319474 0
M  V30 14718 C 1348.19 1.17125 1.48588 0
M  V30 14719 O 1347.53 0.188034 1.82735 0
M  V30 14720 C 1347.59 3.49429 0.84496 0
M  V30 14721 C 1347.26 4.56583 -0.195275 0
M  V30 14722 C 1348.25 5.09768 -1.02138 0
M  V30 14723 C 1345.94 5.01182 -0.335 0
M  V30 14724 C 1347.93 6.06088 -1.97321 0
M  V30 14725 C 1345.62 5.97323 -1.29029 0
M  V30 14726 C 1346.62 6.49659 -2.10788 0
M  V30 14727 O 1346.31 7.43918 -3.04698 0
M  V30 14728 H 1346.04 0.671895 0.074383 0
M  V30 14729 H 1348.59 2.00856 -0.429669 0
M  V30 14730 H 1346.82 3.4999 1.64451 0
M  V30 14731 H 1348.51 3.81947 1.37372 0
M  V30 14732 H 1349.28 4.76112 -0.924264 0
M  V30 14733 H 1345.16 4.60078 0.291422 0
M  V30 14734 H 1348.7 6.46863 -2.61177 0
M  V30 14735 H 1344.6 6.30397 -1.38815 0
M  V30 14736 H 1345.36 7.61698 -2.99598 0
M  V30 14737 N 1348.03 0.0217466 1.57585 0
M  V30 14738 C 1348.96 -0.961069 2.12804 0
M  V30 14739 C 1349.94 -1.3442 1.04237 0
M  V30 14740 O 1351.12 -1.42412 1.32032 0
M  V30 14741 C 1348.25 -2.24586 2.64912 0
M  V30 14742 C 1347.21 -2.0037 3.78201 0
M  V30 14743 C 1346.53 -3.35051 4.16708 0
M  V30 14744 C 1347.83 -1.34879 5.04584 0
M  V30 14745 H 1349.53 -0.501222 2.95175 0
M  V30 14746 H 1347.07 -0.239649 1.41992 0
M  V30 14747 H 1349.03 -2.93715 3.02175 0
M  V30 14748 H 1347.75 -2.72723 1.79693 0
M  V30 14749 H 1346.41 -1.33662 3.41365 0
M  V30 14750 H 1346.06 -3.80932 3.28481 0
M  V30 14751 H 1345.76 -3.19656 4.93045 0
M  V30 14752 H 1347.28 -4.05459 4.56547 0
M  V30 14753 H 1348.7 -1.93997 5.3948 0
M  V30 14754 H 1347.09 -1.29906 5.85871 0
M  V30 14755 H 1348.16 -0.320774 4.83838 0
M  V30 14756 N 1349.51 -1.55583 -0.251311 0
M  V30 14757 C 1350.42 -1.93073 -1.33266 0
M  V30 14758 C 1351.43 -0.830612 -1.52895 0
M  V30 14759 O 1352.61 -1.13162 -1.66602 0
M  V30 14760 C 1349.67 -2.21396 -2.66805 0
M  V30 14761 C 1348.73 -3.44815 -2.55737 0
M  V30 14762 C 1347.97 -3.71777 -3.82907 0
M  V30 14763 O 1348.19 -3.00884 -4.84587 0
M  V30 14764 O 1347.12 -4.65305 -3.81805 0
M  V30 14765 H 1350.95 -2.85168 -1.04465 0
M  V30 14766 H 1348.53 -1.42408 -0.451693 0
M  V30 14767 H 1350.42 -2.4094 -3.45725 0
M  V30 14768 H 1349.09 -1.3248 -2.95348 0
M  V30 14769 H 1348 -3.30582 -1.75118 0
M  V30 14770 H 1349.33 -4.34019 -2.32139 0
M  V30 14771 N 1350.98 0.516783 -1.48886 0
M  V30 14772 C 1352.21 1.29628 -1.61258 0
M  V30 14773 C 1352.63 1.86744 -0.27786 0
M  V30 14774 O 1351.98 1.67061 0.734639 0
M  V30 14775 C 1352.03 2.43779 -2.66935 0
M  V30 14776 O 1351.76 1.89014 -3.95228 0
M  V30 14777 C 1353.26 3.35398 -2.89867 0
M  V30 14778 H 1350.48 0.393736 -0.543335 0
M  V30 14779 H 1353.02 0.622069 -1.94809 0
M  V30 14780 H 1351.18 3.0706 -2.36206 0
M  V30 14781 H 1351.59 2.63833 -4.53312 0
M  V30 14782 H 1353.06 4.11812 -3.6758 0
M  V30 14783 H 1353.54 3.91436 -1.99185 0
M  V30 14784 H 1354.15 2.77898 -3.21952 0
M  V30 14785 N 1352.46 1.37696 0.766659 0
M  V30 14786 C 1353.39 1.36576 1.89392 0
M  V30 14787 C 1354.37 0.233597 1.68488 0
M  V30 14788 O 1355.56 0.434719 1.89272 0
M  V30 14789 C 1352.69 1.17705 3.26746 0
M  V30 14790 C 1351.64 2.27987 3.62224 0
M  V30 14791 C 1350.97 1.94235 4.98174 0
M  V30 14792 C 1352.27 3.70195 3.68447 0
M  V30 14793 H 1353.96 2.30905 1.90587 0
M  V30 14794 H 1351.51 1.11148 0.915538 0
M  V30 14795 H 1353.46 1.15551 4.05248 0
M  V30 14796 H 1352.18 0.198334 3.25997 0
M  V30 14797 H 1350.84 2.29306 2.86032 0
M  V30 14798 H 1350.49 0.948796 4.93971 0
M  V30 14799 H 1350.19 2.68086 5.2288 0
M  V30 14800 H 1351.72 1.93676 5.7907 0
M  V30 14801 H 1353.13 3.70978 4.37091 0
M  V30 14802 H 1351.53 4.43142 4.04654 0
M  V30 14803 H 1352.6 4.03453 2.68986 0
M  V30 14804 N 1353.94 -0.993397 1.22349 0
M  V30 14805 C 1354.89 -2.0834 0.993123 0
M  V30 14806 C 1355.86 -1.65883 -0.0849717 0
M  V30 14807 O 1357.04 -1.90691 0.0645176 0
M  V30 14808 C 1354.18 -3.40252 0.576434 0
M  V30 14809 C 1353.29 -3.96055 1.72524 0
M  V30 14810 C 1352.43 -5.16123 1.25659 0
M  V30 14811 C 1351.47 -5.64062 2.37698 0
M  V30 14812 N 1350.61 -6.7537 1.91883 0
M  V30 14813 H 1355.45 -2.27381 1.92619 0
M  V30 14814 H 1352.98 -1.11476 0.959763 0
M  V30 14815 H 1354.94 -4.16001 0.316021 0
M  V30 14816 H 1353.57 -3.21214 -0.319626 0
M  V30 14817 H 1352.62 -3.17182 2.1 0
M  V30 14818 H 1353.93 -4.27614 2.56802 0
M  V30 14819 H 1353.09 -5.9916 0.953528 0
M  V30 14820 H 1351.83 -4.86186 0.384011 0
M  V30 14821 H 1350.83 -4.79614 2.68794 0
M  V30 14822 H 1352.06 -5.96025 3.25471 0
M  V30 14823 H 1350 -6.47217 1.06986 0
M  V30 14824 H 1349.92 -7.06246 2.69727 0
M  V30 14825 H 1351.19 -7.61914 1.64644 0
M  V30 14826 N 1355.42 -1.03311 -1.19015 0
M  V30 14827 C 1356.65 -0.751802 -1.92758 0
M  V30 14828 C 1357.06 0.689982 -1.7574 0
M  V30 14829 O 1356.42 1.46961 -1.08207 0
M  V30 14830 C 1356.47 -1.09892 -3.44392 0
M  V30 14831 O 1356.19 -2.48409 -3.60866 0
M  V30 14832 C 1357.69 -0.841029 -4.35249 0
M  V30 14833 H 1354.91 -0.274757 -0.612168 0
M  V30 14834 H 1357.45 -1.37873 -1.51034 0
M  V30 14835 H 1355.61 -0.517092 -3.83933 0
M  V30 14836 H 1356.02 -2.61468 -4.54681 0
M  V30 14837 H 1357.5 -1.13383 -5.4023 0
M  V30 14838 H 1357.97 0.224434 -4.38626 0
M  V30 14839 H 1358.58 -1.40579 -4.01395 0
M  V30 14840 N 1356.9 1.35099 -0.81154 0
M  V30 14841 C 1357.83 2.32264 -0.239925 0
M  V30 14842 C 1358.81 1.57708 0.637354 0
M  V30 14843 O 1359.99 1.85751 0.566598 0
M  V30 14844 C 1357.12 3.41931 0.608325 0
M  V30 14845 C 1356.08 4.27659 -0.170869 0
M  V30 14846 C 1355.4 5.28691 0.799398 0
M  V30 14847 C 1356.7 5.0394 -1.37266 0
M  V30 14848 H 1358.4 2.8032 -1.05172 0
M  V30 14849 H 1355.94 1.34773 -0.507185 0
M  V30 14850 H 1357.89 4.08911 1.01832 0
M  V30 14851 H 1356.62 2.92496 1.45306 0
M  V30 14852 H 1355.28 3.62265 -0.562094 0
M  V30 14853 H 1354.93 4.75521 1.63977 0
M  V30 14854 H 1354.63 5.86921 0.282331 0
M  V30 14855 H 1356.15 5.98542 1.20749 0
M  V30 14856 H 1357.56 5.63838 -1.03728 0
M  V30 14857 H 1355.96 5.7169 -1.82456 0
M  V30 14858 H 1357.03 4.34295 -2.15676 0
M  V30 14859 N 1358.37 0.56548 1.47106 0
M  V30 14860 C 1359.32 -0.177564 2.30116 0
M  V30 14861 C 1360.29 -0.900534 1.39569 0
M  V30 14862 O 1361.48 -0.894603 1.68527 0
M  V30 14863 C 1358.62 -1.19633 3.237 0
M  V30 14864 C 1357.73 -0.47858 4.29341 0
M  V30 14865 C 1356.86 -1.48336 5.10068 0
M  V30 14866 C 1355.9 -0.751049 6.07475 0
M  V30 14867 N 1355.04 -1.70306 6.81132 0
M  V30 14868 H 1359.88 0.536409 2.93132 0
M  V30 14869 H 1357.42 0.276352 1.44481 0
M  V30 14870 H 1359.37 -1.79967 3.76388 0
M  V30 14871 H 1358 -1.87823 2.6253 0
M  V30 14872 H 1357.06 0.239454 3.79646 0
M  V30 14873 H 1358.37 0.0947147 4.9871 0
M  V30 14874 H 1357.52 -2.16 5.66947 0
M  V30 14875 H 1356.26 -2.09058 4.4062 0
M  V30 14876 H 1355.27 -0.0605336 5.49767 0
M  V30 14877 H 1356.49 -0.14946 6.78936 0
M  V30 14878 H 1354.44 -2.2987 6.14407 0
M  V30 14879 H 1354.35 -1.18213 7.46701 0
M  V30 14880 H 1355.62 -2.37058 7.42579 0
M  V30 14881 N 1359.85 -1.54672 0.302354 0
M  V30 14882 C 1361.13 -1.92264 -0.359711 0
M  V30 14883 C 1361.51 -1.22973 -1.71583 0
M  V30 14884 O 1360.86 -0.365942 -2.25551 0
M  V30 14885 C 1361.07 -3.4578 -0.473019 0
M  V30 14886 C 1362.42 -4.18044 -0.743252 0
M  V30 14887 O 1363.44 -3.51822 -0.556778 0
M  V30 14888 O 1362.3 -5.35283 -1.10155 0
M  V30 14889 H 1359.39 -0.802112 -0.201359 0
M  V30 14890 H 1361.94 -1.66041 0.350513 0
M  V30 14891 H 1360.71 -3.88342 0.480265 0
M  V30 14892 H 1360.33 -3.78042 -1.23166 0
M  V30 14893 N 1361.33 -0.0301034 -1.57571 0
M  V30 14894 C 1362.58 0.649283 -1.92125 0
M  V30 14895 C 1362.91 1.71722 -0.90692 0
M  V30 14896 O 1362.18 1.94373 0.0702019 0
M  V30 14897 C 1362.47 1.26482 -3.37156 0
M  V30 14898 C 1362.32 0.206375 -4.49326 0
M  V30 14899 C 1363.64 2.18256 -3.82168 0
M  V30 14900 H 1360.76 0.234561 -0.698678 0
M  V30 14901 H 1363.4 -0.0875634 -1.89798 0
M  V30 14902 H 1361.55 1.89283 -3.3927 0
M  V30 14903 H 1363.22 -0.424268 -4.59345 0
M  V30 14904 H 1361.47 -0.468035 -4.31268 0
M  V30 14905 H 1362.14 0.676689 -5.47837 0
M  V30 14906 H 1364.61 1.65441 -3.81797 0
M  V30 14907 H 1363.49 2.58277 -4.84339 0
M  V30 14908 H 1363.75 3.07411 -3.17727 0
M  V30 14909 N 1362.81 1.55714 0.243056 0
M  V30 14910 C 1363.74 1.93655 1.30461 0
M  V30 14911 C 1364.72 0.801968 1.50008 0
M  V30 14912 O 1365.9 1.06256 1.62552 0
M  V30 14913 C 1363.03 2.23459 2.65863 0
M  V30 14914 C 1361.99 3.39205 2.61006 0
M  V30 14915 C 1361.31 3.5456 4.00239 0
M  V30 14916 C 1362.61 4.74787 2.17656 0
M  V30 14917 H 1364.31 2.82575 0.98954 0
M  V30 14918 H 1361.85 1.35955 0.474572 0
M  V30 14919 H 1363.81 2.48591 3.40266 0
M  V30 14920 H 1362.53 1.31369 2.99014 0
M  V30 14921 H 1361.19 3.14088 1.89061 0
M  V30 14922 H 1360.84 2.59884 4.30661 0
M  V30 14923 H 1360.54 4.32399 3.97876 0
M  V30 14924 H 1362.06 3.82017 4.76335 0
M  V30 14925 H 1363.48 4.99266 2.81792 0
M  V30 14926 H 1361.87 5.55756 2.26397 0
M  V30 14927 H 1362.94 4.7159 1.12831 0
M  V30 14928 N 1364.29 -0.50888 1.49158 0
M  V30 14929 C 1365.23 -1.63216 1.6572 0
M  V30 14930 C 1366.23 -1.61117 0.523236 0
M  V30 14931 O 1367.43 -1.6572 0.702629 0
M  V30 14932 H 1363.81 -0.540909 0.522419 0
M  V30 14933 H 1365.78 -1.46397 2.6002 0
M  V30 14934 C 1364.53 -3.01393 1.73372 0
M  V30 14935 H 1363.85 -3.03711 2.6 0
M  V30 14936 H 1365.29 -3.79547 1.88998 0
M  V30 14937 C 1363.75 -3.33509 0.47683 0
M  V30 14938 O 1364.28 -3.99694 -0.400986 0
M  V30 14939 N 1362.49 -2.88579 0.342145 0
M  V30 14940 H 1362.03 -2.34894 1.05747 0
M  V30 14941 H 1361.99 -3.10435 -0.497757 0
M  V30 14942 N 1365.76 -1.381 -0.759346 0
M  V30 14943 C 1367.04 -1.24517 -1.50847 0
M  V30 14944 C 1367.42 0.155929 -2.10523 0
M  V30 14945 O 1366.77 1.16485 -1.96579 0
M  V30 14946 C 1366.98 -2.35086 -2.57945 0
M  V30 14947 C 1368.33 -2.73232 -3.25007 0
M  V30 14948 O 1369.35 -2.34355 -2.68247 0
M  V30 14949 O 1368.21 -3.40254 -4.27656 0
M  V30 14950 H 1365.3 -0.486599 -0.668693 0
M  V30 14951 H 1367.85 -1.49913 -0.795249 0
M  V30 14952 H 1366.62 -3.28858 -2.12056 0
M  V30 14953 H 1366.25 -2.11222 -3.36854 0
M  V30 14954 N 1367.24 0.986894 -1.22875 0
M  V30 14955 C 1368.47 1.768 -1.08427 0
M  V30 14956 C 1368.89 1.84612 0.360555 0
M  V30 14957 O 1368.25 1.30299 1.26063 0
M  V30 14958 C 1368.3 3.17638 -1.70701 0
M  V30 14959 O 1367.4 4.00957 -0.964752 0
M  V30 14960 H 1366.74 0.544199 -0.380451 0
M  V30 14961 H 1369.27 1.23931 -1.62795 0
M  V30 14962 H 1369.28 3.68243 -1.75672 0
M  V30 14963 H 1367.96 3.11267 -2.75837 0
M  V30 14964 H 1366.54 3.59477 -0.991493 0
M  V30 14965 N 1368.72 1.0394 1.18466 0
M  V30 14966 C 1369.63 0.639714 2.2571 0
M  V30 14967 C 1370.65 -0.333431 1.70775 0
M  V30 14968 O 1371.82 -0.188676 2.00514 0
M  V30 14969 C 1368.89 0.007559 3.46699 0
M  V30 14970 C 1367.95 1.02955 4.16772 0
M  V30 14971 C 1367.18 0.427464 5.31985 0
M  V30 14972 O 1367.4 -0.766684 5.65224 0
M  V30 14973 O 1366.34 1.15553 5.90704 0
M  V30 14974 H 1370.16 1.53316 2.6216 0
M  V30 14975 H 1367.75 0.810206 1.25523 0
M  V30 14976 H 1369.63 -0.344404 4.1999 0
M  V30 14977 H 1368.31 -0.859727 3.12074 0
M  V30 14978 H 1367.21 1.43328 3.45554 0
M  V30 14979 H 1368.55 1.86756 4.55393 0
M  V30 14980 N 1370.2 -1.34667 0.818693 0
M  V30 14981 C 1371.15 -2.31501 0.225816 0
M  V30 14982 C 1372.14 -1.57205 -0.631112 0
M  V30 14983 O 1373.35 -1.72237 -0.522924 0
M  V30 14984 H 1369.72 -0.750039 0.0542747 0
M  V30 14985 H 1371.69 -2.79036 1.05743 0
M  V30 14986 C 1370.44 -3.42464 -0.60114 0
M  V30 14987 H 1369.76 -3.9977 0.0489207 0
M  V30 14988 H 1371.2 -4.12468 -0.982154 0
M  V30 14989 C 1369.66 -2.86551 -1.77173 0
M  V30 14990 O 1370.19 -2.81085 -2.86974 0
M  V30 14991 N 1368.4 -2.43432 -1.58712 0
M  V30 14992 H 1367.95 -2.48077 -0.693958 0
M  V30 14993 H 1367.9 -2.06371 -2.37188 0
M  V30 14994 N 1371.68 -0.573274 -1.46804 0
M  V30 14995 C 1372.62 0.165358 -2.30207 0
M  V30 14996 C 1373.59 0.89312 -1.40045 0
M  V30 14997 O 1374.78 0.885653 -1.68999 0
M  V30 14998 C 1371.92 1.17915 -3.2433 0
M  V30 14999 C 1371.03 0.455805 -4.29589 0
M  V30 15000 C 1370.17 1.45629 -5.10848 0
M  V30 15001 C 1369.21 0.718822 -6.07865 0
M  V30 15002 N 1368.34 1.66691 -6.82025 0
M  V30 15003 H 1373.18 -0.551947 -2.92844 0
M  V30 15004 H 1370.72 -0.28401 -1.44332 0
M  V30 15005 H 1372.68 1.77969 -3.77337 0
M  V30 15006 H 1371.31 1.86429 -2.63523 0
M  V30 15007 H 1370.36 -0.259584 -3.79513 0
M  V30 15008 H 1371.67 -0.121161 -4.98653 0
M  V30 15009 H 1370.83 2.1299 -5.68084 0
M  V30 15010 H 1369.56 2.06718 -4.41723 0
M  V30 15011 H 1368.57 0.0313773 -5.49791 0
M  V30 15012 H 1369.79 0.113452 -6.79005 0
M  V30 15013 H 1367.74 2.26608 -6.15617 0
M  V30 15014 H 1367.66 1.14251 -7.47317 0
M  V30 15015 H 1368.93 2.33117 -7.43826 0
M  V30 15016 N 1373.15 1.5451 -0.310553 0
M  V30 15017 C 1374.12 2.2254 0.548489 0
M  V30 15018 C 1375.12 1.21456 1.05381 0
M  V30 15019 O 1376.31 1.46126 0.948311 0
M  V30 15020 C 1373.44 2.91927 1.76043 0
M  V30 15021 H 1374.63 2.99865 -0.0460306 0
M  V30 15022 H 1372.19 1.56179 -0.061487 0
M  V30 15023 H 1372.92 2.18706 2.39454 0
M  V30 15024 H 1372.71 3.66038 1.40564 0
M  V30 15025 H 1374.2 3.43797 2.37051 0
M  V30 15026 N 1374.63 0.0384594 1.57553 0
M  V30 15027 C 1375.57 -0.969185 2.077 0
M  V30 15028 C 1376.58 -1.2829 1.00227 0
M  V30 15029 O 1377.77 -1.24592 1.27824 0
M  V30 15030 C 1374.87 -2.29414 2.49444 0
M  V30 15031 C 1374.04 -2.16422 3.80106 0
M  V30 15032 C 1373.1 -3.31931 4.08299 0
M  V30 15033 O 1372.13 -3.08401 4.78412 0
M  V30 15034 N 1373.33 -4.56015 3.59208 0
M  V30 15035 H 1376.09 -0.541252 2.94772 0
M  V30 15036 H 1373.65 -0.148084 1.61221 0
M  V30 15037 H 1375.65 -3.05533 2.6539 0
M  V30 15038 H 1374.22 -2.63817 1.67688 0
M  V30 15039 H 1373.44 -1.24973 3.73866 0
M  V30 15040 H 1374.72 -2.04954 4.65694 0
M  V30 15041 H 1374.12 -4.78025 3.02503 0
M  V30 15042 H 1372.68 -5.29271 3.80415 0
M  V30 15043 N 1376.11 -1.55841 -0.234795 0
M  V30 15044 C 1377.36 -1.78502 -0.96254 0
M  V30 15045 C 1377.69 -0.605832 -1.84508 0
M  V30 15046 O 1376.97 0.395446 -1.90438 0
M  V30 15047 C 1377.25 -3.11144 -1.81277 0
M  V30 15048 C 1377.1 -4.39488 -0.957607 0
M  V30 15049 C 1378.42 -3.40114 -2.79304 0
M  V30 15050 H 1375.54 -0.649397 -0.348501 0
M  V30 15051 H 1378.18 -1.88575 -0.23224 0
M  V30 15052 H 1376.33 -3.02687 -2.43542 0
M  V30 15053 H 1378 -4.59949 -0.352726 0
M  V30 15054 H 1376.25 -4.33005 -0.262454 0
M  V30 15055 H 1376.92 -5.28707 -1.58659 0
M  V30 15056 H 1379.39 -3.48612 -2.27175 0
M  V30 15057 H 1378.27 -4.34118 -3.35906 0
M  V30 15058 H 1378.53 -2.61623 -3.56378 0
M  V30 15059 N 1377.59 0.500963 -1.49426 0
M  V30 15060 C 1378.81 1.28383 -1.62888 0
M  V30 15061 C 1379.24 1.85688 -0.300262 0
M  V30 15062 O 1378.6 1.6586 0.73212 0
M  V30 15063 C 1378.65 2.38987 -2.70033 0
M  V30 15064 O 1377.75 3.42837 -2.29208 0
M  V30 15065 H 1377.09 0.379012 -0.545202 0
M  V30 15066 H 1379.62 0.59971 -1.95613 0
M  V30 15067 H 1379.63 2.84749 -2.92202 0
M  V30 15068 H 1378.31 1.96643 -3.66475 0
M  V30 15069 H 1376.88 3.02993 -2.1737 0
M  V30 15070 N 1379.07 1.38501 0.752011 0
M  V30 15071 C 1380 1.38577 1.87933 0
M  V30 15072 C 1380.98 0.251454 1.68231 0
M  V30 15073 O 1382.16 0.45477 1.888 0
M  V30 15074 C 1379.29 1.21164 3.25479 0
M  V30 15075 C 1378.25 2.31816 3.59785 0
M  V30 15076 C 1377.57 1.99508 4.96085 0
M  V30 15077 C 1378.87 3.74082 3.645 0
M  V30 15078 H 1380.57 2.32913 1.88127 0
M  V30 15079 H 1378.11 1.12113 0.903698 0
M  V30 15080 H 1380.07 1.19842 4.04 0
M  V30 15081 H 1378.79 0.232899 3.25769 0
M  V30 15082 H 1377.45 2.32327 2.83584 0
M  V30 15083 H 1377.1 1.00114 4.92936 0
M  V30 15084 H 1376.8 2.73617 5.20007 0
M  V30 15085 H 1378.32 1.99807 5.76983 0
M  V30 15086 H 1379.74 3.75593 4.33131 0
M  V30 15087 H 1378.13 4.47409 3.99931 0
M  V30 15088 H 1379.2 4.06284 2.64692 0
M  V30 15089 N 1380.55 -0.980364 1.23396 0
M  V30 15090 C 1381.49 -2.09401 1.01262 0
M  V30 15091 C 1382.49 -1.69331 -0.0483957 0
M  V30 15092 O 1383.69 -1.79693 0.105109 0
M  V30 15093 H 1380.07 -0.684969 0.310358 0
M  V30 15094 H 1382.04 -2.25236 1.95732 0
M  V30 15095 C 1380.79 -3.42118 0.620526 0
M  V30 15096 H 1380.11 -3.73402 1.42868 0
M  V30 15097 H 1381.55 -4.2098 0.505169 0
M  V30 15098 C 1380.01 -3.30146 -0.671208 0
M  V30 15099 O 1380.54 -3.62997 -1.72034 0
M  V30 15100 N 1378.75 -2.83303 -0.647137 0
M  V30 15101 H 1378.29 -2.56767 0.206957 0
M  V30 15102 H 1378.25 -2.75675 -1.51165 0
M  V30 15103 N 1382.02 -1.04567 -1.17913 0
M  V30 15104 C 1383.27 -0.753137 -1.88297 0
M  V30 15105 C 1383.6 0.717651 -1.80453 0
M  V30 15106 O 1382.88 1.5242 -1.20824 0
M  V30 15107 C 1383.16 -1.22626 -3.38578 0
M  V30 15108 C 1383.01 -2.75952 -3.55205 0
M  V30 15109 C 1384.33 -0.82029 -4.32388 0
M  V30 15110 H 1381.45 -0.275067 -0.683745 0
M  V30 15111 H 1384.09 -1.29856 -1.38699 0
M  V30 15112 H 1382.24 -0.762246 -3.80949 0
M  V30 15113 H 1383.92 -3.30429 -3.21892 0
M  V30 15114 H 1382.16 -3.15534 -2.97693 0
M  V30 15115 H 1382.83 -3.04116 -4.60671 0
M  V30 15116 H 1385.31 -1.21965 -3.97824 0
M  V30 15117 H 1384.18 -1.17902 -5.36088 0
M  V30 15118 H 1384.44 0.276205 -4.41236 0
M  V30 15119 N 1383.5 1.34231 -0.825823 0
M  V30 15120 C 1384.43 2.31997 -0.264546 0
M  V30 15121 C 1385.41 1.58375 0.620592 0
M  V30 15122 O 1386.6 1.86341 0.546865 0
M  V30 15123 C 1383.73 3.42557 0.572025 0
M  V30 15124 C 1382.68 4.27454 -0.216219 0
M  V30 15125 C 1382.01 5.29509 0.743279 0
M  V30 15126 C 1383.31 5.02456 -1.42603 0
M  V30 15127 H 1385 2.79189 -1.08139 0
M  V30 15128 H 1382.55 1.34227 -0.521451 0
M  V30 15129 H 1384.5 4.09968 0.974889 0
M  V30 15130 H 1383.22 2.94021 1.42195 0
M  V30 15131 H 1381.88 3.61649 -0.600485 0
M  V30 15132 H 1381.53 4.77234 1.58924 0
M  V30 15133 H 1381.23 5.87188 0.220064 0
M  V30 15134 H 1382.76 5.99789 1.14394 0
M  V30 15135 H 1384.17 5.62706 -1.09702 0
M  V30 15136 H 1382.57 5.69723 -1.88509 0
M  V30 15137 H 1383.64 4.31983 -2.2027 0
M  V30 15138 N 1384.98 0.581051 1.46498 0
M  V30 15139 C 1385.93 -0.165944 2.32007 0
M  V30 15140 C 1386.92 -0.886015 1.44382 0
M  V30 15141 O 1388.13 -0.804592 1.61017 0
M  V30 15142 H 1384.5 -0.0723834 0.748508 0
M  V30 15143 H 1386.47 0.574089 2.92826 0
M  V30 15144 C 1385.22 -1.16741 3.27516 0
M  V30 15145 H 1384.55 -0.622756 3.9492 0
M  V30 15146 H 1385.99 -1.66052 3.90132 0
M  V30 15147 C 1384.44 -2.22755 2.52749 0
M  V30 15148 O 1384.97 -3.30081 2.28932 0
M  V30 15149 N 1383.18 -1.97318 2.1334 0
M  V30 15150 H 1382.73 -1.10049 2.3291 0
M  V30 15151 H 1382.69 -2.68461 1.63633 0
M  V30 15152 N 1386.46 -1.54343 0.318742 0
M  V30 15153 C 1387.73 -1.92635 -0.339299 0
M  V30 15154 C 1388.11 -1.24786 -1.7027 0
M  V30 15155 O 1387.46 -0.389844 -2.2515 0
M  V30 15156 C 1387.67 -3.46262 -0.436318 0
M  V30 15157 C 1389.02 -4.18809 -0.698871 0
M  V30 15158 O 1390.04 -3.52392 -0.519431 0
M  V30 15159 O 1388.9 -5.36422 -1.04471 0
M  V30 15160 H 1386 -0.804202 -0.192841 0
M  V30 15161 H 1388.54 -1.6566 0.368104 0
M  V30 15162 H 1387.32 -3.8781 0.521427 0
M  V30 15163 H 1386.94 -3.79327 -1.19149 0
M  V30 15164 N 1387.94 -0.0468143 -1.5753 0
M  V30 15165 C 1388.87 0.927092 -2.14306 0
M  V30 15166 C 1389.85 1.32745 -1.06362 0
M  V30 15167 O 1391.03 1.40293 -1.34281 0
M  V30 15168 C 1388.16 2.20343 -2.68452 0
M  V30 15169 C 1387.12 1.94328 -3.81341 0
M  V30 15170 C 1386.44 3.28379 -4.21985 0
M  V30 15171 C 1387.74 1.26835 -5.06666 0
M  V30 15172 H 1389.44 0.454199 -2.95935 0
M  V30 15173 H 1386.98 0.217029 -1.42355 0
M  V30 15174 H 1388.93 2.8887 -3.0681 0
M  V30 15175 H 1387.66 2.6983 -1.84009 0
M  V30 15176 H 1386.32 1.28214 -3.43448 0
M  V30 15177 H 1385.97 3.75658 -3.34499 0
M  V30 15178 H 1385.67 3.11772 -4.98068 0
M  V30 15179 H 1387.19 3.98145 -4.6294 0
M  V30 15180 H 1388.6 1.85389 -5.42498 0
M  V30 15181 H 1387 1.20569 -5.87863 0
M  V30 15182 H 1388.07 0.243759 -4.84287 0
M  V30 15183 N 1389.41 1.55964 0.226527 0
M  V30 15184 C 1390.38 1.91184 1.26418 0
M  V30 15185 C 1391.38 0.789982 1.40057 0
M  V30 15186 O 1392.57 1.05778 1.38407 0
M  V30 15187 C 1389.7 2.15826 2.63878 0
M  V30 15188 H 1390.89 2.83986 0.963956 0
M  V30 15189 H 1388.45 1.49169 0.466726 0
M  V30 15190 H 1389.18 1.2556 2.99007 0
M  V30 15191 H 1388.97 2.97549 2.55356 0
M  V30 15192 H 1390.46 2.44188 3.38765 0
M  V30 15193 N 1390.89 -0.493031 1.4969 0
M  V30 15194 C 1391.84 -1.59367 1.66945 0
M  V30 15195 C 1392.81 -1.58049 0.510842 0
M  V30 15196 O 1393.99 -1.75915 0.738822 0
M  V30 15197 C 1391.13 -2.97472 1.74941 0
M  V30 15198 C 1390.25 -3.08745 3.02159 0
M  V30 15199 C 1389.38 -4.37632 3.01085 0
M  V30 15200 C 1388.42 -4.42567 4.22849 0
M  V30 15201 N 1387.56 -5.62892 4.19639 0
M  V30 15202 H 1392.4 -1.4396 2.6092 0
M  V30 15203 H 1389.94 -0.700297 1.29361 0
M  V30 15204 H 1391.89 -3.7753 1.77558 0
M  V30 15205 H 1390.52 -3.11564 0.844252 0
M  V30 15206 H 1389.58 -2.217 3.09117 0
M  V30 15207 H 1390.89 -3.08251 3.92151 0
M  V30 15208 H 1390.04 -5.26018 3.02309 0
M  V30 15209 H 1388.78 -4.40702 2.08885 0
M  V30 15210 H 1387.79 -3.52581 4.21861 0
M  V30 15211 H 1389.01 -4.41205 5.1625 0
M  V30 15212 H 1386.96 -5.6679 3.30281 0
M  V30 15213 H 1386.87 -5.64048 5.03374 0
M  V30 15214 H 1388.14 -6.53464 4.24977 0
M  V30 15215 N 1392.37 -1.38898 -0.744656 0
M  V30 15216 C 1393.62 -1.35795 -1.50623 0
M  V30 15217 C 1393.95 0.0491775 -1.94138 0
M  V30 15218 O 1393.22 1.01219 -1.66087 0
M  V30 15219 C 1393.51 -2.32168 -2.75263 0
M  V30 15220 C 1393.36 -3.81781 -2.3783 0
M  V30 15221 C 1394.68 -2.26526 -3.77325 0
M  V30 15222 H 1391.8 -0.494591 -0.546396 0
M  V30 15223 H 1394.44 -1.69816 -0.852211 0
M  V30 15224 H 1392.59 -2.03287 -3.31069 0
M  V30 15225 H 1394.26 -4.21373 -1.8773 0
M  V30 15226 H 1392.51 -3.99027 -1.70176 0
M  V30 15227 H 1393.18 -4.44687 -3.27044 0
M  V30 15228 H 1395.65 -2.52041 -3.31081 0
M  V30 15229 H 1394.53 -2.96053 -4.62216 0
M  V30 15230 H 1394.79 -1.26705 -4.23554 0
M  V30 15231 N 1393.85 0.973806 -1.23914 0
M  V30 15232 C 1394.76 2.10138 -1.04304 0
M  V30 15233 C 1395.77 1.73994 0.0143888 0
M  V30 15234 O 1396.95 2.00572 -0.182481 0
M  V30 15235 C 1394.02 3.40673 -0.643639 0
M  V30 15236 C 1393.08 3.90802 -1.77686 0
M  V30 15237 C 1392.31 5.15108 -1.39642 0
M  V30 15238 O 1392.53 5.69695 -0.283546 0
M  V30 15239 O 1391.47 5.59468 -2.21988 0
M  V30 15240 H 1395.29 2.29574 -1.9882 0
M  V30 15241 H 1392.88 1.08524 -1.02679 0
M  V30 15242 H 1394.76 4.19178 -0.432145 0
M  V30 15243 H 1393.43 3.22551 0.272458 0
M  V30 15244 H 1392.34 3.13385 -2.04305 0
M  V30 15245 H 1393.67 4.1339 -2.67151 0
M  V30 15246 N 1395.33 1.05191 1.17357 0
M  V30 15247 C 1396.27 0.652868 2.21374 0
M  V30 15248 C 1397.24 -0.344974 1.62478 0
M  V30 15249 O 1398.43 -0.23639 1.8933 0
M  V30 15250 C 1395.57 0.0337737 3.45083 0
M  V30 15251 C 1394.68 1.08045 4.18271 0
M  V30 15252 C 1393.82 0.428673 5.29468 0
M  V30 15253 C 1392.86 1.45966 5.94441 0
M  V30 15254 N 1391.99 0.832042 6.97152 0
M  V30 15255 H 1396.83 1.54434 2.54861 0
M  V30 15256 H 1394.37 0.772365 1.25192 0
M  V30 15257 H 1396.33 -0.342607 4.15791 0
M  V30 15258 H 1394.96 -0.821159 3.12181 0
M  V30 15259 H 1394.01 1.57466 3.46278 0
M  V30 15260 H 1395.32 1.86305 4.62701 0
M  V30 15261 H 1394.48 -0.00129344 6.067 0
M  V30 15262 H 1393.21 -0.385919 4.86171 0
M  V30 15263 H 1392.22 1.89964 5.1594 0
M  V30 15264 H 1393.44 2.27615 6.39819 0
M  V30 15265 H 1391.39 0.0379612 6.55989 0
M  V30 15266 H 1391.31 1.55219 7.39894 0
M  V30 15267 H 1392.58 0.42685 7.7833 0
M  V30 15268 N 1396.8 -1.33791 0.83293 0
M  V30 15269 C 1397.77 -2.27637 0.267196 0
M  V30 15270 C 1398.77 -1.50709 -0.560669 0
M  V30 15271 O 1399.96 -1.70109 -0.375321 0
M  V30 15272 C 1397.09 -3.35136 -0.624248 0
M  V30 15273 H 1398.28 -2.79186 1.09522 0
M  V30 15274 H 1395.84 -1.44093 0.605554 0
M  V30 15275 H 1396.57 -2.88818 -1.47494 0
M  V30 15276 H 1396.36 -3.92087 -0.0319827 0
M  V30 15277 H 1397.85 -4.05113 -1.01355 0
M  V30 15278 N 1398.28 -0.588812 -1.46187 0
M  V30 15279 C 1399.21 0.128595 -2.33146 0
M  V30 15280 C 1400.19 0.877608 -1.45712 0
M  V30 15281 O 1401.38 0.851866 -1.74519 0
M  V30 15282 C 1398.51 1.13886 -3.28096 0
M  V30 15283 C 1397.46 0.504296 -4.25019 0
M  V30 15284 C 1396.79 1.62147 -5.09522 0
M  V30 15285 C 1398.09 -0.562466 -5.19263 0
M  V30 15286 H 1399.78 -0.597455 -2.93378 0
M  V30 15287 H 1397.33 -0.288764 -1.41075 0
M  V30 15288 H 1399.28 1.64916 -3.8779 0
M  V30 15289 H 1398.01 1.89527 -2.65983 0
M  V30 15290 H 1396.66 0.0150325 -3.66597 0
M  V30 15291 H 1396.31 2.36769 -4.4379 0
M  V30 15292 H 1396.01 1.20249 -5.75164 0
M  V30 15293 H 1397.54 2.13441 -5.7208 0
M  V30 15294 H 1398.95 -0.137003 -5.73136 0
M  V30 15295 H 1397.35 -0.902115 -5.93281 0
M  V30 15296 H 1398.42 -1.4464 -4.62825 0
M  V30 15297 N 1399.76 1.54172 -0.326923 0
M  V30 15298 C 1400.69 2.21958 0.571588 0
M  V30 15299 C 1401.71 1.22067 1.0772 0
M  V30 15300 O 1402.89 1.48517 0.990202 0
M  V30 15301 C 1399.99 2.87307 1.79744 0
M  V30 15302 C 1399.17 4.13366 1.42995 0
M  V30 15303 C 1398.23 4.62276 2.5137 0
M  V30 15304 O 1397.25 5.2688 2.15373 0
M  V30 15305 N 1398.45 4.36789 3.82355 0
M  V30 15306 H 1401.22 2.99699 -0.00885848 0
M  V30 15307 H 1398.78 1.61201 -0.150279 0
M  V30 15308 H 1400.77 3.1695 2.51644 0
M  V30 15309 H 1399.34 2.13252 2.28566 0
M  V30 15310 H 1398.56 3.9045 0.542444 0
M  V30 15311 H 1399.85 4.95396 1.16017 0
M  V30 15312 H 1399.25 3.85086 4.14397 0
M  V30 15313 H 1397.81 4.71079 4.50475 0
M  V30 15314 N 1401.24 0.0551678 1.57503 0
M  V30 15315 C 1402.15 -0.932959 2.15251 0
M  V30 15316 C 1403.16 -1.33885 1.11134 0
M  V30 15317 O 1404.34 -1.41495 1.43321 0
M  V30 15318 C 1401.41 -2.18807 2.68932 0
M  V30 15319 C 1400.47 -1.84016 3.87862 0
M  V30 15320 C 1399.7 -3.03543 4.38973 0
M  V30 15321 O 1399.92 -4.17041 3.89144 0
M  V30 15322 O 1398.86 -2.84325 5.30512 0
M  V30 15323 H 1402.68 -0.471816 3.00013 0
M  V30 15324 H 1400.27 -0.16696 1.48464 0
M  V30 15325 H 1402.15 -2.92439 3.0341 0
M  V30 15326 H 1400.82 -2.64051 1.87239 0
M  V30 15327 H 1399.73 -1.07687 3.58266 0
M  V30 15328 H 1401.06 -1.43567 4.70796 0
M  V30 15329 N 1402.72 -1.56081 -0.218252 0
M  V30 15330 C 1403.66 -1.92684 -1.27049 0
M  V30 15331 C 1404.63 -0.784441 -1.46409 0
M  V30 15332 O 1405.82 -1.04062 -1.59924 0
M  V30 15333 C 1402.96 -2.25174 -2.61516 0
M  V30 15334 C 1402.07 -3.52364 -2.49927 0
M  V30 15335 C 1401.21 -3.74286 -3.7694 0
M  V30 15336 C 1400.25 -4.94979 -3.60087 0
M  V30 15337 N 1399.38 -5.13273 -4.79057 0
M  V30 15338 H 1404.22 -2.82406 -0.951347 0
M  V30 15339 H 1401.76 -1.39774 -0.458441 0
M  V30 15340 H 1403.72 -2.42022 -3.39825 0
M  V30 15341 H 1402.35 -1.38621 -2.9152 0
M  V30 15342 H 1401.4 -3.43691 -1.63036 0
M  V30 15343 H 1402.71 -4.40826 -2.33397 0
M  V30 15344 H 1401.87 -3.91248 -4.63692 0
M  V30 15345 H 1400.6 -2.84111 -3.96399 0
M  V30 15346 H 1399.61 -4.77963 -2.71719 0
M  V30 15347 H 1400.83 -5.86641 -3.42095 0
M  V30 15348 H 1398.78 -4.26041 -4.98824 0
M  V30 15349 H 1398.7 -5.95873 -4.65265 0
M  V30 15350 H 1399.97 -5.34673 -5.67226 0
M  V30 15351 N 1404.2 0.485086 -1.49949 0
M  V30 15352 C 1405.14 1.5848 -1.67788 0
M  V30 15353 C 1406.11 1.57776 -0.519216 0
M  V30 15354 O 1407.3 1.75521 -0.748141 0
M  V30 15355 C 1404.44 2.9654 -1.76516 0
M  V30 15356 C 1403.55 3.07139 -3.03792 0
M  V30 15357 C 1402.69 4.36029 -3.03401 0
M  V30 15358 C 1401.72 4.40318 -4.2519 0
M  V30 15359 N 1400.86 5.60659 -4.22618 0
M  V30 15360 H 1405.7 1.42575 -2.6168 0
M  V30 15361 H 1403.24 0.693426 -1.29731 0
M  V30 15362 H 1405.2 3.76583 -1.79557 0
M  V30 15363 H 1403.83 3.11112 -0.860764 0
M  V30 15364 H 1402.88 2.20057 -3.10289 0
M  V30 15365 H 1404.19 3.06167 -3.9378 0
M  V30 15366 H 1403.34 5.24407 -3.05094 0
M  V30 15367 H 1402.08 4.39588 -2.11219 0
M  V30 15368 H 1401.09 3.50339 -4.23725 0
M  V30 15369 H 1402.31 4.38461 -5.18583 0
M  V30 15370 H 1400.26 5.6503 -3.33282 0
M  V30 15371 H 1400.18 5.61371 -5.06359 0
M  V30 15372 H 1401.44 6.51201 -4.28436 0
M  V30 15373 N 1405.67 1.39291 0.737279 0
M  V30 15374 C 1406.9 1.39659 1.52653 0
M  V30 15375 C 1407.32 -0.00948259 1.88798 0
M  V30 15376 O 1406.67 -0.980249 1.53939 0
M  V30 15377 C 1406.72 2.2674 2.81552 0
M  V30 15378 O 1406.45 3.61871 2.46943 0
M  V30 15379 C 1407.95 2.35466 3.75594 0
M  V30 15380 H 1405.17 0.477108 0.471814 0
M  V30 15381 H 1407.71 1.83077 0.911205 0
M  V30 15382 H 1405.87 1.86741 3.39421 0
M  V30 15383 H 1406.28 4.07897 3.29728 0
M  V30 15384 H 1407.75 3.00649 4.62941 0
M  V30 15385 H 1408.23 1.37314 4.17183 0
M  V30 15386 H 1408.84 2.75925 3.23644 0
M  V30 15387 N 1407.15 -0.967221 1.24429 0
M  V30 15388 C 1408.08 -2.07966 1.06172 0
M  V30 15389 C 1409.06 -1.70081 -0.0254566 0
M  V30 15390 O 1410.25 -1.93682 0.141705 0
M  V30 15391 C 1407.38 -3.4085 0.666251 0
M  V30 15392 C 1406.33 -3.92692 1.70225 0
M  V30 15393 C 1405.66 -5.21925 1.16183 0
M  V30 15394 C 1406.96 -4.20478 3.09831 0
M  V30 15395 H 1408.65 -2.23497 1.99222 0
M  V30 15396 H 1406.2 -1.07398 0.959255 0
M  V30 15397 H 1408.15 -4.1811 0.52552 0
M  V30 15398 H 1406.87 -3.2522 -0.299939 0
M  V30 15399 H 1405.53 -3.17588 1.83121 0
M  V30 15400 H 1405.18 -5.02655 0.186237 0
M  V30 15401 H 1404.88 -5.57579 1.85416 0
M  V30 15402 H 1406.41 -6.01795 1.03323 0
M  V30 15403 H 1407.82 -4.88442 3.00162 0
M  V30 15404 H 1406.22 -4.67362 3.7642 0
M  V30 15405 H 1407.29 -3.27235 3.57834 0
M  V30 15406 N 1408.63 -1.05812 -1.16797 0
M  V30 15407 C 1409.91 -0.685551 -1.83193 0
M  V30 15408 C 1410.29 0.833539 -1.93947 0
M  V30 15409 O 1409.63 1.74193 -1.47882 0
M  V30 15410 C 1409.84 -1.38183 -3.20479 0
M  V30 15411 C 1411.19 -1.52389 -3.96311 0
M  V30 15412 O 1412.22 -1.34134 -3.2998 0
M  V30 15413 O 1411.08 -1.82297 -5.15199 0
M  V30 15414 H 1408.17 -0.242095 -0.790771 0
M  V30 15415 H 1410.72 -1.15809 -1.24041 0
M  V30 15416 H 1409.49 -2.41791 -3.07657 0
M  V30 15417 H 1409.11 -0.899043 -3.87302 0
M  V30 15418 N 1410.11 1.33347 -0.840014 0
M  V30 15419 C 1411.02 2.32965 -0.276527 0
M  V30 15420 C 1412.03 1.634 0.598037 0
M  V30 15421 O 1413.21 1.95046 0.501888 0
M  V30 15422 C 1410.27 3.42498 0.53816 0
M  V30 15423 C 1409.34 4.27781 -0.360814 0
M  V30 15424 C 1408.57 5.32083 0.415085 0
M  V30 15425 O 1408.79 5.46115 1.64666 0
M  V30 15426 O 1407.73 6.01528 -0.211503 0
M  V30 15427 H 1411.55 2.83022 -1.10147 0
M  V30 15428 H 1409.14 1.3671 -0.602566 0
M  V30 15429 H 1411.02 4.09336 1.00108 0
M  V30 15430 H 1409.69 2.94655 1.34015 0
M  V30 15431 H 1408.6 3.63805 -0.871598 0
M  V30 15432 H 1409.93 4.7911 -1.1276 0
M  V30 15433 N 1411.59 0.596556 1.45873 0
M  V30 15434 C 1412.83 0.0850976 2.0152 0
M  V30 15435 C 1413.15 -1.28799 1.47208 0
M  V30 15436 O 1414.35 -1.89156 1.94762 0
M  V30 15437 C 1412.81 0.101488 3.59757 0
M  V30 15438 C 1412.42 1.47374 4.23066 0
M  V30 15439 C 1414.16 -0.355303 4.2301 0
M  V30 15440 C 1412.07 1.44711 5.73422 0
M  V30 15441 H 1411 0.0280444 0.753478 0
M  V30 15442 H 1413.65 0.750255 1.67462 0
M  V30 15443 H 1412.03 -0.630108 3.90955 0
M  V30 15444 H 1413.21 2.22617 4.03458 0
M  V30 15445 H 1411.52 1.87171 3.71962 0
M  V30 15446 H 1414.12 -0.394236 5.33245 0
M  V30 15447 H 1414.46 -1.37573 3.92911 0
M  V30 15448 H 1414.99 0.32267 3.96489 0
M  V30 15449 H 1411.73 2.44479 6.08203 0
M  V30 15450 H 1411.25 0.737102 5.95254 0
M  V30 15451 H 1412.93 1.16598 6.36407 0
M  V30 15452 N 1413.06 -1.53996 0.335095 0
M  V30 15453 C 1413.99 -2.2768 -0.518087 0
M  V30 15454 C 1414.97 -1.28915 -1.10972 0
M  V30 15455 O 1416.16 -1.57745 -1.1327 0
M  V30 15456 C 1413.29 -3.04327 -1.67339 0
M  V30 15457 C 1412.24 -4.10525 -1.2105 0
M  V30 15458 C 1411.57 -4.75078 -2.45366 0
M  V30 15459 C 1412.87 -5.21337 -0.317055 0
M  V30 15460 H 1414.56 -2.99244 0.0965669 0
M  V30 15461 H 1412.11 -1.4392 0.0478842 0
M  V30 15462 H 1414.06 -3.54608 -2.27664 0
M  V30 15463 H 1412.79 -2.30399 -2.31481 0
M  V30 15464 H 1411.45 -3.61144 -0.630124 0
M  V30 15465 H 1411.09 -3.97754 -3.07897 0
M  V30 15466 H 1410.79 -5.46822 -2.1508 0
M  V30 15467 H 1412.32 -5.2814 -3.06432 0
M  V30 15468 H 1413.73 -5.67305 -0.826905 0
M  V30 15469 H 1412.13 -6.00006 -0.106458 0
M  V30 15470 H 1413.2 -4.80536 0.649068 0
M  V30 15471 N 1414.54 -0.0635198 -1.57472 0
M  V30 15472 C 1415.45 0.921531 -2.15743 0
M  V30 15473 C 1416.47 1.33294 -1.11842 0
M  V30 15474 O 1417.64 1.40733 -1.4407 0
M  V30 15475 C 1414.71 2.17378 -2.70088 0
M  V30 15476 C 1413.77 1.81956 -3.88832 0
M  V30 15477 C 1413 3.01211 -4.40577 0
M  V30 15478 O 1413.23 4.14971 -3.9135 0
M  V30 15479 O 1412.16 2.81507 -5.32012 0
M  V30 15480 H 1415.99 0.455899 -3.00259 0
M  V30 15481 H 1413.57 0.159085 -1.48551 0
M  V30 15482 H 1415.45 2.90826 -3.04956 0
M  V30 15483 H 1414.13 2.63055 -1.88637 0
M  V30 15484 H 1413.03 1.05786 -3.58832 0
M  V30 15485 H 1414.37 1.41069 -4.71551 0
M  V30 15486 N 1416.02 1.56195 0.209972 0
M  V30 15487 C 1416.97 1.94226 1.27981 0
M  V30 15488 C 1417.96 0.825742 1.47912 0
M  V30 15489 O 1419.17 1.01066 1.48949 0
M  V30 15490 H 1415.54 0.617395 0.429333 0
M  V30 15491 H 1417.51 2.83474 0.931946 0
M  V30 15492 C 1416.26 2.28527 2.62051 0
M  V30 15493 H 1415.59 3.1396 2.47526 0
M  V30 15494 H 1417.03 2.59012 3.35692 0
M  V30 15495 C 1415.48 1.11452 3.17931 0
M  V30 15496 O 1416.01 0.381713 3.99882 0
M  V30 15497 N 1414.22 0.895263 2.76466 0
M  V30 15498 H 1413.77 1.4929 2.09929 0
M  V30 15499 H 1413.73 0.113688 3.14194 0
M  V30 15500 N 1417.5 -0.477127 1.50204 0
M  V30 15501 C 1418.43 -1.59319 1.64773 0
M  V30 15502 C 1419.44 -1.53951 0.529427 0
M  V30 15503 O 1420.63 -1.59449 0.802388 0
M  V30 15504 C 1417.73 -2.98185 1.61055 0
M  V30 15505 C 1416.9 -3.28486 2.88817 0
M  V30 15506 C 1415.96 -4.46878 2.77825 0
M  V30 15507 O 1414.99 -4.47483 3.51778 0
M  V30 15508 N 1416.19 -5.48187 1.90974 0
M  V30 15509 H 1418.96 -1.4724 2.61037 0
M  V30 15510 H 1416.52 -0.66544 1.47592 0
M  V30 15511 H 1418.51 -3.75345 1.51323 0
M  V30 15512 H 1417.08 -3.04064 0.725509 0
M  V30 15513 H 1416.3 -2.39997 3.12722 0
M  V30 15514 H 1417.59 -3.4554 3.7347 0
M  V30 15515 H 1416.99 -5.50515 1.30192 0
M  V30 15516 H 1415.54 -6.24355 1.87148 0
M  V30 15517 N 1418.98 -1.3968 -0.729882 0
M  V30 15518 C 1419.92 -1.38808 -1.84393 0
M  V30 15519 C 1420.89 -0.247035 -1.64253 0
M  V30 15520 O 1422.08 -0.44293 -1.85588 0
M  V30 15521 C 1419.22 -1.2424 -3.2196 0
M  V30 15522 C 1418.33 -2.47932 -3.53771 0
M  V30 15523 C 1417.47 -2.25913 -4.80767 0
M  V30 15524 C 1416.51 -3.45254 -5.05436 0
M  V30 15525 N 1415.64 -3.2252 -6.23638 0
M  V30 15526 H 1420.48 -2.34038 -1.84473 0
M  V30 15527 H 1418.02 -1.16252 -0.901332 0
M  V30 15528 H 1419.98 -1.13804 -4.01378 0
M  V30 15529 H 1418.61 -0.326375 -3.21146 0
M  V30 15530 H 1417.66 -2.68952 -2.69015 0
M  V30 15531 H 1418.97 -3.36806 -3.67917 0
M  V30 15532 H 1418.13 -2.12748 -5.68175 0
M  V30 15533 H 1416.86 -1.34441 -4.68804 0
M  V30 15534 H 1415.87 -3.58912 -4.16488 0
M  V30 15535 H 1417.09 -4.37634 -5.19282 0
M  V30 15536 H 1415.04 -2.33718 -6.12953 0
M  V30 15537 H 1414.96 -4.04954 -6.38395 0
M  V30 15538 H 1416.23 -3.1306 -7.13872 0
M  V30 15539 N 1420.45 0.960609 -1.2494 0
M  V30 15540 C 1421.87 1.51915 -1.0853 0
M  V30 15541 C 1422.22 1.93215 0.340949 0
M  V30 15542 O 1421.34 1.78031 1.2302 0
M  V30 15543 C 1421.94 2.76069 -1.96396 0
M  V30 15544 C 1420.5 3.28255 -1.84189 0
M  V30 15545 C 1419.64 2.01124 -1.90905 0
M  V30 15546 H 1422.59 0.778141 -1.38314 0
M  V30 15547 H 1422.61 3.49668 -1.50042 0
M  V30 15548 H 1422.13 2.45979 -3.00193 0
M  V30 15549 H 1420.23 3.6318 -0.832518 0
M  V30 15550 H 1420.34 3.96675 -2.68673 0
M  V30 15551 H 1418.7 2.16155 -1.34718 0
M  V30 15552 H 1419.49 1.73389 -2.96295 0
M  V30 15553 N 1421.93 1.0643 1.16234 0
M  V30 15554 C 1422.9 0.680383 2.18869 0
M  V30 15555 C 1423.9 -0.274591 1.58438 0
M  V30 15556 O 1425.09 -0.0567907 1.74107 0
M  V30 15557 C 1422.22 0.00134091 3.409 0
M  V30 15558 H 1423.41 1.58894 2.54347 0
M  V30 15559 H 1420.96 0.859688 1.30534 0
M  V30 15560 H 1421.7 -0.919903 3.1098 0
M  V30 15561 H 1421.48 0.688057 3.86016 0
M  V30 15562 H 1422.97 -0.252938 4.16833 0
M  V30 15563 N 1423.41 -1.329 0.847073 0
M  V30 15564 C 1424.34 -2.31546 0.301422 0
M  V30 15565 C 1425.32 -1.59342 -0.595317 0
M  V30 15566 O 1426.51 -1.87188 -0.517151 0
M  V30 15567 C 1423.64 -3.43423 -0.517454 0
M  V30 15568 C 1422.59 -4.27055 0.284195 0
M  V30 15569 C 1421.92 -5.30624 -0.658944 0
M  V30 15570 C 1423.22 -5.00123 1.50578 0
M  V30 15571 H 1424.91 -2.77433 1.12567 0
M  V30 15572 H 1422.46 -1.3338 0.542739 0
M  V30 15573 H 1424.41 -4.11467 -0.909543 0
M  V30 15574 H 1423.13 -2.96246 -1.37499 0
M  V30 15575 H 1421.79 -3.60648 0.657944 0
M  V30 15576 H 1421.44 -4.79702 -1.51311 0
M  V30 15577 H 1421.14 -5.87464 -0.12662 0
M  V30 15578 H 1422.66 -6.01533 -1.04837 0
M  V30 15579 H 1424.08 -5.6089 1.18641 0
M  V30 15580 H 1422.48 -5.66652 1.97549 0
M  V30 15581 H 1423.55 -4.28424 2.27115 0
M  V30 15582 N 1424.89 -0.604284 -1.45555 0
M  V30 15583 C 1425.84 0.137842 -2.27583 0
M  V30 15584 C 1426.82 0.841681 -1.3713 0
M  V30 15585 O 1428.01 0.732216 -1.61145 0
M  V30 15586 C 1425.14 1.13675 -3.23934 0
M  V30 15587 C 1424.23 0.433916 -4.21874 0
M  V30 15588 N 1424.62 -0.522599 -5.03093 0
M  V30 15589 C 1422.92 0.681898 -4.40756 0
M  V30 15590 C 1423.62 -0.935401 -5.7413 0
M  V30 15591 N 1422.6 -0.279863 -5.42879 0
M  V30 15592 H 1426.4 -0.596862 -2.87776 0
M  V30 15593 H 1423.91 -0.427701 -1.56667 0
M  V30 15594 H 1425.91 1.68278 -3.81429 0
M  V30 15595 H 1424.57 1.87204 -2.65301 0
M  V30 15596 H 1425.58 -0.899187 -5.10034 0
M  V30 15597 H 1422.26 1.40212 -3.93252 0
M  V30 15598 H 1423.65 -1.72412 -6.49403 0
M  V30 15599 N 1426.37 1.53816 -0.343257 0
M  V30 15600 C 1427.31 2.25011 0.513664 0
M  V30 15601 C 1428.28 1.24827 1.09578 0
M  V30 15602 O 1429.47 1.53558 1.13245 0
M  V30 15603 C 1426.61 3.02616 1.65885 0
M  V30 15604 C 1425.72 4.17653 1.10406 0
M  V30 15605 C 1424.86 4.82746 2.21653 0
M  V30 15606 C 1423.9 5.89853 1.63524 0
M  V30 15607 N 1423.03 6.48726 2.68512 0
M  V30 15608 H 1427.87 2.97832 -0.099997 0
M  V30 15609 H 1425.41 1.46973 -0.0611206 0
M  V30 15610 H 1427.37 3.45868 2.33304 0
M  V30 15611 H 1426 2.32092 2.2435 0
M  V30 15612 H 1425.05 3.79045 0.320819 0
M  V30 15613 H 1426.36 4.94691 0.638887 0
M  V30 15614 H 1425.52 5.29068 2.96938 0
M  V30 15615 H 1424.25 4.05131 2.71515 0
M  V30 15616 H 1423.26 5.42914 0.86745 0
M  V30 15617 H 1424.48 6.69375 1.14515 0
M  V30 15618 H 1422.43 5.73975 3.17629 0
M  V30 15619 H 1422.35 7.21236 2.26616 0
M  V30 15620 H 1423.62 6.99701 3.43567 0
M  V30 15621 N 1427.84 0.0718701 1.57436 0
M  V30 15622 C 1428.77 -0.89288 2.15754 0
M  V30 15623 C 1429.76 -1.31036 1.0846 0
M  V30 15624 O 1430.94 -1.38139 1.36496 0
M  V30 15625 C 1428.07 -2.16044 2.71923 0
M  V30 15626 C 1427.02 -1.88236 3.84384 0
M  V30 15627 C 1426.35 -3.21624 4.27156 0
M  V30 15628 C 1427.65 -1.18758 5.0862 0
M  V30 15629 H 1429.34 -0.407061 2.9662 0
M  V30 15630 H 1426.89 -0.194354 1.42682 0
M  V30 15631 H 1428.84 -2.83952 3.11366 0
M  V30 15632 H 1427.57 -2.66868 1.88279 0
M  V30 15633 H 1426.23 -1.22734 3.45445 0
M  V30 15634 H 1425.87 -3.70289 3.40433 0
M  V30 15635 H 1425.57 -3.03809 5.02965 0
M  V30 15636 H 1427.1 -3.90729 4.69215 0
M  V30 15637 H 1428.51 -1.76735 5.45378 0
M  V30 15638 H 1426.91 -1.11201 5.89707 0
M  V30 15639 H 1427.98 -0.166682 4.84613 0
M  V30 15640 N 1429.32 -1.56304 -0.201686 0
M  V30 15641 C 1430.29 -1.93171 -1.2336 0
M  V30 15642 C 1431.29 -0.812164 -1.38782 0
M  V30 15643 O 1432.48 -1.07967 -1.36707 0
M  V30 15644 C 1429.61 -2.19997 -2.60411 0
M  V30 15645 H 1430.8 -2.85483 -0.918654 0
M  V30 15646 H 1428.35 -1.49893 -0.442935 0
M  V30 15647 H 1429.09 -1.30301 -2.96972 0
M  V30 15648 H 1428.87 -3.01574 -2.5059 0
M  V30 15649 H 1430.36 -2.49547 -3.34838 0
M  V30 15650 N 1430.8 0.469154 -1.50455 0
M  V30 15651 C 1431.71 1.59271 -1.7225 0
M  V30 15652 C 1432.73 1.63119 -0.605668 0
M  V30 15653 O 1433.9 1.80952 -0.884222 0
M  V30 15654 C 1430.97 2.95475 -1.81372 0
M  V30 15655 C 1430.03 3.02 -3.05114 0
M  V30 15656 C 1429.26 4.31707 -3.13791 0
M  V30 15657 O 1429.48 5.2232 -2.29211 0
M  V30 15658 O 1428.42 4.43864 -4.06532 0
M  V30 15659 H 1432.24 1.43804 -2.67496 0
M  V30 15660 H 1429.83 0.648855 -1.34574 0
M  V30 15661 H 1431.71 3.76367 -1.89541 0
M  V30 15662 H 1430.39 3.11136 -0.893094 0
M  V30 15663 H 1429.29 2.20178 -3.02444 0
M  V30 15664 H 1430.63 2.91275 -3.96761 0
M  V30 15665 N 1432.28 1.40065 0.722464 0
M  V30 15666 C 1433.19 1.42086 1.86678 0
M  V30 15667 C 1434.2 0.314223 1.71139 0
M  V30 15668 O 1435.38 0.55771 1.93524 0
M  V30 15669 C 1432.45 1.27498 3.22405 0
M  V30 15670 C 1431.51 2.48243 3.50248 0
M  V30 15671 C 1430.74 2.34342 4.79499 0
M  V30 15672 O 1430.96 1.35355 5.54108 0
M  V30 15673 O 1429.9 3.23579 5.07523 0
M  V30 15674 H 1433.72 2.38571 1.87929 0
M  V30 15675 H 1431.31 1.21314 0.871968 0
M  V30 15676 H 1433.19 1.21543 4.03491 0
M  V30 15677 H 1431.86 0.341141 3.21897 0
M  V30 15678 H 1430.77 2.59775 2.69199 0
M  V30 15679 H 1432.1 3.40364 3.55547 0
M  V30 15680 N 1433.76 -0.95397 1.25448 0
M  V30 15681 C 1434.99 -1.73331 1.12977 0
M  V30 15682 C 1435.4 -1.86131 -0.316364 0
M  V30 15683 O 1434.76 -1.35951 -1.21753 0
M  V30 15684 C 1434.81 -3.14675 1.77938 0
M  V30 15685 O 1434.53 -3.025 3.16899 0
M  V30 15686 C 1436.03 -4.08884 1.71256 0
M  V30 15687 H 1433.25 -0.543118 0.394036 0
M  V30 15688 H 1435.79 -1.19678 1.65823 0
M  V30 15689 H 1433.95 -3.6527 1.29062 0
M  V30 15690 H 1434.36 -3.91668 3.4885 0
M  V30 15691 H 1435.84 -5.05668 2.21368 0
M  V30 15692 H 1436.31 -4.33959 0.676476 0
M  V30 15693 H 1436.92 -3.64205 2.19624 0
M  V30 15694 N 1435.24 -1.07045 -1.15668 0
M  V30 15695 C 1436.18 -0.688004 -2.20307 0
M  V30 15696 C 1437.15 0.319081 -1.63006 0
M  V30 15697 O 1438.34 0.206239 -1.89682 0
M  V30 15698 C 1435.48 -0.0886692 -3.44986 0
M  V30 15699 C 1434.59 -1.14685 -4.16499 0
M  V30 15700 C 1433.73 -0.512852 -5.28719 0
M  V30 15701 C 1432.76 -1.55404 -5.92044 0
M  V30 15702 N 1431.9 -0.942848 -6.9574 0
M  V30 15703 H 1436.74 -1.58469 -2.52372 0
M  V30 15704 H 1434.28 -0.792184 -1.23947 0
M  V30 15705 H 1436.24 0.276415 -4.16283 0
M  V30 15706 H 1434.87 0.77139 -3.13448 0
M  V30 15707 H 1433.92 -1.62955 -3.43729 0
M  V30 15708 H 1435.23 -1.93643 -4.59678 0
M  V30 15709 H 1434.38 -0.0952274 -6.06625 0
M  V30 15710 H 1433.12 0.308524 -4.86723 0
M  V30 15711 H 1432.13 -1.98148 -5.12852 0
M  V30 15712 H 1433.35 -2.37765 -6.36117 0
M  V30 15713 H 1431.3 -0.142319 -6.55846 0
M  V30 15714 H 1431.22 -1.6697 -7.37331 0
M  V30 15715 H 1432.48 -0.550621 -7.77553 0
M  V30 15716 N 1436.71 1.32449 -0.85411 0
M  V30 15717 C 1437.68 2.27183 -0.303377 0
M  V30 15718 C 1438.68 1.51582 0.536622 0
M  V30 15719 O 1439.87 1.70684 0.348211 0
M  V30 15720 C 1437 3.36086 0.570852 0
M  V30 15721 H 1438.19 2.77408 -1.1395 0
M  V30 15722 H 1435.74 1.43111 -0.628402 0
M  V30 15723 H 1436.48 2.91128 1.42881 0
M  V30 15724 H 1436.26 3.92088 -0.030399 0
M  V30 15725 H 1437.75 4.06675 0.948972 0
M  V30 15726 N 1438.19 0.611994 1.45232 0
M  V30 15727 C 1439.12 -0.0914869 2.33321 0
M  V30 15728 C 1440.1 -0.854315 1.4709 0
M  V30 15729 O 1441.29 -0.823994 1.75852 0
M  V30 15730 C 1438.42 -1.08652 3.29867 0
M  V30 15731 C 1437.37 -0.436615 4.25767 0
M  V30 15732 C 1436.7 -1.54021 5.12037 0
M  V30 15733 C 1438 0.645005 5.18302 0
M  V30 15734 H 1439.69 0.644053 2.92391 0
M  V30 15735 H 1437.24 0.311171 1.40598 0
M  V30 15736 H 1439.19 -1.58726 3.90364 0
M  V30 15737 H 1437.91 -1.85271 2.68965 0
M  V30 15738 H 1436.57 0.0432918 3.66574 0
M  V30 15739 H 1436.22 -2.29679 4.475 0
M  V30 15740 H 1435.92 -1.11084 5.77005 0
M  V30 15741 H 1437.45 -2.04313 5.75403 0
M  V30 15742 H 1438.86 0.228166 5.72846 0
M  V30 15743 H 1437.26 0.996387 5.9177 0
M  V30 15744 H 1438.33 1.51985 4.60466 0
M  V30 15745 N 1439.67 -1.53632 0.351409 0
M  V30 15746 C 1440.58 -2.2899 -0.509985 0
M  V30 15747 C 1441.6 -1.34403 -1.10507 0
M  V30 15748 O 1442.77 -1.67448 -1.11906 0
M  V30 15749 C 1439.84 -3.05392 -1.64124 0
M  V30 15750 C 1438.9 -4.15619 -1.07514 0
M  V30 15751 C 1438.13 -4.88369 -2.15248 0
M  V30 15752 O 1438.35 -4.60854 -3.3611 0
M  V30 15753 O 1437.29 -5.74636 -1.79101 0
M  V30 15754 H 1441.11 -3.03526 0.10283 0
M  V30 15755 H 1438.7 -1.48947 0.116214 0
M  V30 15756 H 1440.58 -3.53146 -2.29926 0
M  V30 15757 H 1439.26 -2.33705 -2.23972 0
M  V30 15758 H 1438.16 -3.7215 -0.381421 0
M  V30 15759 H 1439.5 -4.8943 -0.521413 0
M  V30 15760 N 1441.15 -0.0802183 -1.57396 0
M  V30 15761 C 1442.09 0.884041 -2.13198 0
M  V30 15762 C 1443.06 1.28975 -1.04664 0
M  V30 15763 O 1444.25 1.37413 -1.32372 0
M  V30 15764 C 1441.39 2.14323 -2.7048 0
M  V30 15765 C 1440.5 1.7894 -3.93198 0
M  V30 15766 C 1439.64 2.99534 -4.38695 0
M  V30 15767 C 1438.68 2.60207 -5.54039 0
M  V30 15768 N 1437.81 3.73587 -5.94455 0
M  V30 15769 H 1442.65 0.40131 -2.95285 0
M  V30 15770 H 1440.19 0.186429 -1.45914 0
M  V30 15771 H 1442.15 2.88046 -3.01804 0
M  V30 15772 H 1440.78 2.60122 -1.91144 0
M  V30 15773 H 1439.83 0.952465 -3.68283 0
M  V30 15774 H 1441.14 1.46012 -4.76951 0
M  V30 15775 H 1440.3 3.81526 -4.71724 0
M  V30 15776 H 1439.04 3.35661 -3.53812 0
M  V30 15777 H 1438.04 1.76638 -5.20652 0
M  V30 15778 H 1439.27 2.2524 -6.40659 0
M  V30 15779 H 1437.21 4.0946 -5.12521 0
M  V30 15780 H 1437.13 3.44455 -6.72969 0
M  V30 15781 H 1438.4 4.56133 -6.3211 0
M  V30 15782 N 1442.63 1.56409 0.193394 0
M  V30 15783 C 1443.57 1.95572 1.25914 0
M  V30 15784 C 1444.57 0.841384 1.47028 0
M  V30 15785 O 1445.77 1.0264 1.47868 0
M  V30 15786 H 1442.15 0.621914 0.422761 0
M  V30 15787 H 1444.12 2.84446 0.901827 0
M  V30 15788 C 1442.87 2.31293 2.59613 0
M  V30 15789 H 1442.19 3.16568 2.44182 0
M  V30 15790 H 1443.63 2.62558 3.32926 0
M  V30 15791 C 1442.09 1.14818 3.16731 0
M  V30 15792 O 1442.62 0.424105 3.99455 0
M  V30 15793 N 1440.83 0.924536 2.75501 0
M  V30 15794 H 1440.37 1.51509 2.08334 0
M  V30 15795 H 1440.33 0.147006 3.14056 0
M  V30 15796 N 1444.1 -0.461169 1.50702 0
M  V30 15797 C 1445.35 -1.21431 1.62427 0
M  V30 15798 C 1445.68 -1.91406 0.328228 0
M  V30 15799 O 1444.96 -1.82563 -0.670898 0
M  V30 15800 C 1445.24 -2.25016 2.8114 0
M  V30 15801 C 1445.09 -1.5928 4.20654 0
M  V30 15802 C 1446.41 -3.26234 2.95397 0
M  V30 15803 H 1443.53 -0.440113 0.59116 0
M  V30 15804 H 1446.17 -0.506726 1.83118 0
M  V30 15805 H 1444.32 -2.85363 2.63629 0
M  V30 15806 H 1446 -1.02454 4.49779 0
M  V30 15807 H 1444.24 -0.895665 4.24453 0
M  V30 15808 H 1444.91 -2.34602 4.99666 0
M  V30 15809 H 1447.39 -2.7592 3.1146 0
M  V30 15810 H 1446.26 -3.96031 3.80067 0
M  V30 15811 H 1446.52 -3.90943 2.06436 0
M  V30 15812 N 1445.58 -1.40446 -0.715026 0
M  V30 15813 C 1446.53 -1.37235 -1.82073 0
M  V30 15814 C 1447.52 -0.249808 -1.58949 0
M  V30 15815 O 1448.71 -0.488958 -1.70112 0
M  V30 15816 C 1445.84 -1.23786 -3.20206 0
M  V30 15817 C 1444.92 -2.40824 -3.49091 0
M  V30 15818 N 1445.31 -3.66305 -3.4879 0
M  V30 15819 C 1443.61 -2.34215 -3.79551 0
M  V30 15820 C 1444.31 -4.43817 -3.76034 0
M  V30 15821 N 1443.29 -3.73664 -3.94811 0
M  V30 15822 H 1447.09 -2.32195 -1.80174 0
M  V30 15823 H 1444.6 -1.34226 -0.914175 0
M  V30 15824 H 1446.6 -1.19568 -3.99386 0
M  V30 15825 H 1445.26 -0.297938 -3.2333 0
M  V30 15826 H 1446.27 -3.99458 -3.29626 0
M  V30 15827 H 1442.95 -1.48592 -3.90162 0
M  V30 15828 H 1444.34 -5.52674 -3.82101 0
M  V30 15829 N 1447.06 0.947303 -1.25952 0
M  V30 15830 C 1448.47 1.50755 -1.10136 0
M  V30 15831 C 1448.82 1.93566 0.320437 0
M  V30 15832 O 1447.95 1.79326 1.21125 0
M  V30 15833 C 1448.54 2.7397 -1.99313 0
M  V30 15834 C 1447.1 3.26283 -1.8766 0
M  V30 15835 C 1446.25 1.99088 -1.93027 0
M  V30 15836 H 1449.2 0.763427 -1.39131 0
M  V30 15837 H 1449.22 3.48057 -1.53742 0
M  V30 15838 H 1448.73 2.42781 -3.02785 0
M  V30 15839 H 1446.83 3.62277 -0.870992 0
M  V30 15840 H 1446.95 3.93803 -2.72866 0
M  V30 15841 H 1445.31 2.14714 -1.37003 0
M  V30 15842 H 1446.09 1.70237 -2.98118 0
M  V30 15843 N 1448.54 1.07657 1.15099 0
M  V30 15844 C 1449.82 0.714608 1.82079 0
M  V30 15845 C 1450.2 -0.802578 1.95248 0
M  V30 15846 O 1449.54 -1.71818 1.50634 0
M  V30 15847 C 1449.75 1.43264 3.1824 0
M  V30 15848 C 1451.1 1.58675 3.93837 0
M  V30 15849 O 1452.13 1.39367 3.27804 0
M  V30 15850 O 1450.98 1.9047 5.12234 0
M  V30 15851 H 1448.08 0.254645 0.786819 0
M  V30 15852 H 1450.62 1.17768 1.22183 0
M  V30 15853 H 1449.4 2.46655 3.03772 0
M  V30 15854 H 1449.02 0.960546 3.85823 0
M  V30 15855 N 1450.02 -1.31994 0.861122 0
M  V30 15856 C 1451.26 -1.97317 0.468371 0
M  V30 15857 C 1451.6 -1.67954 -0.974941 0
M  V30 15858 O 1450.87 -0.971243 -1.68514 0
M  V30 15859 C 1451.15 -3.52918 0.715607 0
M  V30 15860 C 1451.01 -3.91888 2.20781 0
M  V30 15861 C 1452.33 -4.39747 0.17624 0
M  V30 15862 H 1449.44 -0.716733 0.171646 0
M  V30 15863 H 1452.09 -1.56269 1.08074 0
M  V30 15864 H 1450.24 -3.88013 0.194387 0
M  V30 15865 H 1451.91 -3.66938 2.7956 0
M  V30 15866 H 1450.15 -3.40813 2.68382 0
M  V30 15867 H 1450.82 -5.00346 2.33147 0
M  V30 15868 H 1453.3 -4.11424 0.622043 0
M  V30 15869 H 1452.17 -5.47592 0.378748 0
M  V30 15870 H 1452.44 -4.32393 -0.921358 0
M  V30 15871 N 1451.49 -0.619688 -1.44906 0
M  V30 15872 C 1452.4 0.0935512 -2.34413 0
M  V30 15873 C 1453.42 0.847738 -1.51952 0
M  V30 15874 O 1454.6 0.802591 -1.84717 0
M  V30 15875 C 1451.66 1.07047 -3.2976 0
M  V30 15876 C 1450.72 0.31691 -4.28129 0
M  V30 15877 C 1449.96 1.24729 -5.1892 0
M  V30 15878 O 1450.18 2.4856 -5.13395 0
M  V30 15879 O 1449.11 0.737799 -5.97361 0
M  V30 15880 H 1452.94 -0.642335 -2.96829 0
M  V30 15881 H 1450.52 -0.379908 -1.44489 0
M  V30 15882 H 1452.41 1.63281 -3.88481 0
M  V30 15883 H 1451.08 1.78717 -2.69893 0
M  V30 15884 H 1449.99 -0.288192 -3.72988 0
M  V30 15885 H 1451.32 -0.359539 -4.90885 0
M  V30 15886 N 1452.97 1.53444 -0.359552 0
M  V30 15887 C 1453.92 2.25544 0.48977 0
M  V30 15888 C 1454.89 1.25982 1.08248 0
M  V30 15889 O 1456.07 1.54751 1.1161 0
M  V30 15890 C 1453.21 3.04358 1.62666 0
M  V30 15891 C 1452.33 4.18801 1.0597 0
M  V30 15892 C 1451.46 4.85069 2.1652 0
M  V30 15893 C 1450.5 5.91554 1.57259 0
M  V30 15894 N 1449.64 6.51537 2.61617 0
M  V30 15895 H 1454.48 2.97709 -0.13158 0
M  V30 15896 H 1452.02 1.469 -0.0767056 0
M  V30 15897 H 1453.97 3.48324 2.29623 0
M  V30 15898 H 1452.6 2.34459 2.21876 0
M  V30 15899 H 1451.66 3.79364 0.280599 0
M  V30 15900 H 1452.97 4.95341 0.586383 0
M  V30 15901 H 1452.12 5.32187 2.9131 0
M  V30 15902 H 1450.86 4.07988 2.67202 0
M  V30 15903 H 1449.87 5.43803 0.809818 0
M  V30 15904 H 1451.09 6.70552 1.07409 0
M  V30 15905 H 1449.04 5.77312 3.11523 0
M  V30 15906 H 1448.95 7.23599 2.18954 0
M  V30 15907 H 1450.22 7.03306 3.36127 0
M  V30 15908 N 1454.45 0.0885642 1.57351 0
M  V30 15909 C 1455.38 -0.869946 2.16689 0
M  V30 15910 C 1456.36 -1.29878 1.09844 0
M  V30 15911 O 1457.55 -1.36684 1.37954 0
M  V30 15912 C 1454.68 -2.13148 2.74199 0
M  V30 15913 C 1453.63 -1.84149 3.86359 0
M  V30 15914 C 1452.96 -3.17075 4.30543 0
M  V30 15915 C 1454.26 -1.13357 5.09851 0
M  V30 15916 H 1455.95 -0.375578 2.97035 0
M  V30 15917 H 1453.5 -0.17921 1.42881 0
M  V30 15918 H 1455.45 -2.80634 3.14361 0
M  V30 15919 H 1454.17 -2.64856 1.91098 0
M  V30 15920 H 1452.83 -1.19063 3.46727 0
M  V30 15921 H 1452.48 -3.66658 3.44342 0
M  V30 15922 H 1452.18 -2.98457 5.06159 0
M  V30 15923 H 1453.7 -3.85731 4.73333 0
M  V30 15924 H 1455.12 -1.70941 5.47222 0
M  V30 15925 H 1453.52 -1.0494 5.90853 0
M  V30 15926 H 1454.59 -0.115273 4.84763 0
M  V30 15927 N 1455.93 -1.56509 -0.185096 0
M  V30 15928 C 1457.16 -1.85058 -0.918527 0
M  V30 15929 C 1457.57 -0.670181 -1.76933 0
M  V30 15930 O 1456.91 0.370215 -1.79931 0
M  V30 15931 C 1456.97 -3.07843 -1.85669 0
M  V30 15932 C 1456.64 -4.41319 -1.18686 0
M  V30 15933 C 1457.63 -5.16887 -0.558946 0
M  V30 15934 C 1455.32 -4.88056 -1.18773 0
M  V30 15935 C 1457.31 -6.37373 0.0591595 0
M  V30 15936 C 1455 -6.08475 -0.565791 0
M  V30 15937 C 1456 -6.82977 0.0565621 0
M  V30 15938 O 1455.68 -8.01114 0.668726 0
M  V30 15939 H 1455.42 -0.618423 -0.273001 0
M  V30 15940 H 1457.97 -2.04479 -0.194261 0
M  V30 15941 H 1456.2 -2.84332 -2.62092 0
M  V30 15942 H 1457.89 -3.22954 -2.45877 0
M  V30 15943 H 1458.66 -4.81867 -0.550347 0
M  V30 15944 H 1454.53 -4.30016 -1.66154 0
M  V30 15945 H 1458.08 -6.95464 0.545534 0
M  V30 15946 H 1453.98 -6.42961 -0.571927 0
M  V30 15947 H 1454.74 -8.16536 0.566616 0
M  V30 15948 N 1457.41 0.45317 -1.50944 0
M  V30 15949 C 1458.35 1.54885 -1.71112 0
M  V30 15950 C 1459.32 1.56639 -0.552566 0
M  V30 15951 O 1460.51 1.73894 -0.785203 0
M  V30 15952 C 1457.65 2.92729 -1.82766 0
M  V30 15953 C 1456.76 3.00626 -3.10239 0
M  V30 15954 C 1455.9 4.29495 -3.12582 0
M  V30 15955 C 1454.94 4.312 -4.34434 0
M  V30 15956 N 1454.07 5.51568 -4.34415 0
M  V30 15957 H 1458.91 1.36992 -2.64645 0
M  V30 15958 H 1456.45 0.665753 -1.31172 0
M  V30 15959 H 1458.41 3.7269 -1.87505 0
M  V30 15960 H 1457.04 3.09216 -0.926561 0
M  V30 15961 H 1456.09 2.13426 -3.14886 0
M  V30 15962 H 1457.4 2.97746 -4.00186 0
M  V30 15963 H 1456.56 5.17817 -3.16149 0
M  V30 15964 H 1455.29 4.35009 -2.20496 0
M  V30 15965 H 1454.3 3.41272 -4.3106 0
M  V30 15966 H 1455.52 4.27363 -5.27767 0
M  V30 15967 H 1453.47 5.57834 -3.45192 0
M  V30 15968 H 1453.39 5.50504 -5.18152 0
M  V30 15969 H 1454.66 6.41966 -4.42153 0
M  V30 15970 N 1458.88 1.40823 0.707568 0
M  V30 15971 C 1459.82 1.37646 1.83265 0
M  V30 15972 C 1460.83 0.280547 1.60365 0
M  V30 15973 O 1462.02 0.541453 1.7009 0
M  V30 15974 C 1459.12 1.12121 3.19816 0
M  V30 15975 C 1458.29 2.33522 3.69846 0
M  V30 15976 C 1457.35 2.04035 4.85032 0
M  V30 15977 O 1456.38 2.76971 4.97268 0
M  V30 15978 N 1457.58 1.02322 5.71411 0
M  V30 15979 H 1460.34 2.34612 1.86486 0
M  V30 15980 H 1457.9 1.35281 0.889424 0
M  V30 15981 H 1459.9 0.903663 3.94482 0
M  V30 15982 H 1458.47 0.237941 3.11693 0
M  V30 15983 H 1457.69 2.71055 2.86221 0
M  V30 15984 H 1458.97 3.14436 4.00009 0
M  V30 15985 H 1458.37 0.419311 5.64144 0
M  V30 15986 H 1456.93 0.865571 6.46027 0
M  V30 15987 N 1460.36 -0.94061 1.26453 0
M  V30 15988 C 1461.27 -2.07298 1.09839 0
M  V30 15989 C 1462.29 -1.73971 0.0317477 0
M  V30 15990 O 1463.46 -2.00017 0.235594 0
M  V30 15991 C 1460.53 -3.38847 0.733736 0
M  V30 15992 C 1459.59 -3.85954 1.87985 0
M  V30 15993 C 1458.82 -5.11224 1.5325 0
M  V30 15994 O 1459.05 -5.68743 0.434491 0
M  V30 15995 O 1457.98 -5.53386 2.36743 0
M  V30 15996 H 1461.81 -2.24222 2.04837 0
M  V30 15997 H 1459.39 -1.05763 1.0552 0
M  V30 15998 H 1461.27 -4.17885 0.543131 0
M  V30 15999 H 1459.95 -3.2316 -0.186843 0
M  V30 16000 H 1458.86 -3.07858 2.12542 0
M  V30 16001 H 1460.19 -4.06162 2.78017 0
M  V30 16002 N 1461.84 -1.08266 -1.14527 0
M  V30 16003 C 1463.09 -0.811459 -1.85531 0
M  V30 16004 C 1463.42 0.662726 -1.82861 0
M  V30 16005 O 1462.67 1.50296 -1.25338 0
M  V30 16006 C 1462.97 -1.27675 -3.33817 0
M  V30 16007 C 1462.64 -2.7585 -3.56676 0
M  V30 16008 C 1461.3 -3.16319 -3.62623 0
M  V30 16009 C 1463.65 -3.71446 -3.65619 0
M  V30 16010 C 1460.98 -4.51183 -3.75035 0
M  V30 16011 C 1463.33 -5.06083 -3.79556 0
M  V30 16012 C 1461.99 -5.4616 -3.83752 0
M  V30 16013 H 1461.26 -0.296934 -0.678904 0
M  V30 16014 H 1463.91 -1.35533 -1.35288 0
M  V30 16015 H 1462.22 -0.65244 -3.86329 0
M  V30 16016 H 1463.91 -1.04369 -3.8718 0
M  V30 16017 H 1460.5 -2.43526 -3.52694 0
M  V30 16018 H 1464.69 -3.41301 -3.60316 0
M  V30 16019 H 1459.94 -4.81689 -3.76545 0
M  V30 16020 H 1464.12 -5.80022 -3.85418 0
M  V30 16021 H 1461.74 -6.50661 -3.93121 0
M  V30 16022 N 1463.32 1.31536 -0.86811 0
M  V30 16023 C 1464.6 1.9149 -0.398866 0
M  V30 16024 C 1464.98 1.79008 1.1189 0
M  V30 16025 O 1464.32 1.19659 1.94664 0
M  V30 16026 C 1464.53 3.37771 -0.878173 0
M  V30 16027 C 1465.88 4.14882 -0.903216 0
M  V30 16028 O 1466.91 3.46545 -0.823703 0
M  V30 16029 O 1465.77 5.36936 -1.01794 0
M  V30 16030 H 1462.86 0.818398 -0.118971 0
M  V30 16031 H 1465.41 1.40216 -0.955899 0
M  V30 16032 H 1464.18 3.40861 -1.9217 0
M  V30 16033 H 1463.8 3.96472 -0.299346 0
M  V30 16034 N 1464.8 0.627364 1.44575 0
M  V30 16035 C 1466.07 0.0614392 1.95503 0
M  V30 16036 C 1466.45 -1.41182 1.56942 0
M  V30 16037 O 1465.8 -2.12435 0.841634 0
M  V30 16038 C 1466.01 0.280349 3.47872 0
M  V30 16039 C 1467.36 0.171559 4.24253 0
M  V30 16040 O 1468.38 0.211515 3.55571 0
M  V30 16041 O 1467.24 0.0733152 5.46451 0
M  V30 16042 H 1464.34 -0.0244626 0.826638 0
M  V30 16043 H 1466.88 0.698805 1.54644 0
M  V30 16044 H 1465.66 1.30278 3.68976 0
M  V30 16045 H 1465.28 -0.391336 3.95669 0
M  V30 16046 N 1466.28 -1.53251 0.367684 0
M  V30 16047 C 1467.52 -2.01585 -0.221679 0
M  V30 16048 C 1467.85 -1.25444 -1.48248 0
M  V30 16049 O 1467.13 -0.348726 -1.91348 0
M  V30 16050 C 1467.41 -3.56449 -0.511507 0
M  V30 16051 C 1467.27 -4.4328 0.763075 0
M  V30 16052 C 1468.58 -4.20113 -1.31121 0
M  V30 16053 H 1465.7 -0.732743 -0.0790954 0
M  V30 16054 H 1468.35 -1.83493 0.492991 0
M  V30 16055 H 1466.5 -3.71996 -1.12033 0
M  V30 16056 H 1468.17 -4.39526 1.40052 0
M  V30 16057 H 1466.41 -4.11164 1.38299 0
M  V30 16058 H 1467.08 -5.4959 0.515215 0
M  V30 16059 H 1469.56 -4.08412 -0.796169 0
M  V30 16060 H 1468.43 -5.28494 -1.48274 0
M  V30 16061 H 1468.69 -3.76316 -2.32032 0
M  V30 16062 N 1467.75 -0.0969077 -1.57302 0
M  V30 16063 C 1468.69 0.891431 -2.11154 0
M  V30 16064 C 1469.7 1.24482 -1.04919 0
M  V30 16065 O 1470.89 1.19762 -1.3236 0
M  V30 16066 C 1467.99 2.19998 -2.57787 0
M  V30 16067 C 1467.16 2.02165 -3.87876 0
M  V30 16068 C 1466.22 3.16549 -4.20337 0
M  V30 16069 O 1465.25 2.90432 -4.89528 0
M  V30 16070 N 1466.45 4.42369 -3.75885 0
M  V30 16071 H 1469.21 0.431477 -2.96578 0
M  V30 16072 H 1466.77 0.0881458 -1.6166 0
M  V30 16073 H 1468.77 2.95472 -2.76547 0
M  V30 16074 H 1467.34 2.57412 -1.77364 0
M  V30 16075 H 1466.56 1.11011 -3.78246 0
M  V30 16076 H 1467.84 1.87529 -4.7298 0
M  V30 16077 H 1467.24 4.66469 -3.20036 0
M  V30 16078 H 1465.8 5.14787 -3.99797 0
M  V30 16079 N 1469.23 1.56605 0.176793 0
M  V30 16080 C 1470.48 1.81324 0.892535 0
M  V30 16081 C 1470.8 0.67301 1.83018 0
M  V30 16082 O 1470.07 -0.307498 1.93472 0
M  V30 16083 H 1468.65 0.668881 0.332576 0
M  V30 16084 H 1471.31 1.94086 0.17792 0
M  V30 16085 H 1470.41 2.75168 1.47272 0
M  V30 16086 N 1470.71 -0.445159 1.51182 0
M  V30 16087 C 1471.66 -1.53975 1.71931 0
M  V30 16088 C 1472.63 -1.56344 0.560865 0
M  V30 16089 O 1473.81 -1.73475 0.794414 0
M  V30 16090 C 1470.95 -2.91756 1.84316 0
M  V30 16091 C 1470.06 -2.98976 3.11829 0
M  V30 16092 C 1469.2 -4.27831 3.14855 0
M  V30 16093 C 1468.24 -4.2889 4.36715 0
M  V30 16094 N 1467.38 -5.49257 4.37334 0
M  V30 16095 H 1472.22 -1.35586 2.65368 0
M  V30 16096 H 1469.75 -0.658787 1.31523 0
M  V30 16097 H 1471.71 -3.7169 1.89479 0
M  V30 16098 H 1470.34 -3.08721 0.942947 0
M  V30 16099 H 1469.39 -2.11753 3.16014 0
M  V30 16100 H 1470.7 -2.95619 4.01759 0
M  V30 16101 H 1469.86 -5.16134 3.1889 0
M  V30 16102 H 1468.6 -4.33833 2.228 0
M  V30 16103 H 1467.6 -3.38982 4.32864 0
M  V30 16104 H 1468.83 -4.24558 5.30026 0
M  V30 16105 H 1466.77 -5.55995 3.48145 0
M  V30 16106 H 1466.69 -5.47748 5.21064 0
M  V30 16107 H 1467.96 -6.39613 4.45551 0
M  V30 16108 N 1472.19 -1.41197 -0.700089 0
M  V30 16109 C 1473.43 -1.4152 -1.46095 0
M  V30 16110 C 1473.79 -0.0221135 -1.92387 0
M  V30 16111 O 1473.08 0.951201 -1.66321 0
M  V30 16112 C 1473.28 -2.35259 -2.6905 0
M  V30 16113 C 1473.1 -3.83544 -2.34785 0
M  V30 16114 C 1471.87 -4.52258 -2.25369 0
M  V30 16115 C 1474.07 -4.74637 -1.9805 0
M  V30 16116 N 1472.05 -5.85695 -1.83942 0
M  V30 16117 C 1473.43 -5.96989 -1.67346 0
M  V30 16118 C 1475.48 -4.62326 -1.84821 0
M  V30 16119 C 1474.18 -7.08401 -1.24742 0
M  V30 16120 C 1476.21 -5.73696 -1.43621 0
M  V30 16121 C 1475.57 -6.95143 -1.13825 0
M  V30 16122 H 1471.67 -0.573085 -0.53207 0
M  V30 16123 H 1474.25 -1.77032 -0.810413 0
M  V30 16124 H 1472.43 -2.01849 -3.3183 0
M  V30 16125 H 1474.16 -2.26333 -3.35493 0
M  V30 16126 H 1470.91 -4.06137 -2.43618 0
M  V30 16127 H 1471.34 -6.56403 -1.65722 0
M  V30 16128 H 1475.98 -3.68934 -2.06513 0
M  V30 16129 H 1473.7 -8.01663 -1.01794 0
M  V30 16130 H 1477.28 -5.66172 -1.33941 0
M  V30 16131 H 1476.16 -7.79856 -0.824257 0
M  V30 16132 N 1473.67 0.933891 -1.2695 0
M  V30 16133 C 1474.61 2.05498 -1.08964 0
M  V30 16134 C 1475.61 1.69394 -0.0144837 0
M  V30 16135 O 1476.81 1.79179 -0.171729 0
M  V30 16136 H 1473.19 0.672978 -0.335566 0
M  V30 16137 H 1475.16 2.17817 -2.03957 0
M  V30 16138 C 1473.91 3.39579 -0.747074 0
M  V30 16139 H 1473.23 3.67842 -1.56628 0
M  V30 16140 H 1474.67 4.18815 -0.661064 0
M  V30 16141 C 1473.13 3.3241 0.548214 0
M  V30 16142 O 1473.66 3.69132 1.58443 0
M  V30 16143 N 1471.87 2.85509 0.541545 0
M  V30 16144 H 1471.41 2.55822 -0.302112 0
M  V30 16145 H 1471.37 2.81095 1.4083 0
M  V30 16146 N 1475.14 1.08871 1.13951 0
M  V30 16147 C 1476.09 0.722966 2.19184 0
M  V30 16148 C 1477.06 -0.293108 1.63493 0
M  V30 16149 O 1478.25 -0.176036 1.89986 0
M  V30 16150 C 1475.39 0.143542 3.44801 0
M  V30 16151 C 1474.5 1.21297 4.14622 0
M  V30 16152 C 1473.63 0.596902 5.27836 0
M  V30 16153 C 1472.67 1.64803 5.89497 0
M  V30 16154 N 1471.81 1.05341 6.94152 0
M  V30 16155 H 1476.65 1.62464 2.49819 0
M  V30 16156 H 1474.19 0.811803 1.22671 0
M  V30 16157 H 1476.14 -0.210153 4.1667 0
M  V30 16158 H 1474.77 -0.721426 3.14635 0
M  V30 16159 H 1473.83 1.68403 3.41093 0
M  V30 16160 H 1475.14 2.00931 4.56539 0
M  V30 16161 H 1474.29 0.191724 6.06397 0
M  V30 16162 H 1473.03 -0.231052 4.87152 0
M  V30 16163 H 1472.04 2.06282 5.09635 0
M  V30 16164 H 1473.26 2.47855 6.32254 0
M  V30 16165 H 1471.21 0.24664 6.55536 0
M  V30 16166 H 1471.12 1.7868 7.34581 0
M  V30 16167 H 1472.39 0.674253 7.76578 0
M  V30 16168 N 1476.62 -1.31073 0.875073 0
M  V30 16169 C 1477.55 -2.30855 0.350468 0
M  V30 16170 C 1478.53 -1.60569 -0.561384 0
M  V30 16171 O 1479.72 -1.88242 -0.477329 0
M  V30 16172 C 1476.85 -3.44444 -0.444493 0
M  V30 16173 C 1475.8 -4.26357 0.374716 0
M  V30 16174 C 1475.13 -5.31903 -0.546243 0
M  V30 16175 C 1476.43 -4.96817 1.61153 0
M  V30 16176 H 1478.12 -2.74983 1.18427 0
M  V30 16177 H 1475.67 -1.32199 0.570909 0
M  V30 16178 H 1477.62 -4.13304 -0.82206 0
M  V30 16179 H 1476.34 -2.99096 -1.31185 0
M  V30 16180 H 1475 -3.59171 0.734295 0
M  V30 16181 H 1474.65 -4.82803 -1.41102 0
M  V30 16182 H 1474.35 -5.876 -0.00198173 0
M  V30 16183 H 1475.88 -6.03621 -0.920542 0
M  V30 16184 H 1477.29 -5.58247 1.30511 0
M  V30 16185 H 1475.69 -5.62334 2.09524 0
M  V30 16186 H 1476.76 -4.2351 2.36151 0
M  V30 16187 N 1478.1 -0.635022 -1.4424 0
M  V30 16188 C 1479.05 0.0675707 -2.30701 0
M  V30 16189 C 1480.02 0.832919 -1.43707 0
M  V30 16190 O 1481.2 0.813177 -1.72604 0
M  V30 16191 C 1478.34 1.04053 -3.2904 0
M  V30 16192 C 1477.46 0.273191 -4.31135 0
M  V30 16193 C 1476.59 1.23831 -5.16565 0
M  V30 16194 C 1475.63 0.460359 -6.10366 0
M  V30 16195 N 1474.77 1.37614 -6.88481 0
M  V30 16196 H 1479.61 -0.675656 -2.90239 0
M  V30 16197 H 1477.14 -0.344971 -1.42998 0
M  V30 16198 H 1479.1 1.61805 -3.84545 0
M  V30 16199 H 1477.73 1.75084 -2.71193 0
M  V30 16200 H 1476.78 -0.420315 -3.78071 0
M  V30 16201 H 1478.1 -0.332548 -4.9769 0
M  V30 16202 H 1477.25 1.88704 -5.76607 0
M  V30 16203 H 1475.99 1.87797 -4.50093 0
M  V30 16204 H 1474.99 -0.201836 -5.49429 0
M  V30 16205 H 1476.22 -0.174639 -6.78875 0
M  V30 16206 H 1474.16 2.00294 -6.24675 0
M  V30 16207 H 1474.08 0.82452 -7.5149 0
M  V30 16208 H 1475.35 2.01359 -7.53044 0
M  V30 16209 N 1479.58 1.53054 -0.375806 0
M  V30 16210 C 1480.82 2.017 0.210985 0
M  V30 16211 C 1481.16 1.26228 1.47581 0
M  V30 16212 O 1480.43 0.358869 1.91161 0
M  V30 16213 C 1480.72 3.56715 0.492596 0
M  V30 16214 C 1480.57 4.42869 -0.786573 0
M  V30 16215 C 1481.89 4.20803 1.28891 0
M  V30 16216 H 1479.01 0.733153 0.0752084 0
M  V30 16217 H 1481.65 1.83229 -0.502715 0
M  V30 16218 H 1479.8 3.72585 1.10059 0
M  V30 16219 H 1481.47 4.38777 -1.42381 0
M  V30 16220 H 1479.71 4.10425 -1.40478 0
M  V30 16221 H 1480.38 5.49309 -0.544354 0
M  V30 16222 H 1482.86 4.08828 0.774498 0
M  V30 16223 H 1481.74 5.29273 1.45469 0
M  V30 16224 H 1482 3.77541 2.30033 0
M  V30 16225 N 1481.06 0.105248 1.57248 0
M  V30 16226 C 1481.99 -0.846915 2.176 0
M  V30 16227 C 1482.97 -1.28706 1.11216 0
M  V30 16228 O 1484.15 -1.35213 1.39396 0
M  V30 16229 C 1481.28 -2.10228 2.76445 0
M  V30 16230 C 1480.24 -1.80041 3.8829 0
M  V30 16231 C 1479.56 -3.12491 4.33882 0
M  V30 16232 C 1480.86 -1.07943 5.11024 0
M  V30 16233 H 1482.56 -0.344052 2.97417 0
M  V30 16234 H 1480.1 -0.164045 1.43063 0
M  V30 16235 H 1482.06 -2.77284 3.17319 0
M  V30 16236 H 1480.78 -2.62815 1.93897 0
M  V30 16237 H 1479.44 -1.15379 3.4797 0
M  V30 16238 H 1479.09 -3.62985 3.48211 0
M  V30 16239 H 1478.79 -2.93072 5.09296 0
M  V30 16240 H 1480.31 -3.80688 4.77398 0
M  V30 16241 H 1481.72 -1.65127 5.49004 0
M  V30 16242 H 1480.12 -0.986674 5.91933 0
M  V30 16243 H 1481.19 -0.0638511 4.84858 0
M  V30 16244 N 1482.53 -1.56697 -0.168486 0
M  V30 16245 C 1483.78 -1.82424 -0.885965 0
M  V30 16246 C 1484.11 -0.683543 -1.81773 0
M  V30 16247 O 1483.39 0.314319 -1.91943 0
M  V30 16248 C 1483.67 -3.18553 -1.67917 0
M  V30 16249 C 1483.52 -4.43154 -0.770343 0
M  V30 16250 C 1484.84 -3.51654 -2.64627 0
M  V30 16251 H 1481.96 -0.663594 -0.320644 0
M  V30 16252 H 1484.6 -1.89391 -0.15205 0
M  V30 16253 H 1482.75 -3.12745 -2.30484 0
M  V30 16254 H 1484.43 -4.61032 -0.157328 0
M  V30 16255 H 1482.67 -4.33729 -0.0785653 0
M  V30 16256 H 1483.34 -5.34961 -1.36092 0
M  V30 16257 H 1485.82 -3.57934 -2.12185 0
M  V30 16258 H 1484.69 -4.47975 -3.17191 0
M  V30 16259 H 1484.95 -2.76503 -3.44961 0
M  V30 16260 N 1484.01 0.437135 -1.51416 0
M  V30 16261 C 1485.24 1.21359 -1.68187 0
M  V30 16262 C 1485.66 1.84247 -0.378748 0
M  V30 16263 O 1485.02 1.68816 0.661115 0
M  V30 16264 C 1485.07 2.27319 -2.79926 0
M  V30 16265 O 1484.17 3.32807 -2.43543 0
M  V30 16266 H 1483.51 0.355547 -0.560787 0
M  V30 16267 H 1486.04 0.516204 -1.97981 0
M  V30 16268 H 1486.05 2.721 -3.04016 0
M  V30 16269 H 1484.73 1.80923 -3.74486 0
M  V30 16270 H 1483.31 2.93501 -2.30025 0
M  V30 16271 N 1485.49 1.41566 0.692592 0
M  V30 16272 C 1486.44 1.43648 1.80648 0
M  V30 16273 C 1487.41 0.290497 1.6354 0
M  V30 16274 O 1488.59 0.491979 1.84348 0
M  V30 16275 C 1485.73 1.32733 3.18553 0
M  V30 16276 C 1484.85 2.57224 3.47073 0
M  V30 16277 C 1483.98 2.38581 4.74608 0
M  V30 16278 C 1483.02 3.58534 4.96105 0
M  V30 16279 N 1482.16 3.38942 6.14868 0
M  V30 16280 H 1487 2.38847 1.78203 0
M  V30 16281 H 1484.53 1.186 0.870193 0
M  V30 16282 H 1486.49 1.24405 3.9822 0
M  V30 16283 H 1485.12 0.411407 3.20168 0
M  V30 16284 H 1484.17 2.7599 2.6179 0
M  V30 16285 H 1485.49 3.46443 3.58858 0
M  V30 16286 H 1484.64 2.27738 5.62335 0
M  V30 16287 H 1483.38 1.46824 4.65074 0
M  V30 16288 H 1482.38 3.69828 4.06826 0
M  V30 16289 H 1483.61 4.51248 5.07496 0
M  V30 16290 H 1481.55 2.49887 6.06541 0
M  V30 16291 H 1481.47 4.21737 6.27434 0
M  V30 16292 H 1482.74 3.31877 7.05321 0
M  V30 16293 N 1486.97 -0.927146 1.27443 0
M  V30 16294 C 1488.25 -1.65322 1.04538 0
M  V30 16295 C 1488.63 -2.06886 -0.419694 0
M  V30 16296 O 1487.97 -1.80352 -1.40304 0
M  V30 16297 C 1488.18 -2.85486 2.00746 0
M  V30 16298 C 1489.53 -3.56816 2.30147 0
M  V30 16299 O 1490.56 -2.95613 1.98724 0
M  V30 16300 O 1489.41 -4.67085 2.83714 0
M  V30 16301 H 1486.51 -0.724627 0.398554 0
M  V30 16302 H 1489.05 -0.977633 1.3871 0
M  V30 16303 H 1487.83 -2.51766 2.99549 0
M  V30 16304 H 1487.45 -3.60763 1.67139 0
M  V30 16305 N 1488.45 -1.09474 -1.13372 0
M  V30 16306 C 1489.38 -0.756441 -2.20908 0
M  V30 16307 C 1490.36 0.266113 -1.68006 0
M  V30 16308 O 1491.54 0.134067 -1.93737 0
M  V30 16309 C 1488.67 -0.176733 -3.4685 0
M  V30 16310 C 1487.63 -1.12886 -4.12845 0
M  V30 16311 C 1486.95 -0.410831 -5.33119 0
M  V30 16312 C 1488.25 -2.47148 -4.60125 0
M  V30 16313 H 1489.95 -1.65555 -2.49463 0
M  V30 16314 H 1487.49 -0.797458 -1.19902 0
M  V30 16315 H 1489.45 0.0720151 -4.21338 0
M  V30 16316 H 1488.17 0.757576 -3.17692 0
M  V30 16317 H 1486.83 -1.36289 -3.40325 0
M  V30 16318 H 1486.48 0.527632 -5.00225 0
M  V30 16319 H 1486.18 -1.04567 -5.78221 0
M  V30 16320 H 1487.7 -0.170394 -6.10362 0
M  V30 16321 H 1489.11 -2.27949 -5.26034 0
M  V30 16322 H 1487.51 -3.06425 -5.15969 0
M  V30 16323 H 1488.58 -3.07874 -3.74622 0
M  V30 16324 N 1489.92 1.30607 -0.882012 0
M  V30 16325 C 1490.87 2.2577 -0.318082 0
M  V30 16326 C 1491.86 1.51143 0.551774 0
M  V30 16327 O 1493.05 1.72498 0.396682 0
M  V30 16328 C 1490.18 3.40082 0.468967 0
M  V30 16329 C 1489.27 4.22067 -0.41481 0
M  V30 16330 N 1489.66 4.82613 -1.51389 0
M  V30 16331 C 1487.95 4.45508 -0.209391 0
M  V30 16332 C 1488.66 5.44007 -2.05988 0
M  V30 16333 N 1487.63 5.26435 -1.35524 0
M  V30 16334 H 1491.43 2.70128 -1.15793 0
M  V30 16335 H 1488.95 1.45013 -0.731091 0
M  V30 16336 H 1490.94 4.07298 0.889584 0
M  V30 16337 H 1489.6 2.97265 1.30629 0
M  V30 16338 H 1490.62 4.81916 -1.89676 0
M  V30 16339 H 1487.29 4.13296 0.591 0
M  V30 16340 H 1488.68 6.02068 -2.98268 0
M  V30 16341 N 1491.4 0.642663 1.43901 0
M  V30 16342 C 1492.33 -0.0419756 2.33462 0
M  V30 16343 C 1493.31 -0.822923 1.48869 0
M  V30 16344 O 1494.5 -0.786508 1.7756 0
M  V30 16345 C 1491.63 -1.01631 3.32097 0
M  V30 16346 C 1490.58 -0.346206 4.26597 0
M  V30 16347 C 1489.91 -1.43125 5.15189 0
M  V30 16348 C 1491.21 0.754799 5.16817 0
M  V30 16349 H 1492.9 0.705929 2.90959 0
M  V30 16350 H 1490.45 0.340924 1.39906 0
M  V30 16351 H 1492.4 -1.5041 3.93643 0
M  V30 16352 H 1491.13 -1.79525 2.72834 0
M  V30 16353 H 1489.78 0.121038 3.664 0
M  V30 16354 H 1489.43 -2.20135 4.52271 0
M  V30 16355 H 1489.13 -0.988194 5.79231 0
M  V30 16356 H 1490.66 -1.92061 5.79607 0
M  V30 16357 H 1492.07 0.349624 5.72233 0
M  V30 16358 H 1490.47 1.12169 5.89524 0
M  V30 16359 H 1491.54 1.61718 4.57138 0
M  V30 16360 N 1492.88 -1.52852 0.383918 0
M  V30 16361 C 1493.81 -2.29213 -0.44539 0
M  V30 16362 C 1494.79 -1.3238 -1.06815 0
M  V30 16363 O 1495.98 -1.61269 -1.08194 0
M  V30 16364 C 1493.11 -3.09497 -1.57573 0
M  V30 16365 C 1492.06 -4.14168 -1.07928 0
M  V30 16366 C 1491.39 -4.82644 -2.30128 0
M  V30 16367 C 1492.69 -5.22082 -0.151035 0
M  V30 16368 H 1494.38 -2.98786 0.19172 0
M  V30 16369 H 1491.93 -1.43695 0.0936471 0
M  V30 16370 H 1493.88 -3.61672 -2.16267 0
M  V30 16371 H 1492.6 -2.37647 -2.24034 0
M  V30 16372 H 1491.26 -3.62966 -0.514909 0
M  V30 16373 H 1490.91 -4.07348 -2.95087 0
M  V30 16374 H 1490.61 -5.53388 -1.97574 0
M  V30 16375 H 1492.14 -5.37621 -2.89475 0
M  V30 16376 H 1493.55 -5.69649 -0.646003 0
M  V30 16377 H 1491.95 -6.00041 0.0844833 0
M  V30 16378 H 1493.02 -4.78228 0.801618 0
M  V30 16379 N 1494.36 -0.113586 -1.5719 0
M  V30 16380 C 1495.27 0.852428 -2.18565 0
M  V30 16381 C 1496.29 1.29668 -1.16026 0
M  V30 16382 O 1497.46 1.36079 -1.48474 0
M  V30 16383 C 1494.53 2.08675 -2.76867 0
M  V30 16384 C 1493.59 1.69493 -3.94424 0
M  V30 16385 C 1492.82 2.87042 -4.49936 0
M  V30 16386 O 1493.04 4.02311 -4.04354 0
M  V30 16387 O 1491.98 2.64439 -5.40699 0
M  V30 16388 H 1495.8 0.360144 -3.01557 0
M  V30 16389 H 1493.39 0.111744 -1.48982 0
M  V30 16390 H 1495.27 2.80976 -3.14054 0
M  V30 16391 H 1493.95 2.5692 -1.9691 0
M  V30 16392 H 1492.85 0.943161 -3.62016 0
M  V30 16393 H 1494.19 1.25995 -4.758 0
M  V30 16394 N 1495.84 1.56784 0.160173 0
M  V30 16395 C 1496.75 2.00514 1.21783 0
M  V30 16396 C 1497.76 0.918341 1.47792 0
M  V30 16397 O 1498.94 1.22683 1.59721 0
M  V30 16398 C 1496 2.36575 2.53443 0
M  V30 16399 C 1495.07 3.59138 2.35198 0
M  V30 16400 C 1494.3 3.93469 3.6058 0
M  V30 16401 O 1494.52 3.28625 4.6622 0
M  V30 16402 O 1493.46 4.86774 3.54027 0
M  V30 16403 H 1497.28 2.90774 0.876607 0
M  V30 16404 H 1494.87 1.44799 0.367897 0
M  V30 16405 H 1496.75 2.60687 3.31089 0
M  V30 16406 H 1495.42 1.49474 2.87122 0
M  V30 16407 H 1494.33 3.4023 1.55546 0
M  V30 16408 H 1495.66 4.46815 2.0644 0
M  V30 16409 N 1497.32 -0.429099 1.51646 0
M  V30 16410 C 1498.56 -1.17482 1.63954 0
M  V30 16411 C 1498.88 -1.92152 0.36565 0
M  V30 16412 O 1500.08 -2.68991 0.368221 0
M  V30 16413 C 1498.54 -2.13703 2.89585 0
M  V30 16414 C 1498.15 -1.44642 4.24008 0
M  V30 16415 C 1499.89 -2.88657 3.11252 0
M  V30 16416 C 1497.8 -2.39395 5.40781 0
M  V30 16417 H 1496.73 -0.442234 0.610692 0
M  V30 16418 H 1499.38 -0.441088 1.7812 0
M  V30 16419 H 1497.76 -2.90545 2.69071 0
M  V30 16420 H 1498.94 -0.733012 4.54932 0
M  V30 16421 H 1497.25 -0.818084 4.08285 0
M  V30 16422 H 1499.85 -3.59653 3.95669 0
M  V30 16423 H 1500.19 -3.50473 2.24664 0
M  V30 16424 H 1500.72 -2.18919 3.32144 0
M  V30 16425 H 1497.46 -1.82255 6.29653 0
M  V30 16426 H 1496.98 -3.08766 5.14222 0
M  V30 16427 H 1498.66 -3.0035 5.73061 0
M  V30 16428 N 1498.79 -1.41931 -0.685074 0
M  V30 16429 C 1499.76 -1.44315 -1.78061 0
M  V30 16430 C 1500.76 -0.332215 -1.57331 0
M  V30 16431 O 1501.95 -0.59258 -1.63811 0
M  V30 16432 C 1499.08 -1.26479 -3.16569 0
M  V30 16433 H 1500.27 -2.4185 -1.77337 0
M  V30 16434 H 1497.82 -1.28228 -0.893721 0
M  V30 16435 H 1498.56 -0.298259 -3.22926 0
M  V30 16436 H 1498.34 -2.06981 -3.33018 0
M  V30 16437 H 1499.83 -1.31006 -3.96519 0
M  V30 16438 N 1500.27 0.920374 -1.27933 0
M  V30 16439 C 1501.2 2.03882 -1.13817 0
M  V30 16440 C 1502.18 1.70058 -0.0376853 0
M  V30 16441 O 1503.37 1.93023 -0.213492 0
M  V30 16442 C 1500.5 3.38142 -0.792296 0
M  V30 16443 C 1499.45 3.86104 -1.84683 0
M  V30 16444 C 1498.78 5.17253 -1.35474 0
M  V30 16445 C 1500.08 4.0869 -3.25223 0
M  V30 16446 H 1501.77 2.15949 -2.07379 0
M  V30 16447 H 1499.32 1.03764 -0.998454 0
M  V30 16448 H 1501.27 4.15872 -0.680337 0
M  V30 16449 H 1499.99 3.26109 0.179029 0
M  V30 16450 H 1498.65 3.10573 -1.94782 0
M  V30 16451 H 1498.3 5.01618 -0.372666 0
M  V30 16452 H 1498 5.50314 -2.05982 0
M  V30 16453 H 1499.53 5.97545 -1.25587 0
M  V30 16454 H 1500.94 4.76965 -3.18083 0
M  V30 16455 H 1499.34 4.5307 -3.93507 0
M  V30 16456 H 1500.41 3.13729 -3.69733 0
M  V30 16457 N 1501.75 1.10074 1.1279 0
M  V30 16458 C 1502.98 0.862906 1.88047 0
M  V30 16459 C 1503.39 -0.586346 1.79464 0
M  V30 16460 O 1502.75 -1.40402 1.16591 0
M  V30 16461 C 1502.8 1.29784 3.37399 0
M  V30 16462 O 1502.52 2.69026 3.4577 0
M  V30 16463 C 1504.02 1.09336 4.29605 0
M  V30 16464 H 1501.24 0.309981 0.595108 0
M  V30 16465 H 1503.79 1.46444 1.42738 0
M  V30 16466 H 1501.94 0.740056 3.80266 0
M  V30 16467 H 1502.36 2.87532 4.38663 0
M  V30 16468 H 1503.83 1.44687 5.327 0
M  V30 16469 H 1504.31 0.031679 4.39189 0
M  V30 16470 H 1504.91 1.63743 3.92516 0
M  V30 16471 N 1503.23 -1.30138 0.888926 0
M  V30 16472 C 1504.16 -2.3047 0.374934 0
M  V30 16473 C 1505.14 -1.61156 -0.544322 0
M  V30 16474 O 1506.32 -1.88738 -0.457337 0
M  V30 16475 C 1503.45 -3.44896 -0.407935 0
M  V30 16476 C 1502.41 -4.25935 0.419916 0
M  V30 16477 C 1501.73 -5.32452 -0.489797 0
M  V30 16478 C 1503.03 -4.9508 1.66413 0
M  V30 16479 H 1504.73 -2.73711 1.21337 0
M  V30 16480 H 1502.27 -1.31586 0.584899 0
M  V30 16481 H 1504.23 -4.14153 -0.778177 0
M  V30 16482 H 1502.95 -3.0047 -1.28005 0
M  V30 16483 H 1501.61 -3.58372 0.772348 0
M  V30 16484 H 1501.26 -4.84273 -1.35974 0
M  V30 16485 H 1500.96 -5.87569 0.0603412 0
M  V30 16486 H 1502.48 -6.04563 -0.856468 0
M  V30 16487 H 1503.9 -5.56831 1.36425 0
M  V30 16488 H 1502.29 -5.6008 2.15477 0
M  V30 16489 H 1503.36 -4.20981 2.4063 0
M  V30 16490 N 1504.71 -0.650285 -1.43559 0
M  V30 16491 C 1506.12 -0.317586 -1.56408 0
M  V30 16492 C 1506.32 1.17844 -1.63447 0
M  V30 16493 O 1505.38 1.96318 -1.58794 0
M  V30 16494 C 1506.69 -1.02636 -2.82642 0
M  V30 16495 C 1508.24 -1.00633 -2.96381 0
M  V30 16496 C 1508.71 -1.69595 -4.25443 0
M  V30 16497 N 1510.2 -1.66345 -4.323 0
M  V30 16498 C 1510.94 -2.16581 -5.30924 0
M  V30 16499 N 1510.44 -2.75092 -6.35843 0
M  V30 16500 N 1512.23 -2.07098 -5.22558 0
M  V30 16501 H 1504.38 -1.62114 -1.37233 0
M  V30 16502 H 1506.64 -0.681588 -0.658895 0
M  V30 16503 H 1506.35 -2.08146 -2.83493 0
M  V30 16504 H 1506.22 -0.576081 -3.72775 0
M  V30 16505 H 1508.61 0.0403519 -2.95072 0
M  V30 16506 H 1508.69 -1.49528 -2.07545 0
M  V30 16507 H 1508.33 -2.74218 -4.27512 0
M  V30 16508 H 1508.26 -1.18168 -5.1317 0
M  V30 16509 H 1510.76 -1.23644 -3.571 0
M  V30 16510 H 1511.07 -3.11108 -7.07412 0
M  V30 16511 H 1509.41 -2.79152 -6.36474 0
M  V30 16512 H 1512.6 -1.61093 -4.39507 0
M  V30 16513 H 1512.78 -2.46557 -5.99261 0
M  V30 16514 N 1506.18 1.52647 -0.392018 0
M  V30 16515 C 1507.15 2.25135 0.429754 0
M  V30 16516 C 1508.15 1.26871 0.987946 0
M  V30 16517 O 1509.34 1.50947 0.86952 0
M  V30 16518 C 1506.47 3.00849 1.60321 0
M  V30 16519 H 1507.66 2.99199 -0.204918 0
M  V30 16520 H 1505.21 1.55634 -0.144188 0
M  V30 16521 H 1505.95 2.31092 2.27524 0
M  V30 16522 H 1505.73 3.72975 1.20964 0
M  V30 16523 H 1507.22 3.55879 2.18494 0
M  V30 16524 N 1507.66 0.121921 1.57128 0
M  V30 16525 C 1508.91 -0.535371 1.95295 0
M  V30 16526 C 1509.24 -1.665 1.00539 0
M  V30 16527 O 1508.49 -1.95677 0.0298129 0
M  V30 16528 C 1508.79 -1.10579 3.39863 0
M  V30 16529 C 1508.46 -0.0972144 4.50795 0
M  V30 16530 C 1507.12 0.180111 4.80863 0
M  V30 16531 C 1509.47 0.589973 5.1785 0
M  V30 16532 C 1506.8 1.15086 5.75302 0
M  V30 16533 C 1509.15 1.54937 6.13333 0
M  V30 16534 C 1507.82 1.83465 6.41792 0
M  V30 16535 H 1507.09 -0.195906 0.714634 0
M  V30 16536 H 1509.73 0.203445 1.90416 0
M  V30 16537 H 1508.04 -1.92143 3.4145 0
M  V30 16538 H 1509.73 -1.62252 3.66709 0
M  V30 16539 H 1506.32 -0.32355 4.27377 0
M  V30 16540 H 1510.51 0.38889 4.94774 0
M  V30 16541 H 1505.76 1.3786 5.95655 0
M  V30 16542 H 1509.94 2.08751 6.64376 0
M  V30 16543 H 1507.57 2.58841 7.14777 0
M  V30 16544 N 1509.14 -1.56867 -0.151857 0
M  V30 16545 C 1510.05 -2.01157 -1.20718 0
M  V30 16546 C 1511.07 -0.926166 -1.47303 0
M  V30 16547 O 1512.24 -1.23528 -1.59069 0
M  V30 16548 C 1509.31 -2.37915 -2.52185 0
M  V30 16549 C 1508.37 -3.60381 -2.3329 0
M  V30 16550 C 1507.6 -3.95376 -3.58488 0
M  V30 16551 O 1507.82 -3.31093 -4.64471 0
M  V30 16552 O 1506.76 -4.88645 -3.5144 0
M  V30 16553 H 1510.58 -2.91234 -0.861175 0
M  V30 16554 H 1508.17 -1.44993 -0.360213 0
M  V30 16555 H 1510.05 -2.6244 -3.29702 0
M  V30 16556 H 1508.73 -1.50995 -2.86325 0
M  V30 16557 H 1507.63 -3.4105 -1.5374 0
M  V30 16558 H 1508.97 -4.47903 -2.04067 0
M  V30 16559 N 1510.62 0.421051 -1.51871 0
M  V30 16560 C 1511.58 1.49478 -1.73749 0
M  V30 16561 C 1512.58 1.48887 -0.607395 0
M  V30 16562 O 1513.77 1.50622 -0.875143 0
M  V30 16563 C 1510.9 2.88947 -1.80893 0
M  V30 16564 H 1512.1 1.31377 -2.69593 0
M  V30 16565 H 1509.65 0.650786 -1.42107 0
M  V30 16566 H 1510.38 3.12434 -0.86922 0
M  V30 16567 H 1510.17 2.90781 -2.63038 0
M  V30 16568 H 1511.66 3.66809 -1.99602 0
M  V30 16569 N 1512.1 1.42293 0.677538 0
M  V30 16570 C 1513.37 1.331 1.43331 0
M  V30 16571 C 1513.75 -0.0329227 2.11074 0
M  V30 16572 O 1513.1 -1.04826 2.03036 0
M  V30 16573 C 1513.31 2.49725 2.438 0
M  V30 16574 C 1514.66 2.91716 3.08524 0
M  V30 16575 O 1515.68 2.49596 2.54127 0
M  V30 16576 O 1514.54 3.64609 4.07091 0
M  V30 16577 H 1511.64 0.524758 0.639185 0
M  V30 16578 H 1514.18 1.54294 0.706493 0
M  V30 16579 H 1512.95 3.40663 1.92522 0
M  V30 16580 H 1512.58 2.30503 3.23966 0
M  V30 16581 N 1513.57 -0.913576 1.28419 0
M  V30 16582 C 1514.8 -1.70178 1.18551 0
M  V30 16583 C 1515.22 -1.864 -0.252307 0
M  V30 16584 O 1514.58 -1.37427 -1.18252 0
M  V30 16585 C 1514.63 -3.07145 1.8893 0
M  V30 16586 O 1513.73 -3.9465 1.19688 0
M  V30 16587 H 1513.08 -0.521092 0.411533 0
M  V30 16588 H 1515.61 -1.14228 1.69744 0
M  V30 16589 H 1515.62 -3.57375 1.96843 0
M  V30 16590 H 1514.29 -2.94655 2.93515 0
M  V30 16591 H 1512.87 -3.53085 1.19939 0
M  V30 16592 N 1515.05 -1.1067 -1.12204 0
M  V30 16593 C 1516.28 -0.872867 -1.87586 0
M  V30 16594 C 1516.7 0.57682 -1.79773 0
M  V30 16595 O 1516.05 1.39782 -1.17334 0
M  V30 16596 C 1516.1 -1.31572 -3.36706 0
M  V30 16597 O 1515.82 -2.70856 -3.44338 0
M  V30 16598 C 1517.33 -1.11613 -4.29019 0
M  V30 16599 H 1514.55 -0.313132 -0.593455 0
M  V30 16600 H 1517.09 -1.47199 -1.4196 0
M  V30 16601 H 1515.24 -0.760212 -3.79868 0
M  V30 16602 H 1515.66 -2.89854 -4.37132 0
M  V30 16603 H 1517.13 -1.4751 -5.31925 0
M  V30 16604 H 1517.61 -0.0549698 -4.39166 0
M  V30 16605 H 1518.22 -1.65822 -3.91642 0
M  V30 16606 N 1516.53 1.29665 -0.895815 0
M  V30 16607 C 1517.78 1.96006 -0.520522 0
M  V30 16608 C 1518.11 1.7048 0.930068 0
M  V30 16609 O 1517.38 1.01558 1.6588 0
M  V30 16610 C 1517.67 3.50897 -0.808925 0
M  V30 16611 C 1517.52 3.85896 -2.31093 0
M  V30 16612 C 1518.84 4.39125 -0.292769 0
M  V30 16613 H 1515.96 0.711931 -0.190588 0
M  V30 16614 H 1518.6 1.53349 -1.12179 0
M  V30 16615 H 1516.75 3.87362 -0.297194 0
M  V30 16616 H 1518.42 3.59397 -2.89191 0
M  V30 16617 H 1516.67 3.33578 -2.77323 0
M  V30 16618 H 1517.34 4.93989 -2.46331 0
M  V30 16619 H 1519.81 4.0963 -0.730906 0
M  V30 16620 H 1518.69 5.46395 -0.523799 0
M  V30 16621 H 1518.95 4.34683 0.806393 0
M  V30 16622 N 1518.01 0.657889 1.43212 0
M  V30 16623 C 1519.26 0.170493 2.00978 0
M  V30 16624 C 1519.57 -1.22439 1.52539 0
M  V30 16625 O 1520.78 -1.80725 2.02609 0
M  V30 16626 C 1519.23 0.253982 3.59003 0
M  V30 16627 C 1518.84 1.65185 4.16435 0
M  V30 16628 C 1520.58 -0.17557 4.24137 0
M  V30 16629 C 1518.49 1.68902 5.66768 0
M  V30 16630 H 1517.42 0.0599767 0.751611 0
M  V30 16631 H 1520.07 0.820606 1.64129 0
M  V30 16632 H 1518.45 -0.463723 3.93275 0
M  V30 16633 H 1519.63 2.39529 3.93653 0
M  V30 16634 H 1517.94 2.02779 3.63689 0
M  V30 16635 H 1520.54 -0.167714 5.34437 0
M  V30 16636 H 1520.88 -1.20784 3.98393 0
M  V30 16637 H 1521.42 0.490544 3.94764 0
M  V30 16638 H 1518.16 2.70055 5.97286 0
M  V30 16639 H 1517.68 0.988906 5.91592 0
M  V30 16640 H 1519.35 1.43485 6.30889 0
M  V30 16641 N 1519.49 -1.52437 0.400108 0
M  V30 16642 C 1520.4 -2.30496 -0.436875 0
M  V30 16643 C 1521.41 -1.37851 -1.06175 0
M  V30 16644 O 1522.59 -1.70924 -1.06522 0
M  V30 16645 C 1519.65 -3.10459 -1.54325 0
M  V30 16646 C 1518.71 -4.18829 -0.942367 0
M  V30 16647 C 1517.95 -4.94969 -1.99602 0
M  V30 16648 O 1518.17 -4.71314 -3.21278 0
M  V30 16649 O 1517.1 -5.80043 -1.60728 0
M  V30 16650 H 1520.93 -3.03045 0.199343 0
M  V30 16651 H 1518.52 -1.48502 0.163541 0
M  V30 16652 H 1520.4 -3.60282 -2.18575 0
M  V30 16653 H 1519.07 -2.40713 -2.16423 0
M  V30 16654 H 1517.98 -3.73176 -0.262831 0
M  V30 16655 H 1519.31 -4.90841 -0.365441 0
M  V30 16656 N 1520.96 -0.130252 -1.57061 0
M  V30 16657 C 1521.91 0.815767 -2.15902 0
M  V30 16658 C 1522.88 1.2558 -1.08715 0
M  V30 16659 O 1524.07 1.33132 -1.36677 0
M  V30 16660 C 1521.21 2.0561 -2.77162 0
M  V30 16661 C 1520.32 1.6634 -3.98692 0
M  V30 16662 C 1519.45 2.85425 -4.48002 0
M  V30 16663 C 1518.49 2.42449 -5.62036 0
M  V30 16664 N 1517.63 3.54486 -6.0604 0
M  V30 16665 H 1522.47 0.307164 -2.96413 0
M  V30 16666 H 1520.01 0.139913 -1.46433 0
M  V30 16667 H 1521.97 2.78298 -3.10815 0
M  V30 16668 H 1520.6 2.5391 -1.99323 0
M  V30 16669 H 1519.65 0.834817 -3.71127 0
M  V30 16670 H 1520.96 1.30765 -4.81354 0
M  V30 16671 H 1520.11 3.66325 -4.83623 0
M  V30 16672 H 1518.85 3.24235 -3.64312 0
M  V30 16673 H 1517.86 1.59985 -5.26008 0
M  V30 16674 H 1519.08 2.04744 -6.475 0
M  V30 16675 H 1517.03 3.92948 -5.25289 0
M  V30 16676 H 1516.95 3.22871 -6.83586 0
M  V30 16677 H 1518.21 4.35792 -6.46302 0
M  V30 16678 N 1522.44 1.56945 0.143535 0
M  V30 16679 C 1523.69 1.84696 0.851985 0
M  V30 16680 C 1524.04 0.714713 1.78633 0
M  V30 16681 O 1523.34 -0.287092 1.89437 0
M  V30 16682 C 1523.53 3.16482 1.66054 0
M  V30 16683 C 1523.36 4.42418 0.80599 0
M  V30 16684 C 1522.13 5.03107 0.470269 0
M  V30 16685 C 1524.33 5.14123 0.134742 0
M  V30 16686 N 1522.31 6.12612 -0.397516 0
M  V30 16687 C 1523.68 6.17157 -0.593039 0
M  V30 16688 C 1525.74 4.97869 0.0557743 0
M  V30 16689 C 1524.44 7.05696 -1.39234 0
M  V30 16690 C 1526.47 5.86874 -0.730272 0
M  V30 16691 C 1525.83 6.89392 -1.44632 0
M  V30 16692 H 1521.93 0.726447 0.28948 0
M  V30 16693 H 1524.51 1.94347 0.117143 0
M  V30 16694 H 1522.68 3.07972 2.3666 0
M  V30 16695 H 1524.41 3.32128 2.31243 0
M  V30 16696 H 1521.17 4.66676 0.806858 0
M  V30 16697 H 1521.59 6.71985 -0.822534 0
M  V30 16698 H 1526.23 4.18592 0.595021 0
M  V30 16699 H 1523.95 7.84398 -1.94283 0
M  V30 16700 H 1527.54 5.76365 -0.79341 0
M  V30 16701 H 1526.42 7.57072 -2.04479 0
M  V30 16702 N 1523.92 -0.412991 1.52093 0
M  V30 16703 C 1524.85 -1.52374 1.69874 0
M  V30 16704 C 1525.83 -1.53148 0.546311 0
M  V30 16705 O 1527.02 -1.71913 0.773188 0
M  V30 16706 C 1524.14 -2.90914 1.73455 0
M  V30 16707 C 1523.19 -3.08068 2.94952 0
M  V30 16708 S 1524.02 -2.81789 4.55363 0
M  V30 16709 C 1525.18 -4.22566 4.61724 0
M  V30 16710 H 1525.41 -1.37062 2.63821 0
M  V30 16711 H 1522.94 -0.604312 1.42082 0
M  V30 16712 H 1524.9 -3.7076 1.76203 0
M  V30 16713 H 1523.56 -3.03571 0.806429 0
M  V30 16714 H 1522.76 -4.09417 2.93928 0
M  V30 16715 H 1522.36 -2.36082 2.90071 0
M  V30 16716 H 1524.65 -5.16145 4.38863 0
M  V30 16717 H 1525.59 -4.28615 5.63644 0
M  V30 16718 H 1526 -4.07357 3.90795 0
M  V30 16719 N 1525.4 -1.4265 -0.669982 0
M  V30 16720 C 1526.68 -1.33858 -1.42623 0
M  V30 16721 C 1527.06 0.0217285 -2.11089 0
M  V30 16722 O 1526.4 1.03748 -2.03589 0
M  V30 16723 C 1526.61 -2.51015 -2.42472 0
M  V30 16724 C 1527.96 -2.93348 -3.06972 0
M  V30 16725 O 1528.99 -2.5094 -2.52799 0
M  V30 16726 O 1527.85 -3.66762 -4.05151 0
M  V30 16727 H 1524.94 -0.528141 -0.636393 0
M  V30 16728 H 1527.49 -1.54667 -0.6983 0
M  V30 16729 H 1526.26 -3.41679 -1.90713 0
M  V30 16730 H 1525.88 -2.32218 -3.2274 0
M  V30 16731 N 1526.88 0.906753 -1.28902 0
M  V30 16732 C 1528.13 1.6533 -1.16234 0
M  V30 16733 C 1528.45 1.92861 0.288004 0
M  V30 16734 O 1527.72 1.54971 1.19837 0
M  V30 16735 H 1526.3 0.612806 -0.427174 0
M  V30 16736 H 1528.96 1.08764 -1.6173 0
M  V30 16737 H 1528.05 2.61271 -1.70715 0
M  V30 16738 N 1528.36 1.11264 1.11616 0
M  V30 16739 C 1529.6 0.861639 1.83585 0
M  V30 16740 C 1529.93 -0.611221 1.8433 0
M  V30 16741 O 1529.21 -1.45116 1.29505 0
M  V30 16742 C 1529.49 1.42157 3.30852 0
M  V30 16743 C 1529.35 2.96192 3.38512 0
M  V30 16744 C 1530.66 1.07099 4.2687 0
M  V30 16745 H 1527.78 0.314464 0.666545 0
M  V30 16746 H 1530.43 1.37722 1.30892 0
M  V30 16747 H 1528.58 0.983054 3.75857 0
M  V30 16748 H 1530.25 3.48634 3.0208 0
M  V30 16749 H 1528.49 3.32353 2.7879 0
M  V30 16750 H 1529.16 3.30457 4.42156 0
M  V30 16751 H 1531.64 1.44952 3.90036 0
M  V30 16752 H 1530.51 1.48957 5.28302 0
M  V30 16753 H 1530.77 -0.018482 4.42096 0
M  V30 16754 N 1529.83 -1.29188 0.902679 0
M  V30 16755 C 1530.78 -2.27632 0.381088 0
M  V30 16756 C 1531.75 -1.57131 -0.538431 0
M  V30 16757 O 1532.94 -1.85096 -0.463027 0
M  V30 16758 C 1530.08 -3.42971 -0.382701 0
M  V30 16759 C 1529.19 -4.28249 0.568054 0
M  V30 16760 C 1528.32 -5.30772 -0.213082 0
M  V30 16761 C 1527.36 -6.07707 0.732004 0
M  V30 16762 N 1526.5 -7.02098 -0.0149139 0
M  V30 16763 H 1531.34 -2.71628 1.22566 0
M  V30 16764 H 1528.88 -1.33594 0.615724 0
M  V30 16765 H 1530.83 -4.08623 -0.841619 0
M  V30 16766 H 1529.46 -2.99997 -1.19171 0
M  V30 16767 H 1528.52 -3.62743 1.14549 0
M  V30 16768 H 1529.83 -4.81794 1.29136 0
M  V30 16769 H 1528.98 -6.02255 -0.733065 0
M  V30 16770 H 1527.72 -4.77966 -0.969504 0
M  V30 16771 H 1526.73 -5.35086 1.26346 0
M  V30 16772 H 1527.95 -6.62602 1.4878 0
M  V30 16773 H 1525.9 -6.51658 -0.753548 0
M  V30 16774 H 1525.81 -7.53214 0.648423 0
M  V30 16775 H 1527.08 -7.77796 -0.515062 0
M  V30 16776 N 1531.31 -0.665475 -1.42861 0
M  V30 16777 C 1532.59 -0.113252 -1.95272 0
M  V30 16778 C 1532.97 1.36972 -1.6063 0
M  V30 16779 O 1532.32 2.10129 -0.897662 0
M  V30 16780 C 1532.53 -0.372482 -3.47007 0
M  V30 16781 C 1533.87 -0.283982 -4.23649 0
M  V30 16782 O 1534.9 -0.305714 -3.54886 0
M  V30 16783 O 1533.76 -0.218171 -5.46064 0
M  V30 16784 H 1530.85 0.00253712 -0.826996 0
M  V30 16785 H 1533.4 -0.739561 -1.52737 0
M  V30 16786 H 1532.17 -1.40015 -3.65392 0
M  V30 16787 H 1531.79 0.286294 -3.96568 0
M  V30 16788 N 1532.79 1.52222 -0.408187 0
M  V30 16789 C 1534.04 2.01803 0.167905 0
M  V30 16790 C 1534.36 1.29385 1.45223 0
M  V30 16791 O 1533.62 0.388383 1.91807 0
M  V30 16792 C 1533.92 3.54384 0.463353 0
M  V30 16793 C 1533.58 4.44924 -0.731665 0
M  V30 16794 C 1532.25 4.69392 -1.05946 0
M  V30 16795 C 1534.6 4.9823 -1.53023 0
M  V30 16796 C 1531.93 5.44414 -2.18702 0
M  V30 16797 C 1534.28 5.74486 -2.64855 0
M  V30 16798 C 1532.94 5.97227 -2.98121 0
M  V30 16799 H 1532.21 0.738448 0.0614409 0
M  V30 16800 H 1534.86 1.83449 -0.549412 0
M  V30 16801 H 1533.16 3.70911 1.26223 0
M  V30 16802 H 1534.86 3.90256 0.922042 0
M  V30 16803 H 1531.45 4.26057 -0.4662 0
M  V30 16804 H 1535.64 4.79236 -1.29022 0
M  V30 16805 H 1530.89 5.60242 -2.44824 0
M  V30 16806 H 1535.07 6.14788 -3.27122 0
M  V30 16807 H 1532.69 6.5514 -3.8561 0
M  V30 16808 N 1534.27 0.138579 1.5699 0
M  V30 16809 C 1535.2 -0.800568 2.19347 0
M  V30 16810 C 1536.18 -1.26318 1.13921 0
M  V30 16811 O 1537.36 -1.32226 1.42232 0
M  V30 16812 C 1534.49 -2.04317 2.80842 0
M  V30 16813 C 1533.45 -1.71764 3.92022 0
M  V30 16814 C 1532.77 -3.03217 4.40413 0
M  V30 16815 C 1534.07 -0.970789 5.13199 0
M  V30 16816 H 1535.77 -0.280888 2.98079 0
M  V30 16817 H 1533.31 -0.133663 1.43378 0
M  V30 16818 H 1535.27 -2.70491 3.2313 0
M  V30 16819 H 1533.99 -2.58643 1.99428 0
M  V30 16820 H 1532.65 -1.07972 3.50339 0
M  V30 16821 H 1532.3 -3.55517 3.55832 0
M  V30 16822 H 1532 -2.82203 5.15398 0
M  V30 16823 H 1533.52 -3.70477 4.85365 0
M  V30 16824 H 1534.94 -1.53445 5.52384 0
M  V30 16825 H 1533.33 -0.860895 5.93893 0
M  V30 16826 H 1534.4 0.0390088 4.84884 0
M  V30 16827 N 1535.75 -1.57019 -0.13521 0
M  V30 16828 C 1536.68 -1.94319 -1.19646 0
M  V30 16829 C 1537.66 -0.810603 -1.40954 0
M  V30 16830 O 1538.84 -1.0673 -1.55374 0
M  V30 16831 C 1535.97 -2.22542 -2.55328 0
M  V30 16832 C 1535.01 -3.45151 -2.50546 0
M  V30 16833 S 1535.85 -4.98307 -1.96089 0
M  V30 16834 C 1537 -5.29665 -3.33476 0
M  V30 16835 H 1537.24 -2.8403 -0.878294 0
M  V30 16836 H 1534.77 -1.5058 -0.341313 0
M  V30 16837 H 1536.73 -2.39482 -3.33405 0
M  V30 16838 H 1535.39 -1.33474 -2.8433 0
M  V30 16839 H 1534.58 -3.62213 -3.50454 0
M  V30 16840 H 1534.18 -3.27514 -1.80583 0
M  V30 16841 H 1536.47 -5.23854 -4.29631 0
M  V30 16842 H 1537.42 -6.31031 -3.21256 0
M  V30 16843 H 1537.83 -4.57161 -3.31156 0
M  V30 16844 N 1537.22 0.404919 -1.52309 0
M  V30 16845 C 1538.17 1.49363 -1.75953 0
M  V30 16846 C 1539.14 1.54802 -0.60212 0
M  V30 16847 O 1540.33 1.71308 -0.840128 0
M  V30 16848 C 1537.47 2.86767 -1.91987 0
M  V30 16849 C 1536.58 2.90603 -3.19646 0
M  V30 16850 C 1535.71 4.19333 -3.26088 0
M  V30 16851 C 1534.75 4.17161 -4.47932 0
M  V30 16852 N 1533.89 5.37469 -4.51743 0
M  V30 16853 H 1538.73 1.28503 -2.6887 0
M  V30 16854 H 1536.27 0.623684 -1.33224 0
M  V30 16855 H 1538.23 3.66536 -1.99267 0
M  V30 16856 H 1536.86 3.06112 -1.02447 0
M  V30 16857 H 1535.91 2.033 -3.21517 0
M  V30 16858 H 1537.22 2.84864 -4.09456 0
M  V30 16859 H 1536.37 5.07497 -3.32463 0
M  V30 16860 H 1535.11 4.27774 -2.34224 0
M  V30 16861 H 1534.12 3.27386 -4.417 0
M  V30 16862 H 1535.34 4.10356 -5.41096 0
M  V30 16863 H 1533.29 5.46569 -3.62764 0
M  V30 16864 H 1533.21 5.3374 -5.35404 0
M  V30 16865 H 1534.47 6.27575 -4.62353 0
M  V30 16866 N 1538.7 1.43003 0.662408 0
M  V30 16867 C 1539.63 1.43407 1.78793 0
M  V30 16868 C 1540.65 0.331423 1.59391 0
M  V30 16869 O 1541.84 0.595291 1.68281 0
M  V30 16870 C 1538.94 1.22239 3.16087 0
M  V30 16871 C 1538.11 2.4517 3.6223 0
M  V30 16872 C 1537.17 2.19362 4.78296 0
M  V30 16873 O 1536.19 2.92651 4.88205 0
M  V30 16874 N 1537.4 1.20449 5.67866 0
M  V30 16875 H 1540.16 2.40426 1.78928 0
M  V30 16876 H 1537.72 1.38042 0.845936 0
M  V30 16877 H 1539.71 1.02871 3.91407 0
M  V30 16878 H 1538.28 0.336983 3.10778 0
M  V30 16879 H 1537.5 2.80024 2.77453 0
M  V30 16880 H 1538.79 3.27003 3.89803 0
M  V30 16881 H 1538.19 0.598577 5.62524 0
M  V30 16882 H 1536.75 1.07066 6.42946 0
M  V30 16883 N 1540.18 -0.899904 1.29381 0
M  V30 16884 C 1541.11 -2.00914 1.103 0
M  V30 16885 C 1542.13 -1.62721 0.050568 0
M  V30 16886 O 1543.31 -1.76044 0.295068 0
M  V30 16887 C 1540.41 -3.32473 0.656896 0
M  V30 16888 C 1539.59 -3.99195 1.7878 0
M  V30 16889 C 1538.65 -5.09043 1.33274 0
M  V30 16890 O 1537.67 -5.31486 2.03742 0
M  V30 16891 N 1538.87 -5.80143 0.203519 0
M  V30 16892 H 1541.64 -2.17838 2.05832 0
M  V30 16893 H 1539.2 -1.07208 1.21318 0
M  V30 16894 H 1541.19 -4.03305 0.335783 0
M  V30 16895 H 1539.76 -3.11921 -0.205959 0
M  V30 16896 H 1538.98 -3.21729 2.2778 0
M  V30 16897 H 1540.27 -4.40515 2.54606 0
M  V30 16898 H 1539.67 -5.64395 -0.384005 0
M  V30 16899 H 1538.23 -6.51774 -0.0582282 0
M  V30 16900 N 1541.66 -1.11854 -1.11024 0
M  V30 16901 C 1542.62 -0.784033 -2.15373 0
M  V30 16902 C 1543.62 0.198686 -1.59568 0
M  V30 16903 O 1544.81 -0.0263428 -1.7418 0
M  V30 16904 C 1541.94 -0.163987 -3.40505 0
M  V30 16905 H 1543.14 -1.70849 -2.46477 0
M  V30 16906 H 1540.69 -0.920988 -1.26283 0
M  V30 16907 H 1541.42 0.770483 -3.15014 0
M  V30 16908 H 1541.21 -0.871447 -3.82293 0
M  V30 16909 H 1542.7 0.0537739 -4.17565 0
M  V30 16910 N 1543.14 1.28707 -0.909517 0
M  V30 16911 C 1544.1 2.25692 -0.39946 0
M  V30 16912 C 1545.1 1.53721 0.471848 0
M  V30 16913 O 1546.29 1.72008 0.275504 0
M  V30 16914 C 1543.42 3.38205 0.427793 0
M  V30 16915 H 1544.61 2.72326 -1.25613 0
M  V30 16916 H 1542.17 1.40317 -0.688535 0
M  V30 16917 H 1542.9 2.96926 1.30404 0
M  V30 16918 H 1542.69 3.91606 -0.19667 0
M  V30 16919 H 1544.18 4.10334 0.775634 0
M  V30 16920 N 1544.61 0.673042 1.42506 0
M  V30 16921 C 1545.55 -0.0452975 2.29155 0
M  V30 16922 C 1546.56 -0.767277 1.43585 0
M  V30 16923 O 1547.75 -0.621728 1.67322 0
M  V30 16924 C 1544.85 -1.0878 3.20967 0
M  V30 16925 C 1544.02 -0.439999 4.35181 0
M  V30 16926 C 1543.08 -1.38205 5.07726 0
M  V30 16927 O 1542.11 -0.883031 5.62309 0
M  V30 16928 N 1543.31 -2.7154 5.13075 0
M  V30 16929 H 1546.07 0.698517 2.91446 0
M  V30 16930 H 1543.63 0.517322 1.53412 0
M  V30 16931 H 1545.63 -1.71925 3.66366 0
M  V30 16932 H 1544.2 -1.73337 2.6014 0
M  V30 16933 H 1543.42 0.370926 3.92451 0
M  V30 16934 H 1544.7 0.0113738 5.08799 0
M  V30 16935 H 1544.1 -3.14623 4.70137 0
M  V30 16936 H 1542.66 -3.29937 5.62126 0
M  V30 16937 N 1546.09 -1.52004 0.416254 0
M  V30 16938 C 1547.34 -2.0149 -0.15689 0
M  V30 16939 C 1547.66 -1.30343 -1.45037 0
M  V30 16940 O 1546.93 -0.431503 -1.91089 0
M  V30 16941 H 1545.51 -0.744508 -0.0609682 0
M  V30 16942 H 1548.17 -1.86857 0.55413 0
M  V30 16943 H 1547.27 -3.10155 -0.347917 0
M  V30 16944 N 1547.57 -0.146903 -1.56914 0
M  V30 16945 C 1548.85 0.549291 -1.87729 0
M  V30 16946 C 1549.23 1.82971 -1.05284 0
M  V30 16947 O 1548.58 2.28073 -0.139628 0
M  V30 16948 C 1548.79 0.814835 -3.39354 0
M  V30 16949 C 1550.13 1.15565 -4.0857 0
M  V30 16950 O 1551.16 0.904191 -3.44533 0
M  V30 16951 O 1550.02 1.62886 -5.21661 0
M  V30 16952 H 1547.11 0.280196 -0.778087 0
M  V30 16953 H 1549.66 -0.183507 -1.68705 0
M  V30 16954 H 1548.43 -0.0913527 -3.91193 0
M  V30 16955 H 1548.05 1.60182 -3.63906 0
M  V30 16956 N 1549.05 1.57088 0.126881 0
M  V30 16957 C 1550.33 1.7539 0.8659 0
M  V30 16958 C 1550.71 0.720288 1.98432 0
M  V30 16959 O 1550.05 -0.2572 2.27048 0
M  V30 16960 C 1550.26 3.20131 1.38985 0
M  V30 16961 C 1551.61 3.82404 1.84532 0
M  V30 16962 O 1552.64 3.23685 1.48682 0
M  V30 16963 O 1551.49 4.85599 2.50711 0
M  V30 16964 H 1548.59 0.717853 0.41063 0
M  V30 16965 H 1551.13 1.69335 0.111236 0
M  V30 16966 H 1549.91 3.86871 0.587056 0
M  V30 16967 H 1549.53 3.30692 2.20745 0
M  V30 16968 N 1550.53 -0.396836 1.52522 0
M  V30 16969 C 1551.49 -1.46695 1.76106 0
M  V30 16970 C 1552.49 -1.47902 0.631005 0
M  V30 16971 O 1553.68 -1.4921 0.898995 0
M  V30 16972 C 1550.81 -2.86033 1.85467 0
M  V30 16973 H 1552 -1.27071 2.71649 0
M  V30 16974 H 1549.56 -0.628096 1.43125 0
M  V30 16975 H 1550.29 -3.11012 0.918816 0
M  V30 16976 H 1550.08 -2.86559 2.67631 0
M  V30 16977 H 1551.57 -3.63587 2.05412 0
M  V30 16978 N 1552.01 -1.43353 -0.654814 0
M  V30 16979 C 1553.25 -1.44599 -1.41193 0
M  V30 16980 C 1553.57 -0.0707955 -1.94871 0
M  V30 16981 O 1552.84 0.893637 -1.7433 0
M  V30 16982 H 1551.42 -0.532373 -0.524011 0
M  V30 16983 H 1554.09 -1.78942 -0.772388 0
M  V30 16984 H 1553.18 -2.15761 -2.25508 0
M  V30 16985 N 1553.48 0.89303 -1.29857 0
M  V30 16986 C 1554.41 2.01422 -1.18117 0
M  V30 16987 C 1555.39 1.6994 -0.0737487 0
M  V30 16988 O 1556.58 1.92527 -0.254387 0
M  V30 16989 C 1553.71 3.36385 -0.863842 0
M  V30 16990 C 1552.66 3.821 -1.92831 0
M  V30 16991 C 1551.99 5.14263 -1.46415 0
M  V30 16992 C 1553.29 4.01699 -3.33819 0
M  V30 16993 H 1554.98 2.11502 -2.11913 0
M  V30 16994 H 1552.53 1.01622 -1.02024 0
M  V30 16995 H 1554.48 4.14335 -0.768397 0
M  V30 16996 H 1553.21 3.26415 0.109816 0
M  V30 16997 H 1551.87 3.06372 -2.01325 0
M  V30 16998 H 1551.51 5.00714 -0.478983 0
M  V30 16999 H 1551.21 5.45821 -2.17609 0
M  V30 17000 H 1552.74 5.94747 -1.38234 0
M  V30 17001 H 1554.15 4.70111 -3.28129 0
M  V30 17002 H 1552.55 4.44621 -4.03029 0
M  V30 17003 H 1553.62 3.05816 -3.76304 0
M  V30 17004 N 1554.96 1.12442 1.10429 0
M  V30 17005 C 1555.89 0.750131 2.16577 0
M  V30 17006 C 1556.91 -0.223265 1.61262 0
M  V30 17007 O 1558.1 -0.00459454 1.78499 0
M  V30 17008 C 1555.2 0.0895474 3.38782 0
M  V30 17009 C 1554.37 1.09242 4.23539 0
M  V30 17010 C 1553.43 0.45945 5.2419 0
M  V30 17011 O 1552.45 1.11646 5.58143 0
M  V30 17012 N 1553.66 -0.773093 5.75329 0
M  V30 17013 H 1556.42 1.66349 2.49295 0
M  V30 17014 H 1553.98 1.01603 1.26049 0
M  V30 17015 H 1555.97 -0.345895 4.03219 0
M  V30 17016 H 1554.54 -0.726572 3.04039 0
M  V30 17017 H 1553.76 1.70549 3.55396 0
M  V30 17018 H 1555.05 1.77057 4.76999 0
M  V30 17019 H 1554.45 -1.32585 5.49943 0
M  V30 17020 H 1553.01 -1.15135 6.41551 0
M  V30 17021 N 1556.44 -1.28223 0.91633 0
M  V30 17022 C 1557.86 -1.47281 0.614864 0
M  V30 17023 C 1558.06 -1.83197 -0.839111 0
M  V30 17024 O 1557.11 -1.9385 -1.61798 0
M  V30 17025 C 1558.42 -2.57373 1.55498 0
M  V30 17026 C 1559.97 -2.71241 1.56197 0
M  V30 17027 C 1560.45 -3.84479 2.48877 0
M  V30 17028 N 1561.94 -3.91837 2.47019 0
M  V30 17029 C 1562.67 -4.78846 3.15427 0
M  V30 17030 N 1562.17 -5.70427 3.93173 0
M  V30 17031 N 1563.96 -4.72478 3.04501 0
M  V30 17032 H 1556.11 -1.03191 1.85649 0
M  V30 17033 H 1558.38 -0.514213 0.796422 0
M  V30 17034 H 1558.08 -2.37747 2.5917 0
M  V30 17035 H 1557.96 -3.54527 1.28803 0
M  V30 17036 H 1560.34 -2.90254 0.532619 0
M  V30 17037 H 1560.42 -1.74609 1.86937 0
M  V30 17038 H 1560.07 -3.6622 3.51916 0
M  V30 17039 H 1560 -4.80514 2.15439 0
M  V30 17040 H 1562.49 -3.26344 1.90546 0
M  V30 17041 H 1562.8 -6.33653 4.42384 0
M  V30 17042 H 1561.15 -5.70259 3.97278 0
M  V30 17043 H 1564.34 -3.99925 2.43265 0
M  V30 17044 H 1564.51 -5.40073 3.58086 0
M  V30 17045 N 1557.92 -0.68059 -1.42147 0
M  V30 17046 C 1558.85 0.0331442 -2.29176 0
M  V30 17047 C 1559.86 0.759652 -1.4399 0
M  V30 17048 O 1561.05 0.612846 -1.6765 0
M  V30 17049 C 1558.15 1.07077 -3.2154 0
M  V30 17050 C 1557.32 0.416914 -4.35409 0
M  V30 17051 C 1556.38 1.3551 -5.08452 0
M  V30 17052 O 1555.41 0.853198 -5.62769 0
M  V30 17053 N 1556.61 2.68815 -5.14508 0
M  V30 17054 H 1559.38 -0.713963 -2.91072 0
M  V30 17055 H 1556.94 -0.525451 -1.53136 0
M  V30 17056 H 1558.93 1.6998 -3.67272 0
M  V30 17057 H 1557.5 1.71955 -2.61056 0
M  V30 17058 H 1556.72 -0.391734 -3.92249 0
M  V30 17059 H 1558.01 -0.0383564 -5.08786 0
M  V30 17060 H 1557.41 3.12125 -4.71799 0
M  V30 17061 H 1555.96 3.26951 -5.63867 0
M  V30 17062 N 1559.4 1.51781 -0.424309 0
M  V30 17063 C 1560.33 2.30313 0.384462 0
M  V30 17064 C 1561.31 1.35166 1.03268 0
M  V30 17065 O 1562.49 1.64081 1.0388 0
M  V30 17066 C 1559.62 3.13566 1.49311 0
M  V30 17067 C 1558.58 4.16884 0.969096 0
M  V30 17068 C 1557.9 4.88576 2.17251 0
M  V30 17069 C 1559.2 5.22298 0.0125613 0
M  V30 17070 H 1560.9 2.98172 -0.270871 0
M  V30 17071 H 1558.44 1.43396 -0.131712 0
M  V30 17072 H 1560.39 3.67279 2.06602 0
M  V30 17073 H 1559.12 2.43504 2.17655 0
M  V30 17074 H 1557.78 3.64203 0.418494 0
M  V30 17075 H 1557.43 4.15029 2.84183 0
M  V30 17076 H 1557.13 5.58432 1.82833 0
M  V30 17077 H 1558.65 5.45107 2.75119 0
M  V30 17078 H 1560.06 5.71161 0.494744 0
M  V30 17079 H 1558.46 5.99606 -0.243544 0
M  V30 17080 H 1559.53 4.75935 -0.92813 0
M  V30 17081 N 1560.87 0.155222 1.56834 0
M  V30 17082 C 1562.15 -0.539327 1.88018 0
M  V30 17083 C 1562.53 -1.8241 1.06253 0
M  V30 17084 O 1561.88 -2.27996 0.151721 0
M  V30 17085 C 1562.09 -0.796826 3.39782 0
M  V30 17086 C 1563.44 -1.13397 4.09178 0
M  V30 17087 O 1564.46 -0.885907 3.45007 0
M  V30 17088 O 1563.32 -1.60117 5.22518 0
M  V30 17089 H 1560.41 -0.276066 0.779562 0
M  V30 17090 H 1562.96 0.192451 1.68605 0
M  V30 17091 H 1561.73 0.112097 3.91139 0
M  V30 17092 H 1561.35 -1.5825 3.6475 0
M  V30 17093 N 1562.35 -1.57153 -0.118549 0
M  V30 17094 C 1563.28 -1.97022 -1.1711 0
M  V30 17095 C 1564.3 -0.869599 -1.37629 0
M  V30 17096 O 1565.49 -1.14788 -1.36696 0
M  V30 17097 C 1562.59 -2.25371 -2.53103 0
M  V30 17098 C 1561.76 -3.56677 -2.5318 0
M  V30 17099 C 1560.82 -3.73233 -3.70922 0
M  V30 17100 O 1559.84 -4.4534 -3.54487 0
M  V30 17101 N 1561.05 -3.12036 -4.89504 0
M  V30 17102 H 1563.81 -2.87921 -0.831959 0
M  V30 17103 H 1561.37 -1.58947 -0.307817 0
M  V30 17104 H 1563.36 -2.33662 -3.3043 0
M  V30 17105 H 1561.93 -1.40597 -2.79197 0
M  V30 17106 H 1561.15 -3.5957 -1.61564 0
M  V30 17107 H 1562.44 -4.42982 -2.50288 0
M  V30 17108 H 1561.84 -2.53422 -5.05761 0
M  V30 17109 H 1560.4 -3.25846 -5.64506 0
M  V30 17110 N 1563.83 0.388742 -1.5273 0
M  V30 17111 C 1565.07 1.14269 -1.69475 0
M  V30 17112 C 1565.43 1.87222 -0.425669 0
M  V30 17113 O 1566.63 2.64668 -0.469486 0
M  V30 17114 C 1564.91 2.09472 -2.8958 0
M  V30 17115 S 1566.46 2.927 -3.26913 0
M  V30 17116 H 1563.28 0.386807 -0.596574 0
M  V30 17117 H 1565.88 0.427089 -1.90778 0
M  V30 17118 H 1564.59 1.54599 -3.80167 0
M  V30 17119 H 1564.12 2.8554 -2.70611 0
M  V30 17120 H 1566.13 4.11605 -2.77121 0
M  V30 17121 N 1565.31 1.43698 0.647203 0
M  V30 17122 C 1566.53 1.49301 1.43958 0
M  V30 17123 C 1566.96 0.11395 1.87755 0
M  V30 17124 O 1566.32 -0.893571 1.5775 0
M  V30 17125 C 1566.36 2.44905 2.64677 0
M  V30 17126 O 1565.47 1.93947 3.63948 0
M  V30 17127 H 1564.81 0.504771 0.431396 0
M  V30 17128 H 1567.34 1.88673 0.791432 0
M  V30 17129 H 1567.35 2.62409 3.12419 0
M  V30 17130 H 1566.02 3.45083 2.32143 0
M  V30 17131 H 1564.6 1.86133 3.23124 0
M  V30 17132 N 1566.79 -0.886131 1.30328 0
M  V30 17133 C 1567.75 -1.97328 1.16594 0
M  V30 17134 C 1568.75 -1.60504 0.0975023 0
M  V30 17135 O 1569.94 -1.70739 0.345524 0
M  V30 17136 C 1567.07 -3.31714 0.786045 0
M  V30 17137 H 1568.26 -2.1094 2.13177 0
M  V30 17138 H 1565.82 -1.07238 1.13708 0
M  V30 17139 H 1566.55 -3.23804 -0.179334 0
M  V30 17140 H 1566.34 -3.5981 1.55817 0
M  V30 17141 H 1567.83 -4.11461 0.71339 0
M  V30 17142 N 1568.26 -1.13026 -1.09832 0
M  V30 17143 C 1569.51 -0.889419 -1.81922 0
M  V30 17144 C 1569.84 0.584572 -1.85507 0
M  V30 17145 O 1569.09 1.44844 -1.316 0
M  V30 17146 C 1569.39 -1.41718 -3.28102 0
M  V30 17147 C 1569.06 -2.90729 -3.44655 0
M  V30 17148 C 1567.72 -3.31415 -3.48881 0
M  V30 17149 C 1570.07 -3.86619 -3.49536 0
M  V30 17150 C 1567.4 -4.66683 -3.55561 0
M  V30 17151 C 1569.75 -5.21726 -3.5775 0
M  V30 17152 C 1568.42 -5.61945 -3.60242 0
M  V30 17153 H 1567.69 -0.325461 -0.6657 0
M  V30 17154 H 1570.33 -1.4115 -1.29418 0
M  V30 17155 H 1568.64 -0.815709 -3.83215 0
M  V30 17156 H 1570.34 -1.20696 -3.82405 0
M  V30 17157 H 1566.93 -2.58266 -3.42048 0
M  V30 17158 H 1571.11 -3.56276 -3.45516 0
M  V30 17159 H 1566.37 -4.97226 -3.55776 0
M  V30 17160 H 1570.54 -5.95847 -3.60471 0
M  V30 17161 H 1568.17 -6.66749 -3.65171 0
M  V30 17162 N 1569.74 1.27735 -0.923117 0
M  V30 17163 C 1570.99 1.94858 -0.56198 0
M  V30 17164 C 1571.32 1.72414 0.893698 0
M  V30 17165 O 1570.6 1.05054 1.63689 0
M  V30 17166 C 1570.88 3.49102 -0.883173 0
M  V30 17167 C 1570.73 3.80908 -2.39227 0
M  V30 17168 C 1572.05 4.38405 -0.385848 0
M  V30 17169 H 1569.17 0.707728 -0.205646 0
M  V30 17170 H 1571.81 1.50935 -1.15406 0
M  V30 17171 H 1569.96 3.86644 -0.379292 0
M  V30 17172 H 1571.63 3.53182 -2.96749 0
M  V30 17173 H 1569.88 3.2762 -2.84337 0
M  V30 17174 H 1570.55 4.88653 -2.56754 0
M  V30 17175 H 1573.02 4.07988 -0.817631 0
M  V30 17176 H 1571.9 5.45161 -0.63958 0
M  V30 17177 H 1572.16 4.36296 0.714009 0
M  V30 17178 N 1571.22 0.688118 1.41784 0
M  V30 17179 C 1572.17 0.00661035 2.32599 0
M  V30 17180 C 1573.16 -0.776475 1.50556 0
M  V30 17181 O 1574.37 -0.682937 1.66541 0
M  V30 17182 H 1570.74 -0.0166615 0.751815 0
M  V30 17183 H 1572.71 0.789718 2.8776 0
M  V30 17184 C 1571.46 -0.921251 3.35273 0
M  V30 17185 H 1570.79 -0.328099 3.98451 0
M  V30 17186 H 1572.23 -1.36655 4.01374 0
M  V30 17187 C 1570.69 -2.03393 2.68576 0
M  V30 17188 O 1571.22 -3.1219 2.52785 0
M  V30 17189 N 1569.42 -1.8095 2.27389 0
M  V30 17190 H 1568.97 -0.924692 2.40431 0
M  V30 17191 H 1568.93 -2.55584 1.83096 0
M  V30 17192 N 1572.7 -1.51554 0.432352 0
M  V30 17193 C 1573.61 -2.31371 -0.387885 0
M  V30 17194 C 1574.62 -1.40072 -1.03227 0
M  V30 17195 O 1575.8 -1.73145 -1.02873 0
M  V30 17196 C 1572.87 -3.13662 -1.47705 0
M  V30 17197 C 1571.93 -4.20734 -0.853315 0
M  V30 17198 C 1571.16 -4.99092 -1.89058 0
M  V30 17199 O 1571.38 -4.78022 -3.11209 0
M  V30 17200 O 1570.32 -5.83322 -1.48389 0
M  V30 17201 H 1574.14 -3.02554 0.263578 0
M  V30 17202 H 1571.73 -1.48122 0.195004 0
M  V30 17203 H 1573.61 -3.64837 -2.10884 0
M  V30 17204 H 1572.28 -2.45249 -2.11269 0
M  V30 17205 H 1571.19 -3.73649 -0.183616 0
M  V30 17206 H 1572.52 -4.91506 -0.261244 0
M  V30 17207 N 1574.18 -0.163538 -1.56749 0
M  V30 17208 C 1575.43 0.483453 -1.9582 0
M  V30 17209 C 1575.74 1.64913 -1.05181 0
M  V30 17210 O 1576.94 2.36184 -1.33901 0
M  V30 17211 C 1575.4 0.911471 -3.48167 0
M  V30 17212 C 1575.01 -0.228178 -4.47419 0
M  V30 17213 C 1576.75 1.52732 -3.96072 0
M  V30 17214 C 1574.66 0.219036 -5.90994 0
M  V30 17215 H 1573.59 0.184383 -0.731108 0
M  V30 17216 H 1576.24 -0.250527 -1.81782 0
M  V30 17217 H 1574.62 1.7012 -3.57596 0
M  V30 17218 H 1575.8 -1.0054 -4.49698 0
M  V30 17219 H 1574.11 -0.753485 -4.09526 0
M  V30 17220 H 1576.71 1.87383 -5.00791 0
M  V30 17221 H 1577.05 2.42239 -3.38565 0
M  V30 17222 H 1577.58 0.802176 -3.89628 0
M  V30 17223 H 1574.32 -0.641066 -6.52358 0
M  V30 17224 H 1573.84 0.96178 -5.92039 0
M  V30 17225 H 1575.52 0.665524 -6.43568 0
M  V30 17226 N 1575.65 1.57214 0.110213 0
M  V30 17227 C 1576.56 2.04287 1.15342 0
M  V30 17228 C 1577.58 0.964895 1.44796 0
M  V30 17229 O 1578.76 1.27702 1.55737 0
M  V30 17230 C 1575.82 2.44518 2.45788 0
M  V30 17231 C 1574.88 3.66439 2.23653 0
M  V30 17232 C 1574.12 4.04742 3.47879 0
M  V30 17233 O 1574.34 3.43291 4.5553 0
M  V30 17234 O 1573.27 4.97791 3.38361 0
M  V30 17235 H 1577.1 2.93415 0.783656 0
M  V30 17236 H 1574.68 1.45897 0.321644 0
M  V30 17237 H 1576.57 2.71089 3.22628 0
M  V30 17238 H 1575.24 1.58533 2.82221 0
M  V30 17239 H 1574.15 3.45006 1.44643 0
M  V30 17240 H 1575.48 4.53156 1.9212 0
M  V30 17241 N 1577.13 -0.380637 1.52934 0
M  V30 17242 C 1578.36 -1.14583 1.72274 0
M  V30 17243 C 1578.78 -1.83484 0.444864 0
M  V30 17244 O 1578.13 -1.72997 -0.581245 0
M  V30 17245 C 1578.18 -2.18756 2.87799 0
M  V30 17246 O 1577.9 -1.52662 4.10641 0
M  V30 17247 C 1579.41 -3.07938 3.18887 0
M  V30 17248 H 1576.63 -0.343218 0.576578 0
M  V30 17249 H 1579.17 -0.444149 1.99619 0
M  V30 17250 H 1577.32 -2.84546 2.62892 0
M  V30 17251 H 1577.74 -2.21949 4.75225 0
M  V30 17252 H 1579.21 -3.77045 4.03164 0
M  V30 17253 H 1579.69 -3.71913 2.33618 0
M  V30 17254 H 1580.3 -2.47783 3.45664 0
M  V30 17255 N 1578.61 -1.44039 -0.639573 0
M  V30 17256 C 1579.86 -1.4566 -1.39521 0
M  V30 17257 C 1580.17 -0.0897878 -1.95394 0
M  V30 17258 O 1581.38 0.0165074 -2.71495 0
M  V30 17259 C 1579.83 -2.56395 -2.52566 0
M  V30 17260 C 1579.44 -3.99245 -2.03243 0
M  V30 17261 C 1581.19 -2.67226 -3.29834 0
M  V30 17262 C 1579.09 -5.01419 -3.1358 0
M  V30 17263 H 1578.02 -0.541894 -0.524277 0
M  V30 17264 H 1580.67 -1.70076 -0.688941 0
M  V30 17265 H 1579.06 -2.25204 -3.25729 0
M  V30 17266 H 1580.23 -4.39963 -1.37002 0
M  V30 17267 H 1578.55 -3.9258 -1.38816 0
M  V30 17268 H 1581.14 -3.40736 -4.12072 0
M  V30 17269 H 1581.49 -1.72756 -3.78763 0
M  V30 17270 H 1582.02 -2.97786 -2.63758 0
M  V30 17271 H 1578.76 -5.97489 -2.69605 0
M  V30 17272 H 1578.28 -4.65301 -3.7849 0
M  V30 17273 H 1579.96 -5.2474 -3.78493 0
M  V30 17274 N 1580.09 0.879207 -1.30796 0
M  V30 17275 C 1581 2.01822 -1.19604 0
M  V30 17276 C 1582.01 1.73621 -0.114715 0
M  V30 17277 O 1583.19 1.98665 -0.330757 0
M  V30 17278 C 1580.26 3.3496 -0.894569 0
M  V30 17279 C 1579.32 3.76545 -2.06185 0
M  V30 17280 C 1578.55 5.0333 -1.77467 0
M  V30 17281 O 1578.77 5.66022 -0.70535 0
M  V30 17282 O 1577.71 5.41461 -2.62876 0
M  V30 17283 H 1581.53 2.14194 -2.15301 0
M  V30 17284 H 1579.12 1.00608 -1.10446 0
M  V30 17285 H 1581 4.14818 -0.741891 0
M  V30 17286 H 1579.67 3.23684 0.0324464 0
M  V30 17287 H 1578.58 2.97367 -2.26988 0
M  V30 17288 H 1579.91 3.92434 -2.97079 0
M  V30 17289 N 1581.57 1.13606 1.09231 0
M  V30 17290 C 1582.79 0.922667 1.85746 0
M  V30 17291 C 1583.22 -0.523381 1.80672 0
M  V30 17292 O 1582.58 -1.37156 1.18566 0
M  V30 17293 C 1582.62 1.41762 3.31566 0
M  V30 17294 O 1581.73 0.60418 4.0795 0
M  V30 17295 H 1581.07 0.330523 0.575891 0
M  V30 17296 H 1583.6 1.51123 1.37924 0
M  V30 17297 H 1583.61 1.42212 3.82413 0
M  V30 17298 H 1582.28 2.47048 3.34574 0
M  V30 17299 H 1580.86 0.667721 3.66873 0
M  V30 17300 N 1583.05 -1.27244 0.929878 0
M  V30 17301 C 1584.27 -1.98912 0.587277 0
M  V30 17302 C 1584.7 -1.68888 -0.828168 0
M  V30 17303 O 1584.05 -0.930394 -1.55606 0
M  V30 17304 C 1584.1 -3.51097 0.822399 0
M  V30 17305 O 1583.21 -4.12251 -0.110968 0
M  V30 17306 H 1582.55 -0.624404 0.225867 0
M  V30 17307 H 1585.08 -1.61997 1.24973 0
M  V30 17308 H 1585.09 -4.01255 0.738824 0
M  V30 17309 H 1583.76 -3.72282 1.85416 0
M  V30 17310 H 1582.34 -3.72893 0.0227053 0
M  V30 17311 N 1584.52 -0.695628 -1.41417 0
M  V30 17312 C 1585.45 -0.0447013 -2.33457 0
M  V30 17313 C 1586.43 0.767104 -1.51821 0
M  V30 17314 O 1587.62 0.720066 -1.80357 0
M  V30 17315 C 1584.75 0.892353 -3.3564 0
M  V30 17316 C 1583.7 0.187638 -4.27588 0
M  V30 17317 C 1583.03 1.23906 -5.20146 0
M  V30 17318 C 1584.33 -0.946093 -5.1366 0
M  V30 17319 H 1586.02 -0.81343 -2.88138 0
M  V30 17320 H 1583.57 -0.392614 -1.38544 0
M  V30 17321 H 1585.52 1.35696 -3.98954 0
M  V30 17322 H 1584.25 1.69275 -2.79309 0
M  V30 17323 H 1582.91 -0.256942 -3.65698 0
M  V30 17324 H 1582.55 2.03198 -4.6013 0
M  V30 17325 H 1582.25 0.772536 -5.82499 0
M  V30 17326 H 1583.78 1.70417 -5.86336 0
M  V30 17327 H 1585.19 -0.561764 -5.70541 0
M  V30 17328 H 1583.59 -1.33971 -5.84954 0
M  V30 17329 H 1584.66 -1.78573 -4.50821 0
M  V30 17330 N 1586 1.51322 -0.440383 0
M  V30 17331 C 1586.95 2.27823 0.369526 0
M  V30 17332 C 1587.92 1.31543 1.01418 0
M  V30 17333 O 1589.1 1.60449 1.03251 0
M  V30 17334 C 1586.24 3.12553 1.46304 0
M  V30 17335 C 1585.36 4.23829 0.836217 0
M  V30 17336 C 1584.49 4.95865 1.90504 0
M  V30 17337 C 1583.53 5.99058 1.25681 0
M  V30 17338 N 1582.67 6.64489 2.26712 0
M  V30 17339 H 1587.51 2.96593 -0.289205 0
M  V30 17340 H 1585.04 1.46287 -0.154466 0
M  V30 17341 H 1587 3.60006 2.10836 0
M  V30 17342 H 1585.63 2.4589 2.09136 0
M  V30 17343 H 1584.68 3.80318 0.0791116 0
M  V30 17344 H 1586 4.97753 0.322989 0
M  V30 17345 H 1585.15 5.46881 2.6269 0
M  V30 17346 H 1583.89 4.21578 2.452 0
M  V30 17347 H 1582.89 5.47331 0.520422 0
M  V30 17348 H 1584.12 6.75303 0.717138 0
M  V30 17349 H 1582.07 5.93014 2.80483 0
M  V30 17350 H 1581.98 7.34188 1.80289 0
M  V30 17351 H 1583.25 7.20134 2.98373 0
M  V30 17352 N 1587.48 0.171848 1.5666 0
M  V30 17353 C 1588.43 -0.775125 2.19305 0
M  V30 17354 C 1589.42 -1.23711 1.15724 0
M  V30 17355 O 1590.63 -1.2027 1.33922 0
M  V30 17356 H 1587 -0.268245 0.70253 0
M  V30 17357 H 1588.97 -0.222823 2.97567 0
M  V30 17358 C 1587.72 -1.99397 2.84844 0
M  V30 17359 H 1587.05 -1.64752 3.64276 0
M  V30 17360 H 1588.49 -2.63545 3.32145 0
M  V30 17361 C 1586.94 -2.81794 1.84645 0
M  V30 17362 O 1587.47 -3.78964 1.33225 0
M  V30 17363 N 1585.68 -2.4682 1.5339 0
M  V30 17364 H 1585.23 -1.67862 1.95397 0
M  V30 17365 H 1585.19 -3.02238 0.866004 0
M  V30 17366 N 1588.96 -1.5727 -0.101874 0
M  V30 17367 C 1589.89 -1.96813 -1.15498 0
M  V30 17368 C 1590.87 -0.840319 -1.39203 0
M  V30 17369 O 1592.05 -1.10002 -1.53075 0
M  V30 17370 C 1589.18 -2.27908 -2.5055 0
M  V30 17371 C 1588.23 -3.50388 -2.43168 0
M  V30 17372 S 1589.06 -5.02354 -1.85475 0
M  V30 17373 C 1590.21 -5.36619 -3.22166 0
M  V30 17374 H 1590.45 -2.8583 -0.81785 0
M  V30 17375 H 1587.98 -1.5127 -0.309296 0
M  V30 17376 H 1589.94 -2.465 -3.2825 0
M  V30 17377 H 1588.6 -1.39475 -2.81435 0
M  V30 17378 H 1587.79 -3.69565 -3.42692 0
M  V30 17379 H 1587.39 -3.31271 -1.73596 0
M  V30 17380 H 1589.69 -5.32849 -4.18423 0
M  V30 17381 H 1590.63 -6.37703 -3.07799 0
M  V30 17382 H 1591.04 -4.64082 -3.21385 0
M  V30 17383 N 1590.44 0.372521 -1.53134 0
M  V30 17384 C 1591.38 1.45597 -1.79082 0
M  V30 17385 C 1592.35 1.5349 -0.63482 0
M  V30 17386 O 1593.54 1.69488 -0.876276 0
M  V30 17387 C 1590.68 2.8263 -1.98026 0
M  V30 17388 C 1589.79 2.83758 -3.25738 0
M  V30 17389 C 1588.93 4.12322 -3.34909 0
M  V30 17390 C 1587.96 4.07565 -4.5668 0
M  V30 17391 N 1587.1 5.27766 -4.63042 0
M  V30 17392 H 1591.94 1.22771 -2.71535 0
M  V30 17393 H 1589.48 0.595285 -1.34517 0
M  V30 17394 H 1591.44 3.62227 -2.06997 0
M  V30 17395 H 1590.07 3.0387 -1.08917 0
M  V30 17396 H 1589.12 1.96435 -3.25757 0
M  V30 17397 H 1590.43 2.76114 -4.15406 0
M  V30 17398 H 1589.58 5.00331 -3.43153 0
M  V30 17399 H 1588.32 4.22709 -2.43245 0
M  V30 17400 H 1587.33 3.17943 -4.48545 0
M  V30 17401 H 1588.55 3.98786 -5.49678 0
M  V30 17402 H 1586.5 5.38752 -3.74276 0
M  V30 17403 H 1586.42 5.22264 -5.46605 0
M  V30 17404 H 1587.68 6.17626 -4.75561 0
M  V30 17405 N 1591.91 1.44376 0.631925 0
M  V30 17406 C 1592.82 1.5367 1.77264 0
M  V30 17407 C 1593.84 0.422425 1.68794 0
M  V30 17408 O 1595.02 0.679656 1.89585 0
M  V30 17409 C 1592.08 1.47743 3.13644 0
M  V30 17410 C 1591.14 2.70015 3.33752 0
M  V30 17411 C 1590.37 2.64362 4.63626 0
M  V30 17412 O 1590.6 1.7032 5.44378 0
M  V30 17413 O 1589.53 3.55201 4.85918 0
M  V30 17414 H 1593.36 2.5004 1.72376 0
M  V30 17415 H 1590.94 1.26614 0.793052 0
M  V30 17416 H 1592.82 1.46958 3.94945 0
M  V30 17417 H 1591.5 0.545165 3.19076 0
M  V30 17418 H 1590.41 2.76369 2.52133 0
M  V30 17419 H 1591.74 3.62286 3.33181 0
M  V30 17420 N 1593.39 -0.872258 1.31261 0
M  V30 17421 C 1594.64 -1.6199 1.20176 0
M  V30 17422 C 1594.95 -1.94129 -0.239439 0
M  V30 17423 O 1596.16 -2.67366 -0.471956 0
M  V30 17424 C 1594.62 -2.92017 2.10366 0
M  V30 17425 C 1594.22 -2.6737 3.59468 0
M  V30 17426 C 1595.97 -3.70007 2.08075 0
M  V30 17427 C 1593.87 -3.93291 4.41674 0
M  V30 17428 H 1592.8 -0.607793 0.446211 0
M  V30 17429 H 1595.46 -0.964627 1.561 0
M  V30 17430 H 1593.84 -3.58907 1.67338 0
M  V30 17431 H 1595.01 -2.08902 4.10727 0
M  V30 17432 H 1593.33 -2.02738 3.63712 0
M  V30 17433 H 1595.92 -4.63416 2.66739 0
M  V30 17434 H 1596.27 -4.02385 1.06733 0
M  V30 17435 H 1596.8 -3.09998 2.49291 0
M  V30 17436 H 1593.54 -3.66064 5.43762 0
M  V30 17437 H 1593.06 -4.51218 3.95174 0
M  V30 17438 H 1594.74 -4.61197 4.53769 0
M  V30 17439 N 1594.87 -1.14184 -1.08627 0
M  V30 17440 C 1595.78 -0.84033 -2.19033 0
M  V30 17441 C 1596.8 0.178322 -1.73084 0
M  V30 17442 O 1597.97 0.00737963 -2.01399 0
M  V30 17443 C 1595.04 -0.319674 -3.45223 0
M  V30 17444 C 1594.1 -1.4006 -4.0581 0
M  V30 17445 C 1593.33 -0.904693 -5.25976 0
M  V30 17446 O 1593.55 0.25468 -5.69831 0
M  V30 17447 O 1592.49 -1.68267 -5.77901 0
M  V30 17448 H 1596.31 -1.76296 -2.47292 0
M  V30 17449 H 1593.9 -0.919929 -1.17719 0
M  V30 17450 H 1595.78 -0.0351268 -4.21385 0
M  V30 17451 H 1594.46 0.575264 -3.18547 0
M  V30 17452 H 1593.36 -1.73858 -3.31247 0
M  V30 17453 H 1594.7 -2.26998 -4.3673 0
M  V30 17454 N 1596.35 1.26749 -0.936613 0
M  V30 17455 C 1597.58 1.98059 -0.598357 0
M  V30 17456 C 1597.99 1.6979 0.825646 0
M  V30 17457 O 1597.35 0.963514 1.54992 0
M  V30 17458 C 1597.4 3.51948 -0.825519 0
M  V30 17459 O 1597.12 3.79232 -2.19351 0
M  V30 17460 C 1598.62 4.40503 -0.497186 0
M  V30 17461 H 1595.84 0.631826 -0.225914 0
M  V30 17462 H 1598.39 1.61379 -1.25607 0
M  V30 17463 H 1596.54 3.86806 -0.214479 0
M  V30 17464 H 1596.95 4.73782 -2.25014 0
M  V30 17465 H 1598.43 5.47457 -0.706779 0
M  V30 17466 H 1598.91 4.35516 0.567645 0
M  V30 17467 H 1599.51 4.11181 -1.08675 0
M  V30 17468 N 1597.83 0.703118 1.41046 0
M  V30 17469 C 1598.77 0.0312802 2.32579 0
M  V30 17470 C 1599.77 -0.760463 1.51371 0
M  V30 17471 O 1600.97 -0.665235 1.67256 0
M  V30 17472 H 1597.35 -0.00868655 0.75195 0
M  V30 17473 H 1599.32 0.820195 2.86907 0
M  V30 17474 C 1598.07 -0.885639 3.36232 0
M  V30 17475 H 1597.39 -0.285819 3.98777 0
M  V30 17476 H 1598.83 -1.3239 4.02801 0
M  V30 17477 C 1597.29 -2.00533 2.70718 0
M  V30 17478 O 1597.82 -3.09491 2.56082 0
M  V30 17479 N 1596.03 -1.78528 2.29295 0
M  V30 17480 H 1595.57 -0.899139 2.41399 0
M  V30 17481 H 1595.53 -2.53627 1.85797 0
M  V30 17482 N 1599.3 -1.51086 0.448402 0
M  V30 17483 C 1600.23 -2.30896 -0.347773 0
M  V30 17484 C 1601.22 -1.36792 -1.01104 0
M  V30 17485 O 1602.4 -1.65713 -1.01257 0
M  V30 17486 C 1599.53 -3.15901 -1.44304 0
M  V30 17487 C 1598.48 -4.18373 -0.90265 0
M  V30 17488 C 1597.81 -4.9197 -2.0945 0
M  V30 17489 C 1599.11 -5.22252 0.0705335 0
M  V30 17490 H 1600.8 -2.97704 0.318273 0
M  V30 17491 H 1598.35 -1.43169 0.154509 0
M  V30 17492 H 1600.3 -3.70519 -2.00733 0
M  V30 17493 H 1599.03 -2.46935 -2.13753 0
M  V30 17494 H 1597.69 -3.64823 -0.3605 0
M  V30 17495 H 1597.33 -4.19497 -2.77545 0
M  V30 17496 H 1597.03 -5.6127 -1.73926 0
M  V30 17497 H 1598.56 -5.49415 -2.66412 0
M  V30 17498 H 1599.97 -5.71876 -0.403814 0
M  V30 17499 H 1598.37 -5.99142 0.338905 0
M  V30 17500 H 1599.44 -4.74398 1.00373 0
M  V30 17501 N 1600.78 -0.180154 -1.56567 0
M  V30 17502 C 1602.2 0.175902 -1.58628 0
M  V30 17503 C 1602.4 1.62179 -1.19583 0
M  V30 17504 O 1601.45 2.35471 -0.911566 0
M  V30 17505 C 1602.77 -0.11292 -3.00488 0
M  V30 17506 C 1604.32 -0.051834 -3.12957 0
M  V30 17507 C 1604.79 -0.313764 -4.56924 0
M  V30 17508 N 1606.28 -0.261852 -4.62459 0
M  V30 17509 C 1607.02 -0.438573 -5.7172 0
M  V30 17510 N 1606.51 -0.674832 -6.89506 0
M  V30 17511 N 1608.31 -0.373864 -5.60855 0
M  V30 17512 H 1600.46 -1.12385 -1.80232 0
M  V30 17513 H 1602.72 -0.447459 -0.835754 0
M  V30 17514 H 1602.43 -1.11488 -3.33562 0
M  V30 17515 H 1602.3 0.591409 -3.72535 0
M  V30 17516 H 1604.69 0.940711 -2.79705 0
M  V30 17517 H 1604.77 -0.78901 -2.43327 0
M  V30 17518 H 1604.41 -1.30356 -4.90887 0
M  V30 17519 H 1604.34 0.444127 -5.24724 0
M  V30 17520 H 1606.83 -0.0852513 -3.77804 0
M  V30 17521 H 1607.15 -0.798891 -7.6866 0
M  V30 17522 H 1605.49 -0.711551 -6.91348 0
M  V30 17523 H 1608.68 -0.189815 -4.67715 0
M  V30 17524 H 1608.85 -0.515012 -6.4595 0
M  V30 17525 N 1602.26 1.57322 0.0935319 0
M  V30 17526 C 1603.49 1.90754 0.814111 0
M  V30 17527 C 1603.91 0.774571 1.71412 0
M  V30 17528 O 1603.27 -0.273775 1.79221 0
M  V30 17529 C 1603.32 3.23055 1.60211 0
M  V30 17530 O 1602.42 3.10755 2.71118 0
M  V30 17531 H 1601.76 0.625237 0.223552 0
M  V30 17532 H 1604.29 2.04486 0.068288 0
M  V30 17533 H 1604.3 3.56401 1.986 0
M  V30 17534 H 1602.98 4.05101 0.941607 0
M  V30 17535 H 1601.55 2.88926 2.35745 0
M  V30 17536 N 1603.74 -0.364395 1.53329 0
M  V30 17537 C 1604.99 -1.10473 1.69234 0
M  V30 17538 C 1605.31 -1.89799 0.447347 0
M  V30 17539 O 1604.58 -1.8835 -0.538612 0
M  V30 17540 H 1603.16 -0.410826 0.623884 0
M  V30 17541 H 1605.82 -0.410721 1.90523 0
M  V30 17542 H 1604.92 -1.79387 2.55396 0
M  V30 17543 N 1605.22 -1.44709 -0.62426 0
M  V30 17544 C 1606.63 -1.42523 -1.20599 0
M  V30 17545 C 1606.98 -0.144129 -1.9567 0
M  V30 17546 O 1606.1 0.755175 -2.02796 0
M  V30 17547 C 1606.7 -2.58194 -2.19365 0
M  V30 17548 C 1605.26 -2.59181 -2.72951 0
M  V30 17549 C 1604.4 -2.34461 -1.48065 0
M  V30 17550 H 1607.36 -1.5319 -0.414532 0
M  V30 17551 H 1607.38 -2.3134 -3.02096 0
M  V30 17552 H 1606.89 -3.5142 -1.64699 0
M  V30 17553 H 1604.99 -1.69916 -3.31601 0
M  V30 17554 H 1605.1 -3.57884 -3.18521 0
M  V30 17555 H 1603.47 -1.83688 -1.76439 0
M  V30 17556 H 1604.25 -3.2981 -0.952918 0
M  V30 17557 N 1606.69 0.865285 -1.31722 0
M  V30 17558 C 1607.94 1.62108 -1.21855 0
M  V30 17559 C 1608.27 1.9293 0.221714 0
M  V30 17560 O 1607.55 1.56423 1.15595 0
M  V30 17561 C 1607.83 2.94828 -2.06756 0
M  V30 17562 C 1607.68 2.70855 -3.59107 0
M  V30 17563 C 1609 3.95983 -1.92055 0
M  V30 17564 H 1606.12 0.588234 -0.444015 0
M  V30 17565 H 1608.76 0.999922 -1.6156 0
M  V30 17566 H 1606.91 3.47843 -1.73025 0
M  V30 17567 H 1608.59 2.24477 -4.02999 0
M  V30 17568 H 1606.83 2.05004 -3.82303 0
M  V30 17569 H 1607.5 3.65312 -4.13825 0
M  V30 17570 H 1609.98 3.52193 -2.21584 0
M  V30 17571 H 1608.85 4.86724 -2.53754 0
M  V30 17572 H 1609.11 4.33148 -0.885174 0
M  V30 17573 N 1608.17 1.14759 1.0802 0
M  V30 17574 C 1609.14 0.840859 2.13219 0
M  V30 17575 C 1610.14 -0.156309 1.60038 0
M  V30 17576 O 1611.33 0.0725143 1.74049 0
M  V30 17577 C 1608.46 0.254208 3.39951 0
M  V30 17578 H 1609.65 1.77323 2.4186 0
M  V30 17579 H 1607.2 0.954146 1.23797 0
M  V30 17580 H 1607.94 -0.686692 3.16946 0
M  V30 17581 H 1607.72 0.972499 3.79848 0
M  V30 17582 H 1609.21 0.0569551 4.17561 0
M  V30 17583 N 1609.65 -1.26251 0.943322 0
M  V30 17584 C 1610.9 -1.9327 0.590863 0
M  V30 17585 C 1611.22 -1.74356 -0.873212 0
M  V30 17586 O 1610.49 -1.10046 -1.6207 0
M  V30 17587 H 1609.07 -0.71523 0.215535 0
M  V30 17588 H 1611.73 -1.53647 1.19911 0
M  V30 17589 H 1610.83 -3.01393 0.810475 0
M  V30 17590 N 1611.13 -0.710588 -1.40671 0
M  V30 17591 C 1612.38 -0.244967 -2.00207 0
M  V30 17592 C 1612.69 1.16693 -1.56978 0
M  V30 17593 O 1613.9 1.73081 -2.09177 0
M  V30 17594 C 1612.35 -0.387049 -3.57813 0
M  V30 17595 C 1611.96 -1.80527 -4.10017 0
M  V30 17596 C 1613.71 0.0180338 -4.24496 0
M  V30 17597 C 1611.61 -1.89821 -5.60109 0
M  V30 17598 H 1610.54 -0.087831 -0.748867 0
M  V30 17599 H 1613.19 -0.880956 -1.6097 0
M  V30 17600 H 1611.58 0.317442 -3.94726 0
M  V30 17601 H 1612.75 -2.53974 -3.84492 0
M  V30 17602 H 1611.06 -2.16137 -3.55913 0
M  V30 17603 H 1613.66 -0.0307544 -5.34691 0
M  V30 17604 H 1614 1.05915 -4.02601 0
M  V30 17605 H 1614.54 -0.63672 -3.92671 0
M  V30 17606 H 1611.28 -2.92036 -5.86852 0
M  V30 17607 H 1610.8 -1.20779 -5.87514 0
M  V30 17608 H 1612.48 -1.66801 -6.25129 0
M  V30 17609 N 1612.61 1.50847 -0.456408 0
M  V30 17610 C 1613.55 2.28202 0.345341 0
M  V30 17611 C 1614.52 1.32611 1.00017 0
M  V30 17612 O 1615.71 1.61535 1.01543 0
M  V30 17613 C 1612.85 3.14087 1.42981 0
M  V30 17614 C 1611.96 4.24693 0.791217 0
M  V30 17615 C 1611.1 4.97857 1.85234 0
M  V30 17616 C 1610.14 6.00357 1.1932 0
M  V30 17617 N 1609.27 6.66856 2.19652 0
M  V30 17618 H 1614.11 2.9627 -0.320646 0
M  V30 17619 H 1611.65 1.46115 -0.169973 0
M  V30 17620 H 1613.61 3.62222 2.07006 0
M  V30 17621 H 1612.24 2.48095 2.06516 0
M  V30 17622 H 1611.29 3.8038 0.0387694 0
M  V30 17623 H 1612.6 4.98068 0.270177 0
M  V30 17624 H 1611.76 5.49636 2.56875 0
M  V30 17625 H 1610.5 4.24155 2.40715 0
M  V30 17626 H 1609.5 5.47853 0.462341 0
M  V30 17627 H 1610.73 6.76025 0.645473 0
M  V30 17628 H 1608.67 5.95955 2.74178 0
M  V30 17629 H 1608.59 7.36059 1.72492 0
M  V30 17630 H 1609.86 7.23259 2.90719 0
M  V30 17631 N 1614.09 0.188454 1.56469 0
M  V30 17632 C 1615.31 -0.457846 2.01771 0
M  V30 17633 C 1615.73 -1.55646 1.06863 0
M  V30 17634 O 1615.09 -1.82356 0.0723619 0
M  V30 17635 C 1615.14 -1.02032 3.46802 0
M  V30 17636 O 1614.86 0.0344536 4.38086 0
M  V30 17637 C 1616.36 -1.74316 4.07589 0
M  V30 17638 H 1613.58 -0.115594 0.660968 0
M  V30 17639 H 1616.12 0.295213 2.02358 0
M  V30 17640 H 1614.28 -1.7238 3.46935 0
M  V30 17641 H 1614.69 -0.383254 5.23098 0
M  V30 17642 H 1616.17 -2.08912 5.1094 0
M  V30 17643 H 1616.64 -2.64445 3.50665 0
M  V30 17644 H 1617.25 -1.0857 4.11209 0
M  V30 17645 N 1615.56 -1.5737 -0.0851874 0
M  V30 17646 C 1616.81 -1.87731 -0.782849 0
M  V30 17647 C 1617.16 -0.780518 -1.75857 0
M  V30 17648 O 1616.46 0.216586 -1.90372 0
M  V30 17649 C 1616.65 -3.22427 -1.54194 0
M  V30 17650 C 1616.48 -4.45105 -0.641234 0
M  V30 17651 C 1615.25 -5.04506 -0.28322 0
M  V30 17652 C 1617.45 -5.14269 0.0561642 0
M  V30 17653 N 1615.43 -6.10714 0.624609 0
M  V30 17654 C 1616.8 -6.14531 0.821684 0
M  V30 17655 C 1618.86 -4.97733 0.129045 0
M  V30 17656 C 1617.56 -7.00042 1.65329 0
M  V30 17657 C 1619.59 -5.83759 0.947583 0
M  V30 17658 C 1618.95 -6.83549 1.70119 0
M  V30 17659 H 1615.05 -0.73669 -0.262319 0
M  V30 17660 H 1617.63 -1.94648 -0.0449314 0
M  V30 17661 H 1615.8 -3.16543 -2.25066 0
M  V30 17662 H 1617.53 -3.40481 -2.18757 0
M  V30 17663 H 1614.29 -4.69349 -0.633099 0
M  V30 17664 H 1614.71 -6.68469 1.07137 0
M  V30 17665 H 1619.35 -4.20512 -0.439253 0
M  V30 17666 H 1617.07 -7.76647 2.23261 0
M  V30 17667 H 1620.66 -5.73023 1.00678 0
M  V30 17668 H 1619.54 -7.48961 2.32437 0
M  V30 17669 N 1617.04 0.356258 -1.53521 0
M  V30 17670 C 1618.29 1.09953 -1.70406 0
M  V30 17671 C 1618.62 1.8869 -0.459304 0
M  V30 17672 O 1617.9 1.86751 0.54354 0
M  V30 17673 C 1618.18 2.05114 -2.95973 0
M  V30 17674 C 1618.03 1.29924 -4.30627 0
M  V30 17675 C 1619.35 3.0511 -3.17168 0
M  V30 17676 H 1616.47 0.398343 -0.620074 0
M  V30 17677 H 1619.11 0.379376 -1.86174 0
M  V30 17678 H 1617.26 2.66524 -2.82661 0
M  V30 17679 H 1618.93 0.71226 -4.55768 0
M  V30 17680 H 1617.18 0.601141 -4.29615 0
M  V30 17681 H 1617.85 1.99624 -5.1464 0
M  V30 17682 H 1620.32 2.53809 -3.29728 0
M  V30 17683 H 1619.2 3.68908 -4.06445 0
M  V30 17684 H 1619.46 3.75794 -2.32876 0
M  V30 17685 N 1618.52 1.45038 0.616577 0
M  V30 17686 C 1619.45 1.49023 1.7414 0
M  V30 17687 C 1620.46 0.381965 1.58256 0
M  V30 17688 O 1621.65 0.648527 1.66302 0
M  V30 17689 C 1618.75 1.32233 3.12038 0
M  V30 17690 C 1617.93 2.5657 3.54246 0
M  V30 17691 C 1616.99 2.34468 4.71075 0
M  V30 17692 O 1616.01 3.08035 4.78647 0
M  V30 17693 N 1617.21 1.38454 5.63747 0
M  V30 17694 H 1619.98 2.45997 1.71189 0
M  V30 17695 H 1617.54 1.40663 0.80159 0
M  V30 17696 H 1619.53 1.15271 3.87936 0
M  V30 17697 H 1618.1 0.435685 3.09549 0
M  V30 17698 H 1617.32 2.88709 2.68404 0
M  V30 17699 H 1618.61 3.39239 3.79203 0
M  V30 17700 H 1618.01 0.777236 5.60335 0
M  V30 17701 H 1616.56 1.27467 6.39215 0
M  V30 17702 N 1620 -0.858287 1.32179 0
M  V30 17703 C 1621.23 -1.64473 1.25523 0
M  V30 17704 C 1621.64 -1.87964 -0.177425 0
M  V30 17705 O 1621 -1.44607 -1.11333 0
M  V30 17706 C 1621.05 -3.00609 2.0079 0
M  V30 17707 O 1620.77 -2.7816 3.38465 0
M  V30 17708 C 1622.27 -3.95054 2.01115 0
M  V30 17709 H 1619.49 -0.512393 0.433237 0
M  V30 17710 H 1622.03 -1.07048 1.74244 0
M  V30 17711 H 1620.19 -3.5469 1.55801 0
M  V30 17712 H 1620.6 -3.64712 3.76942 0
M  V30 17713 H 1622.08 -4.87854 2.58268 0
M  V30 17714 H 1622.55 -4.27746 0.996513 0
M  V30 17715 H 1623.16 -3.4691 2.46035 0
M  V30 17716 N 1621.48 -1.1533 -1.07409 0
M  V30 17717 C 1622.89 -0.895817 -1.32088 0
M  V30 17718 C 1623.09 0.457526 -1.96237 0
M  V30 17719 O 1622.15 1.19958 -2.22185 0
M  V30 17720 C 1623.46 -2.03632 -2.21256 0
M  V30 17721 C 1625.01 -2.07079 -2.34707 0
M  V30 17722 C 1625.48 -3.20451 -3.27223 0
M  V30 17723 N 1626.97 -3.20095 -3.34804 0
M  V30 17724 C 1627.71 -4.04458 -4.0645 0
M  V30 17725 N 1627.21 -4.98883 -4.80715 0
M  V30 17726 N 1629 -3.92483 -4.02385 0
M  V30 17727 H 1621.15 -2.02478 -0.641578 0
M  V30 17728 H 1623.41 -0.882864 -0.345332 0
M  V30 17729 H 1623.12 -3.0132 -1.81381 0
M  V30 17730 H 1622.99 -1.96817 -3.21781 0
M  V30 17731 H 1625.38 -1.09991 -2.73836 0
M  V30 17732 H 1625.46 -2.17962 -1.3389 0
M  V30 17733 H 1625.1 -4.17791 -2.88813 0
M  V30 17734 H 1625.03 -3.06805 -4.27993 0
M  V30 17735 H 1627.53 -2.51712 -2.81868 0
M  V30 17736 H 1627.84 -5.59698 -5.32877 0
M  V30 17737 H 1626.18 -5.02872 -4.79734 0
M  V30 17738 H 1629.37 -3.18026 -3.43478 0
M  V30 17739 H 1629.55 -4.58454 -4.57956 0
M  V30 17740 N 1622.95 1.25748 -0.950004 0
M  V30 17741 C 1623.88 2.28419 -0.484467 0
M  V30 17742 C 1624.86 1.63569 0.466813 0
M  V30 17743 O 1626.05 1.90705 0.366766 0
M  V30 17744 C 1623.18 3.46449 0.242916 0
M  V30 17745 C 1622.13 4.23447 -0.622657 0
M  V30 17746 C 1621.46 5.34182 0.235199 0
M  V30 17747 C 1622.76 4.86576 -1.89845 0
M  V30 17748 H 1624.45 2.6761 -1.34257 0
M  V30 17749 H 1622 1.28646 -0.647014 0
M  V30 17750 H 1623.95 4.17394 0.579693 0
M  V30 17751 H 1622.68 3.06235 1.13523 0
M  V30 17752 H 1621.34 3.54279 -0.942453 0
M  V30 17753 H 1620.98 4.90209 1.12713 0
M  V30 17754 H 1620.68 5.86612 -0.340609 0
M  V30 17755 H 1622.21 6.07961 0.567048 0
M  V30 17756 H 1623.62 5.49688 -1.62837 0
M  V30 17757 H 1622.02 5.49162 -2.41954 0
M  V30 17758 H 1623.09 4.09021 -2.60441 0
M  V30 17759 N 1624.43 0.718038 1.40292 0
M  V30 17760 C 1625.68 0.258092 2.00445 0
M  V30 17761 C 1626 -1.15347 1.57226 0
M  V30 17762 O 1625.27 -1.78241 0.812822 0
M  V30 17763 H 1623.85 0.0924316 0.741259 0
M  V30 17764 H 1626.51 0.924216 1.71593 0
M  V30 17765 H 1625.61 0.293113 3.10721 0
M  V30 17766 N 1625.91 -1.50602 0.464402 0
M  V30 17767 C 1627.19 -1.94992 -0.154146 0
M  V30 17768 C 1627.57 -1.40447 -1.57601 0
M  V30 17769 O 1626.92 -0.602668 -2.20409 0
M  V30 17770 C 1627.13 -3.48844 -0.104296 0
M  V30 17771 C 1628.47 -4.23563 -0.296506 0
M  V30 17772 O 1629.5 -3.55739 -0.181187 0
M  V30 17773 O 1628.36 -5.43937 -0.528668 0
M  V30 17774 H 1625.45 -0.818921 -0.115311 0
M  V30 17775 H 1628 -1.61397 0.524324 0
M  V30 17776 H 1626.77 -3.81075 0.88869 0
M  V30 17777 H 1626.39 -3.88957 -0.824514 0
M  V30 17778 N 1627.39 -0.19675 -1.56367 0
M  V30 17779 C 1628.62 0.446491 -2.01718 0
M  V30 17780 C 1629.03 1.55621 -1.07604 0
M  V30 17781 O 1628.37 1.83553 -0.0733943 0
M  V30 17782 C 1628.43 1.06182 -3.43461 0
M  V30 17783 C 1628.1 0.0906278 -4.5691 0
M  V30 17784 C 1629.09 -0.700599 -5.15158 0
M  V30 17785 C 1626.78 -0.0209341 -5.02296 0
M  V30 17786 C 1628.77 -1.59034 -6.17241 0
M  V30 17787 C 1626.46 -0.91423 -6.04223 0
M  V30 17788 C 1627.46 -1.6975 -6.61569 0
M  V30 17789 O 1627.14 -2.57582 -7.61516 0
M  V30 17790 H 1626.88 0.116254 -0.665929 0
M  V30 17791 H 1629.43 -0.303224 -2.03149 0
M  V30 17792 H 1627.66 1.86015 -3.39021 0
M  V30 17793 H 1629.35 1.60988 -3.72609 0
M  V30 17794 H 1630.12 -0.624723 -4.8096 0
M  V30 17795 H 1625.99 0.578557 -4.57355 0
M  V30 17796 H 1629.54 -2.20215 -6.6193 0
M  V30 17797 H 1625.44 -0.991215 -6.37844 0
M  V30 17798 H 1626.2 -2.5138 -7.78942 0
M  V30 17799 N 1628.87 1.57413 0.0768405 0
M  V30 17800 C 1629.8 2.00058 1.11845 0
M  V30 17801 C 1630.81 0.905783 1.35275 0
M  V30 17802 O 1632 1.18372 1.33605 0
M  V30 17803 C 1629.1 2.32002 2.47039 0
M  V30 17804 C 1628.27 3.63265 2.43634 0
M  V30 17805 C 1627.33 3.82937 3.60896 0
M  V30 17806 O 1626.36 4.54582 3.42555 0
M  V30 17807 N 1627.56 3.24904 4.81059 0
M  V30 17808 H 1630.33 2.90026 0.75533 0
M  V30 17809 H 1627.89 1.59707 0.265567 0
M  V30 17810 H 1629.88 2.4234 3.24119 0
M  V30 17811 H 1628.45 1.4795 2.75372 0
M  V30 17812 H 1627.67 3.63727 1.51974 0
M  V30 17813 H 1628.96 4.49462 2.38455 0
M  V30 17814 H 1628.35 2.66742 4.98864 0
M  V30 17815 H 1626.91 3.40699 5.55669 0
M  V30 17816 N 1630.34 -0.348112 1.53707 0
M  V30 17817 C 1631.57 -1.10903 1.74666 0
M  V30 17818 C 1631.99 -1.82499 0.483683 0
M  V30 17819 O 1631.34 -1.74191 -0.544419 0
M  V30 17820 C 1631.4 -2.12602 2.92374 0
M  V30 17821 O 1631.12 -1.43918 4.13787 0
M  V30 17822 C 1632.62 -3.01105 3.25347 0
M  V30 17823 H 1629.84 -0.330911 0.583728 0
M  V30 17824 H 1632.38 -0.401707 2.00516 0
M  V30 17825 H 1630.54 -2.78906 2.68869 0
M  V30 17826 H 1630.95 -2.11818 4.79826 0
M  V30 17827 H 1632.42 -3.68408 4.11071 0
M  V30 17828 H 1632.9 -3.66874 2.41455 0
M  V30 17829 H 1633.51 -2.40395 3.50842 0
M  V30 17830 N 1631.82 -1.45363 -0.608876 0
M  V30 17831 C 1632.75 -1.49944 -1.73348 0
M  V30 17832 C 1633.77 -0.390352 -1.58051 0
M  V30 17833 O 1634.96 -0.657338 -1.65956 0
M  V30 17834 C 1632.06 -1.33886 -3.11332 0
M  V30 17835 C 1631.23 -2.58445 -3.52881 0
M  V30 17836 C 1630.29 -2.36963 -4.69825 0
M  V30 17837 O 1629.31 -3.10569 -4.77007 0
M  V30 17838 N 1630.52 -1.41442 -5.63005 0
M  V30 17839 H 1633.28 -2.46902 -1.69882 0
M  V30 17840 H 1630.84 -1.41086 -0.794119 0
M  V30 17841 H 1632.83 -1.17327 -3.8732 0
M  V30 17842 H 1631.4 -0.452095 -3.09314 0
M  V30 17843 H 1630.62 -2.90129 -2.66869 0
M  V30 17844 H 1631.91 -3.41245 -3.77398 0
M  V30 17845 H 1631.31 -0.806941 -5.59915 0
M  V30 17846 H 1629.87 -1.30855 -6.3853 0
M  V30 17847 N 1633.3 0.851265 -1.32632 0
M  V30 17848 C 1634.23 1.97562 -1.24465 0
M  V30 17849 C 1635.21 1.69619 -0.127777 0
M  V30 17850 O 1636.4 1.9162 -0.315509 0
M  V30 17851 C 1633.53 3.33467 -0.970423 0
M  V30 17852 C 1632.48 3.75772 -2.0489 0
M  V30 17853 C 1631.81 5.09345 -1.62702 0
M  V30 17854 C 1633.11 3.90876 -3.4643 0
M  V30 17855 H 1634.8 2.04653 -2.18535 0
M  V30 17856 H 1632.35 0.983252 -1.05205 0
M  V30 17857 H 1634.3 4.11681 -0.899825 0
M  V30 17858 H 1633.02 3.26599 0.00591373 0
M  V30 17859 H 1631.68 2.99812 -2.1097 0
M  V30 17860 H 1631.33 4.98937 -0.638039 0
M  V30 17861 H 1631.03 5.38621 -2.34864 0
M  V30 17862 H 1632.55 5.90048 -1.57085 0
M  V30 17863 H 1633.97 4.59434 -3.42919 0
M  V30 17864 H 1632.37 4.31574 -4.1697 0
M  V30 17865 H 1633.44 2.93689 -3.85843 0
M  V30 17866 N 1634.78 1.15898 1.06796 0
M  V30 17867 C 1635.69 0.87507 2.17669 0
M  V30 17868 C 1636.7 -0.150763 1.73346 0
M  V30 17869 O 1637.88 0.0246621 2.01385 0
M  V30 17870 C 1634.95 0.374555 3.44671 0
M  V30 17871 C 1634.01 1.46498 4.0353 0
M  V30 17872 C 1633.24 0.988256 5.2447 0
M  V30 17873 O 1633.46 -0.163992 5.70164 0
M  V30 17874 O 1632.4 1.7744 5.75151 0
M  V30 17875 H 1636.22 1.80208 2.44456 0
M  V30 17876 H 1633.81 0.93854 1.1624 0
M  V30 17877 H 1635.69 0.102161 4.21276 0
M  V30 17878 H 1634.36 -0.524513 3.19422 0
M  V30 17879 H 1633.27 1.79105 3.28439 0
M  V30 17880 H 1634.6 2.33917 4.33063 0
M  V30 17881 N 1636.26 -1.25243 0.956659 0
M  V30 17882 C 1637.2 -2.25811 0.477292 0
M  V30 17883 C 1638.17 -1.59273 -0.471301 0
M  V30 17884 O 1639.36 -1.86894 -0.384105 0
M  V30 17885 C 1636.5 -3.44286 -0.236891 0
M  V30 17886 C 1635.61 -4.25454 0.749177 0
M  V30 17887 C 1634.75 -5.31199 0.012228 0
M  V30 17888 C 1633.79 -6.04056 0.989094 0
M  V30 17889 N 1632.92 -7.0153 0.282883 0
M  V30 17890 H 1637.76 -2.66185 1.33977 0
M  V30 17891 H 1635.3 -1.30862 0.671832 0
M  V30 17892 H 1637.26 -4.11825 -0.66755 0
M  V30 17893 H 1635.89 -3.04781 -1.06339 0
M  V30 17894 H 1634.94 -3.57558 1.29831 0
M  V30 17895 H 1636.25 -4.75883 1.49454 0
M  V30 17896 H 1635.41 -6.04822 -0.476968 0
M  V30 17897 H 1634.14 -4.81648 -0.76591 0
M  V30 17898 H 1633.15 -5.29245 1.48927 0
M  V30 17899 H 1634.37 -6.55695 1.76749 0
M  V30 17900 H 1632.32 -6.54267 -0.476479 0
M  V30 17901 H 1632.24 -7.49786 0.967304 0
M  V30 17902 H 1633.51 -7.79281 -0.184709 0
M  V30 17903 N 1637.73 -0.725468 -1.3991 0
M  V30 17904 C 1638.66 -0.094211 -2.3331 0
M  V30 17905 C 1639.65 0.734728 -1.53414 0
M  V30 17906 O 1640.83 0.681647 -1.81844 0
M  V30 17907 C 1637.96 0.820958 -3.37457 0
M  V30 17908 C 1636.91 0.0968983 -4.2789 0
M  V30 17909 C 1636.24 1.12845 -5.22657 0
M  V30 17910 C 1637.54 -1.05483 -5.11537 0
M  V30 17911 H 1639.23 -0.874365 -2.86348 0
M  V30 17912 H 1636.78 -0.421913 -1.3768 0
M  V30 17913 H 1638.73 1.27203 -4.01743 0
M  V30 17914 H 1637.46 1.63312 -2.82837 0
M  V30 17915 H 1636.12 -0.334454 -3.65071 0
M  V30 17916 H 1635.76 1.93392 -4.64337 0
M  V30 17917 H 1635.46 0.648805 -5.84007 0
M  V30 17918 H 1636.99 1.57942 -5.89819 0
M  V30 17919 H 1638.4 -0.682657 -5.69221 0
M  V30 17920 H 1636.8 -1.46349 -5.81981 0
M  V30 17921 H 1637.87 -1.88095 -4.46932 0
M  V30 17922 N 1639.21 1.50354 -0.472382 0
M  V30 17923 C 1640.44 2.07238 0.0820787 0
M  V30 17924 C 1640.86 1.3338 1.32632 0
M  V30 17925 O 1640.22 0.381857 1.77233 0
M  V30 17926 C 1640.27 3.58919 0.347746 0
M  V30 17927 O 1639.37 3.86888 1.42799 0
M  V30 17928 H 1638.71 0.663862 -0.0135544 0
M  V30 17929 H 1641.24 1.93533 -0.663795 0
M  V30 17930 H 1641.25 4.03743 0.587855 0
M  V30 17931 H 1639.93 4.12093 -0.56147 0
M  V30 17932 H 1638.51 3.53901 1.17509 0
M  V30 17933 N 1640.69 0.205039 1.56261 0
M  V30 17934 C 1641.64 -0.711828 2.19549 0
M  V30 17935 C 1642.61 -1.2025 1.14582 0
M  V30 17936 O 1643.79 -1.26459 1.42873 0
M  V30 17937 C 1640.93 -1.92152 2.86656 0
M  V30 17938 C 1640.05 -1.47129 4.06174 0
M  V30 17939 C 1639.18 -2.63726 4.6111 0
M  V30 17940 C 1638.22 -2.15357 5.72964 0
M  V30 17941 N 1637.36 -3.25167 6.22263 0
M  V30 17942 H 1642.2 -0.165392 2.97541 0
M  V30 17943 H 1639.73 -0.0698889 1.46934 0
M  V30 17944 H 1641.69 -2.63152 3.23739 0
M  V30 17945 H 1640.32 -2.4411 2.11211 0
M  V30 17946 H 1639.37 -0.656797 3.74687 0
M  V30 17947 H 1640.69 -1.0765 4.87045 0
M  V30 17948 H 1639.84 -3.42833 5.0055 0
M  V30 17949 H 1638.58 -3.06484 3.79367 0
M  V30 17950 H 1637.58 -1.34706 5.33043 0
M  V30 17951 H 1638.81 -1.73618 6.56532 0
M  V30 17952 H 1636.76 -3.67438 5.43439 0
M  V30 17953 H 1636.67 -2.89888 6.98213 0
M  V30 17954 H 1637.94 -4.0446 6.66358 0
M  V30 17955 N 1642.17 -1.57451 -0.0684915 0
M  V30 17956 C 1643.08 -2.07274 -1.09885 0
M  V30 17957 C 1644.1 -1.00295 -1.42186 0
M  V30 17958 O 1645.27 -1.31786 -1.52297 0
M  V30 17959 C 1642.34 -2.50949 -2.39219 0
M  V30 17960 C 1641.4 -3.7224 -2.13859 0
M  V30 17961 C 1640.63 -4.13823 -3.37026 0
M  V30 17962 O 1640.85 -3.55248 -4.46268 0
M  V30 17963 O 1639.79 -5.06587 -3.25044 0
M  V30 17964 H 1643.61 -2.9539 -0.705587 0
M  V30 17965 H 1641.2 -1.46698 -0.282849 0
M  V30 17966 H 1643.08 -2.79547 -3.15327 0
M  V30 17967 H 1641.76 -1.6596 -2.77919 0
M  V30 17968 H 1640.66 -3.4872 -1.35445 0
M  V30 17969 H 1642 -4.58091 -1.80038 0
M  V30 17970 N 1643.65 0.339955 -1.5389 0
M  V30 17971 C 1644.9 1.07723 -1.70524 0
M  V30 17972 C 1645.21 1.89693 -0.477058 0
M  V30 17973 O 1646.42 2.66387 -0.524424 0
M  V30 17974 C 1644.87 1.96455 -3.01551 0
M  V30 17975 C 1644.48 1.19675 -4.3172 0
M  V30 17976 C 1646.22 2.70019 -3.27552 0
M  V30 17977 C 1644.13 2.07458 -5.53819 0
M  V30 17978 H 1643.06 0.405877 -0.635437 0
M  V30 17979 H 1645.71 0.336489 -1.80388 0
M  V30 17980 H 1644.09 2.74364 -2.85553 0
M  V30 17981 H 1645.27 0.466526 -4.58432 0
M  V30 17982 H 1643.58 0.578651 -4.1236 0
M  V30 17983 H 1646.18 3.35973 -4.15964 0
M  V30 17984 H 1646.52 3.36779 -2.44716 0
M  V30 17985 H 1647.06 1.99182 -3.44342 0
M  V30 17986 H 1643.79 1.45234 -6.39208 0
M  V30 17987 H 1643.31 2.7826 -5.31349 0
M  V30 17988 H 1644.99 2.66428 -5.89598 0
M  V30 17989 N 1645.13 1.45684 0.601159 0
M  V30 17990 C 1646.09 1.54451 1.69344 0
M  V30 17991 C 1647.09 0.423379 1.55126 0
M  V30 17992 O 1648.28 0.687079 1.60078 0
M  V30 17993 C 1645.41 1.4472 3.08657 0
M  V30 17994 H 1646.6 2.51778 1.62935 0
M  V30 17995 H 1644.16 1.3322 0.81744 0
M  V30 17996 H 1644.89 0.486027 3.20637 0
M  V30 17997 H 1644.68 2.26045 3.20384 0
M  V30 17998 H 1646.17 1.53902 3.88206 0
M  V30 17999 N 1646.6 -0.84422 1.33082 0
M  V30 18000 C 1647.83 -1.63133 1.27261 0
M  V30 18001 C 1648.25 -1.88142 -0.157479 0
M  V30 18002 O 1647.6 -1.4578 -1.09793 0
M  V30 18003 C 1647.65 -2.98462 2.03967 0
M  V30 18004 O 1647.38 -2.74555 3.41396 0
M  V30 18005 C 1648.88 -3.92899 2.05293 0
M  V30 18006 H 1646.1 -0.507769 0.438647 0
M  V30 18007 H 1648.64 -1.05194 1.75369 0
M  V30 18008 H 1646.8 -3.53017 1.59554 0
M  V30 18009 H 1647.21 -3.60694 3.80789 0
M  V30 18010 H 1648.68 -4.85088 2.63427 0
M  V30 18011 H 1649.16 -4.26665 1.04183 0
M  V30 18012 H 1649.77 -3.44281 2.49701 0
M  V30 18013 N 1648.08 -1.16463 -1.0618 0
M  V30 18014 C 1649.01 -0.829995 -2.13644 0
M  V30 18015 C 1650.03 0.16326 -1.61979 0
M  V30 18016 O 1651.22 -0.0616575 -1.78393 0
M  V30 18017 C 1648.32 -0.215222 -3.38216 0
M  V30 18018 C 1647.49 -1.24886 -4.19192 0
M  V30 18019 C 1646.55 -0.653683 -5.22124 0
M  V30 18020 O 1645.57 -1.32285 -5.53615 0
M  V30 18021 N 1646.78 0.559031 -5.77802 0
M  V30 18022 H 1649.54 -1.75487 -2.42949 0
M  V30 18023 H 1647.1 -1.06212 -1.22191 0
M  V30 18024 H 1649.09 0.196005 -4.04225 0
M  V30 18025 H 1647.66 0.613229 -3.06526 0
M  V30 18026 H 1646.88 -1.83622 -3.48822 0
M  V30 18027 H 1648.17 -1.94639 -4.70099 0
M  V30 18028 H 1647.57 1.12083 -5.54485 0
M  V30 18029 H 1646.13 0.912453 -6.45382 0
M  V30 18030 N 1649.56 1.24734 -0.963288 0
M  V30 18031 C 1650.51 2.25555 -0.48926 0
M  V30 18032 C 1651.48 1.59521 0.462848 0
M  V30 18033 O 1652.66 1.87095 0.374188 0
M  V30 18034 C 1649.8 3.44407 0.218629 0
M  V30 18035 C 1648.91 4.25051 -0.77173 0
M  V30 18036 C 1648.05 5.31185 -0.0403986 0
M  V30 18037 C 1647.09 6.03523 -1.02112 0
M  V30 18038 N 1646.23 7.0137 -0.320083 0
M  V30 18039 H 1651.07 2.6547 -1.35386 0
M  V30 18040 H 1648.6 1.30504 -0.678762 0
M  V30 18041 H 1650.56 4.12173 0.645701 0
M  V30 18042 H 1649.19 3.05341 1.04722 0
M  V30 18043 H 1648.24 3.56865 -1.31726 0
M  V30 18044 H 1649.55 4.75084 -1.51976 0
M  V30 18045 H 1648.71 6.05067 0.444886 0
M  V30 18046 H 1647.45 4.82048 0.740356 0
M  V30 18047 H 1646.45 5.28448 -1.51732 0
M  V30 18048 H 1647.68 6.54749 -1.80224 0
M  V30 18049 H 1645.62 6.54511 0.441775 0
M  V30 18050 H 1645.54 7.49263 -1.00705 0
M  V30 18051 H 1646.81 7.79368 0.143379 0
M  V30 18052 N 1651.04 0.732878 1.39523 0
M  V30 18053 C 1652.26 0.288717 2.05381 0
M  V30 18054 C 1652.69 -1.06727 1.5489 0
M  V30 18055 O 1652.05 -1.67585 0.691726 0
M  V30 18056 C 1652.09 0.297738 3.59369 0
M  V30 18057 O 1651.2 -0.715335 4.06149 0
M  V30 18058 H 1650.54 0.131696 0.650809 0
M  V30 18059 H 1653.07 0.998206 1.78597 0
M  V30 18060 H 1653.08 0.141391 4.07755 0
M  V30 18061 H 1651.75 1.28719 3.9548 0
M  V30 18062 H 1650.33 -0.525298 3.69182 0
M  V30 18063 N 1652.52 -1.50101 0.480349 0
M  V30 18064 C 1653.93 -1.59028 0.135048 0
M  V30 18065 C 1654.13 -1.48763 -1.35911 0
M  V30 18066 O 1653.19 -1.35089 -2.13324 0
M  V30 18067 C 1654.5 -2.92594 0.693483 0
M  V30 18068 C 1656.05 -3.06011 0.657737 0
M  V30 18069 C 1656.52 -4.42166 1.19388 0
M  V30 18070 N 1658.01 -4.48603 1.15368 0
M  V30 18071 C 1658.75 -5.52363 1.53893 0
M  V30 18072 N 1658.25 -6.6333 1.99911 0
M  V30 18073 N 1660.04 -5.42959 1.45438 0
M  V30 18074 H 1652.19 -1.55017 1.45202 0
M  V30 18075 H 1654.45 -0.733118 0.601034 0
M  V30 18076 H 1654.16 -3.0561 1.74056 0
M  V30 18077 H 1654.03 -3.76932 0.142238 0
M  V30 18078 H 1656.42 -2.92637 -0.38045 0
M  V30 18079 H 1656.5 -2.23408 1.24589 0
M  V30 18080 H 1656.14 -4.5629 2.23074 0
M  V30 18081 H 1656.07 -5.23376 0.58185 0
M  V30 18082 H 1658.57 -3.68979 0.816271 0
M  V30 18083 H 1658.88 -7.38576 2.27431 0
M  V30 18084 H 1657.22 -6.64426 2.03871 0
M  V30 18085 H 1660.41 -4.55156 1.09321 0
M  V30 18086 H 1660.59 -6.23701 1.75786 0
M  V30 18087 N 1653.99 -0.213323 -1.5615 0
M  V30 18088 C 1654.92 0.695003 -2.22917 0
M  V30 18089 C 1655.9 1.20738 -1.19818 0
M  V30 18090 O 1657.09 1.25289 -1.48379 0
M  V30 18091 C 1654.22 1.90685 -2.9027 0
M  V30 18092 C 1653.17 1.52865 -3.9977 0
M  V30 18093 C 1652.5 2.81859 -4.54378 0
M  V30 18094 C 1653.8 0.724829 -5.17246 0
M  V30 18095 H 1655.49 0.138351 -2.9908 0
M  V30 18096 H 1653.04 0.0651029 -1.43853 0
M  V30 18097 H 1654.99 2.54766 -3.35667 0
M  V30 18098 H 1653.72 2.48833 -2.11541 0
M  V30 18099 H 1652.38 0.911336 -3.55092 0
M  V30 18100 H 1652.02 3.38135 -3.72389 0
M  V30 18101 H 1651.72 2.57291 -5.28275 0
M  V30 18102 H 1653.25 3.46897 -5.02489 0
M  V30 18103 H 1654.66 1.26915 -5.59076 0
M  V30 18104 H 1653.06 0.57656 -5.97324 0
M  V30 18105 H 1654.13 -0.270309 -4.84146 0
M  V30 18106 N 1655.47 1.57485 0.0601405 0
M  V30 18107 C 1656.7 1.92438 0.773466 0
M  V30 18108 C 1657.12 0.810755 1.6973 0
M  V30 18109 O 1656.48 -0.235697 1.79761 0
M  V30 18110 C 1656.53 3.26381 1.53323 0
M  V30 18111 O 1655.63 3.16436 2.64465 0
M  V30 18112 H 1654.97 0.629838 0.210239 0
M  V30 18113 H 1657.5 2.04585 0.0248981 0
M  V30 18114 H 1657.51 3.60534 1.90996 0
M  V30 18115 H 1656.19 4.07007 0.855468 0
M  V30 18116 H 1654.77 2.93862 2.29564 0
M  V30 18117 N 1656.95 -0.331789 1.54068 0
M  V30 18118 C 1657.86 -1.43116 1.8589 0
M  V30 18119 C 1658.88 -1.57003 0.75007 0
M  V30 18120 O 1660.05 -1.72256 1.04355 0
M  V30 18121 C 1657.12 -2.77945 2.07238 0
M  V30 18122 C 1656.18 -2.73303 3.31065 0
M  V30 18123 C 1655.41 -4.01702 3.51385 0
M  V30 18124 O 1655.63 -4.99562 2.75306 0
M  V30 18125 O 1654.57 -4.0546 4.44844 0
M  V30 18126 H 1658.39 -1.19137 2.79357 0
M  V30 18127 H 1655.98 -0.525057 1.3987 0
M  V30 18128 H 1657.86 -3.57774 2.22656 0
M  V30 18129 H 1656.54 -3.01831 1.16959 0
M  V30 18130 H 1655.44 -1.92054 3.21039 0
M  V30 18131 H 1656.78 -2.54371 4.21374 0
M  V30 18132 N 1658.43 -1.46001 -0.593424 0
M  V30 18133 C 1659.65 -1.54541 -1.38318 0
M  V30 18134 C 1660.08 -0.183555 -1.87202 0
M  V30 18135 O 1659.44 0.834407 -1.60958 0
M  V30 18136 C 1659.48 -2.54559 -2.55405 0
M  V30 18137 O 1658.59 -2.07321 -3.56499 0
M  V30 18138 H 1657.93 -0.520434 -0.412364 0
M  V30 18139 H 1660.46 -1.9148 -0.720862 0
M  V30 18140 H 1660.47 -2.73823 -3.02465 0
M  V30 18141 H 1659.14 -3.53461 -2.19176 0
M  V30 18142 H 1657.72 -1.97997 -3.15993 0
M  V30 18143 N 1659.91 0.83715 -1.33527 0
M  V30 18144 C 1660.84 1.95423 -1.1976 0
M  V30 18145 C 1661.85 1.62295 -0.128147 0
M  V30 18146 O 1663.04 1.74436 -0.378725 0
M  V30 18147 C 1660.14 3.2896 -0.814775 0
M  V30 18148 C 1659.31 3.9021 -1.97623 0
M  V30 18149 C 1658.37 5.02104 -1.5741 0
M  V30 18150 O 1657.4 5.2116 -2.28868 0
M  V30 18151 N 1658.6 5.78511 -0.480081 0
M  V30 18152 H 1661.37 2.0777 -2.15991 0
M  V30 18153 H 1658.93 1.01297 -1.26295 0
M  V30 18154 H 1660.92 4.01243 -0.527823 0
M  V30 18155 H 1659.49 3.12548 0.0569031 0
M  V30 18156 H 1658.71 3.10495 -2.42871 0
M  V30 18157 H 1660 4.27865 -2.75334 0
M  V30 18158 H 1659.39 5.65585 0.114287 0
M  V30 18159 H 1657.95 6.5131 -0.252808 0
M  V30 18160 N 1661.38 1.17024 1.05561 0
M  V30 18161 C 1662.29 0.898107 2.16728 0
M  V30 18162 C 1663.31 -0.132369 1.73496 0
M  V30 18163 O 1664.49 0.0460203 2.01347 0
M  V30 18164 C 1661.55 0.411091 3.44254 0
M  V30 18165 C 1660.61 1.5077 4.01954 0
M  V30 18166 C 1659.85 1.04383 5.23393 0
M  V30 18167 O 1660.07 -0.10351 5.70306 0
M  V30 18168 O 1659 1.8353 5.73237 0
M  V30 18169 H 1662.83 1.82791 2.42531 0
M  V30 18170 H 1660.41 0.950816 1.15238 0
M  V30 18171 H 1662.3 0.146837 4.21144 0
M  V30 18172 H 1660.97 -0.490605 3.19961 0
M  V30 18173 H 1659.88 1.82579 3.26521 0
M  V30 18174 H 1661.21 2.38497 4.30558 0
M  V30 18175 N 1662.86 -1.24221 0.969889 0
M  V30 18176 C 1663.81 -2.25292 0.501215 0
M  V30 18177 C 1664.78 -1.59764 -0.454382 0
M  V30 18178 O 1665.96 -1.87291 -0.364261 0
M  V30 18179 C 1663.1 -3.44518 -0.200361 0
M  V30 18180 C 1662.22 -4.24636 0.79426 0
M  V30 18181 C 1661.35 -5.31156 0.068568 0
M  V30 18182 C 1660.39 -6.02973 1.05311 0
M  V30 18183 N 1659.53 -7.0119 0.357274 0
M  V30 18184 H 1664.37 -2.64749 1.36792 0
M  V30 18185 H 1661.91 -1.30142 0.685673 0
M  V30 18186 H 1663.86 -4.1251 -0.623833 0
M  V30 18187 H 1662.49 -3.05892 -1.03101 0
M  V30 18188 H 1661.55 -3.56161 1.33616 0
M  V30 18189 H 1662.86 -4.74271 1.54493 0
M  V30 18190 H 1662.01 -6.05294 -0.412792 0
M  V30 18191 H 1660.75 -4.82434 -0.714781 0
M  V30 18192 H 1659.76 -5.27636 1.54532 0
M  V30 18193 H 1660.98 -6.53784 1.83694 0
M  V30 18194 H 1658.93 -6.54736 -0.407059 0
M  V30 18195 H 1658.84 -7.48718 1.04677 0
M  V30 18196 H 1660.11 -7.79433 -0.102045 0
M  V30 18197 N 1664.34 -0.740267 -1.39132 0
M  V30 18198 C 1665.3 -0.112183 -2.28925 0
M  V30 18199 C 1666.3 0.661598 -1.46559 0
M  V30 18200 O 1667.49 0.489835 -1.67171 0
M  V30 18201 C 1664.63 0.850121 -3.3013 0
M  V30 18202 H 1665.82 -0.903339 -2.85972 0
M  V30 18203 H 1663.37 -0.506427 -1.47868 0
M  V30 18204 H 1664.11 1.66744 -2.78149 0
M  V30 18205 H 1663.89 0.297847 -3.90967 0
M  V30 18206 H 1665.38 1.28599 -3.97306 0
M  V30 18207 N 1665.82 1.49844 -0.488302 0
M  V30 18208 C 1666.78 2.27412 0.285706 0
M  V30 18209 C 1667.78 1.32897 0.905261 0
M  V30 18210 O 1668.97 1.56171 0.771763 0
M  V30 18211 C 1666.1 3.10435 1.40864 0
M  V30 18212 H 1667.3 2.9729 -0.394782 0
M  V30 18213 H 1664.85 1.54401 -0.242873 0
M  V30 18214 H 1665.58 2.45094 2.12367 0
M  V30 18215 H 1665.37 3.79913 0.969991 0
M  V30 18216 H 1666.86 3.69054 1.95419 0
M  V30 18217 N 1667.3 0.221601 1.56034 0
M  V30 18218 C 1668.24 -0.704963 2.2166 0
M  V30 18219 C 1669.24 -1.19966 1.19601 0
M  V30 18220 O 1670.44 -1.15949 1.37681 0
M  V30 18221 H 1666.82 -0.245758 0.710709 0
M  V30 18222 H 1668.79 -0.128041 2.98125 0
M  V30 18223 C 1667.54 -1.90234 2.91043 0
M  V30 18224 H 1666.86 -1.53079 3.69333 0
M  V30 18225 H 1668.3 -2.52844 3.40361 0
M  V30 18226 C 1666.76 -2.75777 1.93516 0
M  V30 18227 O 1667.29 -3.74534 1.45214 0
M  V30 18228 N 1665.5 -2.41815 1.61165 0
M  V30 18229 H 1665.04 -1.61561 2.00639 0
M  V30 18230 H 1665 -2.9933 0.96172 0
M  V30 18231 N 1668.77 -1.57515 -0.0517878 0
M  V30 18232 C 1669.7 -2.0809 -1.05929 0
M  V30 18233 C 1670.69 -0.978529 -1.39136 0
M  V30 18234 O 1671.87 -1.25245 -1.48416 0
M  V30 18235 C 1669 -2.54147 -2.36699 0
M  V30 18236 C 1667.95 -3.68442 -2.17794 0
M  V30 18237 C 1667.28 -4.00624 -3.54125 0
M  V30 18238 C 1668.58 -4.97743 -1.5827 0
M  V30 18239 H 1670.27 -2.92515 -0.638371 0
M  V30 18240 H 1667.82 -1.40719 -0.305625 0
M  V30 18241 H 1669.77 -2.88145 -3.07491 0
M  V30 18242 H 1668.5 -1.66775 -2.80809 0
M  V30 18243 H 1667.16 -3.34758 -1.4944 0
M  V30 18244 H 1666.8 -3.10353 -3.95841 0
M  V30 18245 H 1666.5 -4.77597 -3.42308 0
M  V30 18246 H 1668.03 -4.37136 -4.26315 0
M  V30 18247 H 1669.44 -5.29843 -2.18951 0
M  V30 18248 H 1667.84 -5.79173 -1.57094 0
M  V30 18249 H 1668.91 -4.81815 -0.546127 0
M  V30 18250 N 1670.25 0.323614 -1.54242 0
M  V30 18251 C 1671.2 1.39826 -1.83623 0
M  V30 18252 C 1672.17 1.51393 -0.683331 0
M  V30 18253 O 1673.36 1.66614 -0.929754 0
M  V30 18254 C 1670.5 2.76187 -2.06918 0
M  V30 18255 C 1669.61 2.73251 -3.34601 0
M  V30 18256 C 1668.74 4.01458 -3.47857 0
M  V30 18257 C 1667.78 3.9283 -4.69415 0
M  V30 18258 N 1666.92 5.12767 -4.79598 0
M  V30 18259 H 1671.76 1.1407 -2.75303 0
M  V30 18260 H 1669.3 0.552188 -1.36343 0
M  V30 18261 H 1671.25 3.55458 -2.18416 0
M  V30 18262 H 1669.88 3.00251 -1.18529 0
M  V30 18263 H 1668.94 1.85971 -3.31842 0
M  V30 18264 H 1670.25 2.62759 -4.2398 0
M  V30 18265 H 1669.4 4.89161 -3.58897 0
M  V30 18266 H 1668.14 4.14757 -2.5657 0
M  V30 18267 H 1667.15 3.03512 -4.58433 0
M  V30 18268 H 1668.37 3.81097 -5.62087 0
M  V30 18269 H 1666.32 5.26572 -3.91227 0
M  V30 18270 H 1666.23 5.0461 -5.62943 0
M  V30 18271 H 1667.5 6.02184 -4.94969 0
M  V30 18272 N 1671.73 1.46313 0.585673 0
M  V30 18273 C 1672.68 1.56653 1.69495 0
M  V30 18274 C 1673.65 0.411007 1.60935 0
M  V30 18275 O 1674.83 0.627369 1.80191 0
M  V30 18276 C 1671.97 1.55996 3.0783 0
M  V30 18277 C 1671.09 2.82261 3.27036 0
M  V30 18278 C 1670.22 2.73129 4.55603 0
M  V30 18279 C 1669.26 3.94346 4.68143 0
M  V30 18280 N 1668.4 3.83617 5.88032 0
M  V30 18281 H 1673.24 2.51407 1.59995 0
M  V30 18282 H 1670.77 1.24729 0.779821 0
M  V30 18283 H 1672.73 1.53602 3.87895 0
M  V30 18284 H 1671.36 0.647766 3.16234 0
M  V30 18285 H 1670.41 2.94648 2.40596 0
M  V30 18286 H 1671.73 3.72107 3.32171 0
M  V30 18287 H 1670.88 2.68823 5.43893 0
M  V30 18288 H 1669.62 1.80917 4.52902 0
M  V30 18289 H 1668.62 3.98987 3.78272 0
M  V30 18290 H 1669.85 4.8765 4.72625 0
M  V30 18291 H 1667.8 2.9419 5.86334 0
M  V30 18292 H 1667.71 4.67117 5.94422 0
M  V30 18293 H 1668.98 3.83281 6.7876 0
M  V30 18294 N 1673.21 -0.830057 1.33969 0
M  V30 18295 C 1674.49 -1.57112 1.16513 0
M  V30 18296 C 1674.87 -2.09429 -0.265075 0
M  V30 18297 O 1674.21 -1.90263 -1.26539 0
M  V30 18298 C 1674.42 -2.69808 2.2137 0
M  V30 18299 C 1675.77 -3.38761 2.55981 0
M  V30 18300 O 1676.8 -2.80058 2.20104 0
M  V30 18301 O 1675.66 -4.44753 3.1758 0
M  V30 18302 H 1672.75 -0.693066 0.451207 0
M  V30 18303 H 1675.3 -0.872048 1.4558 0
M  V30 18304 H 1674.07 -2.28852 3.17399 0
M  V30 18305 H 1673.69 -3.47372 1.93439 0
M  V30 18306 N 1674.69 -1.17582 -1.04939 0
M  V30 18307 C 1675.62 -0.918221 -2.14688 0
M  V30 18308 C 1676.6 0.140757 -1.69517 0
M  V30 18309 O 1677.78 -0.0100118 -1.94197 0
M  V30 18310 C 1674.91 -0.433531 -3.44584 0
M  V30 18311 C 1673.87 -1.43199 -4.03334 0
M  V30 18312 C 1673.19 -0.805154 -5.28603 0
M  V30 18313 C 1674.49 -2.80598 -4.40525 0
M  V30 18314 H 1676.19 -1.83604 -2.36495 0
M  V30 18315 H 1673.73 -0.884202 -1.13657 0
M  V30 18316 H 1675.69 -0.240722 -4.20712 0
M  V30 18317 H 1674.41 0.519832 -3.22437 0
M  V30 18318 H 1673.07 -1.61158 -3.29277 0
M  V30 18319 H 1672.72 0.155124 -5.02761 0
M  V30 18320 H 1672.42 -1.4717 -5.68871 0
M  V30 18321 H 1673.94 -0.622677 -6.07417 0
M  V30 18322 H 1675.36 -2.66341 -5.07676 0
M  V30 18323 H 1673.75 -3.43854 -4.91817 0
M  V30 18324 H 1674.82 -3.34815 -3.50752 0
M  V30 18325 N 1676.17 1.23705 -0.976463 0
M  V30 18326 C 1677.13 2.23257 -0.518533 0
M  V30 18327 C 1678.13 1.56006 0.3897 0
M  V30 18328 O 1679.32 1.73226 0.18394 0
M  V30 18329 C 1676.45 3.39997 0.247916 0
M  V30 18330 H 1677.64 2.65284 -1.39872 0
M  V30 18331 H 1675.2 1.3647 -0.761946 0
M  V30 18332 H 1675.93 3.03421 1.14482 0
M  V30 18333 H 1675.72 3.90013 -0.403975 0
M  V30 18334 H 1677.21 4.13868 0.557034 0
M  V30 18335 N 1677.64 0.747635 1.38738 0
M  V30 18336 C 1678.55 0.117879 2.34304 0
M  V30 18337 C 1679.57 -0.707488 1.58967 0
M  V30 18338 O 1680.75 -0.633025 1.91193 0
M  V30 18339 C 1677.81 -0.769223 3.38059 0
M  V30 18340 C 1676.87 0.0698358 4.29243 0
M  V30 18341 C 1676.1 -0.775021 5.28043 0
M  V30 18342 O 1676.33 -2.01328 5.33688 0
M  V30 18343 O 1675.26 -0.196978 6.01578 0
M  V30 18344 H 1679.09 0.906972 2.89841 0
M  V30 18345 H 1676.67 0.508453 1.40482 0
M  V30 18346 H 1678.55 -1.27641 4.01604 0
M  V30 18347 H 1677.23 -1.53691 2.84887 0
M  V30 18348 H 1676.14 0.622836 3.68879 0
M  V30 18349 H 1677.47 0.80004 4.85654 0
M  V30 18350 N 1679.12 -1.49583 0.496242 0
M  V30 18351 C 1680.05 -2.25783 -0.331257 0
M  V30 18352 C 1681.03 -1.3016 -0.974526 0
M  V30 18353 O 1682.22 -1.59439 -1.00556 0
M  V30 18354 C 1679.34 -3.05323 -1.46614 0
M  V30 18355 C 1678.39 -4.16064 -0.937722 0
M  V30 18356 S 1679.22 -5.35237 0.167715 0
M  V30 18357 C 1680.38 -6.18331 -0.970443 0
M  V30 18358 H 1680.61 -2.95621 0.315507 0
M  V30 18359 H 1678.14 -1.51813 0.28147 0
M  V30 18360 H 1680.1 -3.51735 -2.11642 0
M  V30 18361 H 1678.76 -2.34963 -2.0845 0
M  V30 18362 H 1677.96 -4.71215 -1.78808 0
M  V30 18363 H 1677.56 -3.72217 -0.364726 0
M  V30 18364 H 1679.85 -6.50988 -1.87671 0
M  V30 18365 H 1680.79 -7.0662 -0.457649 0
M  V30 18366 H 1681.2 -5.50811 -1.23563 0
M  V30 18367 N 1680.6 -0.229873 -1.55915 0
M  V30 18368 C 1681.53 0.70927 -2.1795 0
M  V30 18369 C 1682.54 1.15142 -1.15092 0
M  V30 18370 O 1683.73 1.08114 -1.42034 0
M  V30 18371 C 1680.83 1.97359 -2.75504 0
M  V30 18372 C 1680.01 1.68565 -4.03614 0
M  V30 18373 C 1679.07 2.79786 -4.45652 0
M  V30 18374 O 1678.09 2.479 -5.12381 0
M  V30 18375 N 1679.29 4.08921 -4.12024 0
M  V30 18376 H 1682.06 0.178573 -2.99168 0
M  V30 18377 H 1679.62 -0.0491789 -1.61825 0
M  V30 18378 H 1681.61 2.70972 -3.00593 0
M  V30 18379 H 1680.18 2.41454 -1.98542 0
M  V30 18380 H 1679.4 0.785547 -3.86294 0
M  V30 18381 H 1680.69 1.46769 -4.87172 0
M  V30 18382 H 1680.09 4.37667 -3.58419 0
M  V30 18383 H 1678.64 4.79052 -4.41987 0
M  V30 18384 N 1682.08 1.5754 0.0434337 0
M  V30 18385 C 1682.99 2.08996 1.06574 0
M  V30 18386 C 1684 1.02544 1.40573 0
M  V30 18387 O 1685.18 1.34192 1.50181 0
M  V30 18388 C 1682.24 2.54723 2.35196 0
M  V30 18389 C 1681.31 3.75595 2.0791 0
M  V30 18390 C 1680.54 4.19132 3.304 0
M  V30 18391 O 1680.76 3.62303 4.40559 0
M  V30 18392 O 1679.7 5.11694 3.16944 0
M  V30 18393 H 1683.52 2.96475 0.658503 0
M  V30 18394 H 1681.11 1.47129 0.259475 0
M  V30 18395 H 1682.99 2.84529 3.1084 0
M  V30 18396 H 1681.66 1.70361 2.75243 0
M  V30 18397 H 1680.57 3.5083 1.2988 0
M  V30 18398 H 1681.9 4.60897 1.72727 0
M  V30 18399 N 1683.56 -0.31543 1.54411 0
M  V30 18400 C 1684.8 -1.05012 1.74195 0
M  V30 18401 C 1685.16 -1.85415 0.513728 0
M  V30 18402 O 1684.45 -1.85125 -0.493881 0
M  V30 18403 C 1684.64 -1.99884 2.96279 0
M  V30 18404 C 1684.47 -1.28811 4.30857 0
M  V30 18405 C 1683.24 -1.02124 4.94873 0
M  V30 18406 C 1685.44 -0.699875 5.09516 0
M  V30 18407 N 1683.42 -0.279269 6.13264 0
M  V30 18408 C 1684.79 -0.0899378 6.19935 0
M  V30 18409 C 1686.85 -0.603494 4.94229 0
M  V30 18410 C 1685.55 0.607038 7.16734 0
M  V30 18411 C 1687.58 0.0797975 5.91346 0
M  V30 18412 C 1686.94 0.678645 7.01123 0
M  V30 18413 H 1683.04 -0.367689 0.690166 0
M  V30 18414 H 1685.62 -0.33037 1.91877 0
M  V30 18415 H 1683.79 -2.69123 2.80049 0
M  V30 18416 H 1685.53 -2.66398 3.04654 0
M  V30 18417 H 1682.28 -1.31568 4.54958 0
M  V30 18418 H 1682.7 0.0778086 6.76955 0
M  V30 18419 H 1687.35 -1.05219 4.09498 0
M  V30 18420 H 1685.06 1.06755 8.01017 0
M  V30 18421 H 1688.65 0.154121 5.81596 0
M  V30 18422 H 1687.53 1.19897 7.7498 0
M  V30 18423 N 1685.03 -1.46622 -0.577906 0
M  V30 18424 C 1685.97 -1.52068 -1.70148 0
M  V30 18425 C 1686.95 -0.374405 -1.58231 0
M  V30 18426 O 1688.13 -0.579245 -1.79379 0
M  V30 18427 C 1685.26 -1.40377 -3.0824 0
M  V30 18428 C 1684.3 -2.59247 -3.38664 0
M  V30 18429 S 1685.14 -4.21576 -3.30203 0
M  V30 18430 C 1686.29 -4.12401 -4.70825 0
M  V30 18431 H 1686.52 -2.4713 -1.6527 0
M  V30 18432 H 1684.06 -1.34567 -0.757045 0
M  V30 18433 H 1686.02 -1.34318 -3.87903 0
M  V30 18434 H 1684.68 -0.467354 -3.10604 0
M  V30 18435 H 1683.87 -2.47073 -4.39285 0
M  V30 18436 H 1683.47 -2.6232 -2.66579 0
M  V30 18437 H 1685.76 -3.79378 -5.61319 0
M  V30 18438 H 1686.71 -5.13037 -4.88056 0
M  V30 18439 H 1687.11 -3.43578 -4.479 0
M  V30 18440 N 1686.51 0.822941 -1.34408 0
M  V30 18441 C 1687.74 1.61087 -1.2984 0
M  V30 18442 C 1688.16 1.88369 0.127527 0
M  V30 18443 O 1687.51 1.47508 1.0746 0
M  V30 18444 C 1687.56 2.9518 -2.08689 0
M  V30 18445 O 1687.28 2.69089 -3.45721 0
M  V30 18446 C 1688.79 3.89583 -2.11518 0
M  V30 18447 H 1686.01 0.500726 -0.44667 0
M  V30 18448 H 1688.55 1.02391 -1.77021 0
M  V30 18449 H 1686.7 3.50434 -1.6515 0
M  V30 18450 H 1687.12 3.5459 -3.86479 0
M  V30 18451 H 1688.59 4.80835 -2.71111 0
M  V30 18452 H 1689.07 4.24953 -1.10957 0
M  V30 18453 H 1689.68 3.40265 -2.55146 0
M  V30 18454 N 1687.99 1.18137 1.04314 0
M  V30 18455 C 1688.92 0.863879 2.12296 0
M  V30 18456 C 1689.94 -0.137469 1.62219 0
M  V30 18457 O 1691.12 0.0900306 1.78273 0
M  V30 18458 C 1688.22 0.269002 3.37831 0
M  V30 18459 C 1687.4 1.3154 4.17152 0
M  V30 18460 C 1686.46 0.736666 5.21018 0
M  V30 18461 O 1685.48 1.41075 5.5144 0
M  V30 18462 N 1686.68 -0.467037 5.78618 0
M  V30 18463 H 1689.45 1.7933 2.40127 0
M  V30 18464 H 1687.01 1.08142 1.20486 0
M  V30 18465 H 1689 -0.131671 4.04486 0
M  V30 18466 H 1687.57 -0.564386 3.07463 0
M  V30 18467 H 1686.79 1.89148 3.45856 0
M  V30 18468 H 1688.08 2.02093 4.66943 0
M  V30 18469 H 1687.48 -1.03247 5.56198 0
M  V30 18470 H 1686.04 -0.809663 6.46752 0
M  V30 18471 N 1689.47 -1.23186 0.98301 0
M  V30 18472 C 1690.43 -2.22979 0.530366 0
M  V30 18473 C 1691.43 -1.56211 -0.381421 0
M  V30 18474 O 1692.62 -1.73321 -0.17475 0
M  V30 18475 C 1689.75 -3.40124 -0.229882 0
M  V30 18476 H 1690.95 -2.64539 1.41277 0
M  V30 18477 H 1688.5 -1.36064 0.769172 0
M  V30 18478 H 1689.23 -3.04024 -1.12871 0
M  V30 18479 H 1689.02 -3.89794 0.424653 0
M  V30 18480 H 1690.51 -4.14158 -0.535078 0
M  V30 18481 N 1690.95 -0.754982 -1.38339 0
M  V30 18482 C 1691.86 -0.130303 -2.34238 0
M  V30 18483 C 1692.87 0.699048 -1.5934 0
M  V30 18484 O 1694.05 0.622876 -1.91526 0
M  V30 18485 C 1691.11 0.751285 -3.38462 0
M  V30 18486 C 1690.17 -0.0925987 -4.292 0
M  V30 18487 C 1689.41 0.747007 -5.28446 0
M  V30 18488 O 1689.63 1.98495 -5.34749 0
M  V30 18489 O 1688.56 0.165072 -6.01674 0
M  V30 18490 H 1692.39 -0.92233 -2.89356 0
M  V30 18491 H 1689.98 -0.515896 -1.4021 0
M  V30 18492 H 1691.86 1.2551 -4.02275 0
M  V30 18493 H 1690.53 1.52178 -2.85698 0
M  V30 18494 H 1689.44 -0.64239 -3.68543 0
M  V30 18495 H 1690.77 -0.825784 -4.85223 0
M  V30 18496 N 1692.42 1.49318 -0.504168 0
M  V30 18497 C 1693.33 2.32958 0.277053 0
M  V30 18498 C 1694.35 1.44838 0.964266 0
M  V30 18499 O 1695.53 1.77856 0.944947 0
M  V30 18500 C 1692.59 3.20352 1.32572 0
M  V30 18501 C 1691.65 4.24326 0.651606 0
M  V30 18502 C 1690.89 5.07544 1.65031 0
M  V30 18503 O 1691.11 4.92326 2.88047 0
M  V30 18504 O 1690.04 5.89737 1.20388 0
M  V30 18505 H 1693.87 3.00952 -0.40763 0
M  V30 18506 H 1691.45 1.47023 -0.265453 0
M  V30 18507 H 1693.34 3.74483 1.93237 0
M  V30 18508 H 1692.01 2.5505 1.99327 0
M  V30 18509 H 1690.92 3.741 0.00513384 0
M  V30 18510 H 1692.25 4.92193 0.0264424 0
M  V30 18511 N 1693.9 0.238138 1.5579 0
M  V30 18512 C 1694.81 -0.676049 2.24648 0
M  V30 18513 C 1695.83 -1.20038 1.25964 0
M  V30 18514 O 1697 -1.2385 1.58818 0
M  V30 18515 C 1694.07 -1.86014 2.92574 0
M  V30 18516 C 1693.13 -1.37615 4.06646 0
M  V30 18517 C 1692.36 -2.5038 4.71323 0
M  V30 18518 O 1692.59 -3.68906 4.35045 0
M  V30 18519 O 1691.52 -2.20636 5.60003 0
M  V30 18520 H 1695.35 -0.119372 3.03465 0
M  V30 18521 H 1692.93 0.00699789 1.49398 0
M  V30 18522 H 1694.81 -2.55132 3.35389 0
M  V30 18523 H 1693.49 -2.4046 2.16704 0
M  V30 18524 H 1692.4 -0.652503 3.68366 0
M  V30 18525 H 1693.73 -0.877871 4.84308 0
M  V30 18526 N 1695.38 -1.57561 -0.0350783 0
M  V30 18527 C 1696.61 -1.92971 -0.737958 0
M  V30 18528 C 1697.02 -0.835771 -1.6974 0
M  V30 18529 O 1696.36 0.19703 -1.8264 0
M  V30 18530 C 1696.42 -3.24138 -1.55482 0
M  V30 18531 C 1696.09 -4.50622 -0.760818 0
M  V30 18532 C 1697.08 -5.19861 -0.0637364 0
M  V30 18533 C 1694.77 -4.97154 -0.717134 0
M  V30 18534 C 1696.76 -6.33907 0.666395 0
M  V30 18535 C 1694.45 -6.11098 0.0167462 0
M  V30 18536 C 1695.45 -6.79328 0.707276 0
M  V30 18537 O 1695.14 -7.91093 1.42925 0
M  V30 18538 H 1694.87 -0.641628 -0.212814 0
M  V30 18539 H 1697.42 -2.054 0.00152065 0
M  V30 18540 H 1695.65 -3.08019 -2.33798 0
M  V30 18541 H 1697.34 -3.44919 -2.13976 0
M  V30 18542 H 1698.11 -4.84919 -0.0885544 0
M  V30 18543 H 1693.99 -4.43895 -1.24411 0
M  V30 18544 H 1697.53 -6.87098 1.20592 0
M  V30 18545 H 1693.43 -6.45485 0.0435085 0
M  V30 18546 H 1694.2 -8.07418 1.34231 0
M  V30 18547 N 1696.86 0.307236 -1.54576 0
M  V30 18548 C 1697.79 1.38357 -1.88095 0
M  V30 18549 C 1698.77 1.53196 -0.739253 0
M  V30 18550 O 1699.95 1.66807 -0.99444 0
M  V30 18551 C 1697.08 2.74876 -2.12274 0
M  V30 18552 C 1696.04 2.74809 -3.28122 0
M  V30 18553 C 1695.36 4.14557 -3.37707 0
M  V30 18554 C 1696.66 2.37103 -4.65381 0
M  V30 18555 H 1698.36 1.10554 -2.78241 0
M  V30 18556 H 1695.9 0.530383 -1.33877 0
M  V30 18557 H 1697.86 3.50254 -2.34308 0
M  V30 18558 H 1696.58 3.04191 -1.18893 0
M  V30 18559 H 1695.24 2.01887 -3.06002 0
M  V30 18560 H 1694.89 4.41039 -2.41854 0
M  V30 18561 H 1694.59 4.15415 -4.15577 0
M  V30 18562 H 1696.11 4.91724 -3.61994 0
M  V30 18563 H 1697.53 3.02196 -4.87186 0
M  V30 18564 H 1695.92 2.49184 -5.45919 0
M  V30 18565 H 1696.99 1.32235 -4.66521 0
M  V30 18566 N 1698.34 1.46926 0.570122 0
M  V30 18567 C 1699.25 1.6105 1.70587 0
M  V30 18568 C 1700.26 0.493636 1.66851 0
M  V30 18569 O 1701.44 0.759454 1.86532 0
M  V30 18570 C 1698.5 1.60913 3.07096 0
M  V30 18571 C 1697.56 2.83928 3.21999 0
M  V30 18572 C 1696.8 2.83788 4.51996 0
M  V30 18573 O 1697.02 1.93256 5.36664 0
M  V30 18574 O 1695.95 3.75491 4.70415 0
M  V30 18575 H 1699.78 2.57126 1.61616 0
M  V30 18576 H 1697.37 1.29863 0.738637 0
M  V30 18577 H 1699.25 1.63576 3.88356 0
M  V30 18578 H 1697.92 0.680005 3.16477 0
M  V30 18579 H 1696.83 2.86814 2.40185 0
M  V30 18580 H 1698.16 3.76091 3.17516 0
M  V30 18581 N 1699.82 -0.815801 1.34842 0
M  V30 18582 C 1701.23 -1.10999 1.1468 0
M  V30 18583 C 1701.43 -2.01445 -0.0469339 0
M  V30 18584 O 1700.49 -2.42007 -0.720322 0
M  V30 18585 C 1701.8 -1.74984 2.44543 0
M  V30 18586 C 1703.35 -1.87447 2.50665 0
M  V30 18587 C 1703.82 -2.54848 3.80548 0
M  V30 18588 N 1705.31 -2.62341 3.81748 0
M  V30 18589 C 1706.05 -3.15239 4.7897 0
M  V30 18590 N 1705.55 -3.68646 5.86577 0
M  V30 18591 N 1707.34 -3.13706 4.66417 0
M  V30 18592 H 1699.49 -0.214351 2.11316 0
M  V30 18593 H 1701.75 -0.157666 0.934797 0
M  V30 18594 H 1701.46 -1.1599 3.32023 0
M  V30 18595 H 1701.33 -2.7478 2.5841 0
M  V30 18596 H 1703.72 -2.45587 1.63619 0
M  V30 18597 H 1703.8 -0.865325 2.40719 0
M  V30 18598 H 1703.44 -1.9736 4.67987 0
M  V30 18599 H 1703.37 -3.5628 3.87778 0
M  V30 18600 H 1705.87 -2.24493 3.03992 0
M  V30 18601 H 1706.18 -4.07281 6.56766 0
M  V30 18602 H 1704.52 -3.6687 5.90281 0
M  V30 18603 H 1707.71 -2.71255 3.81495 0
M  V30 18604 H 1707.89 -3.54626 5.4235 0
M  V30 18605 N 1701.29 -1.18689 -1.03686 0
M  V30 18606 C 1702.57 -0.89414 -1.73967 0
M  V30 18607 C 1702.95 0.602104 -2.02331 0
M  V30 18608 O 1702.3 1.55794 -1.67154 0
M  V30 18609 C 1702.51 -1.74549 -3.02214 0
M  V30 18610 C 1703.86 -1.97487 -3.75878 0
M  V30 18611 O 1704.88 -1.71634 -3.12122 0
M  V30 18612 O 1703.74 -2.41031 -4.90476 0
M  V30 18613 H 1700.83 -0.332501 -0.757213 0
M  V30 18614 H 1703.38 -1.29461 -1.09717 0
M  V30 18615 H 1702.15 -2.75961 -2.77419 0
M  V30 18616 H 1701.77 -1.34378 -3.74204 0
M  V30 18617 N 1702.77 1.22662 -0.989529 0
M  V30 18618 C 1704.02 1.91322 -0.663497 0
M  V30 18619 C 1704.35 1.77102 0.804057 0
M  V30 18620 O 1703.6 1.13169 1.5966 0
M  V30 18621 C 1703.9 3.428 -1.01109 0
M  V30 18622 C 1703.57 3.77206 -2.47035 0
M  V30 18623 C 1702.23 3.86308 -2.86914 0
M  V30 18624 C 1704.58 3.93617 -3.41636 0
M  V30 18625 C 1701.91 4.09255 -4.20389 0
M  V30 18626 C 1704.26 4.18067 -4.74766 0
M  V30 18627 C 1702.92 4.25392 -5.14391 0
M  V30 18628 H 1702.19 0.700095 -0.242791 0
M  V30 18629 H 1704.84 1.45498 -1.24509 0
M  V30 18630 H 1703.15 3.90256 -0.347533 0
M  V30 18631 H 1704.84 3.94171 -0.736909 0
M  V30 18632 H 1701.43 3.70702 -2.15123 0
M  V30 18633 H 1705.62 3.85966 -3.12 0
M  V30 18634 H 1700.87 4.13152 -4.50683 0
M  V30 18635 H 1705.05 4.29708 -5.48018 0
M  V30 18636 H 1702.67 4.42926 -6.17835 0
M  V30 18637 N 1704.25 0.762308 1.37937 0
M  V30 18638 C 1705.16 0.142724 2.34165 0
M  V30 18639 C 1706.18 -0.690588 1.59709 0
M  V30 18640 O 1707.35 -0.61271 1.91854 0
M  V30 18641 C 1704.42 -0.733325 3.38856 0
M  V30 18642 C 1703.48 0.115359 4.29145 0
M  V30 18643 C 1702.71 -0.718972 5.28835 0
M  V30 18644 O 1702.93 -1.95656 5.35794 0
M  V30 18645 O 1701.87 -0.133162 6.01753 0
M  V30 18646 H 1705.69 0.937662 2.88863 0
M  V30 18647 H 1703.28 0.523325 1.39935 0
M  V30 18648 H 1705.16 -1.23374 4.02935 0
M  V30 18649 H 1703.84 -1.50661 2.86501 0
M  V30 18650 H 1702.74 0.661926 3.68197 0
M  V30 18651 H 1704.08 0.851505 4.84779 0
M  V30 18652 N 1705.73 -1.49049 0.51208 0
M  V30 18653 C 1706.96 -2.06585 -0.024934 0
M  V30 18654 C 1707.37 -1.3713 -1.30353 0
M  V30 18655 O 1706.71 -0.446872 -1.78182 0
M  V30 18656 C 1706.77 -3.57911 -0.33768 0
M  V30 18657 C 1706.43 -4.49123 0.844817 0
M  V30 18658 C 1707.43 -4.89977 1.73836 0
M  V30 18659 C 1705.12 -4.91272 1.04675 0
M  V30 18660 C 1707.11 -5.71728 2.8179 0
M  V30 18661 C 1704.8 -5.72798 2.12946 0
M  V30 18662 C 1705.8 -6.12932 3.01337 0
M  V30 18663 O 1705.48 -6.92825 4.07737 0
M  V30 18664 H 1705.22 -0.675633 0.0222573 0
M  V30 18665 H 1707.77 -1.92669 0.711891 0
M  V30 18666 H 1706 -3.69875 -1.12825 0
M  V30 18667 H 1707.69 -3.97641 -0.814628 0
M  V30 18668 H 1708.45 -4.5805 1.59421 0
M  V30 18669 H 1704.33 -4.59528 0.368089 0
M  V30 18670 H 1707.88 -6.02974 3.50811 0
M  V30 18671 H 1703.77 -6.04137 2.27351 0
M  V30 18672 H 1704.54 -7.1115 4.05226 0
M  V30 18673 N 1707.21 -0.246397 -1.55662 0
M  V30 18674 C 1708.15 0.653368 -2.21359 0
M  V30 18675 C 1709.12 1.1717 -1.1773 0
M  V30 18676 O 1710.31 1.22626 -1.46176 0
M  V30 18677 C 1707.45 1.84484 -2.9165 0
M  V30 18678 C 1706.56 1.36308 -4.09932 0
M  V30 18679 C 1705.7 2.51407 -4.6794 0
M  V30 18680 C 1704.73 2.0009 -5.78472 0
M  V30 18681 N 1703.87 3.08555 -6.30665 0
M  V30 18682 H 1708.71 0.0864458 -2.97875 0
M  V30 18683 H 1706.25 0.0309074 -1.47068 0
M  V30 18684 H 1708.21 2.54476 -3.30602 0
M  V30 18685 H 1706.84 2.38425 -2.17609 0
M  V30 18686 H 1705.89 0.557224 -3.76297 0
M  V30 18687 H 1707.2 0.946988 -4.89728 0
M  V30 18688 H 1706.35 3.29442 -5.09463 0
M  V30 18689 H 1705.09 2.96318 -3.87359 0
M  V30 18690 H 1704.1 1.20526 -5.36427 0
M  V30 18691 H 1705.32 1.5615 -6.60904 0
M  V30 18692 H 1703.27 3.529 -5.52989 0
M  V30 18693 H 1703.19 2.71274 -7.05653 0
M  V30 18694 H 1704.45 3.8665 -6.76847 0
M  V30 18695 N 1708.68 1.57577 0.026722 0
M  V30 18696 C 1709.91 1.94035 0.732473 0
M  V30 18697 C 1710.33 0.846575 1.67972 0
M  V30 18698 O 1709.69 -0.197514 1.80221 0
M  V30 18699 C 1709.74 3.2956 1.46365 0
M  V30 18700 O 1708.84 3.21975 2.57694 0
M  V30 18701 H 1708.18 0.634155 0.196832 0
M  V30 18702 H 1710.71 2.04592 -0.018503 0
M  V30 18703 H 1710.72 3.64504 1.83305 0
M  V30 18704 H 1709.4 4.0873 0.768943 0
M  V30 18705 H 1707.98 2.98665 2.23279 0
M  V30 18706 N 1710.16 -0.299034 1.54737 0
M  V30 18707 C 1711.57 -0.871897 1.6509 0
M  V30 18708 C 1711.92 -1.88013 0.560843 0
M  V30 18709 O 1711.05 -2.1428 -0.302194 0
M  V30 18710 C 1711.64 -1.5882 2.99269 0
M  V30 18711 C 1710.2 -2.10944 3.11736 0
M  V30 18712 C 1709.35 -0.942776 2.60782 0
M  V30 18713 H 1712.3 -0.0759883 1.58518 0
M  V30 18714 H 1712.32 -2.45387 2.90802 0
M  V30 18715 H 1711.83 -0.854144 3.78584 0
M  V30 18716 H 1709.93 -2.87391 2.37144 0
M  V30 18717 H 1710.05 -2.34262 4.17921 0
M  V30 18718 H 1708.41 -1.3289 2.17284 0
M  V30 18719 H 1709.19 -0.222646 3.42577 0
M  V30 18720 N 1711.64 -1.47227 -0.562322 0
M  V30 18721 C 1712.55 -1.61953 -1.69731 0
M  V30 18722 C 1713.57 -0.502478 -1.66587 0
M  V30 18723 O 1714.74 -0.769335 -1.86127 0
M  V30 18724 C 1711.81 -1.62539 -3.06238 0
M  V30 18725 C 1710.87 -2.85632 -3.20489 0
M  V30 18726 C 1710.1 -2.86181 -4.50485 0
M  V30 18727 O 1710.32 -1.96099 -5.35632 0
M  V30 18728 O 1709.26 -3.7798 -4.68417 0
M  V30 18729 H 1713.08 -2.5798 -1.6025 0
M  V30 18730 H 1710.67 -1.30253 -0.73174 0
M  V30 18731 H 1712.55 -1.65634 -3.87483 0
M  V30 18732 H 1711.23 -0.696779 -3.16112 0
M  V30 18733 H 1710.13 -2.88084 -2.3866 0
M  V30 18734 H 1711.47 -3.7777 -3.15517 0
M  V30 18735 N 1713.12 0.808639 -1.35273 0
M  V30 18736 C 1714.03 1.95198 -1.30134 0
M  V30 18737 C 1715.04 1.72769 -0.206587 0
M  V30 18738 O 1716.22 1.96633 -0.4356 0
M  V30 18739 C 1713.28 3.29747 -1.07087 0
M  V30 18740 C 1712.35 3.65086 -2.25855 0
M  V30 18741 C 1711.58 4.93215 -2.03898 0
M  V30 18742 O 1711.8 5.61487 -1.00439 0
M  V30 18743 O 1710.74 5.26765 -2.91208 0
M  V30 18744 H 1714.56 2.0248 -2.26353 0
M  V30 18745 H 1712.15 0.946124 -1.15624 0
M  V30 18746 H 1714.03 4.10302 -0.960734 0
M  V30 18747 H 1712.7 3.23401 -0.139177 0
M  V30 18748 H 1711.61 2.84917 -2.42432 0
M  V30 18749 H 1712.94 3.76135 -3.17464 0
M  V30 18750 N 1714.6 1.19237 1.03055 0
M  V30 18751 C 1715.53 0.95226 2.132 0
M  V30 18752 C 1716.51 -0.113771 1.69719 0
M  V30 18753 O 1717.69 0.0409057 1.94157 0
M  V30 18754 C 1714.82 0.488296 3.4385 0
M  V30 18755 C 1713.78 1.49597 4.01005 0
M  V30 18756 C 1713.1 0.889148 5.27255 0
M  V30 18757 C 1714.4 2.87571 4.36005 0
M  V30 18758 H 1716.1 1.87343 2.33544 0
M  V30 18759 H 1713.64 0.902172 1.12236 0
M  V30 18760 H 1715.6 0.307623 4.20276 0
M  V30 18761 H 1714.32 -0.468469 3.23223 0
M  V30 18762 H 1712.98 1.66376 3.26672 0
M  V30 18763 H 1712.63 -0.0751191 5.02944 0
M  V30 18764 H 1712.33 1.56202 5.66458 0
M  V30 18765 H 1713.85 0.719233 6.06349 0
M  V30 18766 H 1715.26 2.74384 5.03375 0
M  V30 18767 H 1713.66 3.51635 4.86285 0
M  V30 18768 H 1714.73 3.40353 3.45381 0
M  V30 18769 N 1716.07 -1.22136 0.99602 0
M  V30 18770 C 1716.98 -2.27869 0.557927 0
M  V30 18771 C 1718 -1.69462 -0.394781 0
M  V30 18772 O 1719.18 -1.99704 -0.26084 0
M  V30 18773 C 1716.24 -3.46501 -0.117434 0
M  V30 18774 C 1715.3 -4.20213 0.878627 0
M  V30 18775 C 1714.54 -5.33181 0.2354 0
M  V30 18776 O 1714.76 -5.62093 -0.969954 0
M  V30 18777 O 1713.69 -5.94486 0.941828 0
M  V30 18778 H 1717.52 -2.67517 1.43765 0
M  V30 18779 H 1715.1 -1.28362 0.764428 0
M  V30 18780 H 1716.99 -4.18476 -0.49559 0
M  V30 18781 H 1715.66 -3.08772 -0.971674 0
M  V30 18782 H 1714.57 -3.50497 1.30777 0
M  V30 18783 H 1715.9 -4.6183 1.70217 0
M  V30 18784 N 1717.55 -0.769612 -1.37531 0
M  V30 18785 C 1718.78 -0.343069 -2.04543 0
M  V30 18786 C 1719.2 1.02583 -1.57665 0
M  V30 18787 O 1718.56 1.65692 -0.735915 0
M  V30 18788 C 1718.61 -0.392914 -3.58453 0
M  V30 18789 O 1717.71 0.607401 -4.07902 0
M  V30 18790 H 1717.05 -0.148905 -0.647088 0
M  V30 18791 H 1719.58 -1.04521 -1.75888 0
M  V30 18792 H 1719.59 -0.24945 -4.07237 0
M  V30 18793 H 1718.27 -1.39159 -3.91928 0
M  V30 18794 H 1716.85 0.427231 -3.70445 0
M  V30 18795 N 1719.03 1.48775 -0.519977 0
M  V30 18796 C 1719.99 2.27967 0.237405 0
M  V30 18797 C 1720.99 1.34787 0.876868 0
M  V30 18798 O 1722.18 1.57773 0.738463 0
M  V30 18799 C 1719.32 3.13353 1.34248 0
M  V30 18800 H 1720.51 2.96386 -0.457753 0
M  V30 18801 H 1718.06 1.53852 -0.275569 0
M  V30 18802 H 1718.8 2.49543 2.0712 0
M  V30 18803 H 1718.58 3.81885 0.889187 0
M  V30 18804 H 1720.07 3.73116 1.87547 0
M  V30 18805 N 1720.51 0.254649 1.55529 0
M  V30 18806 C 1721.75 -0.368477 1.99424 0
M  V30 18807 C 1722.09 -1.57023 1.14269 0
M  V30 18808 O 1721.36 -1.93386 0.207886 0
M  V30 18809 C 1721.65 -0.77076 3.51755 0
M  V30 18810 C 1721.5 0.436923 4.47673 0
M  V30 18811 C 1722.82 -1.61487 4.09402 0
M  V30 18812 H 1719.94 -0.132459 0.724999 0
M  V30 18813 H 1722.58 0.357508 1.86606 0
M  V30 18814 H 1720.73 -1.38932 3.62809 0
M  V30 18815 H 1722.4 1.07541 4.4859 0
M  V30 18816 H 1720.64 1.07866 4.20175 0
M  V30 18817 H 1721.31 0.111996 5.51886 0
M  V30 18818 H 1723.79 -1.09265 4.01498 0
M  V30 18819 H 1722.67 -1.86519 5.16238 0
M  V30 18820 H 1722.93 -2.58926 3.58343 0
M  V30 18821 N 1721.99 -1.57589 -0.0183649 0
M  V30 18822 C 1722.9 -2.10665 -1.03235 0
M  V30 18823 C 1723.91 -1.04767 -1.38924 0
M  V30 18824 O 1725.09 -1.36565 -1.48027 0
M  V30 18825 C 1722.15 -2.58432 -2.31114 0
M  V30 18826 C 1721.21 -3.78856 -2.01908 0
M  V30 18827 C 1720.45 -4.24335 -3.2369 0
M  V30 18828 O 1720.67 -3.69266 -4.3474 0
M  V30 18829 O 1719.6 -5.16671 -3.08763 0
M  V30 18830 H 1723.43 -2.97485 -0.611254 0
M  V30 18831 H 1721.02 -1.47524 -0.236035 0
M  V30 18832 H 1722.9 -2.89438 -3.06274 0
M  V30 18833 H 1721.57 -1.74718 -2.72498 0
M  V30 18834 H 1720.48 -3.52852 -1.24282 0
M  V30 18835 H 1721.81 -4.63587 -1.65373 0
M  V30 18836 N 1723.46 0.290824 -1.54893 0
M  V30 18837 C 1724.37 1.38137 -1.89619 0
M  V30 18838 C 1725.39 1.54959 -0.791432 0
M  V30 18839 O 1726.57 1.69428 -1.08885 0
M  V30 18840 C 1723.63 2.72353 -2.14534 0
M  V30 18841 C 1722.69 2.64429 -3.38195 0
M  V30 18842 C 1721.93 3.92244 -3.61912 0
M  V30 18843 O 1722.15 4.92088 -2.88454 0
M  V30 18844 O 1721.08 3.93523 -4.55438 0
M  V30 18845 H 1724.91 1.11688 -2.82417 0
M  V30 18846 H 1722.49 0.487789 -1.41213 0
M  V30 18847 H 1724.38 3.51745 -2.32064 0
M  V30 18848 H 1723.05 2.98624 -1.24921 0
M  V30 18849 H 1721.96 1.83474 -3.26018 0
M  V30 18850 H 1723.29 2.43109 -4.2797 0
M  V30 18851 N 1724.94 1.47523 0.554506 0
M  V30 18852 C 1725.88 1.54756 1.67707 0
M  V30 18853 C 1726.85 0.39953 1.57615 0
M  V30 18854 O 1728.04 0.60771 1.78435 0
M  V30 18855 C 1725.16 1.45263 3.05968 0
M  V30 18856 C 1724.21 2.64602 3.34497 0
M  V30 18857 S 1725.04 4.26775 3.23455 0
M  V30 18858 C 1726.2 4.19839 4.64204 0
M  V30 18859 H 1726.43 2.49728 1.61318 0
M  V30 18860 H 1723.97 1.35754 0.735541 0
M  V30 18861 H 1725.92 1.40473 3.85717 0
M  V30 18862 H 1724.58 0.516709 3.09821 0
M  V30 18863 H 1723.78 2.5403 4.35298 0
M  V30 18864 H 1723.38 2.66528 2.62372 0
M  V30 18865 H 1725.67 3.8826 5.55212 0
M  V30 18866 H 1726.61 5.20736 4.79833 0
M  V30 18867 H 1727.02 3.5066 4.42378 0
M  V30 18868 N 1726.42 -0.801453 1.357 0
M  V30 18869 C 1727.37 -1.91355 1.29043 0
M  V30 18870 C 1728.34 -1.65314 0.161381 0
M  V30 18871 O 1729.52 -1.87638 0.345928 0
M  V30 18872 C 1726.66 -3.27979 1.07348 0
M  V30 18873 C 1725.78 -3.66172 2.29221 0
M  V30 18874 C 1724.91 -4.91853 2.00635 0
M  V30 18875 C 1723.95 -5.22688 3.18533 0
M  V30 18876 N 1723.09 -6.3955 2.8969 0
M  V30 18877 H 1727.93 -1.96381 2.24139 0
M  V30 18878 H 1725.46 -0.960502 1.11413 0
M  V30 18879 H 1727.42 -4.06748 0.928002 0
M  V30 18880 H 1726.05 -3.22408 0.159115 0
M  V30 18881 H 1725.1 -2.82623 2.54615 0
M  V30 18882 H 1726.42 -3.84916 3.1724 0
M  V30 18883 H 1725.57 -5.78459 1.82947 0
M  V30 18884 H 1724.31 -4.75154 1.09908 0
M  V30 18885 H 1723.31 -4.34569 3.36793 0
M  V30 18886 H 1724.54 -5.41313 4.10069 0
M  V30 18887 H 1722.48 -6.24266 2.01562 0
M  V30 18888 H 1722.4 -6.58569 3.71245 0
M  V30 18889 H 1723.67 -7.29171 2.75555 0
M  V30 18890 N 1727.9 -1.19782 -1.02421 0
M  V30 18891 C 1729.31 -0.951034 -1.2817 0
M  V30 18892 C 1729.51 0.373883 -1.98001 0
M  V30 18893 O 1728.57 1.10427 -2.27073 0
M  V30 18894 C 1729.88 -2.12833 -2.12421 0
M  V30 18895 C 1731.43 -2.16847 -2.25713 0
M  V30 18896 C 1731.91 -3.34041 -3.13337 0
M  V30 18897 N 1733.4 -3.34007 -3.20926 0
M  V30 18898 C 1734.13 -4.21333 -3.88929 0
M  V30 18899 N 1733.63 -5.18823 -4.59123 0
M  V30 18900 N 1735.42 -4.09197 -3.85376 0
M  V30 18901 H 1727.57 -2.05017 -0.555122 0
M  V30 18902 H 1729.84 -0.896717 -0.307576 0
M  V30 18903 H 1729.54 -3.08742 -1.68437 0
M  V30 18904 H 1729.42 -2.10288 -3.13143 0
M  V30 18905 H 1731.8 -1.21506 -2.68924 0
M  V30 18906 H 1731.88 -2.23444 -1.24525 0
M  V30 18907 H 1731.53 -4.29665 -2.70833 0
M  V30 18908 H 1731.46 -3.24682 -4.14595 0
M  V30 18909 H 1733.95 -2.63441 -2.70938 0
M  V30 18910 H 1734.26 -5.81796 -5.08658 0
M  V30 18911 H 1732.61 -5.22767 -4.57973 0
M  V30 18912 H 1735.8 -3.32308 -3.2968 0
M  V30 18913 H 1735.97 -4.77465 -4.38099 0
M  V30 18914 N 1729.38 1.21606 -1.00248 0
M  V30 18915 C 1730.34 2.22107 -0.565772 0
M  V30 18916 C 1731.34 1.56798 0.356521 0
M  V30 18917 O 1732.53 1.73577 0.147154 0
M  V30 18918 C 1729.66 3.40447 0.175742 0
M  V30 18919 H 1730.86 2.62258 -1.45468 0
M  V30 18920 H 1728.41 1.34823 -0.790721 0
M  V30 18921 H 1729.14 3.05781 1.0802 0
M  V30 18922 H 1728.93 3.89069 -0.486612 0
M  V30 18923 H 1730.42 4.14957 0.469122 0
M  V30 18924 N 1730.86 0.776895 1.37121 0
M  V30 18925 C 1731.8 0.164838 2.30211 0
M  V30 18926 C 1732.77 -0.684137 1.51356 0
M  V30 18927 O 1733.96 -0.635428 1.79908 0
M  V30 18928 C 1731.1 -0.704263 3.37837 0
M  V30 18929 C 1730.21 0.161881 4.31697 0
M  V30 18930 C 1729.35 -0.712411 5.26401 0
M  V30 18931 C 1728.38 0.155953 6.11901 0
M  V30 18932 N 1727.52 -0.676607 6.98832 0
M  V30 18933 H 1732.36 0.964185 2.81971 0
M  V30 18934 H 1729.9 0.487065 1.38802 0
M  V30 18935 H 1731.86 -1.22302 3.98871 0
M  V30 18936 H 1730.49 -1.46916 2.87429 0
M  V30 18937 H 1729.54 0.798491 3.71925 0
M  V30 18938 H 1730.85 0.831496 4.91821 0
M  V30 18939 H 1730 -1.29745 5.92664 0
M  V30 18940 H 1728.74 -1.41569 4.66701 0
M  V30 18941 H 1727.75 0.753493 5.44612 0
M  V30 18942 H 1728.97 0.856645 6.73675 0
M  V30 18943 H 1726.92 -1.36441 6.41654 0
M  V30 18944 H 1726.84 -0.0644017 7.55973 0
M  V30 18945 H 1728.1 -1.24588 7.69479 0
M  V30 18946 N 1732.33 -1.48497 0.527859 0
M  V30 18947 C 1733.24 -2.3337 -0.239957 0
M  V30 18948 C 1734.26 -1.46353 -0.941101 0
M  V30 18949 O 1735.44 -1.79337 -0.916532 0
M  V30 18950 C 1732.5 -3.22421 -1.27458 0
M  V30 18951 C 1731.56 -4.25309 -0.584017 0
M  V30 18952 C 1730.79 -5.10105 -1.56935 0
M  V30 18953 O 1731.02 -4.96846 -2.80178 0
M  V30 18954 O 1729.95 -5.91578 -1.10991 0
M  V30 18955 H 1733.78 -3.00265 0.455458 0
M  V30 18956 H 1731.36 -1.46582 0.288809 0
M  V30 18957 H 1733.24 -3.7751 -1.87254 0
M  V30 18958 H 1731.92 -2.58189 -1.95244 0
M  V30 18959 H 1730.83 -3.7406 0.0543828 0
M  V30 18960 H 1732.16 -4.92173 0.0518646 0
M  V30 18961 N 1733.81 -0.262893 -1.55392 0
M  V30 18962 C 1735.09 0.408525 -1.91286 0
M  V30 18963 C 1735.47 1.74657 -1.18566 0
M  V30 18964 O 1734.82 2.26409 -0.308422 0
M  V30 18965 C 1735.03 0.560865 -3.44464 0
M  V30 18966 C 1736.37 0.849401 -4.16017 0
M  V30 18967 O 1737.4 0.646134 -3.50291 0
M  V30 18968 O 1736.26 1.23741 -5.32307 0
M  V30 18969 H 1733.35 0.221707 -0.796728 0
M  V30 18970 H 1735.9 -0.308143 -1.66879 0
M  V30 18971 H 1734.67 -0.381279 -3.89438 0
M  V30 18972 H 1734.29 1.32747 -3.74785 0
M  V30 18973 N 1735.29 1.57597 0.0100073 0
M  V30 18974 C 1736.54 1.90411 0.697968 0
M  V30 18975 C 1736.87 0.862924 1.73975 0
M  V30 18976 O 1736.14 -0.119646 1.94132 0
M  V30 18977 C 1736.43 3.33828 1.35022 0
M  V30 18978 C 1736.28 4.48656 0.320659 0
M  V30 18979 C 1737.6 3.7649 2.27911 0
M  V30 18980 H 1734.72 0.692482 0.252266 0
M  V30 18981 H 1737.36 1.89959 -0.0392325 0
M  V30 18982 H 1735.51 3.34343 1.97856 0
M  V30 18983 H 1737.18 4.60276 -0.30723 0
M  V30 18984 H 1735.42 4.32319 -0.358128 0
M  V30 18985 H 1736.1 5.45937 0.815891 0
M  V30 18986 H 1738.57 3.77463 1.75104 0
M  V30 18987 H 1737.45 4.77609 2.70519 0
M  V30 18988 H 1737.71 3.09801 3.15398 0
M  V30 18989 N 1736.77 -0.282606 1.55045 0
M  V30 18990 C 1737.7 -1.35347 1.90272 0
M  V30 18991 C 1738.68 -1.52001 0.763532 0
M  V30 18992 O 1739.86 -1.65204 1.02085 0
M  V30 18993 C 1736.99 -2.71464 2.16621 0
M  V30 18994 C 1735.95 -2.69554 3.32453 0
M  V30 18995 C 1735.27 -4.09132 3.4426 0
M  V30 18996 C 1736.57 -2.29669 4.69094 0
M  V30 18997 H 1738.27 -1.06113 2.79965 0
M  V30 18998 H 1735.81 -0.509018 1.34703 0
M  V30 18999 H 1737.77 -3.46482 2.39851 0
M  V30 19000 H 1736.49 -3.02261 1.23717 0
M  V30 19001 H 1735.15 -1.96993 3.09175 0
M  V30 19002 H 1734.8 -4.37136 2.4884 0
M  V30 19003 H 1734.5 -4.08751 4.22133 0
M  V30 19004 H 1736.02 -4.85903 3.69771 0
M  V30 19005 H 1737.44 -2.94407 4.91932 0
M  V30 19006 H 1735.83 -2.40467 5.49814 0
M  V30 19007 H 1736.9 -1.24796 4.68566 0
M  V30 19008 N 1738.25 -1.47815 -0.546675 0
M  V30 19009 C 1739.18 -1.57161 -1.66832 0
M  V30 19010 C 1740.19 -0.457035 -1.56253 0
M  V30 19011 O 1741.38 -0.727134 -1.63018 0
M  V30 19012 C 1738.48 -1.4697 -3.05374 0
M  V30 19013 C 1737.65 -2.7318 -3.41602 0
M  V30 19014 C 1736.71 -2.56676 -4.59351 0
M  V30 19015 O 1735.74 -3.30521 -4.63405 0
M  V30 19016 N 1736.94 -1.65194 -5.56499 0
M  V30 19017 H 1739.7 -2.53885 -1.59257 0
M  V30 19018 H 1737.27 -1.44328 -0.733565 0
M  V30 19019 H 1739.26 -1.33649 -3.81995 0
M  V30 19020 H 1737.83 -0.582878 -3.07118 0
M  V30 19021 H 1737.05 -3.01186 -2.54323 0
M  V30 19022 H 1738.34 -3.56945 -3.62585 0
M  V30 19023 H 1737.73 -1.04369 -5.55989 0
M  V30 19024 H 1736.29 -1.57819 -6.32405 0
M  V30 19025 N 1739.72 0.794246 -1.36123 0
M  V30 19026 C 1740.67 1.90668 -1.30056 0
M  V30 19027 C 1741.64 1.65226 -0.170145 0
M  V30 19028 O 1742.83 1.87452 -0.355874 0
M  V30 19029 C 1739.97 3.27405 -1.09086 0
M  V30 19030 C 1739.08 3.64951 -2.31159 0
M  V30 19031 C 1738.21 4.90782 -2.0324 0
M  V30 19032 C 1737.25 5.20992 -3.21301 0
M  V30 19033 N 1736.39 6.38005 -2.93078 0
M  V30 19034 H 1741.23 1.9519 -2.25178 0
M  V30 19035 H 1738.77 0.95458 -1.1192 0
M  V30 19036 H 1740.72 4.0625 -0.94956 0
M  V30 19037 H 1739.35 3.22319 -0.176211 0
M  V30 19038 H 1738.41 2.81268 -2.5611 0
M  V30 19039 H 1739.72 3.83228 -3.19277 0
M  V30 19040 H 1738.87 5.77481 -1.86012 0
M  V30 19041 H 1737.61 4.74565 -1.12426 0
M  V30 19042 H 1736.62 4.32777 -3.39093 0
M  V30 19043 H 1737.84 5.39131 -4.12934 0
M  V30 19044 H 1735.79 6.23189 -2.0487 0
M  V30 19045 H 1735.7 6.56591 -3.74733 0
M  V30 19046 H 1736.97 7.27699 -2.79418 0
M  V30 19047 N 1741.2 1.20323 1.01785 0
M  V30 19048 C 1742.11 0.966603 2.13761 0
M  V30 19049 C 1743.13 -0.0771059 1.73829 0
M  V30 19050 O 1744.3 0.110054 2.01099 0
M  V30 19051 C 1741.37 0.520405 3.42772 0
M  V30 19052 C 1740.43 1.63482 3.96954 0
M  V30 19053 C 1739.66 1.20981 5.19807 0
M  V30 19054 O 1739.89 0.0779814 5.70347 0
M  V30 19055 O 1738.82 2.01674 5.67108 0
M  V30 19056 H 1742.65 1.90414 2.36593 0
M  V30 19057 H 1740.23 0.986997 1.12155 0
M  V30 19058 H 1742.11 0.280747 4.20464 0
M  V30 19059 H 1740.79 -0.388563 3.21359 0
M  V30 19060 H 1739.69 1.92874 3.20547 0
M  V30 19061 H 1741.03 2.52074 4.22752 0
M  V30 19062 N 1742.68 -1.21073 1.00892 0
M  V30 19063 C 1743.93 -1.90524 0.694879 0
M  V30 19064 C 1744.26 -1.78161 -0.772802 0
M  V30 19065 O 1743.53 -1.1608 -1.56063 0
M  V30 19066 C 1743.82 -3.42188 1.12156 0
M  V30 19067 C 1743.67 -3.63523 2.64898 0
M  V30 19068 C 1744.99 -4.34706 0.68694 0
M  V30 19069 H 1742.11 -0.69188 0.253912 0
M  V30 19070 H 1744.75 -1.42626 1.2553 0
M  V30 19071 H 1742.9 -3.83113 0.644742 0
M  V30 19072 H 1744.57 -3.31901 3.20374 0
M  V30 19073 H 1742.81 -3.07255 3.0623 0
M  V30 19074 H 1743.49 -4.69805 2.89806 0
M  V30 19075 H 1745.96 -4.01386 1.09674 0
M  V30 19076 H 1744.84 -5.3946 1.01361 0
M  V30 19077 H 1745.1 -4.40178 -0.411757 0
M  V30 19078 N 1744.16 -0.784156 -1.36707 0
M  V30 19079 C 1745.57 -0.465219 -1.52669 0
M  V30 19080 C 1745.77 1.01729 -1.73935 0
M  V30 19081 O 1744.83 1.80289 -1.76783 0
M  V30 19082 C 1746.14 -1.29109 -2.71572 0
M  V30 19083 C 1747.69 -1.28424 -2.8544 0
M  V30 19084 C 1748.17 -2.09373 -4.07341 0
M  V30 19085 N 1749.66 -2.06792 -4.14477 0
M  V30 19086 C 1750.39 -2.66199 -5.07864 0
M  V30 19087 N 1749.89 -3.34445 -6.06728 0
M  V30 19088 N 1751.68 -2.55962 -5.0044 0
M  V30 19089 H 1743.83 -1.74456 -1.21156 0
M  V30 19090 H 1746.1 -0.741286 -0.59093 0
M  V30 19091 H 1745.8 -2.34219 -2.62363 0
M  V30 19092 H 1745.68 -0.928764 -3.65587 0
M  V30 19093 H 1748.06 -0.241077 -2.94114 0
M  V30 19094 H 1748.14 -1.68629 -1.92348 0
M  V30 19095 H 1747.79 -3.13718 -3.99429 0
M  V30 19096 H 1747.72 -1.66542 -4.99571 0
M  V30 19097 H 1750.21 -1.57118 -3.43689 0
M  V30 19098 H 1750.52 -3.77118 -6.74538 0
M  V30 19099 H 1748.87 -3.38546 -6.06969 0
M  V30 19100 H 1752.06 -2.02251 -4.22152 0
M  V30 19101 H 1752.23 -3.02553 -5.73032 0
M  V30 19102 N 1745.64 1.48215 -0.535727 0
M  V30 19103 C 1746.88 2.028 -0.00373305 0
M  V30 19104 C 1747.22 1.41143 1.33388 0
M  V30 19105 O 1746.49 0.559227 1.86287 0
M  V30 19106 C 1746.77 3.59925 0.112186 0
M  V30 19107 C 1746.63 4.32053 -1.251 0
M  V30 19108 C 1747.95 4.32083 0.836177 0
M  V30 19109 H 1745.06 0.736995 -0.00283063 0
M  V30 19110 H 1747.71 1.76877 -0.693868 0
M  V30 19111 H 1745.86 3.82142 0.69996 0
M  V30 19112 H 1747.53 4.21238 -1.88033 0
M  V30 19113 H 1745.77 3.93246 -1.83139 0
M  V30 19114 H 1746.44 5.4046 -1.12283 0
M  V30 19115 H 1748.92 4.1473 0.337333 0
M  V30 19116 H 1747.79 5.41699 0.886196 0
M  V30 19117 H 1748.06 3.99772 1.88771 0
M  V30 19118 N 1747.11 0.27113 1.5525 0
M  V30 19119 C 1748.06 -0.618069 2.2237 0
M  V30 19120 C 1749.03 -1.15282 1.19579 0
M  V30 19121 O 1750.22 -1.20285 1.48108 0
M  V30 19122 C 1747.36 -1.79821 2.94548 0
M  V30 19123 C 1746.47 -1.29769 4.12049 0
M  V30 19124 C 1745.6 -2.43931 4.7188 0
M  V30 19125 C 1744.64 -1.90862 5.81582 0
M  V30 19126 N 1743.78 -2.98482 6.35494 0
M  V30 19127 H 1748.62 -0.0390456 2.97974 0
M  V30 19128 H 1746.16 -0.00750636 1.47098 0
M  V30 19129 H 1748.12 -2.49184 3.34609 0
M  V30 19130 H 1746.75 -2.34933 2.21374 0
M  V30 19131 H 1745.8 -0.497288 3.77136 0
M  V30 19132 H 1747.11 -0.868957 4.91173 0
M  V30 19133 H 1746.26 -3.21295 5.1464 0
M  V30 19134 H 1745 -2.90118 3.92024 0
M  V30 19135 H 1744.01 -1.11977 5.38276 0
M  V30 19136 H 1745.23 -1.45616 6.63304 0
M  V30 19137 H 1743.18 -3.44058 5.58534 0
M  V30 19138 H 1743.1 -2.60014 7.09879 0
M  V30 19139 H 1744.36 -3.75833 6.82913 0
M  V30 19140 N 1748.59 -1.576 -0.00164943 0
M  V30 19141 C 1749.84 -1.89675 -0.686026 0
M  V30 19142 C 1750.15 -0.873179 -1.75028 0
M  V30 19143 O 1751.36 -1.08409 -2.48917 0
M  V30 19144 C 1749.82 -3.36696 -1.27136 0
M  V30 19145 C 1749.42 -4.47346 -0.242011 0
M  V30 19146 C 1751.17 -3.77883 -1.93402 0
M  V30 19147 C 1749.08 -5.85444 -0.837241 0
M  V30 19148 H 1748.01 -0.707756 -0.259994 0
M  V30 19149 H 1750.66 -1.83406 0.0586245 0
M  V30 19150 H 1749.04 -3.37797 -2.06662 0
M  V30 19151 H 1750.21 -4.57759 0.528539 0
M  V30 19152 H 1748.53 -4.15168 0.320118 0
M  V30 19153 H 1751.12 -4.78394 -2.38838 0
M  V30 19154 H 1751.47 -3.11311 -2.76389 0
M  V30 19155 H 1752 -3.79075 -1.20612 0
M  V30 19156 H 1748.74 -6.55484 -0.04619 0
M  V30 19157 H 1748.26 -5.78698 -1.57699 0
M  V30 19158 H 1749.94 -6.33048 -1.33637 0
M  V30 19159 N 1750.07 0.274379 -1.55193 0
M  V30 19160 C 1751 1.34336 -1.90987 0
M  V30 19161 C 1751.98 1.51594 -0.771582 0
M  V30 19162 O 1753.17 1.6466 -1.0296 0
M  V30 19163 C 1750.3 2.70312 -2.18057 0
M  V30 19164 C 1749.25 2.67787 -3.33878 0
M  V30 19165 C 1748.58 4.07301 -3.46425 0
M  V30 19166 C 1749.88 2.27178 -4.70306 0
M  V30 19167 H 1751.57 1.04627 -2.80524 0
M  V30 19168 H 1749.12 0.501867 -1.34971 0
M  V30 19169 H 1751.07 3.45205 -2.41685 0
M  V30 19170 H 1749.79 3.01601 -1.25318 0
M  V30 19171 H 1748.45 1.95351 -3.10216 0
M  V30 19172 H 1748.1 4.3581 -2.51155 0
M  V30 19173 H 1747.8 4.06507 -4.24295 0
M  V30 19174 H 1749.32 4.83935 -3.72343 0
M  V30 19175 H 1750.74 2.91794 -4.93487 0
M  V30 19176 H 1749.14 2.37548 -5.51082 0
M  V30 19177 H 1750.21 1.22309 -4.69221 0
M  V30 19178 N 1751.55 1.48103 0.538828 0
M  V30 19179 C 1752.5 1.61966 1.64425 0
M  V30 19180 C 1753.47 0.461999 1.59546 0
M  V30 19181 O 1754.65 0.684377 1.78104 0
M  V30 19182 C 1751.79 1.65711 3.02711 0
M  V30 19183 C 1750.9 2.92522 3.17891 0
M  V30 19184 C 1750.04 2.87485 4.46683 0
M  V30 19185 C 1749.08 4.0904 4.5536 0
M  V30 19186 N 1748.21 4.02131 5.7553 0
M  V30 19187 H 1753.05 2.5637 1.51916 0
M  V30 19188 H 1750.59 1.27146 0.739745 0
M  V30 19189 H 1752.55 1.65864 3.82812 0
M  V30 19190 H 1751.18 0.748045 3.14013 0
M  V30 19191 H 1750.23 3.02154 2.311 0
M  V30 19192 H 1751.54 3.82487 3.20165 0
M  V30 19193 H 1750.7 2.8599 5.35065 0
M  V30 19194 H 1749.44 1.95234 4.46917 0
M  V30 19195 H 1748.44 4.10819 3.65387 0
M  V30 19196 H 1749.67 5.02439 4.56872 0
M  V30 19197 H 1747.61 3.12695 5.76678 0
M  V30 19198 H 1747.53 4.85791 5.7926 0
M  V30 19199 H 1748.8 4.04682 6.66223 0
M  V30 19200 N 1753.03 -0.787016 1.36542 0
M  V30 19201 C 1754.3 -1.53325 1.21452 0
M  V30 19202 C 1754.68 -2.10166 -0.198313 0
M  V30 19203 O 1754.03 -1.94192 -1.20422 0
M  V30 19204 C 1754.24 -2.62629 2.29841 0
M  V30 19205 C 1755.59 -3.30446 2.66628 0
M  V30 19206 O 1756.61 -2.72914 2.28903 0
M  V30 19207 O 1755.47 -4.34424 3.31569 0
M  V30 19208 H 1752.57 -0.678361 0.473028 0
M  V30 19209 H 1755.11 -0.825292 1.4828 0
M  V30 19210 H 1753.88 -2.18639 3.24519 0
M  V30 19211 H 1753.51 -3.41042 2.04393 0
M  V30 19212 N 1754.5 -1.20861 -1.01145 0
M  V30 19213 C 1755.45 -0.959005 -2.1191 0
M  V30 19214 C 1756.45 0.0914738 -1.69153 0
M  V30 19215 O 1757.65 -0.0593443 -1.79902 0
M  V30 19216 H 1754.03 -0.292825 -0.692645 0
M  V30 19217 H 1756 -1.89937 -2.30145 0
M  V30 19218 C 1754.75 -0.533258 -3.43586 0
M  V30 19219 H 1754.07 -1.33319 -3.76917 0
M  V30 19220 H 1755.51 -0.397868 -4.22129 0
M  V30 19221 C 1753.97 0.755011 -3.28331 0
M  V30 19222 O 1754.5 1.81217 -3.58502 0
M  V30 19223 N 1752.71 0.719026 -2.81564 0
M  V30 19224 H 1752.25 -0.141544 -2.57211 0
M  V30 19225 H 1752.21 1.58132 -2.71738 0
M  V30 19226 N 1755.98 1.20536 -1.01532 0
M  V30 19227 C 1757.23 1.89191 -0.699258 0
M  V30 19228 C 1757.54 1.79624 0.774238 0
M  V30 19229 O 1758.75 2.43402 1.20281 0
M  V30 19230 C 1757.21 3.39294 -1.20033 0
M  V30 19231 C 1756.81 3.57449 -2.70064 0
M  V30 19232 C 1758.56 4.13511 -0.959626 0
M  V30 19233 C 1756.47 5.01371 -3.13658 0
M  V30 19234 H 1755.4 0.708537 -0.257859 0
M  V30 19235 H 1758.05 1.36368 -1.22785 0
M  V30 19236 H 1756.43 3.91432 -0.599728 0
M  V30 19237 H 1757.6 3.15702 -3.35662 0
M  V30 19238 H 1755.92 2.966 -2.92262 0
M  V30 19239 H 1758.51 5.19624 -1.26077 0
M  V30 19240 H 1758.86 4.1617 0.103934 0
M  V30 19241 H 1759.39 3.67469 -1.52354 0
M  V30 19242 H 1756.13 5.03866 -4.19285 0
M  V30 19243 H 1755.65 5.43933 -2.52779 0
M  V30 19244 H 1757.33 5.69944 -3.06224 0
M  V30 19245 N 1757.46 0.791395 1.36289 0
M  V30 19246 C 1758.41 0.189246 2.30023 0
M  V30 19247 C 1759.38 -0.668045 1.52074 0
M  V30 19248 O 1760.56 -0.61631 1.80572 0
M  V30 19249 C 1757.7 -0.668391 3.38565 0
M  V30 19250 C 1756.82 0.207659 4.31501 0
M  V30 19251 C 1755.95 -0.656539 5.27127 0
M  V30 19252 C 1754.99 0.220845 6.11701 0
M  V30 19253 N 1754.13 -0.602449 6.99511 0
M  V30 19254 H 1758.97 0.994038 2.80932 0
M  V30 19255 H 1756.5 0.501759 1.38278 0
M  V30 19256 H 1758.46 -1.18064 4.00146 0
M  V30 19257 H 1757.09 -1.43859 2.88971 0
M  V30 19258 H 1756.14 0.837894 3.71057 0
M  V30 19259 H 1757.46 0.883613 4.90911 0
M  V30 19260 H 1756.61 -1.23452 5.94007 0
M  V30 19261 H 1755.35 -1.36611 4.68176 0
M  V30 19262 H 1754.35 0.811214 5.43782 0
M  V30 19263 H 1755.58 0.928049 6.72729 0
M  V30 19264 H 1753.52 -1.29628 6.43065 0
M  V30 19265 H 1753.44 0.015783 7.55998 0
M  V30 19266 H 1754.71 -1.16419 7.70757 0
M  V30 19267 N 1758.94 -1.47929 0.54358 0
M  V30 19268 C 1759.87 -2.3264 -0.200228 0
M  V30 19269 C 1760.85 -1.42945 -0.922 0
M  V30 19270 O 1762.04 -1.71817 -0.905129 0
M  V30 19271 C 1759.17 -3.24439 -1.23922 0
M  V30 19272 C 1758.12 -4.23267 -0.634753 0
M  V30 19273 C 1757.45 -5.04295 -1.77739 0
M  V30 19274 C 1758.75 -5.20747 0.402524 0
M  V30 19275 H 1760.44 -2.95077 0.506957 0
M  V30 19276 H 1757.99 -1.41896 0.245246 0
M  V30 19277 H 1759.94 -3.82535 -1.76763 0
M  V30 19278 H 1758.66 -2.60029 -1.97616 0
M  V30 19279 H 1757.32 -3.66377 -0.127756 0
M  V30 19280 H 1756.97 -4.36299 -2.50304 0
M  V30 19281 H 1756.67 -5.71195 -1.37879 0
M  V30 19282 H 1758.19 -5.65246 -2.30932 0
M  V30 19283 H 1759.61 -5.73287 -0.039305 0
M  V30 19284 H 1758 -5.95774 0.719251 0
M  V30 19285 H 1759.07 -4.67054 1.3034 0
M  V30 19286 N 1760.42 -0.27936 -1.55104 0
M  V30 19287 C 1761.35 0.599831 -2.25664 0
M  V30 19288 C 1762.33 1.15548 -1.24831 0
M  V30 19289 O 1763.51 1.18883 -1.53559 0
M  V30 19290 C 1760.64 1.78202 -2.98096 0
M  V30 19291 C 1759.6 1.35771 -4.05894 0
M  V30 19292 C 1758.92 2.62334 -4.65924 0
M  V30 19293 C 1760.22 0.504795 -5.19855 0
M  V30 19294 H 1761.92 0.0113761 -2.99398 0
M  V30 19295 H 1759.46 0.00403149 -1.43999 0
M  V30 19296 H 1761.42 2.403 -3.4617 0
M  V30 19297 H 1760.14 2.39637 -2.21905 0
M  V30 19298 H 1758.8 0.75991 -3.58638 0
M  V30 19299 H 1758.45 3.22036 -3.86396 0
M  V30 19300 H 1758.15 2.34654 -5.38713 0
M  V30 19301 H 1759.67 3.25273 -5.16749 0
M  V30 19302 H 1761.09 1.03089 -5.63955 0
M  V30 19303 H 1759.48 0.322696 -5.99232 0
M  V30 19304 H 1760.55 -0.475409 -4.82564 0
M  V30 19305 N 1761.9 1.57599 -0.0067085 0
M  V30 19306 C 1762.86 2.07783 0.967417 0
M  V30 19307 C 1763.86 0.988498 1.26828 0
M  V30 19308 O 1765.05 1.25091 1.21235 0
M  V30 19309 C 1762.18 2.52491 2.29044 0
M  V30 19310 H 1763.37 2.95122 0.533201 0
M  V30 19311 H 1760.93 1.54432 0.2409 0
M  V30 19312 H 1761.66 1.68415 2.77141 0
M  V30 19313 H 1761.45 3.32054 2.08525 0
M  V30 19314 H 1762.94 2.9162 2.98911 0
M  V30 19315 N 1763.37 -0.266145 1.55336 0
M  V30 19316 C 1764.34 -1.31242 1.87904 0
M  V30 19317 C 1765.34 -1.42022 0.754083 0
M  V30 19318 O 1766.53 -1.41054 1.02222 0
M  V30 19319 C 1763.66 -2.69285 2.09041 0
M  V30 19320 H 1764.85 -1.03592 2.81441 0
M  V30 19321 H 1762.4 -0.504537 1.47933 0
M  V30 19322 H 1763.14 -3.02106 1.17909 0
M  V30 19323 H 1762.92 -2.62846 2.90954 0
M  V30 19324 H 1764.41 -3.4487 2.35488 0
M  V30 19325 N 1764.85 -1.48386 -0.530967 0
M  V30 19326 C 1765.8 -1.62835 -1.63564 0
M  V30 19327 C 1766.77 -0.470453 -1.59298 0
M  V30 19328 O 1767.95 -0.693813 -1.77738 0
M  V30 19329 C 1765.09 -1.67314 -3.01828 0
M  V30 19330 C 1764.21 -2.94204 -3.16335 0
M  V30 19331 C 1763.34 -2.8985 -4.45152 0
M  V30 19332 C 1762.38 -4.11449 -4.53185 0
M  V30 19333 N 1761.52 -4.05178 -5.7339 0
M  V30 19334 H 1766.36 -2.57172 -1.50554 0
M  V30 19335 H 1763.89 -1.27537 -0.732991 0
M  V30 19336 H 1765.85 -1.67892 -3.81927 0
M  V30 19337 H 1764.48 -0.764688 -3.13612 0
M  V30 19338 H 1763.53 -3.03375 -2.29495 0
M  V30 19339 H 1764.85 -3.84179 -3.18132 0
M  V30 19340 H 1764 -2.88824 -5.33541 0
M  V30 19341 H 1762.74 -1.97602 -4.45875 0
M  V30 19342 H 1761.74 -4.12751 -3.63203 0
M  V30 19343 H 1762.97 -5.04855 -4.54201 0
M  V30 19344 H 1760.92 -3.15749 -5.75012 0
M  V30 19345 H 1760.83 -4.88857 -5.76676 0
M  V30 19346 H 1762.1 -4.08209 -6.64067 0
M  V30 19347 N 1766.33 0.779763 -1.36958 0
M  V30 19348 C 1767.58 1.54031 -1.31918 0
M  V30 19349 C 1767.91 1.9395 0.0985685 0
M  V30 19350 O 1767.18 1.63458 1.05413 0
M  V30 19351 C 1767.47 2.81083 -2.25088 0
M  V30 19352 C 1767.32 2.47469 -3.75605 0
M  V30 19353 C 1768.64 3.82968 -2.1685 0
M  V30 19354 H 1765.76 0.558806 -0.480526 0
M  V30 19355 H 1768.4 0.895152 -1.67592 0
M  V30 19356 H 1766.55 3.36135 -1.94796 0
M  V30 19357 H 1768.22 1.98393 -4.16459 0
M  V30 19358 H 1766.46 1.80276 -3.94567 0
M  V30 19359 H 1767.14 3.38255 -4.3622 0
M  V30 19360 H 1769.61 3.37388 -2.43534 0
M  V30 19361 H 1768.49 4.69601 -2.84194 0
M  V30 19362 H 1768.75 4.26642 -1.15885 0
M  V30 19363 N 1767.81 1.21396 1.00503 0
M  V30 19364 C 1769.22 1.02983 1.55728 0
M  V30 19365 C 1769.57 -0.410383 1.9186 0
M  V30 19366 O 1768.69 -1.29358 1.7348 0
M  V30 19367 C 1769.29 1.86316 2.8297 0
M  V30 19368 C 1767.85 1.72235 3.34682 0
M  V30 19369 C 1767 1.8353 2.07875 0
M  V30 19370 H 1769.95 1.35418 0.827499 0
M  V30 19371 H 1769.97 1.37339 3.5485 0
M  V30 19372 H 1769.48 2.91131 2.56641 0
M  V30 19373 H 1767.58 0.701047 3.65945 0
M  V30 19374 H 1767.69 2.54198 4.06103 0
M  V30 19375 H 1766.06 1.26838 2.20872 0
M  V30 19376 H 1766.84 2.89852 1.83958 0
M  V30 19377 N 1769.29 -1.19996 1.0217 0
M  V30 19378 C 1770.51 -1.94007 0.733207 0
M  V30 19379 C 1770.94 -1.74565 -0.70061 0
M  V30 19380 O 1770.29 -1.04326 -1.48276 0
M  V30 19381 C 1770.34 -3.44029 1.08057 0
M  V30 19382 O 1769.45 -4.11938 0.195135 0
M  V30 19383 H 1768.79 -0.605929 0.271562 0
M  V30 19384 H 1771.32 -1.5228 1.36645 0
M  V30 19385 H 1771.33 -3.94669 1.03443 0
M  V30 19386 H 1770 -3.57502 2.1252 0
M  V30 19387 H 1768.58 -3.71697 0.299246 0
M  V30 19388 N 1770.76 -0.798611 -1.35867 0
M  V30 19389 C 1772.01 -0.374519 -1.986 0
M  V30 19390 C 1772.33 1.05984 -1.63684 0
M  V30 19391 O 1771.6 1.73199 -0.915359 0
M  V30 19392 H 1770.18 -0.135492 -0.734609 0
M  V30 19393 H 1772.84 -1.02269 -1.65913 0
M  V30 19394 H 1771.94 -0.473773 -3.08483 0
M  V30 19395 N 1772.24 1.47639 -0.551417 0
M  V30 19396 C 1773.49 2.02084 -0.0251553 0
M  V30 19397 C 1773.81 1.42872 1.32713 0
M  V30 19398 O 1773.08 0.601794 1.86428 0
M  V30 19399 H 1771.66 0.746973 -0.00631005 0
M  V30 19400 H 1774.32 1.81109 -0.720113 0
M  V30 19401 H 1773.42 3.12028 0.0672608 0
M  V30 19402 N 1773.72 0.287581 1.54954 0
M  V30 19403 C 1774.65 -0.62789 2.20432 0
M  V30 19404 C 1775.67 -1.10792 1.19286 0
M  V30 19405 O 1776.85 -1.02768 1.45949 0
M  V30 19406 C 1773.95 -1.86998 2.82639 0
M  V30 19407 C 1773.13 -1.53469 4.09592 0
M  V30 19408 C 1772.19 -2.63053 4.5573 0
M  V30 19409 O 1771.21 -2.28712 5.21229 0
M  V30 19410 N 1772.41 -3.93348 4.26917 0
M  V30 19411 H 1775.18 -0.067416 2.99624 0
M  V30 19412 H 1772.74 0.109205 1.61531 0
M  V30 19413 H 1774.73 -2.59629 3.10443 0
M  V30 19414 H 1773.3 -2.33919 2.07366 0
M  V30 19415 H 1772.52 -0.641635 3.88943 0
M  V30 19416 H 1773.81 -1.28587 4.92283 0
M  V30 19417 H 1773.21 -4.24063 3.74415 0
M  V30 19418 H 1771.77 -4.62318 4.59462 0
M  V30 19419 N 1775.2 -1.57593 0.0150662 0
M  V30 19420 C 1776.11 -2.12807 -0.987437 0
M  V30 19421 C 1777.12 -1.07691 -1.3667 0
M  V30 19422 O 1778.3 -1.39674 -1.45097 0
M  V30 19423 C 1775.37 -2.63276 -2.2558 0
M  V30 19424 C 1774.43 -3.83053 -1.93827 0
M  V30 19425 C 1773.66 -4.31106 -3.14616 0
M  V30 19426 O 1773.88 -3.78405 -4.26809 0
M  V30 19427 O 1772.82 -5.23104 -2.97734 0
M  V30 19428 H 1776.64 -2.98715 -0.548015 0
M  V30 19429 H 1774.23 -1.47991 -0.20469 0
M  V30 19430 H 1776.11 -2.95869 -3.00066 0
M  V30 19431 H 1774.78 -1.80459 -2.68731 0
M  V30 19432 H 1773.69 -3.55409 -1.1677 0
M  V30 19433 H 1775.02 -4.6699 -1.55502 0
M  V30 19434 N 1776.68 0.257904 -1.55475 0
M  V30 19435 C 1777.61 1.32303 -1.92401 0
M  V30 19436 C 1778.59 1.50767 -0.787617 0
M  V30 19437 O 1779.77 1.63559 -1.047 0
M  V30 19438 C 1776.9 2.67984 -2.20912 0
M  V30 19439 C 1775.86 2.64231 -3.36699 0
M  V30 19440 C 1775.18 4.03604 -3.50725 0
M  V30 19441 C 1776.48 2.22177 -4.72689 0
M  V30 19442 H 1778.18 1.01646 -2.81618 0
M  V30 19443 H 1775.72 0.487523 -1.35496 0
M  V30 19444 H 1777.68 3.42622 -2.45332 0
M  V30 19445 H 1776.4 3.00254 -1.2851 0
M  V30 19446 H 1775.06 1.92049 -3.1227 0
M  V30 19447 H 1774.71 4.33122 -2.55763 0
M  V30 19448 H 1774.41 4.01983 -4.28583 0
M  V30 19449 H 1775.93 4.79959 -3.77455 0
M  V30 19450 H 1777.34 2.86543 -4.96554 0
M  V30 19451 H 1775.74 2.3169 -5.5357 0
M  V30 19452 H 1776.81 1.17326 -4.70492 0
M  V30 19453 N 1778.15 1.48666 0.52309 0
M  V30 19454 C 1779.38 1.60707 1.30311 0
M  V30 19455 C 1779.8 0.269941 1.8686 0
M  V30 19456 O 1779.15 -0.741714 1.66748 0
M  V30 19457 C 1779.21 2.65899 2.44908 0
M  V30 19458 O 1778.93 3.94423 1.90688 0
M  V30 19459 C 1780.43 2.88443 3.36624 0
M  V30 19460 H 1777.65 0.541661 0.396035 0
M  V30 19461 H 1780.19 1.94544 0.630322 0
M  V30 19462 H 1778.35 2.34902 3.08058 0
M  V30 19463 H 1778.76 4.5219 2.65753 0
M  V30 19464 H 1780.23 3.65831 4.13366 0
M  V30 19465 H 1780.71 1.97524 3.92277 0
M  V30 19466 H 1781.32 3.20771 2.7926 0
M  V30 19467 N 1779.63 -0.772489 1.37369 0
M  V30 19468 C 1780.86 -1.56671 1.35901 0
M  V30 19469 C 1781.28 -1.88024 -0.0535538 0
M  V30 19470 O 1780.64 -1.49174 -1.03038 0
M  V30 19471 C 1780.69 -2.85417 2.20384 0
M  V30 19472 O 1779.79 -3.79761 1.60796 0
M  V30 19473 H 1779.13 -0.474596 0.464386 0
M  V30 19474 H 1781.66 -0.956162 1.80883 0
M  V30 19475 H 1781.67 -3.34527 2.33571 0
M  V30 19476 H 1780.35 -2.61926 3.2306 0
M  V30 19477 H 1778.93 -3.38403 1.56645 0
M  V30 19478 N 1781.11 -1.21927 -0.998575 0
M  V30 19479 C 1782.02 -1.00049 -2.12197 0
M  V30 19480 C 1783.04 0.0494414 -1.7393 0
M  V30 19481 O 1784.21 -0.142033 -2.00899 0
M  V30 19482 C 1781.28 -0.574871 -3.41901 0
M  V30 19483 C 1780.34 -1.69776 -3.94303 0
M  V30 19484 C 1779.57 -1.29236 -5.17816 0
M  V30 19485 O 1779.79 -0.168709 -5.7015 0
M  V30 19486 O 1778.73 -2.10671 -5.63827 0
M  V30 19487 H 1782.55 -1.94154 -2.33534 0
M  V30 19488 H 1780.14 -1.00472 -1.10571 0
M  V30 19489 H 1782.02 -0.347603 -4.19964 0
M  V30 19490 H 1780.7 0.337389 -3.21937 0
M  V30 19491 H 1779.6 -1.9795 -3.17438 0
M  V30 19492 H 1780.94 -2.58768 -4.18688 0
M  V30 19493 N 1782.59 1.19452 -1.02805 0
M  V30 19494 C 1783.52 2.24875 -0.628752 0
M  V30 19495 C 1784.5 1.66207 0.361844 0
M  V30 19496 O 1785.68 1.92652 0.244743 0
M  V30 19497 C 1782.81 3.47293 0.0220954 0
M  V30 19498 C 1781.77 4.1863 -0.890693 0
M  V30 19499 C 1781.09 5.34597 -0.104997 0
M  V30 19500 C 1782.39 4.73518 -2.20405 0
M  V30 19501 H 1784.09 2.5853 -1.51005 0
M  V30 19502 H 1781.63 1.24271 -0.727518 0
M  V30 19503 H 1783.59 4.20235 0.313073 0
M  V30 19504 H 1782.31 3.12835 0.938182 0
M  V30 19505 H 1780.97 3.47568 -1.16585 0
M  V30 19506 H 1780.62 4.96385 0.813098 0
M  V30 19507 H 1780.32 5.83258 -0.712983 0
M  V30 19508 H 1781.84 6.10337 0.179259 0
M  V30 19509 H 1783.26 5.3822 -1.97465 0
M  V30 19510 H 1781.65 5.32663 -2.76388 0
M  V30 19511 H 1782.72 3.9163 -2.85926 0
M  V30 19512 N 1784.07 0.805805 1.35442 0
M  V30 19513 C 1785.01 0.203715 2.31706 0
M  V30 19514 C 1786.01 -0.646084 1.56595 0
M  V30 19515 O 1787.21 -0.539336 1.7173 0
M  V30 19516 H 1783.59 0.0471152 0.750523 0
M  V30 19517 H 1785.56 1.03076 2.80032 0
M  V30 19518 C 1784.31 -0.633791 3.41875 0
M  V30 19519 H 1783.63 0.0107715 3.99799 0
M  V30 19520 H 1785.07 -1.02147 4.11512 0
M  V30 19521 C 1783.53 -1.79899 2.84847 0
M  V30 19522 O 1784.06 -2.89643 2.78334 0
M  V30 19523 N 1782.27 -1.61027 2.41906 0
M  V30 19524 H 1781.81 -0.717599 2.47403 0
M  V30 19525 H 1781.77 -2.39147 2.04099 0
M  V30 19526 N 1785.54 -1.47344 0.559239 0
M  V30 19527 C 1786.79 -2.02768 0.0359962 0
M  V30 19528 C 1787.12 -1.43247 -1.31126 0
M  V30 19529 O 1786.4 -0.588793 -1.85374 0
M  V30 19530 C 1786.68 -3.60058 -0.0549111 0
M  V30 19531 C 1786.53 -4.30008 1.31958 0
M  V30 19532 C 1787.85 -4.33359 -0.767331 0
M  V30 19533 H 1784.97 -0.736856 0.0145552 0
M  V30 19534 H 1787.61 -1.75751 0.72192 0
M  V30 19535 H 1785.76 -3.83208 -0.639076 0
M  V30 19536 H 1787.44 -4.18193 1.94711 0
M  V30 19537 H 1785.68 -3.90283 1.89372 0
M  V30 19538 H 1786.35 -5.38605 1.20867 0
M  V30 19539 H 1788.83 -4.15215 -0.27131 0
M  V30 19540 H 1787.7 -5.4304 -0.799905 0
M  V30 19541 H 1787.96 -4.02725 -1.82387 0
M  V30 19542 N 1787.02 -0.295795 -1.54799 0
M  V30 19543 C 1788.27 0.315473 -2.00331 0
M  V30 19544 C 1788.6 1.53939 -1.18392 0
M  V30 19545 O 1787.88 1.92767 -0.259086 0
M  V30 19546 C 1788.16 0.677227 -3.53674 0
M  V30 19547 C 1788.01 -0.555462 -4.46357 0
M  V30 19548 C 1789.33 1.50576 -4.1354 0
M  V30 19549 H 1786.45 0.113191 -0.728256 0
M  V30 19550 H 1789.09 -0.406858 -1.85593 0
M  V30 19551 H 1787.24 1.29264 -3.66365 0
M  V30 19552 H 1788.91 -1.19397 -4.45581 0
M  V30 19553 H 1787.16 -1.18968 -4.17168 0
M  V30 19554 H 1787.83 -0.25828 -5.51395 0
M  V30 19555 H 1790.3 0.985819 -4.04253 0
M  V30 19556 H 1789.18 1.72766 -5.21002 0
M  V30 19557 H 1789.44 2.49334 -3.65082 0
M  V30 19558 N 1788.5 1.57583 -0.0234236 0
M  V30 19559 C 1789.43 2.12907 0.958804 0
M  V30 19560 C 1790.41 1.0438 1.34309 0
M  V30 19561 O 1791.6 1.32184 1.42271 0
M  V30 19562 C 1788.73 2.65151 2.24304 0
M  V30 19563 C 1787.68 3.78414 1.99967 0
M  V30 19564 C 1787.01 4.17064 3.34607 0
M  V30 19565 C 1788.31 5.04727 1.34342 0
M  V30 19566 H 1790 2.95228 0.498081 0
M  V30 19567 H 1787.55 1.42017 0.238138 0
M  V30 19568 H 1789.5 3.02487 2.93393 0
M  V30 19569 H 1788.22 1.79983 2.72532 0
M  V30 19570 H 1786.88 3.41507 1.33298 0
M  V30 19571 H 1786.53 3.28886 3.80583 0
M  V30 19572 H 1786.23 4.93385 3.19132 0
M  V30 19573 H 1787.76 4.56978 4.04973 0
M  V30 19574 H 1789.17 5.39686 1.93422 0
M  V30 19575 H 1787.57 5.86009 1.29282 0
M  V30 19576 H 1788.64 4.83872 0.315625 0
M  V30 19577 N 1789.98 -0.249655 1.5561 0
M  V30 19578 C 1790.89 -1.33061 1.93215 0
M  V30 19579 C 1791.91 -1.52806 0.832239 0
M  V30 19580 O 1793.08 -1.66482 1.13339 0
M  V30 19581 C 1790.15 -2.66569 2.2168 0
M  V30 19582 C 1789.21 -2.5537 3.45087 0
M  V30 19583 C 1788.44 -3.82511 3.72184 0
M  V30 19584 O 1788.66 -4.84267 3.014 0
M  V30 19585 O 1787.6 -3.81309 4.65711 0
M  V30 19586 H 1791.42 -1.04161 2.85279 0
M  V30 19587 H 1789.01 -0.450177 1.42456 0
M  V30 19588 H 1790.89 -3.45468 2.41308 0
M  V30 19589 H 1789.57 -2.95207 1.32794 0
M  V30 19590 H 1788.47 -1.74766 3.30768 0
M  V30 19591 H 1789.81 -2.31677 4.34266 0
M  V30 19592 N 1791.46 -1.48941 -0.515198 0
M  V30 19593 C 1792.41 -1.65027 -1.63917 0
M  V30 19594 C 1793.4 -0.516402 -1.61337 0
M  V30 19595 O 1794.61 -0.695598 -1.66016 0
M  V30 19596 H 1790.98 -0.520121 -0.543119 0
M  V30 19597 H 1792.95 -2.59397 -1.47498 0
M  V30 19598 C 1791.7 -1.72093 -3.02125 0
M  V30 19599 H 1791.02 -2.5871 -3.0481 0
M  V30 19600 H 1792.46 -1.87387 -3.80345 0
M  V30 19601 C 1790.92 -0.462688 -3.33708 0
M  V30 19602 O 1791.45 0.417925 -3.9952 0
M  V30 19603 N 1789.66 -0.329909 -2.88721 0
M  V30 19604 H 1789.21 -1.0475 -2.35341 0
M  V30 19605 H 1789.16 0.510912 -3.10221 0
M  V30 19606 N 1792.94 0.765193 -1.37777 0
M  V30 19607 C 1794.17 1.5521 -1.36358 0
M  V30 19608 C 1794.57 1.8913 0.0514021 0
M  V30 19609 O 1793.92 1.52422 1.02535 0
M  V30 19610 C 1793.98 2.88605 -2.14354 0
M  V30 19611 C 1793.64 2.77286 -3.63265 0
M  V30 19612 C 1794.64 2.47869 -4.57009 0
M  V30 19613 C 1792.32 2.95102 -4.06473 0
M  V30 19614 C 1794.32 2.36406 -5.91938 0
M  V30 19615 C 1792.01 2.83259 -5.41486 0
M  V30 19616 C 1793 2.53952 -6.34032 0
M  V30 19617 O 1792.69 2.42148 -7.66564 0
M  V30 19618 H 1792.42 0.487266 -0.468559 0
M  V30 19619 H 1794.98 0.955716 -1.81811 0
M  V30 19620 H 1793.21 3.50388 -1.636 0
M  V30 19621 H 1794.9 3.50043 -2.05486 0
M  V30 19622 H 1795.66 2.33784 -4.24936 0
M  V30 19623 H 1791.54 3.16913 -3.34794 0
M  V30 19624 H 1795.09 2.13452 -6.64142 0
M  V30 19625 H 1790.98 2.96914 -5.7316 0
M  V30 19626 H 1791.75 2.57448 -7.76957 0
M  V30 19627 N 1794.41 1.22455 0.992094 0
M  V30 19628 C 1795.35 0.953144 2.08441 0
M  V30 19629 C 1796.36 -0.0685432 1.62656 0
M  V30 19630 O 1797.55 0.165561 1.77731 0
M  V30 19631 C 1794.65 0.412046 3.36386 0
M  V30 19632 C 1793.82 1.49114 4.11198 0
M  V30 19633 C 1792.88 0.956984 5.17425 0
M  V30 19634 O 1791.91 1.64337 5.44961 0
M  V30 19635 N 1793.11 -0.221205 5.80078 0
M  V30 19636 H 1795.87 1.89353 2.32305 0
M  V30 19637 H 1793.43 1.13155 1.15791 0
M  V30 19638 H 1795.43 0.0400033 4.0468 0
M  V30 19639 H 1794 -0.433473 3.0958 0
M  V30 19640 H 1793.22 2.03647 3.37523 0
M  V30 19641 H 1794.5 2.21716 4.57951 0
M  V30 19642 H 1793.9 -0.795642 5.60077 0
M  V30 19643 H 1792.46 -0.534625 6.49604 0
M  V30 19644 N 1795.89 -1.18905 1.03437 0
M  V30 19645 C 1796.82 -2.24539 0.640669 0
M  V30 19646 C 1797.8 -1.66396 -0.353024 0
M  V30 19647 O 1798.99 -1.92779 -0.234522 0
M  V30 19648 C 1796.12 -3.473 -0.00367731 0
M  V30 19649 C 1795.07 -4.18151 0.912881 0
M  V30 19650 C 1794.4 -5.34534 0.133347 0
M  V30 19651 C 1795.7 -4.72342 2.22913 0
M  V30 19652 H 1797.39 -2.57726 1.52374 0
M  V30 19653 H 1794.94 -1.23883 0.734098 0
M  V30 19654 H 1796.89 -4.20396 -0.290783 0
M  V30 19655 H 1795.61 -3.13328 -0.921578 0
M  V30 19656 H 1794.27 -3.46945 1.18427 0
M  V30 19657 H 1793.92 -4.96809 -0.786762 0
M  V30 19658 H 1793.62 -5.82872 0.743905 0
M  V30 19659 H 1795.15 -6.10423 -0.146889 0
M  V30 19660 H 1796.56 -5.37165 2.00317 0
M  V30 19661 H 1794.96 -5.31189 2.79209 0
M  V30 19662 H 1796.03 -3.90108 2.87999 0
M  V30 19663 N 1797.37 -0.812977 -1.35013 0
M  V30 19664 C 1798.3 -0.242397 -2.32238 0
M  V30 19665 C 1799.28 0.635676 -1.57776 0
M  V30 19666 O 1800.47 0.564621 -1.85811 0
M  V30 19667 C 1797.6 0.604686 -3.41995 0
M  V30 19668 C 1796.55 -0.17542 -4.2764 0
M  V30 19669 C 1795.88 0.793772 -5.28775 0
M  V30 19670 C 1797.18 -1.37802 -5.03794 0
M  V30 19671 H 1798.87 -1.0547 -2.80208 0
M  V30 19672 H 1796.42 -0.508619 -1.34718 0
M  V30 19673 H 1798.37 1.01396 -4.09019 0
M  V30 19674 H 1797.09 1.44994 -2.9265 0
M  V30 19675 H 1795.75 -0.565948 -3.62205 0
M  V30 19676 H 1795.4 1.63471 -4.75696 0
M  V30 19677 H 1795.1 0.276085 -5.86951 0
M  V30 19678 H 1796.62 1.20112 -5.9867 0
M  V30 19679 H 1798.04 -1.04328 -5.63727 0
M  V30 19680 H 1796.43 -1.83064 -5.71496 0
M  V30 19681 H 1797.5 -2.16138 -4.34065 0
M  V30 19682 N 1798.85 1.47045 -0.567045 0
M  V30 19683 C 1800.09 2.04341 -0.0491613 0
M  V30 19684 C 1800.45 1.4308 1.28031 0
M  V30 19685 O 1801.65 1.91481 1.88649 0
M  V30 19686 C 1799.92 3.57386 0.0319732 0
M  V30 19687 S 1801.48 4.36004 0.494555 0
M  V30 19688 H 1798.3 0.710371 -0.0298915 0
M  V30 19689 H 1800.9 1.80291 -0.756004 0
M  V30 19690 H 1799.61 3.99494 -0.93983 0
M  V30 19691 H 1799.14 3.85948 0.76207 0
M  V30 19692 H 1801.15 4.64226 1.75238 0
M  V30 19693 N 1800.33 0.304 1.5464 0
M  V30 19694 C 1801.27 -0.586475 2.25085 0
M  V30 19695 C 1802.27 -1.13458 1.25792 0
M  V30 19696 O 1803.47 -1.08487 1.43633 0
M  V30 19697 H 1799.85 -0.20774 0.722737 0
M  V30 19698 H 1801.82 0.0301682 2.98385 0
M  V30 19699 C 1800.57 -1.74539 3.00718 0
M  V30 19700 H 1799.89 -1.33287 3.76928 0
M  V30 19701 H 1801.33 -2.34447 3.53285 0
M  V30 19702 C 1799.79 -2.65132 2.07862 0
M  V30 19703 O 1800.32 -3.6631 1.64863 0
M  V30 19704 N 1798.53 -2.32932 1.73756 0
M  V30 19705 H 1798.07 -1.50698 2.08921 0
M  V30 19706 H 1798.03 -2.93811 1.11904 0
M  V30 19707 N 1801.8 -1.57568 0.0317802 0
M  V30 19708 C 1803.22 -1.56264 -0.324633 0
M  V30 19709 C 1803.42 -1.03765 -1.72728 0
M  V30 19710 O 1802.48 -0.685566 -2.43015 0
M  V30 19711 C 1803.79 -3.00214 -0.170806 0
M  V30 19712 C 1805.34 -3.12052 -0.243373 0
M  V30 19713 C 1805.81 -4.57847 -0.118304 0
M  V30 19714 N 1807.3 -4.62869 -0.175203 0
M  V30 19715 C 1808.04 -5.73309 -0.102252 0
M  V30 19716 N 1807.53 -6.92797 0.0219373 0
M  V30 19717 N 1809.33 -5.61882 -0.156432 0
M  V30 19718 H 1801.48 -1.90022 0.948968 0
M  V30 19719 H 1803.74 -0.874208 0.366693 0
M  V30 19720 H 1803.45 -3.42585 0.795517 0
M  V30 19721 H 1803.32 -3.65302 -0.939907 0
M  V30 19722 H 1805.71 -2.69593 -1.20016 0
M  V30 19723 H 1805.79 -2.49681 0.55615 0
M  V30 19724 H 1805.43 -5.00988 0.835072 0
M  V30 19725 H 1805.36 -5.18202 -0.936726 0
M  V30 19726 H 1807.85 -3.76925 -0.271225 0
M  V30 19727 H 1808.17 -7.72768 0.0708376 0
M  V30 19728 H 1806.51 -6.94977 0.0567564 0
M  V30 19729 H 1809.7 -4.67422 -0.251873 0
M  V30 19730 H 1809.88 -6.47929 -0.0961177 0
M  V30 19731 N 1803.28 0.241399 -1.5574 0
M  V30 19732 C 1804.53 0.966607 -1.7703 0
M  V30 19733 C 1804.84 1.86275 -0.59673 0
M  V30 19734 O 1806.05 2.62513 -0.692775 0
M  V30 19735 C 1804.51 1.7688 -3.13435 0
M  V30 19736 C 1804.11 0.919775 -4.38457 0
M  V30 19737 C 1805.86 2.48641 -3.44061 0
M  V30 19738 C 1803.77 1.71817 -5.65891 0
M  V30 19739 H 1802.7 0.364644 -0.659963 0
M  V30 19740 H 1805.35 0.221088 -1.82163 0
M  V30 19741 H 1803.73 2.55648 -3.02424 0
M  V30 19742 H 1804.9 0.174036 -4.60471 0
M  V30 19743 H 1803.22 0.315234 -4.15205 0
M  V30 19744 H 1805.81 3.08839 -4.36489 0
M  V30 19745 H 1806.16 3.20534 -2.65638 0
M  V30 19746 H 1806.69 1.7688 -3.56312 0
M  V30 19747 H 1803.43 1.04289 -6.47151 0
M  V30 19748 H 1802.95 2.43905 -5.47969 0
M  V30 19749 H 1804.63 2.28392 -6.05348 0
M  V30 19750 N 1804.76 1.49212 0.507292 0
M  V30 19751 C 1806.18 1.35835 0.837908 0
M  V30 19752 C 1806.38 0.386634 1.97756 0
M  V30 19753 O 1805.43 -0.183971 2.51829 0
M  V30 19754 C 1806.75 2.76407 1.18404 0
M  V30 19755 C 1808.29 2.85062 1.29262 0
M  V30 19756 C 1808.77 4.26387 1.67208 0
M  V30 19757 N 1810.26 4.29168 1.74268 0
M  V30 19758 C 1810.99 5.35479 2.05061 0
M  V30 19759 N 1810.49 6.52042 2.34121 0
M  V30 19760 N 1812.28 5.2289 2.06259 0
M  V30 19761 H 1804.43 2.1099 -0.244311 0
M  V30 19762 H 1806.7 0.946849 -0.0466977 0
M  V30 19763 H 1806.4 3.49183 0.420053 0
M  V30 19764 H 1806.28 3.11376 2.12896 0
M  V30 19765 H 1808.66 2.12528 2.04734 0
M  V30 19766 H 1808.75 2.53684 0.328359 0
M  V30 19767 H 1808.39 4.99445 0.922884 0
M  V30 19768 H 1808.32 4.55225 2.64723 0
M  V30 19769 H 1810.81 3.45099 1.53996 0
M  V30 19770 H 1811.12 7.2889 2.56787 0
M  V30 19771 H 1809.47 6.55279 2.31591 0
M  V30 19772 H 1812.66 4.30834 1.83028 0
M  V30 19773 H 1812.83 6.05838 2.29923 0
M  V30 19774 N 1806.24 -0.757876 1.38181 0
M  V30 19775 C 1807.49 -1.51388 1.33888 0
M  V30 19776 C 1807.81 -1.94867 -0.0718767 0
M  V30 19777 O 1807.08 -1.67329 -1.01871 0
M  V30 19778 H 1805.66 -0.561534 0.492634 0
M  V30 19779 H 1808.32 -0.901156 1.72815 0
M  V30 19780 H 1807.42 -2.4068 1.98695 0
M  V30 19781 N 1807.72 -1.22979 -0.985586 0
M  V30 19782 C 1808.66 -1.00637 -2.07704 0
M  V30 19783 C 1809.63 0.0744076 -1.65933 0
M  V30 19784 O 1810.82 -0.0766583 -1.90646 0
M  V30 19785 C 1807.96 -0.598088 -3.39878 0
M  V30 19786 C 1807.07 -1.75043 -3.94948 0
M  V30 19787 C 1806.21 -1.28943 -5.15313 0
M  V30 19788 C 1805.25 -2.41285 -5.62537 0
M  V30 19789 N 1804.38 -1.9618 -6.74135 0
M  V30 19790 H 1809.22 -1.94063 -2.26149 0
M  V30 19791 H 1806.76 -0.966841 -1.10863 0
M  V30 19792 H 1808.72 -0.342503 -4.15792 0
M  V30 19793 H 1807.35 0.299167 -3.21411 0
M  V30 19794 H 1806.4 -2.12015 -3.15838 0
M  V30 19795 H 1807.71 -2.5952 -4.25971 0
M  V30 19796 H 1806.87 -0.99166 -5.98541 0
M  V30 19797 H 1805.6 -0.41496 -4.85931 0
M  V30 19798 H 1804.61 -2.71842 -4.77893 0
M  V30 19799 H 1805.83 -3.2926 -5.9394 0
M  V30 19800 H 1803.78 -1.11105 -6.46523 0
M  V30 19801 H 1803.7 -2.74219 -7.04514 0
M  V30 19802 H 1804.97 -1.69492 -7.6085 0
M  V30 19803 N 1809.19 1.18355 -1.04066 0
M  V30 19804 C 1810.43 1.90027 -0.752928 0
M  V30 19805 C 1810.8 1.78534 0.706379 0
M  V30 19806 O 1812 2.44914 1.10772 0
M  V30 19807 C 1810.27 3.36432 -1.20617 0
M  V30 19808 S 1811.83 4.26198 -1.04408 0
M  V30 19809 H 1808.65 0.656184 -0.273759 0
M  V30 19810 H 1811.25 1.43013 -1.33295 0
M  V30 19811 H 1809.95 3.42327 -2.26364 0
M  V30 19812 H 1809.48 3.88485 -0.619939 0
M  V30 19813 H 1811.5 4.96185 0.0384827 0
M  V30 19814 N 1810.67 0.820125 1.3458 0
M  V30 19815 C 1811.62 0.212417 2.27008 0
M  V30 19816 C 1812.61 -0.621679 1.48405 0
M  V30 19817 O 1813.8 -0.476717 1.70459 0
M  V30 19818 C 1810.93 -0.627099 3.37524 0
M  V30 19819 C 1810.01 0.217471 4.23542 0
M  V30 19820 N 1810.4 1.28711 4.89149 0
M  V30 19821 C 1808.7 0.00134142 4.46 0
M  V30 19822 C 1809.4 1.80387 5.53024 0
M  V30 19823 N 1808.38 1.10819 5.32184 0
M  V30 19824 H 1812.18 1.03066 2.75236 0
M  V30 19825 H 1809.7 0.662649 1.48266 0
M  V30 19826 H 1811.69 -1.07861 4.02705 0
M  V30 19827 H 1810.35 -1.44353 2.90847 0
M  V30 19828 H 1811.36 1.66989 4.9024 0
M  V30 19829 H 1808.04 -0.783152 4.10089 0
M  V30 19830 H 1809.43 2.69858 6.15326 0
M  V30 19831 N 1812.15 -1.46743 0.574835 0
M  V30 19832 C 1813.38 -2.06805 0.0627992 0
M  V30 19833 C 1813.79 -1.42482 -1.23872 0
M  V30 19834 O 1813.15 -0.527375 -1.74714 0
M  V30 19835 C 1813.2 -3.61307 -0.117983 0
M  V30 19836 O 1812.92 -4.23222 1.13201 0
M  V30 19837 C 1814.42 -4.3828 -0.665277 0
M  V30 19838 H 1811.64 -0.668835 0.0538616 0
M  V30 19839 H 1814.19 -1.88488 0.793265 0
M  V30 19840 H 1812.34 -3.79078 -0.798641 0
M  V30 19841 H 1812.76 -5.15992 0.940853 0
M  V30 19842 H 1814.23 -5.47004 -0.740985 0
M  V30 19843 H 1814.71 -4.05777 -1.68052 0
M  V30 19844 H 1815.31 -4.25295 -0.0197462 0
M  V30 19845 N 1813.63 -0.312197 -1.54477 0
M  V30 19846 C 1814.56 0.551829 -2.26886 0
M  V30 19847 C 1815.54 1.12874 -1.27254 0
M  V30 19848 O 1816.72 1.15599 -1.56046 0
M  V30 19849 C 1813.85 1.71839 -3.01809 0
M  V30 19850 C 1812.81 1.27131 -4.08683 0
M  V30 19851 C 1812.13 2.52392 -4.71384 0
M  V30 19852 C 1813.43 0.394413 -5.20809 0
M  V30 19853 H 1815.13 -0.0521331 -2.99355 0
M  V30 19854 H 1812.67 -0.0265138 -1.43976 0
M  V30 19855 H 1814.63 2.32903 -3.5119 0
M  V30 19856 H 1813.35 2.34876 -2.26938 0
M  V30 19857 H 1812.01 0.683666 -3.60169 0
M  V30 19858 H 1811.66 3.13768 -3.93139 0
M  V30 19859 H 1811.36 2.23174 -5.43569 0
M  V30 19860 H 1812.88 3.14239 -5.23533 0
M  V30 19861 H 1814.3 0.911031 -5.66015 0
M  V30 19862 H 1812.69 0.195517 -5.99781 0
M  V30 19863 H 1813.76 -0.577661 -4.81447 0
M  V30 19864 N 1815.11 1.57549 -0.040136 0
M  V30 19865 C 1816.02 2.14351 0.953457 0
M  V30 19866 C 1817.03 1.09851 1.3494 0
M  V30 19867 O 1818.21 1.41965 1.42857 0
M  V30 19868 C 1815.27 2.66832 2.21363 0
M  V30 19869 C 1814.33 3.86088 1.87708 0
M  V30 19870 C 1813.57 4.36057 3.07718 0
M  V30 19871 O 1813.79 3.85147 4.20735 0
M  V30 19872 O 1812.72 5.27775 2.89374 0
M  V30 19873 H 1816.55 2.99549 0.500423 0
M  V30 19874 H 1814.14 1.48298 0.18112 0
M  V30 19875 H 1816.02 3.00605 2.95321 0
M  V30 19876 H 1814.69 1.84711 2.65826 0
M  V30 19877 H 1813.6 3.57222 1.11101 0
M  V30 19878 H 1814.93 4.69405 1.48053 0
M  V30 19879 N 1816.58 -0.233136 1.55866 0
M  V30 19880 C 1817.49 -1.31004 1.94615 0
M  V30 19881 C 1818.51 -1.51915 0.848399 0
M  V30 19882 O 1819.69 -1.6527 1.15098 0
M  V30 19883 C 1816.75 -2.64203 2.24494 0
M  V30 19884 C 1815.81 -2.51695 3.47776 0
M  V30 19885 C 1815.05 -3.78542 3.7622 0
M  V30 19886 O 1815.27 -4.81043 3.06519 0
M  V30 19887 O 1814.2 -3.76348 4.69729 0
M  V30 19888 H 1818.03 -1.01129 2.86368 0
M  V30 19889 H 1815.61 -0.435043 1.42926 0
M  V30 19890 H 1817.5 -3.42889 2.44959 0
M  V30 19891 H 1816.17 -2.93782 1.35918 0
M  V30 19892 H 1815.08 -1.71248 3.32603 0
M  V30 19893 H 1816.41 -2.27058 4.36698 0
M  V30 19894 N 1818.06 -1.49479 -0.499372 0
M  V30 19895 C 1819.31 -1.59284 -1.25525 0
M  V30 19896 C 1819.64 -0.27941 -1.92179 0
M  V30 19897 O 1818.92 0.717142 -1.80796 0
M  V30 19898 C 1819.2 -2.75323 -2.32098 0
M  V30 19899 C 1819.05 -4.16464 -1.69934 0
M  V30 19900 C 1820.37 -2.86998 -3.33646 0
M  V30 19901 H 1817.49 -0.579768 -0.455015 0
M  V30 19902 H 1820.13 -1.81769 -0.553165 0
M  V30 19903 H 1818.28 -2.56282 -2.91979 0
M  V30 19904 H 1819.96 -4.47026 -1.13867 0
M  V30 19905 H 1818.2 -4.22036 -1.0034 0
M  V30 19906 H 1818.87 -4.93534 -2.47242 0
M  V30 19907 H 1821.35 -3.04337 -2.83757 0
M  V30 19908 H 1820.22 -3.69865 -4.05575 0
M  V30 19909 H 1820.48 -1.96419 -3.9607 0
M  V30 19910 N 1819.54 0.750537 -1.38581 0
M  V30 19911 C 1820.79 1.51102 -1.36161 0
M  V30 19912 C 1821.14 1.92342 0.0472582 0
M  V30 19913 O 1820.44 1.62784 1.01054 0
M  V30 19914 C 1820.63 2.77356 -2.25407 0
M  V30 19915 C 1820.46 2.48459 -3.74831 0
M  V30 19916 C 1819.23 2.41527 -4.43839 0
M  V30 19917 C 1821.43 2.15033 -4.67189 0
M  V30 19918 N 1819.41 2.04937 -5.78683 0
M  V30 19919 C 1820.78 1.88759 -5.90567 0
M  V30 19920 C 1822.83 2.01368 -4.55363 0
M  V30 19921 C 1821.54 1.50199 -7.03443 0
M  V30 19922 C 1823.56 1.6421 -5.68145 0
M  V30 19923 C 1822.93 1.38811 -6.90587 0
M  V30 19924 H 1819.02 0.552384 -0.553531 0
M  V30 19925 H 1821.61 0.873708 -1.73996 0
M  V30 19926 H 1819.78 3.38891 -1.89755 0
M  V30 19927 H 1821.51 3.43434 -2.14091 0
M  V30 19928 H 1818.27 2.58101 -3.9709 0
M  V30 19929 H 1818.69 1.89279 -6.50002 0
M  V30 19930 H 1823.33 2.19679 -3.61249 0
M  V30 19931 H 1821.05 1.30628 -7.97472 0
M  V30 19932 H 1824.64 1.54265 -5.60975 0
M  V30 19933 H 1823.52 1.10487 -7.76378 0
M  V30 19934 N 1821.02 1.235 0.979051 0
M  V30 19935 C 1822.24 1.09551 1.76106 0
M  V30 19936 C 1822.67 -0.348792 1.84838 0
M  V30 19937 O 1822.03 -1.25231 1.31099 0
M  V30 19938 C 1822.08 1.7272 3.16544 0
M  V30 19939 O 1821.18 0.990263 4.00334 0
M  V30 19940 H 1820.52 0.383909 0.541766 0
M  V30 19941 H 1823.05 1.63581 1.22892 0
M  V30 19942 H 1823.06 1.78014 3.67117 0
M  V30 19943 H 1821.74 2.77813 3.09504 0
M  V30 19944 H 1820.31 1.01436 3.58839 0
M  V30 19945 N 1822.5 -1.17802 1.04693 0
M  V30 19946 C 1823.74 -1.89625 0.762995 0
M  V30 19947 C 1824.1 -1.78906 -0.696901 0
M  V30 19948 O 1825.3 -2.45498 -1.09472 0
M  V30 19949 C 1823.57 -3.35787 1.224 0
M  V30 19950 S 1825.13 -4.25638 1.06667 0
M  V30 19951 H 1821.95 -0.654723 0.277235 0
M  V30 19952 H 1824.55 -1.42304 1.34052 0
M  V30 19953 H 1823.26 -3.41121 2.28176 0
M  V30 19954 H 1822.79 -3.8815 0.640532 0
M  V30 19955 H 1824.8 -4.96199 -0.0121683 0
M  V30 19956 N 1823.98 -0.827251 -1.34143 0
M  V30 19957 C 1825.22 -0.427198 -1.98863 0
M  V30 19958 C 1825.58 0.999732 -1.64387 0
M  V30 19959 O 1824.87 1.68747 -0.907462 0
M  V30 19960 C 1825.06 -0.571534 -3.52801 0
M  V30 19961 C 1824.89 -2.01094 -4.02233 0
M  V30 19962 C 1823.66 -2.64374 -4.30621 0
M  V30 19963 C 1825.86 -2.97823 -4.19292 0
M  V30 19964 N 1823.84 -3.9951 -4.66117 0
M  V30 19965 C 1825.21 -4.17877 -4.58016 0
M  V30 19966 C 1827.27 -2.94382 -4.01552 0
M  V30 19967 C 1825.97 -5.34951 -4.80853 0
M  V30 19968 C 1828 -4.10676 -4.25558 0
M  V30 19969 C 1827.36 -5.29483 -4.64572 0
M  V30 19970 H 1823.46 -0.204514 -0.754783 0
M  V30 19971 H 1826.04 -1.07287 -1.62474 0
M  V30 19972 H 1824.21 0.044261 -3.88375 0
M  V30 19973 H 1825.95 -0.144059 -4.04444 0
M  V30 19974 H 1822.7 -2.15586 -4.21687 0
M  V30 19975 H 1823.12 -4.69142 -4.88093 0
M  V30 19976 H 1827.77 -2.03667 -3.70513 0
M  V30 19977 H 1825.48 -6.26221 -5.10757 0
M  V30 19978 H 1829.07 -4.09418 -4.13362 0
M  V30 19979 H 1827.95 -6.17974 -4.82781 0
M  V30 19980 N 1825.45 1.46436 -0.582609 0
M  V30 19981 C 1826.7 2.01592 -0.0658642 0
M  V30 19982 C 1827.02 1.45972 1.30198 0
M  V30 19983 O 1828.22 1.92948 1.91006 0
M  V30 19984 C 1826.68 3.59837 -0.0671547 0
M  V30 19985 C 1826.29 4.24453 -1.43331 0
M  V30 19986 C 1828.03 4.22652 0.395652 0
M  V30 19987 C 1825.94 5.74777 -1.39233 0
M  V30 19988 H 1824.87 0.753712 -0.0208533 0
M  V30 19989 H 1827.52 1.6817 -0.734241 0
M  V30 19990 H 1825.9 3.90336 0.667385 0
M  V30 19991 H 1827.07 4.05564 -2.18757 0
M  V30 19992 H 1825.39 3.73732 -1.83613 0
M  V30 19993 H 1827.99 5.32844 0.445101 0
M  V30 19994 H 1828.33 3.91581 1.41316 0
M  V30 19995 H 1828.86 3.96779 -0.284821 0
M  V30 19996 H 1825.6 6.10508 -2.38664 0
M  V30 19997 H 1825.12 5.9593 -0.680268 0
M  V30 19998 H 1826.8 6.37491 -1.1052 0
M  V30 19999 N 1826.93 0.320385 1.54309 0
M  V30 20000 C 1827.84 -0.556017 2.27916 0
M  V30 20001 C 1828.86 -1.13192 1.32149 0
M  V30 20002 O 1830.03 -1.15257 1.6516 0
M  V30 20003 C 1827.1 -1.70244 3.02023 0
M  V30 20004 C 1826.16 -1.15866 4.13369 0
M  V30 20005 C 1825.39 -2.25044 4.83933 0
M  V30 20006 O 1825.62 -3.45327 4.53988 0
M  V30 20007 O 1824.55 -1.90642 5.70911 0
M  V30 20008 H 1828.38 0.0416563 3.03671 0
M  V30 20009 H 1825.96 0.0861809 1.49151 0
M  V30 20010 H 1827.84 -2.36995 3.48442 0
M  V30 20011 H 1826.52 -2.28635 2.29146 0
M  V30 20012 H 1825.42 -0.456323 3.71306 0
M  V30 20013 H 1826.76 -0.619916 4.88281 0
M  V30 20014 N 1828.41 -1.57525 0.0484906 0
M  V30 20015 C 1829.34 -2.14405 -0.924811 0
M  V30 20016 C 1830.32 -1.06503 -1.32631 0
M  V30 20017 O 1831.51 -1.3443 -1.4015 0
M  V30 20018 C 1828.64 -2.68686 -2.20057 0
M  V30 20019 C 1827.59 -3.81547 -1.93922 0
M  V30 20020 C 1826.92 -4.22334 -3.27929 0
M  V30 20021 C 1828.22 -5.06801 -1.26295 0
M  V30 20022 H 1829.91 -2.95983 -0.45105 0
M  V30 20023 H 1827.46 -1.42378 -0.215514 0
M  V30 20024 H 1829.41 -3.07117 -2.88543 0
M  V30 20025 H 1828.13 -1.84296 -2.69634 0
M  V30 20026 H 1826.79 -3.43585 -1.27848 0
M  V30 20027 H 1826.44 -3.34899 -3.75302 0
M  V30 20028 H 1826.14 -4.984 -3.11242 0
M  V30 20029 H 1827.66 -4.63363 -3.97652 0
M  V30 20030 H 1829.08 -5.42695 -1.84812 0
M  V30 20031 H 1827.47 -5.87991 -1.19943 0
M  V30 20032 H 1828.54 -4.84313 -0.238605 0
M  V30 20033 N 1829.89 0.224867 -1.55988 0
M  V30 20034 C 1830.82 1.28192 -1.95164 0
M  V30 20035 C 1831.8 1.49062 -0.81942 0
M  V30 20036 O 1832.98 1.61301 -1.08146 0
M  V30 20037 C 1830.11 2.63237 -2.26547 0
M  V30 20038 C 1829.07 2.57029 -3.42228 0
M  V30 20039 C 1828.39 3.96073 -3.59207 0
M  V30 20040 C 1829.69 2.12101 -4.77295 0
M  V30 20041 H 1831.39 0.956495 -2.8371 0
M  V30 20042 H 1828.93 0.458673 -1.365 0
M  V30 20043 H 1830.89 3.37341 -2.52545 0
M  V30 20044 H 1829.61 2.97461 -1.3485 0
M  V30 20045 H 1828.27 1.85382 -3.16273 0
M  V30 20046 H 1827.92 4.27599 -2.64892 0
M  V30 20047 H 1827.62 3.92802 -4.37013 0
M  V30 20048 H 1829.14 4.71844 -3.8755 0
M  V30 20049 H 1830.56 2.75946 -5.0252 0
M  V30 20050 H 1828.95 2.19895 -5.5836 0
M  V30 20051 H 1830.02 1.07319 -4.72875 0
M  V30 20052 N 1831.37 1.49742 0.491438 0
M  V30 20053 C 1832.32 1.63507 1.58901 0
M  V30 20054 C 1833.3 0.490352 1.53246 0
M  V30 20055 O 1834.49 0.74378 1.60614 0
M  V30 20056 C 1831.62 1.71377 2.97464 0
M  V30 20057 C 1830.71 2.91458 3.08079 0
M  V30 20058 N 1831.1 4.15412 2.88559 0
M  V30 20059 C 1829.4 2.89594 3.39192 0
M  V30 20060 C 1830.1 4.96183 3.03608 0
M  V30 20061 N 1829.07 4.29735 3.3291 0
M  V30 20062 H 1832.87 2.57055 1.42478 0
M  V30 20063 H 1830.39 1.46646 0.697765 0
M  V30 20064 H 1832.39 1.79338 3.76355 0
M  V30 20065 H 1831.05 0.789729 3.1495 0
M  V30 20066 H 1832.06 4.45239 2.64543 0
M  V30 20067 H 1828.73 2.06607 3.62794 0
M  V30 20068 H 1830.12 6.04684 2.92927 0
M  V30 20069 N 1832.84 -0.743177 1.38977 0
M  V30 20070 C 1834.07 -1.53021 1.3881 0
M  V30 20071 C 1834.48 -1.89188 -0.0213066 0
M  V30 20072 O 1833.83 -1.54033 -1.00097 0
M  V30 20073 C 1833.89 -2.85158 2.18918 0
M  V30 20074 C 1833.55 -2.71471 3.67631 0
M  V30 20075 C 1834.55 -2.40567 4.60894 0
M  V30 20076 C 1832.23 -2.88598 4.11116 0
M  V30 20077 C 1834.23 -2.26959 5.95625 0
M  V30 20078 C 1831.91 -2.74609 5.45924 0
M  V30 20079 C 1832.91 -2.43833 6.37992 0
M  V30 20080 O 1832.6 -2.29922 7.70319 0
M  V30 20081 H 1832.33 -0.47975 0.476252 0
M  V30 20082 H 1834.89 -0.92667 1.83308 0
M  V30 20083 H 1833.12 -3.47741 1.69154 0
M  V30 20084 H 1834.81 -3.4673 2.11029 0
M  V30 20085 H 1835.57 -2.26994 4.28601 0
M  V30 20086 H 1831.45 -3.11547 3.39794 0
M  V30 20087 H 1834.99 -2.02859 6.67453 0
M  V30 20088 H 1830.89 -2.87758 5.77811 0
M  V30 20089 H 1831.66 -2.45054 7.80955 0
M  V30 20090 N 1834.32 -1.24018 -0.972487 0
M  V30 20091 C 1835.25 -1.0529 -2.08414 0
M  V30 20092 C 1836.23 0.0326663 -1.70069 0
M  V30 20093 O 1837.42 -0.133494 -1.93741 0
M  V30 20094 C 1834.55 -0.651796 -3.41129 0
M  V30 20095 C 1833.5 -1.68559 -3.9341 0
M  V30 20096 C 1832.83 -1.1397 -5.22413 0
M  V30 20097 C 1834.13 -3.08046 -4.21788 0
M  V30 20098 H 1835.82 -1.98272 -2.2434 0
M  V30 20099 H 1833.37 -0.954694 -1.07804 0
M  V30 20100 H 1835.32 -0.507792 -4.18329 0
M  V30 20101 H 1834.05 0.313722 -3.2509 0
M  V30 20102 H 1832.7 -1.81773 -3.18362 0
M  V30 20103 H 1832.35 -0.164928 -5.0273 0
M  V30 20104 H 1832.05 -1.83051 -5.5836 0
M  V30 20105 H 1833.58 -1.00771 -6.02227 0
M  V30 20106 H 1834.99 -2.98088 -4.8971 0
M  V30 20107 H 1833.39 -3.74436 -4.68954 0
M  V30 20108 H 1834.46 -3.56444 -3.28749 0
M  V30 20109 N 1835.8 1.17245 -1.05316 0
M  V30 20110 C 1837.08 1.83482 -0.677779 0
M  V30 20111 C 1837.46 1.93592 0.841753 0
M  V30 20112 O 1836.81 1.47142 1.74818 0
M  V30 20113 C 1837.02 3.21062 -1.36823 0
M  V30 20114 C 1838.36 3.96954 -1.50708 0
M  V30 20115 O 1839.39 3.30545 -1.32734 0
M  V30 20116 O 1838.25 5.15967 -1.80111 0
M  V30 20117 H 1835.34 0.79179 -0.238741 0
M  V30 20118 H 1837.89 1.24531 -1.15283 0
M  V30 20119 H 1836.66 3.08679 -2.40484 0
M  V30 20120 H 1836.28 3.8768 -0.882617 0
M  V30 20121 N 1837.28 0.834353 1.33702 0
M  V30 20122 C 1838.21 0.279313 2.31823 0
M  V30 20123 C 1839.19 -0.610495 1.58767 0
M  V30 20124 O 1840.37 -0.534989 1.86686 0
M  V30 20125 C 1837.5 -0.550201 3.42914 0
M  V30 20126 C 1836.46 0.243432 4.27307 0
M  V30 20127 C 1835.78 -0.709548 5.29971 0
M  V30 20128 C 1837.08 1.45799 5.01537 0
M  V30 20129 H 1838.78 1.09915 2.78494 0
M  V30 20130 H 1836.32 0.529987 1.33892 0
M  V30 20131 H 1838.28 -0.948764 4.10581 0
M  V30 20132 H 1837 -1.4032 2.9492 0
M  V30 20133 H 1835.66 0.6235 3.61259 0
M  V30 20134 H 1835.31 -1.55882 4.78236 0
M  V30 20135 H 1835.01 -0.182671 5.87316 0
M  V30 20136 H 1836.53 -1.10572 6.00505 0
M  V30 20137 H 1837.95 1.13283 5.61996 0
M  V30 20138 H 1836.34 1.92133 5.68511 0
M  V30 20139 H 1837.41 2.23016 4.30571 0
M  V30 20140 N 1838.76 -1.46125 0.590367 0
M  V30 20141 C 1839.67 -2.34177 -0.140761 0
M  V30 20142 C 1840.68 -1.50213 -0.878181 0
M  V30 20143 O 1841.86 -1.83063 -0.839644 0
M  V30 20144 C 1838.92 -3.27537 -1.13669 0
M  V30 20145 C 1837.98 -4.27403 -0.403103 0
M  V30 20146 C 1837.22 -5.16302 -1.35159 0
M  V30 20147 O 1837.44 -5.08283 -2.58853 0
M  V30 20148 O 1836.37 -5.95753 -0.858003 0
M  V30 20149 H 1840.2 -2.98063 0.582401 0
M  V30 20150 H 1837.79 -1.45225 0.35072 0
M  V30 20151 H 1839.67 -3.85112 -1.71074 0
M  V30 20152 H 1838.34 -2.66237 -1.84118 0
M  V30 20153 H 1837.25 -3.73493 0.212986 0
M  V30 20154 H 1838.58 -4.9151 0.260565 0
M  V30 20155 N 1840.23 -0.328564 -1.54137 0
M  V30 20156 C 1841.46 0.274326 -2.05073 0
M  V30 20157 C 1841.88 1.45393 -1.20442 0
M  V30 20158 O 1841.23 1.80964 -0.23625 0
M  V30 20159 C 1841.29 0.703941 -3.5458 0
M  V30 20160 O 1841.01 -0.428738 -4.35997 0
M  V30 20161 C 1842.51 1.36912 -4.21628 0
M  V30 20162 H 1839.73 0.0556157 -0.668691 0
M  V30 20163 H 1842.27 -0.476204 -1.98878 0
M  V30 20164 H 1840.43 1.40444 -3.61046 0
M  V30 20165 H 1840.84 -0.0892654 -5.24424 0
M  V30 20166 H 1842.31 1.62062 -5.27674 0
M  V30 20167 H 1842.79 2.31799 -3.73049 0
M  V30 20168 H 1843.4 0.711064 -4.19314 0
M  V30 20169 N 1841.71 1.57497 -0.0568439 0
M  V30 20170 C 1842.94 1.97231 0.625102 0
M  V30 20171 C 1843.36 0.934622 1.64043 0
M  V30 20172 O 1842.71 -0.0805064 1.82322 0
M  V30 20173 C 1842.76 3.37046 1.30698 0
M  V30 20174 O 1842.48 4.36838 0.332302 0
M  V30 20175 C 1843.99 3.9157 2.07816 0
M  V30 20176 H 1841.21 0.648975 0.170505 0
M  V30 20177 H 1843.75 2.04119 -0.124823 0
M  V30 20178 H 1841.9 3.31292 2.0081 0
M  V30 20179 H 1842.32 5.18055 0.819691 0
M  V30 20180 H 1843.79 4.91664 2.5094 0
M  V30 20181 H 1844.27 3.27303 2.92864 0
M  V30 20182 H 1844.88 4.0068 1.42603 0
M  V30 20183 N 1843.19 -0.216591 1.56105 0
M  V30 20184 C 1844.44 -0.937215 1.80521 0
M  V30 20185 C 1844.79 -1.81772 0.630605 0
M  V30 20186 O 1844.08 -1.87891 -0.375149 0
M  V30 20187 C 1844.28 -1.80637 3.08391 0
M  V30 20188 C 1844.11 -1.01149 4.38177 0
M  V30 20189 C 1842.88 -0.704448 5.00365 0
M  V30 20190 C 1845.08 -0.374425 5.12935 0
M  V30 20191 N 1843.06 0.11131 6.13799 0
M  V30 20192 C 1844.43 0.3045 6.19252 0
M  V30 20193 C 1846.48 -0.287961 4.97067 0
M  V30 20194 C 1845.19 1.06163 7.11423 0
M  V30 20195 C 1847.21 0.45571 5.89642 0
M  V30 20196 C 1846.57 1.12316 6.95388 0
M  V30 20197 H 1842.67 -0.323053 0.712152 0
M  V30 20198 H 1845.26 -0.207675 1.93589 0
M  V30 20199 H 1843.43 -2.50768 2.96597 0
M  V30 20200 H 1845.16 -2.46484 3.20979 0
M  V30 20201 H 1841.92 -1.02368 4.62404 0
M  V30 20202 H 1842.34 0.508169 6.7509 0
M  V30 20203 H 1846.98 -0.789639 4.15361 0
M  V30 20204 H 1844.7 1.57481 7.92607 0
M  V30 20205 H 1848.29 0.523682 5.79438 0
M  V30 20206 H 1847.17 1.68941 7.65786 0
M  V30 20207 N 1844.67 -1.5 -0.48349 0
M  V30 20208 C 1845.6 -1.70879 -1.5913 0
M  V30 20209 C 1846.58 -0.557606 -1.60701 0
M  V30 20210 O 1847.76 -0.79539 -1.77164 0
M  V30 20211 C 1844.89 -1.7915 -2.97527 0
M  V30 20212 C 1843.85 -2.94233 -3.10823 0
M  V30 20213 C 1843.17 -2.87634 -4.50745 0
M  V30 20214 C 1844.47 -4.34925 -2.89202 0
M  V30 20215 H 1846.17 -2.63632 -1.41911 0
M  V30 20216 H 1843.71 -1.26865 -0.68127 0
M  V30 20217 H 1845.67 -1.92342 -3.74943 0
M  V30 20218 H 1844.39 -0.830106 -3.15875 0
M  V30 20219 H 1843.05 -2.80672 -2.35837 0
M  V30 20220 H 1842.7 -1.89365 -4.65993 0
M  V30 20221 H 1842.4 -3.64885 -4.60579 0
M  V30 20222 H 1843.92 -3.02857 -5.30198 0
M  V30 20223 H 1845.34 -4.49076 -3.56376 0
M  V30 20224 H 1843.73 -5.13531 -3.10492 0
M  V30 20225 H 1844.8 -4.48154 -1.85165 0
M  V30 20226 N 1846.15 0.735796 -1.39369 0
M  V30 20227 C 1847.09 1.87116 -1.38168 0
M  V30 20228 C 1848.09 1.67315 -0.264936 0
M  V30 20229 O 1849.29 1.74666 -0.434928 0
M  V30 20230 H 1845.67 0.615926 -0.431438 0
M  V30 20231 H 1847.64 1.85245 -2.33938 0
M  V30 20232 C 1846.39 3.2479 -1.24125 0
M  V30 20233 H 1845.71 3.40621 -2.09325 0
M  V30 20234 H 1847.15 4.04426 -1.27341 0
M  V30 20235 C 1845.61 3.36862 0.050393 0
M  V30 20236 O 1846.14 3.88511 1.02088 0
M  V30 20237 N 1844.35 2.90379 0.113184 0
M  V30 20238 H 1843.89 2.48537 -0.677267 0
M  V30 20239 H 1843.85 2.98837 0.976928 0
M  V30 20240 N 1847.63 1.24532 0.965897 0
M  V30 20241 C 1848.85 1.11318 1.74401 0
M  V30 20242 C 1849.27 -0.33411 1.8582 0
M  V30 20243 O 1848.63 -1.23044 1.34783 0
M  V30 20244 C 1848.68 1.74927 3.16358 0
M  V30 20245 O 1848.4 3.13998 3.05511 0
M  V30 20246 C 1849.9 1.67347 4.105 0
M  V30 20247 H 1847.12 0.388835 0.546853 0
M  V30 20248 H 1849.66 1.64674 1.21255 0
M  V30 20249 H 1847.82 1.2557 3.66485 0
M  V30 20250 H 1848.23 3.45097 3.94979 0
M  V30 20251 H 1849.71 2.16533 5.07757 0
M  V30 20252 H 1850.18 0.635036 4.34585 0
M  V30 20253 H 1850.79 2.16139 3.66284 0
M  V30 20254 N 1849.1 -1.16685 1.05936 0
M  V30 20255 C 1850.03 -2.23129 0.688153 0
M  V30 20256 C 1851.01 -1.67108 -0.31765 0
M  V30 20257 O 1852.2 -1.93233 -0.193578 0
M  V30 20258 C 1849.33 -3.47229 0.069991 0
M  V30 20259 C 1848.28 -4.16121 1.00137 0
M  V30 20260 C 1847.61 -5.34131 0.246699 0
M  V30 20261 C 1848.91 -4.67508 2.32882 0
M  V30 20262 H 1850.6 -2.54436 1.57806 0
M  V30 20263 H 1848.15 -1.22298 0.76021 0
M  V30 20264 H 1850.1 -4.20918 -0.201545 0
M  V30 20265 H 1848.83 -3.15212 -0.854909 0
M  V30 20266 H 1847.49 -3.44355 1.25759 0
M  V30 20267 H 1847.13 -4.98366 -0.681204 0
M  V30 20268 H 1846.83 -5.81163 0.867373 0
M  V30 20269 H 1848.36 -6.10598 -0.0173762 0
M  V30 20270 H 1849.77 -5.32795 2.11666 0
M  V30 20271 H 1848.17 -5.25147 2.90414 0
M  V30 20272 H 1849.24 -3.83912 2.96209 0
M  V30 20273 N 1850.58 -0.841432 -1.33258 0
M  V30 20274 C 1851.49 -0.279006 -2.32935 0
M  V30 20275 C 1852.51 0.596298 -1.63463 0
M  V30 20276 O 1853.68 0.499812 -1.951 0
M  V30 20277 C 1850.75 0.534514 -3.42555 0
M  V30 20278 C 1849.81 -0.365366 -4.27742 0
M  V30 20279 C 1849.04 0.409423 -5.32127 0
M  V30 20280 O 1849.27 1.64085 -5.4629 0
M  V30 20281 O 1848.2 -0.217904 -6.01505 0
M  V30 20282 H 1852.03 -1.10448 -2.82904 0
M  V30 20283 H 1849.61 -0.60402 -1.36645 0
M  V30 20284 H 1851.49 0.996723 -4.09443 0
M  V30 20285 H 1850.17 1.33701 -2.94798 0
M  V30 20286 H 1849.07 -0.875469 -3.63712 0
M  V30 20287 H 1850.41 -1.1327 -4.78989 0
M  V30 20288 N 1852.06 1.4581 -0.598108 0
M  V30 20289 C 1852.97 2.34249 0.12834 0
M  V30 20290 C 1853.99 1.50677 0.870202 0
M  V30 20291 O 1855.16 1.83505 0.829924 0
M  V30 20292 C 1852.23 3.28135 1.1193 0
M  V30 20293 C 1851.29 4.27611 0.380432 0
M  V30 20294 C 1850.52 5.17012 1.32419 0
M  V30 20295 O 1850.74 5.09648 2.56154 0
M  V30 20296 O 1849.68 5.962 0.826397 0
M  V30 20297 H 1853.5 2.9775 -0.598199 0
M  V30 20298 H 1851.09 1.45037 -0.358416 0
M  V30 20299 H 1852.97 3.86014 1.6903 0
M  V30 20300 H 1851.65 2.6721 1.82703 0
M  V30 20301 H 1850.55 3.73375 -0.23279 0
M  V30 20302 H 1851.89 4.91365 -0.286627 0
M  V30 20303 N 1853.54 0.336733 1.53961 0
M  V30 20304 C 1854.95 -0.0154439 1.59593 0
M  V30 20305 C 1855.15 -1.49328 1.35291 0
M  V30 20306 O 1854.21 -2.25107 1.14381 0
M  V30 20307 C 1855.52 0.414613 2.97828 0
M  V30 20308 C 1857.07 0.36638 3.10848 0
M  V30 20309 C 1857.55 0.7718 4.5145 0
M  V30 20310 N 1859.04 0.725719 4.5748 0
M  V30 20311 C 1859.77 1.01145 5.64409 0
M  V30 20312 N 1859.27 1.36499 6.7922 0
M  V30 20313 N 1861.06 0.936141 5.5425 0
M  V30 20314 H 1853.21 1.29944 1.68012 0
M  V30 20315 H 1855.47 0.529259 0.786504 0
M  V30 20316 H 1855.18 1.44476 3.20655 0
M  V30 20317 H 1855.05 -0.21367 3.76594 0
M  V30 20318 H 1857.44 -0.65458 2.87749 0
M  V30 20319 H 1857.52 1.02978 2.34157 0
M  V30 20320 H 1857.17 1.79074 4.75284 0
M  V30 20321 H 1857.1 0.0859543 5.2653 0
M  V30 20322 H 1859.59 0.464858 3.7503 0
M  V30 20323 H 1859.9 1.56805 7.56725 0
M  V30 20324 H 1858.25 1.40338 6.80684 0
M  V30 20325 H 1861.44 0.659334 4.63433 0
M  V30 20326 H 1861.61 1.16217 6.37493 0
M  V30 20327 N 1855.02 -1.57465 0.0651956 0
M  V30 20328 C 1855.95 -2.07935 -0.940127 0
M  V30 20329 C 1856.93 -0.982966 -1.29524 0
M  V30 20330 O 1858.11 -1.25589 -1.40569 0
M  V30 20331 C 1855.24 -2.53152 -2.25014 0
M  V30 20332 C 1854.28 -3.74162 -2.04707 0
M  V30 20333 S 1855.12 -5.19166 -1.3125 0
M  V30 20334 C 1856.27 -5.6771 -2.63545 0
M  V30 20335 H 1856.51 -2.92882 -0.510656 0
M  V30 20336 H 1854.04 -1.53695 -0.147413 0
M  V30 20337 H 1856 -2.79866 -3.00309 0
M  V30 20338 H 1854.66 -1.68486 -2.65087 0
M  V30 20339 H 1853.85 -4.03768 -3.01641 0
M  V30 20340 H 1853.45 -3.47787 -1.3755 0
M  V30 20341 H 1855.74 -5.74152 -3.59661 0
M  V30 20342 H 1856.69 -6.66705 -2.38558 0
M  V30 20343 H 1857.1 -4.95498 -2.70448 0
M  V30 20344 N 1856.49 0.20831 -1.56217 0
M  V30 20345 C 1857.44 1.2582 -1.93489 0
M  V30 20346 C 1858.41 1.45907 -0.793748 0
M  V30 20347 O 1859.6 1.59258 -1.05078 0
M  V30 20348 C 1856.74 2.60077 -2.26835 0
M  V30 20349 C 1855.85 2.47678 -3.53948 0
M  V30 20350 C 1854.98 3.74549 -3.76678 0
M  V30 20351 C 1854.02 3.56928 -4.97261 0
M  V30 20352 N 1853.16 4.75779 -5.16313 0
M  V30 20353 H 1858 0.933346 -2.83006 0
M  V30 20354 H 1855.54 0.449531 -1.40063 0
M  V30 20355 H 1857.49 3.38277 -2.44181 0
M  V30 20356 H 1856.12 2.90632 -1.40474 0
M  V30 20357 H 1855.18 1.60844 -3.44722 0
M  V30 20358 H 1856.49 2.30585 -4.42303 0
M  V30 20359 H 1855.64 4.61191 -3.94193 0
M  V30 20360 H 1854.38 3.94582 -2.86629 0
M  V30 20361 H 1853.39 2.6867 -4.79683 0
M  V30 20362 H 1854.61 3.38353 -5.88808 0
M  V30 20363 H 1852.56 4.96101 -4.29209 0
M  V30 20364 H 1852.47 4.61462 -5.98823 0
M  V30 20365 H 1853.74 5.6381 -5.38274 0
M  V30 20366 N 1857.97 1.50255 0.475528 0
M  V30 20367 C 1859.2 1.65044 1.25599 0
M  V30 20368 C 1859.62 0.331736 1.85152 0
M  V30 20369 O 1858.98 -0.703863 1.67079 0
M  V30 20370 C 1859.03 2.7405 2.34369 0
M  V30 20371 O 1858.13 2.34994 3.38897 0
M  V30 20372 H 1857.47 0.551557 0.369704 0
M  V30 20373 H 1860 1.96603 0.566422 0
M  V30 20374 H 1860.01 2.96993 2.79749 0
M  V30 20375 H 1858.69 3.6976 1.90395 0
M  V30 20376 H 1857.26 2.22481 2.9926 0
M  V30 20377 N 1859.45 -0.728395 1.39758 0
M  V30 20378 C 1860.68 -1.5176 1.40629 0
M  V30 20379 C 1861.09 -1.888 0.00253909 0
M  V30 20380 O 1860.45 -1.54561 -0.970428 0
M  V30 20381 C 1860.5 -2.80102 2.28528 0
M  V30 20382 O 1860.22 -2.44633 3.63436 0
M  V30 20383 C 1861.72 -3.74087 2.37853 0
M  V30 20384 H 1858.94 -0.468767 0.480103 0
M  V30 20385 H 1861.49 -0.89953 1.83654 0
M  V30 20386 H 1859.64 -3.38225 1.88898 0
M  V30 20387 H 1860.06 -3.27124 4.09988 0
M  V30 20388 H 1861.53 -4.61017 3.03591 0
M  V30 20389 H 1862.01 -4.163 1.39968 0
M  V30 20390 H 1862.61 -3.2188 2.7798 0
M  V30 20391 N 1860.93 -1.25042 -0.959279 0
M  V30 20392 C 1861.84 -1.06749 -2.08906 0
M  V30 20393 C 1862.85 -0.00591805 -1.73999 0
M  V30 20394 O 1864.03 -0.205876 -2.00345 0
M  V30 20395 C 1861.09 -0.683353 -3.39899 0
M  V30 20396 C 1860.16 -1.82235 -3.88702 0
M  V30 20397 C 1859.39 -1.45644 -5.13443 0
M  V30 20398 O 1859.61 -0.350012 -5.69325 0
M  V30 20399 O 1858.55 -2.28502 -5.5684 0
M  V30 20400 H 1862.37 -2.01485 -2.27238 0
M  V30 20401 H 1859.96 -1.03938 -1.07318 0
M  V30 20402 H 1861.84 -0.481036 -4.18645 0
M  V30 20403 H 1860.51 0.234796 -3.22847 0
M  V30 20404 H 1859.42 -2.07948 -3.10979 0
M  V30 20405 H 1860.75 -2.71957 -4.10244 0
M  V30 20406 N 1862.41 1.16121 -1.06553 0
M  V30 20407 C 1863.65 1.86991 -0.784989 0
M  V30 20408 C 1863.99 1.81645 0.686919 0
M  V30 20409 O 1863.26 1.23394 1.50347 0
M  V30 20410 C 1863.54 3.36448 -1.28355 0
M  V30 20411 C 1863.4 3.5047 -2.81941 0
M  V30 20412 C 1864.72 4.30933 -0.893561 0
M  V30 20413 H 1861.83 0.678978 -0.286633 0
M  V30 20414 H 1864.48 1.36475 -1.32192 0
M  V30 20415 H 1862.63 3.796 -0.826796 0
M  V30 20416 H 1864.3 3.16237 -3.35845 0
M  V30 20417 H 1862.54 2.92294 -3.20541 0
M  V30 20418 H 1863.21 4.55443 -3.11891 0
M  V30 20419 H 1865.69 3.95696 -1.287 0
M  V30 20420 H 1864.56 5.3401 -1.26984 0
M  V30 20421 H 1864.83 4.41642 0.201274 0
M  V30 20422 N 1863.88 0.848487 1.3281 0
M  V30 20423 C 1864.81 0.303885 2.31514 0
M  V30 20424 C 1865.8 -0.593621 1.59406 0
M  V30 20425 O 1866.98 -0.515158 1.87243 0
M  V30 20426 C 1864.11 -0.5138 3.43478 0
M  V30 20427 C 1863.06 0.28874 4.27025 0
M  V30 20428 C 1862.39 -0.653297 5.30694 0
M  V30 20429 C 1863.69 1.51111 4.99963 0
M  V30 20430 H 1865.38 1.12862 2.77313 0
M  V30 20431 H 1862.93 0.544158 1.33323 0
M  V30 20432 H 1864.88 -0.905164 4.11564 0
M  V30 20433 H 1863.61 -1.37184 2.96392 0
M  V30 20434 H 1862.27 0.661782 3.60577 0
M  V30 20435 H 1861.91 -1.50801 4.79863 0
M  V30 20436 H 1861.61 -0.120368 5.87477 0
M  V30 20437 H 1863.14 -1.04197 6.01644 0
M  V30 20438 H 1864.55 1.19237 5.60763 0
M  V30 20439 H 1862.95 1.98152 5.66441 0
M  V30 20440 H 1864.02 2.2757 4.28182 0
M  V30 20441 N 1865.36 -1.4549 0.605832 0
M  V30 20442 C 1866.77 -1.85775 0.18559 0
M  V30 20443 C 1867.12 -1.50638 -1.25708 0
M  V30 20444 O 1866.25 -0.932227 -1.95291 0
M  V30 20445 C 1866.84 -3.37189 0.330043 0
M  V30 20446 C 1865.4 -3.76383 -0.0354934 0
M  V30 20447 C 1864.55 -2.69446 0.655297 0
M  V30 20448 H 1867.5 -1.36316 0.812624 0
M  V30 20449 H 1867.52 -3.77968 -0.438236 0
M  V30 20450 H 1867.03 -3.62731 1.38014 0
M  V30 20451 H 1865.14 -3.56458 -1.08483 0
M  V30 20452 H 1865.25 -4.77769 0.356935 0
M  V30 20453 H 1863.61 -2.5453 0.0931235 0
M  V30 20454 H 1864.4 -2.97825 1.70749 0
M  V30 20455 N 1866.84 -0.344893 -1.5378 0
M  V30 20456 C 1867.75 0.519687 -2.28772 0
M  V30 20457 C 1868.77 1.11076 -1.33934 0
M  V30 20458 O 1869.94 1.12615 -1.66972 0
M  V30 20459 C 1867.01 1.65417 -3.04693 0
M  V30 20460 C 1866.07 1.09275 -4.1516 0
M  V30 20461 C 1865.3 2.17316 -4.87452 0
M  V30 20462 O 1865.52 3.38061 -4.59425 0
M  V30 20463 O 1864.46 1.81535 -5.73872 0
M  V30 20464 H 1868.28 -0.0899625 -3.03567 0
M  V30 20465 H 1865.87 -0.109899 -1.48995 0
M  V30 20466 H 1867.75 2.31421 -3.52168 0
M  V30 20467 H 1866.43 2.24961 -2.32754 0
M  V30 20468 H 1865.33 0.397193 -3.71985 0
M  V30 20469 H 1866.67 0.542156 -4.89205 0
M  V30 20470 N 1868.32 1.57428 -0.0735454 0
M  V30 20471 C 1869.27 2.12821 0.893071 0
M  V30 20472 C 1870.24 1.04117 1.29418 0
M  V30 20473 O 1871.42 1.31789 1.37972 0
M  V30 20474 C 1868.56 2.69569 2.15468 0
M  V30 20475 C 1867.67 3.92436 1.80605 0
M  V30 20476 C 1866.81 4.37421 3.01391 0
M  V30 20477 C 1865.85 5.52931 2.62553 0
M  V30 20478 N 1864.98 5.92866 3.76104 0
M  V30 20479 H 1869.82 2.95113 0.413823 0
M  V30 20480 H 1867.36 1.45834 0.192613 0
M  V30 20481 H 1869.32 3.0058 2.89323 0
M  V30 20482 H 1867.95 1.9004 2.6093 0
M  V30 20483 H 1867 3.67876 0.968068 0
M  V30 20484 H 1868.31 4.76327 1.48033 0
M  V30 20485 H 1867.47 4.70102 3.83522 0
M  V30 20486 H 1866.21 3.52386 3.37158 0
M  V30 20487 H 1865.21 5.19899 1.78844 0
M  V30 20488 H 1866.44 6.39698 2.27954 0
M  V30 20489 H 1864.38 5.10781 4.11629 0
M  V30 20490 H 1864.3 6.71502 3.47305 0
M  V30 20491 H 1865.57 6.30171 4.58808 0
M  V30 20492 N 1869.8 -0.200022 1.56326 0
M  V30 20493 C 1871.02 -0.937503 1.84441 0
M  V30 20494 C 1871.44 -1.77058 0.655428 0
M  V30 20495 O 1870.8 -1.78587 -0.375913 0
M  V30 20496 C 1870.85 -1.83766 3.11307 0
M  V30 20497 O 1870.57 -1.03823 4.2562 0
M  V30 20498 C 1872.07 -2.68724 3.52565 0
M  V30 20499 H 1869.29 -0.273767 0.612611 0
M  V30 20500 H 1871.83 -0.208759 2.03432 0
M  V30 20501 H 1869.99 -2.52009 2.94228 0
M  V30 20502 H 1870.4 -1.6512 4.97831 0
M  V30 20503 H 1871.88 -3.2755 4.44314 0
M  V30 20504 H 1872.35 -3.4219 2.75323 0
M  V30 20505 H 1872.96 -2.0586 3.72158 0
M  V30 20506 N 1871.27 -1.50505 -0.467553 0
M  V30 20507 C 1872.55 -1.52191 -1.22871 0
M  V30 20508 C 1872.93 -0.268616 -2.09384 0
M  V30 20509 O 1872.28 0.747802 -2.15917 0
M  V30 20510 C 1872.49 -2.8196 -2.05669 0
M  V30 20511 C 1873.84 -3.32757 -2.63739 0
M  V30 20512 O 1874.86 -2.83305 -2.15909 0
M  V30 20513 O 1873.72 -4.18969 -3.50895 0
M  V30 20514 H 1870.81 -0.610599 -0.557761 0
M  V30 20515 H 1873.36 -1.62797 -0.479085 0
M  V30 20516 H 1872.13 -3.64649 -1.41939 0
M  V30 20517 H 1871.76 -2.74374 -2.87758 0
M  V30 20518 N 1872.75 0.720973 -1.40142 0
M  V30 20519 C 1873.72 1.81676 -1.39737 0
M  V30 20520 C 1874.72 1.58125 -0.292068 0
M  V30 20521 O 1875.91 1.65266 -0.550699 0
M  V30 20522 C 1873.04 3.19685 -1.18381 0
M  V30 20523 H 1874.23 1.83435 -2.37259 0
M  V30 20524 H 1871.78 0.926064 -1.25912 0
M  V30 20525 H 1872.52 3.2358 -0.21598 0
M  V30 20526 H 1872.3 3.38178 -1.98439 0
M  V30 20527 H 1873.79 3.99724 -1.20873 0
M  V30 20528 N 1874.23 1.25549 0.952634 0
M  V30 20529 C 1875.48 1.1058 1.7 0
M  V30 20530 C 1875.81 -0.35206 1.90982 0
M  V30 20531 O 1875.08 -1.25938 1.48222 0
M  V30 20532 C 1875.37 1.86283 3.08173 0
M  V30 20533 C 1875.22 3.39909 2.94588 0
M  V30 20534 C 1876.54 1.64755 4.08098 0
M  V30 20535 H 1873.66 0.403095 0.616996 0
M  V30 20536 H 1876.3 1.54406 1.1072 0
M  V30 20537 H 1874.45 1.49033 3.58778 0
M  V30 20538 H 1876.12 3.86845 2.51294 0
M  V30 20539 H 1874.37 3.67518 2.30462 0
M  V30 20540 H 1875.04 3.88094 3.92539 0
M  V30 20541 H 1877.51 1.97186 3.66411 0
M  V30 20542 H 1876.39 2.20157 5.02814 0
M  V30 20543 H 1876.65 0.589348 4.38154 0
M  V30 20544 N 1875.71 -1.15554 1.07168 0
M  V30 20545 C 1876.66 -2.22296 0.684626 0
M  V30 20546 C 1877.65 -1.66656 -0.303675 0
M  V30 20547 O 1878.86 -1.79218 -0.167588 0
M  V30 20548 H 1875.23 -0.723996 0.203306 0
M  V30 20549 H 1877.2 -2.52223 1.59456 0
M  V30 20550 C 1875.95 -3.47566 0.0965118 0
M  V30 20551 H 1875.27 -3.90701 0.848122 0
M  V30 20552 H 1876.71 -4.2378 -0.136671 0
M  V30 20553 C 1875.17 -3.16215 -1.16231 0
M  V30 20554 O 1875.7 -3.32838 -2.24903 0
M  V30 20555 N 1873.91 -2.70273 -1.06774 0
M  V30 20556 H 1873.46 -2.56947 -0.183357 0
M  V30 20557 H 1873.41 -2.49671 -1.9108 0
M  V30 20558 N 1877.19 -0.855519 -1.32358 0
M  V30 20559 C 1878.1 -0.303696 -2.32626 0
M  V30 20560 C 1879.11 0.578927 -1.64087 0
M  V30 20561 O 1880.29 0.479091 -1.95619 0
M  V30 20562 C 1877.35 0.498152 -3.43103 0
M  V30 20563 C 1876.42 -0.410714 -4.27331 0
M  V30 20564 C 1875.65 0.35296 -5.32532 0
M  V30 20565 O 1875.87 1.58282 -5.47999 0
M  V30 20566 O 1874.81 -0.281689 -6.0124 0
M  V30 20567 H 1878.63 -1.13443 -2.81717 0
M  V30 20568 H 1876.22 -0.618479 -1.35997 0
M  V30 20569 H 1878.1 0.95324 -4.10477 0
M  V30 20570 H 1876.77 1.30567 -2.96199 0
M  V30 20571 H 1875.68 -0.913997 -3.62763 0
M  V30 20572 H 1877.01 -1.18344 -4.77761 0
M  V30 20573 N 1878.67 1.45167 -0.61354 0
M  V30 20574 C 1879.63 2.29016 0.0919454 0
M  V30 20575 C 1880.63 1.40091 0.789373 0
M  V30 20576 O 1881.82 1.6215 0.636631 0
M  V30 20577 C 1878.95 3.21257 1.14048 0
M  V30 20578 H 1880.14 2.92875 -0.645317 0
M  V30 20579 H 1877.7 1.51788 -0.372855 0
M  V30 20580 H 1878.43 2.6221 1.90831 0
M  V30 20581 H 1878.22 3.86766 0.644523 0
M  V30 20582 H 1879.71 3.84288 1.63439 0
M  V30 20583 N 1880.14 0.353044 1.53595 0
M  V30 20584 C 1881.07 -0.491481 2.28269 0
M  V30 20585 C 1882.05 -1.0946 1.30201 0
M  V30 20586 O 1883.24 -1.11421 1.59056 0
M  V30 20587 C 1880.37 -1.63776 3.06259 0
M  V30 20588 C 1879.32 -1.16251 4.1191 0
M  V30 20589 C 1878.65 -2.39805 4.7791 0
M  V30 20590 C 1879.95 -0.256191 5.21671 0
M  V30 20591 H 1881.64 0.131483 2.99111 0
M  V30 20592 H 1879.19 0.0646771 1.43855 0
M  V30 20593 H 1881.14 -2.2351 3.57241 0
M  V30 20594 H 1879.87 -2.28777 2.33085 0
M  V30 20595 H 1878.53 -0.587934 3.61855 0
M  V30 20596 H 1878.17 -3.03234 4.0132 0
M  V30 20597 H 1877.87 -2.08684 5.49295 0
M  V30 20598 H 1879.4 -3.00248 5.3168 0
M  V30 20599 H 1880.81 -0.760642 5.68232 0
M  V30 20600 H 1879.21 -0.0364273 6.00089 0
M  V30 20601 H 1880.28 0.705105 4.79746 0
M  V30 20602 N 1881.62 -1.57387 0.0818932 0
M  V30 20603 C 1882.53 -2.16804 -0.89629 0
M  V30 20604 C 1883.55 -1.1339 -1.3198 0
M  V30 20605 O 1884.72 -1.45702 -1.39042 0
M  V30 20606 C 1881.79 -2.72607 -2.14211 0
M  V30 20607 C 1880.85 -3.90929 -1.77406 0
M  V30 20608 C 1880.08 -4.44062 -2.96049 0
M  V30 20609 O 1880.31 -3.96166 -4.10376 0
M  V30 20610 O 1879.24 -5.35261 -2.75279 0
M  V30 20611 H 1883.07 -3.0077 -0.420827 0
M  V30 20612 H 1880.65 -1.48726 -0.141737 0
M  V30 20613 H 1882.53 -3.0833 -2.87247 0
M  V30 20614 H 1881.21 -1.91694 -2.60835 0
M  V30 20615 H 1880.11 -3.60042 -1.01591 0
M  V30 20616 H 1881.45 -4.73165 -1.35556 0
M  V30 20617 N 1883.1 0.191729 -1.56429 0
M  V30 20618 C 1884.32 0.931804 -1.85289 0
M  V30 20619 C 1884.75 1.7592 -0.665864 0
M  V30 20620 O 1884.11 1.77158 0.385313 0
M  V30 20621 C 1884.16 1.801 -3.12404 0
M  V30 20622 O 1883.26 2.9002 -2.93193 0
M  V30 20623 H 1882.6 0.262213 -0.610033 0
M  V30 20624 H 1885.13 0.196028 -2.03659 0
M  V30 20625 H 1885.14 2.20499 -3.43285 0
M  V30 20626 H 1883.82 1.19309 -3.9842 0
M  V30 20627 H 1882.39 2.53352 -2.73619 0
M  V30 20628 N 1884.58 1.50751 0.459565 0
M  V30 20629 C 1885.51 1.73389 1.56392 0
M  V30 20630 C 1886.49 0.583101 1.59793 0
M  V30 20631 O 1887.67 0.823474 1.75876 0
M  V30 20632 C 1884.8 1.83861 2.94639 0
M  V30 20633 C 1883.76 2.9914 3.06103 0
M  V30 20634 C 1883.08 2.94768 4.46112 0
M  V30 20635 C 1884.38 4.39471 2.82246 0
M  V30 20636 H 1886.08 2.65856 1.37699 0
M  V30 20637 H 1883.62 1.27933 0.661001 0
M  V30 20638 H 1885.58 1.98283 3.71836 0
M  V30 20639 H 1884.3 0.880254 3.14514 0
M  V30 20640 H 1882.96 2.84388 2.31342 0
M  V30 20641 H 1882.61 1.96755 4.62922 0
M  V30 20642 H 1882.31 3.72166 4.54716 0
M  V30 20643 H 1883.83 3.11254 5.25313 0
M  V30 20644 H 1885.25 4.54689 3.49186 0
M  V30 20645 H 1883.64 5.18406 3.02283 0
M  V30 20646 H 1884.71 4.51043 1.78012 0
M  V30 20647 N 1886.06 -0.713531 1.40522 0
M  V30 20648 C 1886.97 -1.8577 1.43272 0
M  V30 20649 C 1887.98 -1.70936 0.325113 0
M  V30 20650 O 1889.16 -1.93165 0.570022 0
M  V30 20651 C 1886.22 -3.21587 1.29548 0
M  V30 20652 C 1885.28 -3.4866 2.50469 0
M  V30 20653 C 1884.52 -4.77998 2.3739 0
M  V30 20654 O 1884.74 -5.53234 1.38881 0
M  V30 20655 O 1883.67 -5.05453 3.26804 0
M  V30 20656 H 1887.5 -1.86406 2.39763 0
M  V30 20657 H 1885.08 -0.864226 1.21867 0
M  V30 20658 H 1886.97 -4.02709 1.2411 0
M  V30 20659 H 1885.64 -3.21674 0.36163 0
M  V30 20660 H 1884.55 -2.67539 2.61483 0
M  V30 20661 H 1885.88 -3.53372 3.42621 0
M  V30 20662 N 1887.53 -1.26053 -0.945962 0
M  V30 20663 C 1888.76 -1.14181 -1.7314 0
M  V30 20664 C 1889.18 0.299663 -1.85698 0
M  V30 20665 O 1888.54 1.21711 -1.34373 0
M  V30 20666 C 1888.59 -1.81052 -3.11854 0
M  V30 20667 O 1887.69 -1.09606 -3.97568 0
M  V30 20668 H 1887.03 -0.398138 -0.531397 0
M  V30 20669 H 1889.56 -1.66782 -1.18511 0
M  V30 20670 H 1889.57 -1.87685 -3.62269 0
M  V30 20671 H 1888.25 -2.85921 -3.0203 0
M  V30 20672 H 1886.83 -1.10915 -3.56023 0
M  V30 20673 N 1889.01 1.14984 -1.07779 0
M  V30 20674 C 1890.26 1.86148 -0.804777 0
M  V30 20675 C 1890.59 1.82364 0.667615 0
M  V30 20676 O 1889.87 1.24982 1.4903 0
M  V30 20677 C 1890.15 3.35067 -1.31916 0
M  V30 20678 C 1890 3.4746 -2.85642 0
M  V30 20679 C 1891.32 4.29961 -0.939217 0
M  V30 20680 H 1888.44 0.675899 -0.293818 0
M  V30 20681 H 1891.08 1.35065 -1.33632 0
M  V30 20682 H 1889.23 3.78702 -0.867011 0
M  V30 20683 H 1890.9 3.12658 -3.3918 0
M  V30 20684 H 1889.15 2.88878 -3.23623 0
M  V30 20685 H 1889.82 4.52109 -3.16704 0
M  V30 20686 H 1892.29 3.94309 -1.3289 0
M  V30 20687 H 1891.17 5.32633 -1.32641 0
M  V30 20688 H 1891.43 4.4183 0.15442 0
M  V30 20689 N 1890.49 0.862526 1.31902 0
M  V30 20690 C 1891.42 0.328423 2.31179 0
M  V30 20691 C 1892.4 -0.57668 1.60026 0
M  V30 20692 O 1893.59 -0.49527 1.87778 0
M  V30 20693 C 1890.72 -0.47734 3.44004 0
M  V30 20694 C 1889.67 0.334015 4.26695 0
M  V30 20695 C 1889 -0.596973 5.31357 0
M  V30 20696 C 1890.3 1.56405 4.98332 0
M  V30 20697 H 1891.99 1.15797 2.761 0
M  V30 20698 H 1889.54 0.558268 1.32738 0
M  V30 20699 H 1891.49 -0.861461 4.12501 0
M  V30 20700 H 1890.21 -1.34033 2.9783 0
M  V30 20701 H 1888.87 0.699989 3.59855 0
M  V30 20702 H 1888.52 -1.45703 4.81435 0
M  V30 20703 H 1888.22 -0.0580517 5.87571 0
M  V30 20704 H 1889.74 -0.978099 6.02715 0
M  V30 20705 H 1891.16 1.25178 5.59467 0
M  V30 20706 H 1889.55 2.04149 5.64308 0
M  V30 20707 H 1890.62 2.32099 4.25744 0
M  V30 20708 N 1891.97 -1.4484 0.62123 0
M  V30 20709 C 1893.38 -1.57016 0.286009 0
M  V30 20710 C 1893.58 -1.6104 -1.21113 0
M  V30 20711 O 1892.64 -1.54807 -1.99477 0
M  V30 20712 C 1893.95 -2.84652 0.969209 0
M  V30 20713 C 1895.5 -2.98349 0.946414 0
M  V30 20714 C 1895.98 -4.28773 1.60989 0
M  V30 20715 N 1897.47 -4.35564 1.57601 0
M  V30 20716 C 1898.2 -5.3518 2.0584 0
M  V30 20717 N 1897.7 -6.41256 2.62226 0
M  V30 20718 N 1899.49 -5.26625 1.96527 0
M  V30 20719 H 1891.64 -1.40471 1.59316 0
M  V30 20720 H 1893.91 -0.672493 0.668174 0
M  V30 20721 H 1893.61 -2.87629 2.02392 0
M  V30 20722 H 1893.49 -3.7386 0.500859 0
M  V30 20723 H 1895.87 -2.94931 -0.0997935 0
M  V30 20724 H 1895.95 -2.10516 1.45316 0
M  V30 20725 H 1895.6 -4.3295 2.65549 0
M  V30 20726 H 1895.53 -5.15447 1.07805 0
M  V30 20727 H 1898.02 -3.59519 1.16424 0
M  V30 20728 H 1898.33 -7.13536 2.96792 0
M  V30 20729 H 1896.68 -6.41969 2.66272 0
M  V30 20730 H 1899.87 -4.42664 1.52206 0
M  V30 20731 H 1900.04 -6.04107 2.34434 0
M  V30 20732 N 1893.45 -0.361184 -1.53405 0
M  V30 20733 C 1894.4 0.503718 -2.22366 0
M  V30 20734 C 1895.38 1.05217 -1.2173 0
M  V30 20735 O 1896.57 0.982945 -1.47198 0
M  V30 20736 C 1893.7 1.64517 -3.01312 0
M  V30 20737 C 1892.79 1.1098 -4.09322 0
M  V30 20738 N 1893.18 0.297072 -5.04927 0
M  V30 20739 C 1891.48 1.38503 -4.23949 0
M  V30 20740 C 1892.18 0.00446147 -5.817 0
M  V30 20741 N 1891.15 0.600899 -5.40269 0
M  V30 20742 H 1894.96 -0.124086 -2.93638 0
M  V30 20743 H 1892.47 -0.168968 -1.61519 0
M  V30 20744 H 1894.47 2.27692 -3.49231 0
M  V30 20745 H 1893.13 2.27607 -2.31571 0
M  V30 20746 H 1894.14 -0.0633533 -5.17861 0
M  V30 20747 H 1890.81 2.01904 -3.65432 0
M  V30 20748 H 1892.2 -0.65228 -6.68726 0
M  V30 20749 N 1894.92 1.57341 -0.0902386 0
M  V30 20750 C 1896.34 1.8145 0.439638 0
M  V30 20751 C 1896.69 1.00551 1.68475 0
M  V30 20752 O 1895.81 0.233442 2.15137 0
M  V30 20753 C 1896.41 3.29113 0.804384 0
M  V30 20754 C 1894.97 3.54003 1.27903 0
M  V30 20755 C 1894.11 2.7595 0.27328 0
M  V30 20756 H 1897.06 1.55527 -0.315738 0
M  V30 20757 H 1897.08 3.4217 1.66432 0
M  V30 20758 H 1896.6 3.87966 -0.102017 0
M  V30 20759 H 1894.7 3.00475 2.20331 0
M  V30 20760 H 1894.81 4.62662 1.24422 0
M  V30 20761 H 1893.17 2.43271 0.754419 0
M  V30 20762 H 1893.96 3.3755 -0.625715 0
M  V30 20763 N 1896.4 -0.183431 1.56529 0
M  V30 20764 C 1897.37 -1.21097 1.94597 0
M  V30 20765 C 1898.37 -1.37825 0.828305 0
M  V30 20766 O 1899.56 -1.35438 1.09555 0
M  V30 20767 C 1896.69 -2.57826 2.23021 0
M  V30 20768 H 1897.88 -0.885275 2.86536 0
M  V30 20769 H 1895.43 -0.425412 1.50399 0
M  V30 20770 H 1896.17 -2.95431 1.33758 0
M  V30 20771 H 1895.95 -2.47054 3.04478 0
M  V30 20772 H 1897.44 -3.31902 2.53437 0
M  V30 20773 N 1897.88 -1.50992 -0.451564 0
M  V30 20774 C 1899.16 -1.53486 -1.2125 0
M  V30 20775 C 1899.54 -0.290809 -2.09087 0
M  V30 20776 O 1898.89 0.724859 -2.16698 0
M  V30 20777 C 1899.1 -2.84125 -2.02667 0
M  V30 20778 C 1900.44 -3.35535 -2.60195 0
M  V30 20779 O 1901.47 -2.85579 -2.12892 0
M  V30 20780 O 1900.33 -4.22667 -3.46432 0
M  V30 20781 H 1897.42 -0.616481 -0.551253 0
M  V30 20782 H 1899.97 -1.63296 -0.461792 0
M  V30 20783 H 1898.74 -3.66134 -1.38064 0
M  V30 20784 H 1898.36 -2.7741 -2.84832 0
M  V30 20785 N 1899.36 0.706069 -1.40899 0
M  V30 20786 C 1900.31 1.84143 -1.42106 0
M  V30 20787 C 1901.3 1.66716 -0.300367 0
M  V30 20788 O 1902.51 1.73705 -0.471879 0
M  V30 20789 H 1898.88 0.606636 -0.444406 0
M  V30 20790 H 1900.85 1.80241 -2.37815 0
M  V30 20791 C 1899.6 3.22084 -1.30986 0
M  V30 20792 H 1898.92 3.36105 -2.16503 0
M  V30 20793 H 1900.36 4.01634 -1.35891 0
M  V30 20794 C 1898.82 3.36893 -0.0210718 0
M  V30 20795 O 1899.35 3.90589 0.938242 0
M  V30 20796 N 1897.56 2.90554 0.0515652 0
M  V30 20797 H 1897.11 2.47045 -0.729833 0
M  V30 20798 H 1897.06 3.00842 0.91332 0
M  V30 20799 N 1900.84 1.26553 0.939264 0
M  V30 20800 C 1902.25 1.03707 1.21314 0
M  V30 20801 C 1902.45 -0.236596 2.00106 0
M  V30 20802 O 1901.51 -0.945218 2.34141 0
M  V30 20803 C 1902.82 2.26961 1.97254 0
M  V30 20804 C 1904.37 2.31881 2.10238 0
M  V30 20805 C 1904.84 3.54833 2.89582 0
M  V30 20806 N 1906.34 3.55321 2.97155 0
M  V30 20807 C 1907.07 4.47125 3.58981 0
M  V30 20808 N 1906.57 5.49219 4.22292 0
M  V30 20809 N 1908.36 4.34772 3.56272 0
M  V30 20810 H 1900.51 2.08355 0.412571 0
M  V30 20811 H 1902.77 0.915775 0.245073 0
M  V30 20812 H 1902.48 3.19612 1.46769 0
M  V30 20813 H 1902.35 2.3136 2.97913 0
M  V30 20814 H 1904.74 1.39743 2.59915 0
M  V30 20815 H 1904.82 2.31492 1.08836 0
M  V30 20816 H 1904.47 4.47301 2.40591 0
M  V30 20817 H 1904.4 3.52471 3.91244 0
M  V30 20818 H 1906.89 2.81479 2.52147 0
M  V30 20819 H 1907.2 6.15454 4.67371 0
M  V30 20820 H 1905.54 5.53074 4.20873 0
M  V30 20821 H 1908.74 3.5423 3.06005 0
M  V30 20822 H 1908.91 5.06511 4.04167 0
M  V30 20823 N 1902.31 -1.14411 1.08387 0
M  V30 20824 C 1903.54 -1.89307 0.834895 0
M  V30 20825 C 1903.96 -1.78574 -0.612923 0
M  V30 20826 O 1903.31 -1.14494 -1.42118 0
M  V30 20827 C 1903.37 -3.39289 1.24761 0
M  V30 20828 O 1903.09 -3.49725 2.63863 0
M  V30 20829 C 1904.59 -4.31181 1.02947 0
M  V30 20830 H 1901.81 -0.599644 0.301112 0
M  V30 20831 H 1904.35 -1.44897 1.44309 0
M  V30 20832 H 1902.51 -3.81322 0.683524 0
M  V30 20833 H 1902.92 -4.42884 2.80988 0
M  V30 20834 H 1904.39 -5.34789 1.36763 0
M  V30 20835 H 1904.87 -4.39187 -0.0335224 0
M  V30 20836 H 1905.48 -3.94903 1.57898 0
M  V30 20837 N 1903.79 -0.869509 -1.31443 0
M  V30 20838 C 1904.72 -0.282169 -2.27456 0
M  V30 20839 C 1905.74 0.55453 -1.53065 0
M  V30 20840 O 1906.93 0.376597 -1.74482 0
M  V30 20841 C 1904.03 0.618652 -3.33206 0
M  V30 20842 C 1903.2 -0.185505 -4.37006 0
M  V30 20843 C 1902.26 0.643383 -5.22252 0
M  V30 20844 O 1901.28 0.0715827 -5.69155 0
M  V30 20845 N 1902.49 1.95545 -5.46573 0
M  V30 20846 H 1905.25 -1.10726 -2.78496 0
M  V30 20847 H 1902.81 -0.730947 -1.4446 0
M  V30 20848 H 1904.8 1.17886 -3.8715 0
M  V30 20849 H 1903.37 1.34442 -2.82213 0
M  V30 20850 H 1902.59 -0.927156 -3.83142 0
M  V30 20851 H 1903.88 -0.73731 -5.03429 0
M  V30 20852 H 1903.28 2.44315 -5.10222 0
M  V30 20853 H 1901.84 2.46345 -6.03455 0
M  V30 20854 N 1905.27 1.44508 -0.628902 0
M  V30 20855 C 1906.52 2.01281 -0.129966 0
M  V30 20856 C 1906.83 1.50041 1.25488 0
M  V30 20857 O 1908.04 1.98927 1.84771 0
M  V30 20858 C 1906.49 3.59442 -0.1816 0
M  V30 20859 C 1906.1 4.19678 -1.56762 0
M  V30 20860 C 1907.85 4.23697 0.260988 0
M  V30 20861 C 1905.75 5.70056 -1.57449 0
M  V30 20862 H 1904.68 0.752667 -0.0448215 0
M  V30 20863 H 1907.33 1.65749 -0.787372 0
M  V30 20864 H 1905.72 3.92261 0.542864 0
M  V30 20865 H 1906.89 3.98399 -2.31549 0
M  V30 20866 H 1905.21 3.67701 -1.9541 0
M  V30 20867 H 1907.8 5.33991 0.275356 0
M  V30 20868 H 1908.15 3.95878 1.28787 0
M  V30 20869 H 1908.68 3.95672 -0.410909 0
M  V30 20870 H 1905.42 6.02606 -2.57966 0
M  V30 20871 H 1904.94 5.93464 -0.869514 0
M  V30 20872 H 1906.62 6.33652 -1.30745 0
M  V30 20873 N 1906.75 0.369315 1.53212 0
M  V30 20874 C 1908.17 0.0184115 1.59589 0
M  V30 20875 C 1908.37 -1.46424 1.38428 0
M  V30 20876 O 1907.42 -2.2263 1.1913 0
M  V30 20877 C 1908.73 0.477693 2.96881 0
M  V30 20878 C 1910.28 0.432233 3.10001 0
M  V30 20879 C 1910.76 0.867386 4.49711 0
M  V30 20880 N 1912.25 0.822594 4.55837 0
M  V30 20881 C 1912.98 1.13094 5.62136 0
M  V30 20882 N 1912.48 1.50876 6.76172 0
M  V30 20883 N 1914.27 1.0535 5.52139 0
M  V30 20884 H 1906.42 1.33479 1.65218 0
M  V30 20885 H 1908.69 0.545823 0.775101 0
M  V30 20886 H 1908.39 1.51245 3.17518 0
M  V30 20887 H 1908.27 -0.133741 3.76963 0
M  V30 20888 H 1910.65 -0.593397 2.89072 0
M  V30 20889 H 1910.73 1.07921 2.3192 0
M  V30 20890 H 1910.38 1.89115 4.71379 0
M  V30 20891 H 1910.31 0.19762 5.26229 0
M  V30 20892 H 1912.8 0.544303 3.7396 0
M  V30 20893 H 1913.11 1.72821 7.53228 0
M  V30 20894 H 1911.46 1.54745 6.77554 0
M  V30 20895 H 1914.65 0.757487 4.6193 0
M  V30 20896 H 1914.82 1.29713 6.34885 0
M  V30 20897 N 1908.23 -1.57291 0.0985816 0
M  V30 20898 C 1909.14 -2.17742 -0.873245 0
M  V30 20899 C 1910.15 -1.14784 -1.3077 0
M  V30 20900 O 1911.33 -1.47169 -1.37489 0
M  V30 20901 C 1908.39 -2.74864 -2.11308 0
M  V30 20902 C 1907.46 -3.92789 -1.73249 0
M  V30 20903 C 1906.69 -4.47177 -2.91322 0
M  V30 20904 O 1906.91 -4.00497 -4.06151 0
M  V30 20905 O 1905.85 -5.38151 -2.69587 0
M  V30 20906 H 1909.67 -3.012 -0.388902 0
M  V30 20907 H 1907.26 -1.48868 -0.125955 0
M  V30 20908 H 1909.14 -3.11359 -2.8396 0
M  V30 20909 H 1907.81 -1.9445 -2.58787 0
M  V30 20910 H 1906.72 -3.61099 -0.977663 0
M  V30 20911 H 1908.05 -4.74577 -1.3053 0
M  V30 20912 N 1909.71 0.175127 -1.56624 0
M  V30 20913 C 1910.64 1.21918 -1.99144 0
M  V30 20914 C 1911.62 1.4638 -0.866428 0
M  V30 20915 O 1912.8 1.57779 -1.13223 0
M  V30 20916 C 1909.93 2.55897 -2.34807 0
M  V30 20917 C 1908.89 2.46011 -3.50232 0
M  V30 20918 C 1908.21 3.84445 -3.71626 0
M  V30 20919 C 1909.51 1.96808 -4.83801 0
M  V30 20920 H 1911.21 0.86575 -2.8661 0
M  V30 20921 H 1908.75 0.415014 -1.3789 0
M  V30 20922 H 1910.7 3.29136 -2.63149 0
M  V30 20923 H 1909.43 2.9302 -1.44245 0
M  V30 20924 H 1908.09 1.75227 -3.22011 0
M  V30 20925 H 1907.74 4.18955 -2.78362 0
M  V30 20926 H 1907.44 3.787 -4.49288 0
M  V30 20927 H 1908.96 4.59276 -4.02366 0
M  V30 20928 H 1910.37 2.59819 -5.11045 0
M  V30 20929 H 1908.77 2.0202 -5.65073 0
M  V30 20930 H 1909.84 0.922209 -4.7605 0
M  V30 20931 N 1911.18 1.5123 0.44355 0
M  V30 20932 C 1912.43 1.63267 1.19114 0
M  V30 20933 C 1912.75 0.348151 1.91867 0
M  V30 20934 O 1912.02 -0.635724 1.85298 0
M  V30 20935 H 1910.6 0.601701 0.442679 0
M  V30 20936 H 1913.26 1.88132 0.509134 0
M  V30 20937 H 1912.36 2.45732 1.92411 0
M  V30 20938 N 1912.66 -0.698586 1.41271 0
M  V30 20939 C 1913.59 -1.82385 1.38811 0
M  V30 20940 C 1914.61 -1.60183 0.290752 0
M  V30 20941 O 1915.8 -1.69742 0.552272 0
M  V30 20942 C 1912.9 -3.19095 1.14155 0
M  V30 20943 C 1912.07 -3.68352 2.35872 0
M  V30 20944 C 1911.13 -4.83723 2.07119 0
M  V30 20945 O 1910.15 -4.95495 2.80132 0
M  V30 20946 N 1911.36 -5.70748 1.05958 0
M  V30 20947 H 1914.12 -1.84989 2.35795 0
M  V30 20948 H 1911.68 -0.880792 1.35844 0
M  V30 20949 H 1913.67 -3.93899 0.928763 0
M  V30 20950 H 1912.24 -3.11535 0.257783 0
M  V30 20951 H 1911.46 -2.8449 2.72872 0
M  V30 20952 H 1912.75 -3.97999 3.16977 0
M  V30 20953 H 1912.15 -5.63865 0.455223 0
M  V30 20954 H 1910.71 -6.45463 0.906689 0
M  V30 20955 N 1914.14 -1.27049 -0.93254 0
M  V30 20956 C 1915.37 -1.15903 -1.71389 0
M  V30 20957 C 1915.78 0.284726 -1.86641 0
M  V30 20958 O 1915.14 1.19428 -1.37997 0
M  V30 20959 C 1915.19 -1.83254 -3.11609 0
M  V30 20960 O 1914.91 -3.21988 -2.97078 0
M  V30 20961 C 1916.41 -1.78172 -4.05918 0
M  V30 20962 H 1913.63 -0.403197 -0.536352 0
M  V30 20963 H 1916.18 -1.67831 -1.16846 0
M  V30 20964 H 1914.33 -1.35243 -3.63026 0
M  V30 20965 H 1914.75 -3.55447 -3.85691 0
M  V30 20966 H 1916.22 -2.29919 -5.01838 0
M  V30 20967 H 1916.7 -0.750036 -4.32748 0
M  V30 20968 H 1917.3 -2.25774 -3.60425 0
M  V30 20969 N 1915.62 1.13835 -1.08993 0
M  V30 20970 C 1916.55 2.21226 -0.74707 0
M  V30 20971 C 1917.53 1.67891 0.273232 0
M  V30 20972 O 1918.71 1.93678 0.142278 0
M  V30 20973 C 1915.84 3.46922 -0.162028 0
M  V30 20974 C 1914.8 4.1332 -1.11135 0
M  V30 20975 C 1914.12 5.33289 -0.388228 0
M  V30 20976 C 1915.42 4.61169 -2.45195 0
M  V30 20977 H 1917.12 2.50162 -1.64497 0
M  V30 20978 H 1914.66 1.20239 -0.792368 0
M  V30 20979 H 1916.62 4.21304 0.0898753 0
M  V30 20980 H 1915.34 3.17368 0.771036 0
M  V30 20981 H 1914 3.40899 -1.34845 0
M  V30 20982 H 1913.65 4.99997 0.548832 0
M  V30 20983 H 1913.35 5.78659 -1.02115 0
M  V30 20984 H 1914.87 6.10429 -0.144519 0
M  V30 20985 H 1916.29 5.26996 -2.25717 0
M  V30 20986 H 1914.68 5.17263 -3.04235 0
M  V30 20987 H 1915.75 3.75923 -3.06284 0
M  V30 20988 N 1917.1 0.876467 1.3098 0
M  V30 20989 C 1918.34 0.486745 1.95739 0
M  V30 20990 C 1918.66 -0.967265 1.7001 0
M  V30 20991 O 1919.86 -1.46344 2.28683 0
M  V30 20992 C 1918.32 0.819534 3.50445 0
M  V30 20993 C 1917.93 2.29074 3.85005 0
M  V30 20994 C 1919.67 0.498597 4.21562 0
M  V30 20995 C 1917.58 2.5656 5.32851 0
M  V30 20996 H 1916.51 0.178295 0.732616 0
M  V30 20997 H 1919.16 1.07027 1.49055 0
M  V30 20998 H 1917.54 0.165191 3.95655 0
M  V30 20999 H 1918.72 2.98869 3.50733 0
M  V30 21000 H 1917.03 2.57836 3.2697 0
M  V30 21001 H 1919.63 0.6811 5.30344 0
M  V30 21002 H 1919.97 -0.561426 4.12497 0
M  V30 21003 H 1920.5 1.10976 3.82007 0
M  V30 21004 H 1917.24 3.61271 5.46959 0
M  V30 21005 H 1916.76 1.91366 5.68453 0
M  V30 21006 H 1918.44 2.41623 6.00189 0
M  V30 21007 N 1918.57 -1.44173 0.636557 0
M  V30 21008 C 1919.85 -1.9546 0.0738864 0
M  V30 21009 C 1920.23 -1.57838 -1.4018 0
M  V30 21010 O 1919.58 -0.855144 -2.11895 0
M  V30 21011 C 1919.79 -3.47687 0.302493 0
M  V30 21012 C 1921.14 -4.24135 0.198569 0
M  V30 21013 O 1922.16 -3.5543 0.234151 0
M  V30 21014 O 1921.02 -5.46393 0.108108 0
M  V30 21015 H 1918.11 -0.826777 -0.0191985 0
M  V30 21016 H 1920.66 -1.54196 0.708638 0
M  V30 21017 H 1919.43 -3.68139 1.32625 0
M  V30 21018 H 1919.05 -3.95911 -0.366134 0
M  V30 21019 N 1920.05 -0.377435 -1.53014 0
M  V30 21020 C 1921.3 0.208118 -2.01026 0
M  V30 21021 C 1921.62 1.48307 -1.26609 0
M  V30 21022 O 1920.89 1.92125 -0.382732 0
M  V30 21023 H 1919.47 0.0798957 -0.742715 0
M  V30 21024 H 1922.13 -0.506396 -1.88206 0
M  V30 21025 H 1921.23 0.426737 -3.09169 0
M  V30 21026 N 1921.53 1.57237 -0.106922 0
M  V30 21027 C 1922.78 1.9439 0.552888 0
M  V30 21028 C 1923.1 0.990316 1.67981 0
M  V30 21029 O 1922.37 0.0444502 1.9585 0
M  V30 21030 H 1920.95 0.71768 0.20723 0
M  V30 21031 H 1923.61 1.9413 -0.17303 0
M  V30 21032 H 1922.71 2.97118 0.955369 0
M  V30 21033 N 1923.01 -0.166818 1.56715 0
M  V30 21034 C 1924.26 -0.881043 1.8144 0
M  V30 21035 C 1924.57 -1.83216 0.684925 0
M  V30 21036 O 1925.78 -2.58908 0.817234 0
M  V30 21037 C 1924.23 -1.61724 3.21517 0
M  V30 21038 C 1923.84 -0.709534 4.42346 0
M  V30 21039 C 1925.58 -2.31943 3.55532 0
M  V30 21040 C 1923.49 -1.44622 5.73444 0
M  V30 21041 H 1922.42 -0.332741 0.676609 0
M  V30 21042 H 1925.07 -0.133924 1.83011 0
M  V30 21043 H 1923.45 -2.40928 3.14277 0
M  V30 21044 H 1924.63 0.0458591 4.60777 0
M  V30 21045 H 1922.94 -0.116776 4.16236 0
M  V30 21046 H 1925.54 -2.87662 4.50727 0
M  V30 21047 H 1925.88 -3.07495 2.80629 0
M  V30 21048 H 1926.42 -1.59678 3.64346 0
M  V30 21049 H 1923.16 -0.732937 6.51389 0
M  V30 21050 H 1922.68 -2.17483 5.58982 0
M  V30 21051 H 1924.35 -1.9925 6.15555 0
M  V30 21052 N 1924.49 -1.51463 -0.435524 0
M  V30 21053 C 1925.42 -1.75856 -1.53613 0
M  V30 21054 C 1926.4 -0.608449 -1.58846 0
M  V30 21055 O 1927.58 -0.85135 -1.74544 0
M  V30 21056 C 1924.71 -1.88525 -2.91677 0
M  V30 21057 C 1923.67 -3.03972 -3.01305 0
M  V30 21058 C 1922.99 -3.01828 -4.41366 0
M  V30 21059 C 1924.29 -4.43905 -2.75219 0
M  V30 21060 H 1925.99 -2.68013 -1.33452 0
M  V30 21061 H 1923.53 -1.28968 -0.640564 0
M  V30 21062 H 1925.49 -2.04173 -3.68634 0
M  V30 21063 H 1924.21 -0.930179 -3.13074 0
M  V30 21064 H 1922.87 -2.88033 -2.26788 0
M  V30 21065 H 1922.52 -2.04095 -4.59733 0
M  V30 21066 H 1922.22 -3.79353 -4.48737 0
M  V30 21067 H 1923.74 -3.19572 -5.20294 0
M  V30 21068 H 1925.15 -4.60187 -3.41908 0
M  V30 21069 H 1923.55 -5.2315 -2.93998 0
M  V30 21070 H 1924.62 -4.53818 -1.70814 0
M  V30 21071 N 1925.96 0.691085 -1.4164 0
M  V30 21072 C 1927.24 1.44595 -1.31726 0
M  V30 21073 C 1927.62 2.11033 0.0530624 0
M  V30 21074 O 1926.97 2.02027 1.06759 0
M  V30 21075 C 1927.18 2.46172 -2.47387 0
M  V30 21076 C 1928.53 3.11293 -2.88759 0
M  V30 21077 O 1929.55 2.56497 -2.47159 0
M  V30 21078 O 1928.41 4.10551 -3.60707 0
M  V30 21079 H 1925.5 0.644163 -0.518635 0
M  V30 21080 H 1928.05 0.721184 -1.53613 0
M  V30 21081 H 1926.82 1.95764 -3.3881 0
M  V30 21082 H 1926.45 3.26151 -2.27401 0
M  V30 21083 N 1927.44 1.27542 0.925789 0
M  V30 21084 C 1928.72 1.04714 1.6521 0
M  V30 21085 C 1929.1 -0.417492 2.0693 0
M  V30 21086 O 1928.45 -1.40112 1.80502 0
M  V30 21087 C 1928.66 2.0105 2.85272 0
M  V30 21088 C 1930.01 2.30526 3.56571 0
M  V30 21089 O 1931.03 1.99038 2.95402 0
M  V30 21090 O 1929.89 2.84211 4.66783 0
M  V30 21091 H 1926.98 0.399325 0.724202 0
M  V30 21092 H 1929.53 1.38814 0.976156 0
M  V30 21093 H 1928.3 2.99817 2.51447 0
M  V30 21094 H 1927.92 1.67523 3.60585 0
M  V30 21095 N 1928.92 -1.13255 1.09595 0
M  V30 21096 C 1930.17 -1.83925 0.827926 0
M  V30 21097 C 1930.48 -1.84531 -0.64866 0
M  V30 21098 O 1931.69 -2.5111 -1.03228 0
M  V30 21099 C 1930.14 -3.30219 1.43121 0
M  V30 21100 C 1929.75 -3.37996 2.94046 0
M  V30 21101 C 1931.5 -4.05918 1.24221 0
M  V30 21102 C 1929.4 -4.78572 3.47451 0
M  V30 21103 H 1928.33 -0.689091 0.306056 0
M  V30 21104 H 1930.98 -1.27586 1.31887 0
M  V30 21105 H 1929.37 -3.86371 0.867952 0
M  V30 21106 H 1930.54 -2.91829 3.56612 0
M  V30 21107 H 1928.86 -2.75762 3.12 0
M  V30 21108 H 1931.45 -5.09704 1.61573 0
M  V30 21109 H 1931.8 -4.15898 0.183004 0
M  V30 21110 H 1932.33 -3.561 1.77306 0
M  V30 21111 H 1929.07 -4.73785 4.52999 0
M  V30 21112 H 1928.59 -5.25227 2.89649 0
M  V30 21113 H 1930.27 -5.47495 3.44759 0
M  V30 21114 N 1930.4 -0.883401 -1.30514 0
M  V30 21115 C 1931.65 -0.497118 -1.95478 0
M  V30 21116 C 1931.96 0.958235 -1.7052 0
M  V30 21117 O 1933.17 1.45129 -2.29455 0
M  V30 21118 C 1931.62 -0.838108 -3.50005 0
M  V30 21119 C 1931.23 -2.31113 -3.83785 0
M  V30 21120 C 1932.97 -0.520947 -4.21291 0
M  V30 21121 C 1930.88 -2.59383 -5.31483 0
M  V30 21122 H 1929.81 -0.182178 -0.731661 0
M  V30 21123 H 1932.46 -1.07816 -1.48486 0
M  V30 21124 H 1930.84 -0.186171 -3.95562 0
M  V30 21125 H 1932.02 -3.00725 -3.49144 0
M  V30 21126 H 1930.33 -2.59566 -3.25598 0
M  V30 21127 H 1932.93 -0.709216 -5.29976 0
M  V30 21128 H 1933.27 0.539542 -4.12789 0
M  V30 21129 H 1933.81 -1.13001 -3.81413 0
M  V30 21130 H 1930.55 -3.64166 -5.45035 0
M  V30 21131 H 1930.07 -1.94378 -5.6743 0
M  V30 21132 H 1931.74 -2.44803 -5.989 0
M  V30 21133 N 1931.88 1.43833 -0.644194 0
M  V30 21134 C 1933.1 2.06784 -0.159719 0
M  V30 21135 C 1933.53 1.47913 1.16204 0
M  V30 21136 O 1932.88 0.585574 1.71583 0
M  V30 21137 C 1932.93 3.60527 -0.0724271 0
M  V30 21138 O 1932.04 4.0088 0.967917 0
M  V30 21139 H 1931.38 0.657771 -0.0907406 0
M  V30 21140 H 1933.91 1.8449 -0.884568 0
M  V30 21141 H 1933.92 4.07841 0.113872 0
M  V30 21142 H 1932.59 4.02755 -1.03736 0
M  V30 21143 H 1931.17 3.65174 0.755135 0
M  V30 21144 N 1933.35 0.385544 1.52811 0
M  V30 21145 C 1934.26 -0.45885 2.30069 0
M  V30 21146 C 1935.28 -1.07486 1.36831 0
M  V30 21147 O 1936.46 -1.08148 1.699 0
M  V30 21148 C 1933.52 -1.57281 3.08972 0
M  V30 21149 C 1932.58 -0.98229 4.17911 0
M  V30 21150 C 1931.82 -2.04316 4.93042 0
M  V30 21151 O 1932.04 -3.25761 4.68226 0
M  V30 21152 O 1930.97 -1.66256 5.78483 0
M  V30 21153 H 1934.8 0.170416 3.03221 0
M  V30 21154 H 1932.38 0.149363 1.48651 0
M  V30 21155 H 1934.27 -2.22003 3.5818 0
M  V30 21156 H 1932.94 -2.18711 2.38637 0
M  V30 21157 H 1931.85 -0.298428 3.72908 0
M  V30 21158 H 1933.18 -0.412261 4.9047 0
M  V30 21159 N 1934.83 -1.57178 0.115259 0
M  V30 21160 C 1935.78 -2.15114 -0.836331 0
M  V30 21161 C 1936.75 -1.07511 -1.26612 0
M  V30 21162 O 1937.93 -1.354 -1.3443 0
M  V30 21163 C 1935.07 -2.75187 -2.08245 0
M  V30 21164 C 1934.19 -3.97086 -1.70137 0
M  V30 21165 C 1933.32 -4.45258 -2.89687 0
M  V30 21166 C 1932.36 -5.59697 -2.47801 0
M  V30 21167 N 1931.5 -6.0263 -3.60252 0
M  V30 21168 H 1936.34 -2.96106 -0.335434 0
M  V30 21169 H 1933.88 -1.46293 -0.15388 0
M  V30 21170 H 1935.83 -3.08145 -2.81252 0
M  V30 21171 H 1934.46 -1.96891 -2.558 0
M  V30 21172 H 1933.52 -3.70313 -0.870192 0
M  V30 21173 H 1934.83 -4.80085 -1.35352 0
M  V30 21174 H 1933.98 -4.80105 -3.70923 0
M  V30 21175 H 1932.72 -3.61201 -3.27696 0
M  V30 21176 H 1931.73 -5.24458 -1.64997 0
M  V30 21177 H 1932.95 -6.45517 -2.10913 0
M  V30 21178 H 1930.9 -5.21515 -3.97942 0
M  V30 21179 H 1930.81 -6.80474 -3.29379 0
M  V30 21180 H 1932.08 -6.42114 -4.41939 0
M  V30 21181 N 1936.31 0.158505 -1.56801 0
M  V30 21182 C 1937.24 1.19799 -2.00426 0
M  V30 21183 C 1938.22 1.45453 -0.881905 0
M  V30 21184 O 1939.41 1.56569 -1.1489 0
M  V30 21185 C 1936.54 2.53392 -2.37508 0
M  V30 21186 C 1935.49 2.42283 -3.52822 0
M  V30 21187 C 1934.82 3.80482 -3.75683 0
M  V30 21188 C 1936.12 1.91666 -4.85862 0
M  V30 21189 H 1937.81 0.835303 -2.87512 0
M  V30 21190 H 1935.36 0.400366 -1.38322 0
M  V30 21191 H 1937.31 3.26326 -2.66625 0
M  V30 21192 H 1936.03 2.91474 -1.47345 0
M  V30 21193 H 1934.69 1.71801 -3.23852 0
M  V30 21194 H 1934.34 4.15979 -2.8279 0
M  V30 21195 H 1934.04 3.73913 -4.5328 0
M  V30 21196 H 1935.57 4.54982 -4.07214 0
M  V30 21197 H 1936.98 2.54384 -5.13772 0
M  V30 21198 H 1935.38 1.96016 -5.67184 0
M  V30 21199 H 1936.45 0.871666 -4.77001 0
M  V30 21200 N 1937.79 1.51692 0.427485 0
M  V30 21201 C 1938.7 1.76576 1.5446 0
M  V30 21202 C 1939.72 0.650421 1.61386 0
M  V30 21203 O 1940.89 0.933787 1.78444 0
M  V30 21204 C 1937.96 1.89451 2.90361 0
M  V30 21205 C 1937.02 3.13326 2.93471 0
M  V30 21206 C 1936.25 3.25577 4.22889 0
M  V30 21207 O 1936.47 2.43528 5.15801 0
M  V30 21208 O 1935.41 4.18618 4.32484 0
M  V30 21209 H 1939.23 2.7136 1.36373 0
M  V30 21210 H 1936.82 1.36312 0.611496 0
M  V30 21211 H 1938.7 1.99848 3.70997 0
M  V30 21212 H 1937.38 0.978556 3.08555 0
M  V30 21213 H 1936.28 3.08401 2.11754 0
M  V30 21214 H 1937.62 4.04643 2.80223 0
M  V30 21215 N 1939.27 -0.683564 1.42004 0
M  V30 21216 C 1940.23 -1.77907 1.44505 0
M  V30 21217 C 1941.23 -1.57295 0.333889 0
M  V30 21218 O 1942.42 -1.63748 0.594323 0
M  V30 21219 C 1939.55 -3.16434 1.26815 0
M  V30 21220 H 1940.75 -1.7708 2.42039 0
M  V30 21221 H 1938.3 -0.892355 1.28323 0
M  V30 21222 H 1939.03 -3.22894 0.301695 0
M  V30 21223 H 1938.82 -3.32798 2.07335 0
M  V30 21224 H 1940.31 -3.96379 1.31428 0
M  V30 21225 N 1940.75 -1.28031 -0.919012 0
M  V30 21226 C 1941.99 -1.14878 -1.66761 0
M  V30 21227 C 1942.32 0.303688 -1.92115 0
M  V30 21228 O 1941.58 1.23781 -1.51581 0
M  V30 21229 C 1941.87 -1.887 -3.03524 0
M  V30 21230 C 1941.54 -3.3852 -2.9785 0
M  V30 21231 C 1940.2 -3.79383 -2.9601 0
M  V30 21232 C 1942.55 -4.34077 -2.88491 0
M  V30 21233 C 1939.88 -5.14152 -2.82604 0
M  V30 21234 C 1942.23 -5.68912 -2.76625 0
M  V30 21235 C 1940.9 -6.09057 -2.7314 0
M  V30 21236 H 1940.17 -0.420368 -0.610223 0
M  V30 21237 H 1942.82 -1.58743 -1.07111 0
M  V30 21238 H 1941.12 -1.37368 -3.66929 0
M  V30 21239 H 1942.82 -1.75944 -3.6034 0
M  V30 21240 H 1939.41 -3.06028 -3.00074 0
M  V30 21241 H 1943.59 -4.03473 -2.89004 0
M  V30 21242 H 1938.85 -5.4439 -2.78298 0
M  V30 21243 H 1943.02 -6.4262 -2.6835 0
M  V30 21244 H 1940.65 -7.13437 -2.62509 0
M  V30 21245 N 1942.22 1.12672 -1.10194 0
M  V30 21246 C 1943.17 2.20403 -0.743323 0
M  V30 21247 C 1944.17 1.67402 0.259382 0
M  V30 21248 O 1945.37 1.79599 0.120012 0
M  V30 21249 H 1941.75 0.718351 -0.22243 0
M  V30 21250 H 1943.72 2.47907 -1.66087 0
M  V30 21251 C 1942.47 3.47188 -0.188629 0
M  V30 21252 H 1941.79 3.88315 -0.951411 0
M  V30 21253 H 1943.23 4.23993 0.0242649 0
M  V30 21254 C 1941.69 3.19186 1.07806 0
M  V30 21255 O 1942.22 3.38684 2.16 0
M  V30 21256 N 1940.42 2.73009 0.995705 0
M  V30 21257 H 1939.97 2.57342 0.115168 0
M  V30 21258 H 1939.93 2.54649 1.84394 0
M  V30 21259 N 1943.7 0.89031 1.30043 0
M  V30 21260 C 1944.93 0.525833 2.00623 0
M  V30 21261 C 1945.35 -0.87971 1.66261 0
M  V30 21262 O 1944.71 -1.58394 0.882105 0
M  V30 21263 C 1944.76 0.714046 3.5346 0
M  V30 21264 O 1943.86 -0.237685 4.11714 0
M  V30 21265 H 1943.2 0.20656 0.631054 0
M  V30 21266 H 1945.73 1.19932 1.65763 0
M  V30 21267 H 1945.74 0.615086 4.03337 0
M  V30 21268 H 1944.42 1.73881 3.77807 0
M  V30 21269 H 1942.99 -0.0919722 3.72787 0
M  V30 21270 N 1945.18 -1.43489 0.651812 0
M  V30 21271 C 1946.6 -1.56374 0.31925 0
M  V30 21272 C 1946.8 -1.63573 -1.1767 0
M  V30 21273 O 1945.85 -1.59003 -1.96149 0
M  V30 21274 C 1947.16 -2.82532 1.02937 0
M  V30 21275 C 1948.71 -2.96274 1.00949 0
M  V30 21276 C 1949.19 -4.25262 1.70047 0
M  V30 21277 N 1950.68 -4.32123 1.66805 0
M  V30 21278 C 1951.41 -5.30693 2.17146 0
M  V30 21279 N 1950.91 -6.3555 2.75769 0
M  V30 21280 N 1952.7 -5.22337 2.07654 0
M  V30 21281 H 1944.85 -1.3706 1.6226 0
M  V30 21282 H 1947.12 -0.658169 0.682289 0
M  V30 21283 H 1946.82 -2.83271 2.08448 0
M  V30 21284 H 1946.7 -3.72713 0.580047 0
M  V30 21285 H 1949.08 -2.95077 -0.0372118 0
M  V30 21286 H 1949.16 -2.07386 1.49749 0
M  V30 21287 H 1948.81 -4.2722 2.74673 0
M  V30 21288 H 1948.74 -5.13044 1.18714 0
M  V30 21289 H 1951.23 -3.56968 1.24024 0
M  V30 21290 H 1951.54 -7.0708 3.11861 0
M  V30 21291 H 1949.89 -6.36177 2.79829 0
M  V30 21292 H 1953.08 -4.39336 1.61561 0
M  V30 21293 H 1953.25 -5.98998 2.47195 0
M  V30 21294 N 1946.66 -0.393643 -1.52605 0
M  V30 21295 C 1947.89 0.186829 -2.05754 0
M  V30 21296 C 1948.3 1.40704 -1.26488 0
M  V30 21297 O 1947.64 1.81137 -0.305794 0
M  V30 21298 C 1947.7 0.617257 -3.54161 0
M  V30 21299 C 1947.36 -0.490084 -4.54365 0
M  V30 21300 C 1948.36 -1.34885 -5.02098 0
M  V30 21301 C 1946.05 -0.658354 -4.97967 0
M  V30 21302 C 1948.04 -2.36097 -5.92062 0
M  V30 21303 C 1945.73 -1.6738 -5.8773 0
M  V30 21304 C 1946.73 -2.52353 -6.34671 0
M  V30 21305 O 1946.41 -3.52161 -7.2266 0
M  V30 21306 H 1946.15 0.0307838 -0.675299 0
M  V30 21307 H 1948.7 -0.558639 -1.97657 0
M  V30 21308 H 1946.93 1.41477 -3.5989 0
M  V30 21309 H 1948.62 1.12389 -3.9003 0
M  V30 21310 H 1949.38 -1.23018 -4.69139 0
M  V30 21311 H 1945.26 -0.00666652 -4.61 0
M  V30 21312 H 1948.81 -3.02456 -6.28623 0
M  V30 21313 H 1944.7 -1.79284 -6.20103 0
M  V30 21314 H 1945.47 -3.48221 -7.40732 0
M  V30 21315 N 1948.14 1.57115 -0.123593 0
M  V30 21316 C 1949.05 2.19104 0.838493 0
M  V30 21317 C 1950.06 1.1685 1.28927 0
M  V30 21318 O 1951.24 1.49337 1.35131 0
M  V30 21319 C 1948.3 2.78191 2.06908 0
M  V30 21320 C 1947.36 3.95495 1.66979 0
M  V30 21321 C 1946.6 4.51755 2.84171 0
M  V30 21322 O 1946.82 4.06908 3.99728 0
M  V30 21323 O 1945.75 5.42372 2.60991 0
M  V30 21324 H 1949.58 3.0178 0.340935 0
M  V30 21325 H 1947.16 1.4905 0.102255 0
M  V30 21326 H 1949.05 3.15837 2.78971 0
M  V30 21327 H 1947.72 1.98542 2.55661 0
M  V30 21328 H 1946.63 3.62609 0.920091 0
M  V30 21329 H 1947.96 4.76593 1.22963 0
M  V30 21330 N 1949.61 -0.150187 1.56883 0
M  V30 21331 C 1950.89 -0.891842 1.74085 0
M  V30 21332 C 1951.27 -1.99479 0.690751 0
M  V30 21333 O 1950.62 -2.26641 -0.290877 0
M  V30 21334 C 1950.83 -1.43722 3.18033 0
M  V30 21335 C 1952.18 -1.90188 3.79623 0
M  V30 21336 O 1953.2 -1.53471 3.21442 0
M  V30 21337 O 1952.06 -2.57892 4.81824 0
M  V30 21338 H 1949.15 -0.421241 0.711678 0
M  V30 21339 H 1951.7 -0.136362 1.69151 0
M  V30 21340 H 1950.47 -0.644422 3.85957 0
M  V30 21341 H 1950.09 -2.2563 3.27379 0
M  V30 21342 N 1951.09 -1.51916 -0.419434 0
M  V30 21343 C 1952.02 -1.77475 -1.5174 0
M  V30 21344 C 1953 -0.625263 -1.58191 0
M  V30 21345 O 1954.19 -0.869815 -1.73631 0
M  V30 21346 C 1951.32 -1.91608 -2.89661 0
M  V30 21347 C 1950.27 -3.07151 -2.98064 0
M  V30 21348 C 1949.6 -3.06493 -4.3814 0
M  V30 21349 C 1950.9 -4.46799 -2.70495 0
M  V30 21350 H 1952.59 -2.69413 -1.30602 0
M  V30 21351 H 1950.14 -1.2964 -0.626849 0
M  V30 21352 H 1952.09 -2.08072 -3.66448 0
M  V30 21353 H 1950.82 -0.963332 -3.1207 0
M  V30 21354 H 1949.47 -2.90422 -2.2372 0
M  V30 21355 H 1949.12 -2.08959 -4.57542 0
M  V30 21356 H 1948.82 -3.84091 -4.44689 0
M  V30 21357 H 1950.35 -3.25072 -5.16876 0
M  V30 21358 H 1951.76 -4.63787 -3.37008 0
M  V30 21359 H 1950.16 -5.26238 -2.88432 0
M  V30 21360 H 1951.23 -4.55604 -1.65991 0
M  V30 21361 N 1952.57 0.676023 -1.42365 0
M  V30 21362 C 1953.8 1.46937 -1.46371 0
M  V30 21363 C 1954.22 1.87946 -0.076099 0
M  V30 21364 O 1953.58 1.55917 0.925172 0
M  V30 21365 C 1953.63 2.69558 -2.39523 0
M  V30 21366 O 1952.73 3.67782 -1.86575 0
M  V30 21367 H 1952.07 0.441478 -0.495977 0
M  V30 21368 H 1954.6 0.829284 -1.8704 0
M  V30 21369 H 1954.61 3.17642 -2.56061 0
M  V30 21370 H 1953.29 2.39049 -3.40336 0
M  V30 21371 H 1951.86 3.26808 -1.79585 0
M  V30 21372 N 1954.05 1.28517 0.912209 0
M  V30 21373 C 1955 1.09214 2.00141 0
M  V30 21374 C 1955.98 0.015324 1.60893 0
M  V30 21375 O 1957.17 0.235636 1.75425 0
M  V30 21376 C 1954.3 0.757636 3.34835 0
M  V30 21377 C 1953.39 1.87337 3.80481 0
M  V30 21378 N 1953.78 3.11521 3.98483 0
M  V30 21379 C 1952.08 1.76357 4.09651 0
M  V30 21380 C 1952.78 3.8423 4.3674 0
M  V30 21381 N 1951.76 3.12089 4.45086 0
M  V30 21382 H 1955.56 2.03436 2.12111 0
M  V30 21383 H 1953.07 1.19458 1.10016 0
M  V30 21384 H 1955.07 0.600426 4.12554 0
M  V30 21385 H 1953.73 -0.176796 3.24218 0
M  V30 21386 H 1954.74 3.47114 3.84359 0
M  V30 21387 H 1951.42 0.901018 4.07662 0
M  V30 21388 H 1952.81 4.91039 4.58618 0
M  V30 21389 N 1955.53 -1.12086 1.1079 0
M  V30 21390 C 1956.46 -2.2001 0.78217 0
M  V30 21391 C 1957.44 -1.68305 -0.246488 0
M  V30 21392 O 1958.62 -1.9388 -0.111448 0
M  V30 21393 C 1955.75 -3.4662 0.2172 0
M  V30 21394 C 1954.71 -4.11499 1.17696 0
M  V30 21395 C 1954.03 -5.32604 0.47302 0
M  V30 21396 C 1955.33 -4.5721 2.52501 0
M  V30 21397 H 1957.03 -2.47514 1.68456 0
M  V30 21398 H 1954.57 -1.18964 0.811397 0
M  V30 21399 H 1956.53 -4.21394 -0.0228381 0
M  V30 21400 H 1955.25 -3.18555 -0.720448 0
M  V30 21401 H 1953.91 -3.38711 1.40252 0
M  V30 21402 H 1953.56 -5.00807 -0.469217 0
M  V30 21403 H 1953.26 -5.76961 1.11308 0
M  V30 21404 H 1954.78 -6.10122 0.241615 0
M  V30 21405 H 1956.19 -5.23338 2.34073 0
M  V30 21406 H 1954.59 -5.12357 3.12426 0
M  V30 21407 H 1955.66 -3.71003 3.12226 0
M  V30 21408 N 1957 -0.897194 -1.29569 0
M  V30 21409 C 1957.97 -0.377906 -2.26063 0
M  V30 21410 C 1958.97 0.486495 -1.53264 0
M  V30 21411 O 1960.16 0.291905 -1.71737 0
M  V30 21412 C 1957.29 0.460046 -3.37782 0
M  V30 21413 H 1958.48 -1.23009 -2.73512 0
M  V30 21414 H 1956.04 -0.675114 -1.40968 0
M  V30 21415 H 1956.77 1.33232 -2.95668 0
M  V30 21416 H 1956.56 -0.159293 -3.91776 0
M  V30 21417 H 1958.05 0.814753 -4.09575 0
M  V30 21418 N 1958.48 1.43142 -0.659413 0
M  V30 21419 C 1959.39 2.34582 0.0288714 0
M  V30 21420 C 1960.41 1.54232 0.805512 0
M  V30 21421 O 1961.58 1.8686 0.751347 0
M  V30 21422 C 1958.65 3.32587 0.97912 0
M  V30 21423 C 1957.71 4.2884 0.198725 0
M  V30 21424 C 1956.94 5.22163 1.10371 0
M  V30 21425 O 1957.17 5.20054 2.34308 0
M  V30 21426 O 1956.1 5.99168 0.572785 0
M  V30 21427 H 1959.93 2.94945 -0.723947 0
M  V30 21428 H 1957.51 1.43386 -0.419609 0
M  V30 21429 H 1959.39 3.92836 1.52505 0
M  V30 21430 H 1958.07 2.74719 1.71206 0
M  V30 21431 H 1956.98 3.72052 -0.390942 0
M  V30 21432 H 1958.31 4.89707 -0.494774 0
M  V30 21433 N 1959.96 0.40173 1.52394 0
M  V30 21434 C 1961.19 -0.178662 2.06629 0
M  V30 21435 C 1961.61 -1.3871 1.27048 0
M  V30 21436 O 1960.97 -1.78821 0.298765 0
M  V30 21437 C 1961.02 -0.514797 3.56906 0
M  V30 21438 O 1960.12 -1.60691 3.79805 0
M  V30 21439 H 1959.46 -0.0174284 0.663771 0
M  V30 21440 H 1961.99 0.572792 1.96419 0
M  V30 21441 H 1962 -0.775554 4.00561 0
M  V30 21442 H 1960.68 0.368624 4.14263 0
M  V30 21443 H 1959.25 -1.3389 3.48034 0
M  V30 21444 N 1961.44 -1.57047 0.131923 0
M  V30 21445 C 1962.39 -2.15989 -0.813469 0
M  V30 21446 C 1963.36 -1.08848 -1.25464 0
M  V30 21447 O 1964.54 -1.36819 -1.32986 0
M  V30 21448 C 1961.68 -2.7738 -2.05315 0
M  V30 21449 C 1960.79 -3.98868 -1.65916 0
M  V30 21450 C 1959.93 -4.48305 -2.84948 0
M  V30 21451 C 1958.97 -5.62294 -2.41851 0
M  V30 21452 N 1958.1 -6.06417 -3.53841 0
M  V30 21453 H 1962.94 -2.96445 -0.304009 0
M  V30 21454 H 1960.48 -1.46448 -0.138355 0
M  V30 21455 H 1962.44 -3.11111 -2.77967 0
M  V30 21456 H 1961.07 -1.99593 -2.53697 0
M  V30 21457 H 1960.12 -3.71215 -0.830867 0
M  V30 21458 H 1961.43 -4.81493 -1.30252 0
M  V30 21459 H 1960.59 -4.84012 -3.6581 0
M  V30 21460 H 1959.33 -3.64657 -3.23847 0
M  V30 21461 H 1958.33 -5.26178 -1.59425 0
M  V30 21462 H 1959.56 -6.47718 -2.04055 0
M  V30 21463 H 1957.5 -5.25707 -3.92388 0
M  V30 21464 H 1957.42 -6.8393 -3.22143 0
M  V30 21465 H 1958.69 -6.46765 -4.35104 0
M  V30 21466 N 1962.92 0.141865 -1.5696 0
M  V30 21467 C 1963.85 1.20022 -1.95262 0
M  V30 21468 C 1964.86 1.38905 -0.849072 0
M  V30 21469 O 1966.05 1.38385 -1.12747 0
M  V30 21470 C 1963.15 2.56421 -2.21589 0
M  V30 21471 C 1962.32 2.58447 -3.52879 0
M  V30 21472 C 1961.38 3.76422 -3.67686 0
M  V30 21473 O 1960.41 3.61059 -4.40028 0
M  V30 21474 N 1961.61 4.94082 -3.04734 0
M  V30 21475 H 1964.38 0.87461 -2.86654 0
M  V30 21476 H 1961.94 0.331379 -1.58472 0
M  V30 21477 H 1963.93 3.33863 -2.28731 0
M  V30 21478 H 1962.5 2.81254 -1.36437 0
M  V30 21479 H 1961.72 1.66884 -3.57132 0
M  V30 21480 H 1963.01 2.56837 -4.39218 0
M  V30 21481 H 1962.4 5.09467 -2.45886 0
M  V30 21482 H 1960.96 5.69281 -3.1743 0
M  V30 21483 N 1964.39 1.52136 0.411372 0
M  V30 21484 C 1965.64 1.65314 1.15561 0
M  V30 21485 C 1965.96 0.38805 1.91712 0
M  V30 21486 O 1967.16 0.399588 2.68543 0
M  V30 21487 C 1965.62 2.92059 2.10308 0
M  V30 21488 C 1965.23 4.25667 1.39684 0
M  V30 21489 C 1966.97 3.14599 2.85005 0
M  V30 21490 C 1964.88 5.43538 2.33067 0
M  V30 21491 H 1963.81 0.615812 0.435077 0
M  V30 21492 H 1966.46 1.78622 0.420271 0
M  V30 21493 H 1964.84 2.72444 2.87385 0
M  V30 21494 H 1966.01 4.55757 0.679869 0
M  V30 21495 H 1964.33 4.09212 0.77038 0
M  V30 21496 H 1966.93 3.99839 3.55011 0
M  V30 21497 H 1967.27 2.28739 3.47828 0
M  V30 21498 H 1967.8 3.34676 2.15028 0
M  V30 21499 H 1964.54 6.31738 1.74894 0
M  V30 21500 H 1964.06 5.1779 3.02744 0
M  V30 21501 H 1965.74 5.76527 2.93641 0
M  V30 21502 N 1965.87 -0.668464 1.42721 0
M  V30 21503 C 1967.1 -1.46158 1.47148 0
M  V30 21504 C 1967.52 -1.87903 0.0860652 0
M  V30 21505 O 1966.88 -1.56406 -0.91689 0
M  V30 21506 C 1966.93 -2.68284 2.40949 0
M  V30 21507 O 1966.03 -3.66787 1.88522 0
M  V30 21508 H 1965.37 -0.438842 0.498311 0
M  V30 21509 H 1967.9 -0.819353 1.87477 0
M  V30 21510 H 1967.91 -3.1628 2.57742 0
M  V30 21511 H 1966.59 -2.3724 3.41599 0
M  V30 21512 H 1965.17 -3.25851 1.81315 0
M  V30 21513 N 1967.35 -1.28999 -0.905381 0
M  V30 21514 C 1968.28 -1.16189 -2.0254 0
M  V30 21515 C 1969.26 -0.0575293 -1.70003 0
M  V30 21516 O 1970.45 -0.236004 -1.92761 0
M  V30 21517 C 1967.58 -0.831704 -3.37194 0
M  V30 21518 C 1966.53 -1.89176 -3.83922 0
M  V30 21519 C 1965.86 -1.41501 -5.15637 0
M  V30 21520 C 1967.16 -3.29971 -4.04866 0
M  V30 21521 H 1968.85 -2.09886 -2.13514 0
M  V30 21522 H 1966.4 -1.0105 -1.02591 0
M  V30 21523 H 1968.35 -0.728825 -4.1505 0
M  V30 21524 H 1967.07 0.140958 -3.26296 0
M  V30 21525 H 1965.73 -1.98393 -3.08279 0
M  V30 21526 H 1965.38 -0.431182 -5.01149 0
M  V30 21527 H 1965.08 -2.12391 -5.47872 0
M  V30 21528 H 1966.61 -1.32552 -5.96039 0
M  V30 21529 H 1968.02 -3.23628 -4.73221 0
M  V30 21530 H 1966.42 -3.98768 -4.48447 0
M  V30 21531 H 1967.49 -3.73369 -3.09393 0
M  V30 21532 N 1968.83 1.11497 -1.11383 0
M  V30 21533 C 1969.74 2.21101 -0.784315 0
M  V30 21534 C 1970.76 1.72574 0.222313 0
M  V30 21535 O 1971.93 2.01315 0.058632 0
M  V30 21536 C 1969 3.45925 -0.231713 0
M  V30 21537 C 1968.06 4.09243 -1.29687 0
M  V30 21538 C 1967.29 5.28108 -0.770542 0
M  V30 21539 O 1967.51 5.68998 0.399616 0
M  V30 21540 O 1966.45 5.81996 -1.53505 0
M  V30 21541 H 1970.27 2.51699 -1.69946 0
M  V30 21542 H 1967.86 1.20022 -0.889672 0
M  V30 21543 H 1969.74 4.21338 0.0721248 0
M  V30 21544 H 1968.42 3.1698 0.656146 0
M  V30 21545 H 1967.32 3.35564 -1.65371 0
M  V30 21546 H 1968.66 4.42365 -2.1581 0
M  V30 21547 N 1970.31 0.904053 1.29092 0
M  V30 21548 C 1971.25 0.38351 2.27591 0
M  V30 21549 C 1972.22 -0.536758 1.57188 0
M  V30 21550 O 1973.41 -0.461057 1.85146 0
M  V30 21551 C 1970.55 -0.379051 3.43012 0
M  V30 21552 C 1969.66 0.572611 4.28188 0
M  V30 21553 C 1968.8 -0.207434 5.30795 0
M  V30 21554 C 1967.84 0.73847 6.07629 0
M  V30 21555 N 1966.97 -0.00744238 7.021 0
M  V30 21556 H 1971.81 1.22855 2.71497 0
M  V30 21557 H 1969.35 0.617145 1.33528 0
M  V30 21558 H 1971.31 -0.83727 4.08712 0
M  V30 21559 H 1969.94 -1.18851 3.00124 0
M  V30 21560 H 1968.99 1.14935 3.62621 0
M  V30 21561 H 1970.3 1.29648 4.81656 0
M  V30 21562 H 1969.46 -0.726655 6.02333 0
M  V30 21563 H 1968.2 -0.964417 4.78069 0
M  V30 21564 H 1967.2 1.26915 5.34951 0
M  V30 21565 H 1968.43 1.49485 6.62443 0
M  V30 21566 H 1966.37 -0.746612 6.51737 0
M  V30 21567 H 1966.29 0.656439 7.53145 0
M  V30 21568 H 1967.56 -0.506785 7.77851 0
M  V30 21569 N 1971.79 -1.4279 0.666995 0
M  V30 21570 C 1972.72 -2.29134 -0.0550112 0
M  V30 21571 C 1973.73 -1.43259 -0.773357 0
M  V30 21572 O 1974.92 -1.67057 -0.628816 0
M  V30 21573 C 1972.02 -3.20503 -1.1014 0
M  V30 21574 C 1971.19 -4.34991 -0.458443 0
M  V30 21575 C 1970.25 -5.07136 -1.40356 0
M  V30 21576 O 1969.28 -5.61929 -0.90686 0
M  V30 21577 N 1970.48 -5.1192 -2.73712 0
M  V30 21578 H 1973.24 -2.9174 0.686156 0
M  V30 21579 H 1970.81 -1.5363 0.510814 0
M  V30 21580 H 1972.8 -3.65634 -1.73477 0
M  V30 21581 H 1971.37 -2.59403 -1.74439 0
M  V30 21582 H 1970.59 -3.92605 0.354287 0
M  V30 21583 H 1971.88 -5.08799 -0.0101948 0
M  V30 21584 H 1971.27 -4.68799 -3.16613 0
M  V30 21585 H 1969.83 -5.60722 -3.32316 0
M  V30 21586 N 1973.26 -0.409806 -1.52179 0
M  V30 21587 C 1974.19 0.406421 -2.29936 0
M  V30 21588 C 1975.17 1.04553 -1.34174 0
M  V30 21589 O 1976.36 1.05441 -1.63082 0
M  V30 21590 C 1973.49 1.52297 -3.12127 0
M  V30 21591 C 1972.44 1.00883 -4.15941 0
M  V30 21592 C 1971.77 2.21903 -4.8648 0
M  V30 21593 C 1973.07 0.0623996 -5.22263 0
M  V30 21594 H 1974.76 -0.242406 -2.98417 0
M  V30 21595 H 1972.31 -0.118023 -1.43516 0
M  V30 21596 H 1974.26 2.10097 -3.65291 0
M  V30 21597 H 1972.99 2.19968 -2.41416 0
M  V30 21598 H 1971.65 0.453228 -3.63788 0
M  V30 21599 H 1971.29 2.88131 -4.12298 0
M  V30 21600 H 1970.99 1.88153 -5.56662 0
M  V30 21601 H 1972.52 2.80308 -5.42457 0
M  V30 21602 H 1973.93 0.549223 -5.70663 0
M  V30 21603 H 1972.33 -0.186317 -5.99811 0
M  V30 21604 H 1973.4 -0.882673 -4.76799 0
M  V30 21605 N 1974.74 1.56975 -0.14025 0
M  V30 21606 C 1975.67 2.13532 0.832862 0
M  V30 21607 C 1976.69 1.08312 1.21542 0
M  V30 21608 O 1977.88 1.35613 1.16067 0
M  V30 21609 C 1974.98 2.63756 2.12806 0
M  V30 21610 C 1974.15 3.93304 1.91392 0
M  V30 21611 C 1973.21 4.28907 3.04837 0
M  V30 21612 O 1972.23 4.97351 2.76822 0
M  V30 21613 N 1973.44 3.87941 4.31835 0
M  V30 21614 H 1976.2 2.97655 0.349525 0
M  V30 21615 H 1973.76 1.61841 0.0435313 0
M  V30 21616 H 1975.75 2.8459 2.87734 0
M  V30 21617 H 1974.32 1.84395 2.52423 0
M  V30 21618 H 1973.54 3.81164 1.00538 0
M  V30 21619 H 1974.83 4.77972 1.74414 0
M  V30 21620 H 1974.23 3.32779 4.57466 0
M  V30 21621 H 1972.79 4.13841 5.03566 0
M  V30 21622 N 1976.22 -0.133539 1.57033 0
M  V30 21623 C 1977.47 -0.845109 1.84352 0
M  V30 21624 C 1977.8 -1.80205 0.723864 0
M  V30 21625 O 1977.07 -1.92596 -0.271485 0
M  V30 21626 C 1977.36 -1.6078 3.22214 0
M  V30 21627 C 1977.21 -0.671438 4.4476 0
M  V30 21628 C 1978.53 -2.56728 3.57462 0
M  V30 21629 H 1975.65 -0.305783 0.670571 0
M  V30 21630 H 1978.29 -0.109825 1.89682 0
M  V30 21631 H 1976.44 -2.23461 3.17801 0
M  V30 21632 H 1978.11 -0.0545922 4.61268 0
M  V30 21633 H 1976.35 0.018069 4.33796 0
M  V30 21634 H 1977.03 -1.24142 5.37859 0
M  V30 21635 H 1979.5 -2.04159 3.62572 0
M  V30 21636 H 1978.38 -3.07133 4.54929 0
M  V30 21637 H 1978.64 -3.38717 2.84119 0
M  V30 21638 N 1977.7 -1.52352 -0.403298 0
M  V30 21639 C 1978.63 -1.79074 -1.49849 0
M  V30 21640 C 1979.61 -0.642006 -1.57519 0
M  V30 21641 O 1980.79 -0.888182 -1.72699 0
M  V30 21642 C 1977.92 -1.9467 -2.87612 0
M  V30 21643 C 1976.88 -3.10295 -2.9479 0
M  V30 21644 C 1976.2 -3.11122 -4.34864 0
M  V30 21645 C 1977.5 -4.49643 -2.65741 0
M  V30 21646 H 1979.2 -2.70783 -1.27737 0
M  V30 21647 H 1976.74 -1.30298 -0.613064 0
M  V30 21648 H 1978.7 -2.11947 -3.64221 0
M  V30 21649 H 1977.42 -0.996377 -3.1103 0
M  V30 21650 H 1976.08 -2.92778 -2.20627 0
M  V30 21651 H 1975.73 -2.13801 -4.553 0
M  V30 21652 H 1975.43 -3.88786 -4.4059 0
M  V30 21653 H 1976.95 -3.30536 -5.13399 0
M  V30 21654 H 1978.37 -4.67335 -3.3207 0
M  V30 21655 H 1976.76 -5.29268 -2.82835 0
M  V30 21656 H 1977.83 -4.57339 -1.61149 0
M  V30 21657 N 1979.18 0.660885 -1.43074 0
M  V30 21658 C 1980.59 0.97566 -1.26305 0
M  V30 21659 C 1980.79 2.00719 -0.17724 0
M  V30 21660 O 1979.85 2.48514 0.446896 0
M  V30 21661 C 1981.16 1.46722 -2.62475 0
M  V30 21662 C 1982.71 1.58427 -2.69944 0
M  V30 21663 C 1983.18 2.10976 -4.06514 0
M  V30 21664 N 1984.67 2.18289 -4.08539 0
M  V30 21665 C 1985.41 2.60054 -5.11038 0
M  V30 21666 N 1984.91 3.01171 -6.23913 0
M  V30 21667 N 1986.7 2.59926 -4.98392 0
M  V30 21668 H 1978.85 -0.02183 -2.12389 0
M  V30 21669 H 1981.11 0.0527972 -0.946529 0
M  V30 21670 H 1980.82 0.783712 -3.42857 0
M  V30 21671 H 1980.69 2.44359 -2.87348 0
M  V30 21672 H 1983.08 2.25881 -1.899 0
M  V30 21673 H 1983.16 0.592433 -2.48845 0
M  V30 21674 H 1982.8 1.44126 -4.87022 0
M  V30 21675 H 1982.73 3.10976 -4.24972 0
M  V30 21676 H 1985.23 1.89317 -3.27059 0
M  V30 21677 H 1985.54 3.31766 -6.97962 0
M  V30 21678 H 1983.88 2.98994 -6.27398 0
M  V30 21679 H 1987.07 2.27175 -4.09279 0
M  V30 21680 H 1987.25 2.92154 -5.78403 0
M  V30 21681 N 1980.65 1.29477 0.898527 0
M  V30 21682 C 1981.56 1.16595 2.03575 0
M  V30 21683 C 1982.58 0.0889285 1.73773 0
M  V30 21684 O 1983.76 0.301228 1.99135 0
M  V30 21685 C 1980.82 0.844745 3.36251 0
M  V30 21686 C 1979.88 2.00573 3.79564 0
M  V30 21687 C 1979.12 1.69975 5.05909 0
M  V30 21688 O 1979.34 0.621246 5.67007 0
M  V30 21689 O 1978.27 2.54809 5.45303 0
M  V30 21690 H 1982.1 2.12098 2.17367 0
M  V30 21691 H 1979.68 1.0894 1.02237 0
M  V30 21692 H 1981.57 0.680229 4.15874 0
M  V30 21693 H 1980.24 -0.080494 3.236 0
M  V30 21694 H 1979.15 2.22549 3.00704 0
M  V30 21695 H 1980.48 2.91221 3.96801 0
M  V30 21696 N 1982.13 -1.10905 1.11972 0
M  V30 21697 C 1983.36 -1.86555 0.894699 0
M  V30 21698 C 1983.78 -1.80434 -0.555801 0
M  V30 21699 O 1983.13 -1.18957 -1.38403 0
M  V30 21700 C 1983.18 -3.35148 1.35492 0
M  V30 21701 O 1982.9 -3.41154 2.74856 0
M  V30 21702 C 1984.41 -4.27687 1.16612 0
M  V30 21703 H 1981.63 -0.589761 0.320037 0
M  V30 21704 H 1984.17 -1.40232 1.48846 0
M  V30 21705 H 1982.32 -3.78955 0.804493 0
M  V30 21706 H 1982.74 -4.3372 2.94936 0
M  V30 21707 H 1984.21 -5.30168 1.53708 0
M  V30 21708 H 1984.69 -4.39072 0.106219 0
M  V30 21709 H 1985.3 -3.8968 1.70381 0
M  V30 21710 N 1983.61 -0.910886 -1.2861 0
M  V30 21711 C 1984.89 -0.461608 -1.90075 0
M  V30 21712 C 1985.27 1.05944 -1.8259 0
M  V30 21713 O 1984.62 1.90624 -1.25995 0
M  V30 21714 C 1984.83 -0.98875 -3.34701 0
M  V30 21715 C 1986.17 -1.03913 -4.11688 0
M  V30 21716 O 1987.2 -0.937194 -3.4365 0
M  V30 21717 O 1986.06 -1.19392 -5.33299 0
M  V30 21718 H 1983.15 -0.145814 -0.814044 0
M  V30 21719 H 1985.7 -1.00148 -1.36998 0
M  V30 21720 H 1984.47 -2.03273 -3.34359 0
M  V30 21721 H 1984.09 -0.429535 -3.95273 0
M  V30 21722 N 1985.09 1.42434 -0.674558 0
M  V30 21723 C 1986.02 2.2916 0.0428589 0
M  V30 21724 C 1987.03 1.43667 0.765749 0
M  V30 21725 O 1988.22 1.67388 0.619947 0
M  V30 21726 C 1985.32 3.21083 1.08439 0
M  V30 21727 C 1984.5 4.35228 0.435368 0
M  V30 21728 C 1983.55 5.07873 1.37665 0
M  V30 21729 O 1982.58 5.62402 0.877047 0
M  V30 21730 N 1983.78 5.13364 2.70994 0
M  V30 21731 H 1986.55 2.91372 -0.701618 0
M  V30 21732 H 1984.11 1.53357 -0.518954 0
M  V30 21733 H 1986.1 3.66548 1.71535 0
M  V30 21734 H 1984.67 2.60324 1.7306 0
M  V30 21735 H 1983.89 3.92411 -0.375103 0
M  V30 21736 H 1985.18 5.08797 -0.0167882 0
M  V30 21737 H 1984.58 4.70472 3.14122 0
M  V30 21738 H 1983.13 5.62476 3.29338 0
M  V30 21739 N 1986.57 0.417871 1.51959 0
M  V30 21740 C 1987.5 -0.448093 2.23757 0
M  V30 21741 C 1988.48 -1.04082 1.24923 0
M  V30 21742 O 1989.66 -1.08702 1.54 0
M  V30 21743 C 1986.79 -1.62276 2.97295 0
M  V30 21744 C 1985.83 -1.15258 4.10631 0
M  V30 21745 S 1986.67 -0.110541 5.35386 0
M  V30 21746 C 1987.82 -1.29033 6.12455 0
M  V30 21747 H 1988.06 0.161521 2.96861 0
M  V30 21748 H 1985.59 0.202231 1.5307 0
M  V30 21749 H 1987.55 -2.29628 3.40267 0
M  V30 21750 H 1986.21 -2.20373 2.23818 0
M  V30 21751 H 1985.4 -2.03044 4.61291 0
M  V30 21752 H 1985 -0.557582 3.6982 0
M  V30 21753 H 1987.3 -2.21233 6.40361 0
M  V30 21754 H 1988.24 -0.824085 7.03288 0
M  V30 21755 H 1988.65 -1.52008 5.43649 0
M  V30 21756 N 1988.04 -1.56898 0.148573 0
M  V30 21757 C 1988.97 -2.19852 -0.786585 0
M  V30 21758 C 1989.96 -1.14723 -1.2559 0
M  V30 21759 O 1991.14 -1.43071 -1.31317 0
M  V30 21760 C 1988.27 -2.82137 -2.02524 0
M  V30 21761 C 1987.22 -3.93108 -1.69264 0
M  V30 21762 C 1986.55 -4.42335 -3.00407 0
M  V30 21763 C 1987.85 -5.13807 -0.938092 0
M  V30 21764 H 1989.54 -2.98252 -0.261903 0
M  V30 21765 H 1987.09 -1.43461 -0.124531 0
M  V30 21766 H 1989.04 -3.24845 -2.68428 0
M  V30 21767 H 1987.77 -2.01071 -2.57368 0
M  V30 21768 H 1986.43 -3.5102 -1.05739 0
M  V30 21769 H 1986.07 -3.58089 -3.53244 0
M  V30 21770 H 1985.77 -5.17185 -2.78915 0
M  V30 21771 H 1987.3 -4.87714 -3.67378 0
M  V30 21772 H 1988.71 -5.53349 -1.49924 0
M  V30 21773 H 1987.11 -5.94429 -0.823062 0
M  V30 21774 H 1988.18 -4.8485 0.0698825 0
M  V30 21775 N 1989.52 0.125209 -1.57102 0
M  V30 21776 C 1990.45 1.17944 -1.96524 0
M  V30 21777 C 1991.47 1.37997 -0.863757 0
M  V30 21778 O 1992.66 1.37182 -1.14208 0
M  V30 21779 C 1989.76 2.54056 -2.24296 0
M  V30 21780 C 1988.93 2.5469 -3.55601 0
M  V30 21781 C 1987.99 3.72501 -3.71658 0
M  V30 21782 O 1987.01 3.56372 -4.43833 0
M  V30 21783 N 1988.22 4.90822 -3.09958 0
M  V30 21784 H 1990.98 0.844157 -2.87566 0
M  V30 21785 H 1988.54 0.314552 -1.58815 0
M  V30 21786 H 1990.53 3.31418 -2.32259 0
M  V30 21787 H 1989.1 2.79791 -1.39412 0
M  V30 21788 H 1988.32 1.63087 -3.58882 0
M  V30 21789 H 1989.61 2.52164 -4.41917 0
M  V30 21790 H 1989.01 5.0683 -2.51276 0
M  V30 21791 H 1987.57 5.65882 -3.23451 0
M  V30 21792 N 1991 1.52564 0.395213 0
M  V30 21793 C 1992.25 1.67552 1.14254 0
M  V30 21794 C 1992.58 0.411135 1.89798 0
M  V30 21795 O 1991.85 -0.590891 1.85307 0
M  V30 21796 C 1992.14 2.90657 2.1258 0
M  V30 21797 C 1991.99 4.27181 1.40841 0
M  V30 21798 C 1993.31 3.09301 3.13083 0
M  V30 21799 H 1990.43 0.609735 0.413995 0
M  V30 21800 H 1993.07 1.85148 0.426634 0
M  V30 21801 H 1991.22 2.75787 2.73631 0
M  V30 21802 H 1992.89 4.53808 0.82802 0
M  V30 21803 H 1991.14 4.27946 0.71028 0
M  V30 21804 H 1991.81 5.09393 2.12656 0
M  V30 21805 H 1994.28 3.23162 2.62118 0
M  V30 21806 H 1993.16 3.96925 3.79133 0
M  V30 21807 H 1993.42 2.23237 3.81599 0
M  V30 21808 N 1992.48 -0.653289 1.43422 0
M  V30 21809 C 1993.41 -1.77779 1.51383 0
M  V30 21810 C 1994.39 -1.6606 0.368515 0
M  V30 21811 O 1995.57 -1.85157 0.585721 0
M  V30 21812 C 1992.7 -3.16206 1.43635 0
M  V30 21813 C 1991.66 -3.42688 2.56415 0
M  V30 21814 C 1990.98 -4.80915 2.3372 0
M  V30 21815 C 1992.28 -3.3744 3.98662 0
M  V30 21816 H 1993.98 -1.71374 2.45502 0
M  V30 21817 H 1991.52 -0.823062 1.1816 0
M  V30 21818 H 1993.48 -3.94627 1.47808 0
M  V30 21819 H 1992.2 -3.23341 0.460202 0
M  V30 21820 H 1990.86 -2.66638 2.51594 0
M  V30 21821 H 1990.51 -4.84726 1.34349 0
M  V30 21822 H 1990.21 -4.99594 3.09321 0
M  V30 21823 H 1991.73 -5.61594 2.39677 0
M  V30 21824 H 1993.15 -4.05798 4.0497 0
M  V30 21825 H 1991.54 -3.67656 4.74288 0
M  V30 21826 H 1992.61 -2.35624 4.23803 0
M  V30 21827 N 1993.96 -1.29952 -0.891648 0
M  V30 21828 C 1994.89 -1.11577 -2.00208 0
M  V30 21829 C 1995.9 -0.0609281 -1.62686 0
M  V30 21830 O 1997.09 -0.306271 -1.75853 0
M  V30 21831 C 1994.19 -0.678052 -3.32048 0
M  V30 21832 C 1993.36 -1.81318 -3.98048 0
M  V30 21833 C 1992.42 -1.36513 -5.08184 0
M  V30 21834 O 1991.45 -2.07122 -5.30178 0
M  V30 21835 N 1992.65 -0.240455 -5.80002 0
M  V30 21836 H 1995.42 -2.07214 -2.16523 0
M  V30 21837 H 1992.98 -1.21998 -1.06433 0
M  V30 21838 H 1994.97 -0.361457 -4.03083 0
M  V30 21839 H 1993.54 0.186094 -3.12046 0
M  V30 21840 H 1992.76 -2.29824 -3.20272 0
M  V30 21841 H 1994.05 -2.57406 -4.38885 0
M  V30 21842 H 1993.44 0.34806 -5.64628 0
M  V30 21843 H 1992 0.016726 -6.51798 0
M  V30 21844 N 1995.44 1.1031 -1.12559 0
M  V30 21845 C 1996.35 2.20257 -0.807721 0
M  V30 21846 C 1997.36 1.728 0.203997 0
M  V30 21847 O 1998.54 2.01365 0.0372766 0
M  V30 21848 C 1995.6 3.4566 -0.26839 0
M  V30 21849 C 1994.66 4.07844 -1.3402 0
M  V30 21850 C 1993.9 5.27261 -0.826511 0
M  V30 21851 O 1994.12 5.6939 0.339244 0
M  V30 21852 O 1993.05 5.80335 -1.5967 0
M  V30 21853 H 1996.88 2.49882 -1.72606 0
M  V30 21854 H 1994.46 1.19071 -0.902352 0
M  V30 21855 H 1996.35 4.21391 0.0274321 0
M  V30 21856 H 1995.02 3.17658 0.622489 0
M  V30 21857 H 1993.93 3.33791 -1.68921 0
M  V30 21858 H 1995.26 4.40051 -2.20489 0
M  V30 21859 N 1996.91 0.917694 1.28125 0
M  V30 21860 C 1998.14 0.56827 1.99463 0
M  V30 21861 C 1998.56 -0.844246 1.6809 0
M  V30 21862 O 1997.92 -1.56487 0.915504 0
M  V30 21863 C 1997.97 0.788859 3.51866 0
M  V30 21864 O 1997.07 -0.150301 4.12126 0
M  V30 21865 H 1996.41 0.219899 0.626531 0
M  V30 21866 H 1998.94 1.23421 1.63182 0
M  V30 21867 H 1998.95 0.700502 4.01942 0
M  V30 21868 H 1997.63 1.81855 3.74034 0
M  V30 21869 H 1996.21 -0.012878 3.72898 0
M  V30 21870 N 1998.39 -1.42074 0.682102 0
M  V30 21871 C 1999.32 -2.33489 0.0224223 0
M  V30 21872 C 2000.3 -1.51082 -0.781557 0
M  V30 21873 O 2001.49 -1.79662 -0.737243 0
M  V30 21874 C 1998.62 -3.34773 -0.92434 0
M  V30 21875 C 1997.57 -4.2739 -0.228431 0
M  V30 21876 C 1996.9 -5.1894 -1.28863 0
M  V30 21877 C 1998.2 -5.14539 0.897035 0
M  V30 21878 H 1999.89 -2.88901 0.785898 0
M  V30 21879 H 1997.44 -1.38913 0.379376 0
M  V30 21880 H 1999.39 -3.97641 -1.39497 0
M  V30 21881 H 1998.11 -2.77681 -1.71932 0
M  V30 21882 H 1996.77 -3.65927 0.222034 0
M  V30 21883 H 1996.42 -4.5817 -2.07579 0
M  V30 21884 H 1996.12 -5.81736 -0.828084 0
M  V30 21885 H 1997.65 -5.84683 -1.76005 0
M  V30 21886 H 1999.06 -5.71051 0.507296 0
M  V30 21887 H 1997.46 -5.86206 1.28383 0
M  V30 21888 H 1998.53 -4.52505 1.74263 0
M  V30 21889 N 1999.87 -0.425924 -1.51735 0
M  V30 21890 C 2001.12 0.144058 -2.01586 0
M  V30 21891 C 2001.44 1.44204 -1.31264 0
M  V30 21892 O 2000.71 1.9081 -0.443661 0
M  V30 21893 H 1999.29 0.0562264 -0.744881 0
M  V30 21894 H 2001.95 -0.566016 -1.865 0
M  V30 21895 H 2001.05 0.328161 -3.1037 0
M  V30 21896 N 2001.35 1.56817 -0.156891 0
M  V30 21897 C 2002.26 2.20833 0.79183 0
M  V30 21898 C 2003.27 1.19558 1.26419 0
M  V30 21899 O 2004.45 1.5217 1.31933 0
M  V30 21900 C 2001.51 2.82517 2.00961 0
M  V30 21901 C 2000.58 3.98948 1.58552 0
M  V30 21902 C 1999.81 4.57681 2.74525 0
M  V30 21903 O 2000.03 4.15295 3.91007 0
M  V30 21904 O 1998.97 5.47786 2.49428 0
M  V30 21905 H 2002.79 3.02436 0.276846 0
M  V30 21906 H 2000.38 1.49233 0.0706167 0
M  V30 21907 H 2002.26 3.21683 2.72209 0
M  V30 21908 H 2000.93 2.03921 2.51392 0
M  V30 21909 H 1999.84 3.64479 0.84297 0
M  V30 21910 H 2001.17 4.79094 1.12826 0
M  V30 21911 N 2002.83 -0.116876 1.57166 0
M  V30 21912 C 2003.76 -1.14443 2.03531 0
M  V30 21913 C 2004.74 -1.43063 0.920159 0
M  V30 21914 O 2005.92 -1.53468 1.19001 0
M  V30 21915 C 2003.05 -2.47006 2.44142 0
M  V30 21916 C 2002.01 -2.32843 3.59121 0
M  V30 21917 C 2001.33 -3.70388 3.85639 0
M  V30 21918 C 2002.63 -1.78717 4.90772 0
M  V30 21919 H 2004.33 -0.75878 2.89625 0
M  V30 21920 H 2001.87 -0.363551 1.39335 0
M  V30 21921 H 2003.82 -3.19143 2.75184 0
M  V30 21922 H 2002.55 -2.87465 1.55021 0
M  V30 21923 H 2001.21 -1.63155 3.28293 0
M  V30 21924 H 2000.86 -4.08335 2.9372 0
M  V30 21925 H 2000.56 -3.61764 4.63034 0
M  V30 21926 H 2002.08 -4.44026 4.19134 0
M  V30 21927 H 2003.49 -2.40673 5.20336 0
M  V30 21928 H 2001.89 -1.80909 5.72182 0
M  V30 21929 H 2002.96 -0.744891 4.79144 0
M  V30 21930 N 2004.3 -1.52772 -0.387116 0
M  V30 21931 C 2005.58 -1.5849 -1.14631 0
M  V30 21932 C 2005.96 -0.379228 -2.07666 0
M  V30 21933 O 2005.31 0.632297 -2.19577 0
M  V30 21934 C 2005.52 -2.92465 -1.90434 0
M  V30 21935 C 2006.87 -3.46269 -2.45729 0
M  V30 21936 O 2007.89 -2.94352 -2.00588 0
M  V30 21937 O 2006.75 -4.3698 -3.28193 0
M  V30 21938 H 2003.84 -0.639307 -0.52461 0
M  V30 21939 H 2006.39 -1.65108 -0.392117 0
M  V30 21940 H 2005.16 -3.7166 -1.22411 0
M  V30 21941 H 2004.78 -2.89241 -2.7281 0
M  V30 21942 N 2005.78 0.645673 -1.43767 0
M  V30 21943 C 2006.73 1.75828 -1.4951 0
M  V30 21944 C 2007.7 1.62496 -0.344109 0
M  V30 21945 O 2008.88 1.82631 -0.552323 0
M  V30 21946 C 2006.02 3.14017 -1.43134 0
M  V30 21947 C 2005.14 3.38428 -2.68496 0
M  V30 21948 C 2004.27 4.66507 -2.54056 0
M  V30 21949 C 2003.31 4.84049 -3.74651 0
M  V30 21950 N 2002.45 6.03392 -3.58974 0
M  V30 21951 H 2007.29 1.70254 -2.44576 0
M  V30 21952 H 2004.82 0.830729 -1.21397 0
M  V30 21953 H 2006.78 3.93915 -1.37431 0
M  V30 21954 H 2005.41 3.18642 -0.516449 0
M  V30 21955 H 2004.46 2.52574 -2.84448 0
M  V30 21956 H 2005.78 3.47274 -3.58054 0
M  V30 21957 H 2004.93 5.54543 -2.46103 0
M  V30 21958 H 2003.67 4.59996 -1.62035 0
M  V30 21959 H 2002.67 3.94447 -3.83004 0
M  V30 21960 H 2003.9 4.92385 -4.67689 0
M  V30 21961 H 2001.85 5.97998 -2.69694 0
M  V30 21962 H 2001.76 6.13229 -4.42138 0
M  V30 21963 H 2003.03 6.94029 -3.54887 0
M  V30 21964 N 2007.26 1.30423 0.884744 0
M  V30 21965 C 2008.19 1.12637 1.99613 0
M  V30 21966 C 2009.2 0.0695549 1.62651 0
M  V30 21967 O 2010.39 0.315593 1.75688 0
M  V30 21968 C 2007.49 0.695652 3.31683 0
M  V30 21969 C 2006.67 1.83427 3.97081 0
M  V30 21970 C 2005.73 1.39206 5.07453 0
M  V30 21971 O 2004.75 2.09931 5.29072 0
M  V30 21972 N 2005.95 0.27121 5.79866 0
M  V30 21973 H 2008.72 2.0836 2.15421 0
M  V30 21974 H 2006.28 1.22561 1.05784 0
M  V30 21975 H 2008.27 0.382828 4.02885 0
M  V30 21976 H 2006.84 -0.169542 3.1214 0
M  V30 21977 H 2006.06 2.31519 3.19049 0
M  V30 21978 H 2007.35 2.5973 4.37513 0
M  V30 21979 H 2006.75 -0.318111 5.64805 0
M  V30 21980 H 2005.3 0.0178406 6.51798 0
M  V30 21981 N 2008.74 -1.09711 1.13142 0
M  V30 21982 C 2009.67 -2.18301 0.828662 0
M  V30 21983 C 2010.65 -1.6879 -0.210733 0
M  V30 21984 O 2011.83 -1.94073 -0.0702977 0
M  V30 21985 C 2008.96 -3.46081 0.290674 0
M  V30 21986 C 2007.92 -4.0891 1.26398 0
M  V30 21987 C 2007.24 -5.3148 0.585887 0
M  V30 21988 C 2008.54 -4.51751 2.62142 0
M  V30 21989 H 2010.24 -2.43885 1.73668 0
M  V30 21990 H 2007.78 -1.17216 0.836449 0
M  V30 21991 H 2009.74 -4.21347 0.0665509 0
M  V30 21992 H 2008.46 -3.20011 -0.652716 0
M  V30 21993 H 2007.12 -3.3566 1.47405 0
M  V30 21994 H 2006.77 -5.01689 -0.362883 0
M  V30 21995 H 2006.47 -5.7447 1.23522 0
M  V30 21996 H 2007.99 -6.09472 0.370976 0
M  V30 21997 H 2009.41 -5.18255 2.45121 0
M  V30 21998 H 2007.8 -5.05615 3.23223 0
M  V30 21999 H 2008.87 -3.64297 3.20025 0
M  V30 22000 N 2010.22 -0.924476 -1.27637 0
M  V30 22001 C 2011.44 -0.579431 -1.98621 0
M  V30 22002 C 2011.86 0.84181 -1.68994 0
M  V30 22003 O 2011.22 1.55905 -0.948681 0
M  V30 22004 C 2011.27 -0.791898 -3.5272 0
M  V30 22005 O 2010.99 -2.15722 -3.81308 0
M  V30 22006 C 2012.49 -0.45513 -4.40957 0
M  V30 22007 H 2009.71 -0.219875 -0.633953 0
M  V30 22008 H 2012.25 -1.24062 -1.6257 0
M  V30 22009 H 2010.41 -0.17756 -3.86993 0
M  V30 22010 H 2010.82 -2.20483 -4.75907 0
M  V30 22011 H 2012.3 -0.654507 -5.48106 0
M  V30 22012 H 2012.77 0.609177 -4.34955 0
M  V30 22013 H 2013.38 -1.04747 -4.12199 0
M  V30 22014 N 2011.69 1.41711 -0.689627 0
M  V30 22015 C 2012.92 2.05652 -0.226938 0
M  V30 22016 C 2013.34 1.51875 1.12158 0
M  V30 22017 O 2012.69 0.664544 1.69971 0
M  V30 22018 C 2012.75 3.61102 -0.169503 0
M  V30 22019 O 2012.47 4.12888 -1.46475 0
M  V30 22020 C 2013.97 4.4218 0.314894 0
M  V30 22021 H 2011.19 0.66244 -0.10684 0
M  V30 22022 H 2013.73 1.81588 -0.940538 0
M  V30 22023 H 2011.89 3.84226 0.49488 0
M  V30 22024 H 2012.3 5.06884 -1.34791 0
M  V30 22025 H 2013.77 5.51162 0.303964 0
M  V30 22026 H 2014.25 4.17848 1.35275 0
M  V30 22027 H 2014.86 4.24107 -0.318278 0
M  V30 22028 N 2013.17 0.433965 1.51507 0
M  V30 22029 C 2014.4 -0.132211 2.06177 0
M  V30 22030 C 2014.81 -1.37301 1.30174 0
M  V30 22031 O 2014.15 -1.80262 0.353712 0
M  V30 22032 C 2014.22 -0.523141 3.55673 0
M  V30 22033 C 2013.88 0.610379 4.52905 0
M  V30 22034 C 2014.88 1.4815 4.98345 0
M  V30 22035 C 2012.56 0.79015 4.96046 0
M  V30 22036 C 2014.56 2.51711 5.85594 0
M  V30 22037 C 2012.24 1.82904 5.83086 0
M  V30 22038 C 2013.24 2.69091 6.27757 0
M  V30 22039 O 2012.93 3.71197 7.13069 0
M  V30 22040 H 2012.66 -0.0128686 0.675878 0
M  V30 22041 H 2015.21 0.610848 1.96107 0
M  V30 22042 H 2013.44 -1.31885 3.63515 0
M  V30 22043 H 2015.13 -1.02008 3.92873 0
M  V30 22044 H 2015.9 1.35413 4.65713 0
M  V30 22045 H 2011.78 0.12889 4.6082 0
M  V30 22046 H 2015.32 3.19016 6.20383 0
M  V30 22047 H 2011.22 1.95662 6.15131 0
M  V30 22048 H 2011.99 3.67738 7.31239 0
M  V30 22049 N 2014.65 -1.56732 0.165206 0
M  V30 22050 C 2015.58 -2.20674 -0.763223 0
M  V30 22051 C 2016.56 -1.16048 -1.24366 0
M  V30 22052 O 2017.75 -1.44456 -1.29793 0
M  V30 22053 C 2014.88 -2.84269 -1.9952 0
M  V30 22054 C 2013.83 -3.94881 -1.65085 0
M  V30 22055 C 2013.16 -4.45496 -2.95698 0
M  V30 22056 C 2014.46 -5.14773 -0.883543 0
M  V30 22057 H 2016.15 -2.98513 -0.230254 0
M  V30 22058 H 2013.7 -1.43585 -0.109308 0
M  V30 22059 H 2015.65 -3.27674 -2.64967 0
M  V30 22060 H 2014.37 -2.03789 -2.55221 0
M  V30 22061 H 2013.03 -3.52122 -1.0201 0
M  V30 22062 H 2012.68 -3.61815 -3.49426 0
M  V30 22063 H 2012.38 -5.20114 -2.73414 0
M  V30 22064 H 2013.9 -4.91584 -3.62185 0
M  V30 22065 H 2015.32 -5.54908 -1.44047 0
M  V30 22066 H 2013.72 -5.95268 -0.759968 0
M  V30 22067 H 2014.79 -4.84748 0.121303 0
M  V30 22068 N 2016.13 0.10854 -1.57226 0
M  V30 22069 C 2017.36 0.828374 -1.89593 0
M  V30 22070 C 2017.77 1.72936 -0.757543 0
M  V30 22071 O 2017.13 1.80474 0.271152 0
M  V30 22072 C 2017.18 1.65304 -3.21492 0
M  V30 22073 O 2016.9 0.788315 -4.30949 0
M  V30 22074 C 2018.4 2.47711 -3.67633 0
M  V30 22075 H 2015.62 0.237584 -0.627531 0
M  V30 22076 H 2018.17 0.0897975 -2.04303 0
M  V30 22077 H 2016.32 2.34426 -3.0842 0
M  V30 22078 H 2016.73 1.35814 -5.06611 0
M  V30 22079 H 2018.21 3.01088 -4.62655 0
M  V30 22080 H 2018.69 3.25555 -2.94806 0
M  V30 22081 H 2019.29 1.83812 -3.83527 0
M  V30 22082 N 2017.61 1.52975 0.379009 0
M  V30 22083 C 2018.88 1.59096 1.13789 0
M  V30 22084 C 2019.26 0.390236 2.07462 0
M  V30 22085 O 2018.61 -0.620644 2.1991 0
M  V30 22086 C 2018.82 2.93471 1.8888 0
M  V30 22087 C 2020.17 3.47567 2.43889 0
M  V30 22088 O 2021.19 2.95411 1.99024 0
M  V30 22089 O 2020.05 4.38714 3.25871 0
M  V30 22090 H 2017.15 0.64208 0.521213 0
M  V30 22091 H 2019.69 1.65313 0.383355 0
M  V30 22092 H 2018.46 3.72304 1.20438 0
M  V30 22093 H 2018.09 2.90684 2.71272 0
M  V30 22094 N 2019.08 -0.63804 1.44107 0
M  V30 22095 C 2020.5 -0.955442 1.27842 0
M  V30 22096 C 2020.7 -2.00412 0.209151 0
M  V30 22097 O 2019.76 -2.49193 -0.407303 0
M  V30 22098 C 2021.07 -1.42528 2.64776 0
M  V30 22099 C 2022.62 -1.54112 2.72431 0
M  V30 22100 C 2023.09 -2.04482 4.09819 0
M  V30 22101 N 2024.58 -2.11762 4.1196 0
M  V30 22102 C 2025.32 -2.51891 5.1511 0
M  V30 22103 N 2024.81 -2.91207 6.28626 0
M  V30 22104 N 2026.61 -2.51964 5.02464 0
M  V30 22105 H 2018.76 0.0556164 2.12327 0
M  V30 22106 H 2021.02 -0.037732 0.947249 0
M  V30 22107 H 2020.73 -0.729067 3.4406 0
M  V30 22108 H 2020.6 -2.39756 2.91199 0
M  V30 22109 H 2022.99 -2.22831 1.93469 0
M  V30 22110 H 2023.07 -0.552769 2.49756 0
M  V30 22111 H 2022.71 -1.3636 4.89253 0
M  V30 22112 H 2022.64 -3.04176 4.29866 0
M  V30 22113 H 2025.13 -1.8409 3.30029 0
M  V30 22114 H 2025.45 -3.2062 7.03152 0
M  V30 22115 H 2023.79 -2.88975 6.32075 0
M  V30 22116 H 2026.98 -2.20635 4.12841 0
M  V30 22117 H 2027.16 -2.82915 5.82978 0
M  V30 22118 N 2020.56 -1.3089 -0.877815 0
M  V30 22119 C 2021.81 -1.19488 -1.62498 0
M  V30 22120 C 2022.12 0.247666 -1.94026 0
M  V30 22121 O 2023.33 0.483286 -2.67164 0
M  V30 22122 C 2021.79 -2.09126 -2.92906 0
M  V30 22123 C 2021.39 -3.58331 -2.68891 0
M  V30 22124 C 2023.14 -2.06505 -3.70885 0
M  V30 22125 C 2021.05 -4.40003 -3.9516 0
M  V30 22126 H 2019.98 -0.44363 -0.609679 0
M  V30 22127 H 2022.63 -1.5569 -0.971235 0
M  V30 22128 H 2021.01 -1.65815 -3.59613 0
M  V30 22129 H 2022.18 -4.09838 -2.10642 0
M  V30 22130 H 2020.5 -3.62849 -2.04278 0
M  V30 22131 H 2023.09 -2.64772 -4.64543 0
M  V30 22132 H 2023.44 -1.05026 -4.02834 0
M  V30 22133 H 2023.97 -2.47975 -3.11052 0
M  V30 22134 H 2020.71 -5.42205 -3.68366 0
M  V30 22135 H 2020.23 -3.93258 -4.52889 0
M  V30 22136 H 2021.91 -4.5181 -4.63117 0
M  V30 22137 N 2022.04 1.0911 -1.13723 0
M  V30 22138 C 2023.32 1.77949 -0.812014 0
M  V30 22139 C 2023.7 1.99302 0.695832 0
M  V30 22140 O 2023.05 1.59704 1.63422 0
M  V30 22141 C 2023.26 3.10028 -1.60262 0
M  V30 22142 C 2024.6 3.84681 -1.79738 0
M  V30 22143 O 2025.63 3.19789 -1.56887 0
M  V30 22144 O 2024.49 5.01185 -2.17888 0
M  V30 22145 H 2021.58 0.7719 -0.296816 0
M  V30 22146 H 2024.13 1.15637 -1.24202 0
M  V30 22147 H 2022.9 2.8999 -2.62719 0
M  V30 22148 H 2022.52 3.80065 -1.16776 0
M  V30 22149 N 2023.52 0.931232 1.27145 0
M  V30 22150 C 2024.48 0.43771 2.24982 0
M  V30 22151 C 2025.48 -0.445689 1.545 0
M  V30 22152 O 2026.67 -0.24627 1.7245 0
M  V30 22153 C 2023.8 -0.370327 3.38883 0
M  V30 22154 H 2025 1.30217 2.70154 0
M  V30 22155 H 2022.55 0.712252 1.39128 0
M  V30 22156 H 2023.28 -1.25346 2.99097 0
M  V30 22157 H 2023.07 0.263109 3.91216 0
M  V30 22158 H 2024.56 -0.705876 4.11591 0
M  V30 22159 N 2025 -1.41343 0.697132 0
M  V30 22160 C 2026.24 -2.01204 0.22876 0
M  V30 22161 C 2026.57 -1.55215 -1.17211 0
M  V30 22162 O 2025.83 -0.754886 -1.80555 0
M  V30 22163 C 2026.13 -3.56617 0.236459 0
M  V30 22164 C 2025.79 -4.22121 1.58507 0
M  V30 22165 C 2024.45 -4.39729 1.95427 0
M  V30 22166 C 2026.81 -4.58835 2.47224 0
M  V30 22167 C 2024.13 -4.91328 3.20646 0
M  V30 22168 C 2026.49 -5.11825 3.71777 0
M  V30 22169 C 2025.15 -5.27643 4.08838 0
M  V30 22170 H 2024.42 -0.736257 0.0837091 0
M  V30 22171 H 2027.07 -1.69218 0.89653 0
M  V30 22172 H 2025.37 -3.88402 -0.514862 0
M  V30 22173 H 2027.07 -4.00743 -0.14349 0
M  V30 22174 H 2023.66 -4.08792 1.28791 0
M  V30 22175 H 2027.84 -4.44885 2.1998 0
M  V30 22176 H 2023.1 -5.01759 3.49353 0
M  V30 22177 H 2027.27 -5.39213 4.40706 0
M  V30 22178 H 2024.9 -5.67388 5.05939 0
M  V30 22179 N 2026.48 -0.441993 -1.51275 0
M  V30 22180 C 2027.41 0.40297 -2.2563 0
M  V30 22181 C 2028.42 0.982305 -1.29825 0
M  V30 22182 O 2029.61 0.875653 -1.55546 0
M  V30 22183 C 2026.71 1.57618 -3.00016 0
M  V30 22184 C 2025.88 1.11489 -4.22953 0
M  V30 22185 C 2024.94 2.15876 -4.79879 0
M  V30 22186 O 2023.97 1.75121 -5.41591 0
M  V30 22187 N 2025.17 3.48408 -4.64319 0
M  V30 22188 H 2027.93 -0.234323 -2.98783 0
M  V30 22189 H 2025.5 -0.271138 -1.59613 0
M  V30 22190 H 2027.49 2.27084 -3.34985 0
M  V30 22191 H 2026.06 2.11873 -2.29845 0
M  V30 22192 H 2025.28 0.247136 -3.93425 0
M  V30 22193 H 2026.57 0.78415 -5.02721 0
M  V30 22194 H 2025.96 3.84249 -4.15173 0
M  V30 22195 H 2024.52 4.13755 -5.03637 0
M  V30 22196 N 2027.95 1.56642 -0.173515 0
M  V30 22197 C 2029.2 1.97241 0.47157 0
M  V30 22198 C 2029.53 1.05958 1.62747 0
M  V30 22199 O 2028.81 0.107151 1.94205 0
M  V30 22200 C 2029.09 3.47276 0.952439 0
M  V30 22201 C 2028.94 4.49338 -0.203789 0
M  V30 22202 C 2030.26 4.00461 1.82535 0
M  V30 22203 H 2027.38 0.71714 0.169941 0
M  V30 22204 H 2030.02 1.88211 -0.260093 0
M  V30 22205 H 2028.17 3.55102 1.57591 0
M  V30 22206 H 2029.85 4.5357 -0.840936 0
M  V30 22207 H 2028.09 4.25211 -0.858945 0
M  V30 22208 H 2028.76 5.51723 0.174833 0
M  V30 22209 H 2031.24 3.9528 1.29974 0
M  V30 22210 H 2030.11 5.05853 2.13083 0
M  V30 22211 H 2030.37 3.44409 2.7719 0
M  V30 22212 N 2029.43 -0.1002 1.57281 0
M  V30 22213 C 2030.84 -0.655287 1.74822 0
M  V30 22214 C 2031.19 -1.79373 0.794961 0
M  V30 22215 O 2030.32 -2.16382 -0.0277532 0
M  V30 22216 C 2030.91 -1.19548 3.17008 0
M  V30 22217 C 2029.47 -1.69668 3.35991 0
M  V30 22218 C 2028.62 -0.604127 2.70639 0
M  V30 22219 H 2031.57 0.125841 1.582 0
M  V30 22220 H 2031.59 -2.06489 3.19598 0
M  V30 22221 H 2031.1 -0.366679 3.86364 0
M  V30 22222 H 2029.2 -2.54964 2.71706 0
M  V30 22223 H 2029.32 -1.79318 4.44277 0
M  V30 22224 H 2027.68 -1.04234 2.32395 0
M  V30 22225 H 2028.46 0.214006 3.42632 0
M  V30 22226 N 2030.91 -1.53174 -0.370891 0
M  V30 22227 C 2031.84 -1.75513 -1.47403 0
M  V30 22228 C 2032.85 -0.635818 -1.49871 0
M  V30 22229 O 2034.04 -0.911956 -1.53446 0
M  V30 22230 C 2031.14 -1.81519 -2.86189 0
M  V30 22231 C 2030.32 -3.11087 -3.07479 0
M  V30 22232 C 2029.38 -3.08403 -4.26349 0
M  V30 22233 O 2028.4 -3.82218 -4.2178 0
M  V30 22234 N 2029.6 -2.28851 -5.33486 0
M  V30 22235 H 2032.37 -2.70697 -1.2862 0
M  V30 22236 H 2029.93 -1.51886 -0.56057 0
M  V30 22237 H 2031.92 -1.77207 -3.6384 0
M  V30 22238 H 2030.49 -0.936423 -2.98245 0
M  V30 22239 H 2029.71 -3.28744 -2.17534 0
M  V30 22240 H 2031 -3.96726 -3.18569 0
M  V30 22241 H 2030.4 -1.68381 -5.4006 0
M  V30 22242 H 2028.95 -2.30363 -6.09734 0
M  V30 22243 N 2032.39 0.630389 -1.44443 0
M  V30 22244 C 2033.3 1.77101 -1.53859 0
M  V30 22245 C 2034.31 1.68749 -0.424221 0
M  V30 22246 O 2035.49 1.89513 -0.681673 0
M  V30 22247 C 2032.55 3.13487 -1.48077 0
M  V30 22248 C 2031.62 3.33464 -2.7037 0
M  V30 22249 C 2030.85 4.63344 -2.64855 0
M  V30 22250 O 2031.07 5.44196 -1.70899 0
M  V30 22251 O 2030.01 4.85539 -3.55718 0
M  V30 22252 H 2033.83 1.7211 -2.50223 0
M  V30 22253 H 2031.42 0.791704 -1.26698 0
M  V30 22254 H 2033.3 3.94788 -1.47378 0
M  V30 22255 H 2031.97 3.19018 -0.54856 0
M  V30 22256 H 2030.88 2.51839 -2.76637 0
M  V30 22257 H 2032.21 3.32795 -3.6264 0
M  V30 22258 N 2033.87 1.31354 0.870861 0
M  V30 22259 C 2034.83 1.18889 1.95954 0
M  V30 22260 C 2035.83 0.116227 1.60379 0
M  V30 22261 O 2037.02 0.365426 1.70324 0
M  V30 22262 C 2034.15 0.824704 3.30774 0
M  V30 22263 H 2035.34 2.15624 2.08438 0
M  V30 22264 H 2032.9 1.14952 1.05904 0
M  V30 22265 H 2033.63 -0.141533 3.23991 0
M  V30 22266 H 2033.42 1.60006 3.57967 0
M  V30 22267 H 2034.91 0.761361 4.10601 0
M  V30 22268 N 2035.34 -1.08505 1.143 0
M  V30 22269 C 2036.28 -2.15273 0.786783 0
M  V30 22270 C 2037.29 -1.61618 -0.195861 0
M  V30 22271 O 2038.48 -1.78481 0.0257031 0
M  V30 22272 C 2035.58 -3.38581 0.147036 0
M  V30 22273 C 2034.75 -4.21623 1.16415 0
M  V30 22274 C 2033.81 -5.23335 0.548355 0
M  V30 22275 O 2032.84 -5.56168 1.21104 0
M  V30 22276 N 2034.04 -5.76558 -0.67533 0
M  V30 22277 H 2036.8 -2.46436 1.70557 0
M  V30 22278 H 2034.36 -1.24306 1.03728 0
M  V30 22279 H 2036.36 -4.03748 -0.277407 0
M  V30 22280 H 2034.93 -3.05228 -0.674862 0
M  V30 22281 H 2034.15 -3.5245 1.76557 0
M  V30 22282 H 2035.43 -4.73925 1.85128 0
M  V30 22283 H 2034.83 -5.52115 -1.23232 0
M  V30 22284 H 2033.39 -6.43412 -1.0423 0
M  V30 22285 N 2036.82 -0.937962 -1.26649 0
M  V30 22286 C 2037.77 -0.443717 -2.26495 0
M  V30 22287 C 2038.74 0.494894 -1.58556 0
M  V30 22288 O 2039.92 0.411807 -1.86303 0
M  V30 22289 C 2037.06 0.287974 -3.43896 0
M  V30 22290 C 2036.18 -0.685936 -4.2652 0
M  V30 22291 C 2035.31 0.0666303 -5.31158 0
M  V30 22292 C 2034.35 -0.899313 -6.05457 0
M  V30 22293 N 2033.49 -0.17871 -7.01873 0
M  V30 22294 H 2038.33 -1.3001 -2.68144 0
M  V30 22295 H 2035.86 -0.652331 -1.31845 0
M  V30 22296 H 2037.82 0.728613 -4.10788 0
M  V30 22297 H 2036.45 1.10852 -3.03169 0
M  V30 22298 H 2035.5 -1.24509 -3.59446 0
M  V30 22299 H 2036.82 -1.42373 -4.7805 0
M  V30 22300 H 2035.97 0.566702 -6.04047 0
M  V30 22301 H 2034.71 0.837326 -4.80458 0
M  V30 22302 H 2033.71 -1.41054 -5.31398 0
M  V30 22303 H 2034.94 -1.66996 -6.58247 0
M  V30 22304 H 2032.89 0.573553 -6.53488 0
M  V30 22305 H 2032.8 -0.855891 -7.51139 0
M  V30 22306 H 2034.07 0.300374 -7.78921 0
M  V30 22307 N 2038.3 1.40971 -0.704618 0
M  V30 22308 C 2039.55 2.00309 -0.236478 0
M  V30 22309 C 2039.86 1.56482 1.17358 0
M  V30 22310 O 2041.07 2.08442 1.73966 0
M  V30 22311 C 2039.52 3.57974 -0.371877 0
M  V30 22312 C 2039.13 4.10779 -1.78788 0
M  V30 22313 C 2040.88 4.24485 0.0360284 0
M  V30 22314 C 2038.78 5.60909 -1.87445 0
M  V30 22315 H 2037.71 0.749233 -0.0846557 0
M  V30 22316 H 2040.36 1.61342 -0.874125 0
M  V30 22317 H 2038.75 3.94587 0.334172 0
M  V30 22318 H 2039.92 3.85565 -2.52342 0
M  V30 22319 H 2038.23 3.56826 -2.14626 0
M  V30 22320 H 2040.83 5.34699 -0.00808813 0
M  V30 22321 H 2041.17 4.02149 1.07621 0
M  V30 22322 H 2041.71 3.92938 -0.620069 0
M  V30 22323 H 2038.45 5.88084 -2.89546 0
M  V30 22324 H 2037.97 5.88021 -1.18287 0
M  V30 22325 H 2039.65 6.25831 -1.6415 0
M  V30 22326 N 2039.78 0.45001 1.51039 0
M  V30 22327 C 2040.71 -0.390998 2.2584 0
M  V30 22328 C 2041.72 -0.975406 1.30344 0
M  V30 22329 O 2042.91 -0.867391 1.56008 0
M  V30 22330 C 2040.01 -1.56025 3.00848 0
M  V30 22331 C 2039.19 -1.09244 4.23538 0
M  V30 22332 C 2038.24 -2.13329 4.81017 0
M  V30 22333 O 2037.27 -1.72246 5.42513 0
M  V30 22334 N 2038.47 -3.45941 4.6616 0
M  V30 22335 H 2041.24 0.250165 2.98654 0
M  V30 22336 H 2038.8 0.279599 1.59467 0
M  V30 22337 H 2040.79 -2.25304 3.36185 0
M  V30 22338 H 2039.36 -2.10651 2.30965 0
M  V30 22339 H 2038.58 -0.226269 3.9355 0
M  V30 22340 H 2039.87 -0.757479 5.0313 0
M  V30 22341 H 2039.27 -3.82042 4.17205 0
M  V30 22342 H 2037.82 -4.11078 5.05824 0
M  V30 22343 N 2041.26 -1.56548 0.18182 0
M  V30 22344 C 2042.22 -2.17247 -0.730497 0
M  V30 22345 C 2043.22 -1.12333 -1.15056 0
M  V30 22346 O 2044.41 -1.3779 -1.06581 0
M  V30 22347 C 2041.54 -2.76383 -1.99563 0
M  V30 22348 H 2042.73 -2.9922 -0.201904 0
M  V30 22349 H 2040.29 -1.56153 -0.0677734 0
M  V30 22350 H 2041.02 -1.98173 -2.56706 0
M  V30 22351 H 2040.81 -3.53172 -1.70329 0
M  V30 22352 H 2042.3 -3.23034 -2.64649 0
M  V30 22353 N 2042.73 0.0918577 -1.57332 0
M  V30 22354 C 2043.64 1.1295 -2.0562 0
M  V30 22355 C 2044.66 1.4366 -0.981728 0
M  V30 22356 O 2045.84 1.54237 -1.29511 0
M  V30 22357 C 2042.9 2.42918 -2.4737 0
M  V30 22358 C 2041.96 2.19361 -3.69024 0
M  V30 22359 C 2041.2 3.43132 -4.08774 0
M  V30 22360 O 2041.42 4.51492 -3.48584 0
M  V30 22361 O 2040.35 3.32529 -5.01705 0
M  V30 22362 H 2044.18 0.74936 -2.9431 0
M  V30 22363 H 2041.76 0.304595 -1.46262 0
M  V30 22364 H 2043.65 3.19442 -2.74835 0
M  V30 22365 H 2042.32 2.80352 -1.61816 0
M  V30 22366 H 2041.23 1.40607 -3.46671 0
M  V30 22367 H 2042.56 1.86818 -4.55368 0
M  V30 22368 N 2044.21 1.53368 0.362763 0
M  V30 22369 C 2045.46 1.68906 1.10243 0
M  V30 22370 C 2045.77 0.448846 1.90381 0
M  V30 22371 O 2046.98 0.484821 2.67136 0
M  V30 22372 C 2045.44 2.98602 2.0091 0
M  V30 22373 C 2045.04 4.29895 1.26071 0
M  V30 22374 C 2046.79 3.23507 2.74852 0
M  V30 22375 C 2044.7 5.50678 2.15657 0
M  V30 22376 H 2043.63 0.629342 0.415265 0
M  V30 22377 H 2046.28 1.79869 0.363231 0
M  V30 22378 H 2044.66 2.81449 2.78572 0
M  V30 22379 H 2045.83 4.57689 0.534529 0
M  V30 22380 H 2044.15 4.11455 0.639803 0
M  V30 22381 H 2046.74 4.10931 3.42111 0
M  V30 22382 H 2047.09 2.39689 3.40374 0
M  V30 22383 H 2047.62 3.41347 2.04271 0
M  V30 22384 H 2044.36 6.36982 1.54707 0
M  V30 22385 H 2043.88 5.27159 2.86117 0
M  V30 22386 H 2045.56 5.85578 2.75151 0
M  V30 22387 N 2045.69 -0.62272 1.44776 0
M  V30 22388 C 2046.92 -1.41403 1.51723 0
M  V30 22389 C 2047.34 -1.87534 0.145802 0
M  V30 22390 O 2046.7 -1.59244 -0.866667 0
M  V30 22391 C 2046.75 -2.60482 2.49362 0
M  V30 22392 O 2045.85 -3.60604 2.00096 0
M  V30 22393 H 2045.19 -0.422766 0.51202 0
M  V30 22394 H 2047.72 -0.759294 1.89989 0
M  V30 22395 H 2047.73 -3.0792 2.67674 0
M  V30 22396 H 2046.41 -2.26253 3.48974 0
M  V30 22397 H 2044.98 -3.19918 1.9159 0
M  V30 22398 N 2047.17 -1.31814 -0.863883 0
M  V30 22399 C 2048.13 -1.19926 -1.95321 0
M  V30 22400 C 2049.13 -0.124731 -1.60316 0
M  V30 22401 O 2050.32 -0.374454 -1.70128 0
M  V30 22402 C 2047.45 -0.842234 -3.30332 0
M  V30 22403 H 2048.65 -2.16727 -2.07291 0
M  V30 22404 H 2046.2 -1.15512 -1.05293 0
M  V30 22405 H 2046.93 0.124348 -3.24062 0
M  V30 22406 H 2046.72 -1.61902 -3.57114 0
M  V30 22407 H 2048.21 -0.783125 -4.10191 0
M  V30 22408 N 2048.65 1.07897 -1.14873 0
M  V30 22409 C 2049.6 2.13167 -0.808951 0
M  V30 22410 C 2050.58 1.59598 0.204268 0
M  V30 22411 O 2051.77 1.76999 0.00583521 0
M  V30 22412 C 2048.9 3.4204 -0.293859 0
M  V30 22413 C 2047.99 4.02477 -1.33691 0
M  V30 22414 N 2048.38 4.37248 -2.54259 0
M  V30 22415 C 2046.68 4.29877 -1.18835 0
M  V30 22416 C 2047.38 4.85066 -3.2107 0
M  V30 22417 N 2046.35 4.83493 -2.48466 0
M  V30 22418 H 2050.16 2.37876 -1.72604 0
M  V30 22419 H 2047.67 1.25281 -1.03336 0
M  V30 22420 H 2049.67 4.16888 -0.0321146 0
M  V30 22421 H 2048.33 3.18777 0.617359 0
M  V30 22422 H 2049.34 4.28112 -2.91446 0
M  V30 22423 H 2046.01 4.16141 -0.336571 0
M  V30 22424 H 2047.4 5.21307 -4.23897 0
M  V30 22425 N 2050.12 0.944665 1.2615 0
M  V30 22426 C 2051.03 0.463226 2.29981 0
M  V30 22427 C 2052.05 -0.464516 1.67685 0
M  V30 22428 O 2053.23 -0.343195 1.98454 0
M  V30 22429 C 2050.29 -0.260612 3.45719 0
M  V30 22430 C 2049.35 0.704117 4.23486 0
M  V30 22431 C 2048.59 0.0147279 5.33698 0
M  V30 22432 O 2048.81 -1.20155 5.57601 0
M  V30 22433 O 2047.74 0.695202 5.97872 0
M  V30 22434 H 2051.57 1.3258 2.73233 0
M  V30 22435 H 2049.15 0.710696 1.31413 0
M  V30 22436 H 2051.04 -0.668207 4.16068 0
M  V30 22437 H 2049.71 -1.09852 3.0449 0
M  V30 22438 H 2048.62 1.16172 3.55605 0
M  V30 22439 H 2049.95 1.50974 4.68474 0
M  V30 22440 N 2051.6 -1.40596 0.712085 0
M  V30 22441 C 2052.53 -2.33389 0.0719438 0
M  V30 22442 C 2053.51 -1.52706 -0.749334 0
M  V30 22443 O 2054.7 -1.81185 -0.698968 0
M  V30 22444 C 2051.83 -3.36659 -0.853122 0
M  V30 22445 C 2050.78 -4.27778 -0.137724 0
M  V30 22446 C 2050.11 -5.21556 -1.17827 0
M  V30 22447 C 2051.41 -5.12521 1.00597 0
M  V30 22448 H 2053.1 -2.87169 0.847002 0
M  V30 22449 H 2050.65 -1.38077 0.408756 0
M  V30 22450 H 2052.6 -4.00511 -1.31031 0
M  V30 22451 H 2051.33 -2.81266 -1.66004 0
M  V30 22452 H 2049.98 -3.65374 0.299603 0
M  V30 22453 H 2049.63 -4.6247 -1.97814 0
M  V30 22454 H 2049.33 -5.83361 -0.704503 0
M  V30 22455 H 2050.86 -5.88285 -1.63563 0
M  V30 22456 H 2052.27 -5.69847 0.62831 0
M  V30 22457 H 2050.67 -5.83351 1.40789 0
M  V30 22458 H 2051.74 -4.48706 1.83822 0
M  V30 22459 N 2053.08 -0.458013 -1.50798 0
M  V30 22460 C 2054.31 0.0995379 -2.0666 0
M  V30 22461 C 2054.72 1.34662 -1.32331 0
M  V30 22462 O 2054.08 1.78311 -0.388768 0
M  V30 22463 C 2054.13 0.400901 -3.5927 0
M  V30 22464 O 2053.85 -0.796705 -4.30795 0
M  V30 22465 C 2055.35 1.00686 -4.31714 0
M  V30 22466 H 2052.57 -0.00125628 -0.670999 0
M  V30 22467 H 2055.12 -0.643041 -1.94127 0
M  V30 22468 H 2053.27 1.0934 -3.7165 0
M  V30 22469 H 2053.69 -0.533396 -5.21781 0
M  V30 22470 H 2055.16 1.16758 -5.39511 0
M  V30 22471 H 2055.64 1.99349 -3.91352 0
M  V30 22472 H 2056.24 0.353135 -4.23831 0
M  V30 22473 N 2054.56 1.56449 -0.190119 0
M  V30 22474 C 2055.49 2.21861 0.728019 0
M  V30 22475 C 2056.47 1.18012 1.22504 0
M  V30 22476 O 2057.66 1.46503 1.27478 0
M  V30 22477 C 2054.79 2.87407 1.94973 0
M  V30 22478 C 2053.74 3.97457 1.58782 0
M  V30 22479 C 2053.07 4.50144 2.88573 0
M  V30 22480 C 2054.37 5.16113 0.801535 0
M  V30 22481 H 2056.06 2.98842 0.182734 0
M  V30 22482 H 2053.61 1.4374 0.0864508 0
M  V30 22483 H 2055.56 3.31848 2.59721 0
M  V30 22484 H 2054.28 2.07824 2.51946 0
M  V30 22485 H 2052.94 3.537 0.96395 0
M  V30 22486 H 2052.59 3.67328 3.43626 0
M  V30 22487 H 2052.29 5.24398 2.65105 0
M  V30 22488 H 2053.81 4.97283 3.54318 0
M  V30 22489 H 2055.23 5.5713 1.35201 0
M  V30 22490 H 2053.62 5.96402 0.66517 0
M  V30 22491 H 2054.69 4.84494 -0.198407 0
M  V30 22492 N 2056.04 -0.0835127 1.57379 0
M  V30 22493 C 2056.95 -1.11858 2.06216 0
M  V30 22494 C 2057.96 -1.43137 0.989333 0
M  V30 22495 O 2059.14 -1.53548 1.30327 0
M  V30 22496 C 2056.2 -2.41603 2.48655 0
M  V30 22497 C 2055.27 -2.17401 3.70183 0
M  V30 22498 C 2054.5 -3.40959 4.10588 0
M  V30 22499 O 2054.72 -4.49637 3.50974 0
M  V30 22500 O 2053.66 -3.29863 5.03462 0
M  V30 22501 H 2057.48 -0.733741 2.94703 0
M  V30 22502 H 2055.07 -0.296834 1.46421 0
M  V30 22503 H 2056.95 -3.1798 2.76526 0
M  V30 22504 H 2055.62 -2.7949 1.63301 0
M  V30 22505 H 2054.53 -1.38767 3.47411 0
M  V30 22506 H 2055.86 -1.84401 4.56352 0
M  V30 22507 N 2057.52 -1.53558 -0.354624 0
M  V30 22508 C 2058.43 -1.83745 -1.4586 0
M  V30 22509 C 2059.44 -0.72668 -1.58099 0
M  V30 22510 O 2060.62 -1.01786 -1.73786 0
M  V30 22511 C 2057.68 -2.03089 -2.80991 0
M  V30 22512 C 2056.74 -3.26971 -2.78187 0
M  V30 22513 C 2055.98 -3.45383 -4.06874 0
M  V30 22514 O 2056.2 -2.6786 -5.03594 0
M  V30 22515 O 2055.13 -4.38776 -4.12019 0
M  V30 22516 H 2058.96 -2.77557 -1.23271 0
M  V30 22517 H 2056.54 -1.39075 -0.545763 0
M  V30 22518 H 2058.43 -2.17321 -3.6104 0
M  V30 22519 H 2057.1 -1.12466 -3.03534 0
M  V30 22520 H 2056.01 -3.18153 -1.96798 0
M  V30 22521 H 2057.34 -4.17552 -2.60598 0
M  V30 22522 N 2058.99 0.615033 -1.45104 0
M  V30 22523 C 2059.92 1.73703 -1.56043 0
M  V30 22524 C 2060.9 1.65025 -0.412413 0
M  V30 22525 O 2062.09 1.83539 -0.634606 0
M  V30 22526 C 2059.22 3.12287 -1.51968 0
M  V30 22527 C 2058.17 3.35769 -2.65411 0
M  V30 22528 C 2057.5 4.74549 -2.46389 0
M  V30 22529 C 2058.8 3.26752 -4.07469 0
M  V30 22530 H 2060.49 1.64805 -2.4996 0
M  V30 22531 H 2058.04 0.791445 -1.203 0
M  V30 22532 H 2059.99 3.9057 -1.58219 0
M  V30 22533 H 2058.72 3.22008 -0.545769 0
M  V30 22534 H 2057.38 2.59874 -2.58575 0
M  V30 22535 H 2057.02 4.80994 -1.47153 0
M  V30 22536 H 2056.72 4.91217 -3.22458 0
M  V30 22537 H 2058.25 5.55041 -2.54482 0
M  V30 22538 H 2059.66 3.94918 -4.15587 0
M  V30 22539 H 2058.06 3.54952 -4.83869 0
M  V30 22540 H 2059.13 2.24305 -4.29902 0
M  V30 22541 N 2060.47 1.3227 0.85688 0
M  V30 22542 C 2061.89 1.11212 1.14473 0
M  V30 22543 C 2062.09 -0.108857 2.01206 0
M  V30 22544 O 2061.14 -0.7944 2.39678 0
M  V30 22545 C 2062.46 2.39046 1.82421 0
M  V30 22546 C 2064 2.44782 1.95066 0
M  V30 22547 C 2064.48 3.72531 2.66429 0
M  V30 22548 N 2065.97 3.735 2.73956 0
M  V30 22549 C 2066.71 4.69049 3.29819 0
M  V30 22550 N 2066.2 5.74963 3.86509 0
M  V30 22551 N 2067.99 4.5655 3.27901 0
M  V30 22552 H 2060.15 2.10557 0.279231 0
M  V30 22553 H 2062.41 0.929507 0.186337 0
M  V30 22554 H 2062.11 3.28299 1.26145 0
M  V30 22555 H 2061.99 2.49838 2.82596 0
M  V30 22556 H 2064.38 1.5599 2.50502 0
M  V30 22557 H 2064.46 2.37944 0.938939 0
M  V30 22558 H 2064.1 4.61696 2.11658 0
M  V30 22559 H 2064.03 3.76639 3.68036 0
M  V30 22560 H 2066.52 2.96945 2.33735 0
M  V30 22561 H 2066.83 6.43931 4.27285 0
M  V30 22562 H 2065.18 5.7872 3.84848 0
M  V30 22563 H 2068.37 3.72973 2.82858 0
M  V30 22564 H 2068.54 5.31189 3.71136 0
M  V30 22565 N 2061.95 -1.07287 1.15444 0
M  V30 22566 C 2063.37 -1.31993 0.897222 0
M  V30 22567 C 2063.57 -1.96286 -0.455437 0
M  V30 22568 O 2062.62 -2.22313 -1.19722 0
M  V30 22569 C 2063.93 -2.2104 2.03868 0
M  V30 22570 C 2065.48 -2.34486 2.07329 0
M  V30 22571 C 2065.96 -3.26882 3.20799 0
M  V30 22572 N 2067.45 -3.34463 3.20451 0
M  V30 22573 C 2068.18 -4.06019 4.0489 0
M  V30 22574 N 2067.68 -4.80184 4.99395 0
M  V30 22575 N 2069.47 -4.01967 3.92911 0
M  V30 22576 H 2061.62 -0.639423 2.02547 0
M  V30 22577 H 2063.89 -0.344393 0.883231 0
M  V30 22578 H 2063.59 -1.8106 3.01513 0
M  V30 22579 H 2063.47 -3.21571 1.9716 0
M  V30 22580 H 2065.85 -2.73719 1.10282 0
M  V30 22581 H 2065.93 -1.33658 2.18104 0
M  V30 22582 H 2065.58 -2.88368 4.18098 0
M  V30 22583 H 2065.51 -4.27667 3.0726 0
M  V30 22584 H 2068 -2.816 2.52012 0
M  V30 22585 H 2068.31 -5.32281 5.60265 0
M  V30 22586 H 2066.66 -4.79198 5.03383 0
M  V30 22587 H 2069.85 -3.43139 3.18392 0
M  V30 22588 H 2070.02 -4.57468 4.58942 0
M  V30 22589 N 2063.43 -0.951342 -1.25647 0
M  V30 22590 C 2064.38 -0.459968 -2.28007 0
M  V30 22591 C 2065.37 0.468044 -1.62806 0
M  V30 22592 O 2066.58 0.345136 -1.7666 0
M  V30 22593 H 2062.95 -0.130235 -0.740637 0
M  V30 22594 H 2064.92 -1.33559 -2.66842 0
M  V30 22595 C 2063.67 0.24991 -3.46801 0
M  V30 22596 H 2062.99 -0.455035 -3.97202 0
M  V30 22597 H 2064.43 0.557792 -4.20315 0
M  V30 22598 C 2062.89 1.47127 -3.03076 0
M  V30 22599 O 2063.42 2.56915 -3.088 0
M  V30 22600 N 2061.63 1.33145 -2.58304 0
M  V30 22601 H 2061.18 0.438193 -2.53846 0
M  V30 22602 H 2061.13 2.14982 -2.29413 0
M  V30 22603 N 2064.91 1.40216 -0.719531 0
M  V30 22604 C 2065.84 2.28192 -0.0185278 0
M  V30 22605 C 2066.82 1.43553 0.763632 0
M  V30 22606 O 2068 1.72961 0.749443 0
M  V30 22607 C 2065.13 3.24179 0.981108 0
M  V30 22608 C 2064.17 4.25518 0.289289 0
M  V30 22609 S 2065.01 5.26351 -0.985661 0
M  V30 22610 C 2066.16 6.25899 0.011772 0
M  V30 22611 H 2066.4 2.87299 -0.764643 0
M  V30 22612 H 2063.93 1.45709 -0.510709 0
M  V30 22613 H 2065.89 3.80005 1.55262 0
M  V30 22614 H 2064.55 2.64122 1.69995 0
M  V30 22615 H 2063.74 4.93045 1.04512 0
M  V30 22616 H 2063.34 3.73411 -0.209776 0
M  V30 22617 H 2065.63 6.72054 0.857313 0
M  V30 22618 H 2066.58 7.0529 -0.630218 0
M  V30 22619 H 2066.99 5.63238 0.377261 0
M  V30 22620 N 2066.38 0.466004 1.50553 0
M  V30 22621 C 2067.8 0.119867 1.59149 0
M  V30 22622 C 2068 -1.37324 1.47459 0
M  V30 22623 O 2067.06 -2.14604 1.33047 0
M  V30 22624 C 2068.37 0.665532 2.93243 0
M  V30 22625 C 2069.92 0.628507 3.06625 0
M  V30 22626 C 2070.39 1.15163 4.43285 0
M  V30 22627 N 2071.88 1.11082 4.49683 0
M  V30 22628 C 2072.62 1.48615 5.53806 0
M  V30 22629 N 2072.11 1.93573 6.65208 0
M  V30 22630 N 2073.91 1.4025 5.44322 0
M  V30 22631 H 2066.06 1.43716 1.56395 0
M  V30 22632 H 2068.32 0.594011 0.73882 0
M  V30 22633 H 2068.03 1.71132 3.07257 0
M  V30 22634 H 2067.9 0.106264 3.7705 0
M  V30 22635 H 2070.29 -0.408356 2.92261 0
M  V30 22636 H 2070.37 1.22452 2.24587 0
M  V30 22637 H 2070.01 2.1871 4.58398 0
M  V30 22638 H 2069.94 0.531882 5.23907 0
M  V30 22639 H 2072.43 0.781025 3.69741 0
M  V30 22640 H 2072.75 2.20373 7.40713 0
M  V30 22641 H 2071.09 1.97521 6.66341 0
M  V30 22642 H 2074.28 1.04972 4.56178 0
M  V30 22643 H 2074.46 1.69827 6.2535 0
M  V30 22644 N 2067.86 -1.56346 0.198413 0
M  V30 22645 C 2069.09 -2.02502 -0.44809 0
M  V30 22646 C 2069.51 -1.07761 -1.54173 0
M  V30 22647 O 2068.87 -0.0616812 -1.81195 0
M  V30 22648 C 2068.92 -3.47073 -0.978394 0
M  V30 22649 O 2068.02 -3.55452 -2.09111 0
M  V30 22650 H 2067.36 -0.655753 -0.104324 0
M  V30 22651 H 2069.89 -2.02234 0.310265 0
M  V30 22652 H 2069.9 -3.86931 -1.29415 0
M  V30 22653 H 2068.58 -4.1552 -0.177819 0
M  V30 22654 H 2067.15 -3.27471 -1.78375 0
M  V30 22655 N 2069.34 0.0751653 -1.57421 0
M  V30 22656 C 2070.27 1.11632 -2.00177 0
M  V30 22657 C 2071.29 1.35179 -0.907222 0
M  V30 22658 O 2072.47 1.33479 -1.18515 0
M  V30 22659 C 2069.57 2.46792 -2.32265 0
M  V30 22660 C 2068.75 2.43248 -3.63524 0
M  V30 22661 C 2067.81 3.60488 -3.8332 0
M  V30 22662 O 2066.83 3.42071 -4.54946 0
M  V30 22663 N 2068.03 4.80713 -3.25416 0
M  V30 22664 H 2070.8 0.752243 -2.90106 0
M  V30 22665 H 2068.36 0.263867 -1.59735 0
M  V30 22666 H 2070.35 3.23861 -2.42685 0
M  V30 22667 H 2068.92 2.75214 -1.48243 0
M  V30 22668 H 2068.14 1.51587 -3.63889 0
M  V30 22669 H 2069.43 2.37977 -4.49716 0
M  V30 22670 H 2068.83 4.9858 -2.67273 0
M  V30 22671 H 2067.39 5.55306 -3.4129 0
M  V30 22672 N 2070.82 1.53744 0.346476 0
M  V30 22673 C 2072.23 1.62331 0.922251 0
M  V30 22674 C 2072.58 0.502763 1.89649 0
M  V30 22675 O 2071.71 -0.367943 2.13249 0
M  V30 22676 C 2072.3 2.94243 1.67948 0
M  V30 22677 C 2070.86 3.05102 2.20431 0
M  V30 22678 C 2070.01 2.57759 1.02252 0
M  V30 22679 H 2072.96 1.58209 0.124698 0
M  V30 22680 H 2072.98 2.83118 2.54213 0
M  V30 22681 H 2072.49 3.75779 0.970157 0
M  V30 22682 H 2070.59 2.28194 2.94547 0
M  V30 22683 H 2070.7 4.1052 2.47003 0
M  V30 22684 H 2069.07 2.13095 1.39508 0
M  V30 22685 H 2069.85 3.41731 0.327885 0
M  V30 22686 N 2072.3 -0.607329 1.45428 0
M  V30 22687 C 2073.23 -1.72873 1.56962 0
M  V30 22688 C 2074.21 -1.64804 0.421159 0
M  V30 22689 O 2075.39 -1.83199 0.64433 0
M  V30 22690 C 2072.52 -3.11476 1.53622 0
M  V30 22691 C 2071.48 -3.34357 2.67188 0
M  V30 22692 C 2070.8 -4.73236 2.48902 0
M  V30 22693 C 2072.1 -3.24586 4.09196 0
M  V30 22694 H 2073.8 -1.63477 2.5083 0
M  V30 22695 H 2071.34 -0.785054 1.20718 0
M  V30 22696 H 2073.3 -3.89725 1.60288 0
M  V30 22697 H 2072.02 -3.21714 0.562838 0
M  V30 22698 H 2070.68 -2.58499 2.5995 0
M  V30 22699 H 2070.33 -4.80206 1.49702 0
M  V30 22700 H 2070.03 -4.895 3.25059 0
M  V30 22701 H 2071.55 -5.53684 2.57422 0
M  V30 22702 H 2072.96 -3.92709 4.17676 0
M  V30 22703 H 2071.36 -3.52381 4.85745 0
M  V30 22704 H 2072.43 -2.22022 4.31085 0
M  V30 22705 N 2073.77 -1.32722 -0.849853 0
M  V30 22706 C 2075 -1.26568 -1.63671 0
M  V30 22707 C 2075.42 0.165453 -1.88074 0
M  V30 22708 O 2074.77 1.1041 -1.45313 0
M  V30 22709 C 2074.83 -2.027 -2.99324 0
M  V30 22710 O 2074.55 -3.40229 -2.75999 0
M  V30 22711 C 2076.05 -2.03626 -3.93766 0
M  V30 22712 H 2073.27 -0.436491 -0.509624 0
M  V30 22713 H 2075.81 -1.74922 -1.05937 0
M  V30 22714 H 2073.97 -1.58056 -3.53691 0
M  V30 22715 H 2074.38 -3.79256 -3.62305 0
M  V30 22716 H 2075.85 -2.61369 -4.862 0
M  V30 22717 H 2076.33 -1.02373 -4.27102 0
M  V30 22718 H 2076.94 -2.48239 -3.45337 0
M  V30 22719 N 2075.25 1.06673 -1.16011 0
M  V30 22720 C 2076.48 1.83645 -0.963814 0
M  V30 22721 C 2076.9 1.81793 0.483005 0
M  V30 22722 O 2076.26 1.21592 1.34481 0
M  V30 22723 C 2076.31 3.28326 -1.49113 0
M  V30 22724 O 2075.41 4.06503 -0.694902 0
M  V30 22725 H 2074.75 0.568386 -0.343269 0
M  V30 22726 H 2077.28 1.34523 -1.54158 0
M  V30 22727 H 2077.29 3.7915 -1.50695 0
M  V30 22728 H 2075.97 3.28988 -2.5444 0
M  V30 22729 H 2074.55 3.65295 -0.749278 0
M  V30 22730 N 2076.73 0.957992 1.25141 0
M  V30 22731 C 2078.14 0.65484 1.74839 0
M  V30 22732 C 2078.49 -0.829713 1.77793 0
M  V30 22733 O 2077.62 -1.6493 1.40096 0
M  V30 22734 C 2078.21 1.18197 3.17513 0
M  V30 22735 C 2076.77 0.928917 3.64758 0
M  V30 22736 C 2075.92 1.32303 2.43703 0
M  V30 22737 H 2078.87 1.13442 1.1098 0
M  V30 22738 H 2078.89 0.543641 3.76596 0
M  V30 22739 H 2078.4 2.26246 3.15332 0
M  V30 22740 H 2076.5 -0.136467 3.7235 0
M  V30 22741 H 2076.62 1.56774 4.52724 0
M  V30 22742 H 2074.98 0.741407 2.4367 0
M  V30 22743 H 2075.76 2.41281 2.4421 0
M  V30 22744 N 2078.21 -1.39832 0.726957 0
M  V30 22745 C 2079.12 -2.34453 0.0830837 0
M  V30 22746 C 2080.13 -1.579 -0.731009 0
M  V30 22747 O 2081.31 -1.90232 -0.661338 0
M  V30 22748 C 2078.38 -3.3688 -0.819324 0
M  V30 22749 C 2077.44 -4.293 0.00610659 0
M  V30 22750 C 2076.67 -5.26834 -0.853324 0
M  V30 22751 O 2076.89 -5.30641 -2.09228 0
M  V30 22752 O 2075.83 -6.01219 -0.286261 0
M  V30 22753 H 2079.65 -2.91155 0.863845 0
M  V30 22754 H 2077.24 -1.41221 0.487543 0
M  V30 22755 H 2079.12 -3.99665 -1.33589 0
M  V30 22756 H 2077.79 -2.82574 -1.57904 0
M  V30 22757 H 2076.7 -3.69763 0.568007 0
M  V30 22758 H 2078.03 -4.86789 0.727856 0
M  V30 22759 N 2079.69 -0.473982 -1.50304 0
M  V30 22760 C 2080.91 0.0798733 -2.07246 0
M  V30 22761 C 2081.34 1.3249 -1.33521 0
M  V30 22762 O 2080.69 1.77192 -0.383743 0
M  V30 22763 C 2080.74 0.343926 -3.58956 0
M  V30 22764 O 2079.85 1.42387 -3.8704 0
M  V30 22765 H 2079.19 -0.0142608 -0.663847 0
M  V30 22766 H 2081.72 -0.665854 -1.93462 0
M  V30 22767 H 2081.73 0.583558 -4.03805 0
M  V30 22768 H 2080.4 -0.565855 -4.12033 0
M  V30 22769 H 2078.98 1.17132 -3.54026 0
M  V30 22770 N 2081.16 1.56239 -0.206702 0
M  V30 22771 C 2082.58 1.58903 0.148953 0
M  V30 22772 C 2082.78 1.22319 1.60126 0
M  V30 22773 O 2081.84 0.951402 2.3389 0
M  V30 22774 C 2083.15 3.00253 -0.163906 0
M  V30 22775 C 2084.7 3.12824 -0.104945 0
M  V30 22776 C 2085.17 4.56326 -0.391273 0
M  V30 22777 N 2086.66 4.61948 -0.340308 0
M  V30 22778 C 2087.4 5.70894 -0.535549 0
M  V30 22779 N 2086.89 6.88261 -0.791765 0
M  V30 22780 N 2088.69 5.6014 -0.469005 0
M  V30 22781 H 2080.84 1.78298 -1.15428 0
M  V30 22782 H 2083.1 0.828039 -0.46158 0
M  V30 22783 H 2082.81 3.31621 -1.17133 0
M  V30 22784 H 2082.68 3.73485 0.528093 0
M  V30 22785 H 2085.07 2.81261 0.893101 0
M  V30 22786 H 2085.15 2.41953 -0.830197 0
M  V30 22787 H 2084.79 4.88603 -1.38669 0
M  V30 22788 H 2084.72 5.25402 0.355001 0
M  V30 22789 H 2087.21 3.77605 -0.149364 0
M  V30 22790 H 2087.53 7.67193 -0.929241 0
M  V30 22791 H 2085.87 6.90041 -0.828792 0
M  V30 22792 H 2089.06 4.67325 -0.269173 0
M  V30 22793 H 2089.24 6.44983 -0.624576 0
M  V30 22794 N 2082.64 -0.0668159 1.57458 0
M  V30 22795 C 2083.87 -0.777815 1.91723 0
M  V30 22796 C 2084.29 -1.70866 0.803128 0
M  V30 22797 O 2083.64 -1.8113 -0.223207 0
M  V30 22798 C 2083.69 -1.56722 3.25761 0
M  V30 22799 O 2083.41 -0.673779 4.32888 0
M  V30 22800 C 2084.92 -2.37877 3.74071 0
M  V30 22801 H 2082.14 -0.220863 0.633609 0
M  V30 22802 H 2084.68 -0.0355987 2.04469 0
M  V30 22803 H 2082.83 -2.26166 3.14527 0
M  V30 22804 H 2083.25 -1.22335 5.10034 0
M  V30 22805 H 2084.72 -2.88716 4.70476 0
M  V30 22806 H 2085.2 -3.17625 3.03334 0
M  V30 22807 H 2085.81 -1.73579 3.88266 0
M  V30 22808 N 2084.12 -1.53926 -0.338317 0
M  V30 22809 C 2085.08 -1.81578 -1.39865 0
M  V30 22810 C 2086.08 -0.687011 -1.45385 0
M  V30 22811 O 2087.27 -0.955305 -1.45669 0
M  V30 22812 C 2084.41 -1.96252 -2.78744 0
M  V30 22813 H 2085.6 -2.76302 -1.16608 0
M  V30 22814 H 2083.15 -1.45418 -0.572996 0
M  V30 22815 H 2083.89 -1.03688 -3.07277 0
M  V30 22816 H 2083.67 -2.78376 -2.76133 0
M  V30 22817 H 2085.16 -2.19144 -3.5548 0
M  V30 22818 N 2085.6 0.599608 -1.45748 0
M  V30 22819 C 2087.02 0.921212 -1.3033 0
M  V30 22820 C 2087.22 1.99787 -0.262213 0
M  V30 22821 O 2086.27 2.50186 0.34109 0
M  V30 22822 C 2087.58 1.35457 -2.68462 0
M  V30 22823 C 2089.13 1.46835 -2.76421 0
M  V30 22824 C 2089.61 1.93544 -4.15096 0
M  V30 22825 N 2091.1 2.00765 -4.1743 0
M  V30 22826 C 2091.83 2.38145 -5.21608 0
M  V30 22827 N 2091.33 2.74437 -6.36126 0
M  V30 22828 N 2093.12 2.38554 -5.08968 0
M  V30 22829 H 2085.27 -0.111892 -2.12105 0
M  V30 22830 H 2087.54 0.0126042 -0.947916 0
M  V30 22831 H 2087.24 0.63759 -3.45872 0
M  V30 22832 H 2087.12 2.31951 -2.97453 0
M  V30 22833 H 2089.5 2.17623 -1.99309 0
M  V30 22834 H 2089.58 0.486356 -2.51134 0
M  V30 22835 H 2089.23 1.2334 -4.92696 0
M  V30 22836 H 2089.16 2.92672 -4.3778 0
M  V30 22837 H 2091.65 1.75275 -3.34794 0
M  V30 22838 H 2091.96 3.01865 -7.11405 0
M  V30 22839 H 2090.31 2.72115 -6.39514 0
M  V30 22840 H 2093.5 2.09612 -4.18546 0
M  V30 22841 H 2093.67 2.67359 -5.90274 0
M  V30 22842 N 2087.08 1.33171 0.842803 0
M  V30 22843 C 2088.33 1.24159 1.59464 0
M  V30 22844 C 2088.65 -0.193595 1.94037 0
M  V30 22845 O 2087.92 -1.12135 1.60632 0
M  V30 22846 H 2086.5 0.456555 0.591241 0
M  V30 22847 H 2089.16 1.66842 1.00746 0
M  V30 22848 H 2088.25 1.83255 2.52634 0
M  V30 22849 N 2088.56 -1.06056 1.16576 0
M  V30 22850 C 2089.8 -1.78546 0.946876 0
M  V30 22851 C 2090.12 -1.87758 -0.526489 0
M  V30 22852 O 2089.39 -1.38801 -1.38243 0
M  V30 22853 H 2087.97 -0.661335 0.347341 0
M  V30 22854 H 2090.64 -1.28101 1.46888 0
M  V30 22855 H 2089.73 -2.80537 1.36767 0
M  V30 22856 N 2090.03 -0.964615 -1.24631 0
M  V30 22857 C 2091.26 -0.641907 -1.97216 0
M  V30 22858 C 2091.68 0.781279 -1.71107 0
M  V30 22859 O 2091.04 1.52981 -0.972952 0
M  V30 22860 C 2091.09 -0.918908 -3.48695 0
M  V30 22861 O 2090.19 -0.00276058 -4.124 0
M  V30 22862 H 2089.53 -0.243001 -0.617937 0
M  V30 22863 H 2092.06 -1.29393 -1.58489 0
M  V30 22864 H 2092.07 -0.849197 -3.99065 0
M  V30 22865 H 2090.75 -1.95612 -3.67027 0
M  V30 22866 H 2089.33 -0.125529 -3.72689 0
M  V30 22867 N 2091.51 1.39445 -0.734362 0
M  V30 22868 C 2092.44 2.29135 -0.0543743 0
M  V30 22869 C 2093.46 1.46785 0.704126 0
M  V30 22870 O 2094.65 1.69867 0.548394 0
M  V30 22871 C 2091.75 3.25393 0.947229 0
M  V30 22872 C 2090.92 4.36683 0.250381 0
M  V30 22873 C 2089.98 5.13255 1.16 0
M  V30 22874 O 2089 5.65616 0.637723 0
M  V30 22875 N 2090.21 5.24396 2.48976 0
M  V30 22876 H 2092.97 2.88134 -0.824567 0
M  V30 22877 H 2090.53 1.51018 -0.583531 0
M  V30 22878 H 2092.52 3.73494 1.55834 0
M  V30 22879 H 2091.09 2.6743 1.61863 0
M  V30 22880 H 2090.31 3.90467 -0.5412 0
M  V30 22881 H 2091.6 5.08268 -0.232571 0
M  V30 22882 H 2091 4.83371 2.93885 0
M  V30 22883 H 2089.56 5.75939 3.05185 0
M  V30 22884 N 2092.99 0.481946 1.5005 0
M  V30 22885 C 2093.92 -0.352787 2.25457 0
M  V30 22886 C 2094.9 -0.986902 1.29225 0
M  V30 22887 O 2096.08 -1.02072 1.58472 0
M  V30 22888 C 2093.21 -1.4952 3.0391 0
M  V30 22889 C 2092.26 -0.977381 4.1515 0
M  V30 22890 S 2093.09 0.116634 5.35373 0
M  V30 22891 C 2094.25 -1.0294 6.17377 0
M  V30 22892 H 2094.48 0.287284 2.95909 0
M  V30 22893 H 2092.01 0.266971 1.52074 0
M  V30 22894 H 2093.97 -2.14989 3.497 0
M  V30 22895 H 2092.63 -2.10682 2.32963 0
M  V30 22896 H 2091.82 -1.83296 4.69488 0
M  V30 22897 H 2091.43 -0.400227 3.71852 0
M  V30 22898 H 2093.72 -1.93874 6.49168 0
M  V30 22899 H 2094.66 -0.525055 7.06151 0
M  V30 22900 H 2095.07 -1.28813 5.49607 0
M  V30 22901 N 2094.47 -1.56127 0.214985 0
M  V30 22902 C 2095.74 -1.8994 -0.467153 0
M  V30 22903 C 2096.12 -1.13139 -1.78221 0
M  V30 22904 O 2095.47 -0.238654 -2.2725 0
M  V30 22905 C 2095.68 -3.42576 -0.666524 0
M  V30 22906 C 2097.03 -4.13209 -0.976927 0
M  V30 22907 O 2098.05 -3.48138 -0.753545 0
M  V30 22908 O 2096.91 -5.2825 -1.40052 0
M  V30 22909 H 2094.01 -0.789533 -0.246102 0
M  V30 22910 H 2096.55 -1.67748 0.256681 0
M  V30 22911 H 2095.33 -3.90426 0.261344 0
M  V30 22912 H 2094.95 -3.70526 -1.44209 0
M  V30 22913 N 2095.95 0.0584645 -1.57492 0
M  V30 22914 C 2097.19 0.75619 -1.88174 0
M  V30 22915 C 2097.52 1.76546 -0.809018 0
M  V30 22916 O 2096.8 1.93672 0.179286 0
M  V30 22917 C 2097.08 1.45223 -3.29518 0
M  V30 22918 C 2096.94 0.458472 -4.47457 0
M  V30 22919 C 2098.25 2.39381 -3.69303 0
M  V30 22920 H 2095.37 0.27344 -0.684397 0
M  V30 22921 H 2098.02 0.0191997 -1.8999 0
M  V30 22922 H 2096.17 2.08044 -3.28101 0
M  V30 22923 H 2097.84 -0.165547 -4.61003 0
M  V30 22924 H 2096.08 -0.225018 -4.33216 0
M  V30 22925 H 2096.75 0.983384 -5.4317 0
M  V30 22926 H 2099.23 1.86628 -3.719 0
M  V30 22927 H 2098.1 2.85078 -4.69065 0
M  V30 22928 H 2098.36 3.24775 -2.99956 0
M  V30 22929 N 2097.42 1.54103 0.330149 0
M  V30 22930 C 2098.35 1.8602 1.41134 0
M  V30 22931 C 2099.33 0.716429 1.54277 0
M  V30 22932 O 2100.52 0.969568 1.68265 0
M  V30 22933 C 2097.65 2.08171 2.77997 0
M  V30 22934 C 2096.6 3.24007 2.79649 0
M  V30 22935 C 2095.93 3.31516 4.19525 0
M  V30 22936 C 2097.23 4.6181 2.43985 0
M  V30 22937 H 2098.92 2.76569 1.14672 0
M  V30 22938 H 2096.47 1.33074 0.550199 0
M  V30 22939 H 2098.42 2.29083 3.53694 0
M  V30 22940 H 2097.15 1.14364 3.05922 0
M  V30 22941 H 2095.81 3.02971 2.06407 0
M  V30 22942 H 2095.45 2.3528 4.44581 0
M  V30 22943 H 2095.15 4.09364 4.21538 0
M  V30 22944 H 2096.68 3.54655 4.97044 0
M  V30 22945 H 2098.09 4.82647 3.09395 0
M  V30 22946 H 2096.49 5.4216 2.5726 0
M  V30 22947 H 2097.56 4.64507 1.39146 0
M  V30 22948 N 2098.9 -0.59187 1.46064 0
M  V30 22949 C 2099.83 -1.71586 1.51957 0
M  V30 22950 C 2100.85 -1.57585 0.408771 0
M  V30 22951 O 2102.04 -1.65177 0.676661 0
M  V30 22952 C 2099.14 -3.09749 1.3751 0
M  V30 22953 C 2098.31 -3.49841 2.62546 0
M  V30 22954 C 2097.37 -4.67027 2.4243 0
M  V30 22955 O 2096.39 -4.7335 3.16115 0
M  V30 22956 N 2097.6 -5.61316 1.48003 0
M  V30 22957 H 2100.36 -1.66989 2.48867 0
M  V30 22958 H 2097.92 -0.7776 1.42003 0
M  V30 22959 H 2099.91 -3.85924 1.21839 0
M  V30 22960 H 2098.48 -3.08765 0.488162 0
M  V30 22961 H 2097.7 -2.63465 2.93223 0
M  V30 22962 H 2098.99 -3.7339 3.45626 0
M  V30 22963 H 2098.39 -5.58935 0.872231 0
M  V30 22964 H 2096.95 -6.36959 1.38298 0
M  V30 22965 N 2100.38 -1.33616 -0.835729 0
M  V30 22966 C 2101.8 -1.13019 -1.12689 0
M  V30 22967 C 2102 0.0768335 -2.01353 0
M  V30 22968 O 2101.05 0.756169 -2.40911 0
M  V30 22969 C 2102.37 -2.41918 -1.78595 0
M  V30 22970 C 2103.91 -2.47854 -1.91147 0
M  V30 22971 C 2104.39 -3.76723 -2.60469 0
M  V30 22972 N 2105.88 -3.77811 -2.67979 0
M  V30 22973 C 2106.61 -4.74237 -3.22315 0
M  V30 22974 N 2106.11 -5.81039 -3.77313 0
M  V30 22975 N 2107.9 -4.61709 -3.20596 0
M  V30 22976 H 2100.05 -2.10974 -0.245697 0
M  V30 22977 H 2102.32 -0.932353 -0.171526 0
M  V30 22978 H 2102.02 -3.30264 -1.20906 0
M  V30 22979 H 2101.9 -2.54302 -2.78586 0
M  V30 22980 H 2104.28 -1.59955 -2.47989 0
M  V30 22981 H 2104.37 -2.39408 -0.900965 0
M  V30 22982 H 2104.01 -4.65005 -2.04286 0
M  V30 22983 H 2103.94 -3.82447 -3.61998 0
M  V30 22984 H 2106.43 -3.00626 -2.28982 0
M  V30 22985 H 2106.74 -6.50648 -4.16986 0
M  V30 22986 H 2105.09 -5.8477 -3.75592 0
M  V30 22987 H 2108.28 -3.77426 -2.76888 0
M  V30 22988 H 2108.45 -5.37026 -3.62639 0
M  V30 22989 N 2101.86 1.05436 -1.17136 0
M  V30 22990 C 2102.81 2.13124 -0.885828 0
M  V30 22991 C 2103.78 1.65235 0.169267 0
M  V30 22992 O 2104.96 1.90772 0.032594 0
M  V30 22993 C 2102.1 3.42744 -0.40256 0
M  V30 22994 C 2101.21 4.0432 -1.52149 0
M  V30 22995 C 2100.35 5.21849 -0.992347 0
M  V30 22996 C 2099.39 5.75426 -2.08689 0
M  V30 22997 N 2098.52 6.84259 -1.5727 0
M  V30 22998 H 2103.36 2.36887 -1.808 0
M  V30 22999 H 2100.9 1.16215 -0.901798 0
M  V30 23000 H 2102.86 4.17071 -0.10394 0
M  V30 23001 H 2101.49 3.19171 0.482653 0
M  V30 23002 H 2100.54 3.27456 -1.93589 0
M  V30 23003 H 2101.85 4.40127 -2.34711 0
M  V30 23004 H 2101.01 6.03236 -0.647426 0
M  V30 23005 H 2099.75 4.8751 -0.13613 0
M  V30 23006 H 2098.75 4.9267 -2.44041 0
M  V30 23007 H 2099.98 6.11813 -2.94722 0
M  V30 23008 H 2097.92 6.51822 -0.739158 0
M  V30 23009 H 2097.84 7.19055 -2.33442 0
M  V30 23010 H 2099.11 7.69304 -1.25663 0
M  V30 23011 N 2103.34 0.971211 1.24118 0
M  V30 23012 C 2104.27 0.523167 2.27564 0
M  V30 23013 C 2105.25 -0.438983 1.64338 0
M  V30 23014 O 2106.43 -0.334345 1.913 0
M  V30 23015 C 2103.56 -0.184078 3.46812 0
M  V30 23016 C 2102.52 0.694439 4.22329 0
M  V30 23017 C 2101.84 -0.144498 5.34505 0
M  V30 23018 C 2103.14 1.98076 4.83284 0
M  V30 23019 H 2104.84 1.3878 2.65293 0
M  V30 23020 H 2102.38 0.668756 1.27529 0
M  V30 23021 H 2104.34 -0.508765 4.18318 0
M  V30 23022 H 2103.06 -1.08309 3.08118 0
M  V30 23023 H 2101.72 1.00245 3.52628 0
M  V30 23024 H 2101.37 -1.04377 4.92051 0
M  V30 23025 H 2101.07 0.440127 5.85949 0
M  V30 23026 H 2102.59 -0.463776 6.08836 0
M  V30 23027 H 2104 1.72143 5.46845 0
M  V30 23028 H 2102.4 2.5124 5.44976 0
M  V30 23029 H 2103.47 2.67346 4.04542 0
M  V30 23030 N 2104.81 -1.39054 0.741747 0
M  V30 23031 C 2106.23 -1.54028 0.418052 0
M  V30 23032 C 2106.43 -1.70725 -1.07029 0
M  V30 23033 O 2105.49 -1.71155 -1.8564 0
M  V30 23034 C 2106.8 -2.75414 1.20697 0
M  V30 23035 C 2108.35 -2.89254 1.19586 0
M  V30 23036 C 2108.82 -4.13587 1.96748 0
M  V30 23037 N 2110.31 -4.2064 1.93948 0
M  V30 23038 C 2111.05 -5.15809 2.50456 0
M  V30 23039 N 2110.54 -6.16725 3.15629 0
M  V30 23040 N 2112.34 -5.08074 2.40452 0
M  V30 23041 H 2104.49 -1.26464 1.70648 0
M  V30 23042 H 2106.75 -0.613446 0.722764 0
M  V30 23043 H 2106.46 -2.69441 2.26041 0
M  V30 23044 H 2106.33 -3.6827 0.815905 0
M  V30 23045 H 2108.72 -2.94716 0.150521 0
M  V30 23046 H 2108.8 -1.97443 1.62635 0
M  V30 23047 H 2108.44 -4.08887 3.01287 0
M  V30 23048 H 2108.37 -5.04456 1.51102 0
M  V30 23049 H 2110.86 -3.48358 1.46475 0
M  V30 23050 H 2111.18 -6.85816 3.56197 0
M  V30 23051 H 2109.52 -6.17093 3.19721 0
M  V30 23052 H 2112.71 -4.28172 1.89174 0
M  V30 23053 H 2112.89 -5.82065 2.84788 0
M  V30 23054 N 2106.29 -0.489897 -1.49792 0
M  V30 23055 C 2107.2 0.29927 -2.32683 0
M  V30 23056 C 2108.22 0.978042 -1.43911 0
M  V30 23057 O 2109.39 0.961875 -1.76946 0
M  V30 23058 C 2106.46 1.35623 -3.19073 0
M  V30 23059 C 2105.52 0.692067 -4.23685 0
M  V30 23060 C 2104.75 1.69866 -5.05946 0
M  V30 23061 O 2104.98 2.92732 -4.89555 0
M  V30 23062 O 2103.91 1.2601 -5.88562 0
M  V30 23063 H 2107.74 -0.378894 -3.01327 0
M  V30 23064 H 2105.32 -0.251411 -1.47269 0
M  V30 23065 H 2107.2 1.96801 -3.72622 0
M  V30 23066 H 2105.88 2.01752 -2.53136 0
M  V30 23067 H 2104.79 0.040831 -3.74078 0
M  V30 23068 H 2106.12 0.0734074 -4.92145 0
M  V30 23069 N 2107.77 1.56011 -0.223262 0
M  V30 23070 C 2109.02 1.98642 0.408581 0
M  V30 23071 C 2109.35 1.11082 1.59294 0
M  V30 23072 O 2108.62 0.168881 1.93765 0
M  V30 23073 C 2108.91 3.5013 0.841473 0
M  V30 23074 C 2108.76 4.48462 -0.346639 0
M  V30 23075 C 2110.08 4.06065 1.69703 0
M  V30 23076 H 2107.2 0.722183 0.147039 0
M  V30 23077 H 2109.84 1.87289 -0.319839 0
M  V30 23078 H 2107.99 3.59936 1.46214 0
M  V30 23079 H 2109.66 4.50665 -0.98481 0
M  V30 23080 H 2107.91 4.22263 -0.993788 0
M  V30 23081 H 2108.58 5.52 -0.00078187 0
M  V30 23082 H 2111.05 3.99215 1.17332 0
M  V30 23083 H 2109.93 5.12376 1.96882 0
M  V30 23084 H 2110.19 3.53054 2.66093 0
M  V30 23085 N 2109.25 -0.0501116 1.5752 0
M  V30 23086 C 2110.47 -0.761197 1.92926 0
M  V30 23087 C 2110.9 -1.69211 0.821546 0
M  V30 23088 O 2110.26 -1.79908 -0.224247 0
M  V30 23089 C 2110.3 -1.51241 3.27351 0
M  V30 23090 O 2109.41 -2.62445 3.18114 0
M  V30 23091 H 2108.75 -0.206224 0.631164 0
M  V30 23092 H 2111.28 -0.0118709 2.04597 0
M  V30 23093 H 2111.29 -1.88696 3.61743 0
M  V30 23094 H 2109.96 -0.829535 4.07543 0
M  V30 23095 H 2108.54 -2.27688 2.95318 0
M  V30 23096 N 2110.73 -1.54276 -0.321972 0
M  V30 23097 C 2111.95 -1.76523 -1.07923 0
M  V30 23098 C 2112.37 -0.514589 -1.81652 0
M  V30 23099 O 2111.73 0.514775 -1.75089 0
M  V30 23100 C 2111.78 -2.95941 -2.07609 0
M  V30 23101 O 2111.5 -4.1617 -1.36874 0
M  V30 23102 C 2113 -3.30411 -2.95539 0
M  V30 23103 H 2110.22 -0.589261 -0.320956 0
M  V30 23104 H 2112.76 -2.01169 -0.367616 0
M  V30 23105 H 2110.92 -2.73564 -2.74302 0
M  V30 23106 H 2111.33 -4.83352 -2.03644 0
M  V30 23107 H 2112.81 -4.17265 -3.61378 0
M  V30 23108 H 2113.28 -2.47647 -3.62723 0
M  V30 23109 H 2113.89 -3.54872 -2.34405 0
M  V30 23110 N 2112.2 0.584116 -1.46376 0
M  V30 23111 C 2113.15 1.69328 -1.56833 0
M  V30 23112 C 2114.12 1.60891 -0.412719 0
M  V30 23113 O 2115.31 1.80124 -0.629286 0
M  V30 23114 C 2112.45 3.07663 -1.56324 0
M  V30 23115 C 2111.56 3.26736 -2.82609 0
M  V30 23116 C 2110.69 4.55312 -2.73613 0
M  V30 23117 C 2109.73 4.67723 -3.94844 0
M  V30 23118 N 2108.87 5.87624 -3.84243 0
M  V30 23119 H 2113.71 1.59727 -2.51577 0
M  V30 23120 H 2111.25 0.778493 -1.24811 0
M  V30 23121 H 2113.21 3.87731 -1.54014 0
M  V30 23122 H 2111.84 3.16165 -0.651131 0
M  V30 23123 H 2110.89 2.40283 -2.94904 0
M  V30 23124 H 2112.2 3.31775 -3.72461 0
M  V30 23125 H 2111.35 5.43606 -2.69401 0
M  V30 23126 H 2110.09 4.52709 -1.81399 0
M  V30 23127 H 2109.1 3.77847 -3.99389 0
M  V30 23128 H 2110.32 4.72106 -4.88152 0
M  V30 23129 H 2108.27 5.86021 -2.94814 0
M  V30 23130 H 2108.19 5.93925 -4.67749 0
M  V30 23131 H 2109.45 6.78352 -3.84003 0
M  V30 23132 N 2113.68 1.34058 0.828631 0
M  V30 23133 C 2114.93 1.26093 1.58451 0
M  V30 23134 C 2115.26 -0.170623 1.9375 0
M  V30 23135 O 2114.51 -1.13044 1.59748 0
M  V30 23136 C 2114.81 2.09161 2.89804 0
M  V30 23137 C 2114.48 3.58234 2.73823 0
M  V30 23138 C 2113.14 3.98873 2.69172 0
M  V30 23139 C 2115.49 4.52919 2.57903 0
M  V30 23140 C 2112.82 5.32398 2.46514 0
M  V30 23141 C 2115.17 5.86617 2.36777 0
M  V30 23142 C 2113.84 6.26426 2.30534 0
M  V30 23143 H 2113.11 0.461406 0.579815 0
M  V30 23144 H 2115.75 1.65745 0.959215 0
M  V30 23145 H 2114.06 1.62319 3.56595 0
M  V30 23146 H 2115.76 2.00349 3.47363 0
M  V30 23147 H 2112.35 3.25973 2.7828 0
M  V30 23148 H 2116.53 4.22423 2.60523 0
M  V30 23149 H 2111.79 5.62268 2.40135 0
M  V30 23150 H 2115.96 6.5958 2.23444 0
M  V30 23151 H 2113.59 7.29826 2.12738 0
M  V30 23152 N 2115.16 -1.04814 1.17694 0
M  V30 23153 C 2116.09 -2.12661 0.854872 0
M  V30 23154 C 2117.11 -1.62159 -0.144345 0
M  V30 23155 O 2118.3 -1.78309 0.0824726 0
M  V30 23156 C 2115.4 -3.37942 0.254679 0
M  V30 23157 C 2114.57 -4.17706 1.2977 0
M  V30 23158 C 2113.63 -5.21326 0.714573 0
M  V30 23159 O 2112.65 -5.52033 1.38736 0
M  V30 23160 N 2113.86 -5.78415 -0.491561 0
M  V30 23161 H 2116.62 -2.40885 1.7831 0
M  V30 23162 H 2114.18 -1.20943 1.0763 0
M  V30 23163 H 2116.17 -4.04426 -0.148817 0
M  V30 23164 H 2114.74 -3.07221 -0.577415 0
M  V30 23165 H 2113.96 -3.46655 1.8768 0
M  V30 23166 H 2115.25 -4.67796 2.00112 0
M  V30 23167 H 2114.65 -5.55756 -1.05604 0
M  V30 23168 H 2113.21 -6.46403 -0.837072 0
M  V30 23169 N 2116.64 -0.977779 -1.23601 0
M  V30 23170 C 2117.57 -0.535228 -2.27283 0
M  V30 23171 C 2118.55 0.430261 -1.64568 0
M  V30 23172 O 2119.74 0.324195 -1.91475 0
M  V30 23173 C 2116.87 0.165683 -3.46905 0
M  V30 23174 C 2115.82 -0.716827 -4.21954 0
M  V30 23175 C 2115.15 0.116149 -5.34574 0
M  V30 23176 C 2116.45 -2.00636 -4.82227 0
M  V30 23177 H 2118.14 -1.40185 -2.64553 0
M  V30 23178 H 2115.69 -0.67551 -1.27173 0
M  V30 23179 H 2117.64 0.486573 -4.18581 0
M  V30 23180 H 2116.36 1.06674 -3.08688 0
M  V30 23181 H 2115.02 -1.02114 -3.52091 0
M  V30 23182 H 2114.67 1.01766 -4.92598 0
M  V30 23183 H 2114.37 -0.471195 -5.85708 0
M  V30 23184 H 2115.89 0.431481 -6.09074 0
M  V30 23185 H 2117.31 -1.75041 -5.45925 0
M  V30 23186 H 2115.7 -2.54126 -5.43636 0
M  V30 23187 H 2116.77 -2.69488 -4.03118 0
M  V30 23188 N 2118.12 1.38658 -0.749111 0
M  V30 23189 C 2119.36 2.00216 -0.303277 0
M  V30 23190 C 2119.69 1.59459 1.1137 0
M  V30 23191 O 2118.95 0.821377 1.77628 0
M  V30 23192 C 2119.25 3.55494 -0.368653 0
M  V30 23193 C 2118.91 4.15948 -1.74064 0
M  V30 23194 C 2117.57 4.32173 -2.11613 0
M  V30 23195 C 2119.93 4.49344 -2.64083 0
M  V30 23196 C 2117.25 4.79088 -3.38661 0
M  V30 23197 C 2119.61 4.97674 -3.90517 0
M  V30 23198 C 2118.27 5.12106 -4.2814 0
M  V30 23199 H 2117.54 0.732643 -0.110977 0
M  V30 23200 H 2120.19 1.65774 -0.958716 0
M  V30 23201 H 2118.49 3.90046 0.370354 0
M  V30 23202 H 2120.19 4.01 -0.00534235 0
M  V30 23203 H 2116.78 4.0373 -1.43875 0
M  V30 23204 H 2120.96 4.36414 -2.3634 0
M  V30 23205 H 2116.22 4.88447 -3.67735 0
M  V30 23206 H 2120.39 5.22485 -4.60415 0
M  V30 23207 H 2118.02 5.4822 -5.26649 0
M  V30 23208 N 2119.6 0.497834 1.49531 0
M  V30 23209 C 2120.53 -0.318951 2.2697 0
M  V30 23210 C 2121.54 -0.933444 1.33382 0
M  V30 23211 O 2122.73 -0.81732 1.58689 0
M  V30 23212 C 2119.83 -1.46375 3.05659 0
M  V30 23213 C 2119 -0.957146 4.26799 0
M  V30 23214 C 2118.06 -1.97917 4.8756 0
M  V30 23215 O 2117.09 -1.54899 5.47718 0
M  V30 23216 N 2118.29 -3.30935 4.7693 0
M  V30 23217 H 2121.05 0.345053 2.97707 0
M  V30 23218 H 2118.62 0.330191 1.58497 0
M  V30 23219 H 2120.61 -2.14495 3.43182 0
M  V30 23220 H 2119.18 -2.03196 2.3755 0
M  V30 23221 H 2118.4 -0.100949 3.94071 0
M  V30 23222 H 2119.69 -0.597028 5.05285 0
M  V30 23223 H 2119.08 -3.68576 4.29149 0
M  V30 23224 H 2117.64 -3.94778 5.18646 0
M  V30 23225 N 2121.07 -1.5589 0.231532 0
M  V30 23226 C 2122.02 -2.20725 -0.674461 0
M  V30 23227 C 2122.99 -1.16607 -1.18288 0
M  V30 23228 O 2124.18 -1.44999 -1.24016 0
M  V30 23229 C 2121.32 -2.89876 -1.87259 0
M  V30 23230 C 2120.43 -4.08613 -1.40213 0
M  V30 23231 C 2119.56 -4.6552 -2.55861 0
M  V30 23232 C 2118.6 -5.76537 -2.05601 0
M  V30 23233 N 2117.74 -6.27692 -3.14558 0
M  V30 23234 H 2122.58 -2.97779 -0.114866 0
M  V30 23235 H 2120.12 -1.47031 -0.0449395 0
M  V30 23236 H 2122.07 -3.28159 -2.57619 0
M  V30 23237 H 2120.7 -2.15324 -2.4049 0
M  V30 23238 H 2119.76 -3.75748 -0.593106 0
M  V30 23239 H 2121.07 -4.88802 -0.993676 0
M  V30 23240 H 2120.22 -5.06297 -3.34288 0
M  V30 23241 H 2118.96 -3.84514 -3.00001 0
M  V30 23242 H 2117.97 -5.35252 -1.25639 0
M  V30 23243 H 2119.19 -6.59384 -1.62449 0
M  V30 23244 H 2117.14 -5.49597 -3.58161 0
M  V30 23245 H 2117.05 -7.03032 -2.77996 0
M  V30 23246 H 2118.32 -6.73127 -3.93091 0
M  V30 23247 N 2122.55 0.0417572 -1.57545 0
M  V30 23248 C 2123.96 0.589951 -1.77134 0
M  V30 23249 C 2124.31 1.76299 -0.860987 0
M  V30 23250 O 2123.44 2.16336 -0.0525748 0
M  V30 23251 C 2124.03 1.077 -3.21226 0
M  V30 23252 C 2122.59 1.57081 -3.42056 0
M  V30 23253 C 2121.74 0.503265 -2.72695 0
M  V30 23254 H 2124.69 -0.18447 -1.57624 0
M  V30 23255 H 2124.71 1.94485 -3.27041 0
M  V30 23256 H 2124.22 0.22303 -3.87459 0
M  V30 23257 H 2122.32 2.44704 -2.80981 0
M  V30 23258 H 2122.44 1.62706 -4.50626 0
M  V30 23259 H 2120.8 0.955366 -2.36103 0
M  V30 23260 H 2121.58 -0.341024 -3.41602 0
M  V30 23261 N 2124.03 1.54445 0.313786 0
M  V30 23262 C 2124.99 1.8378 1.36959 0
M  V30 23263 C 2125.99 0.710053 1.44274 0
M  V30 23264 O 2127.18 0.978359 1.44131 0
M  V30 23265 C 2124.31 2.00661 2.75586 0
M  V30 23266 H 2125.51 2.78122 1.12197 0
M  V30 23267 H 2123.06 1.46311 0.549789 0
M  V30 23268 H 2123.8 1.08564 3.05589 0
M  V30 23269 H 2123.58 2.82734 2.71669 0
M  V30 23270 H 2125.07 2.24771 3.51948 0
M  V30 23271 N 2125.51 -0.576345 1.46683 0
M  V30 23272 C 2126.46 -1.70601 1.58108 0
M  V30 23273 C 2127.45 -1.63334 0.449247 0
M  V30 23274 O 2128.66 -1.68751 0.626355 0
M  V30 23275 H 2125.03 -0.564161 0.497218 0
M  V30 23276 H 2127 -1.58098 2.53076 0
M  V30 23277 C 2125.75 -3.08983 1.59452 0
M  V30 23278 H 2125.07 -3.15247 2.45885 0
M  V30 23279 H 2126.51 -3.87768 1.715 0
M  V30 23280 C 2124.97 -3.35335 0.324303 0
M  V30 23281 O 2125.5 -3.9745 -0.58277 0
M  V30 23282 N 2123.71 -2.89838 0.21024 0
M  V30 23283 H 2123.26 -2.39471 0.949293 0
M  V30 23284 H 2123.21 -3.07843 -0.638752 0
M  V30 23285 N 2126.99 -1.34495 -0.82151 0
M  V30 23286 C 2128.23 -1.26931 -1.57781 0
M  V30 23287 C 2128.56 0.160345 -1.93838 0
M  V30 23288 O 2127.82 1.12196 -1.60345 0
M  V30 23289 C 2128.11 -2.10695 -2.88691 0
M  V30 23290 C 2127.78 -3.59682 -2.71919 0
M  V30 23291 C 2126.44 -4.00295 -2.67053 0
M  V30 23292 C 2128.79 -4.5428 -2.55497 0
M  V30 23293 C 2126.12 -5.33698 -2.43687 0
M  V30 23294 C 2128.47 -5.87864 -2.33663 0
M  V30 23295 C 2127.14 -6.2764 -2.27209 0
M  V30 23296 H 2126.41 -0.464474 -0.57736 0
M  V30 23297 H 2129.06 -1.66251 -0.950411 0
M  V30 23298 H 2127.36 -1.64208 -3.55729 0
M  V30 23299 H 2129.06 -2.02188 -3.46296 0
M  V30 23300 H 2125.65 -3.27444 -2.76547 0
M  V30 23301 H 2129.83 -4.23799 -2.58279 0
M  V30 23302 H 2125.09 -5.63534 -2.37149 0
M  V30 23303 H 2129.26 -6.60756 -2.19943 0
M  V30 23304 H 2126.89 -7.30944 -2.08865 0
M  V30 23305 N 2128.46 1.04188 -1.18248 0
M  V30 23306 C 2129.37 2.15666 -0.923339 0
M  V30 23307 C 2130.39 1.73638 0.112112 0
M  V30 23308 O 2131.57 2.0128 -0.0695153 0
M  V30 23309 C 2128.63 3.43751 -0.451239 0
M  V30 23310 C 2127.69 4.00167 -1.55451 0
M  V30 23311 C 2126.93 5.22139 -1.10484 0
M  V30 23312 O 2127.15 5.70388 0.0369453 0
M  V30 23313 O 2126.08 5.71056 -1.90207 0
M  V30 23314 H 2129.91 2.40381 -1.85609 0
M  V30 23315 H 2127.49 1.14121 -0.9642 0
M  V30 23316 H 2129.38 4.20944 -0.195977 0
M  V30 23317 H 2128.05 3.20511 0.45323 0
M  V30 23318 H 2126.96 3.24368 -1.86377 0
M  V30 23319 H 2128.29 4.27745 -2.43506 0
M  V30 23320 N 2129.94 0.98432 1.23081 0
M  V30 23321 C 2130.87 0.48581 2.23992 0
M  V30 23322 C 2131.89 -0.414468 1.57436 0
M  V30 23323 O 2133.08 -0.217976 1.77164 0
M  V30 23324 C 2130.18 -0.316143 3.37422 0
M  V30 23325 C 2129.35 0.578204 4.33561 0
M  V30 23326 C 2128.41 -0.170568 5.25923 0
M  V30 23327 O 2127.43 0.441138 5.67488 0
M  V30 23328 N 2128.64 -1.45541 5.61959 0
M  V30 23329 H 2131.4 1.3535 2.67396 0
M  V30 23330 H 2128.96 0.858041 1.37293 0
M  V30 23331 H 2130.95 -0.825504 3.96191 0
M  V30 23332 H 2129.52 -1.08487 2.93171 0
M  V30 23333 H 2128.74 1.26835 3.73238 0
M  V30 23334 H 2130.03 1.18757 4.94747 0
M  V30 23335 H 2129.43 -1.97385 5.30147 0
M  V30 23336 H 2127.99 -1.91013 6.23183 0
M  V30 23337 N 2131.42 -1.38259 0.756453 0
M  V30 23338 C 2132.84 -1.53575 0.434365 0
M  V30 23339 C 2133.04 -1.71851 -1.05212 0
M  V30 23340 O 2132.09 -1.73115 -1.83814 0
M  V30 23341 C 2133.41 -2.74118 1.23611 0
M  V30 23342 C 2134.95 -2.8797 1.22647 0
M  V30 23343 C 2135.43 -4.11477 2.01124 0
M  V30 23344 N 2136.92 -4.1856 1.98399 0
M  V30 23345 C 2137.65 -5.13124 2.55913 0
M  V30 23346 N 2137.15 -6.13343 3.22153 0
M  V30 23347 N 2138.94 -5.05495 2.45827 0
M  V30 23348 H 2131.09 -1.24647 1.7198 0
M  V30 23349 H 2133.36 -0.605745 0.72923 0
M  V30 23350 H 2133.06 -2.67028 2.28886 0
M  V30 23351 H 2132.94 -3.67384 0.854919 0
M  V30 23352 H 2135.32 -2.9454 0.181771 0
M  V30 23353 H 2135.41 -1.95707 1.6472 0
M  V30 23354 H 2135.05 -4.05669 3.05607 0
M  V30 23355 H 2134.98 -5.02825 1.56444 0
M  V30 23356 H 2137.47 -3.46785 1.50161 0
M  V30 23357 H 2137.78 -6.81999 3.63451 0
M  V30 23358 H 2136.13 -6.13667 3.26248 0
M  V30 23359 H 2139.32 -4.26141 1.93705 0
M  V30 23360 H 2139.49 -5.79012 2.90946 0
M  V30 23361 N 2132.9 -0.505757 -1.49264 0
M  V30 23362 C 2133.83 0.316874 -2.25989 0
M  V30 23363 C 2134.81 0.966218 -1.30778 0
M  V30 23364 O 2135.99 0.995383 -1.60076 0
M  V30 23365 C 2133.12 1.44666 -3.0625 0
M  V30 23366 C 2132.17 0.911211 -4.16652 0
M  V30 23367 S 2133 -0.201792 -5.3512 0
M  V30 23368 C 2134.16 0.931051 -6.18936 0
M  V30 23369 H 2134.39 -0.334324 -2.95414 0
M  V30 23370 H 2131.92 -0.291131 -1.5163 0
M  V30 23371 H 2133.88 2.09399 -3.53076 0
M  V30 23372 H 2132.54 2.06949 -2.36285 0
M  V30 23373 H 2131.73 1.75804 -4.72344 0
M  V30 23374 H 2131.34 0.341018 -3.72442 0
M  V30 23375 H 2133.63 1.83522 -6.5217 0
M  V30 23376 H 2134.57 0.412646 -7.06897 0
M  V30 23377 H 2134.98 1.20053 -5.51586 0
M  V30 23378 N 2134.38 1.55765 -0.239796 0
M  V30 23379 C 2135.31 2.24064 0.657067 0
M  V30 23380 C 2136.29 1.2185 1.18687 0
M  V30 23381 O 2137.47 1.50484 1.22753 0
M  V30 23382 C 2134.6 2.93465 1.8573 0
M  V30 23383 C 2133.56 4.02307 1.46057 0
M  V30 23384 C 2132.88 4.59097 2.74106 0
M  V30 23385 C 2134.18 5.18402 0.636932 0
M  V30 23386 H 2135.88 2.99272 0.0875675 0
M  V30 23387 H 2133.42 1.43943 0.0406772 0
M  V30 23388 H 2135.38 3.39943 2.49032 0
M  V30 23389 H 2134.1 2.15734 2.45207 0
M  V30 23390 H 2132.76 3.56588 0.850935 0
M  V30 23391 H 2132.41 3.78075 3.31766 0
M  V30 23392 H 2132.11 5.32566 2.48288 0
M  V30 23393 H 2133.63 5.08304 3.38318 0
M  V30 23394 H 2135.04 5.61149 1.17408 0
M  V30 23395 H 2133.44 5.98216 0.475092 0
M  V30 23396 H 2134.51 4.83617 -0.352445 0
M  V30 23397 N 2135.85 -0.0334016 1.57565 0
M  V30 23398 C 2137.13 -0.760253 1.80221 0
M  V30 23399 C 2137.51 -1.93806 0.836817 0
M  V30 23400 O 2136.86 -2.28174 -0.121959 0
M  V30 23401 C 2137.07 -1.19735 3.27818 0
M  V30 23402 C 2138.42 -1.61505 3.92685 0
M  V30 23403 O 2139.44 -1.29204 3.31941 0
M  V30 23404 O 2138.3 -2.21441 4.99626 0
M  V30 23405 H 2135.39 -0.36729 0.740964 0
M  V30 23406 H 2137.94 -0.0105137 1.69697 0
M  V30 23407 H 2136.71 -0.356354 3.89674 0
M  V30 23408 H 2136.34 -2.00724 3.43214 0
M  V30 23409 N 2137.33 -1.54609 -0.305591 0
M  V30 23410 C 2138.57 -1.75406 -1.04938 0
M  V30 23411 C 2138.94 -0.526278 -1.84646 0
M  V30 23412 O 2140.14 -0.611906 -2.61743 0
M  V30 23413 C 2138.41 -3.00482 -1.93508 0
M  V30 23414 S 2139.97 -3.42262 -2.74595 0
M  V30 23415 H 2136.79 -0.616617 -0.353984 0
M  V30 23416 H 2139.39 -1.92808 -0.32331 0
M  V30 23417 H 2138.09 -3.8797 -1.33817 0
M  V30 23418 H 2137.62 -2.85654 -2.70491 0
M  V30 23419 H 2139.64 -2.98971 -3.96018 0
M  V30 23420 N 2138.81 0.568558 -1.46987 0
M  V30 23421 C 2139.76 1.67655 -1.5862 0
M  V30 23422 C 2140.73 1.60444 -0.429761 0
M  V30 23423 O 2141.91 1.79446 -0.648355 0
M  V30 23424 C 2139.05 3.05988 -1.59578 0
M  V30 23425 C 2138.17 3.2372 -2.86058 0
M  V30 23426 C 2137.3 4.52385 -2.78427 0
M  V30 23427 C 2136.34 4.63509 -3.99782 0
M  V30 23428 N 2135.48 5.83515 -3.90454 0
M  V30 23429 H 2140.32 1.5705 -2.53257 0
M  V30 23430 H 2137.85 0.765211 -1.2563 0
M  V30 23431 H 2139.81 3.86076 -1.58118 0
M  V30 23432 H 2138.44 3.15456 -0.684628 0
M  V30 23433 H 2137.49 2.37141 -2.97436 0
M  V30 23434 H 2138.81 3.27806 -3.75959 0
M  V30 23435 H 2137.96 5.40718 -2.75152 0
M  V30 23436 H 2136.7 4.5076 -1.86191 0
M  V30 23437 H 2135.7 3.7359 -4.03374 0
M  V30 23438 H 2136.93 4.66902 -4.93132 0
M  V30 23439 H 2134.87 5.82861 -3.01013 0
M  V30 23440 H 2134.79 5.8893 -4.74022 0
M  V30 23441 H 2136.06 6.74241 -3.91177 0
M  V30 23442 N 2140.29 1.34929 0.814366 0
M  V30 23443 C 2141.7 1.14798 1.10877 0
M  V30 23444 C 2141.9 -0.0447901 2.0145 0
M  V30 23445 O 2140.96 -0.717746 2.42084 0
M  V30 23446 C 2142.27 2.44729 1.74724 0
M  V30 23447 C 2143.82 2.50864 1.8718 0
M  V30 23448 C 2144.3 3.80819 2.54443 0
M  V30 23449 N 2145.79 3.82027 2.61935 0
M  V30 23450 C 2146.52 4.79305 3.14729 0
M  V30 23451 N 2146.02 5.86969 3.68021 0
M  V30 23452 N 2147.81 4.6675 3.1321 0
M  V30 23453 H 2139.96 2.11338 0.212102 0
M  V30 23454 H 2142.23 0.934964 0.156671 0
M  V30 23455 H 2141.93 3.32146 1.15637 0
M  V30 23456 H 2141.81 2.58702 2.74505 0
M  V30 23457 H 2144.19 1.6388 2.45412 0
M  V30 23458 H 2144.27 2.40811 0.862763 0
M  V30 23459 H 2143.92 4.68196 1.96862 0
M  V30 23460 H 2143.85 3.88157 3.55867 0
M  V30 23461 H 2146.34 3.04231 2.2417 0
M  V30 23462 H 2146.65 6.57199 4.06582 0
M  V30 23463 H 2145 5.90671 3.66241 0
M  V30 23464 H 2148.19 3.81784 2.70849 0
M  V30 23465 H 2148.36 5.42728 3.54049 0
M  V30 23466 N 2141.77 -1.0356 1.18799 0
M  V30 23467 C 2143.01 -1.77109 0.987945 0
M  V30 23468 C 2143.35 -1.88154 -0.480786 0
M  V30 23469 O 2142.62 -1.39339 -1.35702 0
M  V30 23470 C 2142.9 -3.20098 1.64952 0
M  V30 23471 C 2142.76 -3.16964 3.19145 0
M  V30 23472 C 2144.08 -4.18333 1.36696 0
M  V30 23473 H 2141.19 -0.642915 0.360318 0
M  V30 23474 H 2143.84 -1.20938 1.4654 0
M  V30 23475 H 2141.99 -3.6806 1.24356 0
M  V30 23476 H 2143.66 -2.76953 3.6891 0
M  V30 23477 H 2141.9 -2.54859 3.5104 0
M  V30 23478 H 2142.57 -4.17958 3.60576 0
M  V30 23479 H 2145.05 -3.78941 1.7188 0
M  V30 23480 H 2143.92 -5.16589 1.85546 0
M  V30 23481 H 2144.19 -4.41143 0.290807 0
M  V30 23482 N 2143.25 -0.990834 -1.22557 0
M  V30 23483 C 2144.18 -0.559304 -2.26703 0
M  V30 23484 C 2145.16 0.412782 -1.65016 0
M  V30 23485 O 2146.34 0.303868 -1.91808 0
M  V30 23486 C 2143.47 0.12888 -3.47061 0
M  V30 23487 C 2142.43 -0.76154 -4.2117 0
M  V30 23488 C 2141.75 0.0594442 -5.34667 0
M  V30 23489 C 2143.05 -2.0574 -4.80071 0
M  V30 23490 H 2144.75 -1.42983 -2.63052 0
M  V30 23491 H 2142.29 -0.68896 -1.26449 0
M  V30 23492 H 2144.24 0.44215 -4.19074 0
M  V30 23493 H 2142.97 1.03394 -3.09802 0
M  V30 23494 H 2141.63 -1.05842 -3.50989 0
M  V30 23495 H 2141.28 0.965355 -4.9365 0
M  V30 23496 H 2140.98 -0.533291 -5.85175 0
M  V30 23497 H 2142.5 0.366857 -6.09497 0
M  V30 23498 H 2143.91 -1.80821 -5.44037 0
M  V30 23499 H 2142.31 -2.59878 -5.4091 0
M  V30 23500 H 2143.38 -2.73748 -4.00237 0
M  V30 23501 N 2144.72 1.37856 -0.763775 0
M  V30 23502 C 2146 1.94001 -0.249566 0
M  V30 23503 C 2146.38 1.69818 1.254 0
M  V30 23504 O 2145.73 1.04245 2.03335 0
M  V30 23505 C 2145.94 3.43551 -0.614299 0
M  V30 23506 C 2147.29 4.20625 -0.579627 0
M  V30 23507 O 2148.31 3.51878 -0.553206 0
M  V30 23508 O 2147.17 5.43201 -0.599606 0
M  V30 23509 H 2144.26 0.825148 -0.055317 0
M  V30 23510 H 2146.81 1.4719 -0.844588 0
M  V30 23511 H 2145.58 3.54703 -1.65231 0
M  V30 23512 H 2145.2 3.97599 0.00819535 0
M  V30 23513 N 2146.2 0.513665 1.48994 0
M  V30 23514 C 2147.45 -0.0262821 2.02083 0
M  V30 23515 C 2147.77 -1.36306 1.39448 0
M  V30 23516 O 2147.04 -1.87899 0.554154 0
M  V30 23517 H 2145.62 -0.012702 0.746892 0
M  V30 23518 H 2148.28 0.673788 1.82883 0
M  V30 23519 H 2147.38 -0.146648 3.11755 0
M  V30 23520 N 2147.68 -1.55636 0.248053 0
M  V30 23521 C 2148.93 -1.99266 -0.376927 0
M  V30 23522 C 2149.26 -1.13602 -1.57506 0
M  V30 23523 O 2148.53 -0.199686 -1.93472 0
M  V30 23524 C 2148.82 -3.51425 -0.785664 0
M  V30 23525 C 2148.67 -4.47854 0.417942 0
M  V30 23526 C 2149.99 -4.08714 -1.63221 0
M  V30 23527 H 2147.11 -0.724431 -0.135531 0
M  V30 23528 H 2149.75 -1.86756 0.349594 0
M  V30 23529 H 2147.9 -3.62216 -1.40469 0
M  V30 23530 H 2149.57 -4.49041 1.05638 0
M  V30 23531 H 2147.81 -4.20629 1.06084 0
M  V30 23532 H 2148.49 -5.51929 0.0886002 0
M  V30 23533 H 2150.96 -4.01031 -1.10966 0
M  V30 23534 H 2149.84 -5.15443 -1.88706 0
M  V30 23535 H 2150.1 -3.57242 -2.60443 0
M  V30 23536 N 2149.16 0.0250451 -1.5758 0
M  V30 23537 C 2150.1 1.02441 -2.0682 0
M  V30 23538 C 2151.07 1.35675 -0.958198 0
M  V30 23539 O 2152.26 1.45944 -1.22903 0
M  V30 23540 C 2149.4 2.31904 -2.55567 0
M  V30 23541 C 2148.51 2.04792 -3.80374 0
M  V30 23542 C 2147.65 3.28155 -4.17718 0
M  V30 23543 C 2146.69 2.96616 -5.3543 0
M  V30 23544 N 2145.82 4.12442 -5.68187 0
M  V30 23545 H 2150.66 0.59756 -2.91947 0
M  V30 23546 H 2148.2 0.283432 -1.44344 0
M  V30 23547 H 2150.16 3.07553 -2.81899 0
M  V30 23548 H 2148.79 2.72304 -1.73351 0
M  V30 23549 H 2147.84 1.19622 -3.61102 0
M  V30 23550 H 2149.15 1.7753 -4.66138 0
M  V30 23551 H 2148.31 4.12169 -4.45199 0
M  V30 23552 H 2147.05 3.58534 -3.30612 0
M  V30 23553 H 2146.05 2.11005 -5.07698 0
M  V30 23554 H 2147.28 2.67511 -6.24191 0
M  V30 23555 H 2145.22 4.42765 -4.84041 0
M  V30 23556 H 2145.14 3.88617 -6.4847 0
M  V30 23557 H 2146.41 4.97317 -6.00246 0
M  V30 23558 N 2150.64 1.54769 0.297388 0
M  V30 23559 C 2151.6 1.85222 1.35002 0
M  V30 23560 C 2152.6 0.725316 1.43512 0
M  V30 23561 O 2153.79 0.993591 1.43085 0
M  V30 23562 C 2150.92 2.03573 2.73443 0
M  V30 23563 H 2152.11 2.79296 1.09241 0
M  V30 23564 H 2149.67 1.46886 0.53424 0
M  V30 23565 H 2150.4 1.11799 3.0442 0
M  V30 23566 H 2150.19 2.85599 2.68655 0
M  V30 23567 H 2151.68 2.28492 3.49545 0
M  V30 23568 N 2152.11 -0.560755 1.47286 0
M  V30 23569 C 2153.02 -1.69558 1.62133 0
M  V30 23570 C 2154.04 -1.66533 0.50425 0
M  V30 23571 O 2155.22 -1.86045 0.771315 0
M  V30 23572 C 2152.28 -3.06065 1.62865 0
M  V30 23573 C 2151.34 -3.20185 2.85972 0
M  V30 23574 C 2150.57 -4.5018 2.8666 0
M  V30 23575 O 2150.8 -5.35423 1.96669 0
M  V30 23576 O 2149.73 -4.68015 3.78478 0
M  V30 23577 H 2153.56 -1.59976 2.5815 0
M  V30 23578 H 2151.14 -0.730353 1.30331 0
M  V30 23579 H 2153.02 -3.87307 1.66046 0
M  V30 23580 H 2151.7 -3.16037 0.700143 0
M  V30 23581 H 2150.61 -2.38353 2.88337 0
M  V30 23582 H 2151.94 -3.15114 3.78106 0
M  V30 23583 N 2153.59 -1.35359 -0.807199 0
M  V30 23584 C 2154.52 -1.30893 -1.93363 0
M  V30 23585 C 2155.5 -0.183475 -1.69108 0
M  V30 23586 O 2156.69 -0.378339 -1.90479 0
M  V30 23587 C 2153.82 -1.07954 -3.30096 0
M  V30 23588 C 2152.77 -2.17133 -3.68832 0
M  V30 23589 C 2152.1 -1.7936 -5.0372 0
M  V30 23590 C 2153.4 -3.59094 -3.79274 0
M  V30 23591 H 2155.09 -2.25145 -1.97357 0
M  V30 23592 H 2152.64 -1.08381 -0.948131 0
M  V30 23593 H 2154.59 -1.03469 -4.085 0
M  V30 23594 H 2153.31 -0.101468 -3.26442 0
M  V30 23595 H 2151.97 -2.20714 -2.92713 0
M  V30 23596 H 2151.62 -0.801733 -4.96569 0
M  V30 23597 H 2151.32 -2.52445 -5.30608 0
M  V30 23598 H 2152.85 -1.764 -5.84564 0
M  V30 23599 H 2154.26 -3.57839 -4.47911 0
M  V30 23600 H 2152.66 -4.30934 -4.17632 0
M  V30 23601 H 2153.73 -3.9529 -2.80845 0
M  V30 23602 N 2155.07 1.02928 -1.19346 0
M  V30 23603 C 2156.02 2.09544 -0.898634 0
M  V30 23604 C 2157 1.60321 0.136393 0
M  V30 23605 O 2158.2 1.76865 -0.0692414 0
M  V30 23606 C 2155.32 3.40486 -0.438666 0
M  V30 23607 C 2154.41 3.96444 -1.50641 0
M  V30 23608 N 2154.8 4.26071 -2.72575 0
M  V30 23609 C 2153.1 4.2445 -1.3696 0
M  V30 23610 C 2153.8 4.71011 -3.41355 0
M  V30 23611 N 2152.78 4.7252 -2.68749 0
M  V30 23612 H 2156.58 2.30342 -1.82538 0
M  V30 23613 H 2154.09 1.20785 -1.08557 0
M  V30 23614 H 2156.09 4.16376 -0.208902 0
M  V30 23615 H 2154.75 3.21109 0.481599 0
M  V30 23616 H 2155.76 4.15365 -3.09341 0
M  V30 23617 H 2152.44 4.14339 -0.512767 0
M  V30 23618 H 2153.83 5.02859 -4.45626 0
M  V30 23619 N 2156.55 0.997319 1.2203 0
M  V30 23620 C 2157.79 0.676667 1.91178 0
M  V30 23621 C 2158.13 -0.789768 1.77416 0
M  V30 23622 O 2157.4 -1.57163 1.14586 0
M  V30 23623 C 2157.68 1.08886 3.43243 0
M  V30 23624 C 2157.54 2.61418 3.66034 0
M  V30 23625 C 2158.86 0.645428 4.35342 0
M  V30 23626 H 2155.98 0.247298 0.694271 0
M  V30 23627 H 2158.62 1.24163 1.43818 0
M  V30 23628 H 2156.77 0.608155 3.8371 0
M  V30 23629 H 2158.44 3.17192 3.34943 0
M  V30 23630 H 2156.68 3.03284 3.10163 0
M  V30 23631 H 2157.35 2.8531 4.72549 0
M  V30 23632 H 2159.83 1.05839 4.02414 0
M  V30 23633 H 2158.71 0.962088 5.40403 0
M  V30 23634 H 2158.97 -0.453741 4.39765 0
M  V30 23635 N 2158.03 -1.37449 0.771075 0
M  V30 23636 C 2158.96 -2.32874 0.170867 0
M  V30 23637 C 2159.94 -1.55746 -0.683892 0
M  V30 23638 O 2161.12 -1.83987 -0.621492 0
M  V30 23639 C 2158.25 -3.39974 -0.709566 0
M  V30 23640 C 2157.21 -4.27978 0.0438353 0
M  V30 23641 C 2156.53 -5.26084 -0.955998 0
M  V30 23642 C 2157.83 -5.07793 1.22245 0
M  V30 23643 H 2159.53 -2.83319 0.968038 0
M  V30 23644 H 2157.07 -1.36219 0.466952 0
M  V30 23645 H 2159.03 -4.05708 -1.13926 0
M  V30 23646 H 2157.75 -2.88053 -1.53925 0
M  V30 23647 H 2156.41 -3.63774 0.454301 0
M  V30 23648 H 2156.06 -4.70444 -1.78021 0
M  V30 23649 H 2155.76 -5.85824 -0.456445 0
M  V30 23650 H 2157.28 -5.94693 -1.38465 0
M  V30 23651 H 2158.69 -5.66669 0.869436 0
M  V30 23652 H 2157.09 -5.76855 1.65404 0
M  V30 23653 H 2158.16 -4.40506 2.02688 0
M  V30 23654 N 2159.5 -0.52156 -1.4872 0
M  V30 23655 C 2160.78 0.0795904 -1.95438 0
M  V30 23656 C 2161.16 1.52124 -1.46361 0
M  V30 23657 O 2160.51 2.17948 -0.686376 0
M  V30 23658 C 2160.72 -0.028961 -3.48988 0
M  V30 23659 C 2162.07 0.134582 -4.24387 0
M  V30 23660 O 2163.09 0.0452419 -3.56171 0
M  V30 23661 O 2161.95 0.32062 -5.45559 0
M  V30 23662 H 2159.04 0.0839623 -0.822727 0
M  V30 23663 H 2161.59 -0.58556 -1.59277 0
M  V30 23664 H 2160.36 -1.03353 -3.77404 0
M  V30 23665 H 2159.99 0.675418 -3.91821 0
M  V30 23666 N 2160.98 1.55502 -0.256304 0
M  V30 23667 C 2162.23 1.99463 0.366354 0
M  V30 23668 C 2162.56 1.14436 1.56902 0
M  V30 23669 O 2161.84 0.209944 1.93364 0
M  V30 23670 C 2162.12 3.51836 0.767016 0
M  V30 23671 C 2161.97 4.47626 -0.441687 0
M  V30 23672 C 2163.29 4.09574 1.61051 0
M  V30 23673 H 2160.41 0.72514 0.131688 0
M  V30 23674 H 2163.05 1.86568 -0.359494 0
M  V30 23675 H 2161.2 3.62956 1.38546 0
M  V30 23676 H 2162.87 4.48475 -1.08018 0
M  V30 23677 H 2161.12 4.2006 -1.08313 0
M  V30 23678 H 2161.79 5.51874 -0.117869 0
M  V30 23679 H 2164.26 4.01614 1.08838 0
M  V30 23680 H 2163.14 5.16436 1.85969 0
M  V30 23681 H 2163.4 3.58619 2.58544 0
M  V30 23682 N 2162.46 -0.0166879 1.57591 0
M  V30 23683 C 2163.41 -1.01343 2.0736 0
M  V30 23684 C 2164.38 -1.35165 0.96538 0
M  V30 23685 O 2165.56 -1.4529 1.23675 0
M  V30 23686 C 2162.7 -2.30545 2.56794 0
M  V30 23687 C 2161.82 -2.02772 3.81454 0
M  V30 23688 C 2160.95 -3.25935 4.19452 0
M  V30 23689 C 2159.99 -2.93773 5.36995 0
M  V30 23690 N 2159.13 -4.09423 5.70366 0
M  V30 23691 H 2163.97 -0.582069 2.9226 0
M  V30 23692 H 2161.5 -0.275773 1.44492 0
M  V30 23693 H 2163.46 -3.06054 2.83526 0
M  V30 23694 H 2162.09 -2.7138 1.74793 0
M  V30 23695 H 2161.14 -1.17706 3.61731 0
M  V30 23696 H 2162.46 -1.75056 4.67073 0
M  V30 23697 H 2161.61 -4.09802 4.47378 0
M  V30 23698 H 2160.35 -3.56776 3.32509 0
M  V30 23699 H 2159.35 -2.0831 5.08809 0
M  V30 23700 H 2160.58 -2.64197 6.25601 0
M  V30 23701 H 2158.52 -4.40192 4.86382 0
M  V30 23702 H 2158.44 -3.85172 6.50521 0
M  V30 23703 H 2159.71 -4.94127 6.02875 0
M  V30 23704 N 2163.94 -1.54924 -0.289176 0
M  V30 23705 C 2165.22 -1.65459 -1.04319 0
M  V30 23706 C 2165.6 -0.510528 -2.04834 0
M  V30 23707 O 2164.94 0.491374 -2.23154 0
M  V30 23708 C 2165.15 -3.03984 -1.71449 0
M  V30 23709 C 2166.5 -3.61196 -2.2321 0
M  V30 23710 O 2167.53 -3.06513 -1.81462 0
M  V30 23711 O 2166.38 -4.56967 -2.99739 0
M  V30 23712 H 2163.48 -0.671376 -0.482891 0
M  V30 23713 H 2166.02 -1.67267 -0.286321 0
M  V30 23714 H 2164.8 -3.78693 -0.985267 0
M  V30 23715 H 2164.42 -3.06005 -2.53863 0
M  V30 23716 N 2165.42 0.552936 -1.47582 0
M  V30 23717 C 2166.66 1.31186 -1.54655 0
M  V30 23718 C 2167 1.93062 -0.209946 0
M  V30 23719 O 2166.27 1.78093 0.781854 0
M  V30 23720 C 2166.55 2.41873 -2.66776 0
M  V30 23721 C 2166.41 1.84837 -4.10067 0
M  V30 23722 C 2167.73 3.43776 -2.74784 0
M  V30 23723 H 2164.84 0.47562 -0.562987 0
M  V30 23724 H 2167.49 0.618335 -1.79657 0
M  V30 23725 H 2165.64 3.01029 -2.45589 0
M  V30 23726 H 2167.31 1.29909 -4.4263 0
M  V30 23727 H 2165.55 1.15489 -4.18144 0
M  V30 23728 H 2166.22 2.64874 -4.84299 0
M  V30 23729 H 2168.7 2.94544 -2.9391 0
M  V30 23730 H 2167.57 4.18646 -3.55003 0
M  V30 23731 H 2167.84 4.02894 -1.82013 0
M  V30 23732 N 2166.89 1.35785 0.800009 0
M  V30 23733 C 2168.17 1.19984 1.54477 0
M  V30 23734 C 2168.55 -0.218358 2.09968 0
M  V30 23735 O 2167.9 -1.2227 1.93035 0
M  V30 23736 C 2168.11 2.27325 2.6481 0
M  V30 23737 C 2169.46 2.63463 3.32975 0
M  V30 23738 O 2170.48 2.26288 2.75086 0
M  V30 23739 O 2169.34 3.27408 4.37569 0
M  V30 23740 H 2166.43 0.466534 0.682844 0
M  V30 23741 H 2168.98 1.47486 0.839403 0
M  V30 23742 H 2167.75 3.22418 2.21725 0
M  V30 23743 H 2167.38 2.01129 3.42976 0
M  V30 23744 N 2168.37 -1.02294 1.19891 0
M  V30 23745 C 2169.78 -1.5724 1.0066 0
M  V30 23746 C 2170.13 -1.9123 -0.43882 0
M  V30 23747 O 2169.26 -1.71541 -1.31919 0
M  V30 23748 C 2169.85 -2.85704 1.82094 0
M  V30 23749 C 2168.41 -3.37202 1.67248 0
M  V30 23750 C 2167.56 -2.10577 1.80424 0
M  V30 23751 H 2170.51 -0.84751 1.34175 0
M  V30 23752 H 2170.53 -3.56849 1.32056 0
M  V30 23753 H 2170.04 -2.60935 2.87289 0
M  V30 23754 H 2168.15 -3.66946 0.646645 0
M  V30 23755 H 2168.26 -4.09832 2.48142 0
M  V30 23756 H 2166.62 -2.2273 1.23545 0
M  V30 23757 H 2167.41 -1.88241 2.87089 0
M  V30 23758 N 2169.85 -1.00378 -1.21499 0
M  V30 23759 C 2171.13 -0.601329 -1.86127 0
M  V30 23760 C 2171.51 0.921083 -1.89945 0
M  V30 23761 O 2170.86 1.80753 -1.39787 0
M  V30 23762 C 2171.07 -1.2343 -3.26445 0
M  V30 23763 C 2172.41 -1.34165 -4.02846 0
M  V30 23764 O 2173.44 -1.18952 -3.35751 0
M  V30 23765 O 2172.3 -1.58622 -5.22973 0
M  V30 23766 H 2169.39 -0.205796 -0.800985 0
M  V30 23767 H 2171.94 -1.10035 -1.29192 0
M  V30 23768 H 2170.71 -2.27515 -3.18359 0
M  V30 23769 H 2170.33 -0.721556 -3.90998 0
M  V30 23770 N 2171.33 1.37038 -0.778354 0
M  V30 23771 C 2172.57 1.99823 -0.34619 0
M  V30 23772 C 2172.91 1.61643 1.07634 0
M  V30 23773 O 2172.18 0.865817 1.74166 0
M  V30 23774 C 2172.47 3.56649 -0.497307 0
M  V30 23775 C 2172.32 4.04718 -1.96273 0
M  V30 23776 C 2173.64 4.39999 0.0944148 0
M  V30 23777 H 2170.76 0.725929 -0.127262 0
M  V30 23778 H 2173.4 1.62617 -0.98263 0
M  V30 23779 H 2171.55 3.88475 0.0445004 0
M  V30 23780 H 2173.22 3.8343 -2.56475 0
M  V30 23781 H 2171.46 3.56667 -2.46924 0
M  V30 23782 H 2172.13 5.13732 -2.01949 0
M  V30 23783 H 2174.61 4.1447 -0.367956 0
M  V30 23784 H 2173.49 5.48884 -0.0414159 0
M  V30 23785 H 2173.75 4.25911 1.18542 0
M  V30 23786 N 2172.81 0.529439 1.48441 0
M  V30 23787 C 2174.06 -0.00685445 2.01699 0
M  V30 23788 C 2174.37 -1.35375 1.41184 0
M  V30 23789 O 2175.58 -1.97838 1.85937 0
M  V30 23790 C 2174.03 -0.0626135 3.59846 0
M  V30 23791 C 2173.64 1.27936 4.29344 0
M  V30 23792 C 2175.38 -0.547764 4.20951 0
M  V30 23793 C 2173.29 1.18421 5.79422 0
M  V30 23794 H 2172.22 -0.00633228 0.753973 0
M  V30 23795 H 2174.87 0.673137 1.70708 0
M  V30 23796 H 2173.25 -0.80767 3.87676 0
M  V30 23797 H 2174.43 2.03994 4.13187 0
M  V30 23798 H 2172.74 1.7002 3.80108 0
M  V30 23799 H 2175.34 -0.636907 5.30893 0
M  V30 23800 H 2175.68 -1.55341 3.86232 0
M  V30 23801 H 2176.22 0.141593 3.97548 0
M  V30 23802 H 2172.95 2.16499 6.18715 0
M  V30 23803 H 2172.47 0.464988 5.97995 0
M  V30 23804 H 2174.15 0.874656 6.41061 0
M  V30 23805 N 2174.29 -1.55364 0.264547 0
M  V30 23806 C 2175.22 -2.19475 -0.660544 0
M  V30 23807 C 2176.23 -1.17628 -1.1255 0
M  V30 23808 O 2177.42 -1.44407 -1.04923 0
M  V30 23809 C 2174.52 -2.79832 -1.91173 0
M  V30 23810 C 2173.69 -4.07269 -1.59533 0
M  V30 23811 C 2172.75 -4.51774 -2.6979 0
M  V30 23812 O 2171.78 -5.17776 -2.36425 0
M  V30 23813 N 2172.98 -4.2103 -3.99642 0
M  V30 23814 H 2175.74 -2.99491 -0.111888 0
M  V30 23815 H 2173.31 -1.61676 0.0852139 0
M  V30 23816 H 2175.3 -3.06555 -2.64209 0
M  V30 23817 H 2173.87 -2.03871 -2.36971 0
M  V30 23818 H 2173.09 -3.87948 -0.699303 0
M  V30 23819 H 2174.38 -4.9032 -1.35881 0
M  V30 23820 H 2173.77 -3.68079 -4.29575 0
M  V30 23821 H 2172.33 -4.52548 -4.69088 0
M  V30 23822 N 2175.76 0.00833021 -1.57598 0
M  V30 23823 C 2176.99 0.706123 -1.94478 0
M  V30 23824 C 2177.41 1.67768 -0.86599 0
M  V30 23825 O 2176.76 1.81834 0.155828 0
M  V30 23826 C 2176.81 1.44523 -3.31354 0
M  V30 23827 O 2176.54 0.512651 -4.3509 0
M  V30 23828 C 2178.04 2.2383 -3.82642 0
M  V30 23829 H 2175.26 0.197195 -0.64137 0
M  V30 23830 H 2177.8 -0.0403132 -2.0446 0
M  V30 23831 H 2175.96 2.14337 -3.22705 0
M  V30 23832 H 2176.37 1.03321 -5.14223 0
M  V30 23833 H 2177.84 2.71055 -4.80867 0
M  V30 23834 H 2178.32 3.06148 -3.14913 0
M  V30 23835 H 2178.93 1.59049 -3.94441 0
M  V30 23836 N 2177.24 1.55075 0.280956 0
M  V30 23837 C 2178.19 1.83796 1.34919 0
M  V30 23838 C 2179.18 0.696332 1.45052 0
M  V30 23839 O 2180.37 0.957483 1.48867 0
M  V30 23840 C 2177.5 2.10637 2.71085 0
M  V30 23841 C 2176.58 3.31037 2.65095 0
M  V30 23842 N 2176.97 4.51132 2.28722 0
M  V30 23843 C 2175.27 3.33467 2.96169 0
M  V30 23844 C 2175.97 5.33204 2.32527 0
M  V30 23845 N 2174.95 4.71414 2.70684 0
M  V30 23846 H 2178.75 2.74199 1.05793 0
M  V30 23847 H 2176.26 1.54845 0.48958 0
M  V30 23848 H 2178.26 2.29366 3.48134 0
M  V30 23849 H 2176.92 1.21513 3.01106 0
M  V30 23850 H 2177.93 4.77374 2.00835 0
M  V30 23851 H 2174.61 2.54512 3.30953 0
M  V30 23852 H 2176 6.39208 2.07034 0
M  V30 23853 N 2178.72 -0.545102 1.47873 0
M  V30 23854 C 2179.65 -1.6606 1.64153 0
M  V30 23855 C 2180.63 -1.62869 0.490679 0
M  V30 23856 O 2181.82 -1.80302 0.721451 0
M  V30 23857 C 2178.95 -3.04681 1.66694 0
M  V30 23858 C 2177.9 -3.22724 2.81128 0
M  V30 23859 C 2177.23 -4.62253 2.68749 0
M  V30 23860 C 2178.53 -3.06939 4.22594 0
M  V30 23861 H 2180.22 -1.52691 2.57538 0
M  V30 23862 H 2177.77 -0.733146 1.23939 0
M  V30 23863 H 2179.72 -3.82576 1.76674 0
M  V30 23864 H 2178.44 -3.19037 0.698781 0
M  V30 23865 H 2177.1 -2.47241 2.7068 0
M  V30 23866 H 2176.75 -4.73425 1.69935 0
M  V30 23867 H 2176.45 -4.75273 3.45527 0
M  V30 23868 H 2177.97 -5.42268 2.80674 0
M  V30 23869 H 2179.39 -3.7464 4.33956 0
M  V30 23870 H 2177.78 -3.31461 5.00253 0
M  V30 23871 H 2178.85 -2.03538 4.40114 0
M  V30 23872 N 2180.2 -1.36208 -0.792797 0
M  V30 23873 C 2181.47 -1.20801 -1.53839 0
M  V30 23874 C 2181.85 0.20722 -2.1008 0
M  V30 23875 O 2181.2 1.21244 -1.9368 0
M  V30 23876 C 2181.41 -2.28726 -2.63601 0
M  V30 23877 C 2182.76 -2.65225 -3.31573 0
M  V30 23878 O 2183.78 -2.27744 -2.73882 0
M  V30 23879 O 2182.64 -3.29724 -4.35826 0
M  V30 23880 H 2179.74 -0.470148 -0.68036 0
M  V30 23881 H 2182.28 -1.47929 -0.83157 0
M  V30 23882 H 2181.06 -3.2359 -2.20013 0
M  V30 23883 H 2180.68 -2.02945 -3.41905 0
M  V30 23884 N 2181.68 1.01656 -1.20431 0
M  V30 23885 C 2182.62 2.10198 -0.953184 0
M  V30 23886 C 2183.59 1.6569 0.116613 0
M  V30 23887 O 2184.78 1.90779 -0.0281152 0
M  V30 23888 C 2181.92 3.4129 -0.511397 0
M  V30 23889 C 2181.03 3.99275 -1.64935 0
M  V30 23890 C 2180.17 5.18427 -1.15787 0
M  V30 23891 C 2179.2 5.68496 -2.2689 0
M  V30 23892 N 2178.34 6.78909 -1.7896 0
M  V30 23893 H 2183.18 2.31015 -1.88245 0
M  V30 23894 H 2180.72 1.13288 -0.938314 0
M  V30 23895 H 2182.68 4.16529 -0.236575 0
M  V30 23896 H 2181.31 3.20545 0.380867 0
M  V30 23897 H 2180.36 3.21132 -2.03909 0
M  V30 23898 H 2181.67 4.32437 -2.48595 0
M  V30 23899 H 2180.82 6.00871 -0.839013 0
M  V30 23900 H 2179.56 4.8683 -0.291159 0
M  V30 23901 H 2178.57 4.84657 -2.59592 0
M  V30 23902 H 2179.79 6.02127 -3.14037 0
M  V30 23903 H 2177.74 6.49141 -0.946156 0
M  V30 23904 H 2177.66 7.11265 -2.562 0
M  V30 23905 H 2178.92 7.64917 -1.50074 0
M  V30 23906 N 2183.15 1.01021 1.20965 0
M  V30 23907 C 2184.39 0.704323 1.91882 0
M  V30 23908 C 2184.76 -0.751586 1.76678 0
M  V30 23909 O 2185.96 -1.16969 2.42016 0
M  V30 23910 C 2184.23 1.12016 3.39392 0
M  V30 23911 S 2185.79 0.935278 4.28717 0
M  V30 23912 H 2182.61 0.256971 0.662938 0
M  V30 23913 H 2185.21 1.29613 1.46359 0
M  V30 23914 H 2183.91 2.17579 3.47977 0
M  V30 23915 H 2183.44 0.520871 3.89937 0
M  V30 23916 H 2185.46 -0.164746 4.95926 0
M  V30 23917 N 2184.63 -1.36623 0.78561 0
M  V30 23918 C 2185.56 -2.27844 0.12738 0
M  V30 23919 C 2186.54 -1.47033 -0.694271 0
M  V30 23920 O 2187.73 -1.7634 -0.666068 0
M  V30 23921 C 2184.85 -3.28491 -0.825321 0
M  V30 23922 C 2183.9 -4.26413 -0.0859399 0
M  V30 23923 S 2184.73 -5.21048 1.23567 0
M  V30 23924 C 2185.89 -6.25242 0.286866 0
M  V30 23925 H 2186.12 -2.83323 0.900846 0
M  V30 23926 H 2183.65 -1.43106 0.579647 0
M  V30 23927 H 2185.61 -3.8698 -1.36955 0
M  V30 23928 H 2184.27 -2.71932 -1.572 0
M  V30 23929 H 2183.47 -4.9747 -0.808692 0
M  V30 23930 H 2183.07 -3.71985 0.387696 0
M  V30 23931 H 2185.36 -6.75379 -0.535691 0
M  V30 23932 H 2186.3 -7.0148 0.966003 0
M  V30 23933 H 2186.71 -5.64396 -0.108103 0
M  V30 23934 N 2186.11 -0.537304 -1.48158 0
M  V30 23935 C 2187.06 0.221446 -2.29735 0
M  V30 23936 C 2188.03 0.927005 -1.37825 0
M  V30 23937 O 2189.21 0.926601 -1.6679 0
M  V30 23938 C 2186.35 1.25789 -3.21358 0
M  V30 23939 C 2185.46 0.560427 -4.28349 0
M  V30 23940 C 2184.6 1.58043 -5.07145 0
M  V30 23941 C 2183.64 0.86684 -6.05931 0
M  V30 23942 N 2182.78 1.83273 -6.77758 0
M  V30 23943 H 2187.62 -0.480372 -2.94103 0
M  V30 23944 H 2185.15 -0.248729 -1.44982 0
M  V30 23945 H 2187.11 1.87117 -3.72885 0
M  V30 23946 H 2185.74 1.92799 -2.58898 0
M  V30 23947 H 2184.79 -0.166961 -3.80033 0
M  V30 23948 H 2186.1 0.000474239 -4.988 0
M  V30 23949 H 2185.26 2.2678 -5.62722 0
M  V30 23950 H 2184 2.17429 -4.3655 0
M  V30 23951 H 2183 0.165438 -5.49551 0
M  V30 23952 H 2184.23 0.278998 -6.78527 0
M  V30 23953 H 2182.17 2.41553 -6.09908 0
M  V30 23954 H 2182.09 1.32441 -7.44309 0
M  V30 23955 H 2183.36 2.51186 -7.3792 0
M  V30 23956 N 2187.59 1.55221 -0.272782 0
M  V30 23957 C 2188.52 2.25408 0.609392 0
M  V30 23958 C 2189.5 1.2434 1.16076 0
M  V30 23959 O 2190.68 1.53054 1.19533 0
M  V30 23960 C 2187.81 2.97338 1.79464 0
M  V30 23961 C 2186.77 4.05315 1.37491 0
M  V30 23962 C 2186.09 4.64808 2.64307 0
M  V30 23963 C 2187.39 5.19636 0.526828 0
M  V30 23964 H 2189.09 2.9939 0.0240678 0
M  V30 23965 H 2186.63 1.43996 0.0101357 0
M  V30 23966 H 2188.59 3.45149 2.41765 0
M  V30 23967 H 2187.31 2.20887 2.40576 0
M  V30 23968 H 2185.97 3.58312 0.775106 0
M  V30 23969 H 2185.62 3.85027 3.23672 0
M  V30 23970 H 2185.32 5.37713 2.36935 0
M  V30 23971 H 2186.84 5.15366 3.2746 0
M  V30 23972 H 2188.26 5.63513 1.05478 0
M  V30 23973 H 2186.65 5.9909 0.348095 0
M  V30 23974 H 2187.72 4.82761 -0.454948 0
M  V30 23975 N 2189.07 2.77022e-05 1.576 0
M  V30 23976 C 2190.3 -0.69479 1.94567 0
M  V30 23977 C 2190.7 -1.67836 0.873374 0
M  V30 23978 O 2190.05 -1.83034 -0.156298 0
M  V30 23979 C 2190.11 -1.48224 3.27521 0
M  V30 23980 C 2189.77 -0.660251 4.52205 0
M  V30 23981 C 2190.77 0.0520805 5.19874 0
M  V30 23982 C 2188.46 -0.606213 4.98628 0
M  V30 23983 C 2190.45 0.807435 6.32265 0
M  V30 23984 C 2188.14 0.152866 6.10909 0
M  V30 23985 C 2189.13 0.858424 6.77584 0
M  V30 23986 O 2188.82 1.60512 7.87713 0
M  V30 23987 H 2188.55 -0.198468 0.646209 0
M  V30 23988 H 2191.11 0.0472739 2.05346 0
M  V30 23989 H 2189.34 -2.26878 3.1315 0
M  V30 23990 H 2191.03 -2.0624 3.496 0
M  V30 23991 H 2191.79 0.0194852 4.84996 0
M  V30 23992 H 2187.67 -1.14492 4.46556 0
M  V30 23993 H 2191.22 1.35868 6.84241 0
M  V30 23994 H 2187.11 0.187282 6.45228 0
M  V30 23995 H 2187.88 1.52183 8.04228 0
M  V30 23996 N 2190.54 -1.55222 -0.272728 0
M  V30 23997 C 2191.49 -1.88121 -1.33713 0
M  V30 23998 C 2192.46 -0.732736 -1.49064 0
M  V30 23999 O 2193.65 -0.98403 -1.63467 0
M  V30 24000 C 2190.79 -2.15886 -2.69234 0
M  V30 24001 C 2189.9 -3.43404 -2.62102 0
M  V30 24002 C 2189.03 -3.60868 -3.89804 0
M  V30 24003 C 2188.07 -4.82077 -3.77184 0
M  V30 24004 N 2187.21 -4.96198 -4.96722 0
M  V30 24005 H 2192.05 -2.78905 -1.04957 0
M  V30 24006 H 2189.59 -1.38084 -0.507063 0
M  V30 24007 H 2191.55 -2.29984 -3.48085 0
M  V30 24008 H 2190.18 -1.28337 -2.96192 0
M  V30 24009 H 2189.23 -3.37776 -1.74961 0
M  V30 24010 H 2190.54 -4.3239 -2.48677 0
M  V30 24011 H 2189.69 -3.74785 -4.77096 0
M  V30 24012 H 2188.43 -2.70068 -4.06097 0
M  V30 24013 H 2187.44 -4.68164 -2.88276 0
M  V30 24014 H 2188.66 -5.74313 -3.62411 0
M  V30 24015 H 2186.61 -4.08328 -5.13424 0
M  V30 24016 H 2186.53 -5.7923 -4.85828 0
M  V30 24017 H 2187.79 -5.145 -5.85585 0
M  V30 24018 N 2192.02 0.537252 -1.4816 0
M  V30 24019 C 2193.25 1.31838 -1.59456 0
M  V30 24020 C 2193.67 1.87109 -0.252098 0
M  V30 24021 O 2193.02 1.66033 0.757592 0
M  V30 24022 C 2193.07 2.47434 -2.6355 0
M  V30 24023 O 2192.79 1.94443 -3.92586 0
M  V30 24024 C 2194.3 3.39361 -2.85218 0
M  V30 24025 H 2191.52 0.401186 -0.537858 0
M  V30 24026 H 2194.06 0.648857 -1.93933 0
M  V30 24027 H 2192.21 3.10286 -2.31952 0
M  V30 24028 H 2192.63 2.70056 -4.49633 0
M  V30 24029 H 2194.1 4.16838 -3.6187 0
M  V30 24030 H 2194.58 3.94144 -1.93772 0
M  V30 24031 H 2195.19 2.82308 -3.18091 0
M  V30 24032 N 2193.5 1.36626 0.785562 0
M  V30 24033 C 2194.43 1.33953 1.91256 0
M  V30 24034 C 2195.41 0.210355 1.68794 0
M  V30 24035 O 2196.6 0.408594 1.89853 0
M  V30 24036 C 2193.73 1.13191 3.28337 0
M  V30 24037 C 2192.68 2.22974 3.65331 0
M  V30 24038 C 2192.01 1.87351 5.00803 0
M  V30 24039 C 2193.31 3.65082 3.73514 0
M  V30 24040 H 2195 2.28257 1.93751 0
M  V30 24041 H 2192.55 1.09876 0.930768 0
M  V30 24042 H 2194.5 1.09955 4.06802 0
M  V30 24043 H 2193.22 0.15339 3.2624 0
M  V30 24044 H 2191.88 2.25342 2.89165 0
M  V30 24045 H 2191.53 0.880632 4.95231 0
M  V30 24046 H 2191.23 2.60855 5.26525 0
M  V30 24047 H 2192.75 1.85677 5.81684 0
M  V30 24048 H 2194.17 3.64919 4.42162 0
M  V30 24049 H 2192.57 4.37523 4.10723 0
M  V30 24050 H 2193.64 3.99708 2.7452 0
M  V30 24051 N 2194.98 -1.01016 1.20969 0
M  V30 24052 C 2196.2 -1.78837 1.05034 0
M  V30 24053 C 2196.63 -1.8389 -0.39572 0
M  V30 24054 O 2195.99 -1.2787 -1.28527 0
M  V30 24055 C 2196.03 -3.20837 1.64608 0
M  V30 24056 O 2195.14 -4.02725 0.888059 0
M  V30 24057 H 2194.48 -0.55136 0.369997 0
M  V30 24058 H 2197.01 -1.27015 1.60401 0
M  V30 24059 H 2197.02 -3.71529 1.68613 0
M  V30 24060 H 2195.69 -3.16474 2.69846 0
M  V30 24061 H 2194.27 -3.61304 0.922711 0
M  V30 24062 N 2196.46 -1.01661 -1.20428 0
M  V30 24063 C 2197.37 -0.596524 -2.26889 0
M  V30 24064 C 2198.38 0.365961 -1.70108 0
M  V30 24065 O 2199.56 0.226907 -2.00118 0
M  V30 24066 C 2196.62 0.058605 -3.4665 0
M  V30 24067 C 2195.68 -0.949824 -4.18661 0
M  V30 24068 C 2194.92 -0.325864 -5.32704 0
M  V30 24069 O 2195.14 0.87441 -5.63658 0
M  V30 24070 O 2194.07 -1.0426 -5.92801 0
M  V30 24071 H 2197.9 -1.48285 -2.65038 0
M  V30 24072 H 2195.49 -0.786105 -1.27046 0
M  V30 24073 H 2197.37 0.42449 -4.19257 0
M  V30 24074 H 2196.04 0.919125 -3.10377 0
M  V30 24075 H 2194.95 -1.36708 -3.48227 0
M  V30 24076 H 2196.28 -1.78031 -4.58875 0
M  V30 24077 N 2197.93 1.36205 -0.792844 0
M  V30 24078 C 2199.18 1.99445 -0.367365 0
M  V30 24079 C 2199.51 1.62776 1.05914 0
M  V30 24080 O 2198.79 0.884241 1.73238 0
M  V30 24081 C 2199.07 3.56102 -0.535107 0
M  V30 24082 C 2198.92 4.02614 -2.00555 0
M  V30 24083 C 2200.24 4.40074 0.0477417 0
M  V30 24084 H 2197.36 0.724539 -0.134954 0
M  V30 24085 H 2200 1.61566 -0.999822 0
M  V30 24086 H 2198.15 3.885 0.003295 0
M  V30 24087 H 2199.83 3.80688 -2.60527 0
M  V30 24088 H 2198.07 3.54028 -2.50693 0
M  V30 24089 H 2198.74 5.11561 -2.07386 0
M  V30 24090 H 2201.22 4.14056 -0.411895 0
M  V30 24091 H 2200.09 5.4881 -0.0996301 0
M  V30 24092 H 2200.35 4.27144 1.14018 0
M  V30 24093 N 2199.41 0.545154 1.47871 0
M  V30 24094 C 2200.36 -0.20926 2.29849 0
M  V30 24095 C 2201.33 -0.919683 1.38315 0
M  V30 24096 O 2202.51 -0.917743 1.67279 0
M  V30 24097 C 2199.65 -1.24083 3.22021 0
M  V30 24098 C 2198.77 -0.537702 4.28641 0
M  V30 24099 C 2197.9 -1.55351 5.07976 0
M  V30 24100 C 2196.94 -0.834694 6.06382 0
M  V30 24101 N 2196.08 -1.79676 6.7872 0
M  V30 24102 H 2200.92 0.495962 2.93844 0
M  V30 24103 H 2198.46 0.256415 1.44848 0
M  V30 24104 H 2200.41 -1.85137 3.73872 0
M  V30 24105 H 2199.04 -1.91424 2.59917 0
M  V30 24106 H 2198.1 0.187112 3.7994 0
M  V30 24107 H 2199.41 0.0259783 4.98793 0
M  V30 24108 H 2198.56 -2.23793 5.63916 0
M  V30 24109 H 2197.3 -2.1511 4.37697 0
M  V30 24110 H 2196.31 -0.136291 5.49631 0
M  V30 24111 H 2197.53 -0.24301 6.78665 0
M  V30 24112 H 2195.48 -2.38315 6.11181 0
M  V30 24113 H 2195.39 -1.28492 7.45001 0
M  V30 24114 H 2196.66 -2.47269 7.39242 0
M  V30 24115 N 2200.89 -1.55074 0.28101 0
M  V30 24116 C 2201.82 -2.25728 -0.597429 0
M  V30 24117 C 2202.8 -1.24954 -1.15415 0
M  V30 24118 O 2203.99 -1.53686 -1.1872 0
M  V30 24119 C 2201.12 -2.98286 -1.77884 0
M  V30 24120 C 2200.07 -4.06038 -1.35339 0
M  V30 24121 C 2199.4 -4.66203 -2.61838 0
M  V30 24122 C 2200.7 -5.19908 -0.499263 0
M  V30 24123 H 2202.39 -2.99399 -0.00819002 0
M  V30 24124 H 2199.94 -1.44 -0.00249909 0
M  V30 24125 H 2201.89 -3.46426 -2.39931 0
M  V30 24126 H 2200.61 -2.22159 -2.39401 0
M  V30 24127 H 2199.27 -3.58718 -0.756093 0
M  V30 24128 H 2198.92 -3.86738 -3.21625 0
M  V30 24129 H 2198.62 -5.38962 -2.3408 0
M  V30 24130 H 2200.14 -5.17095 -3.24723 0
M  V30 24131 H 2201.56 -5.64065 -1.02488 0
M  V30 24132 H 2199.96 -5.99266 -0.316319 0
M  V30 24133 H 2201.03 -4.82513 0.480544 0
M  V30 24134 N 2202.37 -0.00838561 -1.57598 0
M  V30 24135 C 2203.28 0.99645 -2.12387 0
M  V30 24136 C 2204.3 1.37125 -1.0711 0
M  V30 24137 O 2205.47 1.45688 -1.39058 0
M  V30 24138 C 2202.54 2.26694 -2.62318 0
M  V30 24139 C 2201.6 1.95449 -3.82228 0
M  V30 24140 C 2200.83 3.16441 -4.29768 0
M  V30 24141 O 2201.05 4.2841 -3.76592 0
M  V30 24142 O 2199.99 2.99949 -5.21837 0
M  V30 24143 H 2203.81 0.560673 -2.9848 0
M  V30 24144 H 2201.4 0.210961 -1.47903 0
M  V30 24145 H 2203.28 3.01317 -2.94594 0
M  V30 24146 H 2201.96 2.69494 -1.79318 0
M  V30 24147 H 2200.86 1.18275 -3.54911 0
M  V30 24148 H 2202.2 1.57481 -4.66327 0
M  V30 24149 N 2203.85 1.55365 0.264492 0
M  V30 24150 C 2205.09 1.76633 0.996429 0
M  V30 24151 C 2205.43 0.570511 1.85631 0
M  V30 24152 O 2204.7 -0.431717 1.89648 0
M  V30 24153 C 2204.98 3.07628 1.87182 0
M  V30 24154 C 2204.84 4.37581 1.0413 0
M  V30 24155 C 2206.16 3.34722 2.85743 0
M  V30 24156 H 2203.28 0.642628 0.36083 0
M  V30 24157 H 2205.92 1.88098 0.268185 0
M  V30 24158 H 2204.07 2.97985 2.49274 0
M  V30 24159 H 2205.74 4.59193 0.440436 0
M  V30 24160 H 2203.98 4.32426 0.345039 0
M  V30 24161 H 2204.65 5.25583 1.6872 0
M  V30 24162 H 2207.13 3.44214 2.33787 0
M  V30 24163 H 2206.01 4.27629 3.44129 0
M  V30 24164 H 2206.27 2.54775 3.61306 0
M  V30 24165 N 2205.33 -0.529387 1.48443 0
M  V30 24166 C 2206.24 -1.66081 1.65693 0
M  V30 24167 C 2207.25 -1.65426 0.539461 0
M  V30 24168 O 2208.43 -1.84367 0.810605 0
M  V30 24169 C 2205.49 -3.02542 1.69321 0
M  V30 24170 C 2204.55 -3.14047 2.927 0
M  V30 24171 C 2203.79 -4.43998 2.96144 0
M  V30 24172 O 2204.01 -5.31131 2.07982 0
M  V30 24173 O 2202.94 -4.59881 3.8832 0
M  V30 24174 H 2206.77 -1.54464 2.61485 0
M  V30 24175 H 2204.35 -0.702544 1.31851 0
M  V30 24176 H 2206.24 -3.83698 1.74224 0
M  V30 24177 H 2204.91 -3.14481 0.767022 0
M  V30 24178 H 2203.82 -2.32184 2.93328 0
M  V30 24179 H 2205.15 -3.07023 3.84704 0
M  V30 24180 N 2206.8 -1.37041 -0.778305 0
M  V30 24181 C 2208.03 -1.35066 -1.56731 0
M  V30 24182 C 2208.45 0.0655266 -1.88686 0
M  V30 24183 O 2207.8 1.02552 -1.50962 0
M  V30 24184 C 2207.85 -2.18281 -2.88159 0
M  V30 24185 O 2207.58 -3.54381 -2.57577 0
M  V30 24186 C 2209.08 -2.24212 -3.82418 0
M  V30 24187 H 2206.3 -0.462891 -0.48577 0
M  V30 24188 H 2208.84 -1.80292 -0.965154 0
M  V30 24189 H 2207 -1.76582 -3.44815 0
M  V30 24190 H 2207.41 -3.97928 -3.41692 0
M  V30 24191 H 2208.88 -2.86774 -4.71662 0
M  V30 24192 H 2209.36 -1.24869 -4.21075 0
M  V30 24193 H 2209.97 -2.66196 -3.31693 0
M  V30 24194 N 2208.28 1.00373 -1.21503 0
M  V30 24195 C 2209.53 1.74427 -1.03456 0
M  V30 24196 C 2209.86 1.89363 0.430731 0
M  V30 24197 O 2209.14 1.42888 1.31959 0
M  V30 24198 C 2209.42 3.15612 -1.73381 0
M  V30 24199 C 2209.27 3.08391 -3.27437 0
M  V30 24200 C 2210.59 4.14561 -1.47739 0
M  V30 24201 H 2207.71 0.633136 -0.377237 0
M  V30 24202 H 2210.35 1.1701 -1.49695 0
M  V30 24203 H 2208.5 3.64633 -1.3407 0
M  V30 24204 H 2210.17 2.67075 -3.76123 0
M  V30 24205 H 2208.42 2.45462 -3.57674 0
M  V30 24206 H 2209.09 4.08251 -3.71531 0
M  V30 24207 H 2211.56 3.74251 -1.81866 0
M  V30 24208 H 2210.44 5.11488 -1.99178 0
M  V30 24209 H 2210.7 4.40216 -0.407666 0
M  V30 24210 N 2209.76 1.02298 1.19887 0
M  V30 24211 C 2211.01 0.71129 1.88742 0
M  V30 24212 C 2211.32 -0.762785 1.80114 0
M  V30 24213 O 2212.53 -1.18729 2.44163 0
M  V30 24214 C 2210.98 1.22191 3.38522 0
M  V30 24215 C 2210.59 2.72334 3.55722 0
M  V30 24216 C 2212.34 0.985936 4.12892 0
M  V30 24217 C 2210.24 3.16844 4.99363 0
M  V30 24218 H 2209.17 0.262365 0.706881 0
M  V30 24219 H 2211.82 1.2365 1.35583 0
M  V30 24220 H 2210.21 0.62464 3.91043 0
M  V30 24221 H 2211.38 3.37665 3.13558 0
M  V30 24222 H 2209.69 2.94145 2.94733 0
M  V30 24223 H 2212.29 1.29383 5.1881 0
M  V30 24224 H 2212.63 -0.0774323 4.16228 0
M  V30 24225 H 2213.17 1.5469 3.66491 0
M  V30 24226 H 2209.91 4.22485 5.01186 0
M  V30 24227 H 2209.43 2.56237 5.42312 0
M  V30 24228 H 2211.11 3.09847 5.67982 0
M  V30 24229 N 2211.24 -1.35782 0.800057 0
M  V30 24230 C 2212.18 -2.29898 0.203888 0
M  V30 24231 C 2213.15 -1.52496 -0.658348 0
M  V30 24232 O 2214.34 -1.80961 -0.6048 0
M  V30 24233 C 2211.48 -3.38984 -0.64682 0
M  V30 24234 C 2210.59 -4.3136 0.23513 0
M  V30 24235 C 2209.73 -5.27534 -0.622961 0
M  V30 24236 C 2208.77 -6.11548 0.25979 0
M  V30 24237 N 2207.9 -6.9988 -0.557896 0
M  V30 24238 H 2212.74 -2.80294 1.01191 0
M  V30 24239 H 2210.28 -1.37956 0.510554 0
M  V30 24240 H 2212.24 -4.00889 -1.15514 0
M  V30 24241 H 2210.87 -2.89881 -1.42016 0
M  V30 24242 H 2209.92 -3.70516 0.861504 0
M  V30 24243 H 2211.23 -4.90339 0.914854 0
M  V30 24244 H 2210.39 -5.94781 -1.19667 0
M  V30 24245 H 2209.13 -4.69036 -1.33628 0
M  V30 24246 H 2208.13 -5.43255 0.845822 0
M  V30 24247 H 2209.36 -6.72124 0.970866 0
M  V30 24248 H 2207.3 -6.43877 -1.2553 0
M  V30 24249 H 2207.22 -7.55973 0.06392 0
M  V30 24250 H 2208.49 -7.71483 -1.11509 0
M  V30 24251 N 2212.72 -0.552988 -1.4758 0
M  V30 24252 C 2213.94 -0.0320919 -2.06875 0
M  V30 24253 C 2214.36 1.25974 -1.40627 0
M  V30 24254 O 2213.72 1.75478 -0.50138 0
M  V30 24255 C 2213.77 0.171607 -3.61092 0
M  V30 24256 O 2213.49 -1.06906 -4.24856 0
M  V30 24257 C 2214.99 0.730267 -4.37244 0
M  V30 24258 H 2212.21 -0.0439268 -0.669561 0
M  V30 24259 H 2214.75 -0.765196 -1.89644 0
M  V30 24260 H 2212.91 0.854827 -3.77851 0
M  V30 24261 H 2213.32 -0.86415 -5.17332 0
M  V30 24262 H 2214.8 0.822107 -5.45844 0
M  V30 24263 H 2215.27 1.74057 -4.03238 0
M  V30 24264 H 2215.88 0.0828795 -4.25219 0
M  V30 24265 N 2214.19 1.54923 -0.28923 0
M  V30 24266 C 2215.44 1.99505 0.322844 0
M  V30 24267 C 2215.76 1.17913 1.55311 0
M  V30 24268 O 2215.03 0.272131 1.94001 0
M  V30 24269 H 2213.61 0.736924 0.122278 0
M  V30 24270 H 2216.27 1.90796 -0.397836 0
M  V30 24271 H 2215.37 3.06219 0.603007 0
M  V30 24272 N 2215.67 0.0167433 1.57591 0
M  V30 24273 C 2217.09 -0.339529 1.55947 0
M  V30 24274 C 2217.29 -1.73711 1.02112 0
M  V30 24275 O 2216.34 -2.43658 0.662345 0
M  V30 24276 C 2217.66 -0.199446 3.00038 0
M  V30 24277 C 2219.2 -0.273139 3.11806 0
M  V30 24278 C 2219.68 -0.161988 4.57713 0
M  V30 24279 N 2221.17 -0.219363 4.6268 0
M  V30 24280 C 2221.91 -0.156954 5.73185 0
M  V30 24281 N 2221.4 -0.0441718 6.92786 0
M  V30 24282 N 2223.19 -0.210041 5.61707 0
M  V30 24283 H 2215.35 0.930792 1.90919 0
M  V30 24284 H 2217.61 0.358334 0.877668 0
M  V30 24285 H 2217.31 0.76279 3.43328 0
M  V30 24286 H 2217.19 -0.974722 3.64389 0
M  V30 24287 H 2219.58 -1.22583 2.68435 0
M  V30 24288 H 2219.66 0.5323 2.502 0
M  V30 24289 H 2219.3 0.787228 5.01762 0
M  V30 24290 H 2219.23 -0.986131 5.17284 0
M  V30 24291 H 2221.72 -0.30718 3.76649 0
M  V30 24292 H 2222.03 -0.00290485 7.728 0
M  V30 24293 H 2220.38 -0.00956241 6.94999 0
M  V30 24294 H 2223.57 -0.296464 4.6716 0
M  V30 24295 H 2223.74 -0.15794 6.47807 0
M  V30 24296 N 2217.15 -1.55503 -0.256249 0
M  V30 24297 C 2218.1 -1.85919 -1.31978 0
M  V30 24298 C 2219.08 -0.719321 -1.43926 0
M  V30 24299 O 2220.28 -0.981045 -1.47325 0
M  V30 24300 C 2217.41 -2.14923 -2.677 0
M  V30 24301 C 2216.49 -3.35213 -2.59795 0
M  V30 24302 N 2216.88 -4.54713 -2.21516 0
M  V30 24303 C 2215.18 -3.38136 -2.90826 0
M  V30 24304 C 2215.88 -5.36836 -2.24014 0
M  V30 24305 N 2214.86 -4.75661 -2.6315 0
M  V30 24306 H 2218.66 -2.75847 -1.01418 0
M  V30 24307 H 2216.17 -1.55604 -0.464884 0
M  V30 24308 H 2218.17 -2.34875 -3.44441 0
M  V30 24309 H 2216.83 -1.26288 -2.99135 0
M  V30 24310 H 2217.84 -4.80509 -1.93215 0
M  V30 24311 H 2214.52 -2.59745 -3.26862 0
M  V30 24312 H 2215.91 -6.42421 -1.96839 0
M  V30 24313 N 2218.63 0.521507 -1.48721 0
M  V30 24314 C 2219.88 1.27339 -1.56422 0
M  V30 24315 C 2220.19 1.94036 -0.246839 0
M  V30 24316 O 2221.4 2.70746 -0.20217 0
M  V30 24317 C 2219.85 2.311 -2.759 0
M  V30 24318 C 2219.46 1.70433 -4.14314 0
M  V30 24319 C 2221.2 3.07244 -2.92919 0
M  V30 24320 C 2219.11 2.72185 -5.25042 0
M  V30 24321 H 2218.04 0.478938 -0.582352 0
M  V30 24322 H 2220.69 0.549748 -1.75071 0
M  V30 24323 H 2219.07 3.06536 -2.50702 0
M  V30 24324 H 2220.25 1.01128 -4.49566 0
M  V30 24325 H 2218.56 1.06752 -4.02484 0
M  V30 24326 H 2221.16 3.83296 -3.72812 0
M  V30 24327 H 2221.5 3.63621 -2.02695 0
M  V30 24328 H 2222.04 2.38922 -3.18058 0
M  V30 24329 H 2218.78 2.20616 -6.17259 0
M  V30 24330 H 2218.3 3.39792 -4.94269 0
M  V30 24331 H 2219.97 3.35009 -5.53514 0
M  V30 24332 N 2220.11 1.37452 0.771027 0
M  V30 24333 C 2221.35 1.32896 1.53187 0
M  V30 24334 C 2221.69 -0.086217 1.94009 0
M  V30 24335 O 2220.96 -1.0437 1.64125 0
M  V30 24336 C 2221.24 2.26873 2.79644 0
M  V30 24337 C 2221.1 3.77173 2.45072 0
M  V30 24338 C 2222.42 2.19284 3.81579 0
M  V30 24339 H 2219.53 0.484074 0.555735 0
M  V30 24340 H 2222.18 1.68158 0.884463 0
M  V30 24341 H 2220.33 1.96932 3.34888 0
M  V30 24342 H 2222 4.17714 1.95737 0
M  V30 24343 H 2220.24 3.95707 1.7776 0
M  V30 24344 H 2220.91 4.38365 3.3547 0
M  V30 24345 H 2223.39 2.45677 3.3583 0
M  V30 24346 H 2222.26 2.87179 4.67782 0
M  V30 24347 H 2222.53 1.18599 4.25895 0
M  V30 24348 N 2221.58 -0.997276 1.22033 0
M  V30 24349 C 2222.52 -2.08844 0.944299 0
M  V30 24350 C 2223.53 -1.62625 -0.0754377 0
M  V30 24351 O 2224.72 -1.77799 0.158026 0
M  V30 24352 C 2221.82 -3.36557 0.397782 0
M  V30 24353 C 2220.99 -4.11826 1.4737 0
M  V30 24354 C 2220.05 -5.17826 0.935042 0
M  V30 24355 O 2219.08 -5.45652 1.62025 0
M  V30 24356 N 2220.28 -5.79979 -0.245793 0
M  V30 24357 H 2223.04 -2.33105 1.88367 0
M  V30 24358 H 2220.6 -1.1627 1.12663 0
M  V30 24359 H 2222.6 -4.04694 0.0228482 0
M  V30 24360 H 2221.17 -3.09393 -0.446592 0
M  V30 24361 H 2220.39 -3.38383 2.02214 0
M  V30 24362 H 2221.67 -4.58887 2.19772 0
M  V30 24363 H 2221.07 -5.59734 -0.819377 0
M  V30 24364 H 2219.63 -6.49371 -0.562158 0
M  V30 24365 N 2223.06 -1.02932 -1.19343 0
M  V30 24366 C 2224.01 -0.610503 -2.22579 0
M  V30 24367 C 2224.98 0.375917 -1.6179 0
M  V30 24368 O 2226.16 0.272478 -1.88844 0
M  V30 24369 C 2223.3 0.0320867 -3.45085 0
M  V30 24370 C 2222.42 -1.00043 -4.20256 0
M  V30 24371 C 2221.55 -0.327553 -5.30189 0
M  V30 24372 C 2220.59 -1.34595 -5.97119 0
M  V30 24373 N 2219.73 -0.698849 -6.98613 0
M  V30 24374 H 2224.57 -1.49542 -2.57762 0
M  V30 24375 H 2222.11 -0.748333 -1.26643 0
M  V30 24376 H 2224.06 0.421893 -4.15061 0
M  V30 24377 H 2222.69 0.880585 -3.10557 0
M  V30 24378 H 2221.75 -1.50829 -3.4922 0
M  V30 24379 H 2223.06 -1.77441 -4.66172 0
M  V30 24380 H 2222.21 0.117073 -6.06587 0
M  V30 24381 H 2220.95 0.478627 -4.85346 0
M  V30 24382 H 2219.96 -1.80083 -5.19471 0
M  V30 24383 H 2221.18 -2.15363 -6.44046 0
M  V30 24384 H 2219.13 0.0872318 -6.55942 0
M  V30 24385 H 2219.04 -1.41071 -7.42721 0
M  V30 24386 H 2220.31 -0.278239 -7.79003 0
M  V30 24387 N 2224.54 1.35356 -0.807246 0
M  V30 24388 C 2225.47 2.28525 -0.175758 0
M  V30 24389 C 2226.49 1.50311 0.625328 0
M  V30 24390 O 2227.67 1.72535 0.45758 0
M  V30 24391 C 2224.77 3.29957 0.773413 0
M  V30 24392 C 2223.95 4.37396 0.0185527 0
M  V30 24393 C 2223.01 5.18682 0.886304 0
M  V30 24394 O 2222.03 5.68201 0.337006 0
M  V30 24395 N 2223.23 5.36856 2.20829 0
M  V30 24396 H 2226 2.83358 -0.976141 0
M  V30 24397 H 2223.56 1.47713 -0.662763 0
M  V30 24398 H 2225.55 3.81229 1.35817 0
M  V30 24399 H 2224.12 2.75634 1.4746 0
M  V30 24400 H 2223.34 3.87049 -0.747417 0
M  V30 24401 H 2224.63 5.06321 -0.501666 0
M  V30 24402 H 2224.03 4.9827 2.6785 0
M  V30 24403 H 2222.59 5.91306 2.74227 0
M  V30 24404 N 2226.02 0.560807 1.47284 0
M  V30 24405 C 2226.95 -0.222398 2.28118 0
M  V30 24406 C 2227.96 -0.876032 1.37221 0
M  V30 24407 O 2229.15 -0.749279 1.62013 0
M  V30 24408 C 2226.25 -1.33279 3.11592 0
M  V30 24409 C 2225.43 -0.775265 4.30475 0
M  V30 24410 C 2224.48 -1.7706 4.95516 0
M  V30 24411 O 2223.51 -1.31529 5.53795 0
M  V30 24412 N 2224.71 -3.10409 4.90537 0
M  V30 24413 H 2227.48 0.47101 2.95976 0
M  V30 24414 H 2225.04 0.397118 1.56954 0
M  V30 24415 H 2227.03 -1.99746 3.51971 0
M  V30 24416 H 2225.6 -1.92938 2.45954 0
M  V30 24417 H 2224.82 0.0662805 3.94144 0
M  V30 24418 H 2226.11 -0.382182 5.07363 0
M  V30 24419 H 2225.51 -3.50042 4.44395 0
M  V30 24420 H 2224.06 -3.72425 5.34923 0
M  V30 24421 N 2227.5 -1.54768 0.297442 0
M  V30 24422 C 2228.72 -2.04479 -0.315587 0
M  V30 24423 C 2229.14 -1.17489 -1.4779 0
M  V30 24424 O 2228.5 -0.199742 -1.81404 0
M  V30 24425 C 2228.55 -3.5309 -0.775238 0
M  V30 24426 O 2228.27 -4.36772 0.340808 0
M  V30 24427 C 2229.77 -4.18784 -1.45379 0
M  V30 24428 H 2226.99 -0.667435 -0.0690769 0
M  V30 24429 H 2229.53 -1.99797 0.436038 0
M  V30 24430 H 2227.69 -3.58143 -1.47689 0
M  V30 24431 H 2228.1 -5.24497 -0.0164113 0
M  V30 24432 H 2229.58 -5.24302 -1.7266 0
M  V30 24433 H 2230.05 -3.68303 -2.39268 0
M  V30 24434 H 2230.66 -4.17796 -0.795401 0
M  V30 24435 N 2228.97 -0.0251005 -1.5758 0
M  V30 24436 C 2230.25 0.692841 -1.82918 0
M  V30 24437 C 2230.63 1.90566 -0.90817 0
M  V30 24438 O 2229.98 2.2847 0.0371897 0
M  V30 24439 C 2230.19 1.07486 -3.32036 0
M  V30 24440 C 2231.54 1.46819 -3.98408 0
M  V30 24441 O 2232.56 1.16796 -3.36507 0
M  V30 24442 O 2231.42 2.02745 -5.07501 0
M  V30 24443 H 2228.51 0.339537 -0.754085 0
M  V30 24444 H 2231.06 -0.0524754 -1.69619 0
M  V30 24445 H 2229.83 0.211483 -3.90728 0
M  V30 24446 H 2229.46 1.87848 -3.50427 0
M  V30 24447 N 2230.45 1.55637 0.247999 0
M  V30 24448 C 2231.4 1.91047 1.3268 0
M  V30 24449 C 2232.39 0.789427 1.49881 0
M  V30 24450 O 2233.6 0.974034 1.51369 0
M  V30 24451 H 2229.98 0.606742 0.444261 0
M  V30 24452 H 2231.95 2.81117 1.0008 0
M  V30 24453 C 2230.7 2.22069 2.67546 0
M  V30 24454 H 2230.02 3.0783 2.55109 0
M  V30 24455 H 2231.46 2.50749 3.41908 0
M  V30 24456 C 2229.92 1.03666 3.20554 0
M  V30 24457 O 2230.45 0.284086 4.00694 0
M  V30 24458 N 2228.65 0.827579 2.78567 0
M  V30 24459 H 2228.2 1.44127 2.13507 0
M  V30 24460 H 2228.16 0.0370356 3.14378 0
M  V30 24461 N 2231.93 -0.513613 1.48996 0
M  V30 24462 C 2233.34 -1.09534 1.51192 0
M  V30 24463 C 2233.69 -1.94031 0.29094 0
M  V30 24464 O 2232.82 -2.07903 -0.600453 0
M  V30 24465 C 2233.41 -1.99317 2.73967 0
M  V30 24466 C 2231.97 -2.52677 2.78983 0
M  V30 24467 C 2231.12 -1.30005 2.44937 0
M  V30 24468 H 2234.07 -0.298098 1.55875 0
M  V30 24469 H 2234.09 -2.83834 2.53414 0
M  V30 24470 H 2233.6 -1.37792 3.62815 0
M  V30 24471 H 2231.7 -3.17877 1.94383 0
M  V30 24472 H 2231.82 -2.90692 3.80835 0
M  V30 24473 H 2230.18 -1.62118 1.96443 0
M  V30 24474 H 2230.96 -0.702072 3.36044 0
M  V30 24475 N 2233.41 -1.37859 -0.763727 0
M  V30 24476 C 2234.36 -1.34271 -1.87723 0
M  V30 24477 C 2235.33 -0.206908 -1.64806 0
M  V30 24478 O 2236.51 -0.397541 -1.86613 0
M  V30 24479 C 2233.65 -1.16352 -3.24894 0
M  V30 24480 C 2232.76 -2.39231 -3.59711 0
M  V30 24481 C 2231.9 -2.14122 -4.86133 0
M  V30 24482 C 2230.94 -3.32826 -5.13705 0
M  V30 24483 N 2230.08 -3.07217 -6.31318 0
M  V30 24484 H 2234.92 -2.2947 -1.90125 0
M  V30 24485 H 2232.45 -1.14019 -0.929412 0
M  V30 24486 H 2234.41 -1.03982 -4.04034 0
M  V30 24487 H 2233.04 -0.247965 -3.21846 0
M  V30 24488 H 2232.09 -2.62312 -2.75494 0
M  V30 24489 H 2233.4 -3.27734 -3.76021 0
M  V30 24490 H 2232.56 -1.9883 -5.73194 0
M  V30 24491 H 2231.3 -1.22969 -4.71943 0
M  V30 24492 H 2230.3 -3.48649 -4.25116 0
M  V30 24493 H 2231.53 -4.24841 -5.29799 0
M  V30 24494 H 2229.47 -2.18701 -6.18471 0
M  V30 24495 H 2229.39 -3.89265 -6.48081 0
M  V30 24496 H 2230.66 -2.95558 -7.21294 0
M  V30 24497 N 2234.89 0.990791 -1.22561 0
M  V30 24498 C 2236.14 1.72722 -1.04936 0
M  V30 24499 C 2236.46 1.90508 0.416125 0
M  V30 24500 O 2235.73 1.46624 1.29916 0
M  V30 24501 H 2234.31 0.639959 -0.385308 0
M  V30 24502 H 2236.97 1.19319 -1.54107 0
M  V30 24503 H 2236.06 2.72086 -1.52891 0
M  V30 24504 N 2236.37 1.03564 1.18795 0
M  V30 24505 C 2237.3 0.566798 2.21049 0
M  V30 24506 C 2238.28 -0.395965 1.57705 0
M  V30 24507 O 2239.46 -0.311465 1.85909 0
M  V30 24508 C 2236.59 -0.172644 3.3826 0
M  V30 24509 C 2235.63 0.742594 4.19985 0
M  V30 24510 S 2236.47 2.22263 4.87195 0
M  V30 24511 C 2237.62 1.49389 6.07811 0
M  V30 24512 H 2237.86 1.43317 2.60476 0
M  V30 24513 H 2235.39 0.846156 1.29149 0
M  V30 24514 H 2237.35 -0.59312 4.06192 0
M  V30 24515 H 2236.01 -1.01483 2.97254 0
M  V30 24516 H 2235.2 0.171354 5.03709 0
M  V30 24517 H 2234.8 1.10169 3.57406 0
M  V30 24518 H 2237.09 0.784175 6.72946 0
M  V30 24519 H 2238.04 2.30798 6.69431 0
M  V30 24520 H 2238.45 0.988428 5.55779 0
M  V30 24521 N 2237.84 -1.34926 0.814413 0
M  V30 24522 C 2239.12 -1.92941 0.321397 0
M  V30 24523 C 2239.5 -1.74355 -1.19011 0
M  V30 24524 O 2238.85 -1.1172 -1.99326 0
M  V30 24525 C 2239.06 -3.41034 0.741383 0
M  V30 24526 C 2240.41 -4.18184 0.73534 0
M  V30 24527 O 2241.43 -3.49582 0.683422 0
M  V30 24528 O 2240.29 -5.40601 0.800798 0
M  V30 24529 H 2237.38 -0.822526 0.0859038 0
M  V30 24530 H 2239.93 -1.43954 0.898634 0
M  V30 24531 H 2238.7 -3.48326 1.78282 0
M  V30 24532 H 2238.32 -3.97356 0.139377 0
M  V30 24533 N 2239.32 -0.56861 -1.46985 0
M  V30 24534 C 2240.23 0.175509 -2.33943 0
M  V30 24535 C 2241.25 0.900383 -1.48893 0
M  V30 24536 O 2242.42 0.866728 -1.81796 0
M  V30 24537 C 2239.49 1.18518 -3.25813 0
M  V30 24538 C 2238.55 0.466507 -4.26758 0
M  V30 24539 C 2237.78 1.42808 -5.14239 0
M  V30 24540 O 2238.01 2.6637 -5.04384 0
M  V30 24541 O 2236.94 0.946349 -5.94414 0
M  V30 24542 H 2240.77 -0.538089 -2.98895 0
M  V30 24543 H 2238.35 -0.329122 -1.4573 0
M  V30 24544 H 2240.23 1.76773 -3.8253 0
M  V30 24545 H 2238.91 1.8805 -2.63475 0
M  V30 24546 H 2237.81 -0.157517 -3.73768 0
M  V30 24547 H 2239.15 -0.187571 -4.91842 0
M  V30 24548 N 2240.8 1.54608 -0.305646 0
M  V30 24549 C 2241.73 2.2115 0.602122 0
M  V30 24550 C 2242.74 1.20571 1.09392 0
M  V30 24551 O 2243.93 1.47138 1.01057 0
M  V30 24552 C 2241.03 2.84802 1.83687 0
M  V30 24553 C 2240.21 4.11356 1.48678 0
M  V30 24554 C 2239.27 4.58768 2.57717 0
M  V30 24555 O 2238.29 5.23862 2.22614 0
M  V30 24556 N 2239.49 4.31478 3.88339 0
M  V30 24557 H 2242.26 2.99682 0.0324439 0
M  V30 24558 H 2239.82 1.61393 -0.128049 0
M  V30 24559 H 2241.81 3.13452 2.55988 0
M  V30 24560 H 2240.38 2.10082 2.31483 0
M  V30 24561 H 2239.6 3.89665 0.5962 0
M  V30 24562 H 2240.89 4.9375 1.22833 0
M  V30 24563 H 2240.29 3.79339 4.19665 0
M  V30 24564 H 2238.84 4.64826 4.56924 0
M  V30 24565 N 2242.28 0.033457 1.57564 0
M  V30 24566 C 2243.21 -0.945228 2.13513 0
M  V30 24567 C 2244.19 -1.33642 1.05233 0
M  V30 24568 O 2245.37 -1.41427 1.33087 0
M  V30 24569 C 2242.5 -2.22611 2.66574 0
M  V30 24570 C 2241.46 -1.97554 3.79679 0
M  V30 24571 C 2240.78 -3.31945 4.19186 0
M  V30 24572 C 2242.08 -1.31126 5.05572 0
M  V30 24573 H 2243.78 -0.479273 2.95539 0
M  V30 24574 H 2241.32 -0.22909 1.42166 0
M  V30 24575 H 2243.28 -2.91461 3.04349 0
M  V30 24576 H 2242 -2.7138 1.81715 0
M  V30 24577 H 2240.66 -1.31121 3.42349 0
M  V30 24578 H 2240.31 -3.78481 3.31302 0
M  V30 24579 H 2240.01 -3.15983 4.95407 0
M  V30 24580 H 2241.53 -4.02055 4.59548 0
M  V30 24581 H 2242.95 -1.89982 5.40906 0
M  V30 24582 H 2241.34 -1.25548 5.8682 0
M  V30 24583 H 2242.41 -0.284809 4.84063 0
M  V30 24584 N 2243.76 -1.55766 -0.239741 0
M  V30 24585 C 2244.98 -1.81995 -0.984138 0
M  V30 24586 C 2245.4 -0.610156 -1.78669 0
M  V30 24587 O 2244.76 0.42124 -1.77572 0
M  V30 24588 C 2244.81 -3.0653 -1.91629 0
M  V30 24589 O 2244.53 -4.2284 -1.14621 0
M  V30 24590 C 2246.03 -3.45612 -2.77609 0
M  V30 24591 H 2243.25 -0.605446 -0.289269 0
M  V30 24592 H 2245.79 -2.02835 -0.260464 0
M  V30 24593 H 2243.95 -2.87719 -2.59415 0
M  V30 24594 H 2244.36 -4.93467 -1.77736 0
M  V30 24595 H 2245.84 -4.35834 -3.38751 0
M  V30 24596 H 2246.31 -2.66526 -3.49086 0
M  V30 24597 H 2246.92 -3.66798 -2.15265 0
M  V30 24598 N 2245.23 0.505704 -1.49266 0
M  V30 24599 C 2246.46 1.28899 -1.6248 0
M  V30 24600 C 2246.88 1.85782 -0.294365 0
M  V30 24601 O 2246.24 1.65627 0.737383 0
M  V30 24602 C 2246.29 2.39843 -2.69273 0
M  V30 24603 O 2245.39 3.43563 -2.28119 0
M  V30 24604 H 2244.73 0.380741 -0.543996 0
M  V30 24605 H 2247.26 0.605918 -1.95422 0
M  V30 24606 H 2247.27 2.85676 -2.91296 0
M  V30 24607 H 2245.95 1.97806 -3.65849 0
M  V30 24608 H 2244.53 3.03682 -2.16407 0
M  V30 24609 N 2246.71 1.38262 0.756405 0
M  V30 24610 C 2247.64 1.37979 1.88372 0
M  V30 24611 C 2248.62 0.246111 1.6831 0
M  V30 24612 O 2249.81 0.448773 1.88944 0
M  V30 24613 C 2246.94 1.2013 3.25862 0
M  V30 24614 C 2245.89 2.30673 3.60519 0
M  V30 24615 C 2245.22 1.97932 4.96716 0
M  V30 24616 C 2246.52 3.72923 3.65686 0
M  V30 24617 H 2248.21 2.32315 1.88865 0
M  V30 24618 H 2245.76 1.11825 0.907253 0
M  V30 24619 H 2247.71 1.18559 4.04378 0
M  V30 24620 H 2246.44 0.222555 3.25841 0
M  V30 24621 H 2245.09 2.31425 2.8432 0
M  V30 24622 H 2244.74 0.98548 4.93252 0
M  V30 24623 H 2244.44 2.71965 5.20873 0
M  V30 24624 H 2245.97 1.97974 5.77615 0
M  V30 24625 H 2247.38 3.74216 4.34322 0
M  V30 24626 H 2245.78 4.46137 4.0135 0
M  V30 24627 H 2246.85 4.05441 2.6598 0
M  V30 24628 N 2248.19 -0.984277 1.23084 0
M  V30 24629 C 2249.14 -2.07597 1.00858 0
M  V30 24630 C 2250.11 -1.65941 -0.0726418 0
M  V30 24631 O 2251.29 -1.90638 0.078687 0
M  V30 24632 C 2248.43 -3.39814 0.601704 0
M  V30 24633 C 2247.55 -3.94762 1.75463 0
M  V30 24634 C 2246.68 -5.15175 1.29491 0
M  V30 24635 C 2245.72 -5.6228 2.41883 0
M  V30 24636 N 2244.86 -6.73926 1.96897 0
M  V30 24637 H 2249.7 -2.25943 1.94303 0
M  V30 24638 H 2247.23 -1.1076 0.968021 0
M  V30 24639 H 2249.19 -4.15755 0.346927 0
M  V30 24640 H 2247.82 -3.21442 -0.295746 0
M  V30 24641 H 2246.87 -3.15612 2.12351 0
M  V30 24642 H 2248.19 -4.25694 2.59973 0
M  V30 24643 H 2247.34 -5.98435 0.998029 0
M  V30 24644 H 2246.08 -4.85887 0.420131 0
M  V30 24645 H 2245.08 -4.77604 2.7235 0
M  V30 24646 H 2246.31 -5.93589 3.29891 0
M  V30 24647 H 2244.25 -6.46404 1.11793 0
M  V30 24648 H 2244.17 -7.04222 2.74968 0
M  V30 24649 H 2245.44 -7.60669 1.70302 0
M  V30 24650 N 2249.67 -1.04192 -1.18244 0
M  V30 24651 C 2250.91 -0.747155 -1.88535 0
M  V30 24652 C 2251.25 0.723377 -1.80225 0
M  V30 24653 O 2250.52 1.52802 -1.2034 0
M  V30 24654 C 2250.81 -1.2155 -3.38965 0
M  V30 24655 C 2250.66 -2.74823 -3.56079 0
M  V30 24656 C 2251.98 -0.806558 -4.32646 0
M  V30 24657 H 2249.1 -0.272895 -0.684615 0
M  V30 24658 H 2251.74 -1.29415 -1.3911 0
M  V30 24659 H 2249.89 -0.750148 -3.81189 0
M  V30 24660 H 2251.56 -3.29405 -3.2294 0
M  V30 24661 H 2249.8 -3.14587 -2.98693 0
M  V30 24662 H 2250.47 -3.02652 -4.61634 0
M  V30 24663 H 2252.95 -1.20702 -3.98209 0
M  V30 24664 H 2251.83 -1.16199 -5.3646 0
M  V30 24665 H 2252.09 0.290213 -4.41146 0
M  V30 24666 N 2251.15 1.34492 -0.821557 0
M  V30 24667 C 2252.08 2.32079 -0.257179 0
M  V30 24668 C 2253.06 1.58177 0.625617 0
M  V30 24669 O 2254.24 1.86167 0.552779 0
M  V30 24670 C 2251.37 3.42373 0.582898 0
M  V30 24671 C 2250.33 4.2752 -0.202646 0
M  V30 24672 C 2249.65 5.2927 0.760086 0
M  V30 24673 C 2250.95 5.02906 -1.41007 0
M  V30 24674 H 2252.65 2.79531 -1.07252 0
M  V30 24675 H 2250.19 1.34392 -0.517187 0
M  V30 24676 H 2252.15 4.09657 0.9879 0
M  V30 24677 H 2250.87 2.93568 1.43128 0
M  V30 24678 H 2249.53 3.61837 -0.589 0
M  V30 24679 H 2249.18 4.76727 1.60438 0
M  V30 24680 H 2248.88 5.87115 0.238706 0
M  V30 24681 H 2250.4 5.99422 1.16297 0
M  V30 24682 H 2251.81 5.63052 -1.07915 0
M  V30 24683 H 2250.21 5.70319 -1.86699 0
M  V30 24684 H 2251.28 4.3268 -2.18897 0
M  V30 24685 N 2252.62 0.576397 1.46681 0
M  V30 24686 C 2253.85 0.0649056 2.06498 0
M  V30 24687 C 2254.26 -1.24268 1.42668 0
M  V30 24688 O 2253.61 -1.7607 0.523917 0
M  V30 24689 C 2253.67 -0.181753 3.5904 0
M  V30 24690 C 2253.33 1.03928 4.45026 0
M  V30 24691 C 2254.33 1.94974 4.81955 0
M  V30 24692 C 2252.01 1.25935 4.86257 0
M  V30 24693 C 2254.01 3.06381 5.58936 0
M  V30 24694 C 2251.69 2.37648 5.62998 0
M  V30 24695 C 2252.69 3.277 5.99251 0
M  V30 24696 O 2252.38 4.37473 6.74442 0
M  V30 24697 H 2252.11 0.0516105 0.674027 0
M  V30 24698 H 2254.67 0.794984 1.89392 0
M  V30 24699 H 2252.9 -0.96637 3.7443 0
M  V30 24700 H 2254.59 -0.640977 4.00807 0
M  V30 24701 H 2255.35 1.79185 4.50686 0
M  V30 24702 H 2251.23 0.567529 4.57493 0
M  V30 24703 H 2254.77 3.76695 5.87151 0
M  V30 24704 H 2250.67 2.53402 5.93681 0
M  V30 24705 H 2251.44 4.35761 6.9286 0
M  V30 24706 N 2254.1 -1.54444 0.313841 0
M  V30 24707 C 2255.05 -2.25454 -0.572131 0
M  V30 24708 C 2256.04 -1.26512 -1.12655 0
M  V30 24709 O 2257.25 -1.44321 -1.07571 0
M  V30 24710 H 2253.63 -0.724045 -0.203134 0
M  V30 24711 H 2255.6 -2.98359 0.0491669 0
M  V30 24712 C 2254.35 -3.01823 -1.72621 0
M  V30 24713 H 2253.67 -3.77769 -1.30884 0
M  V30 24714 H 2255.11 -3.54771 -2.32193 0
M  V30 24715 C 2253.57 -2.09546 -2.63803 0
M  V30 24716 O 2254.1 -1.67192 -3.65253 0
M  V30 24717 N 2252.3 -1.75236 -2.31821 0
M  V30 24718 H 2251.85 -2.09876 -1.49365 0
M  V30 24719 H 2251.81 -1.13772 -2.93093 0
M  V30 24720 N 2255.58 -0.0418125 -1.57545 0
M  V30 24721 C 2256.86 0.673401 -1.83643 0
M  V30 24722 C 2257.24 1.89592 -0.928331 0
M  V30 24723 O 2256.59 2.28496 0.0129553 0
M  V30 24724 C 2256.8 1.03958 -3.33157 0
M  V30 24725 C 2258.14 1.42585 -3.99943 0
M  V30 24726 O 2259.17 1.1322 -3.37727 0
M  V30 24727 O 2258.03 1.97351 -5.09622 0
M  V30 24728 H 2255.12 0.331519 -0.757644 0
M  V30 24729 H 2257.67 -0.0704628 -1.69554 0
M  V30 24730 H 2256.44 0.170029 -3.9093 0
M  V30 24731 H 2256.06 1.8412 -3.524 0
M  V30 24732 N 2257.06 1.55891 0.231477 0
M  V30 24733 C 2257.99 1.94619 1.29018 0
M  V30 24734 C 2258.97 0.813093 1.49408 0
M  V30 24735 O 2260.15 1.07462 1.61758 0
M  V30 24736 C 2257.28 2.25429 2.64195 0
M  V30 24737 C 2256.24 3.41135 2.58478 0
M  V30 24738 C 2255.56 3.57525 3.97593 0
M  V30 24739 C 2256.86 4.76392 2.14122 0
M  V30 24740 H 2258.56 2.83302 0.968513 0
M  V30 24741 H 2256.1 1.36304 0.464455 0
M  V30 24742 H 2258.06 2.51112 3.38409 0
M  V30 24743 H 2256.78 1.33588 2.9803 0
M  V30 24744 H 2255.44 3.15485 1.86722 0
M  V30 24745 H 2255.09 2.63077 4.28718 0
M  V30 24746 H 2254.79 4.35344 3.94651 0
M  V30 24747 H 2256.31 3.85547 4.73483 0
M  V30 24748 H 2257.73 5.01346 2.78074 0
M  V30 24749 H 2256.12 5.57423 2.2226 0
M  V30 24750 H 2257.19 4.72416 1.09323 0
M  V30 24751 N 2258.54 -0.497781 1.49532 0
M  V30 24752 C 2259.78 -1.24923 1.58867 0
M  V30 24753 C 2260.11 -1.92997 0.278755 0
M  V30 24754 O 2259.38 -1.82886 -0.702112 0
M  V30 24755 H 2257.96 -0.464083 0.585351 0
M  V30 24756 H 2260.62 -0.576627 1.86175 0
M  V30 24757 H 2259.71 -2.01145 2.38636 0
M  V30 24758 N 2260.01 -1.38661 -0.749062 0
M  V30 24759 C 2260.98 -1.36048 -1.84455 0
M  V30 24760 C 2261.98 -0.26015 -1.58682 0
M  V30 24761 O 2263.17 -0.517291 -1.66342 0
M  V30 24762 C 2260.3 -1.11916 -3.22006 0
M  V30 24763 H 2261.49 -2.33515 -1.88178 0
M  V30 24764 H 2259.05 -1.2402 -0.951244 0
M  V30 24765 H 2259.78 -0.150743 -3.23949 0
M  V30 24766 H 2259.57 -1.91585 -3.42108 0
M  V30 24767 H 2261.06 -1.12795 -4.02078 0
M  V30 24768 N 2261.49 0.977736 -1.23605 0
M  V30 24769 C 2262.43 2.07315 -0.977405 0
M  V30 24770 C 2263.44 1.62725 0.0495559 0
M  V30 24771 O 2264.63 1.77525 -0.186292 0
M  V30 24772 C 2261.73 3.35882 -0.451275 0
M  V30 24773 C 2260.9 4.0943 -1.53903 0
M  V30 24774 C 2259.96 5.16273 -1.01731 0
M  V30 24775 O 2258.99 5.43006 -1.70686 0
M  V30 24776 N 2260.19 5.80297 0.153492 0
M  V30 24777 H 2262.95 2.30079 -1.92051 0
M  V30 24778 H 2260.51 1.14463 -1.14499 0
M  V30 24779 H 2262.51 4.04606 -0.0872286 0
M  V30 24780 H 2261.08 3.10065 0.397314 0
M  V30 24781 H 2260.3 3.35123 -2.07572 0
M  V30 24782 H 2261.58 4.55333 -2.27045 0
M  V30 24783 H 2260.98 5.60967 0.730224 0
M  V30 24784 H 2259.54 6.50183 0.458777 0
M  V30 24785 N 2262.97 1.04818 1.1769 0
M  V30 24786 C 2264.22 0.757143 1.88136 0
M  V30 24787 C 2264.55 -0.713809 1.80606 0
M  V30 24788 O 2263.83 -1.52162 1.21149 0
M  V30 24789 C 2264.11 1.23346 3.38316 0
M  V30 24790 C 2263.96 2.76707 3.54617 0
M  V30 24791 C 2265.28 0.829491 4.32212 0
M  V30 24792 H 2262.4 0.276522 0.683158 0
M  V30 24793 H 2265.04 1.30151 1.38422 0
M  V30 24794 H 2263.19 0.770352 3.80786 0
M  V30 24795 H 2264.86 3.31113 3.21188 0
M  V30 24796 H 2263.11 3.16167 2.9702 0
M  V30 24797 H 2263.78 3.05096 4.60022 0
M  V30 24798 H 2266.25 1.22812 3.97563 0
M  V30 24799 H 2265.13 1.19043 5.35836 0
M  V30 24800 H 2265.39 -0.266814 4.41294 0
M  V30 24801 N 2264.45 -1.34055 0.828678 0
M  V30 24802 C 2265.68 -2.02326 0.432656 0
M  V30 24803 C 2266.09 -1.62387 -0.963119 0
M  V30 24804 O 2265.45 -0.83215 -1.62424 0
M  V30 24805 C 2265.5 -3.57566 0.531883 0
M  V30 24806 O 2265.22 -3.9606 1.87265 0
M  V30 24807 C 2266.72 -4.43105 0.1315 0
M  V30 24808 H 2263.94 -0.648332 0.172934 0
M  V30 24809 H 2266.49 -1.71206 1.11843 0
M  V30 24810 H 2264.64 -3.87255 -0.10587 0
M  V30 24811 H 2265.06 -4.90754 1.85096 0
M  V30 24812 H 2266.53 -5.51424 0.252001 0
M  V30 24813 H 2267.01 -4.29337 -0.92557 0
M  V30 24814 H 2267.61 -4.18755 0.74328 0
M  V30 24815 N 2265.93 -0.584167 -1.46374 0
M  V30 24816 C 2266.84 0.150686 -2.34116 0
M  V30 24817 C 2267.85 0.884541 -1.4984 0
M  V30 24818 O 2269.03 0.847397 -1.82705 0
M  V30 24819 C 2266.09 1.15056 -3.27052 0
M  V30 24820 C 2265.16 0.421218 -4.27229 0
M  V30 24821 C 2264.39 1.37346 -5.15725 0
M  V30 24822 O 2264.61 2.61006 -5.07181 0
M  V30 24823 O 2263.55 0.88325 -5.95384 0
M  V30 24824 H 2267.37 -0.56976 -2.98308 0
M  V30 24825 H 2264.96 -0.34456 -1.45372 0
M  V30 24826 H 2266.84 1.72705 -3.84384 0
M  V30 24827 H 2265.51 1.85245 -2.65454 0
M  V30 24828 H 2264.42 -0.197151 -3.7358 0
M  V30 24829 H 2265.75 -0.239727 -4.91616 0
M  V30 24830 N 2267.41 1.54275 -0.322027 0
M  V30 24831 C 2268.65 2.00145 0.280454 0
M  V30 24832 C 2268.97 1.2118 1.52775 0
M  V30 24833 O 2268.24 0.313221 1.9338 0
M  V30 24834 H 2266.82 0.739352 0.106619 0
M  V30 24835 H 2269.49 1.8991 -0.438217 0
M  V30 24836 H 2268.58 3.07429 0.537917 0
M  V30 24837 N 2268.88 0.0501669 1.5752 0
M  V30 24838 C 2269.83 -0.924566 2.11472 0
M  V30 24839 C 2270.8 -1.30949 1.02184 0
M  V30 24840 O 2271.99 -1.39914 1.29726 0
M  V30 24841 C 2269.13 -2.19446 2.66341 0
M  V30 24842 C 2268.24 -1.86411 3.89711 0
M  V30 24843 C 2267.37 -3.07851 4.32899 0
M  V30 24844 C 2266.41 -2.70733 5.48972 0
M  V30 24845 N 2265.55 -3.84863 5.87218 0
M  V30 24846 H 2270.39 -0.457588 2.94466 0
M  V30 24847 H 2267.93 -0.214241 1.45532 0
M  V30 24848 H 2269.88 -2.93753 2.96252 0
M  V30 24849 H 2268.51 -2.63723 1.86146 0
M  V30 24850 H 2267.57 -1.02257 3.66398 0
M  V30 24851 H 2268.88 -1.55088 4.74077 0
M  V30 24852 H 2268.03 -3.90458 4.64357 0
M  V30 24853 H 2266.77 -3.42352 3.47342 0
M  V30 24854 H 2265.78 -1.86542 5.17187 0
M  V30 24855 H 2267 -2.37425 6.36244 0
M  V30 24856 H 2264.95 -4.19166 5.04614 0
M  V30 24857 H 2264.86 -3.57235 6.66273 0
M  V30 24858 H 2266.13 -4.68113 6.2329 0
M  V30 24859 N 2270.36 -1.56011 -0.223207 0
M  V30 24860 C 2271.29 -1.88764 -1.30003 0
M  V30 24861 C 2272.31 -0.775771 -1.43128 0
M  V30 24862 O 2273.5 -1.05406 -1.44055 0
M  V30 24863 C 2270.6 -2.0797 -2.67585 0
M  V30 24864 C 2269.77 -3.38978 -2.76428 0
M  V30 24865 C 2268.83 -3.47636 -3.95013 0
M  V30 24866 O 2267.85 -4.20679 -3.83429 0
M  V30 24867 N 2269.06 -2.78658 -5.09245 0
M  V30 24868 H 2271.82 -2.81724 -1.02233 0
M  V30 24869 H 2269.38 -1.56537 -0.41325 0
M  V30 24870 H 2271.37 -2.11079 -3.45294 0
M  V30 24871 H 2269.94 -1.21643 -2.87961 0
M  V30 24872 H 2269.16 -3.47981 -1.8521 0
M  V30 24873 H 2270.45 -4.25283 -2.79305 0
M  V30 24874 H 2269.85 -2.1909 -5.21552 0
M  V30 24875 H 2268.41 -2.87431 -5.85002 0
M  V30 24876 N 2271.84 0.489844 -1.49794 0
M  V30 24877 C 2273.12 1.25117 -1.5035 0
M  V30 24878 C 2273.5 2.0976 -0.237503 0
M  V30 24879 O 2272.84 2.14783 0.779772 0
M  V30 24880 C 2273.05 2.09832 -2.78875 0
M  V30 24881 C 2274.4 2.68649 -3.28805 0
M  V30 24882 O 2275.43 2.20091 -2.80069 0
M  V30 24883 O 2274.29 3.57076 -4.13714 0
M  V30 24884 H 2271.38 0.566764 -0.602252 0
M  V30 24885 H 2273.93 0.5032 -1.62068 0
M  V30 24886 H 2272.7 1.47337 -3.62502 0
M  V30 24887 H 2272.32 2.918 -2.70072 0
M  V30 24888 N 2273.32 1.39056 0.741698 0
M  V30 24889 C 2274.25 1.39969 1.86898 0
M  V30 24890 C 2275.23 0.263949 1.6804 0
M  V30 24891 O 2276.41 0.468788 1.88457 0
M  V30 24892 C 2273.54 1.2358 3.24569 0
M  V30 24893 C 2272.5 2.34484 3.58052 0
M  V30 24894 C 2271.82 2.03189 4.94589 0
M  V30 24895 C 2273.12 3.7678 3.6171 0
M  V30 24896 H 2274.82 2.34305 1.86391 0
M  V30 24897 H 2272.36 1.12781 0.895341 0
M  V30 24898 H 2274.32 1.22841 4.03098 0
M  V30 24899 H 2273.04 0.257103 3.25586 0
M  V30 24900 H 2271.7 2.34428 2.81849 0
M  V30 24901 H 2271.35 1.03774 4.92179 0
M  V30 24902 H 2271.05 2.77474 5.17959 0
M  V30 24903 H 2272.57 2.04089 5.75482 0
M  V30 24904 H 2273.99 3.78802 4.30328 0
M  V30 24905 H 2272.38 4.50369 3.96595 0
M  V30 24906 H 2273.45 4.08239 2.61665 0
M  V30 24907 N 2274.8 -0.971167 1.24121 0
M  V30 24908 C 2275.71 -2.09915 1.04751 0
M  V30 24909 C 2276.72 -1.73997 -0.0106856 0
M  V30 24910 O 2277.9 -2.00532 0.186749 0
M  V30 24911 C 2274.96 -3.40535 0.650888 0
M  V30 24912 C 2274.02 -3.90423 1.78517 0
M  V30 24913 C 2273.26 -5.14809 1.40738 0
M  V30 24914 O 2273.48 -5.69633 0.29567 0
M  V30 24915 O 2272.41 -5.58995 2.23178 0
M  V30 24916 H 2276.24 -2.29151 1.99308 0
M  V30 24917 H 2273.82 -1.08305 1.0291 0
M  V30 24918 H 2275.71 -4.19085 0.441066 0
M  V30 24919 H 2274.38 -3.22609 -0.265592 0
M  V30 24920 H 2273.29 -3.1295 2.04972 0
M  V30 24921 H 2274.62 -4.1282 2.6803 0
M  V30 24922 N 2276.27 -1.05441 -1.17133 0
M  V30 24923 C 2277.69 -0.776225 -1.39452 0
M  V30 24924 C 2277.89 0.628273 -1.91455 0
M  V30 24925 O 2276.95 1.39027 -2.10779 0
M  V30 24926 C 2278.26 -1.83392 -2.38302 0
M  V30 24927 C 2279.81 -1.85643 -2.52003 0
M  V30 24928 C 2280.28 -2.90443 -3.54128 0
M  V30 24929 N 2281.77 -2.89422 -3.61648 0
M  V30 24930 C 2282.51 -3.6716 -4.40433 0
M  V30 24931 N 2282 -4.5469 -5.22713 0
M  V30 24932 N 2283.8 -3.55589 -4.35331 0
M  V30 24933 H 2275.95 -1.96054 -0.8171 0
M  V30 24934 H 2278.21 -0.849087 -0.421611 0
M  V30 24935 H 2277.92 -2.84208 -2.07168 0
M  V30 24936 H 2277.79 -1.67766 -3.37838 0
M  V30 24937 H 2280.18 -0.85491 -2.82445 0
M  V30 24938 H 2280.26 -2.05347 -1.52533 0
M  V30 24939 H 2279.9 -3.90783 -3.24424 0
M  V30 24940 H 2279.83 -2.67991 -4.53308 0
M  V30 24941 H 2282.32 -2.25957 -3.02905 0
M  V30 24942 H 2282.64 -5.10684 -5.80018 0
M  V30 24943 H 2280.98 -4.5875 -5.22085 0
M  V30 24944 H 2284.17 -2.86599 -3.70106 0
M  V30 24945 H 2284.35 -4.16419 -4.96487 0
M  V30 24946 N 2277.75 1.33613 -0.835776 0
M  V30 24947 C 2278.72 2.2758 -0.27204 0
M  V30 24948 C 2279.72 1.50828 0.55746 0
M  V30 24949 O 2280.91 1.70188 0.3717 0
M  V30 24950 C 2278.04 3.35268 0.617114 0
M  V30 24951 H 2279.23 2.78952 -1.10116 0
M  V30 24952 H 2276.78 1.43964 -0.60862 0
M  V30 24953 H 2277.52 2.89131 1.46879 0
M  V30 24954 H 2277.3 3.92093 0.0236377 0
M  V30 24955 H 2278.79 4.05328 1.00493 0
M  V30 24956 N 2279.23 0.591922 1.46062 0
M  V30 24957 C 2280.46 0.0850678 2.07225 0
M  V30 24958 C 2280.88 -1.21461 1.43628 0
M  V30 24959 O 2280.24 -1.73583 0.523336 0
M  V30 24960 C 2280.29 -0.0575933 3.60554 0
M  V30 24961 O 2279.39 -1.11181 3.9713 0
M  V30 24962 H 2278.73 0.0669684 0.660614 0
M  V30 24963 H 2281.26 0.817483 1.87559 0
M  V30 24964 H 2281.27 -0.260829 4.07165 0
M  V30 24965 H 2279.95 0.891488 4.06233 0
M  V30 24966 H 2278.52 -0.886292 3.62214 0
M  V30 24967 N 2280.71 -1.54102 0.330204 0
M  V30 24968 C 2281.64 -2.22079 -0.566863 0
M  V30 24969 C 2282.65 -1.22296 -1.0746 0
M  V30 24970 O 2283.84 -1.48727 -0.987038 0
M  V30 24971 C 2280.94 -2.87689 -1.79133 0
M  V30 24972 C 2280.12 -4.13669 -1.42115 0
M  V30 24973 C 2279.17 -4.6281 -2.50386 0
M  V30 24974 O 2278.2 -5.27338 -2.14251 0
M  V30 24975 N 2279.4 -4.37602 -3.81425 0
M  V30 24976 H 2282.17 -2.99696 0.0152371 0
M  V30 24977 H 2279.73 -1.61169 0.153709 0
M  V30 24978 H 2281.72 -3.17485 -2.50969 0
M  V30 24979 H 2280.29 -2.13738 -2.28111 0
M  V30 24980 H 2279.51 -3.90565 -0.534132 0
M  V30 24981 H 2280.8 -4.95642 -1.14962 0
M  V30 24982 H 2280.2 -3.85967 -4.13577 0
M  V30 24983 H 2278.75 -4.72037 -4.49472 0
M  V30 24984 N 2282.19 -0.0585199 -1.57491 0
M  V30 24985 C 2283.12 0.91114 -2.1499 0
M  V30 24986 C 2284.1 1.3195 -1.07346 0
M  V30 24987 O 2285.28 1.39292 -1.3532 0
M  V30 24988 C 2282.41 2.18342 -2.70082 0
M  V30 24989 C 2281.37 1.91489 -3.82774 0
M  V30 24990 C 2280.69 3.25234 -4.24414 0
M  V30 24991 C 2281.99 1.23066 -5.07594 0
M  V30 24992 H 2283.69 0.432194 -2.96264 0
M  V30 24993 H 2281.23 0.206444 -1.42512 0
M  V30 24994 H 2283.19 2.86582 -3.08948 0
M  V30 24995 H 2281.91 2.68455 -1.86009 0
M  V30 24996 H 2280.57 1.25658 -3.44392 0
M  V30 24997 H 2280.22 3.73162 -3.37282 0
M  V30 24998 H 2279.92 3.08062 -5.00371 0
M  V30 24999 H 2281.44 3.94693 -4.65886 0
M  V30 25000 H 2282.85 1.81353 -5.4386 0
M  V30 25001 H 2281.25 1.16197 -5.88743 0
M  V30 25002 H 2282.32 0.207762 -4.84455 0
M  V30 25003 N 2283.66 1.56128 0.21493 0
M  V30 25004 C 2284.63 1.92118 1.24994 0
M  V30 25005 C 2285.63 0.800369 1.39466 0
M  V30 25006 O 2286.82 1.06804 1.37617 0
M  V30 25007 C 2283.95 2.17781 2.62267 0
M  V30 25008 H 2285.14 2.84694 0.942825 0
M  V30 25009 H 2282.7 1.49512 0.455627 0
M  V30 25010 H 2283.43 1.27778 2.98066 0
M  V30 25011 H 2283.22 2.99439 2.53138 0
M  V30 25012 H 2284.71 2.46699 3.36941 0
M  V30 25013 N 2285.14 -0.481893 1.50052 0
M  V30 25014 C 2286.56 -0.814732 1.37238 0
M  V30 25015 C 2286.76 -1.97071 0.420144 0
M  V30 25016 O 2285.81 -2.52105 -0.141201 0
M  V30 25017 C 2287.13 -1.13696 2.78377 0
M  V30 25018 C 2288.68 -1.24405 2.87215 0
M  V30 25019 C 2289.15 -1.59946 4.29163 0
M  V30 25020 N 2290.64 -1.66959 4.32064 0
M  V30 25021 C 2291.38 -1.95942 5.38882 0
M  V30 25022 N 2290.87 -2.2302 6.55922 0
M  V30 25023 N 2292.67 -1.97354 5.26315 0
M  V30 25024 H 2284.82 0.280087 2.10545 0
M  V30 25025 H 2287.08 0.062762 0.94592 0
M  V30 25026 H 2286.79 -0.360725 3.49845 0
M  V30 25027 H 2286.66 -2.07581 3.14945 0
M  V30 25028 H 2289.05 -2.01097 2.15972 0
M  V30 25029 H 2289.13 -0.285254 2.54205 0
M  V30 25030 H 2288.77 -0.837979 5.00939 0
M  V30 25031 H 2288.7 -2.56958 4.59652 0
M  V30 25032 H 2291.19 -1.48117 3.47663 0
M  V30 25033 H 2291.51 -2.44378 7.33143 0
M  V30 25034 H 2289.85 -2.20435 6.59116 0
M  V30 25035 H 2293.04 -1.75689 4.33879 0
M  V30 25036 H 2293.21 -2.19607 6.09653 0
M  V30 25037 N 2286.62 -1.39448 -0.734313 0
M  V30 25038 C 2287.57 -1.38222 -1.84833 0
M  V30 25039 C 2288.54 -0.241819 -1.6433 0
M  V30 25040 O 2289.72 -0.437035 -1.85727 0
M  V30 25041 C 2286.86 -1.23217 -3.22353 0
M  V30 25042 C 2285.98 -2.46808 -3.54556 0
M  V30 25043 C 2285.11 -2.24386 -4.81482 0
M  V30 25044 C 2284.15 -3.43648 -5.0653 0
M  V30 25045 N 2283.29 -3.20539 -6.24659 0
M  V30 25046 H 2288.13 -2.33451 -1.85215 0
M  V30 25047 H 2285.66 -1.15965 -0.905018 0
M  V30 25048 H 2287.62 -1.12529 -4.01738 0
M  V30 25049 H 2286.25 -0.316178 -3.21248 0
M  V30 25050 H 2285.3 -2.68096 -2.69868 0
M  V30 25051 H 2286.62 -3.35636 -3.68985 0
M  V30 25052 H 2285.77 -2.10943 -5.68848 0
M  V30 25053 H 2284.51 -1.32952 -4.69228 0
M  V30 25054 H 2283.51 -3.57588 -4.17625 0
M  V30 25055 H 2284.74 -4.35983 -5.20668 0
M  V30 25056 H 2282.68 -2.31771 -6.13692 0
M  V30 25057 H 2282.6 -4.02925 -6.39678 0
M  V30 25058 H 2283.87 -3.10792 -7.14863 0
M  V30 25059 N 2288.1 0.964571 -1.24635 0
M  V30 25060 C 2289.03 2.05861 -0.984698 0
M  V30 25061 C 2290.01 1.6239 0.0826268 0
M  V30 25062 O 2291.19 1.8842 -0.0549627 0
M  V30 25063 C 2288.32 3.35187 -0.486587 0
M  V30 25064 C 2287.37 3.97613 -1.54293 0
M  V30 25065 S 2288.2 4.34846 -3.12521 0
M  V30 25066 C 2289.36 5.67303 -2.6442 0
M  V30 25067 H 2289.59 2.27739 -1.91108 0
M  V30 25068 H 2287.12 1.10289 -1.08054 0
M  V30 25069 H 2289.08 4.09984 -0.205829 0
M  V30 25070 H 2287.74 3.11291 0.419131 0
M  V30 25071 H 2286.93 4.90824 -1.14489 0
M  V30 25072 H 2286.54 3.29257 -1.77386 0
M  V30 25073 H 2288.83 6.44965 -2.07427 0
M  V30 25074 H 2289.77 6.11967 -3.56233 0
M  V30 25075 H 2290.18 5.26061 -2.04743 0
M  V30 25076 N 2289.58 1.0606 1.16572 0
M  V30 25077 C 2290.52 0.669301 2.20882 0
M  V30 25078 C 2291.49 -0.332889 1.6273 0
M  V30 25079 O 2292.68 -0.222313 1.895 0
M  V30 25080 C 2289.82 0.0594178 3.45049 0
M  V30 25081 C 2288.93 1.1115 4.17456 0
M  V30 25082 C 2288.07 0.468009 5.29134 0
M  V30 25083 C 2287.11 1.50379 5.9334 0
M  V30 25084 N 2286.24 0.883828 6.96515 0
M  V30 25085 H 2291.08 1.56324 2.53706 0
M  V30 25086 H 2288.62 0.781647 1.24614 0
M  V30 25087 H 2290.58 -0.311698 4.16034 0
M  V30 25088 H 2289.21 -0.797937 3.12782 0
M  V30 25089 H 2288.26 1.60035 3.45099 0
M  V30 25090 H 2289.57 1.89739 4.61303 0
M  V30 25091 H 2288.73 0.0437937 6.06684 0
M  V30 25092 H 2287.46 -0.349778 4.86444 0
M  V30 25093 H 2286.47 1.93793 5.14514 0
M  V30 25094 H 2287.69 2.32363 6.3811 0
M  V30 25095 H 2285.64 0.0867103 6.55943 0
M  V30 25096 H 2285.56 1.60713 7.3872 0
M  V30 25097 H 2286.83 0.48468 7.77992 0
M  V30 25098 N 2291.06 -1.33168 0.84285 0
M  V30 25099 C 2292 -2.29133 0.276925 0
M  V30 25100 C 2292.97 -1.54513 -0.609499 0
M  V30 25101 O 2294.16 -1.82793 -0.546923 0
M  V30 25102 C 2291.3 -3.4087 -0.538647 0
M  V30 25103 C 2290.41 -4.30393 0.372245 0
M  V30 25104 C 2289.55 -5.29249 -0.454815 0
M  V30 25105 C 2288.58 -6.10412 0.454218 0
M  V30 25106 N 2287.72 -7.01301 -0.334952 0
M  V30 25107 H 2292.56 -2.76932 1.10057 0
M  V30 25108 H 2290.1 -1.36262 0.554185 0
M  V30 25109 H 2292.06 -4.04362 -1.02702 0
M  V30 25110 H 2290.69 -2.94253 -1.32722 0
M  V30 25111 H 2289.74 -3.67588 0.978944 0
M  V30 25112 H 2291.05 -4.8718 1.07039 0
M  V30 25113 H 2290.2 -5.98287 -1.00684 0
M  V30 25114 H 2288.94 -4.7305 -1.18638 0
M  V30 25115 H 2287.95 -5.40289 1.01823 0
M  V30 25116 H 2289.17 -6.68695 1.18421 0
M  V30 25117 H 2287.12 -6.47545 -1.04982 0
M  V30 25118 H 2287.04 -7.55387 0.304395 0
M  V30 25119 H 2288.3 -7.7464 -0.869088 0
M  V30 25120 N 2292.53 -0.599659 -1.45746 0
M  V30 25121 C 2293.44 0.125847 -2.34262 0
M  V30 25122 C 2294.46 0.868598 -1.50769 0
M  V30 25123 O 2295.64 0.827971 -1.83594 0
M  V30 25124 C 2292.7 1.11581 -3.28254 0
M  V30 25125 C 2291.76 0.375881 -4.27651 0
M  V30 25126 C 2290.99 1.31868 -5.17152 0
M  V30 25127 O 2291.22 2.55612 -5.0992 0
M  V30 25128 O 2290.15 0.820052 -5.96287 0
M  V30 25129 H 2293.98 -0.601368 -2.97687 0
M  V30 25130 H 2291.56 -0.35996 -1.44999 0
M  V30 25131 H 2293.44 1.68619 -3.86194 0
M  V30 25132 H 2292.12 1.82419 -2.67404 0
M  V30 25133 H 2291.03 -0.236763 -3.7335 0
M  V30 25134 H 2292.36 -0.291856 -4.91334 0
M  V30 25135 N 2294.01 1.53925 -0.338371 0
M  V30 25136 C 2294.97 2.23494 0.50826 0
M  V30 25137 C 2295.97 1.23337 1.03173 0
M  V30 25138 O 2297.16 1.47812 0.9218 0
M  V30 25139 C 2294.3 2.95055 1.70749 0
M  V30 25140 H 2295.49 2.99733 -0.10011 0
M  V30 25141 H 2293.04 1.56043 -0.0896473 0
M  V30 25142 H 2293.78 2.2299 2.3547 0
M  V30 25143 H 2293.56 3.68514 1.33939 0
M  V30 25144 H 2295.05 3.48017 2.30812 0
M  V30 25145 N 2295.49 0.0668712 1.57458 0
M  V30 25146 C 2296.45 -0.887385 2.11325 0
M  V30 25147 C 2297.45 -1.22962 1.0362 0
M  V30 25148 O 2298.64 -1.16371 1.29628 0
M  V30 25149 C 2295.77 -2.19237 2.61051 0
M  V30 25150 H 2296.97 -0.420142 2.96942 0
M  V30 25151 H 2294.52 -0.181765 1.5524 0
M  V30 25152 H 2295.26 -2.70509 1.78873 0
M  V30 25153 H 2295.04 -1.95696 3.39773 0
M  V30 25154 H 2296.53 -2.87559 3.02819 0
M  V30 25155 N 2296.97 -1.56239 -0.206647 0
M  V30 25156 C 2298.19 -1.84392 -0.949442 0
M  V30 25157 C 2298.62 -0.649047 -1.76547 0
M  V30 25158 O 2297.98 0.4022 -1.76782 0
M  V30 25159 C 2298.02 -3.10672 -1.83073 0
M  V30 25160 O 2297.13 -2.90412 -2.92805 0
M  V30 25161 H 2296.47 -0.607503 -0.268022 0
M  V30 25162 H 2299 -2.03462 -0.215453 0
M  V30 25163 H 2299.01 -3.41165 -2.23764 0
M  V30 25164 H 2297.68 -3.97263 -1.23105 0
M  V30 25165 H 2296.26 -2.71189 -2.55951 0
M  V30 25166 N 2298.45 0.473929 -1.50305 0
M  V30 25167 C 2299.38 1.58039 -1.71889 0
M  V30 25168 C 2300.36 1.60343 -0.567827 0
M  V30 25169 O 2301.54 1.76654 -0.806654 0
M  V30 25170 C 2298.67 2.9638 -1.81041 0
M  V30 25171 C 2297.63 3.08943 -2.96206 0
M  V30 25172 C 2296.95 4.48904 -2.90498 0
M  V30 25173 C 2298.25 2.86427 -4.36757 0
M  V30 25174 H 2299.95 1.4023 -2.6453 0
M  V30 25175 H 2297.49 0.673178 -1.27296 0
M  V30 25176 H 2299.44 3.73711 -1.94726 0
M  V30 25177 H 2298.17 3.1534 -0.850202 0
M  V30 25178 H 2296.83 2.34045 -2.82168 0
M  V30 25179 H 2296.48 4.64778 -1.92329 0
M  V30 25180 H 2296.18 4.58246 -3.6781 0
M  V30 25181 H 2297.7 5.28259 -3.06227 0
M  V30 25182 H 2299.11 3.53509 -4.51336 0
M  V30 25183 H 2297.51 3.07216 -5.15498 0
M  V30 25184 H 2298.58 1.82308 -4.49324 0
M  V30 25185 N 2299.92 1.39835 0.726907 0
M  V30 25186 C 2301.15 1.40978 1.52118 0
M  V30 25187 C 2301.57 0.00829336 1.88098 0
M  V30 25188 O 2300.93 -0.98078 1.52481 0
M  V30 25189 C 2300.98 2.29649 2.78017 0
M  V30 25190 O 2300.08 1.73194 3.74269 0
M  V30 25191 H 2299.42 0.479739 0.459071 0
M  V30 25192 H 2301.95 1.83929 0.896175 0
M  V30 25193 H 2301.96 2.44443 3.26667 0
M  V30 25194 H 2300.64 3.31497 2.51163 0
M  V30 25195 H 2299.22 1.67686 3.3307 0
M  V30 25196 N 2301.4 -0.957948 1.25144 0
M  V30 25197 C 2302.31 -2.08792 1.06971 0
M  V30 25198 C 2303.33 -1.73998 0.00776969 0
M  V30 25199 O 2304.5 -2.00323 0.208008 0
M  V30 25200 C 2301.57 -3.39826 0.68697 0
M  V30 25201 C 2300.63 -3.88508 1.82648 0
M  V30 25202 C 2299.86 -5.13287 1.4619 0
M  V30 25203 O 2300.09 -5.69288 0.356071 0
M  V30 25204 O 2299.02 -5.56596 2.29094 0
M  V30 25205 H 2302.85 -2.27024 2.01727 0
M  V30 25206 H 2300.43 -1.07207 1.04053 0
M  V30 25207 H 2302.31 -4.18594 0.485491 0
M  V30 25208 H 2300.99 -3.22872 -0.23136 0
M  V30 25209 H 2299.89 -3.10758 2.08279 0
M  V30 25210 H 2301.23 -4.09954 2.72394 0
M  V30 25211 N 2302.88 -1.06677 -1.16008 0
M  V30 25212 C 2304.13 -0.796799 -1.87143 0
M  V30 25213 C 2304.48 0.669627 -1.80371 0
M  V30 25214 O 2303.77 1.48461 -1.21119 0
M  V30 25215 C 2303.97 -1.23062 -3.35545 0
M  V30 25216 C 2303.8 -2.73768 -3.56765 0
M  V30 25217 C 2302.57 -3.41285 -3.72629 0
M  V30 25218 C 2304.76 -3.71976 -3.55159 0
M  V30 25219 N 2302.75 -4.80702 -3.81836 0
M  V30 25220 C 2304.12 -4.97198 -3.70398 0
M  V30 25221 C 2306.17 -3.65231 -3.38394 0
M  V30 25222 C 2304.88 -6.16478 -3.70604 0
M  V30 25223 C 2306.9 -4.83968 -3.39896 0
M  V30 25224 C 2306.26 -6.08019 -3.55657 0
M  V30 25225 H 2302.36 -0.344026 -0.702261 0
M  V30 25226 H 2304.95 -1.36168 -1.39163 0
M  V30 25227 H 2303.12 -0.693523 -3.82158 0
M  V30 25228 H 2304.85 -0.908913 -3.94361 0
M  V30 25229 H 2301.6 -2.91688 -3.73115 0
M  V30 25230 H 2302.03 -5.53239 -3.902 0
M  V30 25231 H 2306.67 -2.70275 -3.25133 0
M  V30 25232 H 2304.39 -7.11764 -3.82646 0
M  V30 25233 H 2307.97 -4.80418 -3.28161 0
M  V30 25234 H 2306.85 -6.98358 -3.56743 0
M  V30 25235 N 2304.36 1.32719 -0.8499 0
M  V30 25236 C 2305.29 2.31482 -0.306349 0
M  V30 25237 C 2306.27 1.59469 0.591924 0
M  V30 25238 O 2307.45 1.87297 0.513166 0
M  V30 25239 C 2304.58 3.43533 0.510144 0
M  V30 25240 C 2303.54 4.26994 -0.293284 0
M  V30 25241 C 2302.86 5.30763 0.647649 0
M  V30 25242 C 2304.16 4.99802 -1.51643 0
M  V30 25243 H 2305.86 2.77193 -1.13157 0
M  V30 25244 H 2303.4 1.33265 -0.545577 0
M  V30 25245 H 2305.36 4.1166 0.900783 0
M  V30 25246 H 2304.08 2.96538 1.36869 0
M  V30 25247 H 2302.74 3.60507 -0.665619 0
M  V30 25248 H 2302.39 4.80023 1.5029 0
M  V30 25249 H 2302.09 5.87489 0.114116 0
M  V30 25250 H 2303.61 6.01754 1.03557 0
M  V30 25251 H 2305.03 5.60636 -1.19834 0
M  V30 25252 H 2303.42 5.6623 -1.98755 0
M  V30 25253 H 2304.49 4.27939 -2.28026 0
M  V30 25254 N 2305.84 0.60738 1.45426 0
M  V30 25255 C 2307.06 0.107042 2.07124 0
M  V30 25256 C 2307.49 -1.19931 1.44908 0
M  V30 25257 O 2306.84 -1.73018 0.541717 0
M  V30 25258 C 2306.89 -0.0193485 3.60595 0
M  V30 25259 O 2306 -1.06963 3.98287 0
M  V30 25260 H 2305.34 0.0739713 0.659867 0
M  V30 25261 H 2307.87 0.83733 1.86681 0
M  V30 25262 H 2307.88 -0.217629 4.07419 0
M  V30 25263 H 2306.55 0.934524 4.05265 0
M  V30 25264 H 2305.13 -0.847825 3.63134 0
M  V30 25265 N 2307.31 -1.53743 0.34653 0
M  V30 25266 C 2308.28 -2.2376 -0.4964 0
M  V30 25267 C 2309.28 -1.23882 -1.02517 0
M  V30 25268 O 2310.47 -1.48299 -0.913948 0
M  V30 25269 C 2307.6 -2.95956 -1.69182 0
M  V30 25270 H 2308.79 -2.99676 0.116004 0
M  V30 25271 H 2306.35 -1.55993 0.0979213 0
M  V30 25272 H 2307.08 -2.24236 -2.34284 0
M  V30 25273 H 2306.87 -3.69219 -1.31983 0
M  V30 25274 H 2308.36 -3.49236 -2.28963 0
M  V30 25275 N 2308.79 -0.0752207 -1.5742 0
M  V30 25276 C 2310.02 0.602042 -1.97947 0
M  V30 25277 C 2310.44 1.62942 -0.953703 0
M  V30 25278 O 2309.79 1.82404 0.059223 0
M  V30 25279 C 2309.84 1.26756 -3.38549 0
M  V30 25280 O 2309.56 0.281299 -4.37196 0
M  V30 25281 C 2311.07 2.03232 -3.93969 0
M  V30 25282 H 2308.29 0.16292 -0.650921 0
M  V30 25283 H 2310.83 -0.148636 -2.03959 0
M  V30 25284 H 2308.98 1.9693 -3.33613 0
M  V30 25285 H 2309.4 0.759176 -5.18977 0
M  V30 25286 H 2310.87 2.45184 -4.94559 0
M  V30 25287 H 2311.35 2.89024 -3.30699 0
M  V30 25288 H 2311.96 1.37917 -4.02317 0
M  V30 25289 N 2310.27 1.56347 0.198358 0
M  V30 25290 C 2311.18 1.97485 1.26637 0
M  V30 25291 C 2312.2 0.882028 1.49988 0
M  V30 25292 O 2313.37 1.18751 1.62666 0
M  V30 25293 C 2310.44 2.30324 2.59137 0
M  V30 25294 C 2309.5 3.53296 2.43886 0
M  V30 25295 C 2308.73 3.84559 3.70067 0
M  V30 25296 O 2308.95 3.17159 4.74096 0
M  V30 25297 O 2307.89 4.77996 3.65792 0
M  V30 25298 H 2311.71 2.88549 0.947253 0
M  V30 25299 H 2309.3 1.43859 0.403098 0
M  V30 25300 H 2311.18 2.52536 3.37348 0
M  V30 25301 H 2309.86 1.42428 2.90682 0
M  V30 25302 H 2308.76 3.36335 1.63797 0
M  V30 25303 H 2310.1 4.41648 2.17274 0
M  V30 25304 N 2311.75 -0.465951 1.50554 0
M  V30 25305 C 2312.98 -1.2408 1.65565 0
M  V30 25306 C 2313.39 -1.85693 0.341083 0
M  V30 25307 O 2312.75 -1.69458 -0.677513 0
M  V30 25308 C 2312.8 -2.34578 2.75055 0
M  V30 25309 O 2312.52 -1.7549 4.01416 0
M  V30 25310 C 2314.02 -3.25366 3.01084 0
M  V30 25311 H 2311.24 -0.375067 0.556386 0
M  V30 25312 H 2313.79 -0.55559 1.96808 0
M  V30 25313 H 2311.94 -2.98866 2.46492 0
M  V30 25314 H 2312.35 -2.48295 4.62006 0
M  V30 25315 H 2313.83 -3.99098 3.81346 0
M  V30 25316 H 2314.31 -3.8445 2.12356 0
M  V30 25317 H 2314.91 -2.6681 3.31198 0
M  V30 25318 N 2313.23 -1.40218 -0.719481 0
M  V30 25319 C 2314.14 -1.42483 -1.86375 0
M  V30 25320 C 2315.15 -0.317864 -1.71072 0
M  V30 25321 O 2316.33 -0.561828 -1.93405 0
M  V30 25322 C 2313.39 -1.28183 -3.22133 0
M  V30 25323 C 2312.45 -2.48988 -3.49719 0
M  V30 25324 C 2311.69 -2.35362 -4.79 0
M  V30 25325 O 2311.91 -1.36534 -5.53818 0
M  V30 25326 O 2310.84 -3.24659 -5.06834 0
M  V30 25327 H 2314.67 -2.38971 -1.87421 0
M  V30 25328 H 2312.26 -1.21499 -0.869384 0
M  V30 25329 H 2314.14 -1.22402 -4.03232 0
M  V30 25330 H 2312.81 -0.347991 -3.21824 0
M  V30 25331 H 2311.72 -2.60347 -2.68645 0
M  V30 25332 H 2313.05 -3.4112 -3.54822 0
M  V30 25333 N 2314.7 0.951297 -1.25651 0
M  V30 25334 C 2315.63 2.06597 -1.08812 0
M  V30 25335 C 2316.62 1.701 0.00379557 0
M  V30 25336 O 2317.8 1.93486 -0.166359 0
M  V30 25337 C 2314.93 3.39973 -0.709602 0
M  V30 25338 C 2313.88 3.90493 -1.75212 0
M  V30 25339 C 2313.21 5.20403 -1.2282 0
M  V30 25340 C 2314.51 4.16499 -3.1516 0
M  V30 25341 H 2316.2 2.20942 -2.02052 0
M  V30 25342 H 2313.75 1.06168 -0.972854 0
M  V30 25343 H 2315.7 4.17407 -0.578722 0
M  V30 25344 H 2314.43 3.25575 0.258499 0
M  V30 25345 H 2313.09 3.15231 -1.8715 0
M  V30 25346 H 2312.73 5.02377 -0.250233 0
M  V30 25347 H 2312.43 5.55173 -1.92501 0
M  V30 25348 H 2313.96 6.0043 -1.10978 0
M  V30 25349 H 2315.37 4.8458 -3.06357 0
M  V30 25350 H 2313.77 4.62531 -3.82342 0
M  V30 25351 H 2314.84 3.22652 -3.61972 0
M  V30 25352 N 2316.18 1.07291 1.1544 0
M  V30 25353 C 2317.43 0.796879 1.86488 0
M  V30 25354 C 2317.76 -0.675339 1.82079 0
M  V30 25355 O 2317.04 -1.49558 1.24349 0
M  V30 25356 C 2317.32 1.30495 3.35624 0
M  V30 25357 C 2317.17 2.84167 3.48668 0
M  V30 25358 C 2318.49 0.920983 4.30356 0
M  V30 25359 H 2315.61 0.290951 0.677139 0
M  V30 25360 H 2318.25 1.33058 1.3563 0
M  V30 25361 H 2316.4 0.850949 3.79066 0
M  V30 25362 H 2318.07 3.37851 3.14093 0
M  V30 25363 H 2316.32 3.22396 2.90247 0
M  V30 25364 H 2316.99 3.14785 4.53447 0
M  V30 25365 H 2319.46 1.31217 3.94869 0
M  V30 25366 H 2318.34 1.30382 5.3319 0
M  V30 25367 H 2318.6 -0.173149 4.41761 0
M  V30 25368 N 2317.66 -1.32267 0.856927 0
M  V30 25369 C 2318.59 -2.27715 0.260452 0
M  V30 25370 C 2319.61 -1.52529 -0.56911 0
M  V30 25371 O 2320.79 -1.74115 -0.39323 0
M  V30 25372 C 2317.89 -3.326 -0.650419 0
M  V30 25373 C 2317.07 -4.37164 0.143797 0
M  V30 25374 C 2316.13 -5.21614 -0.693188 0
M  V30 25375 O 2315.15 -5.69061 -0.12589 0
M  V30 25376 N 2316.35 -5.44682 -2.00752 0
M  V30 25377 H 2319.12 -2.7954 1.08063 0
M  V30 25378 H 2316.68 -1.45151 0.717129 0
M  V30 25379 H 2318.67 -3.86007 -1.21574 0
M  V30 25380 H 2317.24 -2.80917 -1.37128 0
M  V30 25381 H 2316.46 -3.84009 0.890553 0
M  V30 25382 H 2317.75 -5.0411 0.689238 0
M  V30 25383 H 2317.15 -5.07868 -2.49172 0
M  V30 25384 H 2315.71 -6.01076 -2.52092 0
M  V30 25385 N 2319.14 -0.615084 -1.45102 0
M  V30 25386 C 2320.09 0.0993573 -2.30586 0
M  V30 25387 C 2321.06 0.852644 -1.42545 0
M  V30 25388 O 2322.24 0.836887 -1.71467 0
M  V30 25389 C 2319.38 1.08577 -3.27574 0
M  V30 25390 C 2318.49 0.33258 -4.30718 0
M  V30 25391 C 2317.63 1.30938 -5.14809 0
M  V30 25392 C 2316.67 0.544431 -6.09674 0
M  V30 25393 N 2315.8 1.47089 -6.8652 0
M  V30 25394 H 2320.64 -0.635594 -2.91143 0
M  V30 25395 H 2318.18 -0.325231 -1.4346 0
M  V30 25396 H 2320.14 1.67089 -3.82279 0
M  V30 25397 H 2318.77 1.78805 -2.68754 0
M  V30 25398 H 2317.82 -0.368173 -3.78614 0
M  V30 25399 H 2319.13 -0.263929 -4.98101 0
M  V30 25400 H 2318.29 1.96633 -5.73952 0
M  V30 25401 H 2317.03 1.93982 -4.47462 0
M  V30 25402 H 2316.03 -0.1261 -5.49655 0
M  V30 25403 H 2317.26 -0.0810663 -6.79052 0
M  V30 25404 H 2315.2 2.08884 -6.21855 0
M  V30 25405 H 2315.12 0.928005 -7.50283 0
M  V30 25406 H 2316.39 2.11718 -7.50197 0
M  V30 25407 N 2320.62 1.53557 -0.354678 0
M  V30 25408 C 2321.84 2.05982 0.242117 0
M  V30 25409 C 2322.27 1.22723 1.42551 0
M  V30 25410 O 2321.63 0.243635 1.79656 0
M  V30 25411 C 2321.67 3.55155 0.624304 0
M  V30 25412 O 2320.78 3.74684 1.72295 0
M  V30 25413 H 2320.12 0.662921 0.0378315 0
M  V30 25414 H 2322.65 1.98087 -0.512121 0
M  V30 25415 H 2322.66 3.97987 0.898363 0
M  V30 25416 H 2321.33 4.15201 -0.241062 0
M  V30 25417 H 2319.91 3.43753 1.44529 0
M  V30 25418 N 2322.1 0.083568 1.57378 0
M  V30 25419 C 2323.32 -0.591536 1.98264 0
M  V30 25420 C 2323.74 -1.62433 0.962331 0
M  V30 25421 O 2323.1 -1.82433 -0.0495489 0
M  V30 25422 C 2323.15 -1.24959 3.39216 0
M  V30 25423 O 2322.87 -0.258109 4.37339 0
M  V30 25424 C 2324.37 -2.0114 3.95041 0
M  V30 25425 H 2321.59 -0.159466 0.651776 0
M  V30 25426 H 2324.13 0.159451 2.03877 0
M  V30 25427 H 2322.29 -1.95158 3.34652 0
M  V30 25428 H 2322.7 -0.731643 5.19372 0
M  V30 25429 H 2324.18 -2.42558 4.95852 0
M  V30 25430 H 2324.65 -2.87267 3.32227 0
M  V30 25431 H 2325.26 -1.35782 4.03043 0
M  V30 25432 N 2323.57 -1.5645 -0.190064 0
M  V30 25433 C 2324.8 -1.85389 -0.929831 0
M  V30 25434 C 2325.22 -0.667735 -1.75849 0
M  V30 25435 O 2324.58 0.383428 -1.77199 0
M  V30 25436 C 2324.63 -3.12596 -1.79767 0
M  V30 25437 O 2323.73 -2.93502 -2.89708 0
M  V30 25438 H 2323.07 -0.610312 -0.261563 0
M  V30 25439 H 2325.6 -2.0368 -0.193861 0
M  V30 25440 H 2325.61 -3.43519 -2.20133 0
M  V30 25441 H 2324.29 -3.98546 -1.18885 0
M  V30 25442 H 2322.87 -2.73888 -2.5306 0
M  V30 25443 N 2325.05 0.45796 -1.50799 0
M  V30 25444 C 2325.96 1.57986 -1.73429 0
M  V30 25445 C 2326.98 1.62664 -0.617773 0
M  V30 25446 O 2328.15 1.80289 -0.897646 0
M  V30 25447 C 2325.22 2.94119 -1.83562 0
M  V30 25448 C 2324.28 2.99724 -3.0735 0
M  V30 25449 C 2323.51 4.29363 -3.16991 0
M  V30 25450 O 2323.74 5.20603 -2.33086 0
M  V30 25451 O 2322.67 4.4083 -4.0982 0
M  V30 25452 H 2326.5 1.41812 -2.68557 0
M  V30 25453 H 2324.08 0.638836 -1.35053 0
M  V30 25454 H 2325.96 3.74948 -1.92332 0
M  V30 25455 H 2324.64 3.10464 -0.916191 0
M  V30 25456 H 2323.54 2.17924 -3.04072 0
M  V30 25457 H 2324.88 2.88319 -3.98915 0
M  V30 25458 N 2326.53 1.40598 0.712035 0
M  V30 25459 C 2327.78 1.38793 1.46904 0
M  V30 25460 C 2328.1 -0.00776963 1.94998 0
M  V30 25461 O 2327.37 -0.963144 1.70588 0
M  V30 25462 H 2325.95 0.51083 0.545034 0
M  V30 25463 H 2328.61 1.75685 0.843851 0
M  V30 25464 H 2327.71 2.06501 2.34017 0
M  V30 25465 N 2328.01 -0.94462 1.26153 0
M  V30 25466 C 2328.94 -2.06017 1.09906 0
M  V30 25467 C 2329.92 -1.70099 0.00522528 0
M  V30 25468 O 2331.1 -1.93395 0.176617 0
M  V30 25469 C 2328.23 -3.39592 0.727622 0
M  V30 25470 C 2327.19 -3.89558 1.77281 0
M  V30 25471 C 2326.51 -5.19744 1.25578 0
M  V30 25472 C 2327.81 -4.14822 3.17365 0
M  V30 25473 H 2329.51 -2.19868 2.03221 0
M  V30 25474 H 2327.05 -1.0565 0.97847 0
M  V30 25475 H 2329.01 -4.17094 0.60085 0
M  V30 25476 H 2327.73 -3.25708 -0.241229 0
M  V30 25477 H 2326.39 -3.14234 1.88819 0
M  V30 25478 H 2326.04 -5.02237 0.276872 0
M  V30 25479 H 2325.74 -5.54144 1.95443 0
M  V30 25480 H 2327.26 -5.99833 1.14161 0
M  V30 25481 H 2328.68 -4.82949 3.08923 0
M  V30 25482 H 2327.07 -4.60497 3.84789 0
M  V30 25483 H 2328.14 -3.20728 3.63678 0
M  V30 25484 N 2329.49 -1.07901 -1.1487 0
M  V30 25485 C 2330.42 -0.725926 -2.21929 0
M  V30 25486 C 2331.4 0.289241 -1.67623 0
M  V30 25487 O 2332.58 0.160753 -1.93534 0
M  V30 25488 C 2329.71 -0.128917 -3.47061 0
M  V30 25489 C 2328.67 -1.07186 -4.14361 0
M  V30 25490 C 2327.99 -0.337322 -5.33635 0
M  V30 25491 C 2329.29 -2.40783 -4.63488 0
M  V30 25492 H 2330.99 -1.62102 -2.51721 0
M  V30 25493 H 2328.53 -0.780859 -1.2099 0
M  V30 25494 H 2330.48 0.130073 -4.21199 0
M  V30 25495 H 2329.21 0.801285 -3.16618 0
M  V30 25496 H 2327.87 -1.31586 -3.42171 0
M  V30 25497 H 2327.52 0.596518 -4.9945 0
M  V30 25498 H 2327.22 -0.96589 -5.79607 0
M  V30 25499 H 2328.74 -0.086264 -6.10539 0
M  V30 25500 H 2330.15 -2.20678 -5.29126 0
M  V30 25501 H 2328.55 -2.99285 -5.20143 0
M  V30 25502 H 2329.62 -3.02683 -3.78829 0
M  V30 25503 N 2330.96 1.31811 -0.863929 0
M  V30 25504 C 2332.21 1.96536 -0.470938 0
M  V30 25505 C 2332.53 1.68658 0.978741 0
M  V30 25506 O 2331.8 0.998746 1.68529 0
M  V30 25507 H 2330.38 0.727127 -0.171161 0
M  V30 25508 H 2333.04 1.60727 -1.10239 0
M  V30 25509 H 2332.14 3.05805 -0.62367 0
M  V30 25510 N 2332.44 0.62277 1.44773 0
M  V30 25511 C 2333.72 0.0552318 1.95522 0
M  V30 25512 C 2334.1 -1.4168 1.56493 0
M  V30 25513 O 2333.45 -2.12701 0.834885 0
M  V30 25514 C 2333.66 0.269303 3.47959 0
M  V30 25515 C 2335 0.158088 4.24306 0
M  V30 25516 O 2336.03 0.200224 3.55637 0
M  V30 25517 O 2334.89 0.0559654 5.46471 0
M  V30 25518 H 2331.98 -0.027087 0.826556 0
M  V30 25519 H 2334.53 0.693892 1.54865 0
M  V30 25520 H 2333.3 1.29106 3.69388 0
M  V30 25521 H 2332.92 -0.403896 3.95543 0
M  V30 25522 N 2333.92 -1.53367 0.362817 0
M  V30 25523 C 2334.85 -2.28577 -0.476936 0
M  V30 25524 C 2335.83 -1.30896 -1.08629 0
M  V30 25525 O 2337.02 -1.59763 -1.10406 0
M  V30 25526 C 2334.15 -3.07296 -1.61823 0
M  V30 25527 C 2333.1 -4.12642 -1.13626 0
M  V30 25528 C 2332.43 -4.79427 -2.36757 0
M  V30 25529 C 2333.73 -5.21824 -0.222969 0
M  V30 25530 H 2335.42 -2.99021 0.150526 0
M  V30 25531 H 2332.97 -1.43811 0.0738356 0
M  V30 25532 H 2334.92 -3.58657 -2.21231 0
M  V30 25533 H 2333.64 -2.34537 -2.27288 0
M  V30 25534 H 2332.3 -3.62222 -0.564881 0
M  V30 25535 H 2331.95 -4.03243 -3.00673 0
M  V30 25536 H 2331.65 -5.50612 -2.05182 0
M  V30 25537 H 2333.17 -5.33581 -2.96856 0
M  V30 25538 H 2334.59 -5.68704 -0.724445 0
M  V30 25539 H 2332.98 -6.001 0.00178349 0
M  V30 25540 H 2334.05 -4.79287 0.735638 0
M  V30 25541 N 2335.4 -0.091913 -1.57332 0
M  V30 25542 C 2336.68 0.614636 -1.85692 0
M  V30 25543 C 2337.06 1.86543 -0.988179 0
M  V30 25544 O 2336.4 2.28422 -0.0597456 0
M  V30 25545 C 2336.61 0.933067 -3.36296 0
M  V30 25546 C 2337.96 1.29789 -4.04277 0
M  V30 25547 O 2338.99 1.02418 -3.41158 0
M  V30 25548 O 2337.84 1.81038 -5.15643 0
M  V30 25549 H 2334.94 0.307248 -0.767807 0
M  V30 25550 H 2337.48 -0.124369 -1.69244 0
M  V30 25551 H 2336.26 0.0455716 -3.91273 0
M  V30 25552 H 2335.88 1.72816 -3.58079 0
M  V30 25553 N 2336.88 1.56548 0.181765 0
M  V30 25554 C 2338.1 1.85523 0.915914 0
M  V30 25555 C 2338.52 0.676047 1.76281 0
M  V30 25556 O 2337.88 -0.355045 1.79013 0
M  V30 25557 C 2337.93 3.13431 1.80121 0
M  V30 25558 O 2337.65 4.26803 0.988487 0
M  V30 25559 C 2339.15 3.55678 2.64591 0
M  V30 25560 H 2336.37 0.615765 0.266599 0
M  V30 25561 H 2338.91 2.03661 0.185004 0
M  V30 25562 H 2337.07 2.97149 2.48558 0
M  V30 25563 H 2337.48 4.99724 1.59299 0
M  V30 25564 H 2338.96 4.48107 3.22342 0
M  V30 25565 H 2339.43 2.79298 3.38953 0
M  V30 25566 H 2340.04 3.74535 2.01503 0
M  V30 25567 N 2338.35 -0.449957 1.5104 0
M  V30 25568 C 2339.26 -1.57064 1.74264 0
M  V30 25569 C 2340.28 -1.62334 0.626391 0
M  V30 25570 O 2341.46 -1.79811 0.907194 0
M  V30 25571 C 2338.52 -2.93141 1.8512 0
M  V30 25572 C 2337.58 -2.9809 3.08935 0
M  V30 25573 C 2336.82 -4.27676 3.19263 0
M  V30 25574 O 2337.04 -5.19359 2.35844 0
M  V30 25575 O 2335.97 -4.38651 4.12152 0
M  V30 25576 H 2339.8 -1.40386 2.69305 0
M  V30 25577 H 2337.38 -0.631665 1.3539 0
M  V30 25578 H 2339.27 -3.73923 1.94318 0
M  V30 25579 H 2337.94 -3.09973 0.932643 0
M  V30 25580 H 2336.85 -2.16309 3.05224 0
M  V30 25581 H 2338.18 -2.86199 4.00438 0
M  V30 25582 N 2339.83 -1.40974 -0.704569 0
M  V30 25583 C 2341.08 -1.39148 -1.46016 0
M  V30 25584 C 2341.39 -0.000623636 -1.956 0
M  V30 25585 O 2342.6 0.140252 -2.71138 0
M  V30 25586 C 2341.06 -2.44615 -2.63992 0
M  V30 25587 C 2340.66 -3.89565 -2.21231 0
M  V30 25588 C 2342.41 -2.51913 -3.41673 0
M  V30 25589 C 2340.32 -4.86603 -3.36112 0
M  V30 25590 H 2339.25 -0.517431 -0.548435 0
M  V30 25591 H 2341.9 -1.66759 -0.765754 0
M  V30 25592 H 2340.28 -2.10121 -3.35656 0
M  V30 25593 H 2341.45 -4.3326 -1.56915 0
M  V30 25594 H 2339.77 -3.85844 -1.56567 0
M  V30 25595 H 2342.36 -3.21597 -4.27176 0
M  V30 25596 H 2342.71 -1.5531 -3.86244 0
M  V30 25597 H 2343.24 -2.85453 -2.77059 0
M  V30 25598 H 2339.98 -5.84578 -2.96562 0
M  V30 25599 H 2339.5 -4.47564 -3.99307 0
M  V30 25600 H 2341.18 -5.06941 -4.0202 0
M  V30 25601 N 2341.31 0.937917 -1.26653 0
M  V30 25602 C 2342.54 1.72409 -1.15282 0
M  V30 25603 C 2342.96 1.85885 0.287833 0
M  V30 25604 O 2342.32 1.35145 1.20853 0
M  V30 25605 C 2342.37 3.10694 -1.83034 0
M  V30 25606 O 2341.47 3.96862 -1.12135 0
M  V30 25607 H 2340.81 0.528851 -0.401513 0
M  V30 25608 H 2343.34 1.17447 -1.67533 0
M  V30 25609 H 2343.35 3.61066 -1.89987 0
M  V30 25610 H 2342.03 3.00203 -2.87839 0
M  V30 25611 H 2340.6 3.5531 -1.13179 0
M  V30 25612 N 2342.79 1.08509 1.14296 0
M  V30 25613 C 2344.03 0.826471 1.85852 0
M  V30 25614 C 2344.39 -0.640846 1.81414 0
M  V30 25615 O 2343.68 -1.46516 1.23465 0
M  V30 25616 C 2343.88 1.28385 3.33545 0
M  V30 25617 C 2343.71 2.79409 3.52364 0
M  V30 25618 C 2342.48 3.4717 3.67153 0
M  V30 25619 C 2344.67 3.77579 3.49197 0
M  V30 25620 N 2342.66 4.86716 3.7414 0
M  V30 25621 C 2344.03 5.03027 3.62441 0
M  V30 25622 C 2346.08 3.70569 3.3254 0
M  V30 25623 C 2344.78 6.22296 3.6075 0
M  V30 25624 C 2346.81 4.89314 3.32153 0
M  V30 25625 C 2346.17 6.13601 3.45939 0
M  V30 25626 H 2342.27 0.355155 0.696699 0
M  V30 25627 H 2344.86 1.38365 1.36979 0
M  V30 25628 H 2343.03 0.754233 3.81006 0
M  V30 25629 H 2344.76 0.971538 3.92865 0
M  V30 25630 H 2341.51 2.97587 3.68428 0
M  V30 25631 H 2341.94 5.59377 3.81349 0
M  V30 25632 H 2346.58 2.75413 3.20792 0
M  V30 25633 H 2344.3 7.17761 3.71274 0
M  V30 25634 H 2347.88 4.85578 3.20476 0
M  V30 25635 H 2346.76 7.03945 3.45587 0
M  V30 25636 N 2344.27 -1.31351 0.870907 0
M  V30 25637 C 2345.23 -2.26779 0.332283 0
M  V30 25638 C 2346.23 -1.52253 -0.517275 0
M  V30 25639 O 2347.42 -1.71114 -0.326447 0
M  V30 25640 C 2344.55 -3.36786 -0.528007 0
M  V30 25641 H 2345.74 -2.75935 1.17473 0
M  V30 25642 H 2343.3 -1.42299 0.646575 0
M  V30 25643 H 2344.03 -2.92924 -1.39162 0
M  V30 25644 H 2343.82 -3.92018 0.0803271 0
M  V30 25645 H 2345.31 -4.0785 -0.897107 0
M  V30 25646 N 2345.74 -0.630439 -1.44441 0
M  V30 25647 C 2346.69 0.074895 -2.30678 0
M  V30 25648 C 2347.66 0.837477 -1.43442 0
M  V30 25649 O 2348.85 0.818653 -1.72345 0
M  V30 25650 C 2345.99 1.05097 -3.28708 0
M  V30 25651 C 2345.1 0.286878 -4.31046 0
M  V30 25652 C 2344.23 1.25471 -5.16169 0
M  V30 25653 C 2343.27 0.479736 -6.10217 0
M  V30 25654 N 2342.41 1.39799 -6.88041 0
M  V30 25655 H 2347.25 -0.666438 -2.90452 0
M  V30 25656 H 2344.79 -0.340429 -1.43107 0
M  V30 25657 H 2346.75 1.63025 -3.8403 0
M  V30 25658 H 2345.38 1.75944 -2.70635 0
M  V30 25659 H 2344.43 -0.40831 -3.78202 0
M  V30 25660 H 2345.74 -0.316745 -4.97793 0
M  V30 25661 H 2344.89 1.90534 -5.76005 0
M  V30 25662 H 2343.63 1.89225 -4.49494 0
M  V30 25663 H 2342.64 -0.184391 -5.49491 0
M  V30 25664 H 2343.86 -0.153084 -6.78927 0
M  V30 25665 H 2341.81 2.02276 -6.24036 0
M  V30 25666 H 2341.73 0.848376 -7.51225 0
M  V30 25667 H 2342.99 2.03749 -7.52401 0
M  V30 25668 N 2347.22 1.53172 -0.370945 0
M  V30 25669 C 2348.17 2.27422 0.488061 0
M  V30 25670 C 2349.16 1.30606 1.07882 0
M  V30 25671 O 2350.37 1.48214 1.0214 0
M  V30 25672 H 2346.75 0.731085 0.176121 0
M  V30 25673 H 2348.72 2.97971 -0.159867 0
M  V30 25674 C 2347.47 3.08022 1.613 0
M  V30 25675 H 2346.79 3.82366 1.16773 0
M  V30 25676 H 2348.23 3.63144 2.18866 0
M  V30 25677 C 2346.69 2.19193 2.55844 0
M  V30 25678 O 2347.22 1.80633 3.58796 0
M  V30 25679 N 2345.42 1.83719 2.25157 0
M  V30 25680 H 2344.97 2.15275 1.41472 0
M  V30 25681 H 2344.93 1.24572 2.88668 0
M  V30 25682 N 2348.7 0.100255 1.57281 0
M  V30 25683 C 2349.95 -0.563067 1.94827 0
M  V30 25684 C 2350.28 -1.67513 0.982505 0
M  V30 25685 O 2349.55 -1.94493 0.0164411 0
M  V30 25686 C 2349.84 -1.1134 3.42455 0
M  V30 25687 C 2349.69 -0.00604174 4.498 0
M  V30 25688 C 2351.01 -2.01018 3.9151 0
M  V30 25689 H 2348.13 -0.203209 0.708431 0
M  V30 25690 H 2350.77 0.172012 1.8922 0
M  V30 25691 H 2348.92 -1.73984 3.47364 0
M  V30 25692 H 2350.59 0.628437 4.56999 0
M  V30 25693 H 2348.84 0.659656 4.28755 0
M  V30 25694 H 2349.51 -0.432012 5.50307 0
M  V30 25695 H 2351.98 -1.48271 3.88786 0
M  V30 25696 H 2350.86 -2.36448 4.95362 0
M  V30 25697 H 2351.12 -2.92955 3.31104 0
M  V30 25698 N 2350.18 -1.56643 -0.17346 0
M  V30 25699 C 2351.11 -1.99273 -1.21706 0
M  V30 25700 C 2352.09 -0.867985 -1.46287 0
M  V30 25701 O 2353.28 -1.13391 -1.57658 0
M  V30 25702 C 2350.41 -2.35079 -2.55647 0
M  V30 25703 C 2349.36 -3.50494 -2.45639 0
M  V30 25704 C 2348.69 -3.72035 -3.84049 0
M  V30 25705 C 2349.99 -4.84011 -1.96293 0
M  V30 25706 H 2351.68 -2.86702 -0.8627 0
M  V30 25707 H 2349.23 -1.37934 -0.413547 0
M  V30 25708 H 2351.18 -2.63499 -3.28856 0
M  V30 25709 H 2349.9 -1.44557 -2.92867 0
M  V30 25710 H 2348.56 -3.22197 -1.74884 0
M  V30 25711 H 2348.21 -2.78808 -4.18659 0
M  V30 25712 H 2347.91 -4.49691 -3.78222 0
M  V30 25713 H 2349.43 -4.02854 -4.58847 0
M  V30 25714 H 2350.85 -5.11321 -2.59275 0
M  V30 25715 H 2349.24 -5.65288 -2.01419 0
M  V30 25716 H 2350.31 -4.76148 -0.917143 0
M  V30 25717 N 2351.66 0.44194 -1.51277 0
M  V30 25718 C 2352.6 1.53609 -1.72258 0
M  V30 25719 C 2353.57 1.56224 -0.564191 0
M  V30 25720 O 2354.76 1.73306 -0.798104 0
M  V30 25721 C 2351.9 2.91363 -1.84937 0
M  V30 25722 C 2351.01 2.98312 -3.12465 0
M  V30 25723 C 2350.15 4.2716 -3.15765 0
M  V30 25724 C 2349.19 4.2796 -4.37627 0
M  V30 25725 N 2348.32 5.48325 -4.38502 0
M  V30 25726 H 2353.16 1.35021 -2.65656 0
M  V30 25727 H 2350.7 0.655986 -1.31663 0
M  V30 25728 H 2352.66 3.71286 -1.90269 0
M  V30 25729 H 2351.29 3.08519 -0.949515 0
M  V30 25730 H 2350.34 2.1108 -3.16464 0
M  V30 25731 H 2351.65 2.94764 -4.02388 0
M  V30 25732 H 2350.81 5.15454 -3.19988 0
M  V30 25733 H 2349.55 4.33358 -2.23723 0
M  V30 25734 H 2348.55 3.3806 -4.33585 0
M  V30 25735 H 2349.78 4.23429 -5.30928 0
M  V30 25736 H 2347.72 5.55253 -3.49328 0
M  V30 25737 H 2347.64 5.46638 -5.22229 0
M  V30 25738 H 2348.91 6.38663 -4.46912 0
M  V30 25739 N 2353.14 1.41345 0.697083 0
M  V30 25740 C 2354.41 1.31112 1.45152 0
M  V30 25741 C 2354.79 -0.0620078 2.11009 0
M  V30 25742 O 2354.14 -1.07614 2.01572 0
M  V30 25743 C 2354.35 2.46342 2.47218 0
M  V30 25744 C 2355.7 2.87436 3.12515 0
M  V30 25745 O 2356.72 2.4607 2.57542 0
M  V30 25746 O 2355.58 3.58964 4.12077 0
M  V30 25747 H 2352.68 0.5159 0.646356 0
M  V30 25748 H 2355.22 1.53306 0.727689 0
M  V30 25749 H 2353.99 3.37977 1.97198 0
M  V30 25750 H 2353.62 2.26016 3.27112 0
M  V30 25751 N 2354.61 -0.931187 1.27148 0
M  V30 25752 C 2355.54 -2.0484 1.12085 0
M  V30 25753 C 2356.52 -1.70084 0.0232663 0
M  V30 25754 O 2357.71 -1.93197 0.197119 0
M  V30 25755 C 2354.84 -3.38801 0.763599 0
M  V30 25756 C 2353.79 -3.87656 1.81403 0
M  V30 25757 C 2353.12 -5.18383 1.31084 0
M  V30 25758 C 2354.42 -4.11432 3.21747 0
M  V30 25759 H 2356.11 -2.177 2.05541 0
M  V30 25760 H 2353.66 -1.04606 0.989621 0
M  V30 25761 H 2355.61 -4.16434 0.645055 0
M  V30 25762 H 2354.34 -3.25945 -0.20667 0
M  V30 25763 H 2353 -3.12213 1.92141 0
M  V30 25764 H 2352.64 -5.01916 0.330125 0
M  V30 25765 H 2352.34 -5.5204 2.01309 0
M  V30 25766 H 2353.87 -5.98588 1.20517 0
M  V30 25767 H 2355.28 -4.79645 3.14028 0
M  V30 25768 H 2353.68 -4.5639 3.89652 0
M  V30 25769 H 2354.75 -3.16852 3.67059 0
M  V30 25770 N 2356.09 -1.09114 -1.13719 0
M  V30 25771 C 2357 -0.739609 -2.22636 0
M  V30 25772 C 2358.02 0.257037 -1.72091 0
M  V30 25773 O 2359.19 0.0991801 -2.01156 0
M  V30 25774 C 2356.26 -0.16197 -3.46321 0
M  V30 25775 C 2355.32 -1.21415 -4.11773 0
M  V30 25776 C 2354.55 -0.663984 -5.29554 0
M  V30 25777 O 2354.78 0.514174 -5.68078 0
M  V30 25778 O 2353.71 -1.41748 -5.84971 0
M  V30 25779 H 2357.54 -1.6484 -2.55071 0
M  V30 25780 H 2355.12 -0.86531 -1.2179 0
M  V30 25781 H 2357 0.156999 -4.21107 0
M  V30 25782 H 2355.68 0.719877 -3.15594 0
M  V30 25783 H 2354.58 -1.58577 -3.38828 0
M  V30 25784 H 2355.92 -2.06853 -4.46624 0
M  V30 25785 N 2357.57 1.30887 -0.877861 0
M  V30 25786 C 2358.52 2.28318 -0.337578 0
M  V30 25787 C 2359.49 1.56075 0.568319 0
M  V30 25788 O 2360.67 1.84179 0.498266 0
M  V30 25789 C 2357.81 3.42179 0.448082 0
M  V30 25790 C 2356.92 4.29255 -0.486225 0
M  V30 25791 C 2356.06 5.30269 0.314334 0
M  V30 25792 C 2355.1 6.08994 -0.615898 0
M  V30 25793 N 2354.24 7.01942 0.148897 0
M  V30 25794 H 2359.08 2.73917 -1.1736 0
M  V30 25795 H 2356.61 1.34744 -0.590117 0
M  V30 25796 H 2358.57 4.06942 0.919445 0
M  V30 25797 H 2357.2 2.97668 1.24874 0
M  V30 25798 H 2356.25 3.64863 -1.07606 0
M  V30 25799 H 2357.56 4.84171 -1.19918 0
M  V30 25800 H 2356.72 6.00746 0.847863 0
M  V30 25801 H 2355.46 4.76029 1.06054 0
M  V30 25802 H 2354.46 5.37399 -1.16112 0
M  V30 25803 H 2355.69 6.6532 -1.36108 0
M  V30 25804 H 2353.63 6.50101 0.87777 0
M  V30 25805 H 2353.55 7.54314 -0.504565 0
M  V30 25806 H 2354.82 7.76672 0.6634 0
M  V30 25807 N 2359.05 0.638091 1.44105 0
M  V30 25808 C 2360.46 0.304314 1.56672 0
M  V30 25809 C 2360.66 -1.19225 1.62442 0
M  V30 25810 O 2359.72 -1.97657 1.57124 0
M  V30 25811 C 2361.03 1.00236 2.83502 0
M  V30 25812 C 2362.58 0.981168 2.97224 0
M  V30 25813 C 2363.06 1.65982 4.26865 0
M  V30 25814 N 2364.55 1.62674 4.33695 0
M  V30 25815 C 2365.28 2.12072 5.32741 0
M  V30 25816 N 2364.78 2.69692 6.38152 0
M  V30 25817 N 2366.57 2.0266 5.24295 0
M  V30 25818 H 2358.72 1.60945 1.38602 0
M  V30 25819 H 2360.98 0.675977 0.66465 0
M  V30 25820 H 2360.69 2.05735 2.85247 0
M  V30 25821 H 2360.56 0.544456 3.7325 0
M  V30 25822 H 2362.95 -0.065367 2.95028 0
M  V30 25823 H 2363.03 1.47763 2.08806 0
M  V30 25824 H 2362.68 2.70584 4.29822 0
M  V30 25825 H 2362.61 1.13813 5.14154 0
M  V30 25826 H 2365.1 1.20612 3.58136 0
M  V30 25827 H 2365.41 3.05099 7.10024 0
M  V30 25828 H 2363.76 2.73746 6.38818 0
M  V30 25829 H 2366.95 1.57361 4.40857 0
M  V30 25830 H 2367.12 2.41468 6.0133 0
M  V30 25831 N 2360.53 -1.52973 0.379063 0
M  V30 25832 C 2361.47 -2.26149 -0.461008 0
M  V30 25833 C 2362.44 -1.2735 -1.06635 0
M  V30 25834 O 2363.63 -1.56159 -1.09631 0
M  V30 25835 C 2360.77 -3.06405 -1.58777 0
M  V30 25836 C 2359.88 -4.20117 -1.00629 0
M  V30 25837 C 2359.02 -4.87787 -2.10326 0
M  V30 25838 C 2358.05 -5.93509 -1.49713 0
M  V30 25839 N 2357.19 -6.54816 -2.53299 0
M  V30 25840 H 2362.03 -2.97518 0.169482 0
M  V30 25841 H 2359.57 -1.4679 0.0954064 0
M  V30 25842 H 2361.53 -3.51219 -2.25168 0
M  V30 25843 H 2360.16 -2.37265 -2.18872 0
M  V30 25844 H 2359.21 -3.7969 -0.232266 0
M  V30 25845 H 2360.52 -4.96048 -0.523256 0
M  V30 25846 H 2359.67 -5.35854 -2.84509 0
M  V30 25847 H 2358.41 -4.11358 -2.61985 0
M  V30 25848 H 2357.42 -5.4479 -0.740502 0
M  V30 25849 H 2358.64 -6.71865 -0.988614 0
M  V30 25850 H 2356.59 -5.81232 -3.04146 0
M  V30 25851 H 2356.51 -7.26328 -2.09721 0
M  V30 25852 H 2357.77 -7.07529 -3.27143 0
M  V30 25853 N 2362 -0.108595 -1.57225 0
M  V30 25854 C 2362.97 0.831044 -2.13603 0
M  V30 25855 C 2363.97 1.20171 -1.06843 0
M  V30 25856 O 2365.16 1.12893 -1.32668 0
M  V30 25857 C 2362.29 2.12239 -2.66772 0
M  V30 25858 H 2363.48 0.341265 -2.97952 0
M  V30 25859 H 2361.03 0.140542 -1.55667 0
M  V30 25860 H 2361.77 2.65671 -1.85982 0
M  V30 25861 H 2361.55 1.86619 -3.44842 0
M  V30 25862 H 2363.04 2.79429 -3.10337 0
M  V30 25863 N 2363.48 1.56732 0.16515 0
M  V30 25864 C 2364.76 1.73226 0.908412 0
M  V30 25865 C 2365.14 0.671685 2.00129 0
M  V30 25866 O 2364.49 -0.312491 2.26353 0
M  V30 25867 C 2364.7 3.16647 1.4675 0
M  V30 25868 C 2366.04 3.77791 1.93802 0
M  V30 25869 O 2367.07 3.19963 1.56531 0
M  V30 25870 O 2365.93 4.79341 2.62478 0
M  V30 25871 H 2363.02 0.707626 0.428013 0
M  V30 25872 H 2365.57 1.69013 0.152496 0
M  V30 25873 H 2364.34 3.85325 0.681222 0
M  V30 25874 H 2363.96 3.25211 2.28743 0
M  V30 25875 N 2364.96 -0.433911 1.51509 0
M  V30 25876 C 2365.89 -1.53426 1.76019 0
M  V30 25877 C 2366.87 -1.58781 0.610139 0
M  V30 25878 O 2368.06 -1.74453 0.853207 0
M  V30 25879 C 2365.19 -2.91476 1.88836 0
M  V30 25880 C 2364.14 -3.00981 3.04293 0
M  V30 25881 C 2363.47 -4.41044 3.02298 0
M  V30 25882 C 2364.77 -2.74746 4.44198 0
M  V30 25883 H 2366.46 -1.33167 2.68155 0
M  V30 25884 H 2364.01 -0.639191 1.29036 0
M  V30 25885 H 2365.96 -3.68417 2.04565 0
M  V30 25886 H 2364.68 -3.12975 0.93351 0
M  V30 25887 H 2363.34 -2.26481 2.88274 0
M  V30 25888 H 2362.99 -4.59515 2.04584 0
M  V30 25889 H 2362.69 -4.48333 3.7983 0
M  V30 25890 H 2364.21 -5.19954 3.20125 0
M  V30 25891 H 2365.63 -3.41418 4.6055 0
M  V30 25892 H 2364.03 -2.93441 5.23462 0
M  V30 25893 H 2365.1 -1.70331 4.53999 0
M  V30 25894 N 2366.44 -1.41713 -0.689577 0
M  V30 25895 C 2367.39 -1.44245 -1.82472 0
M  V30 25896 C 2368.38 -0.319803 -1.66354 0
M  V30 25897 O 2369.59 -0.492119 -1.73142 0
M  V30 25898 H 2365.96 -0.451455 -0.601409 0
M  V30 25899 H 2367.93 -2.39902 -1.77453 0
M  V30 25900 C 2366.68 -1.34736 -3.20533 0
M  V30 25901 H 2366 -2.20411 -3.33555 0
M  V30 25902 H 2367.44 -1.40569 -4.0002 0
M  V30 25903 C 2365.9 -0.0603873 -3.36846 0
M  V30 25904 O 2366.43 0.892594 -3.91658 0
M  V30 25905 N 2364.64 0.0176528 -2.90595 0
M  V30 25906 H 2364.19 -0.758615 -2.46176 0
M  V30 25907 H 2364.14 0.878148 -3.01887 0
M  V30 25908 N 2367.92 0.924431 -1.2764 0
M  V30 25909 C 2369.14 1.70647 -1.16992 0
M  V30 25910 C 2369.56 1.86818 0.272836 0
M  V30 25911 O 2368.92 1.38755 1.18546 0
M  V30 25912 C 2368.97 3.10436 -1.85234 0
M  V30 25913 O 2368.69 2.95022 -3.23873 0
M  V30 25914 C 2370.19 4.04776 -1.80753 0
M  V30 25915 H 2367.41 0.533773 -0.406604 0
M  V30 25916 H 2369.95 1.15775 -1.68571 0
M  V30 25917 H 2368.11 3.62158 -1.37551 0
M  V30 25918 H 2368.52 3.8342 -3.57896 0
M  V30 25919 H 2370 5.00364 -2.3311 0
M  V30 25920 H 2370.47 4.32262 -0.777575 0
M  V30 25921 H 2371.08 3.5898 -2.28065 0
M  V30 25922 N 2369.39 1.09715 1.13139 0
M  V30 25923 C 2370.64 0.829883 1.83836 0
M  V30 25924 C 2370.96 -0.646696 1.846 0
M  V30 25925 O 2372.16 -1.0296 2.5122 0
M  V30 25926 C 2370.62 1.43472 3.30066 0
M  V30 25927 C 2370.23 2.94405 3.37682 0
M  V30 25928 C 2371.97 1.24652 4.05786 0
M  V30 25929 C 2369.88 3.4796 4.78202 0
M  V30 25930 H 2368.81 0.306789 0.688765 0
M  V30 25931 H 2371.46 1.32023 1.27445 0
M  V30 25932 H 2369.84 0.872064 3.86278 0
M  V30 25933 H 2371.01 3.56923 2.91449 0
M  V30 25934 H 2369.33 3.12293 2.7543 0
M  V30 25935 H 2371.93 1.62115 5.09532 0
M  V30 25936 H 2372.27 0.18743 4.15878 0
M  V30 25937 H 2372.8 1.77685 3.55912 0
M  V30 25938 H 2369.54 4.53503 4.73303 0
M  V30 25939 H 2369.06 2.90208 5.24919 0
M  V30 25940 H 2370.74 3.45341 5.47127 0
M  V30 25941 N 2370.87 -1.30419 0.88479 0
M  V30 25942 C 2372.1 -2.00309 0.51808 0
M  V30 25943 C 2372.52 -1.66326 -0.893378 0
M  V30 25944 O 2371.87 -0.90029 -1.58748 0
M  V30 25945 C 2371.92 -3.54988 0.68306 0
M  V30 25946 O 2371.64 -3.87761 2.03895 0
M  V30 25947 C 2373.15 -4.42148 0.319317 0
M  V30 25948 H 2370.37 -0.640414 0.200277 0
M  V30 25949 H 2372.91 -1.66308 1.19004 0
M  V30 25950 H 2371.06 -3.87356 0.0584733 0
M  V30 25951 H 2371.48 -4.82462 2.05744 0
M  V30 25952 H 2372.95 -5.49859 0.485652 0
M  V30 25953 H 2373.43 -4.32876 -0.74264 0
M  V30 25954 H 2374.04 -4.15225 0.92022 0
M  V30 25955 N 2372.35 -0.645724 -1.43764 0
M  V30 25956 C 2373.26 0.0512544 -2.34544 0
M  V30 25957 C 2374.28 0.820193 -1.53456 0
M  V30 25958 O 2375.45 0.769143 -1.86135 0
M  V30 25959 C 2372.52 1.01081 -3.31638 0
M  V30 25960 C 2371.58 0.239637 -4.28631 0
M  V30 25961 C 2370.81 1.15349 -5.21086 0
M  V30 25962 O 2371.03 2.39259 -5.17794 0
M  V30 25963 O 2369.97 0.629932 -5.98595 0
M  V30 25964 H 2373.79 -0.69577 -2.95623 0
M  V30 25965 H 2371.38 -0.405908 -1.4378 0
M  V30 25966 H 2373.26 1.56247 -3.91363 0
M  V30 25967 H 2371.94 1.73819 -2.73072 0
M  V30 25968 H 2370.84 -0.355422 -3.72408 0
M  V30 25969 H 2372.18 -0.448023 -4.90157 0
M  V30 25970 N 2373.83 1.5277 -0.38717 0
M  V30 25971 C 2375.05 2.06449 0.198371 0
M  V30 25972 C 2375.48 1.25719 1.39916 0
M  V30 25973 O 2374.84 0.281688 1.79098 0
M  V30 25974 C 2374.88 3.56399 0.54883 0
M  V30 25975 O 2373.99 3.78255 1.64308 0
M  V30 25976 H 2373.33 0.663575 0.0237615 0
M  V30 25977 H 2375.86 1.96956 -0.554023 0
M  V30 25978 H 2375.87 3.99803 0.813742 0
M  V30 25979 H 2374.54 4.14596 -0.329078 0
M  V30 25980 H 2373.12 3.46741 1.37205 0
M  V30 25981 N 2375.31 0.116931 1.57166 0
M  V30 25982 C 2376.53 -0.552675 1.99901 0
M  V30 25983 C 2376.96 -1.59562 0.996067 0
M  V30 25984 O 2376.31 -1.81271 -0.0325241 0
M  V30 25985 C 2376.36 -1.15736 3.41522 0
M  V30 25986 O 2375.47 -2.27292 3.4411 0
M  V30 25987 H 2374.81 -0.138246 0.649449 0
M  V30 25988 H 2377.34 0.204795 2.03572 0
M  V30 25989 H 2377.35 -1.49339 3.79686 0
M  V30 25990 H 2376.02 -0.393421 4.14035 0
M  V30 25991 H 2374.6 -1.95144 3.17763 0
M  V30 25992 N 2376.78 -1.56818 -0.156836 0
M  V30 25993 C 2377.75 -1.96624 -1.17777 0
M  V30 25994 C 2378.75 -0.851579 -1.36399 0
M  V30 25995 O 2379.94 -1.11838 -1.33559 0
M  V30 25996 C 2377.07 -2.27365 -2.54004 0
M  V30 25997 H 2378.26 -2.87997 -0.836513 0
M  V30 25998 H 2375.82 -1.511 -0.399823 0
M  V30 25999 H 2376.55 -1.38753 -2.93118 0
M  V30 26000 H 2376.34 -3.08627 -2.4185 0
M  V30 26001 H 2377.83 -2.59034 -3.27553 0
M  V30 26002 N 2378.26 0.425871 -1.51737 0
M  V30 26003 C 2379.23 1.50029 -1.73274 0
M  V30 26004 C 2380.23 1.49079 -0.602665 0
M  V30 26005 O 2381.42 1.50899 -0.870357 0
M  V30 26006 C 2378.55 2.8952 -1.79975 0
M  V30 26007 H 2379.74 1.32232 -2.69174 0
M  V30 26008 H 2377.29 0.655295 -1.419 0
M  V30 26009 H 2378.03 3.12708 -0.859296 0
M  V30 26010 H 2377.81 2.91614 -2.62114 0
M  V30 26011 H 2379.3 3.67441 -1.98437 0
M  V30 26012 N 2379.74 1.42077 0.682052 0
M  V30 26013 C 2380.67 1.4777 1.80793 0
M  V30 26014 C 2381.65 0.334983 1.66769 0
M  V30 26015 O 2382.84 0.548297 1.86299 0
M  V30 26016 C 2379.97 1.37235 3.19036 0
M  V30 26017 C 2378.92 2.49459 3.47785 0
M  V30 26018 C 2378.25 2.23983 4.85526 0
M  V30 26019 C 2379.55 3.91783 3.45404 0
M  V30 26020 H 2381.24 2.42 1.76285 0
M  V30 26021 H 2378.79 1.16477 0.846701 0
M  V30 26022 H 2380.74 1.39828 3.97525 0
M  V30 26023 H 2379.46 0.394964 3.24203 0
M  V30 26024 H 2378.12 2.46171 2.71653 0
M  V30 26025 H 2377.77 1.24556 4.87334 0
M  V30 26026 H 2377.47 2.99193 5.05725 0
M  V30 26027 H 2378.99 2.28314 5.66308 0
M  V30 26028 H 2380.41 3.96712 4.13875 0
M  V30 26029 H 2378.81 4.66784 3.77137 0
M  V30 26030 H 2379.88 4.1897 2.44115 0
M  V30 26031 N 2381.22 -0.917649 1.28129 0
M  V30 26032 C 2382.15 -2.02415 1.0752 0
M  V30 26033 C 2383.16 -1.62776 0.0281385 0
M  V30 26034 O 2384.35 -1.76434 0.270779 0
M  V30 26035 C 2381.45 -3.33346 0.611015 0
M  V30 26036 C 2380.63 -4.01621 1.73262 0
M  V30 26037 C 2379.69 -5.10831 1.26247 0
M  V30 26038 O 2378.71 -5.34244 1.96399 0
M  V30 26039 N 2379.91 -5.80369 0.12355 0
M  V30 26040 H 2382.68 -2.20654 2.0281 0
M  V30 26041 H 2380.24 -1.08869 1.19829 0
M  V30 26042 H 2382.23 -4.03729 0.280172 0
M  V30 26043 H 2380.8 -3.11607 -0.248925 0
M  V30 26044 H 2380.02 -3.24838 2.23325 0
M  V30 26045 H 2381.31 -4.43982 2.48511 0
M  V30 26046 H 2380.71 -5.63812 -0.461748 0
M  V30 26047 H 2379.26 -6.51632 -0.148044 0
M  V30 26048 N 2382.7 -1.10314 -1.12555 0
M  V30 26049 C 2383.65 -0.745668 -2.20324 0
M  V30 26050 C 2384.64 0.257601 -1.6743 0
M  V30 26051 O 2385.85 0.118101 -1.79612 0
M  V30 26052 H 2382.22 -0.223195 -0.718114 0
M  V30 26053 H 2384.19 -1.66351 -2.4773 0
M  V30 26054 C 2382.94 -0.192323 -3.47168 0
M  V30 26055 H 2382.26 -0.955543 -3.88213 0
M  V30 26056 H 2383.7 0.0197529 -4.23995 0
M  V30 26057 C 2382.16 1.07466 -3.193 0
M  V30 26058 O 2382.69 2.15639 -3.38914 0
M  V30 26059 N 2380.9 0.992799 -2.73115 0
M  V30 26060 H 2380.45 0.112429 -2.57355 0
M  V30 26061 H 2380.4 1.84122 -2.54846 0
M  V30 26062 N 2384.18 1.29948 -0.891694 0
M  V30 26063 C 2385.11 2.3039 -0.379838 0
M  V30 26064 C 2386.09 1.61271 0.540891 0
M  V30 26065 O 2387.27 1.88835 0.453319 0
M  V30 26066 C 2384.4 3.44982 0.400593 0
M  V30 26067 C 2383.36 4.25845 -0.42898 0
M  V30 26068 C 2382.68 5.32555 0.478463 0
M  V30 26069 C 2383.98 4.94724 -1.67467 0
M  V30 26070 H 2385.68 2.73452 -1.21919 0
M  V30 26071 H 2383.22 1.31461 -0.587698 0
M  V30 26072 H 2385.17 4.14317 0.769361 0
M  V30 26073 H 2383.9 3.00742 1.27365 0
M  V30 26074 H 2382.56 3.58207 -0.779974 0
M  V30 26075 H 2382.21 4.84561 1.34943 0
M  V30 26076 H 2381.91 5.87555 -0.0728465 0
M  V30 26077 H 2383.43 6.04744 0.843599 0
M  V30 26078 H 2384.84 5.5654 -1.3761 0
M  V30 26079 H 2383.24 5.5962 -2.16668 0
M  V30 26080 H 2384.31 4.20468 -2.41525 0
M  V30 26081 N 2385.65 0.653339 1.4342 0
M  V30 26082 C 2386.9 0.164111 2.01031 0
M  V30 26083 C 2387.22 -1.22923 1.52149 0
M  V30 26084 O 2388.42 -1.81368 2.02035 0
M  V30 26085 C 2386.88 0.242583 3.59082 0
M  V30 26086 C 2386.49 1.63862 4.16957 0
M  V30 26087 C 2388.23 -0.189035 4.24079 0
M  V30 26088 C 2386.14 1.67102 5.67302 0
M  V30 26089 H 2385.07 0.0575901 0.751797 0
M  V30 26090 H 2387.72 0.815391 1.64389 0
M  V30 26091 H 2386.1 -0.476207 3.93126 0
M  V30 26092 H 2387.27 2.38278 3.94412 0
M  V30 26093 H 2385.59 2.01623 3.64331 0
M  V30 26094 H 2388.19 -0.184681 5.34381 0
M  V30 26095 H 2388.53 -1.22049 3.98007 0
M  V30 26096 H 2389.06 0.478008 3.94918 0
M  V30 26097 H 2385.8 2.68157 5.98141 0
M  V30 26098 H 2385.32 0.970118 5.91903 0
M  V30 26099 H 2387 1.41481 6.31341 0
M  V30 26100 N 2387.13 -1.52563 0.395266 0
M  V30 26101 C 2388.04 -2.30356 -0.444191 0
M  V30 26102 C 2389.06 -1.37513 -1.06612 0
M  V30 26103 O 2390.23 -1.70585 -1.07064 0
M  V30 26104 C 2387.3 -3.09967 -1.5531 0
M  V30 26105 C 2386.36 -4.18528 -0.95566 0
M  V30 26106 C 2385.59 -4.94333 -2.01173 0
M  V30 26107 O 2385.82 -4.70291 -3.22773 0
M  V30 26108 O 2384.75 -5.7953 -1.62569 0
M  V30 26109 H 2388.58 -3.03107 0.18972 0
M  V30 26110 H 2386.16 -1.48553 0.158826 0
M  V30 26111 H 2388.04 -3.59586 -2.19718 0
M  V30 26112 H 2386.72 -2.40024 -2.17187 0
M  V30 26113 H 2385.62 -3.7309 -0.274678 0
M  V30 26114 H 2386.96 -4.90723 -0.381023 0
M  V30 26115 N 2388.61 -0.125265 -1.57101 0
M  V30 26116 C 2389.86 0.530164 -1.95022 0
M  V30 26117 C 2390.18 1.66814 -1.00985 0
M  V30 26118 O 2389.45 1.95784 -0.0673037 0
M  V30 26119 H 2388.03 0.19884 -0.72005 0
M  V30 26120 H 2390.69 -0.195674 -1.93915 0
M  V30 26121 H 2389.79 0.920629 -2.98213 0
M  V30 26122 N 2390.09 1.56899 0.148518 0
M  V30 26123 C 2391.31 1.87789 0.880352 0
M  V30 26124 C 2391.74 0.714124 1.74017 0
M  V30 26125 O 2391.1 -0.336312 1.78153 0
M  V30 26126 C 2391.14 3.17252 1.71416 0
M  V30 26127 O 2390.25 3.01079 2.81824 0
M  V30 26128 H 2389.59 0.617032 0.24529 0
M  V30 26129 H 2392.12 2.04122 0.139791 0
M  V30 26130 H 2392.13 3.49235 2.10948 0
M  V30 26131 H 2390.8 4.01558 1.08277 0
M  V30 26132 H 2389.38 2.80501 2.4571 0
M  V30 26133 N 2391.57 -0.417818 1.51961 0
M  V30 26134 C 2392.48 -1.53333 1.77556 0
M  V30 26135 C 2393.49 -1.60969 0.660684 0
M  V30 26136 O 2394.67 -1.77846 0.945131 0
M  V30 26137 C 2391.73 -2.89148 1.91296 0
M  V30 26138 C 2390.79 -2.9147 3.15189 0
M  V30 26139 C 2390.03 -4.20808 3.28263 0
M  V30 26140 O 2390.25 -5.1424 2.46807 0
M  V30 26141 O 2389.18 -4.2981 4.21364 0
M  V30 26142 H 2393.01 -1.34642 2.72223 0
M  V30 26143 H 2390.59 -0.602804 1.36699 0
M  V30 26144 H 2392.48 -3.69717 2.02206 0
M  V30 26145 H 2391.15 -3.07925 0.998183 0
M  V30 26146 H 2390.06 -2.09786 3.09743 0
M  V30 26147 H 2391.39 -2.77641 4.06419 0
M  V30 26148 N 2393.04 -1.42436 -0.674508 0
M  V30 26149 C 2394.45 -1.38216 -1.25512 0
M  V30 26150 C 2394.81 -0.0755809 -1.96054 0
M  V30 26151 O 2393.93 0.825665 -2.00029 0
M  V30 26152 C 2394.53 -2.50361 -2.28265 0
M  V30 26153 C 2393.08 -2.49472 -2.81852 0
M  V30 26154 C 2392.23 -2.29137 -1.56178 0
M  V30 26155 H 2395.18 -1.51646 -0.467875 0
M  V30 26156 H 2395.2 -2.20629 -3.10005 0
M  V30 26157 H 2394.72 -3.45442 -1.76894 0
M  V30 26158 H 2392.82 -1.5821 -3.37343 0
M  V30 26159 H 2392.93 -3.46521 -3.30848 0
M  V30 26160 H 2391.29 -1.77403 -1.82758 0
M  V30 26161 H 2392.08 -3.26274 -1.06773 0
M  V30 26162 N 2394.52 0.910841 -1.28614 0
M  V30 26163 C 2395.77 1.65486 -1.15314 0
M  V30 26164 C 2396.08 1.93333 0.296965 0
M  V30 26165 O 2397.29 2.65848 0.551121 0
M  V30 26166 C 2395.75 2.98134 -2.01604 0
M  V30 26167 C 2395.35 2.77924 -3.51372 0
M  V30 26168 C 2397.1 3.76021 -1.96999 0
M  V30 26169 C 2395 4.0623 -4.29804 0
M  V30 26170 H 2393.93 0.620771 -0.427971 0
M  V30 26171 H 2396.59 1.01054 -1.53167 0
M  V30 26172 H 2394.97 3.63716 -1.56609 0
M  V30 26173 H 2396.14 2.21003 -4.04344 0
M  V30 26174 H 2394.46 2.13446 -3.57533 0
M  V30 26175 H 2397.05 4.7113 -2.52864 0
M  V30 26176 H 2397.4 4.05376 -0.947401 0
M  V30 26177 H 2397.93 3.17262 -2.39979 0
M  V30 26178 H 2394.67 3.82046 -5.32655 0
M  V30 26179 H 2394.19 4.62751 -3.81604 0
M  V30 26180 H 2395.87 4.74465 -4.39877 0
M  V30 26181 N 2396 1.10909 1.11969 0
M  V30 26182 C 2396.93 0.784511 2.19927 0
M  V30 26183 C 2397.91 -0.244697 1.68331 0
M  V30 26184 O 2399.1 -0.109384 1.93892 0
M  V30 26185 C 2396.23 0.220888 3.46597 0
M  V30 26186 C 2395.18 1.18134 4.11374 0
M  V30 26187 C 2394.51 0.478688 5.32553 0
M  V30 26188 C 2395.81 2.52987 4.56941 0
M  V30 26189 H 2397.5 1.68719 2.47334 0
M  V30 26190 H 2395.05 0.812663 1.18877 0
M  V30 26191 H 2397 -0.0183538 4.21396 0
M  V30 26192 H 2395.72 -0.717057 3.18631 0
M  V30 26193 H 2394.38 1.40612 3.38561 0
M  V30 26194 H 2394.03 -0.463888 5.00856 0
M  V30 26195 H 2393.73 1.11922 5.76842 0
M  V30 26196 H 2395.25 0.248107 6.10096 0
M  V30 26197 H 2396.67 2.3463 5.23089 0
M  V30 26198 H 2395.07 3.12971 5.12025 0
M  V30 26199 H 2396.14 3.1262 3.70671 0
M  V30 26200 N 2397.48 -1.29474 0.898573 0
M  V30 26201 C 2398.39 -2.31502 0.380014 0
M  V30 26202 C 2399.4 -1.65901 -0.524666 0
M  V30 26203 O 2400.58 -1.97088 -0.414517 0
M  V30 26204 C 2397.65 -3.44555 -0.385078 0
M  V30 26205 C 2396.71 -4.25749 0.550989 0
M  V30 26206 C 2395.94 -5.33404 -0.177685 0
M  V30 26207 O 2396.16 -5.52907 -1.40179 0
M  V30 26208 O 2395.1 -5.99989 0.479212 0
M  V30 26209 H 2398.92 -2.77835 1.22644 0
M  V30 26210 H 2396.51 -1.3389 0.662858 0
M  V30 26211 H 2398.39 -4.13389 -0.817769 0
M  V30 26212 H 2397.06 -3.00332 -1.20758 0
M  V30 26213 H 2395.97 -3.59562 1.03277 0
M  V30 26214 H 2397.3 -4.73612 1.33987 0
M  V30 26215 N 2398.96 -0.660936 -1.43071 0
M  V30 26216 C 2399.87 0.026375 -2.34585 0
M  V30 26217 C 2400.88 0.80387 -1.54318 0
M  V30 26218 O 2402.06 0.749358 -1.8694 0
M  V30 26219 C 2399.12 0.975581 -3.32691 0
M  V30 26220 C 2398.18 0.194161 -4.28861 0
M  V30 26221 C 2397.42 1.09815 -5.2228 0
M  V30 26222 O 2397.64 2.33754 -5.20303 0
M  V30 26223 O 2396.57 0.566408 -5.99229 0
M  V30 26224 H 2400.4 -0.727085 -2.94868 0
M  V30 26225 H 2397.99 -0.421135 -1.43342 0
M  V30 26226 H 2399.87 1.52087 -3.92998 0
M  V30 26227 H 2398.54 1.70913 -2.74901 0
M  V30 26228 H 2397.45 -0.394901 -3.7201 0
M  V30 26229 H 2398.78 -0.499985 -4.89654 0
M  V30 26230 N 2400.43 1.52351 -0.403352 0
M  V30 26231 C 2401.85 1.59509 -0.0539561 0
M  V30 26232 C 2402.05 1.41655 1.43304 0
M  V30 26233 O 2401.11 1.24059 2.19922 0
M  V30 26234 C 2402.42 2.95744 -0.543706 0
M  V30 26235 C 2403.97 3.08961 -0.50118 0
M  V30 26236 C 2404.44 4.47668 -0.967345 0
M  V30 26237 N 2405.93 4.53892 -0.923929 0
M  V30 26238 C 2406.67 5.59478 -1.25588 0
M  V30 26239 N 2406.16 6.72643 -1.65901 0
M  V30 26240 N 2407.96 5.49656 -1.17623 0
M  V30 26241 H 2400.11 1.62204 -1.37126 0
M  V30 26242 H 2402.37 0.76275 -0.562953 0
M  V30 26243 H 2402.08 3.14071 -1.5828 0
M  V30 26244 H 2401.95 3.77167 0.0497379 0
M  V30 26245 H 2404.34 2.90322 0.528858 0
M  V30 26246 H 2404.42 2.29458 -1.1306 0
M  V30 26247 H 2404.06 4.67049 -1.99568 0
M  V30 26248 H 2403.99 5.25658 -0.31479 0
M  V30 26249 H 2406.48 3.72654 -0.627469 0
M  V30 26250 H 2406.8 7.49192 -1.89556 0
M  V30 26251 H 2405.14 6.73939 -1.69799 0
M  V30 26252 H 2408.33 4.60129 -0.860196 0
M  V30 26253 H 2408.51 6.31838 -1.43823 0
M  V30 26254 N 2401.91 0.133594 1.57033 0
M  V30 26255 C 2402.84 -0.807528 2.19092 0
M  V30 26256 C 2403.82 -1.26679 1.13519 0
M  V30 26257 O 2405.01 -1.32677 1.41812 0
M  V30 26258 C 2402.14 -2.05207 2.80191 0
M  V30 26259 C 2401.09 -1.73008 3.91475 0
M  V30 26260 C 2400.42 -3.04614 4.39448 0
M  V30 26261 C 2401.72 -0.987077 5.12888 0
M  V30 26262 H 2403.41 -0.290351 2.97989 0
M  V30 26263 H 2400.96 -0.138214 1.43335 0
M  V30 26264 H 2402.91 -2.71515 3.22269 0
M  V30 26265 H 2401.64 -2.59275 1.98606 0
M  V30 26266 H 2400.29 -1.09083 3.49995 0
M  V30 26267 H 2399.94 -3.56645 3.54702 0
M  V30 26268 H 2399.64 -2.83838 5.145 0
M  V30 26269 H 2401.17 -3.72016 4.84187 0
M  V30 26270 H 2402.58 -1.55198 5.51894 0
M  V30 26271 H 2400.98 -0.879746 5.93616 0
M  V30 26272 H 2402.05 0.0236139 4.84894 0
M  V30 26273 N 2403.39 -1.56975 -0.140195 0
M  V30 26274 C 2404.63 -1.8553 -0.857791 0
M  V30 26275 C 2404.99 -0.7188 -1.78037 0
M  V30 26276 O 2406.2 -0.885565 -2.53794 0
M  V30 26277 C 2404.47 -3.1928 -1.60609 0
M  V30 26278 S 2406.03 -3.69409 -2.36818 0
M  V30 26279 H 2402.84 -0.650627 -0.286716 0
M  V30 26280 H 2405.45 -1.95147 -0.117374 0
M  V30 26281 H 2404.15 -3.99957 -0.919924 0
M  V30 26282 H 2403.68 -3.12685 -2.38729 0
M  V30 26283 H 2405.7 -3.39216 -3.62142 0
M  V30 26284 N 2404.87 0.409753 -1.5218 0
M  V30 26285 C 2406.11 1.15848 -1.66455 0
M  V30 26286 C 2406.45 1.90182 -0.393005 0
M  V30 26287 O 2405.72 1.84735 0.608547 0
M  V30 26288 C 2406.01 2.15344 -2.88616 0
M  V30 26289 C 2405.86 1.44911 -4.25818 0
M  V30 26290 C 2407.18 3.1602 -3.06299 0
M  V30 26291 H 2404.3 0.419794 -0.605757 0
M  V30 26292 H 2406.94 0.444282 -1.84733 0
M  V30 26293 H 2405.09 2.7625 -2.73163 0
M  V30 26294 H 2406.76 0.871285 -4.52997 0
M  V30 26295 H 2405 0.751084 -4.27248 0
M  V30 26296 H 2405.67 2.17507 -5.07341 0
M  V30 26297 H 2408.15 2.6519 -3.20646 0
M  V30 26298 H 2407.03 3.82903 -3.93289 0
M  V30 26299 H 2407.29 3.83711 -2.19586 0
M  V30 26300 N 2406.35 1.42792 0.666944 0
M  V30 26301 C 2407.28 1.4968 1.79216 0
M  V30 26302 C 2408.26 0.352652 1.66404 0
M  V30 26303 O 2409.44 0.568026 1.85707 0
M  V30 26304 C 2406.57 1.40611 3.17562 0
M  V30 26305 C 2405.53 2.53133 3.45119 0
M  V30 26306 C 2404.85 2.2912 4.83123 0
M  V30 26307 C 2406.15 3.95424 3.41229 0
M  V30 26308 H 2407.85 2.43856 1.73709 0
M  V30 26309 H 2405.39 1.17369 0.834299 0
M  V30 26310 H 2407.35 1.44036 3.9602 0
M  V30 26311 H 2406.07 0.429327 3.23766 0
M  V30 26312 H 2404.73 2.49039 2.69027 0
M  V30 26313 H 2404.38 1.29717 4.85986 0
M  V30 26314 H 2404.08 3.0454 5.02523 0
M  V30 26315 H 2405.6 2.34307 5.63855 0
M  V30 26316 H 2407.01 4.0108 4.09644 0
M  V30 26317 H 2405.41 4.70758 3.72165 0
M  V30 26318 H 2406.48 4.21536 2.39657 0
M  V30 26319 N 2407.82 -0.904008 1.29095 0
M  V30 26320 C 2408.77 -2.02899 1.13731 0
M  V30 26321 C 2409.77 -1.69314 0.054015 0
M  V30 26322 O 2410.97 -1.78729 0.213501 0
M  V30 26323 H 2407.35 -0.664963 0.351182 0
M  V30 26324 H 2409.32 -2.12997 2.08985 0
M  V30 26325 C 2408.07 -3.37743 0.826126 0
M  V30 26326 H 2407.39 -3.64086 1.6517 0
M  V30 26327 H 2408.83 -4.17158 0.758633 0
M  V30 26328 C 2407.29 -3.33599 -0.470483 0
M  V30 26329 O 2407.82 -3.7273 -1.49785 0
M  V30 26330 N 2406.03 -2.86696 -0.474762 0
M  V30 26331 H 2405.57 -2.55047 0.361737 0
M  V30 26332 H 2405.53 -2.84305 -1.34231 0
M  V30 26333 N 2409.3 -1.11501 -1.11379 0
M  V30 26334 C 2410.27 -0.777191 -2.15621 0
M  V30 26335 C 2411.27 0.203751 -1.59504 0
M  V30 26336 O 2412.46 -0.0208126 -1.74188 0
M  V30 26337 C 2409.59 -0.153176 -3.40556 0
M  V30 26338 H 2410.78 -1.70065 -2.47018 0
M  V30 26339 H 2408.33 -0.916974 -1.26575 0
M  V30 26340 H 2409.07 0.780481 -3.14768 0
M  V30 26341 H 2408.85 -0.859305 -3.82568 0
M  V30 26342 H 2410.34 0.067031 -4.17546 0
M  V30 26343 N 2410.78 1.28995 -0.905426 0
M  V30 26344 C 2412.03 1.94939 -0.533227 0
M  V30 26345 C 2412.35 1.71687 0.924588 0
M  V30 26346 O 2411.62 1.05186 1.65266 0
M  V30 26347 H 2410.2 0.721313 -0.194207 0
M  V30 26348 H 2412.86 1.57139 -1.15297 0
M  V30 26349 H 2411.96 3.03666 -0.720644 0
M  V30 26350 N 2412.26 0.668514 1.42719 0
M  V30 26351 C 2413.51 0.197111 2.02443 0
M  V30 26352 C 2413.86 -1.18106 1.51884 0
M  V30 26353 O 2413.15 -1.78013 0.708649 0
M  V30 26354 C 2413.35 0.164562 3.57021 0
M  V30 26355 C 2413.18 1.53804 4.22581 0
M  V30 26356 C 2411.95 2.13425 4.58015 0
M  V30 26357 C 2414.14 2.47949 4.50584 0
M  V30 26358 N 2412.13 3.43619 5.08723 0
M  V30 26359 C 2413.5 3.62791 5.02775 0
M  V30 26360 C 2415.55 2.46558 4.32566 0
M  V30 26361 C 2414.26 4.76487 5.38844 0
M  V30 26362 C 2416.28 3.59346 4.69706 0
M  V30 26363 C 2415.64 4.72915 5.22044 0
M  V30 26364 H 2411.74 0.116907 0.773212 0
M  V30 26365 H 2414.33 0.880138 1.73671 0
M  V30 26366 H 2412.5 -0.487857 3.85324 0
M  V30 26367 H 2414.23 -0.319137 4.0344 0
M  V30 26368 H 2410.98 1.65977 4.43563 0
M  V30 26369 H 2411.41 4.10283 5.38514 0
M  V30 26370 H 2416.05 1.59985 3.91363 0
M  V30 26371 H 2413.77 5.63741 5.78983 0
M  V30 26372 H 2417.35 3.5949 4.57447 0
M  V30 26373 H 2416.23 5.58746 5.50248 0
M  V30 26374 N 2413.74 -1.52135 0.411426 0
M  V30 26375 C 2414.96 -2.06739 -0.165502 0
M  V30 26376 C 2415.39 -1.27929 -1.37898 0
M  V30 26377 O 2414.75 -0.310146 -1.78628 0
M  V30 26378 C 2414.79 -3.57227 -0.492061 0
M  V30 26379 O 2413.9 -3.80821 -1.5827 0
M  V30 26380 H 2413.24 -0.663869 -0.0132016 0
M  V30 26381 H 2415.77 -1.9605 0.585287 0
M  V30 26382 H 2415.78 -4.01047 -0.750033 0
M  V30 26383 H 2414.45 -4.1402 0.394995 0
M  V30 26384 H 2413.03 -3.4888 -1.31671 0
M  V30 26385 N 2415.22 -0.14192 -1.5696 0
M  V30 26386 C 2416.63 0.214532 -1.58152 0
M  V30 26387 C 2416.83 1.65047 -1.15593 0
M  V30 26388 O 2415.89 2.37624 -0.853874 0
M  V30 26389 C 2417.2 -0.0396105 -3.00674 0
M  V30 26390 C 2418.75 0.0244978 -3.1299 0
M  V30 26391 C 2419.22 -0.202247 -4.57553 0
M  V30 26392 N 2420.71 -0.149 -4.6296 0
M  V30 26393 C 2421.45 -0.299025 -5.7262 0
M  V30 26394 N 2420.95 -0.506491 -6.90946 0
M  V30 26395 N 2422.74 -0.236985 -5.616 0
M  V30 26396 H 2414.89 -1.07956 -1.82919 0
M  V30 26397 H 2417.15 -0.426945 -0.846417 0
M  V30 26398 H 2416.86 -1.0332 -3.36181 0
M  V30 26399 H 2416.73 0.682078 -3.70982 0
M  V30 26400 H 2419.12 1.00864 -2.77327 0
M  V30 26401 H 2419.2 -0.729439 -2.45179 0
M  V30 26402 H 2418.84 -1.18346 -4.9392 0
M  V30 26403 H 2418.77 0.571952 -5.23485 0
M  V30 26404 H 2421.27 0.00690373 -3.77899 0
M  V30 26405 H 2421.58 -0.611211 -7.70379 0
M  V30 26406 H 2419.92 -0.54275 -6.92877 0
M  V30 26407 H 2423.11 -0.0757031 -4.68039 0
M  V30 26408 H 2423.29 -0.357341 -6.47014 0
M  V30 26409 N 2416.69 1.57047 0.131868 0
M  V30 26410 C 2417.94 1.84442 0.843147 0
M  V30 26411 C 2418.27 0.725781 1.80128 0
M  V30 26412 O 2417.55 -0.269436 1.92625 0
M  V30 26413 C 2417.83 3.22385 1.60437 0
M  V30 26414 C 2417.68 4.44832 0.666704 0
M  V30 26415 C 2419 3.57735 2.56347 0
M  V30 26416 H 2416.12 0.670896 0.305069 0
M  V30 26417 H 2418.76 1.89694 0.107806 0
M  V30 26418 H 2416.91 3.18039 2.23122 0
M  V30 26419 H 2418.59 4.61273 0.0496835 0
M  V30 26420 H 2416.83 4.33794 -0.0226853 0
M  V30 26421 H 2417.5 5.37991 1.23569 0
M  V30 26422 H 2419.98 3.62789 2.03773 0
M  V30 26423 H 2418.85 4.55256 3.06649 0
M  V30 26424 H 2419.11 2.84479 3.38414 0
M  V30 26425 N 2418.17 -0.401677 1.52395 0
M  V30 26426 C 2419.59 -0.740839 1.41364 0
M  V30 26427 C 2419.79 -1.94567 0.524017 0
M  V30 26428 O 2418.84 -2.52499 -0.00736765 0
M  V30 26429 C 2420.16 -0.987797 2.84012 0
M  V30 26430 C 2421.7 -1.09005 2.93406 0
M  V30 26431 C 2422.18 -1.36972 4.37038 0
M  V30 26432 N 2423.67 -1.43821 4.40306 0
M  V30 26433 C 2424.41 -1.67102 5.48511 0
M  V30 26434 N 2423.9 -1.87937 6.66822 0
M  V30 26435 N 2425.69 -1.69178 5.36037 0
M  V30 26436 H 2417.85 0.391299 2.08764 0
M  V30 26437 H 2420.11 0.112815 0.941263 0
M  V30 26438 H 2419.81 -0.174773 3.51265 0
M  V30 26439 H 2419.69 -1.90594 3.25505 0
M  V30 26440 H 2422.08 -1.89366 2.26328 0
M  V30 26441 H 2422.16 -0.150105 2.55359 0
M  V30 26442 H 2421.8 -0.571264 5.04677 0
M  V30 26443 H 2421.73 -2.32231 4.72627 0
M  V30 26444 H 2424.22 -1.2948 3.55026 0
M  V30 26445 H 2424.53 -2.05172 7.45067 0
M  V30 26446 H 2422.88 -1.85187 6.69874 0
M  V30 26447 H 2426.07 -1.52443 4.42582 0
M  V30 26448 H 2426.24 -1.86982 6.20437 0
M  V30 26449 N 2419.65 -1.43144 -0.659362 0
M  V30 26450 C 2420.88 -1.47863 -1.44721 0
M  V30 26451 C 2421.29 -0.0946217 -1.88563 0
M  V30 26452 O 2420.65 0.893887 -1.5911 0
M  V30 26453 C 2420.7 -2.41918 -2.68623 0
M  V30 26454 O 2420.42 -3.74936 -2.26616 0
M  V30 26455 C 2421.92 -2.55816 -3.6204 0
M  V30 26456 H 2419.14 -0.502395 -0.444792 0
M  V30 26457 H 2421.69 -1.87823 -0.808883 0
M  V30 26458 H 2419.84 -2.0517 -3.28609 0
M  V30 26459 H 2420.26 -4.25455 -3.06738 0
M  V30 26460 H 2421.73 -3.25715 -4.45661 0
M  V30 26461 H 2422.21 -1.60106 -4.08978 0
M  V30 26462 H 2422.81 -2.93349 -3.07939 0
M  V30 26463 N 2421.13 0.897149 -1.29572 0
M  V30 26464 C 2422.37 1.65046 -1.18876 0
M  V30 26465 C 2422.73 1.9068 0.256674 0
M  V30 26466 O 2422.02 1.50796 1.18199 0
M  V30 26467 C 2422.22 3.00278 -1.93825 0
M  V30 26468 C 2422.04 2.87844 -3.45508 0
M  V30 26469 C 2420.81 2.88476 -4.14861 0
M  V30 26470 C 2423.01 2.64685 -4.4096 0
M  V30 26471 N 2420.99 2.66805 -5.52891 0
M  V30 26472 C 2422.37 2.5202 -5.66468 0
M  V30 26473 C 2424.42 2.49813 -4.30695 0
M  V30 26474 C 2423.12 2.25996 -6.82875 0
M  V30 26475 C 2425.15 2.25172 -5.46856 0
M  V30 26476 C 2424.51 2.13274 -6.71337 0
M  V30 26477 H 2420.61 0.609439 -0.490008 0
M  V30 26478 H 2423.19 1.0582 -1.63433 0
M  V30 26479 H 2421.37 3.57559 -1.51677 0
M  V30 26480 H 2423.1 3.64728 -1.75372 0
M  V30 26481 H 2419.85 2.99855 -3.66585 0
M  V30 26482 H 2420.28 2.59016 -6.25492 0
M  V30 26483 H 2424.92 2.57754 -3.35146 0
M  V30 26484 H 2422.64 2.16793 -7.78477 0
M  V30 26485 H 2426.22 2.14505 -5.40813 0
M  V30 26486 H 2425.1 1.94471 -7.59704 0
M  V30 26487 N 2422.61 1.1209 1.10786 0
M  V30 26488 C 2423.83 0.896684 1.8646 0
M  V30 26489 C 2424.25 -0.55388 1.80493 0
M  V30 26490 O 2423.61 -1.38276 1.19105 0
M  V30 26491 C 2423.66 1.35849 3.35004 0
M  V30 26492 O 2423.38 2.75219 3.40861 0
M  V30 26493 C 2424.88 1.17067 4.27563 0
M  V30 26494 H 2422.1 0.320664 0.58942 0
M  V30 26495 H 2424.64 1.48995 1.40074 0
M  V30 26496 H 2422.8 0.808525 3.78869 0
M  V30 26497 H 2423.21 2.95397 4.33406 0
M  V30 26498 H 2424.69 1.54272 5.30004 0
M  V30 26499 H 2425.16 0.110891 4.3906 0
M  V30 26500 H 2425.77 1.70796 3.89498 0
M  V30 26501 N 2424.08 -1.28513 0.912254 0
M  V30 26502 C 2424.99 -2.31086 0.404547 0
M  V30 26503 C 2426.01 -1.66448 -0.50704 0
M  V30 26504 O 2427.19 -1.97517 -0.393589 0
M  V30 26505 C 2424.25 -3.44944 -0.348512 0
M  V30 26506 C 2423.31 -4.25141 0.596114 0
M  V30 26507 C 2422.54 -5.33563 -0.1211 0
M  V30 26508 O 2422.77 -5.54363 -1.34307 0
M  V30 26509 O 2421.7 -5.99447 0.542822 0
M  V30 26510 H 2425.53 -2.76519 1.25583 0
M  V30 26511 H 2423.11 -1.33179 0.677022 0
M  V30 26512 H 2424.99 -4.14233 -0.773877 0
M  V30 26513 H 2423.67 -3.01596 -1.17566 0
M  V30 26514 H 2422.58 -3.58446 1.07085 0
M  V30 26515 H 2423.91 -4.72164 1.39003 0
M  V30 26516 N 2425.56 -0.676073 -1.42362 0
M  V30 26517 C 2426.84 -0.12776 -1.95182 0
M  V30 26518 C 2427.22 1.35774 -1.61643 0
M  V30 26519 O 2426.57 2.09456 -0.913253 0
M  V30 26520 C 2426.78 -0.39826 -3.4672 0
M  V30 26521 C 2428.13 -0.315458 -4.23427 0
M  V30 26522 O 2429.15 -0.332079 -3.54649 0
M  V30 26523 O 2428.01 -0.258746 -5.45887 0
M  V30 26524 H 2425.1 -0.00360881 -0.826992 0
M  V30 26525 H 2427.65 -0.750891 -1.52183 0
M  V30 26526 H 2426.42 -1.42726 -3.64342 0
M  V30 26527 H 2426.04 0.256815 -3.9677 0
M  V30 26528 N 2427.04 1.51915 -0.419488 0
M  V30 26529 C 2428.29 2.02879 0.145469 0
M  V30 26530 C 2428.64 1.29906 1.41923 0
M  V30 26531 O 2427.93 0.399815 1.87382 0
M  V30 26532 C 2428.13 3.54718 0.437004 0
M  V30 26533 C 2427.96 4.42401 -0.806954 0
M  V30 26534 C 2426.73 4.8734 -1.33523 0
M  V30 26535 C 2428.93 4.85808 -1.68804 0
M  V30 26536 N 2426.91 5.5918 -2.53359 0
M  V30 26537 C 2428.28 5.56534 -2.73257 0
M  V30 26538 C 2430.33 4.67813 -1.70458 0
M  V30 26539 C 2429.04 6.11174 -3.79287 0
M  V30 26540 C 2431.06 5.23357 -2.75412 0
M  V30 26541 C 2430.42 5.94014 -3.78586 0
M  V30 26542 H 2426.52 0.781865 0.0145287 0
M  V30 26543 H 2429.11 1.8598 -0.576159 0
M  V30 26544 H 2427.28 3.71669 1.12767 0
M  V30 26545 H 2429.01 3.9236 0.991751 0
M  V30 26546 H 2425.77 4.65129 -0.891738 0
M  V30 26547 H 2426.19 5.99737 -3.14077 0
M  V30 26548 H 2430.83 4.12663 -0.920282 0
M  V30 26549 H 2428.55 6.65389 -4.58566 0
M  V30 26550 H 2432.14 5.11295 -2.77612 0
M  V30 26551 H 2431.02 6.36223 -4.58464 0
M  V30 26552 N 2428.52 0.150242 1.56882 0
M  V30 26553 C 2429.76 -0.502769 1.9812 0
M  V30 26554 C 2430.12 -1.61824 1.0333 0
M  V30 26555 O 2431.32 -2.33233 1.33625 0
M  V30 26556 C 2429.59 -0.992927 3.4333 0
M  V30 26557 S 2431.15 -1.65008 4.06593 0
M  V30 26558 H 2427.97 -0.162454 0.692192 0
M  V30 26559 H 2430.57 0.242723 1.93987 0
M  V30 26560 H 2429.28 -0.170364 4.10046 0
M  V30 26561 H 2428.81 -1.77296 3.51183 0
M  V30 26562 H 2430.82 -2.93745 3.99911 0
M  V30 26563 N 2430 -1.57115 -0.123538 0
M  V30 26564 C 2430.94 -2.00986 -1.17078 0
M  V30 26565 C 2431.94 -0.906034 -1.43134 0
M  V30 26566 O 2433.14 -1.09124 -1.4315 0
M  V30 26567 H 2429.52 -0.640127 -0.394641 0
M  V30 26568 H 2431.49 -2.88181 -0.774241 0
M  V30 26569 C 2430.24 -2.42627 -2.49053 0
M  V30 26570 H 2429.56 -3.27129 -2.2984 0
M  V30 26571 H 2431 -2.77126 -3.20901 0
M  V30 26572 C 2429.46 -1.28811 -3.11303 0
M  V30 26573 O 2429.99 -0.6016 -3.9717 0
M  V30 26574 N 2428.2 -1.04633 -2.7111 0
M  V30 26575 H 2427.74 -1.60637 -2.01379 0
M  V30 26576 H 2427.7 -0.28674 -3.1309 0
M  V30 26577 N 2431.47 0.393589 -1.52606 0
M  V30 26578 C 2432.7 1.1604 -1.71296 0
M  V30 26579 C 2433.12 1.83855 -0.429292 0
M  V30 26580 O 2432.47 1.72498 0.595891 0
M  V30 26581 C 2432.53 2.21188 -2.85934 0
M  V30 26582 O 2432.25 1.56138 -4.09332 0
M  V30 26583 C 2433.75 3.10631 -3.16265 0
M  V30 26584 H 2430.97 0.348094 -0.573647 0
M  V30 26585 H 2433.51 0.461057 -1.99235 0
M  V30 26586 H 2431.67 2.86765 -2.6047 0
M  V30 26587 H 2432.08 2.2597 -4.73326 0
M  V30 26588 H 2433.55 3.80449 -3.99953 0
M  V30 26589 H 2434.03 3.7388 -2.30457 0
M  V30 26590 H 2434.64 2.50704 -3.43551 0
M  V30 26591 N 2432.95 1.43492 0.651762 0
M  V30 26592 C 2433.88 1.51572 1.77618 0
M  V30 26593 C 2434.86 0.370282 1.66021 0
M  V30 26594 O 2436.05 0.587691 1.85094 0
M  V30 26595 C 2433.18 1.43971 3.16053 0
M  V30 26596 C 2432.13 2.5678 3.42415 0
M  V30 26597 C 2431.46 2.34232 4.80666 0
M  V30 26598 C 2432.76 3.99021 3.37016 0
M  V30 26599 H 2434.45 2.45684 1.71113 0
M  V30 26600 H 2432 1.18247 0.821804 0
M  V30 26601 H 2433.95 1.48228 3.9447 0
M  V30 26602 H 2432.68 0.463643 3.23292 0
M  V30 26603 H 2431.33 2.51878 2.6637 0
M  V30 26604 H 2430.98 1.34865 4.84583 0
M  V30 26605 H 2430.68 3.09852 4.99265 0
M  V30 26606 H 2432.21 2.40275 5.61338 0
M  V30 26607 H 2433.62 4.05402 4.05367 0
M  V30 26608 H 2432.02 4.74679 3.67151 0
M  V30 26609 H 2433.09 4.24054 2.35173 0
M  V30 26610 N 2434.43 -0.890264 1.30046 0
M  V30 26611 C 2435.36 -1.9977 1.10305 0
M  V30 26612 C 2436.34 -1.62595 0.0121917 0
M  V30 26613 O 2437.53 -1.87779 0.164723 0
M  V30 26614 C 2434.65 -3.31779 0.681183 0
M  V30 26615 C 2433.7 -3.8794 1.77213 0
M  V30 26616 S 2434.53 -4.15885 3.37342 0
M  V30 26617 C 2435.69 -5.50922 2.97046 0
M  V30 26618 H 2435.92 -2.1621 2.0406 0
M  V30 26619 H 2433.45 -1.03802 1.143 0
M  V30 26620 H 2435.41 -4.08086 0.444511 0
M  V30 26621 H 2434.07 -3.13205 -0.236926 0
M  V30 26622 H 2433.27 -4.83314 1.42911 0
M  V30 26623 H 2432.87 -3.18355 1.96281 0
M  V30 26624 H 2435.16 -6.31775 2.44677 0
M  V30 26625 H 2436.1 -5.90157 3.91306 0
M  V30 26626 H 2436.51 -5.13229 2.35066 0
M  V30 26627 N 2435.91 -1.12676 -1.1019 0
M  V30 26628 C 2436.86 -0.792234 -2.18692 0
M  V30 26629 C 2437.85 0.222028 -1.67939 0
M  V30 26630 O 2439.06 0.0799758 -1.79822 0
M  V30 26631 H 2435.43 -0.238377 -0.713218 0
M  V30 26632 H 2437.4 -1.71568 -2.44146 0
M  V30 26633 C 2436.15 -0.26592 -3.46682 0
M  V30 26634 H 2435.47 -1.03767 -3.86099 0
M  V30 26635 H 2436.91 -0.0701873 -4.23942 0
M  V30 26636 C 2435.37 1.00669 -3.21508 0
M  V30 26637 O 2435.9 2.08402 -3.43412 0
M  V30 26638 N 2434.11 0.934644 -2.7516 0
M  V30 26639 H 2433.66 0.0578151 -2.57535 0
M  V30 26640 H 2433.61 1.78675 -2.58694 0
M  V30 26641 N 2437.39 1.28028 -0.919057 0
M  V30 26642 C 2438.34 2.24767 -0.382613 0
M  V30 26643 C 2439.32 1.52662 0.508259 0
M  V30 26644 O 2440.51 1.73563 0.347115 0
M  V30 26645 C 2437.64 3.41285 0.371372 0
M  V30 26646 C 2436.73 4.20705 -0.535522 0
M  V30 26647 N 2437.12 4.78079 -1.6515 0
M  V30 26648 C 2435.42 4.44726 -0.336902 0
M  V30 26649 C 2436.12 5.37884 -2.21484 0
M  V30 26650 N 2435.09 5.22338 -1.50546 0
M  V30 26651 H 2438.9 2.66701 -1.23482 0
M  V30 26652 H 2436.41 1.4286 -0.772324 0
M  V30 26653 H 2438.41 4.09679 0.772566 0
M  V30 26654 H 2437.07 3.00884 1.22061 0
M  V30 26655 H 2438.08 4.76286 -2.03401 0
M  V30 26656 H 2434.75 4.14819 0.472387 0
M  V30 26657 H 2436.14 5.93278 -3.1539 0
M  V30 26658 N 2438.86 0.683613 1.42002 0
M  V30 26659 C 2439.8 -0.0282665 2.29183 0
M  V30 26660 C 2440.81 -0.756585 1.44151 0
M  V30 26661 O 2442 -0.609277 1.6778 0
M  V30 26662 C 2439.1 -1.06392 3.21767 0
M  V30 26663 C 2438.27 -0.407646 4.35496 0
M  V30 26664 C 2437.33 -1.34428 5.08739 0
M  V30 26665 O 2436.36 -0.841219 5.6295 0
M  V30 26666 N 2437.56 -2.67719 5.15079 0
M  V30 26667 H 2440.32 0.720156 2.90919 0
M  V30 26668 H 2437.88 0.528709 1.53024 0
M  V30 26669 H 2439.88 -1.69198 3.67633 0
M  V30 26670 H 2438.45 -1.71399 2.61421 0
M  V30 26671 H 2437.67 0.400081 3.92164 0
M  V30 26672 H 2438.95 0.049185 5.08776 0
M  V30 26673 H 2438.35 -3.1112 4.72462 0
M  V30 26674 H 2436.91 -3.2575 5.64562 0
M  V30 26675 N 2440.34 -1.5169 0.427538 0
M  V30 26676 C 2441.29 -2.29077 -0.403319 0
M  V30 26677 C 2442.29 -1.3452 -1.0296 0
M  V30 26678 O 2443.49 -1.51903 -0.965689 0
M  V30 26679 H 2439.87 -0.737118 -0.148866 0
M  V30 26680 H 2441.84 -2.97173 0.270347 0
M  V30 26681 C 2440.59 -3.13796 -1.49757 0
M  V30 26682 H 2439.91 -3.86437 -1.02501 0
M  V30 26683 H 2441.35 -3.71017 -2.05237 0
M  V30 26684 C 2439.81 -2.28537 -2.47532 0
M  V30 26685 O 2440.34 -1.93825 -3.51845 0
M  V30 26686 N 2438.54 -1.91949 -2.18183 0
M  V30 26687 H 2438.09 -2.20377 -1.33385 0
M  V30 26688 H 2438.05 -1.352 -2.83846 0
M  V30 26689 N 2441.82 -0.15856 -1.568 0
M  V30 26690 C 2442.75 0.807885 -2.1449 0
M  V30 26691 C 2443.77 1.20269 -1.09723 0
M  V30 26692 O 2444.96 1.14476 -1.36958 0
M  V30 26693 C 2442.06 2.09713 -2.66221 0
M  V30 26694 C 2441.23 1.86789 -3.95511 0
M  V30 26695 C 2440.29 2.99811 -4.32435 0
M  V30 26696 O 2439.31 2.70999 -5.00548 0
M  V30 26697 N 2440.52 4.27279 -3.92955 0
M  V30 26698 H 2443.28 0.314764 -2.98042 0
M  V30 26699 H 2440.84 0.0246408 -1.61881 0
M  V30 26700 H 2442.83 2.84393 -2.87929 0
M  V30 26701 H 2441.4 2.50253 -1.87329 0
M  V30 26702 H 2440.62 0.960823 -3.82311 0
M  V30 26703 H 2441.91 1.68824 -4.79975 0
M  V30 26704 H 2441.31 4.53551 -3.38095 0
M  V30 26705 H 2439.87 4.98702 -4.1969 0
M  V30 26706 N 2443.3 1.57178 0.115204 0
M  V30 26707 C 2444.23 2.03653 1.14227 0
M  V30 26708 C 2445.21 0.921681 1.42965 0
M  V30 26709 O 2446.4 1.19164 1.53341 0
M  V30 26710 C 2443.53 2.44405 2.46746 0
M  V30 26711 C 2442.48 3.59369 2.32461 0
M  V30 26712 C 2441.81 3.86033 3.69977 0
M  V30 26713 C 2443.11 4.90962 1.78194 0
M  V30 26714 H 2444.8 2.89706 0.755698 0
M  V30 26715 H 2442.35 1.39374 0.362068 0
M  V30 26716 H 2444.3 2.75523 3.1885 0
M  V30 26717 H 2443.02 1.55327 2.873 0
M  V30 26718 H 2441.68 3.28466 1.62805 0
M  V30 26719 H 2441.33 2.94154 4.08023 0
M  V30 26720 H 2441.03 4.63419 3.61271 0
M  V30 26721 H 2442.55 4.19606 4.4358 0
M  V30 26722 H 2443.97 5.20592 2.40119 0
M  V30 26723 H 2442.36 5.72374 1.803 0
M  V30 26724 H 2443.43 4.79223 0.739792 0
M  V30 26725 N 2444.78 -0.38549 1.52813 0
M  V30 26726 C 2445.69 -1.49532 1.80769 0
M  V30 26727 C 2446.7 -1.59531 0.694679 0
M  V30 26728 O 2447.88 -1.75801 0.982642 0
M  V30 26729 C 2444.94 -2.85026 1.97386 0
M  V30 26730 C 2444.01 -2.84719 3.213 0
M  V30 26731 C 2443.24 -4.1375 3.37115 0
M  V30 26732 O 2443.46 -5.08889 2.57659 0
M  V30 26733 O 2442.4 -4.20775 4.30386 0
M  V30 26734 H 2446.22 -1.28838 2.75017 0
M  V30 26735 H 2443.81 -0.573673 1.37947 0
M  V30 26736 H 2445.69 -3.65345 2.10003 0
M  V30 26737 H 2444.36 -3.05739 1.06327 0
M  V30 26738 H 2443.27 -2.03168 3.14123 0
M  V30 26739 H 2444.6 -2.68958 4.12217 0
M  V30 26740 N 2446.26 -1.43835 -0.644143 0
M  V30 26741 C 2447.5 -1.45216 -1.39983 0
M  V30 26742 C 2447.82 -0.0835837 -1.95421 0
M  V30 26743 O 2449.02 0.025127 -2.71488 0
M  V30 26744 C 2447.48 -2.55592 -2.53379 0
M  V30 26745 C 2447.09 -3.98597 -2.0451 0
M  V30 26746 C 2448.83 -2.66178 -3.30681 0
M  V30 26747 C 2446.74 -5.00421 -3.15171 0
M  V30 26748 H 2445.67 -0.540227 -0.525995 0
M  V30 26749 H 2448.32 -1.69856 -0.694337 0
M  V30 26750 H 2446.7 -2.24168 -3.26442 0
M  V30 26751 H 2447.88 -4.39526 -1.38398 0
M  V30 26752 H 2446.19 -3.92137 -1.40061 0
M  V30 26753 H 2448.79 -3.39426 -4.13152 0
M  V30 26754 H 2449.13 -1.71552 -3.79309 0
M  V30 26755 H 2449.66 -2.96947 -2.64703 0
M  V30 26756 H 2446.4 -5.9663 -2.71501 0
M  V30 26757 H 2445.92 -4.64097 -3.79965 0
M  V30 26758 H 2447.6 -5.23536 -3.80157 0
M  V30 26759 N 2447.73 0.883355 -1.30517 0
M  V30 26760 C 2448.98 1.6353 -1.19433 0
M  V30 26761 C 2449.31 1.92879 0.250593 0
M  V30 26762 O 2448.56 1.54937 1.19553 0
M  V30 26763 C 2448.86 2.98205 -1.96999 0
M  V30 26764 C 2448.53 2.88402 -3.46605 0
M  V30 26765 C 2447.19 2.85435 -3.87402 0
M  V30 26766 C 2449.54 2.7641 -4.41867 0
M  V30 26767 C 2446.87 2.68318 -5.21749 0
M  V30 26768 C 2449.22 2.60831 -5.76324 0
M  V30 26769 C 2447.89 2.5624 -6.16358 0
M  V30 26770 H 2447.16 0.598398 -0.437036 0
M  V30 26771 H 2449.8 1.02693 -1.61637 0
M  V30 26772 H 2448.11 3.63002 -1.47435 0
M  V30 26773 H 2449.81 3.55351 -1.85814 0
M  V30 26774 H 2446.4 2.91521 -3.14187 0
M  V30 26775 H 2450.58 2.77767 -4.11289 0
M  V30 26776 H 2445.84 2.63179 -5.51857 0
M  V30 26777 H 2450.01 2.50527 -6.49776 0
M  V30 26778 H 2447.64 2.42735 -7.20405 0
M  V30 26779 N 2449.21 1.13259 1.09591 0
M  V30 26780 C 2450.49 0.804463 1.78291 0
M  V30 26781 C 2450.87 -0.704275 1.99005 0
M  V30 26782 O 2450.22 -1.64098 1.5901 0
M  V30 26783 C 2450.43 1.58946 3.10704 0
M  V30 26784 C 2451.77 1.78106 3.85439 0
M  V30 26785 O 2452.8 1.5553 3.20451 0
M  V30 26786 O 2451.66 2.15762 5.02105 0
M  V30 26787 H 2448.75 0.293541 0.773151 0
M  V30 26788 H 2451.3 1.23711 1.16162 0
M  V30 26789 H 2450.07 2.61487 2.91101 0
M  V30 26790 H 2449.69 1.15164 3.80556 0
M  V30 26791 N 2450.69 -1.27539 0.925834 0
M  V30 26792 C 2451.94 -1.94066 0.564172 0
M  V30 26793 C 2452.26 -1.73136 -0.897157 0
M  V30 26794 O 2451.53 -1.07802 -1.63571 0
M  V30 26795 H 2450.11 -0.718132 0.205658 0
M  V30 26796 H 2452.77 -1.55285 1.17782 0
M  V30 26797 H 2451.87 -3.02481 0.768863 0
M  V30 26798 N 2452.17 -0.691135 -1.41637 0
M  V30 26799 C 2453.12 -0.0115608 -2.32597 0
M  V30 26800 C 2454.11 0.773269 -1.50721 0
M  V30 26801 O 2455.32 0.679391 -1.66686 0
M  V30 26802 H 2451.69 0.0150613 -0.751849 0
M  V30 26803 H 2453.66 -0.795841 -2.87592 0
M  V30 26804 C 2452.41 0.914113 -3.35469 0
M  V30 26805 H 2451.73 0.319617 -3.9852 0
M  V30 26806 H 2453.17 1.35801 -4.01664 0
M  V30 26807 C 2451.63 2.02821 -2.69008 0
M  V30 26808 O 2452.16 3.11651 -2.53449 0
M  V30 26809 N 2450.37 1.80465 -2.27773 0
M  V30 26810 H 2449.92 0.919573 -2.40628 0
M  V30 26811 H 2449.87 2.55193 -1.8364 0
M  V30 26812 N 2453.65 1.51461 -0.435577 0
M  V30 26813 C 2454.89 2.02372 0.131673 0
M  V30 26814 C 2455.22 1.31922 1.42514 0
M  V30 26815 O 2454.5 0.433606 1.89605 0
M  V30 26816 C 2454.78 3.58373 0.352238 0
M  V30 26817 C 2454.64 4.39441 -0.959754 0
M  V30 26818 C 2455.95 4.25537 1.12279 0
M  V30 26819 H 2453.07 0.735539 0.0463807 0
M  V30 26820 H 2455.72 1.81115 -0.574229 0
M  V30 26821 H 2453.87 3.76616 0.953534 0
M  V30 26822 H 2455.54 4.32852 -1.5949 0
M  V30 26823 H 2453.78 4.04596 -1.56475 0
M  V30 26824 H 2454.45 5.4675 -0.75949 0
M  V30 26825 H 2456.93 4.11553 0.613473 0
M  V30 26826 H 2455.8 5.34574 1.24588 0
M  V30 26827 H 2456.06 3.86277 2.15041 0
M  V30 26828 N 2455.12 0.166873 1.56714 0
M  V30 26829 C 2456.09 -0.751194 2.1654 0
M  V30 26830 C 2457.09 -1.16123 1.1123 0
M  V30 26831 O 2458.28 -1.07891 1.36767 0
M  V30 26832 C 2455.41 -2.02191 2.74466 0
M  V30 26833 H 2456.6 -0.230447 2.99013 0
M  V30 26834 H 2454.16 -0.0826708 1.56081 0
M  V30 26835 H 2454.89 -2.58586 1.95714 0
M  V30 26836 H 2454.68 -1.73691 3.5153 0
M  V30 26837 H 2456.17 -2.67719 3.20494 0
M  V30 26838 N 2456.6 -1.57237 -0.106866 0
M  V30 26839 C 2457.55 -1.97652 -1.13657 0
M  V30 26840 C 2458.54 -0.853227 -1.36414 0
M  V30 26841 O 2459.73 -1.117 -1.37303 0
M  V30 26842 C 2456.86 -2.3946 -2.45996 0
M  V30 26843 C 2455.94 -3.58448 -2.26662 0
M  V30 26844 N 2456.33 -4.73757 -1.77167 0
M  V30 26845 C 2454.63 -3.64317 -2.57273 0
M  V30 26846 C 2455.33 -5.55743 -1.71827 0
M  V30 26847 N 2454.31 -4.98577 -2.16615 0
M  V30 26848 H 2458.11 -2.84258 -0.74664 0
M  V30 26849 H 2455.63 -1.59327 -0.314455 0
M  V30 26850 H 2457.62 -2.66636 -3.20486 0
M  V30 26851 H 2456.28 -1.54224 -2.85736 0
M  V30 26852 H 2457.29 -4.96737 -1.46536 0
M  V30 26853 H 2453.97 -2.89717 -3.00617 0
M  V30 26854 H 2455.36 -6.58257 -1.34711 0
M  V30 26855 N 2458.08 0.377381 -1.53015 0
M  V30 26856 C 2459.33 1.1185 -1.67847 0
M  V30 26857 C 2459.64 1.908 -0.430659 0
M  V30 26858 O 2460.85 2.67587 -0.459308 0
M  V30 26859 C 2459.3 2.0375 -2.96671 0
M  V30 26860 C 2458.91 1.30168 -4.28673 0
M  V30 26861 C 2460.66 2.77926 -3.2087 0
M  V30 26862 C 2458.56 2.20902 -5.48595 0
M  V30 26863 H 2457.49 0.421252 -0.62535 0
M  V30 26864 H 2460.14 0.380378 -1.79514 0
M  V30 26865 H 2458.53 2.81245 -2.78778 0
M  V30 26866 H 2459.7 0.578179 -4.57158 0
M  V30 26867 H 2458.02 0.679035 -4.10826 0
M  V30 26868 H 2460.61 3.46017 -4.07648 0
M  V30 26869 H 2460.96 3.42646 -2.3643 0
M  V30 26870 H 2461.49 2.07519 -3.39383 0
M  V30 26871 H 2458.23 1.60778 -6.35477 0
M  V30 26872 H 2457.75 2.91134 -5.24405 0
M  V30 26873 H 2459.43 2.80726 -5.82925 0
M  V30 26874 N 2459.56 1.44175 0.636506 0
M  V30 26875 C 2460.78 1.50367 1.42844 0
M  V30 26876 C 2461.21 0.1279 1.87665 0
M  V30 26877 O 2460.57 -0.881823 1.5841 0
M  V30 26878 C 2460.61 2.46865 2.6285 0
M  V30 26879 O 2459.72 1.96646 3.62497 0
M  V30 26880 H 2459.06 0.507963 0.427633 0
M  V30 26881 H 2461.59 1.89256 0.777389 0
M  V30 26882 H 2461.6 2.64723 3.1046 0
M  V30 26883 H 2460.27 3.46799 2.29572 0
M  V30 26884 H 2458.85 1.88529 3.21732 0
M  V30 26885 N 2461.04 -0.876421 1.30983 0
M  V30 26886 C 2462.26 -1.66188 1.23245 0
M  V30 26887 C 2462.68 -1.87702 -0.203312 0
M  V30 26888 O 2462.04 -1.43059 -1.13315 0
M  V30 26889 C 2462.09 -3.03347 1.96628 0
M  V30 26890 O 2461.81 -2.82798 3.34599 0
M  V30 26891 C 2463.31 -3.97788 1.95651 0
M  V30 26892 H 2460.53 -0.518315 0.426135 0
M  V30 26893 H 2463.07 -1.09439 1.72752 0
M  V30 26894 H 2461.23 -3.56803 1.50898 0
M  V30 26895 H 2461.64 -3.69872 3.7188 0
M  V30 26896 H 2463.12 -4.91367 2.5152 0
M  V30 26897 H 2463.59 -4.29078 0.937471 0
M  V30 26898 H 2464.2 -3.50268 2.41231 0
M  V30 26899 N 2462.51 -1.13839 -1.08989 0
M  V30 26900 C 2463.76 -0.914202 -1.81697 0
M  V30 26901 C 2464.12 0.553562 -1.84265 0
M  V30 26902 O 2463.41 1.40458 -1.30315 0
M  V30 26903 C 2463.6 -1.44153 -3.27039 0
M  V30 26904 C 2463.43 -2.95903 -3.38632 0
M  V30 26905 C 2462.2 -3.64292 -3.5017 0
M  V30 26906 C 2464.4 -3.9381 -3.30784 0
M  V30 26907 N 2462.38 -5.04012 -3.50493 0
M  V30 26908 C 2463.75 -5.19747 -3.38028 0
M  V30 26909 C 2465.81 -3.86013 -3.14481 0
M  V30 26910 C 2464.51 -6.38799 -3.30648 0
M  V30 26911 C 2466.54 -5.04604 -3.08429 0
M  V30 26912 C 2465.9 -6.29407 -3.16269 0
M  V30 26913 H 2462 -0.387991 -0.67896 0
M  V30 26914 H 2464.58 -1.44743 -1.30221 0
M  V30 26915 H 2462.75 -0.935157 -3.76974 0
M  V30 26916 H 2464.48 -1.15787 -3.87783 0
M  V30 26917 H 2461.24 -3.14826 -3.5381 0
M  V30 26918 H 2461.66 -5.76934 -3.54226 0
M  V30 26919 H 2466.31 -2.90405 -3.07286 0
M  V30 26920 H 2464.02 -7.34658 -3.36605 0
M  V30 26921 H 2467.61 -5.00316 -2.96943 0
M  V30 26922 H 2466.49 -7.19632 -3.11608 0
M  V30 26923 N 2463.99 1.27046 -0.932584 0
M  V30 26924 C 2464.92 2.29065 -0.452942 0
M  V30 26925 C 2465.9 1.6291 0.48931 0
M  V30 26926 O 2467.09 1.90182 0.393013 0
M  V30 26927 C 2464.22 3.46082 0.290637 0
M  V30 26928 C 2463.17 4.24264 -0.564242 0
M  V30 26929 C 2462.5 5.33808 0.308793 0
M  V30 26930 C 2463.8 4.89146 -1.83121 0
M  V30 26931 H 2465.49 2.69435 -1.30557 0
M  V30 26932 H 2463.04 1.29525 -0.629224 0
M  V30 26933 H 2464.99 4.16555 0.63716 0
M  V30 26934 H 2463.72 3.04642 1.17733 0
M  V30 26935 H 2462.37 3.55544 -0.89354 0
M  V30 26936 H 2462.02 4.88609 1.19458 0
M  V30 26937 H 2461.72 5.87026 -0.259736 0
M  V30 26938 H 2463.25 6.07122 0.650777 0
M  V30 26939 H 2464.66 5.5188 -1.55246 0
M  V30 26940 H 2463.06 5.52444 -2.34363 0
M  V30 26941 H 2464.13 4.12572 -2.5478 0
M  V30 26942 N 2465.47 0.698636 1.41269 0
M  V30 26943 C 2466.7 0.23968 2.05205 0
M  V30 26944 C 2467.11 -1.1173 1.52686 0
M  V30 26945 O 2466.45 -1.70997 0.671252 0
M  V30 26946 C 2466.51 0.123189 3.59289 0
M  V30 26947 C 2466.18 1.4127 4.34617 0
M  V30 26948 C 2467.17 2.35119 4.63697 0
M  V30 26949 C 2464.86 1.66693 4.73834 0
M  V30 26950 C 2466.85 3.52648 5.30959 0
M  V30 26951 C 2464.54 2.84507 5.40832 0
M  V30 26952 C 2465.54 3.77308 5.69322 0
M  V30 26953 O 2465.23 4.93058 6.3494 0
M  V30 26954 H 2464.96 0.108549 0.667228 0
M  V30 26955 H 2467.51 0.952634 1.81973 0
M  V30 26956 H 2465.74 -0.645561 3.81273 0
M  V30 26957 H 2467.43 -0.298985 4.04797 0
M  V30 26958 H 2468.2 2.16736 4.33878 0
M  V30 26959 H 2464.08 0.953215 4.51037 0
M  V30 26960 H 2467.62 4.25101 5.53114 0
M  V30 26961 H 2463.52 3.02805 5.70069 0
M  V30 26962 H 2464.29 4.92914 6.53436 0
M  V30 26963 N 2466.95 -1.51228 0.443603 0
M  V30 26964 C 2467.88 -2.25673 -0.400568 0
M  V30 26965 C 2468.89 -1.2993 -0.980922 0
M  V30 26966 O 2470.08 -1.55639 -0.873997 0
M  V30 26967 C 2467.18 -3.00184 -1.57299 0
M  V30 26968 C 2466.36 -4.23071 -1.11039 0
M  V30 26969 C 2465.41 -4.80108 -2.15366 0
M  V30 26970 O 2464.44 -5.41778 -1.74544 0
M  V30 26971 N 2465.64 -4.64689 -3.47914 0
M  V30 26972 H 2468.41 -2.98757 0.237502 0
M  V30 26973 H 2465.97 -1.59584 0.272837 0
M  V30 26974 H 2467.96 -3.35227 -2.26727 0
M  V30 26975 H 2466.53 -2.3007 -2.11628 0
M  V30 26976 H 2465.75 -3.93451 -0.24295 0
M  V30 26977 H 2467.04 -5.02804 -0.7788 0
M  V30 26978 H 2466.44 -4.15582 -3.83807 0
M  V30 26979 H 2464.99 -5.04077 -4.13219 0
M  V30 26980 N 2468.43 -0.175182 -1.56623 0
M  V30 26981 C 2469.39 0.7397 -2.16936 0
M  V30 26982 C 2470.39 1.15532 -1.11844 0
M  V30 26983 O 2471.58 1.07164 -1.37337 0
M  V30 26984 C 2468.71 2.00733 -2.75534 0
M  V30 26985 H 2469.9 0.214586 -2.99131 0
M  V30 26986 H 2467.46 0.0743922 -1.56123 0
M  V30 26987 H 2468.19 2.57544 -1.97083 0
M  V30 26988 H 2467.98 1.71825 -3.52447 0
M  V30 26989 H 2469.47 2.66016 -3.21909 0
M  V30 26990 N 2469.91 1.57292 0.0985263 0
M  V30 26991 C 2470.82 2.05139 1.13821 0
M  V30 26992 C 2471.83 0.975629 1.44075 0
M  V30 26993 O 2473.01 1.28856 1.54784 0
M  V30 26994 C 2470.07 2.46338 2.43964 0
M  V30 26995 C 2469.13 3.68091 2.20924 0
M  V30 26996 C 2468.37 4.07316 3.44862 0
M  V30 26997 O 2468.59 3.46667 4.52966 0
M  V30 26998 O 2467.52 5.00291 3.34652 0
M  V30 26999 H 2471.35 2.9399 0.761829 0
M  V30 27000 H 2468.93 1.46132 0.310792 0
M  V30 27001 H 2470.82 2.73479 3.20605 0
M  V30 27002 H 2469.49 1.60626 2.81035 0
M  V30 27003 H 2468.4 3.46071 1.42075 0
M  V30 27004 H 2469.73 4.54572 1.88747 0
M  V30 27005 N 2471.38 -0.369261 1.53213 0
M  V30 27006 C 2472.35 -1.43495 1.78723 0
M  V30 27007 C 2473.35 -1.4674 0.65758 0
M  V30 27008 O 2474.54 -1.47565 0.925762 0
M  V30 27009 C 2471.67 -2.82641 1.90596 0
M  V30 27010 H 2472.86 -1.22151 2.73896 0
M  V30 27011 H 2470.41 -0.602178 1.44234 0
M  V30 27012 H 2471.15 -3.09304 0.974764 0
M  V30 27013 H 2470.93 -2.81685 2.72756 0
M  V30 27014 H 2472.42 -3.59823 2.11937 0
M  V30 27015 N 2472.86 -1.4451 -0.628851 0
M  V30 27016 C 2473.79 -1.54379 -1.75184 0
M  V30 27017 C 2474.77 -0.396647 -1.65411 0
M  V30 27018 O 2475.96 -0.617063 -1.84136 0
M  V30 27019 C 2473.09 -1.48981 -3.13723 0
M  V30 27020 C 2472.04 -2.62195 -3.38287 0
M  V30 27021 C 2471.37 -2.41849 -4.76879 0
M  V30 27022 C 2472.67 -4.04332 -3.30625 0
M  V30 27023 H 2474.36 -2.48376 -1.67182 0
M  V30 27024 H 2471.91 -1.1954 -0.802888 0
M  V30 27025 H 2473.86 -1.54485 -3.92062 0
M  V30 27026 H 2472.58 -0.515017 -3.22514 0
M  V30 27027 H 2471.24 -2.56084 -2.62329 0
M  V30 27028 H 2470.89 -1.42557 -4.82376 0
M  V30 27029 H 2470.59 -3.17756 -4.94272 0
M  V30 27030 H 2472.12 -2.49174 -5.57445 0
M  V30 27031 H 2473.53 -4.118 -3.98866 0
M  V30 27032 H 2471.93 -4.8046 -3.59553 0
M  V30 27033 H 2473 -4.27742 -2.28397 0
M  V30 27034 N 2474.34 0.869463 -1.31446 0
M  V30 27035 C 2475.27 1.99259 -1.2173 0
M  V30 27036 C 2476.25 1.69779 -0.104389 0
M  V30 27037 O 2477.44 1.92036 -0.289072 0
M  V30 27038 C 2474.57 3.34772 -0.924376 0
M  V30 27039 C 2473.52 3.78559 -1.99692 0
M  V30 27040 C 2472.85 5.11539 -1.55667 0
M  V30 27041 C 2474.15 3.95613 -3.4101 0
M  V30 27042 H 2475.84 2.07645 -2.15694 0
M  V30 27043 H 2473.39 0.997657 -1.0384 0
M  V30 27044 H 2475.34 4.12882 -0.843006 0
M  V30 27045 H 2474.06 3.2656 0.0509219 0
M  V30 27046 H 2472.72 3.02691 -2.06819 0
M  V30 27047 H 2472.37 4.99769 -0.569219 0
M  V30 27048 H 2472.07 5.41807 -2.27419 0
M  V30 27049 H 2473.59 5.92157 -1.48939 0
M  V30 27050 H 2475.01 4.64116 -3.36555 0
M  V30 27051 H 2473.4 4.37279 -4.10983 0
M  V30 27052 H 2474.47 2.98979 -3.81759 0
M  V30 27053 N 2475.82 1.14415 1.08383 0
M  V30 27054 C 2477.09 0.823328 1.77428 0
M  V30 27055 C 2477.47 -0.683128 1.99741 0
M  V30 27056 O 2476.82 -1.62402 1.60742 0
M  V30 27057 C 2477.03 1.62232 3.09001 0
M  V30 27058 C 2478.38 1.82184 3.83529 0
M  V30 27059 O 2479.4 1.5892 3.18783 0
M  V30 27060 O 2478.26 2.21075 4.99788 0
M  V30 27061 H 2475.36 0.301725 0.769994 0
M  V30 27062 H 2477.9 1.24936 1.14844 0
M  V30 27063 H 2476.68 2.6456 2.88312 0
M  V30 27064 H 2476.3 1.19193 3.79313 0
M  V30 27065 N 2477.3 -1.26549 0.939309 0
M  V30 27066 C 2478.21 -2.30176 0.453473 0
M  V30 27067 C 2479.22 -1.67487 -0.47162 0
M  V30 27068 O 2480.4 -1.98307 -0.351605 0
M  V30 27069 C 2477.46 -3.45606 -0.275265 0
M  V30 27070 C 2476.52 -4.23781 0.686159 0
M  V30 27071 C 2475.76 -5.33699 -0.00789613 0
M  V30 27072 O 2475.98 -5.57087 -1.22518 0
M  V30 27073 O 2474.91 -5.98161 0.669851 0
M  V30 27074 H 2478.74 -2.73792 1.31421 0
M  V30 27075 H 2476.32 -1.31713 0.705119 0
M  V30 27076 H 2478.21 -4.15781 -0.685838 0
M  V30 27077 H 2476.88 -3.04022 -1.11142 0
M  V30 27078 H 2475.79 -3.56094 1.14664 0
M  V30 27079 H 2477.12 -4.69109 1.48987 0
M  V30 27080 N 2478.77 -0.706118 -1.40896 0
M  V30 27081 C 2480.02 -0.238609 -2.00284 0
M  V30 27082 C 2480.34 1.17191 -1.56606 0
M  V30 27083 O 2481.54 1.73744 -2.08627 0
M  V30 27084 C 2480 -0.375686 -3.57934 0
M  V30 27085 C 2479.61 -1.79225 -4.10588 0
M  V30 27086 C 2481.35 0.0315111 -4.24488 0
M  V30 27087 C 2479.26 -1.88041 -5.60709 0
M  V30 27088 H 2478.19 -0.0854529 -0.749142 0
M  V30 27089 H 2480.84 -0.875841 -1.61249 0
M  V30 27090 H 2479.22 0.329973 -3.94623 0
M  V30 27091 H 2480.39 -2.52752 -3.85296 0
M  V30 27092 H 2478.71 -2.15006 -3.56597 0
M  V30 27093 H 2481.31 -0.0137782 -5.34698 0
M  V30 27094 H 2481.65 1.07193 -4.02263 0
M  V30 27095 H 2482.18 -0.62425 -3.92871 0
M  V30 27096 H 2478.92 -2.90172 -5.87776 0
M  V30 27097 H 2478.44 -1.18913 -5.87894 0
M  V30 27098 H 2480.12 -1.64816 -6.25656 0
M  V30 27099 N 2480.25 1.50991 -0.451617 0
M  V30 27100 C 2481.16 2.31846 0.35839 0
M  V30 27101 C 2482.18 1.41375 1.01435 0
M  V30 27102 O 2483.35 1.74441 1.0066 0
M  V30 27103 C 2480.42 3.15518 1.43699 0
M  V30 27104 C 2479.48 4.21786 0.799668 0
M  V30 27105 C 2478.71 5.01459 1.82687 0
M  V30 27106 O 2478.94 4.81947 3.05096 0
M  V30 27107 O 2477.87 5.85164 1.40948 0
M  V30 27108 H 2481.7 3.02194 -0.302085 0
M  V30 27109 H 2479.28 1.47862 -0.213851 0
M  V30 27110 H 2481.16 3.67493 2.0622 0
M  V30 27111 H 2479.84 2.4792 2.08129 0
M  V30 27112 H 2478.74 3.73853 0.136018 0
M  V30 27113 H 2480.08 4.91799 0.198632 0
M  V30 27114 N 2481.73 0.183486 1.56528 0
M  V30 27115 C 2482.68 -0.742016 2.18547 0
M  V30 27116 C 2483.65 -1.21818 1.12914 0
M  V30 27117 O 2484.83 -1.28416 1.41117 0
M  V30 27118 C 2481.97 -1.96084 2.83981 0
M  V30 27119 C 2481.08 -1.52712 4.04108 0
M  V30 27120 C 2480.22 -2.70055 4.57432 0
M  V30 27121 C 2479.26 -2.23233 5.69942 0
M  V30 27122 N 2478.4 -3.33712 6.17722 0
M  V30 27123 H 2483.24 -0.20638 2.97284 0
M  V30 27124 H 2480.77 -0.0901313 1.46824 0
M  V30 27125 H 2482.73 -2.67589 3.20082 0
M  V30 27126 H 2481.36 -2.46998 2.07826 0
M  V30 27127 H 2480.41 -0.70837 3.73746 0
M  V30 27128 H 2481.72 -1.14352 4.85515 0
M  V30 27129 H 2480.88 -3.49699 4.95778 0
M  V30 27130 H 2479.62 -3.11683 3.75107 0
M  V30 27131 H 2478.62 -1.42039 5.31136 0
M  V30 27132 H 2479.85 -1.82649 6.54077 0
M  V30 27133 H 2477.79 -3.74892 5.38323 0
M  V30 27134 H 2477.71 -2.99483 6.94151 0
M  V30 27135 H 2478.98 -4.13604 6.60721 0
M  V30 27136 N 2483.21 -1.57342 -0.0901833 0
M  V30 27137 C 2484.15 -2.02407 -1.10905 0
M  V30 27138 C 2485.12 -0.901276 -1.39521 0
M  V30 27139 O 2486.31 -1.16763 -1.50901 0
M  V30 27140 C 2483.45 -2.4576 -2.42273 0
M  V30 27141 C 2482.56 -3.7158 -2.20346 0
M  V30 27142 C 2481.7 -4.03791 -3.45147 0
M  V30 27143 C 2480.74 -5.22707 -3.18503 0
M  V30 27144 N 2479.87 -5.50646 -4.35584 0
M  V30 27145 H 2484.71 -2.89227 -0.71777 0
M  V30 27146 H 2482.25 -1.43048 -0.342876 0
M  V30 27147 H 2484.21 -2.68941 -3.18946 0
M  V30 27148 H 2482.84 -1.61943 -2.79239 0
M  V30 27149 H 2481.89 -3.55847 -1.34452 0
M  V30 27150 H 2483.2 -4.58398 -1.96653 0
M  V30 27151 H 2482.36 -4.27775 -4.30225 0
M  V30 27152 H 2481.1 -3.15504 -3.71898 0
M  V30 27153 H 2480.1 -4.98538 -2.31818 0
M  V30 27154 H 2481.33 -6.12596 -2.93092 0
M  V30 27155 H 2479.27 -4.65318 -4.62401 0
M  V30 27156 H 2479.19 -6.31846 -4.15099 0
M  V30 27157 H 2480.46 -5.79169 -5.21712 0
M  V30 27158 N 2484.69 0.36113 -1.53407 0
M  V30 27159 C 2486.1 0.937699 -1.61444 0
M  V30 27160 C 2486.45 1.9012 -0.484643 0
M  V30 27161 O 2485.57 2.12888 0.388275 0
M  V30 27162 C 2486.17 1.70748 -2.92627 0
M  V30 27163 C 2484.73 2.23332 -3.02985 0
M  V30 27164 C 2483.87 1.04707 -2.56772 0
M  V30 27165 H 2486.83 0.139789 -1.58083 0
M  V30 27166 H 2486.85 2.56903 -2.8068 0
M  V30 27167 H 2486.36 1.00597 -3.74836 0
M  V30 27168 H 2484.46 2.96711 -2.25373 0
M  V30 27169 H 2484.57 2.50909 -4.08144 0
M  V30 27170 H 2482.94 1.41535 -2.11754 0
M  V30 27171 H 2483.72 0.360479 -3.41402 0
M  V30 27172 N 2486.16 1.44842 0.621179 0
M  V30 27173 C 2487.39 1.51648 1.40749 0
M  V30 27174 C 2487.81 0.144583 1.88246 0
M  V30 27175 O 2487.16 -0.851388 1.61424 0
M  V30 27176 C 2487.22 2.48955 2.62114 0
M  V30 27177 O 2486.94 3.80812 2.16596 0
M  V30 27178 C 2488.44 2.65325 3.5513 0
M  V30 27179 H 2485.66 0.514012 0.431316 0
M  V30 27180 H 2488.2 1.89901 0.758801 0
M  V30 27181 H 2486.36 2.13811 3.23054 0
M  V30 27182 H 2486.77 4.33438 2.9535 0
M  V30 27183 H 2488.24 3.37417 4.36868 0
M  V30 27184 H 2488.72 1.70893 4.04589 0
M  V30 27185 H 2489.33 3.0141 3.00053 0
M  V30 27186 N 2487.64 -0.862479 1.31905 0
M  V30 27187 C 2488.87 -1.65395 1.25137 0
M  V30 27188 C 2489.29 -1.87247 -0.178967 0
M  V30 27189 O 2488.65 -1.41962 -1.12768 0
M  V30 27190 C 2488.7 -2.99494 2.00837 0
M  V30 27191 O 2487.8 -3.89649 1.35082 0
M  V30 27192 H 2487.14 -0.504542 0.431664 0
M  V30 27193 H 2489.67 -1.07479 1.74096 0
M  V30 27194 H 2489.68 -3.49375 2.10715 0
M  V30 27195 H 2488.36 -2.8291 3.04852 0
M  V30 27196 H 2486.94 -3.48106 1.33702 0
M  V30 27197 N 2489.12 -1.14988 -1.07775 0
M  V30 27198 C 2490.07 -0.842709 -2.14865 0
M  V30 27199 C 2491.04 0.202523 -1.64861 0
M  V30 27200 O 2492.22 0.0710233 -1.90668 0
M  V30 27201 C 2489.36 -0.333423 -3.43486 0
M  V30 27202 C 2488.48 -1.43972 -4.07304 0
M  V30 27203 C 2487.61 -0.887006 -5.23742 0
M  V30 27204 C 2486.65 -1.97053 -5.79514 0
M  V30 27205 N 2485.79 -1.43452 -6.87289 0
M  V30 27206 H 2490.63 -1.7599 -2.40482 0
M  V30 27207 H 2488.16 -0.8782 -1.18009 0
M  V30 27208 H 2490.12 -0.0198897 -4.17195 0
M  V30 27209 H 2488.75 0.546861 -3.18134 0
M  V30 27210 H 2487.8 -1.86952 -3.3129 0
M  V30 27211 H 2489.12 -2.25796 -4.44767 0
M  V30 27212 H 2488.27 -0.525758 -6.04418 0
M  V30 27213 H 2487.01 -0.0378814 -4.87685 0
M  V30 27214 H 2486.01 -2.34066 -4.97487 0
M  V30 27215 H 2487.24 -2.82336 -6.17627 0
M  V30 27216 H 2485.18 -0.607682 -6.53179 0
M  V30 27217 H 2485.1 -2.18908 -7.23613 0
M  V30 27218 H 2486.37 -1.10138 -7.7168 0
M  V30 27219 N 2490.6 1.26049 -0.946007 0
M  V30 27220 C 2491.53 2.2538 -0.416702 0
M  V30 27221 C 2492.54 1.56087 0.462684 0
M  V30 27222 O 2493.73 1.7641 0.272352 0
M  V30 27223 C 2490.83 3.3629 0.419753 0
M  V30 27224 C 2490.01 4.35134 -0.444608 0
M  V30 27225 C 2489.06 5.2515 0.332212 0
M  V30 27226 O 2488.09 5.68576 -0.266423 0
M  V30 27227 N 2489.29 5.57218 1.62753 0
M  V30 27228 H 2492.06 2.71431 -1.27064 0
M  V30 27229 H 2489.62 1.39866 -0.815417 0
M  V30 27230 H 2491.61 3.93465 0.946944 0
M  V30 27231 H 2490.18 2.89696 1.17451 0
M  V30 27232 H 2489.4 3.76962 -1.15297 0
M  V30 27233 H 2490.69 4.98164 -1.03487 0
M  V30 27234 H 2490.09 5.23826 2.13594 0
M  V30 27235 H 2488.64 6.17015 2.10086 0
M  V30 27236 N 2492.08 0.71358 1.4052 0
M  V30 27237 C 2492.99 0.0607079 2.34521 0
M  V30 27238 C 2494 -0.746043 1.57195 0
M  V30 27239 O 2495.18 -0.67946 1.89592 0
M  V30 27240 C 2492.24 -0.851432 3.36083 0
M  V30 27241 C 2491.3 -0.0348584 4.29286 0
M  V30 27242 C 2490.54 -0.903557 5.25996 0
M  V30 27243 O 2490.76 -2.14282 5.2862 0
M  V30 27244 O 2489.69 -0.343618 6.00918 0
M  V30 27245 H 2493.52 0.836023 2.91966 0
M  V30 27246 H 2491.11 0.474045 1.4168 0
M  V30 27247 H 2492.99 -1.37397 3.98372 0
M  V30 27248 H 2491.66 -1.60593 2.81055 0
M  V30 27249 H 2490.57 0.532698 3.70288 0
M  V30 27250 H 2491.9 0.681372 4.87461 0
M  V30 27251 N 2493.55 -1.50749 0.459618 0
M  V30 27252 C 2494.46 -2.32033 -0.346089 0
M  V30 27253 C 2495.48 -1.41911 -1.00684 0
M  V30 27254 O 2496.66 -1.74972 -0.99733 0
M  V30 27255 C 2493.72 -3.16276 -1.42024 0
M  V30 27256 C 2492.78 -4.22205 -0.777288 0
M  V30 27257 C 2492.02 -5.02421 -1.80025 0
M  V30 27258 O 2492.24 -4.83558 -3.02536 0
M  V30 27259 O 2491.17 -5.85904 -1.37843 0
M  V30 27260 H 2495 -3.02029 0.318107 0
M  V30 27261 H 2492.58 -1.47746 0.221689 0
M  V30 27262 H 2494.47 -3.68581 -2.04269 0
M  V30 27263 H 2493.14 -2.4902 -2.06811 0
M  V30 27264 H 2492.05 -3.7392 -0.11619 0
M  V30 27265 H 2493.38 -4.91897 -0.172548 0
M  V30 27266 N 2495.03 -0.191784 -1.56429 0
M  V30 27267 C 2496.28 0.448053 -1.96661 0
M  V30 27268 C 2496.59 1.62989 -1.08139 0
M  V30 27269 O 2497.8 2.3373 -1.38139 0
M  V30 27270 C 2496.26 0.848524 -3.49754 0
M  V30 27271 C 2495.86 -0.308842 -4.46934 0
M  V30 27272 C 2497.61 1.45563 -3.98763 0
M  V30 27273 C 2495.52 0.112402 -5.91293 0
M  V30 27274 H 2494.45 0.171166 -0.734315 0
M  V30 27275 H 2497.1 -0.283274 -1.813 0
M  V30 27276 H 2495.48 1.63642 -3.60607 0
M  V30 27277 H 2496.65 -1.08635 -4.47811 0
M  V30 27278 H 2494.97 -0.827229 -4.081 0
M  V30 27279 H 2497.56 1.78319 -5.0409 0
M  V30 27280 H 2497.91 2.36093 -3.42879 0
M  V30 27281 H 2498.44 0.731768 -3.91012 0
M  V30 27282 H 2495.18 -0.758629 -6.51095 0
M  V30 27283 H 2494.7 0.854837 -5.93677 0
M  V30 27284 H 2496.38 0.549335 -6.44664 0
M  V30 27285 N 2496.51 1.57387 0.0818378 0
M  V30 27286 C 2497.76 1.87031 0.784041 0
M  V30 27287 C 2498.09 0.78272 1.77728 0
M  V30 27288 O 2497.36 -0.208017 1.93384 0
M  V30 27289 C 2497.65 3.27326 1.50099 0
M  V30 27290 C 2497.5 4.46727 0.524847 0
M  V30 27291 C 2498.82 3.65709 2.44837 0
M  V30 27292 H 2495.94 0.680262 0.28357 0
M  V30 27293 H 2498.58 1.89941 0.0474019 0
M  V30 27294 H 2496.73 3.24976 2.12891 0
M  V30 27295 H 2498.4 4.61198 -0.0970922 0
M  V30 27296 H 2496.65 4.33502 -0.160682 0
M  V30 27297 H 2497.32 5.4165 1.06391 0
M  V30 27298 H 2499.79 3.69088 1.92128 0
M  V30 27299 H 2498.67 4.64781 2.9201 0
M  V30 27300 H 2498.93 2.95101 3.29192 0
M  V30 27301 N 2497.99 -0.35299 1.53596 0
M  V30 27302 C 2498.94 -1.43304 1.80921 0
M  V30 27303 C 2499.91 -1.52669 0.654315 0
M  V30 27304 O 2501.09 -1.68358 0.897789 0
M  V30 27305 C 2498.23 -2.80085 2.0161 0
M  V30 27306 C 2497.34 -2.79587 3.29325 0
M  V30 27307 C 2496.48 -4.08024 3.40133 0
M  V30 27308 C 2495.52 -4.01717 4.61833 0
M  V30 27309 N 2494.65 -5.21826 4.69725 0
M  V30 27310 H 2499.49 -1.19303 2.73076 0
M  V30 27311 H 2497.03 -0.578107 1.35264 0
M  V30 27312 H 2498.99 -3.59561 2.11593 0
M  V30 27313 H 2497.62 -3.02458 1.12778 0
M  V30 27314 H 2496.67 -1.9227 3.28232 0
M  V30 27315 H 2497.98 -2.70802 4.18889 0
M  V30 27316 H 2497.14 -4.95921 3.49496 0
M  V30 27317 H 2495.88 -4.19577 2.48608 0
M  V30 27318 H 2494.88 -3.12205 4.52557 0
M  V30 27319 H 2496.11 -3.91754 5.54712 0
M  V30 27320 H 2494.05 -5.33942 3.81107 0
M  V30 27321 H 2493.97 -5.15261 5.53211 0
M  V30 27322 H 2495.24 -6.1152 4.83387 0
M  V30 27323 N 2499.47 -1.45169 -0.613489 0
M  V30 27324 C 2500.88 -1.29445 -0.933606 0
M  V30 27325 C 2501.08 -0.243137 -2.00028 0
M  V30 27326 O 2500.14 0.364948 -2.49849 0
M  V30 27327 C 2501.45 -2.67157 -1.38013 0
M  V30 27328 C 2503 -2.75007 -1.49466 0
M  V30 27329 C 2503.48 -4.1323 -1.97496 0
M  V30 27330 N 2504.97 -4.15495 -2.04739 0
M  V30 27331 C 2505.7 -5.19311 -2.43112 0
M  V30 27332 N 2505.2 -6.33478 -2.80495 0
M  V30 27333 N 2506.99 -5.06669 -2.43399 0
M  V30 27334 H 2499.14 -2.12202 0.091647 0
M  V30 27335 H 2501.4 -0.947753 -0.0216488 0
M  V30 27336 H 2501.11 -3.45248 -0.670564 0
M  V30 27337 H 2500.98 -2.95226 -2.34779 0
M  V30 27338 H 2503.37 -1.97223 -2.19515 0
M  V30 27339 H 2503.45 -2.50658 -0.510298 0
M  V30 27340 H 2503.1 -4.91497 -1.28036 0
M  V30 27341 H 2503.03 -4.34967 -2.96836 0
M  V30 27342 H 2505.52 -3.33106 -1.78462 0
M  V30 27343 H 2505.83 -7.08492 -3.08639 0
M  V30 27344 H 2504.18 -6.36889 -2.78205 0
M  V30 27345 H 2507.37 -4.16526 -2.13596 0
M  V30 27346 H 2507.54 -5.87696 -2.72979 0
M  V30 27347 N 2500.95 0.855472 -1.32361 0
M  V30 27348 C 2501.88 1.97956 -1.23837 0
M  V30 27349 C 2502.86 1.69659 -0.122391 0
M  V30 27350 O 2504.04 1.91719 -0.309424 0
M  V30 27351 C 2501.17 3.33773 -0.959831 0
M  V30 27352 C 2500.13 3.7642 -2.03695 0
M  V30 27353 C 2499.45 5.09859 -1.61084 0
M  V30 27354 C 2500.75 3.91974 -3.45187 0
M  V30 27355 H 2502.45 2.05346 -2.17884 0
M  V30 27356 H 2499.99 0.986587 -1.04893 0
M  V30 27357 H 2501.94 4.11964 -0.88675 0
M  V30 27358 H 2500.67 3.26596 0.016283 0
M  V30 27359 H 2499.33 3.0048 -2.10018 0
M  V30 27360 H 2498.98 4.99137 -0.622195 0
M  V30 27361 H 2498.68 5.39364 -2.33152 0
M  V30 27362 H 2500.2 5.90544 -1.55211 0
M  V30 27363 H 2501.61 4.6052 -3.41458 0
M  V30 27364 H 2500.01 4.32896 -4.15598 0
M  V30 27365 H 2501.08 2.94913 -3.84908 0
M  V30 27366 N 2502.42 1.15558 1.07164 0
M  V30 27367 C 2503.67 0.933016 1.80063 0
M  V30 27368 C 2504 -0.538417 1.86587 0
M  V30 27369 O 2503.28 -1.39922 1.351 0
M  V30 27370 C 2503.56 1.55031 3.25019 0
M  V30 27371 C 2503.41 3.09247 3.26628 0
M  V30 27372 C 2504.73 1.23767 4.22338 0
M  V30 27373 H 2501.85 0.340377 0.653691 0
M  V30 27374 H 2504.49 1.42752 1.25387 0
M  V30 27375 H 2502.64 1.12979 3.7171 0
M  V30 27376 H 2504.32 3.60219 2.88166 0
M  V30 27377 H 2502.56 3.43037 2.65533 0
M  V30 27378 H 2503.23 3.47553 4.28848 0
M  V30 27379 H 2505.71 1.60146 3.84048 0
M  V30 27380 H 2504.58 1.69573 5.2205 0
M  V30 27381 H 2504.84 0.155016 4.41828 0
M  V30 27382 N 2503.9 -1.25546 0.952678 0
M  V30 27383 C 2505.13 -1.9782 0.623059 0
M  V30 27384 C 2505.55 -1.70354 -0.79757 0
M  V30 27385 O 2504.91 -0.95831 -1.53903 0
M  V30 27386 C 2504.96 -3.49556 0.885593 0
M  V30 27387 O 2504.06 -4.12384 -0.0365917 0
M  V30 27388 H 2503.4 -0.620228 0.237093 0
M  V30 27389 H 2505.93 -1.59716 1.27874 0
M  V30 27390 H 2505.94 -3.99857 0.811079 0
M  V30 27391 H 2504.62 -3.68877 1.92101 0
M  V30 27392 H 2503.19 -3.72791 0.089961 0
M  V30 27393 N 2505.38 -0.721022 -1.40139 0
M  V30 27394 C 2506.29 -0.0731443 -2.34486 0
M  V30 27395 C 2507.31 0.737696 -1.57588 0
M  V30 27396 O 2508.48 0.669396 -1.8995 0
M  V30 27397 C 2505.55 0.833597 -3.36529 0
M  V30 27398 C 2504.61 0.0120918 -4.29298 0
M  V30 27399 C 2503.84 0.875649 -5.26468 0
M  V30 27400 O 2504.06 2.11476 -5.29749 0
M  V30 27401 O 2503 0.311745 -6.01092 0
M  V30 27402 H 2506.82 -0.851495 -2.91519 0
M  V30 27403 H 2504.41 -0.481552 -1.41426 0
M  V30 27404 H 2506.29 1.35282 -3.99095 0
M  V30 27405 H 2504.97 1.591 -2.81902 0
M  V30 27406 H 2503.87 -0.552327 -3.7 0
M  V30 27407 H 2505.21 -0.707214 -4.87093 0
M  V30 27408 N 2506.86 1.50503 -0.467606 0
M  V30 27409 C 2507.79 2.3132 0.318341 0
M  V30 27410 C 2508.77 1.38068 0.99354 0
M  V30 27411 O 2509.95 1.66989 0.991381 0
M  V30 27412 C 2507.08 3.17713 1.40269 0
M  V30 27413 C 2506.04 4.19489 0.849299 0
M  V30 27414 C 2505.36 4.94598 2.03168 0
M  V30 27415 C 2506.66 5.2212 -0.137034 0
M  V30 27416 H 2508.36 2.97274 -0.356158 0
M  V30 27417 H 2505.9 1.4296 -0.172728 0
M  V30 27418 H 2507.86 3.73045 1.95998 0
M  V30 27419 H 2506.58 2.49637 2.10591 0
M  V30 27420 H 2505.24 3.65253 0.314012 0
M  V30 27421 H 2504.89 4.22998 2.7218 0
M  V30 27422 H 2504.59 5.63439 1.66764 0
M  V30 27423 H 2506.11 5.52763 2.59394 0
M  V30 27424 H 2507.53 5.72344 0.330956 0
M  V30 27425 H 2505.92 5.98662 -0.415175 0
M  V30 27426 H 2506.99 4.73081 -1.06406 0
M  V30 27427 N 2508.34 0.200077 1.56325 0
M  V30 27428 C 2509.61 -0.485256 1.89485 0
M  V30 27429 C 2509.99 -1.79292 1.11434 0
M  V30 27430 O 2509.34 -2.27468 0.216959 0
M  V30 27431 C 2509.55 -0.699183 3.41925 0
M  V30 27432 C 2510.9 -1.01631 4.12258 0
M  V30 27433 O 2511.92 -0.786731 3.47403 0
M  V30 27434 O 2510.78 -1.45086 5.26889 0
M  V30 27435 H 2507.88 -0.253625 0.787149 0
M  V30 27436 H 2510.42 0.240662 1.67985 0
M  V30 27437 H 2509.19 0.224077 3.90658 0
M  V30 27438 H 2508.82 -1.47738 3.69133 0
M  V30 27439 N 2509.81 -1.57429 -0.0734901 0
M  V30 27440 C 2511.09 -1.78228 -0.805872 0
M  V30 27441 C 2511.47 -0.787224 -1.95872 0
M  V30 27442 O 2510.82 0.179989 -2.2779 0
M  V30 27443 C 2511.03 -3.24664 -1.28039 0
M  V30 27444 C 2512.38 -3.88447 -1.71446 0
M  V30 27445 O 2513.4 -3.28545 -1.3761 0
M  V30 27446 O 2512.26 -4.93829 -2.34084 0
M  V30 27447 H 2509.35 -0.731376 -0.386028 0
M  V30 27448 H 2511.9 -1.69615 -0.0536971 0
M  V30 27449 H 2510.67 -3.88641 -0.455408 0
M  V30 27450 H 2510.29 -3.37994 -2.09394 0
M  V30 27451 N 2511.29 0.344839 -1.53781 0
M  V30 27452 C 2512.25 1.40633 -1.80983 0
M  V30 27453 C 2513.25 1.45675 -0.680842 0
M  V30 27454 O 2514.44 1.46073 -0.949121 0
M  V30 27455 C 2511.58 2.79573 -1.95068 0
M  V30 27456 H 2512.77 1.17778 -2.75805 0
M  V30 27457 H 2510.32 0.579155 -1.45174 0
M  V30 27458 H 2511.06 3.07714 -1.02385 0
M  V30 27459 H 2510.84 2.7731 -2.77203 0
M  V30 27460 H 2512.33 3.56405 -2.17635 0
M  V30 27461 N 2512.77 1.45492 0.605781 0
M  V30 27462 C 2513.72 1.54639 1.73752 0
M  V30 27463 C 2514.71 0.416248 1.64206 0
M  V30 27464 O 2515.92 0.592229 1.69978 0
M  V30 27465 H 2512.29 0.485751 0.574064 0
M  V30 27466 H 2514.26 2.4984 1.63165 0
M  V30 27467 C 2513.01 1.53195 3.12132 0
M  V30 27468 H 2512.34 2.39483 3.20137 0
M  V30 27469 H 2513.78 1.63652 3.91144 0
M  V30 27470 C 2512.23 0.256675 3.35921 0
M  V30 27471 O 2512.76 -0.662728 3.96195 0
M  V30 27472 N 2510.97 0.151802 2.90203 0
M  V30 27473 H 2510.52 0.900852 2.41335 0
M  V30 27474 H 2510.48 -0.700646 3.06494 0
M  V30 27475 N 2514.25 -0.848441 1.32813 0
M  V30 27476 C 2515.18 -1.97297 1.24885 0
M  V30 27477 C 2516.16 -1.69592 0.131386 0
M  V30 27478 O 2517.34 -1.91552 0.319586 0
M  V30 27479 C 2514.47 -3.33259 0.977518 0
M  V30 27480 C 2513.43 -3.75335 2.05689 0
M  V30 27481 C 2512.75 -5.08997 1.63786 0
M  V30 27482 C 2514.05 -3.90137 3.47261 0
M  V30 27483 H 2515.75 -2.04187 2.1897 0
M  V30 27484 H 2513.29 -0.98101 1.05414 0
M  V30 27485 H 2515.25 -4.11488 0.908585 0
M  V30 27486 H 2513.97 -3.266 0.00103742 0
M  V30 27487 H 2512.63 -2.99362 2.11608 0
M  V30 27488 H 2512.28 -4.988 0.648656 0
M  V30 27489 H 2511.98 -5.3812 2.36009 0
M  V30 27490 H 2513.5 -5.89712 1.58341 0
M  V30 27491 H 2514.92 -4.58703 3.43896 0
M  V30 27492 H 2513.31 -4.30685 4.17888 0
M  V30 27493 H 2514.38 -2.92867 3.86467 0
M  V30 27494 N 2515.73 -1.16125 -1.06549 0
M  V30 27495 C 2516.66 -0.823208 -2.13906 0
M  V30 27496 C 2517.67 0.168401 -1.61927 0
M  V30 27497 O 2518.86 -0.0559933 -1.78412 0
M  V30 27498 C 2515.96 -0.204483 -3.38283 0
M  V30 27499 C 2515.13 -1.23555 -4.19587 0
M  V30 27500 C 2514.19 -0.637103 -5.22329 0
M  V30 27501 O 2513.22 -1.30526 -5.54032 0
M  V30 27502 N 2514.42 0.577373 -5.77622 0
M  V30 27503 H 2517.19 -1.74715 -2.43505 0
M  V30 27504 H 2514.75 -1.05823 -1.22528 0
M  V30 27505 H 2516.74 0.208838 -4.04161 0
M  V30 27506 H 2515.31 0.622958 -3.0633 0
M  V30 27507 H 2514.53 -1.82514 -3.49403 0
M  V30 27508 H 2515.82 -1.93145 -4.70715 0
M  V30 27509 H 2515.21 1.13843 -5.54127 0
M  V30 27510 H 2513.77 0.932939 -6.45089 0
M  V30 27511 N 2517.2 1.25039 -0.959323 0
M  V30 27512 C 2518.45 1.93168 -0.617559 0
M  V30 27513 C 2518.78 1.74903 0.843951 0
M  V30 27514 O 2518.06 1.09699 1.60613 0
M  V30 27515 C 2518.34 3.46429 -0.982796 0
M  V30 27516 C 2518.19 3.739 -2.50038 0
M  V30 27517 C 2519.51 4.3712 -0.511253 0
M  V30 27518 H 2516.63 0.701548 -0.225832 0
M  V30 27519 H 2519.27 1.47568 -1.19682 0
M  V30 27520 H 2517.42 3.85399 -0.489874 0
M  V30 27521 H 2519.1 3.44538 -3.06743 0
M  V30 27522 H 2517.34 3.19342 -2.93603 0
M  V30 27523 H 2518.01 4.81099 -2.70644 0
M  V30 27524 H 2520.49 4.05479 -0.934146 0
M  V30 27525 H 2519.36 5.43106 -0.795456 0
M  V30 27526 H 2519.62 4.38162 0.588757 0
M  V30 27527 N 2518.68 0.728444 1.39755 0
M  V30 27528 C 2519.59 0.0855786 2.34444 0
M  V30 27529 C 2520.61 -0.729328 1.57977 0
M  V30 27530 O 2521.78 -0.659313 1.90302 0
M  V30 27531 C 2518.85 -0.815738 3.36967 0
M  V30 27532 C 2517.91 0.0106751 4.29299 0
M  V30 27533 C 2517.14 -0.847717 5.26925 0
M  V30 27534 O 2517.37 -2.08664 5.30863 0
M  V30 27535 O 2516.3 -0.279863 6.01249 0
M  V30 27536 H 2520.13 0.866943 2.91063 0
M  V30 27537 H 2517.71 0.489045 1.41169 0
M  V30 27538 H 2519.59 -1.33164 3.99807 0
M  V30 27539 H 2518.27 -1.57603 2.82742 0
M  V30 27540 H 2517.18 0.571942 3.69702 0
M  V30 27541 H 2518.51 0.733036 4.86711 0
M  V30 27542 N 2520.16 -1.50253 0.475581 0
M  V30 27543 C 2521.11 -2.30244 -0.330235 0
M  V30 27544 C 2522.1 -1.37727 -0.986281 0
M  V30 27545 O 2523.31 -1.54898 -0.916873 0
M  V30 27546 H 2519.68 -0.741481 -0.12534 0
M  V30 27547 H 2521.65 -2.96162 0.364754 0
M  V30 27548 C 2520.4 -3.18402 -1.39698 0
M  V30 27549 H 2519.73 -3.89502 -0.901552 0
M  V30 27550 H 2521.17 -3.77359 -1.93329 0
M  V30 27551 C 2519.63 -2.36297 -2.40136 0
M  V30 27552 O 2520.16 -2.0492 -3.455 0
M  V30 27553 N 2518.36 -1.98793 -2.11966 0
M  V30 27554 H 2517.91 -2.24509 -1.26306 0
M  V30 27555 H 2517.87 -1.44162 -2.79401 0
M  V30 27556 N 2521.64 -0.208365 -1.56217 0
M  V30 27557 C 2522.88 0.427517 -1.98243 0
M  V30 27558 C 2523.22 1.60346 -1.09557 0
M  V30 27559 O 2522.49 1.93918 -0.150384 0
M  V30 27560 C 2522.78 0.874845 -3.49311 0
M  V30 27561 C 2522.63 -0.30383 -4.48773 0
M  V30 27562 C 2523.95 1.7357 -4.04427 0
M  V30 27563 H 2521.07 0.153924 -0.720747 0
M  V30 27564 H 2523.71 -0.301953 -1.87585 0
M  V30 27565 H 2521.86 1.49642 -3.58524 0
M  V30 27566 H 2523.53 -0.941762 -4.51584 0
M  V30 27567 H 2521.77 -0.953449 -4.23192 0
M  V30 27568 H 2522.44 0.0518912 -5.51976 0
M  V30 27569 H 2524.92 1.21136 -3.98077 0
M  V30 27570 H 2523.8 2.01762 -5.10474 0
M  V30 27571 H 2524.06 2.6945 -3.50499 0
M  V30 27572 N 2523.12 1.57465 0.0651402 0
M  V30 27573 C 2524.53 1.53972 0.420078 0
M  V30 27574 C 2524.73 0.929505 1.7878 0
M  V30 27575 O 2523.79 0.534883 2.4677 0
M  V30 27576 C 2525.1 2.98597 0.355032 0
M  V30 27577 C 2526.65 3.09966 0.434738 0
M  V30 27578 C 2527.12 4.56254 0.399529 0
M  V30 27579 N 2528.62 4.60916 0.459407 0
M  V30 27580 C 2529.35 5.71596 0.454484 0
M  V30 27581 N 2528.85 6.91621 0.403981 0
M  V30 27582 N 2530.64 5.59858 0.501537 0
M  V30 27583 H 2522.79 1.95496 -0.830362 0
M  V30 27584 H 2525.05 0.895096 -0.31226 0
M  V30 27585 H 2524.76 3.46827 -0.583418 0
M  V30 27586 H 2524.63 3.58833 1.16269 0
M  V30 27587 H 2527.02 2.61705 1.36361 0
M  V30 27588 H 2527.1 2.52628 -0.401614 0
M  V30 27589 H 2526.75 5.05174 -0.525525 0
M  V30 27590 H 2526.68 5.11463 1.2535 0
M  V30 27591 H 2529.17 3.74545 0.502416 0
M  V30 27592 H 2529.48 7.71742 0.404333 0
M  V30 27593 H 2527.82 6.94011 0.370568 0
M  V30 27594 H 2531.02 4.6499 0.538731 0
M  V30 27595 H 2531.19 6.46112 0.494231 0
M  V30 27596 N 2524.59 -0.336679 1.53962 0
M  V30 27597 C 2525.87 -1.09358 1.62173 0
M  V30 27598 C 2526.25 -2.06307 0.447299 0
M  V30 27599 O 2525.6 -2.21538 -0.559763 0
M  V30 27600 C 2525.81 -1.80715 2.98568 0
M  V30 27601 C 2527.16 -2.34212 3.54161 0
M  V30 27602 O 2528.18 -1.90802 3.00788 0
M  V30 27603 O 2527.04 -3.13649 4.47534 0
M  V30 27604 H 2524.13 -0.503308 0.656209 0
M  V30 27605 H 2526.68 -0.337621 1.66308 0
M  V30 27606 H 2525.45 -1.10125 3.75484 0
M  V30 27607 H 2525.08 -2.63153 2.98054 0
M  V30 27608 N 2526.07 -1.45812 -0.598057 0
M  V30 27609 C 2527 -1.51228 -1.72229 0
M  V30 27610 C 2528.02 -0.402087 -1.57756 0
M  V30 27611 O 2529.21 -0.669653 -1.65463 0
M  V30 27612 C 2526.31 -1.36196 -3.10329 0
M  V30 27613 C 2525.48 -2.61061 -3.5095 0
M  V30 27614 C 2524.54 -2.40448 -4.68051 0
M  V30 27615 O 2523.56 -3.14105 -4.74686 0
M  V30 27616 N 2524.77 -1.45622 -5.61938 0
M  V30 27617 H 2527.53 -2.48157 -1.68042 0
M  V30 27618 H 2525.09 -1.41673 -0.783613 0
M  V30 27619 H 2527.08 -1.20202 -3.86437 0
M  V30 27620 H 2525.65 -0.475069 -3.08969 0
M  V30 27621 H 2524.87 -2.92104 -2.64705 0
M  V30 27622 H 2526.16 -3.4404 -3.74852 0
M  V30 27623 H 2525.56 -0.848529 -5.593 0
M  V30 27624 H 2524.12 -1.35597 -6.3754 0
M  V30 27625 N 2527.55 0.841385 -1.33261 0
M  V30 27626 C 2528.51 1.93257 -1.23224 0
M  V30 27627 C 2529.51 1.60081 -0.151923 0
M  V30 27628 O 2530.7 1.69468 -0.403276 0
M  V30 27629 C 2527.84 3.28855 -0.89818 0
M  V30 27630 H 2529.03 2.03583 -2.20214 0
M  V30 27631 H 2526.58 1.03317 -1.17283 0
M  V30 27632 H 2527.32 3.24226 0.0693271 0
M  V30 27633 H 2527.1 3.54314 -1.6794 0
M  V30 27634 H 2528.59 4.08803 -0.852635 0
M  V30 27635 N 2529.03 1.16688 1.05932 0
M  V30 27636 C 2529.96 0.899986 2.15459 0
M  V30 27637 C 2530.94 -0.155124 1.69391 0
M  V30 27638 O 2532.13 -0.00645279 1.94199 0
M  V30 27639 C 2529.26 0.404301 3.44939 0
M  V30 27640 C 2528.21 1.39774 4.04533 0
M  V30 27641 C 2527.54 0.760309 5.29267 0
M  V30 27642 C 2528.84 2.76853 4.42888 0
M  V30 27643 H 2530.53 1.81592 2.38043 0
M  V30 27644 H 2528.08 0.874534 1.14402 0
M  V30 27645 H 2530.03 0.205045 4.20901 0
M  V30 27646 H 2528.75 -0.54715 3.21984 0
M  V30 27647 H 2527.41 1.58361 3.30632 0
M  V30 27648 H 2527.06 -0.197743 5.02611 0
M  V30 27649 H 2526.76 1.42342 5.70099 0
M  V30 27650 H 2528.28 0.571157 6.07923 0
M  V30 27651 H 2529.7 2.62028 5.09916 0
M  V30 27652 H 2528.09 3.39672 4.94715 0
M  V30 27653 H 2529.16 3.31829 3.53578 0
M  V30 27654 N 2530.51 -1.24529 0.96594 0
M  V30 27655 C 2531.76 -1.91855 0.622471 0
M  V30 27656 C 2532.07 -1.76359 -0.845975 0
M  V30 27657 O 2533.28 -2.38359 -1.29989 0
M  V30 27658 C 2531.73 -3.43854 1.06266 0
M  V30 27659 C 2531.34 -3.68039 2.55444 0
M  V30 27660 C 2533.08 -4.17041 0.792256 0
M  V30 27661 C 2530.99 -5.136 2.93205 0
M  V30 27662 H 2529.92 -0.71835 0.229105 0
M  V30 27663 H 2532.57 -1.41204 1.17191 0
M  V30 27664 H 2530.95 -3.93531 0.441545 0
M  V30 27665 H 2532.13 -3.28969 3.22671 0
M  V30 27666 H 2530.44 -3.08134 2.80076 0
M  V30 27667 H 2533.04 -5.24281 1.05041 0
M  V30 27668 H 2533.38 -4.15414 -0.271511 0
M  V30 27669 H 2533.92 -3.73308 1.37426 0
M  V30 27670 H 2530.65 -5.20348 3.98645 0
M  V30 27671 H 2530.17 -5.53675 2.3066 0
M  V30 27672 H 2531.85 -5.81818 2.83014 0
M  V30 27673 N 2531.99 -0.735845 -1.39367 0
M  V30 27674 C 2532.92 -0.111547 -2.33233 0
M  V30 27675 C 2533.9 0.723307 -1.53955 0
M  V30 27676 O 2535.08 0.668115 -1.82345 0
M  V30 27677 C 2532.21 0.795857 -3.38058 0
M  V30 27678 C 2531.17 0.0650968 -4.2795 0
M  V30 27679 C 2530.49 1.08957 -5.23481 0
M  V30 27680 C 2531.79 -1.09282 -5.10739 0
M  V30 27681 H 2533.49 -0.895621 -2.8569 0
M  V30 27682 H 2531.03 -0.432134 -1.37363 0
M  V30 27683 H 2532.98 1.24214 -4.02677 0
M  V30 27684 H 2531.71 1.61206 -2.84043 0
M  V30 27685 H 2530.37 -0.361575 -3.64813 0
M  V30 27686 H 2530.02 1.89936 -4.65761 0
M  V30 27687 H 2529.72 0.605386 -5.84473 0
M  V30 27688 H 2531.24 1.53554 -5.90977 0
M  V30 27689 H 2532.65 -0.72494 -5.68698 0
M  V30 27690 H 2531.05 -1.5067 -5.80877 0
M  V30 27691 H 2532.12 -1.91412 -4.45522 0
M  V30 27692 N 2533.46 1.49999 -0.483543 0
M  V30 27693 C 2534.4 2.25494 0.350387 0
M  V30 27694 C 2535.37 1.2933 0.985526 0
M  V30 27695 O 2536.56 1.58581 1.01904 0
M  V30 27696 C 2533.69 3.04069 1.49197 0
M  V30 27697 C 2532.73 4.15254 0.972963 0
M  V30 27698 S 2533.56 5.3536 -0.122331 0
M  V30 27699 C 2534.72 6.17486 1.02283 0
M  V30 27700 H 2534.95 2.95878 -0.290433 0
M  V30 27701 H 2532.49 1.52046 -0.268589 0
M  V30 27702 H 2534.44 3.49928 2.14617 0
M  V30 27703 H 2533.11 2.33187 2.10434 0
M  V30 27704 H 2532.3 4.69682 1.82796 0
M  V30 27705 H 2531.9 3.71895 0.39627 0
M  V30 27706 H 2534.19 6.49374 1.93183 0
M  V30 27707 H 2535.14 7.06206 0.51754 0
M  V30 27708 H 2535.54 5.49743 1.28228 0
M  V30 27709 N 2534.94 0.216646 1.56104 0
M  V30 27710 C 2535.89 -0.711997 2.21435 0
M  V30 27711 C 2536.88 -1.20345 1.1922 0
M  V30 27712 O 2538.09 -1.16385 1.37312 0
M  V30 27713 H 2534.46 -0.248014 0.709925 0
M  V30 27714 H 2536.44 -0.137506 2.98083 0
M  V30 27715 C 2535.18 -1.91158 2.90438 0
M  V30 27716 H 2534.51 -1.54251 3.68845 0
M  V30 27717 H 2535.95 -2.53924 3.39557 0
M  V30 27718 C 2534.41 -2.7639 1.9264 0
M  V30 27719 O 2534.94 -3.74993 1.44024 0
M  V30 27720 N 2533.14 -2.42325 1.60396 0
M  V30 27721 H 2532.69 -1.62197 2.00125 0
M  V30 27722 H 2532.65 -2.99634 0.952212 0
M  V30 27723 N 2536.42 -1.57498 -0.0567885 0
M  V30 27724 C 2537.38 -2.03717 -1.05034 0
M  V30 27725 C 2538.38 -0.9366 -1.30707 0
M  V30 27726 O 2539.57 -1.20105 -1.26176 0
M  V30 27727 C 2536.7 -2.43059 -2.3903 0
M  V30 27728 H 2537.9 -2.92734 -0.651664 0
M  V30 27729 H 2535.45 -1.53337 -0.30292 0
M  V30 27730 H 2536.19 -1.57113 -2.83701 0
M  V30 27731 H 2535.97 -3.23383 -2.21733 0
M  V30 27732 H 2537.46 -2.79341 -3.10416 0
M  V30 27733 N 2537.9 0.328509 -1.54138 0
M  V30 27734 C 2539.31 0.672549 -1.44737 0
M  V30 27735 C 2539.51 1.91845 -0.61625 0
M  V30 27736 O 2538.57 2.52247 -0.113111 0
M  V30 27737 C 2539.88 0.851166 -2.88402 0
M  V30 27738 C 2541.43 0.948825 -2.98272 0
M  V30 27739 C 2541.91 1.15965 -4.43076 0
M  V30 27740 N 2543.4 1.2265 -4.46667 0
M  V30 27741 C 2544.13 1.40742 -5.55859 0
M  V30 27742 N 2543.63 1.55908 -6.75029 0
M  V30 27743 N 2545.42 1.4341 -5.43498 0
M  V30 27744 H 2537.57 -0.490458 -2.0666 0
M  V30 27745 H 2539.83 -0.157595 -0.934809 0
M  V30 27746 H 2539.54 0.00698054 -3.51699 0
M  V30 27747 H 2539.41 1.74847 -3.34228 0
M  V30 27748 H 2541.8 1.78352 -2.35106 0
M  V30 27749 H 2541.88 0.0280986 -2.55785 0
M  V30 27750 H 2541.53 0.329826 -5.06828 0
M  V30 27751 H 2541.46 2.09417 -4.83169 0
M  V30 27752 H 2543.95 1.12393 -3.60799 0
M  V30 27753 H 2544.26 1.6939 -7.54007 0
M  V30 27754 H 2542.61 1.53015 -6.77946 0
M  V30 27755 H 2545.8 1.31154 -4.49351 0
M  V30 27756 H 2545.97 1.57167 -6.28651 0
M  V30 27757 N 2539.38 1.46127 0.590316 0
M  V30 27758 C 2540.62 1.50744 1.34613 0
M  V30 27759 C 2540.94 0.15752 1.94363 0
M  V30 27760 O 2540.21 -0.815104 1.78137 0
M  V30 27761 H 2538.79 0.555184 0.49978 0
M  V30 27762 H 2541.46 1.82204 0.691921 0
M  V30 27763 H 2540.55 2.25591 2.15674 0
M  V30 27764 N 2540.85 -0.834306 1.33705 0
M  V30 27765 C 2542.08 -1.62703 1.28618 0
M  V30 27766 C 2542.5 -1.87584 -0.139209 0
M  V30 27767 O 2541.86 -1.44322 -1.09731 0
M  V30 27768 C 2541.91 -2.95167 2.07144 0
M  V30 27769 O 2541.01 -3.86696 1.43317 0
M  V30 27770 H 2540.35 -0.495272 0.442269 0
M  V30 27771 H 2542.88 -1.03762 1.76336 0
M  V30 27772 H 2542.89 -3.44827 2.18079 0
M  V30 27773 H 2541.57 -2.7638 3.10784 0
M  V30 27774 H 2540.15 -3.45192 1.41056 0
M  V30 27775 N 2542.33 -1.17248 -1.05312 0
M  V30 27776 C 2543.56 -0.98518 -1.82507 0
M  V30 27777 C 2543.98 0.461756 -1.82344 0
M  V30 27778 O 2543.34 1.33053 -1.23153 0
M  V30 27779 C 2543.39 -1.52935 -3.26563 0
M  V30 27780 O 2542.49 -0.742296 -4.05665 0
M  V30 27781 H 2541.83 -0.349879 -0.564341 0
M  V30 27782 H 2544.36 -1.55718 -1.32715 0
M  V30 27783 H 2544.37 -1.5511 -3.77366 0
M  V30 27784 H 2543.05 -2.58262 -3.25996 0
M  V30 27785 H 2541.62 -0.791858 -3.64395 0
M  V30 27786 N 2543.81 1.24015 -0.972531 0
M  V30 27787 C 2545.04 1.96804 -0.654452 0
M  V30 27788 C 2545.46 1.71601 0.770368 0
M  V30 27789 O 2544.82 0.982673 1.52359 0
M  V30 27790 C 2544.87 3.48103 -0.941092 0
M  V30 27791 O 2543.97 4.1239 -0.0290197 0
M  V30 27792 H 2543.31 0.616378 -0.24693 0
M  V30 27793 H 2545.84 1.57662 -1.30399 0
M  V30 27794 H 2545.85 3.98516 -0.87459 0
M  V30 27795 H 2544.53 3.65774 -1.97945 0
M  V30 27796 H 2543.1 3.72601 -0.149257 0
M  V30 27797 N 2545.29 0.743226 1.38974 0
M  V30 27798 C 2546.7 0.419691 1.53983 0
M  V30 27799 C 2546.9 -1.06847 1.70839 0
M  V30 27800 O 2545.96 -1.85457 1.71353 0
M  V30 27801 C 2547.27 1.2099 2.75285 0
M  V30 27802 C 2548.82 1.19894 2.89127 0
M  V30 27803 C 2549.3 1.97188 4.13377 0
M  V30 27804 N 2550.79 1.94396 4.20434 0
M  V30 27805 C 2551.52 2.51005 5.15542 0
M  V30 27806 N 2551.02 3.16285 6.16389 0
M  V30 27807 N 2552.81 2.40992 5.07818 0
M  V30 27808 H 2544.96 1.70782 1.26282 0
M  V30 27809 H 2547.23 0.723417 0.612676 0
M  V30 27810 H 2546.93 2.26327 2.692 0
M  V30 27811 H 2546.81 0.819824 3.68183 0
M  V30 27812 H 2549.19 0.153657 2.947 0
M  V30 27813 H 2549.27 1.62845 1.9727 0
M  V30 27814 H 2548.92 3.01722 4.08566 0
M  V30 27815 H 2548.85 1.51638 5.04295 0
M  V30 27816 H 2551.34 1.46845 3.48202 0
M  V30 27817 H 2551.65 3.56927 6.85436 0
M  V30 27818 H 2550 3.20377 6.16752 0
M  V30 27819 H 2553.19 1.89629 4.2797 0
M  V30 27820 H 2553.36 2.85408 5.81761 0
M  V30 27821 N 2546.77 -1.4974 0.491491 0
M  V30 27822 C 2547.68 -2.32715 -0.296794 0
M  V30 27823 C 2548.69 -1.44015 -0.97651 0
M  V30 27824 O 2549.87 -1.77048 -0.959992 0
M  V30 27825 C 2546.93 -3.19217 -1.35283 0
M  V30 27826 C 2545.99 -4.23758 -0.687557 0
M  V30 27827 C 2545.23 -5.06126 -1.69328 0
M  V30 27828 O 2545.45 -4.89866 -2.92211 0
M  V30 27829 O 2544.38 -5.88696 -1.25384 0
M  V30 27830 H 2548.21 -3.01287 0.382101 0
M  V30 27831 H 2545.8 -1.47243 0.252979 0
M  V30 27832 H 2547.68 -3.72831 -1.96404 0
M  V30 27833 H 2546.35 -2.53351 -2.01482 0
M  V30 27834 H 2545.26 -3.74082 -0.0368502 0
M  V30 27835 H 2546.59 -4.92153 -0.0681701 0
M  V30 27836 N 2548.24 -0.224922 -1.55987 0
M  V30 27837 C 2549.17 0.678418 -2.23427 0
M  V30 27838 C 2550.16 1.19845 -1.20712 0
M  V30 27839 O 2551.34 1.24183 -1.49306 0
M  V30 27840 C 2548.47 1.88522 -2.91679 0
M  V30 27841 C 2547.42 1.49889 -4.00895 0
M  V30 27842 C 2546.75 2.78475 -4.5646 0
M  V30 27843 C 2548.05 0.68637 -5.1777 0
M  V30 27844 H 2549.74 0.116121 -2.99175 0
M  V30 27845 H 2547.29 0.0544107 -1.43897 0
M  V30 27846 H 2549.24 2.52264 -3.37551 0
M  V30 27847 H 2547.97 2.47254 -2.13384 0
M  V30 27848 H 2546.63 0.884922 -3.55759 0
M  V30 27849 H 2546.27 3.35358 -3.74892 0
M  V30 27850 H 2545.97 2.53358 -5.30173 0
M  V30 27851 H 2547.5 3.43153 -5.05053 0
M  V30 27852 H 2548.91 1.22757 -5.60003 0
M  V30 27853 H 2547.31 0.532154 -5.97736 0
M  V30 27854 H 2548.38 -0.306281 -4.83932 0
M  V30 27855 N 2549.72 1.57526 0.0484352 0
M  V30 27856 C 2550.97 1.88652 0.744193 0
M  V30 27857 C 2551.3 0.820243 1.76027 0
M  V30 27858 O 2550.58 -0.166951 1.93782 0
M  V30 27859 C 2550.86 3.30436 1.43122 0
M  V30 27860 C 2550.71 4.4774 0.429971 0
M  V30 27861 C 2552.03 3.7082 2.37024 0
M  V30 27862 H 2549.15 0.686124 0.269077 0
M  V30 27863 H 2551.79 1.89999 0.00710192 0
M  V30 27864 H 2549.94 3.29419 2.0595 0
M  V30 27865 H 2551.61 4.60888 -0.194897 0
M  V30 27866 H 2549.86 4.33064 -0.252598 0
M  V30 27867 H 2550.53 5.43785 0.948778 0
M  V30 27868 H 2553 3.7308 1.84256 0
M  V30 27869 H 2551.88 4.7087 2.82086 0
M  V30 27870 H 2552.14 3.02018 3.22859 0
M  V30 27871 N 2551.2 -0.32033 1.5431 0
M  V30 27872 C 2552.11 -1.4173 1.86948 0
M  V30 27873 C 2553.13 -1.56441 0.761717 0
M  V30 27874 O 2554.3 -1.71475 1.05632 0
M  V30 27875 C 2551.37 -2.76397 2.09297 0
M  V30 27876 C 2550.43 -2.70835 3.33087 0
M  V30 27877 C 2549.66 -3.99079 3.5436 0
M  V30 27878 O 2549.88 -4.97503 2.79011 0
M  V30 27879 O 2548.82 -4.02142 4.47845 0
M  V30 27880 H 2552.64 -1.17057 2.80234 0
M  V30 27881 H 2550.23 -0.514649 1.40256 0
M  V30 27882 H 2552.11 -3.56109 2.25309 0
M  V30 27883 H 2550.79 -3.00954 1.19199 0
M  V30 27884 H 2549.69 -1.89663 3.22458 0
M  V30 27885 H 2551.03 -2.51232 4.23253 0
M  V30 27886 N 2552.68 -1.46438 -0.582558 0
M  V30 27887 C 2554.09 -1.45918 -1.16468 0
M  V30 27888 C 2554.44 -0.200111 -1.95177 0
M  V30 27889 O 2553.57 0.696783 -2.04875 0
M  V30 27890 C 2554.16 -2.64371 -2.11881 0
M  V30 27891 C 2552.72 -2.66892 -2.65416 0
M  V30 27892 C 2551.87 -2.38605 -1.4129 0
M  V30 27893 H 2554.82 -1.54315 -0.370487 0
M  V30 27894 H 2554.84 -2.39898 -2.95346 0
M  V30 27895 H 2554.35 -3.55993 -1.54567 0
M  V30 27896 H 2552.45 -1.79343 -3.26599 0
M  V30 27897 H 2552.56 -3.6686 -3.08141 0
M  V30 27898 H 2550.93 -1.88666 -1.71105 0
M  V30 27899 H 2551.71 -3.32404 -0.858067 0
M  V30 27900 N 2554.16 0.827204 -1.34146 0
M  V30 27901 C 2555.1 1.93782 -1.25367 0
M  V30 27902 C 2556.07 1.65592 -0.129803 0
M  V30 27903 O 2557.26 1.88264 -0.310057 0
M  V30 27904 C 2554.4 3.29968 -1.0107 0
M  V30 27905 C 2553.51 3.7048 -2.22191 0
M  V30 27906 C 2552.65 4.95592 -1.91212 0
M  V30 27907 C 2551.69 5.28672 -3.085 0
M  V30 27908 N 2550.82 6.44962 -2.77432 0
M  V30 27909 H 2555.66 2.00623 -2.20351 0
M  V30 27910 H 2553.2 0.981589 -1.09559 0
M  V30 27911 H 2555.16 4.08445 -0.850211 0
M  V30 27912 H 2553.79 3.22653 -0.0975593 0
M  V30 27913 H 2552.84 2.8743 -2.49175 0
M  V30 27914 H 2554.15 3.909 -3.09837 0
M  V30 27915 H 2553.31 5.81845 -1.71875 0
M  V30 27916 H 2552.04 4.77165 -1.0082 0
M  V30 27917 H 2551.05 4.40918 -3.28438 0
M  V30 27918 H 2552.27 5.4904 -3.99664 0
M  V30 27919 H 2550.22 6.27999 -1.89612 0
M  V30 27920 H 2550.14 6.65534 -3.5861 0
M  V30 27921 H 2551.41 7.34296 -2.61589 0
M  V30 27922 N 2555.63 1.17805 1.04688 0
M  V30 27923 C 2556.56 0.922788 2.14492 0
M  V30 27924 C 2557.55 -0.137149 1.69546 0
M  V30 27925 O 2558.73 0.014145 1.94195 0
M  V30 27926 C 2555.86 0.440864 3.4449 0
M  V30 27927 C 2554.81 1.44057 4.03028 0
M  V30 27928 C 2554.14 0.816403 5.28431 0
M  V30 27929 C 2555.44 2.81535 4.39927 0
M  V30 27930 H 2557.13 1.84107 2.36104 0
M  V30 27931 H 2554.68 0.886619 1.13468 0
M  V30 27932 H 2556.63 0.249676 4.2066 0
M  V30 27933 H 2555.36 -0.512968 3.22546 0
M  V30 27934 H 2554.02 1.61859 3.28934 0
M  V30 27935 H 2553.66 -0.144423 5.02793 0
M  V30 27936 H 2553.36 1.48381 5.68557 0
M  V30 27937 H 2554.89 0.635603 6.07283 0
M  V30 27938 H 2556.3 2.67421 5.07108 0
M  V30 27939 H 2554.7 3.449 4.91084 0
M  V30 27940 H 2555.77 3.35561 3.50039 0
M  V30 27941 N 2557.11 -1.23497 0.979094 0
M  V30 27942 C 2558.08 -2.23147 0.523283 0
M  V30 27943 C 2559.08 -1.56089 -0.386379 0
M  V30 27944 O 2560.27 -1.73265 -0.180252 0
M  V30 27945 C 2557.4 -3.40049 -0.240679 0
M  V30 27946 H 2558.59 -2.64986 1.40436 0
M  V30 27947 H 2556.14 -1.36308 0.764848 0
M  V30 27948 H 2556.88 -3.03664 -1.13836 0
M  V30 27949 H 2556.66 -3.89927 0.412275 0
M  V30 27950 H 2558.15 -4.13986 -0.548225 0
M  V30 27951 N 2558.59 -0.750586 -1.38578 0
M  V30 27952 C 2559.5 -0.122866 -2.34278 0
M  V30 27953 C 2560.52 0.704103 -1.59118 0
M  V30 27954 O 2561.69 0.628954 -1.91327 0
M  V30 27955 C 2558.76 0.762027 -3.38222 0
M  V30 27956 C 2557.82 -0.0789714 -4.29227 0
M  V30 27957 C 2557.05 0.763781 -5.28206 0
M  V30 27958 O 2557.28 2.00192 -5.34116 0
M  V30 27959 O 2556.21 0.184174 -6.01618 0
M  V30 27960 H 2560.04 -0.913139 -2.89647 0
M  V30 27961 H 2557.62 -0.511442 -1.40373 0
M  V30 27962 H 2559.5 1.26786 -4.01875 0
M  V30 27963 H 2558.18 1.53085 -2.85214 0
M  V30 27964 H 2557.08 -0.630686 -3.68745 0
M  V30 27965 H 2558.42 -0.810375 -4.85483 0
M  V30 27966 N 2560.07 1.49477 -0.499425 0
M  V30 27967 C 2561 2.31943 0.269203 0
M  V30 27968 C 2561.98 1.40144 0.96403 0
M  V30 27969 O 2563.17 1.69054 0.955737 0
M  V30 27970 C 2560.3 3.20617 1.33499 0
M  V30 27971 C 2559.25 4.21196 0.760128 0
M  V30 27972 C 2558.58 4.98796 1.92631 0
M  V30 27973 C 2559.88 5.21712 -0.247753 0
M  V30 27974 H 2561.57 2.96452 -0.419134 0
M  V30 27975 H 2559.12 1.42562 -0.203013 0
M  V30 27976 H 2561.07 3.77119 1.88041 0
M  V30 27977 H 2559.79 2.54048 2.05249 0
M  V30 27978 H 2558.45 3.65837 0.236466 0
M  V30 27979 H 2558.1 4.28676 2.63146 0
M  V30 27980 H 2557.8 5.6685 1.54775 0
M  V30 27981 H 2559.32 5.58141 2.4761 0
M  V30 27982 H 2560.74 5.72917 0.209479 0
M  V30 27983 H 2559.13 5.97647 -0.542067 0
M  V30 27984 H 2560.2 4.70718 -1.16417 0
M  V30 27985 N 2561.55 0.233191 1.55865 0
M  V30 27986 C 2562.5 -0.688471 2.22177 0
M  V30 27987 C 2563.49 -1.19074 1.20489 0
M  V30 27988 O 2564.7 -1.14922 1.38538 0
M  V30 27989 H 2561.07 -0.24047 0.712515 0
M  V30 27990 H 2563.04 -0.105883 2.98212 0
M  V30 27991 C 2561.79 -1.88066 2.92449 0
M  V30 27992 H 2561.11 -1.5033 3.7046 0
M  V30 27993 H 2562.55 -2.50308 3.42231 0
M  V30 27994 C 2561.01 -2.74332 1.9556 0
M  V30 27995 O 2561.54 -3.73445 1.47993 0
M  V30 27996 N 2559.75 -2.4061 1.62957 0
M  V30 27997 H 2559.3 -1.60065 2.01834 0
M  V30 27998 H 2559.25 -2.98607 0.983939 0
M  V30 27999 N 2563.03 -1.57549 -0.0400806 0
M  V30 28000 C 2564.44 -1.54621 -0.395529 0
M  V30 28001 C 2564.64 -0.95783 -1.77279 0
M  V30 28002 O 2563.7 -0.574074 -2.45887 0
M  V30 28003 C 2565.01 -2.99124 -0.307482 0
M  V30 28004 C 2566.56 -3.10619 -0.38537 0
M  V30 28005 C 2567.03 -4.56832 -0.326892 0
M  V30 28006 N 2568.52 -4.61589 -0.386021 0
M  V30 28007 C 2569.26 -5.72247 -0.36349 0
M  V30 28008 N 2568.76 -6.92176 -0.293899 0
M  V30 28009 N 2570.55 -5.60585 -0.412405 0
M  V30 28010 H 2562.7 -1.9415 0.861359 0
M  V30 28011 H 2564.96 -0.890015 0.326461 0
M  V30 28012 H 2564.67 -3.45855 0.638522 0
M  V30 28013 H 2564.54 -3.60638 -1.10545 0
M  V30 28014 H 2566.93 -2.63842 -1.3218 0
M  V30 28015 H 2567.01 -2.51957 0.441755 0
M  V30 28016 H 2566.65 -5.04274 0.605827 0
M  V30 28017 H 2566.58 -5.13393 -1.17198 0
M  V30 28018 H 2569.08 -3.75297 -0.442766 0
M  V30 28019 H 2569.39 -7.72287 -0.281504 0
M  V30 28020 H 2567.73 -6.94513 -0.26011 0
M  V30 28021 H 2570.92 -4.65788 -0.464687 0
M  V30 28022 H 2571.1 -6.46817 -0.391378 0
M  V30 28023 N 2564.5 0.312142 -1.54478 0
M  V30 28024 C 2565.45 1.40466 -1.85397 0
M  V30 28025 C 2566.45 1.53017 -0.726776 0
M  V30 28026 O 2567.65 1.55267 -0.910609 0
M  V30 28027 H 2564.03 0.46897 -0.587853 0
M  V30 28028 H 2566 1.11618 -2.76738 0
M  V30 28029 C 2564.75 2.765 -2.10816 0
M  V30 28030 H 2564.07 2.67619 -2.97018 0
M  V30 28031 H 2565.51 3.51984 -2.36396 0
M  V30 28032 C 2563.97 3.24567 -0.903222 0
M  V30 28033 O 2564.5 4.01526 -0.118155 0
M  V30 28034 N 2562.7 2.81751 -0.711684 0
M  V30 28035 H 2562.25 2.19284 -1.35175 0
M  V30 28036 H 2562.21 3.14262 0.0929921 0
M  V30 28037 N 2565.98 1.46745 0.574784 0
M  V30 28038 C 2567.23 1.52465 1.3327 0
M  V30 28039 C 2567.56 0.179606 1.93669 0
M  V30 28040 O 2566.81 -0.825633 1.77431 0
M  V30 28041 C 2567.11 2.57742 2.47596 0
M  V30 28042 C 2566.78 4.01533 2.05139 0
M  V30 28043 C 2565.44 4.40679 1.93276 0
M  V30 28044 C 2567.79 4.91827 1.72497 0
M  V30 28045 C 2565.12 5.67976 1.47039 0
M  V30 28046 C 2567.47 6.19569 1.27737 0
M  V30 28047 C 2566.13 6.57614 1.14456 0
M  V30 28048 H 2565.4 0.557907 0.487669 0
M  V30 28049 H 2568.05 1.8026 0.646425 0
M  V30 28050 H 2566.36 2.23638 3.21704 0
M  V30 28051 H 2568.05 2.59395 3.05802 0
M  V30 28052 H 2564.64 3.70594 2.1531 0
M  V30 28053 H 2568.83 4.62296 1.80544 0
M  V30 28054 H 2564.08 5.96217 1.35407 0
M  V30 28055 H 2568.26 6.88958 1.01535 0
M  V30 28056 H 2565.88 7.56146 0.784057 0
M  V30 28057 N 2567.46 -0.820078 1.34583 0
M  V30 28058 C 2568.37 -1.96294 1.28474 0
M  V30 28059 C 2569.39 -1.72938 0.191932 0
M  V30 28060 O 2570.56 -1.96995 0.418914 0
M  V30 28061 C 2567.63 -3.30643 1.04287 0
M  V30 28062 C 2566.69 -3.66988 2.22752 0
M  V30 28063 C 2565.92 -4.94926 1.99709 0
M  V30 28064 O 2566.14 -5.62319 0.956755 0
M  V30 28065 O 2565.08 -5.29215 2.86732 0
M  V30 28066 H 2568.9 -2.04392 2.24628 0
M  V30 28067 H 2566.49 -0.955893 1.14817 0
M  V30 28068 H 2568.37 -4.11102 0.925914 0
M  V30 28069 H 2567.05 -3.23507 0.111754 0
M  V30 28070 H 2565.95 -2.86962 2.40008 0
M  V30 28071 H 2567.29 -3.78813 3.14263 0
M  V30 28072 N 2568.94 -1.18359 -1.04062 0
M  V30 28073 C 2569.88 -0.91064 -2.12075 0
M  V30 28074 C 2570.85 0.149971 -1.65422 0
M  V30 28075 O 2572.04 0.0103279 -1.90797 0
M  V30 28076 C 2569.18 -0.442532 -3.42251 0
M  V30 28077 C 2568.29 -1.56857 -4.02517 0
M  V30 28078 C 2567.43 -1.05318 -5.20655 0
M  V30 28079 C 2566.47 -2.1539 -5.72951 0
M  V30 28080 N 2565.6 -1.65245 -6.82377 0
M  V30 28081 H 2570.44 -1.83552 -2.34761 0
M  V30 28082 H 2567.98 -0.915299 -1.15155 0
M  V30 28083 H 2569.94 -0.152607 -4.16921 0
M  V30 28084 H 2568.57 0.445372 -3.19713 0
M  V30 28085 H 2567.62 -1.97397 -3.25175 0
M  V30 28086 H 2568.93 -2.39832 -4.37358 0
M  V30 28087 H 2568.09 -0.717782 -6.02439 0
M  V30 28088 H 2566.83 -0.193016 -4.87318 0
M  V30 28089 H 2565.83 -2.49775 -4.89788 0
M  V30 28090 H 2567.06 -3.01842 -6.08332 0
M  V30 28091 H 2565 -0.815178 -6.50915 0
M  V30 28092 H 2564.92 -2.41818 -7.16282 0
M  V30 28093 H 2566.19 -1.34633 -7.67785 0
M  V30 28094 N 2570.42 1.22976 -0.98563 0
M  V30 28095 C 2571.66 1.91815 -0.658393 0
M  V30 28096 C 2571.99 1.76654 0.806661 0
M  V30 28097 O 2571.27 1.13081 1.5825 0
M  V30 28098 C 2571.55 3.44266 -1.05606 0
M  V30 28099 C 2571.41 3.68512 -2.57913 0
M  V30 28100 C 2572.72 4.35938 -0.603857 0
M  V30 28101 H 2569.84 0.696599 -0.240662 0
M  V30 28102 H 2572.49 1.44996 -1.22785 0
M  V30 28103 H 2570.64 3.84273 -0.571513 0
M  V30 28104 H 2572.31 3.37954 -3.13982 0
M  V30 28105 H 2570.55 3.13043 -3.00311 0
M  V30 28106 H 2571.22 4.7525 -2.80788 0
M  V30 28107 H 2573.7 4.03406 -1.01994 0
M  V30 28108 H 2572.57 5.41296 -0.910478 0
M  V30 28109 H 2572.83 4.39312 0.495684 0
M  V30 28110 N 2571.89 0.757924 1.38178 0
M  V30 28111 C 2573.12 0.325715 2.04826 0
M  V30 28112 C 2573.54 -1.03916 1.5679 0
M  V30 28113 O 2572.9 -1.6631 0.721841 0
M  V30 28114 C 2572.95 0.36251 3.58773 0
M  V30 28115 O 2572.05 -0.641961 4.07373 0
M  V30 28116 H 2571.39 0.143413 0.648328 0
M  V30 28117 H 2573.92 1.03026 1.76768 0
M  V30 28118 H 2573.93 0.214915 4.07434 0
M  V30 28119 H 2572.61 1.35831 3.93094 0
M  V30 28120 H 2571.19 -0.458623 3.70069 0
M  V30 28121 N 2573.37 -1.4921 0.507345 0
M  V30 28122 C 2574.3 -2.27168 -0.304492 0
M  V30 28123 C 2575.32 -1.33973 -0.924932 0
M  V30 28124 O 2576.51 -1.59206 -0.807199 0
M  V30 28125 C 2573.61 -3.06585 -1.44426 0
M  V30 28126 C 2572.78 -4.274 -0.929951 0
M  V30 28127 C 2571.84 -4.88811 -1.94809 0
M  V30 28128 O 2570.86 -5.48693 -1.51409 0
M  V30 28129 N 2572.07 -4.79027 -3.27892 0
M  V30 28130 H 2574.83 -2.97481 0.364002 0
M  V30 28131 H 2572.39 -1.58284 0.340277 0
M  V30 28132 H 2574.38 -3.44541 -2.12305 0
M  V30 28133 H 2572.95 -2.38839 -2.0168 0
M  V30 28134 H 2572.17 -3.94127 -0.0758551 0
M  V30 28135 H 2573.46 -5.05655 -0.564843 0
M  V30 28136 H 2572.86 -4.31487 -3.65836 0
M  V30 28137 H 2571.42 -5.21149 -3.91467 0
M  V30 28138 N 2574.85 -0.241454 -1.55739 0
M  V30 28139 C 2575.8 0.674195 -2.17804 0
M  V30 28140 C 2576.78 1.14317 -1.13227 0
M  V30 28141 O 2577.98 1.09385 -1.39154 0
M  V30 28142 C 2575.11 1.87328 -2.87686 0
M  V30 28143 C 2574.19 1.42306 -3.99512 0
M  V30 28144 N 2574.58 0.68671 -5.01117 0
M  V30 28145 C 2572.88 1.70878 -4.11967 0
M  V30 28146 C 2573.58 0.454354 -5.79923 0
M  V30 28147 N 2572.56 1.01696 -5.34003 0
M  V30 28148 H 2576.36 0.103395 -2.93718 0
M  V30 28149 H 2573.87 -0.043538 -1.62342 0
M  V30 28150 H 2575.87 2.54021 -3.30574 0
M  V30 28151 H 2574.53 2.44836 -2.13273 0
M  V30 28152 H 2575.54 0.337368 -5.168 0
M  V30 28153 H 2572.22 2.29563 -3.48722 0
M  V30 28154 H 2573.61 -0.13311 -6.71768 0
M  V30 28155 N 2576.33 1.57568 0.0317248 0
M  V30 28156 C 2577.58 1.88331 0.722098 0
M  V30 28157 C 2577.89 0.839618 1.76663 0
M  V30 28158 O 2579.1 1.03639 2.50941 0
M  V30 28159 C 2577.55 3.34209 1.33538 0
M  V30 28160 C 2577.16 4.46803 0.327336 0
M  V30 28161 C 2578.9 3.74124 2.00579 0
M  V30 28162 C 2576.81 5.83739 0.948812 0
M  V30 28163 H 2575.74 0.702666 0.273453 0
M  V30 28164 H 2578.39 1.83485 -0.0236134 0
M  V30 28165 H 2576.77 3.33792 2.13071 0
M  V30 28166 H 2577.95 4.58684 -0.441086 0
M  V30 28167 H 2576.26 4.15703 -0.240831 0
M  V30 28168 H 2578.86 4.73749 2.47924 0
M  V30 28169 H 2579.2 3.0598 2.8228 0
M  V30 28170 H 2579.74 3.76704 1.27824 0
M  V30 28171 H 2576.48 6.55276 0.171271 0
M  V30 28172 H 2576 5.75583 1.68714 0
M  V30 28173 H 2577.67 6.30383 1.45694 0
M  V30 28174 N 2577.81 -0.303946 1.54641 0
M  V30 28175 C 2578.75 -1.37476 1.85389 0
M  V30 28176 C 2579.72 -1.5051 0.702554 0
M  V30 28177 O 2580.91 -1.65416 0.950896 0
M  V30 28178 C 2578.05 -2.73529 2.10418 0
M  V30 28179 C 2577.16 -2.68968 3.38054 0
M  V30 28180 C 2576.3 -3.96996 3.52941 0
M  V30 28181 C 2575.34 -3.86821 4.7438 0
M  V30 28182 N 2574.47 -5.06618 4.86089 0
M  V30 28183 H 2579.31 -1.10555 2.76734 0
M  V30 28184 H 2576.85 -0.534781 1.37035 0
M  V30 28185 H 2578.81 -3.52648 2.22925 0
M  V30 28186 H 2577.44 -2.98717 1.22343 0
M  V30 28187 H 2576.49 -1.81731 3.34183 0
M  V30 28188 H 2577.8 -2.57338 4.27292 0
M  V30 28189 H 2576.96 -4.84551 3.65097 0
M  V30 28190 H 2575.69 -4.11456 2.61831 0
M  V30 28191 H 2574.7 -2.9765 4.62261 0
M  V30 28192 H 2575.92 -3.73908 5.66895 0
M  V30 28193 H 2573.87 -5.21547 3.97901 0
M  V30 28194 H 2573.79 -4.974 5.69324 0
M  V30 28195 H 2575.06 -5.95832 5.02598 0
M  V30 28196 N 2579.28 -1.47047 -0.566994 0
M  V30 28197 C 2580.51 -1.57011 -1.35508 0
M  V30 28198 C 2580.93 -0.217292 -1.86841 0
M  V30 28199 O 2580.29 0.805239 -1.62436 0
M  V30 28200 C 2580.34 -2.59125 -2.50772 0
M  V30 28201 O 2579.44 -2.13717 -3.52702 0
M  V30 28202 H 2578.79 -0.527787 -0.40291 0
M  V30 28203 H 2581.32 -1.92749 -0.686207 0
M  V30 28204 H 2581.33 -2.79234 -2.97476 0
M  V30 28205 H 2580 -3.57357 -2.12765 0
M  V30 28206 H 2578.58 -2.03664 -3.1237 0
M  V30 28207 N 2580.76 0.812929 -1.35016 0
M  V30 28208 C 2581.73 1.906 -1.27296 0
M  V30 28209 C 2582.73 1.59722 -0.185845 0
M  V30 28210 O 2583.92 1.68574 -0.439132 0
M  V30 28211 C 2581.05 3.26876 -0.967733 0
M  V30 28212 H 2582.24 1.98866 -2.24482 0
M  V30 28213 H 2579.79 1.00806 -1.19448 0
M  V30 28214 H 2580.53 3.243 0.000538396 0
M  V30 28215 H 2580.31 3.50672 -1.75418 0
M  V30 28216 H 2581.8 4.06902 -0.939156 0
M  V30 28217 N 2582.24 1.18909 1.03433 0
M  V30 28218 C 2583.19 0.921874 2.11589 0
M  V30 28219 C 2584.16 -0.141197 1.65499 0
M  V30 28220 O 2585.34 -0.000209291 1.908 0
M  V30 28221 C 2582.48 0.460676 3.42011 0
M  V30 28222 C 2581.6 1.58989 4.01679 0
M  V30 28223 C 2580.73 1.08078 5.20089 0
M  V30 28224 C 2579.77 2.18426 5.71801 0
M  V30 28225 N 2578.91 1.68861 6.81491 0
M  V30 28226 H 2583.75 1.84795 2.33784 0
M  V30 28227 H 2581.28 0.921393 1.14668 0
M  V30 28228 H 2583.24 0.174715 4.16834 0
M  V30 28229 H 2581.87 -0.42841 3.19945 0
M  V30 28230 H 2580.92 1.99119 3.24123 0
M  V30 28231 H 2582.24 2.42148 4.3608 0
M  V30 28232 H 2581.39 0.749721 6.0205 0
M  V30 28233 H 2580.13 0.218857 4.87209 0
M  V30 28234 H 2579.13 2.52368 4.88457 0
M  V30 28235 H 2580.36 3.05064 6.06723 0
M  V30 28236 H 2578.3 0.849686 6.50474 0
M  V30 28237 H 2578.22 2.45613 7.1499 0
M  V30 28238 H 2579.49 1.38702 7.67061 0
M  V30 28239 N 2583.72 -1.22452 0.992137 0
M  V30 28240 C 2584.65 -2.26643 0.561716 0
M  V30 28241 C 2585.63 -1.65059 -0.411026 0
M  V30 28242 O 2586.81 -1.9184 -0.301827 0
M  V30 28243 C 2583.94 -3.47074 -0.125186 0
M  V30 28244 C 2582.9 -4.21089 0.766022 0
M  V30 28245 C 2582.22 -5.34673 -0.0537544 0
M  V30 28246 C 2583.52 -4.79852 2.0625 0
M  V30 28247 H 2585.22 -2.62899 1.43263 0
M  V30 28248 H 2582.76 -1.26376 0.690305 0
M  V30 28249 H 2584.72 -4.19121 -0.43769 0
M  V30 28250 H 2583.44 -3.09912 -1.03064 0
M  V30 28251 H 2582.1 -3.50876 1.06216 0
M  V30 28252 H 2581.75 -4.93752 -0.960101 0
M  V30 28253 H 2581.45 -5.85118 0.539517 0
M  V30 28254 H 2582.97 -6.09536 -0.36037 0
M  V30 28255 H 2584.39 -5.43845 1.814 0
M  V30 28256 H 2582.78 -5.40633 2.60453 0
M  V30 28257 H 2583.85 -3.99946 2.74174 0
M  V30 28258 N 2585.2 -0.765242 -1.37774 0
M  V30 28259 C 2586.13 -0.160994 -2.32944 0
M  V30 28260 C 2587.11 0.690488 -1.55455 0
M  V30 28261 O 2588.29 0.629286 -1.83722 0
M  V30 28262 C 2585.42 0.723971 -3.3967 0
M  V30 28263 C 2584.38 -0.0256925 -4.27992 0
M  V30 28264 C 2583.7 0.97829 -5.25674 0
M  V30 28265 C 2585 -1.20091 -5.08306 0
M  V30 28266 H 2586.7 -0.956019 -2.83726 0
M  V30 28267 H 2584.24 -0.461173 -1.36416 0
M  V30 28268 H 2586.2 1.15645 -4.05221 0
M  V30 28269 H 2584.92 1.55144 -2.87398 0
M  V30 28270 H 2583.58 -0.438876 -3.63964 0
M  V30 28271 H 2583.23 1.80014 -4.69685 0
M  V30 28272 H 2582.93 0.481275 -5.85626 0
M  V30 28273 H 2584.45 1.40984 -5.94101 0
M  V30 28274 H 2585.86 -0.845407 -5.67032 0
M  V30 28275 H 2584.26 -1.62957 -5.77551 0
M  V30 28276 H 2585.33 -2.00819 -4.41361 0
M  V30 28277 N 2586.67 1.48939 -0.515251 0
M  V30 28278 C 2587.92 2.01683 0.0261007 0
M  V30 28279 C 2588.24 1.39886 1.36716 0
M  V30 28280 O 2589.44 1.84041 1.99603 0
M  V30 28281 C 2587.9 3.59769 0.0969479 0
M  V30 28282 C 2587.51 4.30545 -1.23833 0
M  V30 28283 C 2589.25 4.20409 0.587908 0
M  V30 28284 C 2587.16 5.80526 -1.12887 0
M  V30 28285 H 2586.09 0.753879 0.0135266 0
M  V30 28286 H 2588.74 1.71342 -0.656817 0
M  V30 28287 H 2587.12 3.86888 0.844626 0
M  V30 28288 H 2588.29 4.15114 -2.00042 0
M  V30 28289 H 2586.61 3.81713 -1.66385 0
M  V30 28290 H 2589.21 5.30261 0.687537 0
M  V30 28291 H 2589.55 3.84732 1.59019 0
M  V30 28292 H 2590.08 3.97665 -0.103652 0
M  V30 28293 H 2586.82 6.20753 -2.10586 0
M  V30 28294 H 2586.34 5.98411 -0.407905 0
M  V30 28295 H 2588.02 6.41866 -0.813445 0
M  V30 28296 N 2588.15 0.249709 1.55609 0
M  V30 28297 C 2589.12 -0.635355 2.20218 0
M  V30 28298 C 2590.12 -1.10064 1.17229 0
M  V30 28299 O 2591.31 -1.0049 1.42294 0
M  V30 28300 C 2588.44 -1.87358 2.84798 0
M  V30 28301 H 2589.63 -0.0716225 2.99814 0
M  V30 28302 H 2587.18 0.000180708 1.563 0
M  V30 28303 H 2587.92 -2.47848 2.09146 0
M  V30 28304 H 2587.7 -1.54813 3.60243 0
M  V30 28305 H 2589.19 -2.50354 3.34234 0
M  V30 28306 N 2589.63 -1.57583 -0.0233682 0
M  V30 28307 C 2590.56 -2.03739 -1.04991 0
M  V30 28308 C 2591.58 -0.951176 -1.32123 0
M  V30 28309 O 2592.77 -1.22839 -1.2951 0
M  V30 28310 C 2589.87 -2.40254 -2.39022 0
M  V30 28311 C 2589.04 -3.71324 -2.31164 0
M  V30 28312 C 2588.1 -3.94965 -3.47691 0
M  V30 28313 O 2587.12 -4.65947 -3.26928 0
M  V30 28314 N 2588.33 -3.41045 -4.69754 0
M  V30 28315 H 2591.09 -2.92422 -0.656456 0
M  V30 28316 H 2588.65 -1.60516 -0.211207 0
M  V30 28317 H 2590.64 -2.53202 -3.15707 0
M  V30 28318 H 2589.21 -1.57211 -2.70191 0
M  V30 28319 H 2588.43 -3.68676 -1.39541 0
M  V30 28320 H 2589.72 -4.57297 -2.23063 0
M  V30 28321 H 2589.12 -2.83521 -4.89523 0
M  V30 28322 H 2587.68 -3.59363 -5.43785 0
M  V30 28323 N 2591.11 0.29574 -1.548 0
M  V30 28324 C 2592.02 1.38738 -1.89179 0
M  V30 28325 C 2593.04 1.5521 -0.786509 0
M  V30 28326 O 2594.21 1.69773 -1.08347 0
M  V30 28327 C 2591.28 2.73033 -2.13668 0
M  V30 28328 C 2590.34 2.65502 -3.37354 0
M  V30 28329 C 2589.57 3.93391 -3.60665 0
M  V30 28330 O 2589.79 4.93001 -2.86891 0
M  V30 28331 O 2588.73 3.94967 -4.54186 0
M  V30 28332 H 2592.55 1.12584 -2.82061 0
M  V30 28333 H 2590.14 0.49227 -1.41057 0
M  V30 28334 H 2592.02 3.5248 -2.30946 0
M  V30 28335 H 2590.7 2.99019 -1.23972 0
M  V30 28336 H 2589.6 1.84508 -3.25434 0
M  V30 28337 H 2590.94 2.44467 -4.27196 0
M  V30 28338 N 2592.59 1.47346 0.559187 0
M  V30 28339 C 2594 1.47753 1.14132 0
M  V30 28340 C 2594.35 0.231137 1.94834 0
M  V30 28341 O 2593.47 -0.664101 2.05958 0
M  V30 28342 C 2594.07 2.67708 2.07648 0
M  V30 28343 C 2592.63 2.71081 2.61136 0
M  V30 28344 C 2591.78 2.40823 1.37476 0
M  V30 28345 H 2594.73 1.54885 0.34589 0
M  V30 28346 H 2594.75 2.44566 2.91492 0
M  V30 28347 H 2594.26 3.58407 1.48884 0
M  V30 28348 H 2592.36 1.84517 3.23704 0
M  V30 28349 H 2592.47 3.71716 3.02265 0
M  V30 28350 H 2590.84 1.91365 1.68082 0
M  V30 28351 H 2591.62 3.33727 0.805076 0
M  V30 28352 N 2594.07 -0.805758 1.35445 0
M  V30 28353 C 2595 -1.93224 1.31099 0
M  V30 28354 C 2595.98 -1.69088 0.185274 0
M  V30 28355 O 2597.16 -1.90439 0.380366 0
M  V30 28356 C 2594.29 -3.29981 1.08305 0
M  V30 28357 C 2593.25 -3.68601 2.17526 0
M  V30 28358 C 2592.57 -5.03529 1.79896 0
M  V30 28359 C 2593.87 -3.78892 3.59497 0
M  V30 28360 H 2595.57 -1.97118 2.25355 0
M  V30 28361 H 2593.11 -0.946977 1.08482 0
M  V30 28362 H 2595.06 -4.08389 1.03904 0
M  V30 28363 H 2593.79 -3.26431 0.104942 0
M  V30 28364 H 2592.45 -2.92478 2.21025 0
M  V30 28365 H 2592.1 -4.96484 0.807017 0
M  V30 28366 H 2591.8 -5.30339 2.5301 0
M  V30 28367 H 2593.32 -5.84376 1.77022 0
M  V30 28368 H 2594.73 -4.4753 3.58315 0
M  V30 28369 H 2593.13 -4.17173 4.31378 0
M  V30 28370 H 2594.2 -2.80424 3.95589 0
M  V30 28371 N 2595.54 -1.19456 -1.02801 0
M  V30 28372 C 2596.77 -1.02152 -1.79579 0
M  V30 28373 C 2597.18 0.432819 -1.84183 0
M  V30 28374 O 2596.52 1.3124 -1.28537 0
M  V30 28375 C 2596.59 -1.5156 -3.2599 0
M  V30 28376 C 2596.25 -2.99684 -3.4502 0
M  V30 28377 C 2597.25 -3.9744 -3.35168 0
M  V30 28378 C 2594.93 -3.38396 -3.71206 0
M  V30 28379 C 2596.93 -5.31899 -3.51229 0
M  V30 28380 C 2594.61 -4.73014 -3.86912 0
M  V30 28381 C 2595.61 -5.69575 -3.76926 0
M  V30 28382 O 2595.3 -7.01755 -3.92167 0
M  V30 28383 H 2595.03 -0.360337 -0.571955 0
M  V30 28384 H 2597.59 -1.58727 -1.30365 0
M  V30 28385 H 2595.82 -0.893609 -3.76233 0
M  V30 28386 H 2597.5 -1.30451 -3.84366 0
M  V30 28387 H 2598.27 -3.68877 -3.14888 0
M  V30 28388 H 2594.15 -2.63787 -3.78071 0
M  V30 28389 H 2597.69 -6.07253 -3.43351 0
M  V30 28390 H 2593.59 -5.01272 -4.0669 0
M  V30 28391 H 2594.36 -7.0884 -4.09253 0
M  V30 28392 N 2597.02 1.21924 -0.998617 0
M  V30 28393 C 2597.95 2.2341 -0.511918 0
M  V30 28394 C 2598.97 1.57909 0.396066 0
M  V30 28395 O 2600.16 1.77406 0.197285 0
M  V30 28396 C 2597.26 3.37768 0.276743 0
M  V30 28397 C 2596.43 4.32857 -0.628763 0
M  V30 28398 C 2595.49 5.26087 0.109179 0
M  V30 28399 O 2594.51 5.66935 -0.507336 0
M  V30 28400 N 2595.72 5.63619 1.38973 0
M  V30 28401 H 2598.48 2.65798 -1.38462 0
M  V30 28402 H 2596.04 1.36282 -0.874005 0
M  V30 28403 H 2598.03 3.97128 0.77921 0
M  V30 28404 H 2596.6 2.94417 1.05058 0
M  V30 28405 H 2595.82 3.71732 -1.31182 0
M  V30 28406 H 2597.11 4.93327 -1.24523 0
M  V30 28407 H 2596.51 5.32414 1.91185 0
M  V30 28408 H 2595.07 6.2537 1.83728 0
M  V30 28409 N 2598.5 0.772537 1.37367 0
M  V30 28410 C 2599.74 0.342396 2.01512 0
M  V30 28411 C 2600.1 -1.06133 1.59999 0
M  V30 28412 O 2601.3 -1.59163 2.16611 0
M  V30 28413 C 2599.58 0.48211 3.54133 0
M  V30 28414 S 2601.13 0.137349 4.38585 0
M  V30 28415 H 2597.95 0.131699 0.698696 0
M  V30 28416 H 2600.55 1.00733 1.67551 0
M  V30 28417 H 2599.26 1.50435 3.81834 0
M  V30 28418 H 2598.79 -0.199344 3.92895 0
M  V30 28419 H 2600.8 -1.06684 4.84596 0
M  V30 28420 N 2599.98 -1.48664 0.523142 0
M  V30 28421 C 2600.91 -2.32342 -0.232269 0
M  V30 28422 C 2601.89 -1.4166 -0.941612 0
M  V30 28423 O 2603.07 -1.70553 -0.928721 0
M  V30 28424 C 2600.2 -3.227 -1.28381 0
M  V30 28425 C 2599.16 -4.22352 -0.693024 0
M  V30 28426 C 2598.48 -5.01797 -1.84672 0
M  V30 28427 C 2599.78 -5.21252 0.330721 0
M  V30 28428 H 2601.48 -2.95747 0.466244 0
M  V30 28429 H 2599.02 -1.42221 0.225668 0
M  V30 28430 H 2600.98 -3.80063 -1.82018 0
M  V30 28431 H 2599.7 -2.57281 -2.01181 0
M  V30 28432 H 2598.36 -3.66166 -0.178235 0
M  V30 28433 H 2598.01 -4.32808 -2.56293 0
M  V30 28434 H 2597.71 -5.6924 -1.45737 0
M  V30 28435 H 2599.23 -5.6201 -2.38699 0
M  V30 28436 H 2600.65 -5.73178 -0.118306 0
M  V30 28437 H 2599.04 -5.96709 0.637079 0
M  V30 28438 H 2600.11 -4.68806 1.23891 0
M  V30 28439 N 2601.46 -0.257958 -1.55475 0
M  V30 28440 C 2602.7 0.364231 -1.99502 0
M  V30 28441 C 2603.03 1.5678 -1.14603 0
M  V30 28442 O 2602.31 1.93341 -0.212002 0
M  V30 28443 C 2602.59 0.763272 -3.51918 0
M  V30 28444 C 2602.45 -0.44645 -4.47579 0
M  V30 28445 C 2603.76 1.60615 -4.09745 0
M  V30 28446 H 2600.88 0.130916 -0.725279 0
M  V30 28447 H 2603.53 -0.361479 -1.8653 0
M  V30 28448 H 2601.68 1.3816 -3.63103 0
M  V30 28449 H 2603.35 -1.08495 -4.4836 0
M  V30 28450 H 2601.59 -1.0876 -4.19945 0
M  V30 28451 H 2602.26 -0.123742 -5.51861 0
M  V30 28452 H 2604.74 1.08411 -4.01729 0
M  V30 28453 H 2603.61 1.8542 -5.16634 0
M  V30 28454 H 2603.87 2.58163 -3.58893 0
M  V30 28455 N 2602.93 1.57593 0.0150108 0
M  V30 28456 C 2604.16 1.94176 0.71436 0
M  V30 28457 C 2604.58 0.858871 1.68133 0
M  V30 28458 O 2603.93 -0.163535 1.81766 0
M  V30 28459 C 2603.99 3.30738 1.45927 0
M  V30 28460 O 2603.71 4.34869 0.531091 0
M  V30 28461 C 2605.21 3.8169 2.2545 0
M  V30 28462 H 2602.43 0.640528 0.199912 0
M  V30 28463 H 2604.97 2.04476 -0.0316455 0
M  V30 28464 H 2603.13 3.21793 2.15703 0
M  V30 28465 H 2603.54 5.1378 1.055 0
M  V30 28466 H 2605.01 4.79714 2.73091 0
M  V30 28467 H 2605.49 3.13612 3.0748 0
M  V30 28468 H 2606.1 3.93763 1.6072 0
M  V30 28469 N 2604.41 -0.287527 1.54955 0
M  V30 28470 C 2605.64 -1.03964 1.78883 0
M  V30 28471 C 2606.06 -1.80461 0.554925 0
M  V30 28472 O 2605.41 -1.76193 -0.475645 0
M  V30 28473 C 2605.46 -2.00965 3.00492 0
M  V30 28474 O 2605.18 -1.27569 4.19115 0
M  V30 28475 C 2606.69 -2.88106 3.36912 0
M  V30 28476 H 2603.91 -0.30775 0.596264 0
M  V30 28477 H 2606.45 -0.322713 2.01938 0
M  V30 28478 H 2604.6 -2.6814 2.79606 0
M  V30 28479 H 2605.02 -1.92826 4.87769 0
M  V30 28480 H 2606.49 -3.51993 4.25211 0
M  V30 28481 H 2606.97 -3.57116 2.55665 0
M  V30 28482 H 2607.58 -2.26442 3.60005 0
M  V30 28483 N 2605.89 -1.47641 -0.551365 0
M  V30 28484 C 2606.8 -1.6321 -1.68522 0
M  V30 28485 C 2607.82 -0.514844 -1.66209 0
M  V30 28486 O 2608.99 -0.783146 -1.8555 0
M  V30 28487 C 2606.06 -1.64811 -3.05022 0
M  V30 28488 C 2605.12 -2.88005 -3.18357 0
M  V30 28489 C 2604.35 -2.89521 -4.48345 0
M  V30 28490 O 2604.57 -2.00074 -5.3416 0
M  V30 28491 O 2603.51 -3.81451 -4.65595 0
M  V30 28492 H 2607.33 -2.59163 -1.58329 0
M  V30 28493 H 2604.92 -1.30794 -0.72204 0
M  V30 28494 H 2606.8 -1.68509 -3.86242 0
M  V30 28495 H 2605.48 -0.720252 -3.15585 0
M  V30 28496 H 2604.38 -2.89849 -2.36513 0
M  V30 28497 H 2605.72 -3.80104 -3.127 0
M  V30 28498 N 2607.37 0.798563 -1.3587 0
M  V30 28499 C 2608.6 1.58719 -1.32725 0
M  V30 28500 C 2609.01 1.88568 0.09353 0
M  V30 28501 O 2608.37 1.49423 1.04781 0
M  V30 28502 C 2608.42 2.91367 -2.1398 0
M  V30 28503 O 2608.14 2.62809 -3.50518 0
M  V30 28504 C 2609.64 3.85705 -2.18511 0
M  V30 28505 H 2606.86 0.492588 -0.455629 0
M  V30 28506 H 2609.41 0.991812 -1.78839 0
M  V30 28507 H 2607.56 3.47399 -1.71444 0
M  V30 28508 H 2607.97 3.47562 -3.92812 0
M  V30 28509 H 2609.45 4.75867 -2.7974 0
M  V30 28510 H 2609.93 4.22883 -1.18604 0
M  V30 28511 H 2610.53 3.35608 -2.61242 0
M  V30 28512 N 2608.85 1.19999 1.02166 0
M  V30 28513 C 2610.09 1.00706 1.75683 0
M  V30 28514 C 2610.42 -0.461393 1.88948 0
M  V30 28515 O 2609.68 -1.35882 1.40835 0
M  V30 28516 C 2609.98 1.62975 3.18079 0
M  V30 28517 C 2609.64 3.12751 3.24804 0
M  V30 28518 C 2608.3 3.53627 3.26346 0
M  V30 28519 C 2610.66 4.08754 3.23372 0
M  V30 28520 C 2607.98 4.89042 3.24122 0
M  V30 28521 C 2610.34 5.44109 3.22688 0
M  V30 28522 C 2609 5.84405 3.22532 0
M  V30 28523 H 2608.27 0.368508 0.642871 0
M  V30 28524 H 2610.92 1.4935 1.19862 0
M  V30 28525 H 2609.22 1.06579 3.77025 0
M  V30 28526 H 2610.92 1.45567 3.73646 0
M  V30 28527 H 2607.51 2.80187 3.24335 0
M  V30 28528 H 2611.69 3.78213 3.21354 0
M  V30 28529 H 2606.95 5.19533 3.22329 0
M  V30 28530 H 2611.12 6.18249 3.20532 0
M  V30 28531 H 2608.75 6.89307 3.20563 0
M  V30 28532 N 2610.32 -1.21392 1.00507 0
M  V30 28533 C 2611.23 -2.27448 0.574846 0
M  V30 28534 C 2612.25 -1.69751 -0.382176 0
M  V30 28535 O 2613.43 -1.99892 -0.245992 0
M  V30 28536 C 2610.49 -3.46579 -0.0916805 0
M  V30 28537 C 2609.55 -4.19548 0.909831 0
M  V30 28538 C 2608.79 -5.32991 0.275017 0
M  V30 28539 O 2609.01 -5.62798 -0.928155 0
M  V30 28540 O 2607.94 -5.93769 0.985982 0
M  V30 28541 H 2611.77 -2.66441 1.45749 0
M  V30 28542 H 2609.35 -1.27791 0.773946 0
M  V30 28543 H 2611.24 -4.18832 -0.464477 0
M  V30 28544 H 2609.91 -3.09486 -0.9487 0
M  V30 28545 H 2608.82 -3.49515 1.33379 0
M  V30 28546 H 2610.15 -4.60552 1.73644 0
M  V30 28547 N 2611.8 -0.779811 -1.36955 0
M  V30 28548 C 2613.03 -0.359434 -2.03754 0
M  V30 28549 C 2613.45 1.02103 -1.58809 0
M  V30 28550 O 2612.8 1.65318 -0.773053 0
M  V30 28551 C 2612.85 -0.402631 -3.59251 0
M  V30 28552 O 2612.57 -1.72865 -4.02553 0
M  V30 28553 C 2614.08 0.0283289 -4.43291 0
M  V30 28554 H 2611.3 -0.149449 -0.654145 0
M  V30 28555 H 2613.84 -1.05598 -1.75126 0
M  V30 28556 H 2611.99 0.24541 -3.86622 0
M  V30 28557 H 2612.41 -1.67283 -4.97108 0
M  V30 28558 H 2613.88 -0.0530436 -5.51975 0
M  V30 28559 H 2614.36 1.07975 -4.25721 0
M  V30 28560 H 2614.97 -0.591832 -4.21162 0
M  V30 28561 N 2613.28 1.48384 -0.531019 0
M  V30 28562 C 2614.53 2.021 0.00269637 0
M  V30 28563 C 2614.85 1.41029 1.34669 0
M  V30 28564 O 2614.12 0.576045 1.87239 0
M  V30 28565 H 2612.7 0.746989 0.00398461 0
M  V30 28566 H 2615.36 1.82084 -0.695086 0
M  V30 28567 H 2614.46 3.11905 0.110255 0
M  V30 28568 N 2614.76 0.2662 1.55336 0
M  V30 28569 C 2616 -0.353646 1.99693 0
M  V30 28570 C 2616.34 -1.5617 1.15432 0
M  V30 28571 O 2615.61 -1.93226 0.222252 0
M  V30 28572 C 2615.9 -0.744598 3.52318 0
M  V30 28573 C 2615.75 0.47018 4.47336 0
M  V30 28574 C 2617.07 -1.5844 4.10591 0
M  V30 28575 H 2614.19 -0.127068 0.725963 0
M  V30 28576 H 2616.83 0.371366 1.86335 0
M  V30 28577 H 2614.98 -1.36232 3.63831 0
M  V30 28578 H 2616.65 1.10872 4.47778 0
M  V30 28579 H 2614.89 1.10986 4.19362 0
M  V30 28580 H 2615.56 0.153007 5.51788 0
M  V30 28581 H 2618.04 -1.06279 4.02298 0
M  V30 28582 H 2616.92 -1.82677 5.1761 0
M  V30 28583 H 2617.18 -2.56256 3.60258 0
M  V30 28584 N 2616.24 -1.57599 -0.0066531 0
M  V30 28585 C 2617.65 -1.78404 -0.550348 0
M  V30 28586 C 2618 -0.900045 -1.74338 0
M  V30 28587 O 2617.12 -0.100751 -2.16165 0
M  V30 28588 C 2617.72 -3.23545 -1.00518 0
M  V30 28589 C 2616.28 -3.45471 -1.49422 0
M  V30 28590 C 2615.42 -2.73748 -0.442396 0
M  V30 28591 H 2618.38 -1.57174 0.219535 0
M  V30 28592 H 2618.4 -3.31292 -1.87152 0
M  V30 28593 H 2617.91 -3.87859 -0.136666 0
M  V30 28594 H 2616.01 -2.86362 -2.38385 0
M  V30 28595 H 2616.12 -4.54138 -1.52627 0
M  V30 28596 H 2614.49 -2.38173 -0.902536 0
M  V30 28597 H 2615.27 -3.40758 0.417033 0
M  V30 28598 N 2617.72 0.279305 -1.55105 0
M  V30 28599 C 2618.96 1.01174 -1.75414 0
M  V30 28600 C 2619.29 1.8651 -0.55176 0
M  V30 28601 O 2618.55 1.90074 0.465885 0
M  V30 28602 C 2618.84 1.92914 -3.00864 0
M  V30 28603 C 2618.51 1.2338 -4.33691 0
M  V30 28604 C 2617.17 1.0415 -4.69794 0
M  V30 28605 C 2619.52 0.738472 -5.15942 0
M  V30 28606 C 2616.85 0.341063 -5.85708 0
M  V30 28607 C 2619.2 0.0516524 -6.32579 0
M  V30 28608 C 2617.87 -0.152409 -6.67326 0
M  V30 28609 H 2617.14 0.370222 -0.641885 0
M  V30 28610 H 2619.79 0.284593 -1.89373 0
M  V30 28611 H 2618.09 2.72229 -2.81777 0
M  V30 28612 H 2619.79 2.49695 -3.13773 0
M  V30 28613 H 2616.38 1.39357 -4.05312 0
M  V30 28614 H 2620.56 0.874678 -4.88532 0
M  V30 28615 H 2615.82 0.172179 -6.11158 0
M  V30 28616 H 2619.99 -0.33995 -6.9557 0
M  V30 28617 H 2617.62 -0.697147 -7.56997 0
M  V30 28618 N 2619.19 1.47931 0.543528 0
M  V30 28619 C 2620.42 1.59147 1.32992 0
M  V30 28620 C 2620.84 0.246989 1.86471 0
M  V30 28621 O 2620.2 -0.779295 1.63697 0
M  V30 28622 C 2620.25 2.63082 2.46618 0
M  V30 28623 O 2619.35 2.19301 3.49257 0
M  V30 28624 H 2618.69 0.534131 0.394462 0
M  V30 28625 H 2621.22 1.93817 0.655455 0
M  V30 28626 H 2621.23 2.83932 2.92996 0
M  V30 28627 H 2619.91 3.60697 2.07053 0
M  V30 28628 H 2618.49 2.08608 3.09091 0
M  V30 28629 N 2620.67 -0.791347 1.36292 0
M  V30 28630 C 2621.95 -1.5371 1.20965 0
M  V30 28631 C 2622.33 -2.10102 -0.204984 0
M  V30 28632 O 2621.68 -1.93809 -1.21038 0
M  V30 28633 C 2621.89 -2.63357 2.29006 0
M  V30 28634 C 2623.23 -3.31291 2.65578 0
M  V30 28635 O 2624.26 -2.73639 2.28035 0
M  V30 28636 O 2623.12 -4.35475 3.30188 0
M  V30 28637 H 2620.21 -0.679859 0.470872 0
M  V30 28638 H 2622.76 -0.829995 1.48017 0
M  V30 28639 H 2621.53 -2.19668 3.23823 0
M  V30 28640 H 2621.15 -3.41689 2.03309 0
M  V30 28641 N 2622.15 -1.2054 -1.01528 0
M  V30 28642 C 2623.08 -0.979333 -2.1197 0
M  V30 28643 C 2624.06 0.0921489 -1.6985 0
M  V30 28644 O 2625.25 -0.0656273 -1.94089 0
M  V30 28645 C 2622.38 -0.532044 -3.432 0
M  V30 28646 C 2621.33 -1.54692 -3.99067 0
M  V30 28647 C 2620.66 -0.95622 -5.2608 0
M  V30 28648 C 2621.96 -2.931 -4.32308 0
M  V30 28649 H 2623.65 -1.90302 -2.3114 0
M  V30 28650 H 2621.2 -0.916392 -1.11078 0
M  V30 28651 H 2623.15 -0.361118 -4.1985 0
M  V30 28652 H 2621.87 0.427271 -3.23793 0
M  V30 28653 H 2620.53 -1.70523 -3.24527 0
M  V30 28654 H 2620.18 0.0110654 -5.02999 0
M  V30 28655 H 2619.88 -1.63403 -5.64423 0
M  V30 28656 H 2621.4 -0.79639 -6.05384 0
M  V30 28657 H 2622.82 -2.80772 -4.9984 0
M  V30 28658 H 2621.21 -3.57799 -4.81767 0
M  V30 28659 H 2622.28 -3.44723 -3.41019 0
M  V30 28660 N 2623.63 1.20858 -1.01149 0
M  V30 28661 C 2624.54 2.2714 -0.5869 0
M  V30 28662 C 2625.55 1.69951 0.373168 0
M  V30 28663 O 2626.73 2.0002 0.235388 0
M  V30 28664 C 2623.79 3.46623 0.0732993 0
M  V30 28665 C 2622.86 4.1906 -0.932068 0
M  V30 28666 C 2622.09 5.32838 -0.303279 0
M  V30 28667 O 2622.31 5.63282 0.898296 0
M  V30 28668 O 2621.25 5.93238 -1.01746 0
M  V30 28669 H 2625.07 2.65665 -1.4716 0
M  V30 28670 H 2622.66 1.27378 -0.780712 0
M  V30 28671 H 2624.54 4.19073 0.442259 0
M  V30 28672 H 2623.21 3.09984 0.932274 0
M  V30 28673 H 2622.12 3.48803 -1.3523 0
M  V30 28674 H 2623.45 4.59625 -1.76084 0
M  V30 28675 N 2625.11 0.787064 1.3654 0
M  V30 28676 C 2626.05 0.181942 2.30082 0
M  V30 28677 C 2627.02 -0.67287 1.51861 0
M  V30 28678 O 2628.21 -0.62204 1.80375 0
M  V30 28679 C 2625.35 -0.679137 3.38351 0
M  V30 28680 C 2624.46 0.193958 4.31564 0
M  V30 28681 C 2623.6 -0.673272 5.26916 0
M  V30 28682 C 2622.63 0.201423 6.11769 0
M  V30 28683 N 2621.77 -0.624654 6.99316 0
M  V30 28684 H 2626.61 0.985114 2.81246 0
M  V30 28685 H 2624.15 0.497367 1.38437 0
M  V30 28686 H 2626.11 -1.19334 3.99769 0
M  V30 28687 H 2624.74 -1.44776 2.88513 0
M  V30 28688 H 2623.79 0.826109 3.71321 0
M  V30 28689 H 2625.1 0.868023 4.91189 0
M  V30 28690 H 2624.25 -1.25337 5.93612 0
M  V30 28691 H 2622.99 -1.38097 4.6774 0
M  V30 28692 H 2622 0.793945 5.44037 0
M  V30 28693 H 2623.22 0.906686 6.7302 0
M  V30 28694 H 2621.17 -1.31669 6.4265 0
M  V30 28695 H 2621.09 -0.00821949 7.56 0
M  V30 28696 H 2622.35 -1.18866 7.70384 0
M  V30 28697 N 2626.58 -1.48101 0.53888 0
M  V30 28698 C 2627.51 -2.32575 -0.207613 0
M  V30 28699 C 2628.49 -1.42651 -0.926534 0
M  V30 28700 O 2629.68 -1.71529 -0.91058 0
M  V30 28701 C 2626.81 -3.24044 -1.24951 0
M  V30 28702 C 2625.76 -4.23063 -0.648189 0
M  V30 28703 C 2625.09 -5.03728 -1.79339 0
M  V30 28704 C 2626.39 -5.20872 0.385988 0
M  V30 28705 H 2628.08 -2.95236 0.497586 0
M  V30 28706 H 2625.63 -1.41973 0.24074 0
M  V30 28707 H 2627.58 -3.81972 -1.77976 0
M  V30 28708 H 2626.31 -2.59401 -1.98441 0
M  V30 28709 H 2624.97 -3.66335 -0.139388 0
M  V30 28710 H 2624.61 -4.35502 -2.51688 0
M  V30 28711 H 2624.31 -5.70754 -1.39692 0
M  V30 28712 H 2625.84 -5.6451 -2.32725 0
M  V30 28713 H 2627.25 -5.73271 -0.0575062 0
M  V30 28714 H 2625.65 -5.95999 0.700332 0
M  V30 28715 H 2626.72 -4.67466 1.28856 0
M  V30 28716 N 2628.06 -0.274434 -1.55192 0
M  V30 28717 C 2628.97 0.623433 -2.26165 0
M  V30 28718 C 2629.99 1.17066 -1.28731 0
M  V30 28719 O 2631.16 1.20109 -1.61665 0
M  V30 28720 C 2628.23 1.79135 -2.96836 0
M  V30 28721 C 2627.29 1.28086 -4.09747 0
M  V30 28722 C 2626.52 2.39311 -4.77039 0
M  V30 28723 O 2626.75 3.58652 -4.43537 0
M  V30 28724 O 2625.68 2.07506 -5.65 0
M  V30 28725 H 2629.51 0.0485127 -3.03661 0
M  V30 28726 H 2627.09 -0.0418645 -1.49341 0
M  V30 28727 H 2628.97 2.47234 -3.41252 0
M  V30 28728 H 2627.65 2.35337 -2.22257 0
M  V30 28729 H 2626.55 0.566351 -3.69788 0
M  V30 28730 H 2627.89 0.764598 -4.86225 0
M  V30 28731 N 2629.54 1.576 -0.00170483 0
M  V30 28732 C 2630.49 2.09654 1.00737 0
M  V30 28733 C 2631.48 1.01691 1.35482 0
M  V30 28734 O 2632.69 1.20154 1.34026 0
M  V30 28735 H 2629.06 0.669463 0.342526 0
M  V30 28736 H 2631.03 2.93422 0.542789 0
M  V30 28737 C 2629.78 2.61651 2.28985 0
M  V30 28738 H 2629.11 3.44359 2.03118 0
M  V30 28739 H 2630.55 3.0175 2.97864 0
M  V30 28740 C 2629 1.53141 3.00082 0
M  V30 28741 O 2629.53 0.915309 3.91133 0
M  V30 28742 N 2627.74 1.25845 2.61938 0
M  V30 28743 H 2627.29 1.76132 1.87977 0
M  V30 28744 H 2627.25 0.53463 3.09821 0
M  V30 28745 N 2631.02 -0.271076 1.55251 0
M  V30 28746 C 2632.29 -1.02381 1.66666 0
M  V30 28747 C 2632.67 -2.04224 0.534399 0
M  V30 28748 O 2632.02 -2.23712 -0.465298 0
M  V30 28749 C 2632.23 -1.67889 3.05964 0
M  V30 28750 C 2633.58 -2.1898 3.63776 0
M  V30 28751 O 2634.6 -1.77873 3.08609 0
M  V30 28752 O 2633.46 -2.94385 4.60434 0
M  V30 28753 H 2630.56 -0.475023 0.676966 0
M  V30 28754 H 2633.1 -0.26678 1.6759 0
M  V30 28755 H 2631.88 -0.941004 3.79817 0
M  V30 28756 H 2631.5 -2.50274 3.08947 0
M  V30 28757 N 2632.5 -1.48217 -0.535675 0
M  V30 28758 C 2633.75 -1.55199 -1.28825 0
M  V30 28759 C 2634.06 -0.228312 -1.94263 0
M  V30 28760 O 2635.26 -0.176326 -2.70927 0
M  V30 28761 C 2633.72 -2.73682 -2.33722 0
M  V30 28762 C 2633.33 -4.12669 -1.74379 0
M  V30 28763 C 2635.07 -2.89973 -3.10025 0
M  V30 28764 C 2632.98 -5.22421 -2.77182 0
M  V30 28765 H 2631.91 -0.577756 -0.484473 0
M  V30 28766 H 2634.56 -1.74539 -0.566429 0
M  V30 28767 H 2632.94 -2.47766 -3.08915 0
M  V30 28768 H 2634.12 -4.48581 -1.05413 0
M  V30 28769 H 2632.43 -4.01447 -1.10588 0
M  V30 28770 H 2635.03 -3.69137 -3.86836 0
M  V30 28771 H 2635.37 -1.99216 -3.65539 0
M  V30 28772 H 2635.9 -3.15764 -2.41947 0
M  V30 28773 H 2632.64 -6.15126 -2.26496 0
M  V30 28774 H 2632.16 -4.91004 -3.44493 0
M  V30 28775 H 2633.84 -5.50292 -3.40275 0
M  V30 28776 N 2633.97 0.784108 -1.3671 0
M  V30 28777 C 2634.88 1.92819 -1.33634 0
M  V30 28778 C 2635.9 1.72369 -0.237716 0
M  V30 28779 O 2637.08 1.95815 -0.470996 0
M  V30 28780 C 2634.14 3.27762 -1.13017 0
M  V30 28781 C 2633.2 3.60953 -2.32403 0
M  V30 28782 C 2632.44 4.89457 -2.12761 0
M  V30 28783 O 2632.66 5.59584 -1.10551 0
M  V30 28784 O 2631.59 5.21427 -3.00662 0
M  V30 28785 H 2635.42 1.98364 -2.29968 0
M  V30 28786 H 2633 0.925115 -1.17311 0
M  V30 28787 H 2634.89 4.08503 -1.03458 0
M  V30 28788 H 2633.56 3.23097 -0.197487 0
M  V30 28789 H 2632.47 2.80498 -2.47532 0
M  V30 28790 H 2633.8 3.70348 -3.24196 0
M  V30 28791 N 2635.45 1.21076 1.00888 0
M  V30 28792 C 2636.4 0.963513 2.11705 0
M  V30 28793 C 2637.39 -0.0878734 1.69172 0
M  V30 28794 O 2638.6 0.0631731 1.79889 0
M  V30 28795 H 2634.98 0.294299 0.69202 0
M  V30 28796 H 2636.95 1.90426 2.2974 0
M  V30 28797 C 2635.7 0.54057 3.43472 0
M  V30 28798 H 2635.02 1.34121 3.76632 0
M  V30 28799 H 2636.46 0.406851 4.22044 0
M  V30 28800 C 2634.92 -0.748021 3.28491 0
M  V30 28801 O 2635.45 -1.80453 3.58886 0
M  V30 28802 N 2633.65 -0.713032 2.81717 0
M  V30 28803 H 2633.2 0.147018 2.5718 0
M  V30 28804 H 2633.16 -1.57553 2.72074 0
M  V30 28805 N 2636.93 -1.2032 1.01789 0
M  V30 28806 C 2637.86 -2.21866 0.533921 0
M  V30 28807 C 2638.84 -1.571 -0.419333 0
M  V30 28808 O 2640.03 -1.85426 -0.339029 0
M  V30 28809 C 2637.15 -3.37966 -0.22284 0
M  V30 28810 C 2636.2 -4.21042 0.680165 0
M  V30 28811 S 2637.03 -4.90441 2.15006 0
M  V30 28812 C 2638.19 -6.09961 1.4035 0
M  V30 28813 H 2638.42 -2.62575 1.39434 0
M  V30 28814 H 2635.95 -1.30391 0.82689 0
M  V30 28815 H 2637.91 -4.05267 -0.653354 0
M  V30 28816 H 2636.57 -2.95715 -1.05885 0
M  V30 28817 H 2635.77 -5.03907 0.096559 0
M  V30 28818 H 2635.37 -3.59002 1.04851 0
M  V30 28819 H 2637.66 -6.74036 0.684189 0
M  V30 28820 H 2638.6 -6.72784 2.20835 0
M  V30 28821 H 2639.01 -5.57185 0.905814 0
M  V30 28822 N 2638.41 -0.794293 -1.3612 0
M  V30 28823 C 2639.34 -0.210369 -2.3255 0
M  V30 28824 C 2640.32 0.657359 -1.56885 0
M  V30 28825 O 2641.5 0.590174 -1.85015 0
M  V30 28826 C 2638.63 0.651759 -3.4113 0
M  V30 28827 C 2637.59 -0.11647 -4.27841 0
M  V30 28828 C 2636.91 0.866567 -5.27631 0
M  V30 28829 C 2638.21 -1.30846 -5.05645 0
M  V30 28830 H 2639.91 -1.01599 -2.81635 0
M  V30 28831 H 2637.45 -0.490005 -1.35407 0
M  V30 28832 H 2639.41 1.07023 -4.07583 0
M  V30 28833 H 2638.13 1.49013 -2.90624 0
M  V30 28834 H 2636.79 -0.515979 -3.62951 0
M  V30 28835 H 2636.44 1.70011 -4.73398 0
M  V30 28836 H 2636.14 0.356947 -5.86515 0
M  V30 28837 H 2637.66 1.28351 -5.96958 0
M  V30 28838 H 2639.08 -0.965492 -5.65112 0
M  V30 28839 H 2637.47 -1.75171 -5.73964 0
M  V30 28840 H 2638.54 -2.10136 -4.37002 0
M  V30 28841 N 2639.89 1.47813 -0.546727 0
M  V30 28842 C 2640.83 2.29872 0.206814 0
M  V30 28843 C 2641.8 1.38413 0.918211 0
M  V30 28844 O 2642.99 1.67376 0.915962 0
M  V30 28845 C 2640.13 3.22153 1.2374 0
M  V30 28846 C 2639.24 4.28698 0.533141 0
M  V30 28847 C 2638.38 5.08141 1.54811 0
M  V30 28848 C 2637.42 6.06471 0.82824 0
M  V30 28849 N 2636.55 6.78911 1.78954 0
M  V30 28850 H 2641.39 2.93791 -0.499089 0
M  V30 28851 H 2638.93 1.44821 -0.257956 0
M  V30 28852 H 2640.89 3.74068 1.84739 0
M  V30 28853 H 2639.52 2.60121 1.91147 0
M  V30 28854 H 2638.57 3.79919 -0.191156 0
M  V30 28855 H 2639.88 4.9879 -0.0312863 0
M  V30 28856 H 2639.04 5.64154 2.23193 0
M  V30 28857 H 2637.77 4.37926 2.14644 0
M  V30 28858 H 2636.78 5.49645 0.130442 0
M  V30 28859 H 2638 6.78691 0.235788 0
M  V30 28860 H 2635.95 6.11434 2.37665 0
M  V30 28861 H 2635.87 7.45137 1.27699 0
M  V30 28862 H 2637.14 7.39504 2.46483 0
M  V30 28863 N 2641.36 0.28266 1.55044 0
M  V30 28864 C 2642.61 -0.331954 1.99761 0
M  V30 28865 C 2642.94 -1.55293 1.17108 0
M  V30 28866 O 2642.19 -1.94336 0.230633 0
M  V30 28867 C 2642.49 -0.750877 3.49423 0
M  V30 28868 C 2642.16 0.366307 4.4941 0
M  V30 28869 C 2640.82 0.673048 4.7647 0
M  V30 28870 C 2643.17 1.11873 5.09052 0
M  V30 28871 C 2640.5 1.73566 5.60439 0
M  V30 28872 C 2642.85 2.17112 5.94176 0
M  V30 28873 C 2641.52 2.48413 6.19554 0
M  V30 28874 H 2640.79 -0.121471 0.730976 0
M  V30 28875 H 2643.43 0.397943 1.8732 0
M  V30 28876 H 2641.74 -1.56057 3.59379 0
M  V30 28877 H 2643.44 -1.2373 3.81434 0
M  V30 28878 H 2640.03 0.117116 4.2844 0
M  V30 28879 H 2644.21 0.895011 4.88163 0
M  V30 28880 H 2639.47 1.9831 5.78345 0
M  V30 28881 H 2643.64 2.75884 6.39422 0
M  V30 28882 H 2641.27 3.30886 6.84411 0
M  V30 28883 N 2642.84 -1.57597 0.0100627 0
M  V30 28884 C 2644.09 -1.91284 -0.673663 0
M  V30 28885 C 2644.42 -0.885009 -1.72862 0
M  V30 28886 O 2643.7 0.0949146 -1.94268 0
M  V30 28887 C 2643.98 -3.3552 -1.3076 0
M  V30 28888 C 2643.83 -4.49028 -0.263499 0
M  V30 28889 C 2645.15 -3.79362 -2.23098 0
M  V30 28890 H 2642.27 -0.695638 -0.243427 0
M  V30 28891 H 2644.91 -1.89894 0.0634197 0
M  V30 28892 H 2643.06 -3.36836 -1.93582 0
M  V30 28893 H 2644.73 -4.59847 0.365819 0
M  V30 28894 H 2642.98 -4.31828 0.413153 0
M  V30 28895 H 2643.65 -5.46932 -0.746302 0
M  V30 28896 H 2646.12 -3.79662 -1.70282 0
M  V30 28897 H 2645 -4.81015 -2.64415 0
M  V30 28898 H 2645.26 -3.13792 -3.11427 0
M  V30 28899 N 2644.32 0.262839 -1.55393 0
M  V30 28900 C 2645.23 1.34694 -1.9208 0
M  V30 28901 C 2646.25 1.53506 -0.819254 0
M  V30 28902 O 2647.42 1.67437 -1.11924 0
M  V30 28903 C 2644.49 2.68439 -2.19412 0
M  V30 28904 C 2643.55 2.58286 -3.42909 0
M  V30 28905 C 2642.78 3.85653 -3.68928 0
M  V30 28906 O 2643 4.86805 -2.97283 0
M  V30 28907 O 2641.94 3.85244 -4.62462 0
M  V30 28908 H 2645.76 1.06576 -2.84386 0
M  V30 28909 H 2643.35 0.462239 -1.42069 0
M  V30 28910 H 2645.23 3.47502 -2.38371 0
M  V30 28911 H 2643.91 2.96323 -1.30287 0
M  V30 28912 H 2642.81 1.77564 -3.29275 0
M  V30 28913 H 2644.15 2.3535 -4.32286 0
M  V30 28914 N 2645.8 1.48499 0.527807 0
M  V30 28915 C 2646.75 1.63183 1.63217 0
M  V30 28916 C 2647.72 0.473843 1.59198 0
M  V30 28917 O 2648.9 0.697594 1.7759 0
M  V30 28918 C 2646.04 1.67956 3.01471 0
M  V30 28919 C 2645.15 2.94877 3.15708 0
M  V30 28920 C 2644.29 2.90797 4.44534 0
M  V30 28921 C 2643.33 4.12412 4.52308 0
M  V30 28922 N 2642.46 4.06397 5.72526 0
M  V30 28923 H 2647.3 2.57492 1.50006 0
M  V30 28924 H 2644.84 1.27693 0.730275 0
M  V30 28925 H 2646.8 1.68705 3.81569 0
M  V30 28926 H 2645.43 0.771361 3.13448 0
M  V30 28927 H 2644.48 3.03863 2.28849 0
M  V30 28928 H 2645.79 3.84855 3.17313 0
M  V30 28929 H 2644.95 2.89959 5.32925 0
M  V30 28930 H 2643.69 1.9855 4.45454 0
M  V30 28931 H 2642.69 4.13523 3.62324 0
M  V30 28932 H 2643.92 5.0582 4.53125 0
M  V30 28933 H 2641.86 3.16972 5.74338 0
M  V30 28934 H 2641.78 4.90083 5.75634 0
M  V30 28935 H 2643.05 4.09621 6.63197 0
M  V30 28936 N 2647.28 -0.776847 1.37123 0
M  V30 28937 C 2648.23 -1.88003 1.28992 0
M  V30 28938 C 2649.21 -1.59904 0.178793 0
M  V30 28939 O 2650.4 -1.72121 0.412735 0
M  V30 28940 C 2647.53 -3.254 1.09407 0
M  V30 28941 C 2646.62 -3.59467 2.25043 0
M  V30 28942 N 2647.01 -3.64752 3.50413 0
M  V30 28943 C 2645.31 -3.89603 2.17085 0
M  V30 28944 C 2646.01 -3.95421 4.26635 0
M  V30 28945 N 2644.98 -4.11056 3.55716 0
M  V30 28946 H 2648.79 -1.90333 2.23943 0
M  V30 28947 H 2646.3 -0.973029 1.30023 0
M  V30 28948 H 2648.3 -4.04313 1.01668 0
M  V30 28949 H 2646.96 -3.24336 0.153689 0
M  V30 28950 H 2647.97 -3.47084 3.84386 0
M  V30 28951 H 2644.65 -3.96391 1.31074 0
M  V30 28952 H 2646.04 -4.06328 5.35114 0
M  V30 28953 N 2648.76 -1.2161 -1.00244 0
M  V30 28954 C 2649.69 -1.00176 -2.10919 0
M  V30 28955 C 2650.67 0.0741288 -1.69938 0
M  V30 28956 O 2651.85 -0.0862094 -1.94009 0
M  V30 28957 C 2648.98 -0.568416 -3.42617 0
M  V30 28958 C 2647.94 -1.58916 -3.97404 0
M  V30 28959 C 2647.26 -1.01196 -5.25037 0
M  V30 28960 C 2648.56 -2.97668 -4.29175 0
M  V30 28961 H 2650.26 -1.92743 -2.29108 0
M  V30 28962 H 2647.8 -0.928121 -1.101 0
M  V30 28963 H 2649.75 -0.405629 -4.19443 0
M  V30 28964 H 2648.48 0.392904 -3.24228 0
M  V30 28965 H 2647.14 -1.73955 -3.227 0
M  V30 28966 H 2646.79 -0.0422849 -5.02982 0
M  V30 28967 H 2646.49 -1.6938 -5.62658 0
M  V30 28968 H 2648.01 -0.860554 -6.04505 0
M  V30 28969 H 2649.42 -2.86058 -4.96834 0
M  V30 28970 H 2647.82 -3.62889 -4.77945 0
M  V30 28971 H 2648.89 -3.48321 -3.37343 0
M  V30 28972 N 2650.23 1.19778 -1.02425 0
M  V30 28973 C 2651.14 2.26505 -0.610958 0
M  V30 28974 C 2652.16 1.70338 0.355122 0
M  V30 28975 O 2653.34 2.00258 0.21416 0
M  V30 28976 C 2650.4 3.46681 0.0365312 0
M  V30 28977 C 2649.46 4.18047 -0.976463 0
M  V30 28978 C 2648.69 5.32486 -0.359777 0
M  V30 28979 O 2648.92 5.64203 0.838501 0
M  V30 28980 O 2647.85 5.92126 -1.08032 0
M  V30 28981 H 2651.68 2.64089 -1.49969 0
M  V30 28982 H 2649.26 1.26543 -0.794178 0
M  V30 28983 H 2651.14 4.19518 0.397786 0
M  V30 28984 H 2649.82 3.10956 0.899344 0
M  V30 28985 H 2648.73 3.47349 -1.38922 0
M  V30 28986 H 2650.06 4.57732 -1.80949 0
M  V30 28987 N 2651.71 0.801501 1.35697 0
M  V30 28988 C 2652.94 0.390714 2.03686 0
M  V30 28989 C 2653.36 -0.98875 1.60017 0
M  V30 28990 O 2652.72 -1.6393 0.774386 0
M  V30 28991 C 2652.77 0.476467 3.57438 0
M  V30 28992 O 2651.87 -0.512034 4.09209 0
M  V30 28993 H 2651.21 0.163967 0.643437 0
M  V30 28994 H 2653.74 1.08597 1.73401 0
M  V30 28995 H 2653.75 0.344428 4.06544 0
M  V30 28996 H 2652.43 1.48268 3.88573 0
M  V30 28997 H 2651 -0.340656 3.71341 0
M  V30 28998 N 2653.19 -1.47521 0.554558 0
M  V30 28999 C 2654.41 -2.07375 0.0323025 0
M  V30 29000 C 2654.84 -1.4049 -1.25077 0
M  V30 29001 O 2654.2 -0.47899 -1.74858 0
M  V30 29002 C 2654.25 -3.60291 -0.149334 0
M  V30 29003 O 2653.35 -3.94172 -1.21252 0
M  V30 29004 H 2652.69 -0.662105 0.0501345 0
M  V30 29005 H 2655.22 -1.89579 0.769485 0
M  V30 29006 H 2655.23 -4.0637 -0.364365 0
M  V30 29007 H 2653.91 -4.0837 0.787815 0
M  V30 29008 H 2652.48 -3.59842 -0.978187 0
M  V30 29009 N 2654.67 -0.290879 -1.54892 0
M  V30 29010 C 2655.94 0.373955 -1.91992 0
M  V30 29011 C 2656.32 1.7249 -1.21697 0
M  V30 29012 O 2655.67 2.25816 -0.34921 0
M  V30 29013 C 2655.88 0.498642 -3.45419 0
M  V30 29014 C 2657.23 0.774225 -4.17482 0
M  V30 29015 O 2658.25 0.582846 -3.51399 0
M  V30 29016 O 2657.11 1.1412 -5.34452 0
M  V30 29017 H 2654.21 0.207301 -0.800597 0
M  V30 29018 H 2656.75 -0.338193 -1.66296 0
M  V30 29019 H 2655.53 -0.45146 -3.88687 0
M  V30 29020 H 2655.15 1.25965 -3.77119 0
M  V30 29021 N 2656.15 1.57589 -0.0184203 0
M  V30 29022 C 2657.06 2.13017 0.982906 0
M  V30 29023 C 2658.07 1.07981 1.36441 0
M  V30 29024 O 2659.25 1.39982 1.448 0
M  V30 29025 C 2656.31 2.63756 2.25019 0
M  V30 29026 C 2655.37 3.83465 1.93011 0
M  V30 29027 C 2654.61 4.31775 3.13698 0
M  V30 29028 O 2654.83 3.79312 4.26003 0
M  V30 29029 O 2653.76 5.23737 2.9662 0
M  V30 29030 H 2657.59 2.98831 0.541656 0
M  V30 29031 H 2655.17 1.48034 0.201539 0
M  V30 29032 H 2657.06 2.96507 2.99435 0
M  V30 29033 H 2655.73 1.8103 2.68346 0
M  V30 29034 H 2654.64 3.55657 1.16013 0
M  V30 29035 H 2655.97 4.6732 1.54508 0
M  V30 29036 N 2657.62 -0.254594 1.5553 0
M  V30 29037 C 2658.9 -1.00608 1.67742 0
M  V30 29038 C 2659.28 -2.03646 0.556029 0
M  V30 29039 O 2658.63 -2.24193 -0.441544 0
M  V30 29040 C 2658.84 -1.64635 3.07728 0
M  V30 29041 C 2660.19 -2.15109 3.66078 0
M  V30 29042 O 2661.21 -1.74589 3.10479 0
M  V30 29043 O 2660.07 -2.89485 4.63531 0
M  V30 29044 H 2657.16 -0.467816 0.681966 0
M  V30 29045 H 2659.71 -0.24899 1.67863 0
M  V30 29046 H 2658.48 -0.900667 3.80793 0
M  V30 29047 H 2658.1 -2.46984 3.11584 0
M  V30 29048 N 2659.1 -1.48777 -0.519925 0
M  V30 29049 C 2660.01 -1.66747 -1.65023 0
M  V30 29050 C 2661.03 -0.549983 -1.65079 0
M  V30 29051 O 2662.2 -0.822328 -1.83847 0
M  V30 29052 C 2659.27 -1.71244 -3.01457 0
M  V30 29053 C 2658.33 -2.94693 -3.12177 0
M  V30 29054 C 2657.56 -2.98965 -4.42103 0
M  V30 29055 O 2657.79 -2.1136 -5.29795 0
M  V30 29056 O 2656.72 -3.91241 -4.57399 0
M  V30 29057 H 2660.55 -2.62464 -1.52796 0
M  V30 29058 H 2658.13 -1.32296 -0.694134 0
M  V30 29059 H 2660.01 -1.76664 -3.82581 0
M  V30 29060 H 2658.69 -0.78703 -3.13987 0
M  V30 29061 H 2657.59 -2.94801 -2.30311 0
M  V30 29062 H 2658.93 -3.86652 -3.04568 0
M  V30 29063 N 2660.58 0.769564 -1.37534 0
M  V30 29064 C 2661.53 1.88291 -1.33474 0
M  V30 29065 C 2662.5 1.64892 -0.19992 0
M  V30 29066 O 2663.68 1.86779 -0.389627 0
M  V30 29067 C 2660.82 3.25384 -1.14974 0
M  V30 29068 C 2659.93 3.60722 -2.37704 0
M  V30 29069 C 2659.07 4.87036 -2.1206 0
M  V30 29070 C 2658.11 5.15112 -3.30646 0
M  V30 29071 N 2657.25 6.32615 -3.04538 0
M  V30 29072 H 2662.09 1.91096 -2.28662 0
M  V30 29073 H 2659.62 0.934238 -1.13624 0
M  V30 29074 H 2661.58 4.04471 -1.02268 0
M  V30 29075 H 2660.21 3.21948 -0.23432 0
M  V30 29076 H 2659.26 2.76603 -2.61142 0
M  V30 29077 H 2660.57 3.77407 -3.26137 0
M  V30 29078 H 2659.73 5.74032 -1.96398 0
M  V30 29079 H 2658.47 4.7246 -1.20968 0
M  V30 29080 H 2657.47 4.26591 -3.46844 0
M  V30 29081 H 2658.7 5.31595 -4.22591 0
M  V30 29082 H 2656.64 6.19392 -2.16077 0
M  V30 29083 H 2656.56 6.49725 -3.86515 0
M  V30 29084 H 2657.83 7.22541 -2.92498 0
M  V30 29085 N 2662.06 1.22139 0.995977 0
M  V30 29086 C 2662.99 0.931988 2.08301 0
M  V30 29087 C 2663.97 -0.123927 1.62127 0
M  V30 29088 O 2665.15 0.00699318 1.88499 0
M  V30 29089 C 2662.28 0.401127 3.36316 0
M  V30 29090 C 2661.33 1.44124 4.01411 0
M  V30 29091 S 2662.16 3.01353 4.42659 0
M  V30 29092 C 2663.32 2.49897 5.73849 0
M  V30 29093 H 2663.55 1.8525 2.32529 0
M  V30 29094 H 2661.08 1.05212 1.13003 0
M  V30 29095 H 2663.04 0.101424 4.10375 0
M  V30 29096 H 2661.7 -0.498217 3.10124 0
M  V30 29097 H 2660.89 1.01961 4.93579 0
M  V30 29098 H 2660.5 1.68949 3.33665 0
M  V30 29099 H 2662.79 1.90946 6.50035 0
M  V30 29100 H 2663.73 3.40543 6.20835 0
M  V30 29101 H 2664.14 1.91289 5.31101 0
M  V30 29102 N 2663.54 -1.19233 1.03059 0
M  V30 29103 C 2664.81 -1.84742 0.642641 0
M  V30 29104 C 2665.19 -1.9195 -0.878544 0
M  V30 29105 O 2664.54 -1.43779 -1.77595 0
M  V30 29106 C 2664.75 -3.23614 1.30671 0
M  V30 29107 C 2666.1 -3.99757 1.43105 0
M  V30 29108 O 2667.12 -3.33018 1.26402 0
M  V30 29109 O 2665.98 -5.1931 1.70232 0
M  V30 29110 H 2663.08 -0.796202 0.223587 0
M  V30 29111 H 2665.62 -1.26709 1.12885 0
M  V30 29112 H 2664.39 -3.13212 2.3455 0
M  V30 29113 H 2664.02 -3.89294 0.808473 0
M  V30 29114 N 2665.01 -0.808686 -1.3527 0
M  V30 29115 C 2665.92 -0.222121 -2.33546 0
M  V30 29116 C 2666.94 0.635982 -1.61961 0
M  V30 29117 O 2668.12 0.547239 -1.93823 0
M  V30 29118 C 2665.18 0.61789 -3.4115 0
M  V30 29119 C 2664.24 -0.26095 -4.28506 0
M  V30 29120 C 2663.48 0.539063 -5.30971 0
M  V30 29121 O 2663.7 1.77358 -5.42126 0
M  V30 29122 O 2662.63 -0.0711584 -6.01858 0
M  V30 29123 H 2666.46 -1.03517 -2.85514 0
M  V30 29124 H 2664.04 -0.570519 -1.38078 0
M  V30 29125 H 2665.93 1.09627 -4.0689 0
M  V30 29126 H 2664.6 1.4085 -2.9145 0
M  V30 29127 H 2663.51 -0.786516 -3.65739 0
M  V30 29128 H 2664.84 -1.01556 -4.81609 0
M  V30 29129 N 2666.49 1.47225 -0.562374 0
M  V30 29130 C 2667.4 2.33866 0.185425 0
M  V30 29131 C 2668.42 1.4851 0.906687 0
M  V30 29132 O 2669.59 1.81427 0.874426 0
M  V30 29133 C 2666.66 3.25308 1.19899 0
M  V30 29134 C 2665.72 4.26556 0.484594 0
M  V30 29135 C 2664.95 5.13629 1.44987 0
M  V30 29136 O 2665.18 5.0325 2.68506 0
M  V30 29137 O 2664.11 5.94007 0.971538 0
M  V30 29138 H 2667.94 2.99121 -0.525413 0
M  V30 29139 H 2665.52 1.45868 -0.322942 0
M  V30 29140 H 2667.4 3.81778 1.78393 0
M  V30 29141 H 2666.08 2.62675 1.89165 0
M  V30 29142 H 2664.99 3.73832 -0.141671 0
M  V30 29143 H 2666.32 4.91918 -0.16672 0
M  V30 29144 N 2667.97 0.299089 1.54736 0
M  V30 29145 C 2669.2 -0.316218 2.04975 0
M  V30 29146 C 2669.62 -1.46883 1.17504 0
M  V30 29147 O 2668.98 -1.80417 0.17871 0
M  V30 29148 C 2669.03 -0.751935 3.52673 0
M  V30 29149 O 2668.13 -1.8569 3.68229 0
M  V30 29150 H 2667.47 -0.0617058 0.661127 0
M  V30 29151 H 2670 0.440376 1.99805 0
M  V30 29152 H 2670.01 -1.04126 3.94489 0
M  V30 29153 H 2668.69 0.0912213 4.158 0
M  V30 29154 H 2667.26 -1.56828 3.38319 0
M  V30 29155 N 2669.45 -1.57577 0.0267774 0
M  V30 29156 C 2670.41 -2.08998 -0.940879 0
M  V30 29157 C 2671.41 -1.00457 -1.25559 0
M  V30 29158 O 2672.6 -1.26625 -1.19632 0
M  V30 29159 C 2669.73 -2.55387 -2.2581 0
M  V30 29160 H 2670.93 -2.95777 -0.495576 0
M  V30 29161 H 2668.48 -1.54727 -0.221214 0
M  V30 29162 H 2669.21 -1.71931 -2.74973 0
M  V30 29163 H 2669 -3.34682 -2.0428 0
M  V30 29164 H 2670.49 -2.95403 -2.95173 0
M  V30 29165 N 2670.93 0.246342 -1.55663 0
M  V30 29166 C 2671.86 1.32791 -1.86813 0
M  V30 29167 C 2672.87 1.44264 -0.754438 0
M  V30 29168 O 2674.06 1.45604 -1.03256 0
M  V30 29169 C 2671.16 2.70643 -2.03975 0
M  V30 29170 C 2670.33 2.8143 -3.34837 0
M  V30 29171 C 2669.39 4.0013 -3.41734 0
M  V30 29172 O 2668.42 3.89632 -4.14941 0
M  V30 29173 N 2669.62 5.13325 -2.71067 0
M  V30 29174 H 2672.39 1.06404 -2.80175 0
M  V30 29175 H 2669.95 0.436443 -1.55906 0
M  V30 29176 H 2671.94 3.48389 -2.0593 0
M  V30 29177 H 2670.51 2.89735 -1.17355 0
M  V30 29178 H 2669.73 1.90355 -3.45193 0
M  V30 29179 H 2671.02 2.85588 -4.2109 0
M  V30 29180 H 2670.41 5.24747 -2.11323 0
M  V30 29181 H 2668.97 5.89204 -2.78714 0
M  V30 29182 N 2672.4 1.4905 0.512027 0
M  V30 29183 C 2673.65 1.57229 1.2634 0
M  V30 29184 C 2673.97 0.259189 1.93875 0
M  V30 29185 O 2675.17 0.219405 2.70612 0
M  V30 29186 C 2673.63 2.77366 2.29338 0
M  V30 29187 C 2673.24 4.15391 1.67792 0
M  V30 29188 C 2674.98 2.94869 3.05373 0
M  V30 29189 C 2672.89 5.26765 2.68836 0
M  V30 29190 H 2671.82 0.58539 0.475221 0
M  V30 29191 H 2674.47 1.75418 0.53859 0
M  V30 29192 H 2672.85 2.52649 3.04934 0
M  V30 29193 H 2674.02 4.50201 0.982636 0
M  V30 29194 H 2672.34 4.03155 1.04187 0
M  V30 29195 H 2674.94 3.75245 3.80914 0
M  V30 29196 H 2675.28 2.05006 3.62323 0
M  V30 29197 H 2675.81 3.19573 2.36892 0
M  V30 29198 H 2672.55 6.18651 2.16681 0
M  V30 29199 H 2672.07 4.96422 3.36638 0
M  V30 29200 H 2673.75 5.55636 3.31478 0
M  V30 29201 N 2673.88 -0.762259 1.3794 0
M  V30 29202 C 2674.79 -1.90669 1.36684 0
M  V30 29203 C 2675.81 -1.71969 0.265108 0
M  V30 29204 O 2676.98 -1.95041 0.502089 0
M  V30 29205 C 2674.05 -3.25923 1.18217 0
M  V30 29206 C 2673.11 -3.5721 2.38116 0
M  V30 29207 C 2672.34 -4.86011 2.20521 0
M  V30 29208 O 2672.57 -5.57755 1.19439 0
M  V30 29209 O 2671.5 -5.16577 3.0892 0
M  V30 29210 H 2675.33 -1.94681 2.33095 0
M  V30 29211 H 2672.91 -0.906335 1.18768 0
M  V30 29212 H 2674.79 -4.06805 1.09944 0
M  V30 29213 H 2673.47 -3.22742 0.248864 0
M  V30 29214 H 2672.38 -2.76524 2.51963 0
M  V30 29215 H 2673.71 -3.65143 3.30047 0
M  V30 29216 N 2675.36 -1.22666 -0.989486 0
M  V30 29217 C 2676.27 -1.01623 -2.11447 0
M  V30 29218 C 2677.29 0.0365144 -1.73962 0
M  V30 29219 O 2678.46 -0.156959 -2.00787 0
M  V30 29220 C 2675.53 -0.600264 -3.41464 0
M  V30 29221 C 2674.59 -1.72702 -3.9303 0
M  V30 29222 C 2673.82 -1.3308 -5.16842 0
M  V30 29223 O 2674.04 -0.211075 -5.70009 0
M  V30 29224 O 2672.98 -2.14855 -5.62246 0
M  V30 29225 H 2676.8 -1.95884 -2.32084 0
M  V30 29226 H 2674.39 -1.0129 -1.09821 0
M  V30 29227 H 2676.27 -0.378804 -4.19694 0
M  V30 29228 H 2674.95 0.313454 -3.22179 0
M  V30 29229 H 2673.85 -2.00303 -3.15958 0
M  V30 29230 H 2675.19 -2.61872 -4.16754 0
M  V30 29231 N 2676.84 1.18685 -1.0369 0
M  V30 29232 C 2678.09 1.8885 -0.739156 0
M  V30 29233 C 2678.42 1.79916 0.73101 0
M  V30 29234 O 2677.69 1.19691 1.53311 0
M  V30 29235 C 2677.98 3.39478 -1.20112 0
M  V30 29236 C 2677.83 3.57241 -2.73311 0
M  V30 29237 C 2679.15 4.32984 -0.78821 0
M  V30 29238 H 2676.27 0.685765 -0.269991 0
M  V30 29239 H 2678.91 1.39658 -1.28824 0
M  V30 29240 H 2677.06 3.81504 -0.733982 0
M  V30 29241 H 2678.73 3.24333 -3.28033 0
M  V30 29242 H 2676.97 3.00024 -3.13318 0
M  V30 29243 H 2677.65 4.62913 -3.00692 0
M  V30 29244 H 2680.12 3.98717 -1.19012 0
M  V30 29245 H 2679 5.36947 -1.13924 0
M  V30 29246 H 2679.26 4.41019 0.308911 0
M  V30 29247 N 2678.32 0.815849 1.34839 0
M  V30 29248 C 2679.25 0.247339 2.32186 0
M  V30 29249 C 2680.23 -0.632316 1.57911 0
M  V30 29250 O 2681.41 -0.560665 1.85931 0
M  V30 29251 C 2678.54 -0.597406 3.42123 0
M  V30 29252 C 2677.5 0.184521 4.27602 0
M  V30 29253 C 2676.82 -0.782516 5.28943 0
M  V30 29254 C 2678.12 1.38874 5.03499 0
M  V30 29255 H 2679.82 1.06066 2.79983 0
M  V30 29256 H 2677.36 0.511485 1.3461 0
M  V30 29257 H 2679.32 -1.00526 4.09234 0
M  V30 29258 H 2678.04 -1.44371 2.92958 0
M  V30 29259 H 2676.7 0.573656 3.62084 0
M  V30 29260 H 2676.35 -1.62458 4.76043 0
M  V30 29261 H 2676.05 -0.263592 5.87008 0
M  V30 29262 H 2677.57 -1.18837 5.98924 0
M  V30 29263 H 2678.99 1.05527 5.63504 0
M  V30 29264 H 2677.38 1.8428 5.71105 0
M  V30 29265 H 2678.45 2.17061 4.33604 0
M  V30 29266 N 2679.8 -1.46924 0.570174 0
M  V30 29267 C 2680.73 -2.28255 -0.207868 0
M  V30 29268 C 2681.74 -1.37776 -0.867277 0
M  V30 29269 O 2682.93 -1.62486 -0.738948 0
M  V30 29270 C 2680.03 -3.12435 -1.31292 0
M  V30 29271 C 2679.2 -4.3096 -0.747839 0
M  V30 29272 C 2678.26 -4.96633 -1.73901 0
M  V30 29273 O 2677.29 -5.54621 -1.28001 0
M  V30 29274 N 2678.49 -4.92503 -3.0728 0
M  V30 29275 H 2681.25 -2.9567 0.489846 0
M  V30 29276 H 2678.82 -1.56698 0.407104 0
M  V30 29277 H 2680.81 -3.53236 -1.97501 0
M  V30 29278 H 2679.38 -2.47178 -1.91368 0
M  V30 29279 H 2678.6 -3.94094 0.0913759 0
M  V30 29280 H 2679.89 -5.07596 -0.349869 0
M  V30 29281 H 2679.28 -4.46615 -3.47206 0
M  V30 29282 H 2677.84 -5.37284 -3.69011 0
M  V30 29283 N 2681.27 -0.307291 -1.54575 0
M  V30 29284 C 2682.69 0.045897 -1.59534 0
M  V30 29285 C 2682.89 1.51882 -1.32416 0
M  V30 29286 O 2681.95 2.27249 -1.10064 0
M  V30 29287 C 2683.26 -0.357701 -2.98565 0
M  V30 29288 C 2684.81 -0.306992 -3.11491 0
M  V30 29289 C 2685.28 -0.685507 -4.52841 0
M  V30 29290 N 2686.77 -0.638283 -4.58781 0
M  V30 29291 C 2687.51 -0.903558 -5.66236 0
M  V30 29292 N 2687 -1.23513 -6.81701 0
M  V30 29293 N 2688.8 -0.8302 -5.55935 0
M  V30 29294 H 2680.95 -1.26715 -1.70462 0
M  V30 29295 H 2683.21 -0.514153 -0.796461 0
M  V30 29296 H 2682.92 -1.3833 -3.23354 0
M  V30 29297 H 2682.79 0.285499 -3.76118 0
M  V30 29298 H 2685.18 0.709373 -2.86447 0
M  V30 29299 H 2685.26 -0.984902 -2.36079 0
M  V30 29300 H 2684.9 -1.69971 -4.78615 0
M  V30 29301 H 2684.83 0.0145421 -5.26598 0
M  V30 29302 H 2687.32 -0.393204 -3.75849 0
M  V30 29303 H 2687.64 -1.42335 -7.59579 0
M  V30 29304 H 2685.98 -1.27323 -6.83238 0
M  V30 29305 H 2689.17 -0.570774 -4.64607 0
M  V30 29306 H 2689.35 -1.0403 -6.39595 0
M  V30 29307 N 2682.75 1.57561 -0.0351337 0
M  V30 29308 C 2684 1.91668 0.640926 0
M  V30 29309 C 2684.32 0.912712 1.72321 0
M  V30 29310 O 2683.59 -0.0448745 1.95849 0
M  V30 29311 H 2682.17 0.707487 0.23973 0
M  V30 29312 H 2684.83 1.94717 -0.0843552 0
M  V30 29313 H 2683.93 2.92454 1.08982 0
M  V30 29314 N 2684.23 -0.238084 1.55791 0
M  V30 29315 C 2685.14 -1.31621 1.94198 0
M  V30 29316 C 2686.16 -1.52184 0.843572 0
M  V30 29317 O 2687.33 -1.65635 1.14573 0
M  V30 29318 C 2684.4 -2.64914 2.23654 0
M  V30 29319 C 2683.46 -2.52798 3.46975 0
M  V30 29320 C 2682.69 -3.79734 3.75017 0
M  V30 29321 O 2682.91 -4.82014 3.0499 0
M  V30 29322 O 2681.85 -3.77838 4.68532 0
M  V30 29323 H 2685.67 -1.02038 2.86045 0
M  V30 29324 H 2683.26 -0.439578 1.42787 0
M  V30 29325 H 2685.14 -3.43665 2.43869 0
M  V30 29326 H 2683.82 -2.94212 1.34984 0
M  V30 29327 H 2682.72 -1.72303 3.32058 0
M  V30 29328 H 2684.06 -2.28443 4.35975 0
M  V30 29329 N 2685.71 -1.4932 -0.504115 0
M  V30 29330 C 2686.62 -1.68488 -1.63245 0
M  V30 29331 C 2687.63 -0.567461 -1.64487 0
M  V30 29332 O 2688.81 -0.841781 -1.82965 0
M  V30 29333 C 2685.87 -1.74431 -2.99624 0
M  V30 29334 C 2684.94 -2.97988 -3.09033 0
M  V30 29335 C 2684.17 -3.03638 -4.38907 0
M  V30 29336 O 2684.39 -2.16967 -5.27524 0
M  V30 29337 O 2683.33 -3.9607 -4.53224 0
M  V30 29338 H 2687.15 -2.64069 -1.50004 0
M  V30 29339 H 2684.74 -1.33024 -0.680063 0
M  V30 29340 H 2686.62 -1.80711 -3.80685 0
M  V30 29341 H 2685.29 -0.820288 -3.13134 0
M  V30 29342 H 2684.2 -2.97227 -2.27172 0
M  V30 29343 H 2685.53 -3.8986 -3.00449 0
M  V30 29344 N 2687.19 0.754933 -1.38342 0
M  V30 29345 C 2688.12 1.87661 -1.2984 0
M  V30 29346 C 2689.1 1.61648 -0.175687 0
M  V30 29347 O 2690.28 1.85169 -0.352778 0
M  V30 29348 C 2687.41 3.23244 -1.01147 0
M  V30 29349 C 2686.45 3.68147 -2.15338 0
M  V30 29350 S 2687.29 3.79842 -3.77466 0
M  V30 29351 C 2688.44 5.18247 -3.50957 0
M  V30 29352 H 2688.68 1.94586 -2.24774 0
M  V30 29353 H 2686.21 0.917775 -1.24162 0
M  V30 29354 H 2688.17 4.01545 -0.852757 0
M  V30 29355 H 2686.83 3.14 -0.0793336 0
M  V30 29356 H 2686.02 4.66487 -1.90804 0
M  V30 29357 H 2685.62 2.96996 -2.27309 0
M  V30 29358 H 2687.91 6.03958 -3.06988 0
M  V30 29359 H 2688.86 5.47801 -4.48686 0
M  V30 29360 H 2689.27 4.8698 -2.855 0
M  V30 29361 N 2688.66 1.23189 0.982967 0
M  V30 29362 C 2689.59 1.03519 2.09299 0
M  V30 29363 C 2690.57 -0.0470837 1.70035 0
M  V30 29364 O 2691.76 0.117064 1.93847 0
M  V30 29365 C 2688.89 0.622851 3.41669 0
M  V30 29366 C 2687.84 1.65218 3.94825 0
M  V30 29367 C 2687.17 1.09536 5.2336 0
M  V30 29368 C 2688.47 3.04459 4.24385 0
M  V30 29369 H 2690.16 1.96363 2.26013 0
M  V30 29370 H 2687.71 0.94552 1.08609 0
M  V30 29371 H 2689.66 0.472307 4.18745 0
M  V30 29372 H 2688.39 -0.341272 3.24812 0
M  V30 29373 H 2687.05 1.79067 3.19891 0
M  V30 29374 H 2686.69 0.1223 5.02851 0
M  V30 29375 H 2686.39 1.7831 5.59892 0
M  V30 29376 H 2687.92 0.956617 6.0306 0
M  V30 29377 H 2689.33 2.93926 4.9222 0
M  V30 29378 H 2687.73 3.70447 4.72112 0
M  V30 29379 H 2688.8 3.53644 3.31759 0
M  V30 29380 N 2690.14 -1.18133 1.04318 0
M  V30 29381 C 2691.09 -2.19778 0.606769 0
M  V30 29382 C 2692.08 -1.57 -0.352116 0
M  V30 29383 O 2693.27 -1.76174 -0.170764 0
M  V30 29384 C 2690.4 -3.4329 -0.026184 0
M  V30 29385 C 2689.48 -4.13185 0.956001 0
M  V30 29386 N 2689.87 -4.59041 2.12403 0
M  V30 29387 C 2688.17 -4.39081 0.782551 0
M  V30 29388 C 2688.87 -5.12877 2.74467 0
M  V30 29389 N 2687.85 -5.04545 2.02325 0
M  V30 29390 H 2691.65 -2.52927 1.49684 0
M  V30 29391 H 2689.16 -1.34366 0.912112 0
M  V30 29392 H 2691.16 -4.15373 -0.356544 0
M  V30 29393 H 2689.82 -3.11636 -0.911757 0
M  V30 29394 H 2690.83 -4.5341 2.5028 0
M  V30 29395 H 2687.51 -4.17467 -0.0527172 0
M  V30 29396 H 2688.9 -5.58543 3.73469 0
M  V30 29397 N 2691.62 -0.822988 -1.34405 0
M  V30 29398 C 2692.55 -0.202415 -2.28304 0
M  V30 29399 C 2693.57 0.607743 -1.51031 0
M  V30 29400 O 2694.75 0.437414 -1.73058 0
M  V30 29401 C 2691.85 0.734853 -3.30837 0
M  V30 29402 C 2691.03 -0.0324946 -4.37388 0
M  V30 29403 C 2690.09 0.825711 -5.19681 0
M  V30 29404 O 2689.11 0.270671 -5.68556 0
M  V30 29405 N 2690.31 2.14549 -5.39397 0
M  V30 29406 H 2693.08 -1.00914 -2.82199 0
M  V30 29407 H 2690.64 -0.679956 -1.46929 0
M  V30 29408 H 2692.63 1.31359 -3.82788 0
M  V30 29409 H 2691.2 1.44233 -2.77337 0
M  V30 29410 H 2690.42 -0.792537 -3.86151 0
M  V30 29411 H 2691.71 -0.560722 -5.05701 0
M  V30 29412 H 2691.11 2.62016 -5.01362 0
M  V30 29413 H 2689.67 2.67307 -5.94466 0
M  V30 29414 N 2693.1 1.4662 -0.577957 0
M  V30 29415 C 2694.51 1.86096 -0.150104 0
M  V30 29416 C 2694.86 1.48212 1.2856 0
M  V30 29417 O 2693.99 0.894788 1.97034 0
M  V30 29418 C 2694.58 3.37757 -0.265636 0
M  V30 29419 C 2693.14 3.76247 0.107314 0
M  V30 29420 C 2692.29 2.70647 -0.603758 0
M  V30 29421 H 2695.24 1.37842 -0.786462 0
M  V30 29422 H 2695.26 3.77063 0.510286 0
M  V30 29423 H 2694.77 3.65299 -1.31066 0
M  V30 29424 H 2692.87 3.54323 1.15266 0
M  V30 29425 H 2692.98 4.78363 -0.265694 0
M  V30 29426 H 2691.35 2.54661 -0.0445331 0
M  V30 29427 H 2692.13 3.01029 -1.65034 0
M  V30 29428 N 2694.58 0.315484 1.5441 0
M  V30 29429 C 2695.51 -0.596484 2.20266 0
M  V30 29430 C 2696.49 -1.1219 1.17695 0
M  V30 29431 O 2697.67 -1.18741 1.46399 0
M  V30 29432 C 2694.8 -1.81762 2.85797 0
M  V30 29433 C 2693.84 -1.42416 4.0202 0
M  V30 29434 S 2694.68 -0.467742 5.33453 0
M  V30 29435 C 2695.83 -1.69635 6.02474 0
M  V30 29436 H 2696.07 -0.0370374 2.97277 0
M  V30 29437 H 2693.6 0.0995833 1.54079 0
M  V30 29438 H 2695.56 -2.51833 3.24176 0
M  V30 29439 H 2694.22 -2.34825 2.08605 0
M  V30 29440 H 2693.41 -2.33388 4.46706 0
M  V30 29441 H 2693.01 -0.803247 3.65272 0
M  V30 29442 H 2695.31 -2.63493 6.24162 0
M  V30 29443 H 2696.25 -1.29179 6.96217 0
M  V30 29444 H 2696.66 -1.87965 5.32287 0
M  V30 29445 N 2696.05 -1.5754 0.0434891 0
M  V30 29446 C 2696.96 -2.14553 -0.948892 0
M  V30 29447 C 2697.98 -1.10138 -1.34705 0
M  V30 29448 O 2699.16 -1.42268 -1.42554 0
M  V30 29449 C 2696.22 -2.67302 -2.20795 0
M  V30 29450 C 2695.28 -3.86487 -1.86886 0
M  V30 29451 C 2694.52 -4.36711 -3.06789 0
M  V30 29452 O 2694.74 -3.86041 -4.19915 0
M  V30 29453 O 2693.67 -5.28389 -2.8825 0
M  V30 29454 H 2697.5 -2.99655 -0.494046 0
M  V30 29455 H 2695.08 -1.48336 -0.177963 0
M  V30 29456 H 2696.97 -3.01233 -2.9468 0
M  V30 29457 H 2695.64 -1.85276 -2.65432 0
M  V30 29458 H 2694.55 -3.57457 -1.1034 0
M  V30 29459 H 2695.88 -4.69719 -1.47054 0
M  V30 29460 N 2697.53 0.229818 -1.55915 0
M  V30 29461 C 2698.81 0.979265 -1.69321 0
M  V30 29462 C 2699.19 2.02735 -0.588357 0
M  V30 29463 O 2698.54 2.24867 0.405821 0
M  V30 29464 C 2698.75 1.59718 -3.10308 0
M  V30 29465 C 2700.1 2.09258 -3.69454 0
M  V30 29466 O 2701.12 1.69628 -3.13217 0
M  V30 29467 O 2699.98 2.82074 -4.68077 0
M  V30 29468 H 2697.07 0.456907 -0.689322 0
M  V30 29469 H 2699.62 0.222253 -1.68238 0
M  V30 29470 H 2698.39 0.839972 -3.82178 0
M  V30 29471 H 2698.01 2.41995 -3.15474 0
M  V30 29472 N 2699.01 1.49585 0.49619 0
M  V30 29473 C 2699.96 1.67101 1.61802 0
M  V30 29474 C 2700.95 0.536905 1.60666 0
M  V30 29475 O 2702.16 0.716683 1.65117 0
M  V30 29476 H 2698.53 0.526996 0.536451 0
M  V30 29477 H 2700.5 2.61255 1.44182 0
M  V30 29478 C 2699.25 1.75926 2.99909 0
M  V30 29479 H 2698.58 2.62571 3.01491 0
M  V30 29480 H 2700.02 1.92215 3.77928 0
M  V30 29481 C 2698.48 0.505146 3.33091 0
M  V30 29482 O 2699.01 -0.367015 4.0002 0
M  V30 29483 N 2697.21 0.36665 2.88278 0
M  V30 29484 H 2696.76 1.07739 2.33987 0
M  V30 29485 H 2696.72 -0.471366 3.10846 0
M  V30 29486 N 2700.49 -0.747586 1.3874 0
M  V30 29487 C 2701.44 -1.86144 1.36452 0
M  V30 29488 C 2702.41 -1.64554 0.226127 0
M  V30 29489 O 2703.59 -1.86136 0.419293 0
M  V30 29490 C 2700.73 -3.23514 1.20136 0
M  V30 29491 C 2699.84 -3.56895 2.43413 0
M  V30 29492 C 2698.98 -4.83601 2.19781 0
M  V30 29493 C 2698.02 -5.09786 3.38799 0
M  V30 29494 N 2697.15 -6.2769 3.14564 0
M  V30 29495 H 2701.99 -1.87434 2.31673 0
M  V30 29496 H 2699.53 -0.916043 1.15096 0
M  V30 29497 H 2701.49 -4.02793 1.0869 0
M  V30 29498 H 2700.12 -3.21535 0.285509 0
M  V30 29499 H 2699.17 -2.72414 2.65509 0
M  V30 29500 H 2700.48 -3.7217 3.321 0
M  V30 29501 H 2699.64 -5.70835 2.05506 0
M  V30 29502 H 2698.38 -4.70475 1.28469 0
M  V30 29503 H 2697.38 -4.21019 3.53586 0
M  V30 29504 H 2698.61 -5.24805 4.30995 0
M  V30 29505 H 2696.55 -6.15876 2.25904 0
M  V30 29506 H 2696.47 -6.43493 3.96802 0
M  V30 29507 H 2697.74 -7.17796 3.03956 0
M  V30 29508 N 2701.97 -1.23709 -0.97642 0
M  V30 29509 C 2702.91 -1.02178 -2.0695 0
M  V30 29510 C 2703.88 0.0620742 -1.65984 0
M  V30 29511 O 2705.07 -0.0908241 -1.90584 0
M  V30 29512 C 2702.21 -0.62333 -3.39424 0
M  V30 29513 C 2701.32 -1.77973 -3.93636 0
M  V30 29514 C 2700.46 -1.32769 -5.1434 0
M  V30 29515 C 2699.5 -2.45459 -5.60729 0
M  V30 29516 N 2698.63 -2.01184 -6.72658 0
M  V30 29517 H 2703.47 -1.95738 -2.24701 0
M  V30 29518 H 2701.01 -0.975053 -1.10141 0
M  V30 29519 H 2702.97 -0.373393 -4.15526 0
M  V30 29520 H 2701.6 0.275273 -3.21624 0
M  V30 29521 H 2700.65 -2.14356 -3.14254 0
M  V30 29522 H 2701.96 -2.62678 -4.2403 0
M  V30 29523 H 2701.12 -1.03611 -5.97787 0
M  V30 29524 H 2699.85 -0.451061 -4.8561 0
M  V30 29525 H 2698.86 -2.75386 -4.7586 0
M  V30 29526 H 2700.08 -3.33664 -5.91477 0
M  V30 29527 H 2698.03 -1.15907 -6.45679 0
M  V30 29528 H 2697.95 -2.79447 -7.02457 0
M  V30 29529 H 2699.22 -1.75142 -7.59569 0
M  V30 29530 N 2703.44 1.17579 -1.04943 0
M  V30 29531 C 2704.35 2.25158 -0.658866 0
M  V30 29532 C 2705.37 1.71053 0.318911 0
M  V30 29533 O 2706.55 2.00667 0.171634 0
M  V30 29534 C 2703.61 3.4668 -0.0370132 0
M  V30 29535 C 2702.67 4.15882 -1.06492 0
M  V30 29536 C 2701.91 5.31603 -0.472644 0
M  V30 29537 O 2702.13 5.65855 0.718637 0
M  V30 29538 O 2701.06 5.89701 -1.20568 0
M  V30 29539 H 2704.89 2.60848 -1.55537 0
M  V30 29540 H 2702.47 1.2483 -0.820841 0
M  V30 29541 H 2704.36 4.20268 0.30871 0
M  V30 29542 H 2703.03 3.12793 0.833183 0
M  V30 29543 H 2701.94 3.44324 -1.46259 0
M  V30 29544 H 2703.27 4.5379 -1.90618 0
M  V30 29545 N 2704.92 0.830104 1.33967 0
M  V30 29546 C 2705.87 0.255048 2.29386 0
M  V30 29547 C 2706.84 -0.624216 1.53925 0
M  V30 29548 O 2708.02 -0.56434 1.82263 0
M  V30 29549 C 2705.16 -0.57115 3.40341 0
M  V30 29550 C 2704.28 0.331159 4.30729 0
M  V30 29551 C 2703.41 -0.505296 5.28791 0
M  V30 29552 C 2702.45 0.39595 6.10818 0
M  V30 29553 N 2701.59 -0.401856 7.00949 0
M  V30 29554 H 2706.43 1.07409 2.7797 0
M  V30 29555 H 2703.97 0.541157 1.36784 0
M  V30 29556 H 2705.92 -1.06555 4.03363 0
M  V30 29557 H 2704.55 -1.35524 2.92973 0
M  V30 29558 H 2703.61 0.943824 3.68505 0
M  V30 29559 H 2704.92 1.02385 4.88179 0
M  V30 29560 H 2704.07 -1.06389 5.97299 0
M  V30 29561 H 2702.81 -1.23146 4.71896 0
M  V30 29562 H 2701.82 0.966624 5.41236 0
M  V30 29563 H 2703.04 1.12034 6.69795 0
M  V30 29564 H 2700.99 -1.11157 6.46514 0
M  V30 29565 H 2700.9 0.2323 7.55643 0
M  V30 29566 H 2702.17 -0.942966 7.73775 0
M  V30 29567 N 2706.4 -1.46311 0.585725 0
M  V30 29568 C 2707.65 -2.01578 0.0701547 0
M  V30 29569 C 2707.96 -1.46249 -1.29887 0
M  V30 29570 O 2709.17 -1.93354 -1.90595 0
M  V30 29571 C 2707.63 -3.59822 0.0748131 0
M  V30 29572 C 2707.23 -4.24147 1.44234 0
M  V30 29573 C 2708.98 -4.22735 -0.386655 0
M  V30 29574 C 2706.88 -5.74479 1.40456 0
M  V30 29575 H 2705.81 -0.753665 0.0224574 0
M  V30 29576 H 2708.47 -1.68013 0.737819 0
M  V30 29577 H 2706.85 -3.90477 -0.659075 0
M  V30 29578 H 2708.02 -4.05097 2.1962 0
M  V30 29579 H 2706.34 -3.7334 1.84408 0
M  V30 29580 H 2708.93 -5.32938 -0.43376 0
M  V30 29581 H 2709.28 -3.91881 -1.40482 0
M  V30 29582 H 2709.81 -3.96718 0.293265 0
M  V30 29583 H 2706.55 -6.09998 2.39963 0
M  V30 29584 H 2706.07 -5.95784 0.69295 0
M  V30 29585 H 2707.75 -6.37254 1.11876 0
M  V30 29586 N 2707.88 -0.323668 -1.54241 0
M  V30 29587 C 2709.3 0.0289737 -1.59574 0
M  V30 29588 C 2709.5 1.50469 -1.3402 0
M  V30 29589 O 2708.55 2.26069 -1.12468 0
M  V30 29590 C 2709.86 -0.389348 -2.98169 0
M  V30 29591 C 2711.41 -0.340013 -3.11148 0
M  V30 29592 C 2711.89 -0.733498 -4.52088 0
M  V30 29593 N 2713.38 -0.686907 -4.58078 0
M  V30 29594 C 2714.11 -0.963564 -5.65246 0
M  V30 29595 N 2713.61 -1.30736 -6.80353 0
M  V30 29596 N 2715.4 -0.889118 -5.55024 0
M  V30 29597 H 2707.55 -1.28515 -1.69108 0
M  V30 29598 H 2709.82 -0.522572 -0.790963 0
M  V30 29599 H 2709.52 -1.41752 -3.21868 0
M  V30 29600 H 2709.4 0.245591 -3.764 0
M  V30 29601 H 2711.78 0.678952 -2.87183 0
M  V30 29602 H 2711.86 -1.00989 -2.35021 0
M  V30 29603 H 2711.51 -1.75038 -4.76785 0
M  V30 29604 H 2711.44 -0.0413115 -5.26584 0
M  V30 29605 H 2713.93 -0.433046 -3.75411 0
M  V30 29606 H 2714.24 -1.50383 -7.58027 0
M  V30 29607 H 2712.59 -1.34562 -6.81849 0
M  V30 29608 H 2715.78 -0.62002 -4.63976 0
M  V30 29609 H 2715.95 -1.10808 -6.38456 0
M  V30 29610 N 2709.36 1.57515 -0.0518432 0
M  V30 29611 C 2710.29 2.14601 0.920246 0
M  V30 29612 C 2711.27 1.06785 1.32404 0
M  V30 29613 O 2712.45 1.34728 1.39864 0
M  V30 29614 C 2709.58 2.69154 2.19485 0
M  V30 29615 C 2708.54 3.81959 1.93109 0
M  V30 29616 C 2707.86 4.23031 3.2703 0
M  V30 29617 C 2709.16 5.07068 1.25217 0
M  V30 29618 H 2710.86 2.96078 0.444749 0
M  V30 29619 H 2708.4 1.42424 0.212483 0
M  V30 29620 H 2710.36 3.0773 2.87889 0
M  V30 29621 H 2709.08 1.8487 2.69241 0
M  V30 29622 H 2707.74 3.43856 1.27117 0
M  V30 29623 H 2707.39 3.35697 3.74589 0
M  V30 29624 H 2707.09 4.99061 3.1018 0
M  V30 29625 H 2708.61 4.64209 3.96665 0
M  V30 29626 H 2710.03 5.43087 1.83656 0
M  V30 29627 H 2708.42 5.88245 1.18691 0
M  V30 29628 H 2709.49 4.84362 0.228297 0
M  V30 29629 N 2710.84 -0.221546 1.56035 0
M  V30 29630 C 2711.77 -1.29802 1.88902 0
M  V30 29631 C 2712.78 -1.43045 0.777294 0
M  V30 29632 O 2713.97 -1.43943 1.05559 0
M  V30 29633 C 2711.07 -2.67363 2.08255 0
M  V30 29634 C 2710.24 -2.76068 3.39272 0
M  V30 29635 C 2709.3 -3.94643 3.48056 0
M  V30 29636 O 2708.33 -3.82981 4.21087 0
M  V30 29637 N 2709.53 -5.08948 2.792 0
M  V30 29638 H 2712.29 -1.01933 2.81833 0
M  V30 29639 H 2709.86 -0.411584 1.56581 0
M  V30 29640 H 2711.85 -3.45069 2.11447 0
M  V30 29641 H 2710.42 -2.87832 1.21949 0
M  V30 29642 H 2709.64 -1.84839 3.48178 0
M  V30 29643 H 2710.93 -2.78853 4.2558 0
M  V30 29644 H 2710.32 -5.21318 2.19645 0
M  V30 29645 H 2708.88 -5.84695 2.88053 0
M  V30 29646 N 2712.31 -1.49846 -0.48825 0
M  V30 29647 C 2713.24 -1.70373 -1.59672 0
M  V30 29648 C 2714.22 -0.552501 -1.60877 0
M  V30 29649 O 2715.41 -0.789761 -1.77416 0
M  V30 29650 C 2712.54 -1.78205 -2.98094 0
M  V30 29651 C 2711.49 -2.93244 -3.11756 0
M  V30 29652 C 2710.82 -2.86201 -4.51656 0
M  V30 29653 C 2712.12 -4.34004 -2.90581 0
M  V30 29654 H 2713.81 -2.6318 -1.42747 0
M  V30 29655 H 2711.36 -1.26648 -0.685295 0
M  V30 29656 H 2713.31 -1.91151 -3.75552 0
M  V30 29657 H 2712.04 -0.820073 -3.16137 0
M  V30 29658 H 2710.7 -2.79922 -2.36727 0
M  V30 29659 H 2710.34 -1.87885 -4.66592 0
M  V30 29660 H 2710.04 -3.6342 -4.61735 0
M  V30 29661 H 2711.57 -3.01172 -5.31157 0
M  V30 29662 H 2712.98 -4.47942 -3.578 0
M  V30 29663 H 2711.38 -5.12543 -3.12121 0
M  V30 29664 H 2712.45 -4.47564 -1.86587 0
M  V30 29665 N 2713.79 0.740218 -1.39135 0
M  V30 29666 C 2714.72 1.86749 -1.40168 0
M  V30 29667 C 2715.7 1.68011 -0.265737 0
M  V30 29668 O 2716.89 1.88407 -0.470793 0
M  V30 29669 C 2714.02 3.24438 -1.23925 0
M  V30 29670 C 2712.97 3.57803 -2.34864 0
M  V30 29671 C 2712.3 4.94373 -2.03715 0
M  V30 29672 C 2713.6 3.61309 -3.77165 0
M  V30 29673 H 2715.29 1.86141 -2.34503 0
M  V30 29674 H 2712.84 0.89414 -1.12877 0
M  V30 29675 H 2714.79 4.02967 -1.2327 0
M  V30 29676 H 2713.51 3.25559 -0.260567 0
M  V30 29677 H 2712.17 2.816 -2.34728 0
M  V30 29678 H 2711.82 4.92068 -1.04298 0
M  V30 29679 H 2711.52 5.17664 -2.78025 0
M  V30 29680 H 2713.05 5.75265 -2.04701 0
M  V30 29681 H 2714.46 4.29925 -3.79259 0
M  V30 29682 H 2712.86 3.96116 -4.50791 0
M  V30 29683 H 2713.93 2.6123 -4.08518 0
M  V30 29684 N 2715.27 1.24225 0.969846 0
M  V30 29685 C 2716.2 1.05733 2.08189 0
M  V30 29686 C 2717.18 -0.0290466 1.70075 0
M  V30 29687 O 2718.37 0.137617 1.93712 0
M  V30 29688 C 2715.5 0.659055 3.40989 0
M  V30 29689 C 2714.45 1.69396 3.93051 0
M  V30 29690 C 2713.78 1.15081 5.22169 0
M  V30 29691 C 2715.08 3.08943 4.21132 0
M  V30 29692 H 2716.77 1.9875 2.23917 0
M  V30 29693 H 2714.32 0.956986 1.076 0
M  V30 29694 H 2716.27 0.516694 4.1822 0
M  V30 29695 H 2714.99 -0.306802 3.25156 0
M  V30 29696 H 2713.65 1.8245 3.17974 0
M  V30 29697 H 2713.3 0.175627 5.02693 0
M  V30 29698 H 2713 1.84238 5.57969 0
M  V30 29699 H 2714.52 1.02053 6.02011 0
M  V30 29700 H 2715.94 2.9913 4.89075 0
M  V30 29701 H 2714.33 3.75433 4.68156 0
M  V30 29702 H 2715.4 3.57142 3.2799 0
M  V30 29703 N 2716.75 -1.1702 1.05565 0
M  V30 29704 C 2717.68 -2.23347 0.681065 0
M  V30 29705 C 2718.66 -1.67006 -0.322954 0
M  V30 29706 O 2719.84 -1.9317 -0.199712 0
M  V30 29707 C 2716.97 -3.4725 0.0589663 0
M  V30 29708 C 2715.93 -4.16437 0.988155 0
M  V30 29709 C 2715.25 -5.34206 0.22974 0
M  V30 29710 C 2716.55 -4.68245 2.31396 0
M  V30 29711 H 2718.25 -2.54936 1.56997 0
M  V30 29712 H 2715.79 -1.22539 0.756324 0
M  V30 29713 H 2717.75 -4.20852 -0.214908 0
M  V30 29714 H 2716.47 -3.14939 -0.864913 0
M  V30 29715 H 2715.13 -3.44752 1.24666 0
M  V30 29716 H 2714.78 -4.98147 -0.697024 0
M  V30 29717 H 2714.48 -5.81435 0.848917 0
M  V30 29718 H 2716 -6.10589 -0.0367621 0
M  V30 29719 H 2717.42 -5.33464 2.09973 0
M  V30 29720 H 2715.81 -5.26067 2.88745 0
M  V30 29721 H 2716.88 -3.8485 2.94989 0
M  V30 29722 N 2718.23 -0.837197 -1.33524 0
M  V30 29723 C 2719.18 -0.241308 -2.26719 0
M  V30 29724 C 2720.16 0.60273 -1.49184 0
M  V30 29725 O 2721.35 0.454972 -1.71053 0
M  V30 29726 C 2718.48 0.584066 -3.38295 0
M  V30 29727 C 2717.57 -0.27139 -4.23231 0
M  V30 29728 N 2717.96 -1.3493 -4.87471 0
M  V30 29729 C 2716.26 -0.0581373 -4.45962 0
M  V30 29730 C 2716.96 -1.87414 -5.50682 0
M  V30 29731 N 2715.93 -1.17587 -5.3073 0
M  V30 29732 H 2719.73 -1.06562 -2.73901 0
M  V30 29733 H 2717.25 -0.681476 -1.4741 0
M  V30 29734 H 2719.25 1.02724 -4.04046 0
M  V30 29735 H 2717.91 1.40638 -2.92662 0
M  V30 29736 H 2718.92 -1.73219 -4.88074 0
M  V30 29737 H 2715.59 0.730866 -4.11053 0
M  V30 29738 H 2716.98 -2.77672 -6.1184 0
M  V30 29739 N 2719.7 1.45999 -0.593476 0
M  V30 29740 C 2720.93 2.06708 -0.0891297 0
M  V30 29741 C 2721.35 1.44048 1.22048 0
M  V30 29742 O 2720.7 0.549581 1.74028 0
M  V30 29743 C 2720.75 3.61428 0.0719628 0
M  V30 29744 O 2720.48 4.21746 -1.18582 0
M  V30 29745 C 2721.98 4.39091 0.60941 0
M  V30 29746 H 2719.2 0.668095 -0.0623745 0
M  V30 29747 H 2721.74 1.87462 -0.817204 0
M  V30 29748 H 2719.9 3.80065 0.750302 0
M  V30 29749 H 2720.31 5.14752 -1.00649 0
M  V30 29750 H 2721.78 5.47903 0.671267 0
M  V30 29751 H 2722.26 4.07884 1.62871 0
M  V30 29752 H 2722.87 4.25286 -0.0344148 0
M  V30 29753 N 2721.18 0.331843 1.54067 0
M  V30 29754 C 2722.6 -0.0205108 1.59587 0
M  V30 29755 C 2722.8 -1.49756 1.34816 0
M  V30 29756 O 2721.85 -2.25469 1.13665 0
M  V30 29757 C 2723.17 0.405155 2.97958 0
M  V30 29758 C 2724.72 0.356509 3.10963 0
M  V30 29759 C 2725.19 0.757463 4.51693 0
M  V30 29760 N 2726.68 0.711191 4.57708 0
M  V30 29761 C 2727.42 0.993527 5.64727 0
M  V30 29762 N 2726.91 1.34342 6.7965 0
M  V30 29763 N 2728.71 0.91854 5.54544 0
M  V30 29764 H 2720.86 1.2941 1.68424 0
M  V30 29765 H 2723.12 0.526759 0.788181 0
M  V30 29766 H 2722.83 1.43457 3.21112 0
M  V30 29767 H 2722.7 -0.225626 3.76525 0
M  V30 29768 H 2725.09 -0.663712 2.87539 0
M  V30 29769 H 2725.17 1.02234 2.34482 0
M  V30 29770 H 2724.81 1.77564 4.7585 0
M  V30 29771 H 2724.74 0.0692369 5.26554 0
M  V30 29772 H 2727.23 0.452949 3.75176 0
M  V30 29773 H 2727.55 1.54401 7.57219 0
M  V30 29774 H 2725.89 1.38176 6.81126 0
M  V30 29775 H 2729.08 0.644617 4.6364 0
M  V30 29776 H 2729.25 1.14193 6.37859 0
M  V30 29777 N 2722.66 -1.57485 0.0601958 0
M  V30 29778 C 2723.89 -1.97077 -0.620002 0
M  V30 29779 C 2724.3 -0.936813 -1.64379 0
M  V30 29780 O 2723.64 0.0863055 -1.83497 0
M  V30 29781 C 2723.7 -3.32941 -1.35611 0
M  V30 29782 C 2723.37 -4.54396 -0.487128 0
M  V30 29783 C 2724.36 -5.19296 0.250519 0
M  V30 29784 C 2722.05 -5.00579 -0.415406 0
M  V30 29785 C 2724.04 -6.28722 1.04823 0
M  V30 29786 C 2721.73 -6.0988 0.385986 0
M  V30 29787 C 2722.73 -6.73813 1.11648 0
M  V30 29788 O 2722.42 -7.8101 1.90468 0
M  V30 29789 H 2722.15 -0.653315 -0.173653 0
M  V30 29790 H 2724.7 -2.05015 0.125636 0
M  V30 29791 H 2722.93 -3.21584 -2.14758 0
M  V30 29792 H 2724.62 -3.57219 -1.92742 0
M  V30 29793 H 2725.39 -4.84568 0.204632 0
M  V30 29794 H 2721.27 -4.50602 -0.9736 0
M  V30 29795 H 2724.81 -6.78555 1.61892 0
M  V30 29796 H 2720.71 -6.44043 0.433479 0
M  V30 29797 H 2721.48 -7.97832 1.82776 0
M  V30 29798 N 2724.14 0.213268 -1.5615 0
M  V30 29799 C 2725.09 1.28391 -1.93955 0
M  V30 29800 C 2726.08 1.48086 -0.822618 0
M  V30 29801 O 2727.29 1.49162 -1.00751 0
M  V30 29802 H 2723.66 0.430635 -0.616488 0
M  V30 29803 H 2725.63 0.937927 -2.83276 0
M  V30 29804 C 2724.38 2.62533 -2.27973 0
M  V30 29805 H 2723.7 2.48188 -3.13437 0
M  V30 29806 H 2725.14 3.36238 -2.58303 0
M  V30 29807 C 2723.6 3.18165 -1.10781 0
M  V30 29808 O 2724.13 3.99962 -0.373272 0
M  V30 29809 N 2722.34 2.76654 -0.889426 0
M  V30 29810 H 2721.89 2.10244 -1.48847 0
M  V30 29811 H 2721.84 3.14218 -0.107055 0
M  V30 29812 N 2725.62 1.50103 0.480296 0
M  V30 29813 C 2726.56 1.68293 1.57943 0
M  V30 29814 C 2727.53 0.524251 1.5761 0
M  V30 29815 O 2728.72 0.75374 1.75281 0
M  V30 29816 C 2725.86 1.77462 2.95975 0
M  V30 29817 C 2724.97 3.04771 3.06167 0
M  V30 29818 C 2724.11 3.04792 4.35058 0
M  V30 29819 C 2723.15 4.26593 4.38958 0
M  V30 29820 N 2722.28 4.24406 5.59307 0
M  V30 29821 H 2727.12 2.62134 1.41738 0
M  V30 29822 H 2724.66 1.29951 0.689281 0
M  V30 29823 H 2726.62 1.80759 3.76008 0
M  V30 29824 H 2725.25 0.870691 3.10836 0
M  V30 29825 H 2724.3 3.10989 2.19066 0
M  V30 29826 H 2725.61 3.94756 3.04909 0
M  V30 29827 H 2724.77 3.06767 5.2343 0
M  V30 29828 H 2723.5 2.12622 4.38912 0
M  V30 29829 H 2722.51 4.24841 3.48985 0
M  V30 29830 H 2723.73 5.1998 4.36804 0
M  V30 29831 H 2721.68 3.35084 5.63963 0
M  V30 29832 H 2721.6 5.08148 5.59751 0
M  V30 29833 H 2722.87 4.30513 6.4983 0
M  V30 29834 N 2727.09 -0.732829 1.39526 0
M  V30 29835 C 2728.34 -1.4879 1.36178 0
M  V30 29836 C 2728.66 -1.95562 -0.0387851 0
M  V30 29837 O 2729.86 -2.708 -0.194851 0
M  V30 29838 C 2728.32 -2.68866 2.39246 0
M  V30 29839 C 2727.93 -2.29035 3.85028 0
M  V30 29840 C 2729.67 -3.46679 2.44978 0
M  V30 29841 C 2727.58 -3.45847 4.79733 0
M  V30 29842 H 2726.51 -0.558748 0.506277 0
M  V30 29843 H 2729.16 -0.799197 1.65182 0
M  V30 29844 H 2727.54 -3.39822 2.03316 0
M  V30 29845 H 2728.71 -1.65612 4.30011 0
M  V30 29846 H 2727.03 -1.64309 3.82611 0
M  V30 29847 H 2729.63 -4.33569 3.12925 0
M  V30 29848 H 2729.97 -3.89295 1.47497 0
M  V30 29849 H 2730.5 -2.82754 2.79813 0
M  V30 29850 H 2727.24 -3.08279 5.78484 0
M  V30 29851 H 2726.76 -4.08244 4.39428 0
M  V30 29852 H 2728.44 -4.12152 4.98738 0
M  V30 29853 N 2728.57 -1.24737 -0.963244 0
M  V30 29854 C 2729.52 -1.04367 -2.05855 0
M  V30 29855 C 2730.49 0.0444659 -1.6604 0
M  V30 29856 O 2731.67 -0.111033 -1.90477 0
M  V30 29857 C 2728.81 -0.659295 -3.38744 0
M  V30 29858 C 2727.93 -1.82138 -3.91727 0
M  V30 29859 C 2727.06 -1.38217 -5.12903 0
M  V30 29860 C 2726.1 -2.51392 -5.58094 0
M  V30 29861 N 2725.24 -2.08307 -6.70487 0
M  V30 29862 H 2730.08 -1.9811 -2.22612 0
M  V30 29863 H 2727.62 -0.986681 -1.09101 0
M  V30 29864 H 2729.57 -0.417444 -4.15106 0
M  V30 29865 H 2728.2 0.241145 -3.21898 0
M  V30 29866 H 2727.26 -2.17677 -3.11963 0
M  V30 29867 H 2728.57 -2.67161 -4.2122 0
M  V30 29868 H 2727.72 -1.09946 -5.96655 0
M  V30 29869 H 2726.46 -0.502541 -4.85104 0
M  V30 29870 H 2725.47 -2.80418 -4.72912 0
M  V30 29871 H 2726.69 -3.39919 -5.87905 0
M  V30 29872 H 2724.64 -1.22749 -6.44414 0
M  V30 29873 H 2724.55 -2.86881 -6.99453 0
M  V30 29874 H 2725.82 -1.83188 -7.57669 0
M  V30 29875 N 2730.05 1.16459 -1.06184 0
M  V30 29876 C 2731.01 2.19012 -0.675761 0
M  V30 29877 C 2732.01 1.5838 0.277935 0
M  V30 29878 O 2733.2 1.74095 0.0604656 0
M  V30 29879 C 2730.34 3.40899 0.00585467 0
M  V30 29880 H 2731.53 2.54682 -1.58357 0
M  V30 29881 H 2729.08 1.30715 -0.856931 0
M  V30 29882 H 2729.82 3.10785 0.926465 0
M  V30 29883 H 2729.6 3.8616 -0.679908 0
M  V30 29884 H 2731.09 4.16779 0.261736 0
M  V30 29885 N 2731.53 0.844266 1.33079 0
M  V30 29886 C 2732.78 0.438868 1.96868 0
M  V30 29887 C 2733.09 -1.00844 1.67601 0
M  V30 29888 O 2734.3 -1.51877 2.25046 0
M  V30 29889 C 2732.75 0.733832 3.52339 0
M  V30 29890 C 2732.36 2.19617 3.90477 0
M  V30 29891 C 2734.1 0.395649 4.22652 0
M  V30 29892 C 2732.01 2.4349 5.38949 0
M  V30 29893 H 2730.94 0.160377 0.736746 0
M  V30 29894 H 2733.59 1.0336 1.51621 0
M  V30 29895 H 2731.97 0.0686586 3.9594 0
M  V30 29896 H 2733.15 2.90227 3.57917 0
M  V30 29897 H 2731.46 2.49786 3.33161 0
M  V30 29898 H 2734.06 0.55157 5.31848 0
M  V30 29899 H 2734.4 -0.661849 4.11005 0
M  V30 29900 H 2734.94 1.01628 3.84599 0
M  V30 29901 H 2731.68 3.47825 5.55606 0
M  V30 29902 H 2731.2 1.77447 5.72951 0
M  V30 29903 H 2732.87 2.26915 6.05903 0
M  V30 29904 N 2733.01 -1.45682 0.60121 0
M  V30 29905 C 2734.42 -1.85833 0.179691 0
M  V30 29906 C 2734.77 -1.50238 -1.26186 0
M  V30 29907 O 2733.89 -0.926022 -1.95586 0
M  V30 29908 C 2734.49 -3.37292 0.319336 0
M  V30 29909 C 2733.05 -3.7637 -0.0474431 0
M  V30 29910 C 2732.19 -2.69653 0.646739 0
M  V30 29911 H 2735.15 -1.36574 0.808292 0
M  V30 29912 H 2735.17 -3.77827 -0.450234 0
M  V30 29913 H 2734.68 -3.63167 1.36861 0
M  V30 29914 H 2732.78 -3.56112 -1.09614 0
M  V30 29915 H 2732.89 -4.77879 0.341764 0
M  V30 29916 H 2731.26 -2.54558 0.0850419 0
M  V30 29917 H 2732.04 -2.98366 1.69802 0
M  V30 29918 N 2734.48 -0.340009 -1.53889 0
M  V30 29919 C 2735.73 0.258569 -2.00036 0
M  V30 29920 C 2736.05 1.5194 -1.23182 0
M  V30 29921 O 2737.25 2.195 -1.59788 0
M  V30 29922 C 2735.71 0.511296 -3.5625 0
M  V30 29923 C 2735.32 -0.733427 -4.41956 0
M  V30 29924 C 2737.06 1.06893 -4.10821 0
M  V30 29925 C 2734.97 -0.451694 -5.89673 0
M  V30 29926 H 2733.9 0.100396 -0.747286 0
M  V30 29927 H 2736.55 -0.454789 -1.77775 0
M  V30 29928 H 2734.93 1.28526 -3.74562 0
M  V30 29929 H 2736.1 -1.50823 -4.35418 0
M  V30 29930 H 2734.42 -1.21244 -3.98358 0
M  V30 29931 H 2737.02 1.29461 -5.18791 0
M  V30 29932 H 2737.36 2.02337 -3.63821 0
M  V30 29933 H 2737.89 0.355748 -3.96206 0
M  V30 29934 H 2734.63 -1.37576 -6.409 0
M  V30 29935 H 2734.15 0.285088 -5.99122 0
M  V30 29936 H 2735.83 -0.0676204 -6.46965 0
M  V30 29937 N 2735.96 1.57451 -0.0685468 0
M  V30 29938 C 2736.9 2.09514 0.929336 0
M  V30 29939 C 2737.91 1.02659 1.26353 0
M  V30 29940 O 2739.1 1.30181 1.22128 0
M  V30 29941 C 2736.2 2.53781 2.24608 0
M  V30 29942 C 2735.37 3.8417 2.09122 0
M  V30 29943 C 2734.43 4.14565 3.24072 0
M  V30 29944 O 2733.46 4.84215 2.99206 0
M  V30 29945 N 2734.66 3.67853 4.49071 0
M  V30 29946 H 2737.42 2.95752 0.484849 0
M  V30 29947 H 2734.98 1.61475 0.117262 0
M  V30 29948 H 2736.98 2.71178 3.00408 0
M  V30 29949 H 2735.55 1.72697 2.60566 0
M  V30 29950 H 2734.77 3.76185 1.17808 0
M  V30 29951 H 2736.05 4.69524 1.96021 0
M  V30 29952 H 2735.45 3.11579 4.7216 0
M  V30 29953 H 2734.01 3.90456 5.21908 0
M  V30 29954 N 2737.44 -0.204984 1.56261 0
M  V30 29955 C 2738.37 -1.27791 1.90268 0
M  V30 29956 C 2739.39 -1.42213 0.792422 0
M  V30 29957 O 2740.58 -1.42815 1.0708 0
M  V30 29958 C 2737.68 -2.6514 2.11079 0
M  V30 29959 C 2736.85 -2.72454 3.42181 0
M  V30 29960 C 2735.91 -3.90929 3.52223 0
M  V30 29961 O 2734.93 -3.78493 4.25125 0
M  V30 29962 N 2736.14 -5.05958 2.84582 0
M  V30 29963 H 2738.9 -0.989384 2.82898 0
M  V30 29964 H 2736.46 -0.394953 1.57009 0
M  V30 29965 H 2738.45 -3.42807 2.15095 0
M  V30 29966 H 2737.02 -2.86522 1.24995 0
M  V30 29967 H 2736.24 -1.81136 3.50119 0
M  V30 29968 H 2737.53 -2.74323 4.28514 0
M  V30 29969 H 2736.93 -5.18959 2.25161 0
M  V30 29970 H 2735.49 -5.81607 2.94238 0
M  V30 29971 N 2738.92 -1.50356 -0.472329 0
M  V30 29972 C 2740.34 -1.37754 -0.805977 0
M  V30 29973 C 2740.54 -0.432684 -1.968 0
M  V30 29974 O 2739.59 0.125146 -2.5219 0
M  V30 29975 C 2740.9 -2.79095 -1.11921 0
M  V30 29976 C 2742.45 -2.88001 -1.22574 0
M  V30 29977 C 2742.93 -4.30173 -1.5721 0
M  V30 29978 N 2744.42 -4.33118 -1.64204 0
M  V30 29979 C 2745.15 -5.40119 -1.92507 0
M  V30 29980 N 2744.65 -6.57329 -2.18839 0
M  V30 29981 N 2746.44 -5.27561 -1.93999 0
M  V30 29982 H 2738.59 -2.10363 0.293488 0
M  V30 29983 H 2740.86 -0.945501 0.0687838 0
M  V30 29984 H 2740.56 -3.50068 -0.338442 0
M  V30 29985 H 2740.44 -3.1626 -2.05571 0
M  V30 29986 H 2742.82 -2.17248 -1.99718 0
M  V30 29987 H 2742.9 -2.54381 -0.269062 0
M  V30 29988 H 2742.55 -5.01463 -0.806066 0
M  V30 29989 H 2742.48 -4.61279 -2.54026 0
M  V30 29990 H 2744.97 -3.48599 -1.459 0
M  V30 29991 H 2745.28 -7.34685 -2.39705 0
M  V30 29992 H 2743.63 -6.60506 -2.16234 0
M  V30 29993 H 2746.82 -4.34989 -1.72923 0
M  V30 29994 H 2746.99 -6.11039 -2.15721 0
M  V30 29995 N 2740.4 0.725419 -1.39912 0
M  V30 29996 C 2741.34 1.83949 -1.39396 0
M  V30 29997 C 2742.31 1.64173 -0.252278 0
M  V30 29998 O 2743.5 1.85445 -0.448852 0
M  V30 29999 C 2740.64 3.21562 -1.25267 0
M  V30 30000 C 2739.75 3.52977 -2.4906 0
M  V30 30001 C 2738.89 4.80043 -2.27447 0
M  V30 30002 C 2737.93 5.04332 -3.46866 0
M  V30 30003 N 2737.06 6.22606 -3.2451 0
M  V30 30004 H 2741.9 1.83725 -2.34626 0
M  V30 30005 H 2739.44 0.897616 -1.16539 0
M  V30 30006 H 2741.4 4.01013 -1.15084 0
M  V30 30007 H 2740.03 3.2104 -0.336626 0
M  V30 30008 H 2739.08 2.68155 -2.69809 0
M  V30 30009 H 2740.39 3.6684 -3.37979 0
M  V30 30010 H 2739.55 5.67493 -2.14561 0
M  V30 30011 H 2738.29 4.68372 -1.35937 0
M  V30 30012 H 2737.29 4.1534 -3.6024 0
M  V30 30013 H 2738.52 5.17882 -4.3929 0
M  V30 30014 H 2736.46 6.12204 -2.35674 0
M  V30 30015 H 2736.38 6.37099 -4.0699 0
M  V30 30016 H 2737.65 7.12869 -3.15337 0
M  V30 30017 N 2741.88 1.25246 0.956615 0
M  V30 30018 C 2742.81 0.997786 2.0523 0
M  V30 30019 C 2743.79 -0.0722852 1.62439 0
M  V30 30020 O 2744.97 0.0669591 1.88381 0
M  V30 30021 C 2742.1 0.50792 3.3487 0
M  V30 30022 C 2741.14 1.56822 3.96622 0
M  V30 30023 S 2741.98 3.15283 4.32847 0
M  V30 30024 C 2743.13 2.68027 5.65608 0
M  V30 30025 H 2743.37 1.92554 2.26518 0
M  V30 30026 H 2740.9 1.08754 1.09599 0
M  V30 30027 H 2742.86 0.23193 4.09844 0
M  V30 30028 H 2741.52 -0.399301 3.11552 0
M  V30 30029 H 2740.71 1.17612 4.90085 0
M  V30 30030 H 2740.31 1.79479 3.28121 0
M  V30 30031 H 2742.6 2.11529 6.43632 0
M  V30 30032 H 2743.55 3.60122 6.09686 0
M  V30 30033 H 2743.96 2.08089 5.24747 0
M  V30 30034 N 2743.35 -1.15894 1.068 0
M  V30 30035 C 2744.6 -1.86179 0.786243 0
M  V30 30036 C 2744.92 -1.82403 -0.689515 0
M  V30 30037 O 2744.19 -1.2611 -1.49911 0
M  V30 30038 H 2742.77 -0.68931 0.287856 0
M  V30 30039 H 2745.43 -1.40518 1.35058 0
M  V30 30040 H 2744.53 -2.91475 1.11575 0
M  V30 30041 N 2744.83 -0.851312 -1.32629 0
M  V30 30042 C 2745.76 -0.250797 -2.27824 0
M  V30 30043 C 2746.78 0.575571 -1.52286 0
M  V30 30044 O 2747.97 0.400607 -1.73947 0
M  V30 30045 C 2745.07 0.664512 -3.32321 0
M  V30 30046 C 2744.24 -0.125264 -4.37221 0
M  V30 30047 C 2743.3 0.715293 -5.21316 0
M  V30 30048 O 2742.32 0.150011 -5.69002 0
M  V30 30049 N 2743.53 2.03059 -5.43827 0
M  V30 30050 H 2746.29 -1.06878 -2.79995 0
M  V30 30051 H 2743.85 -0.710969 -1.45454 0
M  V30 30052 H 2745.84 1.2321 -3.85489 0
M  V30 30053 H 2744.41 1.38318 -2.80334 0
M  V30 30054 H 2743.63 -0.874267 -3.84383 0
M  V30 30055 H 2744.92 -0.667863 -5.04398 0
M  V30 30056 H 2744.32 2.51323 -5.06807 0
M  V30 30057 H 2742.88 2.54638 -6.00002 0
M  V30 30058 N 2746.31 1.45361 -0.608928 0
M  V30 30059 C 2747.24 2.33301 0.0964116 0
M  V30 30060 C 2748.22 1.46909 0.857418 0
M  V30 30061 O 2749.41 1.75678 0.827704 0
M  V30 30062 C 2746.54 3.29637 1.09348 0
M  V30 30063 C 2745.49 4.25674 0.445601 0
M  V30 30064 C 2744.82 5.11711 1.55101 0
M  V30 30065 C 2746.12 5.18437 -0.634063 0
M  V30 30066 H 2747.81 2.92526 -0.63788 0
M  V30 30067 H 2745.36 1.40663 -0.308203 0
M  V30 30068 H 2747.31 3.90028 1.59549 0
M  V30 30069 H 2746.03 2.68573 1.85839 0
M  V30 30070 H 2744.69 3.66583 -0.0355542 0
M  V30 30071 H 2744.34 4.47014 2.30623 0
M  V30 30072 H 2744.04 5.76769 1.12301 0
M  V30 30073 H 2745.56 5.74971 2.05527 0
M  V30 30074 H 2746.98 5.72893 -0.216074 0
M  V30 30075 H 2745.37 5.91979 -0.983893 0
M  V30 30076 H 2746.44 4.60785 -1.51013 0
M  V30 30077 N 2747.79 0.348166 1.53706 0
M  V30 30078 C 2748.75 -0.494019 2.23813 0
M  V30 30079 C 2749.75 -1.02386 1.23991 0
M  V30 30080 O 2750.94 -0.91237 1.48396 0
M  V30 30081 C 2748.07 -1.68867 2.96136 0
M  V30 30082 H 2749.27 0.119193 2.99663 0
M  V30 30083 H 2746.82 0.0995813 1.55982 0
M  V30 30084 H 2747.55 -2.34045 2.24485 0
M  V30 30085 H 2747.34 -1.3159 3.6936 0
M  V30 30086 H 2748.83 -2.28591 3.49479 0
M  V30 30087 N 2749.27 -1.57412 0.0768958 0
M  V30 30088 C 2750.49 -1.98429 -0.603369 0
M  V30 30089 C 2750.92 -0.955137 -1.62046 0
M  V30 30090 O 2750.27 0.0786459 -1.81129 0
M  V30 30091 C 2750.32 -3.38466 -1.2439 0
M  V30 30092 O 2749.43 -3.38214 -2.35976 0
M  V30 30093 H 2748.77 -0.64572 -0.15473 0
M  V30 30094 H 2751.3 -2.04028 0.152921 0
M  V30 30095 H 2751.31 -3.75763 -1.58954 0
M  V30 30096 H 2749.98 -4.129 -0.498663 0
M  V30 30097 H 2748.56 -3.12693 -2.03168 0
M  V30 30098 N 2750.74 0.196695 -1.56368 0
M  V30 30099 C 2751.99 0.915522 -1.80174 0
M  V30 30100 C 2752.31 1.83859 -0.649682 0
M  V30 30101 O 2751.58 1.93065 0.332077 0
M  V30 30102 H 2750.16 0.341055 -0.664598 0
M  V30 30103 H 2752.83 0.202588 -1.93844 0
M  V30 30104 H 2751.92 1.50759 -2.73273 0
M  V30 30105 N 2752.22 1.50604 0.464349 0
M  V30 30106 C 2753.47 1.61169 1.21274 0
M  V30 30107 C 2753.78 0.320738 1.92952 0
M  V30 30108 O 2754.99 0.305388 2.69777 0
M  V30 30109 C 2753.45 2.84522 2.20398 0
M  V30 30110 C 2753.05 4.20519 1.54492 0
M  V30 30111 C 2754.8 3.04435 2.95837 0
M  V30 30112 C 2752.71 5.35051 2.51941 0
M  V30 30113 H 2751.64 0.600212 0.456356 0
M  V30 30114 H 2754.29 1.77043 0.482509 0
M  V30 30115 H 2752.67 2.62222 2.96742 0
M  V30 30116 H 2753.84 4.53099 0.83891 0
M  V30 30117 H 2752.16 4.06266 0.913081 0
M  V30 30118 H 2754.75 3.87173 3.68783 0
M  V30 30119 H 2755.1 2.16429 3.55618 0
M  V30 30120 H 2755.63 3.26948 2.26606 0
M  V30 30121 H 2752.37 6.25232 1.9689 0
M  V30 30122 H 2751.89 5.06881 3.20674 0
M  V30 30123 H 2753.57 5.65901 3.13633 0
M  V30 30124 N 2753.7 -0.717989 1.40295 0
M  V30 30125 C 2755.12 -1.02575 1.22272 0
M  V30 30126 C 2755.32 -2.0127 0.096233 0
M  V30 30127 O 2754.37 -2.46512 -0.546651 0
M  V30 30128 C 2755.69 -1.57177 2.56351 0
M  V30 30129 C 2757.23 -1.69173 2.63343 0
M  V30 30130 C 2757.71 -2.27181 3.97684 0
M  V30 30131 N 2759.2 -2.34571 3.99413 0
M  V30 30132 C 2759.93 -2.80431 5.00146 0
M  V30 30133 N 2759.43 -3.26062 6.11274 0
M  V30 30134 N 2761.22 -2.79794 4.87516 0
M  V30 30135 H 2753.37 -0.0637526 2.12304 0
M  V30 30136 H 2755.64 -0.090887 0.943633 0
M  V30 30137 H 2755.34 -0.921202 3.39421 0
M  V30 30138 H 2755.22 -2.55736 2.7727 0
M  V30 30139 H 2757.6 -2.33348 1.80645 0
M  V30 30140 H 2757.69 -0.692204 2.46256 0
M  V30 30141 H 2757.33 -1.6363 4.8082 0
M  V30 30142 H 2757.26 -3.27844 4.12099 0
M  V30 30143 H 2759.75 -2.0234 3.19166 0
M  V30 30144 H 2760.06 -3.59616 6.8403 0
M  V30 30145 H 2758.41 -3.24027 6.14843 0
M  V30 30146 H 2761.6 -2.4348 3.99794 0
M  V30 30147 H 2761.77 -3.15218 5.66164 0
M  V30 30148 N 2755.18 -1.25752 -0.94996 0
M  V30 30149 C 2756.4 -1.13631 -1.73501 0
M  V30 30150 C 2756.83 0.305557 -1.85602 0
M  V30 30151 O 2756.19 1.22137 -1.33986 0
M  V30 30152 C 2756.23 -1.80061 -3.12427 0
M  V30 30153 O 2755.34 -1.08343 -3.97914 0
M  V30 30154 H 2754.68 -0.396449 -0.532658 0
M  V30 30155 H 2757.21 -1.66405 -1.1904 0
M  V30 30156 H 2757.22 -1.86533 -3.62863 0
M  V30 30157 H 2755.89 -2.84961 -3.02936 0
M  V30 30158 H 2754.47 -1.09784 -3.56373 0
M  V30 30159 N 2756.66 1.15326 -1.07413 0
M  V30 30160 C 2757.88 1.90549 -0.818889 0
M  V30 30161 C 2758.31 1.77513 0.622163 0
M  V30 30162 O 2757.66 1.10826 1.43482 0
M  V30 30163 C 2757.71 3.38875 -1.23273 0
M  V30 30164 O 2756.82 4.1066 -0.378418 0
M  V30 30165 H 2756.16 0.593233 -0.29828 0
M  V30 30166 H 2758.69 1.46043 -1.43292 0
M  V30 30167 H 2758.7 3.8967 -1.20919 0
M  V30 30168 H 2757.37 3.47682 -2.28232 0
M  V30 30169 H 2755.95 3.69996 -0.464502 0
M  V30 30170 N 2758.13 0.858334 1.32176 0
M  V30 30171 C 2759.06 0.321082 2.31282 0
M  V30 30172 C 2760.05 -0.581758 1.59842 0
M  V30 30173 O 2761.23 -0.501229 1.8762 0
M  V30 30174 C 2758.36 -0.48826 3.43851 0
M  V30 30175 C 2757.31 0.320466 4.26799 0
M  V30 30176 C 2756.64 -0.61384 5.31165 0
M  V30 30177 C 2757.94 1.54822 4.98826 0
M  V30 30178 H 2759.63 1.1492 2.76467 0
M  V30 30179 H 2757.18 0.554051 1.32915 0
M  V30 30180 H 2759.13 -0.874553 4.12225 0
M  V30 30181 H 2757.86 -1.34978 2.97403 0
M  V30 30182 H 2756.52 0.68856 3.60076 0
M  V30 30183 H 2756.16 -1.47231 4.8097 0
M  V30 30184 H 2755.86 -0.0767064 5.8755 0
M  V30 30185 H 2757.39 -0.99723 6.02402 0
M  V30 30186 H 2758.8 1.23401 5.59862 0
M  V30 30187 H 2757.2 2.02356 5.64953 0
M  V30 30188 H 2758.27 2.30746 4.26479 0
M  V30 30189 N 2759.61 -1.45036 0.616628 0
M  V30 30190 C 2760.54 -2.33349 -0.0840377 0
M  V30 30191 C 2761.52 -1.47362 -0.849615 0
M  V30 30192 O 2762.71 -1.76114 -0.818376 0
M  V30 30193 C 2759.84 -3.30212 -1.07599 0
M  V30 30194 C 2758.79 -4.25904 -0.423021 0
M  V30 30195 C 2758.12 -5.12526 -1.52385 0
M  V30 30196 C 2759.42 -5.18093 0.661549 0
M  V30 30197 H 2761.11 -2.92184 0.653385 0
M  V30 30198 H 2758.66 -1.40498 0.315658 0
M  V30 30199 H 2760.61 -3.90869 -1.57479 0
M  V30 30200 H 2759.34 -2.69555 -1.84412 0
M  V30 30201 H 2757.99 -3.66559 0.0549944 0
M  V30 30202 H 2757.64 -4.48231 -2.28249 0
M  V30 30203 H 2757.34 -5.77356 -1.09241 0
M  V30 30204 H 2758.87 -5.76052 -2.02474 0
M  V30 30205 H 2760.28 -5.7277 0.246453 0
M  V30 30206 H 2758.68 -5.91449 1.01527 0
M  V30 30207 H 2759.75 -4.59978 1.53454 0
M  V30 30208 N 2761.09 -0.356312 -1.53519 0
M  V30 30209 C 2762.5 0.124887 -1.86282 0
M  V30 30210 C 2762.85 1.48937 -1.27719 0
M  V30 30211 O 2761.98 2.08041 -0.595651 0
M  V30 30212 C 2762.57 0.23339 -3.37995 0
M  V30 30213 C 2761.13 0.658834 -3.70589 0
M  V30 30214 C 2760.28 -0.199644 -2.7658 0
M  V30 30215 H 2763.23 -0.575449 -1.479 0
M  V30 30216 H 2763.25 1.05863 -3.65477 0
M  V30 30217 H 2762.76 -0.759842 -3.80589 0
M  V30 30218 H 2760.86 1.66063 -3.33547 0
M  V30 30219 H 2760.98 0.439873 -4.77076 0
M  V30 30220 H 2759.34 0.330031 -2.52553 0
M  V30 30221 H 2760.12 -1.19025 -3.22006 0
M  V30 30222 N 2762.57 1.57369 -0.0852427 0
M  V30 30223 C 2763.8 1.98326 0.589425 0
M  V30 30224 C 2764.21 0.964059 1.62331 0
M  V30 30225 O 2763.57 -0.0476075 1.82438 0
M  V30 30226 C 2763.62 3.39349 1.24598 0
M  V30 30227 O 2763.34 4.37366 0.253455 0
M  V30 30228 C 2764.84 3.95255 2.00719 0
M  V30 30229 H 2762.06 0.651945 0.158772 0
M  V30 30230 H 2764.61 2.0386 -0.16162 0
M  V30 30231 H 2762.76 3.3486 1.94802 0
M  V30 30232 H 2763.17 5.1945 0.726115 0
M  V30 30233 H 2764.65 4.9611 2.4203 0
M  V30 30234 H 2765.13 3.32532 2.86913 0
M  V30 30235 H 2765.73 4.03187 1.35353 0
M  V30 30236 N 2764.05 -0.188399 1.5647 0
M  V30 30237 C 2765.32 -0.934028 1.71858 0
M  V30 30238 C 2765.7 -2.01104 0.641902 0
M  V30 30239 O 2765.05 -2.25864 -0.346058 0
M  V30 30240 C 2765.26 -1.51435 3.14434 0
M  V30 30241 C 2766.61 -1.99389 3.74872 0
M  V30 30242 O 2767.63 -1.61264 3.17604 0
M  V30 30243 O 2766.49 -2.69565 4.75392 0
M  V30 30244 H 2763.59 -0.43847 0.701194 0
M  V30 30245 H 2766.13 -0.17757 1.68768 0
M  V30 30246 H 2764.9 -0.738349 3.84271 0
M  V30 30247 H 2764.53 -2.33546 3.21779 0
M  V30 30248 N 2765.53 -1.50848 -0.456355 0
M  V30 30249 C 2766.76 -1.6611 -1.22845 0
M  V30 30250 C 2767.16 -0.34993 -1.85936 0
M  V30 30251 O 2766.51 0.679635 -1.70665 0
M  V30 30252 C 2766.57 -2.70565 -2.36717 0
M  V30 30253 C 2766.23 -4.1371 -1.94147 0
M  V30 30254 C 2767.23 -4.99107 -1.45561 0
M  V30 30255 C 2764.91 -4.59709 -2.02418 0
M  V30 30256 C 2766.91 -6.28556 -1.05809 0
M  V30 30257 C 2764.6 -5.8916 -1.62277 0
M  V30 30258 C 2765.59 -6.7341 -1.14052 0
M  V30 30259 O 2765.28 -8.00443 -0.744732 0
M  V30 30260 H 2765.01 -0.561048 -0.377095 0
M  V30 30261 H 2767.57 -1.97916 -0.549396 0
M  V30 30262 H 2765.8 -2.34033 -3.0784 0
M  V30 30263 H 2767.49 -2.74897 -2.98641 0
M  V30 30264 H 2768.25 -4.6478 -1.38581 0
M  V30 30265 H 2764.13 -3.94268 -2.38901 0
M  V30 30266 H 2767.68 -6.94268 -0.680978 0
M  V30 30267 H 2763.57 -6.23006 -1.68921 0
M  V30 30268 H 2764.34 -8.13839 -0.872277 0
M  V30 30269 N 2767 0.710538 -1.40674 0
M  V30 30270 C 2767.93 1.83734 -1.44098 0
M  V30 30271 C 2768.91 1.6741 -0.301315 0
M  V30 30272 O 2770.1 1.87366 -0.510651 0
M  V30 30273 C 2767.23 3.21736 -1.30779 0
M  V30 30274 C 2766.18 3.5274 -2.42401 0
M  V30 30275 C 2765.51 4.8994 -2.14156 0
M  V30 30276 C 2766.81 3.53227 -3.84744 0
M  V30 30277 H 2768.5 1.81125 -2.38399 0
M  V30 30278 H 2766.05 0.869996 -1.14748 0
M  V30 30279 H 2768 4.00262 -1.3179 0
M  V30 30280 H 2766.73 3.24933 -0.329565 0
M  V30 30281 H 2765.39 2.76558 -2.40648 0
M  V30 30282 H 2765.03 4.89745 -1.14712 0
M  V30 30283 H 2764.73 5.1165 -2.88943 0
M  V30 30284 H 2766.26 5.70793 -2.16858 0
M  V30 30285 H 2767.67 4.21783 -3.88293 0
M  V30 30286 H 2766.07 3.86465 -4.59091 0
M  V30 30287 H 2767.14 2.52506 -4.13967 0
M  V30 30288 N 2768.48 1.26254 0.943277 0
M  V30 30289 C 2769.73 1.1184 1.69173 0
M  V30 30290 C 2770.06 -0.337858 1.91238 0
M  V30 30291 O 2769.34 -1.24833 1.49154 0
M  V30 30292 C 2769.62 1.88568 3.0678 0
M  V30 30293 C 2769.47 3.42088 2.92054 0
M  V30 30294 C 2770.79 1.67783 4.06862 0
M  V30 30295 H 2767.91 0.407669 0.613983 0
M  V30 30296 H 2770.55 1.55224 1.09569 0
M  V30 30297 H 2768.7 1.51695 3.5766 0
M  V30 30298 H 2770.37 3.88702 2.48412 0
M  V30 30299 H 2768.62 3.69221 2.27725 0
M  V30 30300 H 2769.29 3.91001 3.89644 0
M  V30 30301 H 2771.76 1.99904 3.64935 0
M  V30 30302 H 2770.64 2.23888 5.01164 0
M  V30 30303 H 2770.9 0.621893 4.37704 0
M  V30 30304 N 2769.96 -1.14755 1.08024 0
M  V30 30305 C 2770.87 -2.23332 0.718331 0
M  V30 30306 C 2771.89 -1.71838 -0.273447 0
M  V30 30307 O 2773.06 -2.01052 -0.11837 0
M  V30 30308 C 2770.13 -3.4646 0.128916 0
M  V30 30309 C 2769.19 -4.12913 1.17481 0
M  V30 30310 C 2768.42 -5.30163 0.613423 0
M  V30 30311 O 2768.64 -5.67561 -0.568358 0
M  V30 30312 O 2767.58 -5.86297 1.3616 0
M  V30 30313 H 2771.4 -2.56633 1.62399 0
M  V30 30314 H 2768.99 -1.2261 0.853649 0
M  V30 30315 H 2770.87 -4.20938 -0.197175 0
M  V30 30316 H 2769.55 -3.14893 -0.749959 0
M  V30 30317 H 2768.45 -3.40325 1.55336 0
M  V30 30318 H 2769.79 -4.48577 2.02582 0
M  V30 30319 N 2771.44 -0.865331 -1.31719 0
M  V30 30320 C 2772.69 -0.470132 -1.96144 0
M  V30 30321 C 2773 0.981644 -1.69184 0
M  V30 30322 O 2774.21 1.48277 -2.27434 0
M  V30 30323 C 2772.66 -0.789794 -3.51127 0
M  V30 30324 C 2772.27 -2.25802 -3.86934 0
M  V30 30325 C 2774.01 -0.462839 -4.21969 0
M  V30 30326 C 2771.92 -2.52034 -5.35007 0
M  V30 30327 H 2770.85 -0.172078 -0.734102 0
M  V30 30328 H 2773.5 -1.05759 -1.49957 0
M  V30 30329 H 2771.88 -0.131641 -3.95781 0
M  V30 30330 H 2773.06 -2.95885 -3.53255 0
M  V30 30331 H 2771.37 -2.55055 -3.29144 0
M  V30 30332 H 2773.97 -0.636113 -5.30903 0
M  V30 30333 H 2774.31 0.596378 -4.12006 0
M  V30 30334 H 2774.85 -1.07734 -3.82934 0
M  V30 30335 H 2771.58 -3.56621 -5.50002 0
M  V30 30336 H 2771.1 -1.8654 -5.70055 0
M  V30 30337 H 2772.78 -2.36526 -6.02216 0
M  V30 30338 N 2772.92 1.44707 -0.624311 0
M  V30 30339 C 2773.86 2.32398 0.0969544 0
M  V30 30340 C 2774.86 1.4695 0.842736 0
M  V30 30341 O 2776.06 1.63335 0.756408 0
M  V30 30342 H 2772.44 0.750328 0.0501174 0
M  V30 30343 H 2774.41 2.90991 -0.660818 0
M  V30 30344 C 2773.16 3.30839 1.06961 0
M  V30 30345 H 2772.48 3.96596 0.505172 0
M  V30 30346 H 2773.92 3.94892 1.5439 0
M  V30 30347 C 2772.38 2.59254 2.15149 0
M  V30 30348 O 2772.91 2.38635 3.23135 0
M  V30 30349 N 2771.12 2.19107 1.90894 0
M  V30 30350 H 2770.66 2.36076 1.03082 0
M  V30 30351 H 2770.62 1.71536 2.63482 0
M  V30 30352 N 2774.39 0.364449 1.53328 0
M  V30 30353 C 2775.34 -0.482567 2.25699 0
M  V30 30354 C 2776.31 -1.07846 1.26327 0
M  V30 30355 O 2777.5 -1.11116 1.55106 0
M  V30 30356 C 2774.64 -1.61694 3.04876 0
M  V30 30357 C 2773.75 -1.04633 4.19137 0
M  V30 30358 C 2772.88 -2.14971 4.85758 0
M  V30 30359 C 2771.92 -1.5537 5.92053 0
M  V30 30360 N 2771.06 -2.59535 6.52369 0
M  V30 30361 H 2775.9 0.141084 2.97666 0
M  V30 30362 H 2773.44 0.081395 1.46875 0
M  V30 30363 H 2775.39 -2.28509 3.49055 0
M  V30 30364 H 2774.02 -2.21126 2.35166 0
M  V30 30365 H 2773.08 -0.268486 3.79451 0
M  V30 30366 H 2774.39 -0.570566 4.95526 0
M  V30 30367 H 2773.54 -2.89609 5.33115 0
M  V30 30368 H 2772.28 -2.65899 4.08839 0
M  V30 30369 H 2771.29 -0.792453 5.44059 0
M  V30 30370 H 2772.51 -1.05268 6.70892 0
M  V30 30371 H 2770.46 -3.09679 5.78304 0
M  V30 30372 H 2770.37 -2.16642 7.24294 0
M  V30 30373 H 2771.64 -3.3388 7.04375 0
M  V30 30374 N 2775.87 -1.57322 0.0935872 0
M  V30 30375 C 2777.12 -1.93474 -0.570157 0
M  V30 30376 C 2777.43 -0.977348 -1.69432 0
M  V30 30377 O 2778.64 -1.23252 -2.41911 0
M  V30 30378 C 2777.1 -3.43764 -1.06558 0
M  V30 30379 C 2776.7 -4.47991 0.0287511 0
M  V30 30380 C 2778.45 -3.8888 -1.70214 0
M  V30 30381 C 2776.35 -5.89433 -0.481943 0
M  V30 30382 H 2775.28 -0.722174 -0.216751 0
M  V30 30383 H 2777.94 -1.82717 0.169345 0
M  V30 30384 H 2776.32 -3.49668 -1.85872 0
M  V30 30385 H 2777.49 -4.53728 0.804186 0
M  V30 30386 H 2775.81 -4.12475 0.570408 0
M  V30 30387 H 2778.4 -4.91952 -2.09493 0
M  V30 30388 H 2778.75 -3.27444 -2.57072 0
M  V30 30389 H 2779.28 -3.8567 -0.974851 0
M  V30 30390 H 2776.02 -6.54565 0.349986 0
M  V30 30391 H 2775.54 -5.8717 -1.22442 0
M  V30 30392 H 2777.22 -6.39967 -0.951395 0
M  V30 30393 N 2777.35 0.180099 -1.56568 0
M  V30 30394 C 2778.28 1.2255 -1.98756 0
M  V30 30395 C 2779.26 1.46654 -0.861776 0
M  V30 30396 O 2780.45 1.58137 -1.12722 0
M  V30 30397 C 2777.58 2.56641 -2.33993 0
M  V30 30398 C 2776.53 2.47122 -3.49449 0
M  V30 30399 C 2775.86 3.85623 -3.70404 0
M  V30 30400 C 2777.16 1.98343 -4.83174 0
M  V30 30401 H 2778.85 0.874846 -2.86333 0
M  V30 30402 H 2776.4 0.41939 -1.37757 0
M  V30 30403 H 2778.35 3.2997 -2.62103 0
M  V30 30404 H 2777.07 2.93477 -1.43314 0
M  V30 30405 H 2775.73 1.76248 -3.21453 0
M  V30 30406 H 2775.38 4.19837 -2.77031 0
M  V30 30407 H 2775.08 3.80125 -4.48084 0
M  V30 30408 H 2776.6 4.60551 -4.00905 0
M  V30 30409 H 2778.02 2.6144 -5.10217 0
M  V30 30410 H 2776.41 2.03813 -5.64429 0
M  V30 30411 H 2777.48 0.937319 -4.75754 0
M  V30 30412 N 2778.83 1.51088 0.448349 0
M  V30 30413 C 2779.76 1.74547 1.55099 0
M  V30 30414 C 2780.74 0.594961 1.59356 0
M  V30 30415 O 2781.92 0.836522 1.7526 0
M  V30 30416 C 2779.05 1.86046 2.93265 0
M  V30 30417 C 2778.01 3.01407 3.03871 0
M  V30 30418 C 2777.33 2.98075 4.43909 0
M  V30 30419 C 2778.63 4.41556 2.78972 0
M  V30 30420 H 2780.33 2.66872 1.3572 0
M  V30 30421 H 2777.87 1.2842 0.651475 0
M  V30 30422 H 2779.83 2.01041 3.70352 0
M  V30 30423 H 2778.55 0.903603 3.13851 0
M  V30 30424 H 2777.21 2.861 2.29222 0
M  V30 30425 H 2776.86 2.0019 4.61447 0
M  V30 30426 H 2776.56 3.75535 4.51937 0
M  V30 30427 H 2778.08 3.15149 5.22985 0
M  V30 30428 H 2779.5 4.57271 3.45797 0
M  V30 30429 H 2777.89 5.20638 2.98422 0
M  V30 30430 H 2778.96 4.52353 1.74655 0
M  V30 30431 N 2780.31 -0.703068 1.41049 0
M  V30 30432 C 2781.55 -1.47538 1.41464 0
M  V30 30433 C 2781.91 -1.9199 0.019935 0
M  V30 30434 O 2783.11 -2.6861 -0.101091 0
M  V30 30435 C 2781.38 -2.65995 2.38707 0
M  V30 30436 S 2782.94 -3.55238 2.57588 0
M  V30 30437 H 2779.76 -0.504267 0.501235 0
M  V30 30438 H 2782.36 -0.821043 1.77424 0
M  V30 30439 H 2781.07 -2.31531 3.38854 0
M  V30 30440 H 2780.6 -3.36329 2.04075 0
M  V30 30441 H 2782.61 -4.60917 1.83766 0
M  V30 30442 N 2781.78 -1.26752 -0.936569 0
M  V30 30443 C 2782.72 -1.03031 -2.03617 0
M  V30 30444 C 2783.7 0.0464333 -1.62534 0
M  V30 30445 O 2784.88 -0.0969204 -1.88251 0
M  V30 30446 C 2782.01 -0.561131 -3.34019 0
M  V30 30447 C 2781.05 -1.63112 -3.94077 0
M  V30 30448 S 2781.89 -3.2213 -4.27776 0
M  V30 30449 C 2783.04 -2.76991 -5.61272 0
M  V30 30450 H 2783.27 -1.96133 -2.23426 0
M  V30 30451 H 2780.81 -1.10484 -1.07855 0
M  V30 30452 H 2782.77 -0.297103 -4.09423 0
M  V30 30453 H 2781.43 0.349686 -3.12147 0
M  V30 30454 H 2780.62 -1.25394 -4.88152 0
M  V30 30455 H 2780.22 -1.84676 -3.25224 0
M  V30 30456 H 2782.51 -2.21742 -6.40185 0
M  V30 30457 H 2783.46 -3.69776 -6.0388 0
M  V30 30458 H 2783.86 -2.16411 -5.2137 0
M  V30 30459 N 2783.26 1.1418 -1.08631 0
M  V30 30460 C 2784.54 1.81465 -0.730051 0
M  V30 30461 C 2784.92 1.95923 0.785961 0
M  V30 30462 O 2784.27 1.52089 1.70532 0
M  V30 30463 C 2784.48 3.17011 -1.45962 0
M  V30 30464 C 2785.83 3.92475 -1.62015 0
M  V30 30465 O 2786.85 3.26608 -1.42147 0
M  V30 30466 O 2785.71 5.10597 -1.94815 0
M  V30 30467 H 2782.8 0.784628 -0.26132 0
M  V30 30468 H 2785.35 1.21178 -1.18802 0
M  V30 30469 H 2784.12 3.01665 -2.49227 0
M  V30 30470 H 2783.74 3.84993 -0.993289 0
M  V30 30471 N 2784.74 0.872304 1.31258 0
M  V30 30472 C 2786.02 0.404977 1.91362 0
M  V30 30473 C 2786.4 -1.11318 1.79364 0
M  V30 30474 O 2785.75 -1.94281 1.2028 0
M  V30 30475 C 2785.96 0.888952 3.37489 0
M  V30 30476 C 2787.3 0.916456 4.14592 0
M  V30 30477 O 2788.33 0.834762 3.4628 0
M  V30 30478 O 2787.19 1.03508 5.36608 0
M  V30 30479 H 2784.28 0.121583 0.818014 0
M  V30 30480 H 2786.83 0.960371 1.39911 0
M  V30 30481 H 2785.6 1.93257 3.40246 0
M  V30 30482 H 2785.22 0.312002 3.96374 0
M  V30 30483 N 2786.22 -1.44374 0.631976 0
M  V30 30484 C 2787.46 -2.02337 0.137005 0
M  V30 30485 C 2787.8 -1.49604 -1.23824 0
M  V30 30486 O 2787.07 -0.680447 -1.82209 0
M  V30 30487 C 2787.36 -3.59884 0.1246 0
M  V30 30488 C 2787.21 -4.22898 1.53224 0
M  V30 30489 C 2788.53 -4.36645 -0.550404 0
M  V30 30490 H 2785.65 -0.735215 0.0512599 0
M  V30 30491 H 2788.29 -1.71935 0.808612 0
M  V30 30492 H 2786.44 -3.85916 -0.447303 0
M  V30 30493 H 2788.11 -4.0797 2.1531 0
M  V30 30494 H 2786.35 -3.8036 2.08587 0
M  V30 30495 H 2787.02 -5.31912 1.47559 0
M  V30 30496 H 2789.5 -4.16051 -0.0640423 0
M  V30 30497 H 2788.38 -5.46352 -0.528275 0
M  V30 30498 H 2788.64 -4.11314 -1.6209 0
M  V30 30499 N 2787.7 -0.372575 -1.53133 0
M  V30 30500 C 2788.61 0.478339 -2.29672 0
M  V30 30501 C 2789.62 1.08642 -1.35915 0
M  V30 30502 O 2790.8 1.09585 -1.68977 0
M  V30 30503 C 2787.86 1.59894 -3.07627 0
M  V30 30504 C 2786.92 1.01769 -4.17063 0
M  V30 30505 C 2786.16 2.08489 -4.91292 0
M  V30 30506 O 2786.38 3.29719 -4.65448 0
M  V30 30507 O 2785.31 1.71154 -5.77053 0
M  V30 30508 H 2789.14 -0.144703 -3.03355 0
M  V30 30509 H 2786.73 -0.136755 -1.48773 0
M  V30 30510 H 2788.61 2.25031 -3.56285 0
M  V30 30511 H 2787.28 2.20726 -2.36774 0
M  V30 30512 H 2786.19 0.330033 -3.72641 0
M  V30 30513 H 2787.52 0.453829 -4.90103 0
M  V30 30514 N 2789.17 1.5727 -0.101929 0
M  V30 30515 C 2790.1 2.1742 0.851506 0
M  V30 30516 C 2791.09 1.10944 1.2894 0
M  V30 30517 O 2792.27 1.3911 1.35507 0
M  V30 30518 C 2789.4 2.76 2.10811 0
M  V30 30519 C 2788.35 3.87909 1.8086 0
M  V30 30520 C 2787.68 4.33221 3.13406 0
M  V30 30521 C 2788.98 5.10795 1.09021 0
M  V30 30522 H 2790.67 2.97343 0.350329 0
M  V30 30523 H 2788.22 1.43028 0.167065 0
M  V30 30524 H 2790.17 3.16733 2.77953 0
M  V30 30525 H 2788.9 1.93342 2.63223 0
M  V30 30526 H 2787.56 3.47726 1.16113 0
M  V30 30527 H 2787.2 3.47444 3.63719 0
M  V30 30528 H 2786.9 5.08677 2.94146 0
M  V30 30529 H 2788.43 4.76593 3.81695 0
M  V30 30530 H 2789.84 5.48655 1.66286 0
M  V30 30531 H 2788.24 5.91723 0.999166 0
M  V30 30532 H 2789.31 4.84843 0.0740852 0
M  V30 30533 N 2790.65 -0.171793 1.56661 0
M  V30 30534 C 2791.88 -0.908132 1.86461 0
M  V30 30535 C 2792.3 -1.75058 0.688212 0
M  V30 30536 O 2791.66 -1.77635 -0.362722 0
M  V30 30537 C 2791.71 -1.76107 3.14672 0
M  V30 30538 O 2790.81 -2.86263 2.96863 0
M  V30 30539 H 2790.15 -0.254423 0.613323 0
M  V30 30540 H 2792.68 -0.170077 2.03892 0
M  V30 30541 H 2792.69 -2.16109 3.46065 0
M  V30 30542 H 2791.37 -1.14226 3.99907 0
M  V30 30543 H 2789.95 -2.49847 2.76823 0
M  V30 30544 N 2792.13 -1.51324 -0.44033 0
M  V30 30545 C 2793.06 -1.75367 -1.54171 0
M  V30 30546 C 2794.04 -0.603403 -1.59038 0
M  V30 30547 O 2795.23 -0.845804 -1.74814 0
M  V30 30548 C 2792.36 -1.87598 -2.92274 0
M  V30 30549 C 2791.31 -3.03014 -3.02269 0
M  V30 30550 C 2790.64 -3.00425 -4.42322 0
M  V30 30551 C 2791.94 -4.43029 -2.76627 0
M  V30 30552 H 2793.63 -2.67588 -1.34302 0
M  V30 30553 H 2791.18 -1.28764 -0.644656 0
M  V30 30554 H 2793.13 -2.03002 -3.69281 0
M  V30 30555 H 2791.85 -0.920234 -3.13368 0
M  V30 30556 H 2790.51 -2.87311 -2.27701 0
M  V30 30557 H 2790.16 -2.02634 -4.60379 0
M  V30 30558 H 2789.86 -3.77926 -4.49939 0
M  V30 30559 H 2791.38 -3.17918 -5.21306 0
M  V30 30560 H 2792.8 -4.59099 -3.43368 0
M  V30 30561 H 2791.2 -5.22213 -2.95657 0
M  V30 30562 H 2792.27 -4.53273 -1.72254 0
M  V30 30563 N 2793.61 0.695578 -1.41419 0
M  V30 30564 C 2794.56 1.83082 -1.43471 0
M  V30 30565 C 2795.55 1.66488 -0.312748 0
M  V30 30566 O 2796.76 1.73349 -0.484775 0
M  V30 30567 H 2793.13 0.603317 -0.448902 0
M  V30 30568 H 2795.1 1.78469 -2.39147 0
M  V30 30569 C 2793.85 3.21101 -1.33376 0
M  V30 30570 H 2793.17 3.34486 -2.18995 0
M  V30 30571 H 2794.61 4.00613 -1.38872 0
M  V30 30572 C 2793.07 3.36868 -0.0461076 0
M  V30 30573 O 2793.6 3.91276 0.909189 0
M  V30 30574 N 2791.81 2.90585 0.0299712 0
M  V30 30575 H 2791.36 2.46496 -0.748173 0
M  V30 30576 H 2791.31 3.01512 0.890938 0
M  V30 30577 N 2795.09 1.27247 0.929833 0
M  V30 30578 C 2796.33 1.13628 1.67978 0
M  V30 30579 C 2796.67 -0.317555 1.91586 0
M  V30 30580 O 2795.94 -1.23244 1.5047 0
M  V30 30581 C 2796.22 1.91812 3.04763 0
M  V30 30582 C 2796.08 3.45167 2.88409 0
M  V30 30583 C 2797.4 1.72089 4.0506 0
M  V30 30584 H 2794.52 0.414158 0.609625 0
M  V30 30585 H 2797.16 1.56378 1.07917 0
M  V30 30586 H 2795.31 1.5548 3.56031 0
M  V30 30587 H 2796.98 3.91315 2.44275 0
M  V30 30588 H 2795.22 3.71615 2.23796 0
M  V30 30589 H 2795.89 3.95111 3.85475 0
M  V30 30590 H 2798.37 2.03763 3.62794 0
M  V30 30591 H 2797.25 2.29191 4.98761 0
M  V30 30592 H 2797.51 0.668282 4.3702 0
M  V30 30593 N 2796.57 -1.13603 1.09235 0
M  V30 30594 C 2797.98 -1.66388 0.846868 0
M  V30 30595 C 2798.33 -1.85979 -0.624998 0
M  V30 30596 O 2797.45 -1.57716 -1.48171 0
M  V30 30597 C 2798.05 -3.02247 1.53075 0
M  V30 30598 C 2796.61 -3.52032 1.3323 0
M  V30 30599 C 2795.75 -2.2732 1.5881 0
M  V30 30600 H 2798.7 -0.975519 1.25177 0
M  V30 30601 H 2798.73 -3.68119 0.962735 0
M  V30 30602 H 2798.24 -2.87957 2.60197 0
M  V30 30603 H 2796.34 -3.7153 0.282156 0
M  V30 30604 H 2796.45 -4.32276 2.06578 0
M  V30 30605 H 2794.82 -2.33814 1.01011 0
M  V30 30606 H 2795.6 -2.15597 2.67157 0
M  V30 30607 N 2798.04 -0.879253 -1.30793 0
M  V30 30608 C 2798.95 -0.345606 -2.3204 0
M  V30 30609 C 2799.97 0.549236 -1.65104 0
M  V30 30610 O 2801.15 0.443729 -1.96451 0
M  V30 30611 C 2798.21 0.436185 -3.43945 0
M  V30 30612 C 2797.27 -0.487725 -4.2652 0
M  V30 30613 C 2796.5 0.256849 -5.33082 0
M  V30 30614 O 2796.73 1.48371 -5.50765 0
M  V30 30615 O 2795.66 -0.39009 -6.00635 0
M  V30 30616 H 2799.49 -1.18506 -2.79625 0
M  V30 30617 H 2797.07 -0.642909 -1.34859 0
M  V30 30618 H 2798.95 0.879047 -4.1213 0
M  V30 30619 H 2797.63 1.25203 -2.98506 0
M  V30 30620 H 2796.54 -0.97928 -3.61055 0
M  V30 30621 H 2797.87 -1.26942 -4.75549 0
M  V30 30622 N 2799.52 1.44037 -0.639624 0
M  V30 30623 C 2800.45 2.33453 0.0469033 0
M  V30 30624 C 2801.43 1.48695 0.826064 0
M  V30 30625 O 2802.62 1.77394 0.790254 0
M  V30 30626 C 2799.75 3.31882 1.02332 0
M  V30 30627 C 2798.7 4.26523 0.355209 0
M  V30 30628 C 2798.03 5.14885 1.44212 0
M  V30 30629 C 2799.33 5.16975 -0.743889 0
M  V30 30630 H 2801.02 2.91107 -0.699786 0
M  V30 30631 H 2798.57 1.39978 -0.33797 0
M  V30 30632 H 2800.52 3.93325 1.5124 0
M  V30 30633 H 2799.24 2.72455 1.801 0
M  V30 30634 H 2797.9 3.66425 -0.113304 0
M  V30 30635 H 2797.55 4.51806 2.21089 0
M  V30 30636 H 2797.25 5.79021 1.00042 0
M  V30 30637 H 2798.78 5.79201 1.93284 0
M  V30 30638 H 2800.19 5.72305 -0.337545 0
M  V30 30639 H 2798.59 5.89759 -1.10924 0
M  V30 30640 H 2799.66 4.57478 -1.60753 0
M  V30 30641 N 2801 0.380691 1.52933 0
M  V30 30642 C 2801.95 -0.47357 2.27728 0
M  V30 30643 C 2802.94 -1.07048 1.3129 0
M  V30 30644 O 2804.15 -1.01194 1.48861 0
M  V30 30645 H 2800.52 -0.171463 0.732192 0
M  V30 30646 H 2802.49 0.178837 2.97864 0
M  V30 30647 C 2801.24 -1.59336 3.09043 0
M  V30 30648 H 2800.57 -1.14336 3.83102 0
M  V30 30649 H 2802.01 -2.16549 3.64531 0
M  V30 30650 C 2800.46 -2.54443 2.20818 0
M  V30 30651 O 2800.99 -3.57639 1.82914 0
M  V30 30652 N 2799.2 -2.23983 1.85149 0
M  V30 30653 H 2798.75 -1.40099 2.16171 0
M  V30 30654 H 2798.71 -2.87869 1.26407 0
M  V30 30655 N 2802.48 -1.57214 0.110268 0
M  V30 30656 C 2803.71 -1.99239 -0.557799 0
M  V30 30657 C 2804.12 -0.989762 -1.60777 0
M  V30 30658 O 2803.48 0.0185772 -1.82491 0
M  V30 30659 C 2803.53 -3.41288 -1.19183 0
M  V30 30660 O 2803.25 -4.37714 -0.183842 0
M  V30 30661 C 2804.75 -3.98398 -1.94406 0
M  V30 30662 H 2801.97 -0.654389 -0.14838 0
M  V30 30663 H 2804.51 -2.03577 0.194032 0
M  V30 30664 H 2802.67 -3.37917 -1.8945 0
M  V30 30665 H 2803.08 -5.20539 -0.643383 0
M  V30 30666 H 2804.56 -4.99898 -2.34107 0
M  V30 30667 H 2805.03 -3.37055 -2.81586 0
M  V30 30668 H 2805.64 -4.05289 -1.28921 0
M  V30 30669 N 2803.96 0.163482 -1.5675 0
M  V30 30670 C 2804.92 1.1861 -1.96123 0
M  V30 30671 C 2805.92 1.36759 -0.845789 0
M  V30 30672 O 2807.11 1.34031 -1.11271 0
M  V30 30673 C 2804.24 2.54965 -2.26287 0
M  V30 30674 H 2805.43 0.848714 -2.8764 0
M  V30 30675 H 2802.99 0.406225 -1.50929 0
M  V30 30676 H 2803.72 2.93704 -1.37509 0
M  V30 30677 H 2803.51 2.43156 -3.07599 0
M  V30 30678 H 2805 3.28648 -2.57643 0
M  V30 30679 N 2805.43 1.51555 0.432299 0
M  V30 30680 C 2806.68 1.63705 1.17828 0
M  V30 30681 C 2807 0.361593 1.92229 0
M  V30 30682 O 2808.2 0.362543 2.69069 0
M  V30 30683 C 2806.66 2.89133 2.14313 0
M  V30 30684 C 2806.27 4.23702 1.45537 0
M  V30 30685 C 2808.01 3.10642 2.89313 0
M  V30 30686 C 2805.92 5.40275 2.40535 0
M  V30 30687 H 2804.85 0.609757 0.443522 0
M  V30 30688 H 2807.5 1.78026 0.444847 0
M  V30 30689 H 2805.88 2.68457 2.91113 0
M  V30 30690 H 2807.05 4.54777 0.742613 0
M  V30 30691 H 2805.37 4.08111 0.8267 0
M  V30 30692 H 2807.97 3.94908 3.60488 0
M  V30 30693 H 2808.31 2.23924 3.50947 0
M  V30 30694 H 2808.84 3.31681 2.1962 0
M  V30 30695 H 2805.58 6.29267 1.83583 0
M  V30 30696 H 2805.1 5.13569 3.0985 0
M  V30 30697 H 2806.78 5.72426 3.01558 0
M  V30 30698 N 2806.91 -0.688069 1.41786 0
M  V30 30699 C 2808.14 -1.47456 1.44707 0
M  V30 30700 C 2808.55 -1.89126 0.0529493 0
M  V30 30701 O 2807.89 -1.57843 -0.939753 0
M  V30 30702 C 2807.95 -2.76348 2.29939 0
M  V30 30703 C 2807.62 -2.56836 3.78 0
M  V30 30704 C 2808.62 -2.22295 4.6998 0
M  V30 30705 C 2806.3 -2.72243 4.22124 0
M  V30 30706 C 2808.29 -2.03411 6.04072 0
M  V30 30707 C 2805.98 -2.52975 5.5628 0
M  V30 30708 C 2806.98 -2.1861 6.47069 0
M  V30 30709 O 2806.67 -1.99516 7.78748 0
M  V30 30710 H 2806.4 -0.460692 0.494711 0
M  V30 30711 H 2808.95 -0.854024 1.86804 0
M  V30 30712 H 2807.18 -3.40835 1.82669 0
M  V30 30713 H 2808.87 -3.38182 2.24472 0
M  V30 30714 H 2809.64 -2.1 4.37178 0
M  V30 30715 H 2805.52 -2.97973 3.51757 0
M  V30 30716 H 2809.06 -1.76511 6.749 0
M  V30 30717 H 2804.96 -2.64863 5.88658 0
M  V30 30718 H 2805.73 -2.1422 7.8997 0
M  V30 30719 N 2808.39 -1.27739 -0.923072 0
M  V30 30720 C 2809.3 -1.12688 -2.05763 0
M  V30 30721 C 2810.32 -0.0557503 -1.73911 0
M  V30 30722 O 2811.49 -0.263172 -1.99673 0
M  V30 30723 C 2808.56 -0.780422 -3.37802 0
M  V30 30724 C 2807.62 -1.93293 -3.83323 0
M  V30 30725 C 2806.85 -1.6029 -5.09061 0
M  V30 30726 O 2807.07 -0.512928 -5.68089 0
M  V30 30727 O 2806.01 -2.44357 -5.50067 0
M  V30 30728 H 2809.83 -2.07911 -2.21375 0
M  V30 30729 H 2807.42 -1.06969 -1.04297 0
M  V30 30730 H 2809.3 -0.600742 -4.17096 0
M  V30 30731 H 2807.98 0.142234 -3.23387 0
M  V30 30732 H 2806.88 -2.1677 -3.04896 0
M  V30 30733 H 2808.22 -2.83595 -4.02287 0
M  V30 30734 N 2809.87 1.13022 -1.09836 0
M  V30 30735 C 2811.15 1.80681 -0.749257 0
M  V30 30736 C 2811.53 1.96746 0.765137 0
M  V30 30737 O 2810.87 1.53889 1.6891 0
M  V30 30738 C 2811.08 3.15445 -1.49316 0
M  V30 30739 C 2812.43 3.90734 -1.66169 0
M  V30 30740 O 2813.46 3.25082 -1.45603 0
M  V30 30741 O 2812.31 5.08502 -2.0022 0
M  V30 30742 H 2809.41 0.781812 -0.269628 0
M  V30 30743 H 2811.95 1.19912 -1.2008 0
M  V30 30744 H 2810.73 2.99005 -2.52412 0
M  V30 30745 H 2810.35 3.83918 -1.03407 0
M  V30 30746 N 2811.35 0.886177 1.30325 0
M  V30 30747 C 2812.59 0.505227 1.96096 0
M  V30 30748 C 2812.92 -0.945838 1.69953 0
M  V30 30749 O 2812.18 -1.68359 0.997683 0
M  V30 30750 C 2812.48 0.728104 3.49905 0
M  V30 30751 C 2812.14 2.15444 3.96099 0
M  V30 30752 C 2810.8 2.54447 4.08424 0
M  V30 30753 C 2813.16 3.08391 4.20172 0
M  V30 30754 C 2810.48 3.85606 4.42182 0
M  V30 30755 C 2812.84 4.39083 4.554 0
M  V30 30756 C 2811.5 4.77978 4.65933 0
M  V30 30757 H 2810.77 0.184876 0.717567 0
M  V30 30758 H 2813.42 1.12226 1.5517 0
M  V30 30759 H 2811.72 0.0280468 3.9179 0
M  V30 30760 H 2813.42 0.412932 3.98868 0
M  V30 30761 H 2810.01 1.84169 3.87014 0
M  V30 30762 H 2814.19 2.79477 4.10129 0
M  V30 30763 H 2809.45 4.15481 4.48537 0
M  V30 30764 H 2813.62 5.11141 4.72977 0
M  V30 30765 H 2811.25 5.79648 4.91846 0
M  V30 30766 N 2812.82 -1.43695 0.647253 0
M  V30 30767 C 2814.05 -2.0675 0.16412 0
M  V30 30768 C 2814.47 -1.4816 -1.15889 0
M  V30 30769 O 2813.83 -0.589224 -1.71458 0
M  V30 30770 C 2813.88 -3.60511 0.0801001 0
M  V30 30771 O 2812.98 -4.01086 -0.959383 0
M  V30 30772 H 2812.33 -0.657576 0.0921404 0
M  V30 30773 H 2814.86 -1.84301 0.888493 0
M  V30 30774 H 2814.87 -4.07864 -0.105192 0
M  V30 30775 H 2813.54 -4.02533 1.04593 0
M  V30 30776 H 2812.12 -3.65334 -0.747361 0
M  V30 30777 N 2814.3 -0.388796 -1.52729 0
M  V30 30778 C 2815.55 0.193555 -2.01573 0
M  V30 30779 C 2815.88 1.46857 -1.27528 0
M  V30 30780 O 2815.13 1.92286 -0.36396 0
M  V30 30781 C 2815.43 0.508383 -3.53766 0
M  V30 30782 C 2815.1 -0.675025 -4.45819 0
M  V30 30783 C 2813.76 -0.999679 -4.70701 0
M  V30 30784 C 2816.11 -1.46675 -5.00136 0
M  V30 30785 C 2813.44 -2.11761 -5.47151 0
M  V30 30786 C 2815.79 -2.57528 -5.77808 0
M  V30 30787 C 2814.46 -2.90502 -6.0097 0
M  V30 30788 H 2813.73 0.0708268 -0.737607 0
M  V30 30789 H 2816.37 -0.526039 -1.84133 0
M  V30 30790 H 2814.68 1.30929 -3.69276 0
M  V30 30791 H 2816.37 0.971596 -3.89051 0
M  V30 30792 H 2812.96 -0.411981 -4.26615 0
M  V30 30793 H 2817.15 -1.22917 -4.80838 0
M  V30 30794 H 2812.4 -2.3768 -5.6331 0
M  V30 30795 H 2816.58 -3.19277 -6.18898 0
M  V30 30796 H 2814.21 -3.77247 -6.59991 0
M  V30 30797 N 2815.78 1.57153 -0.118604 0
M  V30 30798 C 2816.71 2.12364 0.86221 0
M  V30 30799 C 2817.73 1.06627 1.23023 0
M  V30 30800 O 2818.91 1.34 1.17924 0
M  V30 30801 C 2816.01 2.60798 2.1642 0
M  V30 30802 C 2815.19 3.90629 1.96794 0
M  V30 30803 C 2814.25 4.24665 3.10719 0
M  V30 30804 O 2813.27 4.93489 2.8365 0
M  V30 30805 N 2814.47 3.81953 4.37141 0
M  V30 30806 H 2817.24 2.97145 0.390512 0
M  V30 30807 H 2814.8 1.61766 0.0658306 0
M  V30 30808 H 2816.79 2.80598 2.91628 0
M  V30 30809 H 2815.36 1.80899 2.5494 0
M  V30 30810 H 2814.58 3.79742 1.05781 0
M  V30 30811 H 2815.87 4.75523 1.80985 0
M  V30 30812 H 2815.27 3.26443 4.62008 0
M  V30 30813 H 2813.83 4.06862 5.09221 0
M  V30 30814 N 2817.26 -0.155167 1.56834 0
M  V30 30815 C 2818.17 -1.21142 2.00902 0
M  V30 30816 C 2819.18 -1.47498 0.923055 0
M  V30 30817 O 2820.36 -1.59329 1.23192 0
M  V30 30818 C 2817.43 -2.52686 2.37382 0
M  V30 30819 C 2816.49 -2.3405 3.59887 0
M  V30 30820 C 2815.72 -3.59322 3.94618 0
M  V30 30821 O 2815.94 -4.65169 3.30112 0
M  V30 30822 O 2814.88 -3.52471 4.87902 0
M  V30 30823 H 2818.7 -0.86732 2.91052 0
M  V30 30824 H 2816.29 -0.363272 1.44916 0
M  V30 30825 H 2818.17 -3.30255 2.61743 0
M  V30 30826 H 2816.84 -2.86643 1.5039 0
M  V30 30827 H 2815.75 -1.54459 3.40724 0
M  V30 30828 H 2817.08 -2.05012 4.47472 0
M  V30 30829 N 2818.74 -1.51782 -0.424256 0
M  V30 30830 C 2820.01 -1.55648 -1.18462 0
M  V30 30831 C 2820.39 -0.328475 -2.08529 0
M  V30 30832 O 2819.74 0.685654 -2.1797 0
M  V30 30833 C 2819.95 -2.87734 -1.97509 0
M  V30 30834 C 2821.3 -3.40174 -2.541 0
M  V30 30835 O 2822.32 -2.89373 -2.07706 0
M  V30 30836 O 2821.18 -4.28847 -3.38752 0
M  V30 30837 H 2818.28 -0.626324 -0.540044 0
M  V30 30838 H 2820.82 -1.64102 -0.432263 0
M  V30 30839 H 2819.59 -3.68565 -1.31437 0
M  V30 30840 H 2819.22 -2.82503 -2.79782 0
M  V30 30841 N 2820.21 0.68054 -1.42149 0
M  V30 30842 C 2821.44 1.47401 -1.45903 0
M  V30 30843 C 2821.86 1.87969 -0.0701315 0
M  V30 30844 O 2821.22 1.55623 0.930117 0
M  V30 30845 C 2821.27 2.70317 -2.38666 0
M  V30 30846 O 2820.37 3.68373 -1.85406 0
M  V30 30847 H 2819.72 0.443051 -0.494573 0
M  V30 30848 H 2822.25 0.835218 -1.86776 0
M  V30 30849 H 2822.26 3.18454 -2.55051 0
M  V30 30850 H 2820.93 2.40128 -3.39575 0
M  V30 30851 H 2819.51 3.27377 -1.78546 0
M  V30 30852 N 2821.69 1.28226 0.916285 0
M  V30 30853 C 2822.62 1.14468 2.03518 0
M  V30 30854 C 2823.6 0.0431143 1.70045 0
M  V30 30855 O 2824.79 0.219653 1.92954 0
M  V30 30856 C 2821.92 0.803087 3.37887 0
M  V30 30857 C 2820.87 1.85914 3.85512 0
M  V30 30858 C 2820.2 1.37125 5.16818 0
M  V30 30859 C 2821.5 3.26526 4.07649 0
M  V30 30860 H 2823.19 2.08068 2.15286 0
M  V30 30861 H 2820.74 1.00176 1.03444 0
M  V30 30862 H 2822.69 0.693611 4.15653 0
M  V30 30863 H 2821.42 -0.168617 3.26164 0
M  V30 30864 H 2820.07 1.95772 3.0995 0
M  V30 30865 H 2819.72 0.388678 5.01496 0
M  V30 30866 H 2819.42 2.07738 5.49653 0
M  V30 30867 H 2820.95 1.27494 5.97141 0
M  V30 30868 H 2822.36 3.19604 4.75948 0
M  V30 30869 H 2820.76 3.94951 4.51811 0
M  V30 30870 H 2821.83 3.70732 3.12547 0
M  V30 30871 N 2823.17 -1.12438 1.10433 0
M  V30 30872 C 2824.12 -2.18166 0.753141 0
M  V30 30873 C 2825.09 -1.63882 -0.27052 0
M  V30 30874 O 2826.27 -1.90211 -0.149804 0
M  V30 30875 C 2823.41 -3.4457 0.191106 0
M  V30 30876 C 2822.53 -4.12908 1.27006 0
M  V30 30877 C 2821.66 -5.26962 0.669679 0
M  V30 30878 C 2820.7 -5.87166 1.72922 0
M  V30 30879 N 2819.84 -6.92633 1.1491 0
M  V30 30880 H 2824.68 -2.47553 1.65896 0
M  V30 30881 H 2822.21 -1.21539 0.828652 0
M  V30 30882 H 2824.17 -4.16921 -0.152638 0
M  V30 30883 H 2822.8 -3.15601 -0.677942 0
M  V30 30884 H 2821.85 -3.38737 1.73093 0
M  V30 30885 H 2823.17 -4.53723 2.07212 0
M  V30 30886 H 2822.32 -6.06075 0.27538 0
M  V30 30887 H 2821.06 -4.87425 -0.16381 0
M  V30 30888 H 2820.06 -5.0674 2.13294 0
M  V30 30889 H 2821.29 -6.28774 2.56555 0
M  V30 30890 H 2819.23 -6.55133 0.337071 0
M  V30 30891 H 2819.15 -7.32046 1.88799 0
M  V30 30892 H 2820.42 -7.75574 0.781346 0
M  V30 30893 N 2824.65 -0.893076 -1.29853 0
M  V30 30894 C 2825.6 -0.355553 -2.29866 0
M  V30 30895 C 2826.59 0.541773 -1.60503 0
M  V30 30896 O 2827.8 0.425308 -1.74903 0
M  V30 30897 H 2824.17 -0.0963378 -0.745804 0
M  V30 30898 H 2826.14 -1.21256 -2.72653 0
M  V30 30899 C 2824.89 0.40774 -3.45301 0
M  V30 30900 H 2824.22 -0.273496 -3.98863 0
M  V30 30901 H 2825.66 0.748814 -4.17335 0
M  V30 30902 C 2824.11 1.6079 -2.96054 0
M  V30 30903 O 2824.64 2.70724 -2.96768 0
M  V30 30904 N 2822.85 1.44781 -2.51966 0
M  V30 30905 H 2822.4 0.553454 -2.51584 0
M  V30 30906 H 2822.36 2.25216 -2.19374 0
M  V30 30907 N 2826.13 1.4335 -0.654865 0
M  V30 30908 C 2827.38 2.01014 -0.16625 0
M  V30 30909 C 2827.69 1.5228 1.22761 0
M  V30 30910 O 2828.9 2.02228 1.81153 0
M  V30 30911 C 2827.35 3.59056 -0.246404 0
M  V30 30912 C 2826.96 4.16782 -1.64306 0
M  V30 30913 C 2828.7 4.24099 0.184522 0
M  V30 30914 C 2826.61 5.67123 -1.67705 0
M  V30 30915 H 2825.54 0.751736 -0.0583901 0
M  V30 30916 H 2828.19 1.64302 -0.81714 0
M  V30 30917 H 2826.57 3.93177 0.472023 0
M  V30 30918 H 2827.75 3.94158 -2.38697 0
M  V30 30919 H 2826.06 3.64116 -2.0201 0
M  V30 30920 H 2828.66 5.344 0.178994 0
M  V30 30921 H 2829 3.98137 1.21625 0
M  V30 30922 H 2829.54 3.94867 -0.48221 0
M  V30 30923 H 2826.27 5.97855 -2.68793 0
M  V30 30924 H 2825.79 5.91799 -0.976417 0
M  V30 30925 H 2827.47 6.31191 -1.42153 0
M  V30 30926 N 2827.61 0.39689 1.52521 0
M  V30 30927 C 2828.55 -0.434584 2.26672 0
M  V30 30928 C 2829.52 -1.05142 1.28586 0
M  V30 30929 O 2830.71 -1.07801 1.57428 0
M  V30 30930 C 2827.85 -1.5519 3.08237 0
M  V30 30931 C 2826.96 -0.957188 4.21262 0
M  V30 30932 C 2826.1 -2.04619 4.90209 0
M  V30 30933 C 2825.13 -1.42777 5.95215 0
M  V30 30934 N 2824.27 -2.45639 6.57728 0
M  V30 30935 H 2829.11 0.204192 2.973 0
M  V30 30936 H 2826.65 0.112531 1.46669 0
M  V30 30937 H 2828.61 -2.21054 3.53823 0
M  V30 30938 H 2827.24 -2.16088 2.39803 0
M  V30 30939 H 2826.29 -0.187938 3.79935 0
M  V30 30940 H 2827.6 -0.465329 4.96625 0
M  V30 30941 H 2826.75 -2.78236 5.39138 0
M  V30 30942 H 2825.49 -2.57167 4.14387 0
M  V30 30943 H 2824.5 -0.676872 5.45618 0
M  V30 30944 H 2825.72 -0.910137 6.72973 0
M  V30 30945 H 2823.67 -2.97342 5.84742 0
M  V30 30946 H 2823.59 -2.0123 7.28727 0
M  V30 30947 H 2824.85 -3.18864 7.11299 0
M  V30 30948 N 2829.08 -1.57088 0.126936 0
M  V30 30949 C 2830.36 -1.87015 -0.57312 0
M  V30 30950 C 2830.74 -1.02949 -1.84295 0
M  V30 30951 O 2830.09 -0.110613 -2.28232 0
M  V30 30952 C 2830.3 -3.38291 -0.857924 0
M  V30 30953 C 2831.65 -4.07068 -1.20752 0
M  V30 30954 O 2832.67 -3.43355 -0.947932 0
M  V30 30955 O 2831.53 -5.19548 -1.69507 0
M  V30 30956 H 2828.62 -0.774461 -0.290068 0
M  V30 30957 H 2831.17 -1.68925 0.162038 0
M  V30 30958 H 2829.94 -3.91278 0.0415974 0
M  V30 30959 H 2829.56 -3.6184 -1.64796 0
M  V30 30960 N 2830.56 0.146848 -1.56914 0
M  V30 30961 C 2831.49 1.20642 -1.9488 0
M  V30 30962 C 2832.51 1.39174 -0.844658 0
M  V30 30963 O 2833.7 1.38742 -1.12307 0
M  V30 30964 C 2830.8 2.57123 -2.20774 0
M  V30 30965 C 2829.97 2.59566 -3.52057 0
M  V30 30966 C 2829.03 3.77587 -3.66489 0
M  V30 30967 O 2828.05 3.62454 -4.3888 0
M  V30 30968 N 2829.26 4.95047 -3.03164 0
M  V30 30969 H 2832.02 0.883707 -2.86375 0
M  V30 30970 H 2829.58 0.336409 -1.58366 0
M  V30 30971 H 2831.57 3.34587 -2.2767 0
M  V30 30972 H 2830.14 2.81686 -1.35543 0
M  V30 30973 H 2829.36 1.68017 -3.56601 0
M  V30 30974 H 2830.65 2.5823 -4.384 0
M  V30 30975 H 2830.05 5.10245 -2.44267 0
M  V30 30976 H 2828.61 5.70286 -3.15621 0
M  V30 30977 N 2832.04 1.52005 0.4162 0
M  V30 30978 C 2832.97 1.77797 1.51362 0
M  V30 30979 C 2833.95 0.628628 1.58058 0
M  V30 30980 O 2835.14 0.873509 1.73446 0
M  V30 30981 C 2832.27 1.92224 2.89253 0
M  V30 30982 C 2831.22 3.07785 2.9741 0
M  V30 30983 C 2830.55 3.07424 4.37486 0
M  V30 30984 C 2831.85 4.47374 2.69543 0
M  V30 30985 H 2833.54 2.69691 1.30028 0
M  V30 30986 H 2831.09 1.29773 0.624089 0
M  V30 30987 H 2833.04 2.08851 3.66004 0
M  V30 30988 H 2831.76 0.969972 3.11864 0
M  V30 30989 H 2830.42 2.90897 2.23102 0
M  V30 30990 H 2830.07 2.09933 4.57097 0
M  V30 30991 H 2829.77 3.85037 4.4387 0
M  V30 30992 H 2831.29 3.26171 5.16183 0
M  V30 30993 H 2832.71 4.64503 3.3602 0
M  V30 30994 H 2831.1 5.26851 2.87312 0
M  V30 30995 H 2832.17 4.55956 1.65021 0
M  V30 30996 N 2833.52 -0.672992 1.42508 0
M  V30 30997 C 2834.79 -1.42905 1.33557 0
M  V30 30998 C 2835.17 -2.11084 -0.026184 0
M  V30 30999 O 2834.52 -2.0337 -1.04177 0
M  V30 31000 C 2834.73 -2.43001 2.50502 0
M  V30 31001 C 2836.08 -3.07591 2.92699 0
M  V30 31002 O 2837.1 -2.53329 2.50406 0
M  V30 31003 O 2835.96 -4.05925 3.65906 0
M  V30 31004 H 2833.06 -0.637507 0.526796 0
M  V30 31005 H 2835.6 -0.701563 1.54519 0
M  V30 31006 H 2834.38 -1.91434 3.41275 0
M  V30 31007 H 2834 -3.23229 2.31536 0
M  V30 31008 N 2835 -1.2871 -0.909472 0
M  V30 31009 C 2835.94 -1.13004 -2.01243 0
M  V30 31010 C 2836.91 -0.0259976 -1.6608 0
M  V30 31011 O 2838.1 -0.191721 -1.89834 0
M  V30 31012 C 2835.24 -0.802374 -3.35643 0
M  V30 31013 C 2834.35 -1.98588 -3.83649 0
M  V30 31014 C 2833.49 -1.59846 -5.06579 0
M  V30 31015 C 2832.52 -2.74836 -5.46929 0
M  V30 31016 N 2831.66 -2.36557 -6.61048 0
M  V30 31017 H 2836.5 -2.07374 -2.14009 0
M  V30 31018 H 2834.04 -1.03207 -1.04818 0
M  V30 31019 H 2836 -0.593129 -4.12962 0
M  V30 31020 H 2834.63 0.1044 -3.22631 0
M  V30 31021 H 2833.68 -2.30713 -3.02449 0
M  V30 31022 H 2834.99 -2.84786 -4.0951 0
M  V30 31023 H 2834.14 -1.35153 -5.91455 0
M  V30 31024 H 2832.88 -0.707838 -4.82536 0
M  V30 31025 H 2831.89 -3.00223 -4.60593 0
M  V30 31026 H 2833.11 -3.64548 -5.72959 0
M  V30 31027 H 2831.06 -1.4997 -6.38627 0
M  V30 31028 H 2830.98 -3.16289 -6.86656 0
M  V30 31029 H 2832.24 -2.15159 -7.49218 0
M  V30 31030 N 2836.47 1.1185 -1.11028 0
M  V30 31031 C 2837.4 2.19843 -0.786851 0
M  V30 31032 C 2838.38 1.68357 0.242905 0
M  V30 31033 O 2839.57 1.93903 0.107321 0
M  V30 31034 C 2836.7 3.46573 -0.224577 0
M  V30 31035 C 2835.65 4.11248 -1.18572 0
M  V30 31036 C 2834.98 5.32502 -0.484355 0
M  V30 31037 C 2836.28 4.56671 -2.53473 0
M  V30 31038 H 2837.97 2.47155 -1.68982 0
M  V30 31039 H 2835.52 1.18791 -0.813927 0
M  V30 31040 H 2837.47 4.21398 0.0138694 0
M  V30 31041 H 2836.2 3.18707 0.713666 0
M  V30 31042 H 2834.86 3.38412 -1.40972 0
M  V30 31043 H 2834.5 5.00905 0.458558 0
M  V30 31044 H 2834.2 5.76723 -1.12536 0
M  V30 31045 H 2835.73 6.10069 -0.2546 0
M  V30 31046 H 2837.14 5.22839 -2.35186 0
M  V30 31047 H 2835.54 5.11691 -3.13516 0
M  V30 31048 H 2836.61 3.70338 -3.13014 0
M  V30 31049 N 2837.95 0.89995 1.29378 0
M  V30 31050 C 2839.2 0.524958 1.95163 0
M  V30 31051 C 2839.52 -0.931858 1.71293 0
M  V30 31052 O 2838.79 -1.6571 1.04484 0
M  V30 31053 H 2837.37 0.191148 0.72213 0
M  V30 31054 H 2840.03 1.1463 1.57626 0
M  V30 31055 H 2839.13 0.707765 3.03969 0
M  V30 31056 N 2839.43 -1.43001 0.662458 0
M  V30 31057 C 2840.34 -2.34588 -0.0238786 0
M  V30 31058 C 2841.36 -1.54403 -0.802228 0
M  V30 31059 O 2842.53 -1.8702 -0.747368 0
M  V30 31060 C 2839.6 -3.32795 -0.97204 0
M  V30 31061 C 2838.66 -4.28881 -0.189597 0
M  V30 31062 C 2837.89 -5.22396 -1.0926 0
M  V30 31063 O 2838.11 -5.20551 -2.332 0
M  V30 31064 O 2837.05 -5.99289 -0.560031 0
M  V30 31065 H 2840.87 -2.9479 0.730223 0
M  V30 31066 H 2838.46 -1.43297 0.42266 0
M  V30 31067 H 2840.34 -3.9316 -1.51669 0
M  V30 31068 H 2839.02 -2.75082 -1.70621 0
M  V30 31069 H 2837.92 -3.71968 0.398859 0
M  V30 31070 H 2839.26 -4.896 0.505196 0
M  V30 31071 N 2840.91 -0.404973 -1.52308 0
M  V30 31072 C 2841.84 0.457871 -2.2458 0
M  V30 31073 C 2842.85 1.01367 -1.27391 0
M  V30 31074 O 2844.04 0.913323 -1.53364 0
M  V30 31075 C 2841.14 1.64888 -2.96083 0
M  V30 31076 C 2840.32 1.2177 -4.20108 0
M  V30 31077 C 2839.37 2.27514 -4.74472 0
M  V30 31078 O 2838.4 1.88276 -5.3716 0
M  V30 31079 N 2839.6 3.59627 -4.55685 0
M  V30 31080 H 2842.37 -0.161393 -2.99265 0
M  V30 31081 H 2839.93 -0.232135 -1.60227 0
M  V30 31082 H 2841.92 2.35185 -3.29348 0
M  V30 31083 H 2840.49 2.17415 -2.2461 0
M  V30 31084 H 2839.71 0.343002 -3.92705 0
M  V30 31085 H 2841 0.906508 -5.00659 0
M  V30 31086 H 2840.4 3.94259 -4.0568 0
M  V30 31087 H 2838.95 4.25913 -4.93397 0
M  V30 31088 N 2842.39 1.57018 -0.135265 0
M  V30 31089 C 2843.64 1.94917 0.51866 0
M  V30 31090 C 2843.95 1.02193 1.66781 0
M  V30 31091 O 2845.15 1.29623 2.38558 0
M  V30 31092 C 2843.61 3.46468 0.974062 0
M  V30 31093 C 2843.22 4.47757 -0.147518 0
M  V30 31094 C 2844.96 3.93256 1.59844 0
M  V30 31095 C 2842.87 5.90504 0.325496 0
M  V30 31096 H 2841.8 0.727667 0.197528 0
M  V30 31097 H 2844.45 1.82204 -0.21773 0
M  V30 31098 H 2842.83 3.54473 1.76536 0
M  V30 31099 H 2844.01 4.51437 -0.924201 0
M  V30 31100 H 2842.32 4.10817 -0.679568 0
M  V30 31101 H 2844.92 4.97333 1.96376 0
M  V30 31102 H 2845.26 3.34145 2.483 0
M  V30 31103 H 2845.79 3.88119 0.872255 0
M  V30 31104 H 2842.53 6.53407 -0.52341 0
M  V30 31105 H 2842.05 5.90209 1.06831 0
M  V30 31106 H 2843.73 6.42264 0.781385 0
M  V30 31107 N 2843.86 -0.138524 1.5699 0
M  V30 31108 C 2844.83 -1.15474 1.97986 0
M  V30 31109 C 2845.83 -1.35396 0.86744 0
M  V30 31110 O 2847.02 -1.32244 1.13389 0
M  V30 31111 C 2844.15 -2.51333 2.30314 0
M  V30 31112 H 2845.34 -0.802845 2.88954 0
M  V30 31113 H 2842.9 -0.382162 1.51556 0
M  V30 31114 H 2843.63 -2.91479 1.42164 0
M  V30 31115 H 2843.42 -2.38232 3.11429 0
M  V30 31116 H 2844.91 -3.24508 2.62839 0
M  V30 31117 N 2845.34 -1.52224 -0.408133 0
M  V30 31118 C 2846.59 -1.66578 -1.15671 0
M  V30 31119 C 2846.92 -0.395029 -1.9014 0
M  V30 31120 O 2846.2 0.606581 -1.84799 0
M  V30 31121 C 2846.48 -2.88845 -2.15037 0
M  V30 31122 C 2846.33 -4.25972 -1.44457 0
M  V30 31123 C 2847.65 -3.06635 -3.15694 0
M  V30 31124 H 2844.77 -0.606204 -0.419149 0
M  V30 31125 H 2847.41 -1.8478 -0.442315 0
M  V30 31126 H 2845.56 -2.73457 -2.75959 0
M  V30 31127 H 2847.23 -4.53089 -0.866464 0
M  V30 31128 H 2845.48 -4.27328 -0.746537 0
M  V30 31129 H 2846.15 -5.07572 -2.16967 0
M  V30 31130 H 2848.62 -3.20928 -2.64848 0
M  V30 31131 H 2847.5 -3.93697 -3.82484 0
M  V30 31132 H 2847.76 -2.19994 -3.83478 0
M  V30 31133 N 2846.82 0.665425 -1.42863 0
M  V30 31134 C 2848.07 1.42123 -1.43122 0
M  V30 31135 C 2848.38 1.95524 -0.054564 0
M  V30 31136 O 2849.59 2.71421 0.065427 0
M  V30 31137 C 2848.04 2.57145 -2.51802 0
M  V30 31138 C 2847.65 2.10404 -3.95517 0
M  V30 31139 C 2849.4 3.34596 -2.61239 0
M  V30 31140 C 2847.3 3.22565 -4.95687 0
M  V30 31141 H 2846.23 0.533957 -0.532359 0
M  V30 31142 H 2848.88 0.719476 -1.68807 0
M  V30 31143 H 2847.27 3.29734 -2.19298 0
M  V30 31144 H 2848.44 1.44907 -4.37423 0
M  V30 31145 H 2846.76 1.45867 -3.90015 0
M  V30 31146 H 2849.35 4.18145 -3.33255 0
M  V30 31147 H 2849.7 3.81814 -1.65903 0
M  V30 31148 H 2850.23 2.69082 -2.92984 0
M  V30 31149 H 2846.97 2.80328 -5.92534 0
M  V30 31150 H 2846.49 3.86813 -4.58406 0
M  V30 31151 H 2848.17 3.87887 -5.17834 0
M  V30 31152 N 2848.3 1.29191 0.902633 0
M  V30 31153 C 2849.25 1.10698 1.99324 0
M  V30 31154 C 2850.23 0.0272804 1.60877 0
M  V30 31155 O 2851.42 0.248666 1.75245 0
M  V30 31156 C 2848.55 0.782499 3.34263 0
M  V30 31157 C 2847.64 1.90159 3.79078 0
M  V30 31158 N 2848.03 3.14473 3.96157 0
M  V30 31159 C 2846.33 1.79396 4.08329 0
M  V30 31160 C 2847.03 3.87465 4.33873 0
M  V30 31161 N 2846.01 3.15389 4.42754 0
M  V30 31162 H 2849.81 2.05006 2.10593 0
M  V30 31163 H 2847.32 1.20273 1.09125 0
M  V30 31164 H 2849.32 0.631068 4.12096 0
M  V30 31165 H 2847.98 -0.152697 3.24341 0
M  V30 31166 H 2848.99 3.49961 3.81769 0
M  V30 31167 H 2845.67 0.931289 4.06981 0
M  V30 31168 H 2847.06 4.94433 4.54956 0
M  V30 31169 N 2849.78 -1.1126 1.1162 0
M  V30 31170 C 2850.69 -2.20934 0.789019 0
M  V30 31171 C 2851.7 -1.72621 -0.21864 0
M  V30 31172 O 2852.88 -2.01327 -0.0543472 0
M  V30 31173 C 2849.94 -3.45875 0.239075 0
M  V30 31174 C 2849 -4.08966 1.30558 0
M  V30 31175 C 2848.24 -5.27943 0.78178 0
M  V30 31176 O 2848.46 -5.69082 -0.387505 0
M  V30 31177 O 2847.39 -5.81668 1.54744 0
M  V30 31178 H 2851.22 -2.51336 1.70481 0
M  V30 31179 H 2848.81 -1.19832 0.892224 0
M  V30 31180 H 2850.69 -4.21353 -0.0631571 0
M  V30 31181 H 2849.36 -3.17119 -0.649398 0
M  V30 31182 H 2848.27 -3.35211 1.66085 0
M  V30 31183 H 2849.6 -4.41905 2.16751 0
M  V30 31184 N 2851.25 -0.906798 -1.28899 0
M  V30 31185 C 2852.2 -0.388353 -2.27509 0
M  V30 31186 C 2853.17 0.533411 -1.57302 0
M  V30 31187 O 2854.36 0.457116 -1.85243 0
M  V30 31188 C 2851.5 0.371749 -3.43092 0
M  V30 31189 C 2850.61 -0.581723 -4.28065 0
M  V30 31190 C 2849.74 0.196136 -5.30838 0
M  V30 31191 C 2848.78 -0.751401 -6.0747 0
M  V30 31192 N 2847.92 -0.00750068 -7.021 0
M  V30 31193 H 2852.76 -1.23433 -2.71235 0
M  V30 31194 H 2850.3 -0.619986 -1.33396 0
M  V30 31195 H 2852.26 0.828569 -4.08889 0
M  V30 31196 H 2850.89 1.18212 -3.00376 0
M  V30 31197 H 2849.94 -1.15707 -3.62376 0
M  V30 31198 H 2851.25 -1.30673 -4.81379 0
M  V30 31199 H 2850.4 0.713834 -6.02486 0
M  V30 31200 H 2849.14 0.95424 -4.78274 0
M  V30 31201 H 2848.15 -1.28054 -5.3468 0
M  V30 31202 H 2849.37 -1.50895 -6.62124 0
M  V30 31203 H 2847.32 0.73274 -6.51895 0
M  V30 31204 H 2847.24 -0.672467 -7.53003 0
M  V30 31205 H 2848.5 0.490229 -7.77957 0
M  V30 31206 N 2852.73 1.42648 -0.670032 0
M  V30 31207 C 2853.66 2.29145 0.0501343 0
M  V30 31208 C 2854.68 1.43423 0.770306 0
M  V30 31209 O 2855.87 1.67191 0.625259 0
M  V30 31210 C 2852.97 3.20737 1.09458 0
M  V30 31211 C 2852.14 4.35087 0.449183 0
M  V30 31212 C 2851.2 5.07433 1.39276 0
M  V30 31213 O 2850.22 5.62121 0.894898 0
M  V30 31214 N 2851.43 5.12501 2.72622 0
M  V30 31215 H 2854.19 2.91593 -0.692363 0
M  V30 31216 H 2851.75 1.53521 -0.514083 0
M  V30 31217 H 2853.74 3.66002 1.72698 0
M  V30 31218 H 2852.31 2.59774 1.73886 0
M  V30 31219 H 2851.53 3.92528 -0.362642 0
M  V30 31220 H 2852.82 5.088 -0.00063421 0
M  V30 31221 H 2852.22 4.69472 3.15614 0
M  V30 31222 H 2850.78 5.61428 3.31122 0
M  V30 31223 N 2854.21 0.413044 1.52091 0
M  V30 31224 C 2855.62 -0.0556639 1.86617 0
M  V30 31225 C 2855.97 -1.44094 1.33159 0
M  V30 31226 O 2855.1 -2.05687 0.672453 0
M  V30 31227 C 2855.69 -0.107785 3.38629 0
M  V30 31228 C 2854.25 -0.520838 3.72779 0
M  V30 31229 C 2853.4 0.302158 2.75649 0
M  V30 31230 H 2856.35 0.629944 1.45662 0
M  V30 31231 H 2856.37 -0.922259 3.69154 0
M  V30 31232 H 2855.88 0.900572 3.77507 0
M  V30 31233 H 2853.98 -1.53569 3.39481 0
M  V30 31234 H 2854.1 -0.262506 4.7838 0
M  V30 31235 H 2852.46 -0.236071 2.53604 0
M  V30 31236 H 2853.24 1.30894 3.17367 0
M  V30 31237 N 2855.69 -1.56945 0.143591 0
M  V30 31238 C 2856.97 -1.87613 -0.553252 0
M  V30 31239 C 2857.35 -1.04898 -1.83193 0
M  V30 31240 O 2856.69 -0.134814 -2.28102 0
M  V30 31241 C 2856.9 -3.39182 -0.821996 0
M  V30 31242 C 2858.25 -4.08326 -1.16427 0
M  V30 31243 O 2859.28 -3.44341 -0.911461 0
M  V30 31244 O 2858.14 -5.21316 -1.63987 0
M  V30 31245 H 2855.23 -0.777494 -0.281838 0
M  V30 31246 H 2857.78 -1.68743 0.179946 0
M  V30 31247 H 2856.55 -3.91212 0.0830953 0
M  V30 31248 H 2856.17 -3.63567 -1.60949 0
M  V30 31249 N 2857.17 0.130197 -1.57061 0
M  V30 31250 C 2858.41 0.841184 -1.84532 0
M  V30 31251 C 2858.75 1.80051 -0.727698 0
M  V30 31252 O 2858.02 1.92653 0.267386 0
M  V30 31253 C 2858.3 1.60094 -3.22555 0
M  V30 31254 C 2858.16 0.66197 -4.44902 0
M  V30 31255 C 2859.48 2.55967 -3.58007 0
M  V30 31256 H 2856.6 0.304355 -0.671221 0
M  V30 31257 H 2859.24 0.105787 -1.89705 0
M  V30 31258 H 2857.39 2.22784 -3.18276 0
M  V30 31259 H 2859.06 0.0447748 -4.61278 0
M  V30 31260 H 2857.3 -0.0273016 -4.33791 0
M  V30 31261 H 2857.97 1.22997 -5.38122 0
M  V30 31262 H 2860.45 2.03387 -3.63005 0
M  V30 31263 H 2859.33 3.06164 -4.55582 0
M  V30 31264 H 2859.59 3.38111 -2.84839 0
M  V30 31265 N 2858.65 1.52438 0.400055 0
M  V30 31266 C 2859.89 1.66168 1.14329 0
M  V30 31267 C 2860.21 0.402287 1.91418 0
M  V30 31268 O 2861.41 0.419534 2.68239 0
M  V30 31269 C 2859.87 2.93614 2.08132 0
M  V30 31270 C 2859.48 4.26693 1.36517 0
M  V30 31271 C 2861.22 3.16708 2.82659 0
M  V30 31272 C 2859.13 5.45255 2.29021 0
M  V30 31273 H 2858.06 0.619028 0.430489 0
M  V30 31274 H 2860.71 1.7893 0.406985 0
M  V30 31275 H 2859.09 2.74572 2.85353 0
M  V30 31276 H 2860.27 4.5625 0.645981 0
M  V30 31277 H 2858.58 4.09773 0.739948 0
M  V30 31278 H 2861.18 4.02466 3.5203 0
M  V30 31279 H 2861.52 2.31318 3.46118 0
M  V30 31280 H 2862.05 3.36265 2.12535 0
M  V30 31281 H 2858.79 6.3302 1.70194 0
M  V30 31282 H 2858.31 5.20025 2.98887 0
M  V30 31283 H 2859.99 5.78694 2.89349 0
M  V30 31284 N 2860.12 -0.657839 1.43214 0
M  V30 31285 C 2861.05 -1.78259 1.50818 0
M  V30 31286 C 2862.03 -1.66176 0.363241 0
M  V30 31287 O 2863.22 -1.85342 0.579839 0
M  V30 31288 C 2860.35 -3.16661 1.4263 0
M  V30 31289 C 2859.3 -3.43501 2.55326 0
M  V30 31290 C 2858.63 -4.81654 2.32192 0
M  V30 31291 C 2859.93 -3.38704 3.97589 0
M  V30 31292 H 2861.62 -1.72152 2.44957 0
M  V30 31293 H 2859.17 -0.826809 1.17898 0
M  V30 31294 H 2861.12 -3.95095 1.46555 0
M  V30 31295 H 2859.85 -3.23486 0.449934 0
M  V30 31296 H 2858.51 -2.67435 2.50747 0
M  V30 31297 H 2858.15 -4.8515 1.32809 0
M  V30 31298 H 2857.85 -5.00574 3.07733 0
M  V30 31299 H 2859.38 -5.62352 2.37893 0
M  V30 31300 H 2860.79 -4.07082 4.0368 0
M  V30 31301 H 2859.19 -3.6916 4.73118 0
M  V30 31302 H 2860.26 -2.36968 4.23053 0
M  V30 31303 N 2861.6 -1.29668 -0.895769 0
M  V30 31304 C 2862.51 -1.17028 -2.03327 0
M  V30 31305 C 2863.53 -0.0926267 -1.73753 0
M  V30 31306 O 2864.7 -0.305466 -1.9907 0
M  V30 31307 C 2861.77 -0.8519 -3.36071 0
M  V30 31308 C 2860.83 -2.0138 -3.79137 0
M  V30 31309 C 2860.06 -1.71052 -5.05546 0
M  V30 31310 O 2860.29 -0.633312 -5.66873 0
M  V30 31311 O 2859.22 -2.55969 -5.4476 0
M  V30 31312 H 2863.05 -2.1256 -2.16915 0
M  V30 31313 H 2860.63 -1.09158 -1.02005 0
M  V30 31314 H 2862.51 -0.689079 -4.15728 0
M  V30 31315 H 2861.19 0.0736065 -3.23616 0
M  V30 31316 H 2860.09 -2.23188 -3.0023 0
M  V30 31317 H 2861.43 -2.92065 -3.96181 0
M  V30 31318 N 2863.08 1.10667 -1.12208 0
M  V30 31319 C 2864.04 2.15122 -0.790905 0
M  V30 31320 C 2865.04 1.5963 0.19359 0
M  V30 31321 O 2866.23 1.74171 -0.0319034 0
M  V30 31322 C 2863.36 3.40451 -0.174857 0
M  V30 31323 H 2864.56 2.4593 -1.71635 0
M  V30 31324 H 2862.11 1.25989 -0.925015 0
M  V30 31325 H 2862.85 3.15259 0.760422 0
M  V30 31326 H 2862.63 3.82013 -0.883647 0
M  V30 31327 H 2864.12 4.1758 0.0404428 0
M  V30 31328 N 2864.56 0.913621 1.28416 0
M  V30 31329 C 2865.78 0.561934 1.99642 0
M  V30 31330 C 2866.21 -0.849578 1.67821 0
M  V30 31331 O 2865.57 -1.56777 0.910531 0
M  V30 31332 C 2865.61 0.777684 3.52114 0
M  V30 31333 O 2864.72 -0.163385 4.12076 0
M  V30 31334 H 2864.06 0.217909 0.627226 0
M  V30 31335 H 2866.59 1.22902 1.63573 0
M  V30 31336 H 2866.6 0.687737 4.02162 0
M  V30 31337 H 2865.27 1.80667 3.7461 0
M  V30 31338 H 2863.85 -0.0247172 3.72892 0
M  V30 31339 N 2866.04 -1.4229 0.677588 0
M  V30 31340 C 2867.28 -2.01102 0.200613 0
M  V30 31341 C 2867.6 -1.5386 -1.198 0
M  V30 31342 O 2866.87 -0.761471 -1.80495 0
M  V30 31343 H 2865.45 -0.743601 0.0711765 0
M  V30 31344 H 2868.12 -1.74168 0.874721 0
M  V30 31345 H 2867.21 -3.11432 0.204055 0
M  V30 31346 N 2867.51 -0.421104 -1.5187 0
M  V30 31347 C 2868.92 0.0457663 -1.86644 0
M  V30 31348 C 2869.28 1.43386 -1.33921 0
M  V30 31349 O 2868.4 2.05327 -0.683352 0
M  V30 31350 C 2869 0.0898249 -3.38681 0
M  V30 31351 C 2867.55 0.501062 -3.7305 0
M  V30 31352 C 2866.7 -0.316772 -2.75485 0
M  V30 31353 H 2869.65 -0.63766 -1.45326 0
M  V30 31354 H 2869.67 0.902669 -3.69638 0
M  V30 31355 H 2869.19 -0.920579 -3.77024 0
M  V30 31356 H 2867.29 1.51767 -3.4029 0
M  V30 31357 H 2867.4 0.237133 -4.78513 0
M  V30 31358 H 2865.76 0.222618 -2.53725 0
M  V30 31359 H 2866.55 -1.32575 -3.16668 0
M  V30 31360 N 2868.99 1.56866 -0.151912 0
M  V30 31361 C 2869.9 2.20581 0.798837 0
M  V30 31362 C 2870.92 1.19156 1.26798 0
M  V30 31363 O 2872.09 1.51751 1.32415 0
M  V30 31364 C 2869.16 2.81877 2.01856 0
M  V30 31365 C 2868.22 3.98443 1.59818 0
M  V30 31366 C 2867.45 4.56807 2.75976 0
M  V30 31367 O 2867.68 4.14051 3.92323 0
M  V30 31368 O 2866.61 5.46991 2.51166 0
M  V30 31369 H 2870.44 3.02346 0.286447 0
M  V30 31370 H 2868.02 1.4921 0.0753544 0
M  V30 31371 H 2869.9 3.20818 2.73229 0
M  V30 31372 H 2868.58 2.03121 2.52038 0
M  V30 31373 H 2867.49 3.64209 0.854537 0
M  V30 31374 H 2868.82 4.78733 1.14347 0
M  V30 31375 N 2870.47 -0.121866 1.57128 0
M  V30 31376 C 2871.43 -1.13368 1.99199 0
M  V30 31377 C 2872.43 -1.34469 0.881751 0
M  V30 31378 O 2873.62 -1.31034 1.14785 0
M  V30 31379 C 2870.76 -2.48876 2.32967 0
M  V30 31380 H 2871.95 -0.772153 2.89789 0
M  V30 31381 H 2869.5 -0.366066 1.51953 0
M  V30 31382 H 2870.24 -2.89955 1.45248 0
M  V30 31383 H 2870.02 -2.34915 3.13938 0
M  V30 31384 H 2871.51 -3.21702 2.66266 0
M  V30 31385 N 2871.95 -1.52648 -0.391965 0
M  V30 31386 C 2873.2 -1.66772 -1.13446 0
M  V30 31387 C 2873.51 -0.412432 -1.91202 0
M  V30 31388 O 2874.72 -0.433754 -2.68013 0
M  V30 31389 C 2873.17 -2.94713 -2.06572 0
M  V30 31390 C 2872.78 -4.27411 -1.34252 0
M  V30 31391 C 2874.52 -3.18203 -2.80975 0
M  V30 31392 C 2872.43 -5.46462 -2.26126 0
M  V30 31393 H 2871.36 -0.621302 -0.4272 0
M  V30 31394 H 2874.01 -1.79143 -0.39749 0
M  V30 31395 H 2872.39 -2.76081 -2.83893 0
M  V30 31396 H 2873.57 -4.56586 -0.621776 0
M  V30 31397 H 2871.88 -4.10159 -0.718206 0
M  V30 31398 H 2874.48 -4.04327 -3.49891 0
M  V30 31399 H 2874.82 -2.3315 -3.44887 0
M  V30 31400 H 2875.36 -3.37387 -2.10748 0
M  V30 31401 H 2872.1 -6.33914 -1.66835 0
M  V30 31402 H 2871.62 -5.21603 -2.96125 0
M  V30 31403 H 2873.29 -5.8022 -2.86276 0
M  V30 31404 N 2873.43 0.650235 -1.43561 0
M  V30 31405 C 2874.36 1.77568 -1.44921 0
M  V30 31406 C 2875.37 1.59103 -0.344953 0
M  V30 31407 O 2876.56 1.67769 -0.609567 0
M  V30 31408 C 2873.66 3.15037 -1.2492 0
M  V30 31409 C 2872.83 3.60134 -2.48239 0
M  V30 31410 C 2871.89 4.76415 -2.23418 0
M  V30 31411 O 2870.92 4.85701 -2.96788 0
M  V30 31412 N 2872.12 5.66823 -1.25269 0
M  V30 31413 H 2874.89 1.76879 -2.41938 0
M  V30 31414 H 2872.45 0.834177 -1.38756 0
M  V30 31415 H 2874.44 3.90519 -1.06192 0
M  V30 31416 H 2873.01 3.10481 -0.363374 0
M  V30 31417 H 2872.23 2.75064 -2.82371 0
M  V30 31418 H 2873.52 3.87011 -3.30303 0
M  V30 31419 H 2872.91 5.61995 -0.646345 0
M  V30 31420 H 2871.47 6.42014 -1.12525 0
M  V30 31421 N 2874.9 1.30141 0.88888 0
M  V30 31422 C 2876.15 1.18106 1.63505 0
M  V30 31423 C 2876.47 -0.264107 1.93809 0
M  V30 31424 O 2877.67 -0.505919 2.66745 0
M  V30 31425 C 2876.13 2.06636 2.94669 0
M  V30 31426 C 2875.74 3.56039 2.7192 0
M  V30 31427 C 2877.48 2.03353 3.72623 0
M  V30 31428 C 2875.39 4.36637 3.98876 0
M  V30 31429 H 2874.32 0.438445 0.613418 0
M  V30 31430 H 2876.97 1.54861 0.9844 0
M  V30 31431 H 2875.35 1.6276 3.61006 0
M  V30 31432 H 2876.52 4.08037 2.14109 0
M  V30 31433 H 2874.84 3.61104 2.07347 0
M  V30 31434 H 2877.44 2.60824 4.66771 0
M  V30 31435 H 2877.78 1.01607 4.0371 0
M  V30 31436 H 2878.31 2.45329 3.13143 0
M  V30 31437 H 2875.05 5.39063 3.7295 0
M  V30 31438 H 2874.57 3.89404 4.56207 0
M  V30 31439 H 2876.25 4.47867 4.66931 0
M  V30 31440 N 2876.38 -1.1007 1.12794 0
M  V30 31441 C 2877.8 -1.34141 0.864768 0
M  V30 31442 C 2878 -1.95117 -0.503167 0
M  V30 31443 O 2877.05 -2.19327 -1.25107 0
M  V30 31444 C 2878.37 -2.25945 1.98417 0
M  V30 31445 C 2879.92 -2.39473 2.01549 0
M  V30 31446 C 2880.39 -3.34608 3.12733 0
M  V30 31447 N 2881.88 -3.42178 3.122 0
M  V30 31448 C 2882.62 -4.15772 3.94869 0
M  V30 31449 N 2882.11 -4.92219 4.87537 0
M  V30 31450 N 2883.91 -4.11428 3.82992 0
M  V30 31451 H 2876.06 -0.688625 2.00927 0
M  V30 31452 H 2878.32 -0.365828 0.87457 0
M  V30 31453 H 2878.03 -1.88359 2.97008 0
M  V30 31454 H 2877.9 -3.26283 1.89259 0
M  V30 31455 H 2880.29 -2.76327 1.03574 0
M  V30 31456 H 2880.37 -1.38936 2.1478 0
M  V30 31457 H 2880.01 -2.98478 4.10942 0
M  V30 31458 H 2879.94 -4.35032 2.9674 0
M  V30 31459 H 2882.43 -2.87661 2.4507 0
M  V30 31460 H 2882.75 -5.45785 5.47119 0
M  V30 31461 H 2881.09 -4.91331 4.91547 0
M  V30 31462 H 2884.28 -3.50801 3.09929 0
M  V30 31463 H 2884.45 -4.68523 4.47649 0
M  V30 31464 N 2877.86 -0.920419 -1.2793 0
M  V30 31465 C 2879.14 -0.475721 -1.89727 0
M  V30 31466 C 2879.52 1.04584 -1.83372 0
M  V30 31467 O 2878.87 1.89683 -1.27408 0
M  V30 31468 C 2879.08 -1.0136 -3.33957 0
M  V30 31469 C 2880.42 -1.0697 -4.10905 0
M  V30 31470 O 2881.45 -0.962707 -3.42944 0
M  V30 31471 O 2880.31 -1.23352 -5.32397 0
M  V30 31472 H 2877.4 -0.151859 -0.812938 0
M  V30 31473 H 2879.95 -1.01164 -1.3625 0
M  V30 31474 H 2878.72 -2.05752 -3.32839 0
M  V30 31475 H 2878.34 -0.458898 -3.94943 0
M  V30 31476 N 2879.34 1.41929 -0.685124 0
M  V30 31477 C 2880.57 2.05723 -0.220408 0
M  V30 31478 C 2880.98 1.51518 1.1264 0
M  V30 31479 O 2880.34 0.659144 1.70181 0
M  V30 31480 C 2880.39 3.61154 -0.158038 0
M  V30 31481 O 2880.11 4.13351 -1.45163 0
M  V30 31482 C 2881.61 4.42078 0.328931 0
M  V30 31483 H 2878.83 0.662775 -0.104737 0
M  V30 31484 H 2881.38 1.81885 -0.934768 0
M  V30 31485 H 2879.53 3.84067 0.507076 0
M  V30 31486 H 2879.94 5.0731 -1.33181 0
M  V30 31487 H 2881.42 5.51063 0.321462 0
M  V30 31488 H 2881.9 4.17417 1.36601 0
M  V30 31489 H 2882.5 4.24206 -0.304811 0
M  V30 31490 N 2880.82 0.429152 1.51644 0
M  V30 31491 C 2881.75 -0.377107 2.30435 0
M  V30 31492 C 2882.73 -1.02836 1.35495 0
M  V30 31493 O 2883.91 -1.03356 1.64412 0
M  V30 31494 C 2881.04 -1.4831 3.14041 0
M  V30 31495 C 2880 -0.955782 4.17192 0
M  V30 31496 C 2879.32 -2.1569 4.89267 0
M  V30 31497 C 2880.62 0.00411317 5.223 0
M  V30 31498 H 2882.32 0.280388 2.98084 0
M  V30 31499 H 2879.86 0.13629 1.43354 0
M  V30 31500 H 2881.82 -2.05428 3.67936 0
M  V30 31501 H 2880.54 -2.16876 2.44197 0
M  V30 31502 H 2879.2 -0.406865 3.64335 0
M  V30 31503 H 2878.85 -2.82857 4.15934 0
M  V30 31504 H 2878.55 -1.81049 5.59012 0
M  V30 31505 H 2880.07 -2.73377 5.45983 0
M  V30 31506 H 2881.48 -0.476507 5.71316 0
M  V30 31507 H 2879.88 0.262685 5.99525 0
M  V30 31508 H 2880.95 0.94332 4.75636 0
M  V30 31509 N 2882.29 -1.56783 0.160229 0
M  V30 31510 C 2883.52 -2.00913 -0.49413 0
M  V30 31511 C 2883.94 -1.04041 -1.57546 0
M  V30 31512 O 2883.29 -0.0394902 -1.82457 0
M  V30 31513 C 2883.35 -3.44907 -1.08265 0
M  V30 31514 O 2883.07 -4.38077 -0.0444934 0
M  V30 31515 C 2884.57 -4.04382 -1.81633 0
M  V30 31516 H 2881.79 -0.658778 -0.127486 0
M  V30 31517 H 2884.33 -2.02857 0.258701 0
M  V30 31518 H 2882.49 -3.43773 -1.78603 0
M  V30 31519 H 2882.9 -5.22322 -0.477452 0
M  V30 31520 H 2884.37 -5.07093 -2.18085 0
M  V30 31521 H 2884.85 -3.45842 -2.70721 0
M  V30 31522 H 2885.46 -4.09186 -1.15962 0
M  V30 31523 N 2883.77 0.113531 -1.57191 0
M  V30 31524 C 2884.71 1.16481 -1.97395 0
M  V30 31525 C 2885.72 1.37351 -0.873988 0
M  V30 31526 O 2886.91 1.36329 -1.15224 0
M  V30 31527 C 2884.01 2.52382 -2.26178 0
M  V30 31528 C 2883.18 2.5204 -3.57484 0
M  V30 31529 C 2882.24 3.69729 -3.74416 0
M  V30 31530 O 2881.27 3.53063 -4.46469 0
M  V30 31531 N 2882.47 4.88505 -3.13597 0
M  V30 31532 H 2885.23 0.822763 -2.88185 0
M  V30 31533 H 2882.79 0.302741 -1.59044 0
M  V30 31534 H 2884.79 3.29683 -2.34715 0
M  V30 31535 H 2883.36 2.78747 -1.41488 0
M  V30 31536 H 2882.58 1.60415 -3.60084 0
M  V30 31537 H 2883.86 2.48873 -4.43779 0
M  V30 31538 H 2883.26 5.04949 -2.55035 0
M  V30 31539 H 2881.82 5.63463 -3.27647 0
M  V30 31540 N 2885.25 1.52854 0.383864 0
M  V30 31541 C 2886.18 1.80968 1.47556 0
M  V30 31542 C 2887.16 0.662013 1.56689 0
M  V30 31543 O 2888.35 0.910103 1.71554 0
M  V30 31544 C 2885.48 1.98317 2.8511 0
M  V30 31545 C 2884.43 3.14024 2.90814 0
M  V30 31546 C 2883.76 3.16635 4.30867 0
M  V30 31547 C 2885.06 4.52991 2.59993 0
M  V30 31548 H 2886.75 2.72388 1.24278 0
M  V30 31549 H 2884.3 1.31068 0.596422 0
M  V30 31550 H 2886.25 2.16568 3.61492 0
M  V30 31551 H 2884.97 1.0359 3.09736 0
M  V30 31552 H 2883.63 2.95564 2.16881 0
M  V30 31553 H 2883.28 2.19581 4.52541 0
M  V30 31554 H 2882.98 3.94365 4.35603 0
M  V30 31555 H 2884.51 3.37047 5.09148 0
M  V30 31556 H 2885.92 4.71526 3.26092 0
M  V30 31557 H 2884.32 5.32827 2.76072 0
M  V30 31558 H 2885.39 4.59354 1.55312 0
M  V30 31559 N 2886.73 -0.642612 1.43904 0
M  V30 31560 C 2887.68 -1.77631 1.50167 0
M  V30 31561 C 2888.67 -1.65213 0.374324 0
M  V30 31562 O 2889.88 -1.71431 0.548778 0
M  V30 31563 H 2886.25 -0.586241 0.470984 0
M  V30 31564 H 2888.22 -1.6947 2.45606 0
M  V30 31565 C 2886.97 -3.1593 1.45202 0
M  V30 31566 H 2886.3 -3.26128 2.31258 0
M  V30 31567 H 2887.74 -3.95183 1.53645 0
M  V30 31568 C 2886.19 -3.36465 0.171102 0
M  V30 31569 O 2886.72 -3.9438 -0.763343 0
M  V30 31570 N 2884.93 -2.90496 0.077898 0
M  V30 31571 H 2884.48 -2.43549 0.839142 0
M  V30 31572 H 2884.44 -3.04611 -0.778419 0
M  V30 31573 N 2888.21 -1.30611 -0.881966 0
M  V30 31574 C 2889.17 -1.17223 -1.96955 0
M  V30 31575 C 2890.17 -0.102626 -1.60472 0
M  V30 31576 O 2891.36 -0.350973 -1.70628 0
M  V30 31577 C 2888.49 -0.796631 -3.31461 0
M  V30 31578 H 2889.69 -2.13849 -2.10258 0
M  V30 31579 H 2887.24 -1.1405 -1.06875 0
M  V30 31580 H 2887.97 0.168996 -3.23859 0
M  V30 31581 H 2887.76 -1.56965 -3.59311 0
M  V30 31582 H 2889.25 -0.726522 -4.11232 0
M  V30 31583 N 2889.69 1.0947 -1.13376 0
M  V30 31584 C 2890.63 2.16093 -0.810719 0
M  V30 31585 C 2891.6 1.64542 0.226975 0
M  V30 31586 O 2892.79 1.90541 0.0993203 0
M  V30 31587 C 2889.93 3.43943 -0.282396 0
M  V30 31588 C 2889.04 4.09396 -1.37909 0
M  V30 31589 C 2888.18 5.25001 -0.809158 0
M  V30 31590 C 2887.21 5.82375 -1.88429 0
M  V30 31591 N 2886.35 6.89343 -1.33233 0
M  V30 31592 H 2891.19 2.43068 -1.72401 0
M  V30 31593 H 2888.73 1.19299 -0.860585 0
M  V30 31594 H 2890.69 4.17179 0.0420455 0
M  V30 31595 H 2889.32 3.17287 0.594028 0
M  V30 31596 H 2888.37 3.34029 -1.82013 0
M  V30 31597 H 2889.68 4.4807 -2.19169 0
M  V30 31598 H 2888.83 6.05132 -0.435973 0
M  V30 31599 H 2887.57 4.87688 0.0345201 0
M  V30 31600 H 2886.58 5.00907 -2.26655 0
M  V30 31601 H 2887.8 6.2175 -2.73136 0
M  V30 31602 H 2885.75 6.54009 -0.51065 0
M  V30 31603 H 2885.67 7.26783 -2.08141 0
M  V30 31604 H 2886.93 7.7323 -0.986701 0
M  V30 31605 N 2891.16 0.92719 1.2744 0
M  V30 31606 C 2892.41 0.577685 1.95024 0
M  V30 31607 C 2892.76 -0.871391 1.71536 0
M  V30 31608 O 2892.06 -1.61332 1.03357 0
M  V30 31609 C 2892.25 0.839055 3.47411 0
M  V30 31610 C 2892.08 2.31199 3.85717 0
M  V30 31611 C 2890.85 2.9646 4.09194 0
M  V30 31612 C 2893.05 3.28946 3.95346 0
M  V30 31613 N 2891.03 4.3391 4.34275 0
M  V30 31614 C 2892.4 4.51606 4.24797 0
M  V30 31615 C 2894.46 3.24162 3.7792 0
M  V30 31616 C 2893.16 5.70081 4.38635 0
M  V30 31617 C 2895.19 4.41949 3.92983 0
M  V30 31618 C 2894.55 5.63386 4.22819 0
M  V30 31619 H 2890.65 0.261508 0.736979 0
M  V30 31620 H 2893.23 1.1937 1.53814 0
M  V30 31621 H 2891.4 0.252197 3.8758 0
M  V30 31622 H 2893.13 0.452229 4.02165 0
M  V30 31623 H 2889.89 2.47132 4.04008 0
M  V30 31624 H 2890.31 5.05016 4.50874 0
M  V30 31625 H 2894.95 2.31343 3.53893 0
M  V30 31626 H 2892.67 6.63366 4.61488 0
M  V30 31627 H 2896.26 4.39764 3.80919 0
M  V30 31628 H 2895.14 6.53009 4.34223 0
M  V30 31629 N 2892.64 -1.41564 0.692641 0
M  V30 31630 C 2893.92 -1.9502 0.15053 0
M  V30 31631 C 2894.3 -1.63217 -1.33878 0
M  V30 31632 O 2893.65 -0.937635 -2.08376 0
M  V30 31633 C 2893.86 -3.46232 0.438697 0
M  V30 31634 C 2895.2 -4.2303 0.364852 0
M  V30 31635 O 2896.23 -3.54237 0.373445 0
M  V30 31636 O 2895.09 -5.45548 0.322436 0
M  V30 31637 H 2892.18 -0.826894 0.0132599 0
M  V30 31638 H 2894.73 -1.51296 0.7686 0
M  V30 31639 H 2893.5 -3.62651 1.46969 0
M  V30 31640 H 2893.12 -3.97042 -0.210493 0
M  V30 31641 N 2894.12 -0.437188 -1.51415 0
M  V30 31642 C 2895.54 -0.0894739 -1.59349 0
M  V30 31643 C 2895.74 1.40113 -1.44812 0
M  V30 31644 O 2894.79 2.17104 -1.28928 0
M  V30 31645 C 2896.1 -0.609449 -2.94459 0
M  V30 31646 C 2897.65 -0.569878 -3.07768 0
M  V30 31647 C 2898.13 -1.06683 -4.45402 0
M  V30 31648 N 2899.62 -1.02481 -4.51721 0
M  V30 31649 C 2900.35 -1.38019 -5.56541 0
M  V30 31650 N 2899.85 -1.80843 -6.68781 0
M  V30 31651 N 2901.64 -1.29837 -5.46899 0
M  V30 31652 H 2893.79 -1.40705 -1.59109 0
M  V30 31653 H 2896.06 -0.579804 -0.750021 0
M  V30 31654 H 2895.76 -1.65237 -3.10467 0
M  V30 31655 H 2895.64 -0.0342899 -3.77184 0
M  V30 31656 H 2898.02 0.464056 -2.91428 0
M  V30 31657 H 2898.1 -1.18144 -2.26883 0
M  V30 31658 H 2897.75 -2.09922 -4.62488 0
M  V30 31659 H 2897.68 -0.431805 -5.24827 0
M  V30 31660 H 2900.17 -0.710323 -3.71164 0
M  V30 31661 H 2900.48 -2.06198 -7.44783 0
M  V30 31662 H 2898.83 -1.84769 -6.69989 0
M  V30 31663 H 2902.02 -0.962478 -4.58098 0
M  V30 31664 H 2902.19 -1.57862 -6.28477 0
M  V30 31665 N 2895.6 1.56696 -0.168541 0
M  V30 31666 C 2896.85 1.95974 0.477198 0
M  V30 31667 C 2897.16 1.05707 1.64576 0
M  V30 31668 O 2898.37 1.34654 2.35755 0
M  V30 31669 C 2896.82 3.48456 0.900352 0
M  V30 31670 C 2896.43 4.47343 -0.242461 0
M  V30 31671 C 2898.17 3.96558 1.51467 0
M  V30 31672 C 2896.08 5.91061 0.200168 0
M  V30 31673 H 2895.01 0.731693 0.182048 0
M  V30 31674 H 2897.66 1.81701 -0.256329 0
M  V30 31675 H 2896.04 3.58138 1.68978 0
M  V30 31676 H 2897.22 4.49375 -1.01975 0
M  V30 31677 H 2895.53 4.09283 -0.766555 0
M  V30 31678 H 2898.13 5.01387 1.85783 0
M  V30 31679 H 2898.47 3.39336 2.41157 0
M  V30 31680 H 2899.01 3.89882 0.789733 0
M  V30 31681 H 2895.74 6.5215 -0.661889 0
M  V30 31682 H 2895.26 5.92343 0.942875 0
M  V30 31683 H 2896.94 6.43777 0.644975 0
M  V30 31684 N 2897.08 -0.105193 1.57249 0
M  V30 31685 C 2898.02 -1.14725 2.02339 0
M  V30 31686 C 2899.02 -1.42067 0.922677 0
M  V30 31687 O 2900.22 -1.41867 1.10787 0
M  V30 31688 H 2896.6 -0.387144 0.644689 0
M  V30 31689 H 2898.57 -0.740556 2.89065 0
M  V30 31690 C 2897.32 -2.46205 2.45517 0
M  V30 31691 H 2896.64 -2.26007 3.29789 0
M  V30 31692 H 2898.08 -3.17645 2.80852 0
M  V30 31693 C 2896.54 -3.09778 1.32435 0
M  V30 31694 O 2897.07 -3.9644 0.64791 0
M  V30 31695 N 2895.28 -2.6987 1.07789 0
M  V30 31696 H 2894.82 -1.9949 1.62977 0
M  V30 31697 H 2894.78 -3.12734 0.323259 0
M  V30 31698 N 2898.55 -1.53055 -0.375752 0
M  V30 31699 C 2899.97 -1.42601 -0.716739 0
M  V30 31700 C 2900.17 -0.556965 -1.9365 0
M  V30 31701 O 2899.23 -0.0354904 -2.52475 0
M  V30 31702 C 2900.54 -2.85648 -0.939449 0
M  V30 31703 C 2902.09 -2.95213 -1.0401 0
M  V30 31704 C 2902.56 -4.393 -1.29535 0
M  V30 31705 N 2904.05 -4.42684 -1.36327 0
M  V30 31706 C 2904.79 -5.51268 -1.57768 0
M  V30 31707 N 2904.28 -6.69916 -1.76592 0
M  V30 31708 N 2906.08 -5.38831 -1.60055 0
M  V30 31709 H 2898.23 -2.0807 0.426677 0
M  V30 31710 H 2900.49 -0.939213 0.128775 0
M  V30 31711 H 2900.2 -3.51512 -0.115127 0
M  V30 31712 H 2900.07 -3.28693 -1.85042 0
M  V30 31713 H 2902.46 -2.2951 -1.85497 0
M  V30 31714 H 2902.54 -2.55577 -0.106741 0
M  V30 31715 H 2902.18 -5.05574 -0.485522 0
M  V30 31716 H 2902.11 -4.765 -2.24176 0
M  V30 31717 H 2904.6 -3.57173 -1.23435 0
M  V30 31718 H 2904.92 -7.48442 -1.92497 0
M  V30 31719 H 2903.26 -6.7292 -1.7379 0
M  V30 31720 H 2906.45 -4.45105 -1.44909 0
M  V30 31721 H 2906.63 -6.23521 -1.76424 0
M  V30 31722 N 2900.03 0.634971 -1.44242 0
M  V30 31723 C 2900.97 1.75982 -1.45278 0
M  V30 31724 C 2901.94 1.59578 -0.312053 0
M  V30 31725 O 2903.13 1.81513 -0.508441 0
M  V30 31726 C 2900.25 3.13509 -1.28178 0
M  V30 31727 C 2899.3 3.48572 -2.45764 0
M  V30 31728 S 2900.13 3.46485 -4.08299 0
M  V30 31729 C 2901.29 4.86639 -3.93616 0
M  V30 31730 H 2901.52 1.74836 -2.40457 0
M  V30 31731 H 2899.06 0.809244 -1.31494 0
M  V30 31732 H 2901.01 3.92873 -1.19 0
M  V30 31733 H 2899.67 3.12198 -0.345165 0
M  V30 31734 H 2898.87 4.48638 -2.29652 0
M  V30 31735 H 2898.47 2.76663 -2.51662 0
M  V30 31736 H 2900.76 5.75767 -3.57069 0
M  V30 31737 H 2901.7 5.07804 -4.93499 0
M  V30 31738 H 2902.11 4.61032 -3.25745 0
M  V30 31739 N 2901.51 1.31076 0.875027 0
M  V30 31740 C 2902.74 1.23243 1.65815 0
M  V30 31741 C 2903.15 -0.205503 1.88081 0
M  V30 31742 O 2902.49 -1.14626 1.4355 0
M  V30 31743 C 2902.55 1.90098 3.05128 0
M  V30 31744 C 2902.22 3.39437 3.05993 0
M  V30 31745 C 2903.21 4.35268 2.84321 0
M  V30 31746 C 2900.9 3.81047 3.27274 0
M  V30 31747 C 2902.89 5.70683 2.83902 0
M  V30 31748 C 2900.58 5.16577 3.26484 0
M  V30 31749 C 2901.58 6.11205 3.04824 0
M  V30 31750 O 2901.27 7.44257 3.03869 0
M  V30 31751 H 2901 0.427252 0.523863 0
M  V30 31752 H 2903.55 1.73409 1.10083 0
M  V30 31753 H 2901.78 1.34474 3.62565 0
M  V30 31754 H 2903.47 1.76249 3.65638 0
M  V30 31755 H 2904.24 4.0445 2.67666 0
M  V30 31756 H 2900.12 3.07828 3.43166 0
M  V30 31757 H 2903.66 6.44517 2.66914 0
M  V30 31758 H 2899.56 5.47031 3.42677 0
M  V30 31759 H 2900.33 7.53369 3.19966 0
M  V30 31760 N 2902.99 -1.08867 1.13955 0
M  V30 31761 C 2904.21 -1.85451 0.928592 0
M  V30 31762 C 2904.64 -1.80838 -0.51761 0
M  V30 31763 O 2904 -1.19003 -1.36777 0
M  V30 31764 C 2904.04 -3.31111 1.4282 0
M  V30 31765 O 2903.15 -4.07755 0.617201 0
M  V30 31766 H 2902.49 -0.574833 0.33236 0
M  V30 31767 H 2905.02 -1.3744 1.51563 0
M  V30 31768 H 2905.03 -3.81957 1.43432 0
M  V30 31769 H 2903.7 -3.33784 2.48115 0
M  V30 31770 H 2902.28 -3.66658 0.67943 0
M  V30 31771 N 2904.47 -0.933936 -1.26946 0
M  V30 31772 C 2905.74 -0.495817 -1.89212 0
M  V30 31773 C 2906.12 1.02634 -1.84471 0
M  V30 31774 O 2905.47 1.88321 -1.29412 0
M  V30 31775 C 2905.68 -1.04896 -3.32863 0
M  V30 31776 C 2907.03 -1.11322 -4.09747 0
M  V30 31777 O 2908.05 -0.999026 -3.41903 0
M  V30 31778 O 2906.91 -1.28992 -5.31059 0
M  V30 31779 H 2904.01 -0.160473 -0.811281 0
M  V30 31780 H 2906.55 -1.02603 -1.35169 0
M  V30 31781 H 2905.32 -2.09271 -3.30638 0
M  V30 31782 H 2904.95 -0.500761 -3.94434 0
M  V30 31783 N 2905.94 1.41194 -0.700139 0
M  V30 31784 C 2907.36 1.55201 -0.372142 0
M  V30 31785 C 2907.56 1.67472 1.1205 0
M  V30 31786 O 2906.62 1.65569 1.90639 0
M  V30 31787 C 2907.93 2.78876 -1.12467 0
M  V30 31788 C 2909.48 2.92677 -1.10946 0
M  V30 31789 C 2909.95 4.19245 -1.84383 0
M  V30 31790 N 2911.44 4.26213 -1.81375 0
M  V30 31791 C 2912.18 5.23017 -2.35033 0
M  V30 31792 N 2911.67 6.25824 -2.97181 0
M  V30 31793 N 2913.47 5.14988 -2.25263 0
M  V30 31794 H 2905.62 1.31474 -1.66818 0
M  V30 31795 H 2907.88 0.634632 -0.704235 0
M  V30 31796 H 2907.59 2.76033 -2.17942 0
M  V30 31797 H 2907.46 3.7053 -0.706217 0
M  V30 31798 H 2909.85 2.95033 -0.0629628 0
M  V30 31799 H 2909.93 2.02184 -1.56701 0
M  V30 31800 H 2909.57 4.17651 -2.89015 0
M  V30 31801 H 2909.5 5.08719 -1.36059 0
M  V30 31802 H 2911.99 3.52553 -1.36069 0
M  V30 31803 H 2912.31 6.96088 -3.3568 0
M  V30 31804 H 2910.65 6.26312 -3.0126 0
M  V30 31805 H 2913.84 4.33599 -1.76379 0
M  V30 31806 H 2914.02 5.90263 -2.67383 0
M  V30 31807 N 2907.42 0.445212 1.51181 0
M  V30 31808 C 2908.37 -0.36225 2.27939 0
M  V30 31809 C 2909.34 -1.00998 1.31866 0
M  V30 31810 O 2910.52 -1.02738 1.60778 0
M  V30 31811 C 2907.66 -1.45305 3.13018 0
M  V30 31812 C 2906.78 -0.822682 4.24094 0
M  V30 31813 C 2905.91 -1.8892 4.9647 0
M  V30 31814 C 2904.95 -1.23768 5.99456 0
M  V30 31815 N 2904.09 -2.2459 6.6521 0
M  V30 31816 H 2908.93 0.298672 2.96499 0
M  V30 31817 H 2906.47 0.159136 1.46237 0
M  V30 31818 H 2908.42 -2.09686 3.60677 0
M  V30 31819 H 2907.05 -2.0835 2.46557 0
M  V30 31820 H 2906.11 -0.0669696 3.80341 0
M  V30 31821 H 2907.42 -0.307096 4.97854 0
M  V30 31822 H 2906.57 -2.60943 5.47717 0
M  V30 31823 H 2905.31 -2.43853 4.22359 0
M  V30 31824 H 2904.32 -0.502945 5.47495 0
M  V30 31825 H 2905.54 -0.695575 6.75528 0
M  V30 31826 H 2903.49 -2.78589 5.93906 0
M  V30 31827 H 2903.4 -1.77945 7.3476 0
M  V30 31828 H 2904.67 -2.96073 7.21083 0
M  V30 31829 N 2908.9 -1.56605 0.176849 0
M  V30 31830 C 2910.15 -1.9666 -0.465758 0
M  V30 31831 C 2910.47 -1.06415 -1.63404 0
M  V30 31832 O 2909.74 -0.131637 -1.95457 0
M  V30 31833 H 2908.32 -0.726198 -0.175059 0
M  V30 31834 H 2910.98 -1.93167 0.259323 0
M  V30 31835 H 2910.08 -3.01078 -0.822085 0
M  V30 31836 N 2910.38 0.0968524 -1.57302 0
M  V30 31837 C 2911.62 0.806301 -1.87825 0
M  V30 31838 C 2911.98 1.75987 -0.767624 0
M  V30 31839 O 2913.18 2.51255 -0.955217 0
M  V30 31840 C 2911.45 1.51743 -3.23587 0
M  V30 31841 S 2913.01 2.26541 -3.75799 0
M  V30 31842 H 2909.83 0.268665 -0.658286 0
M  V30 31843 H 2912.43 0.0635132 -1.95397 0
M  V30 31844 H 2911.14 0.809278 -4.02342 0
M  V30 31845 H 2910.67 2.30016 -3.19149 0
M  V30 31846 H 2912.68 3.5265 -3.49074 0
M  V30 31847 N 2911.86 1.53252 0.36763 0
M  V30 31848 C 2913.1 1.69335 1.11049 0
M  V30 31849 C 2913.43 0.444097 1.89362 0
M  V30 31850 O 2912.69 -0.57392 1.87095 0
M  V30 31851 C 2912.99 2.89328 2.09819 0
M  V30 31852 C 2912.65 4.25918 1.48002 0
M  V30 31853 C 2911.31 4.63062 1.30871 0
M  V30 31854 C 2913.67 5.10869 1.03259 0
M  V30 31855 C 2910.99 5.82795 0.675766 0
M  V30 31856 C 2913.35 6.31246 0.413659 0
M  V30 31857 C 2912.01 6.67104 0.229821 0
M  V30 31858 H 2911.28 0.619641 0.406357 0
M  V30 31859 H 2913.93 1.87434 0.392525 0
M  V30 31860 H 2912.23 2.65733 2.87912 0
M  V30 31861 H 2913.93 2.98965 2.67246 0
M  V30 31862 H 2910.52 3.9667 1.62329 0
M  V30 31863 H 2914.7 4.82724 1.15288 0
M  V30 31864 H 2909.96 6.0917 0.521726 0
M  V30 31865 H 2914.13 6.96375 0.0587544 0
M  V30 31866 H 2911.76 7.59746 -0.262696 0
M  V30 31867 N 2913.34 -0.627313 1.44577 0
M  V30 31868 C 2914.61 -1.38584 1.38036 0
M  V30 31869 C 2914.99 -2.1106 0.0409839 0
M  V30 31870 O 2914.34 -2.06581 -0.976546 0
M  V30 31871 C 2914.55 -2.34909 2.58106 0
M  V30 31872 C 2915.9 -2.98123 3.02337 0
M  V30 31873 O 2916.92 -2.45234 2.58339 0
M  V30 31874 O 2915.78 -3.94078 3.78635 0
M  V30 31875 H 2912.88 -0.620424 0.546811 0
M  V30 31876 H 2915.42 -0.652049 1.56673 0
M  V30 31877 H 2914.19 -1.80479 3.47193 0
M  V30 31878 H 2913.82 -3.15699 2.41702 0
M  V30 31879 N 2914.81 -1.31539 -0.868063 0
M  V30 31880 C 2916.23 -1.10237 -1.15412 0
M  V30 31881 C 2916.43 0.125912 -2.01106 0
M  V30 31882 O 2915.49 0.814691 -2.38996 0
M  V30 31883 C 2916.8 -2.37491 -1.84441 0
M  V30 31884 C 2918.35 -2.43119 -1.97134 0
M  V30 31885 C 2918.82 -3.70259 -2.69578 0
M  V30 31886 N 2920.31 -3.71164 -2.77113 0
M  V30 31887 C 2921.05 -4.66236 -3.33783 0
M  V30 31888 N 2920.54 -5.71666 -3.9137 0
M  V30 31889 N 2922.34 -4.53753 -3.31759 0
M  V30 31890 H 2914.49 -2.10312 -0.297072 0
M  V30 31891 H 2916.75 -0.927893 -0.194211 0
M  V30 31892 H 2916.46 -3.27218 -1.28924 0
M  V30 31893 H 2916.33 -2.47433 -2.84704 0
M  V30 31894 H 2918.72 -1.5386 -2.51815 0
M  V30 31895 H 2918.8 -2.3714 -0.959078 0
M  V30 31896 H 2918.44 -4.59885 -2.15564 0
M  V30 31897 H 2918.37 -3.73505 -3.71216 0
M  V30 31898 H 2920.86 -2.94953 -2.36244 0
M  V30 31899 H 2921.18 -6.40286 -4.32729 0
M  V30 31900 H 2919.52 -5.75437 -3.8974 0
M  V30 31901 H 2922.71 -3.70562 -2.8601 0
M  V30 31902 H 2922.89 -5.28023 -3.75627 0
M  V30 31903 N 2916.29 1.08262 -1.1453 0
M  V30 31904 C 2917.25 2.13396 -0.836357 0
M  V30 31905 C 2918.25 1.60005 0.159687 0
M  V30 31906 O 2919.44 1.74064 -0.0688404 0
M  V30 31907 C 2916.58 3.40004 -0.247032 0
M  V30 31908 H 2917.77 2.42234 -1.76813 0
M  V30 31909 H 2915.32 1.23998 -0.951531 0
M  V30 31910 H 2916.06 3.16801 0.69338 0
M  V30 31911 H 2915.84 3.80053 -0.964479 0
M  V30 31912 H 2917.33 4.17572 -0.0481413 0
M  V30 31913 N 2917.77 0.940655 1.26449 0
M  V30 31914 C 2918.7 0.394134 2.24771 0
M  V30 31915 C 2919.68 -0.516754 1.5417 0
M  V30 31916 O 2920.86 -0.45432 1.82943 0
M  V30 31917 C 2917.99 -0.433748 3.35911 0
M  V30 31918 C 2917.04 0.415538 4.24471 0
M  V30 31919 S 2917.87 1.83916 5.02927 0
M  V30 31920 C 2919.03 1.01932 6.17544 0
M  V30 31921 H 2919.26 1.22741 2.7078 0
M  V30 31922 H 2916.79 0.743733 1.35307 0
M  V30 31923 H 2918.75 -0.905506 4.00388 0
M  V30 31924 H 2917.41 -1.2417 2.88515 0
M  V30 31925 H 2916.6 -0.218745 5.03525 0
M  V30 31926 H 2916.21 0.821962 3.64856 0
M  V30 31927 H 2918.5 0.261346 6.76996 0
M  V30 31928 H 2919.44 1.7833 6.85277 0
M  V30 31929 H 2919.85 0.555609 5.61759 0
M  V30 31930 N 2919.25 -1.40821 0.707617 0
M  V30 31931 C 2920.16 -2.34545 0.0507658 0
M  V30 31932 C 2921.17 -1.56877 -0.7527 0
M  V30 31933 O 2922.35 -1.89303 -0.687491 0
M  V30 31934 C 2919.41 -3.35719 -0.865672 0
M  V30 31935 C 2918.48 -4.29267 -0.0530559 0
M  V30 31936 C 2917.71 -5.25608 -0.925846 0
M  V30 31937 O 2917.93 -5.27707 -2.16521 0
M  V30 31938 O 2916.87 -6.00767 -0.369088 0
M  V30 31939 H 2920.69 -2.92318 0.823639 0
M  V30 31940 H 2918.28 -1.4188 0.468035 0
M  V30 31941 H 2920.16 -3.97786 -1.39084 0
M  V30 31942 H 2918.83 -2.80371 -1.61783 0
M  V30 31943 H 2917.74 -3.7051 0.516996 0
M  V30 31944 H 2919.07 -4.87745 0.660702 0
M  V30 31945 N 2920.73 -0.453223 -1.50943 0
M  V30 31946 C 2921.64 0.355922 -2.31884 0
M  V30 31947 C 2922.65 1.01285 -1.41483 0
M  V30 31948 O 2923.83 1.00474 -1.74548 0
M  V30 31949 C 2920.89 1.43363 -3.15671 0
M  V30 31950 C 2919.95 0.795179 -4.21871 0
M  V30 31951 C 2919.19 1.82153 -5.01653 0
M  V30 31952 O 2919.41 3.04583 -4.82271 0
M  V30 31953 O 2918.34 1.40325 -5.85314 0
M  V30 31954 H 2922.17 -0.305301 -3.02162 0
M  V30 31955 H 2919.75 -0.215424 -1.47839 0
M  V30 31956 H 2921.64 2.05829 -3.67712 0
M  V30 31957 H 2920.31 2.07865 -2.48141 0
M  V30 31958 H 2919.22 0.13204 -3.73867 0
M  V30 31959 H 2920.55 0.193398 -4.9182 0
M  V30 31960 N 2922.2 1.56509 -0.185151 0
M  V30 31961 C 2923.45 1.98352 0.450321 0
M  V30 31962 C 2923.8 1.06972 1.59921 0
M  V30 31963 O 2923.1 0.112118 1.91272 0
M  V30 31964 C 2923.29 3.44044 0.967916 0
M  V30 31965 C 2923.12 4.49514 -0.129287 0
M  V30 31966 C 2921.89 5.01919 -0.583598 0
M  V30 31967 C 2924.09 5.05735 -0.934679 0
M  V30 31968 N 2922.07 5.9104 -1.65966 0
M  V30 31969 C 2923.44 5.91431 -1.86036 0
M  V30 31970 C 2925.5 4.88196 -0.97821 0
M  V30 31971 C 2924.2 6.61463 -2.82593 0
M  V30 31972 C 2926.23 5.5896 -1.93179 0
M  V30 31973 C 2925.59 6.44394 -2.84493 0
M  V30 31974 H 2921.69 0.770695 0.13249 0
M  V30 31975 H 2924.27 1.9255 -0.288556 0
M  V30 31976 H 2922.44 3.50365 1.67627 0
M  V30 31977 H 2924.17 3.72872 1.57317 0
M  V30 31978 H 2920.93 4.73263 -0.178759 0
M  V30 31979 H 2921.35 6.40305 -2.1986 0
M  V30 31980 H 2925.99 4.2183 -0.286243 0
M  V30 31981 H 2923.71 7.27034 -3.52771 0
M  V30 31982 H 2927.3 5.47369 -1.97175 0
M  V30 31983 H 2926.18 6.98187 -3.57077 0
M  V30 31984 N 2923.68 -0.0885089 1.57351 0
M  V30 31985 C 2925.1 -0.442889 1.53332 0
M  V30 31986 C 2925.3 -1.80141 0.902863 0
M  V30 31987 O 2924.35 -2.47536 0.498191 0
M  V30 31988 C 2925.67 -0.399319 2.98037 0
M  V30 31989 C 2927.21 -0.480705 3.09287 0
M  V30 31990 C 2927.69 -0.467216 4.55611 0
M  V30 31991 N 2929.18 -0.527779 4.60183 0
M  V30 31992 C 2929.92 -0.539287 5.70858 0
M  V30 31993 N 2929.41 -0.506608 6.90945 0
M  V30 31994 N 2931.2 -0.584593 5.59052 0
M  V30 31995 H 2923.36 0.801249 1.96707 0
M  V30 31996 H 2925.62 0.298938 0.899633 0
M  V30 31997 H 2925.32 0.531867 3.47655 0
M  V30 31998 H 2925.2 -1.21583 3.57068 0
M  V30 31999 H 2927.59 -1.40231 2.59652 0
M  V30 32000 H 2927.67 0.364067 2.53196 0
M  V30 32001 H 2927.31 0.450473 5.05898 0
M  V30 32002 H 2927.24 -1.32929 5.09546 0
M  V30 32003 H 2929.73 -0.557963 3.73758 0
M  V30 32004 H 2930.04 -0.518854 7.71056 0
M  V30 32005 H 2928.39 -0.473554 6.93385 0
M  V30 32006 H 2931.58 -0.607699 4.64139 0
M  V30 32007 H 2931.75 -0.590093 6.45308 0
M  V30 32008 N 2925.16 -1.53445 -0.359498 0
M  V30 32009 C 2926.09 -1.76604 -1.46095 0
M  V30 32010 C 2927.1 -0.646939 -1.49394 0
M  V30 32011 O 2928.29 -0.923334 -1.52764 0
M  V30 32012 C 2925.39 -1.8364 -2.84832 0
M  V30 32013 C 2924.57 -3.13364 -3.05159 0
M  V30 32014 C 2923.63 -3.11563 -4.24046 0
M  V30 32015 O 2922.65 -3.85342 -4.18928 0
M  V30 32016 N 2923.85 -2.32809 -5.31771 0
M  V30 32017 H 2926.62 -2.71646 -1.26605 0
M  V30 32018 H 2924.18 -1.52298 -0.549267 0
M  V30 32019 H 2926.17 -1.79906 -3.62513 0
M  V30 32020 H 2924.74 -0.958562 -2.97541 0
M  V30 32021 H 2923.96 -3.30351 -2.15085 0
M  V30 32022 H 2925.25 -3.99082 -3.15612 0
M  V30 32023 H 2924.65 -1.7239 -5.38793 0
M  V30 32024 H 2923.2 -2.34888 -6.08006 0
M  V30 32025 N 2926.64 0.619637 -1.44908 0
M  V30 32026 C 2927.88 1.37895 -1.48294 0
M  V30 32027 C 2928.21 1.9413 -0.119967 0
M  V30 32028 O 2927.47 1.74808 0.879804 0
M  V30 32029 C 2927.77 2.55404 -2.50007 0
M  V30 32030 C 2927.43 2.1739 -3.95035 0
M  V30 32031 C 2926.09 2.06736 -4.34527 0
M  V30 32032 C 2928.45 1.87539 -4.8629 0
M  V30 32033 C 2925.77 1.64436 -5.63185 0
M  V30 32034 C 2928.13 1.46729 -6.15348 0
M  V30 32035 C 2926.79 1.34624 -6.53783 0
M  V30 32036 H 2926.06 0.504594 -0.542647 0
M  V30 32037 H 2928.71 0.70155 -1.78187 0
M  V30 32038 H 2927.01 3.28429 -2.13639 0
M  V30 32039 H 2928.71 3.13634 -2.49869 0
M  V30 32040 H 2925.3 2.26604 -3.63797 0
M  V30 32041 H 2929.48 1.94674 -4.56526 0
M  V30 32042 H 2924.74 1.53677 -5.91771 0
M  V30 32043 H 2928.91 1.22673 -6.8551 0
M  V30 32044 H 2926.54 1.01621 -7.53377 0
M  V30 32045 N 2928.12 1.31997 0.861075 0
M  V30 32046 C 2929.07 1.16983 1.95701 0
M  V30 32047 C 2930.05 0.0784483 1.60709 0
M  V30 32048 O 2931.24 0.304293 1.74365 0
M  V30 32049 C 2928.37 0.888446 3.31604 0
M  V30 32050 C 2927.46 2.02123 3.72836 0
M  V30 32051 N 2927.85 3.26918 3.85951 0
M  V30 32052 C 2926.15 1.92296 4.02415 0
M  V30 32053 C 2926.85 4.01072 4.21326 0
M  V30 32054 N 2925.82 3.29315 4.32496 0
M  V30 32055 H 2929.63 2.11602 2.03965 0
M  V30 32056 H 2927.14 1.23684 1.05243 0
M  V30 32057 H 2929.14 0.761854 4.0988 0
M  V30 32058 H 2927.8 -0.0494328 3.24662 0
M  V30 32059 H 2928.81 3.6193 3.70442 0
M  V30 32060 H 2925.48 1.0603 4.03812 0
M  V30 32061 H 2926.87 5.08657 4.38996 0
M  V30 32062 N 2929.59 -1.07653 1.15103 0
M  V30 32063 C 2930.83 -1.81787 0.934494 0
M  V30 32064 C 2931.2 -1.84567 -0.529068 0
M  V30 32065 O 2932.4 -2.54542 -0.863824 0
M  V30 32066 C 2930.67 -3.23079 1.52823 0
M  V30 32067 S 2932.23 -4.13997 1.45437 0
M  V30 32068 H 2929.05 -0.626389 0.33639 0
M  V30 32069 H 2931.65 -1.29345 1.46595 0
M  V30 32070 H 2930.35 -3.18643 2.58641 0
M  V30 32071 H 2929.88 -3.80596 0.995499 0
M  V30 32072 H 2931.9 -4.94199 0.445145 0
M  V30 32073 N 2931.07 -0.947348 -1.25949 0
M  V30 32074 C 2932.35 -0.515857 -1.88675 0
M  V30 32075 C 2932.73 1.00671 -1.85549 0
M  V30 32076 O 2932.08 1.86938 -1.31402 0
M  V30 32077 C 2932.29 -1.08421 -3.31732 0
M  V30 32078 C 2933.64 -1.15662 -4.08543 0
M  V30 32079 O 2934.66 -1.03523 -3.40825 0
M  V30 32080 O 2933.52 -1.34617 -5.29661 0
M  V30 32081 H 2930.61 -0.169069 -0.809534 0
M  V30 32082 H 2933.16 -1.04031 -1.34073 0
M  V30 32083 H 2931.93 -2.12766 -3.284 0
M  V30 32084 H 2931.55 -0.542568 -3.93881 0
M  V30 32085 N 2932.55 1.40444 -0.715075 0
M  V30 32086 C 2933.48 2.33373 -0.0769109 0
M  V30 32087 C 2934.46 1.52865 0.746082 0
M  V30 32088 O 2935.65 1.81334 0.69511 0
M  V30 32089 C 2932.78 3.3684 0.845955 0
M  V30 32090 C 2931.73 4.27807 0.128619 0
M  V30 32091 C 2931.06 5.21806 1.16716 0
M  V30 32092 C 2932.36 5.12305 -1.01688 0
M  V30 32093 H 2934.05 2.86988 -0.853112 0
M  V30 32094 H 2931.6 1.37989 -0.411694 0
M  V30 32095 H 2933.55 4.00789 1.30178 0
M  V30 32096 H 2932.27 2.81618 1.65405 0
M  V30 32097 H 2930.93 3.65309 -0.307378 0
M  V30 32098 H 2930.58 4.6289 1.96829 0
M  V30 32099 H 2930.28 5.8351 0.692085 0
M  V30 32100 H 2931.8 5.88632 1.6231 0
M  V30 32101 H 2933.22 5.69712 -0.640437 0
M  V30 32102 H 2931.62 5.8305 -1.4203 0
M  V30 32103 H 2932.69 4.48314 -1.84777 0
M  V30 32104 N 2934.03 0.461222 1.507 0
M  V30 32105 C 2934.98 -0.352191 2.29918 0
M  V30 32106 C 2935.97 -0.999379 1.3678 0
M  V30 32107 O 2937.18 -0.931612 1.54016 0
M  V30 32108 H 2933.55 -0.13241 0.740251 0
M  V30 32109 H 2935.52 0.336477 2.96497 0
M  V30 32110 C 2934.27 -1.4273 3.17054 0
M  V30 32111 H 2933.59 -0.938678 3.88624 0
M  V30 32112 H 2935.03 -1.96922 3.75497 0
M  V30 32113 C 2933.49 -2.4238 2.33995 0
M  V30 32114 O 2934.02 -3.4744 2.01614 0
M  V30 32115 N 2932.23 -2.13853 1.96761 0
M  V30 32116 H 2931.78 -1.28443 2.23294 0
M  V30 32117 H 2931.73 -2.80764 1.41489 0
M  V30 32118 N 2935.51 -1.56408 0.193449 0
M  V30 32119 C 2936.78 -1.89278 -0.493284 0
M  V30 32120 C 2937.16 -1.10673 -1.79763 0
M  V30 32121 O 2936.51 -0.207314 -2.27558 0
M  V30 32122 C 2936.72 -3.41625 -0.713672 0
M  V30 32123 C 2938.07 -4.11823 -1.03378 0
M  V30 32124 O 2939.09 -3.47067 -0.80145 0
M  V30 32125 O 2937.95 -5.2627 -1.47318 0
M  V30 32126 H 2935.05 -0.786067 -0.25696 0
M  V30 32127 H 2937.59 -1.68085 0.233539 0
M  V30 32128 H 2936.36 -3.90749 0.207514 0
M  V30 32129 H 2935.99 -3.68504 -1.49301 0
M  V30 32130 N 2936.98 0.0801629 -1.57396 0
M  V30 32131 C 2937.91 1.09662 -2.06147 0
M  V30 32132 C 2938.9 1.40877 -0.953298 0
M  V30 32133 O 2940.08 1.50649 -1.2255 0
M  V30 32134 C 2937.21 2.4124 -2.49841 0
M  V30 32135 C 2936.16 2.24398 -3.64458 0
M  V30 32136 C 2935.49 3.61286 -3.94178 0
M  V30 32137 C 2936.79 1.67214 -4.9481 0
M  V30 32138 H 2938.48 0.690977 -2.91317 0
M  V30 32139 H 2936.03 0.330932 -1.40146 0
M  V30 32140 H 2937.98 3.12633 -2.82557 0
M  V30 32141 H 2936.71 2.83768 -1.61688 0
M  V30 32142 H 2935.37 1.55448 -3.32011 0
M  V30 32143 H 2935.01 4.01369 -3.0317 0
M  V30 32144 H 2934.71 3.50859 -4.71351 0
M  V30 32145 H 2936.24 4.34123 -4.29383 0
M  V30 32146 H 2937.65 2.28463 -5.25811 0
M  V30 32147 H 2936.05 1.67505 -5.76248 0
M  V30 32148 H 2937.12 0.632859 -4.80752 0
M  V30 32149 N 2938.46 1.53634 0.351355 0
M  V30 32150 C 2939.69 1.74431 1.11272 0
M  V30 32151 C 2940.11 0.47983 1.82601 0
M  V30 32152 O 2939.46 -0.548094 1.74075 0
M  V30 32153 C 2939.51 2.91925 2.13218 0
M  V30 32154 O 2939.23 4.13482 1.44791 0
M  V30 32155 C 2940.74 3.24711 3.01791 0
M  V30 32156 H 2937.96 0.583029 0.332142 0
M  V30 32157 H 2940.5 2.00431 0.405939 0
M  V30 32158 H 2938.65 2.68279 2.79473 0
M  V30 32159 H 2939.07 4.79378 2.12831 0
M  V30 32160 H 2940.54 4.10293 3.69275 0
M  V30 32161 H 2941.02 2.4068 3.67383 0
M  V30 32162 H 2941.63 3.50334 2.41135 0
M  V30 32163 N 2939.94 -0.611943 1.45234 0
M  V30 32164 C 2940.87 -1.73664 1.49578 0
M  V30 32165 C 2941.89 -1.58133 0.387015 0
M  V30 32166 O 2943.07 -1.66094 0.653833 0
M  V30 32167 C 2940.17 -3.11614 1.33228 0
M  V30 32168 C 2939.35 -3.53426 2.577 0
M  V30 32169 C 2938.41 -4.70324 2.35971 0
M  V30 32170 O 2937.43 -4.77661 3.09561 0
M  V30 32171 N 2938.63 -5.63302 1.40253 0
M  V30 32172 H 2941.4 -1.70402 2.46542 0
M  V30 32173 H 2938.96 -0.797096 1.40918 0
M  V30 32174 H 2940.95 -3.87566 1.16509 0
M  V30 32175 H 2939.52 -3.09408 0.445565 0
M  V30 32176 H 2938.74 -2.67481 2.89565 0
M  V30 32177 H 2940.03 -3.78118 3.40448 0
M  V30 32178 H 2939.43 -5.60084 0.795121 0
M  V30 32179 H 2937.99 -6.38805 1.29507 0
M  V30 32180 N 2941.42 -1.32452 -0.854063 0
M  V30 32181 C 2942.66 -1.24238 -1.61048 0
M  V30 32182 C 2943.02 0.193843 -1.91421 0
M  V30 32183 O 2942.31 1.13177 -1.54601 0
M  V30 32184 C 2942.51 -2.03592 -2.93743 0
M  V30 32185 C 2942.34 -3.54785 -2.76329 0
M  V30 32186 C 2941.11 -4.24121 -2.7468 0
M  V30 32187 C 2943.3 -4.49424 -2.50045 0
M  V30 32188 N 2941.29 -5.61364 -2.48483 0
M  V30 32189 C 2942.66 -5.74448 -2.33259 0
M  V30 32190 C 2944.71 -4.38675 -2.35518 0
M  V30 32191 C 2943.41 -6.89936 -2.03422 0
M  V30 32192 C 2945.44 -5.53963 -2.07071 0
M  V30 32193 C 2944.8 -6.77986 -1.91086 0
M  V30 32194 H 2940.9 -0.509781 -0.592999 0
M  V30 32195 H 2943.49 -1.66824 -1.00389 0
M  V30 32196 H 2941.66 -1.63351 -3.52379 0
M  V30 32197 H 2943.39 -1.87269 -3.58765 0
M  V30 32198 H 2940.14 -3.76245 -2.8764 0
M  V30 32199 H 2940.57 -6.33669 -2.38311 0
M  V30 32200 H 2945.21 -3.43439 -2.46596 0
M  V30 32201 H 2942.93 -7.85184 -1.91081 0
M  V30 32202 H 2946.51 -5.47573 -1.96608 0
M  V30 32203 H 2945.39 -7.65687 -1.69389 0
M  V30 32204 N 2942.9 1.07041 -1.15672 0
M  V30 32205 C 2944.15 1.7908 -0.92807 0
M  V30 32206 C 2944.46 1.87827 0.545935 0
M  V30 32207 O 2945.67 2.56419 0.892262 0
M  V30 32208 C 2944.12 3.21826 -1.61109 0
M  V30 32209 C 2943.73 3.2127 -3.12233 0
M  V30 32210 C 2945.47 3.98452 -1.46411 0
M  V30 32211 C 2943.38 4.58688 -3.73308 0
M  V30 32212 H 2942.31 0.671169 -0.343582 0
M  V30 32213 H 2944.96 1.2012 -1.38721 0
M  V30 32214 H 2943.34 3.80998 -1.07965 0
M  V30 32215 H 2944.52 2.71724 -3.72159 0
M  V30 32216 H 2942.83 2.58141 -3.26729 0
M  V30 32217 H 2945.43 5.00021 -1.89429 0
M  V30 32218 H 2945.77 4.14256 -0.412023 0
M  V30 32219 H 2946.31 3.45783 -1.96669 0
M  V30 32220 H 2943.04 4.48089 -4.78431 0
M  V30 32221 H 2942.56 5.08459 -3.18166 0
M  V30 32222 H 2944.24 5.27654 -3.74419 0
M  V30 32223 N 2944.38 0.954014 1.25445 0
M  V30 32224 C 2945.6 0.625629 1.97214 0
M  V30 32225 C 2946.02 -0.802138 1.70913 0
M  V30 32226 O 2945.38 -1.53648 0.984809 0
M  V30 32227 C 2945.43 0.874004 3.50775 0
M  V30 32228 O 2945.15 2.24563 3.76169 0
M  V30 32229 C 2946.65 0.557922 4.39775 0
M  V30 32230 H 2943.87 0.234611 0.628648 0
M  V30 32231 H 2946.41 1.27822 1.5963 0
M  V30 32232 H 2944.57 0.267833 3.86473 0
M  V30 32233 H 2944.98 2.3153 4.70632 0
M  V30 32234 H 2946.46 0.782253 5.46429 0
M  V30 32235 H 2946.93 -0.507496 4.36258 0
M  V30 32236 H 2947.54 1.14339 4.09642 0
M  V30 32237 N 2945.85 -1.40063 0.722513 0
M  V30 32238 C 2946.76 -2.34478 0.0756396 0
M  V30 32239 C 2947.78 -1.57667 -0.736018 0
M  V30 32240 O 2948.96 -1.90021 -0.667374 0
M  V30 32241 C 2946.02 -3.36618 -0.830015 0
M  V30 32242 C 2945.08 -4.29299 -0.00752338 0
M  V30 32243 C 2944.31 -5.2656 -0.870046 0
M  V30 32244 O 2944.54 -5.29974 -2.10912 0
M  V30 32245 O 2943.47 -6.01125 -0.305348 0
M  V30 32246 H 2947.3 -2.91428 0.854597 0
M  V30 32247 H 2944.88 -1.41375 0.483057 0
M  V30 32248 H 2946.76 -3.99239 -1.34857 0
M  V30 32249 H 2945.44 -2.82071 -1.588 0
M  V30 32250 H 2944.35 -3.69941 0.556264 0
M  V30 32251 H 2945.68 -4.87017 0.712397 0
M  V30 32252 N 2947.33 -0.469207 -1.50453 0
M  V30 32253 C 2948.29 0.314603 -2.27031 0
M  V30 32254 C 2949.29 0.922088 -1.31735 0
M  V30 32255 O 2950.48 0.791561 -1.55177 0
M  V30 32256 C 2947.62 1.448 -3.08619 0
M  V30 32257 H 2948.81 -0.356944 -2.97768 0
M  V30 32258 H 2946.36 -0.223218 -1.54698 0
M  V30 32259 H 2947.1 2.15466 -2.42373 0
M  V30 32260 H 2946.88 1.01823 -3.78648 0
M  V30 32261 H 2948.37 2.00097 -3.66539 0
M  V30 32262 N 2948.81 1.56303 -0.201741 0
M  V30 32263 C 2949.72 2.2301 0.728256 0
M  V30 32264 C 2950.74 1.2313 1.22943 0
M  V30 32265 O 2951.91 1.55886 1.2752 0
M  V30 32266 C 2948.98 2.88157 1.92787 0
M  V30 32267 C 2948.04 4.03326 1.47061 0
M  V30 32268 C 2947.27 4.65356 2.61304 0
M  V30 32269 O 2947.49 4.26323 3.78952 0
M  V30 32270 O 2946.43 5.54705 2.33637 0
M  V30 32271 H 2950.25 3.03104 0.190113 0
M  V30 32272 H 2947.84 1.49374 0.0278463 0
M  V30 32273 H 2949.72 3.29348 2.62884 0
M  V30 32274 H 2948.4 2.11037 2.45449 0
M  V30 32275 H 2947.3 3.66744 0.738234 0
M  V30 32276 H 2948.64 4.82129 0.990581 0
M  V30 32277 N 2950.29 -0.0718147 1.57436 0
M  V30 32278 C 2951.2 -1.10323 2.07041 0
M  V30 32279 C 2952.21 -1.42398 0.999943 0
M  V30 32280 O 2953.39 -1.52575 1.31464 0
M  V30 32281 C 2950.45 -2.39748 2.50443 0
M  V30 32282 C 2949.52 -2.14644 3.71788 0
M  V30 32283 C 2948.75 -3.37899 4.1311 0
M  V30 32284 O 2948.97 -4.47016 3.54306 0
M  V30 32285 O 2947.91 -3.26113 5.05899 0
M  V30 32286 H 2951.73 -0.71182 2.9524 0
M  V30 32287 H 2949.32 -0.285945 1.46638 0
M  V30 32288 H 2951.2 -3.15917 2.78881 0
M  V30 32289 H 2949.87 -2.78269 1.65373 0
M  V30 32290 H 2948.78 -1.36181 3.48433 0
M  V30 32291 H 2950.11 -1.81004 4.5771 0
M  V30 32292 N 2951.77 -1.53818 -0.343203 0
M  V30 32293 C 2952.7 -1.84817 -1.42706 0
M  V30 32294 C 2953.68 -0.703324 -1.54879 0
M  V30 32295 O 2954.86 -0.955267 -1.69081 0
M  V30 32296 C 2951.99 -2.05806 -2.79752 0
M  V30 32297 C 2950.95 -3.21624 -2.82386 0
M  V30 32298 C 2950.27 -3.27947 -4.22321 0
M  V30 32299 C 2951.57 -4.59725 -2.47892 0
M  V30 32300 H 2953.27 -2.75587 -1.17013 0
M  V30 32301 H 2950.81 -1.32603 -0.561462 0
M  V30 32302 H 2952.76 -2.26076 -3.55623 0
M  V30 32303 H 2951.49 -1.11766 -3.06881 0
M  V30 32304 H 2950.15 -3.0121 -2.08968 0
M  V30 32305 H 2949.8 -2.31502 -4.4656 0
M  V30 32306 H 2949.5 -4.05776 -4.24994 0
M  V30 32307 H 2951.02 -3.50428 -5.00033 0
M  V30 32308 H 2952.43 -4.80006 -3.13475 0
M  V30 32309 H 2950.83 -5.39959 -2.61848 0
M  V30 32310 H 2951.9 -4.6331 -1.43079 0
M  V30 32311 N 2953.24 0.604233 -1.45557 0
M  V30 32312 C 2954.17 1.72539 -1.5733 0
M  V30 32313 C 2955.15 1.64714 -0.424666 0
M  V30 32314 O 2956.34 1.83062 -0.648228 0
M  V30 32315 C 2953.47 3.11149 -1.54284 0
M  V30 32316 C 2952.42 3.33788 -2.67899 0
M  V30 32317 C 2951.75 4.72705 -2.49908 0
M  V30 32318 C 2953.05 3.23715 -4.09886 0
M  V30 32319 H 2954.74 1.62942 -2.51177 0
M  V30 32320 H 2952.29 0.782483 -1.20885 0
M  V30 32321 H 2954.24 3.89383 -1.61117 0
M  V30 32322 H 2952.97 3.21593 -0.569684 0
M  V30 32323 H 2951.63 2.57945 -2.60499 0
M  V30 32324 H 2951.27 4.79887 -1.50724 0
M  V30 32325 H 2950.97 4.88807 -3.261 0
M  V30 32326 H 2952.5 5.53135 -2.586 0
M  V30 32327 H 2953.91 3.91819 -4.1851 0
M  V30 32328 H 2952.31 3.51346 -4.86494 0
M  V30 32329 H 2953.38 2.21104 -4.31557 0
M  V30 32330 N 2954.72 1.32903 0.847027 0
M  V30 32331 C 2955.97 1.24081 1.60411 0
M  V30 32332 C 2956.3 -0.195071 1.93218 0
M  V30 32333 O 2955.58 -1.13425 1.58003 0
M  V30 32334 C 2955.86 2.10805 2.91947 0
M  V30 32335 C 2955.71 3.6281 2.65874 0
M  V30 32336 C 2957.03 1.97501 3.93295 0
M  V30 32337 H 2954.15 0.452089 0.582052 0
M  V30 32338 H 2956.79 1.62924 0.977534 0
M  V30 32339 H 2954.94 1.77808 3.45422 0
M  V30 32340 H 2956.61 4.06058 2.18894 0
M  V30 32341 H 2954.86 3.85096 1.99709 0
M  V30 32342 H 2955.53 4.18826 3.59567 0
M  V30 32343 H 2958 2.26423 3.49101 0
M  V30 32344 H 2956.88 2.60446 4.83176 0
M  V30 32345 H 2957.14 0.944858 4.31885 0
M  V30 32346 N 2956.2 -1.06426 1.16238 0
M  V30 32347 C 2957.48 -1.76005 0.853325 0
M  V30 32348 C 2957.86 -2.00872 -0.649127 0
M  V30 32349 O 2957.2 -1.63475 -1.5965 0
M  V30 32350 C 2957.41 -3.06203 1.67454 0
M  V30 32351 C 2958.76 -3.80381 1.88667 0
M  V30 32352 O 2959.79 -3.1604 1.64308 0
M  V30 32353 O 2958.65 -4.95964 2.29526 0
M  V30 32354 H 2955.74 -0.764762 0.314751 0
M  V30 32355 H 2958.29 -1.12706 1.26867 0
M  V30 32356 H 2957.06 -2.8378 2.69416 0
M  V30 32357 H 2956.68 -3.77236 1.25614 0
M  V30 32358 N 2957.68 -0.960653 -1.24937 0
M  V30 32359 C 2958.91 -0.636079 -1.9688 0
M  V30 32360 C 2959.32 0.793063 -1.71336 0
M  V30 32361 O 2958.68 1.53124 -0.992944 0
M  V30 32362 C 2958.73 -0.892595 -3.50307 0
M  V30 32363 O 2958.45 -2.26555 -3.74973 0
M  V30 32364 C 2959.95 -0.581237 -4.39473 0
M  V30 32365 H 2957.17 -0.237942 -0.627395 0
M  V30 32366 H 2959.72 -1.28667 -1.5895 0
M  V30 32367 H 2957.87 -0.288325 -3.86326 0
M  V30 32368 H 2958.28 -2.34022 -4.69397 0
M  V30 32369 H 2959.76 -0.811221 -5.46007 0
M  V30 32370 H 2960.24 0.484353 -4.36521 0
M  V30 32371 H 2960.84 -1.1651 -4.0903 0
M  V30 32372 N 2959.16 1.39677 -0.729931 0
M  V30 32373 C 2960.4 2.02469 -0.280268 0
M  V30 32374 C 2960.76 1.5666 1.11003 0
M  V30 32375 O 2961.96 2.11615 1.65749 0
M  V30 32376 C 2960.23 3.55448 -0.372984 0
M  V30 32377 S 2961.79 4.388 -0.00241687 0
M  V30 32378 H 2958.61 0.702416 -0.110151 0
M  V30 32379 H 2961.21 1.70569 -0.955326 0
M  V30 32380 H 2959.92 3.8628 -1.38622 0
M  V30 32381 H 2959.45 3.92096 0.320067 0
M  V30 32382 H 2961.46 4.81086 1.21535 0
M  V30 32383 N 2960.63 0.47718 1.50202 0
M  V30 32384 C 2961.6 -0.302559 2.27194 0
M  V30 32385 C 2962.6 -0.915089 1.32222 0
M  V30 32386 O 2963.79 -0.783321 1.55595 0
M  V30 32387 C 2960.92 -1.43162 3.09382 0
M  V30 32388 H 2962.11 0.37273 2.97575 0
M  V30 32389 H 2959.67 0.231419 1.54577 0
M  V30 32390 H 2960.4 -2.14178 2.43513 0
M  V30 32391 H 2960.19 -0.99813 3.79183 0
M  V30 32392 H 2961.68 -1.9815 3.67595 0
M  V30 32393 N 2962.11 -1.56194 0.210027 0
M  V30 32394 C 2963.52 -1.84275 -0.29991 0
M  V30 32395 C 2963.87 -1.13113 -1.60312 0
M  V30 32396 O 2963 -0.396911 -2.12729 0
M  V30 32397 C 2963.59 -3.34291 -0.550927 0
M  V30 32398 C 2962.15 -3.6273 -1.0052 0
M  V30 32399 C 2961.3 -2.77231 -0.0619341 0
M  V30 32400 H 2964.25 -1.52665 0.433485 0
M  V30 32401 H 2964.27 -3.53872 -1.3984 0
M  V30 32402 H 2963.78 -3.86057 0.397737 0
M  V30 32403 H 2961.89 -3.1641 -1.96762 0
M  V30 32404 H 2962 -4.70807 -0.887581 0
M  V30 32405 H 2960.36 -2.48318 -0.566605 0
M  V30 32406 H 2961.15 -3.31791 0.881441 0
M  V30 32407 N 2963.59 0.0634645 -1.57472 0
M  V30 32408 C 2964.84 0.75953 -1.87285 0
M  V30 32409 C 2965.16 1.77691 -0.803166 0
M  V30 32410 O 2964.43 1.95185 0.167259 0
M  V30 32411 H 2963.01 0.283503 -0.691111 0
M  V30 32412 H 2965.67 0.0375748 -1.94864 0
M  V30 32413 H 2964.77 1.27057 -2.85067 0
M  V30 32414 N 2965.07 1.53998 0.33504 0
M  V30 32415 C 2966.32 1.71314 1.0722 0
M  V30 32416 C 2966.64 0.483519 1.8891 0
M  V30 32417 O 2965.91 -0.502537 1.89345 0
M  V30 32418 H 2964.49 0.631617 0.398834 0
M  V30 32419 H 2967.15 1.91273 0.374254 0
M  V30 32420 H 2966.25 2.58775 1.74475 0
M  V30 32421 N 2966.55 -0.596505 1.45875 0
M  V30 32422 C 2967.77 -1.38643 1.54249 0
M  V30 32423 C 2968.2 -1.87241 0.179604 0
M  V30 32424 O 2967.55 -1.60781 -0.837803 0
M  V30 32425 C 2967.6 -2.55942 2.5402 0
M  V30 32426 O 2966.71 -3.56936 2.06568 0
M  V30 32427 H 2966.05 -0.413462 0.519563 0
M  V30 32428 H 2968.58 -0.724902 1.91328 0
M  V30 32429 H 2968.59 -3.03042 2.73184 0
M  V30 32430 H 2967.26 -2.19921 3.52998 0
M  V30 32431 H 2965.84 -3.1641 1.9733 0
M  V30 32432 N 2968.02 -1.3335 -0.839967 0
M  V30 32433 C 2968.95 -1.26139 -1.96498 0
M  V30 32434 C 2969.94 -0.142182 -1.69505 0
M  V30 32435 O 2971.12 -0.331777 -1.91345 0
M  V30 32436 C 2968.25 -0.998719 -3.3263 0
M  V30 32437 C 2967.2 -2.08075 -3.74017 0
M  V30 32438 C 2966.53 -1.67023 -5.07944 0
M  V30 32439 C 2967.83 -3.49738 -3.87918 0
M  V30 32440 H 2969.52 -2.20266 -2.02789 0
M  V30 32441 H 2967.07 -1.06037 -0.974278 0
M  V30 32442 H 2969.02 -0.934768 -4.10902 0
M  V30 32443 H 2967.75 -0.0218333 -3.26593 0
M  V30 32444 H 2966.41 -2.1351 -2.98008 0
M  V30 32445 H 2966.05 -0.680404 -4.98377 0
M  V30 32446 H 2965.75 -2.39431 -5.36606 0
M  V30 32447 H 2967.28 -1.62092 -5.88692 0
M  V30 32448 H 2968.69 -3.4681 -4.56504 0
M  V30 32449 H 2967.09 -4.20621 -4.28016 0
M  V30 32450 H 2968.16 -3.88324 -2.90401 0
M  V30 32451 N 2969.5 1.05808 -1.16801 0
M  V30 32452 C 2970.78 1.7555 -0.862647 0
M  V30 32453 C 2971.16 2.01213 0.638465 0
M  V30 32454 O 2970.51 1.64319 1.58781 0
M  V30 32455 C 2970.72 3.05311 -1.69075 0
M  V30 32456 C 2972.07 3.79375 -1.90682 0
M  V30 32457 O 2973.09 3.15164 -1.65982 0
M  V30 32458 O 2971.95 4.94739 -2.32153 0
M  V30 32459 H 2969.04 0.763082 -0.318802 0
M  V30 32460 H 2971.59 1.12032 -1.27463 0
M  V30 32461 H 2970.36 2.82347 -2.70917 0
M  V30 32462 H 2969.98 3.76564 -1.27613 0
M  V30 32463 N 2970.98 0.967265 1.24426 0
M  V30 32464 C 2971.91 0.515939 2.27729 0
M  V30 32465 C 2972.89 -0.444198 1.64198 0
M  V30 32466 O 2974.08 -0.340417 1.91193 0
M  V30 32467 C 2971.21 -0.195088 3.46752 0
M  V30 32468 C 2970.16 0.681027 4.22547 0
M  V30 32469 C 2969.49 -0.161467 5.34456 0
M  V30 32470 C 2970.79 1.96541 4.8391 0
M  V30 32471 H 2972.48 1.37937 2.65732 0
M  V30 32472 H 2970.03 0.664704 1.27741 0
M  V30 32473 H 2971.98 -0.522044 4.18154 0
M  V30 32474 H 2970.7 -1.09287 3.07773 0
M  V30 32475 H 2969.36 0.991248 3.52945 0
M  V30 32476 H 2969.01 -1.05938 4.91717 0
M  V30 32477 H 2968.71 0.421521 5.86086 0
M  V30 32478 H 2970.23 -0.483104 6.08686 0
M  V30 32479 H 2971.65 1.70406 5.47389 0
M  V30 32480 H 2970.05 2.49508 5.45771 0
M  V30 32481 H 2971.12 2.6606 4.05389 0
M  V30 32482 N 2972.46 -1.39288 0.737328 0
M  V30 32483 C 2973.37 -2.34385 0.100505 0
M  V30 32484 C 2974.39 -1.58438 -0.719254 0
M  V30 32485 O 2975.56 -1.90718 -0.647182 0
M  V30 32486 C 2972.63 -3.37479 -0.794266 0
M  V30 32487 C 2971.69 -4.29283 0.03801 0
M  V30 32488 C 2970.92 -5.27454 -0.814149 0
M  V30 32489 O 2971.14 -5.32181 -2.05279 0
M  V30 32490 O 2970.08 -6.01415 -0.241574 0
M  V30 32491 H 2973.9 -2.90505 0.885458 0
M  V30 32492 H 2971.49 -1.40855 0.498024 0
M  V30 32493 H 2973.37 -4.00647 -1.30615 0
M  V30 32494 H 2972.05 -2.8374 -1.55799 0
M  V30 32495 H 2970.95 -3.6933 0.59547 0
M  V30 32496 H 2972.29 -4.86234 0.764012 0
M  V30 32497 N 2973.94 -0.485139 -1.49947 0
M  V30 32498 C 2974.88 0.301689 -2.2882 0
M  V30 32499 C 2975.85 0.974659 -1.34498 0
M  V30 32500 O 2977.04 0.984389 -1.63445 0
M  V30 32501 C 2974.18 1.36955 -3.16761 0
M  V30 32502 C 2973.29 0.709952 -4.26126 0
M  V30 32503 C 2972.43 1.7569 -5.01305 0
M  V30 32504 C 2971.47 1.07831 -6.02527 0
M  V30 32505 N 2970.6 2.06874 -6.7093 0
M  V30 32506 H 2975.44 -0.377179 -2.95603 0
M  V30 32507 H 2972.98 -0.197852 -1.45763 0
M  V30 32508 H 2974.94 2.00049 -3.6611 0
M  V30 32509 H 2973.57 2.01739 -2.51994 0
M  V30 32510 H 2972.62 -0.0338947 -3.80385 0
M  V30 32511 H 2973.93 0.174991 -4.98493 0
M  V30 32512 H 2973.09 2.4633 -5.54443 0
M  V30 32513 H 2971.83 2.32569 -4.28676 0
M  V30 32514 H 2970.83 0.35761 -5.48636 0
M  V30 32515 H 2972.06 0.516226 -6.77135 0
M  V30 32516 H 2970 2.62744 -6.01084 0
M  V30 32517 H 2969.92 1.58401 -7.39219 0
M  V30 32518 H 2971.19 2.7685 -7.2868 0
M  V30 32519 N 2975.42 1.56081 -0.218307 0
M  V30 32520 C 2976.38 2.18893 0.679594 0
M  V30 32521 C 2977.38 1.14988 1.12403 0
M  V30 32522 O 2978.57 1.4024 1.03336 0
M  V30 32523 C 2975.7 2.80965 1.93058 0
M  V30 32524 H 2976.89 2.99609 0.132013 0
M  V30 32525 H 2974.45 1.56269 0.0313099 0
M  V30 32526 H 2975.18 2.0411 2.52011 0
M  V30 32527 H 2974.97 3.57051 1.6204 0
M  V30 32528 H 2976.46 3.29123 2.57037 0
M  V30 32529 N 2976.89 -0.0551124 1.57504 0
M  V30 32530 C 2978.31 -0.410265 1.54237 0
M  V30 32531 C 2978.51 -1.78185 0.94087 0
M  V30 32532 O 2977.57 -2.46424 0.550585 0
M  V30 32533 C 2978.88 -0.336011 2.98817 0
M  V30 32534 C 2980.43 -0.414992 3.10237 0
M  V30 32535 C 2980.9 -0.370469 4.56499 0
M  V30 32536 N 2982.39 -0.430049 4.61199 0
M  V30 32537 C 2983.13 -0.418079 5.71874 0
M  V30 32538 N 2982.62 -0.359934 6.91864 0
M  V30 32539 N 2984.42 -0.465878 5.60166 0
M  V30 32540 H 2976.57 0.842794 1.94963 0
M  V30 32541 H 2978.83 0.317953 0.89309 0
M  V30 32542 H 2978.54 0.60549 3.46449 0
M  V30 32543 H 2978.41 -1.13982 3.59566 0
M  V30 32544 H 2980.8 -1.34692 2.62568 0
M  V30 32545 H 2980.88 0.417692 2.52367 0
M  V30 32546 H 2980.52 0.55768 5.04829 0
M  V30 32547 H 2980.45 -1.22091 5.12251 0
M  V30 32548 H 2982.94 -0.478558 3.74858 0
M  V30 32549 H 2983.26 -0.355185 7.71983 0
M  V30 32550 H 2981.6 -0.32637 6.94233 0
M  V30 32551 H 2984.79 -0.509112 4.65323 0
M  V30 32552 H 2984.97 -0.453081 6.46414 0
M  V30 32553 N 2978.37 -1.54173 -0.326869 0
M  V30 32554 C 2979.62 -1.71433 -1.06271 0
M  V30 32555 C 2979.93 -0.493157 -1.89281 0
M  V30 32556 O 2981.14 -0.547037 -2.65932 0
M  V30 32557 C 2979.6 -3.0321 -1.93886 0
M  V30 32558 C 2979.2 -4.32721 -1.16003 0
M  V30 32559 C 2980.95 -3.29834 -2.67226 0
M  V30 32560 C 2978.85 -5.55561 -2.02746 0
M  V30 32561 H 2977.78 -0.638862 -0.400464 0
M  V30 32562 H 2980.44 -1.80668 -0.321152 0
M  V30 32563 H 2978.82 -2.87874 -2.71928 0
M  V30 32564 H 2979.99 -4.58812 -0.427562 0
M  V30 32565 H 2978.31 -4.12837 -0.543598 0
M  V30 32566 H 2980.9 -4.18804 -3.32427 0
M  V30 32567 H 2981.25 -2.47568 -3.34688 0
M  V30 32568 H 2981.78 -3.46022 -1.96249 0
M  V30 32569 H 2978.52 -6.40419 -1.39798 0
M  V30 32570 H 2978.04 -5.33694 -2.73736 0
M  V30 32571 H 2979.72 -5.9184 -2.61409 0
M  V30 32572 N 2979.85 0.58876 -1.4619 0
M  V30 32573 C 2980.8 1.69301 -1.52713 0
M  V30 32574 C 2981.78 1.56137 -0.388606 0
M  V30 32575 O 2982.98 1.65154 -0.636645 0
M  V30 32576 C 2980.1 3.08081 -1.51463 0
M  V30 32577 C 2979.19 3.26563 -2.70587 0
M  V30 32578 N 2979.58 3.15229 -3.95556 0
M  V30 32579 C 2977.88 3.57486 -2.66682 0
M  V30 32580 C 2978.58 3.35552 -4.75163 0
M  V30 32581 N 2977.56 3.60425 -4.06933 0
M  V30 32582 H 2981.36 1.59059 -2.47139 0
M  V30 32583 H 2978.87 0.792608 -1.41744 0
M  V30 32584 H 2980.87 3.87325 -1.54223 0
M  V30 32585 H 2979.53 3.19458 -0.581092 0
M  V30 32586 H 2980.54 2.93225 -4.26895 0
M  V30 32587 H 2977.22 3.75585 -1.82324 0
M  V30 32588 H 2978.61 3.32024 -5.84132 0
M  V30 32589 N 2981.33 1.33794 0.832883 0
M  V30 32590 C 2982.26 1.20383 1.9504 0
M  V30 32591 C 2983.27 0.133328 1.62253 0
M  V30 32592 O 2984.46 0.384292 1.74314 0
M  V30 32593 C 2981.56 0.825272 3.28698 0
M  V30 32594 C 2980.73 1.98867 3.89577 0
M  V30 32595 C 2979.79 1.59012 5.01599 0
M  V30 32596 O 2978.82 2.30531 5.20427 0
M  V30 32597 N 2980.02 0.498547 5.78355 0
M  V30 32598 H 2982.79 2.16653 2.07079 0
M  V30 32599 H 2980.35 1.26618 1.00894 0
M  V30 32600 H 2982.34 0.54063 4.01073 0
M  V30 32601 H 2980.91 -0.0469247 3.12565 0
M  V30 32602 H 2980.13 2.43861 3.09718 0
M  V30 32603 H 2981.42 2.76698 4.26984 0
M  V30 32604 H 2980.82 -0.0962303 5.65618 0
M  V30 32605 H 2979.37 0.2736 6.51226 0
M  V30 32606 N 2982.81 -1.05187 1.1736 0
M  V30 32607 C 2983.74 -2.12931 0.848116 0
M  V30 32608 C 2984.75 -1.62112 -0.149492 0
M  V30 32609 O 2985.94 -1.78335 0.076811 0
M  V30 32610 C 2983.04 -3.38021 0.243948 0
M  V30 32611 C 2982.21 -4.18116 1.28443 0
M  V30 32612 C 2981.27 -5.2155 0.698018 0
M  V30 32613 O 2980.3 -5.52471 1.36983 0
M  V30 32614 N 2981.5 -5.78256 -0.509923 0
M  V30 32615 H 2984.26 -2.4145 1.77545 0
M  V30 32616 H 2981.83 -1.21285 1.07246 0
M  V30 32617 H 2983.82 -4.04377 -0.161656 0
M  V30 32618 H 2982.39 -3.07036 -0.587166 0
M  V30 32619 H 2981.61 -3.47249 1.86579 0
M  V30 32620 H 2982.9 -4.68429 1.98626 0
M  V30 32621 H 2982.29 -5.55417 -1.07368 0
M  V30 32622 H 2980.85 -6.46134 -0.857591 0
M  V30 32623 N 2984.28 -0.97385 -1.23911 0
M  V30 32624 C 2985.19 -0.516776 -2.28837 0
M  V30 32625 C 2986.21 0.425253 -1.68723 0
M  V30 32626 O 2987.39 0.296784 -1.99201 0
M  V30 32627 C 2984.45 0.179853 -3.46233 0
M  V30 32628 C 2983.51 -0.802764 -4.21728 0
M  V30 32629 C 2982.74 -0.139285 -5.33518 0
M  V30 32630 O 2982.97 1.07108 -5.60253 0
M  V30 32631 O 2981.9 -0.834552 -5.96086 0
M  V30 32632 H 2985.73 -1.38921 -2.70064 0
M  V30 32633 H 2983.31 -0.741173 -1.29719 0
M  V30 32634 H 2985.19 0.570917 -4.17515 0
M  V30 32635 H 2983.87 1.02716 -3.06971 0
M  V30 32636 H 2982.78 -1.2444 -3.52797 0
M  V30 32637 H 2984.11 -1.61867 -4.64822 0
M  V30 32638 N 2985.76 1.38895 -0.744705 0
M  V30 32639 C 2986.69 2.33158 -0.126396 0
M  V30 32640 C 2987.67 1.54413 0.71349 0
M  V30 32641 O 2988.86 1.82767 0.65649 0
M  V30 32642 C 2985.99 3.38558 0.774316 0
M  V30 32643 C 2984.94 4.27983 0.0378461 0
M  V30 32644 C 2984.27 5.24164 1.05622 0
M  V30 32645 C 2985.57 5.10033 -1.12532 0
M  V30 32646 H 2987.26 2.85114 -0.913794 0
M  V30 32647 H 2984.81 1.37085 -0.440871 0
M  V30 32648 H 2986.76 4.0346 1.21648 0
M  V30 32649 H 2985.48 2.85063 1.59394 0
M  V30 32650 H 2984.14 3.64575 -0.384797 0
M  V30 32651 H 2983.79 4.66961 1.86967 0
M  V30 32652 H 2983.49 5.84847 0.568158 0
M  V30 32653 H 2985.02 5.91942 1.49788 0
M  V30 32654 H 2986.43 5.68225 -0.761137 0
M  V30 32655 H 2984.83 5.79906 -1.54365 0
M  V30 32656 H 2985.9 4.44294 -1.94245 0
M  V30 32657 N 2987.24 0.493084 1.49688 0
M  V30 32658 C 2988.15 -0.294317 2.32747 0
M  V30 32659 C 2989.17 -0.974977 1.44119 0
M  V30 32660 O 2990.34 -0.958107 1.7715 0
M  V30 32661 C 2987.41 -1.34943 3.19361 0
M  V30 32662 C 2986.47 -0.683048 4.23831 0
M  V30 32663 C 2985.7 -1.68789 5.06306 0
M  V30 32664 O 2985.92 -2.91689 4.90177 0
M  V30 32665 O 2984.86 -1.24757 5.88829 0
M  V30 32666 H 2988.68 0.385307 3.01246 0
M  V30 32667 H 2986.27 0.254545 1.47216 0
M  V30 32668 H 2988.15 -1.96008 3.7304 0
M  V30 32669 H 2986.83 -2.01213 2.53565 0
M  V30 32670 H 2985.73 -0.0328693 3.74086 0
M  V30 32671 H 2987.07 -0.0629327 4.9216 0
M  V30 32672 N 2988.72 -1.55963 0.226582 0
M  V30 32673 C 2989.96 -1.98728 -0.404352 0
M  V30 32674 C 2990.3 -1.11421 -1.59057 0
M  V30 32675 O 2989.57 -0.173005 -1.93729 0
M  V30 32676 C 2989.86 -3.50309 -0.834019 0
M  V30 32677 C 2989.71 -4.48388 0.356183 0
M  V30 32678 C 2991.03 -4.06426 -1.68838 0
M  V30 32679 H 2988.15 -0.722494 -0.145502 0
M  V30 32680 H 2990.79 -1.8722 0.323824 0
M  V30 32681 H 2988.94 -3.60246 -1.45447 0
M  V30 32682 H 2990.61 -4.50455 0.994399 0
M  V30 32683 H 2988.85 -4.22051 1.00277 0
M  V30 32684 H 2989.52 -5.51999 0.0125303 0
M  V30 32685 H 2992 -3.99463 -1.16482 0
M  V30 32686 H 2990.88 -5.12793 -1.95791 0
M  V30 32687 H 2991.14 -3.53619 -2.65341 0
M  V30 32688 N 2990.2 0.0467589 -1.57531 0
M  V30 32689 C 2991.44 0.739623 -1.8808 0
M  V30 32690 C 2991.77 1.7683 -0.821967 0
M  V30 32691 O 2991.04 1.95351 0.146548 0
M  V30 32692 H 2989.62 0.276157 -0.694079 0
M  V30 32693 H 2992.28 0.0169048 -1.94893 0
M  V30 32694 H 2991.37 1.24026 -2.86398 0
M  V30 32695 N 2991.67 1.54344 0.318688 0
M  V30 32696 C 2992.92 1.71995 1.0536 0
M  V30 32697 C 2993.24 0.503188 1.89017 0
M  V30 32698 O 2994.44 0.561132 2.65638 0
M  V30 32699 C 2992.9 3.04234 1.92276 0
M  V30 32700 C 2992.51 4.3333 1.13707 0
M  V30 32701 C 2994.25 3.31246 2.65473 0
M  V30 32702 C 2992.16 5.56629 1.99797 0
M  V30 32703 H 2991.09 0.640977 0.39707 0
M  V30 32704 H 2993.74 1.80836 0.311566 0
M  V30 32705 H 2992.12 2.89312 2.70397 0
M  V30 32706 H 2993.29 4.59032 0.403224 0
M  V30 32707 H 2991.61 4.13119 0.521696 0
M  V30 32708 H 2994.21 4.20561 3.30201 0
M  V30 32709 H 2994.55 2.49339 3.3337 0
M  V30 32710 H 2995.08 3.47058 1.94411 0
M  V30 32711 H 2991.82 6.41152 1.364 0
M  V30 32712 H 2991.34 5.35138 2.70902 0
M  V30 32713 H 2993.02 5.93218 2.58267 0
M  V30 32714 N 2993.15 -0.580999 1.465 0
M  V30 32715 C 2994.38 -1.37 1.55711 0
M  V30 32716 C 2994.8 -1.8704 0.199453 0
M  V30 32717 O 2994.16 -1.61661 -0.820702 0
M  V30 32718 C 2994.21 -2.53233 2.5672 0
M  V30 32719 O 2993.31 -3.54725 2.10342 0
M  V30 32720 H 2992.65 -0.407928 0.523919 0
M  V30 32721 H 2995.18 -0.704568 1.92086 0
M  V30 32722 H 2995.19 -3.00127 2.76383 0
M  V30 32723 H 2993.87 -2.16165 3.5531 0
M  V30 32724 H 2992.45 -3.14299 2.00674 0
M  V30 32725 N 2994.63 -1.34234 -0.825776 0
M  V30 32726 C 2995.86 -1.29651 -1.61881 0
M  V30 32727 C 2996.28 0.127262 -1.87669 0
M  V30 32728 O 2995.64 1.0881 -1.45017 0
M  V30 32729 C 2995.69 -2.0902 -2.93842 0
M  V30 32730 O 2994.79 -1.45776 -3.85776 0
M  V30 32731 H 2994.13 -0.445413 -0.492446 0
M  V30 32732 H 2996.66 -1.76993 -1.02638 0
M  V30 32733 H 2996.67 -2.2027 -3.43431 0
M  V30 32734 H 2995.35 -3.12538 -2.74396 0
M  V30 32735 H 2993.92 -1.43251 -3.44287 0
M  V30 32736 N 2996.11 1.04563 -1.17917 0
M  V30 32737 C 2997.06 2.10762 -0.869671 0
M  V30 32738 C 2998.04 1.60118 0.158474 0
M  V30 32739 O 2999.23 1.76943 -0.0448611 0
M  V30 32740 C 2996.36 3.41058 -0.391702 0
M  V30 32741 C 2995.45 3.98483 -1.45163 0
M  V30 32742 N 2995.84 4.29787 -2.66677 0
M  V30 32743 C 2994.14 4.26297 -1.31098 0
M  V30 32744 C 2994.84 4.75671 -3.34831 0
M  V30 32745 N 2993.82 4.76179 -2.62211 0
M  V30 32746 H 2997.62 2.32835 -1.79346 0
M  V30 32747 H 2995.13 1.2227 -1.06882 0
M  V30 32748 H 2997.13 4.16625 -0.151501 0
M  V30 32749 H 2995.79 3.20414 0.525806 0
M  V30 32750 H 2996.8 4.19589 -3.03588 0
M  V30 32751 H 2993.48 4.15006 -0.455618 0
M  V30 32752 H 2994.87 5.08953 -4.38654 0
M  V30 32753 N 2997.59 0.980408 1.23393 0
M  V30 32754 C 2998.52 0.478696 2.24145 0
M  V30 32755 C 2999.53 -0.419464 1.57303 0
M  V30 32756 O 3000.72 -0.223599 1.77094 0
M  V30 32757 C 2997.82 -0.326854 3.3732 0
M  V30 32758 C 2996.99 0.564436 4.33743 0
M  V30 32759 C 2996.05 -0.187265 5.25867 0
M  V30 32760 O 2995.08 0.423118 5.67625 0
M  V30 32761 N 2996.28 -1.47325 5.61494 0
M  V30 32762 H 2999.05 1.34501 2.67824 0
M  V30 32763 H 2996.61 0.853677 1.37564 0
M  V30 32764 H 2998.6 -0.838078 3.95927 0
M  V30 32765 H 2997.17 -1.09417 2.92825 0
M  V30 32766 H 2996.39 1.25649 3.73639 0
M  V30 32767 H 2997.68 1.17186 4.95121 0
M  V30 32768 H 2997.07 -1.99067 5.29517 0
M  V30 32769 H 2995.63 -1.92991 6.22573 0
M  V30 32770 N 2999.06 -1.38498 0.75206 0
M  V30 32771 C 3000.48 -1.82887 0.375417 0
M  V30 32772 C 3000.83 -1.62753 -1.09572 0
M  V30 32773 O 2999.95 -1.12788 -1.84683 0
M  V30 32774 C 3000.55 -3.32016 0.674621 0
M  V30 32775 C 2999.11 -3.74757 0.351274 0
M  V30 32776 C 2998.25 -2.61291 0.928577 0
M  V30 32777 H 3001.2 -1.27249 0.948335 0
M  V30 32778 H 3001.22 -3.8047 -0.0477112 0
M  V30 32779 H 3000.74 -3.46638 1.74539 0
M  V30 32780 H 2998.84 -3.65715 -0.712978 0
M  V30 32781 H 2998.95 -4.71576 0.845758 0
M  V30 32782 H 2997.31 -2.52227 0.354056 0
M  V30 32783 H 2998.1 -2.78713 2.00435 0
M  V30 32784 N 3000.54 -0.501015 -1.49424 0
M  V30 32785 C 3001.77 0.0424789 -2.07356 0
M  V30 32786 C 3002.19 1.3006 -1.35889 0
M  V30 32787 O 3001.55 1.76471 -0.415641 0
M  V30 32788 C 3001.6 0.279124 -3.59518 0
M  V30 32789 O 3000.7 1.35383 -3.89545 0
M  V30 32790 H 3000.04 -0.0262324 -0.663482 0
M  V30 32791 H 3002.57 -0.70064 -1.9223 0
M  V30 32792 H 3002.58 0.510628 -4.04792 0
M  V30 32793 H 3001.26 -0.640082 -4.10945 0
M  V30 32794 H 2999.84 1.10728 -3.56081 0
M  V30 32795 N 3002.02 1.5584 -0.234849 0
M  V30 32796 C 3003.27 1.98645 0.393225 0
M  V30 32797 C 3003.6 1.12277 1.58821 0
M  V30 32798 O 3002.85 0.170765 1.94954 0
M  V30 32799 C 3003.15 3.46949 0.857971 0
M  V30 32800 C 3002.82 4.50323 -0.227938 0
M  V30 32801 C 3001.48 4.78314 -0.526212 0
M  V30 32802 C 3003.83 5.12251 -0.961666 0
M  V30 32803 C 3001.16 5.65511 -1.5625 0
M  V30 32804 C 3003.51 6.00571 -1.98739 0
M  V30 32805 C 3002.17 6.269 -2.29244 0
M  V30 32806 H 3001.44 0.726895 0.143891 0
M  V30 32807 H 3004.09 1.88455 -0.340153 0
M  V30 32808 H 3002.4 3.5441 1.67034 0
M  V30 32809 H 3004.09 3.77449 1.35401 0
M  V30 32810 H 3000.68 4.28597 0.014687 0
M  V30 32811 H 3004.87 4.90684 -0.744474 0
M  V30 32812 H 3000.12 5.8417 -1.80432 0
M  V30 32813 H 3004.3 6.47603 -2.56091 0
M  V30 32814 H 3001.92 6.94262 -3.09683 0
M  V30 32815 N 3003.5 -0.038404 1.57553 0
M  V30 32816 C 3004.46 -1.0265 2.04929 0
M  V30 32817 C 3005.46 -1.29606 0.951791 0
M  V30 32818 O 3006.65 -1.24765 1.2157 0
M  V30 32819 C 3003.78 -2.36177 2.45832 0
M  V30 32820 H 3004.98 -0.617456 2.93475 0
M  V30 32821 H 3002.53 -0.285004 1.5368 0
M  V30 32822 H 3003.27 -2.81848 1.60413 0
M  V30 32823 H 3003.05 -2.17944 3.25949 0
M  V30 32824 H 3004.54 -3.07135 2.82945 0
M  V30 32825 N 3004.98 -1.54511 -0.310498 0
M  V30 32826 C 3005.94 -1.84071 -1.36567 0
M  V30 32827 C 3006.94 -0.713122 -1.44122 0
M  V30 32828 O 3008.13 -0.981424 -1.43923 0
M  V30 32829 C 3005.26 -2.01248 -2.75159 0
M  V30 32830 H 3006.46 -2.7836 -1.11605 0
M  V30 32831 H 3004.01 -1.46428 -0.546674 0
M  V30 32832 H 3004.74 -1.09214 -3.05357 0
M  V30 32833 H 3004.53 -2.83311 -2.71067 0
M  V30 32834 H 3006.02 -2.2552 -3.51469 0
M  V30 32835 N 3006.46 0.573222 -1.46806 0
M  V30 32836 C 3007.39 1.69163 -1.60954 0
M  V30 32837 C 3008.37 1.63776 -0.459508 0
M  V30 32838 O 3009.55 1.81646 -0.686912 0
M  V30 32839 C 3006.68 3.07806 -1.6085 0
M  V30 32840 C 3005.64 3.2803 -2.74919 0
M  V30 32841 C 3004.96 4.67298 -2.59879 0
M  V30 32842 C 3006.26 3.14947 -4.1666 0
M  V30 32843 H 3007.96 1.57578 -2.54577 0
M  V30 32844 H 3005.5 0.756665 -1.22518 0
M  V30 32845 H 3007.45 3.85878 -1.6934 0
M  V30 32846 H 3006.18 3.20312 -0.63777 0
M  V30 32847 H 3004.84 2.52361 -2.65912 0
M  V30 32848 H 3004.49 4.76582 -1.60869 0
M  V30 32849 H 3004.19 4.8178 -3.36395 0
M  V30 32850 H 3005.71 5.47525 -2.70275 0
M  V30 32851 H 3007.12 3.82853 -4.26727 0
M  V30 32852 H 3005.52 3.40948 -4.93837 0
M  V30 32853 H 3006.59 2.119 -4.36149 0
M  V30 32854 N 3007.93 1.3467 0.818645 0
M  V30 32855 C 3008.88 1.26612 1.95121 0
M  V30 32856 C 3009.88 0.163377 1.6861 0
M  V30 32857 O 3011.08 0.328617 1.76975 0
M  V30 32858 H 3007.46 0.393442 0.640865 0
M  V30 32859 H 3009.43 2.2232 1.99039 0
M  V30 32860 C 3008.18 1.04278 3.31695 0
M  V30 32861 H 3007.5 1.88366 3.52645 0
M  V30 32862 H 3008.94 1.02677 4.1138 0
M  V30 32863 C 3007.4 -0.253799 3.35943 0
M  V30 32864 O 3007.93 -1.25372 3.81634 0
M  V30 32865 N 3006.13 -0.288396 2.89165 0
M  V30 32866 H 3005.68 0.525889 2.52175 0
M  V30 32867 H 3005.64 -1.15567 2.92389 0
M  V30 32868 N 3009.41 -1.03936 1.1847 0
M  V30 32869 C 3010.83 -1.29369 0.934658 0
M  V30 32870 C 3011.03 -1.97509 -0.399033 0
M  V30 32871 O 3010.08 -2.2565 -1.13305 0
M  V30 32872 C 3011.4 -2.1511 2.10115 0
M  V30 32873 C 3012.94 -2.28452 2.13959 0
M  V30 32874 C 3013.42 -3.1756 3.3003 0
M  V30 32875 N 3014.91 -3.25148 3.29899 0
M  V30 32876 C 3015.65 -3.94256 4.16353 0
M  V30 32877 N 3015.14 -4.65684 5.12943 0
M  V30 32878 N 3016.93 -3.90548 4.04263 0
M  V30 32879 H 3009.09 -0.581149 2.04295 0
M  V30 32880 H 3011.35 -0.318955 0.892733 0
M  V30 32881 H 3011.05 -1.7235 3.06575 0
M  V30 32882 H 3010.93 -3.15792 2.06289 0
M  V30 32883 H 3013.32 -2.70448 1.18076 0
M  V30 32884 H 3013.4 -1.27356 2.21842 0
M  V30 32885 H 3013.04 -2.76276 4.26186 0
M  V30 32886 H 3012.97 -4.18691 3.19383 0
M  V30 32887 H 3015.46 -2.74266 2.59974 0
M  V30 32888 H 3015.77 -5.16016 5.7528 0
M  V30 32889 H 3014.12 -4.64584 5.16901 0
M  V30 32890 H 3017.31 -3.33879 3.28089 0
M  V30 32891 H 3017.48 -4.44136 4.71856 0
M  V30 32892 N 3010.89 -0.986938 -1.22871 0
M  V30 32893 C 3012.12 -0.677697 -1.95486 0
M  V30 32894 C 3012.53 0.756542 -1.72979 0
M  V30 32895 O 3011.89 1.50983 -1.0252 0
M  V30 32896 C 3011.94 -0.966699 -3.48335 0
M  V30 32897 O 3011.66 -2.34457 -3.70083 0
M  V30 32898 C 3013.16 -0.674325 -4.38141 0
M  V30 32899 H 3010.38 -0.251196 -0.622207 0
M  V30 32900 H 3012.93 -1.32009 -1.56185 0
M  V30 32901 H 3011.08 -0.370205 -3.85627 0
M  V30 32902 H 3011.5 -2.43926 -4.64328 0
M  V30 32903 H 3012.97 -0.926854 -5.44163 0
M  V30 32904 H 3013.45 0.391652 -4.3745 0
M  V30 32905 H 3014.05 -1.2516 -4.06467 0
M  V30 32906 N 3012.37 1.38098 -0.759394 0
M  V30 32907 C 3013.62 1.9959 -0.31752 0
M  V30 32908 C 3013.94 1.60583 1.10626 0
M  V30 32909 O 3013.21 0.865409 1.75748 0
M  V30 32910 H 3011.79 0.738187 -0.11441 0
M  V30 32911 H 3014.45 1.68772 -0.974779 0
M  V30 32912 H 3013.54 3.09713 -0.385282 0
M  V30 32913 N 3013.85 0.508932 1.49156 0
M  V30 32914 C 3015.12 -0.0961569 1.95364 0
M  V30 32915 C 3015.5 -1.53359 1.45066 0
M  V30 32916 O 3014.85 -2.18522 0.667874 0
M  V30 32917 C 3015.06 -0.000627536 3.49 0
M  V30 32918 C 3016.41 -0.170558 4.24257 0
M  V30 32919 O 3017.43 -0.0754368 3.5612 0
M  V30 32920 O 3016.29 -0.366862 5.45267 0
M  V30 32921 H 3013.39 -0.0909345 0.821985 0
M  V30 32922 H 3015.93 0.572035 1.59768 0
M  V30 32923 H 3014.7 1.00149 3.78267 0
M  V30 32924 H 3014.33 -0.708613 3.91235 0
M  V30 32925 N 3015.32 -1.55714 0.243111 0
M  V30 32926 C 3016.57 -1.98458 -0.381929 0
M  V30 32927 C 3016.89 -1.1325 -1.58743 0
M  V30 32928 O 3016.16 -0.214419 -1.94723 0
M  V30 32929 H 3014.74 -0.732969 -0.144101 0
M  V30 32930 H 3017.4 -1.91893 0.341019 0
M  V30 32931 H 3016.5 -3.04294 -0.693648 0
M  V30 32932 N 3016.8 0.030048 -1.57571 0
M  V30 32933 C 3018.05 0.720093 -1.88408 0
M  V30 32934 C 3018.36 1.76573 -0.841497 0
M  V30 32935 O 3019.57 2.5083 -1.03906 0
M  V30 32936 C 3018.03 1.33182 -3.34351 0
M  V30 32937 C 3017.63 0.322581 -4.46837 0
M  V30 32938 C 3019.38 2.0018 -3.74337 0
M  V30 32939 C 3017.29 0.9426 -5.8384 0
M  V30 32940 H 3016.22 0.272705 -0.702957 0
M  V30 32941 H 3018.87 -0.0255659 -1.83482 0
M  V30 32942 H 3017.25 2.12716 -3.34018 0
M  V30 32943 H 3018.42 -0.445967 -4.58637 0
M  V30 32944 H 3016.74 -0.245254 -4.15677 0
M  V30 32945 H 3019.33 2.47419 -4.74012 0
M  V30 32946 H 3019.68 2.81954 -3.0628 0
M  V30 32947 H 3020.21 1.27423 -3.7684 0
M  V30 32948 H 3016.95 0.164298 -6.55294 0
M  V30 32949 H 3016.47 1.68101 -5.75762 0
M  V30 32950 H 3018.15 1.45023 -6.30537 0
M  V30 32951 N 3018.28 1.54674 0.3023 0
M  V30 32952 C 3019.53 1.7415 1.03921 0
M  V30 32953 C 3019.86 0.525074 1.86967 0
M  V30 32954 O 3019.13 -0.477835 1.88539 0
M  V30 32955 C 3019.42 3.02972 1.94628 0
M  V30 32956 C 3019.27 4.34911 1.1477 0
M  V30 32957 C 3020.59 3.27654 2.93821 0
M  V30 32958 H 3017.71 0.633638 0.376394 0
M  V30 32959 H 3020.35 1.87388 0.313974 0
M  V30 32960 H 3018.5 2.91817 2.56466 0
M  V30 32961 H 3020.17 4.57982 0.552282 0
M  V30 32962 H 3018.42 4.31456 0.450386 0
M  V30 32963 H 3019.09 5.21313 1.81486 0
M  V30 32964 H 3021.56 3.3841 2.42111 0
M  V30 32965 H 3020.44 4.1911 3.54455 0
M  V30 32966 H 3020.7 2.45888 3.67412 0
M  V30 32967 N 3019.76 -0.565428 1.47108 0
M  V30 32968 C 3020.69 -1.68817 1.55027 0
M  V30 32969 C 3021.7 -1.56822 0.437128 0
M  V30 32970 O 3022.89 -1.6393 0.706344 0
M  V30 32971 C 3019.99 -3.07218 1.43075 0
M  V30 32972 C 3019.17 -3.45048 2.68813 0
M  V30 32973 C 3018.22 -4.62578 2.50814 0
M  V30 32974 O 3017.25 -4.67571 3.24601 0
M  V30 32975 N 3018.45 -5.58555 1.58103 0
M  V30 32976 H 3021.22 -1.62472 2.51839 0
M  V30 32977 H 3018.78 -0.75186 1.43383 0
M  V30 32978 H 3020.77 -3.83664 1.2878 0
M  V30 32979 H 3019.34 -3.07834 0.543775 0
M  V30 32980 H 3018.56 -2.58133 2.97928 0
M  V30 32981 H 3019.85 -3.67095 3.52305 0
M  V30 32982 H 3019.25 -5.57271 0.972905 0
M  V30 32983 H 3017.8 -6.34361 1.49764 0
M  V30 32984 N 3021.24 -1.35102 -0.811492 0
M  V30 32985 C 3022.18 -1.2762 -1.92306 0
M  V30 32986 C 3023.15 -0.14912 -1.65429 0
M  V30 32987 O 3024.34 -0.332007 -1.87889 0
M  V30 32988 C 3021.48 -1.04914 -3.28766 0
M  V30 32989 C 3020.59 -2.265 -3.67861 0
M  V30 32990 C 3019.73 -1.96983 -4.93327 0
M  V30 32991 C 3018.77 -3.14649 -5.25036 0
M  V30 32992 N 3017.9 -2.84941 -6.4168 0
M  V30 32993 H 3022.74 -2.22677 -1.98037 0
M  V30 32994 H 3020.28 -1.10697 -0.968736 0
M  V30 32995 H 3022.24 -0.897821 -4.07425 0
M  V30 32996 H 3020.87 -0.135208 -3.22517 0
M  V30 32997 H 3019.92 -2.52512 -2.84503 0
M  V30 32998 H 3021.23 -3.14378 -3.87257 0
M  V30 32999 H 3020.39 -1.78653 -5.798 0
M  V30 33000 H 3019.12 -1.06382 -4.75956 0
M  V30 33001 H 3018.13 -3.33562 -4.37055 0
M  V30 33002 H 3019.35 -4.06044 -5.44339 0
M  V30 33003 H 3017.3 -1.96929 -6.25744 0
M  V30 33004 H 3017.22 -3.66353 -6.61303 0
M  V30 33005 H 3018.49 -2.70141 -7.31194 0
M  V30 33006 N 3022.71 1.03306 -1.19019 0
M  V30 33007 C 3023.64 2.13401 -0.947757 0
M  V30 33008 C 3024.63 1.69695 0.117353 0
M  V30 33009 O 3025.81 1.94165 -0.0368074 0
M  V30 33010 C 3022.94 3.43952 -0.481037 0
M  V30 33011 C 3021.89 4.01319 -1.4875 0
M  V30 33012 C 3021.22 5.27442 -0.878017 0
M  V30 33013 C 3022.52 4.36611 -2.8665 0
M  V30 33014 H 3024.21 2.33939 -1.8685 0
M  V30 33015 H 3021.76 1.12426 -0.899801 0
M  V30 33016 H 3023.71 4.2034 -0.298751 0
M  V30 33017 H 3022.44 3.23123 0.475291 0
M  V30 33018 H 3021.1 3.27022 -1.65686 0
M  V30 33019 H 3020.74 5.02927 0.0857348 0
M  V30 33020 H 3020.44 5.66786 -1.55006 0
M  V30 33021 H 3021.97 6.065 -0.706433 0
M  V30 33022 H 3023.38 5.03953 -2.73321 0
M  V30 33023 H 3021.78 4.87026 -3.50608 0
M  V30 33024 H 3022.85 3.46099 -3.39623 0
M  V30 33025 N 3024.19 0.99344 1.22346 0
M  V30 33026 C 3025.42 0.687761 1.95665 0
M  V30 33027 C 3025.84 -0.741131 1.72884 0
M  V30 33028 O 3025.2 -1.50669 1.00839 0
M  V30 33029 C 3025.25 1.00004 3.46456 0
M  V30 33030 O 3024.35 0.099011 4.12281 0
M  V30 33031 H 3023.69 0.257357 0.612098 0
M  V30 33032 H 3026.22 1.33056 1.55426 0
M  V30 33033 H 3026.23 0.942105 3.96974 0
M  V30 33034 H 3024.91 2.04125 3.62362 0
M  V30 33035 H 3023.49 0.212478 3.72294 0
M  V30 33036 N 3025.67 -1.37693 0.766707 0
M  V30 33037 C 3026.6 -2.28946 0.107838 0
M  V30 33038 C 3027.62 -1.48389 -0.669675 0
M  V30 33039 O 3028.8 -1.71101 -0.508599 0
M  V30 33040 C 3025.9 -3.27515 -0.871026 0
M  V30 33041 C 3025.08 -4.37148 -0.148394 0
M  V30 33042 C 3024.14 -5.15822 -1.03989 0
M  V30 33043 O 3023.16 -5.66951 -0.505539 0
M  V30 33044 N 3024.36 -5.30064 -2.36669 0
M  V30 33045 H 3027.13 -2.86131 0.891591 0
M  V30 33046 H 3024.69 -1.49615 0.618619 0
M  V30 33047 H 3026.68 -3.77029 -1.47075 0
M  V30 33048 H 3025.25 -2.71135 -1.55578 0
M  V30 33049 H 3024.47 -3.89098 0.632185 0
M  V30 33050 H 3025.76 -5.07587 0.351134 0
M  V30 33051 H 3025.16 -4.90099 -2.82524 0
M  V30 33052 H 3023.72 -5.82904 -2.9166 0
M  V30 33053 N 3027.15 -0.516835 -1.48884 0
M  V30 33054 C 3028.11 0.242216 -2.27917 0
M  V30 33055 C 3029.11 0.879711 -1.34602 0
M  V30 33056 O 3030.3 0.741792 -1.57617 0
M  V30 33057 C 3027.43 1.34909 -3.13069 0
M  V30 33058 H 3028.63 -0.451496 -2.96482 0
M  V30 33059 H 3026.18 -0.272321 -1.53909 0
M  V30 33060 H 3026.91 2.07646 -2.49105 0
M  V30 33061 H 3026.7 0.897246 -3.81696 0
M  V30 33062 H 3028.19 1.88334 -3.7272 0
M  V30 33063 N 3028.63 1.55583 -0.251365 0
M  V30 33064 C 3029.9 1.90978 0.422695 0
M  V30 33065 C 3030.28 1.17268 1.75532 0
M  V30 33066 O 3029.63 0.291628 2.26631 0
M  V30 33067 C 3029.84 3.44039 0.586388 0
M  V30 33068 C 3031.19 4.15376 0.880221 0
M  V30 33069 O 3032.21 3.49802 0.672087 0
M  V30 33070 O 3031.07 5.31375 1.27685 0
M  V30 33071 H 3028.17 0.795062 0.227608 0
M  V30 33072 H 3030.71 1.67103 -0.295762 0
M  V30 33073 H 3029.48 3.8971 -0.352395 0
M  V30 33074 H 3029.11 3.73791 1.35522 0
M  V30 33075 N 3030.1 -0.0216912 1.57585 0
M  V30 33076 C 3031.35 -0.709608 1.89233 0
M  V30 33077 C 3031.67 -1.755 0.849995 0
M  V30 33078 O 3030.94 -1.9556 -0.115451 0
M  V30 33079 H 3029.52 -0.26508 0.698385 0
M  V30 33080 H 3032.19 0.0141031 1.94895 0
M  V30 33081 H 3031.28 -1.19454 2.88335 0
M  V30 33082 N 3031.58 -1.54832 -0.294093 0
M  V30 33083 C 3032.81 -1.78767 -1.05153 0
M  V30 33084 C 3033.23 -0.548841 -1.79915 0
M  V30 33085 O 3032.59 0.500878 -1.74244 0
M  V30 33086 C 3032.64 -2.99896 -2.00236 0
M  V30 33087 O 3031.74 -2.73504 -3.08657 0
M  V30 33088 H 3031.08 -0.591487 -0.301727 0
M  V30 33089 H 3033.61 -2.01931 -0.329414 0
M  V30 33090 H 3033.62 -3.28056 -2.42577 0
M  V30 33091 H 3032.3 -3.8972 -1.45229 0
M  V30 33092 H 3030.88 -2.56382 -2.70782 0
M  V30 33093 N 3033.06 0.557619 -1.47405 0
M  V30 33094 C 3034.31 1.31481 -1.54009 0
M  V30 33095 C 3034.64 1.93446 -0.202196 0
M  V30 33096 O 3033.89 1.78383 0.80487 0
M  V30 33097 C 3034.19 2.44571 -2.60614 0
M  V30 33098 C 3033.86 2.00439 -4.039 0
M  V30 33099 C 3032.52 1.8812 -4.42905 0
M  V30 33100 C 3034.87 1.66745 -4.93807 0
M  V30 33101 C 3032.2 1.40401 -5.69653 0
M  V30 33102 C 3034.55 1.20498 -6.21018 0
M  V30 33103 C 3033.21 1.06774 -6.58905 0
M  V30 33104 H 3032.48 0.481124 -0.56356 0
M  V30 33105 H 3035.13 0.625343 -1.81002 0
M  V30 33106 H 3033.44 3.19072 -2.27377 0
M  V30 33107 H 3035.13 3.02754 -2.62947 0
M  V30 33108 H 3031.72 2.1097 -3.73081 0
M  V30 33109 H 3035.91 1.75136 -4.64372 0
M  V30 33110 H 3031.16 1.2844 -5.97757 0
M  V30 33111 H 3035.34 0.93488 -6.90096 0
M  V30 33112 H 3032.96 0.695758 -7.57009 0
M  V30 33113 N 3034.54 1.35531 0.804316 0
M  V30 33114 C 3035.47 1.31304 1.93084 0
M  V30 33115 C 3036.45 0.187073 1.69068 0
M  V30 33116 O 3037.64 0.382392 1.90398 0
M  V30 33117 C 3034.77 1.08656 3.29865 0
M  V30 33118 C 3033.72 2.17918 3.68369 0
M  V30 33119 C 3033.05 1.80432 5.03337 0
M  V30 33120 C 3034.35 3.599 3.78509 0
M  V30 33121 H 3036.04 2.25565 1.96878 0
M  V30 33122 H 3033.59 1.08583 0.945822 0
M  V30 33123 H 3035.54 1.04338 4.08279 0
M  V30 33124 H 3034.26 0.108416 3.2642 0
M  V30 33125 H 3032.92 2.21336 2.92243 0
M  V30 33126 H 3032.57 0.8123 4.96398 0
M  V30 33127 H 3032.27 2.53574 5.3007 0
M  V30 33128 H 3033.79 1.77643 5.84188 0
M  V30 33129 H 3035.21 3.58791 4.47149 0
M  V30 33130 H 3033.6 4.31822 4.16713 0
M  V30 33131 H 3034.67 3.95887 2.80003 0
M  V30 33132 N 3036.02 -1.02674 1.19565 0
M  V30 33133 C 3036.96 -2.10998 0.935329 0
M  V30 33134 C 3037.93 -1.65585 -0.130656 0
M  V30 33135 O 3039.12 -1.90796 0.0119397 0
M  V30 33136 C 3036.26 -3.41711 0.482444 0
M  V30 33137 C 3035.37 -4.00659 1.61544 0
M  V30 33138 C 3034.51 -5.1939 1.11387 0
M  V30 33139 C 3033.55 -5.70399 2.22062 0
M  V30 33140 N 3032.68 -6.80402 1.73197 0
M  V30 33141 H 3037.52 -2.32603 1.86279 0
M  V30 33142 H 3035.06 -1.14079 0.928676 0
M  V30 33143 H 3037.02 -4.16714 0.201253 0
M  V30 33144 H 3035.65 -3.20211 -0.40803 0
M  V30 33145 H 3034.7 -3.22849 2.01179 0
M  V30 33146 H 3036.01 -4.34529 2.4492 0
M  V30 33147 H 3035.17 -6.0156 0.788041 0
M  V30 33148 H 3033.91 -4.87059 0.249875 0
M  V30 33149 H 3032.91 -4.8684 2.55474 0
M  V30 33150 H 3034.14 -6.04768 3.08921 0
M  V30 33151 H 3032.08 -6.4992 0.891087 0
M  V30 33152 H 3032 -7.13411 2.50161 0
M  V30 33153 H 3033.27 -7.66162 1.43584 0
M  V30 33154 N 3037.5 -0.999914 -1.21817 0
M  V30 33155 C 3038.41 -0.565199 -2.2769 0
M  V30 33156 C 3039.42 0.389368 -1.69588 0
M  V30 33157 O 3040.6 0.254464 -1.99786 0
M  V30 33158 C 3037.66 0.106371 -3.46537 0
M  V30 33159 C 3036.72 -0.892038 -4.1993 0
M  V30 33160 C 3035.96 -0.252421 -5.33103 0
M  V30 33161 O 3036.18 0.952004 -5.62399 0
M  V30 33162 O 3035.11 -0.960802 -5.94182 0
M  V30 33163 H 3038.94 -1.44618 -2.67057 0
M  V30 33164 H 3036.52 -0.768522 -1.28118 0
M  V30 33165 H 3038.41 0.482228 -4.18632 0
M  V30 33166 H 3037.08 0.961811 -3.09081 0
M  V30 33167 H 3035.99 -1.31896 -3.50078 0
M  V30 33168 H 3037.32 -1.7169 -4.61284 0
M  V30 33169 N 3038.97 1.37284 -0.773999 0
M  V30 33170 C 3039.92 2.30245 -0.159979 0
M  V30 33171 C 3040.89 1.51212 0.68733 0
M  V30 33172 O 3042.08 1.79774 0.639224 0
M  V30 33173 C 3039.22 3.37688 0.711393 0
M  V30 33174 C 3038.33 4.3173 -0.152768 0
M  V30 33175 C 3037.46 5.2625 0.72352 0
M  V30 33176 C 3036.5 6.11933 -0.143037 0
M  V30 33177 N 3035.64 6.98688 0.691356 0
M  V30 33178 H 3040.48 2.82174 -0.958232 0
M  V30 33179 H 3038.02 1.38905 -0.484134 0
M  V30 33180 H 3039.97 3.98612 1.23143 0
M  V30 33181 H 3038.6 2.87118 1.47523 0
M  V30 33182 H 3037.66 3.72093 -0.790639 0
M  V30 33183 H 3038.97 4.91995 -0.821113 0
M  V30 33184 H 3038.12 5.92389 1.30996 0
M  V30 33185 H 3036.86 4.66401 1.42554 0
M  V30 33186 H 3035.87 5.4477 -0.741995 0
M  V30 33187 H 3037.09 6.73855 -0.842424 0
M  V30 33188 H 3035.04 6.41365 1.37795 0
M  V30 33189 H 3034.95 7.55957 0.0803583 0
M  V30 33190 H 3036.22 7.69214 1.26212 0
M  V30 33191 N 3040.45 0.524724 1.48608 0
M  V30 33192 C 3041.38 -0.229796 2.32366 0
M  V30 33193 C 3042.36 -0.940104 1.41761 0
M  V30 33194 O 3043.55 -0.926906 1.70652 0
M  V30 33195 C 3040.68 -1.28038 3.22837 0
M  V30 33196 C 3039.63 -0.688529 4.22425 0
M  V30 33197 C 3038.96 -1.84137 5.01994 0
M  V30 33198 C 3040.26 0.336268 5.21216 0
M  V30 33199 H 3041.95 0.469391 2.95698 0
M  V30 33200 H 3039.5 0.227181 1.42197 0
M  V30 33201 H 3041.45 -1.81613 3.80256 0
M  V30 33202 H 3040.17 -2.00907 2.57495 0
M  V30 33203 H 3038.83 -0.174338 3.66185 0
M  V30 33204 H 3038.48 -2.55832 4.33081 0
M  V30 33205 H 3038.18 -1.45132 5.69395 0
M  V30 33206 H 3039.71 -2.38101 5.62263 0
M  V30 33207 H 3041.12 -0.112206 5.7319 0
M  V30 33208 H 3039.52 0.643429 5.96641 0
M  V30 33209 H 3040.59 1.2439 4.68674 0
M  V30 33210 N 3041.93 -1.55447 0.259613 0
M  V30 33211 C 3042.89 -2.20618 -0.62132 0
M  V30 33212 C 3043.89 -1.17927 -1.09315 0
M  V30 33213 O 3045.08 -1.42931 -0.995816 0
M  V30 33214 C 3042.21 -2.85985 -1.85541 0
M  V30 33215 H 3043.41 -2.99854 -0.0525306 0
M  V30 33216 H 3040.96 -1.56297 0.0101329 0
M  V30 33217 H 3041.7 -2.1072 -2.46511 0
M  V30 33218 H 3041.48 -3.61222 -1.52516 0
M  V30 33219 H 3042.97 -3.35822 -2.48221 0
M  V30 33220 N 3043.41 0.0133338 -1.57594 0
M  V30 33221 C 3044.66 0.699562 -1.89606 0
M  V30 33222 C 3044.98 1.75046 -0.85929 0
M  V30 33223 O 3044.25 1.95618 0.105078 0
M  V30 33224 H 3042.83 0.261373 -0.699781 0
M  V30 33225 H 3045.49 -0.0244386 -1.94885 0
M  V30 33226 H 3044.58 1.17923 -2.88965 0
M  V30 33227 N 3044.89 1.54985 0.285878 0
M  V30 33228 C 3045.82 1.89986 1.35749 0
M  V30 33229 C 3046.8 0.760321 1.52162 0
M  V30 33230 O 3047.98 1.01736 1.65419 0
M  V30 33231 C 3045.11 2.16047 2.71921 0
M  V30 33232 C 3044.07 3.31883 2.70255 0
M  V30 33233 C 3043.39 3.43395 4.09858 0
M  V30 33234 C 3044.69 4.68609 2.30659 0
M  V30 33235 H 3046.39 2.7974 1.06704 0
M  V30 33236 H 3043.93 1.34596 0.51186 0
M  V30 33237 H 3045.88 2.39119 3.46987 0
M  V30 33238 H 3044.61 1.23079 3.02521 0
M  V30 33239 H 3043.27 3.08759 1.97645 0
M  V30 33240 H 3042.92 2.47917 4.3766 0
M  V30 33241 H 3042.62 4.21269 4.09641 0
M  V30 33242 H 3044.14 3.68745 4.86682 0
M  V30 33243 H 3045.55 4.9131 2.95444 0
M  V30 33244 H 3043.95 5.49305 2.41627 0
M  V30 33245 H 3045.02 4.68301 1.25785 0
M  V30 33246 N 3046.36 -0.549794 1.47699 0
M  V30 33247 C 3047.31 -1.67721 1.61159 0
M  V30 33248 C 3048.31 -1.62498 0.478635 0
M  V30 33249 O 3049.51 -1.67593 0.656691 0
M  V30 33250 H 3045.89 -0.555101 0.507313 0
M  V30 33251 H 3047.86 -1.53507 2.55887 0
M  V30 33252 C 3046.61 -3.06056 1.65 0
M  V30 33253 H 3045.93 -3.10761 2.51531 0
M  V30 33254 H 3047.37 -3.84611 1.78466 0
M  V30 33255 C 3045.83 -3.34696 0.384735 0
M  V30 33256 O 3046.36 -3.98437 -0.510987 0
M  V30 33257 N 3044.57 -2.89412 0.262485 0
M  V30 33258 H 3044.11 -2.37719 0.992332 0
M  V30 33259 H 3044.07 -3.08945 -0.583122 0
M  V30 33260 N 3047.84 -1.35955 -0.797117 0
M  V30 33261 C 3048.77 -1.25512 -1.91779 0
M  V30 33262 C 3049.79 -0.176299 -1.61843 0
M  V30 33263 O 3050.98 -0.430373 -1.73234 0
M  V30 33264 C 3048.08 -0.912131 -3.26395 0
M  V30 33265 C 3047.25 -2.09127 -3.84168 0
M  V30 33266 C 3046.31 -1.72255 -4.97207 0
M  V30 33267 O 3045.33 -2.44248 -5.14132 0
M  V30 33268 N 3046.54 -0.651713 -5.7683 0
M  V30 33269 H 3049.3 -2.22067 -2.01262 0
M  V30 33270 H 3046.86 -1.29248 -0.975011 0
M  V30 33271 H 3048.85 -0.646777 -3.99498 0
M  V30 33272 H 3047.42 -0.0359629 -3.12579 0
M  V30 33273 H 3046.64 -2.51987 -3.03144 0
M  V30 33274 H 3047.93 -2.87922 -4.19498 0
M  V30 33275 H 3047.33 -0.0537672 -5.65674 0
M  V30 33276 H 3045.89 -0.446164 -6.50271 0
M  V30 33277 N 3049.32 1.02038 -1.20108 0
M  V30 33278 C 3050.74 1.27866 -0.955121 0
M  V30 33279 C 3050.94 1.98119 0.36756 0
M  V30 33280 O 3049.99 2.27424 1.09701 0
M  V30 33281 C 3051.31 2.1174 -2.1351 0
M  V30 33282 C 3052.85 2.25019 -2.17567 0
M  V30 33283 C 3053.33 3.12269 -3.3504 0
M  V30 33284 N 3054.82 3.19858 -3.3503 0
M  V30 33285 C 3055.55 3.87582 -4.22573 0
M  V30 33286 N 3055.05 4.57465 -5.20286 0
M  V30 33287 N 3056.84 3.84068 -4.10425 0
M  V30 33288 H 3048.99 0.548574 -2.05194 0
M  V30 33289 H 3051.26 0.304712 -0.897694 0
M  V30 33290 H 3050.96 1.67451 -3.09278 0
M  V30 33291 H 3050.84 3.1247 -2.11287 0
M  V30 33292 H 3053.22 2.68535 -1.22364 0
M  V30 33293 H 3053.31 1.23811 -2.23841 0
M  V30 33294 H 3052.95 2.6946 -4.30527 0
M  V30 33295 H 3052.88 4.13557 -3.26004 0
M  V30 33296 H 3055.37 2.70096 -2.64304 0
M  V30 33297 H 3055.68 5.06798 -5.83417 0
M  V30 33298 H 3054.03 4.56302 -5.24227 0
M  V30 33299 H 3057.22 3.28617 -3.33359 0
M  V30 33300 H 3057.39 4.36573 -4.78862 0
M  V30 33301 N 3050.8 1.00636 1.21285 0
M  V30 33302 C 3052.04 0.700543 1.90955 0
M  V30 33303 C 3052.4 -0.760536 1.7673 0
M  V30 33304 O 3051.69 -1.54432 1.13408 0
M  V30 33305 C 3051.89 1.0583 3.41372 0
M  V30 33306 C 3051.72 2.55261 3.70232 0
M  V30 33307 C 3050.49 3.21883 3.89512 0
M  V30 33308 C 3052.68 3.53423 3.73626 0
M  V30 33309 N 3050.67 4.6065 4.05801 0
M  V30 33310 C 3052.04 4.77707 3.95217 0
M  V30 33311 C 3054.09 3.4754 3.56539 0
M  V30 33312 C 3052.79 5.96822 4.01492 0
M  V30 33313 C 3054.82 4.66046 3.64081 0
M  V30 33314 C 3054.18 5.89135 3.86134 0
M  V30 33315 H 3050.28 0.307848 0.718856 0
M  V30 33316 H 3052.87 1.28911 1.45911 0
M  V30 33317 H 3051.04 0.498174 3.85192 0
M  V30 33318 H 3052.77 0.707076 3.98475 0
M  V30 33319 H 3049.52 2.72325 3.87474 0
M  V30 33320 H 3049.95 5.32668 4.17844 0
M  V30 33321 H 3054.59 2.53381 3.38464 0
M  V30 33322 H 3052.31 6.91372 4.18366 0
M  V30 33323 H 3055.89 4.63099 3.5218 0
M  V30 33324 H 3054.77 6.79302 3.91815 0
M  V30 33325 N 3052.28 -1.36872 0.781268 0
M  V30 33326 C 3053.55 -1.93668 0.274251 0
M  V30 33327 C 3053.93 -1.71401 -1.23227 0
M  V30 33328 O 3053.28 -1.06826 -2.01991 0
M  V30 33329 C 3053.49 -3.42741 0.657999 0
M  V30 33330 C 3054.84 -4.19853 0.633144 0
M  V30 33331 O 3055.86 -3.51145 0.597971 0
M  V30 33332 O 3054.72 -5.42393 0.668731 0
M  V30 33333 H 3051.82 -0.824377 0.0658204 0
M  V30 33334 H 3054.36 -1.46102 0.863263 0
M  V30 33335 H 3053.13 -3.5257 1.69735 0
M  V30 33336 H 3052.76 -3.97577 0.0424377 0
M  V30 33337 N 3053.75 -0.532597 -1.48328 0
M  V30 33338 C 3054.72 0.218029 -2.28161 0
M  V30 33339 C 3055.72 0.865385 -1.35528 0
M  V30 33340 O 3056.91 0.725033 -1.58395 0
M  V30 33341 C 3054.04 1.31581 -3.14483 0
M  V30 33342 H 3055.23 -0.482917 -2.95986 0
M  V30 33343 H 3052.79 -0.28863 -1.53612 0
M  V30 33344 H 3053.52 2.04992 -2.51294 0
M  V30 33345 H 3053.31 0.856711 -3.82626 0
M  V30 33346 H 3054.8 1.8437 -3.74696 0
M  V30 33347 N 3055.23 1.55307 -0.267853 0
M  V30 33348 C 3056.48 1.98612 0.351601 0
M  V30 33349 C 3056.79 1.1596 1.5752 0
M  V30 33350 O 3058 1.49375 2.26715 0
M  V30 33351 C 3056.46 3.53477 0.676924 0
M  V30 33352 C 3056.06 4.44896 -0.526463 0
M  V30 33353 C 3057.81 4.05388 1.2594 0
M  V30 33354 C 3055.72 5.91138 -0.17613 0
M  V30 33355 H 3054.65 0.741789 0.135147 0
M  V30 33356 H 3057.3 1.79703 -0.371365 0
M  V30 33357 H 3055.68 3.68159 1.45859 0
M  V30 33358 H 3056.85 4.4198 -1.30347 0
M  V30 33359 H 3055.17 4.0358 -1.02529 0
M  V30 33360 H 3057.76 5.12187 1.5352 0
M  V30 33361 H 3058.11 3.53986 2.19088 0
M  V30 33362 H 3058.64 3.94115 0.540184 0
M  V30 33363 H 3055.38 6.4662 -1.07529 0
M  V30 33364 H 3054.9 5.9714 0.564258 0
M  V30 33365 H 3056.58 6.46576 0.234251 0
M  V30 33366 N 3056.71 -0.00497598 1.57599 0
M  V30 33367 C 3057.96 -0.691885 1.90633 0
M  V30 33368 C 3058.29 -1.73699 0.868474 0
M  V30 33369 O 3057.56 -1.94169 -0.113448 0
M  V30 33370 C 3057.85 -1.33955 3.34257 0
M  V30 33371 C 3057.7 -0.306334 4.48756 0
M  V30 33372 C 3059.02 -2.26708 3.77215 0
M  V30 33373 H 3056.14 -0.250053 0.693284 0
M  V30 33374 H 3058.78 0.0452967 1.89946 0
M  V30 33375 H 3056.93 -1.96788 3.34973 0
M  V30 33376 H 3058.6 0.321922 4.60175 0
M  V30 33377 H 3056.85 0.371928 4.32203 0
M  V30 33378 H 3057.52 -0.798458 5.46195 0
M  V30 33379 H 3059.99 -1.73898 3.7802 0
M  V30 33380 H 3058.87 -2.68993 4.7847 0
M  V30 33381 H 3059.13 -3.14407 3.10806 0
M  V30 33382 N 3058.19 -1.55135 -0.277654 0
M  V30 33383 C 3059.15 -1.86926 -1.32632 0
M  V30 33384 C 3060.15 -0.743532 -1.42577 0
M  V30 33385 O 3061.34 -1.01173 -1.41808 0
M  V30 33386 C 3058.47 -2.07039 -2.70828 0
M  V30 33387 H 3059.67 -2.80665 -1.05675 0
M  V30 33388 H 3057.22 -1.47555 -0.515491 0
M  V30 33389 H 3057.95 -1.15666 -3.02972 0
M  V30 33390 H 3057.74 -2.88997 -2.64996 0
M  V30 33391 H 3059.23 -2.32924 -3.46606 0
M  V30 33392 N 3059.67 0.541953 -1.47989 0
M  V30 33393 C 3060.58 1.6748 -1.64279 0
M  V30 33394 C 3061.59 1.65878 -0.525416 0
M  V30 33395 O 3062.77 1.85048 -0.794945 0
M  V30 33396 C 3059.83 3.03966 -1.6675 0
M  V30 33397 C 3058.89 3.16517 -2.90027 0
M  V30 33398 C 3058.13 4.46493 -2.92369 0
M  V30 33399 O 3058.35 5.32875 -2.03472 0
M  V30 33400 O 3057.28 4.63157 -3.84408 0
M  V30 33401 H 3061.11 1.56675 -2.60166 0
M  V30 33402 H 3058.7 0.713697 -1.31251 0
M  V30 33403 H 3060.58 3.85161 -1.70965 0
M  V30 33404 H 3059.25 3.1512 -0.740332 0
M  V30 33405 H 3058.16 2.34662 -2.91349 0
M  V30 33406 H 3059.49 3.10274 -3.82088 0
M  V30 33407 N 3061.15 1.36376 0.789896 0
M  V30 33408 C 3062.39 1.30773 1.55004 0
M  V30 33409 C 3062.72 -0.112945 1.93871 0
M  V30 33410 O 3062 -1.06622 1.62672 0
M  V30 33411 C 3062.28 2.22998 2.82744 0
M  V30 33412 C 3062.14 3.7376 2.50247 0
M  V30 33413 C 3063.45 2.14004 3.84565 0
M  V30 33414 H 3060.57 0.476369 0.562353 0
M  V30 33415 H 3063.22 1.66924 0.907552 0
M  V30 33416 H 3061.37 1.92298 3.3757 0
M  V30 33417 H 3063.04 4.14976 2.01475 0
M  V30 33418 H 3061.28 3.93219 1.83197 0
M  V30 33419 H 3061.95 4.337 3.4148 0
M  V30 33420 H 3064.43 2.41026 3.39184 0
M  V30 33421 H 3063.3 2.80705 4.71695 0
M  V30 33422 H 3063.56 1.12719 4.27489 0
M  V30 33423 N 3062.62 -1.014 1.20647 0
M  V30 33424 C 3063.57 -2.09994 0.957655 0
M  V30 33425 C 3064.54 -1.65715 -0.113086 0
M  V30 33426 O 3065.73 -1.90773 0.0321755 0
M  V30 33427 C 3062.87 -3.4118 0.51866 0
M  V30 33428 C 3061.98 -3.98923 1.65784 0
M  V30 33429 C 3061.11 -5.1818 1.1689 0
M  V30 33430 C 3060.15 -5.68011 2.281 0
M  V30 33431 N 3059.29 -6.78527 1.80404 0
M  V30 33432 H 3064.13 -2.30614 1.88736 0
M  V30 33433 H 3061.67 -1.13088 0.940723 0
M  V30 33434 H 3063.62 -4.16477 0.24544 0
M  V30 33435 H 3062.25 -3.20626 -0.374044 0
M  V30 33436 H 3061.31 -3.20697 2.04592 0
M  V30 33437 H 3062.62 -4.31907 2.49515 0
M  V30 33438 H 3061.77 -6.00691 0.8518 0
M  V30 33439 H 3060.51 -4.86767 0.30152 0
M  V30 33440 H 3059.52 -4.84103 2.60623 0
M  V30 33441 H 3060.74 -6.01458 3.15318 0
M  V30 33442 H 3058.69 -6.48938 0.95997 0
M  V30 33443 H 3058.6 -7.10718 2.57713 0
M  V30 33444 H 3059.87 -7.64596 1.51702 0
M  V30 33445 N 3064.1 -1.01278 -1.2075 0
M  V30 33446 C 3065.38 -0.615145 -1.85675 0
M  V30 33447 C 3065.76 0.906942 -1.90625 0
M  V30 33448 O 3065.11 1.79709 -1.41127 0
M  V30 33449 C 3065.32 -1.25852 -3.25518 0
M  V30 33450 C 3066.66 -1.37155 -4.01838 0
M  V30 33451 O 3067.69 -1.21444 -3.34858 0
M  V30 33452 O 3066.55 -1.62504 -5.2178 0
M  V30 33453 H 3063.64 -0.211743 -0.799434 0
M  V30 33454 H 3066.19 -1.10992 -1.2837 0
M  V30 33455 H 3064.96 -2.29874 -3.1666 0
M  V30 33456 H 3064.58 -0.750593 -3.90451 0
M  V30 33457 N 3065.58 1.36456 -0.788516 0
M  V30 33458 C 3067 1.5252 -0.47009 0
M  V30 33459 C 3067.2 1.74259 1.01173 0
M  V30 33460 O 3066.25 1.77358 1.79723 0
M  V30 33461 C 3067.56 2.71159 -1.29975 0
M  V30 33462 C 3069.11 2.85029 -1.29335 0
M  V30 33463 C 3069.59 4.06671 -2.10673 0
M  V30 33464 N 3071.08 4.13815 -2.08114 0
M  V30 33465 C 3071.81 5.07011 -2.67819 0
M  V30 33466 N 3071.31 6.05657 -3.3638 0
M  V30 33467 N 3073.1 4.9962 -2.57558 0
M  V30 33468 H 3065.25 1.20599 -1.74842 0
M  V30 33469 H 3067.52 0.588561 -0.743169 0
M  V30 33470 H 3067.22 2.61614 -2.35056 0
M  V30 33471 H 3067.1 3.65289 -0.940431 0
M  V30 33472 H 3069.48 2.94035 -0.250465 0
M  V30 33473 H 3069.56 1.91809 -1.69242 0
M  V30 33474 H 3069.21 3.98425 -3.14991 0
M  V30 33475 H 3069.14 4.99037 -1.68136 0
M  V30 33476 H 3071.63 3.43186 -1.58214 0
M  V30 33477 H 3071.94 6.73331 -3.7927 0
M  V30 33478 H 3070.29 6.05886 -3.40482 0
M  V30 33479 H 3073.48 4.21504 -2.03598 0
M  V30 33480 H 3073.65 5.72063 -3.0438 0
M  V30 33481 N 3067.06 0.540456 1.48043 0
M  V30 33482 C 3067.99 -0.253814 2.2779 0
M  V30 33483 C 3069 -0.894859 1.36 0
M  V30 33484 O 3070.19 -0.771535 1.60965 0
M  V30 33485 C 3067.29 -1.37561 3.09726 0
M  V30 33486 C 3066.46 -0.834515 4.29365 0
M  V30 33487 C 3065.52 -1.83872 4.93029 0
M  V30 33488 O 3064.55 -1.39149 5.5193 0
M  V30 33489 N 3065.75 -3.1714 4.86212 0
M  V30 33490 H 3068.52 0.430177 2.96597 0
M  V30 33491 H 3066.08 0.37545 1.57486 0
M  V30 33492 H 3068.07 -2.04578 3.49185 0
M  V30 33493 H 3066.64 -1.96309 2.43272 0
M  V30 33494 H 3065.86 0.0119571 3.94198 0
M  V30 33495 H 3067.15 -0.452066 5.06788 0
M  V30 33496 H 3066.55 -3.56133 4.39529 0
M  V30 33497 H 3065.1 -3.79761 5.2974 0
M  V30 33498 N 3068.54 -1.55163 0.276085 0
M  V30 33499 C 3069.95 -1.85382 -0.221483 0
M  V30 33500 C 3070.3 -1.1981 -1.5537 0
M  V30 33501 O 3069.42 -0.48678 -2.10854 0
M  V30 33502 C 3070.02 -3.36327 -0.408647 0
M  V30 33503 C 3068.58 -3.66667 -0.850447 0
M  V30 33504 C 3067.72 -2.77244 0.0557047 0
M  V30 33505 H 3070.67 -1.50689 0.497845 0
M  V30 33506 H 3070.7 -3.59484 -1.24705 0
M  V30 33507 H 3070.21 -3.84022 0.561119 0
M  V30 33508 H 3068.31 -3.24471 -1.83165 0
M  V30 33509 H 3068.42 -4.74147 -0.687097 0
M  V30 33510 H 3066.79 -2.50497 -0.460775 0
M  V30 33511 H 3067.57 -3.27754 1.02137 0
M  V30 33512 N 3070.01 -0.00338196 -1.576 0
M  V30 33513 C 3071.43 0.352738 -1.55653 0
M  V30 33514 C 3071.63 1.7457 -1.00635 0
M  V30 33515 O 3070.69 2.44211 -0.641664 0
M  V30 33516 C 3072 0.224876 -2.99858 0
M  V30 33517 C 3073.55 0.299564 -3.11563 0
M  V30 33518 C 3074.02 0.200787 -4.5756 0
M  V30 33519 N 3075.51 0.258582 -4.62478 0
M  V30 33520 C 3076.25 0.205543 -5.73031 0
M  V30 33521 N 3075.74 0.102905 -6.92724 0
M  V30 33522 N 3077.54 0.257655 -5.61509 0
M  V30 33523 H 3069.69 -0.914572 -1.91701 0
M  V30 33524 H 3071.95 -0.350881 -0.880674 0
M  V30 33525 H 3071.66 -0.733655 -3.43963 0
M  V30 33526 H 3071.53 1.00558 -3.63549 0
M  V30 33527 H 3073.92 1.24854 -2.67386 0
M  V30 33528 H 3074 -0.511069 -2.50643 0
M  V30 33529 H 3073.64 -0.74466 -5.02411 0
M  V30 33530 H 3073.57 1.02995 -5.1643 0
M  V30 33531 H 3076.06 0.339102 -3.76375 0
M  V30 33532 H 3076.38 0.0684235 -7.7277 0
M  V30 33533 H 3074.72 0.0684848 -6.94966 0
M  V30 33534 H 3077.91 0.33606 -4.66892 0
M  V30 33535 H 3078.09 0.212856 -6.4765 0
M  V30 33536 N 3071.49 1.5528 0.269423 0
M  V30 33537 C 3072.42 1.91415 1.33726 0
M  V30 33538 C 3073.4 0.776417 1.51347 0
M  V30 33539 O 3074.59 1.03485 1.6433 0
M  V30 33540 C 3071.72 2.18919 2.69614 0
M  V30 33541 C 3070.67 3.34731 2.6672 0
M  V30 33542 C 3070 3.47723 4.06193 0
M  V30 33543 C 3071.3 4.71029 2.25675 0
M  V30 33544 H 3072.99 2.80856 1.03731 0
M  V30 33545 H 3070.54 1.35131 0.497555 0
M  V30 33546 H 3072.49 2.42786 3.44432 0
M  V30 33547 H 3071.21 1.26281 3.01199 0
M  V30 33548 H 3069.87 3.10838 1.94359 0
M  V30 33549 H 3069.52 2.52545 4.35006 0
M  V30 33550 H 3069.22 4.25591 4.0515 0
M  V30 33551 H 3070.75 3.73886 4.82744 0
M  V30 33552 H 3072.16 4.94416 2.90217 0
M  V30 33553 H 3070.56 5.51837 2.35787 0
M  V30 33554 H 3071.63 4.69609 1.20811 0
M  V30 33555 N 3072.97 -0.534097 1.48274 0
M  V30 33556 C 3073.92 -1.63908 1.6249 0
M  V30 33557 C 3074.89 -1.59397 0.46709 0
M  V30 33558 O 3076.07 -1.77884 0.69006 0
M  V30 33559 C 3073.21 -3.0218 1.66676 0
M  V30 33560 C 3072.32 -3.16955 2.93536 0
M  V30 33561 C 3071.46 -4.45763 2.8891 0
M  V30 33562 C 3070.5 -4.54052 4.10491 0
M  V30 33563 N 3069.64 -5.74243 4.03966 0
M  V30 33564 H 3074.48 -1.51096 2.56854 0
M  V30 33565 H 3072.01 -0.735682 1.27382 0
M  V30 33566 H 3073.97 -3.8228 1.67086 0
M  V30 33567 H 3072.6 -3.13773 0.758066 0
M  V30 33568 H 3071.65 -2.30135 3.0289 0
M  V30 33569 H 3072.96 -3.18942 3.83507 0
M  V30 33570 H 3072.12 -5.34149 2.87697 0
M  V30 33571 H 3070.86 -4.46291 1.9666 0
M  V30 33572 H 3069.86 -3.64074 4.11984 0
M  V30 33573 H 3071.09 -4.55265 5.03895 0
M  V30 33574 H 3069.03 -5.75677 3.14535 0
M  V30 33575 H 3068.95 -5.77707 4.87638 0
M  V30 33576 H 3070.22 -6.64928 4.06806 0
M  V30 33577 N 3074.45 -1.36793 -0.782652 0
M  V30 33578 C 3075.7 -1.31139 -1.53776 0
M  V30 33579 C 3076.02 0.106979 -1.94706 0
M  V30 33580 O 3075.29 1.0487 -1.65467 0
M  V30 33581 H 3073.87 -0.482436 -0.57032 0
M  V30 33582 H 3076.53 -1.71164 -0.932151 0
M  V30 33583 H 3075.62 -1.94326 -2.44221 0
M  V30 33584 N 3075.93 1.00759 -1.21184 0
M  V30 33585 C 3076.84 2.12933 -0.984729 0
M  V30 33586 C 3077.85 1.73888 0.0623351 0
M  V30 33587 O 3079.03 2.00998 -0.127135 0
M  V30 33588 C 3076.09 3.42318 -0.549507 0
M  V30 33589 C 3075.15 3.95551 -1.66848 0
M  V30 33590 C 3074.39 5.1876 -1.25393 0
M  V30 33591 O 3074.61 5.7026 -0.126433 0
M  V30 33592 O 3073.54 5.65374 -2.06485 0
M  V30 33593 H 3077.37 2.34967 -1.92417 0
M  V30 33594 H 3074.96 1.11312 -0.99649 0
M  V30 33595 H 3076.84 4.2021 -0.316458 0
M  V30 33596 H 3075.51 3.21678 0.361248 0
M  V30 33597 H 3074.42 3.18897 -1.95591 0
M  V30 33598 H 3075.75 4.20595 -2.55657 0
M  V30 33599 N 3077.4 1.01917 1.20211 0
M  V30 33600 C 3078.63 0.72911 1.94162 0
M  V30 33601 C 3079.05 -0.704293 1.74417 0
M  V30 33602 O 3078.41 -1.48496 1.04012 0
M  V30 33603 C 3078.46 1.0733 3.44256 0
M  V30 33604 O 3077.56 0.18644 4.11978 0
M  V30 33605 H 3076.91 0.270282 0.606501 0
M  V30 33606 H 3079.44 1.36323 1.52569 0
M  V30 33607 H 3079.45 1.0261 3.94886 0
M  V30 33608 H 3078.12 2.11765 3.5795 0
M  V30 33609 H 3076.7 0.291399 3.7176 0
M  V30 33610 N 3078.88 -1.36036 0.795742 0
M  V30 33611 C 3079.83 -2.29961 0.196588 0
M  V30 33612 C 3080.8 -1.52286 -0.663186 0
M  V30 33613 O 3081.98 -1.80768 -0.610542 0
M  V30 33614 C 3079.12 -3.38777 -0.657579 0
M  V30 33615 C 3078.24 -4.31432 0.221433 0
M  V30 33616 C 3077.37 -5.27334 -0.639707 0
M  V30 33617 C 3076.41 -6.11628 0.240372 0
M  V30 33618 N 3075.55 -6.99699 -0.580114 0
M  V30 33619 H 3080.39 -2.80613 1.003 0
M  V30 33620 H 3077.93 -1.38117 0.506171 0
M  V30 33621 H 3079.88 -4.00521 -1.16786 0
M  V30 33622 H 3078.51 -2.89429 -1.42936 0
M  V30 33623 H 3077.57 -3.70788 0.849736 0
M  V30 33624 H 3078.88 -4.90627 0.899281 0
M  V30 33625 H 3078.03 -5.94398 -1.21555 0
M  V30 33626 H 3076.77 -4.6861 -1.35116 0
M  V30 33627 H 3075.78 -5.43521 0.82857 0
M  V30 33628 H 3077 -6.72429 0.949521 0
M  V30 33629 H 3074.95 -6.43476 -1.27574 0
M  V30 33630 H 3074.86 -7.55989 0.0399182 0
M  V30 33631 H 3076.13 -7.71125 -1.13958 0
M  V30 33632 N 3080.36 -0.5483 -1.47755 0
M  V30 33633 C 3081.29 0.24173 -2.27922 0
M  V30 33634 C 3082.31 0.887634 -1.36473 0
M  V30 33635 O 3083.49 0.762987 -1.61371 0
M  V30 33636 C 3080.59 1.35916 -3.10451 0
M  V30 33637 C 3079.77 0.811733 -4.29802 0
M  V30 33638 C 3078.83 1.81255 -4.93997 0
M  V30 33639 O 3077.85 1.3622 -5.5266 0
M  V30 33640 N 3079.05 3.14557 -4.87887 0
M  V30 33641 H 3081.82 -0.4459 -2.96364 0
M  V30 33642 H 3079.38 -0.383797 -1.57285 0
M  V30 33643 H 3081.37 2.02723 -3.50265 0
M  V30 33644 H 3079.94 1.95017 -2.4431 0
M  V30 33645 H 3079.16 -0.0328622 -3.94186 0
M  V30 33646 H 3080.45 0.425183 -5.0702 0
M  V30 33647 H 3079.85 3.53797 -4.41411 0
M  V30 33648 H 3078.41 3.76947 -5.31747 0
M  V30 33649 N 3081.84 1.55014 -0.28431 0
M  V30 33650 C 3083.08 2.00092 0.330317 0
M  V30 33651 C 3083.42 1.17247 1.54812 0
M  V30 33652 O 3082.69 0.244787 1.92953 0
M  V30 33653 C 3082.98 3.53163 0.70343 0
M  V30 33654 C 3082.83 4.46757 -0.522354 0
M  V30 33655 C 3084.15 4.12412 1.53638 0
M  V30 33656 H 3081.27 0.727397 0.118587 0
M  V30 33657 H 3083.91 1.85889 -0.393087 0
M  V30 33658 H 3082.06 3.65396 1.31977 0
M  V30 33659 H 3083.73 4.46454 -1.1609 0
M  V30 33660 H 3081.97 4.18038 -1.15872 0
M  V30 33661 H 3082.64 5.51572 -0.217392 0
M  V30 33662 H 3085.12 4.03511 1.01576 0
M  V30 33663 H 3084 5.19707 1.76624 0
M  V30 33664 H 3084.26 3.63224 2.52034 0
M  V30 33665 N 3083.32 0.0117398 1.57596 0
M  V30 33666 C 3084.25 -1.01013 2.04626 0
M  V30 33667 C 3085.23 -1.32784 0.938461 0
M  V30 33668 O 3086.41 -1.44748 1.20748 0
M  V30 33669 C 3083.54 -2.33473 2.45373 0
M  V30 33670 C 3082.58 -2.17282 3.67002 0
M  V30 33671 S 3083.42 -1.48786 5.14415 0
M  V30 33672 C 3084.57 -2.82653 5.58443 0
M  V30 33673 H 3084.81 -0.609718 2.90981 0
M  V30 33674 H 3082.34 -0.199467 1.53106 0
M  V30 33675 H 3084.3 -3.0963 2.69517 0
M  V30 33676 H 3082.96 -2.7065 1.59396 0
M  V30 33677 H 3082.15 -3.15165 3.93303 0
M  V30 33678 H 3081.75 -1.49269 3.42921 0
M  V30 33679 H 3084.05 -3.78931 5.6162 0
M  V30 33680 H 3084.99 -2.61037 6.58229 0
M  V30 33681 H 3085.4 -2.87101 4.86038 0
M  V30 33682 N 3084.79 -1.55421 -0.261185 0
M  V30 33683 C 3085.74 -1.89109 -1.32311 0
M  V30 33684 C 3086.71 -0.743794 -1.48516 0
M  V30 33685 O 3087.9 -0.996151 -1.62731 0
M  V30 33686 C 3085.04 -2.17881 -2.67622 0
M  V30 33687 C 3084.15 -3.45342 -2.59543 0
M  V30 33688 C 3083.28 -3.63755 -3.87112 0
M  V30 33689 C 3082.32 -4.84867 -3.73591 0
M  V30 33690 N 3081.46 -4.99875 -4.9302 0
M  V30 33691 H 3086.3 -2.79677 -1.02882 0
M  V30 33692 H 3083.84 -1.38457 -0.496787 0
M  V30 33693 H 3085.8 -2.32565 -3.46366 0
M  V30 33694 H 3084.43 -1.30534 -2.9523 0
M  V30 33695 H 3083.48 -3.39067 -1.72446 0
M  V30 33696 H 3084.79 -4.34226 -2.45457 0
M  V30 33697 H 3083.94 -3.7832 -4.74298 0
M  V30 33698 H 3082.68 -2.73078 -4.04079 0
M  V30 33699 H 3081.69 -4.70293 -2.84789 0
M  V30 33700 H 3082.91 -5.7699 -3.58133 0
M  V30 33701 H 3080.86 -4.12132 -5.10376 0
M  V30 33702 H 3080.78 -5.82824 -4.8151 0
M  V30 33703 H 3082.04 -5.18838 -5.81745 0
M  V30 33704 N 3086.27 0.526227 -1.48555 0
M  V30 33705 C 3087.5 1.3046 -1.60199 0
M  V30 33706 C 3087.91 1.87366 -0.262813 0
M  V30 33707 O 3087.25 1.67309 0.758507 0
M  V30 33708 C 3087.32 2.49081 -2.59228 0
M  V30 33709 C 3086.98 2.13234 -4.04203 0
M  V30 33710 C 3087.98 1.68685 -4.91774 0
M  V30 33711 C 3085.66 2.23642 -4.49766 0
M  V30 33712 C 3087.66 1.35015 -6.22936 0
M  V30 33713 C 3085.34 1.89583 -5.80949 0
M  V30 33714 C 3086.34 1.45341 -6.67357 0
M  V30 33715 O 3086.03 1.11731 -7.96098 0
M  V30 33716 H 3085.76 0.402857 -0.542847 0
M  V30 33717 H 3088.31 0.641123 -1.95138 0
M  V30 33718 H 3086.54 3.18422 -2.19418 0
M  V30 33719 H 3088.23 3.11139 -2.60667 0
M  V30 33720 H 3089 1.60112 -4.57809 0
M  V30 33721 H 3084.88 2.57033 -3.82694 0
M  V30 33722 H 3088.42 1.0041 -6.90336 0
M  V30 33723 H 3084.32 1.97799 -6.14447 0
M  V30 33724 H 3085.09 1.25097 -8.08884 0
M  V30 33725 N 3087.75 1.37206 0.775387 0
M  V30 33726 C 3089.17 1.17926 1.07543 0
M  V30 33727 C 3089.37 0.0129251 2.01496 0
M  V30 33728 O 3088.42 -0.648117 2.4404 0
M  V30 33729 C 3089.74 2.49632 1.67643 0
M  V30 33730 C 3091.28 2.56122 1.79918 0
M  V30 33731 C 3091.76 3.8795 2.43431 0
M  V30 33732 N 3093.25 3.89372 2.50886 0
M  V30 33733 C 3093.98 4.88122 3.00872 0
M  V30 33734 N 3093.48 5.97268 3.51059 0
M  V30 33735 N 3095.27 4.7553 2.99713 0
M  V30 33736 H 3087.42 2.11859 0.151486 0
M  V30 33737 H 3089.69 0.939068 0.129829 0
M  V30 33738 H 3089.39 3.35322 1.06077 0
M  V30 33739 H 3089.27 2.66458 2.66983 0
M  V30 33740 H 3091.65 1.70842 2.40618 0
M  V30 33741 H 3091.74 2.43183 0.793439 0
M  V30 33742 H 3091.38 4.73643 1.83372 0
M  V30 33743 H 3091.31 3.9819 3.44604 0
M  V30 33744 H 3093.8 3.10526 2.15364 0
M  V30 33745 H 3094.11 6.68574 3.87593 0
M  V30 33746 H 3092.46 6.00918 3.49174 0
M  V30 33747 H 3095.65 3.89384 2.59803 0
M  V30 33748 H 3095.82 5.52645 3.3836 0
M  V30 33749 N 3089.23 -1.00115 1.21716 0
M  V30 33750 C 3090.18 -2.07389 0.947295 0
M  V30 33751 C 3091.16 -1.60596 -0.098938 0
M  V30 33752 O 3092.35 -1.76655 0.110501 0
M  V30 33753 C 3089.48 -3.39369 0.518013 0
M  V30 33754 C 3088.57 -3.92821 1.59853 0
M  V30 33755 N 3088.96 -4.19593 2.82445 0
M  V30 33756 C 3087.26 -4.21138 1.46829 0
M  V30 33757 C 3087.96 -4.62916 3.52255 0
M  V30 33758 N 3086.94 -4.66119 2.79704 0
M  V30 33759 H 3090.74 -2.26019 1.87864 0
M  V30 33760 H 3088.25 -1.18219 1.11347 0
M  V30 33761 H 3090.25 -4.15775 0.306024 0
M  V30 33762 H 3088.91 -3.22145 -0.406524 0
M  V30 33763 H 3089.92 -4.08032 3.18951 0
M  V30 33764 H 3086.6 -4.1303 0.609331 0
M  V30 33765 H 3087.99 -4.92322 4.57241 0
M  V30 33766 N 3090.71 -1.02553 -1.19669 0
M  V30 33767 C 3091.64 -0.561557 -2.22214 0
M  V30 33768 C 3092.65 0.360793 -1.58752 0
M  V30 33769 O 3093.84 0.157718 -1.77802 0
M  V30 33770 C 3090.94 0.201435 -3.38301 0
M  V30 33771 C 3090.11 -0.725028 -4.31349 0
M  V30 33772 C 3089.17 -0.00803583 -5.26199 0
M  V30 33773 O 3088.2 -0.633497 -5.65664 0
M  V30 33774 N 3089.4 1.26384 -5.66575 0
M  V30 33775 H 3092.17 -1.44348 -2.62648 0
M  V30 33776 H 3089.73 -0.904145 -1.34301 0
M  V30 33777 H 3091.72 0.690555 -3.98765 0
M  V30 33778 H 3090.29 0.984738 -2.96684 0
M  V30 33779 H 3089.51 -1.3943 -3.68718 0
M  V30 33780 H 3090.8 -1.35481 -4.90431 0
M  V30 33781 H 3090.2 1.79278 -5.36541 0
M  V30 33782 H 3088.75 1.69752 -6.29307 0
M  V30 33783 N 3092.19 1.35612 -0.802945 0
M  V30 33784 C 3093.12 2.32412 -0.225172 0
M  V30 33785 C 3094.1 1.573 0.647356 0
M  V30 33786 O 3095.28 1.85387 0.578382 0
M  V30 33787 C 3092.41 3.41538 0.630025 0
M  V30 33788 C 3091.37 4.27759 -0.14371 0
M  V30 33789 C 3090.69 5.28172 0.832953 0
M  V30 33790 C 3091.99 5.04801 -1.34063 0
M  V30 33791 H 3093.69 2.80982 -1.0339 0
M  V30 33792 H 3091.23 1.35092 -0.498617 0
M  V30 33793 H 3093.18 4.08256 1.04426 0
M  V30 33794 H 3091.91 2.91567 1.4716 0
M  V30 33795 H 3090.57 3.62615 -0.539079 0
M  V30 33796 H 3090.22 4.74471 1.66993 0
M  V30 33797 H 3089.92 5.8673 0.319594 0
M  V30 33798 H 3091.44 5.97763 1.24547 0
M  V30 33799 H 3092.85 5.64485 -1.00146 0
M  V30 33800 H 3091.25 5.72837 -1.78822 0
M  V30 33801 H 3092.32 4.35655 -2.12914 0
M  V30 33802 N 3093.66 0.556128 1.47462 0
M  V30 33803 C 3094.94 -0.0339548 1.95571 0
M  V30 33804 C 3095.32 -1.48666 1.49872 0
M  V30 33805 O 3094.67 -2.16286 0.737057 0
M  V30 33806 C 3094.88 0.110404 3.48825 0
M  V30 33807 C 3096.23 -0.035497 4.24585 0
M  V30 33808 O 3097.25 0.0378982 3.5618 0
M  V30 33809 O 3096.11 -0.193203 5.46158 0
M  V30 33810 H 3093.2 -0.0647376 0.824462 0
M  V30 33811 H 3095.75 0.622575 1.57867 0
M  V30 33812 H 3094.52 1.12133 3.74889 0
M  V30 33813 H 3094.14 -0.583786 3.93291 0
M  V30 33814 N 3095.14 -1.54861 0.292527 0
M  V30 33815 C 3096.05 -2.26877 -0.596996 0
M  V30 33816 C 3097.07 -1.30088 -1.15555 0
M  V30 33817 O 3098.24 -1.63056 -1.18215 0
M  V30 33818 C 3095.31 -2.98906 -1.75658 0
M  V30 33819 C 3094.37 -4.11214 -1.23296 0
M  V30 33820 C 3093.6 -4.79799 -2.33728 0
M  V30 33821 O 3093.83 -4.47692 -3.53452 0
M  V30 33822 O 3092.76 -5.67383 -2.00898 0
M  V30 33823 H 3096.59 -3.03697 -0.0130708 0
M  V30 33824 H 3094.17 -1.49282 0.0592904 0
M  V30 33825 H 3096.05 -3.44114 -2.43235 0
M  V30 33826 H 3094.73 -2.24988 -2.32727 0
M  V30 33827 H 3093.63 -3.70424 -0.523156 0
M  V30 33828 H 3094.97 -4.87084 -0.707801 0
M  V30 33829 N 3096.62 -0.0200973 -1.57587 0
M  V30 33830 C 3097.87 0.659788 -1.90603 0
M  V30 33831 C 3098.18 1.73807 -0.897247 0
M  V30 33832 O 3099.39 2.47398 -1.11833 0
M  V30 33833 C 3097.84 1.22478 -3.38419 0
M  V30 33834 C 3097.45 0.18026 -4.47637 0
M  V30 33835 C 3099.2 1.8817 -3.80516 0
M  V30 33836 C 3097.1 0.756379 -5.86543 0
M  V30 33837 H 3096.03 0.250203 -0.711277 0
M  V30 33838 H 3098.68 -0.0839265 -1.83308 0
M  V30 33839 H 3097.07 2.01981 -3.40616 0
M  V30 33840 H 3098.24 -0.591653 -4.56986 0
M  V30 33841 H 3096.55 -0.377375 -4.14686 0
M  V30 33842 H 3099.15 2.32214 -4.81644 0
M  V30 33843 H 3099.49 2.72067 -3.15095 0
M  V30 33844 H 3100.03 1.1537 -3.80703 0
M  V30 33845 H 3096.77 -0.044262 -6.55485 0
M  V30 33846 H 3096.29 1.49699 -5.80819 0
M  V30 33847 H 3097.97 1.24889 -6.34832 0
M  V30 33848 N 3098.1 1.55557 0.252939 0
M  V30 33849 C 3099.35 1.76308 0.979705 0
M  V30 33850 C 3099.66 0.582904 1.86713 0
M  V30 33851 O 3100.87 0.673293 2.63019 0
M  V30 33852 C 3099.32 3.12115 1.79199 0
M  V30 33853 C 3098.93 4.37763 0.952256 0
M  V30 33854 C 3100.67 3.42208 2.51185 0
M  V30 33855 C 3098.58 5.64602 1.76008 0
M  V30 33856 H 3097.51 0.657241 0.369527 0
M  V30 33857 H 3100.16 1.81994 0.234587 0
M  V30 33858 H 3098.54 3.0052 2.57883 0
M  V30 33859 H 3099.72 4.6033 0.20817 0
M  V30 33860 H 3098.03 4.1496 0.346009 0
M  V30 33861 H 3100.63 4.34187 3.12067 0
M  V30 33862 H 3100.97 2.63254 3.22495 0
M  V30 33863 H 3101.51 3.54991 1.79516 0
M  V30 33864 H 3098.24 6.4636 1.09084 0
M  V30 33865 H 3097.76 5.46146 2.47961 0
M  V30 33866 H 3099.44 6.03638 2.32874 0
M  V30 33867 N 3099.58 -0.518341 1.48832 0
M  V30 33868 C 3100.82 -1.28388 1.59047 0
M  V30 33869 C 3101.18 -1.90184 0.263476 0
M  V30 33870 O 3102.38 -2.6772 0.240687 0
M  V30 33871 C 3100.65 -2.33543 2.70541 0
M  V30 33872 S 3102.21 -3.19667 3.00596 0
M  V30 33873 H 3099.03 -0.436563 0.561189 0
M  V30 33874 H 3101.63 -0.589189 1.8641 0
M  V30 33875 H 3100.33 -1.86645 3.65502 0
M  V30 33876 H 3099.87 -3.07704 2.45116 0
M  V30 33877 H 3101.88 -4.33862 2.40786 0
M  V30 33878 N 3101.05 -1.37615 -0.7681 0
M  V30 33879 C 3102.3 -1.34229 -1.52821 0
M  V30 33880 C 3102.65 0.0717144 -1.92266 0
M  V30 33881 O 3101.95 1.03116 -1.61486 0
M  V30 33882 C 3102.14 -2.21861 -2.802 0
M  V30 33883 C 3101.97 -3.71641 -2.53206 0
M  V30 33884 C 3100.74 -4.40731 -2.47151 0
M  V30 33885 C 3102.94 -4.64416 -2.20957 0
M  V30 33886 N 3100.92 -5.7603 -2.12279 0
M  V30 33887 C 3102.29 -5.88119 -1.96254 0
M  V30 33888 C 3104.35 -4.52765 -2.07143 0
M  V30 33889 C 3103.05 -7.01476 -1.59133 0
M  V30 33890 C 3105.08 -5.66011 -1.71422 0
M  V30 33891 C 3104.44 -6.88766 -1.47582 0
M  V30 33892 H 3100.54 -0.546461 -0.559378 0
M  V30 33893 H 3103.12 -1.7287 -0.895764 0
M  V30 33894 H 3101.29 -1.8543 -3.41277 0
M  V30 33895 H 3103.02 -2.09706 -3.46129 0
M  V30 33896 H 3099.78 -3.93776 -2.6313 0
M  V30 33897 H 3100.2 -6.47542 -1.97529 0
M  V30 33898 H 3104.84 -3.58426 -2.24255 0
M  V30 33899 H 3102.56 -7.95746 -1.40759 0
M  V30 33900 H 3106.15 -5.58968 -1.61387 0
M  V30 33901 H 3105.03 -7.7491 -1.20351 0
M  V30 33902 N 3102.53 0.994677 -1.22245 0
M  V30 33903 C 3103.46 2.10277 -1.01517 0
M  V30 33904 C 3104.44 1.69982 0.0633067 0
M  V30 33905 O 3105.63 1.9395 -0.0985609 0
M  V30 33906 C 3102.76 3.42248 -0.59022 0
M  V30 33907 C 3101.71 3.96384 -1.61443 0
M  V30 33908 C 3101.04 5.24382 -1.04537 0
M  V30 33909 C 3102.34 4.2727 -3.00395 0
M  V30 33910 H 3104.03 2.27876 -1.94198 0
M  V30 33911 H 3101.58 1.09506 -0.935113 0
M  V30 33912 H 3103.53 4.19176 -0.432328 0
M  V30 33913 H 3102.25 3.24472 0.372251 0
M  V30 33914 H 3100.91 3.21586 -1.76006 0
M  V30 33915 H 3100.56 5.02945 -0.0743109 0
M  V30 33916 H 3100.26 5.61568 -1.72959 0
M  V30 33917 H 3101.79 6.03945 -0.899028 0
M  V30 33918 H 3103.2 4.95002 -2.89216 0
M  V30 33919 H 3101.6 4.75625 -3.65925 0
M  V30 33920 H 3102.67 3.35119 -3.50462 0
M  V30 33921 N 3104.01 1.03186 1.19123 0
M  V30 33922 C 3105.24 0.749784 1.92836 0
M  V30 33923 C 3105.65 -0.69182 1.75668 0
M  V30 33924 O 3105.01 -1.47074 1.08053 0
M  V30 33925 C 3105.06 1.09532 3.44507 0
M  V30 33926 O 3104.78 2.48031 3.61126 0
M  V30 33927 C 3106.28 0.836473 4.35337 0
M  V30 33928 H 3103.5 0.274116 0.612455 0
M  V30 33929 H 3106.05 1.37715 1.51178 0
M  V30 33930 H 3104.2 0.513073 3.83987 0
M  V30 33931 H 3104.62 2.60992 4.54955 0
M  V30 33932 H 3106.09 1.12818 5.40348 0
M  V30 33933 H 3106.57 -0.229025 4.38602 0
M  V30 33934 H 3107.17 1.40159 4.01541 0
M  V30 33935 N 3105.49 -1.35184 0.810125 0
M  V30 33936 C 3106.44 -2.2974 0.220968 0
M  V30 33937 C 3107.41 -1.52981 -0.646997 0
M  V30 33938 O 3108.59 -1.81405 -0.591335 0
M  V30 33939 C 3105.73 -3.39455 -0.62161 0
M  V30 33940 C 3104.84 -4.31173 0.26718 0
M  V30 33941 C 3103.98 -5.27983 -0.58374 0
M  V30 33942 C 3103.02 -6.11338 0.30523 0
M  V30 33943 N 3102.15 -7.00275 -0.505868 0
M  V30 33944 H 3106.99 -2.79534 1.03271 0
M  V30 33945 H 3104.53 -1.37572 0.520792 0
M  V30 33946 H 3106.49 -4.01737 -1.12532 0
M  V30 33947 H 3105.12 -2.90929 -1.39858 0
M  V30 33948 H 3104.17 -3.69866 0.889015 0
M  V30 33949 H 3105.48 -4.89645 0.951268 0
M  V30 33950 H 3104.64 -5.95654 -1.15244 0
M  V30 33951 H 3103.38 -4.70016 -1.30138 0
M  V30 33952 H 3102.38 -5.42611 0.886171 0
M  V30 33953 H 3103.61 -6.71384 1.02079 0
M  V30 33954 H 3101.55 -6.44793 -1.20742 0
M  V30 33955 H 3101.47 -7.55905 0.120099 0
M  V30 33956 H 3102.74 -7.7229 -1.05773 0
M  V30 33957 N 3106.97 -0.56394 -1.47165 0
M  V30 33958 C 3107.93 0.169583 -2.28572 0
M  V30 33959 C 3108.93 0.836443 -1.37333 0
M  V30 33960 O 3110.12 0.691272 -1.59897 0
M  V30 33961 C 3107.25 1.2488 -3.17203 0
M  V30 33962 H 3108.44 -0.545591 -2.94895 0
M  V30 33963 H 3106 -0.321148 -1.52965 0
M  V30 33964 H 3106.73 1.99616 -2.55585 0
M  V30 33965 H 3106.52 0.775358 -3.84357 0
M  V30 33966 H 3108.01 1.76381 -3.78523 0
M  V30 33967 N 3108.44 1.54704 -0.300735 0
M  V30 33968 C 3109.35 2.2719 0.584956 0
M  V30 33969 C 3110.37 1.30699 1.14864 0
M  V30 33970 O 3111.55 1.63681 1.17348 0
M  V30 33971 C 3108.61 2.99834 1.74071 0
M  V30 33972 C 3107.67 4.11862 1.21113 0
M  V30 33973 C 3106.91 4.81032 2.3118 0
M  V30 33974 O 3107.13 4.4956 3.51072 0
M  V30 33975 O 3106.06 5.6844 1.97887 0
M  V30 33976 H 3109.89 3.037 -0.00303516 0
M  V30 33977 H 3107.47 1.49249 -0.0672064 0
M  V30 33978 H 3109.36 3.454 2.41407 0
M  V30 33979 H 3108.03 2.26219 2.31531 0
M  V30 33980 H 3106.94 3.70696 0.503505 0
M  V30 33981 H 3108.27 4.87453 0.68196 0
M  V30 33982 N 3109.92 0.0284543 1.57574 0
M  V30 33983 C 3110.87 -0.962768 2.06676 0
M  V30 33984 C 3111.86 -1.28589 0.967138 0
M  V30 33985 O 3113.05 -1.27212 1.2307 0
M  V30 33986 C 3110.18 -2.2454 2.59686 0
M  V30 33987 C 3109.26 -1.95067 3.76576 0
M  V30 33988 N 3109.65 -1.3586 4.87212 0
M  V30 33989 C 3107.95 -2.25061 3.8505 0
M  V30 33990 C 3108.65 -1.23504 5.68438 0
M  V30 33991 N 3107.63 -1.73032 5.15326 0
M  V30 33992 H 3111.43 -0.499962 2.89616 0
M  V30 33993 H 3108.95 -0.176576 1.61437 0
M  V30 33994 H 3110.94 -2.96423 2.93153 0
M  V30 33995 H 3109.6 -2.71448 1.78175 0
M  V30 33996 H 3110.61 -1.0337 5.07479 0
M  V30 33997 H 3107.29 -2.74647 3.14444 0
M  V30 33998 H 3108.68 -0.777285 6.67389 0
M  V30 33999 N 3111.4 -1.55689 -0.244686 0
M  V30 34000 C 3112.36 -1.89697 -1.28637 0
M  V30 34001 C 3113.36 -0.773608 -1.40968 0
M  V30 34002 O 3114.55 -1.04158 -1.39631 0
M  V30 34003 C 3111.69 -2.12737 -2.66375 0
M  V30 34004 H 3112.88 -2.82843 -0.996983 0
M  V30 34005 H 3110.43 -1.48615 -0.484077 0
M  V30 34006 H 3111.17 -1.22067 -3.0045 0
M  V30 34007 H 3110.95 -2.94553 -2.58806 0
M  V30 34008 H 3112.44 -2.40224 -3.41588 0
M  V30 34009 N 3112.88 0.510441 -1.49105 0
M  V30 34010 C 3113.81 1.63037 -1.59669 0
M  V30 34011 C 3114.79 1.56359 -0.446173 0
M  V30 34012 O 3115.97 1.76551 -0.660445 0
M  V30 34013 C 3113.1 3.01518 -1.54287 0
M  V30 34014 C 3112.15 3.26489 -2.74421 0
M  V30 34015 S 3112.98 3.10635 -4.36195 0
M  V30 34016 C 3114.14 4.51529 -4.33443 0
M  V30 34017 H 3114.37 1.53829 -2.54409 0
M  V30 34018 H 3111.9 0.694891 -1.37879 0
M  V30 34019 H 3113.86 3.81374 -1.51868 0
M  V30 34020 H 3112.52 3.08149 -0.608512 0
M  V30 34021 H 3111.71 4.27561 -2.66848 0
M  V30 34022 H 3111.32 2.54339 -2.74204 0
M  V30 34023 H 3113.61 5.43434 -4.04581 0
M  V30 34024 H 3114.55 4.64153 -5.3476 0
M  V30 34025 H 3114.96 4.31766 -3.63646 0
M  V30 34026 N 3114.36 1.38021 0.760791 0
M  V30 34027 C 3115.29 1.30553 1.88384 0
M  V30 34028 C 3116.3 0.219147 1.61318 0
M  V30 34029 O 3117.49 0.476152 1.72032 0
M  V30 34030 C 3114.59 0.998348 3.23861 0
M  V30 34031 C 3113.76 2.19239 3.78488 0
M  V30 34032 C 3112.82 1.85377 4.92465 0
M  V30 34033 O 3111.85 2.57794 5.07475 0
M  V30 34034 N 3113.05 0.80442 5.74899 0
M  V30 34035 H 3115.82 2.27325 1.95304 0
M  V30 34036 H 3113.38 1.31788 0.9404 0
M  V30 34037 H 3115.37 0.75247 3.97643 0
M  V30 34038 H 3113.94 0.118825 3.12374 0
M  V30 34039 H 3113.16 2.59936 2.96356 0
M  V30 34040 H 3114.45 2.98943 4.11717 0
M  V30 34041 H 3113.84 0.203727 5.65333 0
M  V30 34042 H 3112.4 0.618415 6.4886 0
M  V30 34043 N 3115.83 -0.98818 1.22771 0
M  V30 34044 C 3116.78 -2.07916 1.00198 0
M  V30 34045 C 3117.75 -1.65917 -0.0779099 0
M  V30 34046 O 3118.94 -1.90662 0.072634 0
M  V30 34047 C 3116.08 -3.40003 0.590913 0
M  V30 34048 C 3115.19 -3.95317 1.74209 0
M  V30 34049 C 3114.32 -5.15584 1.27855 0
M  V30 34050 C 3113.36 -5.63045 2.40097 0
M  V30 34051 N 3112.5 -6.74548 1.94756 0
M  V30 34052 H 3117.34 -2.26559 1.93585 0
M  V30 34053 H 3114.88 -1.11067 0.964499 0
M  V30 34054 H 3116.84 -4.15863 0.333726 0
M  V30 34055 H 3115.47 -3.21347 -0.30595 0
M  V30 34056 H 3114.52 -3.16285 2.11348 0
M  V30 34057 H 3115.83 -4.26517 2.5862 0
M  V30 34058 H 3114.98 -5.98749 0.979024 0
M  V30 34059 H 3113.72 -4.86018 0.404702 0
M  V30 34060 H 3112.73 -4.78466 2.70833 0
M  V30 34061 H 3113.95 -5.94634 3.28005 0
M  V30 34062 H 3111.9 -6.46756 1.0974 0
M  V30 34063 H 3111.82 -7.05091 2.72731 0
M  V30 34064 H 3113.08 -7.61206 1.67886 0
M  V30 34065 N 3117.31 -1.03816 -1.18575 0
M  V30 34066 C 3118.73 -0.756934 -1.40509 0
M  V30 34067 C 3118.93 0.654598 -1.90571 0
M  V30 34068 O 3117.98 1.41918 -2.08843 0
M  V30 34069 C 3119.3 -1.80091 -2.40806 0
M  V30 34070 C 3120.85 -1.82153 -2.54538 0
M  V30 34071 C 3121.32 -2.85535 -3.58097 0
M  V30 34072 N 3122.81 -2.8441 -3.65602 0
M  V30 34073 C 3123.55 -3.61055 -4.45451 0
M  V30 34074 N 3123.04 -4.47444 -5.28929 0
M  V30 34075 N 3124.84 -3.49555 -4.4019 0
M  V30 34076 H 3116.99 -1.9491 -0.84404 0
M  V30 34077 H 3119.25 -0.843196 -0.433272 0
M  V30 34078 H 3118.96 -2.81326 -2.11065 0
M  V30 34079 H 3118.83 -1.63095 -3.40118 0
M  V30 34080 H 3121.22 -0.815905 -2.83597 0
M  V30 34081 H 3121.3 -2.03225 -1.55348 0
M  V30 34082 H 3120.94 -3.86275 -3.29779 0
M  V30 34083 H 3120.87 -2.61718 -4.56959 0
M  V30 34084 H 3123.36 -2.21762 -3.0599 0
M  V30 34085 H 3123.68 -5.02642 -5.87001 0
M  V30 34086 H 3122.02 -4.51512 -5.28358 0
M  V30 34087 H 3125.21 -2.81471 -3.74021 0
M  V30 34088 H 3125.38 -4.09537 -5.02179 0
M  V30 34089 N 3118.79 1.34753 -0.817283 0
M  V30 34090 C 3120.02 2.03217 -0.414459 0
M  V30 34091 C 3120.44 1.6116 0.970008 0
M  V30 34092 O 3119.8 0.793464 1.63015 0
M  V30 34093 C 3119.85 3.56858 -0.518149 0
M  V30 34094 O 3118.95 4.09779 0.464242 0
M  V30 34095 H 3118.29 0.641479 -0.171465 0
M  V30 34096 H 3120.82 1.72121 -1.10614 0
M  V30 34097 H 3120.83 4.06114 -0.39185 0
M  V30 34098 H 3119.51 3.86817 -1.52793 0
M  V30 34099 H 3118.08 3.71713 0.297296 0
M  V30 34100 N 3120.27 0.571737 1.46864 0
M  V30 34101 C 3121.5 0.0584339 2.06817 0
M  V30 34102 C 3121.91 -1.24173 1.4222 0
M  V30 34103 O 3121.27 -1.74825 0.523686 0
M  V30 34104 C 3121.32 -0.125609 3.61282 0
M  V30 34105 O 3121.04 1.12308 4.2346 0
M  V30 34106 C 3122.54 -0.674527 4.38138 0
M  V30 34107 H 3119.76 0.0524497 0.668947 0
M  V30 34108 H 3122.31 0.789285 1.88655 0
M  V30 34109 H 3120.46 -0.80664 3.78909 0
M  V30 34110 H 3120.88 0.929959 5.1619 0
M  V30 34111 H 3122.35 -0.75253 5.46846 0
M  V30 34112 H 3122.83 -1.68908 4.05422 0
M  V30 34113 H 3123.43 -0.0287231 4.2529 0
M  V30 34114 N 3121.75 -1.54542 0.308935 0
M  V30 34115 C 3122.98 -2.04708 -0.300382 0
M  V30 34116 C 3123.39 -1.18584 -1.46913 0
M  V30 34117 O 3122.75 -0.213218 -1.8125 0
M  V30 34118 C 3122.8 -3.53656 -0.748976 0
M  V30 34119 O 3122.52 -4.36507 0.373258 0
M  V30 34120 C 3124.02 -4.19853 -1.42262 0
M  V30 34121 H 3121.24 -0.66793 -0.0641149 0
M  V30 34122 H 3123.78 -1.99468 0.450874 0
M  V30 34123 H 3121.94 -3.59231 -1.45024 0
M  V30 34124 H 3122.35 -5.24495 0.0225674 0
M  V30 34125 H 3123.83 -5.25571 -1.68759 0
M  V30 34126 H 3124.3 -3.70071 -2.36525 0
M  V30 34127 H 3124.91 -4.18376 -0.76433 0
M  V30 34128 N 3123.23 -0.0368104 -1.57557 0
M  V30 34129 C 3124.14 0.957979 -2.14149 0
M  V30 34130 C 3125.15 1.35171 -1.09566 0
M  V30 34131 O 3126.33 1.43156 -1.41663 0
M  V30 34132 C 3123.39 2.21926 -2.66364 0
M  V30 34133 C 3122.45 1.88523 -3.85691 0
M  V30 34134 C 3121.69 3.08638 -4.35406 0
M  V30 34135 O 3121.91 4.21547 -3.84258 0
M  V30 34136 O 3120.84 2.90488 -5.27163 0
M  V30 34137 H 3124.67 0.506744 -2.99442 0
M  V30 34138 H 3122.25 0.184249 -1.4826 0
M  V30 34139 H 3124.14 2.95955 -2.99981 0
M  V30 34140 H 3122.81 2.66215 -1.8415 0
M  V30 34141 H 3121.72 1.11855 -3.56986 0
M  V30 34142 H 3123.05 1.49044 -4.69091 0
M  V30 34143 N 3124.7 1.55817 0.236426 0
M  V30 34144 C 3125.63 1.94208 1.29636 0
M  V30 34145 C 3126.61 0.808346 1.49666 0
M  V30 34146 O 3127.8 1.06947 1.62098 0
M  V30 34147 C 3124.93 2.24589 2.6491 0
M  V30 34148 C 3123.88 3.40313 2.59559 0
M  V30 34149 C 3123.21 3.56261 3.98726 0
M  V30 34150 C 3124.51 4.7571 2.15633 0
M  V30 34151 H 3126.2 2.82993 0.977503 0
M  V30 34152 H 3123.75 1.36156 0.46878 0
M  V30 34153 H 3125.7 2.50037 3.39204 0
M  V30 34154 H 3124.43 1.32641 2.98453 0
M  V30 34155 H 3123.09 3.1489 1.87722 0
M  V30 34156 H 3122.73 2.61715 4.29551 0
M  V30 34157 H 3122.43 4.34089 3.96031 0
M  V30 34158 H 3123.96 3.84041 4.74705 0
M  V30 34159 H 3125.37 5.00461 2.79664 0
M  V30 34160 H 3123.77 5.56714 2.24029 0
M  V30 34161 H 3124.84 4.72066 1.10822 0
M  V30 34162 N 3126.18 -0.502526 1.49373 0
M  V30 34163 C 3127.43 -1.25427 1.5847 0
M  V30 34164 C 3127.75 -1.93085 0.272626 0
M  V30 34165 O 3127.02 -1.82662 -0.707915 0
M  V30 34166 H 3125.6 -0.46594 0.583874 0
M  V30 34167 H 3128.26 -0.582535 1.85991 0
M  V30 34168 H 3127.36 -2.01901 2.37996 0
M  V30 34169 N 3127.66 -1.38422 -0.75346 0
M  V30 34170 C 3128.57 -1.37896 -1.89795 0
M  V30 34171 C 3129.59 -0.276053 -1.71796 0
M  V30 34172 O 3130.76 -0.514498 -1.94717 0
M  V30 34173 C 3127.83 -1.2029 -3.25163 0
M  V30 34174 C 3126.89 -2.40386 -3.55687 0
M  V30 34175 C 3126.12 -2.23611 -4.84597 0
M  V30 34176 O 3126.34 -1.22988 -5.56983 0
M  V30 34177 O 3125.28 -3.12203 -5.146 0
M  V30 34178 H 3129.1 -2.34329 -1.93193 0
M  V30 34179 H 3126.69 -1.19343 -0.898754 0
M  V30 34180 H 3128.57 -1.12532 -4.06097 0
M  V30 34181 H 3127.25 -0.269409 -3.22577 0
M  V30 34182 H 3126.15 -2.53718 -2.74914 0
M  V30 34183 H 3127.49 -3.32366 -3.63034 0
M  V30 34184 N 3129.14 0.981655 -1.23294 0
M  V30 34185 C 3130.09 2.09507 -1.01043 0
M  V30 34186 C 3131.08 1.69326 0.0501679 0
M  V30 34187 O 3132.29 1.79704 -0.103228 0
M  V30 34188 H 3128.66 0.685293 -0.309641 0
M  V30 34189 H 3130.63 2.25441 -1.95497 0
M  V30 34190 C 3129.38 3.42183 -0.616945 0
M  V30 34191 H 3128.7 3.73551 -1.42477 0
M  V30 34192 H 3130.14 4.21033 -0.500762 0
M  V30 34193 C 3128.6 3.30076 0.674663 0
M  V30 34194 O 3129.13 3.62817 1.72414 0
M  V30 34195 N 3127.34 2.83235 0.650102 0
M  V30 34196 H 3126.89 2.56789 -0.20427 0
M  V30 34197 H 3126.84 2.75516 1.51454 0
M  V30 34198 N 3130.62 1.04444 1.18022 0
M  V30 34199 C 3131.55 0.659722 2.23986 0
M  V30 34200 C 3132.53 -0.338875 1.6669 0
M  V30 34201 O 3133.71 -0.218136 1.92971 0
M  V30 34202 C 3130.84 0.0258283 3.4729 0
M  V30 34203 C 3129.8 0.948373 4.17361 0
M  V30 34204 C 3129.12 0.178754 5.34401 0
M  V30 34205 C 3130.42 2.26918 4.70431 0
M  V30 34206 H 3132.12 1.54558 2.56422 0
M  V30 34207 H 3129.66 0.744596 1.23255 0
M  V30 34208 H 3131.61 -0.255057 4.20627 0
M  V30 34209 H 3130.34 -0.894926 3.141 0
M  V30 34210 H 3129 1.2137 3.45926 0
M  V30 34211 H 3128.65 -0.744526 4.97459 0
M  V30 34212 H 3128.35 0.793397 5.82219 0
M  V30 34213 H 3129.87 -0.0950242 6.10526 0
M  V30 34214 H 3131.28 2.04873 5.35444 0
M  V30 34215 H 3129.68 2.83712 5.28798 0
M  V30 34216 H 3130.75 2.91303 3.87648 0
M  V30 34217 N 3132.09 -1.34317 0.824418 0
M  V30 34218 C 3133.03 -2.28283 0.204845 0
M  V30 34219 C 3134.04 -1.51095 -0.606136 0
M  V30 34220 O 3135.23 -1.73104 -0.435572 0
M  V30 34221 C 3132.33 -3.30915 -0.731332 0
M  V30 34222 C 3131.5 -4.37384 0.0371491 0
M  V30 34223 C 3130.56 -5.19769 -0.82018 0
M  V30 34224 O 3129.59 -5.68585 -0.264621 0
M  V30 34225 N 3130.79 -5.39625 -2.13975 0
M  V30 34226 H 3133.55 -2.82092 1.01215 0
M  V30 34227 H 3131.11 -1.46857 0.681519 0
M  V30 34228 H 3133.11 -3.82928 -1.30951 0
M  V30 34229 H 3131.68 -2.7749 -1.43938 0
M  V30 34230 H 3130.9 -3.86066 0.796646 0
M  V30 34231 H 3132.18 -5.05641 0.566103 0
M  V30 34232 H 3131.58 -5.01641 -2.61483 0
M  V30 34233 H 3130.14 -5.9475 -2.66675 0
M  V30 34234 N 3133.57 -0.579517 -1.46558 0
M  V30 34235 C 3134.48 0.158119 -2.34067 0
M  V30 34236 C 3135.5 0.889294 -1.49558 0
M  V30 34237 O 3136.67 0.853193 -1.82435 0
M  V30 34238 C 3133.74 1.16094 -3.26685 0
M  V30 34239 C 3132.8 0.43478 -4.27093 0
M  V30 34240 C 3132.03 1.38983 -5.15286 0
M  V30 34241 O 3132.26 2.62615 -5.06349 0
M  V30 34242 O 3131.19 0.902149 -5.95101 0
M  V30 34243 H 3135.02 -0.560286 -2.98487 0
M  V30 34244 H 3132.6 -0.339943 -1.45481 0
M  V30 34245 H 3134.48 1.73925 -3.83833 0
M  V30 34246 H 3133.16 1.86087 -2.64865 0
M  V30 34247 H 3132.06 -0.185289 -3.73641 0
M  V30 34248 H 3133.4 -0.224118 -4.91689 0
M  V30 34249 N 3135.05 1.54376 -0.317127 0
M  V30 34250 C 3135.98 2.27061 0.544583 0
M  V30 34251 C 3136.96 1.27613 1.12467 0
M  V30 34252 O 3138.15 1.56415 1.151 0
M  V30 34253 C 3135.28 3.02356 1.70874 0
M  V30 34254 C 3134.23 4.09087 1.25826 0
M  V30 34255 C 3133.56 4.72187 2.50886 0
M  V30 34256 C 3134.86 5.20932 0.377784 0
M  V30 34257 H 3136.55 2.99336 -0.0616898 0
M  V30 34258 H 3134.1 1.43966 -0.0311101 0
M  V30 34259 H 3136.05 3.51931 2.3178 0
M  V30 34260 H 3134.77 2.27686 2.34151 0
M  V30 34261 H 3133.43 3.60385 0.672164 0
M  V30 34262 H 3133.08 3.94139 3.12511 0
M  V30 34263 H 3132.78 5.44279 2.21438 0
M  V30 34264 H 3134.3 5.24533 3.12566 0
M  V30 34265 H 3135.72 5.66303 0.892957 0
M  V30 34266 H 3134.12 5.99841 0.176368 0
M  V30 34267 H 3135.19 4.8126 -0.593028 0
M  V30 34268 N 3136.53 0.0451655 1.57535 0
M  V30 34269 C 3137.94 -0.311346 1.56534 0
M  V30 34270 C 3138.14 -1.71841 1.05228 0
M  V30 34271 O 3137.2 -2.42424 0.706187 0
M  V30 34272 C 3138.51 -0.145295 3.00349 0
M  V30 34273 C 3140.06 -0.216853 3.12248 0
M  V30 34274 C 3140.54 -0.0794029 4.57931 0
M  V30 34275 N 3142.03 -0.135873 4.63001 0
M  V30 34276 C 3142.76 -0.0535418 5.73375 0
M  V30 34277 N 3142.26 0.0807943 6.92753 0
M  V30 34278 N 3144.05 -0.108691 5.61995 0
M  V30 34279 H 3136.2 0.965077 1.89209 0
M  V30 34280 H 3138.47 0.374107 0.871062 0
M  V30 34281 H 3138.17 0.824593 3.41897 0
M  V30 34282 H 3138.05 -0.908838 3.66087 0
M  V30 34283 H 3140.43 -1.17721 2.70603 0
M  V30 34284 H 3140.51 0.577342 2.492 0
M  V30 34285 H 3140.16 0.877604 5.0026 0
M  V30 34286 H 3140.09 -0.892667 5.18979 0
M  V30 34287 H 3142.58 -0.239193 3.77142 0
M  V30 34288 H 3142.89 0.136487 7.72679 0
M  V30 34289 H 3141.24 0.115797 6.94904 0
M  V30 34290 H 3144.43 -0.212153 4.67619 0
M  V30 34291 H 3144.6 -0.0410683 6.47987 0
M  V30 34292 N 3138.01 -1.5594 -0.228159 0
M  V30 34293 C 3139.28 -1.69426 -0.977462 0
M  V30 34294 C 3139.66 -0.590514 -2.02672 0
M  V30 34295 O 3139.01 0.403428 -2.2491 0
M  V30 34296 C 3139.22 -3.10478 -1.59388 0
M  V30 34297 C 3140.57 -3.69676 -2.08865 0
M  V30 34298 O 3141.59 -3.13397 -1.69294 0
M  V30 34299 O 3140.45 -4.68377 -2.81576 0
M  V30 34300 H 3137.55 -0.689808 -0.456173 0
M  V30 34301 H 3140.09 -1.68262 -0.220463 0
M  V30 34302 H 3138.86 -3.82267 -0.835904 0
M  V30 34303 H 3138.49 -3.15732 -2.41659 0
M  V30 34304 N 3139.48 0.494597 -1.49638 0
M  V30 34305 C 3140.41 1.60393 -1.69695 0
M  V30 34306 C 3141.4 1.6111 -0.545676 0
M  V30 34307 O 3142.58 1.77749 -0.782233 0
M  V30 34308 C 3139.71 2.98847 -1.7694 0
M  V30 34309 C 3138.66 3.12996 -2.9192 0
M  V30 34310 C 3137.99 4.52865 -2.84284 0
M  V30 34311 C 3139.29 2.92418 -4.32769 0
M  V30 34312 H 3140.98 1.43862 -2.62572 0
M  V30 34313 H 3138.53 0.690657 -1.26356 0
M  V30 34314 H 3140.48 3.76359 -1.89557 0
M  V30 34315 H 3139.21 3.16481 -0.806664 0
M  V30 34316 H 3137.87 2.37911 -2.78916 0
M  V30 34317 H 3137.51 4.67384 -1.85905 0
M  V30 34318 H 3137.21 4.63272 -3.6146 0
M  V30 34319 H 3138.74 5.32429 -2.98918 0
M  V30 34320 H 3140.15 3.59695 -4.46422 0
M  V30 34321 H 3138.55 3.14291 -5.11215 0
M  V30 34322 H 3139.62 1.88483 -4.46769 0
M  V30 34323 N 3140.96 1.3882 0.746109 0
M  V30 34324 C 3142.19 1.38687 1.53536 0
M  V30 34325 C 3142.61 -0.0214707 1.88788 0
M  V30 34326 O 3141.96 -0.990005 1.53314 0
M  V30 34327 C 3142.01 2.24947 2.82986 0
M  V30 34328 O 3141.73 3.60296 2.49235 0
M  V30 34329 C 3143.24 2.33077 3.77081 0
M  V30 34330 H 3140.46 0.474103 0.474834 0
M  V30 34331 H 3143 1.82495 0.922812 0
M  V30 34332 H 3141.15 1.84582 3.406 0
M  V30 34333 H 3141.57 4.05795 3.32311 0
M  V30 34334 H 3143.04 2.97704 4.6484 0
M  V30 34335 H 3143.52 1.34662 4.18046 0
M  V30 34336 H 3144.13 2.73865 3.25389 0
M  V30 34337 N 3142.44 -0.975103 1.23812 0
M  V30 34338 C 3143.37 -2.07106 0.981815 0
M  V30 34339 C 3144.39 -1.62735 -0.0460925 0
M  V30 34340 O 3145.57 -1.77485 0.19007 0
M  V30 34341 C 3142.67 -3.35785 0.458423 0
M  V30 34342 C 3141.85 -4.09101 1.54774 0
M  V30 34343 C 3140.91 -5.16055 1.02829 0
M  V30 34344 O 3139.93 -5.42641 1.71841 0
M  V30 34345 N 3141.13 -5.80328 -0.141141 0
M  V30 34346 H 3143.9 -2.2967 1.92541 0
M  V30 34347 H 3141.46 -1.14219 1.14742 0
M  V30 34348 H 3143.45 -4.04587 0.0958397 0
M  V30 34349 H 3142.02 -3.10149 -0.390714 0
M  V30 34350 H 3141.24 -3.3468 2.08285 0
M  V30 34351 H 3142.53 -4.54849 2.28014 0
M  V30 34352 H 3141.93 -5.61121 -0.718283 0
M  V30 34353 H 3140.49 -6.5028 -0.444938 0
M  V30 34354 N 3143.92 -1.05068 -1.17467 0
M  V30 34355 C 3144.83 -0.661262 -2.25088 0
M  V30 34356 C 3145.84 0.31709 -1.71086 0
M  V30 34357 O 3147.02 0.169498 -2.00685 0
M  V30 34358 C 3144.09 -0.0407024 -3.46676 0
M  V30 34359 C 3143.15 -1.06934 -4.15769 0
M  V30 34360 C 3142.38 -0.478301 -5.31552 0
M  V30 34361 O 3142.6 0.712615 -5.65931 0
M  V30 34362 O 3141.54 -1.21195 -5.89572 0
M  V30 34363 H 3145.36 -1.55815 -2.60683 0
M  V30 34364 H 3142.95 -0.822169 -1.24743 0
M  V30 34365 H 3144.83 0.304238 -4.203 0
M  V30 34366 H 3143.5 0.829854 -3.12882 0
M  V30 34367 H 3142.41 -1.46625 -3.44168 0
M  V30 34368 H 3143.74 -1.911 -4.53587 0
M  V30 34369 N 3145.4 1.33878 -0.831529 0
M  V30 34370 C 3146.33 2.27281 -0.20464 0
M  V30 34371 C 3147.31 1.49305 0.643966 0
M  V30 34372 O 3148.49 1.78499 0.605832 0
M  V30 34373 C 3145.62 3.31103 0.713351 0
M  V30 34374 C 3144.66 4.26459 -0.0588404 0
M  V30 34375 S 3145.5 5.16554 -1.41181 0
M  V30 34376 C 3146.65 6.23908 -0.498917 0
M  V30 34377 H 3146.89 2.80102 -0.996491 0
M  V30 34378 H 3144.42 1.41057 -0.627885 0
M  V30 34379 H 3146.38 3.91406 1.23741 0
M  V30 34380 H 3145.04 2.77111 1.4788 0
M  V30 34381 H 3144.23 4.99928 0.639378 0
M  V30 34382 H 3143.83 3.70455 -0.51373 0
M  V30 34383 H 3146.13 6.76808 0.306149 0
M  V30 34384 H 3147.07 6.97797 -1.20354 0
M  V30 34385 H 3147.48 5.64438 -0.0835234 0
M  V30 34386 N 3146.87 0.587281 1.46249 0
M  V30 34387 C 3147.78 -0.145703 2.34147 0
M  V30 34388 C 3148.8 -0.88135 1.50027 0
M  V30 34389 O 3149.98 -0.843507 1.82885 0
M  V30 34390 C 3147.04 -1.1436 3.27296 0
M  V30 34391 C 3146.1 -0.412124 4.27317 0
M  V30 34392 C 3145.34 -1.36248 5.16016 0
M  V30 34393 O 3145.56 -2.59926 5.07735 0
M  V30 34394 O 3144.49 -0.870576 5.95571 0
M  V30 34395 H 3148.32 0.576108 2.98186 0
M  V30 34396 H 3145.9 0.347654 1.45299 0
M  V30 34397 H 3147.79 -1.71887 3.8475 0
M  V30 34398 H 3146.46 -1.8468 2.65848 0
M  V30 34399 H 3145.37 0.205102 3.73537 0
M  V30 34400 H 3146.7 0.25019 4.91564 0
M  V30 34401 N 3148.35 -1.54206 0.325309 0
M  V30 34402 C 3149.6 -2.00897 -0.27715 0
M  V30 34403 C 3149.93 -1.2131 -1.51649 0
M  V30 34404 O 3149.21 -0.295859 -1.92237 0
M  V30 34405 C 3149.49 -3.54904 -0.609548 0
M  V30 34406 C 3149.34 -4.45215 0.64062 0
M  V30 34407 C 3150.66 -4.1634 -1.42649 0
M  V30 34408 H 3147.78 -0.730285 -0.0992594 0
M  V30 34409 H 3150.42 -1.84782 0.442234 0
M  V30 34410 H 3148.57 -3.68767 -1.22243 0
M  V30 34411 H 3150.24 -4.43219 1.27886 0
M  V30 34412 H 3148.49 -4.14819 1.26915 0
M  V30 34413 H 3149.16 -5.50801 0.363555 0
M  V30 34414 H 3151.63 -4.06063 -0.908422 0
M  V30 34415 H 3150.51 -5.24207 -1.62783 0
M  V30 34416 H 3150.77 -3.69778 -2.42315 0
M  V30 34417 N 3149.83 -0.0535194 -1.57509 0
M  V30 34418 C 3150.78 0.929766 -2.08181 0
M  V30 34419 C 3151.77 1.27035 -0.987473 0
M  V30 34420 O 3152.96 1.25238 -1.25078 0
M  V30 34421 C 3150.09 2.2038 -2.63225 0
M  V30 34422 C 3149.17 1.89051 -3.79632 0
M  V30 34423 N 3149.56 1.28092 -4.89312 0
M  V30 34424 C 3147.86 2.18907 -3.88582 0
M  V30 34425 C 3148.56 1.14445 -5.70331 0
M  V30 34426 N 3147.54 1.64812 -5.18013 0
M  V30 34427 H 3151.34 0.453823 -2.90375 0
M  V30 34428 H 3148.85 0.15087 -1.61698 0
M  V30 34429 H 3150.85 2.91722 -2.97832 0
M  V30 34430 H 3149.51 2.68579 -1.82471 0
M  V30 34431 H 3150.52 0.952835 -5.09059 0
M  V30 34432 H 3147.2 2.6961 -3.18774 0
M  V30 34433 H 3148.59 0.671011 -6.68541 0
M  V30 34434 N 3151.31 1.56059 0.219886 0
M  V30 34435 C 3152.27 1.9172 1.25603 0
M  V30 34436 C 3153.27 0.795937 1.39719 0
M  V30 34437 O 3154.46 1.06367 1.37956 0
M  V30 34438 C 3151.59 2.16948 2.62957 0
M  V30 34439 H 3152.79 2.84393 0.951859 0
M  V30 34440 H 3150.34 1.49366 0.460372 0
M  V30 34441 H 3151.08 1.26831 2.9847 0
M  V30 34442 H 3150.86 2.98633 2.54088 0
M  V30 34443 H 3152.35 2.45628 3.37723 0
M  V30 34444 N 3152.79 -0.486655 1.49898 0
M  V30 34445 C 3153.7 -1.61267 1.70382 0
M  V30 34446 C 3154.71 -1.63813 0.586619 0
M  V30 34447 O 3155.89 -1.8197 0.863076 0
M  V30 34448 C 3152.95 -2.97568 1.77916 0
M  V30 34449 C 3152.02 -3.05535 3.01574 0
M  V30 34450 C 3151.25 -4.35334 3.08739 0
M  V30 34451 O 3151.47 -5.24956 2.23109 0
M  V30 34452 O 3150.41 -4.48571 4.01333 0
M  V30 34453 H 3154.23 -1.46912 2.65802 0
M  V30 34454 H 3151.82 -0.664492 1.33809 0
M  V30 34455 H 3153.7 -3.7855 1.85142 0
M  V30 34456 H 3152.37 -3.12155 0.856777 0
M  V30 34457 H 3151.28 -2.23687 2.99858 0
M  V30 34458 H 3152.61 -2.95879 3.9334 0
M  V30 34459 N 3154.27 -1.39214 -0.738737 0
M  V30 34460 C 3155.21 -1.37635 -1.85271 0
M  V30 34461 C 3156.18 -0.236601 -1.64406 0
M  V30 34462 O 3157.37 -0.431136 -1.85865 0
M  V30 34463 C 3154.51 -1.22193 -3.22743 0
M  V30 34464 C 3153.62 -2.45681 -3.55338 0
M  V30 34465 C 3152.76 -2.22856 -4.82192 0
M  V30 34466 C 3151.79 -3.42038 -5.07619 0
M  V30 34467 N 3150.93 -3.18554 -6.25674 0
M  V30 34468 H 3155.77 -2.32862 -1.85955 0
M  V30 34469 H 3153.31 -1.15677 -0.908696 0
M  V30 34470 H 3155.27 -1.11253 -4.02093 0
M  V30 34471 H 3153.9 -0.305977 -3.21347 0
M  V30 34472 H 3152.95 -2.67238 -2.70717 0
M  V30 34473 H 3154.26 -3.34463 -3.70048 0
M  V30 34474 H 3153.41 -2.09136 -5.69515 0
M  V30 34475 H 3152.15 -1.31462 -4.69648 0
M  V30 34476 H 3151.16 -3.5626 -4.18759 0
M  V30 34477 H 3152.38 -4.34328 -5.2205 0
M  V30 34478 H 3150.33 -2.29821 -6.14425 0
M  V30 34479 H 3150.25 -4.00892 -6.40954 0
M  V30 34480 H 3151.51 -3.0852 -7.15846 0
M  V30 34481 N 3155.74 0.968523 -1.24328 0
M  V30 34482 C 3156.67 2.08077 -1.05954 0
M  V30 34483 C 3157.65 1.70078 0.0272367 0
M  V30 34484 O 3158.84 1.93697 -0.139678 0
M  V30 34485 C 3155.97 3.40919 -0.662683 0
M  V30 34486 C 3154.92 3.9287 -1.69814 0
M  V30 34487 C 3154.25 5.22046 -1.15637 0
M  V30 34488 C 3155.55 4.20803 -3.09391 0
M  V30 34489 H 3157.24 2.23706 -1.98988 0
M  V30 34490 H 3154.79 1.07498 -0.95813 0
M  V30 34491 H 3156.74 4.18165 -0.521144 0
M  V30 34492 H 3155.47 3.25188 0.303342 0
M  V30 34493 H 3154.13 3.1778 -1.82788 0
M  V30 34494 H 3153.77 5.02674 -0.180976 0
M  V30 34495 H 3153.47 5.57773 -1.84832 0
M  V30 34496 H 3155 6.01902 -1.02693 0
M  V30 34497 H 3156.41 4.88756 -2.9965 0
M  V30 34498 H 3154.81 4.67756 -3.75931 0
M  V30 34499 H 3155.88 3.2761 -3.57491 0
M  V30 34500 N 3157.22 1.0569 1.16908 0
M  V30 34501 C 3158.17 0.662285 2.21094 0
M  V30 34502 C 3159.14 -0.338054 1.62623 0
M  V30 34503 O 3160.32 -0.228329 1.89429 0
M  V30 34504 C 3157.46 0.0484625 3.45066 0
M  V30 34505 C 3156.58 1.09824 4.17807 0
M  V30 34506 C 3155.71 0.451207 5.2928 0
M  V30 34507 C 3154.75 1.48495 5.93815 0
M  V30 34508 N 3153.89 0.86171 6.96792 0
M  V30 34509 H 3158.73 1.55518 2.54201 0
M  V30 34510 H 3156.26 0.777687 1.24862 0
M  V30 34511 H 3158.22 -0.324905 4.15933 0
M  V30 34512 H 3156.85 -0.807863 3.12527 0
M  V30 34513 H 3155.9 1.58938 3.45605 0
M  V30 34514 H 3157.22 1.88273 4.61903 0
M  V30 34515 H 3156.37 0.0245318 6.06695 0
M  V30 34516 H 3155.11 -0.365221 4.86331 0
M  V30 34517 H 3154.11 1.92158 5.15126 0
M  V30 34518 H 3155.34 2.30336 6.38844 0
M  V30 34519 H 3153.29 0.0658841 6.55967 0
M  V30 34520 H 3153.2 1.58367 7.39227 0
M  V30 34521 H 3154.47 0.459977 7.78142 0
M  V30 34522 N 3158.7 -1.33435 0.838617 0
M  V30 34523 C 3159.95 -1.98493 0.444077 0
M  V30 34524 C 3160.3 -1.6523 -0.98573 0
M  V30 34525 O 3159.59 -0.921766 -1.6797 0
M  V30 34526 C 3159.79 -3.52302 0.601487 0
M  V30 34527 C 3159.62 -4.0051 2.04504 0
M  V30 34528 C 3158.39 -4.28359 2.68023 0
M  V30 34529 C 3160.58 -4.16747 3.01374 0
M  V30 34530 N 3158.57 -4.62706 4.03456 0
M  V30 34531 C 3159.94 -4.54449 4.21753 0
M  V30 34532 C 3161.99 -3.99036 2.97783 0
M  V30 34533 C 3160.7 -4.76291 5.39017 0
M  V30 34534 C 3162.72 -4.22053 4.14277 0
M  V30 34535 C 3162.08 -4.60057 5.3341 0
M  V30 34536 H 3158.18 -0.753019 0.210919 0
M  V30 34537 H 3160.77 -1.61556 1.08663 0
M  V30 34538 H 3158.94 -3.88398 -0.0112643 0
M  V30 34539 H 3160.67 -4.04307 0.178414 0
M  V30 34540 H 3157.42 -4.1984 2.1916 0
M  V30 34541 H 3157.85 -4.84089 4.73272 0
M  V30 34542 H 3162.49 -3.68769 2.06807 0
M  V30 34543 H 3160.21 -5.05419 6.30537 0
M  V30 34544 H 3163.79 -4.09869 4.12915 0
M  V30 34545 H 3162.67 -4.77514 6.22053 0
M  V30 34546 N 3160.18 -0.595029 -1.45935 0
M  V30 34547 C 3161.11 0.118669 -2.33198 0
M  V30 34548 C 3162.09 0.871398 -1.46084 0
M  V30 34549 O 3163.27 0.84443 -1.7488 0
M  V30 34550 C 3160.4 1.12489 -3.28578 0
M  V30 34551 C 3159.36 0.4862 -4.25229 0
M  V30 34552 C 3158.68 1.59977 -5.10207 0
M  V30 34553 C 3159.98 -0.584564 -5.19018 0
M  V30 34554 H 3161.68 -0.609938 -2.93121 0
M  V30 34555 H 3159.22 -0.294766 -1.40951 0
M  V30 34556 H 3161.18 1.63264 -3.88488 0
M  V30 34557 H 3159.9 1.88393 -2.66788 0
M  V30 34558 H 3158.56 -0.000572401 -3.666 0
M  V30 34559 H 3158.21 2.34878 -4.44793 0
M  V30 34560 H 3157.91 1.178 -5.75671 0
M  V30 34561 H 3159.43 2.11004 -5.72983 0
M  V30 34562 H 3160.85 -0.161398 -5.73073 0
M  V30 34563 H 3159.24 -0.927361 -5.92891 0
M  V30 34564 H 3160.31 -1.46609 -4.62205 0
M  V30 34565 N 3161.66 1.54031 -0.333483 0
M  V30 34566 C 3162.6 2.26164 0.543374 0
M  V30 34567 C 3163.6 1.27936 1.11034 0
M  V30 34568 O 3164.8 1.45679 1.05724 0
M  V30 34569 H 3161.18 0.726573 0.193897 0
M  V30 34570 H 3163.15 2.98273 -0.0871576 0
M  V30 34571 C 3161.9 3.03997 1.68764 0
M  V30 34572 H 3161.22 3.79405 1.26063 0
M  V30 34573 H 3162.66 3.57699 2.27656 0
M  V30 34574 C 3161.12 2.12889 2.61113 0
M  V30 34575 O 3161.65 1.7183 3.63094 0
M  V30 34576 N 3159.86 1.78174 2.2957 0
M  V30 34577 H 3159.4 2.11761 1.4668 0
M  V30 34578 H 3159.36 1.17495 2.9162 0
M  V30 34579 N 3163.13 0.0618717 1.57479 0
M  V30 34580 C 3164.55 -0.294726 1.56855 0
M  V30 34581 C 3164.75 -1.70715 1.07045 0
M  V30 34582 O 3163.81 -2.41661 0.731859 0
M  V30 34583 C 3165.12 -0.113431 3.00486 0
M  V30 34584 C 3166.67 -0.183723 3.1246 0
M  V30 34585 C 3167.14 -0.0308287 4.5799 0
M  V30 34586 N 3168.63 -0.0867579 4.63119 0
M  V30 34587 C 3169.37 0.00727525 5.734 0
M  V30 34588 N 3168.86 0.154265 6.92628 0
M  V30 34589 N 3170.66 -0.0490775 5.62079 0
M  V30 34590 H 3162.81 0.985091 1.88175 0
M  V30 34591 H 3165.07 0.383324 0.867045 0
M  V30 34592 H 3164.78 0.860809 3.41003 0
M  V30 34593 H 3164.65 -0.869959 3.67031 0
M  V30 34594 H 3167.04 -1.14844 2.71836 0
M  V30 34595 H 3167.12 0.603741 2.48573 0
M  V30 34596 H 3166.76 0.930614 4.99302 0
M  V30 34597 H 3166.69 -0.837572 5.19896 0
M  V30 34598 H 3169.18 -0.199179 3.77375 0
M  V30 34599 H 3169.5 0.218432 7.72491 0
M  V30 34600 H 3167.84 0.189495 6.94742 0
M  V30 34601 H 3171.03 -0.162544 4.67818 0
M  V30 34602 H 3171.21 0.0276617 6.47994 0
M  V30 34603 N 3164.61 -1.56173 -0.211607 0
M  V30 34604 C 3165.84 -1.83741 -0.951151 0
M  V30 34605 C 3166.26 -0.642283 -1.77539 0
M  V30 34606 O 3165.61 0.389143 -1.78303 0
M  V30 34607 C 3165.66 -3.09936 -1.86069 0
M  V30 34608 O 3165.38 -4.24839 -1.06976 0
M  V30 34609 C 3166.89 -3.50563 -2.7133 0
M  V30 34610 H 3164.11 -0.610565 -0.278301 0
M  V30 34611 H 3166.65 -2.03271 -0.223836 0
M  V30 34612 H 3164.8 -2.92352 -2.54184 0
M  V30 34613 H 3165.22 -4.96593 -1.68806 0
M  V30 34614 H 3166.69 -4.41873 -3.30835 0
M  V30 34615 H 3167.17 -2.72779 -3.44221 0
M  V30 34616 H 3167.78 -3.70622 -2.08614 0
M  V30 34617 N 3166.09 0.478699 -1.50154 0
M  V30 34618 C 3167 1.60361 -1.71235 0
M  V30 34619 C 3168.02 1.635 -0.595298 0
M  V30 34620 O 3169.19 1.81509 -0.872715 0
M  V30 34621 C 3166.26 2.9662 -1.79492 0
M  V30 34622 C 3165.32 3.03931 -3.0319 0
M  V30 34623 C 3164.55 4.33691 -3.11044 0
M  V30 34624 O 3164.77 5.23765 -2.25889 0
M  V30 34625 O 3163.71 4.46436 -4.03706 0
M  V30 34626 H 3167.53 1.455 -2.66577 0
M  V30 34627 H 3165.12 0.657387 -1.3416 0
M  V30 34628 H 3167 3.77563 -1.87147 0
M  V30 34629 H 3165.68 3.11697 -0.873319 0
M  V30 34630 H 3164.58 2.22094 -3.0104 0
M  V30 34631 H 3165.92 2.93789 -3.94904 0
M  V30 34632 N 3167.57 1.39603 0.731343 0
M  V30 34633 C 3168.5 1.41355 1.85852 0
M  V30 34634 C 3169.48 0.27643 1.67839 0
M  V30 34635 O 3170.66 0.48278 1.88103 0
M  V30 34636 C 3167.79 1.25989 3.23642 0
M  V30 34637 C 3166.75 2.37138 3.563 0
M  V30 34638 C 3166.07 2.06859 4.93065 0
M  V30 34639 C 3167.37 3.79458 3.589 0
M  V30 34640 H 3169.07 2.35684 1.84644 0
M  V30 34641 H 3166.61 1.13444 0.886935 0
M  V30 34642 H 3168.57 1.25834 4.02174 0
M  V30 34643 H 3167.29 0.281292 3.25386 0
M  V30 34644 H 3165.95 2.36516 2.80099 0
M  V30 34645 H 3165.6 1.07429 4.91394 0
M  V30 34646 H 3165.3 2.81315 5.15883 0
M  V30 34647 H 3166.82 2.0836 5.7395 0
M  V30 34648 H 3168.24 3.81989 4.27501 0
M  V30 34649 H 3166.63 4.53304 3.93238 0
M  V30 34650 H 3167.7 4.10173 2.58624 0
M  V30 34651 N 3169.05 -0.961916 1.2484 0
M  V30 34652 C 3169.96 -2.09131 1.06308 0
M  V30 34653 C 3170.97 -1.74 0.00224534 0
M  V30 34654 O 3172.15 -2.00388 0.201646 0
M  V30 34655 C 3169.21 -3.40042 0.676177 0
M  V30 34656 C 3168.27 -3.89086 1.81414 0
M  V30 34657 C 3167.51 -5.13749 1.4456 0
M  V30 34658 O 3167.73 -5.69398 0.337994 0
M  V30 34659 O 3166.66 -5.57321 2.27326 0
M  V30 34660 H 3170.49 -2.27663 2.01005 0
M  V30 34661 H 3168.08 -1.07537 1.03712 0
M  V30 34662 H 3169.96 -4.18746 0.472198 0
M  V30 34663 H 3168.63 -3.22797 -0.24161 0
M  V30 34664 H 3167.54 -3.11418 2.07292 0
M  V30 34665 H 3168.87 -4.10817 2.71091 0
M  V30 34666 N 3170.52 -1.06308 -1.16346 0
M  V30 34667 C 3171.46 -0.618235 -2.19666 0
M  V30 34668 C 3172.44 0.35905 -1.58586 0
M  V30 34669 O 3173.62 0.26799 -1.86585 0
M  V30 34670 C 3170.75 0.0936496 -3.38571 0
M  V30 34671 C 3169.79 -0.840413 -4.18138 0
M  V30 34672 S 3170.63 -2.33573 -4.81875 0
M  V30 34673 C 3171.78 -1.63534 -6.04158 0
M  V30 34674 H 3172.01 -1.49357 -2.5706 0
M  V30 34675 H 3169.55 -0.876068 -1.27139 0
M  V30 34676 H 3171.51 0.498156 -4.07466 0
M  V30 34677 H 3170.17 0.945178 -2.99542 0
M  V30 34678 H 3169.36 -0.288869 -5.03171 0
M  V30 34679 H 3168.96 -1.18481 -3.54737 0
M  V30 34680 H 3171.25 -0.941022 -6.70933 0
M  V30 34681 H 3172.2 -2.46359 -6.63862 0
M  V30 34682 H 3172.6 -1.11787 -5.53321 0
M  V30 34683 N 3172 1.32989 -0.845682 0
M  V30 34684 C 3172.93 2.31578 -0.298998 0
M  V30 34685 C 3173.91 1.5928 0.596984 0
M  V30 34686 O 3175.1 1.87133 0.51911 0
M  V30 34687 C 3172.23 3.43369 0.521048 0
M  V30 34688 C 3171.18 4.27085 -0.279726 0
M  V30 34689 C 3170.51 5.30555 0.664497 0
M  V30 34690 C 3171.81 5.00281 -1.50055 0
M  V30 34691 H 3173.5 2.77551 -1.12277 0
M  V30 34692 H 3171.05 1.33437 -0.541343 0
M  V30 34693 H 3173 4.11372 0.913849 0
M  V30 34694 H 3171.73 2.96102 1.37809 0
M  V30 34695 H 3170.38 3.60716 -0.654169 0
M  V30 34696 H 3170.03 4.79543 1.51813 0
M  V30 34697 H 3169.73 5.8745 0.132768 0
M  V30 34698 H 3171.26 6.01423 1.05467 0
M  V30 34699 H 3172.67 5.61014 -1.18054 0
M  V30 34700 H 3171.07 5.66858 -1.96956 0
M  V30 34701 H 3172.14 4.28661 -2.26666 0
M  V30 34702 N 3173.48 0.60276 1.45618 0
M  V30 34703 C 3174.71 0.100465 2.07157 0
M  V30 34704 C 3175.13 -1.2039 1.44526 0
M  V30 34705 O 3174.49 -1.73189 0.536221 0
M  V30 34706 C 3174.54 -0.030797 3.60587 0
M  V30 34707 O 3173.64 -1.08227 3.97946 0
M  V30 34708 H 3172.98 0.0718759 0.660098 0
M  V30 34709 H 3175.51 0.831399 1.86946 0
M  V30 34710 H 3175.52 -0.230563 4.07348 0
M  V30 34711 H 3174.2 0.921652 4.05559 0
M  V30 34712 H 3172.77 -0.85935 3.62863 0
M  V30 34713 N 3174.96 -1.53852 0.341647 0
M  V30 34714 C 3176.24 -1.93118 -0.31063 0
M  V30 34715 C 3176.62 -1.27303 -1.68396 0
M  V30 34716 O 3175.96 -0.423264 -2.24546 0
M  V30 34717 C 3176.17 -3.46872 -0.384806 0
M  V30 34718 C 3177.52 -4.19801 -0.636547 0
M  V30 34719 O 3178.55 -3.53125 -0.466999 0
M  V30 34720 O 3177.4 -5.37915 -0.964867 0
M  V30 34721 H 3174.5 -0.80698 -0.180867 0
M  V30 34722 H 3177.04 -1.65094 0.392685 0
M  V30 34723 H 3175.82 -3.86992 0.579008 0
M  V30 34724 H 3175.44 -3.81056 -1.13498 0
M  V30 34725 N 3176.44 -0.0702223 -1.57443 0
M  V30 34726 C 3177.38 0.897561 -2.12632 0
M  V30 34727 C 3178.35 1.29637 -1.03843 0
M  V30 34728 O 3179.54 1.3825 -1.31497 0
M  V30 34729 C 3176.68 2.16037 -2.69114 0
M  V30 34730 C 3175.79 1.81433 -3.92054 0
M  V30 34731 C 3174.93 3.02313 -4.36784 0
M  V30 34732 C 3173.97 2.6372 -5.52375 0
M  V30 34733 N 3173.1 3.77354 -5.92071 0
M  V30 34734 H 3177.94 0.420052 -2.95025 0
M  V30 34735 H 3175.48 0.195691 -1.45793 0
M  V30 34736 H 3177.44 2.89956 -2.99969 0
M  V30 34737 H 3176.07 2.61331 -1.89489 0
M  V30 34738 H 3175.12 0.975831 -3.67671 0
M  V30 34739 H 3176.43 1.49038 -4.76014 0
M  V30 34740 H 3175.59 3.84513 -4.69291 0
M  V30 34741 H 3174.32 3.37901 -3.51674 0
M  V30 34742 H 3173.33 1.79941 -5.1952 0
M  V30 34743 H 3174.55 2.29304 -6.39216 0
M  V30 34744 H 3172.5 4.12706 -5.09911 0
M  V30 34745 H 3172.42 3.48721 -6.70768 0
M  V30 34746 H 3173.69 4.60137 -6.29201 0
M  V30 34747 N 3177.91 1.56283 0.203321 0
M  V30 34748 C 3179.14 1.84594 0.945515 0
M  V30 34749 C 3179.56 0.652803 1.76409 0
M  V30 34750 O 3178.92 -0.398437 1.76868 0
M  V30 34751 C 3178.97 3.1106 1.82411 0
M  V30 34752 O 3178.07 2.91035 2.92186 0
M  V30 34753 H 3177.42 0.608072 0.266728 0
M  V30 34754 H 3179.95 2.03508 0.211122 0
M  V30 34755 H 3179.96 3.4164 2.23038 0
M  V30 34756 H 3178.63 3.97524 1.2226 0
M  V30 34757 H 3177.21 2.71733 2.55373 0
M  V30 34758 N 3179.39 -0.470729 1.50406 0
M  V30 34759 C 3180.32 -1.57673 1.72225 0
M  V30 34760 C 3181.3 -1.60221 0.571238 0
M  V30 34761 O 3182.49 -1.76482 0.810412 0
M  V30 34762 C 3179.62 -2.95994 1.81672 0
M  V30 34763 C 3178.57 -3.08312 2.96863 0
M  V30 34764 C 3177.9 -4.48285 2.91453 0
M  V30 34765 C 3179.2 -2.85496 4.37366 0
M  V30 34766 H 3180.89 -1.39666 2.64828 0
M  V30 34767 H 3178.44 -0.670468 1.27439 0
M  V30 34768 H 3180.39 -3.73296 1.95521 0
M  V30 34769 H 3179.12 -3.15158 0.856912 0
M  V30 34770 H 3177.78 -2.33444 2.82665 0
M  V30 34771 H 3177.42 -4.64368 1.93318 0
M  V30 34772 H 3177.12 -4.57462 3.68784 0
M  V30 34773 H 3178.65 -5.27606 3.07351 0
M  V30 34774 H 3180.06 -3.52548 4.52088 0
M  V30 34775 H 3178.46 -3.06118 5.16151 0
M  V30 34776 H 3179.53 -1.81351 4.49711 0
M  V30 34777 N 3180.87 -1.39989 -0.72393 0
M  V30 34778 C 3182.1 -1.41302 -1.51818 0
M  V30 34779 C 3182.52 -0.0122967 -1.88096 0
M  V30 34780 O 3181.88 0.977533 -1.52689 0
M  V30 34781 C 3181.93 -2.3024 -2.77528 0
M  V30 34782 O 3181.03 -1.73991 -3.739 0
M  V30 34783 H 3180.37 -0.480715 -0.458049 0
M  V30 34784 H 3182.9 -1.84119 -0.892258 0
M  V30 34785 H 3182.91 -2.45138 -3.26146 0
M  V30 34786 H 3181.59 -3.32031 -2.50457 0
M  V30 34787 H 3180.16 -1.68395 -3.32712 0
M  V30 34788 N 3182.35 0.955282 -1.25348 0
M  V30 34789 C 3183.28 2.06941 -1.08155 0
M  V30 34790 C 3184.26 1.70098 0.00919608 0
M  V30 34791 O 3185.45 1.93538 -0.160215 0
M  V30 34792 C 3182.58 3.40197 -0.698805 0
M  V30 34793 C 3181.53 3.91047 -1.73972 0
M  V30 34794 C 3180.86 5.2079 -1.21167 0
M  V30 34795 C 3182.16 4.17497 -3.13836 0
M  V30 34796 H 3183.85 2.21583 -2.01349 0
M  V30 34797 H 3181.4 1.06476 -0.969478 0
M  V30 34798 H 3183.35 4.17589 -0.565467 0
M  V30 34799 H 3182.07 3.25492 0.268834 0
M  V30 34800 H 3180.73 3.15823 -1.86148 0
M  V30 34801 H 3180.38 5.02454 -0.234281 0
M  V30 34802 H 3180.08 5.55781 -1.90738 0
M  V30 34803 H 3181.6 6.00779 -1.09071 0
M  V30 34804 H 3183.02 4.8555 -3.04817 0
M  V30 34805 H 3181.41 4.63743 -3.80871 0
M  V30 34806 H 3182.48 3.23799 -3.60946 0
M  V30 34807 N 3183.83 1.06924 1.1578 0
M  V30 34808 C 3185.24 0.813173 1.68061 0
M  V30 34809 C 3185.59 -0.662342 1.84682 0
M  V30 34810 O 3184.71 -1.51318 1.54699 0
M  V30 34811 C 3185.31 1.46954 3.0527 0
M  V30 34812 C 3183.87 1.2611 3.54645 0
M  V30 34813 C 3183.02 1.54198 2.30474 0
M  V30 34814 H 3185.97 1.23186 1.00054 0
M  V30 34815 H 3185.99 0.888373 3.69984 0
M  V30 34816 H 3185.5 2.54343 2.93141 0
M  V30 34817 H 3183.6 0.207245 3.72023 0
M  V30 34818 H 3183.71 1.97827 4.3635 0
M  V30 34819 H 3182.08 0.962801 2.35801 0
M  V30 34820 H 3182.86 2.62759 2.20936 0
M  V30 34821 N 3185.31 -1.32538 0.852723 0
M  V30 34822 C 3186.22 -2.3269 0.298785 0
M  V30 34823 C 3187.23 -1.63964 -0.582389 0
M  V30 34824 O 3188.41 -1.95517 -0.483219 0
M  V30 34825 C 3185.47 -3.42997 -0.505393 0
M  V30 34826 C 3184.53 -4.27417 0.401693 0
M  V30 34827 C 3183.77 -5.32456 -0.3642 0
M  V30 34828 O 3183.99 -5.47664 -1.59438 0
M  V30 34829 O 3182.92 -6.01299 0.268998 0
M  V30 34830 H 3186.75 -2.81956 1.12848 0
M  V30 34831 H 3184.33 -1.36127 0.615608 0
M  V30 34832 H 3186.22 -4.10275 -0.961902 0
M  V30 34833 H 3184.89 -2.95923 -1.31192 0
M  V30 34834 H 3183.8 -3.62955 0.906337 0
M  V30 34835 H 3185.13 -4.7801 1.17335 0
M  V30 34836 N 3186.78 -0.610474 -1.45296 0
M  V30 34837 C 3188.2 -0.27436 -1.57224 0
M  V30 34838 C 3188.4 1.22304 -1.60138 0
M  V30 34839 O 3187.46 2.00619 -1.53323 0
M  V30 34840 C 3188.77 -0.948078 -2.85363 0
M  V30 34841 C 3190.32 -0.924269 -2.99042 0
M  V30 34842 C 3190.79 -1.57805 -4.29955 0
M  V30 34843 N 3192.28 -1.54368 -4.36721 0
M  V30 34844 C 3193.02 -2.01867 -5.36691 0
M  V30 34845 N 3192.51 -2.57464 -6.43183 0
M  V30 34846 N 3194.31 -1.92618 -5.28067 0
M  V30 34847 H 3186.46 -1.5827 -1.41648 0
M  V30 34848 H 3188.72 -0.66317 -0.677429 0
M  V30 34849 H 3188.43 -2.00254 -2.89121 0
M  V30 34850 H 3188.3 -0.473127 -3.74221 0
M  V30 34851 H 3190.69 0.121657 -2.94849 0
M  V30 34852 H 3190.77 -1.43751 -2.11587 0
M  V30 34853 H 3190.41 -2.62332 -4.34907 0
M  V30 34854 H 3190.34 -1.03981 -5.16232 0
M  V30 34855 H 3192.83 -1.13756 -3.60372 0
M  V30 34856 H 3193.15 -2.91494 -7.15717 0
M  V30 34857 H 3191.49 -2.61505 -6.43926 0
M  V30 34858 H 3194.68 -1.48919 -4.4378 0
M  V30 34859 H 3194.86 -2.29948 -6.05828 0
M  V30 34860 N 3188.26 1.53669 -0.349801 0
M  V30 34861 C 3189.54 1.9328 0.300385 0
M  V30 34862 C 3189.92 1.28194 1.67719 0
M  V30 34863 O 3189.27 0.435167 2.24318 0
M  V30 34864 C 3189.48 3.47071 0.366405 0
M  V30 34865 C 3190.82 4.20133 0.614275 0
M  V30 34866 O 3191.85 3.53368 0.448265 0
M  V30 34867 O 3190.71 5.38419 0.936327 0
M  V30 34868 H 3187.8 0.807928 0.176585 0
M  V30 34869 H 3190.35 1.64884 -0.401434 0
M  V30 34870 H 3189.12 3.8668 -0.599523 0
M  V30 34871 H 3188.74 3.81653 1.11476 0
M  V30 34872 N 3189.74 0.0785709 1.57404 0
M  V30 34873 C 3190.69 -0.886272 2.13105 0
M  V30 34874 C 3191.66 -1.29085 1.04529 0
M  V30 34875 O 3192.84 -1.37551 1.32228 0
M  V30 34876 C 3189.98 -2.14606 2.70256 0
M  V30 34877 C 3189.09 -1.79351 3.9301 0
M  V30 34878 C 3188.23 -2.99993 4.38381 0
M  V30 34879 C 3187.27 -2.60787 5.53766 0
M  V30 34880 N 3186.41 -3.74209 5.94064 0
M  V30 34881 H 3191.25 -0.4044 2.95243 0
M  V30 34882 H 3188.78 -0.187956 1.45894 0
M  V30 34883 H 3190.74 -2.88362 3.01502 0
M  V30 34884 H 3189.37 -2.60322 1.90872 0
M  V30 34885 H 3188.42 -0.956319 3.68183 0
M  V30 34886 H 3189.73 -1.46512 4.76797 0
M  V30 34887 H 3188.89 -3.82019 4.71324 0
M  V30 34888 H 3187.63 -3.36031 3.53461 0
M  V30 34889 H 3186.63 -1.77183 5.20467 0
M  V30 34890 H 3187.86 -2.25911 6.40423 0
M  V30 34891 H 3185.8 -4.09996 5.12093 0
M  V30 34892 H 3185.72 -3.45159 6.72608 0
M  V30 34893 H 3186.99 -4.56794 6.31632 0
M  V30 34894 N 3191.22 -1.56389 -0.19503 0
M  V30 34895 C 3192.47 -1.79823 -0.913595 0
M  V30 34896 C 3192.78 -0.651799 -1.84421 0
M  V30 34897 O 3193.99 -0.770447 -2.60339 0
M  V30 34898 C 3192.44 -3.18551 -1.67492 0
M  V30 34899 C 3192.05 -4.40995 -0.789127 0
M  V30 34900 C 3193.79 -3.51295 -2.38311 0
M  V30 34901 C 3191.7 -5.70745 -1.54932 0
M  V30 34902 H 3190.63 -0.670503 -0.344879 0
M  V30 34903 H 3193.28 -1.8274 -0.16688 0
M  V30 34904 H 3191.66 -3.09884 -2.46552 0
M  V30 34905 H 3192.84 -4.60785 -0.0371785 0
M  V30 34906 H 3191.15 -4.15958 -0.191761 0
M  V30 34907 H 3193.75 -4.4547 -2.95737 0
M  V30 34908 H 3194.09 -2.75042 -3.12502 0
M  V30 34909 H 3194.63 -3.61409 -1.66217 0
M  V30 34910 H 3191.36 -6.49963 -0.850196 0
M  V30 34911 H 3190.88 -5.54973 -2.2752 0
M  V30 34912 H 3192.56 -6.11865 -2.1031 0
M  V30 34913 N 3192.7 0.462746 -1.50653 0
M  V30 34914 C 3193.92 1.24193 -1.66105 0
M  V30 34915 C 3194.35 1.84863 -0.347453 0
M  V30 34916 O 3193.7 1.67671 0.689643 0
M  V30 34917 C 3193.75 2.32032 -2.76031 0
M  V30 34918 O 3192.86 3.36889 -2.37865 0
M  V30 34919 H 3192.2 0.365005 -0.554678 0
M  V30 34920 H 3194.73 0.549699 -1.97077 0
M  V30 34921 H 3194.74 2.77215 -2.99359 0
M  V30 34922 H 3193.41 1.87247 -3.71364 0
M  V30 34923 H 3191.99 2.97359 -2.25016 0
M  V30 34924 N 3194.17 1.40371 0.716495 0
M  V30 34925 C 3195.08 1.42879 1.86072 0
M  V30 34926 C 3196.1 0.321505 1.71004 0
M  V30 34927 O 3197.28 0.565943 1.93285 0
M  V30 34928 C 3194.34 1.28869 3.2186 0
M  V30 34929 C 3193.4 2.49732 3.49188 0
M  V30 34930 C 3192.64 2.36381 4.78498 0
M  V30 34931 O 3192.86 1.37712 5.53526 0
M  V30 34932 O 3191.79 3.25737 5.06141 0
M  V30 34933 H 3195.62 2.39369 1.86912 0
M  V30 34934 H 3193.2 1.21684 0.866796 0
M  V30 34935 H 3195.09 1.2326 4.0297 0
M  V30 34936 H 3193.76 0.35484 3.21749 0
M  V30 34937 H 3192.67 2.60918 2.68091 0
M  V30 34938 H 3194 3.41874 3.54095 0
M  V30 34939 N 3195.65 -0.948621 1.25853 0
M  V30 34940 C 3196.88 -1.7338 1.13816 0
M  V30 34941 C 3197.3 -1.85634 -0.303582 0
M  V30 34942 O 3196.66 -1.34116 -1.21994 0
M  V30 34943 C 3196.71 -3.12235 1.80393 0
M  V30 34944 O 3195.81 -3.97799 1.08766 0
M  V30 34945 H 3195.15 -0.532236 0.397015 0
M  V30 34946 H 3197.68 -1.18863 1.66531 0
M  V30 34947 H 3197.69 -3.62664 1.86919 0
M  V30 34948 H 3196.37 -3.02632 2.85283 0
M  V30 34949 H 3194.95 -3.56256 1.10163 0
M  V30 34950 N 3197.13 -1.07536 -1.15212 0
M  V30 34951 C 3198.06 -0.718876 -2.22159 0
M  V30 34952 C 3199.04 0.294561 -1.6753 0
M  V30 34953 O 3200.23 0.166897 -1.93482 0
M  V30 34954 C 3197.36 -0.117897 -3.471 0
M  V30 34955 C 3196.31 -1.0587 -4.14699 0
M  V30 34956 C 3195.64 -0.320378 -5.33739 0
M  V30 34957 C 3196.94 -2.39311 -4.6425 0
M  V30 34958 H 3198.63 -1.61302 -2.52234 0
M  V30 34959 H 3196.18 -0.777014 -1.21237 0
M  V30 34960 H 3198.13 0.143445 -4.21156 0
M  V30 34961 H 3196.85 0.811333 -3.16362 0
M  V30 34962 H 3195.51 -1.30499 -3.42587 0
M  V30 34963 H 3195.16 0.612372 -4.99258 0
M  V30 34964 H 3194.86 -0.947483 -5.79911 0
M  V30 34965 H 3196.38 -0.0668794 -6.10563 0
M  V30 34966 H 3197.8 -2.18997 -5.29824 0
M  V30 34967 H 3196.2 -2.97633 -5.2109 0
M  V30 34968 H 3197.27 -3.01478 -3.79788 0
M  V30 34969 N 3198.61 1.32084 -0.85974 0
M  V30 34970 C 3200.02 1.49814 -0.550277 0
M  V30 34971 C 3200.22 1.79377 0.917934 0
M  V30 34972 O 3199.28 1.86635 1.70069 0
M  V30 34973 C 3200.59 2.63888 -1.44166 0
M  V30 34974 C 3202.14 2.77772 -1.44262 0
M  V30 34975 C 3202.62 3.94932 -2.31933 0
M  V30 34976 N 3204.11 4.02202 -2.29757 0
M  V30 34977 C 3204.84 4.92102 -2.94318 0
M  V30 34978 N 3204.34 5.86975 -3.68011 0
M  V30 34979 N 3206.13 4.85265 -2.8368 0
M  V30 34980 H 3198.28 1.11161 -1.80989 0
M  V30 34981 H 3200.55 0.548339 -0.773323 0
M  V30 34982 H 3200.25 2.48786 -2.48593 0
M  V30 34983 H 3200.13 3.5979 -1.13274 0
M  V30 34984 H 3202.51 2.92294 -0.405975 0
M  V30 34985 H 3202.59 1.82568 -1.79172 0
M  V30 34986 H 3202.24 3.81168 -3.35668 0
M  V30 34987 H 3202.17 4.89423 -1.94353 0
M  V30 34988 H 3204.66 3.34317 -1.76183 0
M  V30 34989 H 3204.97 6.5228 -4.14428 0
M  V30 34990 H 3203.32 5.86985 -3.7212 0
M  V30 34991 H 3206.51 4.10119 -2.25654 0
M  V30 34992 H 3206.68 5.55125 -3.34276 0
M  V30 34993 N 3200.09 0.618171 1.4497 0
M  V30 34994 C 3201.31 0.124202 2.06527 0
M  V30 34995 C 3201.73 -1.19585 1.46099 0
M  V30 34996 O 3201.09 -1.7307 0.57904 0
M  V30 34997 C 3201.14 -0.0106066 3.61498 0
M  V30 34998 O 3200.86 1.25723 4.19673 0
M  V30 34999 C 3202.36 -0.534795 4.40062 0
M  V30 35000 H 3199.58 0.0737052 0.66694 0
M  V30 35001 H 3202.12 0.848904 1.86048 0
M  V30 35002 H 3200.28 -0.685685 3.81284 0
M  V30 35003 H 3200.69 1.09371 5.1297 0
M  V30 35004 H 3202.17 -0.578174 5.48964 0
M  V30 35005 H 3202.64 -1.55924 4.1059 0
M  V30 35006 H 3203.25 0.106594 4.25166 0
M  V30 35007 N 3201.56 -1.53481 0.357946 0
M  V30 35008 C 3202.81 -2.0144 -0.234474 0
M  V30 35009 C 3203.14 -1.245 -1.49042 0
M  V30 35010 O 3202.42 -0.336569 -1.91566 0
M  V30 35011 C 3202.7 -3.56117 -0.53413 0
M  V30 35012 C 3202.55 -4.43756 0.734912 0
M  V30 35013 C 3203.87 -4.19272 -1.33786 0
M  V30 35014 H 3200.99 -0.732226 -0.0837466 0
M  V30 35015 H 3203.63 -1.83802 0.481329 0
M  V30 35016 H 3201.78 -3.71277 -1.14393 0
M  V30 35017 H 3203.46 -4.40406 1.37258 0
M  V30 35018 H 3201.7 -4.12034 1.35686 0
M  V30 35019 H 3202.37 -5.49906 0.480307 0
M  V30 35020 H 3204.85 -4.07898 -0.822086 0
M  V30 35021 H 3203.72 -5.27542 -1.51627 0
M  V30 35022 H 3203.98 -3.74835 -2.34417 0
M  V30 35023 N 3203.04 -0.0869173 -1.5736 0
M  V30 35024 C 3203.99 0.892533 -2.14794 0
M  V30 35025 C 3204.98 1.29785 -1.08868 0
M  V30 35026 O 3206.19 1.27333 -1.27225 0
M  V30 35027 H 3202.57 0.305826 -0.687004 0
M  V30 35028 H 3204.54 0.383341 -2.95927 0
M  V30 35029 C 3203.29 2.14503 -2.73649 0
M  V30 35030 H 3202.61 1.84201 -3.54838 0
M  V30 35031 H 3204.05 2.81113 -3.17414 0
M  V30 35032 C 3202.51 2.91363 -1.69143 0
M  V30 35033 O 3203.04 3.85612 -1.12546 0
M  V30 35034 N 3201.24 2.5475 -1.39824 0
M  V30 35035 H 3200.79 1.78178 -1.86038 0
M  V30 35036 H 3200.75 3.06477 -0.70137 0
M  V30 35037 N 3204.52 1.5649 0.186734 0
M  V30 35038 C 3205.45 1.90283 1.25967 0
M  V30 35039 C 3206.43 0.763847 1.43541 0
M  V30 35040 O 3207.62 1.01567 1.58797 0
M  V30 35041 C 3204.74 2.14032 2.62503 0
M  V30 35042 C 3203.79 3.36732 2.61752 0
M  V30 35043 S 3204.62 4.91594 2.12357 0
M  V30 35044 C 3205.78 5.18421 3.50701 0
M  V30 35045 H 3206.01 2.80991 0.971153 0
M  V30 35046 H 3203.54 1.49377 0.39061 0
M  V30 35047 H 3205.5 2.28397 3.41094 0
M  V30 35048 H 3204.16 1.24059 2.88562 0
M  V30 35049 H 3203.36 3.50501 3.62167 0
M  V30 35050 H 3202.96 3.21403 1.91248 0
M  V30 35051 H 3205.25 5.09453 4.46613 0
M  V30 35052 H 3206.19 6.20134 3.41818 0
M  V30 35053 H 3206.6 4.46032 3.46 0
M  V30 35054 N 3206 -0.45475 1.50897 0
M  V30 35055 C 3207.23 -1.22846 1.66482 0
M  V30 35056 C 3207.64 -1.85435 0.354874 0
M  V30 35057 O 3207 -1.69957 -0.664901 0
M  V30 35058 C 3207.05 -2.32527 2.76791 0
M  V30 35059 O 3206.77 -1.72502 4.02709 0
M  V30 35060 C 3208.27 -3.2312 3.03494 0
M  V30 35061 H 3205.49 -0.370922 0.559158 0
M  V30 35062 H 3208.04 -0.540949 1.97216 0
M  V30 35063 H 3206.19 -2.97025 2.48706 0
M  V30 35064 H 3206.6 -2.44855 4.63839 0
M  V30 35065 H 3208.08 -3.96253 3.84301 0
M  V30 35066 H 3208.56 -3.82861 2.15207 0
M  V30 35067 H 3209.16 -2.64342 3.33172 0
M  V30 35068 N 3207.48 -1.40749 -0.709041 0
M  V30 35069 C 3208.72 -1.40589 -1.4699 0
M  V30 35070 C 3209.08 -0.00989682 -1.92397 0
M  V30 35071 O 3208.37 0.961743 -1.65714 0
M  V30 35072 C 3208.56 -2.33546 -2.70538 0
M  V30 35073 C 3208.39 -3.82046 -2.37216 0
M  V30 35074 C 3207.16 -4.50817 -2.28236 0
M  V30 35075 C 3209.36 -4.7337 -2.0106 0
M  V30 35076 N 3207.34 -5.84515 -1.87657 0
M  V30 35077 C 3208.71 -5.95914 -1.71133 0
M  V30 35078 C 3210.77 -4.61143 -1.87753 0
M  V30 35079 C 3209.47 -7.07595 -1.29238 0
M  V30 35080 C 3211.5 -5.72772 -1.47261 0
M  V30 35081 C 3210.86 -6.94406 -1.18236 0
M  V30 35082 H 3206.96 -0.569695 -0.535698 0
M  V30 35083 H 3209.54 -1.76514 -0.821638 0
M  V30 35084 H 3207.71 -1.99738 -3.33105 0
M  V30 35085 H 3209.45 -2.24198 -3.36923 0
M  V30 35086 H 3206.2 -4.04582 -2.46192 0
M  V30 35087 H 3206.63 -6.55338 -1.69887 0
M  V30 35088 H 3211.27 -3.67615 -2.08851 0
M  V30 35089 H 3208.99 -8.01 -1.06882 0
M  V30 35090 H 3212.57 -5.6531 -1.37534 0
M  V30 35091 H 3211.45 -7.79317 -0.87376 0
M  V30 35092 N 3208.96 0.941933 -1.26354 0
M  V30 35093 C 3209.9 2.06186 -1.07657 0
M  V30 35094 C 3210.9 1.694 -0.00372719 0
M  V30 35095 O 3212.1 1.79284 -0.160348 0
M  V30 35096 H 3208.48 0.675095 -0.331286 0
M  V30 35097 H 3210.45 2.19107 -2.0257 0
M  V30 35098 C 3209.2 3.40047 -0.725496 0
M  V30 35099 H 3208.52 3.68829 -1.54289 0
M  V30 35100 H 3209.96 4.19226 -0.634457 0
M  V30 35101 C 3208.42 3.32055 0.56931 0
M  V30 35102 O 3208.95 3.68119 1.60784 0
M  V30 35103 N 3207.16 2.8516 0.559663 0
M  V30 35104 H 3206.7 2.56009 -0.285862 0
M  V30 35105 H 3206.66 2.80195 1.42612 0
M  V30 35106 N 3210.43 1.08146 1.1464 0
M  V30 35107 C 3211.38 0.709033 2.19639 0
M  V30 35108 C 3212.35 -0.303483 1.63304 0
M  V30 35109 O 3213.54 -0.188096 1.89871 0
M  V30 35110 C 3210.68 0.121645 3.44886 0
M  V30 35111 C 3209.79 1.18662 4.15383 0
M  V30 35112 C 3208.92 0.563373 5.28204 0
M  V30 35113 C 3207.96 1.61057 5.90531 0
M  V30 35114 N 3207.1 1.00932 6.94807 0
M  V30 35115 H 3211.94 1.60875 2.50845 0
M  V30 35116 H 3209.48 0.803997 1.23184 0
M  V30 35117 H 3211.43 -0.236607 4.16529 0
M  V30 35118 H 3210.06 -0.74139 3.14171 0
M  V30 35119 H 3209.12 1.66233 3.42156 0
M  V30 35120 H 3210.43 1.98028 4.57806 0
M  V30 35121 H 3209.58 0.153215 6.06507 0
M  V30 35122 H 3208.32 -0.261981 4.86996 0
M  V30 35123 H 3207.33 2.03042 5.10935 0
M  V30 35124 H 3208.55 2.43835 6.33815 0
M  V30 35125 H 3206.5 0.20501 6.5568 0
M  V30 35126 H 3206.41 1.74012 7.35701 0
M  V30 35127 H 3207.68 0.624928 7.76991 0
M  V30 35128 N 3211.91 -1.31626 0.866732 0
M  V30 35129 C 3213.16 -1.96094 0.472219 0
M  V30 35130 C 3213.47 -1.69288 -0.979843 0
M  V30 35131 O 3214.68 -2.27591 -1.48035 0
M  V30 35132 C 3213.14 -3.51043 0.79353 0
M  V30 35133 C 3212.74 -3.86693 2.26213 0
M  V30 35134 C 3214.49 -4.2192 0.467329 0
M  V30 35135 C 3212.39 -5.34739 2.52603 0
M  V30 35136 H 3211.32 -0.733918 0.172859 0
M  V30 35137 H 3213.98 -1.49845 1.05919 0
M  V30 35138 H 3212.36 -3.95767 0.135852 0
M  V30 35139 H 3213.53 -3.5294 2.9626 0
M  V30 35140 H 3211.85 -3.28873 2.55405 0
M  V30 35141 H 3214.44 -5.30835 0.641762 0
M  V30 35142 H 3214.79 -4.12069 -0.591993 0
M  V30 35143 H 3215.32 -3.82819 1.08141 0
M  V30 35144 H 3212.06 -5.49622 3.57206 0
M  V30 35145 H 3211.58 -5.69856 1.87146 0
M  V30 35146 H 3213.26 -6.01964 2.37167 0
M  V30 35147 N 3213.39 -0.62585 -1.4464 0
M  V30 35148 C 3214.63 -0.13148 -2.03977 0
M  V30 35149 C 3214.99 1.2216 -1.48124 0
M  V30 35150 O 3216.19 1.80778 -1.98929 0
M  V30 35151 C 3214.47 -0.112095 -3.57224 0
M  V30 35152 S 3216.02 0.318424 -4.37643 0
M  V30 35153 H 3212.84 -0.0584983 -0.708589 0
M  V30 35154 H 3215.44 -0.828055 -1.77097 0
M  V30 35155 H 3214.15 -1.10008 -3.95381 0
M  V30 35156 H 3213.68 0.605896 -3.88706 0
M  V30 35157 H 3215.69 1.56385 -4.70912 0
M  V30 35158 N 3214.87 1.53289 -0.36608 0
M  V30 35159 C 3216.28 1.59593 -0.0150429 0
M  V30 35160 C 3216.48 1.38118 1.46716 0
M  V30 35161 O 3215.54 1.1866 2.22881 0
M  V30 35162 C 3216.85 2.96982 -0.471426 0
M  V30 35163 C 3218.4 3.10092 -0.425689 0
M  V30 35164 C 3218.88 4.49894 -0.857891 0
M  V30 35165 N 3220.37 4.5601 -0.81297 0
M  V30 35166 C 3221.1 5.62374 -1.11908 0
M  V30 35167 N 3220.6 6.76489 -1.49448 0
M  V30 35168 N 3222.39 5.52361 -1.04184 0
M  V30 35169 H 3214.54 1.655 -1.3313 0
M  V30 35170 H 3216.8 0.776251 -0.544185 0
M  V30 35171 H 3216.51 3.17837 -1.50574 0
M  V30 35172 H 3216.38 3.76934 0.141698 0
M  V30 35173 H 3218.77 2.88946 0.599497 0
M  V30 35174 H 3218.85 2.32147 -1.07431 0
M  V30 35175 H 3218.5 4.71777 -1.8812 0
M  V30 35176 H 3218.43 5.2627 -0.186512 0
M  V30 35177 H 3220.92 3.74074 -0.536408 0
M  V30 35178 H 3221.23 7.53591 -1.7123 0
M  V30 35179 H 3219.58 6.77879 -1.53314 0
M  V30 35180 H 3222.77 4.62089 -0.747735 0
M  V30 35181 H 3222.94 6.35157 -1.28373 0
M  V30 35182 N 3216.35 0.0952613 1.57312 0
M  V30 35183 C 3217.26 -0.877839 2.17557 0
M  V30 35184 C 3218.27 -1.31012 1.14508 0
M  V30 35185 O 3219.45 -1.378 1.46878 0
M  V30 35186 C 3216.51 -2.11887 2.74417 0
M  V30 35187 C 3215.57 -1.74078 3.92422 0
M  V30 35188 C 3214.81 -2.92265 4.46561 0
M  V30 35189 O 3215.03 -4.06995 3.99639 0
M  V30 35190 O 3213.96 -2.70722 5.37581 0
M  V30 35191 H 3217.79 -0.395259 3.01117 0
M  V30 35192 H 3215.37 -0.129097 1.48841 0
M  V30 35193 H 3217.26 -2.84617 3.10759 0
M  V30 35194 H 3215.93 -2.59197 1.93903 0
M  V30 35195 H 3214.84 -0.985283 3.60892 0
M  V30 35196 H 3216.17 -1.31531 4.743 0
M  V30 35197 N 3217.82 -1.56587 -0.178432 0
M  V30 35198 C 3219.07 -1.81858 -0.897531 0
M  V30 35199 C 3219.4 -0.671987 -1.82203 0
M  V30 35200 O 3218.68 0.326501 -1.9174 0
M  V30 35201 C 3218.96 -3.1748 -1.69937 0
M  V30 35202 C 3218.81 -4.42656 -0.798467 0
M  V30 35203 C 3220.13 -3.49967 -2.66854 0
M  V30 35204 H 3217.25 -0.661544 -0.324851 0
M  V30 35205 H 3219.89 -1.8929 -0.164073 0
M  V30 35206 H 3218.04 -3.11275 -2.32466 0
M  V30 35207 H 3219.72 -4.60922 -0.186599 0
M  V30 35208 H 3217.96 -4.3367 -0.106105 0
M  V30 35209 H 3218.63 -5.34086 -1.39486 0
M  V30 35210 H 3221.11 -3.56579 -2.14453 0
M  V30 35211 H 3219.98 -4.45951 -3.20029 0
M  V30 35212 H 3220.24 -2.74307 -3.4671 0
M  V30 35213 N 3219.3 0.446741 -1.51136 0
M  V30 35214 C 3220.71 1.02691 -1.55921 0
M  V30 35215 C 3221.06 1.92542 -0.377072 0
M  V30 35216 O 3220.19 2.10371 0.507258 0
M  V30 35217 C 3220.78 1.86917 -2.82573 0
M  V30 35218 C 3219.34 2.4 -2.8996 0
M  V30 35219 C 3218.49 1.18967 -2.50484 0
M  V30 35220 H 3221.44 0.228376 -1.57048 0
M  V30 35221 H 3221.46 2.72265 -2.65804 0
M  V30 35222 H 3220.97 1.21496 -3.68592 0
M  V30 35223 H 3219.07 3.08904 -2.08349 0
M  V30 35224 H 3219.19 2.73441 -3.93404 0
M  V30 35225 H 3217.55 1.53208 -2.03469 0
M  V30 35226 H 3218.33 0.551702 -3.38838 0
M  V30 35227 N 3220.78 1.41123 0.701567 0
M  V30 35228 C 3222.01 1.43502 1.49046 0
M  V30 35229 C 3222.42 0.0386016 1.88761 0
M  V30 35230 O 3221.78 -0.940728 1.56386 0
M  V30 35231 C 3221.83 2.33836 2.75686 0
M  V30 35232 O 3221.55 3.68043 2.37647 0
M  V30 35233 C 3223.05 2.44955 3.69475 0
M  V30 35234 H 3220.27 0.488969 0.459511 0
M  V30 35235 H 3222.82 1.85338 0.864286 0
M  V30 35236 H 3220.97 1.95324 3.34555 0
M  V30 35237 H 3221.39 4.16161 3.19233 0
M  V30 35238 H 3222.86 3.12342 4.55134 0
M  V30 35239 H 3223.34 1.47894 4.1355 0
M  V30 35240 H 3223.94 2.84078 3.16512 0
M  V30 35241 N 3222.26 -0.935219 1.26852 0
M  V30 35242 C 3223.49 -1.71633 1.15541 0
M  V30 35243 C 3223.9 -1.8658 -0.288665 0
M  V30 35244 O 3223.26 -1.37745 -1.19719 0
M  V30 35245 C 3223.31 -3.11995 1.82595 0
M  V30 35246 O 3223.03 -2.97757 3.2136 0
M  V30 35247 C 3224.53 -4.06294 1.77315 0
M  V30 35248 H 3221.75 -0.537201 0.402064 0
M  V30 35249 H 3224.29 -1.172 1.67584 0
M  V30 35250 H 3222.45 -3.63311 1.34476 0
M  V30 35251 H 3222.86 -3.8644 3.54633 0
M  V30 35252 H 3224.34 -5.02322 2.28859 0
M  V30 35253 H 3224.81 -4.32906 0.7409 0
M  V30 35254 H 3225.42 -3.609 2.25013 0
M  V30 35255 N 3223.74 -1.08752 -1.14065 0
M  V30 35256 C 3224.67 -0.742398 -2.21384 0
M  V30 35257 C 3225.65 0.276776 -1.67833 0
M  V30 35258 O 3226.83 0.146366 -1.93648 0
M  V30 35259 C 3223.96 -0.154705 -3.46955 0
M  V30 35260 C 3222.92 -1.10262 -4.13553 0
M  V30 35261 C 3222.24 -0.37697 -5.33369 0
M  V30 35262 C 3223.54 -2.44221 -4.61685 0
M  V30 35263 H 3225.24 -1.63968 -2.50509 0
M  V30 35264 H 3222.78 -0.789829 -1.20406 0
M  V30 35265 H 3224.74 0.0987679 -4.21284 0
M  V30 35266 H 3223.46 0.777733 -3.17205 0
M  V30 35267 H 3222.12 -1.34125 -3.41183 0
M  V30 35268 H 3221.77 0.559385 -4.9988 0
M  V30 35269 H 3221.47 -1.00894 -5.78873 0
M  V30 35270 H 3222.99 -0.131634 -6.10458 0
M  V30 35271 H 3224.4 -2.24605 -5.27471 0
M  V30 35272 H 3222.8 -3.03143 -5.17904 0
M  V30 35273 H 3223.87 -3.05489 -3.76569 0
M  V30 35274 N 3225.21 1.31165 -0.873701 0
M  V30 35275 C 3226.16 2.28424 -0.330328 0
M  V30 35276 C 3227.13 1.55894 0.573271 0
M  V30 35277 O 3228.32 1.8402 0.504111 0
M  V30 35278 C 3225.46 3.42035 0.458944 0
M  V30 35279 C 3224.57 4.29407 -0.472594 0
M  V30 35280 C 3223.7 5.30167 0.331168 0
M  V30 35281 C 3222.74 6.09186 -0.59656 0
M  V30 35282 N 3221.88 7.01891 0.171182 0
M  V30 35283 H 3226.72 2.74288 -1.1649 0
M  V30 35284 H 3224.26 1.34931 -0.585836 0
M  V30 35285 H 3226.22 4.06648 0.932361 0
M  V30 35286 H 3224.85 2.9727 1.25818 0
M  V30 35287 H 3223.9 3.65203 -1.06447 0
M  V30 35288 H 3225.21 4.84549 -1.1838 0
M  V30 35289 H 3224.36 6.00474 0.866932 0
M  V30 35290 H 3223.1 4.7569 1.07565 0
M  V30 35291 H 3222.11 5.37765 -1.14405 0
M  V30 35292 H 3223.33 6.65749 -1.33995 0
M  V30 35293 H 3221.28 6.49819 0.898406 0
M  V30 35294 H 3221.2 7.54471 -0.480614 0
M  V30 35295 H 3222.46 7.76457 0.688055 0
M  V30 35296 N 3226.69 0.633512 1.44307 0
M  V30 35297 C 3227.6 -0.0711375 2.34492 0
M  V30 35298 C 3228.62 -0.833173 1.52755 0
M  V30 35299 O 3229.79 -0.784896 1.85476 0
M  V30 35300 C 3226.86 -1.03889 3.30769 0
M  V30 35301 C 3225.92 -0.275968 4.28412 0
M  V30 35302 C 3225.15 -1.19762 5.20089 0
M  V30 35303 O 3225.38 -2.43641 5.15747 0
M  V30 35304 O 3224.31 -0.680659 5.98039 0
M  V30 35305 H 3228.14 0.670682 2.96202 0
M  V30 35306 H 3225.72 0.393703 1.44119 0
M  V30 35307 H 3227.6 -1.59559 3.90024 0
M  V30 35308 H 3226.28 -1.76128 2.71589 0
M  V30 35309 H 3225.19 0.323836 3.72696 0
M  V30 35310 H 3226.52 0.406451 4.90519 0
M  V30 35311 N 3228.17 -1.53093 0.374204 0
M  V30 35312 C 3229.41 -2.0329 -0.212744 0
M  V30 35313 C 3229.77 -1.25519 -1.45289 0
M  V30 35314 O 3230.98 -1.65765 -2.11602 0
M  V30 35315 C 3229.25 -3.54038 -0.489068 0
M  V30 35316 S 3230.81 -4.2609 -1.04846 0
M  V30 35317 H 3227.62 -0.708356 -0.0612628 0
M  V30 35318 H 3230.23 -1.88483 0.519064 0
M  V30 35319 H 3228.93 -4.08236 0.420858 0
M  V30 35320 H 3228.46 -3.73022 -1.24971 0
M  V30 35321 H 3230.48 -4.37984 -2.33205 0
M  V30 35322 N 3229.65 -0.103603 -1.57259 0
M  V30 35323 C 3230.9 0.557826 -1.93833 0
M  V30 35324 C 3231.21 1.68806 -0.988117 0
M  V30 35325 O 3232.42 2.41122 -1.2479 0
M  V30 35326 C 3230.87 1.04367 -3.44435 0
M  V30 35327 C 3230.48 -0.0572758 -4.47963 0
M  V30 35328 C 3232.22 1.67735 -3.89955 0
M  V30 35329 C 3230.13 0.444401 -5.89728 0
M  V30 35330 H 3229.06 0.212148 -0.723539 0
M  V30 35331 H 3231.71 -0.180976 -1.82605 0
M  V30 35332 H 3230.09 1.83642 -3.50844 0
M  V30 35333 H 3231.27 -0.83306 -4.53207 0
M  V30 35334 H 3229.58 -0.59666 -4.12103 0
M  V30 35335 H 3232.18 2.06356 -4.93276 0
M  V30 35336 H 3232.52 2.54982 -3.29074 0
M  V30 35337 H 3233.06 0.950275 -3.86283 0
M  V30 35338 H 3229.8 -0.391658 -6.54329 0
M  V30 35339 H 3229.32 1.187 -5.87937 0
M  V30 35340 H 3230.99 0.910627 -6.4056 0
M  V30 35341 N 3231.13 1.56679 0.170126 0
M  V30 35342 C 3232.06 1.93068 1.23521 0
M  V30 35343 C 3233.07 0.823904 1.40412 0
M  V30 35344 O 3234.26 1.10235 1.40394 0
M  V30 35345 C 3231.36 2.16932 2.60372 0
M  V30 35346 C 3230.53 3.48165 2.64764 0
M  V30 35347 C 3229.59 3.60843 3.82986 0
M  V30 35348 O 3228.62 4.33451 3.6893 0
M  V30 35349 N 3229.82 2.95782 4.99493 0
M  V30 35350 H 3232.59 2.85032 0.926122 0
M  V30 35351 H 3230.15 1.5785 0.359881 0
M  V30 35352 H 3232.14 2.22677 3.3793 0
M  V30 35353 H 3230.71 1.31347 2.83667 0
M  V30 35354 H 3229.93 3.54067 1.73292 0
M  V30 35355 H 3231.22 4.34518 2.6471 0
M  V30 35356 H 3230.61 2.36666 5.13815 0
M  V30 35357 H 3229.17 3.07121 5.74909 0
M  V30 35358 N 3232.6 -0.43872 1.5137 0
M  V30 35359 C 3233.51 -1.55765 1.75426 0
M  V30 35360 C 3234.53 -1.61864 0.638438 0
M  V30 35361 O 3235.71 -1.79132 0.920532 0
M  V30 35362 C 3232.77 -2.91757 1.87293 0
M  V30 35363 C 3231.83 -2.95786 3.11142 0
M  V30 35364 C 3231.07 -4.25291 3.22433 0
M  V30 35365 O 3231.29 -5.17592 2.39697 0
M  V30 35366 O 3230.22 -4.35576 4.154 0
M  V30 35367 H 3234.05 -1.38381 2.70341 0
M  V30 35368 H 3231.63 -0.621586 1.35855 0
M  V30 35369 H 3233.52 -3.72469 1.97091 0
M  V30 35370 H 3232.19 -3.09272 0.955653 0
M  V30 35371 H 3231.1 -2.14034 3.06823 0
M  V30 35372 H 3232.43 -2.83216 4.02554 0
M  V30 35373 N 3234.08 -1.41493 -0.694073 0
M  V30 35374 C 3235.49 -1.36473 -1.27405 0
M  V30 35375 C 3235.84 -0.0485554 -1.9614 0
M  V30 35376 O 3234.97 0.853153 -1.98872 0
M  V30 35377 C 3235.56 -2.47192 -2.31693 0
M  V30 35378 C 3234.12 -2.45564 -2.85263 0
M  V30 35379 C 3233.27 -2.26963 -1.59321 0
M  V30 35380 H 3236.22 -1.50987 -0.488729 0
M  V30 35381 H 3236.24 -2.16336 -3.13016 0
M  V30 35382 H 3235.75 -3.42971 -1.81638 0
M  V30 35383 H 3233.86 -1.53546 -3.39491 0
M  V30 35384 H 3233.97 -3.41928 -3.35592 0
M  V30 35385 H 3232.33 -1.74867 -1.85185 0
M  V30 35386 H 3233.12 -3.24771 -1.11259 0
M  V30 35387 N 3235.56 0.928479 -1.27346 0
M  V30 35388 C 3236.79 1.71548 -1.1656 0
M  V30 35389 C 3237.21 1.86093 0.274011 0
M  V30 35390 O 3236.57 1.3604 1.19845 0
M  V30 35391 C 3236.62 3.09326 -1.85338 0
M  V30 35392 O 3235.72 3.96018 -1.15081 0
M  V30 35393 H 3235.06 0.525852 -0.405432 0
M  V30 35394 H 3237.59 1.16199 -1.68401 0
M  V30 35395 H 3237.6 3.59644 -1.92665 0
M  V30 35396 H 3236.28 2.98055 -2.90062 0
M  V30 35397 H 3234.85 3.54459 -1.15817 0
M  V30 35398 N 3237.04 1.09355 1.13486 0
M  V30 35399 C 3238.26 0.851114 1.89132 0
M  V30 35400 C 3238.69 -0.591944 1.78543 0
M  V30 35401 O 3238.05 -1.41581 1.13246 0
M  V30 35402 C 3238.09 1.29007 3.36734 0
M  V30 35403 O 3237.2 0.448065 4.09959 0
M  V30 35404 H 3236.54 0.308306 0.588084 0
M  V30 35405 H 3239.07 1.4575 1.4359 0
M  V30 35406 H 3239.08 1.27515 3.87561 0
M  V30 35407 H 3237.75 2.34101 3.43758 0
M  V30 35408 H 3236.33 0.527235 3.69154 0
M  V30 35409 N 3238.52 -1.307 0.880644 0
M  V30 35410 C 3239.76 -1.96599 0.497646 0
M  V30 35411 C 3240.1 -1.69384 -0.949871 0
M  V30 35412 O 3239.37 -0.996181 -1.67052 0
M  V30 35413 C 3239.65 -3.51815 0.767981 0
M  V30 35414 C 3239.51 -3.88563 2.26581 0
M  V30 35415 C 3240.83 -4.39436 0.241579 0
M  V30 35416 H 3237.95 -0.714103 0.182279 0
M  V30 35417 H 3240.59 -1.54646 1.10384 0
M  V30 35418 H 3238.74 -3.87682 0.252035 0
M  V30 35419 H 3240.41 -3.62743 2.84983 0
M  V30 35420 H 3238.65 -3.36787 2.73417 0
M  V30 35421 H 3239.32 -4.96826 2.40558 0
M  V30 35422 H 3241.8 -4.10454 0.683123 0
M  V30 35423 H 3240.68 -5.46968 0.460093 0
M  V30 35424 H 3240.94 -4.33714 -0.856991 0
M  V30 35425 N 3240 -0.641156 -1.43969 0
M  V30 35426 C 3241.22 -0.155354 -2.06817 0
M  V30 35427 C 3241.65 1.16516 -1.47667 0
M  V30 35428 O 3241 1.71706 -0.58195 0
M  V30 35429 C 3241.05 -0.064817 -3.60542 0
M  V30 35430 O 3240.16 0.976377 -4.00675 0
M  V30 35431 H 3239.5 -0.089352 -0.657961 0
M  V30 35432 H 3242.03 -0.880672 -1.84676 0
M  V30 35433 H 3242.04 0.122481 -4.07816 0
M  V30 35434 H 3240.71 -1.02886 -4.02973 0
M  V30 35435 H 3239.29 0.762841 -3.65014 0
M  V30 35436 N 3241.47 1.52892 -0.382318 0
M  V30 35437 C 3242.41 2.23876 0.491159 0
M  V30 35438 C 3243.42 1.25872 1.03247 0
M  V30 35439 O 3244.61 1.51992 0.93599 0
M  V30 35440 C 3241.71 2.93603 1.69265 0
M  V30 35441 C 3240.88 4.18254 1.27993 0
M  V30 35442 C 3239.94 4.71042 2.34533 0
M  V30 35443 O 3238.97 5.34306 1.96229 0
M  V30 35444 N 3240.17 4.50296 3.66352 0
M  V30 35445 H 3242.93 2.99472 -0.116949 0
M  V30 35446 H 3240.49 1.60554 -0.208324 0
M  V30 35447 H 3242.49 3.2582 2.40048 0
M  V30 35448 H 3241.06 2.21357 2.20725 0
M  V30 35449 H 3240.28 3.92152 0.401261 0
M  V30 35450 H 3241.56 4.99259 0.980732 0
M  V30 35451 H 3240.96 3.99782 4.00238 0
M  V30 35452 H 3239.52 4.8702 4.33191 0
M  V30 35453 N 3242.95 0.111941 1.57202 0
M  V30 35454 C 3244.18 -0.555678 1.99298 0
M  V30 35455 C 3244.59 -1.60671 0.991473 0
M  V30 35456 O 3243.95 -1.82492 -0.0166351 0
M  V30 35457 C 3244 -1.1882 3.41415 0
M  V30 35458 O 3243.72 -0.179184 4.37733 0
M  V30 35459 C 3245.22 -1.93982 3.98605 0
M  V30 35460 H 3242.44 -0.147684 0.654546 0
M  V30 35461 H 3244.99 0.196199 2.03557 0
M  V30 35462 H 3243.14 -1.8909 3.38118 0
M  V30 35463 H 3243.56 -0.637844 5.20607 0
M  V30 35464 H 3245.03 -2.33575 5.00147 0
M  V30 35465 H 3245.51 -2.81227 3.37354 0
M  V30 35466 H 3246.11 -1.2849 4.05426 0
M  V30 35467 N 3244.43 -1.56767 -0.161814 0
M  V30 35468 C 3245.85 -1.51099 -0.513933 0
M  V30 35469 C 3246.05 -0.817847 -1.84156 0
M  V30 35470 O 3245.1 -0.382177 -2.49591 0
M  V30 35471 C 3246.41 -2.9585 -0.537914 0
M  V30 35472 C 3247.96 -3.06708 -0.624458 0
M  V30 35473 C 3248.44 -4.52935 -0.679242 0
M  V30 35474 N 3249.93 -4.5722 -0.741873 0
M  V30 35475 C 3250.66 -5.67721 -0.804996 0
M  V30 35476 N 3250.16 -6.8783 -0.828371 0
M  V30 35477 N 3251.95 -5.55716 -0.844745 0
M  V30 35478 H 3244.1 -2.00231 0.708616 0
M  V30 35479 H 3246.37 -0.912599 0.256646 0
M  V30 35480 H 3246.07 -3.49758 0.369113 0
M  V30 35481 H 3245.95 -3.51007 -1.38107 0
M  V30 35482 H 3248.33 -2.52828 -1.52191 0
M  V30 35483 H 3248.41 -2.54619 0.245559 0
M  V30 35484 H 3248.06 -5.07449 0.21399 0
M  V30 35485 H 3247.99 -5.02791 -1.56554 0
M  V30 35486 H 3250.48 -3.70749 -0.731707 0
M  V30 35487 H 3250.79 -7.67796 -0.877974 0
M  V30 35488 H 3249.14 -6.90421 -0.79649 0
M  V30 35489 H 3252.33 -4.60798 -0.823551 0
M  V30 35490 H 3252.5 -6.41852 -0.890475 0
M  V30 35491 N 3245.91 0.430686 -1.51601 0
M  V30 35492 C 3247.16 1.17654 -1.63831 0
M  V30 35493 C 3247.47 1.9219 -0.363639 0
M  V30 35494 O 3248.68 2.6903 -0.365406 0
M  V30 35495 C 3247.13 2.14005 -2.89361 0
M  V30 35496 C 3246.74 1.45086 -4.23856 0
M  V30 35497 C 3248.48 2.88982 -3.10949 0
M  V30 35498 C 3246.39 2.3996 -5.4053 0
M  V30 35499 H 3245.32 0.442873 -0.610229 0
M  V30 35500 H 3247.97 0.442952 -1.78074 0
M  V30 35501 H 3246.35 2.90827 -2.68767 0
M  V30 35502 H 3247.53 0.737773 -4.54856 0
M  V30 35503 H 3245.84 0.822357 -4.08199 0
M  V30 35504 H 3248.44 3.60067 -3.95292 0
M  V30 35505 H 3248.78 3.50708 -2.24297 0
M  V30 35506 H 3249.32 2.19266 -3.31914 0
M  V30 35507 H 3246.05 1.82914 -6.29462 0
M  V30 35508 H 3245.57 3.09304 -5.13898 0
M  V30 35509 H 3247.25 3.00949 -5.72747 0
M  V30 35510 N 3247.39 1.4186 0.686559 0
M  V30 35511 C 3248.35 1.44129 1.78212 0
M  V30 35512 C 3249.35 0.330569 1.57365 0
M  V30 35513 O 3250.54 0.590866 1.63873 0
M  V30 35514 C 3247.67 1.26147 3.16701 0
M  V30 35515 H 3248.86 2.41664 1.7759 0
M  V30 35516 H 3246.42 1.28134 0.895062 0
M  V30 35517 H 3247.15 0.294879 3.22957 0
M  V30 35518 H 3246.94 2.06632 3.33235 0
M  V30 35519 H 3248.43 1.30591 3.96656 0
M  V30 35520 N 3248.86 -0.921712 1.27837 0
M  V30 35521 C 3249.83 -2.00467 1.11111 0
M  V30 35522 C 3250.83 -1.60712 0.0532312 0
M  V30 35523 O 3252.02 -1.71626 0.298338 0
M  V30 35524 C 3249.15 -3.33754 0.694328 0
M  V30 35525 H 3250.34 -2.16735 2.07283 0
M  V30 35526 H 3247.89 -1.10331 1.1071 0
M  V30 35527 H 3248.63 -3.23187 -0.268504 0
M  V30 35528 H 3248.41 -3.63968 1.45842 0
M  V30 35529 H 3249.9 -4.13271 0.599723 0
M  V30 35530 N 3250.34 -1.09956 -1.12905 0
M  V30 35531 C 3251.29 -0.713242 -2.16557 0
M  V30 35532 C 3252.28 0.275122 -1.5853 0
M  V30 35533 O 3253.47 0.0846333 -1.76798 0
M  V30 35534 C 3250.6 -0.141284 -3.43009 0
M  V30 35535 C 3249.68 -1.15639 -4.0803 0
M  V30 35536 N 3250.07 -2.34539 -4.48135 0
M  V30 35537 C 3248.37 -0.995778 -4.34742 0
M  V30 35538 C 3249.07 -2.99156 -4.98879 0
M  V30 35539 N 3248.05 -2.26693 -4.94076 0
M  V30 35540 H 3251.85 -1.61842 -2.45325 0
M  V30 35541 H 3249.36 -0.976562 -1.29758 0
M  V30 35542 H 3251.36 0.153525 -4.16617 0
M  V30 35543 H 3250.02 0.758673 -3.15712 0
M  V30 35544 H 3251.03 -2.72096 -4.40663 0
M  V30 35545 H 3247.71 -0.150962 -4.17227 0
M  V30 35546 H 3249.1 -4.00267 -5.39663 0
M  V30 35547 N 3251.82 1.30231 -0.887563 0
M  V30 35548 C 3253.23 1.78183 -0.557481 0
M  V30 35549 C 3253.58 1.72949 0.926443 0
M  V30 35550 O 3252.71 1.30793 1.72401 0
M  V30 35551 C 3253.3 3.23545 -1.00518 0
M  V30 35552 C 3251.86 3.69323 -0.726467 0
M  V30 35553 C 3251.01 2.50624 -1.1867 0
M  V30 35554 H 3253.96 1.17064 -1.07153 0
M  V30 35555 H 3253.98 3.7902 -0.335252 0
M  V30 35556 H 3253.49 3.27322 -2.08523 0
M  V30 35557 H 3251.59 3.71032 0.341482 0
M  V30 35558 H 3251.71 4.60676 -1.31583 0
M  V30 35559 H 3250.07 2.47386 -0.60598 0
M  V30 35560 H 3250.85 2.57137 -2.27455 0
M  V30 35561 N 3253.3 0.648782 1.43627 0
M  V30 35562 C 3254.25 -0.0574952 2.32529 0
M  V30 35563 C 3255.24 -0.817673 1.48359 0
M  V30 35564 O 3256.45 -0.728576 1.64596 0
M  V30 35565 H 3252.82 -0.0373748 0.751071 0
M  V30 35566 H 3254.79 0.710113 2.89827 0
M  V30 35567 C 3253.54 -1.0133 3.32607 0
M  V30 35568 H 3252.86 -0.437785 3.97396 0
M  V30 35569 H 3254.3 -1.47665 3.97456 0
M  V30 35570 C 3252.76 -2.10717 2.62868 0
M  V30 35571 O 3253.29 -3.19038 2.44086 0
M  V30 35572 N 3251.5 -1.87148 2.22315 0
M  V30 35573 H 3251.05 -0.990602 2.37792 0
M  V30 35574 H 3251 -2.60533 1.75983 0
M  V30 35575 N 3254.78 -1.52688 0.390421 0
M  V30 35576 C 3256.02 -2.01892 -0.191693 0
M  V30 35577 C 3256.36 -1.27633 -1.46367 0
M  V30 35578 O 3255.63 -0.377127 -1.90809 0
M  V30 35579 C 3255.91 -3.57169 -0.458473 0
M  V30 35580 C 3255.77 -4.42097 0.828874 0
M  V30 35581 C 3257.09 -4.22016 -1.24862 0
M  V30 35582 H 3254.2 -0.733838 -0.0681962 0
M  V30 35583 H 3256.85 -1.8274 0.520208 0
M  V30 35584 H 3255 -3.7362 -1.06492 0
M  V30 35585 H 3256.67 -4.37396 1.46569 0
M  V30 35586 H 3254.91 -4.09063 1.44395 0
M  V30 35587 H 3255.58 -5.48764 0.596842 0
M  V30 35588 H 3258.06 -4.0955 -0.73538 0
M  V30 35589 H 3256.93 -5.30639 -1.40403 0
M  V30 35590 H 3257.2 -3.79723 -2.26413 0
M  V30 35591 N 3256.25 -0.120276 -1.5714 0
M  V30 35592 C 3257.19 0.859949 -2.12456 0
M  V30 35593 C 3258.2 1.22909 -1.06758 0
M  V30 35594 O 3259.39 1.17782 -1.34126 0
M  V30 35595 C 3256.49 2.16143 -2.61028 0
M  V30 35596 C 3255.66 1.96378 -3.90838 0
M  V30 35597 C 3254.72 3.10267 -4.24995 0
M  V30 35598 O 3253.75 2.83125 -4.93791 0
M  V30 35599 N 3254.95 4.36734 -3.82418 0
M  V30 35600 H 3257.71 0.38735 -2.97186 0
M  V30 35601 H 3255.27 0.0641091 -1.61773 0
M  V30 35602 H 3257.27 2.9133 -2.80908 0
M  V30 35603 H 3255.84 2.54747 -1.8117 0
M  V30 35604 H 3255.06 1.05377 -3.79854 0
M  V30 35605 H 3256.34 1.80479 -4.75715 0
M  V30 35606 H 3255.74 4.61661 -3.26934 0
M  V30 35607 H 3254.3 5.08788 -4.07404 0
M  V30 35608 N 3257.73 1.56851 0.153498 0
M  V30 35609 C 3258.68 1.97775 1.1897 0
M  V30 35610 C 3259.65 0.844336 1.43039 0
M  V30 35611 O 3260.83 1.10589 1.55482 0
M  V30 35612 C 3257.97 2.358 2.51977 0
M  V30 35613 C 3257.09 3.62401 2.35137 0
M  V30 35614 C 3256.22 3.89558 3.61134 0
M  V30 35615 C 3255.26 5.09451 3.39302 0
M  V30 35616 N 3254.4 5.32651 4.57414 0
M  V30 35617 H 3259.24 2.861 0.833707 0
M  V30 35618 H 3256.78 1.41551 0.400227 0
M  V30 35619 H 3258.73 2.55873 3.29522 0
M  V30 35620 H 3257.36 1.50562 2.85536 0
M  V30 35621 H 3256.42 3.50141 1.48678 0
M  V30 35622 H 3257.73 4.50104 2.14961 0
M  V30 35623 H 3256.88 4.10095 4.4711 0
M  V30 35624 H 3255.62 3.00265 3.84307 0
M  V30 35625 H 3254.63 4.88794 2.51715 0
M  V30 35626 H 3255.85 6.00291 3.17534 0
M  V30 35627 H 3253.8 4.46312 4.80772 0
M  V30 35628 H 3253.71 6.1461 4.40217 0
M  V30 35629 H 3254.98 5.5768 5.44622 0
M  V30 35630 N 3259.21 -0.42264 1.51827 0
M  V30 35631 C 3260.46 -1.17255 1.65466 0
M  V30 35632 C 3260.79 -1.90508 0.376867 0
M  V30 35633 O 3260.06 -1.84212 -0.624187 0
M  V30 35634 C 3260.35 -2.17783 2.8678 0
M  V30 35635 C 3260.2 -1.48516 4.24574 0
M  V30 35636 C 3261.52 -3.18606 3.03609 0
M  V30 35637 H 3258.64 -0.424915 0.602176 0
M  V30 35638 H 3261.28 -0.459927 1.84349 0
M  V30 35639 H 3259.43 -2.78556 2.70811 0
M  V30 35640 H 3261.1 -0.909659 4.52242 0
M  V30 35641 H 3259.35 -0.787279 4.26596 0
M  V30 35642 H 3260.02 -2.21801 5.05478 0
M  V30 35643 H 3262.49 -2.67898 3.18386 0
M  V30 35644 H 3261.37 -3.86223 3.90029 0
M  V30 35645 H 3261.63 -3.85559 2.16325 0
M  V30 35646 N 3260.69 -1.42222 -0.679027 0
M  V30 35647 C 3261.93 -1.42677 -1.44122 0
M  V30 35648 C 3262.27 -0.0414721 -1.94156 0
M  V30 35649 O 3261.54 0.93358 -1.7063 0
M  V30 35650 C 3261.83 -2.44761 -2.64129 0
M  V30 35651 C 3261.68 -3.92464 -2.19755 0
M  V30 35652 C 3263 -2.43887 -3.66343 0
M  V30 35653 H 3260.12 -0.51955 -0.52272 0
M  V30 35654 H 3262.76 -1.73608 -0.772036 0
M  V30 35655 H 3260.91 -2.18515 -3.21222 0
M  V30 35656 H 3262.58 -4.29674 -1.67862 0
M  V30 35657 H 3260.82 -4.06534 -1.5137 0
M  V30 35658 H 3261.49 -4.59464 -3.05936 0
M  V30 35659 H 3263.97 -2.67217 -3.18958 0
M  V30 35660 H 3262.85 -3.17301 -4.47897 0
M  V30 35661 H 3263.11 -1.46333 -4.1718 0
M  V30 35662 N 3262.17 0.91492 -1.28324 0
M  V30 35663 C 3263.1 2.03396 -1.14684 0
M  V30 35664 C 3264.08 1.70041 -0.0449238 0
M  V30 35665 O 3265.26 1.9293 -0.221706 0
M  V30 35666 C 3262.39 3.37802 -0.806682 0
M  V30 35667 C 3261.35 3.85314 -1.86325 0
M  V30 35668 C 3260.67 5.16672 -1.37675 0
M  V30 35669 C 3261.97 4.07302 -3.2696 0
M  V30 35670 H 3263.67 2.15065 -2.08297 0
M  V30 35671 H 3261.21 1.03338 -1.00286 0
M  V30 35672 H 3263.17 4.15578 -0.698033 0
M  V30 35673 H 3261.89 3.26182 0.165146 0
M  V30 35674 H 3260.55 3.09741 -1.96102 0
M  V30 35675 H 3260.2 5.01454 -0.394015 0
M  V30 35676 H 3259.9 5.49432 -2.08323 0
M  V30 35677 H 3261.42 5.97005 -1.28129 0
M  V30 35678 H 3262.83 4.75607 -3.2011 0
M  V30 35679 H 3261.23 4.51391 -3.95432 0
M  V30 35680 H 3262.3 3.12152 -3.71065 0
M  V30 35681 N 3263.64 1.10553 1.1232 0
M  V30 35682 C 3264.89 0.849964 1.84129 0
M  V30 35683 C 3265.22 -0.622913 1.83939 0
M  V30 35684 O 3264.5 -1.45935 1.28581 0
M  V30 35685 C 3264.78 1.40054 3.31748 0
M  V30 35686 C 3264.63 2.94036 3.40386 0
M  V30 35687 C 3265.95 1.04386 4.27541 0
M  V30 35688 H 3263.07 0.310225 0.668528 0
M  V30 35689 H 3265.71 1.36888 1.31764 0
M  V30 35690 H 3263.86 0.959168 3.76473 0
M  V30 35691 H 3265.54 3.46709 3.04287 0
M  V30 35692 H 3263.78 3.30576 2.80895 0
M  V30 35693 H 3264.45 3.27643 4.44246 0
M  V30 35694 H 3266.93 1.42472 3.90949 0
M  V30 35695 H 3265.8 1.45599 5.29237 0
M  V30 35696 H 3266.06 -0.0465539 4.42075 0
M  V30 35697 N 3265.12 -1.29758 0.894457 0
M  V30 35698 C 3266.35 -2.00455 0.532235 0
M  V30 35699 C 3266.77 -1.66541 -0.874398 0
M  V30 35700 O 3266.13 -0.887157 -1.58111 0
M  V30 35701 C 3266.18 -3.5323 0.725326 0
M  V30 35702 O 3265.28 -4.11788 -0.22454 0
M  V30 35703 H 3264.62 -0.630391 0.208573 0
M  V30 35704 H 3267.15 -1.6538 1.20461 0
M  V30 35705 H 3267.16 -4.03139 0.62796 0
M  V30 35706 H 3265.84 -3.7725 1.75086 0
M  V30 35707 H 3264.42 -3.72814 -0.0800706 0
M  V30 35708 N 3266.6 -0.65639 -1.4328 0
M  V30 35709 C 3267.83 -0.177281 -2.06641 0
M  V30 35710 C 3268.25 1.14943 -1.48895 0
M  V30 35711 O 3267.61 1.71079 -0.60013 0
M  V30 35712 C 3267.66 -0.103054 -3.60453 0
M  V30 35713 O 3266.76 0.933825 -4.01688 0
M  V30 35714 H 3266.1 -0.0963255 -0.656976 0
M  V30 35715 H 3268.63 -0.90021 -1.83732 0
M  V30 35716 H 3268.64 0.0792193 -4.07923 0
M  V30 35717 H 3267.32 -1.07154 -4.01859 0
M  V30 35718 H 3265.89 0.724083 -3.65802 0
M  V30 35719 N 3268.08 1.52478 -0.398513 0
M  V30 35720 C 3269.04 2.25316 0.420167 0
M  V30 35721 C 3270.04 1.2729 0.982537 0
M  V30 35722 O 3271.23 1.51316 0.863087 0
M  V30 35723 C 3268.36 3.01528 1.59039 0
M  V30 35724 H 3269.56 2.99109 -0.217652 0
M  V30 35725 H 3267.11 1.55571 -0.150811 0
M  V30 35726 H 3267.85 2.32058 2.26538 0
M  V30 35727 H 3267.63 3.73486 1.19375 0
M  V30 35728 H 3269.12 3.56806 2.16977 0
M  V30 35729 N 3269.56 0.128608 1.57074 0
M  V30 35730 C 3270.78 -0.537804 2.00306 0
M  V30 35731 C 3271.21 -1.58818 1.0079 0
M  V30 35732 O 3270.57 -1.8129 -0.019052 0
M  V30 35733 C 3270.61 -1.13195 3.42373 0
M  V30 35734 O 3269.72 -2.24729 3.4579 0
M  V30 35735 H 3269.06 -0.133416 0.650458 0
M  V30 35736 H 3271.59 0.219918 2.03415 0
M  V30 35737 H 3271.6 -1.46513 3.80786 0
M  V30 35738 H 3270.27 -0.362641 4.14316 0
M  V30 35739 H 3268.85 -1.92777 3.19204 0
M  V30 35740 N 3271.04 -1.5693 -0.145178 0
M  V30 35741 C 3272.31 -1.74369 -0.886279 0
M  V30 35742 C 3272.69 -0.697116 -1.99257 0
M  V30 35743 O 3272.04 0.28364 -2.26733 0
M  V30 35744 C 3272.25 -3.1849 -1.42706 0
M  V30 35745 C 3273.6 -3.80228 -1.88975 0
M  V30 35746 O 3274.62 -3.21931 -1.52444 0
M  V30 35747 O 3273.48 -4.82645 -2.56352 0
M  V30 35748 H 3270.58 -0.713019 -0.418967 0
M  V30 35749 H 3273.12 -1.69194 -0.130961 0
M  V30 35750 H 3271.89 -3.86161 -0.632097 0
M  V30 35751 H 3271.52 -3.28098 -2.24583 0
M  V30 35752 N 3272.51 0.414582 -1.52049 0
M  V30 35753 C 3273.76 1.1591 -1.65069 0
M  V30 35754 C 3274.08 1.91794 -0.384003 0
M  V30 35755 O 3275.28 2.68627 -0.393919 0
M  V30 35756 C 3273.74 2.10924 -2.91614 0
M  V30 35757 C 3273.35 1.40582 -4.25371 0
M  V30 35758 C 3275.09 2.85668 -3.13997 0
M  V30 35759 C 3273 2.34214 -5.43045 0
M  V30 35760 H 3271.93 0.436376 -0.614892 0
M  V30 35761 H 3274.58 0.42404 -1.78533 0
M  V30 35762 H 3272.96 2.8796 -2.71837 0
M  V30 35763 H 3274.13 0.689488 -4.55612 0
M  V30 35764 H 3272.45 0.779016 -4.09048 0
M  V30 35765 H 3275.05 3.55854 -3.99089 0
M  V30 35766 H 3275.39 3.4831 -2.28004 0
M  V30 35767 H 3275.92 2.15734 -3.34221 0
M  V30 35768 H 3272.66 1.76227 -6.31367 0
M  V30 35769 H 3272.18 3.03836 -5.1715 0
M  V30 35770 H 3273.86 2.94857 -5.75906 0
M  V30 35771 N 3273.99 1.4258 0.671475 0
M  V30 35772 C 3275.4 1.38483 1.25217 0
M  V30 35773 C 3275.75 0.0797534 1.96038 0
M  V30 35774 O 3274.88 -0.821406 2.00205 0
M  V30 35775 C 3275.47 2.50846 2.27731 0
M  V30 35776 C 3274.03 2.50072 2.8132 0
M  V30 35777 C 3273.18 2.29469 1.5569 0
M  V30 35778 H 3276.13 1.51746 0.464647 0
M  V30 35779 H 3276.15 2.21288 3.09535 0
M  V30 35780 H 3275.66 3.45818 1.76158 0
M  V30 35781 H 3273.76 1.58928 3.37006 0
M  V30 35782 H 3273.88 3.47224 3.3011 0
M  V30 35783 H 3272.24 1.77791 1.8238 0
M  V30 35784 H 3273.02 3.265 1.06078 0
M  V30 35785 N 3275.47 -0.908102 1.28807 0
M  V30 35786 C 3276.72 -1.66025 1.16463 0
M  V30 35787 C 3277.05 -1.92097 -0.284991 0
M  V30 35788 O 3276.32 -1.5254 -1.20673 0
M  V30 35789 C 3276.61 -3.01463 1.96957 0
M  V30 35790 C 3276.46 -2.82509 3.50012 0
M  V30 35791 C 3277.78 -4.0208 1.78939 0
M  V30 35792 H 3274.9 -0.602507 0.424446 0
M  V30 35793 H 3277.54 -1.05247 1.58187 0
M  V30 35794 H 3275.69 -3.53341 1.61501 0
M  V30 35795 H 3277.36 -2.37598 3.95405 0
M  V30 35796 H 3275.6 -2.17456 3.7536 0
M  V30 35797 H 3276.28 -3.78713 4.01597 0
M  V30 35798 H 3278.75 -3.59284 2.09891 0
M  V30 35799 H 3277.63 -4.94799 2.37623 0
M  V30 35800 H 3277.89 -4.35823 0.742362 0
M  V30 35801 N 3276.95 -1.11147 -1.11732 0
M  V30 35802 C 3277.88 -0.724843 -2.17437 0
M  V30 35803 C 3278.89 0.242041 -1.60991 0
M  V30 35804 O 3280.08 0.0253945 -1.78482 0
M  V30 35805 C 3277.18 -0.0500635 -3.38863 0
M  V30 35806 C 3276.35 -1.04299 -4.24783 0
M  V30 35807 C 3275.41 -0.398336 -5.2469 0
M  V30 35808 O 3274.44 -1.05135 -5.59406 0
M  V30 35809 N 3275.64 0.840083 -5.74389 0
M  V30 35810 H 3278.41 -1.63433 -2.51217 0
M  V30 35811 H 3275.97 -1.00128 -1.27225 0
M  V30 35812 H 3277.96 0.392858 -4.02789 0
M  V30 35813 H 3276.53 0.761952 -3.03172 0
M  V30 35814 H 3275.75 -1.66396 -3.5736 0
M  V30 35815 H 3277.04 -1.71487 -4.7903 0
M  V30 35816 H 3276.44 1.38984 -5.48361 0
M  V30 35817 H 3274.99 1.22603 -6.40165 0
M  V30 35818 N 3278.43 1.29282 -0.901326 0
M  V30 35819 C 3279.65 2.00169 -0.542858 0
M  V30 35820 C 3280.08 1.67002 0.865553 0
M  V30 35821 O 3279.43 0.895529 1.57639 0
M  V30 35822 C 3279.48 3.5284 -0.744049 0
M  V30 35823 O 3278.59 4.11902 0.202699 0
M  V30 35824 H 3277.93 0.629276 -0.211914 0
M  V30 35825 H 3280.46 1.64738 -1.21336 0
M  V30 35826 H 3280.47 4.028 -0.64933 0
M  V30 35827 H 3279.14 3.76316 -1.77084 0
M  V30 35828 H 3277.72 3.72851 0.0602982 0
M  V30 35829 N 3279.9 0.663979 1.4293 0
M  V30 35830 C 3280.85 -0.0435783 2.27958 0
M  V30 35831 C 3281.84 -0.784233 1.40494 0
M  V30 35832 O 3283.03 -0.664927 1.64036 0
M  V30 35833 C 3280.16 -1.00177 3.28359 0
M  V30 35834 C 3279.24 -0.259025 4.23308 0
M  V30 35835 N 3279.64 0.73027 5.005 0
M  V30 35836 C 3277.93 -0.498984 4.432 0
M  V30 35837 C 3278.63 1.17211 5.69769 0
M  V30 35838 N 3277.61 0.5042 5.41257 0
M  V30 35839 H 3281.41 0.715398 2.8506 0
M  V30 35840 H 3278.93 0.492144 1.54763 0
M  V30 35841 H 3280.92 -1.52355 3.88064 0
M  V30 35842 H 3279.58 -1.76069 2.72818 0
M  V30 35843 H 3280.59 1.10941 5.05878 0
M  V30 35844 H 3277.27 -1.23824 3.98715 0
M  V30 35845 H 3278.66 1.99128 6.41715 0
M  V30 35846 N 3281.38 -1.52265 0.406593 0
M  V30 35847 C 3282.8 -1.59497 0.0573509 0
M  V30 35848 C 3283 -1.4196 -1.43003 0
M  V30 35849 O 3282.05 -1.24527 -2.19657 0
M  V30 35850 C 3283.37 -2.95627 0.549999 0
M  V30 35851 C 3284.91 -3.08854 0.507754 0
M  V30 35852 C 3285.39 -4.47461 0.976871 0
M  V30 35853 N 3286.88 -4.53694 0.933587 0
M  V30 35854 C 3287.62 -5.59209 1.26779 0
M  V30 35855 N 3287.11 -6.72289 1.67332 0
M  V30 35856 N 3288.9 -5.49404 1.18792 0
M  V30 35857 H 3281.06 -1.61912 1.37471 0
M  V30 35858 H 3283.32 -0.76155 0.564575 0
M  V30 35859 H 3283.02 -3.13733 1.58948 0
M  V30 35860 H 3282.9 -3.77177 -0.0417104 0
M  V30 35861 H 3285.29 -2.90434 -0.522677 0
M  V30 35862 H 3285.37 -2.29217 1.13549 0
M  V30 35863 H 3285.01 -4.66623 2.00562 0
M  V30 35864 H 3284.94 -5.2559 0.325977 0
M  V30 35865 H 3287.43 -3.7252 0.635399 0
M  V30 35866 H 3287.74 -7.48787 1.9115 0
M  V30 35867 H 3286.09 -6.73576 1.71233 0
M  V30 35868 H 3289.28 -4.59944 0.869987 0
M  V30 35869 H 3289.45 -6.3153 1.45168 0
M  V30 35870 N 3282.86 -0.136936 -1.57004 0
M  V30 35871 C 3284.09 0.523901 -2.00157 0
M  V30 35872 C 3284.5 1.59074 -1.01691 0
M  V30 35873 O 3283.86 1.82496 -0.0123999 0
M  V30 35874 C 3283.91 1.13373 -3.43262 0
M  V30 35875 O 3283.63 0.109521 -4.37963 0
M  V30 35876 C 3285.13 1.87616 -4.01641 0
M  V30 35877 H 3282.35 0.137252 -0.656813 0
M  V30 35878 H 3284.9 -0.228558 -2.03219 0
M  V30 35879 H 3283.05 1.83687 -3.41083 0
M  V30 35880 H 3283.47 0.554939 -5.21556 0
M  V30 35881 H 3284.94 2.25589 -5.03799 0
M  V30 35882 H 3285.42 2.75825 -3.41785 0
M  V30 35883 H 3286.02 1.22024 -4.07419 0
M  V30 35884 N 3284.34 1.57005 0.136853 0
M  V30 35885 C 3285.56 1.88438 0.866372 0
M  V30 35886 C 3285.99 0.727036 1.73481 0
M  V30 35887 O 3285.35 -0.323063 1.78398 0
M  V30 35888 C 3285.39 3.18517 1.69054 0
M  V30 35889 O 3284.5 3.03165 2.79579 0
M  V30 35890 H 3283.84 0.618838 0.240698 0
M  V30 35891 H 3286.37 2.0422 0.124617 0
M  V30 35892 H 3286.38 3.50793 2.08347 0
M  V30 35893 H 3285.05 4.02352 1.05289 0
M  V30 35894 H 3283.63 2.8232 2.43619 0
M  V30 35895 N 3285.82 -0.406513 1.52267 0
M  V30 35896 C 3286.73 -1.52009 1.78691 0
M  V30 35897 C 3287.74 -1.60473 0.672628 0
M  V30 35898 O 3288.92 -1.77139 0.958321 0
M  V30 35899 C 3285.98 -2.87719 1.93439 0
M  V30 35900 C 3285.04 -2.89119 3.17346 0
M  V30 35901 C 3284.28 -4.18356 3.31381 0
M  V30 35902 O 3284.5 -5.12391 2.50622 0
M  V30 35903 O 3283.43 -4.26666 4.24546 0
M  V30 35904 H 3287.26 -1.32615 2.73216 0
M  V30 35905 H 3284.85 -0.592629 1.37143 0
M  V30 35906 H 3286.73 -3.68204 2.04948 0
M  V30 35907 H 3285.4 -3.07175 1.02104 0
M  V30 35908 H 3284.31 -2.07478 3.11294 0
M  V30 35909 H 3285.64 -2.74613 4.08471 0
M  V30 35910 N 3287.29 -1.42934 -0.663904 0
M  V30 35911 C 3288.54 -1.43273 -1.41971 0
M  V30 35912 C 3288.86 -0.0566447 -1.95518 0
M  V30 35913 O 3290.06 0.0625385 -2.71428 0
M  V30 35914 C 3288.52 -2.52075 -2.56877 0
M  V30 35915 C 3288.13 -3.95741 -2.09983 0
M  V30 35916 C 3289.87 -2.61595 -3.34317 0
M  V30 35917 C 3287.78 -4.9603 -3.22037 0
M  V30 35918 H 3286.71 -0.532927 -0.53339 0
M  V30 35919 H 3289.36 -1.68883 -0.717679 0
M  V30 35920 H 3287.74 -2.19648 -3.29501 0
M  V30 35921 H 3288.91 -4.37577 -1.44442 0
M  V30 35922 H 3287.23 -3.9017 -1.45452 0
M  V30 35923 H 3289.83 -3.337 -4.1779 0
M  V30 35924 H 3290.17 -1.66309 -3.81637 0
M  V30 35925 H 3290.7 -2.93271 -2.6877 0
M  V30 35926 H 3287.44 -5.92832 -2.79697 0
M  V30 35927 H 3286.96 -4.58817 -3.86325 0
M  V30 35928 H 3288.64 -5.18247 -3.87336 0
M  V30 35929 N 3288.77 0.901258 -1.29287 0
M  V30 35930 C 3290 1.69037 -1.20172 0
M  V30 35931 C 3290.42 1.86633 0.234476 0
M  V30 35932 O 3289.78 1.38551 1.16933 0
M  V30 35933 C 3289.83 3.05325 -1.91857 0
M  V30 35934 O 3288.93 3.93488 -1.23455 0
M  V30 35935 H 3288.27 0.517134 -0.416495 0
M  V30 35936 H 3290.8 1.126 -1.70828 0
M  V30 35937 H 3290.81 3.55477 -2.00251 0
M  V30 35938 H 3289.49 2.91836 -2.96319 0
M  V30 35939 H 3288.07 3.51922 -1.23309 0
M  V30 35940 N 3290.25 1.11738 1.11141 0
M  V30 35941 C 3291.5 0.862907 1.8231 0
M  V30 35942 C 3291.81 -0.613294 1.85737 0
M  V30 35943 O 3293.02 -0.984124 2.53036 0
M  V30 35944 C 3291.47 1.49402 3.27425 0
M  V30 35945 C 3291.08 3.00448 3.32317 0
M  V30 35946 C 3292.83 1.31951 4.03471 0
M  V30 35947 C 3290.73 3.56529 4.71848 0
M  V30 35948 H 3289.66 0.319162 0.683119 0
M  V30 35949 H 3292.31 1.343 1.25043 0
M  V30 35950 H 3290.7 0.941595 3.84643 0
M  V30 35951 H 3291.87 3.62122 2.84964 0
M  V30 35952 H 3290.19 3.17211 2.69753 0
M  V30 35953 H 3292.78 1.7128 5.06525 0
M  V30 35954 H 3293.13 0.262412 4.15472 0
M  V30 35955 H 3293.66 1.84075 3.52649 0
M  V30 35956 H 3290.4 4.61966 4.65046 0
M  V30 35957 H 3289.92 2.99628 5.19599 0
M  V30 35958 H 3291.6 3.55154 5.40809 0
M  V30 35959 N 3291.73 -1.28802 0.90817 0
M  V30 35960 C 3293.14 -1.77273 0.585758 0
M  V30 35961 C 3293.49 -1.74401 -0.898811 0
M  V30 35962 O 3292.62 -1.33519 -1.70298 0
M  V30 35963 C 3293.21 -3.21905 1.05653 0
M  V30 35964 C 3291.77 -3.6812 0.785131 0
M  V30 35965 C 3290.92 -2.48705 1.22643 0
M  V30 35966 H 3293.87 -1.15345 1.09002 0
M  V30 35967 H 3293.89 -3.78439 0.395508 0
M  V30 35968 H 3293.4 -3.23963 2.13704 0
M  V30 35969 H 3291.5 -3.71528 -0.282411 0
M  V30 35970 H 3291.61 -4.58525 1.38896 0
M  V30 35971 H 3289.98 -2.46391 0.64526 0
M  V30 35972 H 3290.76 -2.53486 2.31517 0
M  V30 35973 N 3293.21 -0.67155 -1.42576 0
M  V30 35974 C 3294.17 -0.000432769 -2.292 0
M  V30 35975 C 3295.17 0.732268 -1.43159 0
M  V30 35976 O 3296.36 0.57076 -1.64584 0
M  V30 35977 C 3293.49 1.01007 -3.25592 0
M  V30 35978 H 3294.68 -0.762834 -2.90036 0
M  V30 35979 H 3292.24 -0.433729 -1.50162 0
M  V30 35980 H 3292.97 1.80107 -2.69688 0
M  V30 35981 H 3292.76 0.488115 -3.8905 0
M  V30 35982 H 3294.25 1.47817 -3.90563 0
M  V30 35983 N 3294.68 1.52047 -0.414663 0
M  V30 35984 C 3295.96 1.9438 0.218138 0
M  V30 35985 C 3296.34 1.35192 1.62131 0
M  V30 35986 O 3295.69 0.529916 2.2227 0
M  V30 35987 C 3295.9 3.48313 0.218871 0
M  V30 35988 C 3297.25 4.2236 0.43553 0
M  V30 35989 O 3298.27 3.54951 0.297986 0
M  V30 35990 O 3297.13 5.41906 0.707122 0
M  V30 35991 H 3294.22 0.81469 0.142159 0
M  V30 35992 H 3296.77 1.63033 -0.471006 0
M  V30 35993 H 3295.54 3.83789 -0.762988 0
M  V30 35994 H 3295.17 3.86038 0.951882 0
M  V30 35995 N 3296.16 0.145261 1.56929 0
M  V30 35996 C 3297.09 -0.791224 2.19686 0
M  V30 35997 C 3298.07 -1.25831 1.14457 0
M  V30 35998 O 3299.26 -1.31619 1.42794 0
M  V30 35999 C 3296.39 -2.03119 2.81709 0
M  V30 36000 C 3295.34 -1.70094 3.92749 0
M  V30 36001 C 3294.67 -3.0134 4.417 0
M  V30 36002 C 3295.97 -0.948935 5.13607 0
M  V30 36003 H 3297.66 -0.268197 2.98196 0
M  V30 36004 H 3295.21 -0.127558 1.43434 0
M  V30 36005 H 3297.16 -2.69113 3.24278 0
M  V30 36006 H 3295.89 -2.57791 2.00527 0
M  V30 36007 H 3294.54 -1.06479 3.50796 0
M  V30 36008 H 3294.19 -3.53999 3.57342 0
M  V30 36009 H 3293.89 -2.80006 5.16595 0
M  V30 36010 H 3295.42 -3.68407 4.86938 0
M  V30 36011 H 3296.83 -1.51092 5.53032 0
M  V30 36012 H 3295.23 -0.835607 5.94254 0
M  V30 36013 H 3296.3 0.0596483 4.84863 0
M  V30 36014 N 3297.64 -1.57075 -0.128525 0
M  V30 36015 C 3298.92 -1.75299 -0.867735 0
M  V30 36016 C 3299.3 -0.718211 -1.98507 0
M  V30 36017 O 3298.65 0.259576 -2.27021 0
M  V30 36018 C 3298.86 -3.19986 -1.3932 0
M  V30 36019 C 3300.2 -3.82211 -1.84932 0
M  V30 36020 O 3301.23 -3.23529 -1.49021 0
M  V30 36021 O 3300.09 -4.85336 -2.51219 0
M  V30 36022 H 3297.18 -0.717422 -0.411381 0
M  V30 36023 H 3299.73 -1.69323 -0.113008 0
M  V30 36024 H 3298.5 -3.8681 -0.591104 0
M  V30 36025 H 3298.12 -3.30461 -2.21091 0
M  V30 36026 N 3299.12 0.398432 -1.5248 0
M  V30 36027 C 3300.07 1.48612 -1.76587 0
M  V30 36028 C 3301.04 1.54545 -0.608704 0
M  V30 36029 O 3302.22 1.70949 -0.847413 0
M  V30 36030 C 3299.36 2.85947 -1.93206 0
M  V30 36031 C 3298.47 2.8924 -3.2088 0
M  V30 36032 C 3297.61 4.17941 -3.2787 0
M  V30 36033 C 3296.65 4.1525 -4.49704 0
M  V30 36034 N 3295.79 5.35541 -4.54027 0
M  V30 36035 H 3300.63 1.27357 -2.69414 0
M  V30 36036 H 3298.16 0.618008 -1.33488 0
M  V30 36037 H 3300.12 3.65684 -2.00825 0
M  V30 36038 H 3298.75 3.05673 -1.03749 0
M  V30 36039 H 3297.8 2.0193 -3.22379 0
M  V30 36040 H 3299.11 2.83118 -4.10665 0
M  V30 36041 H 3298.27 5.06077 -3.3462 0
M  V30 36042 H 3297.01 4.26773 -2.36043 0
M  V30 36043 H 3296.01 3.25503 -4.43089 0
M  V30 36044 H 3297.24 4.08049 -5.42838 0
M  V30 36045 H 3295.18 5.4502 -3.65088 0
M  V30 36046 H 3295.1 5.31457 -5.37671 0
M  V30 36047 H 3296.37 6.25601 -4.6502 0
M  V30 36048 N 3300.6 1.43284 0.656314 0
M  V30 36049 C 3301.83 1.48171 1.44406 0
M  V30 36050 C 3302.24 0.0986348 1.88542 0
M  V30 36051 O 3301.6 -0.890499 1.593 0
M  V30 36052 C 3301.65 2.42489 2.68107 0
M  V30 36053 O 3301.37 3.75417 2.25817 0
M  V30 36054 C 3302.87 2.56586 3.61495 0
M  V30 36055 H 3300.09 0.503341 0.443722 0
M  V30 36056 H 3302.63 1.87994 0.804884 0
M  V30 36057 H 3300.79 2.05869 3.28172 0
M  V30 36058 H 3301.2 4.26107 3.05832 0
M  V30 36059 H 3302.68 3.26663 4.44966 0
M  V30 36060 H 3303.15 1.60976 4.08636 0
M  V30 36061 H 3303.76 2.94004 3.07314 0
M  V30 36062 N 3302.08 -0.894389 1.29763 0
M  V30 36063 C 3303.32 -1.64004 1.17412 0
M  V30 36064 C 3303.64 -1.93695 -0.272321 0
M  V30 36065 O 3304.84 -2.66528 -0.517222 0
M  V30 36066 C 3303.3 -2.95542 2.05385 0
M  V30 36067 C 3302.91 -2.73426 3.54883 0
M  V30 36068 C 3304.65 -3.73482 2.01772 0
M  V30 36069 C 3302.56 -4.00723 4.34942 0
M  V30 36070 H 3301.49 -0.615271 0.435841 0
M  V30 36071 H 3304.14 -0.990956 1.54442 0
M  V30 36072 H 3302.52 -3.61692 1.61228 0
M  V30 36073 H 3303.7 -2.15836 4.07126 0
M  V30 36074 H 3302.01 -2.08876 3.60222 0
M  V30 36075 H 3304.61 -4.67872 2.58843 0
M  V30 36076 H 3304.95 -4.04137 0.998947 0
M  V30 36077 H 3305.48 -3.1418 2.43999 0
M  V30 36078 H 3302.22 -3.75232 5.37477 0
M  V30 36079 H 3301.74 -4.57853 3.87466 0
M  V30 36080 H 3303.42 -4.68825 4.45884 0
M  V30 36081 N 3303.55 -1.12326 -1.10547 0
M  V30 36082 C 3304.78 -0.900651 -1.86268 0
M  V30 36083 C 3305.2 0.550038 -1.8061 0
M  V30 36084 O 3304.55 1.38023 -1.19399 0
M  V30 36085 C 3304.6 -1.36561 -3.34714 0
M  V30 36086 O 3304.33 -2.75944 -3.40274 0
M  V30 36087 C 3305.83 -1.17977 -4.27313 0
M  V30 36088 H 3303.05 -0.321918 -0.588736 0
M  V30 36089 H 3305.59 -1.49293 -1.39756 0
M  V30 36090 H 3303.75 -0.816587 -3.78696 0
M  V30 36091 H 3304.16 -2.96319 -4.32776 0
M  V30 36092 H 3305.63 -1.554 -5.29674 0
M  V30 36093 H 3306.11 -0.120235 -4.39035 0
M  V30 36094 H 3306.72 -1.71624 -3.89134 0
M  V30 36095 N 3305.03 1.28319 -0.914988 0
M  V30 36096 C 3305.94 2.30999 -0.409464 0
M  V30 36097 C 3306.96 1.66556 0.503497 0
M  V30 36098 O 3308.13 1.976 0.389385 0
M  V30 36099 C 3305.2 3.45017 0.341169 0
M  V30 36100 C 3304.26 4.25013 -0.605161 0
M  V30 36101 C 3303.49 5.33587 0.109744 0
M  V30 36102 O 3303.72 5.54647 1.33127 0
M  V30 36103 O 3302.65 5.9933 -0.555579 0
M  V30 36104 H 3306.48 2.76251 -1.26172 0
M  V30 36105 H 3304.06 1.33035 -0.679855 0
M  V30 36106 H 3305.94 4.14397 0.765059 0
M  V30 36107 H 3304.62 3.01845 1.16923 0
M  V30 36108 H 3303.52 3.58217 -1.07848 0
M  V30 36109 H 3304.86 4.71867 -1.40008 0
M  V30 36110 N 3306.51 0.679102 1.42218 0
M  V30 36111 C 3307.44 0.0174939 2.33493 0
M  V30 36112 C 3308.42 -0.784744 1.50916 0
M  V30 36113 O 3309.61 -0.741034 1.79506 0
M  V30 36114 C 3306.74 -0.931404 3.34578 0
M  V30 36115 C 3305.69 -0.237452 4.27341 0
M  V30 36116 C 3305.02 -1.29958 5.18666 0
M  V30 36117 C 3306.32 0.886172 5.14727 0
M  V30 36118 H 3308.01 0.779798 2.89067 0
M  V30 36119 H 3305.56 0.376443 1.38992 0
M  V30 36120 H 3307.51 -1.40336 3.97346 0
M  V30 36121 H 3306.23 -1.72518 2.77318 0
M  V30 36122 H 3304.89 0.21431 3.65973 0
M  V30 36123 H 3304.54 -2.08546 4.57731 0
M  V30 36124 H 3304.24 -0.840361 5.8156 0
M  V30 36125 H 3305.76 -1.77238 5.84311 0
M  V30 36126 H 3307.18 0.495241 5.71157 0
M  V30 36127 H 3305.57 1.27146 5.86476 0
M  V30 36128 H 3306.64 1.73308 4.52871 0
M  V30 36129 N 3307.99 -1.51825 0.42272 0
M  V30 36130 C 3308.95 -2.25956 -0.384268 0
M  V30 36131 C 3309.95 -1.28837 -0.962161 0
M  V30 36132 O 3311.14 -1.5267 -0.838905 0
M  V30 36133 C 3308.27 -3.0402 -1.54222 0
M  V30 36134 H 3309.47 -2.98725 0.26521 0
M  V30 36135 H 3307.02 -1.55311 0.175542 0
M  V30 36136 H 3307.75 -2.35633 -2.22817 0
M  V30 36137 H 3307.54 -3.75338 -1.13418 0
M  V30 36138 H 3309.03 -3.60213 -2.11273 0
M  V30 36139 N 3309.47 -0.153581 -1.5685 0
M  V30 36140 C 3310.74 0.541295 -1.87961 0
M  V30 36141 C 3311.12 1.82521 -1.06062 0
M  V30 36142 O 3310.47 2.28011 -0.149335 0
M  V30 36143 C 3310.68 0.800382 -3.39698 0
M  V30 36144 C 3312.03 1.13825 -4.09059 0
M  V30 36145 O 3313.05 0.889517 -3.44915 0
M  V30 36146 O 3311.91 1.60664 -5.2235 0
M  V30 36147 H 3309.01 0.276881 -0.779273 0
M  V30 36148 H 3311.55 -0.190687 -1.68625 0
M  V30 36149 H 3310.32 -0.108004 -3.91151 0
M  V30 36150 H 3309.95 1.58631 -3.64585 0
M  V30 36151 N 3310.94 1.57141 0.120193 0
M  V30 36152 C 3312.19 1.85942 0.82444 0
M  V30 36153 C 3312.54 0.741183 1.77551 0
M  V30 36154 O 3311.84 -0.258905 1.89843 0
M  V30 36155 C 3312.03 3.18915 1.61332 0
M  V30 36156 C 3311.86 4.43567 0.740146 0
M  V30 36157 C 3310.63 5.0375 0.395442 0
M  V30 36158 C 3312.83 5.14267 0.0583149 0
M  V30 36159 N 3310.81 6.11953 -0.488522 0
M  V30 36160 C 3312.18 6.16208 -0.684699 0
M  V30 36161 C 3314.24 4.97897 -0.0182284 0
M  V30 36162 C 3312.94 7.03548 -1.49707 0
M  V30 36163 C 3314.97 5.85724 -0.817416 0
M  V30 36164 C 3314.33 6.87166 -1.54863 0
M  V30 36165 H 3310.43 0.730669 0.278651 0
M  V30 36166 H 3313.01 1.945 0.0882447 0
M  V30 36167 H 3311.18 3.11455 2.32056 0
M  V30 36168 H 3312.91 3.35528 2.26281 0
M  V30 36169 H 3309.67 4.67824 0.737409 0
M  V30 36170 H 3310.09 6.70688 -0.922318 0
M  V30 36171 H 3314.73 4.1943 0.532741 0
M  V30 36172 H 3312.45 7.81424 -2.0592 0
M  V30 36173 H 3316.04 5.75122 -0.878985 0
M  V30 36174 H 3314.92 7.53949 -2.15709 0
M  V30 36175 N 3312.42 -0.39034 1.5269 0
M  V30 36176 C 3313.35 -1.48322 1.80341 0
M  V30 36177 C 3314.33 -1.56968 0.655365 0
M  V30 36178 O 3315.52 -1.71938 0.902822 0
M  V30 36179 C 3312.65 -2.85948 1.97106 0
M  V30 36180 C 3311.6 -2.92143 3.12788 0
M  V30 36181 C 3310.93 -4.32205 3.14806 0
M  V30 36182 C 3312.23 -2.61911 4.51885 0
M  V30 36183 H 3313.92 -1.25432 2.71859 0
M  V30 36184 H 3311.47 -0.601972 1.30814 0
M  V30 36185 H 3313.42 -3.62407 2.15033 0
M  V30 36186 H 3312.15 -3.10173 1.02277 0
M  V30 36187 H 3310.8 -2.18132 2.94642 0
M  V30 36188 H 3310.45 -4.53467 2.17661 0
M  V30 36189 H 3310.15 -4.37271 3.92515 0
M  V30 36190 H 3311.68 -5.10572 3.34886 0
M  V30 36191 H 3313.09 -3.28088 4.7014 0
M  V30 36192 H 3311.49 -2.78328 5.31652 0
M  V30 36193 H 3312.56 -1.57258 4.58692 0
M  V30 36194 N 3313.9 -1.4363 -0.648706 0
M  V30 36195 C 3315.15 -1.45701 -1.41064 0
M  V30 36196 C 3315.48 -0.0826461 -1.94024 0
M  V30 36197 O 3314.75 0.897177 -1.72572 0
M  V30 36198 C 3315.04 -2.50308 -2.58878 0
M  V30 36199 C 3314.89 -3.97037 -2.1138 0
M  V30 36200 C 3316.21 -2.51603 -3.61087 0
M  V30 36201 H 3313.33 -0.530521 -0.511582 0
M  V30 36202 H 3315.97 -1.75206 -0.735038 0
M  V30 36203 H 3314.12 -2.2528 -3.16514 0
M  V30 36204 H 3315.79 -4.33138 -1.5871 0
M  V30 36205 H 3314.04 -4.09653 -1.42713 0
M  V30 36206 H 3314.71 -4.6585 -2.96121 0
M  V30 36207 H 3317.18 -2.73922 -3.13218 0
M  V30 36208 H 3316.06 -3.2673 -4.41066 0
M  V30 36209 H 3316.32 -1.55149 -4.13982 0
M  V30 36210 N 3315.38 0.887495 -1.30236 0
M  V30 36211 C 3316.31 2.00917 -1.18973 0
M  V30 36212 C 3317.29 1.69907 -0.0809818 0
M  V30 36213 O 3318.47 1.92417 -0.26258 0
M  V30 36214 C 3315.6 3.36015 -0.878153 0
M  V30 36215 C 3314.56 3.81275 -1.94456 0
M  V30 36216 C 3313.88 5.13635 -1.48603 0
M  V30 36217 C 3315.18 4.00275 -3.35526 0
M  V30 36218 H 3316.88 2.10598 -2.12812 0
M  V30 36219 H 3314.42 1.01187 -1.02456 0
M  V30 36220 H 3316.38 4.14004 -0.786027 0
M  V30 36221 H 3315.1 3.26459 0.0959205 0
M  V30 36222 H 3313.76 3.05512 -2.02628 0
M  V30 36223 H 3313.41 5.00506 -0.500292 0
M  V30 36224 H 3313.11 5.44889 -2.1993 0
M  V30 36225 H 3314.63 5.94153 -1.40764 0
M  V30 36226 H 3316.05 4.6871 -3.30127 0
M  V30 36227 H 3314.44 4.42901 -4.04918 0
M  V30 36228 H 3315.51 3.04211 -3.77602 0
M  V30 36229 N 3316.86 1.12911 1.0995 0
M  V30 36230 C 3318.11 0.882195 1.81384 0
M  V30 36231 C 3318.42 -0.593559 1.86377 0
M  V30 36232 O 3319.62 -0.957231 2.54066 0
M  V30 36233 C 3318.08 1.52867 3.25822 0
M  V30 36234 C 3317.69 3.03956 3.29112 0
M  V30 36235 C 3319.43 1.36223 4.02049 0
M  V30 36236 C 3317.34 3.61514 4.6804 0
M  V30 36237 H 3316.27 0.32639 0.679695 0
M  V30 36238 H 3318.92 1.35619 1.23612 0
M  V30 36239 H 3317.3 0.982339 3.83622 0
M  V30 36240 H 3318.48 3.65124 2.81107 0
M  V30 36241 H 3316.79 3.20054 2.66373 0
M  V30 36242 H 3319.39 1.76642 5.0468 0
M  V30 36243 H 3319.73 0.306464 4.1517 0
M  V30 36244 H 3320.26 1.87805 3.50676 0
M  V30 36245 H 3317 4.66873 4.6012 0
M  V30 36246 H 3316.52 3.05123 5.16392 0
M  V30 36247 H 3318.2 3.6087 5.37012 0
M  V30 36248 N 3318.33 -1.27832 0.92178 0
M  V30 36249 C 3319.61 -1.89676 0.477739 0
M  V30 36250 C 3319.99 -1.83483 -1.04389 0
M  V30 36251 O 3319.34 -1.27609 -1.89547 0
M  V30 36252 C 3319.55 -3.33849 1.01715 0
M  V30 36253 C 3320.9 -4.10791 1.07407 0
M  V30 36254 O 3321.92 -3.42841 0.966355 0
M  V30 36255 O 3320.78 -5.32265 1.23919 0
M  V30 36256 H 3317.87 -0.812776 0.152724 0
M  V30 36257 H 3320.42 -1.36142 1.01309 0
M  V30 36258 H 3319.19 -3.3262 2.06106 0
M  V30 36259 H 3318.82 -3.94894 0.463101 0
M  V30 36260 N 3319.81 -0.686634 -1.41856 0
M  V30 36261 C 3320.74 0.0233886 -2.29188 0
M  V30 36262 C 3321.76 0.753515 -1.44312 0
M  V30 36263 O 3322.95 0.605704 -1.67909 0
M  V30 36264 C 3320.05 1.05707 -3.21993 0
M  V30 36265 C 3319.22 0.398376 -4.35582 0
M  V30 36266 C 3318.28 1.33345 -5.09024 0
M  V30 36267 O 3317.3 0.829235 -5.63127 0
M  V30 36268 N 3318.51 2.66622 -5.15648 0
M  V30 36269 H 3321.27 -0.726346 -2.90765 0
M  V30 36270 H 3318.83 -0.531964 -1.52911 0
M  V30 36271 H 3320.82 1.68415 -3.67993 0
M  V30 36272 H 3319.39 1.70843 -2.61785 0
M  V30 36273 H 3318.61 -0.408427 -3.92078 0
M  V30 36274 H 3319.9 -0.0600134 -5.08765 0
M  V30 36275 H 3319.3 3.10114 -4.73123 0
M  V30 36276 H 3317.86 3.24548 -5.65254 0
M  V30 36277 N 3321.29 1.51599 -0.430766 0
M  V30 36278 C 3322.22 2.2413 0.429067 0
M  V30 36279 C 3323.2 1.25802 1.03017 0
M  V30 36280 O 3324.39 1.54918 1.0739 0
M  V30 36281 C 3321.51 2.98663 1.59744 0
M  V30 36282 C 3320.56 4.11595 1.11765 0
M  V30 36283 S 3321.39 5.3546 0.0650527 0
M  V30 36284 C 3322.55 6.13529 1.23825 0
M  V30 36285 H 3322.78 2.96713 -0.186735 0
M  V30 36286 H 3320.31 1.52893 -0.215228 0
M  V30 36287 H 3322.27 3.42205 2.26729 0
M  V30 36288 H 3320.93 2.25682 2.18464 0
M  V30 36289 H 3320.13 4.62999 1.99117 0
M  V30 36290 H 3319.73 3.70281 0.526144 0
M  V30 36291 H 3322.02 6.42217 2.15785 0
M  V30 36292 H 3322.96 7.03963 0.764306 0
M  V30 36293 H 3323.37 5.4492 1.47384 0
M  V30 36294 N 3322.77 0.161897 1.56766 0
M  V30 36295 C 3323.7 -0.767879 2.20513 0
M  V30 36296 C 3324.68 -1.2461 1.15785 0
M  V30 36297 O 3325.86 -1.30097 1.44182 0
M  V30 36298 C 3322.99 -2.0012 2.83847 0
M  V30 36299 C 3321.95 -1.65919 3.94531 0
M  V30 36300 C 3321.27 -2.96638 4.44871 0
M  V30 36301 C 3322.57 -0.894406 5.14585 0
M  V30 36302 H 3324.27 -0.236555 2.98464 0
M  V30 36303 H 3321.81 -0.112338 1.43561 0
M  V30 36304 H 3323.77 -2.65658 3.27114 0
M  V30 36305 H 3322.49 -2.5565 2.0325 0
M  V30 36306 H 3321.15 -1.02753 3.51905 0
M  V30 36307 H 3320.8 -3.50189 3.61077 0
M  V30 36308 H 3320.5 -2.74512 5.19536 0
M  V30 36309 H 3322.02 -3.63222 4.90818 0
M  V30 36310 H 3323.44 -1.45218 5.54603 0
M  V30 36311 H 3321.83 -0.772531 5.95107 0
M  V30 36312 H 3322.9 0.111071 4.84773 0
M  V30 36313 N 3324.25 -1.57203 -0.111858 0
M  V30 36314 C 3325.19 -2.0086 -1.13684 0
M  V30 36315 C 3326.16 -0.881963 -1.4075 0
M  V30 36316 O 3327.35 -1.14672 -1.52496 0
M  V30 36317 C 3324.49 -2.42397 -2.45637 0
M  V30 36318 C 3323.6 -3.68508 -2.25446 0
M  V30 36319 C 3322.74 -3.98996 -3.50679 0
M  V30 36320 C 3321.78 -5.18268 -3.25676 0
M  V30 36321 N 3320.91 -5.44591 -4.43131 0
M  V30 36322 H 3325.75 -2.8821 -0.75756 0
M  V30 36323 H 3323.29 -1.42562 -0.362557 0
M  V30 36324 H 3325.25 -2.6452 -3.22622 0
M  V30 36325 H 3323.88 -1.58079 -2.81444 0
M  V30 36326 H 3322.93 -3.5396 -1.39343 0
M  V30 36327 H 3324.24 -4.55645 -2.02952 0
M  V30 36328 H 3323.4 -4.21805 -4.36079 0
M  V30 36329 H 3322.13 -3.10349 -3.76211 0
M  V30 36330 H 3321.14 -4.95296 -2.38667 0
M  V30 36331 H 3322.36 -6.08498 -3.01507 0
M  V30 36332 H 3320.31 -4.58902 -4.6877 0
M  V30 36333 H 3320.23 -6.26065 -4.23767 0
M  V30 36334 H 3321.5 -5.71924 -5.29644 0
M  V30 36335 N 3325.72 0.382237 -1.52894 0
M  V30 36336 C 3326.95 1.15213 -1.72455 0
M  V30 36337 C 3327.37 1.82761 -0.444957 0
M  V30 36338 O 3326.73 1.71091 0.599795 0
M  V30 36339 C 3326.78 2.17074 -2.87943 0
M  V30 36340 O 3325.88 3.23806 -2.55388 0
M  V30 36341 H 3325.23 0.335089 -0.573246 0
M  V30 36342 H 3327.76 0.44446 -1.99714 0
M  V30 36343 H 3327.77 2.60957 -3.13632 0
M  V30 36344 H 3326.44 1.67298 -3.80768 0
M  V30 36345 H 3325.02 2.85013 -2.40462 0
M  V30 36346 N 3327.2 1.43972 0.64108 0
M  V30 36347 C 3328.15 1.50356 1.77471 0
M  V30 36348 C 3329.15 0.376081 1.65173 0
M  V30 36349 O 3330.35 0.550602 1.71372 0
M  V30 36350 H 3326.73 0.471608 0.585739 0
M  V30 36351 H 3328.7 2.45787 1.69208 0
M  V30 36352 C 3327.45 1.45538 3.15775 0
M  V30 36353 H 3326.77 2.31605 3.25882 0
M  V30 36354 H 3328.21 1.54065 3.95019 0
M  V30 36355 C 3326.67 0.174683 3.36447 0
M  V30 36356 O 3327.2 -0.759146 3.94461 0
M  V30 36357 N 3325.4 0.0809894 2.90487 0
M  V30 36358 H 3324.95 0.841734 2.4346 0
M  V30 36359 H 3324.91 -0.775177 3.04694 0
M  V30 36360 N 3328.68 -0.880575 1.30704 0
M  V30 36361 C 3329.93 -1.6275 1.19145 0
M  V30 36362 C 3330.24 -1.93973 -0.251761 0
M  V30 36363 O 3331.45 -2.67061 -0.488924 0
M  V30 36364 C 3329.91 -2.93347 2.08508 0
M  V30 36365 C 3329.51 -2.69647 3.57763 0
M  V30 36366 C 3331.26 -3.7132 2.05722 0
M  V30 36367 C 3329.16 -3.96088 4.39168 0
M  V30 36368 H 3328.09 -0.610614 0.442342 0
M  V30 36369 H 3330.75 -0.974519 1.55484 0
M  V30 36370 H 3329.13 -3.59962 1.65056 0
M  V30 36371 H 3330.3 -2.11506 4.09392 0
M  V30 36372 H 3328.62 -2.05043 3.62417 0
M  V30 36373 H 3331.21 -4.651 2.63791 0
M  V30 36374 H 3331.56 -4.03055 1.04176 0
M  V30 36375 H 3332.09 -3.11574 2.47318 0
M  V30 36376 H 3328.83 -3.6951 5.41427 0
M  V30 36377 H 3328.35 -4.53718 3.92301 0
M  V30 36378 H 3330.03 -4.64069 4.50831 0
M  V30 36379 N 3330.16 -1.13492 -1.09349 0
M  V30 36380 C 3331.41 -0.898484 -1.81811 0
M  V30 36381 C 3331.74 0.573926 -1.85526 0
M  V30 36382 O 3331.01 1.42475 -1.32405 0
M  V30 36383 C 3331.3 -1.488 -3.27918 0
M  V30 36384 C 3331.15 -3.02958 -3.32471 0
M  V30 36385 C 3332.47 -1.15685 -4.24623 0
M  V30 36386 H 3329.59 -0.327841 -0.660068 0
M  V30 36387 H 3332.23 -1.40333 -1.28088 0
M  V30 36388 H 3330.38 -1.05865 -3.73798 0
M  V30 36389 H 3332.05 -3.54654 -2.94988 0
M  V30 36390 H 3330.29 -3.37908 -2.72031 0
M  V30 36391 H 3330.97 -3.39306 -4.35403 0
M  V30 36392 H 3333.44 -1.52788 -3.87034 0
M  V30 36393 H 3332.32 -1.5958 -5.25191 0
M  V30 36394 H 3332.58 -0.070671 -4.42044 0
M  V30 36395 N 3331.64 1.27341 -0.928546 0
M  V30 36396 C 3332.87 1.98435 -0.585769 0
M  V30 36397 C 3333.28 1.69262 0.83641 0
M  V30 36398 O 3332.64 0.953653 1.55601 0
M  V30 36399 C 3332.69 3.52465 -0.803154 0
M  V30 36400 O 3332.41 3.80617 -2.16938 0
M  V30 36401 C 3333.91 4.4081 -0.469205 0
M  V30 36402 H 3331.13 0.633247 -0.221898 0
M  V30 36403 H 3333.67 1.62173 -1.2458 0
M  V30 36404 H 3331.83 3.86934 -0.189914 0
M  V30 36405 H 3332.24 4.75201 -2.22001 0
M  V30 36406 H 3333.72 5.47894 -0.672002 0
M  V30 36407 H 3334.19 4.35147 0.595288 0
M  V30 36408 H 3334.8 4.11863 -1.06062 0
M  V30 36409 N 3333.12 0.694147 1.4149 0
M  V30 36410 C 3334.36 0.224845 2.0155 0
M  V30 36411 C 3334.69 -1.17202 1.54846 0
M  V30 36412 O 3333.97 -1.79079 0.759022 0
M  V30 36413 C 3334.25 0.280947 3.59002 0
M  V30 36414 C 3334.11 1.71466 4.15836 0
M  V30 36415 C 3335.42 -0.360045 4.38625 0
M  V30 36416 H 3332.54 0.0831761 0.732291 0
M  V30 36417 H 3335.19 0.882598 1.68256 0
M  V30 36418 H 3333.34 -0.279096 3.87496 0
M  V30 36419 H 3335.01 2.32844 3.98223 0
M  V30 36420 H 3333.25 2.24926 3.70932 0
M  V30 36421 H 3333.92 1.70546 5.24994 0
M  V30 36422 H 3336.4 0.116903 4.15936 0
M  V30 36423 H 3335.27 -0.29024 5.48132 0
M  V30 36424 H 3335.53 -1.44054 4.17972 0
M  V30 36425 N 3334.59 -1.51368 0.438799 0
M  V30 36426 C 3335.84 -2.01701 -0.126926 0
M  V30 36427 C 3336.16 -1.32484 -1.43084 0
M  V30 36428 O 3335.43 -0.459856 -1.90426 0
M  V30 36429 H 3334.01 -0.745332 -0.0498961 0
M  V30 36430 H 3336.67 -1.86012 0.58184 0
M  V30 36431 H 3335.77 -3.10638 -0.301781 0
M  V30 36432 N 3336.07 -0.170208 -1.56678 0
M  V30 36433 C 3337.35 0.521328 -1.88525 0
M  V30 36434 C 3337.73 1.81386 -1.07992 0
M  V30 36435 O 3337.08 2.2784 -0.17351 0
M  V30 36436 C 3337.29 0.764307 -3.40528 0
M  V30 36437 C 3338.63 1.0948 -4.10243 0
M  V30 36438 O 3339.66 0.852884 -3.45839 0
M  V30 36439 O 3338.52 1.55115 -5.24025 0
M  V30 36440 H 3335.61 0.268601 -0.782165 0
M  V30 36441 H 3338.16 -0.208561 -1.68414 0
M  V30 36442 H 3336.93 -0.149484 -3.91014 0
M  V30 36443 H 3336.55 1.54755 -3.66247 0
M  V30 36444 N 3337.55 1.5726 0.10352 0
M  V30 36445 C 3338.8 1.85933 0.809742 0
M  V30 36446 C 3339.13 0.758153 1.78789 0
M  V30 36447 O 3338.4 -0.234648 1.93079 0
M  V30 36448 C 3338.69 3.25226 1.54596 0
M  V30 36449 C 3338.54 4.45962 0.586361 0
M  V30 36450 C 3339.86 3.623 2.49853 0
M  V30 36451 H 3336.98 0.67629 0.292918 0
M  V30 36452 H 3339.62 1.89857 0.0735732 0
M  V30 36453 H 3337.77 3.22011 2.1735 0
M  V30 36454 H 3339.44 4.61288 -0.0335252 0
M  V30 36455 H 3337.68 4.33683 -0.100926 0
M  V30 36456 H 3338.36 5.40133 1.13845 0
M  V30 36457 H 3340.83 3.66405 1.97196 0
M  V30 36458 H 3339.71 4.60713 2.98388 0
M  V30 36459 H 3339.97 2.90537 3.33228 0
M  V30 36460 N 3339.03 -0.374123 1.53095 0
M  V30 36461 C 3339.94 -1.48184 1.81875 0
M  V30 36462 C 3340.95 -1.59011 0.706515 0
M  V30 36463 O 3342.13 -1.75066 0.995679 0
M  V30 36464 C 3339.19 -2.83551 1.99499 0
M  V30 36465 C 3338.26 -2.82323 3.23407 0
M  V30 36466 C 3337.49 -4.11233 3.40181 0
M  V30 36467 O 3337.71 -5.0696 2.61434 0
M  V30 36468 O 3336.65 -4.17565 4.33501 0
M  V30 36469 H 3340.47 -1.2679 2.75967 0
M  V30 36470 H 3338.06 -0.563405 1.38369 0
M  V30 36471 H 3339.94 -3.63774 2.12712 0
M  V30 36472 H 3338.61 -3.0494 1.08597 0
M  V30 36473 H 3337.52 -2.00828 3.15624 0
M  V30 36474 H 3338.85 -2.65887 4.14204 0
M  V30 36475 N 3340.51 -1.4431 -0.633436 0
M  V30 36476 C 3341.42 -1.53485 -1.77425 0
M  V30 36477 C 3342.43 -0.420658 -1.68839 0
M  V30 36478 O 3343.61 -0.677671 -1.89656 0
M  V30 36479 C 3340.67 -1.47415 -3.13799 0
M  V30 36480 C 3339.73 -2.69666 -3.34034 0
M  V30 36481 C 3338.97 -2.63876 -4.63902 0
M  V30 36482 O 3339.19 -1.6975 -5.44556 0
M  V30 36483 O 3338.12 -3.54692 -4.86289 0
M  V30 36484 H 3341.95 -2.4986 -1.72638 0
M  V30 36485 H 3339.53 -1.26531 -0.794376 0
M  V30 36486 H 3341.42 -1.46544 -3.95098 0
M  V30 36487 H 3340.09 -0.541825 -3.19133 0
M  V30 36488 H 3339 -2.76105 -2.52422 0
M  V30 36489 H 3340.33 -3.61937 -3.3356 0
M  V30 36490 N 3341.98 0.873632 -1.3117 0
M  V30 36491 C 3343.23 1.62115 -1.20006 0
M  V30 36492 C 3343.55 1.94104 0.241471 0
M  V30 36493 O 3344.75 2.67317 0.474754 0
M  V30 36494 C 3343.21 2.92237 -2.1006 0
M  V30 36495 C 3342.82 2.67746 -3.59188 0
M  V30 36496 C 3344.56 3.70224 -2.07688 0
M  V30 36497 C 3342.47 3.93753 -4.41262 0
M  V30 36498 H 3341.4 0.608259 -0.445574 0
M  V30 36499 H 3344.05 0.96626 -1.55999 0
M  V30 36500 H 3342.43 3.59082 -1.66962 0
M  V30 36501 H 3343.6 2.09332 -4.10508 0
M  V30 36502 H 3341.92 2.03118 -3.635 0
M  V30 36503 H 3344.52 4.63695 -2.66254 0
M  V30 36504 H 3344.86 4.02497 -1.06312 0
M  V30 36505 H 3345.39 3.10259 -2.48967 0
M  V30 36506 H 3342.13 3.66633 -5.43379 0
M  V30 36507 H 3341.65 4.51631 -3.94701 0
M  V30 36508 H 3343.33 4.61672 -4.53286 0
M  V30 36509 N 3343.46 1.1407 1.08746 0
M  V30 36510 C 3344.41 0.820019 2.17666 0
M  V30 36511 C 3345.4 -0.200624 1.68208 0
M  V30 36512 O 3346.61 -0.0570698 1.7991 0
M  V30 36513 H 3342.99 0.24744 0.710125 0
M  V30 36514 H 3344.96 1.74663 2.41941 0
M  V30 36515 C 3343.71 0.310046 3.46315 0
M  V30 36516 H 3343.03 1.08676 3.84746 0
M  V30 36517 H 3344.47 0.124169 4.23818 0
M  V30 36518 C 3342.93 -0.965667 3.22764 0
M  V30 36519 O 3343.46 -2.04012 3.46038 0
M  V30 36520 N 3341.66 -0.899527 2.76327 0
M  V30 36521 H 3341.21 -0.0250145 2.57588 0
M  V30 36522 H 3341.17 -1.75367 2.60948 0
M  V30 36523 N 3344.94 -1.26847 0.935286 0
M  V30 36524 C 3345.89 -2.26588 0.438936 0
M  V30 36525 C 3346.86 -1.58451 -0.498239 0
M  V30 36526 O 3348.04 -1.86216 -0.415739 0
M  V30 36527 C 3345.18 -3.43835 -0.295232 0
M  V30 36528 C 3344.3 -4.26663 0.676932 0
M  V30 36529 C 3343.43 -5.31143 -0.0778416 0
M  V30 36530 C 3342.47 -6.05646 0.886531 0
M  V30 36531 N 3341.61 -7.01909 0.163894 0
M  V30 36532 H 3346.45 -2.68418 1.29444 0
M  V30 36533 H 3343.98 -1.31982 0.649547 0
M  V30 36534 H 3345.94 -4.10634 -0.737282 0
M  V30 36535 H 3344.57 -3.02935 -1.11492 0
M  V30 36536 H 3343.62 -3.59708 1.2375 0
M  V30 36537 H 3344.94 -4.78349 1.41364 0
M  V30 36538 H 3344.09 -6.03927 -0.579451 0
M  V30 36539 H 3342.83 -4.8028 -0.847466 0
M  V30 36540 H 3341.83 -5.31695 1.39932 0
M  V30 36541 H 3343.06 -6.58598 1.65606 0
M  V30 36542 H 3341 -6.53365 -0.587346 0
M  V30 36543 H 3340.92 -7.51318 0.840034 0
M  V30 36544 H 3342.19 -7.78856 -0.316814 0
M  V30 36545 N 3346.42 -0.701641 -1.4112 0
M  V30 36546 C 3347.65 -0.244402 -2.05451 0
M  V30 36547 C 3348.06 1.10864 -1.52822 0
M  V30 36548 O 3347.42 1.694 -0.67896 0
M  V30 36549 C 3347.47 -0.200175 -3.60945 0
M  V30 36550 O 3347.19 -1.49977 -4.11629 0
M  V30 36551 C 3348.69 0.277316 -4.42432 0
M  V30 36552 H 3345.91 -0.112464 -0.661508 0
M  V30 36553 H 3348.46 -0.955931 -1.80782 0
M  V30 36554 H 3346.61 0.462219 -3.84633 0
M  V30 36555 H 3347.02 -1.39093 -5.05721 0
M  V30 36556 H 3348.5 0.257128 -5.51401 0
M  V30 36557 H 3348.98 1.3172 -4.18983 0
M  V30 36558 H 3349.58 -0.354297 -4.23822 0
M  V30 36559 N 3347.9 1.51133 -0.446821 0
M  V30 36560 C 3349.14 2.02464 0.11663 0
M  V30 36561 C 3349.48 1.32978 1.4153 0
M  V30 36562 O 3348.75 0.447685 1.89278 0
M  V30 36563 C 3349.03 3.58625 0.325596 0
M  V30 36564 C 3348.89 4.38716 -0.992384 0
M  V30 36565 C 3350.21 4.26359 1.09113 0
M  V30 36566 H 3347.32 0.735864 0.0409133 0
M  V30 36567 H 3349.97 1.80683 -0.587672 0
M  V30 36568 H 3348.12 3.77315 0.925519 0
M  V30 36569 H 3349.79 4.31655 -1.62702 0
M  V30 36570 H 3348.03 4.03422 -1.59477 0
M  V30 36571 H 3348.7 5.46171 -0.800101 0
M  V30 36572 H 3351.18 4.11997 0.582871 0
M  V30 36573 H 3350.05 5.35485 1.20612 0
M  V30 36574 H 3350.32 3.87864 2.12164 0
M  V30 36575 N 3349.37 0.178515 1.56586 0
M  V30 36576 C 3350.6 -0.473806 2.01915 0
M  V30 36577 C 3351.02 -1.55531 1.05791 0
M  V30 36578 O 3350.38 -1.81259 0.0386337 0
M  V30 36579 C 3350.43 -1.02245 3.45801 0
M  V30 36580 O 3349.53 -2.13614 3.52764 0
M  V30 36581 H 3348.88 -0.112655 0.654374 0
M  V30 36582 H 3351.41 0.284522 2.02612 0
M  V30 36583 H 3351.42 -1.34325 3.85254 0
M  V30 36584 H 3350.09 -0.230646 4.1526 0
M  V30 36585 H 3348.67 -1.82525 3.25176 0
M  V30 36586 N 3350.85 -1.57312 -0.0951784 0
M  V30 36587 C 3352.27 -1.53143 -0.449385 0
M  V30 36588 C 3352.47 -0.895218 -1.80522 0
M  V30 36589 O 3351.52 -0.487693 -2.47745 0
M  V30 36590 C 3352.84 -2.97865 -0.41195 0
M  V30 36591 C 3354.39 -3.0908 -0.493811 0
M  V30 36592 C 3354.86 -4.55409 -0.486526 0
M  V30 36593 N 3356.35 -4.59955 -0.547282 0
M  V30 36594 C 3357.09 -5.70625 -0.563482 0
M  V30 36595 N 3356.58 -6.90724 -0.535893 0
M  V30 36596 N 3358.38 -5.58799 -0.608287 0
M  V30 36597 H 3350.53 -1.97045 0.792903 0
M  V30 36598 H 3352.79 -0.900892 0.295122 0
M  V30 36599 H 3352.5 -3.47877 0.517125 0
M  V30 36600 H 3352.37 -3.56549 -1.23095 0
M  V30 36601 H 3354.76 -2.59055 -1.41331 0
M  V30 36602 H 3354.84 -2.53348 0.353331 0
M  V30 36603 H 3354.48 -5.06085 0.429024 0
M  V30 36604 H 3354.41 -5.08978 -1.35088 0
M  V30 36605 H 3356.9 -3.73518 -0.573802 0
M  V30 36606 H 3357.22 -7.70829 -0.551535 0
M  V30 36607 H 3355.56 -6.93178 -0.502942 0
M  V30 36608 H 3358.75 -4.63877 -0.627369 0
M  V30 36609 H 3358.92 -6.45052 -0.617443 0
M  V30 36610 N 3352.33 0.365999 -1.53291 0
M  V30 36611 C 3353.26 1.47076 -1.74482 0
M  V30 36612 C 3354.24 1.51394 -0.593173 0
M  V30 36613 O 3355.43 1.69453 -0.825716 0
M  V30 36614 C 3352.55 2.8544 -1.82324 0
M  V30 36615 C 3351.6 2.98847 -3.04291 0
M  V30 36616 S 3352.43 2.67645 -4.63817 0
M  V30 36617 C 3353.59 4.0816 -4.74507 0
M  V30 36618 H 3353.82 1.28879 -2.67913 0
M  V30 36619 H 3351.35 0.56031 -1.43875 0
M  V30 36620 H 3353.31 3.65163 -1.87527 0
M  V30 36621 H 3351.97 3.00946 -0.899451 0
M  V30 36622 H 3351.17 4.0018 -3.06386 0
M  V30 36623 H 3350.77 2.27046 -2.97197 0
M  V30 36624 H 3353.06 5.02398 -4.54536 0
M  V30 36625 H 3354 4.11069 -5.76565 0
M  V30 36626 H 3354.41 3.9514 -4.03143 0
M  V30 36627 N 3353.81 1.44644 0.625774 0
M  V30 36628 C 3354.76 1.51922 1.73748 0
M  V30 36629 C 3355.73 0.366498 1.62006 0
M  V30 36630 O 3356.91 0.577471 1.81851 0
M  V30 36631 C 3354.05 1.47454 3.12012 0
M  V30 36632 C 3353.16 2.73141 3.34691 0
M  V30 36633 C 3352.3 2.60469 4.62957 0
M  V30 36634 C 3351.34 3.81294 4.78833 0
M  V30 36635 N 3350.47 3.67266 5.98381 0
M  V30 36636 H 3355.31 2.46902 1.66863 0
M  V30 36637 H 3352.85 1.22532 0.813899 0
M  V30 36638 H 3354.81 1.42853 3.91981 0
M  V30 36639 H 3353.44 0.560368 3.17899 0
M  V30 36640 H 3352.49 2.87906 2.48625 0
M  V30 36641 H 3353.8 3.62812 3.423 0
M  V30 36642 H 3352.96 2.53731 5.51095 0
M  V30 36643 H 3351.7 1.68367 4.57716 0
M  V30 36644 H 3350.7 3.8841 3.89124 0
M  V30 36645 H 3351.93 4.74439 4.85885 0
M  V30 36646 H 3349.87 2.7792 5.94219 0
M  V30 36647 H 3349.79 4.50557 6.0707 0
M  V30 36648 H 3351.06 3.6443 6.89066 0
M  V30 36649 N 3355.29 -0.866663 1.31631 0
M  V30 36650 C 3356.54 -1.61477 1.20864 0
M  V30 36651 C 3356.85 -1.94229 -0.231174 0
M  V30 36652 O 3358.05 -2.67565 -0.460571 0
M  V30 36653 C 3356.51 -2.91119 2.11607 0
M  V30 36654 C 3356.12 -2.65837 3.60603 0
M  V30 36655 C 3357.86 -3.69118 2.09648 0
M  V30 36656 C 3355.77 -3.91408 4.43344 0
M  V30 36657 H 3354.7 -0.605888 0.448794 0
M  V30 36658 H 3357.35 -0.957973 1.56509 0
M  V30 36659 H 3355.73 -3.58191 1.68864 0
M  V30 36660 H 3356.91 -2.07152 4.11612 0
M  V30 36661 H 3355.22 -2.01188 3.64572 0
M  V30 36662 H 3357.82 -4.62276 2.68709 0
M  V30 36663 H 3358.16 -4.01927 1.08445 0
M  V30 36664 H 3358.69 -3.08934 2.50609 0
M  V30 36665 H 3355.43 -3.63746 5.45315 0
M  V30 36666 H 3354.95 -4.49532 3.97091 0
M  V30 36667 H 3356.63 -4.59262 4.55728 0
M  V30 36668 N 3356.77 -1.14645 -1.0814 0
M  V30 36669 C 3357.99 -0.939958 -1.84316 0
M  V30 36670 C 3358.41 0.511604 -1.81736 0
M  V30 36671 O 3357.77 1.35459 -1.22299 0
M  V30 36672 C 3357.82 -1.4363 -3.31742 0
M  V30 36673 O 3357.54 -2.831 -3.34345 0
M  V30 36674 C 3359.04 -1.27014 -4.24714 0
M  V30 36675 H 3356.26 -0.334333 -0.581775 0
M  V30 36676 H 3358.8 -1.52224 -1.36558 0
M  V30 36677 H 3356.96 -0.89673 -3.76879 0
M  V30 36678 H 3357.37 -3.05432 -4.26393 0
M  V30 36679 H 3358.85 -1.666 -5.26259 0
M  V30 36680 H 3359.32 -0.213334 -4.38682 0
M  V30 36681 H 3359.93 -1.7984 -3.85406 0
M  V30 36682 N 3358.24 1.26349 -0.942 0
M  V30 36683 C 3359.19 2.26352 -0.450946 0
M  V30 36684 C 3360.16 1.58713 0.489829 0
M  V30 36685 O 3361.35 1.86433 0.405857 0
M  V30 36686 C 3358.49 3.43987 0.276994 0
M  V30 36687 C 3357.6 4.26298 -0.699549 0
M  V30 36688 C 3356.73 5.31177 0.0496727 0
M  V30 36689 C 3355.77 6.05167 -0.918638 0
M  V30 36690 N 3354.91 7.01812 -0.201116 0
M  V30 36691 H 3359.75 2.67728 -1.30866 0
M  V30 36692 H 3357.29 1.31636 -0.656537 0
M  V30 36693 H 3359.24 4.11019 0.715494 0
M  V30 36694 H 3357.87 3.03522 1.09884 0
M  V30 36695 H 3356.93 3.59047 -1.25656 0
M  V30 36696 H 3358.24 4.77593 -1.43899 0
M  V30 36697 H 3357.39 6.04225 0.547415 0
M  V30 36698 H 3356.13 4.80723 0.821983 0
M  V30 36699 H 3355.14 5.30945 -1.4275 0
M  V30 36700 H 3356.36 6.57711 -1.69097 0
M  V30 36701 H 3354.31 6.53668 0.552688 0
M  V30 36702 H 3354.22 7.50862 -0.879867 0
M  V30 36703 H 3355.49 7.79013 0.275505 0
M  V30 36704 N 3359.72 0.709115 1.40746 0
M  V30 36705 C 3360.68 0.0612009 2.29118 0
M  V30 36706 C 3361.68 -0.694055 1.4505 0
M  V30 36707 O 3362.87 -0.526922 1.6604 0
M  V30 36708 C 3360.01 -0.92339 3.28156 0
M  V30 36709 H 3361.2 0.839464 2.87911 0
M  V30 36710 H 3358.75 0.47339 1.48959 0
M  V30 36711 H 3359.49 -1.72894 2.74369 0
M  V30 36712 H 3359.27 -0.384794 3.90207 0
M  V30 36713 H 3360.76 -1.3741 3.94345 0
M  V30 36714 N 3361.2 -1.50894 0.454829 0
M  V30 36715 C 3362.48 -1.9489 -0.166525 0
M  V30 36716 C 3362.86 -1.39443 -1.58489 0
M  V30 36717 O 3362.2 -0.588661 -2.20787 0
M  V30 36718 C 3362.41 -3.48771 -0.126445 0
M  V30 36719 C 3363.76 -4.23367 -0.323395 0
M  V30 36720 O 3364.79 -3.55617 -0.203772 0
M  V30 36721 O 3363.65 -5.4359 -0.563197 0
M  V30 36722 H 3360.74 -0.818173 -0.120509 0
M  V30 36723 H 3363.29 -1.61726 0.514066 0
M  V30 36724 H 3362.06 -3.81631 0.864474 0
M  V30 36725 H 3361.68 -3.88426 -0.849196 0
M  V30 36726 N 3362.68 -0.186817 -1.56489 0
M  V30 36727 C 3363.61 0.7327 -2.21706 0
M  V30 36728 C 3364.59 1.22753 -1.17753 0
M  V30 36729 O 3365.77 1.27787 -1.46233 0
M  V30 36730 C 3362.9 1.95579 -2.86995 0
M  V30 36731 C 3361.86 1.59621 -3.97121 0
M  V30 36732 C 3361.18 2.89523 -4.49534 0
M  V30 36733 C 3362.48 0.812427 -5.15943 0
M  V30 36734 H 3364.18 0.189042 -2.98803 0
M  V30 36735 H 3361.72 0.0894847 -1.43722 0
M  V30 36736 H 3363.68 2.60421 -3.31299 0
M  V30 36737 H 3362.4 2.52384 -2.07291 0
M  V30 36738 H 3361.06 0.971413 -3.53496 0
M  V30 36739 H 3360.71 3.44401 -3.66602 0
M  V30 36740 H 3360.41 2.66211 -5.23837 0
M  V30 36741 H 3361.93 3.55367 -4.96534 0
M  V30 36742 H 3363.35 1.36376 -5.56843 0
M  V30 36743 H 3361.74 0.677757 -5.9626 0
M  V30 36744 H 3362.81 -0.18818 -4.84535 0
M  V30 36745 N 3364.16 1.57361 0.0868344 0
M  V30 36746 C 3365.07 2.05979 1.12293 0
M  V30 36747 C 3366.08 0.986309 1.43346 0
M  V30 36748 O 3367.26 1.30003 1.53822 0
M  V30 36749 C 3364.32 2.48144 2.42127 0
M  V30 36750 C 3363.38 3.69723 2.18182 0
M  V30 36751 C 3362.62 4.09867 3.41825 0
M  V30 36752 O 3362.84 3.50024 4.50377 0
M  V30 36753 O 3361.77 5.02765 3.30925 0
M  V30 36754 H 3365.6 2.94548 0.73996 0
M  V30 36755 H 3363.18 1.46359 0.299924 0
M  V30 36756 H 3365.07 2.75854 3.18563 0
M  V30 36757 H 3363.74 1.6271 2.79834 0
M  V30 36758 H 3362.65 3.47118 1.395 0
M  V30 36759 H 3363.98 4.55962 1.85364 0
M  V30 36760 N 3365.63 -0.357865 1.53483 0
M  V30 36761 C 3366.57 -1.45907 1.76759 0
M  V30 36762 C 3367.58 -1.49325 0.648528 0
M  V30 36763 O 3368.77 -1.52665 0.924959 0
M  V30 36764 C 3365.87 -2.84637 1.83943 0
M  V30 36765 C 3365.04 -3.04825 3.13688 0
M  V30 36766 C 3364.1 -4.23714 3.12014 0
M  V30 36767 O 3363.13 -4.18517 3.85787 0
M  V30 36768 N 3364.33 -5.31523 2.33375 0
M  V30 36769 H 3367.09 -1.26316 2.7178 0
M  V30 36770 H 3364.65 -0.547646 1.52356 0
M  V30 36771 H 3366.65 -3.62322 1.80292 0
M  V30 36772 H 3365.22 -2.97438 0.961727 0
M  V30 36773 H 3364.44 -2.14733 3.3058 0
M  V30 36774 H 3365.72 -3.15187 3.99418 0
M  V30 36775 H 3365.12 -5.3861 1.72963 0
M  V30 36776 H 3363.68 -6.07755 2.35535 0
M  V30 36777 N 3367.11 -1.44974 -0.618094 0
M  V30 36778 C 3368.53 -1.29148 -0.937711 0
M  V30 36779 C 3368.73 -0.236785 -2.00104 0
M  V30 36780 O 3367.78 0.372879 -2.49732 0
M  V30 36781 C 3369.1 -2.66718 -1.38861 0
M  V30 36782 C 3370.64 -2.74531 -1.50338 0
M  V30 36783 C 3371.12 -4.12601 -1.98807 0
M  V30 36784 N 3372.61 -4.14843 -2.06057 0
M  V30 36785 C 3373.35 -5.18537 -2.44759 0
M  V30 36786 N 3372.84 -6.32584 -2.82505 0
M  V30 36787 N 3374.63 -5.05893 -2.45007 0
M  V30 36788 H 3366.79 -2.1223 0.0849093 0
M  V30 36789 H 3369.05 -0.947679 -0.0246577 0
M  V30 36790 H 3368.75 -3.45034 -0.681522 0
M  V30 36791 H 3368.63 -2.9448 -2.35715 0
M  V30 36792 H 3371.02 -1.96525 -2.2014 0
M  V30 36793 H 3371.1 -2.50495 -0.518253 0
M  V30 36794 H 3370.74 -4.91088 -1.29596 0
M  V30 36795 H 3370.67 -4.34022 -2.98215 0
M  V30 36796 H 3373.16 -3.32538 -1.79519 0
M  V30 36797 H 3373.47 -7.07509 -3.10887 0
M  V30 36798 H 3371.82 -6.36002 -2.80225 0
M  V30 36799 H 3375.01 -4.15846 -2.14918 0
M  V30 36800 H 3375.18 -5.86826 -2.74843 0
M  V30 36801 N 3368.59 0.85967 -1.32089 0
M  V30 36802 C 3369.54 1.95576 -1.17192 0
M  V30 36803 C 3370.52 1.607 -0.0801585 0
M  V30 36804 O 3371.72 1.74332 -0.306148 0
M  V30 36805 C 3368.84 3.3151 -0.891974 0
M  V30 36806 C 3367.93 3.72621 -2.0252 0
M  V30 36807 N 3368.32 3.85603 -3.27328 0
M  V30 36808 C 3366.62 4.02211 -1.92724 0
M  V30 36809 C 3367.32 4.20899 -4.01521 0
M  V30 36810 N 3366.3 4.32145 -3.29775 0
M  V30 36811 H 3370.1 2.03739 -2.11819 0
M  V30 36812 H 3367.61 1.05112 -1.23795 0
M  V30 36813 H 3369.61 4.09798 -0.766215 0
M  V30 36814 H 3368.27 3.24667 0.0459778 0
M  V30 36815 H 3369.28 3.70057 -3.62324 0
M  V30 36816 H 3365.96 4.03699 -1.06459 0
M  V30 36817 H 3367.35 4.38454 -5.09124 0
M  V30 36818 N 3370.07 1.15217 1.0753 0
M  V30 36819 C 3371.48 0.935596 1.61566 0
M  V30 36820 C 3371.83 -0.523524 1.89086 0
M  V30 36821 O 3370.95 -1.39426 1.65497 0
M  V30 36822 C 3371.55 1.69194 2.93528 0
M  V30 36823 C 3370.11 1.52069 3.44314 0
M  V30 36824 C 3369.26 1.70869 2.18401 0
M  V30 36825 H 3372.21 1.30269 0.906408 0
M  V30 36826 H 3372.23 1.16037 3.62375 0
M  V30 36827 H 3371.74 2.75386 2.73467 0
M  V30 36828 H 3369.84 0.482632 3.69461 0
M  V30 36829 H 3369.95 2.29649 4.20474 0
M  V30 36830 H 3368.32 1.13506 2.2801 0
M  V30 36831 H 3369.1 2.78424 2.00836 0
M  V30 36832 N 3371.55 -1.25848 0.948687 0
M  V30 36833 C 3372.48 -2.25291 0.421498 0
M  V30 36834 C 3373.49 -1.56185 -0.459361 0
M  V30 36835 O 3374.68 -1.76468 -0.268596 0
M  V30 36836 C 3371.78 -3.36379 -0.412594 0
M  V30 36837 C 3370.95 -4.35039 0.453868 0
M  V30 36838 C 3370.01 -5.2522 -0.321035 0
M  V30 36839 O 3369.04 -5.68518 0.278524 0
M  V30 36840 N 3370.24 -5.57563 -1.61567 0
M  V30 36841 H 3373.01 -2.7116 1.27641 0
M  V30 36842 H 3370.57 -1.39692 0.818392 0
M  V30 36843 H 3372.56 -3.93666 -0.938568 0
M  V30 36844 H 3371.13 -2.89946 -1.16834 0
M  V30 36845 H 3370.35 -3.76716 1.16099 0
M  V30 36846 H 3371.64 -4.97943 1.04547 0
M  V30 36847 H 3371.03 -5.2428 -2.12479 0
M  V30 36848 H 3369.59 -6.1746 -2.08773 0
M  V30 36849 N 3373.02 -0.716569 -1.40368 0
M  V30 36850 C 3373.95 -0.0793944 -2.33365 0
M  V30 36851 C 3374.94 0.744455 -1.52944 0
M  V30 36852 O 3376.12 0.69318 -1.81407 0
M  V30 36853 C 3373.25 0.84237 -3.36929 0
M  V30 36854 C 3372.2 0.124067 -4.2782 0
M  V30 36855 C 3371.53 1.16161 -5.2193 0
M  V30 36856 C 3372.83 -1.02233 -5.12197 0
M  V30 36857 H 3374.52 -0.856165 -2.86897 0
M  V30 36858 H 3372.07 -0.413162 -1.37946 0
M  V30 36859 H 3374.02 1.29752 -4.00927 0
M  V30 36860 H 3372.75 1.65105 -2.81794 0
M  V30 36861 H 3371.41 -0.311266 -3.65276 0
M  V30 36862 H 3371.05 1.96337 -4.63099 0
M  V30 36863 H 3370.75 0.685875 -5.83583 0
M  V30 36864 H 3372.28 1.61684 -5.88804 0
M  V30 36865 H 3373.69 -0.646499 -5.69643 0
M  V30 36866 H 3372.09 -1.4265 -5.82899 0
M  V30 36867 H 3373.16 -1.85254 -4.48117 0
M  V30 36868 N 3374.5 1.50651 -0.462825 0
M  V30 36869 C 3375.78 1.94975 0.156187 0
M  V30 36870 C 3376.16 1.40282 1.57747 0
M  V30 36871 O 3375.51 0.600361 2.20472 0
M  V30 36872 C 3375.72 3.48833 0.107947 0
M  V30 36873 C 3377.07 4.23532 0.300939 0
M  V30 36874 O 3378.09 3.5572 0.18491 0
M  V30 36875 O 3376.95 5.43881 0.534361 0
M  V30 36876 H 3374.04 0.8188 0.116168 0
M  V30 36877 H 3376.59 1.61452 -0.522635 0
M  V30 36878 H 3375.36 3.81168 -0.884701 0
M  V30 36879 H 3374.98 3.8887 0.828585 0
M  V30 36880 N 3375.98 0.195113 1.56388 0
M  V30 36881 C 3377.21 -0.448602 2.01671 0
M  V30 36882 C 3377.62 -1.55734 1.07441 0
M  V30 36883 O 3376.96 -1.83561 0.0714732 0
M  V30 36884 C 3377.02 -1.06541 3.4335 0
M  V30 36885 C 3376.69 -0.0954097 4.569 0
M  V30 36886 C 3377.68 0.695207 5.15231 0
M  V30 36887 C 3375.37 0.0156772 5.02298 0
M  V30 36888 C 3377.36 1.58388 6.17408 0
M  V30 36889 C 3375.05 0.907905 6.04318 0
M  V30 36890 C 3376.05 1.69057 6.61747 0
M  V30 36891 O 3375.74 2.56785 7.61785 0
M  V30 36892 H 3375.47 -0.116951 0.665807 0
M  V30 36893 H 3378.02 0.301098 2.03181 0
M  V30 36894 H 3376.25 -1.8637 3.38826 0
M  V30 36895 H 3377.94 -1.61378 3.7244 0
M  V30 36896 H 3378.71 0.619689 4.81025 0
M  V30 36897 H 3374.59 -0.583344 4.57294 0
M  V30 36898 H 3378.13 2.19522 6.6216 0
M  V30 36899 H 3374.03 0.984539 6.37948 0
M  V30 36900 H 3374.8 2.50564 7.79205 0
M  V30 36901 N 3377.46 -1.57404 -0.0784879 0
M  V30 36902 C 3378.7 -1.87198 -0.780059 0
M  V30 36903 C 3379.04 -0.786501 -1.77561 0
M  V30 36904 O 3378.31 0.203901 -1.93428 0
M  V30 36905 C 3378.6 -3.27645 -1.49402 0
M  V30 36906 C 3378.45 -4.46838 -0.515338 0
M  V30 36907 C 3379.77 -3.66229 -2.44058 0
M  V30 36908 H 3376.89 -0.680864 -0.282122 0
M  V30 36909 H 3379.53 -1.89951 -0.0433592 0
M  V30 36910 H 3377.68 -3.25429 -2.12199 0
M  V30 36911 H 3379.35 -4.61176 0.106908 0
M  V30 36912 H 3377.59 -4.33467 0.169908 0
M  V30 36913 H 3378.26 -5.41875 -1.05238 0
M  V30 36914 H 3380.74 -3.69496 -1.91342 0
M  V30 36915 H 3379.62 -4.65401 -2.9102 0
M  V30 36916 H 3379.88 -2.95801 -3.28563 0
M  V30 36917 N 3378.94 0.34972 -1.53671 0
M  V30 36918 C 3380.18 1.09065 -1.7062 0
M  V30 36919 C 3380.51 1.88831 -0.466166 0
M  V30 36920 O 3379.77 1.87752 0.552046 0
M  V30 36921 C 3380.07 2.06429 -2.91757 0
M  V30 36922 C 3379.73 1.43022 -4.27616 0
M  V30 36923 C 3378.39 1.25458 -4.64558 0
M  V30 36924 C 3380.75 0.972897 -5.12039 0
M  V30 36925 C 3378.07 0.607705 -5.83544 0
M  V30 36926 C 3380.43 0.339962 -6.31686 0
M  V30 36927 C 3379.09 0.151952 -6.67327 0
M  V30 36928 H 3378.36 0.399097 -0.624341 0
M  V30 36929 H 3381.01 0.370624 -1.87879 0
M  V30 36930 H 3379.31 2.84791 -2.69075 0
M  V30 36931 H 3381.01 2.63739 -3.02064 0
M  V30 36932 H 3377.6 1.57689 -3.98538 0
M  V30 36933 H 3381.78 1.09647 -4.84036 0
M  V30 36934 H 3377.04 0.450598 -6.09737 0
M  V30 36935 H 3381.21 -0.0225197 -6.96396 0
M  V30 36936 H 3378.84 -0.351344 -7.59388 0
M  V30 36937 N 3380.41 1.45299 0.610397 0
M  V30 36938 C 3381.64 1.5269 1.39619 0
M  V30 36939 C 3382.06 0.158568 1.88133 0
M  V30 36940 O 3381.41 -0.839368 1.62052 0
M  V30 36941 C 3381.47 2.50896 2.60257 0
M  V30 36942 O 3381.19 3.82411 2.1376 0
M  V30 36943 C 3382.69 2.67957 3.53149 0
M  V30 36944 H 3379.91 0.517203 0.427484 0
M  V30 36945 H 3382.45 1.9046 0.744668 0
M  V30 36946 H 3380.61 2.16205 3.21456 0
M  V30 36947 H 3381.02 4.35621 2.92121 0
M  V30 36948 H 3382.49 3.40654 4.34349 0
M  V30 36949 H 3382.97 1.73895 4.03308 0
M  V30 36950 H 3383.58 3.03632 2.97805 0
M  V30 36951 N 3381.89 -0.852653 1.32543 0
M  V30 36952 C 3382.82 -1.97692 1.24258 0
M  V30 36953 C 3383.8 -1.69633 0.126001 0
M  V30 36954 O 3384.99 -1.91653 0.313503 0
M  V30 36955 C 3382.12 -3.33568 0.966933 0
M  V30 36956 C 3381.07 -3.75986 2.04496 0
M  V30 36957 C 3380.4 -5.09515 1.62169 0
M  V30 36958 C 3381.7 -3.91238 3.4602 0
M  V30 36959 H 3383.39 -2.04882 2.18321 0
M  V30 36960 H 3380.94 -0.984352 1.05102 0
M  V30 36961 H 3382.89 -4.11775 0.895516 0
M  V30 36962 H 3381.62 -3.26599 -0.00933189 0
M  V30 36963 H 3380.27 -3.00032 2.10657 0
M  V30 36964 H 3379.92 -4.99003 0.632816 0
M  V30 36965 H 3379.62 -5.38867 2.343 0
M  V30 36966 H 3381.15 -5.90212 1.56467 0
M  V30 36967 H 3382.56 -4.59793 3.42438 0
M  V30 36968 H 3380.96 -4.3201 4.16518 0
M  V30 36969 H 3382.03 -2.94093 3.85535 0
M  V30 36970 N 3383.37 -1.15786 -1.06918 0
M  V30 36971 C 3384.33 -0.861204 -2.12405 0
M  V30 36972 C 3385.33 0.141003 -1.60181 0
M  V30 36973 O 3386.52 -0.0891498 -1.73972 0
M  V30 36974 C 3383.66 -0.286695 -3.39692 0
M  V30 36975 H 3384.85 -1.79627 -2.40154 0
M  V30 36976 H 3382.4 -0.965937 -1.22879 0
M  V30 36977 H 3383.14 0.656361 -3.17588 0
M  V30 36978 H 3382.92 -1.00877 -3.78901 0
M  V30 36979 H 3384.41 -0.0968705 -4.17488 0
M  V30 36980 N 3384.85 1.25343 -0.955348 0
M  V30 36981 C 3385.78 2.25064 -0.433439 0
M  V30 36982 C 3386.79 1.56426 0.451072 0
M  V30 36983 O 3387.98 1.76608 0.259234 0
M  V30 36984 C 3385.08 3.36593 0.394749 0
M  V30 36985 C 3384.26 4.34792 -0.476933 0
M  V30 36986 C 3383.31 5.25383 0.293176 0
M  V30 36987 O 3382.34 5.68362 -0.30867 0
M  V30 36988 N 3383.54 5.58412 1.58607 0
M  V30 36989 H 3386.31 2.70479 -1.29077 0
M  V30 36990 H 3383.87 1.39256 -0.825788 0
M  V30 36991 H 3385.86 3.94158 0.917678 0
M  V30 36992 H 3384.43 2.90561 1.15295 0
M  V30 36993 H 3383.65 3.76095 -1.18096 0
M  V30 36994 H 3384.94 4.97382 -1.07186 0
M  V30 36995 H 3384.34 5.25399 2.09696 0
M  V30 36996 H 3382.89 6.18559 2.05495 0
M  V30 36997 N 3386.33 0.724003 1.39986 0
M  V30 36998 C 3387.28 0.0658442 2.32507 0
M  V30 36999 C 3388.27 -0.737881 1.52485 0
M  V30 37000 O 3389.48 -0.640303 1.68226 0
M  V30 37001 H 3385.85 0.00249039 0.751996 0
M  V30 37002 H 3387.82 0.862746 2.85656 0
M  V30 37003 C 3386.57 -0.835568 3.37511 0
M  V30 37004 H 3385.89 -0.226518 3.99158 0
M  V30 37005 H 3387.33 -1.26389 4.04724 0
M  V30 37006 C 3385.79 -1.96487 2.73668 0
M  V30 37007 O 3386.32 -3.05651 2.60654 0
M  V30 37008 N 3384.53 -1.751 2.31923 0
M  V30 37009 H 3384.08 -0.863162 2.42708 0
M  V30 37010 H 3384.03 -2.50838 1.89546 0
M  V30 37011 N 3387.81 -1.50403 0.470808 0
M  V30 37012 C 3388.74 -2.31387 -0.313417 0
M  V30 37013 C 3389.72 -1.38279 -0.990599 0
M  V30 37014 O 3390.9 -1.67199 -0.987825 0
M  V30 37015 C 3388.03 -3.18011 -1.39593 0
M  V30 37016 C 3386.99 -4.19669 -0.840369 0
M  V30 37017 C 3386.31 -4.95029 -2.02115 0
M  V30 37018 C 3387.61 -5.2209 0.148146 0
M  V30 37019 H 3389.31 -2.97198 0.362484 0
M  V30 37020 H 3386.85 -1.42923 0.175771 0
M  V30 37021 H 3388.8 -3.73462 -1.95203 0
M  V30 37022 H 3387.53 -2.50085 -2.1006 0
M  V30 37023 H 3386.19 -3.65319 -0.306238 0
M  V30 37024 H 3385.84 -4.23576 -2.71279 0
M  V30 37025 H 3385.54 -5.63793 -1.65564 0
M  V30 37026 H 3387.06 -5.53314 -2.58217 0
M  V30 37027 H 3388.47 -5.72413 -0.318774 0
M  V30 37028 H 3386.87 -5.98572 0.427916 0
M  V30 37029 H 3387.94 -4.72854 1.07413 0
M  V30 37030 N 3389.28 -0.203404 -1.56282 0
M  V30 37031 C 3390.23 0.714125 -2.19474 0
M  V30 37032 C 3391.2 1.2037 -1.14456 0
M  V30 37033 O 3392.39 1.26608 -1.42741 0
M  V30 37034 C 3389.53 1.92452 -2.86455 0
M  V30 37035 C 3388.64 1.47554 -4.0602 0
M  V30 37036 C 3387.77 2.64208 -4.60834 0
M  V30 37037 C 3386.81 2.15957 -5.72738 0
M  V30 37038 N 3385.95 3.25818 -6.21922 0
M  V30 37039 H 3390.79 0.168506 -2.97523 0
M  V30 37040 H 3388.33 0.0714267 -1.46926 0
M  V30 37041 H 3390.28 2.63491 -3.23463 0
M  V30 37042 H 3388.91 2.44331 -2.10955 0
M  V30 37043 H 3387.97 0.660718 -3.74618 0
M  V30 37044 H 3389.28 1.08159 -4.86932 0
M  V30 37045 H 3388.43 3.43357 -5.00191 0
M  V30 37046 H 3387.17 3.06881 -3.79046 0
M  V30 37047 H 3386.18 1.35264 -5.32901 0
M  V30 37048 H 3387.4 1.74305 -6.56349 0
M  V30 37049 H 3385.35 3.68006 -5.43054 0
M  V30 37050 H 3385.26 2.90619 -6.97909 0
M  V30 37051 H 3386.53 4.05157 -6.65934 0
M  V30 37052 N 3390.76 1.57444 0.0701393 0
M  V30 37053 C 3391.71 2.04844 1.10189 0
M  V30 37054 C 3392.7 0.954094 1.39976 0
M  V30 37055 O 3393.91 1.1392 1.39364 0
M  V30 37056 H 3390.28 0.653153 0.372687 0
M  V30 37057 H 3392.26 2.90642 0.675982 0
M  V30 37058 C 3391 2.5094 2.40675 0
M  V30 37059 H 3390.33 3.34742 2.18605 0
M  V30 37060 H 3391.77 2.87858 3.1131 0
M  V30 37061 C 3390.23 1.39303 3.06751 0
M  V30 37062 O 3390.76 0.736058 3.94899 0
M  V30 37063 N 3388.96 1.13774 2.67402 0
M  V30 37064 H 3388.51 1.6738 1.95811 0
M  V30 37065 H 3388.47 0.392841 3.11936 0
M  V30 37066 N 3392.24 -0.341566 1.53854 0
M  V30 37067 C 3393.19 -1.41956 1.81981 0
M  V30 37068 C 3394.16 -1.52179 0.665643 0
M  V30 37069 O 3395.34 -1.67686 0.910276 0
M  V30 37070 C 3392.48 -2.78579 2.03685 0
M  V30 37071 C 3391.59 -2.77132 3.31394 0
M  V30 37072 C 3390.73 -4.05485 3.43155 0
M  V30 37073 C 3389.77 -3.98274 4.64806 0
M  V30 37074 N 3388.91 -5.18321 4.7359 0
M  V30 37075 H 3393.75 -1.1727 2.73956 0
M  V30 37076 H 3391.28 -0.568039 1.3569 0
M  V30 37077 H 3393.24 -3.57979 2.14259 0
M  V30 37078 H 3391.87 -3.01612 1.15022 0
M  V30 37079 H 3390.92 -1.89826 3.29652 0
M  V30 37080 H 3392.23 -2.67681 4.2089 0
M  V30 37081 H 3391.39 -4.9331 3.53172 0
M  V30 37082 H 3390.13 -4.17718 2.51719 0
M  V30 37083 H 3389.13 -3.08834 4.54865 0
M  V30 37084 H 3390.36 -3.87621 5.57608 0
M  V30 37085 H 3388.3 -5.31095 3.85064 0
M  V30 37086 H 3388.22 -5.11135 5.57025 0
M  V30 37087 H 3389.49 -6.07911 4.87918 0
M  V30 37088 N 3393.72 -1.45621 -0.602683 0
M  V30 37089 C 3394.68 -1.54274 -1.69506 0
M  V30 37090 C 3395.68 -0.421755 -1.5517 0
M  V30 37091 O 3396.87 -0.685403 -1.6015 0
M  V30 37092 C 3394 -1.44397 -3.08808 0
M  V30 37093 H 3395.2 -2.51607 -1.63198 0
M  V30 37094 H 3392.75 -1.33135 -0.818834 0
M  V30 37095 H 3393.48 -0.482671 -3.20688 0
M  V30 37096 H 3393.27 -2.25709 -3.20621 0
M  V30 37097 H 3394.76 -1.53495 -3.88367 0
M  V30 37098 N 3395.2 0.845612 -1.32993 0
M  V30 37099 C 3396.42 1.63788 -1.27233 0
M  V30 37100 C 3396.85 1.87459 0.155108 0
M  V30 37101 O 3396.2 1.43386 1.10951 0
M  V30 37102 C 3396.25 2.96913 -2.04634 0
M  V30 37103 O 3395.36 3.87897 -1.40033 0
M  V30 37104 H 3394.7 0.499004 -0.438054 0
M  V30 37105 H 3397.23 1.05254 -1.7545 0
M  V30 37106 H 3397.24 3.46663 -2.15147 0
M  V30 37107 H 3395.91 2.79005 -3.0843 0
M  V30 37108 H 3394.49 3.46376 -1.38124 0
M  V30 37109 N 3396.67 1.16351 1.06302 0
M  V30 37110 C 3397.9 0.969672 1.83336 0
M  V30 37111 C 3398.32 -0.477199 1.81946 0
M  V30 37112 O 3397.68 -1.34092 1.2202 0
M  V30 37113 C 3397.73 1.5016 3.27848 0
M  V30 37114 O 3396.83 0.707877 4.06279 0
M  V30 37115 H 3396.17 0.345082 0.567287 0
M  V30 37116 H 3398.7 1.54587 1.3403 0
M  V30 37117 H 3398.71 1.51905 3.78667 0
M  V30 37118 H 3397.39 2.55489 3.28174 0
M  V30 37119 H 3395.97 0.760936 3.65054 0
M  V30 37120 N 3398.15 -1.24835 0.961982 0
M  V30 37121 C 3399.38 -1.97351 0.637743 0
M  V30 37122 C 3399.8 -1.70942 -0.784889 0
M  V30 37123 O 3399.16 -0.969721 -1.53186 0
M  V30 37124 C 3399.21 -3.48889 0.911546 0
M  V30 37125 O 3398.31 -4.124 -0.00594419 0
M  V30 37126 H 3397.65 -0.618449 0.241696 0
M  V30 37127 H 3400.18 -1.58762 1.29058 0
M  V30 37128 H 3400.19 -3.99243 0.840772 0
M  V30 37129 H 3398.87 -3.67439 1.94837 0
M  V30 37130 H 3397.44 -3.72714 0.117663 0
M  V30 37131 N 3399.63 -0.731417 -1.396 0
M  V30 37132 C 3400.91 -0.204254 -1.94531 0
M  V30 37133 C 3401.29 1.29326 -1.66847 0
M  V30 37134 O 3400.63 2.05711 -0.994742 0
M  V30 37135 C 3400.84 -0.53401 -3.4489 0
M  V30 37136 C 3402.19 -0.481372 -4.21863 0
M  V30 37137 O 3403.22 -0.470991 -3.53072 0
M  V30 37138 O 3402.08 -0.472759 -5.44451 0
M  V30 37139 H 3399.17 -0.0360581 -0.826214 0
M  V30 37140 H 3401.72 -0.810031 -1.49119 0
M  V30 37141 H 3400.49 -1.56914 -3.5846 0
M  V30 37142 H 3400.11 0.10092 -3.97472 0
M  V30 37143 N 3401.11 1.50152 -0.478778 0
M  V30 37144 C 3402.04 2.25382 0.357545 0
M  V30 37145 C 3403.02 1.29016 0.989627 0
M  V30 37146 O 3404.2 1.58257 1.02407 0
M  V30 37147 C 3401.33 3.03594 1.50161 0
M  V30 37148 C 3400.38 4.14943 0.986142 0
M  V30 37149 S 3401.21 5.35396 -0.105333 0
M  V30 37150 C 3402.37 6.17158 1.04243 0
M  V30 37151 H 3402.6 2.95969 -0.281037 0
M  V30 37152 H 3400.13 1.5213 -0.26376 0
M  V30 37153 H 3402.09 3.49245 2.15727 0
M  V30 37154 H 3400.75 2.32518 2.11173 0
M  V30 37155 H 3399.94 4.691 1.84286 0
M  V30 37156 H 3399.55 3.71767 0.408075 0
M  V30 37157 H 3401.84 6.48757 1.95244 0
M  V30 37158 H 3402.78 7.06038 0.539959 0
M  V30 37159 H 3403.19 5.49334 1.29973 0
M  V30 37160 N 3402.59 0.211689 1.56172 0
M  V30 37161 C 3404 -0.143879 1.5895 0
M  V30 37162 C 3404.2 -1.59735 1.22829 0
M  V30 37163 O 3403.26 -2.33585 0.958864 0
M  V30 37164 C 3404.57 0.173491 3.00199 0
M  V30 37165 C 3406.12 0.114932 3.12789 0
M  V30 37166 C 3406.59 0.405839 4.56198 0
M  V30 37167 N 3408.09 0.355054 4.61837 0
M  V30 37168 C 3408.82 0.553772 5.7072 0
M  V30 37169 N 3408.32 0.813734 6.88005 0
M  V30 37170 N 3410.11 0.486885 5.59987 0
M  V30 37171 H 3402.26 1.15996 1.77929 0
M  V30 37172 H 3404.52 0.464221 0.826561 0
M  V30 37173 H 3404.23 1.18191 3.31246 0
M  V30 37174 H 3404.1 -0.516167 3.73652 0
M  V30 37175 H 3406.49 -0.884117 2.81545 0
M  V30 37176 H 3406.57 0.837917 2.41687 0
M  V30 37177 H 3406.22 1.40228 4.88158 0
M  V30 37178 H 3406.15 -0.338225 5.25513 0
M  V30 37179 H 3408.64 0.161419 3.77555 0
M  V30 37180 H 3408.95 0.953729 7.66892 0
M  V30 37181 H 3407.29 0.850817 6.89772 0
M  V30 37182 H 3410.49 0.284091 4.67237 0
M  V30 37183 H 3410.66 0.645164 6.4478 0
M  V30 37184 N 3404.06 -1.57479 -0.0617887 0
M  V30 37185 C 3405.29 -1.9197 -0.771691 0
M  V30 37186 C 3405.71 -0.808579 -1.70609 0
M  V30 37187 O 3405.06 0.217423 -1.812 0
M  V30 37188 C 3405.12 -3.2626 -1.55681 0
M  V30 37189 O 3404.84 -4.33101 -0.659956 0
M  V30 37190 C 3406.34 -3.74829 -2.36682 0
M  V30 37191 H 3403.56 -0.634311 -0.218839 0
M  V30 37192 H 3406.1 -2.04479 -0.0290709 0
M  V30 37193 H 3404.26 -3.15248 -2.25161 0
M  V30 37194 H 3404.67 -5.10422 -1.20706 0
M  V30 37195 H 3406.14 -4.71395 -2.87212 0
M  V30 37196 H 3406.62 -3.04346 -3.16655 0
M  V30 37197 H 3407.23 -3.88818 -1.72339 0
M  V30 37198 N 3405.54 0.333401 -1.54033 0
M  V30 37199 C 3406.51 1.39285 -1.82023 0
M  V30 37200 C 3407.51 1.45165 -0.691649 0
M  V30 37201 O 3408.7 1.45364 -0.95995 0
M  V30 37202 C 3405.83 2.78116 -1.97141 0
M  V30 37203 H 3407.02 1.15725 -2.76673 0
M  V30 37204 H 3404.57 0.568351 -1.456 0
M  V30 37205 H 3405.31 3.06945 -1.04669 0
M  V30 37206 H 3405.09 2.75242 -2.79256 0
M  V30 37207 H 3406.58 3.54778 -2.20277 0
M  V30 37208 N 3407.02 1.45939 0.594952 0
M  V30 37209 C 3408.27 1.49884 1.34973 0
M  V30 37210 C 3408.58 0.149864 1.95025 0
M  V30 37211 O 3409.79 0.0670345 2.71417 0
M  V30 37212 C 3408.24 2.64044 2.44558 0
M  V30 37213 C 3407.85 4.05309 1.90863 0
M  V30 37214 C 3409.6 2.77248 3.21456 0
M  V30 37215 C 3407.5 5.1083 2.98004 0
M  V30 37216 H 3406.43 0.557769 0.507356 0
M  V30 37217 H 3409.08 1.72115 0.636285 0
M  V30 37218 H 3407.47 2.35119 3.18646 0
M  V30 37219 H 3408.64 4.4397 1.234 0
M  V30 37220 H 3406.96 3.96665 1.26671 0
M  V30 37221 H 3409.55 3.53253 4.01393 0
M  V30 37222 H 3409.9 1.84328 3.73268 0
M  V30 37223 H 3410.43 3.0576 2.54471 0
M  V30 37224 H 3407.17 6.05502 2.51094 0
M  V30 37225 H 3406.69 4.76726 3.63994 0
M  V30 37226 H 3408.37 5.36137 3.62169 0
M  V30 37227 N 3408.5 -0.838547 1.3344 0
M  V30 37228 C 3409.73 -1.6259 1.27954 0
M  V30 37229 C 3410.14 -1.88207 -0.149469 0
M  V30 37230 O 3409.5 -1.46246 -1.09171 0
M  V30 37231 C 3409.55 -2.97591 2.05235 0
M  V30 37232 O 3409.27 -2.73099 3.42562 0
M  V30 37233 C 3410.77 -3.92021 2.06964 0
M  V30 37234 H 3407.99 -0.505897 0.440805 0
M  V30 37235 H 3410.54 -1.04447 1.75816 0
M  V30 37236 H 3408.69 -3.52335 1.61055 0
M  V30 37237 H 3409.1 -3.5907 3.82321 0
M  V30 37238 H 3410.58 -4.83962 2.6549 0
M  V30 37239 H 3411.06 -4.26217 1.05998 0
M  V30 37240 H 3411.66 -3.43215 2.51164 0
M  V30 37241 N 3409.98 -1.16914 -1.05683 0
M  V30 37242 C 3410.89 -0.895838 -2.16822 0
M  V30 37243 C 3411.9 0.134185 -1.73482 0
M  V30 37244 O 3413.08 -0.0439129 -2.01352 0
M  V30 37245 C 3410.14 -0.407488 -3.44297 0
M  V30 37246 C 3409.2 -1.50349 -4.02111 0
M  V30 37247 C 3408.44 -1.03835 -5.23502 0
M  V30 37248 O 3408.66 0.109478 -5.70295 0
M  V30 37249 O 3407.59 -1.8293 -5.73428 0
M  V30 37250 H 3411.42 -1.82537 -2.42722 0
M  V30 37251 H 3409.01 -0.94961 -1.15338 0
M  V30 37252 H 3410.89 -0.14243 -4.21159 0
M  V30 37253 H 3409.56 0.493953 -3.19909 0
M  V30 37254 H 3408.47 -1.82237 -3.26712 0
M  V30 37255 H 3409.8 -2.38046 -4.30807 0
M  V30 37256 N 3411.45 1.24323 -0.968589 0
M  V30 37257 C 3412.4 2.25344 -0.498857 0
M  V30 37258 C 3413.37 1.59716 0.456054 0
M  V30 37259 O 3414.56 1.87252 0.366221 0
M  V30 37260 C 3411.7 3.44497 0.203967 0
M  V30 37261 C 3410.81 4.24719 -0.789816 0
M  V30 37262 C 3409.94 5.31163 -0.0630089 0
M  V30 37263 C 3408.98 6.03083 -1.0468 0
M  V30 37264 N 3408.12 7.01227 -0.349935 0
M  V30 37265 H 3412.96 2.64892 -1.36515 0
M  V30 37266 H 3410.5 1.30214 -0.684311 0
M  V30 37267 H 3412.46 4.12444 0.62815 0
M  V30 37268 H 3411.09 3.05784 1.03421 0
M  V30 37269 H 3410.14 3.56301 -1.33244 0
M  V30 37270 H 3411.45 4.74433 -1.53997 0
M  V30 37271 H 3410.6 6.05251 0.419127 0
M  V30 37272 H 3409.34 4.82359 0.71983 0
M  V30 37273 H 3408.35 5.27798 -1.5398 0
M  V30 37274 H 3409.57 6.53976 -1.8301 0
M  V30 37275 H 3407.52 6.54693 0.413911 0
M  V30 37276 H 3407.44 7.48827 -1.03894 0
M  V30 37277 H 3408.7 7.79422 0.110203 0
M  V30 37278 N 3412.93 0.73881 1.3921 0
M  V30 37279 C 3413.86 0.116511 2.33209 0
M  V30 37280 C 3414.84 -0.720029 1.54109 0
M  V30 37281 O 3416.03 -0.664232 1.82487 0
M  V30 37282 C 3413.16 -0.788661 3.38227 0
M  V30 37283 C 3412.11 -0.0559884 4.27963 0
M  V30 37284 C 3411.44 -1.07843 5.23712 0
M  V30 37285 C 3412.74 1.10369 5.10506 0
M  V30 37286 H 3414.43 0.9017 2.85499 0
M  V30 37287 H 3411.98 0.435056 1.37271 0
M  V30 37288 H 3413.93 -1.23357 4.0294 0
M  V30 37289 H 3412.66 -1.60601 2.84385 0
M  V30 37290 H 3411.31 0.369339 3.64735 0
M  V30 37291 H 3410.96 -1.88944 4.66164 0
M  V30 37292 H 3410.66 -0.592946 5.84601 0
M  V30 37293 H 3412.19 -1.52296 5.91302 0
M  V30 37294 H 3413.6 0.737043 5.68542 0
M  V30 37295 H 3412 1.51906 5.80556 0
M  V30 37296 H 3413.07 1.92359 4.45113 0
M  V30 37297 N 3414.41 -1.49895 0.486734 0
M  V30 37298 C 3415.32 -2.3262 -0.304181 0
M  V30 37299 C 3416.34 -1.43704 -0.981078 0
M  V30 37300 O 3417.51 -1.76743 -0.965608 0
M  V30 37301 C 3414.58 -3.18786 -1.36296 0
M  V30 37302 C 3413.64 -4.23538 -0.701008 0
M  V30 37303 C 3412.87 -5.05586 -1.70934 0
M  V30 37304 O 3413.09 -4.88936 -2.93765 0
M  V30 37305 O 3412.03 -5.88295 -1.27252 0
M  V30 37306 H 3415.85 -3.01407 0.372533 0
M  V30 37307 H 3413.44 -1.47322 0.248302 0
M  V30 37308 H 3415.32 -3.72206 -1.97587 0
M  V30 37309 H 3414 -2.5271 -2.02286 0
M  V30 37310 H 3412.9 -3.74068 -0.0487268 0
M  V30 37311 H 3414.24 -4.92129 -0.0837952 0
M  V30 37312 N 3415.89 -0.219968 -1.56057 0
M  V30 37313 C 3417.31 0.135448 -1.59024 0
M  V30 37314 C 3417.51 1.59081 -1.23675 0
M  V30 37315 O 3416.56 2.33073 -0.971238 0
M  V30 37316 C 3417.87 -0.189408 -3.00103 0
M  V30 37317 C 3419.42 -0.131518 -3.12724 0
M  V30 37318 C 3419.9 -0.430027 -4.55977 0
M  V30 37319 N 3421.39 -0.379541 -4.61642 0
M  V30 37320 C 3422.12 -0.584031 -5.70418 0
M  V30 37321 N 3421.62 -0.850209 -6.87563 0
M  V30 37322 N 3423.41 -0.516576 -5.59721 0
M  V30 37323 H 3415.56 -1.16938 -1.77311 0
M  V30 37324 H 3417.83 -0.468598 -0.824088 0
M  V30 37325 H 3417.53 -1.19946 -3.30614 0
M  V30 37326 H 3417.41 0.496344 -3.7392 0
M  V30 37327 H 3419.79 0.869173 -2.8201 0
M  V30 37328 H 3419.87 -0.850722 -2.41239 0
M  V30 37329 H 3419.52 -1.42815 -4.87408 0
M  V30 37330 H 3419.45 0.310351 -5.25685 0
M  V30 37331 H 3421.94 -0.181439 -3.77464 0
M  V30 37332 H 3422.25 -0.994386 -7.66376 0
M  V30 37333 H 3420.6 -0.887386 -6.89312 0
M  V30 37334 H 3423.79 -0.308866 -4.6708 0
M  V30 37335 H 3423.96 -0.679349 -6.44429 0
M  V30 37336 N 3417.37 1.57509 0.0534363 0
M  V30 37337 C 3418.61 1.88415 0.750179 0
M  V30 37338 C 3418.95 0.81465 1.76287 0
M  V30 37339 O 3418.22 -0.173102 1.93728 0
M  V30 37340 C 3418.5 3.2998 1.44171 0
M  V30 37341 C 3418.36 4.47601 0.444185 0
M  V30 37342 C 3419.68 3.70066 2.382 0
M  V30 37343 H 3416.8 0.685267 0.271254 0
M  V30 37344 H 3419.44 1.89995 0.0131342 0
M  V30 37345 H 3417.59 3.28763 2.06995 0
M  V30 37346 H 3419.26 4.60948 -0.180263 0
M  V30 37347 H 3417.5 4.33142 -0.238847 0
M  V30 37348 H 3418.17 5.43481 0.966038 0
M  V30 37349 H 3420.65 3.72493 1.8544 0
M  V30 37350 H 3419.53 4.69972 2.83579 0
M  V30 37351 H 3419.79 3.00991 3.23816 0
M  V30 37352 N 3418.85 -0.325228 1.54208 0
M  V30 37353 C 3419.79 -1.40018 1.83477 0
M  V30 37354 C 3420.76 -1.51464 0.681746 0
M  V30 37355 O 3421.95 -1.66711 0.92801 0
M  V30 37356 C 3419.09 -2.76403 2.06629 0
M  V30 37357 C 3418.2 -2.73601 3.34315 0
M  V30 37358 C 3417.34 -4.01822 3.47437 0
M  V30 37359 C 3416.37 -3.93321 4.69004 0
M  V30 37360 N 3415.51 -5.13269 4.79061 0
M  V30 37361 H 3420.35 -1.14358 2.75184 0
M  V30 37362 H 3417.89 -0.553615 1.36285 0
M  V30 37363 H 3419.85 -3.55686 2.18044 0
M  V30 37364 H 3418.48 -3.00375 1.18215 0
M  V30 37365 H 3417.53 -1.86319 3.31647 0
M  V30 37366 H 3418.84 -2.63202 4.23705 0
M  V30 37367 H 3417.99 -4.89536 3.58384 0
M  V30 37368 H 3416.73 -4.15025 2.56136 0
M  V30 37369 H 3415.74 -3.03992 4.58115 0
M  V30 37370 H 3416.96 -3.81685 5.61688 0
M  V30 37371 H 3414.91 -5.26981 3.90675 0
M  V30 37372 H 3414.83 -5.05198 5.62415 0
M  V30 37373 H 3416.09 -6.02702 4.94339 0
M  V30 37374 N 3420.32 -1.46252 -0.587204 0
M  V30 37375 C 3421.27 -1.56839 -1.71768 0
M  V30 37376 C 3422.27 -0.437125 -1.63663 0
M  V30 37377 O 3423.47 -0.613827 -1.6921 0
M  V30 37378 H 3419.85 -0.493022 -0.567832 0
M  V30 37379 H 3421.82 -2.51897 -1.5997 0
M  V30 37380 C 3420.57 -1.57157 -3.10156 0
M  V30 37381 H 3419.89 -2.43541 -3.17061 0
M  V30 37382 H 3421.33 -1.6862 -3.89029 0
M  V30 37383 C 3419.79 -0.299433 -3.35567 0
M  V30 37384 O 3420.32 0.612221 -3.97007 0
M  V30 37385 N 3418.52 -0.188746 -2.89986 0
M  V30 37386 H 3418.07 -0.931512 -2.40168 0
M  V30 37387 H 3418.03 0.661558 -3.07361 0
M  V30 37388 N 3421.8 0.831459 -1.33883 0
M  V30 37389 C 3422.73 1.94912 -1.20591 0
M  V30 37390 C 3423.75 1.62239 -0.135054 0
M  V30 37391 O 3424.94 1.74273 -0.386147 0
M  V30 37392 C 3422.04 3.2861 -0.82877 0
M  V30 37393 C 3421.21 3.89365 -1.99282 0
M  V30 37394 C 3420.27 5.0143 -1.59546 0
M  V30 37395 O 3419.29 5.20181 -2.31085 0
M  V30 37396 N 3420.5 5.78302 -0.504702 0
M  V30 37397 H 3423.26 2.06848 -2.16873 0
M  V30 37398 H 3420.82 1.00759 -1.26725 0
M  V30 37399 H 3422.81 4.01015 -0.544898 0
M  V30 37400 H 3421.38 3.1257 0.0435984 0
M  V30 37401 H 3420.6 3.09459 -2.4419 0
M  V30 37402 H 3421.89 4.2669 -2.77152 0
M  V30 37403 H 3421.29 5.65628 0.0902111 0
M  V30 37404 H 3419.85 6.51196 -0.28053 0
M  V30 37405 N 3423.28 1.17472 1.05062 0
M  V30 37406 C 3424.53 0.975346 1.7849 0
M  V30 37407 C 3424.88 -0.490701 1.86037 0
M  V30 37408 O 3424.17 -1.35954 1.35008 0
M  V30 37409 C 3424.37 1.5517 3.21958 0
M  V30 37410 C 3424.2 3.07226 3.28393 0
M  V30 37411 C 3422.97 3.75967 3.37604 0
M  V30 37412 C 3425.16 4.0481 3.17227 0
M  V30 37413 N 3423.15 5.15618 3.33184 0
M  V30 37414 C 3424.52 5.30921 3.20192 0
M  V30 37415 C 3426.57 3.96464 3.01198 0
M  V30 37416 C 3425.28 6.49654 3.08776 0
M  V30 37417 C 3427.3 5.14782 2.91124 0
M  V30 37418 C 3426.66 6.39779 2.94724 0
M  V30 37419 H 3422.76 0.410812 0.6654 0
M  V30 37420 H 3425.35 1.49079 1.25234 0
M  V30 37421 H 3423.52 1.06257 3.73583 0
M  V30 37422 H 3425.25 1.28882 3.83629 0
M  V30 37423 H 3422 3.26654 3.4292 0
M  V30 37424 H 3422.43 5.88625 3.3444 0
M  V30 37425 H 3427.07 3.00667 2.97253 0
M  V30 37426 H 3424.79 7.4566 3.11476 0
M  V30 37427 H 3428.37 5.10106 2.79791 0
M  V30 37428 H 3427.25 7.29794 2.87003 0
M  V30 37429 N 3424.76 -1.23807 0.975168 0
M  V30 37430 C 3426.03 -1.87479 0.557758 0
M  V30 37431 C 3426.41 -1.87746 -0.965131 0
M  V30 37432 O 3425.76 -1.35534 -1.83964 0
M  V30 37433 C 3425.97 -3.29234 1.15783 0
M  V30 37434 C 3427.32 -4.05865 1.24733 0
M  V30 37435 O 3428.34 -3.38434 1.1109 0
M  V30 37436 O 3427.2 -5.26531 1.46382 0
M  V30 37437 H 3424.3 -0.805567 0.18706 0
M  V30 37438 H 3426.84 -1.31723 1.06992 0
M  V30 37439 H 3425.62 -3.23579 2.20028 0
M  V30 37440 H 3425.24 -3.92574 0.630172 0
M  V30 37441 N 3426.24 -0.746182 -1.38816 0
M  V30 37442 C 3427.48 -0.29846 -1.99884 0
M  V30 37443 C 3427.8 1.12153 -1.5952 0
M  V30 37444 O 3427.07 1.76566 -0.848599 0
M  V30 37445 H 3425.65 -0.10736 -0.739245 0
M  V30 37446 H 3428.32 -0.95863 -1.69695 0
M  V30 37447 H 3427.41 -0.355711 -3.10066 0
M  V30 37448 N 3427.71 1.49635 -0.494676 0
M  V30 37449 C 3428.94 2.06842 0.0490766 0
M  V30 37450 C 3429.36 1.35578 1.31393 0
M  V30 37451 O 3428.71 0.432166 1.77309 0
M  V30 37452 C 3428.76 3.60141 0.313108 0
M  V30 37453 O 3428.49 4.28722 -0.901596 0
M  V30 37454 C 3429.99 4.34043 0.901207 0
M  V30 37455 H 3427.21 0.670768 -0.0176304 0
M  V30 37456 H 3429.75 1.925 -0.690222 0
M  V30 37457 H 3427.91 3.74207 1.00238 0
M  V30 37458 H 3428.32 5.20324 -0.660568 0
M  V30 37459 H 3429.79 5.42199 1.03557 0
M  V30 37460 H 3430.27 3.961 1.8974 0
M  V30 37461 H 3430.88 4.24567 0.249602 0
M  V30 37462 N 3429.19 0.228241 1.55939 0
M  V30 37463 C 3430.12 -0.71155 2.17875 0
M  V30 37464 C 3431.14 -1.15263 1.14971 0
M  V30 37465 O 3432.33 -1.08262 1.41921 0
M  V30 37466 C 3429.43 -1.97647 2.75297 0
M  V30 37467 C 3428.6 -1.68987 4.03438 0
M  V30 37468 C 3427.66 -2.80252 4.45359 0
M  V30 37469 O 3426.68 -2.48436 5.12121 0
M  V30 37470 N 3427.89 -4.09352 4.11596 0
M  V30 37471 H 3430.65 -0.181704 2.99149 0
M  V30 37472 H 3428.21 0.0474852 1.6183 0
M  V30 37473 H 3430.2 -2.71286 3.0031 0
M  V30 37474 H 3428.77 -2.41661 1.98289 0
M  V30 37475 H 3427.99 -0.789589 3.86211 0
M  V30 37476 H 3429.28 -1.47279 4.87018 0
M  V30 37477 H 3428.68 -4.38042 3.5796 0
M  V30 37478 H 3427.24 -4.79514 4.41485 0
M  V30 37479 N 3430.67 -1.57536 -0.0450825 0
M  V30 37480 C 3431.62 -2.01959 -1.05813 0
M  V30 37481 C 3432.6 -0.9061 -1.32961 0
M  V30 37482 O 3433.8 -1.17002 -1.32814 0
M  V30 37483 C 3430.93 -2.48929 -2.3641 0
M  V30 37484 C 3430.01 -3.67067 -2.12421 0
M  V30 37485 N 3430.4 -4.80344 -1.5844 0
M  V30 37486 C 3428.7 -3.74132 -2.42778 0
M  V30 37487 C 3429.4 -5.62058 -1.49886 0
M  V30 37488 N 3428.38 -5.06693 -1.96883 0
M  V30 37489 H 3432.18 -2.86969 -0.634519 0
M  V30 37490 H 3429.69 -1.60438 -0.251691 0
M  V30 37491 H 3431.69 -2.79007 -3.09776 0
M  V30 37492 H 3430.35 -1.65318 -2.79464 0
M  V30 37493 H 3431.36 -5.02105 -1.26931 0
M  V30 37494 H 3428.04 -3.0129 -2.89017 0
M  V30 37495 H 3429.43 -6.63036 -1.08776 0
M  V30 37496 N 3432.15 0.317045 -1.54378 0
M  V30 37497 C 3433.4 1.05213 -1.72553 0
M  V30 37498 C 3433.72 1.88333 -0.505533 0
M  V30 37499 O 3432.99 1.89918 0.480405 0
M  V30 37500 H 3431.57 0.391436 -0.636229 0
M  V30 37501 H 3434.23 0.351906 -1.91697 0
M  V30 37502 H 3433.33 1.71444 -2.60794 0
M  V30 37503 N 3433.63 1.46561 0.57944 0
M  V30 37504 C 3434.87 1.52266 1.33951 0
M  V30 37505 C 3435.21 0.175123 1.93409 0
M  V30 37506 O 3434.48 -0.813819 1.76656 0
M  V30 37507 C 3434.76 2.62375 2.4664 0
M  V30 37508 C 3434.62 4.0667 1.92197 0
M  V30 37509 C 3435.94 2.68544 3.48672 0
M  V30 37510 H 3433.05 0.554325 0.485688 0
M  V30 37511 H 3435.7 1.78514 0.650608 0
M  V30 37512 H 3433.85 2.40125 3.05405 0
M  V30 37513 H 3435.52 4.40217 1.37864 0
M  V30 37514 H 3433.76 4.15995 1.23005 0
M  V30 37515 H 3434.43 4.79448 2.73557 0
M  V30 37516 H 3436.91 2.88554 2.99792 0
M  V30 37517 H 3435.78 3.47401 4.24975 0
M  V30 37518 H 3436.05 1.74724 4.06108 0
M  V30 37519 N 3435.1 -0.824347 1.34322 0
M  V30 37520 C 3436.01 -1.96701 1.2785 0
M  V30 37521 C 3437.03 -1.72998 0.18644 0
M  V30 37522 O 3438.21 -1.97127 0.412657 0
M  V30 37523 C 3435.27 -3.30973 1.03237 0
M  V30 37524 C 3434.33 -3.67693 2.21585 0
M  V30 37525 C 3433.57 -4.95558 1.98137 0
M  V30 37526 O 3433.79 -5.6262 0.938897 0
M  V30 37527 O 3432.72 -5.30123 2.8505 0
M  V30 37528 H 3436.55 -2.05104 2.23978 0
M  V30 37529 H 3434.13 -0.959533 1.14513 0
M  V30 37530 H 3436.02 -4.11394 0.912857 0
M  V30 37531 H 3434.69 -3.23541 0.101482 0
M  V30 37532 H 3433.6 -2.87722 2.39095 0
M  V30 37533 H 3434.93 -3.79809 3.13059 0
M  V30 37534 N 3436.58 -1.18028 -1.04437 0
M  V30 37535 C 3437.51 -0.927351 -2.14295 0
M  V30 37536 C 3438.49 0.13354 -1.69575 0
M  V30 37537 O 3439.68 -0.018278 -1.94191 0
M  V30 37538 C 3436.81 -0.448195 -3.44396 0
M  V30 37539 C 3435.76 -1.44914 -4.02721 0
M  V30 37540 C 3435.09 -0.827647 -5.28256 0
M  V30 37541 C 3436.39 -2.8247 -4.39326 0
M  V30 37542 H 3438.08 -1.84609 -2.35711 0
M  V30 37543 H 3435.63 -0.889032 -1.13279 0
M  V30 37544 H 3437.58 -0.258628 -4.20606 0
M  V30 37545 H 3436.31 0.506102 -3.22655 0
M  V30 37546 H 3434.96 -1.62558 -3.28588 0
M  V30 37547 H 3434.61 0.133721 -5.02822 0
M  V30 37548 H 3434.31 -1.4959 -5.6824 0
M  V30 37549 H 3435.84 -0.648527 -6.07146 0
M  V30 37550 H 3437.25 -2.685 -5.06538 0
M  V30 37551 H 3435.65 -3.45945 -4.90349 0
M  V30 37552 H 3436.72 -3.36305 -3.49324 0
M  V30 37553 N 3438.06 1.23288 -0.98172 0
M  V30 37554 C 3439.48 1.43887 -0.690565 0
M  V30 37555 C 3439.68 1.8731 0.742783 0
M  V30 37556 O 3438.73 2.01995 1.51506 0
M  V30 37557 C 3440.05 2.48945 -1.68662 0
M  V30 37558 C 3441.59 2.62758 -1.70081 0
M  V30 37559 C 3442.07 3.71027 -2.6852 0
M  V30 37560 N 3443.56 3.78471 -2.67046 0
M  V30 37561 C 3444.29 4.61809 -3.39883 0
M  V30 37562 N 3443.79 5.49226 -4.22283 0
M  V30 37563 N 3445.58 4.56017 -3.28641 0
M  V30 37564 H 3437.73 0.934043 -1.9076 0
M  V30 37565 H 3440 0.472134 -0.822066 0
M  V30 37566 H 3439.7 2.23959 -2.71174 0
M  V30 37567 H 3439.58 3.47355 -1.47051 0
M  V30 37568 H 3441.96 2.87094 -0.682723 0
M  V30 37569 H 3442.05 1.64659 -1.95757 0
M  V30 37570 H 3441.69 3.47439 -3.70471 0
M  V30 37571 H 3441.62 4.6867 -2.40117 0
M  V30 37572 H 3444.11 3.16002 -2.07246 0
M  V30 37573 H 3444.42 6.0981 -4.74713 0
M  V30 37574 H 3442.77 5.48845 -4.26373 0
M  V30 37575 H 3445.96 3.86744 -2.63717 0
M  V30 37576 H 3446.13 5.20736 -3.85666 0
M  V30 37577 N 3439.54 0.753533 1.38418 0
M  V30 37578 C 3440.47 0.0859866 2.29039 0
M  V30 37579 C 3441.48 -0.683804 1.47743 0
M  V30 37580 O 3442.67 -0.524903 1.70608 0
M  V30 37581 C 3439.77 -0.902239 3.26669 0
M  V30 37582 C 3438.95 -0.190101 4.36987 0
M  V30 37583 C 3438 -1.08907 5.14807 0
M  V30 37584 O 3437.03 -0.559616 5.66442 0
M  V30 37585 N 3438.23 -2.41717 5.27782 0
M  V30 37586 H 3441 0.864247 2.86968 0
M  V30 37587 H 3438.56 0.604314 1.50199 0
M  V30 37588 H 3440.55 -1.50666 3.75609 0
M  V30 37589 H 3439.12 -1.58158 2.69638 0
M  V30 37590 H 3438.34 0.595028 3.89683 0
M  V30 37591 H 3439.63 0.302683 5.07899 0
M  V30 37592 H 3439.03 -2.87187 4.87381 0
M  V30 37593 H 3437.58 -2.97209 5.80095 0
M  V30 37594 N 3441.02 -1.49371 0.502605 0
M  V30 37595 C 3441.95 -2.27071 -0.311703 0
M  V30 37596 C 3442.96 -1.33679 -0.929181 0
M  V30 37597 O 3444.15 -1.58949 -0.812249 0
M  V30 37598 C 3441.25 -3.06125 -1.45398 0
M  V30 37599 C 3440.42 -4.27102 -0.943516 0
M  V30 37600 C 3439.48 -4.8819 -1.9636 0
M  V30 37601 O 3438.51 -5.4821 -1.5315 0
M  V30 37602 N 3439.71 -4.77984 -3.29411 0
M  V30 37603 H 3442.48 -2.97595 0.354555 0
M  V30 37604 H 3440.04 -1.58391 0.335249 0
M  V30 37605 H 3442.03 -3.43865 -2.13398 0
M  V30 37606 H 3440.6 -2.38197 -2.02437 0
M  V30 37607 H 3439.82 -3.94101 -0.0883679 0
M  V30 37608 H 3441.11 -5.05473 -0.580894 0
M  V30 37609 H 3440.5 -4.30323 -3.67204 0
M  V30 37610 H 3439.06 -5.19904 -3.9312 0
M  V30 37611 N 3442.49 -0.236508 -1.55815 0
M  V30 37612 C 3443.43 0.699986 -2.18249 0
M  V30 37613 C 3444.44 1.14651 -1.15581 0
M  V30 37614 O 3445.63 1.07508 -1.42493 0
M  V30 37615 C 3442.73 1.96185 -2.76342 0
M  V30 37616 C 3441.9 1.66845 -4.04328 0
M  V30 37617 C 3440.96 2.77887 -4.46839 0
M  V30 37618 O 3439.99 2.45716 -5.13432 0
M  V30 37619 N 3441.19 4.07164 -4.13761 0
M  V30 37620 H 3443.95 0.165837 -2.99241 0
M  V30 37621 H 3441.51 -0.0560668 -1.61803 0
M  V30 37622 H 3443.51 2.6969 -3.01744 0
M  V30 37623 H 3442.08 2.40607 -1.99568 0
M  V30 37624 H 3441.3 0.769096 -3.86625 0
M  V30 37625 H 3442.58 1.44694 -4.87792 0
M  V30 37626 H 3441.98 4.36138 -3.60278 0
M  V30 37627 H 3440.54 4.77166 -4.44022 0
M  V30 37628 N 3443.97 1.57557 0.0367273 0
M  V30 37629 C 3444.9 2.09093 1.03935 0
M  V30 37630 C 3445.88 0.991785 1.38194 0
M  V30 37631 O 3447.07 1.26658 1.47212 0
M  V30 37632 C 3444.2 2.56398 2.34259 0
M  V30 37633 C 3443.15 3.70507 2.14262 0
M  V30 37634 C 3442.48 4.03991 3.50278 0
M  V30 37635 C 3443.78 4.99233 1.53505 0
M  V30 37636 H 3445.47 2.93112 0.610378 0
M  V30 37637 H 3443.02 1.41005 0.292159 0
M  V30 37638 H 3444.97 2.91071 3.04722 0
M  V30 37639 H 3443.7 1.69452 2.79202 0
M  V30 37640 H 3442.35 3.36172 1.46233 0
M  V30 37641 H 3442 3.14123 3.92856 0
M  V30 37642 H 3441.7 4.80848 3.37727 0
M  V30 37643 H 3443.23 4.41192 4.22116 0
M  V30 37644 H 3444.64 5.31912 2.13876 0
M  V30 37645 H 3443.04 5.80648 1.5155 0
M  V30 37646 H 3444.11 4.82315 0.500041 0
M  V30 37647 N 3445.45 -0.308854 1.54544 0
M  V30 37648 C 3446.36 -1.40337 1.87996 0
M  V30 37649 C 3447.38 -1.55871 0.773321 0
M  V30 37650 O 3448.55 -1.70686 1.06903 0
M  V30 37651 C 3445.62 -2.74834 2.11346 0
M  V30 37652 C 3444.68 -2.68352 3.3509 0
M  V30 37653 C 3443.91 -3.96435 3.57316 0
M  V30 37654 O 3444.14 -4.95416 2.82701 0
M  V30 37655 O 3443.07 -3.98803 4.50821 0
M  V30 37656 H 3446.9 -1.14971 2.81097 0
M  V30 37657 H 3444.48 -0.504211 1.40635 0
M  V30 37658 H 3446.36 -3.54425 2.27949 0
M  V30 37659 H 3445.04 -3.0006 1.21432 0
M  V30 37660 H 3443.94 -1.87261 3.23858 0
M  V30 37661 H 3445.28 -2.4808 4.25108 0
M  V30 37662 N 3446.93 -1.46867 -0.571659 0
M  V30 37663 C 3448.21 -1.43226 -1.33213 0
M  V30 37664 C 3448.59 -0.121532 -2.1075 0
M  V30 37665 O 3447.93 0.896966 -2.10159 0
M  V30 37666 C 3448.14 -2.66886 -2.24884 0
M  V30 37667 C 3449.49 -3.13498 -2.86363 0
M  V30 37668 O 3450.52 -2.67513 -2.35192 0
M  V30 37669 O 3449.38 -3.93404 -3.79335 0
M  V30 37670 H 3446.47 -0.570099 -0.599096 0
M  V30 37671 H 3449.02 -1.59048 -0.59176 0
M  V30 37672 H 3447.79 -3.5383 -1.67093 0
M  V30 37673 H 3447.41 -2.53578 -3.06241 0
M  V30 37674 N 3448.41 0.817212 -1.34757 0
M  V30 37675 C 3449.34 1.93385 -1.21151 0
M  V30 37676 C 3450.32 1.62281 -0.101817 0
M  V30 37677 O 3451.5 1.86585 -0.268001 0
M  V30 37678 C 3448.63 3.27519 -0.863067 0
M  V30 37679 C 3447.68 3.7758 -1.98332 0
M  V30 37680 S 3448.51 3.96654 -3.59758 0
M  V30 37681 C 3449.66 5.33707 -3.26968 0
M  V30 37682 H 3449.9 2.0463 -2.1567 0
M  V30 37683 H 3447.43 0.97342 -1.19849 0
M  V30 37684 H 3449.39 4.05015 -0.668825 0
M  V30 37685 H 3448.05 3.14035 0.0638865 0
M  V30 37686 H 3447.24 4.747 -1.6934 0
M  V30 37687 H 3446.84 3.07049 -2.13534 0
M  V30 37688 H 3449.14 6.17324 -2.79137 0
M  V30 37689 H 3450.08 5.67685 -4.23248 0
M  V30 37690 H 3450.49 4.99489 -2.63004 0
M  V30 37691 N 3449.89 1.1858 1.0381 0
M  V30 37692 C 3451.13 0.977102 1.76453 0
M  V30 37693 C 3451.45 -0.493931 1.89261 0
M  V30 37694 O 3452.65 -0.82121 2.58783 0
M  V30 37695 C 3451.11 1.69923 3.17261 0
M  V30 37696 C 3450.72 3.20974 3.12537 0
M  V30 37697 C 3452.46 1.57344 3.94263 0
M  V30 37698 C 3450.37 3.85815 4.48219 0
M  V30 37699 H 3449.3 0.36196 0.661438 0
M  V30 37700 H 3451.95 1.4198 1.16249 0
M  V30 37701 H 3450.33 1.18431 3.77876 0
M  V30 37702 H 3451.51 3.79511 2.61358 0
M  V30 37703 H 3449.82 3.33724 2.49033 0
M  V30 37704 H 3452.42 2.03146 4.94607 0
M  V30 37705 H 3452.76 0.526106 4.12962 0
M  V30 37706 H 3453.29 2.0613 3.40228 0
M  V30 37707 H 3450.03 4.90606 4.34725 0
M  V30 37708 H 3449.55 3.32066 4.99492 0
M  V30 37709 H 3451.23 3.88828 5.17128 0
M  V30 37710 N 3451.36 -1.22766 0.988245 0
M  V30 37711 C 3452.61 -1.90701 0.656974 0
M  V30 37712 C 3452.93 -1.77857 -0.814027 0
M  V30 37713 O 3454.13 -2.40665 -1.25669 0
M  V30 37714 C 3452.59 -3.41881 1.12451 0
M  V30 37715 C 3452.2 -3.63371 2.62041 0
M  V30 37716 C 3453.94 -4.15545 0.86735 0
M  V30 37717 C 3451.85 -5.08228 3.02421 0
M  V30 37718 H 3450.78 -0.714101 0.242024 0
M  V30 37719 H 3453.43 -1.39067 1.19719 0
M  V30 37720 H 3451.81 -3.9267 0.512455 0
M  V30 37721 H 3452.98 -3.23095 3.28552 0
M  V30 37722 H 3451.3 -3.03032 2.85588 0
M  V30 37723 H 3453.9 -5.22301 1.1448 0
M  V30 37724 H 3454.24 -4.15836 -0.196538 0
M  V30 37725 H 3454.77 -3.70769 1.44137 0
M  V30 37726 H 3451.51 -5.13073 4.07966 0
M  V30 37727 H 3451.03 -5.49424 2.4061 0
M  V30 37728 H 3452.71 -5.76618 2.93462 0
M  V30 37729 N 3452.84 -0.760864 -1.38017 0
M  V30 37730 C 3454.12 -0.245471 -1.94054 0
M  V30 37731 C 3454.5 1.25758 -1.69553 0
M  V30 37732 O 3453.85 2.03555 -1.03815 0
M  V30 37733 C 3454.06 -0.607046 -3.4368 0
M  V30 37734 C 3455.4 -0.570747 -4.20747 0
M  V30 37735 O 3456.43 -0.545777 -3.51994 0
M  V30 37736 O 3455.29 -0.588139 -5.43326 0
M  V30 37737 H 3452.38 -0.0535752 -0.825263 0
M  V30 37738 H 3454.93 -0.841479 -1.47368 0
M  V30 37739 H 3453.7 -1.64482 -3.55051 0
M  V30 37740 H 3453.32 0.0165877 -3.97597 0
M  V30 37741 N 3454.32 1.49102 -0.510519 0
M  V30 37742 C 3455.54 2.07379 0.0292749 0
M  V30 37743 C 3455.97 1.36715 1.29192 0
M  V30 37744 O 3455.33 0.426869 1.76203 0
M  V30 37745 C 3455.38 3.59689 0.256227 0
M  V30 37746 O 3454.48 3.90399 1.329 0
M  V30 37747 H 3453.82 0.663301 -0.0304565 0
M  V30 37748 H 3456.35 1.9178 -0.712866 0
M  V30 37749 H 3456.36 4.05109 0.484843 0
M  V30 37750 H 3455.04 4.10529 -0.666235 0
M  V30 37751 H 3453.61 3.56779 1.08458 0
M  V30 37752 N 3455.8 0.244768 1.55688 0
M  V30 37753 C 3456.73 -0.64991 2.24273 0
M  V30 37754 C 3457.71 -1.18298 1.22228 0
M  V30 37755 O 3458.89 -1.22271 1.50875 0
M  V30 37756 C 3456.02 -1.84793 2.94056 0
M  V30 37757 C 3454.98 -1.44772 4.02772 0
M  V30 37758 C 3454.3 -2.72639 4.59969 0
M  V30 37759 C 3455.6 -0.620379 5.18603 0
M  V30 37760 H 3457.3 -0.0780128 2.99298 0
M  V30 37761 H 3454.84 -0.0360816 1.43955 0
M  V30 37762 H 3456.8 -2.47945 3.40736 0
M  V30 37763 H 3455.52 -2.44517 2.16516 0
M  V30 37764 H 3454.18 -0.839546 3.56857 0
M  V30 37765 H 3453.83 -3.30557 3.79132 0
M  V30 37766 H 3453.53 -2.46586 5.33356 0
M  V30 37767 H 3455.05 -3.36694 5.09382 0
M  V30 37768 H 3456.47 -1.15616 5.61521 0
M  V30 37769 H 3454.86 -0.455992 5.98365 0
M  V30 37770 H 3455.93 0.367883 4.83502 0
M  V30 37771 N 3457.28 -1.57574 -0.0283712 0
M  V30 37772 C 3458.21 -2.03405 -1.05637 0
M  V30 37773 C 3459.22 -0.946976 -1.32424 0
M  V30 37774 O 3460.41 -1.22427 -1.29899 0
M  V30 37775 C 3457.51 -2.39494 -2.39783 0
M  V30 37776 C 3456.68 -3.70589 -2.32342 0
M  V30 37777 C 3455.74 -3.93859 -3.48943 0
M  V30 37778 O 3454.77 -4.64906 -3.28406 0
M  V30 37779 N 3455.97 -3.39552 -4.70834 0
M  V30 37780 H 3458.73 -2.92212 -0.665737 0
M  V30 37781 H 3456.3 -1.60449 -0.216302 0
M  V30 37782 H 3458.29 -2.52198 -3.16509 0
M  V30 37783 H 3456.86 -1.56353 -2.70689 0
M  V30 37784 H 3456.08 -3.68231 -1.40711 0
M  V30 37785 H 3457.37 -4.56586 -2.24513 0
M  V30 37786 H 3456.76 -2.81965 -4.9042 0
M  V30 37787 H 3455.32 -3.57634 -5.44923 0
M  V30 37788 N 3458.75 0.300654 -1.54706 0
M  V30 37789 C 3460 1.03342 -1.75191 0
M  V30 37790 C 3460.35 1.84915 -0.53143 0
M  V30 37791 O 3459.65 1.85589 0.476161 0
M  V30 37792 C 3459.84 1.97042 -2.98176 0
M  V30 37793 C 3459.67 1.24686 -4.32069 0
M  V30 37794 C 3458.44 0.97388 -4.95826 0
M  V30 37795 C 3460.64 0.651134 -5.10161 0
M  V30 37796 N 3458.62 0.220629 -6.13503 0
M  V30 37797 C 3459.99 0.0306692 -6.19992 0
M  V30 37798 C 3462.05 0.556219 -4.94783 0
M  V30 37799 C 3460.75 -0.675529 -7.16121 0
M  V30 37800 C 3462.78 -0.136325 -5.91243 0
M  V30 37801 C 3462.14 -0.74564 -7.00442 0
M  V30 37802 H 3458.24 0.361074 -0.693649 0
M  V30 37803 H 3460.82 0.312012 -1.92184 0
M  V30 37804 H 3458.99 2.66434 -2.82609 0
M  V30 37805 H 3460.72 2.63474 -3.07187 0
M  V30 37806 H 3457.48 1.27212 -4.56195 0
M  V30 37807 H 3457.9 -0.142521 -6.7685 0
M  V30 37808 H 3462.54 1.013 -4.10485 0
M  V30 37809 H 3460.26 -1.14408 -7.9996 0
M  V30 37810 H 3463.85 -0.209713 -5.81422 0
M  V30 37811 H 3462.73 -1.27301 -7.73799 0
M  V30 37812 N 3460.23 1.47168 0.563863 0
M  V30 37813 C 3461.51 1.4393 1.32452 0
M  V30 37814 C 3461.89 0.132707 2.10682 0
M  V30 37815 O 3461.24 -0.885808 2.10632 0
M  V30 37816 C 3461.45 2.68075 2.23465 0
M  V30 37817 C 3462.8 3.15013 2.84697 0
M  V30 37818 O 3463.82 2.68756 2.3377 0
M  V30 37819 O 3462.68 3.9541 3.77244 0
M  V30 37820 H 3459.77 0.573268 0.596064 0
M  V30 37821 H 3462.32 1.5936 0.583317 0
M  V30 37822 H 3461.09 3.54711 1.65214 0
M  V30 37823 H 3460.71 2.55199 3.04892 0
M  V30 37824 N 3461.71 -0.810054 1.35188 0
M  V30 37825 C 3462.99 -1.55363 1.18835 0
M  V30 37826 C 3463.37 -2.098 -0.233919 0
M  V30 37827 O 3462.72 -1.92123 -1.23698 0
M  V30 37828 C 3462.93 -2.66488 2.25355 0
M  V30 37829 C 3464.27 -3.34919 2.60987 0
M  V30 37830 O 3465.3 -2.76756 2.24243 0
M  V30 37831 O 3464.16 -4.39984 3.24155 0
M  V30 37832 H 3461.25 -0.686284 0.461458 0
M  V30 37833 H 3463.8 -0.850315 1.4686 0
M  V30 37834 H 3462.57 -2.2411 3.20765 0
M  V30 37835 H 3462.19 -3.44458 1.98581 0
M  V30 37836 N 3463.19 -1.19129 -1.0318 0
M  V30 37837 C 3464.14 -0.894209 -2.09733 0
M  V30 37838 C 3465.12 0.139777 -1.60292 0
M  V30 37839 O 3466.31 -0.065508 -1.76879 0
M  V30 37840 C 3463.44 -0.431478 -3.40578 0
M  V30 37841 C 3462.53 -1.49804 -3.96761 0
M  V30 37842 N 3462.92 -2.71675 -4.26645 0
M  V30 37843 C 3461.22 -1.36064 -4.24738 0
M  V30 37844 C 3461.92 -3.4036 -4.71731 0
M  V30 37845 N 3460.9 -2.67751 -4.73086 0
M  V30 37846 H 3464.7 -1.82051 -2.30726 0
M  V30 37847 H 3462.21 -1.08302 -1.21014 0
M  V30 37848 H 3464.21 -0.200113 -4.16419 0
M  V30 37849 H 3462.87 0.488376 -3.21006 0
M  V30 37850 H 3463.88 -3.08464 -4.16017 0
M  V30 37851 H 3460.56 -0.50402 -4.14446 0
M  V30 37852 H 3461.95 -4.44563 -5.03799 0
M  V30 37853 N 3464.67 1.2224 -0.994741 0
M  V30 37854 C 3466.08 1.43146 -0.705787 0
M  V30 37855 C 3466.28 1.88087 0.722875 0
M  V30 37856 O 3465.34 2.03591 1.49355 0
M  V30 37857 C 3466.65 2.47142 -1.71293 0
M  V30 37858 C 3468.2 2.60939 -1.72858 0
M  V30 37859 C 3468.67 3.68158 -2.7244 0
M  V30 37860 N 3470.17 3.75618 -2.71045 0
M  V30 37861 C 3470.9 4.58178 -3.44762 0
M  V30 37862 N 3470.4 5.44716 -4.28084 0
M  V30 37863 N 3472.19 4.52506 -3.33459 0
M  V30 37864 H 3464.34 0.913758 -1.9174 0
M  V30 37865 H 3466.6 0.463389 -0.827028 0
M  V30 37866 H 3466.31 2.2107 -2.73534 0
M  V30 37867 H 3466.18 3.45776 -1.50727 0
M  V30 37868 H 3468.57 2.86354 -0.713135 0
M  V30 37869 H 3468.65 1.62574 -1.97493 0
M  V30 37870 H 3468.3 3.4349 -3.74135 0
M  V30 37871 H 3468.23 4.66097 -2.45074 0
M  V30 37872 H 3470.72 3.13786 -2.10586 0
M  V30 37873 H 3471.03 6.0474 -4.81154 0
M  V30 37874 H 3469.37 5.44292 -4.32171 0
M  V30 37875 H 3472.57 3.83925 -2.67804 0
M  V30 37876 H 3472.74 5.16616 -3.91167 0
M  V30 37877 N 3466.14 0.768172 1.37611 0
M  V30 37878 C 3467.05 0.15269 2.34103 0
M  V30 37879 C 3468.07 -0.683783 1.60001 0
M  V30 37880 O 3469.25 -0.604538 1.92113 0
M  V30 37881 C 3466.31 -0.718894 3.39165 0
M  V30 37882 C 3465.37 0.133625 4.29092 0
M  V30 37883 C 3464.61 -0.696454 5.29136 0
M  V30 37884 O 3464.83 -1.93374 5.36622 0
M  V30 37885 O 3463.76 -0.107546 6.01804 0
M  V30 37886 H 3467.59 0.94995 2.88461 0
M  V30 37887 H 3465.17 0.529277 1.3971 0
M  V30 37888 H 3467.06 -1.21658 4.03457 0
M  V30 37889 H 3465.73 -1.4944 2.8714 0
M  V30 37890 H 3464.64 0.677592 3.67912 0
M  V30 37891 H 3465.97 0.872133 4.84412 0
M  V30 37892 N 3467.62 -1.48829 0.518419 0
M  V30 37893 C 3468.53 -2.33213 -0.25477 0
M  V30 37894 C 3469.55 -1.45753 -0.950375 0
M  V30 37895 O 3470.72 -1.78751 -0.927901 0
M  V30 37896 C 3467.79 -3.21605 -1.29503 0
M  V30 37897 C 3466.85 -4.2493 -0.611012 0
M  V30 37898 C 3466.08 -5.09098 -1.60171 0
M  V30 37899 O 3466.31 -4.95057 -2.83328 0
M  V30 37900 O 3465.24 -5.90861 -1.14745 0
M  V30 37901 H 3469.07 -3.00548 0.436382 0
M  V30 37902 H 3466.65 -1.46762 0.279496 0
M  V30 37903 H 3468.53 -3.76313 -1.89648 0
M  V30 37904 H 3467.21 -2.56944 -1.9688 0
M  V30 37905 H 3466.12 -3.74087 0.0306296 0
M  V30 37906 H 3467.45 -4.92196 0.0206114 0
M  V30 37907 N 3469.1 -0.253021 -1.55556 0
M  V30 37908 C 3470.33 0.373986 -2.03492 0
M  V30 37909 C 3470.74 1.51092 -1.1321 0
M  V30 37910 O 3470.1 1.81901 -0.147737 0
M  V30 37911 C 3470.15 0.875986 -3.50726 0
M  V30 37912 O 3469.87 -0.215651 -4.37569 0
M  V30 37913 C 3471.37 1.57306 -4.14451 0
M  V30 37914 H 3468.59 0.0881527 -0.665184 0
M  V30 37915 H 3471.14 -0.378671 -2.00964 0
M  V30 37916 H 3469.29 1.5788 -3.53769 0
M  V30 37917 H 3469.71 0.166532 -5.24236 0
M  V30 37918 H 3471.18 1.87596 -5.19145 0
M  V30 37919 H 3471.66 2.49712 -3.61304 0
M  V30 37920 H 3472.26 0.914662 -4.15348 0
M  V30 37921 N 3470.58 1.57587 0.0200142 0
M  V30 37922 C 3471.49 2.10556 1.03456 0
M  V30 37923 C 3472.5 1.04622 1.39033 0
M  V30 37924 O 3473.68 1.3641 1.4817 0
M  V30 37925 C 3470.75 2.5819 2.31384 0
M  V30 37926 C 3469.81 3.78644 2.02305 0
M  V30 37927 C 3469.04 4.23996 3.24134 0
M  V30 37928 O 3469.26 3.68811 4.35126 0
M  V30 37929 O 3468.2 5.16348 3.09303 0
M  V30 37930 H 3472.02 2.97421 0.614367 0
M  V30 37931 H 3469.61 1.47499 0.237579 0
M  V30 37932 H 3471.49 2.89117 3.06577 0
M  V30 37933 H 3470.16 1.74433 2.72681 0
M  V30 37934 H 3469.07 3.52722 1.24652 0
M  V30 37935 H 3470.4 4.63413 1.65858 0
M  V30 37936 N 3472.06 -0.292445 1.54863 0
M  V30 37937 C 3472.97 -1.38335 1.89474 0
M  V30 37938 C 3473.98 -1.55042 0.78981 0
M  V30 37939 O 3475.16 -1.69542 1.08708 0
M  V30 37940 C 3472.22 -2.72577 2.14249 0
M  V30 37941 C 3471.28 -2.64783 3.37918 0
M  V30 37942 C 3470.52 -3.92623 3.61501 0
M  V30 37943 O 3470.74 -4.92389 2.87939 0
M  V30 37944 O 3469.67 -3.93999 4.55026 0
M  V30 37945 H 3473.5 -1.11984 2.823 0
M  V30 37946 H 3471.09 -0.489267 1.41161 0
M  V30 37947 H 3472.97 -3.51987 2.31696 0
M  V30 37948 H 3471.64 -2.98755 1.24608 0
M  V30 37949 H 3470.55 -1.83815 3.25826 0
M  V30 37950 H 3471.88 -2.43557 4.27716 0
M  V30 37951 N 3473.53 -1.47465 -0.55605 0
M  V30 37952 C 3474.46 -1.62918 -1.67273 0
M  V30 37953 C 3475.45 -0.47859 -1.63228 0
M  V30 37954 O 3476.63 -0.708064 -1.80832 0
M  V30 37955 C 3473.76 -1.64431 -3.05908 0
M  V30 37956 C 3472.71 -2.78728 -3.24799 0
M  V30 37957 C 3472.04 -2.65315 -4.64233 0
M  V30 37958 C 3473.34 -4.20307 -3.10063 0
M  V30 37959 H 3475.03 -2.56399 -1.54596 0
M  V30 37960 H 3472.58 -1.23392 -0.742315 0
M  V30 37961 H 3474.53 -1.73832 -3.83875 0
M  V30 37962 H 3473.26 -0.675109 -3.19546 0
M  V30 37963 H 3471.92 -2.68839 -2.49241 0
M  V30 37964 H 3471.56 -1.6642 -4.74672 0
M  V30 37965 H 3471.26 -3.41994 -4.77822 0
M  V30 37966 H 3472.79 -2.76646 -5.44334 0
M  V30 37967 H 3474.2 -4.31166 -3.77847 0
M  V30 37968 H 3472.6 -4.97782 -3.35161 0
M  V30 37969 H 3473.67 -4.38593 -2.06796 0
M  V30 37970 N 3475.01 0.802873 -1.35616 0
M  V30 37971 C 3475.95 1.92089 -1.23195 0
M  V30 37972 C 3476.92 1.62164 -0.119023 0
M  V30 37973 O 3478.11 1.8629 -0.287776 0
M  V30 37974 C 3475.24 3.26585 -0.897756 0
M  V30 37975 C 3474.28 3.75455 -2.02325 0
M  V30 37976 S 3475.11 3.92816 -3.63945 0
M  V30 37977 C 3476.27 5.30209 -3.3261 0
M  V30 37978 H 3476.5 2.02331 -2.17829 0
M  V30 37979 H 3474.04 0.960654 -1.20875 0
M  V30 37980 H 3475.99 4.04283 -0.711745 0
M  V30 37981 H 3474.66 3.14085 0.0305753 0
M  V30 37982 H 3473.85 4.72877 -1.74366 0
M  V30 37983 H 3473.45 3.04767 -2.16779 0
M  V30 37984 H 3475.74 6.14329 -2.85669 0
M  V30 37985 H 3476.69 5.63164 -4.29246 0
M  V30 37986 H 3477.09 4.96671 -2.68287 0
M  V30 37987 N 3476.49 1.19674 1.02547 0
M  V30 37988 C 3477.91 0.949692 1.28269 0
M  V30 37989 C 3478.11 -0.375955 1.97962 0
M  V30 37990 O 3477.16 -1.10664 2.26957 0
M  V30 37991 C 3478.48 2.12611 2.12643 0
M  V30 37992 C 3480.02 2.16611 2.2594 0
M  V30 37993 C 3480.5 3.33713 3.13687 0
M  V30 37994 N 3481.99 3.33671 3.21275 0
M  V30 37995 C 3482.73 4.20926 3.8937 0
M  V30 37996 N 3482.22 5.18342 4.59666 0
M  V30 37997 N 3484.01 4.08793 3.85804 0
M  V30 37998 H 3476.17 2.04959 0.557268 0
M  V30 37999 H 3478.43 0.896394 0.308515 0
M  V30 38000 H 3478.13 3.08566 1.6876 0
M  V30 38001 H 3478.01 2.0996 3.13363 0
M  V30 38002 H 3480.4 1.21225 2.69051 0
M  V30 38003 H 3480.48 2.23314 1.24758 0
M  V30 38004 H 3480.12 4.29381 2.71283 0
M  V30 38005 H 3480.05 3.24247 4.14935 0
M  V30 38006 H 3482.54 2.63157 2.71214 0
M  V30 38007 H 3482.85 5.81263 5.09267 0
M  V30 38008 H 3481.2 5.22288 4.5852 0
M  V30 38009 H 3484.39 3.31963 3.30028 0
M  V30 38010 H 3484.56 4.77007 4.38599 0
M  V30 38011 N 3477.97 -1.21711 1.00121 0
M  V30 38012 C 3478.92 -2.23942 0.558428 0
M  V30 38013 C 3479.89 -1.60869 -0.413547 0
M  V30 38014 O 3481.07 -1.88158 -0.316445 0
M  V30 38015 C 3478.21 -3.44916 -0.112558 0
M  V30 38016 C 3477.32 -4.22475 0.902145 0
M  V30 38017 C 3476.46 -5.30809 0.203815 0
M  V30 38018 C 3475.5 -6.00095 1.20632 0
M  V30 38019 N 3474.64 -7.00053 0.53573 0
M  V30 38020 H 3479.48 -2.61179 1.4349 0
M  V30 38021 H 3477.01 -1.28354 0.718594 0
M  V30 38022 H 3478.97 -4.13965 -0.518577 0
M  V30 38023 H 3477.6 -3.08419 -0.952773 0
M  V30 38024 H 3476.65 -3.52643 1.42643 0
M  V30 38025 H 3477.96 -4.70183 1.66521 0
M  V30 38026 H 3477.12 -6.06149 -0.258508 0
M  V30 38027 H 3475.86 -4.84097 -0.591688 0
M  V30 38028 H 3474.86 -5.2353 1.67919 0
M  V30 38029 H 3476.09 -6.48894 2.00284 0
M  V30 38030 H 3474.03 -6.5556 -0.240185 0
M  V30 38031 H 3473.95 -7.45809 1.23711 0
M  V30 38032 H 3475.22 -7.7944 0.0964859 0
M  V30 38033 N 3479.45 -0.775459 -1.37202 0
M  V30 38034 C 3480.68 -0.352451 -2.03571 0
M  V30 38035 C 3481.09 1.03142 -1.58614 0
M  V30 38036 O 3480.43 1.67036 -0.764507 0
M  V30 38037 C 3480.49 -0.321089 -3.58063 0
M  V30 38038 C 3480.15 -1.65017 -4.26167 0
M  V30 38039 C 3481.15 -2.60326 -4.50029 0
M  V30 38040 C 3478.84 -1.92563 -4.63923 0
M  V30 38041 C 3480.83 -3.81385 -5.10709 0
M  V30 38042 C 3478.52 -3.13892 -5.24323 0
M  V30 38043 C 3479.52 -4.08123 -5.47654 0
M  V30 38044 O 3479.2 -5.27315 -6.0679 0
M  V30 38045 H 3478.94 -0.14517 -0.660228 0
M  V30 38046 H 3481.49 -1.05151 -1.76444 0
M  V30 38047 H 3479.72 0.434372 -3.84253 0
M  V30 38048 H 3481.41 0.0753528 -4.0583 0
M  V30 38049 H 3482.17 -2.40328 -4.21269 0
M  V30 38050 H 3478.05 -1.20044 -4.45096 0
M  V30 38051 H 3481.6 -4.54949 -5.28836 0
M  V30 38052 H 3477.49 -3.33774 -5.52508 0
M  V30 38053 H 3478.26 -5.2819 -6.25266 0
M  V30 38054 N 3480.93 1.48552 -0.526305 0
M  V30 38055 C 3481.84 2.33344 0.242399 0
M  V30 38056 C 3482.85 1.46255 0.942632 0
M  V30 38057 O 3484.03 1.79241 0.918408 0
M  V30 38058 C 3481.09 3.22287 1.27796 0
M  V30 38059 C 3480.15 4.25248 0.588468 0
M  V30 38060 C 3479.39 5.0994 1.57469 0
M  V30 38061 O 3479.61 4.96553 2.80698 0
M  V30 38062 O 3478.54 5.91462 1.1161 0
M  V30 38063 H 3482.37 3.00313 -0.452315 0
M  V30 38064 H 3479.95 1.46612 -0.287275 0
M  V30 38065 H 3481.84 3.77314 1.87649 0
M  V30 38066 H 3480.51 2.57984 1.95514 0
M  V30 38067 H 3479.42 3.74066 -0.0504679 0
M  V30 38068 H 3480.75 4.92178 -0.0467135 0
M  V30 38069 N 3482.4 0.261267 1.55419 0
M  V30 38070 C 3483.37 -0.618972 2.20684 0
M  V30 38071 C 3484.37 -1.09189 1.18044 0
M  V30 38072 O 3485.56 -0.994295 1.43036 0
M  V30 38073 C 3482.69 -1.85237 2.86182 0
M  V30 38074 H 3483.88 -0.0493397 2.99859 0
M  V30 38075 H 3481.43 0.0117962 1.56296 0
M  V30 38076 H 3482.17 -2.46287 2.10982 0
M  V30 38077 H 3481.95 -1.52132 3.61384 0
M  V30 38078 H 3483.44 -2.47863 3.36086 0
M  V30 38079 N 3483.88 -1.57596 -0.0116567 0
M  V30 38080 C 3485.3 -1.5531 -0.367575 0
M  V30 38081 C 3485.5 -0.98965 -1.75523 0
M  V30 38082 O 3484.55 -0.618332 -2.44812 0
M  V30 38083 C 3485.87 -2.9963 -0.253479 0
M  V30 38084 C 3487.41 -3.11263 -0.32928 0
M  V30 38085 C 3487.89 -4.57347 -0.24444 0
M  V30 38086 N 3489.38 -4.6221 -0.3027 0
M  V30 38087 C 3490.12 -5.72809 -0.260214 0
M  V30 38088 N 3489.61 -6.92594 -0.169002 0
M  V30 38089 N 3491.4 -5.61238 -0.311224 0
M  V30 38090 H 3483.56 -1.92565 0.896238 0
M  V30 38091 H 3485.82 -0.883982 0.342461 0
M  V30 38092 H 3485.52 -3.44647 0.7008 0
M  V30 38093 H 3485.4 -3.62573 -1.04023 0
M  V30 38094 H 3487.79 -2.66183 -1.274 0
M  V30 38095 H 3487.87 -2.51119 0.487128 0
M  V30 38096 H 3487.51 -5.03099 0.696685 0
M  V30 38097 H 3487.44 -5.15423 -1.07918 0
M  V30 38098 H 3489.93 -3.76035 -0.375001 0
M  V30 38099 H 3490.24 -7.72669 -0.14216 0
M  V30 38100 H 3488.59 -6.94869 -0.134797 0
M  V30 38101 H 3491.78 -4.6655 -0.380596 0
M  V30 38102 H 3491.95 -6.47418 -0.274647 0
M  V30 38103 N 3485.36 0.284228 -1.55016 0
M  V30 38104 C 3486.29 1.35546 -1.9013 0
M  V30 38105 C 3487.27 1.52081 -0.76194 0
M  V30 38106 O 3488.46 1.6531 -1.01912 0
M  V30 38107 C 3485.59 2.71691 -2.16336 0
M  V30 38108 C 3484.54 2.69901 -3.3217 0
M  V30 38109 C 3483.87 4.09492 -3.43831 0
M  V30 38110 C 3485.17 2.3016 -4.68854 0
M  V30 38111 H 3486.86 1.06406 -2.79854 0
M  V30 38112 H 3484.41 0.510427 -1.3465 0
M  V30 38113 H 3486.36 3.46733 -2.39488 0
M  V30 38114 H 3485.08 3.0239 -1.23401 0
M  V30 38115 H 3483.74 1.97317 -3.08969 0
M  V30 38116 H 3483.39 4.37396 -2.48382 0
M  V30 38117 H 3483.09 4.09193 -4.21705 0
M  V30 38118 H 3484.61 4.8629 -3.69262 0
M  V30 38119 H 3486.03 2.94921 -4.91624 0
M  V30 38120 H 3484.42 2.41042 -5.49562 0
M  V30 38121 H 3485.49 1.25286 -4.68435 0
M  V30 38122 N 3486.84 1.47758 0.548222 0
M  V30 38123 C 3488.07 1.58245 1.32824 0
M  V30 38124 C 3488.48 0.234969 1.87735 0
M  V30 38125 O 3487.82 -0.783261 1.66165 0
M  V30 38126 C 3487.88 2.55502 2.52901 0
M  V30 38127 C 3487.54 4.00993 2.19211 0
M  V30 38128 C 3488.54 4.89215 1.75967 0
M  V30 38129 C 3486.23 4.46396 2.30294 0
M  V30 38130 C 3488.22 6.20863 1.44248 0
M  V30 38131 C 3485.91 5.7807 1.98187 0
M  V30 38132 C 3486.91 6.65125 1.55232 0
M  V30 38133 O 3486.59 7.94351 1.23537 0
M  V30 38134 H 3486.33 0.536806 0.410871 0
M  V30 38135 H 3488.88 1.94165 0.67002 0
M  V30 38136 H 3487.11 2.14667 3.21644 0
M  V30 38137 H 3488.8 2.56019 3.14975 0
M  V30 38138 H 3489.56 4.55382 1.6689 0
M  V30 38139 H 3485.44 3.78837 2.62686 0
M  V30 38140 H 3488.99 6.88769 1.10647 0
M  V30 38141 H 3484.88 6.11443 2.06899 0
M  V30 38142 H 3485.65 8.06938 1.37091 0
M  V30 38143 N 3488.32 -0.79567 1.3604 0
M  V30 38144 C 3489.56 -1.54843 1.29254 0
M  V30 38145 C 3489.88 -1.95181 -0.127892 0
M  V30 38146 O 3491.08 -2.6963 -0.318093 0
M  V30 38147 C 3489.54 -2.79493 2.26741 0
M  V30 38148 C 3489.15 -2.46349 3.74187 0
M  V30 38149 C 3490.89 -3.57486 2.2892 0
M  V30 38150 C 3488.8 -3.67357 4.63469 0
M  V30 38151 H 3487.73 -0.581246 0.48028 0
M  V30 38152 H 3490.38 -0.873664 1.61367 0
M  V30 38153 H 3488.76 -3.48736 1.87614 0
M  V30 38154 H 3489.94 -1.85042 4.22014 0
M  V30 38155 H 3488.25 -1.8158 3.74724 0
M  V30 38156 H 3490.85 -4.47383 2.92836 0
M  V30 38157 H 3491.19 -3.95614 1.29597 0
M  V30 38158 H 3491.72 -2.95215 2.66632 0
M  V30 38159 H 3488.46 -3.34329 5.6383 0
M  V30 38160 H 3487.98 -4.27851 4.20361 0
M  V30 38161 H 3489.66 -4.34459 4.79432 0
M  V30 38162 N 3489.79 -1.20217 -1.0191 0
M  V30 38163 C 3490.72 -0.972598 -2.1228 0
M  V30 38164 C 3491.71 0.097541 -1.6982 0
M  V30 38165 O 3492.89 -0.0594648 -1.94109 0
M  V30 38166 C 3490.02 -0.521145 -3.43368 0
M  V30 38167 C 3488.97 -1.53424 -3.99556 0
M  V30 38168 C 3488.3 -0.939512 -5.26381 0
M  V30 38169 C 3489.6 -2.91726 -4.33236 0
M  V30 38170 H 3491.29 -1.89567 -2.31743 0
M  V30 38171 H 3488.84 -0.91286 -1.11368 0
M  V30 38172 H 3490.79 -0.347786 -4.19962 0
M  V30 38173 H 3489.52 0.437549 -3.23656 0
M  V30 38174 H 3488.18 -1.69492 -3.25066 0
M  V30 38175 H 3487.82 0.0270352 -5.02993 0
M  V30 38176 H 3487.52 -1.6161 -5.64939 0
M  V30 38177 H 3489.05 -0.777166 -6.05634 0
M  V30 38178 H 3490.46 -2.79184 -5.00729 0
M  V30 38179 H 3488.86 -3.56268 -4.82901 0
M  V30 38180 H 3489.93 -3.43639 -3.42112 0
M  V30 38181 N 3491.27 1.21178 -1.00765 0
M  V30 38182 C 3492.2 2.23023 -0.528507 0
M  V30 38183 C 3493.22 1.58199 0.38432 0
M  V30 38184 O 3494.41 1.77548 0.184096 0
M  V30 38185 C 3491.51 3.37965 0.251634 0
M  V30 38186 C 3490.68 4.32378 -0.660914 0
M  V30 38187 C 3489.74 5.26153 0.0700798 0
M  V30 38188 O 3488.76 5.66542 -0.549454 0
M  V30 38189 N 3489.97 5.64637 1.34781 0
M  V30 38190 H 3492.73 2.64761 -1.40433 0
M  V30 38191 H 3490.29 1.35629 -0.884109 0
M  V30 38192 H 3492.28 3.97696 0.749676 0
M  V30 38193 H 3490.85 2.9519 1.02867 0
M  V30 38194 H 3490.07 3.70747 -1.33941 0
M  V30 38195 H 3491.36 4.92388 -1.28186 0
M  V30 38196 H 3490.76 5.3382 1.87223 0
M  V30 38197 H 3489.32 6.26718 1.79075 0
M  V30 38198 N 3492.75 0.782725 1.36789 0
M  V30 38199 C 3493.68 0.13455 2.28805 0
M  V30 38200 C 3494.7 -0.652312 1.4916 0
M  V30 38201 O 3495.88 -0.488596 1.71683 0
M  V30 38202 C 3492.98 -0.832744 3.2851 0
M  V30 38203 C 3492.16 -0.0973667 4.37292 0
M  V30 38204 C 3491.22 -0.979625 5.17001 0
M  V30 38205 O 3490.24 -0.439339 5.67502 0
M  V30 38206 N 3491.44 -2.30467 5.3279 0
M  V30 38207 H 3494.21 0.924923 2.85071 0
M  V30 38208 H 3491.77 0.636038 1.48883 0
M  V30 38209 H 3493.76 -1.42665 3.7872 0
M  V30 38210 H 3492.33 -1.52403 2.72932 0
M  V30 38211 H 3491.55 0.677551 3.88333 0
M  V30 38212 H 3492.84 0.410348 5.07143 0
M  V30 38213 H 3492.24 -2.76785 4.93363 0
M  V30 38214 H 3490.8 -2.84837 5.86269 0
M  V30 38215 N 3494.23 -1.48271 0.534176 0
M  V30 38216 C 3495.19 -2.28184 -0.215601 0
M  V30 38217 C 3496.19 -1.3562 -0.863942 0
M  V30 38218 O 3497.38 -1.58472 -0.723347 0
M  V30 38219 C 3494.51 -3.14623 -1.31246 0
M  V30 38220 H 3495.71 -2.95935 0.486066 0
M  V30 38221 H 3493.26 -1.53581 0.290264 0
M  V30 38222 H 3493.99 -2.51512 -2.04725 0
M  V30 38223 H 3493.78 -3.82717 -0.852639 0
M  V30 38224 H 3495.27 -3.74892 -1.83972 0
M  V30 38225 N 3495.71 -0.269505 -1.55279 0
M  V30 38226 C 3497.12 0.0847867 -1.59375 0
M  V30 38227 C 3497.32 1.55066 -1.28673 0
M  V30 38228 O 3496.38 2.29866 -1.0449 0
M  V30 38229 C 3497.69 -0.284788 -2.99348 0
M  V30 38230 C 3499.24 -0.230942 -3.12147 0
M  V30 38231 C 3499.71 -0.574875 -4.54378 0
M  V30 38232 N 3501.21 -0.526217 -4.60201 0
M  V30 38233 C 3501.94 -0.765209 -5.68271 0
M  V30 38234 N 3501.44 -1.06852 -6.8451 0
M  V30 38235 N 3503.23 -0.694385 -5.57794 0
M  V30 38236 H 3495.38 -1.2252 -1.73501 0
M  V30 38237 H 3497.64 -0.494578 -0.808762 0
M  V30 38238 H 3497.35 -1.30404 -3.26631 0
M  V30 38239 H 3497.22 0.377133 -3.7531 0
M  V30 38240 H 3499.61 0.779014 -2.84632 0
M  V30 38241 H 3499.69 -0.92704 -2.38411 0
M  V30 38242 H 3499.34 -1.58249 -4.82617 0
M  V30 38243 H 3499.27 0.142952 -5.26406 0
M  V30 38244 H 3501.76 -0.301434 -3.76696 0
M  V30 38245 H 3502.07 -1.2377 -7.62824 0
M  V30 38246 H 3500.41 -1.10624 -6.8614 0
M  V30 38247 H 3503.61 -0.457308 -4.65861 0
M  V30 38248 H 3503.78 -0.884026 -6.41942 0
M  V30 38249 N 3497.18 1.576 0.00329885 0
M  V30 38250 C 3498.6 1.55502 0.359333 0
M  V30 38251 C 3498.8 0.998945 1.74995 0
M  V30 38252 O 3497.86 0.631306 2.44481 0
M  V30 38253 C 3499.17 2.9976 0.237585 0
M  V30 38254 C 3500.72 3.11433 0.312769 0
M  V30 38255 C 3501.19 4.5747 0.220182 0
M  V30 38256 N 3502.68 4.62364 0.278184 0
M  V30 38257 C 3503.42 5.72939 0.229833 0
M  V30 38258 N 3502.91 6.92674 0.13227 0
M  V30 38259 N 3504.71 5.61395 0.281456 0
M  V30 38260 H 3496.86 1.92087 -0.906438 0
M  V30 38261 H 3499.12 0.882154 -0.347144 0
M  V30 38262 H 3498.83 3.44271 -0.719068 0
M  V30 38263 H 3498.7 3.6312 1.02098 0
M  V30 38264 H 3501.09 2.66855 1.25987 0
M  V30 38265 H 3501.17 2.50857 -0.500439 0
M  V30 38266 H 3500.81 5.02723 -0.723356 0
M  V30 38267 H 3500.74 5.15988 1.05183 0
M  V30 38268 H 3503.23 3.76228 0.355054 0
M  V30 38269 H 3503.55 7.72734 0.101181 0
M  V30 38270 H 3501.89 6.94931 0.0979444 0
M  V30 38271 H 3505.08 4.66745 0.355849 0
M  V30 38272 H 3505.26 6.47554 0.240309 0
M  V30 38273 N 3498.66 -0.276003 1.55164 0
M  V30 38274 C 3499.94 -1.0291 1.6634 0
M  V30 38275 C 3500.32 -2.04393 0.527912 0
M  V30 38276 O 3499.67 -2.23564 -0.472398 0
M  V30 38277 C 3499.88 -1.6886 3.0543 0
M  V30 38278 C 3501.23 -2.20134 3.63079 0
M  V30 38279 O 3502.25 -1.78852 3.08043 0
M  V30 38280 O 3501.11 -2.95845 4.59497 0
M  V30 38281 H 3498.2 -0.47717 0.675454 0
M  V30 38282 H 3500.75 -0.2721 1.67504 0
M  V30 38283 H 3499.52 -0.953058 3.79516 0
M  V30 38284 H 3499.14 -2.51254 3.08151 0
M  V30 38285 N 3500.14 -1.48046 -0.540378 0
M  V30 38286 C 3501.55 -1.49194 -1.12241 0
M  V30 38287 C 3501.9 -0.255929 -1.94524 0
M  V30 38288 O 3501.03 0.637819 -2.06787 0
M  V30 38289 C 3501.62 -2.70331 -2.04222 0
M  V30 38290 C 3500.18 -2.74384 -2.57663 0
M  V30 38291 C 3499.33 -2.42554 -1.34398 0
M  V30 38292 H 3502.28 -1.55313 -0.326138 0
M  V30 38293 H 3502.3 -2.48258 -2.88354 0
M  V30 38294 H 3501.81 -3.60273 -1.44308 0
M  V30 38295 H 3499.91 -1.88624 -3.21328 0
M  V30 38296 H 3500.03 -3.75535 -2.97507 0
M  V30 38297 H 3498.39 -1.9349 -1.65632 0
M  V30 38298 H 3499.17 -3.34725 -0.762512 0
M  V30 38299 N 3501.62 0.788444 -1.3646 0
M  V30 38300 C 3502.55 1.91539 -1.33549 0
M  V30 38301 C 3503.53 1.68838 -0.206792 0
M  V30 38302 O 3504.71 1.89939 -0.404586 0
M  V30 38303 C 3501.84 3.28575 -1.12498 0
M  V30 38304 C 3500.8 3.65801 -2.22202 0
M  V30 38305 C 3500.12 5.01197 -1.86294 0
M  V30 38306 C 3501.42 3.74283 -3.64293 0
M  V30 38307 H 3503.12 1.94232 -2.27847 0
M  V30 38308 H 3500.66 0.933086 -1.09679 0
M  V30 38309 H 3502.62 4.07033 -1.09096 0
M  V30 38310 H 3501.34 3.26271 -0.146503 0
M  V30 38311 H 3500 2.8964 -2.24732 0
M  V30 38312 H 3499.65 4.95416 -0.870177 0
M  V30 38313 H 3499.35 5.27074 -2.59743 0
M  V30 38314 H 3500.87 5.82075 -1.84449 0
M  V30 38315 H 3502.29 4.42931 -3.63985 0
M  V30 38316 H 3500.68 4.11645 -4.36655 0
M  V30 38317 H 3501.75 2.75364 -3.99128 0
M  V30 38318 N 3503.1 1.20755 1.01271 0
M  V30 38319 C 3504.32 1.04582 1.78522 0
M  V30 38320 C 3504.74 -0.404776 1.8441 0
M  V30 38321 O 3504.1 -1.28098 1.29989 0
M  V30 38322 C 3504.15 1.62728 3.22803 0
M  V30 38323 O 3503.87 3.02111 3.1727 0
M  V30 38324 C 3505.37 1.5156 4.16587 0
M  V30 38325 H 3502.59 0.367684 0.561293 0
M  V30 38326 H 3505.13 1.59927 1.27451 0
M  V30 38327 H 3503.29 1.11494 3.71009 0
M  V30 38328 H 3503.7 3.29773 4.0786 0
M  V30 38329 H 3505.18 1.96999 5.1565 0
M  V30 38330 H 3505.65 0.468735 4.36692 0
M  V30 38331 H 3506.26 2.02004 3.74265 0
M  V30 38332 N 3504.58 -1.20642 1.01406 0
M  V30 38333 C 3505.52 -2.23338 0.582148 0
M  V30 38334 C 3506.49 -1.61299 -0.396462 0
M  V30 38335 O 3507.68 -1.88483 -0.296471 0
M  V30 38336 C 3504.82 -3.45016 -0.0759684 0
M  V30 38337 C 3503.93 -4.21495 0.946903 0
M  V30 38338 C 3503.07 -5.30563 0.260103 0
M  V30 38339 C 3502.1 -5.98782 1.2699 0
M  V30 38340 N 3501.24 -6.99446 0.60995 0
M  V30 38341 H 3506.08 -2.59642 1.46252 0
M  V30 38342 H 3503.62 -1.27584 0.732167 0
M  V30 38343 H 3505.58 -4.14491 -0.474642 0
M  V30 38344 H 3504.21 -3.09412 -0.920007 0
M  V30 38345 H 3503.26 -3.5111 1.46376 0
M  V30 38346 H 3504.57 -4.6839 1.71499 0
M  V30 38347 H 3503.72 -6.06389 -0.194203 0
M  V30 38348 H 3502.46 -4.84698 -0.54031 0
M  V30 38349 H 3501.47 -5.21719 1.73463 0
M  V30 38350 H 3502.69 -6.46733 2.07155 0
M  V30 38351 H 3500.64 -6.55778 -0.170641 0
M  V30 38352 H 3500.56 -7.44455 1.31614 0
M  V30 38353 H 3501.82 -7.79294 0.179151 0
M  V30 38354 N 3506.05 -0.789968 -1.36372 0
M  V30 38355 C 3506.99 -0.146682 -2.2873 0
M  V30 38356 C 3508 0.644392 -1.49504 0
M  V30 38357 O 3509.19 0.479485 -1.7194 0
M  V30 38358 C 3506.29 0.815311 -3.28947 0
M  V30 38359 C 3505.46 0.0741747 -4.37337 0
M  V30 38360 C 3504.52 0.952193 -5.17513 0
M  V30 38361 O 3503.55 0.409237 -5.67727 0
M  V30 38362 N 3504.75 2.27638 -5.34005 0
M  V30 38363 H 3507.51 -0.940028 -2.84576 0
M  V30 38364 H 3505.07 -0.643924 -1.48544 0
M  V30 38365 H 3507.07 1.40654 -3.79471 0
M  V30 38366 H 3505.64 1.50953 -2.73737 0
M  V30 38367 H 3504.86 -0.698136 -3.87969 0
M  V30 38368 H 3506.14 -0.437237 -5.06918 0
M  V30 38369 H 3505.54 2.74164 -4.94824 0
M  V30 38370 H 3504.1 2.81724 -5.87771 0
M  V30 38371 N 3507.53 1.47986 -0.542031 0
M  V30 38372 C 3508.78 2.01697 -0.0102815 0
M  V30 38373 C 3509.09 1.42329 1.34171 0
M  V30 38374 O 3510.3 1.87611 1.96251 0
M  V30 38375 C 3508.76 3.59886 0.0320399 0
M  V30 38376 C 3508.36 4.28242 -1.31579 0
M  V30 38377 C 3510.11 4.21401 0.511982 0
M  V30 38378 C 3508.01 5.78395 -1.2334 0
M  V30 38379 H 3506.94 0.754 -7.34631e-05 0
M  V30 38380 H 3509.6 1.7013 -0.687616 0
M  V30 38381 H 3507.98 3.88348 0.774705 0
M  V30 38382 H 3509.15 4.11439 -2.07497 0
M  V30 38383 H 3507.47 3.7865 -1.73243 0
M  V30 38384 H 3510.06 5.31415 0.591781 0
M  V30 38385 H 3510.41 3.87537 1.52054 0
M  V30 38386 H 3510.94 3.97413 -0.175363 0
M  V30 38387 H 3507.68 6.16853 -2.21748 0
M  V30 38388 H 3507.2 5.97578 -0.515775 0
M  V30 38389 H 3508.88 6.40294 -0.929087 0
M  V30 38390 N 3509.01 0.277736 1.55133 0
M  V30 38391 C 3510.23 -0.344436 2.0452 0
M  V30 38392 C 3510.66 -1.48488 1.15468 0
M  V30 38393 O 3510.02 -1.80646 0.153829 0
M  V30 38394 C 3510.07 -0.800465 3.51603 0
M  V30 38395 O 3509.17 -1.90747 3.65635 0
M  V30 38396 H 3508.51 -0.070811 0.660213 0
M  V30 38397 H 3511.04 0.412799 2.00392 0
M  V30 38398 H 3511.05 -1.09552 3.93017 0
M  V30 38399 H 3509.73 0.0339111 4.15886 0
M  V30 38400 H 3508.3 -1.61475 3.36125 0
M  V30 38401 N 3510.49 -1.57599 0.00505908 0
M  V30 38402 C 3511.76 -1.82022 -0.716047 0
M  V30 38403 C 3512.14 -0.883862 -1.91706 0
M  V30 38404 O 3511.49 0.0662411 -2.28404 0
M  V30 38405 C 3511.7 -3.30642 -1.117 0
M  V30 38406 C 3513.05 -3.96509 -1.51874 0
M  V30 38407 O 3514.07 -3.34995 -1.21065 0
M  V30 38408 O 3512.93 -5.04881 -2.09182 0
M  V30 38409 H 3510.03 -0.749706 -0.349099 0
M  V30 38410 H 3512.57 -1.69672 0.0309008 0
M  V30 38411 H 3511.35 -3.90428 -0.261155 0
M  V30 38412 H 3510.97 -3.4801 -1.92289 0
M  V30 38413 N 3511.97 0.267771 -1.55309 0
M  V30 38414 C 3512.91 1.35098 -1.89344 0
M  V30 38415 C 3513.91 1.50873 -0.770303 0
M  V30 38416 O 3515.11 1.52595 -0.954705 0
M  V30 38417 H 3511.49 0.451941 -0.601043 0
M  V30 38418 H 3513.46 1.03646 -2.79821 0
M  V30 38419 C 3512.21 2.70348 -2.18648 0
M  V30 38420 H 3511.53 2.59003 -3.04561 0
M  V30 38421 H 3512.97 3.45069 -2.46381 0
M  V30 38422 C 3511.43 3.21847 -0.995809 0
M  V30 38423 O 3511.96 4.01023 -0.233107 0
M  V30 38424 N 3510.17 2.79597 -0.792087 0
M  V30 38425 H 3509.71 2.15323 -1.414 0
M  V30 38426 H 3509.67 3.144 0.00294675 0
M  V30 38427 N 3513.44 1.48331 0.532519 0
M  V30 38428 C 3514.38 1.58749 1.65322 0
M  V30 38429 C 3515.39 0.471952 1.55809 0
M  V30 38430 O 3516.58 0.742685 1.62316 0
M  V30 38431 C 3513.68 1.49883 3.03955 0
M  V30 38432 C 3512.85 2.76433 3.38975 0
M  V30 38433 C 3511.91 2.61056 4.56877 0
M  V30 38434 O 3510.94 3.34936 4.60224 0
M  V30 38435 N 3512.14 1.70506 5.54895 0
M  V30 38436 H 3514.9 2.55395 1.56822 0
M  V30 38437 H 3512.46 1.45022 0.719734 0
M  V30 38438 H 3514.46 1.37294 3.807 0
M  V30 38439 H 3513.03 0.612211 3.06546 0
M  V30 38440 H 3512.25 3.03604 2.51433 0
M  V30 38441 H 3513.53 3.60395 3.59156 0
M  V30 38442 H 3512.93 1.0968 5.54966 0
M  V30 38443 H 3511.49 1.63858 6.30868 0
M  V30 38444 N 3514.92 -0.781196 1.36876 0
M  V30 38445 C 3516.17 -1.53463 1.30889 0
M  V30 38446 C 3516.48 -1.95306 -0.107183 0
M  V30 38447 O 3517.69 -2.69952 -0.289478 0
M  V30 38448 C 3516.15 -2.77072 2.29693 0
M  V30 38449 C 3515.75 -2.42366 3.76779 0
M  V30 38450 C 3517.5 -3.55038 2.32698 0
M  V30 38451 C 3515.4 -3.6242 4.67339 0
M  V30 38452 H 3514.33 -0.57612 0.486418 0
M  V30 38453 H 3516.99 -0.8565 1.62285 0
M  V30 38454 H 3515.37 -3.46727 1.91302 0
M  V30 38455 H 3516.54 -1.80556 4.23953 0
M  V30 38456 H 3514.86 -1.77595 3.76628 0
M  V30 38457 H 3517.45 -4.44252 2.97564 0
M  V30 38458 H 3517.8 -3.94217 1.33786 0
M  V30 38459 H 3518.33 -2.92371 2.69748 0
M  V30 38460 H 3515.07 -3.2833 5.67344 0
M  V30 38461 H 3514.59 -4.23368 4.24876 0
M  V30 38462 H 3516.27 -4.29349 4.84013 0
M  V30 38463 N 3516.4 -1.21291 -1.0063 0
M  V30 38464 C 3517.33 -0.995058 -2.11236 0
M  V30 38465 C 3518.31 0.0795238 -1.69914 0
M  V30 38466 O 3519.5 -0.0800493 -1.94035 0
M  V30 38467 C 3516.63 -0.557535 -3.42796 0
M  V30 38468 C 3515.58 -1.57653 -3.97906 0
M  V30 38469 C 3514.91 -0.995289 -5.25355 0
M  V30 38470 C 3516.21 -2.96304 -4.30117 0
M  V30 38471 H 3517.9 -1.92014 -2.29719 0
M  V30 38472 H 3515.45 -0.924621 -1.10394 0
M  V30 38473 H 3517.4 -0.39231 -4.1957 0
M  V30 38474 H 3516.12 0.403196 -3.24102 0
M  V30 38475 H 3514.78 -1.7293 -3.2325 0
M  V30 38476 H 3514.43 -0.0263154 -5.02993 0
M  V30 38477 H 3514.13 -1.67593 -5.63193 0
M  V30 38478 H 3515.65 -0.841357 -6.04776 0
M  V30 38479 H 3517.07 -2.84479 -4.97739 0
M  V30 38480 H 3515.46 -3.6137 -4.79095 0
M  V30 38481 H 3516.53 -3.47248 -3.38448 0
M  V30 38482 N 3517.88 1.20103 -1.02045 0
M  V30 38483 C 3518.81 2.2527 -0.61446 0
M  V30 38484 C 3519.79 1.65974 0.37239 0
M  V30 38485 O 3520.97 1.92492 0.256971 0
M  V30 38486 C 3518.1 3.47272 0.0441474 0
M  V30 38487 C 3517.06 4.19187 -0.864092 0
M  V30 38488 C 3516.38 5.34653 -0.0710491 0
M  V30 38489 C 3517.68 4.74908 -2.17394 0
M  V30 38490 H 3519.38 2.59484 -1.4936 0
M  V30 38491 H 3516.92 1.2473 -0.719612 0
M  V30 38492 H 3518.88 4.20028 0.339751 0
M  V30 38493 H 3517.6 3.12233 0.958027 0
M  V30 38494 H 3516.26 3.48301 -1.14376 0
M  V30 38495 H 3515.91 4.95858 0.844601 0
M  V30 38496 H 3515.61 5.83699 -0.675933 0
M  V30 38497 H 3517.13 6.10211 0.218011 0
M  V30 38498 H 3518.55 5.39463 -1.94044 0
M  V30 38499 H 3516.94 5.34407 -2.73001 0
M  V30 38500 H 3518.01 3.93438 -2.83434 0
M  V30 38501 N 3519.36 0.797189 1.35951 0
M  V30 38502 C 3520.29 0.15881 2.28649 0
M  V30 38503 C 3521.3 -0.636455 1.49844 0
M  V30 38504 O 3522.49 -0.47036 1.72191 0
M  V30 38505 C 3519.59 -0.797855 3.29374 0
M  V30 38506 C 3518.76 -0.0509806 4.3737 0
M  V30 38507 C 3517.82 -0.924735 5.18011 0
M  V30 38508 O 3516.85 -0.379123 5.67936 0
M  V30 38509 N 3518.05 -2.24803 5.35204 0
M  V30 38510 H 3520.82 0.955106 2.84074 0
M  V30 38511 H 3518.38 0.651793 1.482 0
M  V30 38512 H 3520.37 -1.3864 3.80212 0
M  V30 38513 H 3518.94 -1.49499 2.74534 0
M  V30 38514 H 3518.16 0.718701 3.87593 0
M  V30 38515 H 3519.45 0.464114 5.06679 0
M  V30 38516 H 3518.84 -2.71536 4.96271 0
M  V30 38517 H 3517.4 -2.78603 5.89257 0
M  V30 38518 N 3520.83 -1.47696 0.549872 0
M  V30 38519 C 3521.74 -2.337 -0.205245 0
M  V30 38520 C 3522.76 -1.47736 -0.919245 0
M  V30 38521 O 3523.94 -1.80679 -0.889776 0
M  V30 38522 C 3521 -3.2428 -1.22652 0
M  V30 38523 C 3520.06 -4.2613 -0.52074 0
M  V30 38524 C 3519.3 -5.12381 -1.49336 0
M  V30 38525 O 3519.52 -5.00956 -2.72763 0
M  V30 38526 O 3518.45 -5.93162 -1.02186 0
M  V30 38527 H 3522.28 -2.99555 0.500035 0
M  V30 38528 H 3519.86 -1.46136 0.310563 0
M  V30 38529 H 3521.75 -3.80251 -1.81623 0
M  V30 38530 H 3520.42 -2.61062 -1.91385 0
M  V30 38531 H 3519.33 -3.73938 0.109972 0
M  V30 38532 H 3520.66 -4.92041 0.125009 0
M  V30 38533 N 3522.31 -0.285959 -1.54984 0
M  V30 38534 C 3523.24 0.59022 -2.25917 0
M  V30 38535 C 3524.22 1.15015 -1.25321 0
M  V30 38536 O 3525.41 1.18228 -1.54064 0
M  V30 38537 C 3522.54 1.76931 -2.98852 0
M  V30 38538 C 3521.49 1.34042 -4.06468 0
M  V30 38539 C 3520.82 2.60348 -4.67036 0
M  V30 38540 C 3522.12 0.482662 -5.20065 0
M  V30 38541 H 3523.81 -0.00136834 -2.994 0
M  V30 38542 H 3521.36 -0.00209812 -1.44 0
M  V30 38543 H 3523.31 2.38824 -3.4719 0
M  V30 38544 H 3522.04 2.3869 -2.22923 0
M  V30 38545 H 3520.69 0.744637 -3.58958 0
M  V30 38546 H 3520.34 3.20389 -3.87763 0
M  V30 38547 H 3520.04 2.32358 -5.39707 0
M  V30 38548 H 3521.57 3.2307 -5.18129 0
M  V30 38549 H 3522.98 1.00687 -5.64389 0
M  V30 38550 H 3521.38 0.297186 -5.99364 0
M  V30 38551 H 3522.45 -0.495945 -4.82357 0
M  V30 38552 N 3523.79 1.57594 -0.0134169 0
M  V30 38553 C 3525.04 1.90766 0.667279 0
M  V30 38554 C 3525.36 0.888877 1.73563 0
M  V30 38555 O 3524.63 -0.0718602 1.95768 0
M  V30 38556 H 3523.21 0.704116 0.249458 0
M  V30 38557 H 3525.87 1.94815 -0.0575132 0
M  V30 38558 H 3524.97 2.90924 1.13002 0
M  V30 38559 N 3525.27 -0.259531 1.55448 0
M  V30 38560 C 3526.68 -0.829571 1.67257 0
M  V30 38561 C 3527.03 -1.86524 0.608543 0
M  V30 38562 O 3526.16 -2.1498 -0.247525 0
M  V30 38563 C 3526.75 -1.51147 3.03216 0
M  V30 38564 C 3525.31 -2.02937 3.17007 0
M  V30 38565 C 3524.46 -0.876057 2.63098 0
M  V30 38566 H 3527.41 -0.0355939 1.5866 0
M  V30 38567 H 3527.43 -2.37901 2.96957 0
M  V30 38568 H 3526.94 -0.757453 3.80637 0
M  V30 38569 H 3525.04 -2.81258 2.44386 0
M  V30 38570 H 3525.15 -2.23543 4.23752 0
M  V30 38571 H 3523.52 -1.27313 2.20598 0
M  V30 38572 H 3524.3 -0.135329 3.43033 0
M  V30 38573 N 3526.75 -1.48611 -0.524645 0
M  V30 38574 C 3527.99 -1.5659 -1.27765 0
M  V30 38575 C 3528.32 -0.243933 -1.93468 0
M  V30 38576 O 3527.59 0.734953 -1.81591 0
M  V30 38577 H 3526.17 -0.576893 -0.474556 0
M  V30 38578 H 3528.83 -1.85105 -0.610081 0
M  V30 38579 H 3527.92 -2.34973 -2.05412 0
M  V30 38580 N 3528.22 0.773926 -1.37289 0
M  V30 38581 C 3529.5 1.52157 -1.22913 0
M  V30 38582 C 3529.88 2.10346 0.178212 0
M  V30 38583 O 3529.23 1.95335 1.1856 0
M  V30 38584 C 3529.44 2.6042 -2.32342 0
M  V30 38585 C 3530.79 3.27882 -2.69775 0
M  V30 38586 O 3531.81 2.70713 -2.31501 0
M  V30 38587 O 3530.67 4.31235 -3.35706 0
M  V30 38588 H 3527.76 0.673808 -0.479492 0
M  V30 38589 H 3530.31 0.811079 -1.49062 0
M  V30 38590 H 3529.08 2.15526 -3.26595 0
M  V30 38591 H 3528.71 3.39072 -2.07644 0
M  V30 38592 N 3529.7 1.21823 0.99985 0
M  V30 38593 C 3530.95 1.03653 1.73495 0
M  V30 38594 C 3531.27 -0.430237 1.90195 0
M  V30 38595 O 3530.54 -1.30999 1.45657 0
M  V30 38596 H 3529.12 0.380552 0.642798 0
M  V30 38597 H 3531.78 1.53218 1.20458 0
M  V30 38598 H 3530.88 1.50869 2.73212 0
M  V30 38599 N 3531.18 -1.1956 1.0268 0
M  V30 38600 C 3532.43 -1.88514 0.717312 0
M  V30 38601 C 3532.74 -1.80356 -0.757031 0
M  V30 38602 O 3533.95 -2.44541 -1.17949 0
M  V30 38603 C 3532.4 -3.38131 1.23271 0
M  V30 38604 C 3532.01 -3.54851 2.73468 0
M  V30 38605 C 3533.76 -4.12575 0.999113 0
M  V30 38606 C 3531.66 -4.98349 3.18437 0
M  V30 38607 H 3530.59 -0.70604 0.26462 0
M  V30 38608 H 3533.24 -1.35188 1.24083 0
M  V30 38609 H 3531.63 -3.90841 0.63712 0
M  V30 38610 H 3532.8 -3.12479 3.38664 0
M  V30 38611 H 3531.12 -2.93793 2.95084 0
M  V30 38612 H 3533.71 -5.18395 1.31039 0
M  V30 38613 H 3534.06 -4.16251 -0.0641438 0
M  V30 38614 H 3534.59 -3.65995 1.5586 0
M  V30 38615 H 3531.33 -4.99834 4.24082 0
M  V30 38616 H 3530.85 -5.41491 2.57967 0
M  V30 38617 H 3532.53 -5.6699 3.11659 0
M  V30 38618 N 3532.66 -0.804387 -1.35526 0
M  V30 38619 C 3533.9 -0.384296 -1.99126 0
M  V30 38620 C 3534.24 1.04527 -1.6367 0
M  V30 38621 O 3533.51 1.72481 -0.898926 0
M  V30 38622 C 3533.8 -0.565341 -3.55635 0
M  V30 38623 C 3533.65 -2.03968 -4.00895 0
M  V30 38624 C 3534.97 0.0103527 -4.40099 0
M  V30 38625 H 3532.09 -0.141105 -0.723366 0
M  V30 38626 H 3534.73 -1.01351 -1.60711 0
M  V30 38627 H 3532.88 -0.0297108 -3.88489 0
M  V30 38628 H 3534.55 -2.63752 -3.78461 0
M  V30 38629 H 3532.79 -2.53691 -3.51885 0
M  V30 38630 H 3533.46 -2.11725 -5.09781 0
M  V30 38631 H 3535.94 -0.447057 -4.13691 0
M  V30 38632 H 3534.82 -0.146252 -5.48705 0
M  V30 38633 H 3535.08 1.10385 -4.28098 0
M  V30 38634 N 3534.14 1.47403 -0.557697 0
M  V30 38635 C 3535.07 2.2696 0.237572 0
M  V30 38636 C 3536.05 1.3408 0.919847 0
M  V30 38637 O 3537.23 1.63462 0.938738 0
M  V30 38638 C 3534.36 3.11127 1.33857 0
M  V30 38639 C 3533.41 4.19587 0.764803 0
M  V30 38640 S 3534.24 5.34085 -0.388987 0
M  V30 38641 C 3535.39 6.21816 0.713822 0
M  V30 38642 H 3535.63 2.94063 -0.437529 0
M  V30 38643 H 3533.16 1.50518 -0.344031 0
M  V30 38644 H 3535.12 3.60189 1.96911 0
M  V30 38645 H 3533.78 2.43385 1.98551 0
M  V30 38646 H 3532.97 4.78209 1.59161 0
M  V30 38647 H 3532.57 3.73408 0.210436 0
M  V30 38648 H 3534.87 6.58195 1.6058 0
M  V30 38649 H 3535.81 7.07908 0.164944 0
M  V30 38650 H 3536.22 5.55451 1.00671 0
M  V30 38651 N 3535.62 0.294175 1.5483 0
M  V30 38652 C 3536.58 -0.572022 2.21947 0
M  V30 38653 C 3537.58 -1.06661 1.20333 0
M  V30 38654 O 3538.77 -0.963731 1.45113 0
M  V30 38655 C 3535.9 -1.79125 2.90047 0
M  V30 38656 H 3537.09 0.0142761 2.99897 0
M  V30 38657 H 3534.65 0.0449461 1.56235 0
M  V30 38658 H 3535.38 -2.41756 2.16159 0
M  V30 38659 H 3535.17 -1.44432 3.64529 0
M  V30 38660 H 3536.66 -2.40678 3.41268 0
M  V30 38661 N 3537.09 -1.57585 0.0217743 0
M  V30 38662 C 3538.34 -1.91496 -0.658454 0
M  V30 38663 C 3538.67 -0.897493 -1.72555 0
M  V30 38664 O 3537.92 0.0946565 -1.95471 0
M  V30 38665 C 3538.22 -3.32145 -1.31964 0
M  V30 38666 C 3537.89 -4.49265 -0.383628 0
M  V30 38667 C 3536.55 -4.81035 -0.12598 0
M  V30 38668 C 3538.9 -5.20553 0.259537 0
M  V30 38669 C 3536.23 -5.81455 0.782761 0
M  V30 38670 C 3538.58 -6.21943 1.15629 0
M  V30 38671 C 3537.25 -6.52158 1.4229 0
M  V30 38672 H 3536.52 -0.700733 -0.240945 0
M  V30 38673 H 3539.16 -1.91324 0.0819688 0
M  V30 38674 H 3537.47 -3.28543 -2.13463 0
M  V30 38675 H 3539.17 -3.55651 -1.85239 0
M  V30 38676 H 3535.76 -4.24455 -0.594616 0
M  V30 38677 H 3539.94 -4.96246 0.0735322 0
M  V30 38678 H 3535.2 -6.03215 0.997101 0
M  V30 38679 H 3539.37 -6.76304 1.66088 0
M  V30 38680 H 3537 -7.29787 2.12872 0
M  V30 38681 N 3538.57 0.251283 -1.55584 0
M  V30 38682 C 3539.85 1.00251 -1.67956 0
M  V30 38683 C 3540.23 2.03527 -0.560362 0
M  V30 38684 O 3539.58 2.24287 0.436771 0
M  V30 38685 C 3539.79 1.6398 -3.08077 0
M  V30 38686 C 3541.13 2.1433 -3.66535 0
M  V30 38687 O 3542.16 1.73928 -3.10849 0
M  V30 38688 O 3541.02 2.88498 -4.64146 0
M  V30 38689 H 3538.11 0.466363 -0.68296 0
M  V30 38690 H 3540.66 0.245417 -1.67916 0
M  V30 38691 H 3539.43 0.89256 -3.80984 0
M  V30 38692 H 3539.05 2.4632 -3.12109 0
M  V30 38693 N 3540.05 1.48887 0.516757 0
M  V30 38694 C 3541 1.64855 1.6409 0
M  V30 38695 C 3541.99 0.514713 1.61391 0
M  V30 38696 O 3543.2 0.69386 1.66089 0
M  V30 38697 H 3539.57 0.519553 0.543663 0
M  V30 38698 H 3541.54 2.59243 1.47769 0
M  V30 38699 C 3540.29 1.71776 3.02305 0
M  V30 38700 H 3539.62 2.58391 3.05081 0
M  V30 38701 H 3541.06 1.86989 3.80541 0
M  V30 38702 C 3539.51 0.459195 3.33756 0
M  V30 38703 O 3540.04 -0.422107 3.99476 0
M  V30 38704 N 3538.25 0.326887 2.88756 0
M  V30 38705 H 3537.8 1.04504 2.3545 0
M  V30 38706 H 3537.76 -0.514159 3.10167 0
M  V30 38707 N 3541.53 -0.766635 1.37697 0
M  V30 38708 C 3542.77 -1.52762 1.33385 0
M  V30 38709 C 3543.11 -1.94035 -0.0800228 0
M  V30 38710 O 3542.38 -1.64458 -1.03845 0
M  V30 38711 C 3542.66 -2.78918 2.27765 0
M  V30 38712 C 3542.52 -2.43867 3.77954 0
M  V30 38713 C 3543.84 -3.80877 2.20501 0
M  V30 38714 H 3540.96 -0.554187 0.485846 0
M  V30 38715 H 3543.6 -0.87909 1.6844 0
M  V30 38716 H 3541.75 -3.34258 1.98 0
M  V30 38717 H 3543.42 -1.94403 4.18336 0
M  V30 38718 H 3541.66 -1.76496 3.96272 0
M  V30 38719 H 3542.33 -3.34069 4.39433 0
M  V30 38720 H 3544.81 -3.35044 2.46748 0
M  V30 38721 H 3543.69 -4.66862 2.88671 0
M  V30 38722 H 3543.95 -4.25514 1.19958 0
M  V30 38723 N 3543.01 -1.22351 -0.993375 0
M  V30 38724 C 3543.94 -1.01741 -2.10169 0
M  V30 38725 C 3544.92 0.0614977 -1.69989 0
M  V30 38726 O 3546.1 -0.100625 -1.93939 0
M  V30 38727 C 3543.23 -0.593862 -3.42185 0
M  V30 38728 C 3542.19 -1.61865 -3.96212 0
M  V30 38729 C 3541.51 -1.05095 -5.2427 0
M  V30 38730 C 3542.81 -3.0085 -4.26951 0
M  V30 38731 H 3544.51 -1.9444 -2.27669 0
M  V30 38732 H 3542.05 -0.936278 -1.09407 0
M  V30 38733 H 3544 -0.436788 -4.1913 0
M  V30 38734 H 3542.73 0.368798 -3.24511 0
M  V30 38735 H 3541.39 -1.76349 -3.21398 0
M  V30 38736 H 3541.04 -0.0796631 -5.02937 0
M  V30 38737 H 3540.74 -1.73557 -5.61384 0
M  V30 38738 H 3542.26 -0.905455 -6.03849 0
M  V30 38739 H 3543.67 -2.89742 -4.94694 0
M  V30 38740 H 3542.07 -3.66431 -4.75235 0
M  V30 38741 H 3543.14 -3.50818 -3.34746 0
M  V30 38742 N 3544.48 1.19014 -1.03313 0
M  V30 38743 C 3545.42 2.21852 -0.575694 0
M  V30 38744 C 3546.43 1.58978 0.350678 0
M  V30 38745 O 3547.62 1.77899 0.146394 0
M  V30 38746 C 3544.72 3.38422 0.17989 0
M  V30 38747 C 3543.89 4.30879 -0.752479 0
M  V30 38748 C 3542.95 5.26184 -0.0415409 0
M  V30 38749 O 3541.98 5.65249 -0.669503 0
M  V30 38750 N 3543.18 5.67368 1.22773 0
M  V30 38751 H 3545.94 2.61723 -1.46017 0
M  V30 38752 H 3543.5 1.33723 -0.912679 0
M  V30 38753 H 3545.5 3.99196 0.66515 0
M  V30 38754 H 3544.07 2.97305 0.965827 0
M  V30 38755 H 3543.29 3.67823 -1.41775 0
M  V30 38756 H 3544.57 4.89558 -1.38601 0
M  V30 38757 H 3543.97 5.37671 1.75858 0
M  V30 38758 H 3542.53 6.30375 1.65741 0
M  V30 38759 N 3545.96 0.811563 1.35098 0
M  V30 38760 C 3546.91 0.223412 2.29716 0
M  V30 38761 C 3547.88 -0.645369 1.5305 0
M  V30 38762 O 3549.06 -0.589404 1.81468 0
M  V30 38763 C 3546.2 -0.617998 3.39521 0
M  V30 38764 C 3545.32 0.271768 4.31144 0
M  V30 38765 C 3544.45 -0.578121 5.28045 0
M  V30 38766 C 3543.49 0.311736 6.11306 0
M  V30 38767 N 3542.63 -0.498416 7.00329 0
M  V30 38768 H 3547.47 1.03568 2.79424 0
M  V30 38769 H 3545 0.522256 1.37517 0
M  V30 38770 H 3546.96 -1.12104 4.01856 0
M  V30 38771 H 3545.59 -1.39549 2.91077 0
M  V30 38772 H 3544.64 0.89295 3.69771 0
M  V30 38773 H 3545.96 0.956478 4.89544 0
M  V30 38774 H 3545.11 -1.1461 5.95776 0
M  V30 38775 H 3543.85 -1.29638 4.70155 0
M  V30 38776 H 3542.85 0.891945 5.42517 0
M  V30 38777 H 3544.08 1.02793 6.71275 0
M  V30 38778 H 3542.03 -1.20056 6.44921 0
M  V30 38779 H 3541.94 0.128143 7.55891 0
M  V30 38780 H 3543.21 -1.04951 7.72402 0
M  V30 38781 N 3547.44 -1.47105 0.565506 0
M  V30 38782 C 3548.37 -2.32912 -0.165629 0
M  V30 38783 C 3549.35 -1.44299 -0.900653 0
M  V30 38784 O 3550.54 -1.73143 -0.879493 0
M  V30 38785 C 3547.67 -3.26245 -1.19086 0
M  V30 38786 C 3546.62 -4.24164 -0.571774 0
M  V30 38787 C 3545.95 -5.06881 -1.70224 0
M  V30 38788 C 3547.25 -5.20091 0.479876 0
M  V30 38789 H 3548.94 -2.94291 0.550757 0
M  V30 38790 H 3546.49 -1.41516 0.266309 0
M  V30 38791 H 3548.44 -3.8512 -1.71058 0
M  V30 38792 H 3547.16 -2.62938 -1.9373 0
M  V30 38793 H 3545.82 -3.66527 -0.0732886 0
M  V30 38794 H 3545.47 -4.39971 -2.43792 0
M  V30 38795 H 3545.17 -5.73181 -1.29374 0
M  V30 38796 H 3546.69 -5.68616 -2.22505 0
M  V30 38797 H 3548.11 -5.73282 0.045905 0
M  V30 38798 H 3546.5 -5.94639 0.807719 0
M  V30 38799 H 3547.57 -4.65065 1.37267 0
M  V30 38800 N 3548.92 -0.302382 -1.54672 0
M  V30 38801 C 3549.85 0.566225 -2.26531 0
M  V30 38802 C 3550.83 1.1368 -1.26534 0
M  V30 38803 O 3552.01 1.16588 -1.55309 0
M  V30 38804 C 3549.14 1.73752 -3.00712 0
M  V30 38805 C 3548.1 1.29724 -4.07867 0
M  V30 38806 C 3547.42 2.5538 -4.69771 0
M  V30 38807 C 3548.72 0.427475 -5.20548 0
M  V30 38808 H 3550.42 -0.0331236 -2.99382 0
M  V30 38809 H 3547.96 -0.0173711 -1.4399 0
M  V30 38810 H 3549.92 2.35128 -3.49704 0
M  V30 38811 H 3548.64 2.36313 -2.25442 0
M  V30 38812 H 3547.3 0.706523 -3.59727 0
M  V30 38813 H 3546.95 3.16258 -3.91139 0
M  V30 38814 H 3546.65 2.26621 -5.42141 0
M  V30 38815 H 3548.17 3.17557 -5.21527 0
M  V30 38816 H 3549.59 0.946954 -5.65425 0
M  V30 38817 H 3547.98 0.233599 -5.99645 0
M  V30 38818 H 3549.05 -0.547078 -4.81804 0
M  V30 38819 N 3550.4 1.57571 -0.0301311 0
M  V30 38820 C 3551.31 2.13741 0.967048 0
M  V30 38821 C 3552.32 1.08992 1.35634 0
M  V30 38822 O 3553.5 1.41055 1.43755 0
M  V30 38823 C 3550.56 2.65421 2.23053 0
M  V30 38824 C 3549.62 3.84889 1.90156 0
M  V30 38825 C 3548.86 4.34094 3.10481 0
M  V30 38826 O 3549.08 3.82467 4.23172 0
M  V30 38827 O 3548.01 5.25927 2.9272 0
M  V30 38828 H 3551.84 2.99225 0.519433 0
M  V30 38829 H 3549.43 1.4818 0.190533 0
M  V30 38830 H 3551.31 2.98724 2.97224 0
M  V30 38831 H 3549.98 1.83019 2.66994 0
M  V30 38832 H 3548.89 3.56509 1.13367 0
M  V30 38833 H 3550.22 4.68455 1.51031 0
M  V30 38834 N 3551.87 -0.243029 1.55715 0
M  V30 38835 C 3552.78 -1.32237 1.93779 0
M  V30 38836 C 3553.8 -1.52451 0.838736 0
M  V30 38837 O 3554.98 -1.65998 1.14047 0
M  V30 38838 C 3552.04 -2.65623 2.22812 0
M  V30 38839 C 3551.1 -2.53898 3.46171 0
M  V30 38840 C 3550.34 -3.80923 3.73809 0
M  V30 38841 O 3550.56 -4.82979 3.03458 0
M  V30 38842 O 3549.49 -3.79323 4.6733 0
M  V30 38843 H 3553.32 -1.02946 2.8572 0
M  V30 38844 H 3550.9 -0.444109 1.42647 0
M  V30 38845 H 3552.79 -3.44438 2.42777 0
M  V30 38846 H 3551.46 -2.94639 1.3405 0
M  V30 38847 H 3550.37 -1.73356 3.31509 0
M  V30 38848 H 3551.7 -2.29826 4.35248 0
M  V30 38849 N 3553.35 -1.49159 -0.508854 0
M  V30 38850 C 3554.58 -1.61711 -1.28582 0
M  V30 38851 C 3554.99 -0.284662 -1.87046 0
M  V30 38852 O 3554.33 0.73893 -1.68183 0
M  V30 38853 C 3554.4 -2.62117 -2.46038 0
M  V30 38854 C 3554.06 -4.06664 -2.08503 0
M  V30 38855 C 3555.06 -4.93709 -1.62935 0
M  V30 38856 C 3552.74 -4.52345 -2.18378 0
M  V30 38857 C 3554.74 -6.2447 -1.27736 0
M  V30 38858 C 3552.42 -5.83122 -1.82791 0
M  V30 38859 C 3553.42 -6.69007 -1.37543 0
M  V30 38860 O 3553.11 -7.97347 -1.02433 0
M  V30 38861 H 3552.84 -0.547511 -0.396494 0
M  V30 38862 H 3555.39 -1.95873 -0.618306 0
M  V30 38863 H 3553.62 -2.23119 -3.1584 0
M  V30 38864 H 3555.31 -2.6428 -3.08076 0
M  V30 38865 H 3556.08 -4.59647 -1.54758 0
M  V30 38866 H 3551.96 -3.85668 -2.52549 0
M  V30 38867 H 3555.5 -6.91461 -0.923467 0
M  V30 38868 H 3551.4 -6.16714 -1.90615 0
M  V30 38869 H 3552.17 -8.10289 -1.15648 0
M  V30 38870 N 3554.83 0.759322 -1.38102 0
M  V30 38871 C 3556.08 1.51528 -1.3373 0
M  V30 38872 C 3556.4 1.9486 0.0739162 0
M  V30 38873 O 3555.67 1.67223 1.02046 0
M  V30 38874 H 3554.25 0.562049 -0.492046 0
M  V30 38875 H 3556.91 0.902964 -1.72721 0
M  V30 38876 H 3556.01 2.40888 -1.98443 0
M  V30 38877 N 3556.31 1.22876 0.986873 0
M  V30 38878 C 3557.53 1.0843 1.76798 0
M  V30 38879 C 3557.96 -0.360522 1.84613 0
M  V30 38880 O 3557.32 -1.26061 1.30301 0
M  V30 38881 C 3557.36 1.70706 3.17635 0
M  V30 38882 O 3556.47 0.964822 4.00955 0
M  V30 38883 H 3555.81 0.380461 0.544192 0
M  V30 38884 H 3558.34 1.62798 1.23928 0
M  V30 38885 H 3558.35 1.75679 3.6824 0
M  V30 38886 H 3557.02 2.75842 3.11262 0
M  V30 38887 H 3555.6 0.991556 3.59475 0
M  V30 38888 N 3557.79 -1.18464 1.03942 0
M  V30 38889 C 3559.06 -1.84259 0.656352 0
M  V30 38890 C 3559.44 -1.92598 -0.864255 0
M  V30 38891 O 3558.79 -1.45095 -1.76521 0
M  V30 38892 C 3559 -3.22634 1.33072 0
M  V30 38893 C 3560.35 -3.98683 1.46072 0
M  V30 38894 O 3561.37 -3.3207 1.28873 0
M  V30 38895 O 3560.23 -5.18031 1.74087 0
M  V30 38896 H 3557.33 -0.794519 0.229498 0
M  V30 38897 H 3559.87 -1.25866 1.13824 0
M  V30 38898 H 3558.64 -3.11461 2.36871 0
M  V30 38899 H 3558.27 -3.88682 0.837381 0
M  V30 38900 N 3559.26 -0.818716 -1.34665 0
M  V30 38901 C 3560.54 -0.327555 -1.92838 0
M  V30 38902 C 3560.92 1.18454 -1.74734 0
M  V30 38903 O 3560.27 1.98969 -1.12355 0
M  V30 38904 C 3560.48 -0.752267 -3.40796 0
M  V30 38905 C 3561.83 -0.748686 -4.17947 0
M  V30 38906 O 3562.85 -0.694579 -3.49362 0
M  V30 38907 O 3561.71 -0.818053 -5.40343 0
M  V30 38908 H 3558.8 -0.0885292 -0.822248 0
M  V30 38909 H 3561.35 -0.903226 -1.43666 0
M  V30 38910 H 3560.12 -1.79393 -3.47756 0
M  V30 38911 H 3559.75 -0.152062 -3.97309 0
M  V30 38912 N 3560.74 1.46803 -0.573299 0
M  V30 38913 C 3561.97 2.06811 -0.0606347 0
M  V30 38914 C 3562.39 1.42352 1.24021 0
M  V30 38915 O 3561.74 0.525546 1.74769 0
M  V30 38916 C 3561.79 3.61295 0.121764 0
M  V30 38917 O 3561.51 4.2334 -1.12758 0
M  V30 38918 C 3563.02 4.3821 0.669864 0
M  V30 38919 H 3560.24 0.668891 -0.0531616 0
M  V30 38920 H 3562.78 1.8857 -0.791292 0
M  V30 38921 H 3560.93 3.78995 0.802608 0
M  V30 38922 H 3561.35 5.16091 -0.935452 0
M  V30 38923 H 3562.82 5.46926 0.74671 0
M  V30 38924 H 3563.3 4.05601 1.68476 0
M  V30 38925 H 3563.91 4.25293 0.0241973 0
M  V30 38926 N 3562.22 0.31058 1.54509 0
M  V30 38927 C 3563.64 -0.0425015 1.59543 0
M  V30 38928 C 3563.84 -1.516 1.32739 0
M  V30 38929 O 3562.89 -2.27014 1.10547 0
M  V30 38930 C 3564.21 0.364055 2.98488 0
M  V30 38931 C 3565.75 0.313621 3.11425 0
M  V30 38932 C 3566.23 0.695143 4.52694 0
M  V30 38933 N 3567.72 0.648046 4.58644 0
M  V30 38934 C 3568.45 0.915607 5.66043 0
M  V30 38935 N 3567.95 1.24963 6.81437 0
M  V30 38936 N 3569.74 0.84203 5.55757 0
M  V30 38937 H 3561.89 1.27077 1.70192 0
M  V30 38938 H 3564.16 0.515847 0.795365 0
M  V30 38939 H 3563.86 1.39018 3.23059 0
M  V30 38940 H 3563.74 -0.277493 3.76178 0
M  V30 38941 H 3566.12 -0.703275 2.86597 0
M  V30 38942 H 3566.21 0.989925 2.35869 0
M  V30 38943 H 3565.85 1.70989 4.78252 0
M  V30 38944 H 3565.78 -0.00333427 5.266 0
M  V30 38945 H 3568.27 0.401203 3.75764 0
M  V30 38946 H 3568.58 1.43951 7.59275 0
M  V30 38947 H 3566.93 1.28776 6.82965 0
M  V30 38948 H 3570.12 0.580662 4.64485 0
M  V30 38949 H 3570.29 1.05391 6.39372 0
M  V30 38950 N 3563.7 -1.57553 0.0384871 0
M  V30 38951 C 3564.65 -2.11948 -0.958161 0
M  V30 38952 C 3565.64 -1.04825 -1.33071 0
M  V30 38953 O 3566.85 -1.2325 -1.31185 0
M  V30 38954 H 3563.22 -0.677275 -0.326808 0
M  V30 38955 H 3565.19 -2.94609 -0.474159 0
M  V30 38956 C 3563.94 -2.66924 -2.22816 0
M  V30 38957 H 3563.27 -3.49006 -1.95026 0
M  V30 38958 H 3564.71 -3.08619 -2.9074 0
M  V30 38959 C 3563.16 -1.60103 -2.96426 0
M  V30 38960 O 3563.69 -1.00635 -3.8889 0
M  V30 38961 N 3561.9 -1.31925 -2.58929 0
M  V30 38962 H 3561.45 -1.80471 -1.83815 0
M  V30 38963 H 3561.41 -0.606794 -3.08489 0
M  V30 38964 N 3565.18 0.234767 -1.55842 0
M  V30 38965 C 3566.42 0.962508 -1.78504 0
M  V30 38966 C 3566.76 1.84507 -0.605864 0
M  V30 38967 O 3566.03 1.90438 0.395413 0
M  V30 38968 C 3566.31 1.81272 -3.11147 0
M  V30 38969 C 3566.17 0.95753 -4.3949 0
M  V30 38970 C 3567.49 2.79298 -3.40119 0
M  V30 38971 H 3564.61 0.348489 -0.649403 0
M  V30 38972 H 3567.25 0.232207 -1.88576 0
M  V30 38973 H 3565.4 2.43536 -3.02692 0
M  V30 38974 H 3567.07 0.352645 -4.5995 0
M  V30 38975 H 3565.31 0.262378 -4.33006 0
M  V30 38976 H 3565.98 1.5865 -5.2871 0
M  V30 38977 H 3568.46 2.27169 -3.48616 0
M  V30 38978 H 3567.34 3.35898 -4.34124 0
M  V30 38979 H 3567.6 3.56374 -2.6163 0
M  V30 38980 N 3566.66 1.49427 0.500936 0
M  V30 38981 C 3567.6 1.66101 1.60247 0
M  V30 38982 C 3568.57 0.502481 1.58317 0
M  V30 38983 O 3569.76 0.729513 1.76303 0
M  V30 38984 C 3566.9 1.73366 2.98393 0
M  V30 38985 C 3566.01 3.00523 3.10338 0
M  V30 38986 C 3565.15 2.98767 4.39217 0
M  V30 38987 C 3564.18 4.20504 4.44796 0
M  V30 38988 N 3563.32 4.16658 5.65102 0
M  V30 38989 H 3568.16 2.60156 1.45337 0
M  V30 38990 H 3565.7 1.28989 0.707124 0
M  V30 38991 H 3567.66 1.7556 3.78464 0
M  V30 38992 H 3566.29 0.827772 3.12006 0
M  V30 38993 H 3565.34 3.07941 2.23331 0
M  V30 38994 H 3566.65 3.90516 3.1032 0
M  V30 38995 H 3565.8 2.99524 5.27608 0
M  V30 38996 H 3564.54 2.06553 4.418 0
M  V30 38997 H 3563.55 4.19991 3.54806 0
M  V30 38998 H 3564.77 5.13911 4.43928 0
M  V30 38999 H 3562.72 3.2728 5.68528 0
M  V30 39000 H 3562.64 5.00386 5.66701 0
M  V30 39001 H 3563.9 4.21517 6.55701 0
M  V30 39002 N 3568.13 -0.751987 1.38502 0
M  V30 39003 C 3569.04 -1.89648 1.38097 0
M  V30 39004 C 3570.06 -1.71767 0.277881 0
M  V30 39005 O 3571.24 -1.94663 0.51657 0
M  V30 39006 C 3568.3 -3.25035 1.20636 0
M  V30 39007 C 3567.36 -3.55431 2.40764 0
M  V30 39008 C 3566.59 -4.84358 2.24126 0
M  V30 39009 O 3566.82 -5.56852 1.23581 0
M  V30 39010 O 3565.75 -5.14267 3.1275 0
M  V30 39011 H 3569.58 -1.92943 2.34535 0
M  V30 39012 H 3567.16 -0.897483 1.19439 0
M  V30 39013 H 3569.04 -4.05977 1.12964 0
M  V30 39014 H 3567.72 -3.22548 0.272841 0
M  V30 39015 H 3566.63 -2.74644 2.54011 0
M  V30 39016 H 3567.96 -3.6268 3.32752 0
M  V30 39017 N 3569.61 -1.23398 -0.980343 0
M  V30 39018 C 3570.84 -1.09279 -1.75687 0
M  V30 39019 C 3571.25 0.355741 -1.85418 0
M  V30 39020 O 3570.61 1.24607 -1.3334 0
M  V30 39021 C 3570.66 -1.71229 -3.18375 0
M  V30 39022 O 3570.38 -3.10417 -3.09149 0
M  V30 39023 C 3571.88 -1.62552 -4.12422 0
M  V30 39024 H 3569.1 -0.382436 -0.551347 0
M  V30 39025 H 3571.65 -1.6325 -1.23166 0
M  V30 39026 H 3569.8 -1.21291 -3.67923 0
M  V30 39027 H 3570.22 -3.40471 -3.98974 0
M  V30 39028 H 3571.69 -2.10601 -5.10246 0
M  V30 39029 H 3572.17 -0.584352 -4.35295 0
M  V30 39030 H 3572.77 -2.11856 -3.68778 0
M  V30 39031 N 3571.09 1.17911 -1.04569 0
M  V30 39032 C 3572.32 1.91948 -0.772238 0
M  V30 39033 C 3572.73 1.76464 0.671272 0
M  V30 39034 O 3572.09 1.09762 1.45803 0
M  V30 39035 C 3572.14 3.43205 -1.13545 0
M  V30 39036 O 3571.86 3.58207 -2.52229 0
M  V30 39037 C 3573.36 4.34331 -0.887222 0
M  V30 39038 H 3570.58 0.609214 -0.281245 0
M  V30 39039 H 3573.13 1.49561 -1.3947 0
M  V30 39040 H 3571.28 3.83362 -0.557851 0
M  V30 39041 H 3571.7 4.51878 -2.66283 0
M  V30 39042 H 3573.17 5.38995 -1.19116 0
M  V30 39043 H 3573.65 4.3884 0.177822 0
M  V30 39044 H 3574.25 3.99878 -1.44836 0
M  V30 39045 N 3572.57 0.825847 1.34229 0
M  V30 39046 C 3573.48 0.251844 2.33244 0
M  V30 39047 C 3574.49 -0.615306 1.62757 0
M  V30 39048 O 3575.67 -0.522513 1.94504 0
M  V30 39049 C 3572.73 -0.574396 3.41909 0
M  V30 39050 C 3571.8 0.315497 4.28139 0
M  V30 39051 C 3571.03 -0.471403 5.31614 0
M  V30 39052 O 3571.25 -1.7044 5.4434 0
M  V30 39053 O 3570.19 0.147796 6.01719 0
M  V30 39054 H 3574.01 1.07144 2.84172 0
M  V30 39055 H 3571.6 0.588056 1.3734 0
M  V30 39056 H 3573.48 -1.04437 4.08254 0
M  V30 39057 H 3572.15 -1.37127 2.9322 0
M  V30 39058 H 3571.06 0.833027 3.64707 0
M  V30 39059 H 3572.39 1.0768 4.80277 0
M  V30 39060 N 3574.05 -1.46497 0.581077 0
M  V30 39061 C 3575.28 -2.06476 0.0714978 0
M  V30 39062 C 3575.68 -1.43064 -1.23812 0
M  V30 39063 O 3575.03 -0.529535 -1.75902 0
M  V30 39064 C 3575.09 -3.59096 -0.17029 0
M  V30 39065 C 3574.75 -4.44692 1.05348 0
M  V30 39066 C 3575.75 -4.81331 1.96512 0
M  V30 39067 C 3573.43 -4.85852 1.27487 0
M  V30 39068 C 3575.43 -5.57955 3.08163 0
M  V30 39069 C 3573.12 -5.62236 2.39444 0
M  V30 39070 C 3574.11 -5.98202 3.29612 0
M  V30 39071 O 3573.8 -6.73042 4.39624 0
M  V30 39072 H 3573.53 -0.673859 0.0537621 0
M  V30 39073 H 3576.09 -1.89137 0.801026 0
M  V30 39074 H 3574.32 -3.74737 -0.954411 0
M  V30 39075 H 3576.01 -4.0101 -0.628178 0
M  V30 39076 H 3576.77 -4.50111 1.80623 0
M  V30 39077 H 3572.65 -4.5731 0.582131 0
M  V30 39078 H 3576.2 -5.85946 3.78567 0
M  V30 39079 H 3572.09 -5.92869 2.55296 0
M  V30 39080 H 3572.86 -6.91465 4.37971 0
M  V30 39081 N 3575.52 -0.31877 -1.54343 0
M  V30 39082 C 3576.45 0.542167 -2.27118 0
M  V30 39083 C 3577.43 1.12331 -1.27733 0
M  V30 39084 O 3578.62 1.14934 -1.56537 0
M  V30 39085 C 3575.75 1.70552 -3.02538 0
M  V30 39086 C 3574.7 1.2539 -4.0922 0
M  V30 39087 C 3574.03 2.50383 -4.72454 0
M  V30 39088 C 3575.33 0.37224 -5.20972 0
M  V30 39089 H 3577.02 -0.0648752 -2.9933 0
M  V30 39090 H 3574.57 -0.0326421 -1.43963 0
M  V30 39091 H 3576.52 2.31406 -3.52178 0
M  V30 39092 H 3575.25 2.33908 -2.27935 0
M  V30 39093 H 3573.91 0.668329 -3.60457 0
M  V30 39094 H 3573.55 3.12092 -3.94472 0
M  V30 39095 H 3573.25 2.20858 -5.44514 0
M  V30 39096 H 3574.78 3.12007 -5.24866 0
M  V30 39097 H 3576.19 0.88693 -5.66398 0
M  V30 39098 H 3574.59 0.169985 -5.99859 0
M  V30 39099 H 3575.66 -0.598149 -4.81197 0
M  V30 39100 N 3577 1.5753 -0.0468419 0
M  V30 39101 C 3577.95 2.11276 0.929028 0
M  V30 39102 C 3578.92 1.01907 1.31164 0
M  V30 39103 O 3580.1 1.2943 1.40187 0
M  V30 39104 C 3577.24 2.65877 2.20008 0
M  V30 39105 C 3576.36 3.89317 1.87233 0
M  V30 39106 C 3575.49 4.32248 3.08764 0
M  V30 39107 C 3574.53 5.48399 2.71891 0
M  V30 39108 N 3573.67 5.86404 3.86102 0
M  V30 39109 H 3578.51 2.94369 0.463802 0
M  V30 39110 H 3576.04 1.45486 0.217312 0
M  V30 39111 H 3578 2.95631 2.94378 0
M  V30 39112 H 3576.63 1.85589 2.64115 0
M  V30 39113 H 3575.68 3.66181 1.0303 0
M  V30 39114 H 3577 4.73749 1.56088 0
M  V30 39115 H 3576.15 4.63532 3.91438 0
M  V30 39116 H 3574.89 3.46619 3.43084 0
M  V30 39117 H 3573.89 5.16792 1.87633 0
M  V30 39118 H 3575.12 6.35741 2.38768 0
M  V30 39119 H 3573.07 5.03728 4.20231 0
M  V30 39120 H 3572.98 6.65517 3.58641 0
M  V30 39121 H 3574.25 6.22301 4.69427 0
M  V30 39122 N 3578.48 -0.226499 1.55964 0
M  V30 39123 C 3579.71 -0.968641 1.82825 0
M  V30 39124 C 3580.12 -1.78144 0.625313 0
M  V30 39125 O 3579.48 -1.77923 -0.406139 0
M  V30 39126 C 3579.53 -1.89018 3.08147 0
M  V30 39127 O 3579.25 -1.11025 4.23798 0
M  V30 39128 C 3580.75 -2.74663 3.47958 0
M  V30 39129 H 3577.97 -0.284115 0.607881 0
M  V30 39130 H 3580.52 -0.243222 2.03048 0
M  V30 39131 H 3578.67 -2.56962 2.89913 0
M  V30 39132 H 3579.09 -1.73537 4.9496 0
M  V30 39133 H 3580.56 -3.35036 4.38696 0
M  V30 39134 H 3581.04 -3.46809 2.69482 0
M  V30 39135 H 3581.64 -2.12141 3.68614 0
M  V30 39136 N 3579.96 -1.4969 -0.493005 0
M  V30 39137 C 3581.18 -1.63569 -1.27514 0
M  V30 39138 C 3581.61 -0.310138 -1.85526 0
M  V30 39139 O 3580.97 0.723285 -1.66248 0
M  V30 39140 C 3581.01 -2.71301 -2.37547 0
M  V30 39141 O 3580.12 -2.31029 -3.41613 0
M  V30 39142 H 3579.46 -0.547211 -0.376106 0
M  V30 39143 H 3581.99 -1.9593 -0.589294 0
M  V30 39144 H 3582 -2.93713 -2.8319 0
M  V30 39145 H 3580.67 -3.67516 -1.94691 0
M  V30 39146 H 3579.25 -2.18979 -3.01832 0
M  V30 39147 N 3581.44 0.744631 -1.38899 0
M  V30 39148 C 3582.68 1.50521 -1.36803 0
M  V30 39149 C 3583.04 1.9236 0.0390704 0
M  V30 39150 O 3582.33 1.63213 1.0036 0
M  V30 39151 C 3582.52 2.76394 -2.26585 0
M  V30 39152 C 3582.35 2.46862 -3.75885 0
M  V30 39153 C 3581.12 2.39635 -4.44863 0
M  V30 39154 C 3583.32 2.13042 -4.681 0
M  V30 39155 N 3581.3 2.02472 -5.7955 0
M  V30 39156 C 3582.67 1.86244 -5.91366 0
M  V30 39157 C 3584.73 1.99428 -4.56216 0
M  V30 39158 C 3583.43 1.47204 -7.04076 0
M  V30 39159 C 3585.46 1.6179 -5.68839 0
M  V30 39160 C 3584.82 1.3587 -6.91172 0
M  V30 39161 H 3580.92 0.550023 -0.555877 0
M  V30 39162 H 3583.5 0.866294 -1.74366 0
M  V30 39163 H 3581.67 3.38081 -1.91196 0
M  V30 39164 H 3583.41 3.4252 -2.15551 0
M  V30 39165 H 3580.16 2.56408 -3.98186 0
M  V30 39166 H 3580.59 1.8651 -6.50802 0
M  V30 39167 H 3585.23 2.18139 -3.62181 0
M  V30 39168 H 3582.95 1.27233 -7.98021 0
M  V30 39169 H 3586.53 1.51876 -5.61627 0
M  V30 39170 H 3585.41 1.07181 -7.76841 0
M  V30 39171 N 3582.91 1.23916 0.973785 0
M  V30 39172 C 3584.16 1.06926 1.71025 0
M  V30 39173 C 3584.48 -0.392913 1.91613 0
M  V30 39174 O 3585.68 -0.682881 2.62772 0
M  V30 39175 C 3584.14 1.86501 3.07807 0
M  V30 39176 C 3583.75 3.3709 2.95084 0
M  V30 39177 C 3585.49 1.78021 3.85368 0
M  V30 39178 C 3583.4 4.09032 4.27138 0
M  V30 39179 H 3582.33 0.396513 0.641322 0
M  V30 39180 H 3584.98 1.47943 1.0856 0
M  V30 39181 H 3583.36 1.38295 3.71067 0
M  V30 39182 H 3584.53 3.92832 2.40873 0
M  V30 39183 H 3582.85 3.46455 2.30993 0
M  V30 39184 H 3585.45 2.29078 4.83143 0
M  V30 39185 H 3585.79 0.744268 4.09593 0
M  V30 39186 H 3586.32 2.23875 3.28823 0
M  V30 39187 H 3583.06 5.1296 4.08108 0
M  V30 39188 H 3582.58 3.58077 4.81187 0
M  V30 39189 H 3584.26 4.15693 4.9579 0
M  V30 39190 N 3584.39 -1.17355 1.05193 0
M  V30 39191 C 3585.34 -2.23425 0.646836 0
M  V30 39192 C 3586.33 -1.66117 -0.331889 0
M  V30 39193 O 3587.54 -1.78908 -0.197951 0
M  V30 39194 H 3583.92 -0.727339 0.191001 0
M  V30 39195 H 3585.89 -2.5489 1.55156 0
M  V30 39196 C 3584.64 -3.4768 0.0375661 0
M  V30 39197 H 3583.96 -3.92082 0.781755 0
M  V30 39198 H 3585.4 -4.23487 -0.208505 0
M  V30 39199 C 3583.86 -3.14199 -1.21576 0
M  V30 39200 O 3584.39 -3.28977 -2.30514 0
M  V30 39201 N 3582.59 -2.68424 -1.11341 0
M  V30 39202 H 3582.14 -2.56599 -0.226897 0
M  V30 39203 H 3582.1 -2.46395 -1.95286 0
M  V30 39204 N 3585.87 -0.832954 -1.3379 0
M  V30 39205 C 3586.8 -0.276887 -2.31853 0
M  V30 39206 C 3587.78 0.612156 -1.58703 0
M  V30 39207 O 3588.97 0.536943 -1.86629 0
M  V30 39208 C 3586.1 0.55379 -3.42856 0
M  V30 39209 C 3585.05 -0.23896 -4.27332 0
M  V30 39210 C 3584.38 0.715094 -5.29897 0
M  V30 39211 C 3585.68 -1.45274 -5.0169 0
M  V30 39212 H 3587.37 -1.09623 -2.78609 0
M  V30 39213 H 3584.92 -0.528586 -1.33948 0
M  V30 39214 H 3586.87 0.953061 -4.10481 0
M  V30 39215 H 3585.59 1.40629 -2.94773 0
M  V30 39216 H 3584.25 -0.619719 -3.61324 0
M  V30 39217 H 3583.9 1.56382 -4.78073 0
M  V30 39218 H 3583.6 0.188818 -5.87297 0
M  V30 39219 H 3585.12 1.11201 -6.00389 0
M  V30 39220 H 3586.54 -1.12695 -5.62115 0
M  V30 39221 H 3584.94 -1.91538 -5.68712 0
M  V30 39222 H 3586.01 -2.22565 -4.30805 0
M  V30 39223 N 3587.35 1.46186 -0.588837 0
M  V30 39224 C 3588.3 2.3037 0.140892 0
M  V30 39225 C 3589.27 1.40986 0.878191 0
M  V30 39226 O 3590.45 1.69931 0.867649 0
M  V30 39227 C 3587.59 3.25565 1.14462 0
M  V30 39228 C 3586.7 4.30049 0.41014 0
M  V30 39229 C 3585.84 5.12366 1.40194 0
M  V30 39230 C 3584.88 6.08594 0.654203 0
M  V30 39231 N 3584.01 6.83758 1.59436 0
M  V30 39232 H 3588.85 2.92241 -0.583028 0
M  V30 39233 H 3586.39 1.44022 -0.299328 0
M  V30 39234 H 3588.35 3.79206 1.7395 0
M  V30 39235 H 3586.98 2.65488 1.83618 0
M  V30 39236 H 3586.03 3.79216 -0.299889 0
M  V30 39237 H 3587.34 4.98496 -0.174131 0
M  V30 39238 H 3586.5 5.70315 2.06943 0
M  V30 39239 H 3585.24 4.43894 2.02014 0
M  V30 39240 H 3584.24 5.49793 -0.0270338 0
M  V30 39241 H 3585.47 6.79087 0.0413091 0
M  V30 39242 H 3583.41 6.1799 2.20055 0
M  V30 39243 H 3583.33 7.48489 1.06305 0
M  V30 39244 H 3584.6 7.4626 2.25202 0
M  V30 39245 N 3588.83 0.32695 1.54171 0
M  V30 39246 C 3589.76 -0.571549 2.21959 0
M  V30 39247 C 3590.77 -1.07718 1.22069 0
M  V30 39248 O 3591.96 -0.990176 1.48519 0
M  V30 39249 C 3589.06 -1.79739 2.8731 0
M  V30 39250 C 3588.23 -1.42988 4.13368 0
M  V30 39251 C 3587.29 -2.51362 4.62281 0
M  V30 39252 O 3586.32 -2.15364 5.26884 0
M  V30 39253 N 3587.52 -3.82348 4.36796 0
M  V30 39254 H 3590.29 0.00891116 2.99699 0
M  V30 39255 H 3587.85 0.150307 1.61201 0
M  V30 39256 H 3589.84 -2.51639 3.16954 0
M  V30 39257 H 3588.41 -2.28562 2.13256 0
M  V30 39258 H 3587.63 -0.542375 3.90451 0
M  V30 39259 H 3588.92 -1.16008 4.95398 0
M  V30 39260 H 3588.31 -4.1439 3.85094 0
M  V30 39261 H 3586.87 -4.50467 4.71087 0
M  V30 39262 N 3590.3 -1.57503 0.0551955 0
M  V30 39263 C 3591.53 -1.97579 -0.630657 0
M  V30 39264 C 3591.95 -0.932715 -1.63346 0
M  V30 39265 O 3591.31 0.1036 -1.81004 0
M  V30 39266 C 3591.36 -3.3672 -1.29043 0
M  V30 39267 O 3590.46 -3.3493 -2.40615 0
M  V30 39268 H 3589.81 -0.643527 -0.163614 0
M  V30 39269 H 3592.34 -2.04219 0.124789 0
M  V30 39270 H 3592.35 -3.73537 -1.64117 0
M  V30 39271 H 3591.02 -4.12173 -0.555517 0
M  V30 39272 H 3589.6 -3.09864 -2.07458 0
M  V30 39273 N 3591.78 0.218225 -1.56082 0
M  V30 39274 C 3593.03 0.940189 -1.78447 0
M  V30 39275 C 3593.34 1.85368 -0.62435 0
M  V30 39276 O 3594.55 2.61454 -0.731715 0
M  V30 39277 C 3593.01 1.72202 -3.16029 0
M  V30 39278 C 3592.61 0.854507 -4.39775 0
M  V30 39279 C 3594.36 2.435 -3.47718 0
M  V30 39280 C 3592.27 1.63388 -5.68382 0
M  V30 39281 H 3591.2 0.354795 -0.665309 0
M  V30 39282 H 3593.85 0.193989 -1.82472 0
M  V30 39283 H 3592.23 2.51125 -3.0619 0
M  V30 39284 H 3593.4 0.105578 -4.60679 0
M  V30 39285 H 3591.72 0.253489 -4.15628 0
M  V30 39286 H 3594.31 3.02318 -4.41031 0
M  V30 39287 H 3594.66 3.16551 -2.70373 0
M  V30 39288 H 3595.19 1.71564 -3.58902 0
M  V30 39289 H 3591.93 0.94659 -6.48629 0
M  V30 39290 H 3591.45 2.35734 -5.51534 0
M  V30 39291 H 3593.13 2.1937 -6.08676 0
M  V30 39292 N 3593.26 1.4995 0.485059 0
M  V30 39293 C 3594.22 1.67256 1.5671 0
M  V30 39294 C 3595.22 0.543727 1.51328 0
M  V30 39295 O 3596.41 0.810499 1.54196 0
M  V30 39296 C 3593.55 1.6848 2.96357 0
M  V30 39297 H 3594.74 2.6378 1.42688 0
M  V30 39298 H 3592.29 1.3922 0.710449 0
M  V30 39299 H 3593.03 0.735979 3.15838 0
M  V30 39300 H 3592.81 2.50474 3.01671 0
M  V30 39301 H 3594.3 1.83871 3.74941 0
M  V30 39302 N 3594.74 -0.737255 1.39292 0
M  V30 39303 C 3596.02 -1.48845 1.26904 0
M  V30 39304 C 3596.4 -2.10745 -0.12238 0
M  V30 39305 O 3595.74 -1.9841 -1.1334 0
M  V30 39306 C 3595.95 -2.54168 2.39164 0
M  V30 39307 C 3597.3 -3.20614 2.78374 0
M  V30 39308 O 3598.33 -2.6448 2.38597 0
M  V30 39309 O 3597.19 -4.22183 3.47022 0
M  V30 39310 H 3594.28 -0.660858 0.497188 0
M  V30 39311 H 3596.83 -0.771272 1.5116 0
M  V30 39312 H 3595.6 -2.06792 3.32194 0
M  V30 39313 H 3595.22 -3.33448 2.16561 0
M  V30 39314 N 3596.22 -1.24431 -0.967199 0
M  V30 39315 C 3597.63 -1.00981 -1.23592 0
M  V30 39316 C 3597.83 0.281077 -1.9953 0
M  V30 39317 O 3596.89 0.997099 -2.31979 0
M  V30 39318 C 3598.2 -2.22514 -2.02257 0
M  V30 39319 C 3599.75 -2.27144 -2.15348 0
M  V30 39320 C 3600.23 -3.483 -2.97408 0
M  V30 39321 N 3601.72 -3.48619 -3.0499 0
M  V30 39322 C 3602.45 -4.39024 -3.68844 0
M  V30 39323 N 3601.95 -5.39683 -4.34412 0
M  V30 39324 N 3603.74 -4.26735 -3.6586 0
M  V30 39325 H 3595.89 -2.07385 -0.458844 0
M  V30 39326 H 3598.15 -0.910093 -0.265395 0
M  V30 39327 H 3597.86 -3.16266 -1.53846 0
M  V30 39328 H 3597.73 -2.24672 -3.02989 0
M  V30 39329 H 3600.12 -1.33923 -2.62961 0
M  V30 39330 H 3600.2 -2.29012 -1.13962 0
M  V30 39331 H 3599.85 -4.41835 -2.50488 0
M  V30 39332 H 3599.78 -3.43675 -3.98992 0
M  V30 39333 H 3602.27 -2.75797 -2.58349 0
M  V30 39334 H 3602.58 -6.04899 -4.80954 0
M  V30 39335 H 3600.93 -5.43569 -4.33079 0
M  V30 39336 H 3604.12 -3.47331 -3.13813 0
M  V30 39337 H 3604.29 -4.9739 -4.1534 0
M  V30 39338 N 3597.7 1.16795 -1.05814 0
M  V30 39339 C 3598.63 2.20581 -0.622623 0
M  V30 39340 C 3599.64 1.59686 0.316877 0
M  V30 39341 O 3600.83 1.78169 0.108626 0
M  V30 39342 C 3597.93 3.38728 0.108065 0
M  V30 39343 C 3597.1 4.29186 -0.843705 0
M  V30 39344 C 3596.16 5.25977 -0.153143 0
M  V30 39345 O 3595.19 5.63702 -0.78925 0
M  V30 39346 N 3596.39 5.69845 1.10711 0
M  V30 39347 H 3599.15 2.58567 -1.51536 0
M  V30 39348 H 3596.72 1.31757 -0.940838 0
M  V30 39349 H 3598.71 4.00518 0.580325 0
M  V30 39350 H 3597.28 2.99287 0.902547 0
M  V30 39351 H 3596.5 3.64733 -1.49545 0
M  V30 39352 H 3597.79 4.86508 -1.48954 0
M  V30 39353 H 3597.18 5.41281 1.64413 0
M  V30 39354 H 3595.74 6.33749 1.52333 0
M  V30 39355 N 3599.17 0.840037 1.33346 0
M  V30 39356 C 3600.12 0.262658 2.31112 0
M  V30 39357 C 3601.12 -0.605995 1.5819 0
M  V30 39358 O 3602.32 -0.495426 1.73048 0
M  V30 39359 H 3598.7 0.0662135 0.749079 0
M  V30 39360 H 3600.67 1.10174 2.77316 0
M  V30 39361 C 3599.42 -0.54652 3.43378 0
M  V30 39362 H 3598.74 0.112585 3.99641 0
M  V30 39363 H 3600.18 -0.916337 4.1398 0
M  V30 39364 C 3598.64 -1.72587 2.89336 0
M  V30 39365 O 3599.17 -2.82461 2.8562 0
M  V30 39366 N 3597.37 -1.54814 2.45929 0
M  V30 39367 H 3596.92 -0.65436 2.4915 0
M  V30 39368 H 3596.88 -2.33871 2.10123 0
M  V30 39369 N 3600.65 -1.45872 0.596582 0
M  V30 39370 C 3601.61 -2.28893 -0.118626 0
M  V30 39371 C 3602.61 -1.39162 -0.805644 0
M  V30 39372 O 3603.8 -1.61397 -0.655483 0
M  V30 39373 C 3600.94 -3.19906 -1.17784 0
M  V30 39374 H 3602.13 -2.93607 0.611145 0
M  V30 39375 H 3599.68 -1.52212 0.355142 0
M  V30 39376 H 3600.42 -2.59969 -1.93873 0
M  V30 39377 H 3600.2 -3.85989 -0.689549 0
M  V30 39378 H 3601.69 -3.82358 -1.67906 0
M  V30 39379 N 3602.13 -0.335122 -1.53996 0
M  V30 39380 C 3603.06 0.518047 -2.27681 0
M  V30 39381 C 3604.04 1.1097 -1.28917 0
M  V30 39382 O 3605.23 1.13267 -1.57747 0
M  V30 39383 C 3602.36 1.67334 -3.0433 0
M  V30 39384 C 3601.31 1.21043 -4.10527 0
M  V30 39385 C 3600.64 2.45358 -4.75083 0
M  V30 39386 C 3601.94 0.316963 -5.21337 0
M  V30 39387 H 3603.63 -0.0966195 -2.99244 0
M  V30 39388 H 3601.18 -0.0479095 -1.4392 0
M  V30 39389 H 3603.13 2.27658 -3.54612 0
M  V30 39390 H 3601.85 2.31477 -2.30403 0
M  V30 39391 H 3600.51 0.63006 -3.61145 0
M  V30 39392 H 3600.16 3.0789 -3.97759 0
M  V30 39393 H 3599.86 2.1507 -5.46826 0
M  V30 39394 H 3601.38 3.06423 -5.28145 0
M  V30 39395 H 3602.8 0.826806 -5.67307 0
M  V30 39396 H 3601.19 0.106352 -6.00006 0
M  V30 39397 H 3602.26 -0.649153 -4.80535 0
M  V30 39398 N 3603.61 1.57472 -0.0635475 0
M  V30 39399 C 3604.52 2.15744 0.921493 0
M  V30 39400 C 3605.53 1.11845 1.33292 0
M  V30 39401 O 3606.71 1.44072 1.40731 0
M  V30 39402 C 3603.77 2.70092 2.17373 0
M  V30 39403 C 3602.84 3.88835 1.81949 0
M  V30 39404 C 3602.07 4.40582 3.01203 0
M  V30 39405 O 3602.29 3.91358 4.14964 0
M  V30 39406 O 3601.23 5.32017 2.81498 0
M  V30 39407 H 3605.05 3.00259 0.455847 0
M  V30 39408 H 3602.64 1.48551 0.159059 0
M  V30 39409 H 3604.52 3.04962 2.9082 0
M  V30 39410 H 3603.19 1.88642 2.63051 0
M  V30 39411 H 3602.1 3.58834 1.05779 0
M  V30 39412 H 3603.43 4.71554 1.4106 0
M  V30 39413 N 3605.09 -0.209945 1.56195 0
M  V30 39414 C 3606.05 -1.2438 1.92516 0
M  V30 39415 C 3607.05 -1.3921 0.804817 0
M  V30 39416 O 3608.24 -1.37276 1.07243 0
M  V30 39417 C 3605.37 -2.6157 2.18618 0
M  V30 39418 H 3606.56 -0.933731 2.84994 0
M  V30 39419 H 3604.12 -0.450852 1.49656 0
M  V30 39420 H 3604.85 -2.97656 1.28729 0
M  V30 39421 H 3604.64 -2.52181 3.00245 0
M  V30 39422 H 3606.13 -3.36152 2.47773 0
M  V30 39423 N 3606.56 -1.50205 -0.4771 0
M  V30 39424 C 3607.47 -1.71405 -1.60179 0
M  V30 39425 C 3608.49 -0.597038 -1.63436 0
M  V30 39426 O 3609.67 -0.874646 -1.81416 0
M  V30 39427 C 3606.73 -1.79807 -2.96429 0
M  V30 39428 C 3605.79 -3.03514 -3.03608 0
M  V30 39429 C 3605.02 -3.11505 -4.33359 0
M  V30 39430 O 3605.25 -2.26447 -5.23525 0
M  V30 39431 O 3604.18 -4.04181 -4.46006 0
M  V30 39432 H 3608.01 -2.66732 -1.45216 0
M  V30 39433 H 3605.59 -1.34229 -0.655959 0
M  V30 39434 H 3607.47 -1.87549 -3.77364 0
M  V30 39435 H 3606.15 -0.876636 -3.11604 0
M  V30 39436 H 3605.06 -3.01276 -2.21773 0
M  V30 39437 H 3606.39 -3.95216 -2.93369 0
M  V30 39438 N 3608.04 0.729857 -1.39681 0
M  V30 39439 C 3609.29 1.49061 -1.38392 0
M  V30 39440 C 3609.64 1.92391 0.0186658 0
M  V30 39441 O 3608.94 1.64268 0.986238 0
M  V30 39442 C 3609.13 2.73976 -2.29504 0
M  V30 39443 C 3608.96 2.42861 -3.78482 0
M  V30 39444 C 3607.73 2.34903 -4.4738 0
M  V30 39445 C 3609.93 2.08065 -4.70333 0
M  V30 39446 N 3607.91 1.96313 -5.81665 0
M  V30 39447 C 3609.28 1.79961 -5.93308 0
M  V30 39448 C 3611.34 1.94578 -4.58305 0
M  V30 39449 C 3610.04 1.39728 -7.05598 0
M  V30 39450 C 3612.06 1.55748 -5.70523 0
M  V30 39451 C 3611.43 1.28532 -6.92574 0
M  V30 39452 H 3607.53 0.544096 -0.561679 0
M  V30 39453 H 3610.11 0.847751 -1.75275 0
M  V30 39454 H 3608.28 3.36034 -1.94771 0
M  V30 39455 H 3610.01 3.40215 -2.19172 0
M  V30 39456 H 3606.77 2.52171 -4.00883 0
M  V30 39457 H 3607.19 1.79597 -6.52743 0
M  V30 39458 H 3611.83 2.14286 -3.64474 0
M  V30 39459 H 3609.55 1.18761 -7.99326 0
M  V30 39460 H 3613.14 1.45911 -5.63206 0
M  V30 39461 H 3612.02 0.989354 -7.77934 0
M  V30 39462 N 3609.52 1.24942 0.960587 0
M  V30 39463 C 3610.94 1.01635 1.23055 0
M  V30 39464 C 3611.14 -0.270491 1.99676 0
M  V30 39465 O 3610.19 -0.984782 2.32504 0
M  V30 39466 C 3611.51 2.23584 2.01074 0
M  V30 39467 C 3613.05 2.28283 2.1414 0
M  V30 39468 C 3613.53 3.49872 2.95556 0
M  V30 39469 N 3615.02 3.50232 3.03137 0
M  V30 39470 C 3615.75 4.40974 3.6651 0
M  V30 39471 N 3615.25 5.4198 4.31544 0
M  V30 39472 N 3617.04 4.28669 3.63592 0
M  V30 39473 H 3609.19 2.07625 0.44784 0
M  V30 39474 H 3611.46 0.911488 0.260565 0
M  V30 39475 H 3611.16 3.17078 1.52167 0
M  V30 39476 H 3611.04 2.26276 3.01793 0
M  V30 39477 H 3613.42 1.35316 2.62247 0
M  V30 39478 H 3613.51 2.29613 1.12746 0
M  V30 39479 H 3613.15 4.43157 2.48141 0
M  V30 39480 H 3613.08 3.45786 3.97164 0
M  V30 39481 H 3615.57 2.77163 2.56883 0
M  V30 39482 H 3615.88 6.07441 4.7774 0
M  V30 39483 H 3614.23 5.45858 4.3019 0
M  V30 39484 H 3617.42 3.4899 3.11967 0
M  V30 39485 H 3617.59 4.99585 4.12697 0
M  V30 39486 N 3611 -1.16233 1.06432 0
M  V30 39487 C 3612.23 -1.90695 0.802677 0
M  V30 39488 C 3612.64 -1.77509 -0.643113 0
M  V30 39489 O 3612 -1.12068 -1.44038 0
M  V30 39490 C 3612.05 -3.41355 1.1899 0
M  V30 39491 O 3611.77 -3.54149 2.57896 0
M  V30 39492 C 3613.27 -4.32864 0.956208 0
M  V30 39493 H 3610.49 -0.604663 0.290901 0
M  V30 39494 H 3613.04 -1.47323 1.41832 0
M  V30 39495 H 3611.19 -3.82426 0.61877 0
M  V30 39496 H 3611.6 -4.47584 2.73439 0
M  V30 39497 H 3613.08 -5.37031 1.27676 0
M  V30 39498 H 3613.56 -4.39067 -0.107984 0
M  V30 39499 H 3614.16 -3.97524 1.51179 0
M  V30 39500 N 3612.48 -0.847097 -1.32899 0
M  V30 39501 C 3613.72 -0.447451 -1.97802 0
M  V30 39502 C 3614.06 0.992671 -1.66912 0
M  V30 39503 O 3613.33 1.69533 -0.953345 0
M  V30 39504 C 3613.61 -0.678197 -3.53656 0
M  V30 39505 C 3613.47 -2.16619 -3.94203 0
M  V30 39506 C 3614.79 -0.129667 -4.39909 0
M  V30 39507 H 3611.9 -0.164047 -0.718511 0
M  V30 39508 H 3614.55 -1.06413 -1.57405 0
M  V30 39509 H 3612.7 -0.15329 -3.88197 0
M  V30 39510 H 3614.37 -2.75659 -3.69878 0
M  V30 39511 H 3612.61 -2.64758 -3.43636 0
M  V30 39512 H 3613.28 -2.27836 -5.02787 0
M  V30 39513 H 3615.76 -0.578444 -4.1206 0
M  V30 39514 H 3614.63 -0.320744 -5.47962 0
M  V30 39515 H 3614.9 0.967092 -4.31393 0
M  V30 39516 N 3613.95 1.45554 -0.604309 0
M  V30 39517 C 3614.89 2.28678 0.154539 0
M  V30 39518 C 3615.9 1.39762 0.834885 0
M  V30 39519 O 3617.09 1.64167 0.700823 0
M  V30 39520 C 3614.19 3.15414 1.23965 0
M  V30 39521 C 3613.36 4.32588 0.647052 0
M  V30 39522 C 3612.42 5.00557 1.62263 0
M  V30 39523 O 3611.45 5.57457 1.15021 0
M  V30 39524 N 3612.65 4.99541 2.95701 0
M  V30 39525 H 3615.41 2.94446 -0.55872 0
M  V30 39526 H 3612.97 1.55705 -0.443565 0
M  V30 39527 H 3614.97 3.57749 1.89203 0
M  V30 39528 H 3613.54 2.51577 1.85547 0
M  V30 39529 H 3612.76 3.93773 -0.18333 0
M  V30 39530 H 3614.04 5.08274 0.231304 0
M  V30 39531 H 3613.44 4.54597 3.36687 0
M  V30 39532 H 3612 5.4575 3.56371 0
M  V30 39533 N 3615.43 0.343284 1.53816 0
M  V30 39534 C 3616.4 -0.501122 2.23655 0
M  V30 39535 C 3617.4 -1.02779 1.23666 0
M  V30 39536 O 3618.59 -0.917077 1.48106 0
M  V30 39537 C 3615.72 -1.69806 2.95599 0
M  V30 39538 H 3616.91 0.109679 2.99699 0
M  V30 39539 H 3614.46 0.0946285 1.56013 0
M  V30 39540 H 3615.2 -2.34757 2.23741 0
M  V30 39541 H 3614.98 -1.32762 3.6894 0
M  V30 39542 H 3616.47 -2.29699 3.48752 0
M  V30 39543 N 3616.91 -1.57436 0.0718977 0
M  V30 39544 C 3618.14 -1.98237 -0.609666 0
M  V30 39545 C 3618.56 -0.949987 -1.62348 0
M  V30 39546 O 3617.92 0.0843963 -1.81103 0
M  V30 39547 C 3617.97 -3.3807 -1.25464 0
M  V30 39548 O 3617.07 -3.37463 -2.37049 0
M  V30 39549 H 3616.41 -0.645226 -0.156779 0
M  V30 39550 H 3618.94 -2.04075 0.146442 0
M  V30 39551 H 3618.95 -3.75256 -1.60146 0
M  V30 39552 H 3617.63 -4.12739 -0.51177 0
M  V30 39553 H 3616.2 -3.12047 -2.0416 0
M  V30 39554 N 3618.39 0.201658 -1.56305 0
M  V30 39555 C 3619.8 0.552221 -1.49742 0
M  V30 39556 C 3620 1.86178 -0.770716 0
M  V30 39557 O 3619.06 2.50483 -0.318533 0
M  V30 39558 C 3620.37 0.613032 -2.94385 0
M  V30 39559 C 3621.92 0.702311 -3.05019 0
M  V30 39560 C 3622.4 0.794292 -4.5106 0
M  V30 39561 N 3623.89 0.857992 -4.55184 0
M  V30 39562 C 3624.62 0.949217 -5.65489 0
M  V30 39563 N 3624.12 1.00315 -6.85499 0
M  V30 39564 N 3625.91 0.985898 -5.53386 0
M  V30 39565 H 3618.06 -0.657429 -2.01969 0
M  V30 39566 H 3620.33 -0.233338 -0.918835 0
M  V30 39567 H 3620.03 -0.279982 -3.50584 0
M  V30 39568 H 3619.91 1.46995 -3.47379 0
M  V30 39569 H 3622.29 1.58576 -2.48873 0
M  V30 39570 H 3622.37 -0.180681 -2.55161 0
M  V30 39571 H 3622.02 -0.0847776 -5.07829 0
M  V30 39572 H 3621.95 1.69299 -4.98644 0
M  V30 39573 H 3624.44 0.825824 -3.68766 0
M  V30 39574 H 3624.75 1.07309 -7.65313 0
M  V30 39575 H 3623.1 0.97194 -6.8817 0
M  V30 39576 H 3626.29 0.940554 -4.58553 0
M  V30 39577 H 3626.46 1.05353 -6.39378 0
M  V30 39578 N 3619.87 1.50456 0.469128 0
M  V30 39579 C 3621.28 1.37925 0.803043 0
M  V30 39580 C 3621.48 0.436871 1.96707 0
M  V30 39581 O 3620.54 -0.119778 2.52216 0
M  V30 39582 C 3621.85 2.79333 1.11327 0
M  V30 39583 C 3623.4 2.88261 1.2196 0
M  V30 39584 C 3623.87 4.30507 1.56295 0
M  V30 39585 N 3625.37 4.33466 1.63282 0
M  V30 39586 C 3626.1 5.40527 1.91357 0
M  V30 39587 N 3625.6 6.57793 2.17439 0
M  V30 39588 N 3627.39 5.27973 1.92875 0
M  V30 39589 H 3619.54 2.103 -0.297965 0
M  V30 39590 H 3621.8 0.945353 -0.070796 0
M  V30 39591 H 3621.51 3.50139 0.330991 0
M  V30 39592 H 3621.38 3.16697 2.04897 0
M  V30 39593 H 3623.77 2.17673 1.99255 0
M  V30 39594 H 3623.85 2.54438 0.263647 0
M  V30 39595 H 3623.5 5.01633 0.795391 0
M  V30 39596 H 3623.43 4.61819 2.53043 0
M  V30 39597 H 3625.92 3.48909 1.45158 0
M  V30 39598 H 3626.23 7.35193 2.38141 0
M  V30 39599 H 3624.57 6.60965 2.14828 0
M  V30 39600 H 3627.77 4.35356 1.71997 0
M  V30 39601 H 3627.94 6.11497 2.1442 0
M  V30 39602 N 3621.34 -0.722439 1.40066 0
M  V30 39603 C 3622.62 -1.47491 1.28475 0
M  V30 39604 C 3623 -2.10863 -0.100021 0
M  V30 39605 O 3622.35 -1.99601 -1.11229 0
M  V30 39606 C 3622.56 -2.51617 2.41847 0
M  V30 39607 C 3623.91 -3.17643 2.81758 0
M  V30 39608 O 3624.93 -2.61935 2.41389 0
M  V30 39609 O 3623.79 -4.18478 3.5148 0
M  V30 39610 H 3620.88 -0.655547 0.504169 0
M  V30 39611 H 3623.43 -0.755196 1.5197 0
M  V30 39612 H 3622.2 -2.03257 3.34369 0
M  V30 39613 H 3621.83 -3.31132 2.20085 0
M  V30 39614 N 3622.82 -1.2545 -0.953947 0
M  V30 39615 C 3623.75 -1.08376 -2.06826 0
M  V30 39616 C 3624.73 0.00738595 -1.70098 0
M  V30 39617 O 3625.92 -0.162274 -1.93521 0
M  V30 39618 C 3623.05 -0.702424 -3.40122 0
M  V30 39619 C 3622 -1.74388 -3.90862 0
M  V30 39620 C 3621.33 -1.21721 -5.20661 0
M  V30 39621 C 3622.63 -3.1428 -4.17163 0
M  V30 39622 H 3624.32 -2.01585 -2.21368 0
M  V30 39623 H 3621.87 -0.970611 -1.06373 0
M  V30 39624 H 3623.82 -0.56991 -4.17528 0
M  V30 39625 H 3622.55 0.265371 -3.2552 0
M  V30 39626 H 3621.21 -1.86484 -3.15625 0
M  V30 39627 H 3620.85 -0.239628 -5.02429 0
M  V30 39628 H 3620.55 -1.91329 -5.55578 0
M  V30 39629 H 3622.08 -1.09711 -6.00663 0
M  V30 39630 H 3623.49 -3.05334 -4.85226 0
M  V30 39631 H 3621.89 -3.81364 -4.63337 0
M  V30 39632 H 3622.96 -3.6129 -3.23415 0
M  V30 39633 N 3624.3 1.15667 -1.07047 0
M  V30 39634 C 3625.21 2.23933 -0.699371 0
M  V30 39635 C 3626.23 1.716 0.288006 0
M  V30 39636 O 3627.4 2.00944 0.135411 0
M  V30 39637 C 3624.47 3.46557 -0.0995384 0
M  V30 39638 C 3623.53 4.13894 -1.13976 0
M  V30 39639 C 3622.76 5.30664 -0.568453 0
M  V30 39640 O 3622.99 5.67059 0.616456 0
M  V30 39641 O 3621.92 5.8743 -1.31185 0
M  V30 39642 H 3625.75 2.58 -1.60217 0
M  V30 39643 H 3623.33 1.23329 -0.843223 0
M  V30 39644 H 3625.21 4.20756 0.232856 0
M  V30 39645 H 3623.89 3.14245 0.776628 0
M  V30 39646 H 3622.79 3.4163 -1.52446 0
M  V30 39647 H 3624.13 4.50278 -1.98772 0
M  V30 39648 N 3625.78 0.854133 1.32447 0
M  V30 39649 C 3626.73 0.287156 2.30821 0
M  V30 39650 C 3627.72 -0.589183 1.58824 0
M  V30 39651 O 3628.93 -0.477044 1.73563 0
M  V30 39652 H 3625.3 0.0741547 0.748335 0
M  V30 39653 H 3627.27 1.13109 2.76132 0
M  V30 39654 C 3626.02 -0.510069 3.43938 0
M  V30 39655 H 3625.35 0.154966 3.995 0
M  V30 39656 H 3626.79 -0.872378 4.14928 0
M  V30 39657 C 3625.24 -1.69508 2.9115 0
M  V30 39658 O 3625.77 -2.79415 2.886 0
M  V30 39659 N 3623.98 -1.52197 2.47557 0
M  V30 39660 H 3623.53 -0.627897 2.4983 0
M  V30 39661 H 3623.49 -2.3163 2.12591 0
M  V30 39662 N 3627.26 -1.45231 0.61202 0
M  V30 39663 C 3628.5 -2.02207 0.108947 0
M  V30 39664 C 3628.83 -1.47985 -1.26216 0
M  V30 39665 O 3628.09 -0.6464 -1.84716 0
M  V30 39666 C 3628.39 -3.57392 0.0243989 0
M  V30 39667 C 3628.05 -4.30784 1.33175 0
M  V30 39668 C 3626.71 -4.50552 1.68986 0
M  V30 39669 C 3629.07 -4.72699 2.19557 0
M  V30 39670 C 3626.39 -5.09491 2.90922 0
M  V30 39671 C 3628.75 -5.32987 3.40746 0
M  V30 39672 C 3627.41 -5.50977 3.76803 0
M  V30 39673 H 3626.68 -0.739927 0.0398664 0
M  V30 39674 H 3629.33 -1.7424 0.794523 0
M  V30 39675 H 3627.63 -3.84662 -0.744462 0
M  V30 39676 H 3629.33 -3.99185 -0.381068 0
M  V30 39677 H 3625.92 -4.15715 1.04303 0
M  V30 39678 H 3630.1 -4.57156 1.93189 0
M  V30 39679 H 3625.36 -5.21608 3.18959 0
M  V30 39680 H 3629.53 -5.64418 4.07929 0
M  V30 39681 H 3627.16 -5.96415 4.71374 0
M  V30 39682 N 3628.74 -0.351436 -1.53632 0
M  V30 39683 C 3629.67 0.493869 -2.28217 0
M  V30 39684 C 3630.65 1.09597 -1.30087 0
M  V30 39685 O 3631.83 1.11588 -1.5894 0
M  V30 39686 C 3628.96 1.64097 -3.06088 0
M  V30 39687 C 3627.92 1.16682 -4.11788 0
M  V30 39688 C 3627.24 2.40305 -4.77658 0
M  V30 39689 C 3628.54 0.261651 -5.21644 0
M  V30 39690 H 3630.24 -0.128353 -2.99125 0
M  V30 39691 H 3627.78 -0.0631715 -1.43861 0
M  V30 39692 H 3629.73 2.23884 -3.57007 0
M  V30 39693 H 3628.46 2.29021 -2.32846 0
M  V30 39694 H 3627.12 0.59172 -3.61793 0
M  V30 39695 H 3626.77 3.03654 -4.01003 0
M  V30 39696 H 3626.47 2.09259 -5.49076 0
M  V30 39697 H 3627.99 3.00804 -5.31366 0
M  V30 39698 H 3629.4 0.766589 -5.68152 0
M  V30 39699 H 3627.8 0.0427077 -6.00085 0
M  V30 39700 H 3628.87 -0.700083 -4.7982 0
M  V30 39701 N 3630.21 1.57396 -0.0802459 0
M  V30 39702 C 3631.16 2.13199 0.884004 0
M  V30 39703 C 3632.13 1.04667 1.28973 0
M  V30 39704 O 3633.32 1.32375 1.3741 0
M  V30 39705 C 3630.46 2.70484 2.14319 0
M  V30 39706 C 3629.57 3.93201 1.78933 0
M  V30 39707 C 3628.7 4.387 2.99526 0
M  V30 39708 C 3627.74 5.54043 2.60197 0
M  V30 39709 N 3626.88 5.94462 3.73576 0
M  V30 39710 H 3631.72 2.95286 0.401258 0
M  V30 39711 H 3629.26 1.45914 0.186403 0
M  V30 39712 H 3631.21 3.01809 2.88041 0
M  V30 39713 H 3629.84 1.91149 2.60119 0
M  V30 39714 H 3628.9 3.68285 0.9524 0
M  V30 39715 H 3630.21 4.76953 1.46004 0
M  V30 39716 H 3629.36 4.7173 3.81517 0
M  V30 39717 H 3628.1 3.53818 3.35655 0
M  V30 39718 H 3627.11 5.20656 1.76629 0
M  V30 39719 H 3628.33 6.40663 2.25229 0
M  V30 39720 H 3626.28 5.12529 4.09451 0
M  V30 39721 H 3626.19 6.72975 3.44443 0
M  V30 39722 H 3627.46 6.32118 4.56122 0
M  V30 39723 N 3631.69 -0.193366 1.56409 0
M  V30 39724 C 3632.94 -0.910281 1.81894 0
M  V30 39725 C 3633.29 -1.80815 0.657552 0
M  V30 39726 O 3632.59 -1.88428 -0.347182 0
M  V30 39727 C 3632.78 -1.76033 3.11042 0
M  V30 39728 C 3632.61 -0.946257 4.39632 0
M  V30 39729 C 3631.38 -0.630002 5.01357 0
M  V30 39730 C 3633.58 -0.298148 5.13435 0
M  V30 39731 N 3631.56 0.202525 6.13566 0
M  V30 39732 C 3632.93 0.396503 6.18731 0
M  V30 39733 C 3634.98 -0.214052 4.9744 0
M  V30 39734 C 3633.69 1.16724 7.09766 0
M  V30 39735 C 3635.71 0.543296 5.88899 0
M  V30 39736 C 3635.08 1.22639 6.93642 0
M  V30 39737 H 3631.17 -0.312433 0.716875 0
M  V30 39738 H 3633.76 -0.17888 1.93877 0
M  V30 39739 H 3631.93 -2.46333 3.00291 0
M  V30 39740 H 3633.66 -2.41686 3.24607 0
M  V30 39741 H 3630.42 -0.954838 4.63875 0
M  V30 39742 H 3630.84 0.60845 6.7426 0
M  V30 39743 H 3635.48 -0.727818 4.16488 0
M  V30 39744 H 3633.2 1.69243 7.90179 0
M  V30 39745 H 3636.79 0.609744 5.78596 0
M  V30 39746 H 3635.67 1.80304 7.63191 0
M  V30 39747 N 3633.17 -1.50702 -0.461142 0
M  V30 39748 C 3634.42 -1.61427 -1.20931 0
M  V30 39749 C 3634.73 -0.324844 -1.92884 0
M  V30 39750 O 3635.94 -0.311129 -2.69711 0
M  V30 39751 C 3634.39 -2.8499 -2.19792 0
M  V30 39752 C 3634 -4.20847 -1.53596 0
M  V30 39753 C 3635.75 -3.05064 -2.95189 0
M  V30 39754 C 3633.65 -5.35586 -2.50802 0
M  V30 39755 H 3632.58 -0.601182 -0.455078 0
M  V30 39756 H 3635.23 -1.77145 -0.47874 0
M  V30 39757 H 3633.62 -2.62853 -2.96183 0
M  V30 39758 H 3634.79 -4.53277 -0.829265 0
M  V30 39759 H 3633.1 -4.06459 -0.904432 0
M  V30 39760 H 3635.7 -3.87957 -3.67958 0
M  V30 39761 H 3636.04 -2.17186 -3.55156 0
M  V30 39762 H 3636.58 -3.27429 -2.25909 0
M  V30 39763 H 3633.32 -6.25649 -1.95559 0
M  V30 39764 H 3632.84 -5.07562 -3.19595 0
M  V30 39765 H 3634.52 -5.66567 -3.12427 0
M  V30 39766 N 3634.65 0.715001 -1.40447 0
M  V30 39767 C 3635.58 1.8399 -1.36676 0
M  V30 39768 C 3636.59 1.60511 -0.272066 0
M  V30 39769 O 3637.78 1.70374 -0.532455 0
M  V30 39770 C 3634.88 3.20404 -1.10429 0
M  V30 39771 C 3634.05 3.71075 -2.31564 0
M  V30 39772 C 3633.11 4.86104 -2.01468 0
M  V30 39773 O 3632.14 4.98725 -2.74339 0
M  V30 39774 N 3633.34 5.71944 -0.993 0
M  V30 39775 H 3636.11 1.87724 -2.33623 0
M  V30 39776 H 3633.67 0.896562 -1.34809 0
M  V30 39777 H 3635.66 3.94954 -0.882799 0
M  V30 39778 H 3634.23 3.11815 -0.221463 0
M  V30 39779 H 3633.45 2.8765 -2.69539 0
M  V30 39780 H 3634.74 4.01666 -3.12317 0
M  V30 39781 H 3634.14 5.64358 -0.389486 0
M  V30 39782 H 3632.69 6.46476 -0.831412 0
M  V30 39783 N 3636.13 1.25954 0.947281 0
M  V30 39784 C 3637.04 1.08741 2.07876 0
M  V30 39785 C 3638.05 0.0225517 1.73985 0
M  V30 39786 O 3639.23 0.225019 2.00139 0
M  V30 39787 C 3636.29 0.715816 3.3923 0
M  V30 39788 C 3635.35 1.85942 3.86942 0
M  V30 39789 C 3634.59 1.50546 5.12027 0
M  V30 39790 O 3634.81 0.404423 5.68964 0
M  V30 39791 O 3633.74 2.33815 5.5463 0
M  V30 39792 H 3637.57 2.03649 2.25302 0
M  V30 39793 H 3635.15 1.0496 1.0632 0
M  V30 39794 H 3637.04 0.521035 4.18166 0
M  V30 39795 H 3635.71 -0.203922 3.23057 0
M  V30 39796 H 3634.62 2.10912 3.08977 0
M  V30 39797 H 3635.95 2.75867 4.07625 0
M  V30 39798 N 3637.6 -1.15097 1.07659 0
M  V30 39799 C 3638.57 -2.18133 0.703597 0
M  V30 39800 C 3639.57 -1.58721 -0.257743 0
M  V30 39801 O 3640.76 -1.74158 -0.0382905 0
M  V30 39802 C 3637.89 -3.40879 0.0375578 0
M  V30 39803 H 3639.08 -2.52645 1.61587 0
M  V30 39804 H 3636.64 -1.29613 0.873507 0
M  V30 39805 H 3637.37 -3.11939 -0.886813 0
M  V30 39806 H 3637.16 -3.85263 0.729028 0
M  V30 39807 H 3638.65 -4.17078 -0.20864 0
M  V30 39808 N 3639.08 -0.861145 -1.31993 0
M  V30 39809 C 3639.99 -0.313596 -2.32495 0
M  V30 39810 C 3641.01 0.571937 -1.64332 0
M  V30 39811 O 3642.18 0.47076 -1.95821 0
M  V30 39812 C 3639.25 0.483543 -3.43311 0
M  V30 39813 C 3638.31 -0.4289 -4.27152 0
M  V30 39814 C 3637.54 0.330289 -5.32677 0
M  V30 39815 O 3637.77 1.55948 -5.48668 0
M  V30 39816 O 3636.7 -0.307279 -6.01115 0
M  V30 39817 H 3640.53 -1.14641 -2.81232 0
M  V30 39818 H 3638.11 -0.624263 -1.35733 0
M  V30 39819 H 3639.99 0.935759 -4.10879 0
M  V30 39820 H 3638.67 1.29305 -2.96752 0
M  V30 39821 H 3637.58 -0.92943 -3.62371 0
M  V30 39822 H 3638.91 -1.20376 -4.77253 0
M  V30 39823 N 3640.56 1.44905 -0.619713 0
M  V30 39824 C 3641.79 2.06514 -0.126399 0
M  V30 39825 C 3642.2 1.46226 1.1943 0
M  V30 39826 O 3641.56 0.580882 1.73009 0
M  V30 39827 C 3641.61 3.61499 0.00675965 0
M  V30 39828 O 3641.33 4.19539 -1.2617 0
M  V30 39829 C 3642.83 4.40119 0.530112 0
M  V30 39830 H 3640.05 0.666861 -0.0744149 0
M  V30 39831 H 3642.6 1.85958 -0.850883 0
M  V30 39832 H 3640.75 3.81356 0.681627 0
M  V30 39833 H 3641.17 5.12853 -1.09917 0
M  V30 39834 H 3642.64 5.49025 0.572331 0
M  V30 39835 H 3643.12 4.10756 1.55487 0
M  V30 39836 H 3643.72 4.25155 -0.111119 0
M  V30 39837 N 3642.04 0.359579 1.53443 0
M  V30 39838 C 3643.27 -0.232916 2.05585 0
M  V30 39839 C 3643.68 -1.42934 1.2335 0
M  V30 39840 O 3643.04 -1.80451 0.272693 0
M  V30 39841 C 3643.09 -0.632297 3.55927 0
M  V30 39842 O 3642.81 0.51657 4.35044 0
M  V30 39843 C 3644.31 -1.28382 4.24303 0
M  V30 39844 H 3641.53 -0.0421202 0.669677 0
M  V30 39845 H 3644.08 0.516211 1.97878 0
M  V30 39846 H 3642.23 -1.33135 3.63805 0
M  V30 39847 H 3642.64 0.194998 5.24137 0
M  V30 39848 H 3644.12 -1.51388 5.30835 0
M  V30 39849 H 3644.6 -2.24229 3.77648 0
M  V30 39850 H 3645.2 -0.626364 4.20662 0
M  V30 39851 N 3643.52 -1.57351 0.0885919 0
M  V30 39852 C 3644.76 -1.94404 -0.577496 0
M  V30 39853 C 3645.1 -0.970059 -1.68236 0
M  V30 39854 O 3644.37 -0.00202103 -1.945 0
M  V30 39855 C 3644.65 -3.4162 -1.13876 0
M  V30 39856 C 3644.51 -4.49783 -0.0393895 0
M  V30 39857 C 3645.83 -3.90009 -2.03915 0
M  V30 39858 H 3642.94 -0.706905 -0.208456 0
M  V30 39859 H 3645.59 -1.89342 0.157979 0
M  V30 39860 H 3643.74 -3.46065 -1.76555 0
M  V30 39861 H 3645.41 -4.57453 0.594538 0
M  V30 39862 H 3643.65 -4.29232 0.62785 0
M  V30 39863 H 3644.32 -5.49971 -0.4728 0
M  V30 39864 H 3646.8 -3.87676 -1.5115 0
M  V30 39865 H 3645.67 -4.93595 -2.40114 0
M  V30 39866 H 3645.94 -3.28923 -2.95402 0
M  V30 39867 N 3644.99 0.185069 -1.5651 0
M  V30 39868 C 3645.94 1.24872 -1.96239 0
M  V30 39869 C 3646.94 1.46578 -0.849195 0
M  V30 39870 O 3648.14 1.4732 -1.03425 0
M  V30 39871 H 3644.52 0.419446 -0.624155 0
M  V30 39872 H 3646.49 0.88668 -2.84922 0
M  V30 39873 C 3645.24 2.58378 -2.32671 0
M  V30 39874 H 3644.56 2.42495 -3.17862 0
M  V30 39875 H 3646 3.31524 -2.64326 0
M  V30 39876 C 3644.46 3.16116 -1.16501 0
M  V30 39877 O 3644.99 3.99224 -0.445353 0
M  V30 39878 N 3643.2 2.75005 -0.939182 0
M  V30 39879 H 3642.74 2.07525 -1.52615 0
M  V30 39880 H 3642.7 3.13973 -0.163714 0
M  V30 39881 N 3646.47 1.50945 0.453144 0
M  V30 39882 C 3647.72 1.6307 1.20565 0
M  V30 39883 C 3648.05 0.338408 1.91229 0
M  V30 39884 O 3647.33 -0.661174 1.82917 0
M  V30 39885 C 3647.61 2.82334 2.23517 0
M  V30 39886 C 3647.46 4.21496 1.5704 0
M  V30 39887 C 3648.78 2.97128 3.24658 0
M  V30 39888 H 3645.9 0.593493 0.436961 0
M  V30 39889 H 3648.54 1.83385 0.496976 0
M  V30 39890 H 3646.69 2.65144 2.83956 0
M  V30 39891 H 3648.36 4.50318 1.00059 0
M  V30 39892 H 3646.61 4.24923 0.873068 0
M  V30 39893 H 3647.28 5.00907 2.3194 0
M  V30 39894 H 3649.75 3.12924 2.74259 0
M  V30 39895 H 3648.63 3.82168 3.94003 0
M  V30 39896 H 3648.89 2.08513 3.89839 0
M  V30 39897 N 3647.95 -0.707543 1.40825 0
M  V30 39898 C 3648.88 -1.83426 1.44489 0
M  V30 39899 C 3649.86 -1.67345 0.304878 0
M  V30 39900 O 3651.05 -1.87257 0.514638 0
M  V30 39901 C 3648.18 -3.21457 1.31464 0
M  V30 39902 C 3647.13 -3.52224 2.43151 0
M  V30 39903 C 3646.46 -4.89483 2.15198 0
M  V30 39904 C 3647.76 -3.52407 3.85495 0
M  V30 39905 H 3649.45 -1.80617 2.38784 0
M  V30 39906 H 3647 -0.867552 1.14933 0
M  V30 39907 H 3648.95 -3.9998 1.32642 0
M  V30 39908 H 3647.67 -3.24862 0.336479 0
M  V30 39909 H 3646.33 -2.76045 2.41236 0
M  V30 39910 H 3645.98 -4.895 1.15754 0
M  V30 39911 H 3645.68 -5.11034 2.90031 0
M  V30 39912 H 3647.2 -5.70331 2.18072 0
M  V30 39913 H 3648.62 -4.20956 3.8919 0
M  V30 39914 H 3647.02 -3.85487 4.59913 0
M  V30 39915 H 3648.09 -2.51625 4.14503 0
M  V30 39916 N 3649.43 -1.26454 -0.940588 0
M  V30 39917 C 3650.67 -1.122 -1.68935 0
M  V30 39918 C 3651.01 0.333787 -1.9131 0
M  V30 39919 O 3650.28 1.24515 -1.49419 0
M  V30 39920 C 3650.57 -1.89221 -3.06378 0
M  V30 39921 C 3650.42 -3.42709 -2.91325 0
M  V30 39922 C 3651.74 -1.68649 -4.06504 0
M  V30 39923 H 3648.86 -0.408975 -0.613114 0
M  V30 39924 H 3651.5 -1.55457 -1.09239 0
M  V30 39925 H 3649.65 -1.52456 -3.57336 0
M  V30 39926 H 3651.32 -3.8923 -2.47584 0
M  V30 39927 H 3649.56 -3.69704 -2.26938 0
M  V30 39928 H 3650.23 -3.91829 -3.88811 0
M  V30 39929 H 3652.71 -2.0068 -3.64509 0
M  V30 39930 H 3651.59 -2.24954 -5.00686 0
M  V30 39931 H 3651.85 -0.631208 -4.37571 0
M  V30 39932 N 3650.91 1.14525 -1.08268 0
M  V30 39933 C 3652.18 1.81696 -0.724286 0
M  V30 39934 C 3652.56 1.95673 0.792178 0
M  V30 39935 O 3651.91 1.51546 1.71014 0
M  V30 39936 C 3652.12 3.17473 -1.44955 0
M  V30 39937 C 3653.47 3.92987 -1.60768 0
M  V30 39938 O 3654.49 3.27058 -1.41109 0
M  V30 39939 O 3653.35 5.11213 -1.93193 0
M  V30 39940 H 3650.45 0.785453 -0.258828 0
M  V30 39941 H 3652.99 1.21555 -1.18417 0
M  V30 39942 H 3651.76 3.02455 -2.48268 0
M  V30 39943 H 3651.39 3.85306 -0.981061 0
M  V30 39944 N 3652.39 0.868133 1.31534 0
M  V30 39945 C 3653.35 0.327495 2.26848 0
M  V30 39946 C 3654.35 -0.520488 1.52143 0
M  V30 39947 O 3655.54 -0.330058 1.71045 0
M  V30 39948 C 3652.67 -0.535114 3.36674 0
M  V30 39949 H 3653.86 1.16891 2.76182 0
M  V30 39950 H 3651.42 0.64357 1.42435 0
M  V30 39951 H 3652.15 -1.3978 2.9263 0
M  V30 39952 H 3651.94 0.0720524 3.92034 0
M  V30 39953 H 3653.43 -0.905714 4.0766 0
M  V30 39954 N 3653.86 -1.44574 0.627389 0
M  V30 39955 C 3655.09 -2.06956 0.135612 0
M  V30 39956 C 3655.51 -1.46549 -1.1792 0
M  V30 39957 O 3654.87 -0.565539 -1.72254 0
M  V30 39958 C 3654.92 -3.60587 0.0304104 0
M  V30 39959 O 3654.02 -3.99725 -1.01457 0
M  V30 39960 H 3653.36 -0.658783 0.0830695 0
M  V30 39961 H 3655.89 -1.85508 0.86301 0
M  V30 39962 H 3655.9 -4.07681 -0.16139 0
M  V30 39963 H 3654.58 -4.03937 0.990356 0
M  V30 39964 H 3653.16 -3.64269 -0.797637 0
M  V30 39965 N 3655.34 -0.367711 -1.5325 0
M  V30 39966 C 3656.29 0.494248 -2.22578 0
M  V30 39967 C 3657.28 1.04698 -1.22177 0
M  V30 39968 O 3658.47 0.97667 -1.47615 0
M  V30 39969 C 3655.6 1.63233 -3.0201 0
M  V30 39970 C 3654.68 1.09237 -4.0979 0
M  V30 39971 N 3655.07 0.275577 -5.05049 0
M  V30 39972 C 3653.37 1.36697 -4.24535 0
M  V30 39973 C 3654.07 -0.0202996 -5.81696 0
M  V30 39974 N 3653.05 0.577896 -5.40519 0
M  V30 39975 H 3656.85 -0.136584 -2.93582 0
M  V30 39976 H 3654.36 -0.175842 -1.61445 0
M  V30 39977 H 3656.36 2.26203 -3.50197 0
M  V30 39978 H 3655.02 2.2662 -2.32537 0
M  V30 39979 H 3656.03 -0.0853963 -5.1783 0
M  V30 39980 H 3652.71 2.00347 -3.66289 0
M  V30 39981 H 3654.1 -0.680739 -6.68443 0
M  V30 39982 N 3656.82 1.57302 -0.0969353 0
M  V30 39983 C 3658.24 1.57473 0.259712 0
M  V30 39984 C 3658.44 1.10821 1.68288 0
M  V30 39985 O 3657.49 0.785509 2.39971 0
M  V30 39986 C 3658.8 3.00664 0.0464682 0
M  V30 39987 C 3660.35 3.12792 0.114076 0
M  V30 39988 C 3660.83 4.57945 -0.071198 0
M  V30 39989 N 3662.32 4.63197 -0.0164252 0
M  V30 39990 C 3663.05 5.73241 -0.135 0
M  V30 39991 N 3662.55 6.92113 -0.308513 0
M  V30 39992 N 3664.34 5.62048 -0.0761399 0
M  V30 39993 H 3656.49 1.85934 -1.02676 0
M  V30 39994 H 3658.76 0.858291 -0.402543 0
M  V30 39995 H 3658.46 3.39001 -0.936556 0
M  V30 39996 H 3658.34 3.68878 0.787985 0
M  V30 39997 H 3660.72 2.74327 1.08761 0
M  V30 39998 H 3660.8 2.47167 -0.658962 0
M  V30 39999 H 3660.45 4.97105 -1.0416 0
M  V30 40000 H 3660.38 5.21633 0.721555 0
M  V30 40001 H 3662.87 3.77725 0.115068 0
M  V30 40002 H 3663.18 7.71813 -0.390453 0
M  V30 40003 H 3661.53 6.94147 -0.344204 0
M  V30 40004 H 3664.72 4.68064 0.0582955 0
M  V30 40005 H 3664.89 6.47772 -0.171998 0
M  V30 40006 N 3658.3 -0.176766 1.56606 0
M  V30 40007 C 3659.21 -1.23899 1.99214 0
M  V30 40008 C 3660.22 -1.48756 0.902641 0
M  V30 40009 O 3661.4 -1.61011 1.20985 0
M  V30 40010 C 3658.46 -2.55934 2.33878 0
M  V30 40011 C 3657.53 -2.38988 3.56628 0
M  V30 40012 C 3656.76 -3.64726 3.89629 0
M  V30 40013 O 3656.98 -4.69674 3.2367 0
M  V30 40014 O 3655.92 -3.59161 4.82998 0
M  V30 40015 H 3659.74 -0.907347 2.89829 0
M  V30 40016 H 3657.33 -0.383209 1.44402 0
M  V30 40017 H 3659.21 -3.33831 2.57167 0
M  V30 40018 H 3657.88 -2.88689 1.46426 0
M  V30 40019 H 3656.79 -1.5914 3.38564 0
M  V30 40020 H 3658.12 -2.11159 4.44604 0
M  V30 40021 N 3659.78 -1.51183 -0.445132 0
M  V30 40022 C 3660.72 -1.72497 -1.56037 0
M  V30 40023 C 3661.72 -0.591129 -1.58751 0
M  V30 40024 O 3662.92 -0.772313 -1.62589 0
M  V30 40025 H 3659.3 -0.5449 -0.518255 0
M  V30 40026 H 3661.27 -2.65998 -1.35232 0
M  V30 40027 C 3660.02 -1.86004 -2.93765 0
M  V30 40028 H 3659.34 -2.72652 -2.92405 0
M  V30 40029 H 3660.78 -2.04932 -3.71186 0
M  V30 40030 C 3659.24 -0.617911 -3.31185 0
M  V30 40031 O 3659.77 0.231031 -4.01035 0
M  V30 40032 N 3657.98 -0.464284 -2.86867 0
M  V30 40033 H 3657.52 -1.15618 -2.30196 0
M  V30 40034 H 3657.48 0.365589 -3.12267 0
M  V30 40035 N 3661.25 0.700065 -1.41198 0
M  V30 40036 C 3662.22 1.79579 -1.42422 0
M  V30 40037 C 3663.22 1.57674 -0.315537 0
M  V30 40038 O 3664.41 1.6443 -0.575202 0
M  V30 40039 C 3661.54 3.17891 -1.23119 0
M  V30 40040 H 3662.73 1.79888 -2.39959 0
M  V30 40041 H 3660.28 0.907248 -1.27274 0
M  V30 40042 H 3661.02 3.23223 -0.264049 0
M  V30 40043 H 3660.8 3.35191 -2.03443 0
M  V30 40044 H 3662.29 3.97884 -1.268 0
M  V30 40045 N 3662.73 1.26951 0.933869 0
M  V30 40046 C 3663.66 1.11652 2.05076 0
M  V30 40047 C 3664.64 0.0196762 1.70089 0
M  V30 40048 O 3665.83 0.193041 1.93238 0
M  V30 40049 C 3662.96 0.756446 3.38962 0
M  V30 40050 C 3661.91 1.80584 3.88038 0
M  V30 40051 C 3661.24 1.29989 5.18659 0
M  V30 40052 C 3662.54 3.20877 4.1211 0
M  V30 40053 H 3664.23 2.05081 2.18133 0
M  V30 40054 H 3661.78 0.987411 1.04815 0
M  V30 40055 H 3663.73 0.636263 4.16569 0
M  V30 40056 H 3662.45 -0.21355 3.25901 0
M  V30 40057 H 3661.11 1.91482 3.12618 0
M  V30 40058 H 3660.76 0.31953 5.01984 0
M  V30 40059 H 3660.46 2.00144 5.52464 0
M  V30 40060 H 3661.99 1.19253 5.98841 0
M  V30 40061 H 3663.4 3.13015 4.80307 0
M  V30 40062 H 3661.8 3.88687 4.57211 0
M  V30 40063 H 3662.87 3.6639 3.17626 0
M  V30 40064 N 3664.21 -1.13949 1.08873 0
M  V30 40065 C 3665.14 -2.18853 0.680887 0
M  V30 40066 C 3666.15 -1.6047 -0.274428 0
M  V30 40067 O 3667.34 -1.78395 -0.0613491 0
M  V30 40068 C 3664.44 -3.38895 -0.0182192 0
M  V30 40069 C 3663.62 -4.26798 0.9572 0
M  V30 40070 C 3662.68 -5.25386 0.292543 0
M  V30 40071 O 3661.7 -5.61411 0.938428 0
M  V30 40072 N 3662.9 -5.7258 -0.955638 0
M  V30 40073 H 3665.67 -2.54458 1.58338 0
M  V30 40074 H 3663.23 -1.29216 0.97544 0
M  V30 40075 H 3665.22 -4.01915 -0.473931 0
M  V30 40076 H 3663.79 -3.01575 -0.822879 0
M  V30 40077 H 3663.01 -3.6064 1.59163 0
M  V30 40078 H 3664.3 -4.82388 1.61801 0
M  V30 40079 H 3663.7 -5.4545 -1.50004 0
M  V30 40080 H 3662.25 -6.37565 -1.35476 0
M  V30 40081 N 3665.69 -0.875096 -1.31072 0
M  V30 40082 C 3666.96 -0.409049 -1.91275 0
M  V30 40083 C 3667.34 1.10936 -1.79601 0
M  V30 40084 O 3666.69 1.94024 -1.20693 0
M  V30 40085 C 3666.9 -0.896133 -3.37299 0
M  V30 40086 C 3668.25 -0.925278 -4.14396 0
M  V30 40087 O 3669.27 -0.84213 -3.46102 0
M  V30 40088 O 3668.13 -1.04649 -5.36387 0
M  V30 40089 H 3665.23 -0.123324 -0.817753 0
M  V30 40090 H 3667.77 -0.963346 -1.39706 0
M  V30 40091 H 3666.55 -1.93981 -3.39834 0
M  V30 40092 H 3666.17 -0.320437 -3.96307 0
M  V30 40093 N 3667.17 1.44239 -0.635047 0
M  V30 40094 C 3668.39 2.06881 -0.146585 0
M  V30 40095 C 3668.82 1.47172 1.17141 0
M  V30 40096 O 3668.17 0.574666 1.71951 0
M  V30 40097 C 3668.22 3.60566 -0.0495328 0
M  V30 40098 O 3667.33 4.00258 0.993353 0
M  V30 40099 H 3666.67 0.658334 -0.0865621 0
M  V30 40100 H 3669.2 1.85048 -0.872836 0
M  V30 40101 H 3669.21 4.07761 0.139767 0
M  V30 40102 H 3667.88 4.03406 -1.01176 0
M  V30 40103 H 3666.46 3.64687 0.778307 0
M  V30 40104 N 3668.64 0.375833 1.53053 0
M  V30 40105 C 3669.89 -0.211811 2.00585 0
M  V30 40106 C 3670.21 -1.49023 1.26694 0
M  V30 40107 O 3671.41 -2.15711 1.64867 0
M  V30 40108 C 3669.87 -0.428011 3.57346 0
M  V30 40109 C 3669.48 0.836376 4.40124 0
M  V30 40110 C 3671.22 -0.972753 4.13204 0
M  V30 40111 C 3669.13 0.589197 5.88458 0
M  V30 40112 H 3668.06 -0.082928 0.749426 0
M  V30 40113 H 3670.71 0.496157 1.76665 0
M  V30 40114 H 3669.09 -1.19749 3.7746 0
M  V30 40115 H 3670.26 1.60944 4.3178 0
M  V30 40116 H 3668.58 1.30508 3.95419 0
M  V30 40117 H 3671.18 -1.17317 5.21671 0
M  V30 40118 H 3671.52 -1.9379 3.68444 0
M  V30 40119 H 3672.05 -0.263179 3.96928 0
M  V30 40120 H 3668.79 1.52497 6.37515 0
M  V30 40121 H 3668.31 -0.14518 5.99624 0
M  V30 40122 H 3669.99 0.218599 6.46631 0
M  V30 40123 N 3670.12 -1.57248 0.105276 0
M  V30 40124 C 3671.05 -2.17601 -0.846877 0
M  V30 40125 C 3672.03 -1.11218 -1.28704 0
M  V30 40126 O 3673.22 -1.39398 -1.3521 0
M  V30 40127 C 3670.35 -2.76448 -2.10223 0
M  V30 40128 C 3669.3 -3.88293 -1.80034 0
M  V30 40129 C 3668.63 -4.33888 -3.12483 0
M  V30 40130 C 3669.93 -5.11026 -1.07934 0
M  V30 40131 H 3671.62 -2.97417 -0.344 0
M  V30 40132 H 3669.17 -1.43063 -0.16402 0
M  V30 40133 H 3671.12 -3.17324 -2.77278 0
M  V30 40134 H 3669.85 -1.93901 -2.62811 0
M  V30 40135 H 3668.5 -3.47972 -1.15373 0
M  V30 40136 H 3668.15 -3.48218 -3.62979 0
M  V30 40137 H 3667.85 -5.09301 -2.93063 0
M  V30 40138 H 3669.38 -4.77404 -3.8068 0
M  V30 40139 H 3670.79 -5.49007 -1.65118 0
M  V30 40140 H 3669.19 -5.91935 -0.98657 0
M  V30 40141 H 3670.26 -4.84858 -0.0637659 0
M  V30 40142 N 3671.6 0.168458 -1.56697 0
M  V30 40143 C 3672.56 1.19232 -1.95746 0
M  V30 40144 C 3673.56 1.37027 -0.841443 0
M  V30 40145 O 3674.75 1.34384 -1.10845 0
M  V30 40146 C 3671.89 2.55682 -2.25476 0
M  V30 40147 H 3673.08 0.857842 -2.87369 0
M  V30 40148 H 3670.63 0.411015 -1.50799 0
M  V30 40149 H 3671.37 2.94139 -1.36576 0
M  V30 40150 H 3671.15 2.44132 -3.06826 0
M  V30 40151 H 3672.64 3.29465 -2.56599 0
M  V30 40152 N 3673.08 1.51417 0.437109 0
M  V30 40153 C 3674.49 1.39598 0.773606 0
M  V30 40154 C 3674.69 0.478498 1.95736 0
M  V30 40155 O 3673.75 -0.0662527 2.52413 0
M  V30 40156 C 3675.06 2.81631 1.05377 0
M  V30 40157 C 3676.61 2.90784 1.15818 0
M  V30 40158 C 3677.09 4.33725 1.47128 0
M  V30 40159 N 3678.58 4.36832 1.54051 0
M  V30 40160 C 3679.31 5.44465 1.79849 0
M  V30 40161 N 3678.81 6.62258 2.03437 0
M  V30 40162 N 3680.6 5.31945 1.81633 0
M  V30 40163 H 3672.75 2.0962 -0.342505 0
M  V30 40164 H 3675.02 0.943638 -0.0908324 0
M  V30 40165 H 3674.72 3.50762 0.256646 0
M  V30 40166 H 3674.6 3.20972 1.98134 0
M  V30 40167 H 3676.98 2.2185 1.94593 0
M  V30 40168 H 3677.06 2.5494 0.209618 0
M  V30 40169 H 3676.71 5.03208 0.688808 0
M  V30 40170 H 3676.64 4.67082 2.43191 0
M  V30 40171 H 3679.13 3.5191 1.37724 0
M  V30 40172 H 3679.44 7.40079 2.22493 0
M  V30 40173 H 3677.79 6.65373 2.00759 0
M  V30 40174 H 3680.98 4.38906 1.62724 0
M  V30 40175 H 3681.15 6.15907 2.01401 0
M  V30 40176 N 3674.56 -0.692567 1.41567 0
M  V30 40177 C 3675.47 -1.8362 1.46017 0
M  V30 40178 C 3676.48 -1.70434 0.350483 0
M  V30 40179 O 3677.66 -1.92296 0.598668 0
M  V30 40180 C 3674.72 -3.19626 1.34313 0
M  V30 40181 C 3673.78 -3.44899 2.55623 0
M  V30 40182 C 3673.02 -4.74417 2.44468 0
M  V30 40183 O 3673.24 -5.51109 1.47088 0
M  V30 40184 O 3672.17 -5.0054 3.34281 0
M  V30 40185 H 3676 -1.82822 2.42507 0
M  V30 40186 H 3673.59 -0.846018 1.23138 0
M  V30 40187 H 3675.47 -4.0082 1.30082 0
M  V30 40188 H 3674.14 -3.21101 0.409399 0
M  V30 40189 H 3673.05 -2.63623 2.65431 0
M  V30 40190 H 3674.38 -3.48241 3.47835 0
M  V30 40191 N 3676.03 -1.27445 -0.927123 0
M  V30 40192 C 3676.96 -1.12738 -2.04481 0
M  V30 40193 C 3677.95 -0.0286961 -1.70076 0
M  V30 40194 O 3679.13 -0.203286 -1.93133 0
M  V30 40195 C 3676.26 -0.774411 -3.38556 0
M  V30 40196 C 3675.21 -1.82639 -3.87075 0
M  V30 40197 C 3674.54 -1.32738 -5.17962 0
M  V30 40198 C 3675.84 -3.23058 -4.10403 0
M  V30 40199 H 3677.53 -2.06235 -2.17043 0
M  V30 40200 H 3675.08 -0.992956 -1.0429 0
M  V30 40201 H 3677.03 -0.658346 -4.16226 0
M  V30 40202 H 3675.76 0.196263 -3.2601 0
M  V30 40203 H 3674.42 -1.93137 -3.11598 0
M  V30 40204 H 3674.06 -0.346147 -5.01808 0
M  V30 40205 H 3673.76 -2.03071 -5.51395 0
M  V30 40206 H 3675.29 -1.22427 -5.98201 0
M  V30 40207 H 3676.7 -3.15558 -4.7864 0
M  V30 40208 H 3675.1 -3.91107 -4.55143 0
M  V30 40209 H 3676.17 -3.68069 -3.15679 0
M  V30 40210 N 3677.51 1.1337 -1.09476 0
M  V30 40211 C 3678.46 2.18797 -0.734618 0
M  V30 40212 C 3679.43 1.63647 0.284404 0
M  V30 40213 O 3680.61 1.90077 0.165925 0
M  V30 40214 C 3677.75 3.4472 -0.161887 0
M  V30 40215 C 3676.87 4.1397 -1.23501 0
M  V30 40216 C 3676 5.27511 -0.624979 0
M  V30 40217 C 3675.04 5.88611 -1.67938 0
M  V30 40218 N 3674.18 6.93582 -1.09033 0
M  V30 40219 H 3679.02 2.48951 -1.63791 0
M  V30 40220 H 3676.56 1.22237 -0.818318 0
M  V30 40221 H 3678.51 4.16776 0.18798 0
M  V30 40222 H 3677.14 3.15015 0.704674 0
M  V30 40223 H 3676.2 3.40193 -1.70215 0
M  V30 40224 H 3677.51 4.55464 -2.03358 0
M  V30 40225 H 3676.66 6.06286 -0.223987 0
M  V30 40226 H 3675.4 4.87268 0.205128 0
M  V30 40227 H 3674.41 5.0853 -2.08991 0
M  V30 40228 H 3675.63 6.30926 -2.51215 0
M  V30 40229 H 3673.58 6.55396 -0.281516 0
M  V30 40230 H 3673.49 7.3362 -1.82586 0
M  V30 40231 H 3674.76 7.76209 -0.715564 0
M  V30 40232 N 3678.99 0.882035 1.30606 0
M  V30 40233 C 3679.92 0.303901 2.27176 0
M  V30 40234 C 3680.94 -0.539872 1.53588 0
M  V30 40235 O 3682.12 -0.3599 1.74834 0
M  V30 40236 C 3679.22 -0.58677 3.33782 0
M  V30 40237 C 3678.4 0.227274 4.36809 0
M  V30 40238 C 3677.46 -0.593427 5.22843 0
M  V30 40239 O 3676.48 -0.0171694 5.69197 0
M  V30 40240 N 3677.68 -1.90311 5.48418 0
M  V30 40241 H 3680.45 1.13383 2.77424 0
M  V30 40242 H 3678.01 0.744723 1.43755 0
M  V30 40243 H 3680 -1.14179 3.88259 0
M  V30 40244 H 3678.57 -1.31738 2.83485 0
M  V30 40245 H 3677.79 0.963741 3.82238 0
M  V30 40246 H 3679.08 0.785403 5.02702 0
M  V30 40247 H 3678.48 -2.39426 5.12535 0
M  V30 40248 H 3677.04 -2.40565 6.05782 0
M  V30 40249 N 3680.47 -1.439 0.642688 0
M  V30 40250 C 3681.4 -2.29008 -0.0938543 0
M  V30 40251 C 3682.41 -1.41927 -0.797536 0
M  V30 40252 O 3683.6 -1.65967 -0.657051 0
M  V30 40253 C 3680.7 -3.1859 -1.15558 0
M  V30 40254 C 3679.88 -4.34151 -0.532132 0
M  V30 40255 C 3678.93 -5.04683 -1.48935 0
M  V30 40256 O 3677.96 -5.60311 -1.00201 0
M  V30 40257 N 3679.16 -5.07205 -2.82353 0
M  V30 40258 H 3681.93 -2.92861 0.636591 0
M  V30 40259 H 3679.49 -1.54474 0.484692 0
M  V30 40260 H 3681.48 -3.6264 -1.79651 0
M  V30 40261 H 3680.05 -2.56408 -1.78812 0
M  V30 40262 H 3679.27 -3.93149 0.287667 0
M  V30 40263 H 3680.56 -5.08709 -0.0964631 0
M  V30 40264 H 3679.96 -4.63364 -3.24516 0
M  V30 40265 H 3678.51 -5.55007 -3.41776 0
M  V30 40266 N 3681.95 -0.383945 -1.52852 0
M  V30 40267 C 3682.88 0.497786 -2.22705 0
M  V30 40268 C 3683.86 1.06837 -1.22575 0
M  V30 40269 O 3685.04 1.12103 -1.51543 0
M  V30 40270 C 3682.17 1.68853 -2.93609 0
M  V30 40271 C 3681.22 1.24369 -4.07964 0
M  V30 40272 S 3682.05 0.229679 -5.35007 0
M  V30 40273 C 3683.2 1.42632 -6.09432 0
M  V30 40274 H 3683.44 -0.0954057 -2.97147 0
M  V30 40275 H 3680.97 -0.168111 -1.53482 0
M  V30 40276 H 3682.93 2.37144 -3.35071 0
M  V30 40277 H 3681.59 2.253 -2.18857 0
M  V30 40278 H 3680.78 2.13261 -4.56657 0
M  V30 40279 H 3680.38 0.639758 -3.68488 0
M  V30 40280 H 3682.68 2.35431 -6.35278 0
M  V30 40281 H 3683.62 0.980418 -7.0128 0
M  V30 40282 H 3684.03 1.64071 -5.40131 0
M  V30 40283 N 3683.43 1.5719 -0.113614 0
M  V30 40284 C 3684.36 2.12089 0.868948 0
M  V30 40285 C 3685.37 1.06236 1.23361 0
M  V30 40286 O 3686.56 1.33625 1.18349 0
M  V30 40287 C 3683.66 2.60109 2.17247 0
M  V30 40288 C 3682.83 3.90002 1.98033 0
M  V30 40289 C 3681.89 4.23676 3.12065 0
M  V30 40290 O 3680.92 4.92586 2.85215 0
M  V30 40291 N 3682.12 3.80564 4.38351 0
M  V30 40292 H 3684.88 2.97019 0.399944 0
M  V30 40293 H 3682.45 1.61744 0.0709662 0
M  V30 40294 H 3684.44 2.7967 2.92518 0
M  V30 40295 H 3683.01 1.80089 2.55513 0
M  V30 40296 H 3682.23 3.79404 1.06986 0
M  V30 40297 H 3683.52 4.74946 1.82494 0
M  V30 40298 H 3682.91 3.24974 4.63042 0
M  V30 40299 H 3681.47 4.05243 5.10511 0
M  V30 40300 N 3684.9 -0.160146 1.56784 0
M  V30 40301 C 3686.18 -0.902878 1.73515 0
M  V30 40302 C 3686.56 -1.99914 0.678071 0
M  V30 40303 O 3685.91 -2.26452 -0.305263 0
M  V30 40304 C 3686.12 -1.45739 3.17114 0
M  V30 40305 C 3687.47 -1.92595 3.78408 0
M  V30 40306 O 3688.49 -1.55509 3.20461 0
M  V30 40307 O 3687.35 -2.60946 4.80176 0
M  V30 40308 H 3684.44 -0.425751 0.708988 0
M  V30 40309 H 3686.99 -0.1471 1.69061 0
M  V30 40310 H 3685.76 -0.668917 3.8554 0
M  V30 40311 H 3685.38 -2.27704 3.2594 0
M  V30 40312 N 3686.38 -1.51647 -0.429072 0
M  V30 40313 C 3687.63 -1.63956 -1.17479 0
M  V30 40314 C 3687.94 -0.365684 -1.92151 0
M  V30 40315 O 3689.15 -0.368268 -2.68991 0
M  V30 40316 C 3687.61 -2.89588 -2.13697 0
M  V30 40317 C 3687.21 -4.2401 -1.44635 0
M  V30 40318 C 3688.96 -3.11257 -2.88651 0
M  V30 40319 C 3686.86 -5.40785 -2.39385 0
M  V30 40320 H 3685.79 -0.6107 -0.442223 0
M  V30 40321 H 3688.45 -1.78121 -0.441057 0
M  V30 40322 H 3686.83 -2.69076 -2.90541 0
M  V30 40323 H 3688 -4.54934 -0.732932 0
M  V30 40324 H 3686.32 -4.08286 -0.818013 0
M  V30 40325 H 3688.91 -3.95675 -3.59646 0
M  V30 40326 H 3689.26 -2.2467 -3.5047 0
M  V30 40327 H 3689.79 -3.32147 -2.18913 0
M  V30 40328 H 3686.53 -6.29657 -1.82244 0
M  V30 40329 H 3686.05 -5.14227 -3.08757 0
M  V30 40330 H 3687.73 -5.73066 -3.00339 0
M  V30 40331 N 3687.86 0.685049 -1.41932 0
M  V30 40332 C 3688.79 1.8105 -1.40548 0
M  V30 40333 C 3689.8 1.59897 -0.306052 0
M  V30 40334 O 3690.99 1.69206 -0.568474 0
M  V30 40335 C 3688.09 3.1799 -1.172 0
M  V30 40336 C 3687.27 3.6608 -2.39383 0
M  V30 40337 C 3686.33 4.81721 -2.11734 0
M  V30 40338 O 3685.35 4.92794 -2.84856 0
M  V30 40339 N 3686.55 5.69709 -1.11409 0
M  V30 40340 H 3689.32 1.82726 -2.37553 0
M  V30 40341 H 3686.88 0.867766 -1.3668 0
M  V30 40342 H 3688.87 3.92993 -0.966376 0
M  V30 40343 H 3687.44 3.11275 -0.287553 0
M  V30 40344 H 3686.66 2.81868 -2.7558 0
M  V30 40345 H 3687.95 3.94951 -3.20767 0
M  V30 40346 H 3687.35 5.63404 -0.509107 0
M  V30 40347 H 3685.9 6.44567 -0.968352 0
M  V30 40348 N 3689.34 1.27935 0.920351 0
M  V30 40349 C 3690.3 1.11325 2.00348 0
M  V30 40350 C 3691.3 0.0549414 1.60706 0
M  V30 40351 O 3692.49 0.300164 1.71594 0
M  V30 40352 C 3689.62 0.697879 3.3368 0
M  V30 40353 H 3690.82 2.07513 2.16514 0
M  V30 40354 H 3688.37 1.10827 1.10214 0
M  V30 40355 H 3689.1 -0.265065 3.23215 0
M  V30 40356 H 3688.89 1.46229 3.63812 0
M  V30 40357 H 3690.38 0.60412 4.13207 0
M  V30 40358 N 3690.82 -1.12788 1.10076 0
M  V30 40359 C 3691.73 -2.22 0.758497 0
M  V30 40360 C 3692.74 -1.72303 -0.242408 0
M  V30 40361 O 3693.92 -2.01233 -0.082087 0
M  V30 40362 C 3690.98 -3.46171 0.191387 0
M  V30 40363 C 3690.04 -4.10726 1.24909 0
M  V30 40364 C 3689.28 -5.2897 0.70895 0
M  V30 40365 O 3689.5 -5.68494 -0.465893 0
M  V30 40366 O 3688.43 -5.83746 1.46713 0
M  V30 40367 H 3692.26 -2.53662 1.67001 0
M  V30 40368 H 3689.84 -1.2105 0.875626 0
M  V30 40369 H 3691.73 -4.21226 -0.121218 0
M  V30 40370 H 3690.4 -3.16194 -0.693039 0
M  V30 40371 H 3689.31 -3.37468 1.6145 0
M  V30 40372 H 3690.64 -4.4485 2.1064 0
M  V30 40373 N 3692.29 -0.888949 -1.30136 0
M  V30 40374 C 3693.54 -0.505435 -1.95265 0
M  V30 40375 C 3693.86 0.950968 -1.70927 0
M  V30 40376 O 3695.06 1.44151 -2.30071 0
M  V30 40377 C 3693.52 -0.852998 -3.49645 0
M  V30 40378 C 3693.13 -2.32744 -3.82798 0
M  V30 40379 C 3694.87 -0.538875 -4.21066 0
M  V30 40380 C 3692.78 -2.61643 -5.30374 0
M  V30 40381 H 3691.71 -0.185291 -0.730878 0
M  V30 40382 H 3694.36 -1.08447 -1.48025 0
M  V30 40383 H 3692.74 -0.203007 -3.95479 0
M  V30 40384 H 3693.91 -3.02208 -3.4786 0
M  V30 40385 H 3692.23 -2.6095 -3.2449 0
M  V30 40386 H 3694.83 -0.731769 -5.29669 0
M  V30 40387 H 3695.17 0.521966 -4.13015 0
M  V30 40388 H 3695.7 -1.14623 -3.80928 0
M  V30 40389 H 3692.44 -3.66483 -5.4348 0
M  V30 40390 H 3691.96 -1.96792 -5.66598 0
M  V30 40391 H 3693.64 -2.4735 -5.97852 0
M  V30 40392 N 3693.77 1.43557 -0.65031 0
M  V30 40393 C 3695.05 1.95381 -0.0925687 0
M  V30 40394 C 3695.43 1.59171 1.38665 0
M  V30 40395 O 3694.78 0.875361 2.11068 0
M  V30 40396 C 3694.99 3.47382 -0.335718 0
M  V30 40397 C 3696.33 4.23926 -0.239107 0
M  V30 40398 O 3697.36 3.55189 -0.268119 0
M  V30 40399 O 3696.22 5.46265 -0.160337 0
M  V30 40400 H 3693.31 0.826923 0.0112938 0
M  V30 40401 H 3695.86 1.53512 -0.723346 0
M  V30 40402 H 3694.63 3.66854 -1.36138 0
M  V30 40403 H 3694.25 3.96243 0.328269 0
M  V30 40404 N 3695.25 0.392045 1.52646 0
M  V30 40405 C 3696.21 -0.429714 2.25136 0
M  V30 40406 C 3697.21 -0.987924 1.26873 0
M  V30 40407 O 3698.4 -0.869494 1.50949 0
M  V30 40408 C 3695.53 -1.60316 3.00851 0
M  V30 40409 H 3696.73 0.20497 2.99199 0
M  V30 40410 H 3694.28 0.144215 1.55633 0
M  V30 40411 H 3695.02 -2.2752 2.31096 0
M  V30 40412 H 3694.8 -1.20957 3.72977 0
M  V30 40413 H 3696.29 -2.18488 3.55883 0
M  V30 40414 N 3696.73 -1.57127 0.121948 0
M  V30 40415 C 3697.68 -2.12027 -0.838376 0
M  V30 40416 C 3698.66 -1.04177 -1.22621 0
M  V30 40417 O 3699.85 -1.30405 -1.19681 0
M  V30 40418 C 3696.98 -2.72558 -2.08728 0
M  V30 40419 C 3696.07 -3.87492 -1.72367 0
M  V30 40420 N 3696.46 -4.94418 -1.06697 0
M  V30 40421 C 3694.76 -3.97731 -2.01806 0
M  V30 40422 C 3695.46 -5.74767 -0.895409 0
M  V30 40423 N 3694.44 -5.24689 -1.42135 0
M  V30 40424 H 3698.24 -2.92074 -0.327149 0
M  V30 40425 H 3695.75 -1.62201 -0.0804268 0
M  V30 40426 H 3697.75 -3.10234 -2.78497 0
M  V30 40427 H 3696.41 -1.93975 -2.60392 0
M  V30 40428 H 3697.42 -5.12721 -0.730612 0
M  V30 40429 H 3694.1 -3.30194 -2.55496 0
M  V30 40430 H 3695.49 -6.70826 -0.379718 0
M  V30 40431 N 3698.21 0.151829 -1.56867 0
M  V30 40432 C 3699.15 1.20681 -1.98844 0
M  V30 40433 C 3700.15 1.44744 -0.880095 0
M  V30 40434 O 3701.35 1.45093 -1.06527 0
M  V30 40435 H 3697.73 0.406112 -0.632911 0
M  V30 40436 H 3699.7 0.826044 -2.86739 0
M  V30 40437 C 3698.45 2.53385 -2.381 0
M  V30 40438 H 3697.77 2.35698 -3.22934 0
M  V30 40439 H 3699.21 3.25842 -2.71298 0
M  V30 40440 C 3697.67 3.13573 -1.2318 0
M  V30 40441 O 3698.2 3.98189 -0.529934 0
M  V30 40442 N 3696.41 2.72951 -0.997303 0
M  V30 40443 H 3695.95 2.04241 -1.56982 0
M  V30 40444 H 3695.91 3.13556 -0.230276 0
M  V30 40445 N 3699.68 1.51872 0.421024 0
M  V30 40446 C 3700.96 1.55899 1.1813 0
M  V30 40447 C 3701.34 0.332913 2.08458 0
M  V30 40448 O 3700.69 -0.681014 2.18116 0
M  V30 40449 C 3700.9 2.88154 1.96896 0
M  V30 40450 C 3702.25 3.40714 2.53376 0
M  V30 40451 O 3703.27 2.89814 2.0709 0
M  V30 40452 O 3702.13 4.29567 3.37838 0
M  V30 40453 H 3699.22 0.627472 0.53871 0
M  V30 40454 H 3701.77 1.64194 0.428769 0
M  V30 40455 H 3700.54 3.68844 1.30653 0
M  V30 40456 H 3700.17 2.83097 2.7918 0
M  V30 40457 N 3701.16 -0.677513 1.42294 0
M  V30 40458 C 3702.41 -1.43332 1.41912 0
M  V30 40459 C 3702.72 -1.95563 0.0379854 0
M  V30 40460 O 3703.93 -2.71356 -0.088436 0
M  V30 40461 C 3702.39 -2.59271 2.49613 0
M  V30 40462 C 3701.99 -2.1375 3.93719 0
M  V30 40463 C 3703.74 -3.36798 2.58393 0
M  V30 40464 C 3701.65 -3.26756 4.92935 0
M  V30 40465 H 3700.58 -0.538451 0.527813 0
M  V30 40466 H 3703.23 -0.733762 1.68191 0
M  V30 40467 H 3701.61 -3.31581 2.16494 0
M  V30 40468 H 3702.78 -1.48611 4.36178 0
M  V30 40469 H 3701.1 -1.49168 3.88764 0
M  V30 40470 H 3703.69 -4.20955 3.29698 0
M  V30 40471 H 3704.04 -3.83207 1.6266 0
M  V30 40472 H 3704.57 -2.71556 2.90693 0
M  V30 40473 H 3701.31 -2.85341 5.90136 0
M  V30 40474 H 3700.83 -3.90686 4.5511 0
M  V30 40475 H 3702.51 -3.92264 5.14527 0
M  V30 40476 N 3702.64 -1.28421 -0.913554 0
M  V30 40477 C 3703.89 -1.15587 -1.66271 0
M  V30 40478 C 3704.22 0.295507 -1.92242 0
M  V30 40479 O 3703.47 1.23134 -1.52107 0
M  V30 40480 C 3703.77 -1.89991 -3.02718 0
M  V30 40481 C 3703.44 -3.39785 -2.96407 0
M  V30 40482 C 3702.1 -3.8064 -2.94392 0
M  V30 40483 C 3704.45 -4.35301 -2.8664 0
M  V30 40484 C 3701.78 -5.1535 -2.80413 0
M  V30 40485 C 3704.13 -5.70085 -2.74201 0
M  V30 40486 C 3702.79 -6.10214 -2.70545 0
M  V30 40487 H 3702.06 -0.422961 -0.608428 0
M  V30 40488 H 3704.71 -1.59198 -1.06435 0
M  V30 40489 H 3703.02 -1.38929 -3.66341 0
M  V30 40490 H 3704.71 -1.77476 -3.59588 0
M  V30 40491 H 3701.3 -3.07303 -2.98769 0
M  V30 40492 H 3705.49 -4.047 -2.87284 0
M  V30 40493 H 3700.74 -5.4557 -2.75978 0
M  V30 40494 H 3704.92 -6.43757 -2.65612 0
M  V30 40495 H 3702.54 -7.14548 -2.5947 0
M  V30 40496 N 3704.12 1.12202 -1.10672 0
M  V30 40497 C 3705.07 2.18005 -0.757783 0
M  V30 40498 C 3706.04 1.63939 0.267032 0
M  V30 40499 O 3707.22 1.90242 0.145755 0
M  V30 40500 C 3704.36 3.44529 -0.19844 0
M  V30 40501 C 3703.47 4.12637 -1.27885 0
M  V30 40502 C 3702.61 5.26818 -0.680893 0
M  V30 40503 C 3701.65 5.86797 -1.74171 0
M  V30 40504 N 3700.78 6.92387 -1.16384 0
M  V30 40505 H 3705.62 2.47199 -1.66422 0
M  V30 40506 H 3703.16 1.21363 -0.831237 0
M  V30 40507 H 3705.12 4.16952 0.143765 0
M  V30 40508 H 3703.75 3.15744 0.671223 0
M  V30 40509 H 3702.8 3.38368 -1.73814 0
M  V30 40510 H 3704.11 4.53281 -2.08177 0
M  V30 40511 H 3703.27 6.06015 -0.288279 0
M  V30 40512 H 3702.01 4.87459 0.153435 0
M  V30 40513 H 3701.01 5.06285 -2.14372 0
M  V30 40514 H 3702.24 6.28226 -2.57893 0
M  V30 40515 H 3700.18 6.5506 -0.351014 0
M  V30 40516 H 3700.1 7.31642 -1.90356 0
M  V30 40517 H 3701.37 7.75406 -0.797851 0
M  V30 40518 N 3705.6 0.895838 1.29663 0
M  V30 40519 C 3706.82 0.534368 2.00398 0
M  V30 40520 C 3707.25 -0.872625 1.66634 0
M  V30 40521 O 3706.6 -1.58017 0.888839 0
M  V30 40522 C 3706.65 0.729085 3.53153 0
M  V30 40523 O 3705.76 -0.220158 4.11812 0
M  V30 40524 H 3705.1 0.209244 0.630169 0
M  V30 40525 H 3707.63 1.20637 1.65251 0
M  V30 40526 H 3707.64 0.63225 4.03071 0
M  V30 40527 H 3706.31 1.75487 3.77064 0
M  V30 40528 H 3704.89 -0.0761031 3.72822 0
M  V30 40529 N 3707.07 -1.43211 0.657914 0
M  V30 40530 C 3708.32 -2.00978 0.170528 0
M  V30 40531 C 3708.64 -1.52541 -1.22436 0
M  V30 40532 O 3709.84 -2.02613 -1.80722 0
M  V30 40533 C 3708.3 -3.59002 0.254045 0
M  V30 40534 C 3707.91 -4.16432 1.65193 0
M  V30 40535 C 3709.65 -4.24137 -0.175496 0
M  V30 40536 C 3707.56 -5.66765 1.68912 0
M  V30 40537 H 3706.49 -0.75161 0.05999 0
M  V30 40538 H 3709.14 -1.64127 0.820635 0
M  V30 40539 H 3707.52 -3.93276 -0.463654 0
M  V30 40540 H 3708.69 -3.93649 2.39536 0
M  V30 40541 H 3707.01 -3.63686 2.02785 0
M  V30 40542 H 3709.61 -5.34437 -0.16762 0
M  V30 40543 H 3709.95 -3.98395 -1.20777 0
M  V30 40544 H 3710.48 -3.94763 0.490613 0
M  V30 40545 H 3707.22 -5.97281 2.70065 0
M  V30 40546 H 3706.74 -5.9159 0.98901 0
M  V30 40547 H 3708.42 -6.30887 1.43496 0
M  V30 40548 N 3708.55 -0.400135 -1.52436 0
M  V30 40549 C 3709.83 0.236676 -1.94163 0
M  V30 40550 C 3710.21 1.63413 -1.33639 0
M  V30 40551 O 3709.56 2.22766 -0.508682 0
M  V30 40552 C 3709.77 0.252098 -3.48088 0
M  V30 40553 C 3711.12 0.475812 -4.21926 0
M  V30 40554 O 3712.14 0.331843 -3.54651 0
M  V30 40555 O 3711 0.7588 -5.41207 0
M  V30 40556 H 3708.09 0.149926 -0.813296 0
M  V30 40557 H 3710.64 -0.455428 -1.63475 0
M  V30 40558 H 3709.41 -0.726331 -3.845 0
M  V30 40559 H 3709.03 0.988675 -3.85112 0
M  V30 40560 N 3710.03 1.57061 -0.13028 0
M  V30 40561 C 3711.28 1.9519 0.523935 0
M  V30 40562 C 3711.6 1.01517 1.66491 0
M  V30 40563 O 3710.87 0.0735538 1.95762 0
M  V30 40564 H 3709.45 0.720681 0.196541 0
M  V30 40565 H 3712.11 1.93852 -0.201864 0
M  V30 40566 H 3711.21 2.98505 0.911104 0
M  V30 40567 N 3711.51 -0.143508 1.56945 0
M  V30 40568 C 3712.46 -1.19625 1.99481 0
M  V30 40569 C 3713.45 -1.44275 0.887759 0
M  V30 40570 O 3714.66 -1.44526 1.07295 0
M  V30 40571 H 3711.03 -0.40275 0.635056 0
M  V30 40572 H 3713 -0.810826 2.87173 0
M  V30 40573 C 3711.75 -2.52118 2.3944 0
M  V30 40574 H 3711.08 -2.33982 3.2418 0
M  V30 40575 H 3712.52 -3.24399 2.73022 0
M  V30 40576 C 3710.97 -3.12916 1.24842 0
M  V30 40577 O 3711.5 -3.97903 0.551043 0
M  V30 40578 N 3709.71 -2.72418 1.01176 0
M  V30 40579 H 3709.26 -2.03405 1.58063 0
M  V30 40580 H 3709.22 -3.13429 0.246901 0
M  V30 40581 N 3712.99 -1.52093 -0.412964 0
M  V30 40582 C 3714.4 -1.40811 -0.7513 0
M  V30 40583 C 3714.6 -0.509577 -1.9495 0
M  V30 40584 O 3713.66 0.0260876 -2.52487 0
M  V30 40585 C 3714.97 -2.83272 -1.00883 0
M  V30 40586 C 3716.52 -2.92589 -1.11178 0
M  V30 40587 C 3717 -4.36011 -1.40209 0
M  V30 40588 N 3718.49 -4.39228 -1.47082 0
M  V30 40589 C 3719.22 -5.47257 -1.71164 0
M  V30 40590 N 3718.72 -6.6541 -1.92876 0
M  V30 40591 N 3720.51 -5.34768 -1.73147 0
M  V30 40592 H 3712.66 -2.09049 0.375811 0
M  V30 40593 H 3714.92 -0.942074 0.105833 0
M  V30 40594 H 3714.63 -3.51126 -0.200811 0
M  V30 40595 H 3714.5 -3.24083 -1.93002 0
M  V30 40596 H 3716.89 -2.24918 -1.91039 0
M  V30 40597 H 3716.97 -2.55241 -0.169033 0
M  V30 40598 H 3716.62 -5.0424 -0.608665 0
M  V30 40599 H 3716.55 -4.70892 -2.35729 0
M  V30 40600 H 3719.04 -3.54056 -1.32108 0
M  V30 40601 H 3719.35 -7.43525 -2.1069 0
M  V30 40602 H 3717.7 -6.68482 -1.90148 0
M  V30 40603 H 3720.89 -4.41439 -1.55721 0
M  V30 40604 H 3721.06 -6.19033 -1.91576 0
M  V30 40605 N 3714.47 0.669957 -1.42651 0
M  V30 40606 C 3715.4 1.79549 -1.4246 0
M  V30 40607 C 3716.41 1.59564 -0.322994 0
M  V30 40608 O 3717.6 1.68593 -0.586388 0
M  V30 40609 C 3714.7 3.16729 -1.20566 0
M  V30 40610 C 3713.87 3.63521 -2.43252 0
M  V30 40611 C 3712.93 4.79448 -2.16831 0
M  V30 40612 O 3711.96 4.89745 -2.90067 0
M  V30 40613 N 3713.16 5.68495 -1.17446 0
M  V30 40614 H 3715.92 1.80196 -2.39477 0
M  V30 40615 H 3713.49 0.85322 -1.37593 0
M  V30 40616 H 3715.48 3.91946 -1.008 0
M  V30 40617 H 3714.05 3.10952 -0.320552 0
M  V30 40618 H 3713.27 2.78929 -2.78554 0
M  V30 40619 H 3714.56 3.91526 -3.24938 0
M  V30 40620 H 3713.95 5.62833 -0.568835 0
M  V30 40621 H 3712.51 6.43503 -1.03666 0
M  V30 40622 N 3715.94 1.28904 0.90673 0
M  V30 40623 C 3716.89 1.13432 2.01002 0
M  V30 40624 C 3717.86 0.0295322 1.66074 0
M  V30 40625 O 3719.05 0.195761 1.89793 0
M  V30 40626 C 3716.19 0.809516 3.35471 0
M  V30 40627 C 3715.3 1.99405 3.83226 0
M  V30 40628 C 3714.43 1.60924 5.06238 0
M  V30 40629 C 3713.47 2.76 5.46343 0
M  V30 40630 N 3712.61 2.37964 6.60543 0
M  V30 40631 H 3717.45 2.07829 2.13568 0
M  V30 40632 H 3714.99 1.03429 1.04598 0
M  V30 40633 H 3716.94 0.601917 4.12835 0
M  V30 40634 H 3715.57 -0.0975329 3.22653 0
M  V30 40635 H 3714.63 2.31356 3.01958 0
M  V30 40636 H 3715.94 2.85657 4.08903 0
M  V30 40637 H 3715.09 1.36412 5.91166 0
M  V30 40638 H 3713.83 0.718106 4.82384 0
M  V30 40639 H 3712.84 3.01203 4.59953 0
M  V30 40640 H 3714.06 3.65767 5.72181 0
M  V30 40641 H 3712.01 1.51329 6.38307 0
M  V30 40642 H 3711.92 3.1775 6.85982 0
M  V30 40643 H 3713.19 2.16753 7.48758 0
M  V30 40644 N 3717.42 -1.11614 1.11266 0
M  V30 40645 C 3718.35 -2.1677 0.713154 0
M  V30 40646 C 3719.33 -1.59997 -0.289763 0
M  V30 40647 O 3720.52 -1.87574 -0.186616 0
M  V30 40648 C 3717.64 -3.38658 0.0536379 0
M  V30 40649 C 3716.69 -4.14089 1.02141 0
M  V30 40650 S 3717.52 -4.71265 2.54303 0
M  V30 40651 C 3718.68 -5.96477 1.89647 0
M  V30 40652 H 3718.91 -2.50323 1.60392 0
M  V30 40653 H 3716.44 -1.2321 0.930515 0
M  V30 40654 H 3718.4 -4.09247 -0.320532 0
M  V30 40655 H 3717.06 -3.03368 -0.814054 0
M  V30 40656 H 3716.26 -5.0144 0.507358 0
M  V30 40657 H 3715.86 -3.4925 1.33791 0
M  V30 40658 H 3718.15 -6.66207 1.23183 0
M  V30 40659 H 3719.09 -6.52524 2.74988 0
M  V30 40660 H 3719.5 -5.47937 1.35738 0
M  V30 40661 N 3718.9 -0.902701 -1.29186 0
M  V30 40662 C 3720.15 -0.530943 -1.95726 0
M  V30 40663 C 3720.48 0.920984 -1.70972 0
M  V30 40664 O 3719.75 1.65337 -1.02439 0
M  V30 40665 C 3720.04 -0.827584 -3.50461 0
M  V30 40666 C 3719.89 -2.33143 -3.84661 0
M  V30 40667 C 3721.21 -0.31613 -4.38963 0
M  V30 40668 H 3718.33 -0.194374 -0.710906 0
M  V30 40669 H 3720.97 -1.12993 -1.5275 0
M  V30 40670 H 3719.12 -0.3178 -3.87198 0
M  V30 40671 H 3720.79 -2.91099 -3.57854 0
M  V30 40672 H 3719.03 -2.79094 -3.32098 0
M  V30 40673 H 3719.71 -2.48956 -4.92671 0
M  V30 40674 H 3722.18 -0.752692 -4.09236 0
M  V30 40675 H 3721.06 -0.552865 -5.46109 0
M  V30 40676 H 3721.32 0.783253 -4.35106 0
M  V30 40677 N 3720.38 1.4286 -0.6655 0
M  V30 40678 C 3721.32 2.30793 0.0185798 0
M  V30 40679 C 3722.29 1.45443 0.802223 0
M  V30 40680 O 3723.48 1.74291 0.776352 0
M  V30 40681 C 3720.62 3.31174 0.970441 0
M  V30 40682 C 3719.73 4.31618 0.181604 0
M  V30 40683 C 3718.87 5.19077 1.12837 0
M  V30 40684 C 3717.91 6.11206 0.330681 0
M  V30 40685 N 3717.04 6.91248 1.22967 0
M  V30 40686 H 3721.88 2.8874 -0.737119 0
M  V30 40687 H 3719.42 1.42233 -0.37525 0
M  V30 40688 H 3721.38 3.87894 1.53605 0
M  V30 40689 H 3720.01 2.74848 1.69287 0
M  V30 40690 H 3719.06 3.77093 -0.500481 0
M  V30 40691 H 3720.37 4.96872 -0.438128 0
M  V30 40692 H 3719.53 5.80483 1.76421 0
M  V30 40693 H 3718.27 4.53978 1.782 0
M  V30 40694 H 3717.27 5.48877 -0.318429 0
M  V30 40695 H 3718.5 6.78352 -0.318718 0
M  V30 40696 H 3716.44 6.28786 1.86988 0
M  V30 40697 H 3716.36 7.53071 0.6648 0
M  V30 40698 H 3717.63 7.57149 1.85327 0
M  V30 40699 N 3721.86 0.408213 1.52221 0
M  V30 40700 C 3722.82 -0.405811 2.25579 0
M  V30 40701 C 3723.82 -0.974412 1.27913 0
M  V30 40702 O 3725.01 -0.853435 1.51862 0
M  V30 40703 C 3722.14 -1.57116 3.02535 0
M  V30 40704 H 3723.33 0.236693 2.98965 0
M  V30 40705 H 3720.89 0.160714 1.55472 0
M  V30 40706 H 3721.62 -2.25056 2.33496 0
M  V30 40707 H 3721.41 -1.16994 3.74239 0
M  V30 40708 H 3722.9 -2.14701 3.5818 0
M  V30 40709 N 3723.33 -1.56989 0.138607 0
M  V30 40710 C 3724.26 -2.19349 -0.80053 0
M  V30 40711 C 3725.24 -1.13923 -1.26316 0
M  V30 40712 O 3726.43 -1.42235 -1.32223 0
M  V30 40713 C 3723.56 -2.80845 -2.04312 0
M  V30 40714 C 3722.51 -3.92025 -1.71757 0
M  V30 40715 C 3721.84 -4.40418 -3.03209 0
M  V30 40716 C 3723.14 -5.132 -0.970698 0
M  V30 40717 H 3724.83 -2.9808 -0.280836 0
M  V30 40718 H 3722.38 -1.43379 -0.133638 0
M  V30 40719 H 3724.33 -3.23134 -2.70485 0
M  V30 40720 H 3723.06 -1.99432 -2.58639 0
M  V30 40721 H 3721.72 -3.50341 -1.07966 0
M  V30 40722 H 3721.36 -3.55838 -3.55511 0
M  V30 40723 H 3721.06 -5.15403 -2.82194 0
M  V30 40724 H 3722.59 -4.85372 -3.70468 0
M  V30 40725 H 3724 -5.52386 -1.53435 0
M  V30 40726 H 3722.4 -5.93894 -0.86079 0
M  V30 40727 H 3723.47 -4.84884 0.039094 0
M  V30 40728 N 3724.81 0.135183 -1.57019 0
M  V30 40729 C 3726.06 0.844115 -1.83628 0
M  V30 40730 C 3726.38 1.81168 -0.72133 0
M  V30 40731 O 3725.65 1.94219 0.256061 0
M  V30 40732 H 3724.23 0.314713 -0.677469 0
M  V30 40733 H 3726.89 0.126365 -1.9449 0
M  V30 40734 H 3725.99 1.3992 -2.78978 0
M  V30 40735 N 3726.29 1.5231 0.404892 0
M  V30 40736 C 3727.24 1.76573 1.51409 0
M  V30 40737 C 3728.23 0.633011 1.57128 0
M  V30 40738 O 3729.44 0.815149 1.60485 0
M  V30 40739 H 3725.81 0.558449 0.503626 0
M  V30 40740 H 3727.78 2.6949 1.28132 0
M  V30 40741 C 3726.53 1.93727 2.8873 0
M  V30 40742 H 3725.86 2.80309 2.85073 0
M  V30 40743 H 3727.3 2.14701 3.65622 0
M  V30 40744 C 3725.76 0.705502 3.2943 0
M  V30 40745 O 3726.29 -0.124622 4.01507 0
M  V30 40746 N 3724.49 0.540179 2.85535 0
M  V30 40747 H 3724.04 1.21681 2.2705 0
M  V30 40748 H 3724 -0.282668 3.13127 0
M  V30 40749 N 3727.77 -0.662382 1.43004 0
M  V30 40750 C 3728.99 -1.45531 1.47769 0
M  V30 40751 C 3729.42 -1.87865 0.0940628 0
M  V30 40752 O 3728.78 -1.56795 -0.910224 0
M  V30 40753 C 3728.82 -2.67256 2.42089 0
M  V30 40754 O 3727.93 -3.65982 1.90082 0
M  V30 40755 H 3727.27 -0.436716 0.500175 0
M  V30 40756 H 3729.8 -0.811366 1.87824 0
M  V30 40757 H 3729.81 -3.1518 2.59086 0
M  V30 40758 H 3728.48 -2.35784 3.42606 0
M  V30 40759 H 3727.06 -3.25077 1.82701 0
M  V30 40760 N 3729.25 -1.29383 -0.899882 0
M  V30 40761 C 3730.16 -1.16382 -2.03697 0
M  V30 40762 C 3731.17 -0.0871097 -1.73782 0
M  V30 40763 O 3732.35 -0.299144 -1.99166 0
M  V30 40764 C 3729.41 -0.841225 -3.3634 0
M  V30 40765 C 3728.47 -2.00175 -3.79774 0
M  V30 40766 C 3727.71 -1.69446 -5.06087 0
M  V30 40767 O 3727.93 -0.615312 -5.67071 0
M  V30 40768 O 3726.86 -2.54238 -5.4557 0
M  V30 40769 H 3730.69 -2.1187 -2.17588 0
M  V30 40770 H 3728.28 -1.08833 -1.02351 0
M  V30 40771 H 3730.16 -0.675876 -4.15945 0
M  V30 40772 H 3728.83 0.0838807 -3.23591 0
M  V30 40773 H 3727.74 -2.22234 -3.00937 0
M  V30 40774 H 3729.07 -2.90805 -3.97106 0
M  V30 40775 N 3730.72 1.11022 -1.11856 0
M  V30 40776 C 3731.63 2.20765 -0.793719 0
M  V30 40777 C 3732.65 1.72667 0.214965 0
M  V30 40778 O 3733.83 2.01338 0.0500622 0
M  V30 40779 C 3730.89 3.45823 -0.246436 0
M  V30 40780 C 3729.95 4.08687 -1.31428 0
M  V30 40781 C 3729.19 5.27775 -0.793014 0
M  V30 40782 O 3729.41 5.69163 0.375392 0
M  V30 40783 O 3728.34 5.81338 -1.55981 0
M  V30 40784 H 3732.17 2.50973 -1.71015 0
M  V30 40785 H 3729.75 1.19642 -0.894773 0
M  V30 40786 H 3731.64 4.21365 0.0541891 0
M  V30 40787 H 3730.31 3.17257 0.642647 0
M  V30 40788 H 3729.22 3.34857 -1.66798 0
M  V30 40789 H 3730.55 4.41443 -2.17691 0
M  V30 40790 N 3732.2 0.90954 1.28706 0
M  V30 40791 C 3733.17 0.3995 2.25691 0
M  V30 40792 C 3734.17 -0.471821 1.53722 0
M  V30 40793 O 3735.36 -0.275474 1.72008 0
M  V30 40794 C 3732.49 -0.427733 3.38206 0
M  V30 40795 H 3733.68 1.25618 2.72324 0
M  V30 40796 H 3731.23 0.688559 1.40316 0
M  V30 40797 H 3731.97 -1.30399 2.96928 0
M  V30 40798 H 3731.75 0.196738 3.91606 0
M  V30 40799 H 3733.24 -0.775562 4.10335 0
M  V30 40800 N 3733.68 -1.42505 0.673067 0
M  V30 40801 C 3734.91 -2.05902 0.202959 0
M  V30 40802 C 3735.32 -1.50558 -1.1392 0
M  V30 40803 O 3734.68 -0.644692 -1.70734 0
M  V30 40804 C 3734.73 -3.61275 0.127413 0
M  V30 40805 O 3734.45 -4.14567 1.41654 0
M  V30 40806 C 3735.95 -4.41783 -0.366399 0
M  V30 40807 H 3733.17 -0.66364 0.0991138 0
M  V30 40808 H 3735.72 -1.82671 0.919314 0
M  V30 40809 H 3733.87 -3.83623 -0.53962 0
M  V30 40810 H 3734.29 -5.0842 1.28875 0
M  V30 40811 H 3735.76 -5.50771 -0.36817 0
M  V30 40812 H 3736.24 -4.16244 -1.40135 0
M  V30 40813 H 3736.84 -4.24449 0.268836 0
M  V30 40814 N 3735.16 -0.41628 -1.52003 0
M  V30 40815 C 3736.09 0.450435 -2.2371 0
M  V30 40816 C 3737.07 1.04213 -1.24814 0
M  V30 40817 O 3738.25 1.08863 -1.53887 0
M  V30 40818 C 3735.38 1.62587 -2.97125 0
M  V30 40819 C 3734.43 1.15688 -4.1051 0
M  V30 40820 S 3735.26 0.116145 -5.35374 0
M  V30 40821 C 3736.42 1.29673 -6.1232 0
M  V30 40822 H 3736.65 -0.158414 -2.96878 0
M  V30 40823 H 3734.18 -0.200629 -1.53091 0
M  V30 40824 H 3736.14 2.29984 -3.40026 0
M  V30 40825 H 3734.8 2.20608 -2.23587 0
M  V30 40826 H 3733.99 2.03526 -4.61078 0
M  V30 40827 H 3733.6 0.561453 -3.69762 0
M  V30 40828 H 3735.89 2.21903 -6.40129 0
M  V30 40829 H 3736.83 0.831445 -7.03202 0
M  V30 40830 H 3737.24 1.52577 -5.43489 0
M  V30 40831 N 3736.64 1.56914 -0.146931 0
M  V30 40832 C 3737.57 2.1977 0.788886 0
M  V30 40833 C 3738.55 1.14591 1.2571 0
M  V30 40834 O 3739.73 1.42934 1.31467 0
M  V30 40835 C 3736.86 2.81925 2.02819 0
M  V30 40836 C 3735.82 3.9293 1.69676 0
M  V30 40837 C 3735.14 4.4202 3.0087 0
M  V30 40838 C 3736.44 5.13708 0.943469 0
M  V30 40839 H 3738.14 2.98225 0.265024 0
M  V30 40840 H 3735.68 1.43447 0.126032 0
M  V30 40841 H 3737.64 3.24564 2.68768 0
M  V30 40842 H 3736.36 2.00801 2.57578 0
M  V30 40843 H 3735.02 3.50909 1.06106 0
M  V30 40844 H 3734.67 3.57719 3.53619 0
M  V30 40845 H 3734.37 5.16892 2.79457 0
M  V30 40846 H 3735.89 4.8733 3.67889 0
M  V30 40847 H 3737.3 5.53192 1.50504 0
M  V30 40848 H 3735.7 5.94342 0.829282 0
M  V30 40849 H 3736.77 4.84857 -0.0648081 0
M  V30 40850 N 3738.11 -0.126854 1.57089 0
M  V30 40851 C 3739.05 -1.1815 1.96401 0
M  V30 40852 C 3740.06 -1.38087 0.862312 0
M  V30 40853 O 3741.25 -1.37301 1.14064 0
M  V30 40854 C 3738.35 -2.54291 2.2403 0
M  V30 40855 C 3737.52 -2.55062 3.55334 0
M  V30 40856 C 3736.58 -3.7289 3.71268 0
M  V30 40857 O 3735.61 -3.56836 4.4346 0
M  V30 40858 N 3736.81 -4.91146 3.09444 0
M  V30 40859 H 3739.57 -0.847166 2.87477 0
M  V30 40860 H 3737.13 -0.316214 1.58782 0
M  V30 40861 H 3739.13 -3.31661 2.31912 0
M  V30 40862 H 3737.7 -2.79937 1.39119 0
M  V30 40863 H 3736.92 -1.63462 3.58711 0
M  V30 40864 H 3738.2 -2.52626 4.41653 0
M  V30 40865 H 3737.6 -5.07093 2.50745 0
M  V30 40866 H 3736.16 -5.66221 3.22858 0
M  V30 40867 N 3739.59 -1.52523 -0.396809 0
M  V30 40868 C 3740.54 -1.73126 -1.48362 0
M  V30 40869 C 3741.53 -0.58525 -1.49879 0
M  V30 40870 O 3742.72 -0.842791 -1.55647 0
M  V30 40871 C 3739.85 -1.89649 -2.86161 0
M  V30 40872 C 3738.93 -3.10158 -2.89245 0
M  V30 40873 N 3739.32 -4.32649 -2.62009 0
M  V30 40874 C 3737.62 -3.10244 -3.20413 0
M  V30 40875 C 3738.32 -5.14202 -2.71976 0
M  V30 40876 N 3737.3 -4.49717 -3.05377 0
M  V30 40877 H 3741.1 -2.65464 -1.26119 0
M  V30 40878 H 3738.62 -1.50723 -0.604669 0
M  V30 40879 H 3740.61 -2.02529 -3.64401 0
M  V30 40880 H 3739.27 -0.985189 -3.09393 0
M  V30 40881 H 3740.28 -4.60914 -2.36174 0
M  V30 40882 H 3736.96 -2.28896 -3.4916 0
M  V30 40883 H 3738.35 -6.21823 -2.5453 0
M  V30 40884 N 3741.07 0.654789 -1.43354 0
M  V30 40885 C 3742.49 0.970275 -1.26719 0
M  V30 40886 C 3742.69 2.00642 -0.185783 0
M  V30 40887 O 3741.74 2.48702 0.436313 0
M  V30 40888 C 3743.06 1.45603 -2.63097 0
M  V30 40889 C 3744.6 1.57276 -2.70616 0
M  V30 40890 C 3745.08 2.09243 -4.07408 0
M  V30 40891 N 3746.57 2.16548 -4.09465 0
M  V30 40892 C 3747.31 2.57876 -5.1214 0
M  V30 40893 N 3746.8 2.98512 -6.2519 0
M  V30 40894 N 3748.59 2.57802 -4.99494 0
M  V30 40895 H 3740.75 -0.0308704 -2.12378 0
M  V30 40896 H 3743.01 0.0487676 -0.946745 0
M  V30 40897 H 3742.71 0.769111 -3.43187 0
M  V30 40898 H 3742.59 2.43133 -2.88385 0
M  V30 40899 H 3744.98 2.2507 -1.90859 0
M  V30 40900 H 3745.06 0.581835 -2.49095 0
M  V30 40901 H 3744.7 1.42052 -4.87631 0
M  V30 40902 H 3744.63 3.09164 -4.26292 0
M  V30 40903 H 3747.12 1.87924 -3.27861 0
M  V30 40904 H 3747.43 3.28792 -6.99368 0
M  V30 40905 H 3745.78 2.96321 -6.28665 0
M  V30 40906 H 3748.97 2.25431 -4.10242 0
M  V30 40907 H 3749.14 2.89689 -5.79642 0
M  V30 40908 N 3742.55 1.29858 0.893007 0
M  V30 40909 C 3743.48 1.1812 2.0142 0
M  V30 40910 C 3744.46 0.0737786 1.6994 0
M  V30 40911 O 3745.65 0.254421 1.92526 0
M  V30 40912 C 3742.78 0.863901 3.36384 0
M  V30 40913 C 3741.73 1.92838 3.82096 0
M  V30 40914 C 3741.06 1.46424 5.14261 0
M  V30 40915 C 3742.36 3.33826 4.01693 0
M  V30 40916 H 3744.05 2.11917 2.11498 0
M  V30 40917 H 3741.6 1.02026 1.01621 0
M  V30 40918 H 3743.55 0.76847 4.14334 0
M  V30 40919 H 3742.27 -0.109758 3.26416 0
M  V30 40920 H 3740.93 2.01331 3.06368 0
M  V30 40921 H 3740.58 0.479071 5.00713 0
M  V30 40922 H 3740.28 2.17618 5.45817 0
M  V30 40923 H 3741.8 1.38244 5.94744 0
M  V30 40924 H 3743.22 3.28137 4.70105 0
M  V30 40925 H 3741.61 4.03037 4.44614 0
M  V30 40926 H 3742.68 3.76309 3.05809 0
M  V30 40927 N 3744.03 -1.10427 1.12443 0
M  V30 40928 C 3745.3 -1.78883 0.791223 0
M  V30 40929 C 3745.68 -1.98478 -0.719009 0
M  V30 40930 O 3745.03 -1.57789 -1.65272 0
M  V30 40931 C 3745.24 -3.11874 1.56638 0
M  V30 40932 C 3746.59 -3.86749 1.75243 0
M  V30 40933 O 3747.61 -3.21595 1.5315 0
M  V30 40934 O 3746.47 -5.0369 2.12033 0
M  V30 40935 H 3743.57 -0.775306 0.287801 0
M  V30 40936 H 3746.11 -1.17076 1.22846 0
M  V30 40937 H 3744.89 -2.93032 2.59322 0
M  V30 40938 H 3744.51 -3.814 1.12339 0
M  V30 40939 N 3745.51 -0.916353 -1.28221 0
M  V30 40940 C 3746.78 -0.469695 -1.89877 0
M  V30 40941 C 3747.16 1.05166 -1.83039 0
M  V30 40942 O 3746.51 1.90086 -1.26805 0
M  V30 40943 C 3746.72 -1.00299 -3.34277 0
M  V30 40944 C 3748.07 -1.05665 -4.11242 0
M  V30 40945 O 3749.09 -0.951813 -3.43248 0
M  V30 40946 O 3747.95 -1.21661 -5.32786 0
M  V30 40947 H 3745.05 -0.149278 -0.813416 0
M  V30 40948 H 3747.59 -1.00731 -1.3657 0
M  V30 40949 H 3746.36 -2.04694 -3.33491 0
M  V30 40950 H 3745.99 -0.446357 -3.95087 0
M  V30 40951 N 3746.98 1.42146 -0.680615 0
M  V30 40952 C 3747.92 2.28157 0.0443678 0
M  V30 40953 C 3748.89 1.41394 0.802904 0
M  V30 40954 O 3750.08 1.7083 0.796826 0
M  V30 40955 C 3747.21 3.21352 1.07008 0
M  V30 40956 C 3746.25 4.24559 0.40645 0
M  V30 40957 S 3747.08 5.28867 -0.840227 0
M  V30 40958 C 3748.24 6.25629 0.184262 0
M  V30 40959 H 3748.47 2.89297 -0.685175 0
M  V30 40960 H 3746.01 1.47061 -0.470358 0
M  V30 40961 H 3747.96 3.75582 1.65676 0
M  V30 40962 H 3746.63 2.59337 1.7721 0
M  V30 40963 H 3745.82 4.89977 1.1806 0
M  V30 40964 H 3745.42 3.73848 -0.106786 0
M  V30 40965 H 3747.71 6.69436 1.0422 0
M  V30 40966 H 3748.66 7.06759 -0.435605 0
M  V30 40967 H 3749.06 5.61984 0.532343 0
M  V30 40968 N 3748.46 0.424336 1.5178 0
M  V30 40969 C 3749.41 -0.408153 2.28991 0
M  V30 40970 C 3750.4 -1.03244 1.34302 0
M  V30 40971 O 3751.61 -0.968893 1.51699 0
M  V30 40972 H 3747.98 -0.150422 0.736802 0
M  V30 40973 H 3749.96 0.264074 2.97229 0
M  V30 40974 C 3748.7 -1.50419 3.1348 0
M  V30 40975 H 3748.03 -1.03317 3.8622 0
M  V30 40976 H 3749.47 -2.0602 3.70583 0
M  V30 40977 C 3747.93 -2.48014 2.28014 0
M  V30 40978 O 3748.46 -3.52253 1.93082 0
M  V30 40979 N 3746.66 -2.18588 1.91488 0
M  V30 40980 H 3746.21 -1.3385 2.20095 0
M  V30 40981 H 3746.17 -2.84131 1.346 0
M  V30 40982 N 3749.94 -1.56833 0.15525 0
M  V30 40983 C 3750.87 -2.14319 -0.812411 0
M  V30 40984 C 3751.88 -1.09469 -1.20501 0
M  V30 40985 O 3753.07 -1.36716 -1.14765 0
M  V30 40986 C 3750.17 -2.65778 -2.10274 0
M  V30 40987 C 3749.35 -3.95116 -1.87623 0
M  V30 40988 C 3748.41 -4.31801 -3.00723 0
M  V30 40989 O 3747.43 -4.99975 -2.72055 0
M  V30 40990 N 3748.63 -3.92052 -4.28107 0
M  V30 40991 H 3751.4 -2.97975 -0.321054 0
M  V30 40992 H 3748.96 -1.61876 -0.0280576 0
M  V30 40993 H 3750.95 -2.87328 -2.85 0
M  V30 40994 H 3749.52 -1.868 -2.50648 0
M  V30 40995 H 3748.74 -3.82108 -0.968891 0
M  V30 40996 H 3750.03 -4.79617 -1.69837 0
M  V30 40997 H 3749.43 -3.37137 -4.54264 0
M  V30 40998 H 3747.98 -4.18636 -4.99587 0
M  V30 40999 N 3751.42 0.118521 -1.57154 0
M  V30 41000 C 3752.83 0.472069 -1.52459 0
M  V30 41001 C 3753.03 1.81831 -0.868321 0
M  V30 41002 O 3752.09 2.48442 -0.450861 0
M  V30 41003 C 3753.4 0.456123 -2.9722 0
M  V30 41004 C 3754.95 0.53964 -3.08313 0
M  V30 41005 C 3755.43 0.554078 -4.54636 0
M  V30 41006 N 3756.92 0.615503 -4.59092 0
M  V30 41007 C 3757.65 0.648129 -5.69725 0
M  V30 41008 N 3757.15 0.638373 -6.89853 0
M  V30 41009 N 3758.94 0.691174 -5.57834 0
M  V30 41010 H 3751.09 -0.763565 -1.98201 0
M  V30 41011 H 3753.35 -0.281715 -0.905174 0
M  V30 41012 H 3753.06 -0.465425 -3.48607 0
M  V30 41013 H 3752.93 1.28375 -3.54683 0
M  V30 41014 H 3755.32 1.45161 -2.56929 0
M  V30 41015 H 3755.4 -0.315682 -2.53845 0
M  V30 41016 H 3755.05 -0.353848 -5.06666 0
M  V30 41017 H 3754.98 1.42629 -5.06917 0
M  V30 41018 H 3757.47 0.629188 -3.72625 0
M  V30 41019 H 3757.78 0.665905 -7.69926 0
M  V30 41020 H 3756.13 0.60579 -6.92355 0
M  V30 41021 H 3759.32 0.696163 -4.62894 0
M  V30 41022 H 3759.49 0.713133 -6.44064 0
M  V30 41023 N 3752.9 1.52731 0.388715 0
M  V30 41024 C 3754.14 1.68989 1.13201 0
M  V30 41025 C 3754.5 0.424713 1.87654 0
M  V30 41026 O 3753.79 -0.581612 1.82559 0
M  V30 41027 C 3753.98 2.86409 2.13787 0
M  V30 41028 C 3753.81 4.24223 1.49214 0
M  V30 41029 C 3752.58 4.89439 1.2561 0
M  V30 41030 C 3754.78 5.05598 0.942086 0
M  V30 41031 N 3752.76 6.11235 0.57144 0
M  V30 41032 C 3754.13 6.188 0.385505 0
M  V30 41033 C 3756.19 4.90788 0.838523 0
M  V30 41034 C 3754.89 7.18813 -0.26451 0
M  V30 41035 C 3756.92 5.91054 0.202328 0
M  V30 41036 C 3756.28 7.03562 -0.343481 0
M  V30 41037 H 3752.38 0.671844 0.400187 0
M  V30 41038 H 3754.96 1.90083 0.421507 0
M  V30 41039 H 3753.13 2.66894 2.82174 0
M  V30 41040 H 3754.87 2.91602 2.80625 0
M  V30 41041 H 3751.62 4.48165 1.53117 0
M  V30 41042 H 3752.04 6.76556 0.245145 0
M  V30 41043 H 3756.69 4.04014 1.2463 0
M  V30 41044 H 3754.4 8.05197 -0.684299 0
M  V30 41045 H 3757.99 5.81669 0.12344 0
M  V30 41046 H 3756.87 7.79817 -0.827993 0
M  V30 41047 N 3754.37 -0.647178 1.43699 0
M  V30 41048 C 3755.32 -1.78107 1.49602 0
M  V30 41049 C 3756.32 -1.65331 0.369076 0
M  V30 41050 O 3757.52 -1.71604 0.543333 0
M  V30 41051 H 3753.9 -0.587733 0.469121 0
M  V30 41052 H 3755.87 -1.70249 2.45067 0
M  V30 41053 C 3754.62 -3.16389 1.44198 0
M  V30 41054 H 3753.94 -3.26861 2.30222 0
M  V30 41055 H 3755.38 -3.95668 1.52389 0
M  V30 41056 C 3753.84 -3.36518 0.160419 0
M  V30 41057 O 3754.37 -3.94136 -0.775861 0
M  V30 41058 N 3752.57 -2.90519 0.0686746 0
M  V30 41059 H 3752.12 -2.43814 0.831406 0
M  V30 41060 H 3752.08 -3.04363 -0.788087 0
M  V30 41061 N 3755.85 -1.3033 -0.886108 0
M  V30 41062 C 3757.13 -1.09747 -1.6191 0
M  V30 41063 C 3757.51 0.353626 -2.08117 0
M  V30 41064 O 3756.86 1.34492 -1.84727 0
M  V30 41065 C 3757.07 -2.09732 -2.78951 0
M  V30 41066 C 3758.42 -2.41388 -3.49309 0
M  V30 41067 O 3759.44 -2.08033 -2.89138 0
M  V30 41068 O 3758.3 -2.98439 -4.57817 0
M  V30 41069 H 3755.39 -0.421418 -0.711573 0
M  V30 41070 H 3757.94 -1.41752 -0.932984 0
M  V30 41071 H 3756.71 -3.07411 -2.42103 0
M  V30 41072 H 3756.33 -1.78538 -3.5526 0
M  V30 41073 N 3757.33 1.0983 -1.13028 0
M  V30 41074 C 3758.26 2.18388 -0.826377 0
M  V30 41075 C 3759.24 1.68767 0.212499 0
M  V30 41076 O 3760.43 1.94065 0.0723288 0
M  V30 41077 C 3757.56 3.46112 -0.287052 0
M  V30 41078 C 3756.51 4.09042 -1.2597 0
M  V30 41079 C 3755.84 5.31541 -0.580324 0
M  V30 41080 C 3757.14 4.52025 -2.61669 0
M  V30 41081 H 3758.83 2.44067 -1.73412 0
M  V30 41082 H 3756.38 1.17303 -0.835221 0
M  V30 41083 H 3758.33 4.21354 -0.0621411 0
M  V30 41084 H 3757.05 3.19943 0.656064 0
M  V30 41085 H 3755.71 3.35814 -1.47053 0
M  V30 41086 H 3755.36 5.01651 0.368134 0
M  V30 41087 H 3755.06 5.74599 -1.2292 0
M  V30 41088 H 3756.58 6.0951 -0.364597 0
M  V30 41089 H 3758 5.18512 -2.44578 0
M  V30 41090 H 3756.4 5.05953 -3.22694 0
M  V30 41091 H 3757.47 3.64632 -3.19643 0
M  V30 41092 N 3758.81 0.92314 1.27734 0
M  V30 41093 C 3759.76 0.417294 2.26996 0
M  V30 41094 C 3760.73 -0.513337 1.57969 0
M  V30 41095 O 3761.91 -0.433489 1.8581 0
M  V30 41096 C 3759.05 -0.328028 3.43537 0
M  V30 41097 C 3758.16 0.636188 4.2729 0
M  V30 41098 C 3757.3 -0.128521 5.31045 0
M  V30 41099 C 3756.34 0.828699 6.06464 0
M  V30 41100 N 3755.47 0.0969092 7.02033 0
M  V30 41101 H 3760.31 1.26877 2.69641 0
M  V30 41102 H 3757.85 0.636923 1.32596 0
M  V30 41103 H 3759.81 -0.776432 4.09911 0
M  V30 41104 H 3758.44 -1.14378 3.01857 0
M  V30 41105 H 3757.49 1.20312 3.60873 0
M  V30 41106 H 3758.8 1.36793 4.79676 0
M  V30 41107 H 3757.96 -0.637053 6.03346 0
M  V30 41108 H 3756.7 -0.893257 4.7945 0
M  V30 41109 H 3755.7 1.34852 5.33006 0
M  V30 41110 H 3756.93 1.59314 6.60148 0
M  V30 41111 H 3754.87 -0.649664 6.52775 0
M  V30 41112 H 3754.79 0.768303 7.52086 0
M  V30 41113 H 3756.06 -0.39112 7.78518 0
M  V30 41114 N 3760.29 -1.41783 0.688143 0
M  V30 41115 C 3761.25 -2.29184 0.0271814 0
M  V30 41116 C 3762.25 -1.44004 -0.715511 0
M  V30 41117 O 3763.44 -1.65239 -0.551513 0
M  V30 41118 C 3760.57 -3.26749 -0.972003 0
M  V30 41119 H 3761.76 -2.89126 0.796631 0
M  V30 41120 H 3759.32 -1.49645 0.451224 0
M  V30 41121 H 3760.05 -2.71772 -1.76948 0
M  V30 41122 H 3759.84 -3.89593 -0.442678 0
M  V30 41123 H 3761.33 -3.92262 -1.43249 0
M  V30 41124 N 3761.76 -0.432379 -1.51553 0
M  V30 41125 C 3762.71 0.381562 -2.27624 0
M  V30 41126 C 3763.68 1.02112 -1.31005 0
M  V30 41127 O 3764.87 1.04097 -1.59901 0
M  V30 41128 C 3762.01 1.47954 -3.11775 0
M  V30 41129 C 3761.12 0.858608 -4.23382 0
M  V30 41130 C 3760.25 1.93122 -4.94851 0
M  V30 41131 C 3759.29 1.28846 -5.98385 0
M  V30 41132 N 3758.43 2.30221 -6.63282 0
M  V30 41133 H 3763.27 -0.273524 -2.96742 0
M  V30 41134 H 3760.81 -0.146732 -1.46366 0
M  V30 41135 H 3762.77 2.12736 -3.58886 0
M  V30 41136 H 3761.4 2.10433 -2.44782 0
M  V30 41137 H 3760.45 0.0992129 -3.80271 0
M  V30 41138 H 3761.76 0.349294 -4.97576 0
M  V30 41139 H 3760.91 2.65577 -5.45485 0
M  V30 41140 H 3759.65 2.47425 -4.20276 0
M  V30 41141 H 3758.66 0.549344 -5.47049 0
M  V30 41142 H 3759.88 0.752822 -6.74914 0
M  V30 41143 H 3757.83 2.83614 -5.91523 0
M  V30 41144 H 3757.75 1.84168 -7.33225 0
M  V30 41145 H 3759.01 3.02176 -7.18547 0
M  V30 41146 N 3763.24 1.56749 -0.163565 0
M  V30 41147 C 3764.47 2.01454 0.493051 0
M  V30 41148 C 3764.89 1.04302 1.56533 0
M  V30 41149 O 3764.25 0.0213358 1.81287 0
M  V30 41150 C 3764.3 3.4481 1.0554 0
M  V30 41151 O 3763.4 3.5071 2.16971 0
M  V30 41152 H 3762.74 0.653269 0.118894 0
M  V30 41153 H 3765.27 2.02874 -0.265175 0
M  V30 41154 H 3765.28 3.83955 1.37995 0
M  V30 41155 H 3763.96 4.15021 0.27026 0
M  V30 41156 H 3762.54 3.23419 1.85619 0
M  V30 41157 N 3764.72 -0.110185 1.57214 0
M  V30 41158 C 3765.68 -1.11885 2.00036 0
M  V30 41159 C 3766.68 -1.3381 0.89172 0
M  V30 41160 O 3767.87 -1.30178 1.15756 0
M  V30 41161 C 3765.01 -2.47138 2.3481 0
M  V30 41162 H 3766.2 -0.750596 2.90355 0
M  V30 41163 H 3763.75 -0.354763 1.52221 0
M  V30 41164 H 3764.49 -2.88867 1.47398 0
M  V30 41165 H 3764.27 -2.32576 3.15675 0
M  V30 41166 H 3765.76 -3.19714 2.6865 0
M  V30 41167 N 3766.2 -1.52935 -0.38061 0
M  V30 41168 C 3767.42 -1.72577 -1.1503 0
M  V30 41169 C 3767.85 -0.446901 -1.82714 0
M  V30 41170 O 3767.21 0.597974 -1.71155 0
M  V30 41171 C 3767.25 -2.88174 -2.16768 0
M  V30 41172 O 3766.36 -2.55733 -3.23534 0
M  V30 41173 H 3765.7 -0.573602 -0.334479 0
M  V30 41174 H 3768.23 -1.99761 -0.442334 0
M  V30 41175 H 3768.24 -3.1391 -2.60623 0
M  V30 41176 H 3766.91 -3.80946 -1.66893 0
M  V30 41177 H 3765.49 -2.40765 -2.84757 0
M  V30 41178 N 3767.68 0.639548 -1.4404 0
M  V30 41179 C 3768.93 1.39519 -1.45662 0
M  V30 41180 C 3769.24 1.95394 -0.0898221 0
M  V30 41181 O 3770.44 2.71495 0.0164596 0
M  V30 41182 C 3768.9 2.52562 -2.56399 0
M  V30 41183 C 3768.51 2.03236 -3.99248 0
M  V30 41184 C 3770.25 3.29829 -2.67232 0
M  V30 41185 C 3768.16 3.13572 -5.01425 0
M  V30 41186 H 3767.09 0.524268 -0.541903 0
M  V30 41187 H 3769.74 0.688911 -1.70077 0
M  V30 41188 H 3768.12 3.25725 -2.25209 0
M  V30 41189 H 3769.3 1.36994 -4.39965 0
M  V30 41190 H 3767.61 1.38809 -3.92583 0
M  V30 41191 H 3770.21 4.12066 -3.40743 0
M  V30 41192 H 3770.55 3.7876 -1.72762 0
M  V30 41193 H 3771.08 2.63753 -2.9779 0
M  V30 41194 H 3767.82 2.69595 -5.97494 0
M  V30 41195 H 3767.34 3.78482 -4.65308 0
M  V30 41196 H 3769.02 3.78484 -5.24747 0
M  V30 41197 N 3769.15 1.30798 0.879184 0
M  V30 41198 C 3770.57 1.09255 1.16342 0
M  V30 41199 C 3770.77 -0.142957 2.00992 0
M  V30 41200 O 3769.83 -0.834925 2.38297 0
M  V30 41201 C 3771.14 2.35919 1.86448 0
M  V30 41202 C 3772.69 2.41439 1.99188 0
M  V30 41203 C 3773.16 3.6796 2.72708 0
M  V30 41204 N 3774.65 3.68801 2.8025 0
M  V30 41205 C 3775.39 4.6339 3.37724 0
M  V30 41206 N 3774.88 5.68327 3.96202 0
M  V30 41207 N 3776.68 4.50924 3.35595 0
M  V30 41208 H 3768.83 2.10053 0.314891 0
M  V30 41209 H 3771.09 0.926214 0.20207 0
M  V30 41210 H 3770.8 3.26113 1.31694 0
M  V30 41211 H 3770.67 2.45011 2.86792 0
M  V30 41212 H 3773.06 1.5172 2.53111 0
M  V30 41213 H 3773.14 2.36318 0.979149 0
M  V30 41214 H 3772.78 4.58041 2.19456 0
M  V30 41215 H 3772.71 3.70345 3.74369 0
M  V30 41216 H 3775.2 2.92939 2.38737 0
M  V30 41217 H 3775.52 6.36594 4.38141 0
M  V30 41218 H 3773.86 5.72112 3.94605 0
M  V30 41219 H 3777.05 3.68124 2.89141 0
M  V30 41220 H 3777.23 5.2482 3.8009 0
M  V30 41221 N 3770.63 -1.09229 1.13608 0
M  V30 41222 C 3771.6 -2.14097 0.818235 0
M  V30 41223 C 3772.6 -1.59864 -0.173246 0
M  V30 41224 O 3773.79 -1.74116 0.0540806 0
M  V30 41225 C 3770.92 -3.40201 0.218198 0
M  V30 41226 H 3772.11 -2.43724 1.74752 0
M  V30 41227 H 3769.66 -1.24801 0.940984 0
M  V30 41228 H 3770.4 -3.16202 -0.720214 0
M  V30 41229 H 3770.18 -3.80857 0.932223 0
M  V30 41230 H 3771.67 -4.17598 0.0127374 0
M  V30 41231 N 3772.11 -0.929901 -1.27242 0
M  V30 41232 C 3773.06 -0.401695 -2.24434 0
M  V30 41233 C 3774.05 0.495271 -1.53088 0
M  V30 41234 O 3775.24 0.332357 -1.73852 0
M  V30 41235 C 3772.37 0.342364 -3.41589 0
M  V30 41236 C 3771.45 -0.571245 -4.20235 0
M  V30 41237 N 3771.84 -1.69205 -4.76658 0
M  V30 41238 C 3770.14 -0.374673 -4.44423 0
M  V30 41239 C 3770.84 -2.26046 -5.35983 0
M  V30 41240 N 3769.82 -1.54978 -5.2104 0
M  V30 41241 H 3773.62 -1.25743 -2.65642 0
M  V30 41242 H 3771.13 -0.784433 -1.42198 0
M  V30 41243 H 3773.13 0.737733 -4.10321 0
M  V30 41244 H 3771.79 1.19501 -3.0191 0
M  V30 41245 H 3772.8 -2.0744 -4.74541 0
M  V30 41246 H 3769.48 0.437128 -4.15205 0
M  V30 41247 H 3770.87 -3.20419 -5.90577 0
M  V30 41248 N 3773.59 1.41416 -0.695653 0
M  V30 41249 C 3774.52 2.33457 -0.0447424 0
M  V30 41250 C 3775.5 1.51822 0.767078 0
M  V30 41251 O 3776.69 1.80358 0.720034 0
M  V30 41252 C 3773.82 3.35642 0.892294 0
M  V30 41253 C 3772.77 4.27589 0.187563 0
M  V30 41254 C 3772.1 5.20148 1.23896 0
M  V30 41255 C 3773.4 5.13658 -0.946183 0
M  V30 41256 H 3775.09 2.88137 -0.813481 0
M  V30 41257 H 3772.64 1.38544 -0.392639 0
M  V30 41258 H 3774.59 3.98957 1.35689 0
M  V30 41259 H 3773.31 2.79312 1.6927 0
M  V30 41260 H 3771.97 3.65698 -0.257006 0
M  V30 41261 H 3771.62 4.60134 2.0319 0
M  V30 41262 H 3771.32 5.82501 0.772433 0
M  V30 41263 H 3772.84 5.86339 1.70407 0
M  V30 41264 H 3774.26 5.7054 -0.561864 0
M  V30 41265 H 3772.65 5.84952 -1.33981 0
M  V30 41266 H 3773.72 4.50818 -1.78581 0
M  V30 41267 N 3775.07 0.44041 1.51321 0
M  V30 41268 C 3775.98 -0.375569 2.31574 0
M  V30 41269 C 3776.99 -1.0248 1.40619 0
M  V30 41270 O 3778.17 -1.0195 1.7369 0
M  V30 41271 C 3775.23 -1.46034 3.14444 0
M  V30 41272 C 3774.3 -0.830917 4.21182 0
M  V30 41273 C 3773.53 -1.864 5.00091 0
M  V30 41274 O 3773.75 -3.08661 4.79671 0
M  V30 41275 O 3772.69 -1.45283 5.84103 0
M  V30 41276 H 3776.51 0.279673 3.0241 0
M  V30 41277 H 3774.1 0.202883 1.48016 0
M  V30 41278 H 3775.98 -2.08939 3.65954 0
M  V30 41279 H 3774.65 -2.09961 2.4637 0
M  V30 41280 H 3773.56 -0.163732 3.73742 0
M  V30 41281 H 3774.89 -0.235088 4.91638 0
M  V30 41282 N 3776.55 -1.5666 0.171876 0
M  V30 41283 C 3777.51 -2.16779 -0.744278 0
M  V30 41284 C 3778.51 -1.116 -1.15767 0
M  V30 41285 O 3779.7 -1.37111 -1.07454 0
M  V30 41286 C 3776.83 -2.7511 -2.01314 0
M  V30 41287 H 3778.02 -2.99085 -0.2209 0
M  V30 41288 H 3775.58 -1.56107 -0.0776875 0
M  V30 41289 H 3776.31 -1.96539 -2.57959 0
M  V30 41290 H 3776.1 -3.52083 -1.72568 0
M  V30 41291 H 3777.59 -3.21347 -2.66694 0
M  V30 41292 N 3778.02 0.101846 -1.57271 0
M  V30 41293 C 3779.25 0.824182 -1.90321 0
M  V30 41294 C 3779.67 1.71819 -0.7655 0
M  V30 41295 O 3779.03 1.79074 0.283244 0
M  V30 41296 C 3779.08 1.61917 -3.22204 0
M  V30 41297 O 3778.18 2.72757 -3.09318 0
M  V30 41298 H 3777.52 0.226853 -0.624046 0
M  V30 41299 H 3780.05 0.0790955 -2.04447 0
M  V30 41300 H 3780.06 2.00481 -3.55347 0
M  V30 41301 H 3778.74 0.963007 -4.04597 0
M  V30 41302 H 3777.32 2.37269 -2.87676 0
M  V30 41303 N 3779.5 1.53135 0.372494 0
M  V30 41304 C 3780.46 1.7842 1.43872 0
M  V30 41305 C 3781.46 0.654481 1.46878 0
M  V30 41306 O 3782.65 0.922645 1.4776 0
M  V30 41307 C 3779.79 1.89999 2.83043 0
M  V30 41308 H 3780.98 2.73638 1.22729 0
M  V30 41309 H 3778.53 1.44107 0.605221 0
M  V30 41310 H 3779.27 0.968233 3.09509 0
M  V30 41311 H 3779.05 2.72161 2.8226 0
M  V30 41312 H 3780.54 2.11177 3.60269 0
M  V30 41313 N 3780.98 -0.6319 1.44377 0
M  V30 41314 C 3781.89 -1.77262 1.53673 0
M  V30 41315 C 3782.91 -1.68794 0.422454 0
M  V30 41316 O 3784.08 -1.89584 0.679689 0
M  V30 41317 C 3781.15 -3.13642 1.47749 0
M  V30 41318 C 3780.21 -3.33747 2.70021 0
M  V30 41319 C 3779.44 -4.63621 2.6437 0
M  V30 41320 O 3779.66 -5.44375 1.7033 0
M  V30 41321 O 3778.6 -4.85911 3.55209 0
M  V30 41322 H 3782.42 -1.72372 2.50043 0
M  V30 41323 H 3780.01 -0.79303 1.26615 0
M  V30 41324 H 3781.89 -3.94942 1.46965 0
M  V30 41325 H 3780.57 -3.19075 0.545221 0
M  V30 41326 H 3779.47 -2.52128 2.76373 0
M  V30 41327 H 3780.81 -3.33175 3.62292 0
M  V30 41328 N 3782.46 -1.31262 -0.872235 0
M  V30 41329 C 3783.4 -1.18721 -1.97924 0
M  V30 41330 C 3784.37 -0.0735534 -1.65937 0
M  V30 41331 O 3785.56 -0.246012 -1.89207 0
M  V30 41332 C 3782.7 -0.898176 -3.33207 0
M  V30 41333 C 3781.81 -2.09495 -3.77804 0
M  V30 41334 C 3780.95 -1.7429 -5.01793 0
M  V30 41335 C 3779.99 -2.90388 -5.38833 0
M  V30 41336 N 3779.12 -2.55393 -6.54002 0
M  V30 41337 H 3783.96 -2.13418 -2.07982 0
M  V30 41338 H 3781.5 -1.06166 -1.01819 0
M  V30 41339 H 3783.46 -0.711162 -4.11094 0
M  V30 41340 H 3782.09 0.011953 -3.22798 0
M  V30 41341 H 3781.14 -2.39281 -2.95718 0
M  V30 41342 H 3782.45 -2.96398 -4.01186 0
M  V30 41343 H 3781.61 -1.52037 -5.87341 0
M  V30 41344 H 3780.35 -0.845749 -4.80311 0
M  V30 41345 H 3779.35 -3.13292 -4.51806 0
M  V30 41346 H 3780.58 -3.80809 -5.62283 0
M  V30 41347 H 3778.52 -1.68199 -6.3407 0
M  V30 41348 H 3778.44 -3.35826 -6.77316 0
M  V30 41349 H 3779.71 -2.36529 -7.42748 0
M  V30 41350 N 3783.94 1.08625 -1.14186 0
M  V30 41351 C 3785.18 1.81405 -0.919998 0
M  V30 41352 C 3785.54 1.8444 0.547676 0
M  V30 41353 O 3784.83 1.30763 1.40041 0
M  V30 41354 C 3785.02 3.26578 -1.45196 0
M  V30 41355 C 3784.85 3.37685 -2.96983 0
M  V30 41356 C 3783.62 3.49006 -3.65408 0
M  V30 41357 C 3785.82 3.29525 -3.94864 0
M  V30 41358 N 3783.8 3.48882 -5.05128 0
M  V30 41359 C 3785.17 3.36367 -5.20824 0
M  V30 41360 C 3787.23 3.13247 -3.87015 0
M  V30 41361 C 3785.93 3.28607 -6.39851 0
M  V30 41362 C 3787.96 3.06816 -5.05586 0
M  V30 41363 C 3787.32 3.14258 -6.30414 0
M  V30 41364 H 3783.42 0.677718 -0.390156 0
M  V30 41365 H 3786 1.29759 -1.45158 0
M  V30 41366 H 3784.17 3.76673 -0.947188 0
M  V30 41367 H 3785.91 3.87411 -1.17025 0
M  V30 41368 H 3782.66 3.52803 -3.15954 0
M  V30 41369 H 3783.08 3.52382 -5.78062 0
M  V30 41370 H 3787.73 3.06358 -2.91384 0
M  V30 41371 H 3785.44 3.34258 -7.35729 0
M  V30 41372 H 3789.03 2.95345 -5.01261 0
M  V30 41373 H 3787.91 3.09309 -7.20623 0
M  V30 41374 N 3785.41 0.936635 1.26747 0
M  V30 41375 C 3786.36 0.433368 2.28527 0
M  V30 41376 C 3787.36 -0.486984 1.62249 0
M  V30 41377 O 3788.56 -0.365699 1.76246 0
M  V30 41378 H 3784.94 0.121596 0.742104 0
M  V30 41379 H 3786.91 1.30441 2.6838 0
M  V30 41380 C 3785.66 -0.290305 3.46486 0
M  V30 41381 H 3784.98 0.408719 3.97705 0
M  V30 41382 H 3786.42 -0.606733 4.19636 0
M  V30 41383 C 3784.88 -1.50649 3.01341 0
M  V30 41384 O 3785.41 -2.60496 3.05786 0
M  V30 41385 N 3783.62 -1.36146 2.56735 0
M  V30 41386 H 3783.16 -0.467743 2.53318 0
M  V30 41387 H 3783.12 -2.17641 2.26892 0
M  V30 41388 N 3786.89 -1.41045 0.703143 0
M  V30 41389 C 3788.31 -1.55121 0.375444 0
M  V30 41390 C 3788.51 -1.6771 -1.11694 0
M  V30 41391 O 3787.56 -1.65974 -1.90286 0
M  V30 41392 C 3788.88 -2.78636 1.13061 0
M  V30 41393 C 3790.43 -2.9244 1.11569 0
M  V30 41394 C 3790.9 -4.18852 1.85275 0
M  V30 41395 N 3792.39 -4.25826 1.82282 0
M  V30 41396 C 3793.13 -5.22516 2.36146 0
M  V30 41397 N 3792.62 -6.2519 2.98513 0
M  V30 41398 N 3794.42 -5.14508 2.26358 0
M  V30 41399 H 3786.57 -1.31119 1.67098 0
M  V30 41400 H 3788.83 -0.633132 0.705584 0
M  V30 41401 H 3788.54 -2.75568 2.18529 0
M  V30 41402 H 3788.41 -3.70379 0.714102 0
M  V30 41403 H 3790.8 -2.95019 0.069242 0
M  V30 41404 H 3790.88 -2.0185 1.57131 0
M  V30 41405 H 3790.52 -4.17035 2.89904 0
M  V30 41406 H 3790.45 -5.08429 1.37142 0
M  V30 41407 H 3792.94 -3.52263 1.36819 0
M  V30 41408 H 3793.26 -6.95372 3.37161 0
M  V30 41409 H 3791.6 -6.2567 3.02593 0
M  V30 41410 H 3794.79 -4.33222 1.77302 0
M  V30 41411 H 3794.96 -5.89692 2.68639 0
M  V30 41412 N 3788.37 -0.448429 -1.51086 0
M  V30 41413 C 3789.3 0.347732 -2.30896 0
M  V30 41414 C 3790.28 1.01102 -1.36793 0
M  V30 41415 O 3791.47 1.01254 -1.65715 0
M  V30 41416 C 3788.6 1.44298 -3.15904 0
M  V30 41417 C 3787.55 0.902577 -4.18375 0
M  V30 41418 C 3786.88 2.09442 -4.91974 0
M  V30 41419 C 3788.18 -0.0706253 -5.22252 0
M  V30 41420 H 3789.87 -0.318325 -2.97703 0
M  V30 41421 H 3787.42 -0.154534 -1.43168 0
M  V30 41422 H 3789.37 2.00726 -3.70523 0
M  V30 41423 H 3788.09 2.13749 -2.46939 0
M  V30 41424 H 3786.75 0.360436 -3.64824 0
M  V30 41425 H 3786.4 2.77537 -4.19502 0
M  V30 41426 H 3786.1 1.73916 -5.61273 0
M  V30 41427 H 3787.62 2.66402 -5.4942 0
M  V30 41428 H 3789.04 0.403714 -5.71877 0
M  V30 41429 H 3787.44 -0.33901 -5.99142 0
M  V30 41430 H 3788.51 -1.00381 -4.74396 0
M  V30 41431 N 3789.85 1.56567 -0.180181 0
M  V30 41432 C 3790.78 2.21394 0.742092 0
M  V30 41433 C 3791.76 1.17232 1.23251 0
M  V30 41434 O 3792.94 1.4569 1.28406 0
M  V30 41435 C 3790.07 2.86163 1.96794 0
M  V30 41436 C 3789.03 3.96441 1.61303 0
M  V30 41437 C 3788.35 4.48302 2.91426 0
M  V30 41438 C 3789.65 5.15594 0.834291 0
M  V30 41439 H 3791.35 2.9872 0.201706 0
M  V30 41440 H 3788.89 1.43682 0.0955763 0
M  V30 41441 H 3790.85 3.30192 2.61823 0
M  V30 41442 H 3789.57 2.0622 2.53261 0
M  V30 41443 H 3788.23 3.53081 0.986389 0
M  V30 41444 H 3787.88 3.65139 3.45951 0
M  V30 41445 H 3787.58 5.22704 2.6843 0
M  V30 41446 H 3789.1 4.95024 3.57469 0
M  V30 41447 H 3790.52 5.5626 1.38736 0
M  V30 41448 H 3788.91 5.95968 0.703027 0
M  V30 41449 H 3789.98 4.8461 -0.167639 0
M  V30 41450 N 3791.33 -0.0935042 1.57322 0
M  V30 41451 C 3792.26 -1.14449 1.97425 0
M  V30 41452 C 3793.24 -1.38754 0.847714 0
M  V30 41453 O 3794.42 -1.52487 1.10815 0
M  V30 41454 C 3791.55 -2.49334 2.29238 0
M  V30 41455 C 3790.59 -2.413 3.51677 0
M  V30 41456 S 3791.43 -1.82799 5.03334 0
M  V30 41457 C 3792.58 -3.19306 5.38326 0
M  V30 41458 H 3792.82 -0.80263 2.86261 0
M  V30 41459 H 3790.35 -0.301243 1.51433 0
M  V30 41460 H 3792.31 -3.26934 2.48243 0
M  V30 41461 H 3790.97 -2.80689 1.40971 0
M  V30 41462 H 3790.16 -3.4072 3.71383 0
M  V30 41463 H 3789.76 -1.71831 3.3219 0
M  V30 41464 H 3792.06 -4.15582 5.35068 0
M  V30 41465 H 3793 -3.04401 6.39332 0
M  V30 41466 H 3793.41 -3.18911 4.65786 0
M  V30 41467 N 3792.8 -1.5333 -0.364368 0
M  V30 41468 C 3794.03 -1.73788 -1.13193 0
M  V30 41469 C 3794.45 -0.466256 -1.8223 0
M  V30 41470 O 3793.81 0.579787 -1.71779 0
M  V30 41471 C 3793.86 -2.90457 -2.13699 0
M  V30 41472 O 3792.96 -2.5915 -3.20804 0
M  V30 41473 H 3792.31 -0.577118 -0.328376 0
M  V30 41474 H 3794.84 -2.00219 -0.421122 0
M  V30 41475 H 3794.85 -3.16657 -2.57279 0
M  V30 41476 H 3793.52 -3.82694 -1.62843 0
M  V30 41477 H 3792.1 -2.43772 -2.82188 0
M  V30 41478 N 3794.28 0.624234 -1.4471 0
M  V30 41479 C 3795.21 1.7469 -1.54937 0
M  V30 41480 C 3796.19 1.65283 -0.401926 0
M  V30 41481 O 3797.38 1.83938 -0.622938 0
M  V30 41482 C 3794.51 3.13245 -1.49982 0
M  V30 41483 C 3793.46 3.37448 -2.63273 0
M  V30 41484 C 3792.79 4.76104 -2.4337 0
M  V30 41485 C 3794.09 3.29332 -4.05386 0
M  V30 41486 H 3795.78 1.66388 -2.48908 0
M  V30 41487 H 3793.33 0.799067 -1.19795 0
M  V30 41488 H 3795.28 3.91566 -1.55736 0
M  V30 41489 H 3794.01 3.22348 -0.525311 0
M  V30 41490 H 3792.66 2.6151 -2.5692 0
M  V30 41491 H 3792.31 4.81918 -1.44096 0
M  V30 41492 H 3792.01 4.93255 -3.19332 0
M  V30 41493 H 3793.54 5.56646 -2.50953 0
M  V30 41494 H 3794.95 3.97549 -4.13071 0
M  V30 41495 H 3793.35 3.58017 -4.81605 0
M  V30 41496 H 3794.42 2.2703 -4.28469 0
M  V30 41497 N 3795.76 1.31723 0.865262 0
M  V30 41498 C 3796.67 1.21741 2.0054 0
M  V30 41499 C 3797.69 0.133154 1.7349 0
M  V30 41500 O 3798.86 0.351844 1.98303 0
M  V30 41501 C 3795.93 0.930104 3.33991 0
M  V30 41502 C 3794.99 2.10174 3.74333 0
M  V30 41503 C 3794.22 1.82804 5.01416 0
M  V30 41504 O 3794.44 0.765444 5.65241 0
M  V30 41505 O 3793.38 2.68614 5.38637 0
M  V30 41506 H 3797.2 2.17565 2.11895 0
M  V30 41507 H 3794.79 1.11509 0.994293 0
M  V30 41508 H 3796.67 0.785919 4.14006 0
M  V30 41509 H 3795.35 0.00194332 3.237 0
M  V30 41510 H 3794.25 2.30135 2.94939 0
M  V30 41511 H 3795.59 3.01232 3.89256 0
M  V30 41512 N 3797.24 -1.08018 1.14761 0
M  V30 41513 C 3798.15 -2.18583 0.851972 0
M  V30 41514 C 3799.16 -1.73176 -0.16911 0
M  V30 41515 O 3800.34 -2.014 0.00333654 0
M  V30 41516 C 3797.41 -3.45048 0.338038 0
M  V30 41517 C 3796.47 -4.05059 1.42217 0
M  V30 41518 C 3795.7 -5.25487 0.932666 0
M  V30 41519 O 3795.92 -5.69959 -0.224356 0
M  V30 41520 O 3794.86 -5.76998 1.7134 0
M  V30 41521 H 3798.68 -2.4635 1.77609 0
M  V30 41522 H 3796.27 -1.17227 0.926179 0
M  V30 41523 H 3798.15 -4.21361 0.0575474 0
M  V30 41524 H 3796.82 -3.18849 -0.558307 0
M  V30 41525 H 3795.73 -3.30317 1.75618 0
M  V30 41526 H 3797.06 -4.35516 2.29318 0
M  V30 41527 N 3798.72 -0.943344 -1.26249 0
M  V30 41528 C 3799.65 -0.472387 -2.28672 0
M  V30 41529 C 3800.63 0.475452 -1.6332 0
M  V30 41530 O 3801.81 0.376841 -1.90509 0
M  V30 41531 C 3798.94 0.261225 -3.46316 0
M  V30 41532 C 3797.9 -0.600266 -4.2377 0
M  V30 41533 C 3797.22 0.263431 -5.34051 0
M  V30 41534 C 3798.52 -1.8727 -4.87573 0
M  V30 41535 H 3800.22 -1.32841 -2.68316 0
M  V30 41536 H 3797.76 -0.640205 -1.28986 0
M  V30 41537 H 3799.72 0.601747 -4.17081 0
M  V30 41538 H 3798.44 1.1514 -3.05631 0
M  V30 41539 H 3797.1 -0.923714 -3.54772 0
M  V30 41540 H 3796.75 1.15303 -4.89606 0
M  V30 41541 H 3796.45 -0.309598 -5.86784 0
M  V30 41542 H 3797.97 0.599175 -6.07653 0
M  V30 41543 H 3799.38 -1.59929 -5.50541 0
M  V30 41544 H 3797.78 -2.39047 -5.50433 0
M  V30 41545 H 3798.85 -2.58276 -4.10392 0
M  V30 41546 N 3800.2 1.4067 -0.710613 0
M  V30 41547 C 3801.44 2.00206 -0.245002 0
M  V30 41548 C 3801.76 1.5698 1.16691 0
M  V30 41549 O 3802.96 2.0918 1.73077 0
M  V30 41550 C 3801.42 3.57812 -0.387111 0
M  V30 41551 C 3801.03 4.10014 -1.80535 0
M  V30 41552 C 3802.77 4.24496 0.0179592 0
M  V30 41553 C 3800.68 5.60106 -1.89831 0
M  V30 41554 H 3799.61 0.748865 -0.0878441 0
M  V30 41555 H 3802.26 1.60969 -0.880984 0
M  V30 41556 H 3800.64 3.94726 0.317373 0
M  V30 41557 H 3801.82 3.84487 -2.5398 0
M  V30 41558 H 3800.13 3.55909 -2.16143 0
M  V30 41559 H 3802.73 5.34691 -0.0308484 0
M  V30 41560 H 3803.07 4.02603 1.05908 0
M  V30 41561 H 3803.6 3.9267 -0.636789 0
M  V30 41562 H 3800.34 5.86847 -2.92047 0
M  V30 41563 H 3799.86 5.87512 -1.20789 0
M  V30 41564 H 3801.54 6.25126 -1.66812 0
M  V30 41565 N 3801.67 0.456435 1.50846 0
M  V30 41566 C 3802.62 -0.345301 2.28202 0
M  V30 41567 C 3803.59 -1.00015 1.32613 0
M  V30 41568 O 3804.78 -1.0154 1.61537 0
M  V30 41569 C 3801.92 -1.42975 3.14089 0
M  V30 41570 C 3801.03 -0.791143 4.24694 0
M  V30 41571 C 3800.16 -1.85225 4.97861 0
M  V30 41572 C 3799.2 -1.1931 6.0036 0
M  V30 41573 N 3798.34 -2.1964 6.6686 0
M  V30 41574 H 3803.18 0.320698 2.96269 0
M  V30 41575 H 3800.72 0.169999 1.46114 0
M  V30 41576 H 3802.67 -2.06999 3.62225 0
M  V30 41577 H 3801.3 -2.06512 2.48098 0
M  V30 41578 H 3800.36 -0.0387025 3.8038 0
M  V30 41579 H 3801.67 -0.270089 4.98068 0
M  V30 41580 H 3800.82 -2.56865 5.49641 0
M  V30 41581 H 3799.56 -2.40708 4.24159 0
M  V30 41582 H 3798.57 -0.462244 5.47853 0
M  V30 41583 H 3799.79 -0.645354 6.76027 0
M  V30 41584 H 3797.74 -2.74167 5.9596 0
M  V30 41585 H 3797.65 -1.72479 7.36062 0
M  V30 41586 H 3798.92 -2.90706 7.23264 0
M  V30 41587 N 3803.15 -1.56469 0.188482 0
M  V30 41588 C 3804.4 -1.98448 -0.446098 0
M  V30 41589 C 3804.75 -1.07312 -1.59693 0
M  V30 41590 O 3804.05 -0.116188 -1.91247 0
M  V30 41591 C 3804.24 -3.44249 -0.960592 0
M  V30 41592 C 3804.07 -4.49486 0.138854 0
M  V30 41593 C 3802.84 -5.01793 0.594279 0
M  V30 41594 C 3805.04 -5.05535 0.94544 0
M  V30 41595 N 3803.02 -5.90686 1.67224 0
M  V30 41596 C 3804.39 -5.91034 1.87294 0
M  V30 41597 C 3806.44 -4.87987 0.988599 0
M  V30 41598 C 3805.15 -6.6086 2.84001 0
M  V30 41599 C 3807.17 -5.58547 1.94368 0
M  V30 41600 C 3806.54 -6.43787 2.85864 0
M  V30 41601 H 3802.63 -0.770975 -0.13085 0
M  V30 41602 H 3805.22 -1.92488 0.292654 0
M  V30 41603 H 3803.39 -3.50721 -1.66881 0
M  V30 41604 H 3805.12 -3.73206 -1.56523 0
M  V30 41605 H 3801.88 -4.73223 0.188831 0
M  V30 41606 H 3802.3 -6.39836 2.21222 0
M  V30 41607 H 3806.94 -4.21768 0.295221 0
M  V30 41608 H 3804.66 -7.26281 3.54318 0
M  V30 41609 H 3808.25 -5.46948 1.9834 0
M  V30 41610 H 3807.13 -6.97426 3.58563 0
M  V30 41611 N 3804.63 0.0851597 -1.5737 0
M  V30 41612 C 3805.56 1.10316 -2.05798 0
M  V30 41613 C 3806.54 1.41179 -0.94882 0
M  V30 41614 O 3807.73 1.51037 -1.22072 0
M  V30 41615 C 3804.86 2.42032 -2.49074 0
M  V30 41616 C 3803.81 2.25554 -3.63743 0
M  V30 41617 C 3803.14 3.62536 -3.93029 0
M  V30 41618 C 3804.44 1.68784 -4.94277 0
M  V30 41619 H 3806.13 0.700223 -2.91097 0
M  V30 41620 H 3803.68 0.33538 -1.4004 0
M  V30 41621 H 3805.63 3.13529 -2.81563 0
M  V30 41622 H 3804.35 2.8428 -1.60786 0
M  V30 41623 H 3803.01 1.56501 -3.31516 0
M  V30 41624 H 3802.66 4.0233 -3.01894 0
M  V30 41625 H 3802.36 3.52353 -4.70235 0
M  V30 41626 H 3803.88 4.35484 -4.28003 0
M  V30 41627 H 3805.3 2.30131 -5.25083 0
M  V30 41628 H 3803.69 1.69334 -5.75714 0
M  V30 41629 H 3804.76 0.64812 -4.80549 0
M  V30 41630 N 3806.11 1.53521 0.356231 0
M  V30 41631 C 3807.06 1.81301 1.45715 0
M  V30 41632 C 3808.05 0.68268 1.55035 0
M  V30 41633 O 3809.26 0.865794 1.5781 0
M  V30 41634 H 3805.63 0.574189 0.485604 0
M  V30 41635 H 3807.6 2.7343 1.19494 0
M  V30 41636 C 3806.35 2.02815 2.82421 0
M  V30 41637 H 3805.67 2.89237 2.76011 0
M  V30 41638 H 3807.11 2.26225 3.58606 0
M  V30 41639 C 3805.57 0.80995 3.27019 0
M  V30 41640 O 3806.1 0.00317729 4.017 0
M  V30 41641 N 3804.31 0.630746 2.83672 0
M  V30 41642 H 3803.86 1.28843 2.23063 0
M  V30 41643 H 3803.81 -0.182906 3.13868 0
M  V30 41644 N 3807.59 -0.616551 1.45039 0
M  V30 41645 C 3808.52 -1.74118 1.47507 0
M  V30 41646 C 3809.5 -1.59167 0.332349 0
M  V30 41647 O 3810.68 -1.80851 0.531514 0
M  V30 41648 C 3807.81 -3.11851 1.3216 0
M  V30 41649 C 3806.85 -3.45414 2.50182 0
M  V30 41650 S 3807.69 -3.41257 4.12679 0
M  V30 41651 C 3808.84 -4.81587 3.99781 0
M  V30 41652 H 3809.08 -1.7176 2.42664 0
M  V30 41653 H 3806.61 -0.792434 1.32514 0
M  V30 41654 H 3808.57 -3.91326 1.23993 0
M  V30 41655 H 3807.23 -3.11733 0.384894 0
M  V30 41656 H 3806.42 -4.45677 2.35347 0
M  V30 41657 H 3806.02 -2.73436 2.55165 0
M  V30 41658 H 3808.31 -5.71174 3.64372 0
M  V30 41659 H 3809.26 -5.01478 4.99925 0
M  V30 41660 H 3809.67 -4.56846 3.3159 0
M  V30 41661 N 3809.06 -1.3218 -0.858264 0
M  V30 41662 C 3810.01 -1.20814 -1.96654 0
M  V30 41663 C 3810.98 -0.0911491 -1.6585 0
M  V30 41664 O 3812.17 -0.266066 -1.88936 0
M  V30 41665 C 3809.31 -0.933466 -3.32235 0
M  V30 41666 C 3808.42 -2.1349 -3.75561 0
M  V30 41667 C 3807.55 -1.79602 -4.99917 0
M  V30 41668 C 3806.59 -2.96087 -5.35723 0
M  V30 41669 N 3805.73 -2.62315 -6.51257 0
M  V30 41670 H 3810.57 -2.15612 -2.05707 0
M  V30 41671 H 3808.11 -1.0724 -1.00687 0
M  V30 41672 H 3810.06 -0.754724 -4.10317 0
M  V30 41673 H 3808.69 -0.0222847 -3.22792 0
M  V30 41674 H 3807.75 -2.42404 -2.93163 0
M  V30 41675 H 3809.06 -3.00636 -3.98019 0
M  V30 41676 H 3808.21 -1.58258 -5.85695 0
M  V30 41677 H 3806.95 -0.896645 -4.79387 0
M  V30 41678 H 3805.96 -3.18066 -4.48457 0
M  V30 41679 H 3807.18 -3.86751 -5.58212 0
M  V30 41680 H 3805.13 -1.74915 -6.32251 0
M  V30 41681 H 3805.04 -3.42991 -6.73716 0
M  V30 41682 H 3806.31 -2.44393 -7.40197 0
M  V30 41683 N 3810.54 1.07407 -1.15332 0
M  V30 41684 C 3811.82 1.76722 -0.838372 0
M  V30 41685 C 3812.2 2.00314 0.666134 0
M  V30 41686 O 3811.55 1.62116 1.6103 0
M  V30 41687 C 3811.76 3.07612 -1.64852 0
M  V30 41688 C 3813.1 3.81967 -1.85435 0
M  V30 41689 O 3814.13 3.17422 -1.61623 0
M  V30 41690 O 3812.99 4.97892 -2.25313 0
M  V30 41691 H 3810.08 0.767403 -0.308256 0
M  V30 41692 H 3812.63 1.13778 -1.25907 0
M  V30 41693 H 3811.4 2.86054 -2.67 0
M  V30 41694 H 3811.02 3.78287 -1.22412 0
M  V30 41695 N 3812.02 0.950026 1.25747 0
M  V30 41696 C 3812.93 0.473011 2.29782 0
M  V30 41697 C 3813.95 -0.457374 1.67881 0
M  V30 41698 O 3815.12 -0.334745 1.98599 0
M  V30 41699 C 3812.19 -0.245894 3.45827 0
M  V30 41700 C 3811.25 0.722137 4.23183 0
M  V30 41701 C 3810.48 0.0374455 5.33687 0
M  V30 41702 O 3810.7 -1.1778 5.58107 0
M  V30 41703 O 3809.64 0.720645 5.9757 0
M  V30 41704 H 3813.46 1.33742 2.72666 0
M  V30 41705 H 3811.05 0.716283 1.3111 0
M  V30 41706 H 3812.93 -0.65049 4.16349 0
M  V30 41707 H 3811.61 -1.08555 3.04955 0
M  V30 41708 H 3810.51 1.17685 3.55107 0
M  V30 41709 H 3811.85 1.52967 4.67827 0
M  V30 41710 N 3813.5 -1.40291 0.718063 0
M  V30 41711 C 3814.41 -2.34501 0.0681947 0
M  V30 41712 C 3815.42 -1.57432 -0.74102 0
M  V30 41713 O 3816.6 -1.89808 -0.673404 0
M  V30 41714 C 3813.66 -3.36353 -0.840699 0
M  V30 41715 C 3812.73 -4.29295 -0.0211533 0
M  V30 41716 C 3811.96 -5.26282 -0.88676 0
M  V30 41717 O 3812.18 -5.29302 -2.12594 0
M  V30 41718 O 3811.12 -6.01025 -0.324432 0
M  V30 41719 H 3814.94 -2.91698 0.84534 0
M  V30 41720 H 3812.53 -1.41528 0.478566 0
M  V30 41721 H 3814.41 -3.98808 -1.36124 0
M  V30 41722 H 3813.08 -2.81566 -1.59695 0
M  V30 41723 H 3811.99 -3.70116 0.544516 0
M  V30 41724 H 3813.32 -4.87241 0.696931 0
M  V30 41725 N 3814.98 -0.464428 -1.50602 0
M  V30 41726 C 3815.91 0.323223 -2.31252 0
M  V30 41727 C 3816.89 0.996452 -1.37858 0
M  V30 41728 O 3818.07 0.994904 -1.66779 0
M  V30 41729 C 3815.2 1.4094 -3.17417 0
M  V30 41730 C 3814.16 0.858152 -4.19309 0
M  V30 41731 C 3813.48 2.04212 -4.94168 0
M  V30 41732 C 3814.78 -0.126013 -5.22148 0
M  V30 41733 H 3816.48 -0.349883 -2.97349 0
M  V30 41734 H 3814.02 -0.16971 -1.42996 0
M  V30 41735 H 3815.98 1.96785 -3.72631 0
M  V30 41736 H 3814.7 2.11118 -2.49192 0
M  V30 41737 H 3813.36 0.321721 -3.65186 0
M  V30 41738 H 3813.01 2.73072 -4.22422 0
M  V30 41739 H 3812.71 1.67953 -5.63086 0
M  V30 41740 H 3814.23 2.6056 -5.52215 0
M  V30 41741 H 3815.64 0.343036 -5.72273 0
M  V30 41742 H 3814.04 -0.402538 -5.98748 0
M  V30 41743 H 3815.11 -1.05407 -4.73305 0
M  V30 41744 N 3816.45 1.56367 -0.196777 0
M  V30 41745 C 3817.4 2.19169 0.723422 0
M  V30 41746 C 3818.37 1.13945 1.20854 0
M  V30 41747 O 3819.56 1.42203 1.27212 0
M  V30 41748 C 3816.7 2.85636 1.93664 0
M  V30 41749 C 3815.81 4.0539 1.49274 0
M  V30 41750 C 3814.94 4.59709 2.66159 0
M  V30 41751 C 3813.98 5.71818 2.18383 0
M  V30 41752 N 3813.12 6.20535 3.28452 0
M  V30 41753 H 3817.96 2.97449 0.181116 0
M  V30 41754 H 3815.5 1.46895 0.0776544 0
M  V30 41755 H 3817.46 3.22343 2.6486 0
M  V30 41756 H 3816.09 2.09917 2.45223 0
M  V30 41757 H 3815.14 3.74335 0.676592 0
M  V30 41758 H 3816.45 4.86469 1.10223 0
M  V30 41759 H 3815.6 4.98731 3.45474 0
M  V30 41760 H 3814.34 3.77741 3.08485 0
M  V30 41761 H 3813.35 5.32323 1.37522 0
M  V30 41762 H 3814.57 6.55605 1.77086 0
M  V30 41763 H 3812.52 5.41489 3.70305 0
M  V30 41764 H 3812.44 6.96671 2.93575 0
M  V30 41765 H 3813.7 6.64211 4.07976 0
M  V30 41766 N 3817.93 -0.0768128 1.57413 0
M  V30 41767 C 3818.88 -1.09182 2.03342 0
M  V30 41768 C 3819.85 -1.38751 0.913097 0
M  V30 41769 O 3821.03 -1.49903 1.18041 0
M  V30 41770 C 3818.17 -2.40176 2.47809 0
M  V30 41771 C 3817.29 -2.17181 3.73439 0
M  V30 41772 C 3816.42 -3.41704 4.06709 0
M  V30 41773 C 3815.46 -3.14051 5.25394 0
M  V30 41774 N 3814.6 -4.3089 5.54327 0
M  V30 41775 H 3819.44 -0.693172 2.89826 0
M  V30 41776 H 3816.98 -0.33071 1.43334 0
M  V30 41777 H 3818.93 -3.1665 2.71641 0
M  V30 41778 H 3817.56 -2.77853 1.64309 0
M  V30 41779 H 3816.62 -1.31424 3.56976 0
M  V30 41780 H 3817.93 -1.92752 4.60052 0
M  V30 41781 H 3817.08 -4.26575 4.31414 0
M  V30 41782 H 3815.82 -3.69204 3.18652 0
M  V30 41783 H 3814.83 -2.27574 5.0049 0
M  V30 41784 H 3816.05 -2.87878 6.15064 0
M  V30 41785 H 3814 -4.58432 4.6923 0
M  V30 41786 H 3813.91 -4.09716 6.35349 0
M  V30 41787 H 3815.18 -5.16773 5.8358 0
M  V30 41788 N 3819.41 -1.53708 -0.348084 0
M  V30 41789 C 3820.34 -1.77685 -1.44778 0
M  V30 41790 C 3821.36 -0.658023 -1.48909 0
M  V30 41791 O 3822.54 -0.934661 -1.52073 0
M  V30 41792 C 3819.64 -1.85752 -2.8346 0
M  V30 41793 C 3818.82 -3.15623 -3.02822 0
M  V30 41794 C 3817.88 -3.14706 -4.21719 0
M  V30 41795 O 3816.9 -3.88444 -4.16053 0
M  V30 41796 N 3818.1 -2.36755 -5.30026 0
M  V30 41797 H 3820.87 -2.72579 -1.24583 0
M  V30 41798 H 3818.43 -1.52702 -0.537934 0
M  V30 41799 H 3820.42 -1.82595 -3.61166 0
M  V30 41800 H 3818.99 -0.980647 -2.9682 0
M  V30 41801 H 3818.21 -3.31941 -2.12624 0
M  V30 41802 H 3819.5 -4.01416 -3.12638 0
M  V30 41803 H 3818.9 -1.76389 -5.37497 0
M  V30 41804 H 3817.46 -2.394 -6.06243 0
M  V30 41805 N 3820.89 0.608851 -1.45364 0
M  V30 41806 C 3821.82 1.73333 -1.48428 0
M  V30 41807 C 3822.8 1.58989 -0.340785 0
M  V30 41808 O 3823.98 1.80567 -0.541098 0
M  V30 41809 C 3821.11 3.11146 -1.33812 0
M  V30 41810 C 3820.16 3.44083 -2.52011 0
M  V30 41811 S 3820.99 3.39064 -4.14483 0
M  V30 41812 C 3822.15 4.7946 -4.0233 0
M  V30 41813 H 3822.38 1.70471 -2.43571 0
M  V30 41814 H 3819.91 0.785395 -1.32932 0
M  V30 41815 H 3821.87 3.90663 -1.26067 0
M  V30 41816 H 3820.53 3.11524 -0.40142 0
M  V30 41817 H 3819.72 4.44423 -2.37707 0
M  V30 41818 H 3819.33 2.72078 -2.56611 0
M  V30 41819 H 3821.62 5.69233 -3.67396 0
M  V30 41820 H 3822.56 4.9882 -5.02578 0
M  V30 41821 H 3822.97 4.55081 -3.34008 0
M  V30 41822 N 3822.37 1.32633 0.851242 0
M  V30 41823 C 3823.78 1.21017 1.42168 0
M  V30 41824 C 3824.13 -0.175937 1.9541 0
M  V30 41825 O 3823.25 -1.07486 1.87818 0
M  V30 41826 C 3823.85 2.19091 2.58427 0
M  V30 41827 C 3822.41 2.11352 3.1146 0
M  V30 41828 C 3821.55 2.07266 1.84217 0
M  V30 41829 H 3824.51 1.44412 0.658095 0
M  V30 41830 H 3824.53 1.79143 3.35691 0
M  V30 41831 H 3824.04 3.19964 2.19647 0
M  V30 41832 H 3822.14 1.13738 3.54816 0
M  V30 41833 H 3822.25 3.01332 3.72473 0
M  V30 41834 H 3820.62 1.52556 2.03958 0
M  V30 41835 H 3821.4 3.09927 1.47649 0
M  V30 41836 N 3823.84 -1.06794 1.159 0
M  V30 41837 C 3825.09 -1.78882 0.931879 0
M  V30 41838 C 3825.41 -1.87943 -0.541937 0
M  V30 41839 O 3826.61 -2.56609 -0.886803 0
M  V30 41840 C 3825.07 -3.21482 1.61794 0
M  V30 41841 C 3824.68 -3.20605 3.12916 0
M  V30 41842 C 3826.42 -3.9814 1.47259 0
M  V30 41843 C 3824.33 -4.57893 3.74283 0
M  V30 41844 H 3823.26 -0.670436 0.34501 0
M  V30 41845 H 3825.91 -1.19825 1.38976 0
M  V30 41846 H 3824.29 -3.80767 1.08776 0
M  V30 41847 H 3825.46 -2.70931 3.72737 0
M  V30 41848 H 3823.78 -2.57445 3.27278 0
M  V30 41849 H 3826.38 -4.99616 1.90493 0
M  V30 41850 H 3826.72 -4.14167 0.420839 0
M  V30 41851 H 3827.25 -3.45364 1.97405 0
M  V30 41852 H 3823.99 -4.4707 4.79384 0
M  V30 41853 H 3823.51 -5.07781 3.19247 0
M  V30 41854 H 3825.19 -5.26856 3.75542 0
M  V30 41855 N 3825.32 -0.956681 -1.25241 0
M  V30 41856 C 3826.57 -0.611362 -1.92631 0
M  V30 41857 C 3826.89 0.854639 -1.75274 0
M  V30 41858 O 3826.16 1.60892 -1.11761 0
M  V30 41859 H 3824.74 -0.223121 -0.7129 0
M  V30 41860 H 3827.4 -1.21537 -1.52364 0
M  V30 41861 H 3826.5 -0.842449 -3.00515 0
M  V30 41862 N 3826.8 1.39908 -0.725493 0
M  V30 41863 C 3828.05 2.00305 -0.268754 0
M  V30 41864 C 3828.37 1.57838 1.14509 0
M  V30 41865 O 3827.64 0.822294 1.77806 0
M  V30 41866 H 3826.22 0.740757 -0.0963744 0
M  V30 41867 H 3828.88 1.71099 -0.933333 0
M  V30 41868 H 3827.98 3.1056 -0.309642 0
M  V30 41869 N 3828.28 0.472408 1.50353 0
M  V30 41870 C 3829.56 -0.143769 1.95071 0
M  V30 41871 C 3829.94 -1.56851 1.41283 0
M  V30 41872 O 3829.28 -2.20085 0.614387 0
M  V30 41873 C 3829.49 -0.085733 3.48895 0
M  V30 41874 C 3830.84 -0.273964 4.23715 0
M  V30 41875 O 3831.87 -0.162256 3.5583 0
M  V30 41876 O 3830.72 -0.499719 5.4421 0
M  V30 41877 H 3827.82 -0.110952 0.819523 0
M  V30 41878 H 3830.36 0.532905 1.61116 0
M  V30 41879 H 3829.14 0.908954 3.80597 0
M  V30 41880 H 3828.76 -0.803807 3.8939 0
M  V30 41881 N 3829.76 -1.5626 0.205067 0
M  V30 41882 C 3831 -1.98152 -0.431701 0
M  V30 41883 C 3831.34 -1.09218 -1.60577 0
M  V30 41884 O 3830.61 -0.146291 -1.93949 0
M  V30 41885 C 3830.89 -3.49126 -0.882216 0
M  V30 41886 C 3830.75 -4.48836 0.294357 0
M  V30 41887 C 3832.07 -4.0406 -1.74423 0
M  V30 41888 H 3829.19 -0.720421 -0.155445 0
M  V30 41889 H 3831.83 -1.87649 0.297993 0
M  V30 41890 H 3829.98 -3.58208 -1.50398 0
M  V30 41891 H 3831.65 -4.51782 0.932228 0
M  V30 41892 H 3829.89 -4.23393 0.944515 0
M  V30 41893 H 3830.56 -5.51963 -0.063542 0
M  V30 41894 H 3833.04 -3.9782 -1.21976 0
M  V30 41895 H 3831.92 -5.10047 -2.02839 0
M  V30 41896 H 3832.18 -3.49929 -2.70189 0
M  V30 41897 N 3831.24 0.0684638 -1.57451 0
M  V30 41898 C 3832.65 0.619901 -1.76108 0
M  V30 41899 C 3833 1.77734 -0.830971 0
M  V30 41900 O 3832.12 2.16394 -0.0158861 0
M  V30 41901 C 3832.72 1.13131 -3.19354 0
M  V30 41902 C 3831.28 1.62858 -3.39344 0
M  V30 41903 C 3830.42 0.549429 -2.71802 0
M  V30 41904 H 3833.37 -0.157717 -1.57914 0
M  V30 41905 H 3833.4 2.00002 -3.23696 0
M  V30 41906 H 3832.91 0.288694 -3.87025 0
M  V30 41907 H 3831.01 2.49433 -2.76792 0
M  V30 41908 H 3831.12 1.70323 -4.47802 0
M  V30 41909 H 3829.49 0.995261 -2.3445 0
M  V30 41910 H 3830.27 -0.283055 -3.42131 0
M  V30 41911 N 3832.71 1.5389 0.339928 0
M  V30 41912 C 3833.68 1.81431 1.40055 0
M  V30 41913 C 3834.68 0.685489 1.45457 0
M  V30 41914 O 3835.87 0.95378 1.45769 0
M  V30 41915 C 3833 1.9596 2.78949 0
M  V30 41916 H 3834.19 2.7618 1.16897 0
M  V30 41917 H 3831.74 1.45358 0.574518 0
M  V30 41918 H 3832.48 1.03367 3.07385 0
M  V30 41919 H 3832.26 2.78087 2.76424 0
M  V30 41920 H 3833.75 2.18772 3.55709 0
M  V30 41921 N 3834.19 -0.601133 1.45685 0
M  V30 41922 C 3835.12 -1.72203 1.57697 0
M  V30 41923 C 3836.1 -1.64623 0.42817 0
M  V30 41924 O 3837.29 -1.82923 0.652123 0
M  V30 41925 C 3834.42 -3.1082 1.54946 0
M  V30 41926 C 3833.37 -3.33217 2.68609 0
M  V30 41927 C 3832.7 -4.72172 2.50914 0
M  V30 41928 C 3834 -3.22841 4.10574 0
M  V30 41929 H 3835.69 -1.62407 2.51524 0
M  V30 41930 H 3833.24 -0.779908 1.21051 0
M  V30 41931 H 3835.19 -3.89039 1.61946 0
M  V30 41932 H 3833.91 -3.21471 0.576527 0
M  V30 41933 H 3832.57 -2.5739 2.61048 0
M  V30 41934 H 3832.22 -4.79565 1.51745 0
M  V30 41935 H 3831.92 -4.88112 3.27139 0
M  V30 41936 H 3833.45 -5.52583 2.59777 0
M  V30 41937 H 3834.86 -3.90927 4.19343 0
M  V30 41938 H 3833.26 -3.5031 4.8724 0
M  V30 41939 H 3834.33 -2.20185 4.32026 0
M  V30 41940 N 3835.67 -1.33083 -0.844196 0
M  V30 41941 C 3836.6 -1.18725 -1.96053 0
M  V30 41942 C 3837.61 -0.119567 -1.6236 0
M  V30 41943 O 3838.8 -0.3695 -1.74634 0
M  V30 41944 C 3835.9 -0.797375 -3.29386 0
M  V30 41945 C 3835.08 -1.95557 -3.91249 0
M  V30 41946 C 3834.14 -1.54754 -5.02929 0
M  V30 41947 O 3833.16 -2.2611 -5.22363 0
M  V30 41948 N 3834.36 -0.449496 -5.78757 0
M  V30 41949 H 3837.13 -2.14889 -2.08908 0
M  V30 41950 H 3834.69 -1.25758 -1.01963 0
M  V30 41951 H 3836.68 -0.506607 -4.01517 0
M  V30 41952 H 3835.25 0.0734225 -3.12514 0
M  V30 41953 H 3834.47 -2.41226 -3.11775 0
M  V30 41954 H 3835.76 -2.73068 -4.29315 0
M  V30 41955 H 3835.16 0.14418 -5.65516 0
M  V30 41956 H 3833.71 -0.218378 -6.51434 0
M  V30 41957 N 3837.15 1.06178 -1.16464 0
M  V30 41958 C 3838.08 2.15648 -0.895437 0
M  V30 41959 C 3839.06 1.69358 0.158699 0
M  V30 41960 O 3840.24 1.94197 0.0105519 0
M  V30 41961 C 3837.37 3.45023 -0.39702 0
M  V30 41962 C 3836.33 4.04827 -1.3892 0
M  V30 41963 C 3835.65 5.29426 -0.749136 0
M  V30 41964 C 3836.95 4.43471 -2.75918 0
M  V30 41965 H 3838.65 2.38426 -1.81089 0
M  V30 41966 H 3836.19 1.14587 -0.872118 0
M  V30 41967 H 3838.15 4.20943 -0.19616 0
M  V30 41968 H 3836.87 3.21868 0.553945 0
M  V30 41969 H 3835.53 3.30965 -1.57662 0
M  V30 41970 H 3835.18 5.02568 0.208351 0
M  V30 41971 H 3834.88 5.70398 -1.41138 0
M  V30 41972 H 3836.4 6.08042 -0.558324 0
M  V30 41973 H 3837.82 5.10468 -2.60951 0
M  V30 41974 H 3836.21 4.95431 -3.38627 0
M  V30 41975 H 3837.28 3.54278 -3.31082 0
M  V30 41976 N 3838.63 0.96331 1.24732 0
M  V30 41977 C 3839.56 0.447761 2.24784 0
M  V30 41978 C 3840.57 -0.441103 1.5671 0
M  V30 41979 O 3841.76 -0.247984 1.76769 0
M  V30 41980 C 3838.86 -0.373309 3.36838 0
M  V30 41981 C 3838.03 0.504608 4.3448 0
M  V30 41982 C 3837.09 -0.259717 5.25559 0
M  V30 41983 O 3836.12 0.344854 5.68154 0
M  V30 41984 N 3837.32 -1.55049 5.59411 0
M  V30 41985 H 3840.08 1.30797 2.69652 0
M  V30 41986 H 3837.65 0.834639 1.38728 0
M  V30 41987 H 3839.64 -0.892561 3.94735 0
M  V30 41988 H 3838.21 -1.13442 2.9129 0
M  V30 41989 H 3837.43 1.20488 3.75335 0
M  V30 41990 H 3838.72 1.10351 4.96689 0
M  V30 41991 H 3838.11 -2.06346 5.26724 0
M  V30 41992 H 3836.67 -2.01552 6.19855 0
M  V30 41993 N 3840.1 -1.39522 0.732902 0
M  V30 41994 C 3841.33 -2.04559 0.289685 0
M  V30 41995 C 3841.74 -1.55367 -1.07971 0
M  V30 41996 O 3841.08 -0.712781 -1.69308 0
M  V30 41997 C 3841.15 -3.58881 0.21083 0
M  V30 41998 C 3840.81 -4.3104 1.51834 0
M  V30 41999 C 3841.81 -4.57822 2.46364 0
M  V30 42000 C 3839.49 -4.69625 1.78206 0
M  V30 42001 C 3841.49 -5.22196 3.655 0
M  V30 42002 C 3839.17 -5.33728 2.9762 0
M  V30 42003 C 3840.17 -5.59945 3.91089 0
M  V30 42004 O 3839.86 -6.22719 5.08406 0
M  V30 42005 H 3839.59 -0.66438 0.124799 0
M  V30 42006 H 3842.15 -1.79594 0.996757 0
M  V30 42007 H 3840.38 -3.82735 -0.552326 0
M  V30 42008 H 3842.06 -4.05406 -0.200112 0
M  V30 42009 H 3842.83 -4.2846 2.2726 0
M  V30 42010 H 3838.71 -4.48577 1.063 0
M  V30 42011 H 3842.25 -5.42575 4.38472 0
M  V30 42012 H 3838.15 -5.6251 3.16627 0
M  V30 42013 H 3838.92 -6.41213 5.08713 0
M  V30 42014 N 3841.58 -0.480375 -1.501 0
M  V30 42015 C 3842.86 0.133422 -1.95144 0
M  V30 42016 C 3843.24 1.561 -1.42113 0
M  V30 42017 O 3842.59 2.19756 -0.626051 0
M  V30 42018 C 3842.8 0.0672291 -3.48935 0
M  V30 42019 C 3844.14 0.25149 -4.23855 0
M  V30 42020 O 3845.17 0.143384 -3.55911 0
M  V30 42021 O 3844.03 0.470851 -5.44468 0
M  V30 42022 H 3841.12 0.106604 -0.8201 0
M  V30 42023 H 3843.67 -0.541442 -1.60831 0
M  V30 42024 H 3842.44 -0.929125 -3.80109 0
M  V30 42025 H 3842.06 0.783145 -3.89811 0
M  V30 42026 N 3843.06 1.56149 -0.213351 0
M  V30 42027 C 3844.01 2.16554 0.713333 0
M  V30 42028 C 3844.99 1.11149 1.16339 0
M  V30 42029 O 3846.19 1.37161 1.11875 0
M  V30 42030 C 3843.31 2.84263 1.92482 0
M  V30 42031 C 3842.4 3.96883 1.49482 0
M  V30 42032 N 3842.79 4.99798 0.776897 0
M  V30 42033 C 3841.09 4.08821 1.78274 0
M  V30 42034 C 3841.79 5.7901 0.55878 0
M  V30 42035 N 3840.77 5.32083 1.11302 0
M  V30 42036 H 3844.57 2.93484 0.156305 0
M  V30 42037 H 3842.08 1.62394 -0.0142777 0
M  V30 42038 H 3844.08 3.25943 2.59936 0
M  V30 42039 H 3842.74 2.08827 2.48639 0
M  V30 42040 H 3843.75 5.16108 0.430438 0
M  V30 42041 H 3840.43 3.44529 2.3581 0
M  V30 42042 H 3841.82 6.71899 -0.012039 0
M  V30 42043 N 3844.54 -0.0601128 1.57485 0
M  V30 42044 C 3845.78 -0.762244 1.89655 0
M  V30 42045 C 3846.14 -1.74148 0.808489 0
M  V30 42046 O 3847.34 -2.48957 1.0136 0
M  V30 42047 C 3845.61 -1.4415 3.27041 0
M  V30 42048 S 3847.17 -2.17708 3.80984 0
M  V30 42049 H 3843.99 -0.253228 0.664377 0
M  V30 42050 H 3846.59 -0.0178917 1.95492 0
M  V30 42051 H 3845.3 -0.715154 4.04121 0
M  V30 42052 H 3844.83 -2.22504 3.24431 0
M  V30 42053 H 3846.84 -3.44406 3.5721 0
M  V30 42054 N 3846.02 -1.54068 -0.331762 0
M  V30 42055 C 3846.96 -1.82881 -1.40794 0
M  V30 42056 C 3847.93 -0.675319 -1.51752 0
M  V30 42057 O 3849.12 -0.920934 -1.67103 0
M  V30 42058 C 3846.26 -2.05455 -2.77276 0
M  V30 42059 C 3845.37 -3.33152 -2.75016 0
M  V30 42060 C 3844.51 -3.4573 -4.03291 0
M  V30 42061 C 3843.55 -4.67333 -3.95306 0
M  V30 42062 N 3842.68 -4.76881 -5.15295 0
M  V30 42063 H 3847.52 -2.74697 -1.15524 0
M  V30 42064 H 3845.06 -1.36049 -0.559387 0
M  V30 42065 H 3847.02 -2.16534 -3.56607 0
M  V30 42066 H 3845.65 -1.1694 -3.00873 0
M  V30 42067 H 3844.7 -3.30854 -1.87723 0
M  V30 42068 H 3846.01 -4.22586 -2.64996 0
M  V30 42069 H 3845.17 -3.56306 -4.91051 0
M  V30 42070 H 3843.9 -2.54374 -4.16107 0
M  V30 42071 H 3842.91 -4.56822 -3.05931 0
M  V30 42072 H 3844.13 -5.60065 -3.84063 0
M  V30 42073 H 3842.08 -3.88438 -5.28632 0
M  V30 42074 H 3842 -5.60268 -5.07578 0
M  V30 42075 H 3843.27 -4.91779 -6.04792 0
M  V30 42076 N 3847.49 0.593399 -1.46002 0
M  V30 42077 C 3848.46 1.6852 -1.5535 0
M  V30 42078 C 3849.46 1.54899 -0.431627 0
M  V30 42079 O 3850.65 1.5971 -0.695587 0
M  V30 42080 C 3847.78 3.07882 -1.46361 0
M  V30 42081 H 3848.97 1.61593 -2.52641 0
M  V30 42082 H 3846.53 0.81034 -1.33653 0
M  V30 42083 H 3847.26 3.20374 -0.50308 0
M  V30 42084 H 3847.05 3.19177 -2.27746 0
M  V30 42085 H 3848.54 3.87382 -1.55965 0
M  V30 42086 N 3848.97 1.33529 0.837127 0
M  V30 42087 C 3849.9 1.26557 1.96229 0
M  V30 42088 C 3850.88 0.14579 1.69474 0
M  V30 42089 O 3852.07 0.335849 1.91274 0
M  V30 42090 C 3849.2 1.0058 3.32417 0
M  V30 42091 C 3848.15 2.0887 3.73574 0
M  V30 42092 C 3847.48 1.68104 5.07588 0
M  V30 42093 C 3848.78 3.50563 3.87173 0
M  V30 42094 H 3850.47 2.20697 2.0232 0
M  V30 42095 H 3848.02 1.06244 0.972019 0
M  V30 42096 H 3849.97 0.943511 4.10702 0
M  V30 42097 H 3848.7 0.0287842 3.26587 0
M  V30 42098 H 3847.35 2.14144 2.97553 0
M  V30 42099 H 3847 0.691009 4.98231 0
M  V30 42100 H 3846.7 2.40573 5.36096 0
M  V30 42101 H 3848.23 1.63345 5.88346 0
M  V30 42102 H 3849.64 3.4778 4.55765 0
M  V30 42103 H 3848.04 4.21531 4.2712 0
M  V30 42104 H 3849.11 3.88941 2.89573 0
M  V30 42105 N 3850.45 -1.05559 1.17026 0
M  V30 42106 C 3851.87 -1.30645 0.916741 0
M  V30 42107 C 3852.07 -1.96941 -0.426214 0
M  V30 42108 O 3851.12 -2.24068 -1.16404 0
M  V30 42109 C 3852.44 -2.17985 2.0713 0
M  V30 42110 C 3853.98 -2.31379 2.10791 0
M  V30 42111 C 3854.46 -3.22078 3.25622 0
M  V30 42112 N 3855.95 -3.29663 3.25387 0
M  V30 42113 C 3856.68 -3.99956 4.1088 0
M  V30 42114 N 3856.18 -4.72709 5.06476 0
M  V30 42115 N 3857.97 -3.96082 3.98842 0
M  V30 42116 H 3850.12 -0.609248 2.03475 0
M  V30 42117 H 3852.39 -0.331228 0.888252 0
M  V30 42118 H 3852.09 -1.76559 3.04171 0
M  V30 42119 H 3851.97 -3.18605 2.01917 0
M  V30 42120 H 3854.35 -2.72049 1.14338 0
M  V30 42121 H 3854.44 -1.30401 2.20066 0
M  V30 42122 H 3854.08 -2.82123 4.22338 0
M  V30 42123 H 3854.01 -4.23053 3.13583 0
M  V30 42124 H 3856.5 -2.77823 2.56169 0
M  V30 42125 H 3856.81 -5.23895 5.68114 0
M  V30 42126 H 3855.16 -4.71664 5.10449 0
M  V30 42127 H 3858.35 -3.38369 3.23456 0
M  V30 42128 H 3858.52 -4.50596 4.6569 0
M  V30 42129 N 3851.93 -0.969911 -1.2422 0
M  V30 42130 C 3853.34 -0.676803 -1.44539 0
M  V30 42131 C 3853.54 0.760623 -1.86593 0
M  V30 42132 O 3852.6 1.53427 -2.0054 0
M  V30 42133 C 3853.91 -1.66278 -2.50543 0
M  V30 42134 C 3855.46 -1.67566 -2.64369 0
M  V30 42135 C 3855.94 -2.64967 -3.73573 0
M  V30 42136 N 3857.43 -2.63422 -3.81002 0
M  V30 42137 C 3858.16 -3.3546 -4.65031 0
M  V30 42138 N 3857.66 -4.17023 -5.5323 0
M  V30 42139 N 3859.45 -3.24274 -4.59132 0
M  V30 42140 H 3851.6 -1.8986 -0.952204 0
M  V30 42141 H 3853.87 -0.817524 -0.479957 0
M  V30 42142 H 3853.57 -2.69024 -2.26536 0
M  V30 42143 H 3853.45 -1.4373 -3.48743 0
M  V30 42144 H 3855.83 -0.655297 -2.87732 0
M  V30 42145 H 3855.91 -1.94177 -1.6652 0
M  V30 42146 H 3855.56 -3.67138 -3.50958 0
M  V30 42147 H 3855.49 -2.35634 -4.7094 0
M  V30 42148 H 3857.98 -2.04221 -3.17965 0
M  V30 42149 H 3858.29 -4.68872 -6.14312 0
M  V30 42150 H 3856.64 -4.21117 -5.52888 0
M  V30 42151 H 3859.83 -2.60015 -3.89243 0
M  V30 42152 H 3860 -3.80679 -5.24392 0
M  V30 42153 N 3853.41 1.39131 -0.740291 0
M  V30 42154 C 3854.32 2.34363 -0.105493 0
M  V30 42155 C 3855.33 1.58591 0.715881 0
M  V30 42156 O 3856.51 1.90856 0.643121 0
M  V30 42157 C 3853.57 3.37648 0.787081 0
M  V30 42158 C 3852.63 4.29274 -0.0471465 0
M  V30 42159 C 3851.87 5.27626 0.802921 0
M  V30 42160 O 3852.09 5.32617 2.04146 0
M  V30 42161 O 3851.02 6.01465 0.228773 0
M  V30 42162 H 3854.85 2.90316 -0.891639 0
M  V30 42163 H 3852.44 1.40749 -0.501021 0
M  V30 42164 H 3854.32 4.00924 1.29762 0
M  V30 42165 H 3852.99 2.84071 1.55195 0
M  V30 42166 H 3851.9 3.69203 -0.60333 0
M  V30 42167 H 3853.23 4.8607 -0.774359 0
M  V30 42168 N 3854.88 0.488329 1.49844 0
M  V30 42169 C 3855.81 -0.286392 2.31737 0
M  V30 42170 C 3856.8 -0.974394 1.39426 0
M  V30 42171 O 3857.98 -0.968245 1.68341 0
M  V30 42172 C 3855.11 -1.35872 3.19619 0
M  V30 42173 C 3854.06 -0.791335 4.20621 0
M  V30 42174 C 3853.39 -1.96324 4.97354 0
M  V30 42175 C 3854.69 0.209066 5.21881 0
M  V30 42176 H 3856.38 0.397144 2.96754 0
M  V30 42177 H 3853.93 0.192438 1.42708 0
M  V30 42178 H 3855.88 -1.90832 3.75714 0
M  V30 42179 H 3854.61 -2.07127 2.5252 0
M  V30 42180 H 3853.27 -0.263582 3.65651 0
M  V30 42181 H 3852.91 -2.66317 4.26713 0
M  V30 42182 H 3852.61 -1.58973 5.65686 0
M  V30 42183 H 3854.14 -2.51742 5.5629 0
M  V30 42184 H 3855.55 -0.251949 5.72746 0
M  V30 42185 H 3853.95 0.497743 5.98032 0
M  V30 42186 H 3855.02 1.12924 4.71568 0
M  V30 42187 N 3856.36 -1.56034 0.221629 0
M  V30 42188 C 3857.31 -2.20293 -0.688463 0
M  V30 42189 C 3858.28 -1.15853 -1.19026 0
M  V30 42190 O 3859.46 -1.44209 -1.24934 0
M  V30 42191 C 3856.6 -2.88681 -1.89096 0
M  V30 42192 C 3855.72 -4.07714 -1.42805 0
M  V30 42193 C 3854.85 -4.63886 -2.58812 0
M  V30 42194 C 3853.89 -5.7522 -2.09258 0
M  V30 42195 N 3853.03 -6.25682 -3.18538 0
M  V30 42196 H 3857.87 -2.977 -0.133772 0
M  V30 42197 H 3855.41 -1.47 -0.0542749 0
M  V30 42198 H 3857.36 -3.26516 -2.59698 0
M  V30 42199 H 3855.99 -2.13792 -2.41853 0
M  V30 42200 H 3855.05 -3.75364 -0.616953 0
M  V30 42201 H 3856.36 -4.88161 -1.02469 0
M  V30 42202 H 3855.51 -5.04164 -3.37496 0
M  V30 42203 H 3854.25 -3.82601 -3.02436 0
M  V30 42204 H 3853.26 -5.34444 -1.29035 0
M  V30 42205 H 3854.48 -6.58339 -1.66633 0
M  V30 42206 H 3852.43 -5.47311 -3.61644 0
M  V30 42207 H 3852.34 -7.01253 -2.82454 0
M  V30 42208 H 3853.61 -6.70617 -3.97357 0
M  V30 42209 N 3857.84 0.0517601 -1.57515 0
M  V30 42210 C 3858.75 1.07677 -2.08429 0
M  V30 42211 C 3859.77 1.41113 -1.018 0
M  V30 42212 O 3860.94 1.50888 -1.33397 0
M  V30 42213 C 3858.01 2.36539 -2.53476 0
M  V30 42214 C 3857.07 2.09892 -3.74491 0
M  V30 42215 C 3856.3 3.32611 -4.1738 0
M  V30 42216 O 3856.52 4.42468 -3.59969 0
M  V30 42217 O 3855.46 3.19644 -5.10011 0
M  V30 42218 H 3859.28 0.674165 -2.96123 0
M  V30 42219 H 3856.87 0.267248 -1.4699 0
M  V30 42220 H 3858.75 3.1234 -2.82882 0
M  V30 42221 H 3857.43 2.7614 -1.68903 0
M  V30 42222 H 3856.33 1.31733 -3.50139 0
M  V30 42223 H 3857.67 1.75161 -4.59978 0
M  V30 42224 N 3859.32 1.54242 0.323587 0
M  V30 42225 C 3860.27 1.83625 1.39823 0
M  V30 42226 C 3861.24 0.683357 1.51392 0
M  V30 42227 O 3862.42 0.929783 1.66612 0
M  V30 42228 C 3859.56 2.06923 2.76183 0
M  V30 42229 C 3858.67 3.34606 2.73245 0
M  V30 42230 C 3857.81 3.47864 4.01452 0
M  V30 42231 C 3856.85 4.69422 3.92822 0
M  V30 42232 N 3855.99 4.79607 5.12759 0
M  V30 42233 H 3860.83 2.75305 1.14065 0
M  V30 42234 H 3858.36 1.36344 0.552164 0
M  V30 42235 H 3860.32 2.18422 3.55454 0
M  V30 42236 H 3858.95 1.18534 3.00249 0
M  V30 42237 H 3858 3.31845 1.85966 0
M  V30 42238 H 3859.31 4.23985 2.62751 0
M  V30 42239 H 3858.47 3.58905 4.89154 0
M  V30 42240 H 3857.21 2.56577 4.14752 0
M  V30 42241 H 3856.21 4.58438 3.03504 0
M  V30 42242 H 3857.44 5.62094 3.81087 0
M  V30 42243 H 3855.38 3.91236 5.26565 0
M  V30 42244 H 3855.3 5.62952 5.046 0
M  V30 42245 H 3856.57 4.9498 6.02175 0
M  V30 42246 N 3860.8 -0.585648 1.46314 0
M  V30 42247 C 3861.71 -1.72283 1.59235 0
M  V30 42248 C 3862.72 -1.67364 0.475941 0
M  V30 42249 O 3863.9 -1.87326 0.73966 0
M  V30 42250 C 3860.96 -3.08783 1.57652 0
M  V30 42251 C 3860.03 -3.24988 2.80502 0
M  V30 42252 C 3859.26 -4.54975 2.78986 0
M  V30 42253 O 3859.48 -5.3868 1.87562 0
M  V30 42254 O 3858.42 -4.74365 3.70488 0
M  V30 42255 H 3862.24 -1.6433 2.554 0
M  V30 42256 H 3859.83 -0.752346 1.29074 0
M  V30 42257 H 3861.71 -3.90067 1.59455 0
M  V30 42258 H 3860.38 -3.17179 0.646456 0
M  V30 42259 H 3859.29 -2.43208 2.84255 0
M  V30 42260 H 3860.62 -3.2148 3.72708 0
M  V30 42261 N 3862.28 -1.33971 -0.830033 0
M  V30 42262 C 3863.51 -1.288 -1.61537 0
M  V30 42263 C 3863.91 0.141547 -1.8867 0
M  V30 42264 O 3863.26 1.09688 -1.47358 0
M  V30 42265 C 3863.32 -2.00345 -2.985 0
M  V30 42266 C 3862.98 -3.49627 -2.94295 0
M  V30 42267 C 3863.98 -4.44667 -2.69383 0
M  V30 42268 C 3861.66 -3.91936 -3.14152 0
M  V30 42269 C 3863.66 -5.7999 -2.64368 0
M  V30 42270 C 3861.35 -5.2736 -3.08762 0
M  V30 42271 C 3862.34 -6.21199 -2.83903 0
M  V30 42272 O 3862.03 -7.54142 -2.78432 0
M  V30 42273 H 3861.76 -0.444786 -0.509059 0
M  V30 42274 H 3864.32 -1.77046 -1.04134 0
M  V30 42275 H 3862.55 -1.46703 -3.57792 0
M  V30 42276 H 3864.24 -1.88557 -3.59445 0
M  V30 42277 H 3865 -4.13302 -2.53784 0
M  V30 42278 H 3860.88 -3.19298 -3.3252 0
M  V30 42279 H 3864.43 -6.53206 -2.44884 0
M  V30 42280 H 3860.32 -5.58347 -3.23913 0
M  V30 42281 H 3861.09 -7.63795 -2.94211 0
M  V30 42282 N 3863.75 1.04937 -1.17584 0
M  V30 42283 C 3864.98 1.82192 -0.991002 0
M  V30 42284 C 3865.4 1.82491 0.455933 0
M  V30 42285 O 3864.76 1.23577 1.32659 0
M  V30 42286 C 3864.81 3.26073 -1.53976 0
M  V30 42287 O 3863.91 4.05426 -0.755243 0
M  V30 42288 H 3863.25 0.563221 -0.351679 0
M  V30 42289 H 3865.78 1.32217 -1.5614 0
M  V30 42290 H 3865.79 3.76869 -1.56313 0
M  V30 42291 H 3864.47 3.2517 -2.59301 0
M  V30 42292 H 3863.05 3.64141 -0.803487 0
M  V30 42293 N 3865.23 0.976485 1.23703 0
M  V30 42294 C 3866.48 0.644154 1.92298 0
M  V30 42295 C 3866.81 -0.819736 1.76051 0
M  V30 42296 O 3866.09 -1.59084 1.11905 0
M  V30 42297 C 3866.37 1.03051 3.4504 0
M  V30 42298 C 3866.22 2.55174 3.70414 0
M  V30 42299 C 3867.54 0.571521 4.36373 0
M  V30 42300 H 3864.66 0.235491 0.698365 0
M  V30 42301 H 3867.3 1.21707 1.45902 0
M  V30 42302 H 3865.45 0.543007 3.84686 0
M  V30 42303 H 3867.12 3.11468 3.40273 0
M  V30 42304 H 3865.37 2.97982 3.15261 0
M  V30 42305 H 3866.04 2.77257 4.77318 0
M  V30 42306 H 3868.51 0.990008 4.04151 0
M  V30 42307 H 3867.39 0.870321 5.41956 0
M  V30 42308 H 3867.65 -0.528241 4.38933 0
M  V30 42309 N 3866.71 -1.38737 0.747659 0
M  V30 42310 C 3867.64 -2.3313 0.131358 0
M  V30 42311 C 3868.62 -1.54564 -0.710202 0
M  V30 42312 O 3869.81 -1.82906 -0.652599 0
M  V30 42313 C 3866.94 -3.38722 -0.767108 0
M  V30 42314 C 3865.89 -4.2799 -0.0287371 0
M  V30 42315 C 3865.22 -5.24388 -1.04506 0
M  V30 42316 C 3866.52 -5.09793 1.13617 0
M  V30 42317 H 3868.21 -2.84919 0.91986 0
M  V30 42318 H 3865.76 -1.36991 0.443788 0
M  V30 42319 H 3867.71 -4.03718 -1.20789 0
M  V30 42320 H 3866.43 -2.85402 -1.58787 0
M  V30 42321 H 3865.09 -3.64492 0.392555 0
M  V30 42322 H 3864.74 -4.67358 -1.85972 0
M  V30 42323 H 3864.44 -5.84966 -0.55571 0
M  V30 42324 H 3865.96 -5.9226 -1.48528 0
M  V30 42325 H 3867.38 -5.68062 0.773229 0
M  V30 42326 H 3865.77 -5.79576 1.55599 0
M  V30 42327 H 3866.84 -4.43879 1.9519 0
M  V30 42328 N 3868.19 -0.496268 -1.49583 0
M  V30 42329 C 3869.14 0.298434 -2.30678 0
M  V30 42330 C 3870.13 0.967183 -1.39075 0
M  V30 42331 O 3871.34 0.895412 -1.56149 0
M  V30 42332 H 3867.71 0.115097 -0.74314 0
M  V30 42333 H 3869.68 -0.405585 -2.95631 0
M  V30 42334 C 3868.43 1.35291 -3.20299 0
M  V30 42335 H 3867.75 0.84772 -3.90709 0
M  V30 42336 H 3869.19 1.88104 -3.79991 0
M  V30 42337 C 3867.65 2.36853 -2.39588 0
M  V30 42338 O 3868.18 3.4264 -2.09668 0
M  V30 42339 N 3866.39 2.09203 -2.01699 0
M  V30 42340 H 3865.94 1.23197 -2.26231 0
M  V30 42341 H 3865.89 2.77385 -1.48003 0
M  V30 42342 N 3869.67 1.55914 -0.2299 0
M  V30 42343 C 3870.63 2.19392 0.663309 0
M  V30 42344 C 3871.63 1.1582 1.11546 0
M  V30 42345 O 3872.82 1.41004 1.02291 0
M  V30 42346 C 3869.95 2.82392 1.90965 0
M  V30 42347 H 3871.14 2.99699 0.109744 0
M  V30 42348 H 3868.7 1.56288 0.0196959 0
M  V30 42349 H 3869.43 2.05977 2.50487 0
M  V30 42350 H 3869.22 3.58245 1.59382 0
M  V30 42351 H 3870.71 3.31024 2.54584 0
M  V30 42352 N 3871.14 -0.043406 1.5754 0
M  V30 42353 C 3872.39 -0.738166 1.88889 0
M  V30 42354 C 3872.72 -1.75765 0.825858 0
M  V30 42355 O 3872 -1.93834 -0.160763 0
M  V30 42356 C 3872.28 -1.42067 3.30891 0
M  V30 42357 C 3872.13 -0.415675 4.47875 0
M  V30 42358 C 3873.45 -2.35839 3.71575 0
M  V30 42359 H 3870.57 -0.266885 0.68698 0
M  V30 42360 H 3873.21 -0.00103617 1.9 0
M  V30 42361 H 3871.36 -2.04898 3.30075 0
M  V30 42362 H 3873.04 0.20961 4.60824 0
M  V30 42363 H 3871.28 0.266422 4.32981 0
M  V30 42364 H 3871.95 -0.931413 5.44085 0
M  V30 42365 H 3874.43 -1.83064 3.73667 0
M  V30 42366 H 3873.3 -2.80581 4.71768 0
M  V30 42367 H 3873.56 -3.21893 3.03047 0
M  V30 42368 N 3872.62 -1.54412 -0.315402 0
M  V30 42369 C 3873.9 -1.63667 -1.0711 0
M  V30 42370 C 3874.28 -0.475724 -2.0567 0
M  V30 42371 O 3873.63 0.529141 -2.22289 0
M  V30 42372 C 3873.84 -3.01033 -1.76578 0
M  V30 42373 C 3875.18 -3.57359 -2.29303 0
M  V30 42374 O 3876.21 -3.03392 -1.86633 0
M  V30 42375 O 3875.07 -4.51819 -3.07444 0
M  V30 42376 H 3872.16 -0.663092 -0.494205 0
M  V30 42377 H 3874.71 -1.66758 -0.314641 0
M  V30 42378 H 3873.48 -3.76968 -1.04933 0
M  V30 42379 H 3873.1 -3.01657 -2.59015 0
M  V30 42380 N 3874.1 0.57788 -1.46623 0
M  V30 42381 C 3875.03 1.70125 -1.5359 0
M  V30 42382 C 3876.05 1.57187 -0.423817 0
M  V30 42383 O 3877.23 1.64523 -0.69242 0
M  V30 42384 C 3874.33 3.0842 -1.40465 0
M  V30 42385 C 3873.51 3.47315 -2.65878 0
M  V30 42386 C 3872.57 4.64688 -2.46883 0
M  V30 42387 O 3871.59 4.70306 -3.20625 0
M  V30 42388 N 3872.79 5.59875 -1.53362 0
M  V30 42389 H 3875.56 1.64602 -2.50452 0
M  V30 42390 H 3873.12 0.763989 -1.4274 0
M  V30 42391 H 3875.11 3.84742 -1.25523 0
M  V30 42392 H 3873.68 3.08284 -0.517657 0
M  V30 42393 H 3872.9 2.6065 -2.95729 0
M  V30 42394 H 3874.19 3.70069 -3.4918 0
M  V30 42395 H 3873.59 5.58076 -0.925624 0
M  V30 42396 H 3872.15 6.35608 -1.44381 0
M  V30 42397 N 3875.58 1.34409 0.822917 0
M  V30 42398 C 3876.54 1.25879 1.91539 0
M  V30 42399 C 3877.54 0.173998 1.59856 0
M  V30 42400 O 3878.73 0.426622 1.68895 0
M  V30 42401 C 3875.86 0.943472 3.27584 0
M  V30 42402 H 3877.06 2.23002 2.00525 0
M  V30 42403 H 3874.61 1.18697 1.01689 0
M  V30 42404 H 3875.34 -0.0245819 3.24291 0
M  V30 42405 H 3875.13 1.72813 3.51963 0
M  V30 42406 H 3876.62 0.908963 4.07588 0
M  V30 42407 N 3877.06 -1.04312 1.18139 0
M  V30 42408 C 3878.47 -1.29665 0.930546 0
M  V30 42409 C 3878.67 -1.97382 -0.405301 0
M  V30 42410 O 3877.73 -2.2529 -1.14021 0
M  V30 42411 C 3879.04 -2.15776 2.09431 0
M  V30 42412 C 3880.59 -2.2913 2.13233 0
M  V30 42413 C 3881.06 -3.18606 3.2902 0
M  V30 42414 N 3882.56 -3.26193 3.28865 0
M  V30 42415 C 3883.29 -3.95576 4.15099 0
M  V30 42416 N 3882.79 -4.6731 5.11461 0
M  V30 42417 N 3884.58 -3.9183 4.03021 0
M  V30 42418 H 3876.73 -0.587633 2.04109 0
M  V30 42419 H 3878.99 -0.321788 0.891716 0
M  V30 42420 H 3878.7 -1.73322 3.06026 0
M  V30 42421 H 3878.57 -3.16446 2.05285 0
M  V30 42422 H 3880.96 -2.70821 1.17217 0
M  V30 42423 H 3881.04 -1.2806 2.21437 0
M  V30 42424 H 3880.69 -2.77627 4.25306 0
M  V30 42425 H 3880.62 -4.19703 3.18052 0
M  V30 42426 H 3883.11 -2.7509 2.59102 0
M  V30 42427 H 3883.42 -5.1784 5.73639 0
M  V30 42428 H 3881.76 -4.66223 5.15423 0
M  V30 42429 H 3884.96 -3.34919 3.27027 0
M  V30 42430 H 3885.13 -4.45631 4.70443 0
M  V30 42431 N 3878.53 -0.983032 -1.23184 0
M  V30 42432 C 3879.78 -0.654343 -1.91954 0
M  V30 42433 C 3880.11 0.810388 -1.76483 0
M  V30 42434 O 3879.39 1.58488 -1.12747 0
M  V30 42435 C 3879.67 -1.04879 -3.44489 0
M  V30 42436 C 3879.52 -2.57135 -3.69055 0
M  V30 42437 C 3880.84 -0.594655 -4.36064 0
M  V30 42438 H 3877.96 -0.239191 -0.697106 0
M  V30 42439 H 3880.6 -1.22479 -1.45255 0
M  V30 42440 H 3878.75 -0.5634 -3.84393 0
M  V30 42441 H 3880.43 -3.13268 -3.38616 0
M  V30 42442 H 3878.67 -2.9965 -3.13676 0
M  V30 42443 H 3879.34 -2.79784 -4.75841 0
M  V30 42444 H 3881.82 -1.01143 -4.0362 0
M  V30 42445 H 3880.69 -0.89905 -5.41487 0
M  V30 42446 H 3880.95 0.504956 -4.39207 0
M  V30 42447 N 3880.01 1.38338 -0.755006 0
M  V30 42448 C 3881.26 2.00085 -0.311797 0
M  V30 42449 C 3881.59 1.59931 1.1069 0
M  V30 42450 O 3880.84 0.828931 1.77277 0
M  V30 42451 C 3881.14 3.55333 -0.383781 0
M  V30 42452 C 3880.81 4.15203 -1.75833 0
M  V30 42453 C 3879.47 4.31268 -2.13451 0
M  V30 42454 C 3881.82 4.48215 -2.65993 0
M  V30 42455 C 3879.15 4.77643 -3.40697 0
M  V30 42456 C 3881.5 4.96007 -3.92632 0
M  V30 42457 C 3880.17 5.10279 -4.30316 0
M  V30 42458 H 3879.44 0.732164 -0.114095 0
M  V30 42459 H 3882.08 1.65364 -0.965764 0
M  V30 42460 H 3880.39 3.902 0.353748 0
M  V30 42461 H 3882.08 4.00994 -0.0224115 0
M  V30 42462 H 3878.67 4.03114 -1.45592 0
M  V30 42463 H 3882.86 4.35404 -2.38195 0
M  V30 42464 H 3878.11 4.86878 -3.69811 0
M  V30 42465 H 3882.29 5.20521 -4.62635 0
M  V30 42466 H 3879.92 5.45973 -5.28978 0
M  V30 42467 N 3881.49 0.504194 1.49317 0
M  V30 42468 C 3882.42 -0.261797 2.32028 0
M  V30 42469 C 3883.4 -0.959551 1.40452 0
M  V30 42470 O 3884.59 -0.950335 1.69358 0
M  V30 42471 C 3881.72 -1.32474 3.21042 0
M  V30 42472 C 3880.67 -0.746678 4.21436 0
M  V30 42473 C 3880 -1.91038 4.99408 0
M  V30 42474 C 3881.3 0.264407 5.2163 0
M  V30 42475 H 3882.99 0.428596 2.96316 0
M  V30 42476 H 3880.54 0.207564 1.42496 0
M  V30 42477 H 3882.49 -1.86836 3.77717 0
M  V30 42478 H 3881.21 -2.04437 2.54702 0
M  V30 42479 H 3879.87 -0.224785 3.6591 0
M  V30 42480 H 3879.52 -2.61776 4.29514 0
M  V30 42481 H 3879.22 -1.52965 5.67341 0
M  V30 42482 H 3880.74 -2.45827 5.58929 0
M  V30 42483 H 3882.16 -0.191187 5.72981 0
M  V30 42484 H 3880.56 0.561144 5.97471 0
M  V30 42485 H 3881.63 1.17919 4.70344 0
M  V30 42486 N 3882.97 -1.5579 0.238166 0
M  V30 42487 C 3883.93 -2.19741 -0.651664 0
M  V30 42488 C 3884.93 -1.1641 -1.1093 0
M  V30 42489 O 3886.12 -1.41545 -1.01542 0
M  V30 42490 C 3883.25 -2.83401 -1.89465 0
M  V30 42491 H 3884.45 -2.99753 -0.0938486 0
M  V30 42492 H 3882 -1.56296 -0.0114073 0
M  V30 42493 H 3882.73 -2.07303 -2.49391 0
M  V30 42494 H 3882.52 -3.59086 -1.5748 0
M  V30 42495 H 3884.01 -3.32369 -2.52825 0
M  V30 42496 N 3884.45 0.0350506 -1.57561 0
M  V30 42497 C 3885.72 0.762138 -1.80141 0
M  V30 42498 C 3886.1 1.93893 -0.834788 0
M  V30 42499 O 3885.45 2.28161 0.124347 0
M  V30 42500 C 3885.66 1.20078 -3.27692 0
M  V30 42501 C 3887.01 1.61916 -3.92516 0
M  V30 42502 O 3888.03 1.29552 -3.31805 0
M  V30 42503 O 3886.89 2.21964 -4.99394 0
M  V30 42504 H 3883.99 0.368065 -0.740579 0
M  V30 42505 H 3886.53 0.0122897 -1.69696 0
M  V30 42506 H 3885.3 0.360432 -3.89636 0
M  V30 42507 H 3884.93 2.01083 -3.43003 0
M  V30 42508 N 3885.92 1.54577 0.307209 0
M  V30 42509 C 3886.86 1.81461 1.40016 0
M  V30 42510 C 3887.87 0.697272 1.47112 0
M  V30 42511 O 3889.06 0.974652 1.49542 0
M  V30 42512 C 3886.16 1.93202 2.78435 0
M  V30 42513 C 3885.33 3.23541 2.94347 0
M  V30 42514 C 3884.39 3.25776 4.13227 0
M  V30 42515 O 3883.42 3.99339 4.05607 0
M  V30 42516 N 3884.62 2.50724 5.23562 0
M  V30 42517 H 3887.38 2.75786 1.17312 0
M  V30 42518 H 3884.94 1.54074 0.497259 0
M  V30 42519 H 3886.94 1.92107 3.56198 0
M  V30 42520 H 3885.51 1.059 2.94116 0
M  V30 42521 H 3884.73 3.37461 2.03749 0
M  V30 42522 H 3886.01 4.09564 3.01885 0
M  V30 42523 H 3885.41 1.90578 5.32632 0
M  V30 42524 H 3883.97 2.55389 5.99683 0
M  V30 42525 N 3887.4 -0.570096 1.46927 0
M  V30 42526 C 3888.81 -1.15224 1.46902 0
M  V30 42527 C 3889.16 -1.95 0.216686 0
M  V30 42528 O 3888.29 -2.0546 -0.679352 0
M  V30 42529 C 3888.88 -2.09627 2.66162 0
M  V30 42530 C 3887.44 -2.63139 2.69137 0
M  V30 42531 C 3886.59 -1.39257 2.39797 0
M  V30 42532 H 3889.54 -0.357363 1.54624 0
M  V30 42533 H 3889.56 -2.93298 2.42398 0
M  V30 42534 H 3889.07 -1.51537 3.57293 0
M  V30 42535 H 3887.18 -3.25063 1.82112 0
M  V30 42536 H 3887.29 -3.05013 3.69464 0
M  V30 42537 H 3885.65 -1.69496 1.90113 0
M  V30 42538 H 3886.44 -0.829796 3.33121 0
M  V30 42539 N 3888.88 -1.34844 -0.815777 0
M  V30 42540 C 3890.13 -1.26941 -1.56745 0
M  V30 42541 C 3890.44 0.156853 -1.9497 0
M  V30 42542 O 3891.65 0.358085 -2.69128 0
M  V30 42543 C 3890.11 -2.22567 -2.82828 0
M  V30 42544 C 3889.71 -3.70489 -2.51877 0
M  V30 42545 C 3891.46 -2.23588 -3.60845 0
M  V30 42546 C 3889.36 -4.57964 -3.74196 0
M  V30 42547 H 3888.29 -0.471598 -0.588312 0
M  V30 42548 H 3890.95 -1.60052 -0.897523 0
M  V30 42549 H 3889.33 -1.82416 -3.51483 0
M  V30 42550 H 3890.5 -4.19221 -1.91287 0
M  V30 42551 H 3888.82 -3.71987 -1.87123 0
M  V30 42552 H 3891.41 -2.86162 -4.51681 0
M  V30 42553 H 3891.76 -1.2371 -3.97494 0
M  V30 42554 H 3892.29 -2.6222 -2.99141 0
M  V30 42555 H 3889.03 -5.58805 -3.42662 0
M  V30 42556 H 3888.55 -4.13964 -4.34044 0
M  V30 42557 H 3890.23 -4.72929 -4.41528 0
M  V30 42558 N 3890.36 1.03684 -1.1869 0
M  V30 42559 C 3891.27 2.15271 -0.932511 0
M  V30 42560 C 3892.29 1.73685 0.10472 0
M  V30 42561 O 3893.46 2.01249 -0.0780824 0
M  V30 42562 C 3890.53 3.43556 -0.465867 0
M  V30 42563 C 3889.59 3.99502 -1.57153 0
M  V30 42564 C 3888.82 5.21664 -1.12705 0
M  V30 42565 O 3889.04 5.70399 0.0126654 0
M  V30 42566 O 3887.98 5.70241 -1.92637 0
M  V30 42567 H 3891.8 2.39589 -1.8663 0
M  V30 42568 H 3889.39 1.13709 -0.969049 0
M  V30 42569 H 3891.27 4.20857 -0.213893 0
M  V30 42570 H 3889.95 3.20701 0.439583 0
M  V30 42571 H 3888.85 3.23571 -1.87756 0
M  V30 42572 H 3890.19 4.26705 -2.45324 0
M  V30 42573 N 3891.84 0.989551 1.22661 0
M  V30 42574 C 3892.8 0.542222 2.22694 0
M  V30 42575 C 3893.8 -0.373104 1.56412 0
M  V30 42576 O 3894.99 -0.165526 1.73412 0
M  V30 42577 C 3892.12 -0.211781 3.40242 0
M  V30 42578 H 3893.32 1.42683 2.63783 0
M  V30 42579 H 3890.87 0.776401 1.35653 0
M  V30 42580 H 3891.6 -1.11252 3.0462 0
M  V30 42581 H 3891.39 0.445387 3.89562 0
M  V30 42582 H 3892.88 -0.513034 4.14437 0
M  V30 42583 N 3893.32 -1.37936 0.762332 0
M  V30 42584 C 3894.73 -1.82603 0.388998 0
M  V30 42585 C 3895.08 -1.63563 -1.08359 0
M  V30 42586 O 3894.2 -1.14157 -1.8384 0
M  V30 42587 C 3894.8 -3.31505 0.699276 0
M  V30 42588 C 3893.36 -3.74486 0.379114 0
M  V30 42589 C 3892.5 -2.60593 0.947969 0
M  V30 42590 H 3895.45 -1.26541 0.957766 0
M  V30 42591 H 3895.48 -3.80495 -0.0194351 0
M  V30 42592 H 3894.99 -3.45331 1.77111 0
M  V30 42593 H 3893.09 -3.66235 -0.68578 0
M  V30 42594 H 3893.2 -4.70934 0.88078 0
M  V30 42595 H 3891.57 -2.51957 0.37279 0
M  V30 42596 H 3892.35 -2.77215 2.02501 0
M  V30 42597 N 3894.79 -0.512106 -1.49048 0
M  V30 42598 C 3895.7 0.264654 -2.33102 0
M  V30 42599 C 3896.72 0.956545 -1.45349 0
M  V30 42600 O 3897.9 0.93547 -1.78356 0
M  V30 42601 C 3894.96 1.30865 -3.21053 0
M  V30 42602 C 3894.02 0.629019 -4.24667 0
M  V30 42603 C 3893.25 1.62328 -5.08415 0
M  V30 42604 O 3893.48 2.85424 -4.93852 0
M  V30 42605 O 3892.41 1.17249 -5.9037 0
M  V30 42606 H 3896.24 -0.423638 -3.00731 0
M  V30 42607 H 3893.82 -0.273272 -1.46879 0
M  V30 42608 H 3895.7 1.91241 -3.75506 0
M  V30 42609 H 3894.38 1.97967 -2.56107 0
M  V30 42610 H 3893.29 -0.0147714 -3.74097 0
M  V30 42611 H 3894.62 0.000253343 -4.922 0
M  V30 42612 N 3896.27 1.55662 -0.246424 0
M  V30 42613 C 3897.18 2.25005 0.664086 0
M  V30 42614 C 3898.2 1.26601 1.19366 0
M  V30 42615 O 3899.37 1.59475 1.23003 0
M  V30 42616 C 3896.44 2.9356 1.84454 0
M  V30 42617 C 3895.5 4.07372 1.35449 0
M  V30 42618 C 3894.73 4.72649 2.47868 0
M  V30 42619 O 3894.96 4.37002 3.66586 0
M  V30 42620 O 3893.89 5.61169 2.17654 0
M  V30 42621 H 3897.72 3.03525 0.103223 0
M  V30 42622 H 3895.3 1.49393 -0.014947 0
M  V30 42623 H 3897.18 3.36742 2.53343 0
M  V30 42624 H 3895.86 2.1798 2.39304 0
M  V30 42625 H 3894.76 3.68708 0.632893 0
M  V30 42626 H 3896.1 4.84768 0.852089 0
M  V30 42627 N 3897.75 -0.0266943 1.57577 0
M  V30 42628 C 3899.16 -0.572991 1.7769 0
M  V30 42629 C 3899.51 -1.75468 0.877801 0
M  V30 42630 O 3898.64 -2.16276 0.0732537 0
M  V30 42631 C 3899.23 -1.04624 3.22241 0
M  V30 42632 C 3897.79 -1.53804 3.43542 0
M  V30 42633 C 3896.94 -0.477172 2.73164 0
M  V30 42634 H 3899.89 0.19953 1.57441 0
M  V30 42635 H 3899.91 -1.9135 3.28885 0
M  V30 42636 H 3899.42 -0.185979 3.87654 0
M  V30 42637 H 3897.52 -2.42007 2.83308 0
M  V30 42638 H 3897.64 -1.5839 4.52161 0
M  V30 42639 H 3896 -0.932751 2.37006 0
M  V30 42640 H 3896.78 0.373665 3.4126 0
M  V30 42641 N 3899.23 -1.54738 -0.299007 0
M  V30 42642 C 3900.64 -1.45996 -0.64478 0
M  V30 42643 C 3900.84 -0.652782 -1.90633 0
M  V30 42644 O 3899.9 -0.161273 -2.51984 0
M  V30 42645 C 3901.21 -2.89975 -0.795923 0
M  V30 42646 C 3902.76 -3.0003 -0.891678 0
M  V30 42647 C 3903.24 -4.4521 -1.0748 0
M  V30 42648 N 3904.73 -4.48928 -1.14096 0
M  V30 42649 C 3905.46 -5.58446 -1.30098 0
M  V30 42650 N 3904.96 -6.77884 -1.42986 0
M  V30 42651 N 3906.75 -5.46138 -1.33002 0
M  V30 42652 H 3898.9 -2.05685 0.529843 0
M  V30 42653 H 3901.16 -0.931628 0.175423 0
M  V30 42654 H 3900.87 -3.51648 0.0601993 0
M  V30 42655 H 3900.74 -3.37507 -1.68431 0
M  V30 42656 H 3903.13 -2.38469 -1.73829 0
M  V30 42657 H 3903.21 -2.55792 0.0207644 0
M  V30 42658 H 3902.86 -5.07365 -0.232955 0
M  V30 42659 H 3902.79 -4.87081 -2.0015 0
M  V30 42660 H 3905.28 -3.6288 -1.05481 0
M  V30 42661 H 3905.59 -7.57105 -1.54957 0
M  V30 42662 H 3903.94 -6.80745 -1.40038 0
M  V30 42663 H 3907.13 -4.51774 -1.22547 0
M  V30 42664 H 3907.3 -6.31539 -1.4513 0
M  V30 42665 N 3900.71 0.562296 -1.47228 0
M  V30 42666 C 3902.12 0.887722 -1.32634 0
M  V30 42667 C 3902.32 1.99054 -0.313007 0
M  V30 42668 O 3901.38 2.50973 0.277265 0
M  V30 42669 C 3902.69 1.28577 -2.71824 0
M  V30 42670 C 3904.24 1.39748 -2.80071 0
M  V30 42671 C 3904.71 1.8291 -4.1989 0
M  V30 42672 N 3906.2 1.90069 -4.22407 0
M  V30 42673 C 3906.94 2.24784 -5.27503 0
M  V30 42674 N 3906.44 2.58148 -6.42909 0
M  V30 42675 N 3908.23 2.25514 -5.14878 0
M  V30 42676 H 3900.38 -0.165872 -2.11751 0
M  V30 42677 H 3902.64 -0.0115405 -0.94793 0
M  V30 42678 H 3902.35 0.5493 -3.47384 0
M  V30 42679 H 3902.22 2.24301 -3.03264 0
M  V30 42680 H 3904.61 2.12477 -2.04787 0
M  V30 42681 H 3904.69 0.422242 -2.52291 0
M  V30 42682 H 3904.33 1.10753 -4.95678 0
M  V30 42683 H 3904.26 2.81428 -4.45091 0
M  V30 42684 H 3906.76 1.66692 -3.39149 0
M  V30 42685 H 3907.07 2.83649 -7.18862 0
M  V30 42686 H 3905.41 2.5574 -6.46237 0
M  V30 42687 H 3908.6 1.98885 -4.23748 0
M  V30 42688 H 3908.78 2.52239 -5.96891 0
M  V30 42689 N 3902.18 1.35274 0.808615 0
M  V30 42690 C 3903.13 1.28059 1.94175 0
M  V30 42691 C 3904.13 0.175903 1.68484 0
M  V30 42692 O 3905.33 0.34176 1.76726 0
M  V30 42693 H 3901.71 0.398194 0.637923 0
M  V30 42694 H 3903.68 2.23793 1.97381 0
M  V30 42695 C 3902.43 1.0674 3.30911 0
M  V30 42696 H 3901.75 1.90982 3.51235 0
M  V30 42697 H 3903.19 1.05732 4.10605 0
M  V30 42698 C 3901.65 -0.228826 3.36122 0
M  V30 42699 O 3902.18 -1.22532 3.82556 0
M  V30 42700 N 3900.38 -0.266898 2.89372 0
M  V30 42701 H 3899.93 0.544615 2.51777 0
M  V30 42702 H 3899.89 -1.13391 2.9324 0
M  V30 42703 N 3903.66 -1.03053 1.19239 0
M  V30 42704 C 3904.59 -2.13198 0.952297 0
M  V30 42705 C 3905.57 -1.69719 -0.113741 0
M  V30 42706 O 3906.76 -1.94157 0.0409398 0
M  V30 42707 C 3903.89 -3.43849 0.488357 0
M  V30 42708 C 3902.84 -4.01002 1.49604 0
M  V30 42709 C 3902.17 -5.27254 0.889241 0
M  V30 42710 C 3903.47 -4.36 2.87578 0
M  V30 42711 H 3905.16 -2.33541 1.87347 0
M  V30 42712 H 3902.71 -1.12234 0.902192 0
M  V30 42713 H 3904.66 -4.20275 0.307697 0
M  V30 42714 H 3903.39 -3.23224 -0.468413 0
M  V30 42715 H 3902.04 -3.26669 1.66382 0
M  V30 42716 H 3901.69 -5.02944 -0.0750307 0
M  V30 42717 H 3901.39 -5.66455 1.56212 0
M  V30 42718 H 3902.92 -6.06348 0.719339 0
M  V30 42719 H 3904.33 -5.0337 2.74393 0
M  V30 42720 H 3902.73 -4.86278 3.51644 0
M  V30 42721 H 3903.8 -3.45375 3.40359 0
M  V30 42722 N 3905.14 -0.996042 -1.22134 0
M  V30 42723 C 3906.07 -0.507201 -2.23518 0
M  V30 42724 C 3907.09 0.399398 -1.57825 0
M  V30 42725 O 3908.27 0.201029 -1.77364 0
M  V30 42726 C 3905.37 0.283871 -3.37709 0
M  V30 42727 C 3904.55 -0.619625 -4.32989 0
M  V30 42728 C 3903.61 0.120283 -5.26063 0
M  V30 42729 O 3902.63 -0.495369 -5.6704 0
M  V30 42730 N 3903.83 1.40162 -5.63325 0
M  V30 42731 H 3906.6 -1.379 -2.66089 0
M  V30 42732 H 3904.16 -0.871126 -1.36466 0
M  V30 42733 H 3906.15 0.787591 -3.96962 0
M  V30 42734 H 3904.72 1.05679 -2.94195 0
M  V30 42735 H 3903.94 -1.30397 -3.72008 0
M  V30 42736 H 3905.23 -1.23481 -4.93589 0
M  V30 42737 H 3904.63 1.92308 -5.32009 0
M  V30 42738 H 3903.19 1.85047 -6.24981 0
M  V30 42739 N 3906.62 1.37529 -0.769636 0
M  V30 42740 C 3907.84 2.04542 -0.343105 0
M  V30 42741 C 3908.27 1.57667 1.0258 0
M  V30 42742 O 3907.63 0.735944 1.65691 0
M  V30 42743 C 3907.67 3.58452 -0.392977 0
M  V30 42744 O 3906.78 4.07904 0.607329 0
M  V30 42745 H 3906.12 0.647086 -0.148916 0
M  V30 42746 H 3908.65 1.75886 -1.04524 0
M  V30 42747 H 3908.66 4.07236 -0.249522 0
M  V30 42748 H 3907.33 3.91926 -1.39166 0
M  V30 42749 H 3905.91 3.70445 0.427166 0
M  V30 42750 N 3908.1 0.520003 1.48774 0
M  V30 42751 C 3909.04 -0.248202 2.29462 0
M  V30 42752 C 3910.01 -0.943003 1.36736 0
M  V30 42753 O 3911.2 -0.945974 1.65698 0
M  V30 42754 C 3908.34 -1.29525 3.19871 0
M  V30 42755 C 3907.45 -0.610304 4.27667 0
M  V30 42756 C 3906.59 -1.63942 5.05269 0
M  V30 42757 C 3905.63 -0.937389 6.0488 0
M  V30 42758 N 3904.76 -1.91159 6.75576 0
M  V30 42759 H 3909.6 0.446068 2.94643 0
M  V30 42760 H 3907.14 0.231818 1.45262 0
M  V30 42761 H 3909.1 -1.9145 3.70679 0
M  V30 42762 H 3907.73 -1.95803 2.56634 0
M  V30 42763 H 3906.78 0.122665 3.80202 0
M  V30 42764 H 3908.09 -0.0585987 4.98766 0
M  V30 42765 H 3907.25 -2.33322 5.60041 0
M  V30 42766 H 3905.98 -2.22501 4.33987 0
M  V30 42767 H 3904.99 -0.229465 5.49321 0
M  V30 42768 H 3906.21 -0.358047 6.78155 0
M  V30 42769 H 3904.16 -2.48644 6.07052 0
M  V30 42770 H 3904.08 -1.41105 7.42715 0
M  V30 42771 H 3905.35 -2.59768 7.34943 0
M  V30 42772 N 3909.57 -1.55529 0.254676 0
M  V30 42773 C 3910.8 -2.03532 -0.37182 0
M  V30 42774 C 3911.22 -1.13371 -1.50972 0
M  V30 42775 O 3910.57 -0.149672 -1.81885 0
M  V30 42776 C 3910.63 -3.50819 -0.872253 0
M  V30 42777 O 3910.35 -4.37546 0.220307 0
M  V30 42778 C 3911.85 -4.14618 -1.56865 0
M  V30 42779 H 3909.07 -0.665278 -0.0874448 0
M  V30 42780 H 3911.61 -2.00923 0.380809 0
M  V30 42781 H 3909.77 -3.53937 -1.57504 0
M  V30 42782 H 3910.18 -5.24253 -0.160954 0
M  V30 42783 H 3911.65 -5.19344 -1.87044 0
M  V30 42784 H 3912.13 -3.61569 -2.49328 0
M  V30 42785 H 3912.74 -4.15445 -0.910241 0
M  V30 42786 N 3911.05 0.0183372 -1.57589 0
M  V30 42787 C 3911.96 1.03232 -2.10666 0
M  V30 42788 C 3912.98 1.38922 -1.0477 0
M  V30 42789 O 3914.15 1.48025 -1.36567 0
M  V30 42790 C 3911.22 2.3111 -2.58436 0
M  V30 42791 C 3910.28 2.01902 -3.78859 0
M  V30 42792 C 3909.51 3.23682 -4.24341 0
M  V30 42793 O 3909.74 4.34733 -3.69274 0
M  V30 42794 O 3908.67 3.08754 -5.16677 0
M  V30 42795 H 3912.5 0.611201 -2.97486 0
M  V30 42796 H 3910.08 0.236009 -1.47524 0
M  V30 42797 H 3911.96 3.06269 -2.89443 0
M  V30 42798 H 3910.64 2.72495 -1.74723 0
M  V30 42799 H 3909.55 1.24276 -3.52854 0
M  V30 42800 H 3910.88 1.65365 -4.6359 0
M  V30 42801 N 3912.53 1.54894 0.290797 0
M  V30 42802 C 3913.46 1.89554 1.36351 0
M  V30 42803 C 3914.44 0.755487 1.52402 0
M  V30 42804 O 3915.63 1.01211 1.65741 0
M  V30 42805 C 3912.76 2.15183 2.72605 0
M  V30 42806 C 3911.71 3.31023 2.71307 0
M  V30 42807 C 3911.04 3.42092 4.10946 0
M  V30 42808 C 3912.34 4.67874 2.32145 0
M  V30 42809 H 3914.03 2.794 1.07592 0
M  V30 42810 H 3911.58 1.34432 0.516131 0
M  V30 42811 H 3913.53 2.38016 3.47745 0
M  V30 42812 H 3912.25 1.22118 3.02911 0
M  V30 42813 H 3910.91 3.0813 1.98625 0
M  V30 42814 H 3910.56 2.46526 4.38445 0
M  V30 42815 H 3910.26 4.19967 4.10976 0
M  V30 42816 H 3911.78 3.67198 4.87851 0
M  V30 42817 H 3913.2 4.90369 2.97003 0
M  V30 42818 H 3911.6 5.48535 2.4337 0
M  V30 42819 H 3912.67 4.679 1.27271 0
M  V30 42820 N 3914.01 -0.55448 1.47524 0
M  V30 42821 C 3915.24 -1.33687 1.57909 0
M  V30 42822 C 3915.65 -1.8739 0.230277 0
M  V30 42823 O 3915.01 -1.65138 -0.776888 0
M  V30 42824 C 3915.06 -2.50488 2.60649 0
M  V30 42825 O 3914.78 -1.99004 3.90293 0
M  V30 42826 C 3916.28 -3.42661 2.81244 0
M  V30 42827 H 3913.5 -0.407426 0.533146 0
M  V30 42828 H 3916.05 -0.671411 1.93164 0
M  V30 42829 H 3914.2 -3.12967 2.2832 0
M  V30 42830 H 3914.61 -2.75277 4.46456 0
M  V30 42831 H 3916.09 -4.21027 3.56988 0
M  V30 42832 H 3916.57 -3.96375 1.89165 0
M  V30 42833 H 3917.17 -2.85996 3.1478 0
M  V30 42834 N 3915.49 -1.35701 -0.80143 0
M  V30 42835 C 3916.9 -1.2621 -1.37578 0
M  V30 42836 C 3917.25 0.103291 -1.95928 0
M  V30 42837 O 3916.37 1.00441 -1.91678 0
M  V30 42838 C 3916.97 -2.28531 -2.50118 0
M  V30 42839 C 3915.53 -2.22766 -3.03401 0
M  V30 42840 C 3914.67 -2.13961 -1.76398 0
M  V30 42841 H 3917.63 -1.46755 -0.604044 0
M  V30 42842 H 3917.65 -1.91478 -3.28811 0
M  V30 42843 H 3917.16 -3.27896 -2.0762 0
M  V30 42844 H 3915.26 -1.26829 -3.5035 0
M  V30 42845 H 3915.37 -3.14948 -3.61032 0
M  V30 42846 H 3913.74 -1.60021 -1.98155 0
M  V30 42847 H 3914.52 -3.15193 -1.36044 0
M  V30 42848 N 3916.96 1.02419 -1.19783 0
M  V30 42849 C 3917.87 2.14269 -0.955291 0
M  V30 42850 C 3918.89 1.73786 0.0862928 0
M  V30 42851 O 3920.07 2.01154 -0.0994231 0
M  V30 42852 C 3917.13 3.43042 -0.50228 0
M  V30 42853 C 3916.19 3.97812 -1.61381 0
M  V30 42854 C 3915.43 5.20439 -1.18232 0
M  V30 42855 O 3915.65 5.7038 -0.0478337 0
M  V30 42856 O 3914.58 5.68166 -1.98674 0
M  V30 42857 H 3918.41 2.37596 -1.89161 0
M  V30 42858 H 3915.99 1.12675 -0.981055 0
M  V30 42859 H 3917.88 4.20606 -0.258519 0
M  V30 42860 H 3916.55 3.2115 0.405544 0
M  V30 42861 H 3915.46 3.21562 -1.91177 0
M  V30 42862 H 3916.79 4.24079 -2.49836 0
M  V30 42863 N 3918.44 1.0025 1.21604 0
M  V30 42864 C 3919.35 0.570044 2.27569 0
M  V30 42865 C 3920.37 -0.385758 1.6967 0
M  V30 42866 O 3921.55 -0.250211 1.9984 0
M  V30 42867 C 3918.61 -0.0989957 3.46559 0
M  V30 42868 C 3917.67 0.900974 4.19739 0
M  V30 42869 C 3916.9 0.263767 5.33048 0
M  V30 42870 O 3917.13 -0.940032 5.62601 0
M  V30 42871 O 3916.06 0.973447 5.93976 0
M  V30 42872 H 3919.89 1.45186 2.66748 0
M  V30 42873 H 3917.47 0.771247 1.27954 0
M  V30 42874 H 3919.35 -0.473317 4.18733 0
M  V30 42875 H 3918.03 -0.955231 3.09285 0
M  V30 42876 H 3916.94 1.32641 3.49796 0
M  V30 42877 H 3918.27 1.72672 4.60918 0
M  V30 42878 N 3919.92 -1.37119 0.776919 0
M  V30 42879 C 3921.34 -1.52913 0.457142 0
M  V30 42880 C 3921.54 -1.73395 -1.02647 0
M  V30 42881 O 3920.59 -1.75828 -1.81221 0
M  V30 42882 C 3921.91 -2.72251 1.27671 0
M  V30 42883 C 3923.45 -2.86115 1.26914 0
M  V30 42884 C 3923.93 -4.08442 2.07217 0
M  V30 42885 N 3925.42 -4.15565 2.04598 0
M  V30 42886 C 3926.16 -5.09264 2.63511 0
M  V30 42887 N 3925.65 -6.08487 3.31233 0
M  V30 42888 N 3927.44 -5.01786 2.53313 0
M  V30 42889 H 3919.6 -1.22077 1.73813 0
M  V30 42890 H 3921.86 -0.59484 0.738153 0
M  V30 42891 H 3921.56 -2.63597 2.32829 0
M  V30 42892 H 3921.44 -3.66073 0.909428 0
M  V30 42893 H 3923.83 -2.94237 0.225528 0
M  V30 42894 H 3923.91 -1.93237 1.6761 0
M  V30 42895 H 3923.55 -4.01082 3.11602 0
M  V30 42896 H 3923.48 -5.00444 1.639 0
M  V30 42897 H 3925.97 -3.44515 1.55299 0
M  V30 42898 H 3926.28 -6.76522 3.73547 0
M  V30 42899 H 3924.63 -6.0875 3.35333 0
M  V30 42900 H 3927.82 -4.23215 2.00017 0
M  V30 42901 H 3927.99 -5.74623 2.9952 0
M  V30 42902 N 3921.4 -0.527886 -1.48496 0
M  V30 42903 C 3922.36 0.225272 -2.2809 0
M  V30 42904 C 3923.36 0.869684 -1.35252 0
M  V30 42905 O 3924.55 0.730058 -1.58164 0
M  V30 42906 C 3921.68 1.32578 -3.14063 0
M  V30 42907 H 3922.88 -0.473517 -2.96138 0
M  V30 42908 H 3920.43 -0.283751 -1.53703 0
M  V30 42909 H 3921.17 2.05789 -2.50642 0
M  V30 42910 H 3920.95 0.868855 -3.82352 0
M  V30 42911 H 3922.44 1.85559 -3.74109 0
M  V30 42912 N 3922.88 1.55391 -0.26292 0
M  V30 42913 C 3923.81 2.19406 0.662841 0
M  V30 42914 C 3924.82 1.1751 1.12673 0
M  V30 42915 O 3926.01 1.44297 1.05074 0
M  V30 42916 C 3923.11 2.79632 1.91466 0
M  V30 42917 C 3922.28 4.07102 1.59959 0
M  V30 42918 C 3921.34 4.51492 2.70262 0
M  V30 42919 O 3920.37 5.17528 2.36966 0
M  V30 42920 N 3921.57 4.20612 4.00082 0
M  V30 42921 H 3924.34 2.99479 0.115022 0
M  V30 42922 H 3921.9 1.61684 -0.0835218 0
M  V30 42923 H 3923.89 3.06278 2.64529 0
M  V30 42924 H 3922.46 2.03623 2.37185 0
M  V30 42925 H 3921.68 3.87874 0.703363 0
M  V30 42926 H 3922.97 4.90178 1.36394 0
M  V30 42927 H 3922.37 3.67629 4.2996 0
M  V30 42928 H 3920.92 4.52057 4.69561 0
M  V30 42929 N 3924.36 -0.00997961 1.57597 0
M  V30 42930 C 3925.3 -1.00459 2.0779 0
M  V30 42931 C 3926.27 -1.34753 0.971124 0
M  V30 42932 O 3927.46 -1.44762 1.24292 0
M  V30 42933 C 3924.6 -2.2945 2.57773 0
M  V30 42934 C 3923.71 -2.01147 3.82314 0
M  V30 42935 C 3922.85 -3.24146 4.20836 0
M  V30 42936 C 3921.88 -2.91484 5.38241 0
M  V30 42937 N 3921.02 -4.06991 5.72104 0
M  V30 42938 H 3925.86 -0.569623 2.92505 0
M  V30 42939 H 3923.4 -0.26962 1.44608 0
M  V30 42940 H 3925.36 -3.04844 2.84826 0
M  V30 42941 H 3923.99 -2.70634 1.75946 0
M  V30 42942 H 3923.04 -1.16165 3.62229 0
M  V30 42943 H 3924.35 -1.73066 4.67814 0
M  V30 42944 H 3923.5 -4.07894 4.49119 0
M  V30 42945 H 3922.24 -3.55357 3.34025 0
M  V30 42946 H 3921.25 -2.06142 5.09692 0
M  V30 42947 H 3922.47 -2.61532 6.2672 0
M  V30 42948 H 3920.42 -4.38117 4.88251 0
M  V30 42949 H 3920.34 -3.824 6.52155 0
M  V30 42950 H 3921.6 -4.91556 6.04973 0
M  V30 42951 N 3925.83 -1.55046 -0.282578 0
M  V30 42952 C 3927.08 -1.74407 -1.01317 0
M  V30 42953 C 3927.4 -0.547166 -1.87791 0
M  V30 42954 O 3928.6 -0.622977 -2.64256 0
M  V30 42955 C 3927.06 -3.08638 -1.85123 0
M  V30 42956 C 3926.67 -4.35866 -1.03562 0
M  V30 42957 C 3928.41 -3.37352 -2.5767 0
M  V30 42958 C 3926.32 -5.6114 -1.86751 0
M  V30 42959 H 3925.25 -0.65007 -0.382002 0
M  V30 42960 H 3927.9 -1.81514 -0.269275 0
M  V30 42961 H 3926.28 -2.95544 -2.63571 0
M  V30 42962 H 3927.45 -4.59848 -0.29598 0
M  V30 42963 H 3925.77 -4.14224 -0.425135 0
M  V30 42964 H 3928.37 -4.28153 -3.20296 0
M  V30 42965 H 3928.71 -2.57052 -3.2746 0
M  V30 42966 H 3929.24 -3.51501 -1.86258 0
M  V30 42967 H 3925.98 -6.4416 -1.21399 0
M  V30 42968 H 3925.5 -5.41315 -2.58338 0
M  V30 42969 H 3927.18 -5.99084 -2.44351 0
M  V30 42970 N 3927.31 0.546649 -1.47816 0
M  V30 42971 C 3928.27 1.63492 -1.60633 0
M  V30 42972 C 3929.27 1.53447 -0.480688 0
M  V30 42973 O 3930.46 1.57416 -0.746045 0
M  V30 42974 C 3927.6 3.0307 -1.56081 0
M  V30 42975 H 3928.79 1.53474 -2.57655 0
M  V30 42976 H 3926.34 0.767409 -1.36164 0
M  V30 42977 H 3927.08 3.18611 -0.60475 0
M  V30 42978 H 3926.86 3.1177 -2.37785 0
M  V30 42979 H 3928.35 3.82224 -1.6821 0
M  V30 42980 N 3928.79 1.36124 0.794222 0
M  V30 42981 C 3929.74 1.30059 1.90665 0
M  V30 42982 C 3930.71 0.170174 1.65226 0
M  V30 42983 O 3931.89 0.355907 1.87451 0
M  V30 42984 C 3929.03 1.09092 3.27403 0
M  V30 42985 C 3928.14 2.31166 3.64947 0
M  V30 42986 C 3927.28 2.03249 4.90778 0
M  V30 42987 C 3926.32 3.2131 5.20986 0
M  V30 42988 N 3925.46 2.93089 6.37999 0
M  V30 42989 H 3930.3 2.25181 1.95186 0
M  V30 42990 H 3927.83 1.11922 0.95456 0
M  V30 42991 H 3929.79 0.949631 4.06248 0
M  V30 42992 H 3928.42 0.176268 3.22318 0
M  V30 42993 H 3927.47 2.56115 2.81264 0
M  V30 42994 H 3928.78 3.19284 3.83222 0
M  V30 42995 H 3927.94 1.86022 5.77478 0
M  V30 42996 H 3926.68 1.12435 4.74563 0
M  V30 42997 H 3925.68 3.391 4.32771 0
M  V30 42998 H 3926.91 4.12943 5.39124 0
M  V30 42999 H 3924.85 2.04881 6.23185 0
M  V30 43000 H 3924.77 3.74744 6.56584 0
M  V30 43001 H 3926.04 2.79431 7.27694 0
M  V30 43002 N 3930.27 -1.01782 1.20325 0
M  V30 43003 C 3931.23 -2.0846 0.952737 0
M  V30 43004 C 3932.23 -1.60642 -0.0712282 0
M  V30 43005 O 3933.42 -1.7342 0.164702 0
M  V30 43006 C 3930.55 -3.38125 0.434111 0
M  V30 43007 H 3931.75 -2.32117 1.89899 0
M  V30 43008 H 3929.3 -1.18564 1.01845 0
M  V30 43009 H 3930.03 -3.20142 -0.517663 0
M  V30 43010 H 3929.82 -3.74157 1.17255 0
M  V30 43011 H 3931.31 -4.16672 0.278288 0
M  V30 43012 N 3931.75 -1.00894 -1.21071 0
M  V30 43013 C 3932.68 -0.517457 -2.22256 0
M  V30 43014 C 3933.66 0.430969 -1.56785 0
M  V30 43015 O 3934.84 0.352767 -1.8517 0
M  V30 43016 C 3931.97 0.247891 -3.37792 0
M  V30 43017 C 3931.01 -0.64893 -4.21534 0
M  V30 43018 S 3931.85 -2.11364 -4.92022 0
M  V30 43019 C 3933 -1.35824 -6.10985 0
M  V30 43020 H 3933.24 -1.37484 -2.63601 0
M  V30 43021 H 3930.77 -0.8172 -1.31001 0
M  V30 43022 H 3932.73 0.683382 -4.04772 0
M  V30 43023 H 3931.39 1.08074 -2.94922 0
M  V30 43024 H 3930.58 -0.0591969 -5.03965 0
M  V30 43025 H 3930.18 -1.02187 -3.59769 0
M  V30 43026 H 3932.47 -0.634197 -6.74525 0
M  V30 43027 H 3933.42 -2.15841 -6.74402 0
M  V30 43028 H 3933.83 -0.864479 -5.57841 0
M  V30 43029 N 3933.22 1.36705 -0.78418 0
M  V30 43030 C 3934.64 1.52668 -0.465245 0
M  V30 43031 C 3934.84 1.73937 1.01726 0
M  V30 43032 O 3933.9 1.76786 1.80286 0
M  V30 43033 C 3935.21 2.7157 -1.29113 0
M  V30 43034 C 3936.76 2.85438 -1.28429 0
M  V30 43035 C 3937.23 4.07338 -2.0938 0
M  V30 43036 N 3938.72 4.14474 -2.06799 0
M  V30 43037 C 3939.46 5.07859 -2.66208 0
M  V30 43038 N 3938.95 6.06722 -3.34455 0
M  V30 43039 N 3940.75 5.00435 -2.55971 0
M  V30 43040 H 3932.9 1.21153 -1.74458 0
M  V30 43041 H 3935.16 0.590917 -0.741297 0
M  V30 43042 H 3934.87 2.62359 -2.34224 0
M  V30 43043 H 3934.74 3.65585 -0.928829 0
M  V30 43044 H 3937.13 2.94113 -0.241129 0
M  V30 43045 H 3937.21 1.92345 -1.68633 0
M  V30 43046 H 3936.85 3.99424 -3.13725 0
M  V30 43047 H 3936.78 4.99568 -1.66551 0
M  V30 43048 H 3939.27 3.43687 -1.57124 0
M  V30 43049 H 3939.59 6.74532 -3.7713 0
M  V30 43050 H 3937.93 6.06963 -3.38556 0
M  V30 43051 H 3941.12 4.22148 -2.02258 0
M  V30 43052 H 3941.3 5.73027 -3.02563 0
M  V30 43053 N 3934.7 0.535753 1.48214 0
M  V30 43054 C 3935.65 -0.223851 2.29712 0
M  V30 43055 C 3936.62 -0.928447 1.37728 0
M  V30 43056 O 3937.8 -0.928346 1.66692 0
M  V30 43057 C 3934.94 -1.26125 3.21227 0
M  V30 43058 C 3934.06 -0.56491 4.28291 0
M  V30 43059 C 3933.19 -1.58574 5.06979 0
M  V30 43060 C 3932.23 -0.873181 6.0584 0
M  V30 43061 N 3931.37 -1.83982 6.77565 0
M  V30 43062 H 3936.21 0.477293 2.94153 0
M  V30 43063 H 3933.75 0.247212 1.45008 0
M  V30 43064 H 3935.7 -1.87508 3.72689 0
M  V30 43065 H 3934.33 -1.9307 2.58696 0
M  V30 43066 H 3933.39 0.162983 3.80051 0
M  V30 43067 H 3934.7 -0.00569464 4.988 0
M  V30 43068 H 3933.85 -2.27369 5.62484 0
M  V30 43069 H 3932.59 -2.17885 4.36322 0
M  V30 43070 H 3931.6 -0.171189 5.49533 0
M  V30 43071 H 3932.82 -0.286099 6.78497 0
M  V30 43072 H 3930.77 -2.42191 6.09655 0
M  V30 43073 H 3930.68 -1.3322 7.4417 0
M  V30 43074 H 3931.95 -2.51958 7.37657 0
M  V30 43075 N 3936.18 -1.5525 0.271158 0
M  V30 43076 C 3937.11 -2.19755 -0.651196 0
M  V30 43077 C 3938.13 -1.18106 -1.12048 0
M  V30 43078 O 3939.31 -1.44852 -1.04307 0
M  V30 43079 C 3936.41 -2.80643 -1.8998 0
M  V30 43080 C 3935.59 -4.07944 -1.57798 0
M  V30 43081 C 3934.65 -4.52919 -2.67864 0
M  V30 43082 O 3933.67 -5.18778 -2.34219 0
M  V30 43083 N 3934.87 -4.22728 -3.97846 0
M  V30 43084 H 3937.64 -2.99536 -0.0991387 0
M  V30 43085 H 3935.2 -1.61638 0.0920951 0
M  V30 43086 H 3937.19 -3.07677 -2.62901 0
M  V30 43087 H 3935.76 -2.04878 -2.36101 0
M  V30 43088 H 3934.98 -3.88242 -0.682783 0
M  V30 43089 H 3936.27 -4.90894 -1.33792 0
M  V30 43090 H 3935.67 -3.69904 -4.28004 0
M  V30 43091 H 3934.23 -4.54541 -4.67157 0
M  V30 43092 N 3937.66 0.00162173 -1.576 0
M  V30 43093 C 3938.88 0.701477 -1.95177 0
M  V30 43094 C 3939.31 1.66603 -0.87322 0
M  V30 43095 O 3938.67 1.80513 0.168786 0
M  V30 43096 C 3938.71 1.41098 -3.31849 0
M  V30 43097 O 3937.82 2.52533 -3.26038 0
M  V30 43098 H 3937.16 0.186707 -0.63721 0
M  V30 43099 H 3939.69 -0.0510853 -2.04536 0
M  V30 43100 H 3939.7 1.77477 -3.67377 0
M  V30 43101 H 3938.37 0.703748 -4.09903 0
M  V30 43102 H 3936.95 2.18494 -3.02183 0
M  V30 43103 N 3939.14 1.55194 0.274352 0
M  V30 43104 C 3940.36 1.80091 1.02868 0
M  V30 43105 C 3940.79 0.571708 1.79201 0
M  V30 43106 O 3940.14 -0.478648 1.74868 0
M  V30 43107 C 3940.19 3.02422 1.96401 0
M  V30 43108 O 3939.3 2.77413 3.05149 0
M  V30 43109 H 3938.64 0.595281 0.29417 0
M  V30 43110 H 3941.17 2.02334 0.303672 0
M  V30 43111 H 3941.18 3.31118 2.3838 0
M  V30 43112 H 3939.85 3.91538 1.40254 0
M  V30 43113 H 3938.43 2.59809 2.67495 0
M  V30 43114 N 3940.61 -0.538802 1.48104 0
M  V30 43115 C 3941.52 -1.6713 1.64635 0
M  V30 43116 C 3942.54 -1.65765 0.528946 0
M  V30 43117 O 3943.72 -1.84878 0.798882 0
M  V30 43118 C 3940.78 -3.03611 1.67396 0
M  V30 43119 C 3939.84 -3.15899 2.907 0
M  V30 43120 C 3939.08 -4.45869 2.93319 0
M  V30 43121 O 3939.3 -5.3244 2.04605 0
M  V30 43122 O 3938.23 -4.62338 3.85393 0
M  V30 43123 H 3942.06 -1.56121 2.60499 0
M  V30 43124 H 3939.64 -0.710902 1.31402 0
M  V30 43125 H 3941.53 -3.84796 1.71784 0
M  V30 43126 H 3940.2 -3.14962 0.747037 0
M  V30 43127 H 3939.11 -2.34042 2.91848 0
M  V30 43128 H 3940.44 -3.0946 3.82747 0
M  V30 43129 N 3942.09 -1.36544 -0.786992 0
M  V30 43130 C 3943.34 -1.31102 -1.54726 0
M  V30 43131 C 3943.67 0.108819 -1.93895 0
M  V30 43132 O 3942.95 1.06275 -1.62898 0
M  V30 43133 C 3943.23 -2.23599 -2.82268 0
M  V30 43134 C 3943.08 -3.74292 -2.49451 0
M  V30 43135 C 3944.4 -2.14822 -3.84109 0
M  V30 43136 H 3941.52 -0.477565 -0.561338 0
M  V30 43137 H 3944.16 -1.67116 -0.903998 0
M  V30 43138 H 3942.31 -1.93016 -3.3716 0
M  V30 43139 H 3943.98 -4.15404 -2.00591 0
M  V30 43140 H 3942.23 -3.93608 -1.82359 0
M  V30 43141 H 3942.9 -4.34426 -3.40556 0
M  V30 43142 H 3945.37 -2.41747 -3.3867 0
M  V30 43143 H 3944.25 -2.81708 -4.71096 0
M  V30 43144 H 3944.51 -1.13628 -4.27248 0
M  V30 43145 N 3943.57 1.01143 -1.20863 0
M  V30 43146 C 3944.52 2.0979 -0.962122 0
M  V30 43147 C 3945.49 1.65738 0.109559 0
M  V30 43148 O 3946.67 1.90766 -0.0362357 0
M  V30 43149 C 3943.81 3.41069 -0.52592 0
M  V30 43150 C 3942.93 3.98569 -1.66633 0
M  V30 43151 C 3942.06 5.1793 -1.17992 0
M  V30 43152 C 3941.1 5.67525 -2.29308 0
M  V30 43153 N 3940.24 6.78141 -1.81848 0
M  V30 43154 H 3945.08 2.30212 -1.89226 0
M  V30 43155 H 3942.61 1.12887 -0.943128 0
M  V30 43156 H 3944.57 4.16424 -0.254303 0
M  V30 43157 H 3943.2 3.20704 0.367219 0
M  V30 43158 H 3942.25 3.20261 -2.05274 0
M  V30 43159 H 3943.57 4.31375 -2.50433 0
M  V30 43160 H 3942.72 6.00508 -0.864583 0
M  V30 43161 H 3941.46 4.86702 -0.311879 0
M  V30 43162 H 3940.46 4.83547 -2.61653 0
M  V30 43163 H 3941.69 6.00785 -3.16598 0
M  V30 43164 H 3939.63 6.48732 -0.973779 0
M  V30 43165 H 3939.55 7.10168 -2.59226 0
M  V30 43166 H 3940.82 7.64271 -1.53329 0
M  V30 43167 N 3945.05 1.01535 1.20534 0
M  V30 43168 C 3945.96 0.594149 2.26952 0
M  V30 43169 C 3946.97 -0.367741 1.7007 0
M  V30 43170 O 3948.15 -0.229001 2.00094 0
M  V30 43171 C 3945.22 -0.062233 3.46644 0
M  V30 43172 C 3944.28 0.945442 4.1876 0
M  V30 43173 C 3943.51 0.320289 5.32738 0
M  V30 43174 O 3943.73 -0.880308 5.63566 0
M  V30 43175 O 3942.67 1.03639 5.9291 0
M  V30 43176 H 3946.49 1.48007 2.65193 0
M  V30 43177 H 3944.08 0.784774 1.27128 0
M  V30 43178 H 3945.96 -0.428878 4.19212 0
M  V30 43179 H 3944.63 -0.922373 3.1028 0
M  V30 43180 H 3943.54 1.36343 3.4837 0
M  V30 43181 H 3944.87 1.77551 4.59061 0
M  V30 43182 N 3946.53 -1.36288 0.791419 0
M  V30 43183 C 3947.47 -2.30022 0.189286 0
M  V30 43184 C 3948.44 -1.52075 -0.668018 0
M  V30 43185 O 3949.63 -1.80573 -0.616279 0
M  V30 43186 C 3946.77 -3.38567 -0.668332 0
M  V30 43187 C 3945.88 -4.315 0.207735 0
M  V30 43188 C 3945.02 -5.27128 -0.656446 0
M  V30 43189 C 3944.06 -6.11701 0.220952 0
M  V30 43190 N 3943.19 -6.99512 -0.602326 0
M  V30 43191 H 3948.03 -2.8093 0.994087 0
M  V30 43192 H 3945.57 -1.38277 0.501784 0
M  V30 43193 H 3947.53 -4.00148 -1.18057 0
M  V30 43194 H 3946.16 -2.88974 -1.43854 0
M  V30 43195 H 3945.21 -3.71056 0.837959 0
M  V30 43196 H 3946.52 -4.9091 0.8837 0
M  V30 43197 H 3945.68 -5.94009 -1.23442 0
M  V30 43198 H 3944.41 -4.68178 -1.36603 0
M  V30 43199 H 3943.42 -5.43781 0.811309 0
M  V30 43200 H 3944.64 -6.72727 0.928168 0
M  V30 43201 H 3942.59 -6.43067 -1.29616 0
M  V30 43202 H 3942.51 -7.55998 0.0159159 0
M  V30 43203 H 3943.78 -7.70759 -1.16406 0
M  V30 43204 N 3948.01 -0.543606 -1.47928 0
M  V30 43205 C 3949.25 -0.0227022 -2.03387 0
M  V30 43206 C 3949.61 1.30702 -1.41191 0
M  V30 43207 O 3948.9 1.83437 -0.553313 0
M  V30 43208 C 3949.09 0.142345 -3.57116 0
M  V30 43209 C 3948.92 -1.16983 -4.34218 0
M  V30 43210 C 3947.69 -1.73343 -4.74637 0
M  V30 43211 C 3949.89 -2.08377 -4.70195 0
M  V30 43212 N 3947.87 -2.98707 -5.36328 0
M  V30 43213 C 3949.24 -3.18318 -5.32046 0
M  V30 43214 C 3951.3 -2.08538 -4.52124 0
M  V30 43215 C 3950 -4.28501 -5.77736 0
M  V30 43216 C 3952.03 -3.17724 -4.98804 0
M  V30 43217 C 3951.39 -4.26384 -5.60693 0
M  V30 43218 H 3947.49 -0.05014 -0.780391 0
M  V30 43219 H 3950.07 -0.727895 -1.80582 0
M  V30 43220 H 3948.24 0.81664 -3.79718 0
M  V30 43221 H 3949.98 0.664084 -3.99214 0
M  V30 43222 H 3946.73 -1.2731 -4.56168 0
M  V30 43223 H 3947.15 -3.62569 -5.71728 0
M  V30 43224 H 3951.8 -1.25819 -4.03645 0
M  V30 43225 H 3949.51 -5.1199 -6.25214 0
M  V30 43226 H 3953.1 -3.18919 -4.86602 0
M  V30 43227 H 3951.98 -5.09478 -5.96156 0
M  V30 43228 N 3949.48 1.55104 -0.279387 0
M  V30 43229 C 3950.39 2.26363 0.61621 0
M  V30 43230 C 3951.41 1.29104 1.16654 0
M  V30 43231 O 3952.59 1.62048 1.19593 0
M  V30 43232 C 3949.65 2.97406 1.78186 0
M  V30 43233 C 3948.71 4.10154 1.26777 0
M  V30 43234 C 3947.94 4.778 2.37787 0
M  V30 43235 O 3948.17 4.44679 3.57234 0
M  V30 43236 O 3947.1 5.65659 2.05701 0
M  V30 43237 H 3950.93 3.03675 0.0388181 0
M  V30 43238 H 3948.51 1.49327 -0.046632 0
M  V30 43239 H 3950.39 3.4204 2.46144 0
M  V30 43240 H 3949.07 2.23007 2.34626 0
M  V30 43241 H 3947.98 3.69967 0.554543 0
M  V30 43242 H 3949.31 4.86467 0.749071 0
M  V30 43243 N 3950.96 0.0067362 1.57599 0
M  V30 43244 C 3952.19 -0.691116 1.95546 0
M  V30 43245 C 3952.61 -1.66137 0.882043 0
M  V30 43246 O 3951.97 -1.806 -0.159211 0
M  V30 43247 C 3952.02 -1.39336 3.32593 0
M  V30 43248 O 3951.12 -2.508 3.27373 0
M  V30 43249 H 3950.46 -0.183325 0.638191 0
M  V30 43250 H 3952.99 0.0619317 2.04506 0
M  V30 43251 H 3953 -1.75526 3.68313 0
M  V30 43252 H 3951.68 -0.682 4.1027 0
M  V30 43253 H 3950.25 -2.16888 3.03338 0
M  V30 43254 N 3952.44 -1.55337 -0.266118 0
M  V30 43255 C 3953.37 -1.91699 -1.33318 0
M  V30 43256 C 3954.35 -0.779637 -1.51181 0
M  V30 43257 O 3955.54 -1.03835 -1.6411 0
M  V30 43258 C 3952.67 -2.19492 -2.69147 0
M  V30 43259 C 3951.62 -3.35298 -2.66007 0
M  V30 43260 C 3950.95 -3.48587 -4.05452 0
M  V30 43261 C 3952.25 -4.71508 -2.24672 0
M  V30 43262 H 3953.94 -2.81076 -1.03133 0
M  V30 43263 H 3951.49 -1.35237 -0.494678 0
M  V30 43264 H 3953.44 -2.43518 -3.43914 0
M  V30 43265 H 3952.16 -1.26921 -3.00929 0
M  V30 43266 H 3950.82 -3.11251 -1.93697 0
M  V30 43267 H 3950.47 -2.5347 -4.34467 0
M  V30 43268 H 3950.17 -4.26452 -4.04243 0
M  V30 43269 H 3951.69 -3.74912 -4.81947 0
M  V30 43270 H 3953.11 -4.95032 -2.89164 0
M  V30 43271 H 3951.5 -5.52338 -2.34612 0
M  V30 43272 H 3952.57 -4.69865 -1.19811 0
M  V30 43273 N 3953.92 0.53094 -1.48387 0
M  V30 43274 C 3954.87 1.65655 -1.63282 0
M  V30 43275 C 3955.86 1.61875 -0.499289 0
M  V30 43276 O 3957.07 1.66744 -0.67798 0
M  V30 43277 H 3953.44 0.548596 -0.514341 0
M  V30 43278 H 3955.41 1.50236 -2.57821 0
M  V30 43279 C 3954.16 3.0393 -1.68884 0
M  V30 43280 H 3953.48 3.07533 -2.55468 0
M  V30 43281 H 3954.92 3.82308 -1.83349 0
M  V30 43282 C 3953.38 3.34179 -0.427326 0
M  V30 43283 O 3953.91 3.99055 0.460206 0
M  V30 43284 N 3952.12 2.89054 -0.299319 0
M  V30 43285 H 3951.67 2.36436 -1.02252 0
M  V30 43286 H 3951.62 3.09663 0.543732 0
M  V30 43287 N 3955.4 1.36959 0.779739 0
M  V30 43288 C 3956.36 1.31909 1.87437 0
M  V30 43289 C 3957.36 0.224767 1.59221 0
M  V30 43290 O 3958.55 0.480138 1.67452 0
M  V30 43291 C 3955.68 1.04721 3.24417 0
M  V30 43292 H 3956.87 2.29269 1.93329 0
M  V30 43293 H 3954.43 1.21872 0.978613 0
M  V30 43294 H 3955.16 0.0786012 3.24205 0
M  V30 43295 H 3954.95 1.83923 3.46287 0
M  V30 43296 H 3956.44 1.03817 4.04489 0
M  V30 43297 N 3956.87 -1.00501 1.21398 0
M  V30 43298 C 3958.12 -1.74535 1.03273 0
M  V30 43299 C 3958.45 -1.89318 -0.432712 0
M  V30 43300 O 3957.73 -1.4275 -1.32109 0
M  V30 43301 C 3958.01 -3.15793 1.73051 0
M  V30 43302 C 3957.86 -3.08734 3.27114 0
M  V30 43303 C 3959.18 -4.14716 1.47305 0
M  V30 43304 H 3956.3 -0.633531 0.376574 0
M  V30 43305 H 3958.94 -1.17167 1.49573 0
M  V30 43306 H 3957.09 -3.64773 1.33689 0
M  V30 43307 H 3958.77 -2.67468 3.75844 0
M  V30 43308 H 3957.01 -2.45836 3.57417 0
M  V30 43309 H 3957.68 -4.0864 3.71103 0
M  V30 43310 H 3960.16 -3.74441 1.81475 0
M  V30 43311 H 3959.03 -5.11696 1.98642 0
M  V30 43312 H 3959.29 -4.40259 0.403059 0
M  V30 43313 N 3958.35 -1.02172 -1.19994 0
M  V30 43314 C 3959.58 -0.733408 -1.93465 0
M  V30 43315 C 3959.99 0.706689 -1.75075 0
M  V30 43316 O 3959.35 1.47985 -1.06802 0
M  V30 43317 C 3959.4 -1.06607 -3.45423 0
M  V30 43318 O 3959.12 -2.44961 -3.63216 0
M  V30 43319 C 3960.62 -0.799535 -4.3603 0
M  V30 43320 H 3957.84 -0.268914 -0.614757 0
M  V30 43321 H 3960.39 -1.36429 -1.5234 0
M  V30 43322 H 3958.54 -0.4805 -3.84409 0
M  V30 43323 H 3958.96 -2.57125 -4.57151 0
M  V30 43324 H 3960.43 -1.08233 -5.41285 0
M  V30 43325 H 3960.91 0.266202 -4.38393 0
M  V30 43326 H 3961.51 -1.3675 -4.02715 0
M  V30 43327 N 3959.83 1.35866 -0.798635 0
M  V30 43328 C 3961.05 2.03769 -0.386414 0
M  V30 43329 C 3961.48 1.59808 0.992126 0
M  V30 43330 O 3960.84 0.770924 1.64093 0
M  V30 43331 C 3960.89 3.57538 -0.468921 0
M  V30 43332 O 3959.99 4.091 0.52067 0
M  V30 43333 H 3959.33 0.643781 -0.162608 0
M  V30 43334 H 3961.86 1.73629 -1.08231 0
M  V30 43335 H 3961.87 4.06615 -0.335846 0
M  V30 43336 H 3960.55 3.88885 -1.47448 0
M  V30 43337 H 3959.12 3.71268 0.348493 0
M  V30 43338 N 3961.31 0.551443 1.47638 0
M  V30 43339 C 3962.26 -0.212614 2.31626 0
M  V30 43340 C 3963.25 -0.9149 1.42569 0
M  V30 43341 O 3964.46 -0.836841 1.59364 0
M  V30 43342 H 3960.83 -0.0874362 0.7469 0
M  V30 43343 H 3962.8 0.515027 2.93922 0
M  V30 43344 C 3961.55 -1.2331 3.251 0
M  V30 43345 H 3960.87 -0.702127 3.93586 0
M  V30 43346 H 3962.31 -1.73871 3.8671 0
M  V30 43347 C 3960.77 -2.27798 2.48213 0
M  V30 43348 O 3961.3 -3.34622 2.22241 0
M  V30 43349 N 3959.51 -2.01573 2.09325 0
M  V30 43350 H 3959.06 -1.14715 2.30647 0
M  V30 43351 H 3959.01 -2.71701 1.58196 0
M  V30 43352 N 3962.79 -1.54953 0.287609 0
M  V30 43353 C 3964.03 -2.00883 -0.31899 0
M  V30 43354 C 3964.39 -1.17251 -1.52545 0
M  V30 43355 O 3963.68 -0.237579 -1.90121 0
M  V30 43356 C 3963.87 -3.49661 -0.739718 0
M  V30 43357 C 3963.7 -4.47693 0.424429 0
M  V30 43358 C 3962.47 -4.96998 0.912198 0
M  V30 43359 C 3964.67 -4.98499 1.26503 0
M  V30 43360 N 3962.65 -5.78855 2.04451 0
M  V30 43361 C 3964.02 -5.77926 2.24503 0
M  V30 43362 C 3966.08 -4.80712 1.29694 0
M  V30 43363 C 3964.78 -6.41461 3.25454 0
M  V30 43364 C 3966.81 -5.45055 2.29496 0
M  V30 43365 C 3966.17 -6.24304 3.26227 0
M  V30 43366 H 3962.27 -0.777736 -0.0815539 0
M  V30 43367 H 3964.85 -1.90237 0.414477 0
M  V30 43368 H 3963.02 -3.60624 -1.44238 0
M  V30 43369 H 3964.76 -3.82405 -1.32471 0
M  V30 43370 H 3961.51 -4.71065 0.489401 0
M  V30 43371 H 3961.94 -6.24472 2.61465 0
M  V30 43372 H 3966.58 -4.19037 0.562852 0
M  V30 43373 H 3964.3 -7.02278 3.99789 0
M  V30 43374 H 3967.88 -5.33227 2.32722 0
M  V30 43375 H 3966.76 -6.73211 4.0219 0
M  V30 43376 N 3964.26 -0.0150939 -1.57593 0
M  V30 43377 C 3965.2 0.999876 -2.0624 0
M  V30 43378 C 3966.21 1.29762 -0.983135 0
M  V30 43379 O 3967.4 1.26474 -1.25963 0
M  V30 43380 C 3964.5 2.33088 -2.46015 0
M  V30 43381 C 3963.67 2.22034 -3.76855 0
M  V30 43382 C 3962.73 3.37949 -4.03332 0
M  V30 43383 O 3961.76 3.15461 -4.73786 0
M  V30 43384 N 3962.96 4.61291 -3.52407 0
M  V30 43385 H 3965.72 0.5849 -2.93937 0
M  V30 43386 H 3963.28 0.171973 -1.60984 0
M  V30 43387 H 3965.28 3.09434 -2.60831 0
M  V30 43388 H 3963.85 2.66274 -1.63758 0
M  V30 43389 H 3963.07 1.30502 -3.71971 0
M  V30 43390 H 3964.35 2.11837 -4.62604 0
M  V30 43391 H 3963.75 4.82458 -2.95382 0
M  V30 43392 H 3962.31 5.34853 -3.72526 0
M  V30 43393 N 3965.74 1.55476 0.257876 0
M  V30 43394 C 3966.69 1.89391 1.31909 0
M  V30 43395 C 3967.66 0.746953 1.48357 0
M  V30 43396 O 3968.84 0.999613 1.62519 0
M  V30 43397 C 3965.98 2.1845 2.67158 0
M  V30 43398 C 3965.1 3.45894 2.58808 0
M  V30 43399 C 3964.23 3.64578 3.86337 0
M  V30 43400 C 3963.27 4.85661 3.72559 0
M  V30 43401 N 3962.41 5.00923 4.91955 0
M  V30 43402 H 3967.25 2.79896 1.02286 0
M  V30 43403 H 3964.79 1.38563 0.493839 0
M  V30 43404 H 3966.74 2.33302 3.4587 0
M  V30 43405 H 3965.37 1.31162 2.94951 0
M  V30 43406 H 3964.43 3.39434 1.71724 0
M  V30 43407 H 3965.74 4.34748 2.44532 0
M  V30 43408 H 3964.89 3.79329 4.73492 0
M  V30 43409 H 3963.63 2.73937 4.03497 0
M  V30 43410 H 3962.64 4.70898 2.83787 0
M  V30 43411 H 3963.86 5.77751 3.56904 0
M  V30 43412 H 3961.81 4.13217 5.09497 0
M  V30 43413 H 3961.72 5.83847 4.80269 0
M  V30 43414 H 3962.99 5.20075 5.8064 0
M  V30 43415 N 3967.22 -0.523064 1.48667 0
M  V30 43416 C 3968.15 -1.64308 1.59799 0
M  V30 43417 C 3969.17 -1.55505 0.481863 0
M  V30 43418 O 3970.35 -1.6184 0.753005 0
M  V30 43419 C 3967.45 -3.02994 1.51815 0
M  V30 43420 C 3966.63 -3.37208 2.78585 0
M  V30 43421 C 3965.69 -4.55205 2.6396 0
M  V30 43422 O 3964.71 -4.58082 3.3786 0
M  V30 43423 N 3965.91 -5.53798 1.74036 0
M  V30 43424 H 3968.68 -1.55193 2.56389 0
M  V30 43425 H 3966.24 -0.710486 1.45478 0
M  V30 43426 H 3968.23 -3.79818 1.39716 0
M  V30 43427 H 3966.8 -3.0615 0.631718 0
M  V30 43428 H 3966.02 -2.49494 3.05199 0
M  V30 43429 H 3967.31 -3.56854 3.62674 0
M  V30 43430 H 3966.71 -5.54256 1.13211 0
M  V30 43431 H 3965.27 -6.29811 1.67872 0
M  V30 43432 N 3968.7 -1.37371 -0.772465 0
M  V30 43433 C 3969.94 -1.32736 -1.53326 0
M  V30 43434 C 3970.28 0.0882474 -1.93999 0
M  V30 43435 O 3969.55 1.04542 -1.64016 0
M  V30 43436 C 3969.84 -2.2658 -2.79881 0
M  V30 43437 C 3969.69 -3.76916 -2.45467 0
M  V30 43438 C 3971.01 -2.18884 -3.81808 0
M  V30 43439 H 3968.13 -0.483492 -0.556241 0
M  V30 43440 H 3970.77 -1.68066 -0.886222 0
M  V30 43441 H 3968.92 -1.96582 -3.35094 0
M  V30 43442 H 3970.59 -4.17509 -1.96174 0
M  V30 43443 H 3968.83 -3.9552 -1.78174 0
M  V30 43444 H 3969.5 -4.38013 -3.35929 0
M  V30 43445 H 3971.98 -2.45326 -3.36087 0
M  V30 43446 H 3970.86 -2.86689 -4.68082 0
M  V30 43447 H 3971.12 -1.18153 -4.26019 0
M  V30 43448 N 3970.18 0.998553 -1.21929 0
M  V30 43449 C 3971.45 1.71033 -0.949064 0
M  V30 43450 C 3971.83 2.04145 0.537393 0
M  V30 43451 O 3971.18 1.72028 1.50394 0
M  V30 43452 C 3971.39 2.96505 -1.84081 0
M  V30 43453 C 3972.74 3.69401 -2.09352 0
M  V30 43454 O 3973.76 3.065 -1.81483 0
M  V30 43455 O 3972.62 4.82555 -2.56521 0
M  V30 43456 H 3969.72 0.746246 -0.356436 0
M  V30 43457 H 3972.26 1.0554 -1.32888 0
M  V30 43458 H 3971.03 2.68494 -2.84651 0
M  V30 43459 H 3970.66 3.69736 -1.46221 0
M  V30 43460 N 3971.65 1.02807 1.1945 0
M  V30 43461 C 3972.6 0.608173 2.22643 0
M  V30 43462 C 3973.57 -0.37761 1.61751 0
M  V30 43463 O 3974.76 -0.274454 1.88816 0
M  V30 43464 C 3971.9 -0.0356983 3.45082 0
M  V30 43465 C 3971.01 0.996029 4.20361 0
M  V30 43466 C 3970.14 0.322004 5.30223 0
M  V30 43467 C 3969.18 1.3397 5.97259 0
M  V30 43468 N 3968.32 0.691537 6.98686 0
M  V30 43469 H 3973.16 1.49273 2.57918 0
M  V30 43470 H 3970.7 0.747007 1.26721 0
M  V30 43471 H 3972.66 -0.426236 4.15017 0
M  V30 43472 H 3971.29 -0.883835 3.10464 0
M  V30 43473 H 3970.34 1.50463 3.49378 0
M  V30 43474 H 3971.65 1.76953 4.66357 0
M  V30 43475 H 3970.8 -0.123422 6.06574 0
M  V30 43476 H 3969.54 -0.483707 4.85295 0
M  V30 43477 H 3968.55 1.79539 5.19659 0
M  V30 43478 H 3969.77 2.14689 6.44271 0
M  V30 43479 H 3967.72 -0.0940968 6.55933 0
M  V30 43480 H 3967.64 1.40294 7.42869 0
M  V30 43481 H 3968.9 0.270085 7.79032 0
M  V30 43482 N 3973.13 -1.35441 0.805829 0
M  V30 43483 C 3974.1 -2.28129 0.221318 0
M  V30 43484 C 3975.1 -1.4955 -0.590893 0
M  V30 43485 O 3976.29 -1.69319 -0.409488 0
M  V30 43486 C 3973.42 -3.33811 -0.691585 0
M  V30 43487 H 3974.61 -2.81334 1.0388 0
M  V30 43488 H 3972.16 -1.45283 0.576426 0
M  V30 43489 H 3972.9 -2.85791 -1.53278 0
M  V30 43490 H 3972.68 -3.91943 -0.110903 0
M  V30 43491 H 3974.17 -4.02991 -1.09489 0
M  V30 43492 N 3974.61 -0.559265 -1.47343 0
M  V30 43493 C 3975.54 0.175501 -2.3284 0
M  V30 43494 C 3976.52 0.906762 -1.43916 0
M  V30 43495 O 3977.71 0.886824 -1.72769 0
M  V30 43496 C 3974.84 1.20468 -3.25737 0
M  V30 43497 C 3973.79 0.58975 -4.23917 0
M  V30 43498 C 3973.12 1.72371 -5.06154 0
M  V30 43499 C 3974.42 -0.457825 -5.2029 0
M  V30 43500 H 3976.11 -0.538277 -2.94522 0
M  V30 43501 H 3973.66 -0.260307 -1.41628 0
M  V30 43502 H 3975.61 1.72689 -3.84391 0
M  V30 43503 H 3974.33 1.94843 -2.62114 0
M  V30 43504 H 3972.99 0.0888253 -3.66492 0
M  V30 43505 H 3972.64 2.45655 -4.38934 0
M  V30 43506 H 3972.34 1.31803 -5.72627 0
M  V30 43507 H 3973.86 2.24914 -5.67667 0
M  V30 43508 H 3975.28 -0.0216027 -5.73296 0
M  V30 43509 H 3973.68 -0.782505 -5.94976 0
M  V30 43510 H 3974.75 -1.35294 -4.65643 0
M  V30 43511 N 3976.09 1.54799 -0.295822 0
M  V30 43512 C 3977 2.27003 0.592166 0
M  V30 43513 C 3978.01 1.30334 1.15278 0
M  V30 43514 O 3979.19 1.63307 1.17867 0
M  V30 43515 C 3976.26 2.9928 1.75022 0
M  V30 43516 C 3975.32 4.11475 1.2242 0
M  V30 43517 C 3974.55 4.80295 2.32706 0
M  V30 43518 O 3974.77 4.48443 3.52498 0
M  V30 43519 O 3973.71 5.67809 1.9969 0
M  V30 43520 H 3977.53 3.03699 0.0066071 0
M  V30 43521 H 3975.12 1.49269 -0.0624675 0
M  V30 43522 H 3977 3.44631 2.42502 0
M  V30 43523 H 3975.67 2.25483 2.32248 0
M  V30 43524 H 3974.58 3.70534 0.515271 0
M  V30 43525 H 3975.91 4.87234 0.697433 0
M  V30 43526 N 3977.57 0.0234513 1.57583 0
M  V30 43527 C 3978.51 -0.96029 2.09874 0
M  V30 43528 C 3979.48 -1.32663 0.999489 0
M  V30 43529 O 3980.67 -1.42093 1.27335 0
M  V30 43530 C 3977.81 -2.2393 2.62582 0
M  V30 43531 C 3976.92 -1.92992 3.86495 0
M  V30 43532 C 3976.06 -3.15147 4.27617 0
M  V30 43533 C 3975.1 -2.80002 5.44303 0
M  V30 43534 N 3974.23 -3.94765 5.80608 0
M  V30 43535 H 3979.07 -0.50745 2.93648 0
M  V30 43536 H 3976.61 -0.238886 1.45147 0
M  V30 43537 H 3978.57 -2.98734 2.91228 0
M  V30 43538 H 3977.2 -2.66841 1.81647 0
M  V30 43539 H 3976.25 -1.08455 3.64612 0
M  V30 43540 H 3977.56 -1.63104 4.71379 0
M  V30 43541 H 3976.72 -3.98276 4.5767 0
M  V30 43542 H 3975.46 -3.48192 3.41487 0
M  V30 43543 H 3974.46 -1.95284 5.13949 0
M  V30 43544 H 3975.69 -2.48179 6.32127 0
M  V30 43545 H 3973.63 -4.27662 4.97434 0
M  V30 43546 H 3973.55 -3.68481 6.6012 0
M  V30 43547 H 3974.82 -4.78613 6.15264 0
M  V30 43548 N 3979.05 -1.5561 -0.249627 0
M  V30 43549 C 3979.98 -1.93102 -1.31277 0
M  V30 43550 C 3980.96 -0.795628 -1.50346 0
M  V30 43551 O 3982.14 -1.05569 -1.62999 0
M  V30 43552 C 3979.27 -2.22335 -2.66804 0
M  V30 43553 C 3978.23 -3.381 -2.62435 0
M  V30 43554 C 3977.55 -3.52868 -4.01732 0
M  V30 43555 C 3978.85 -4.73864 -2.19659 0
M  V30 43556 H 3980.55 -2.82154 -1.00146 0
M  V30 43557 H 3978.09 -1.35754 -0.480307 0
M  V30 43558 H 3980.04 -2.47152 -3.41312 0
M  V30 43559 H 3978.77 -1.30106 -2.99566 0
M  V30 43560 H 3977.43 -3.13287 -1.90385 0
M  V30 43561 H 3977.08 -2.58064 -4.31755 0
M  V30 43562 H 3976.78 -4.30715 -3.99697 0
M  V30 43563 H 3978.3 -3.80003 -4.77944 0
M  V30 43564 H 3979.71 -4.98072 -2.83897 0
M  V30 43565 H 3978.11 -5.54795 -2.28741 0
M  V30 43566 H 3979.18 -4.7111 -1.14821 0
M  V30 43567 N 3980.52 0.515172 -1.48942 0
M  V30 43568 C 3981.94 0.845076 -1.35391 0
M  V30 43569 C 3982.14 1.97957 -0.376176 0
M  V30 43570 O 3981.2 2.51728 0.19728 0
M  V30 43571 C 3982.51 1.19864 -2.75777 0
M  V30 43572 C 3984.06 1.30767 -2.84375 0
M  V30 43573 C 3984.53 1.69459 -4.25497 0
M  V30 43574 N 3986.02 1.76534 -4.2824 0
M  V30 43575 C 3986.76 2.07888 -5.34388 0
M  V30 43576 N 3986.25 2.37564 -6.50796 0
M  V30 43577 N 3988.05 2.0902 -5.21792 0
M  V30 43578 H 3980.2 -0.233155 -2.11116 0
M  V30 43579 H 3982.46 -0.0416923 -0.947083 0
M  V30 43580 H 3982.17 0.438504 -3.48956 0
M  V30 43581 H 3982.04 2.14539 -3.10246 0
M  V30 43582 H 3984.43 2.05854 -2.11443 0
M  V30 43583 H 3984.51 0.341764 -2.53507 0
M  V30 43584 H 3984.15 0.94927 -4.9895 0
M  V30 43585 H 3984.08 2.67125 -4.53819 0
M  V30 43586 H 3986.57 1.55818 -3.44281 0
M  V30 43587 H 3986.89 2.60636 -7.27522 0
M  V30 43588 H 3985.23 2.35051 -6.54046 0
M  V30 43589 H 3988.42 1.85303 -4.29861 0
M  V30 43590 H 3988.6 2.33122 -6.04614 0
M  V30 43591 N 3982 1.37779 0.765169 0
M  V30 43592 C 3983.28 1.23879 1.51372 0
M  V30 43593 C 3983.66 -0.164815 2.10456 0
M  V30 43594 O 3983.01 -1.17314 1.96086 0
M  V30 43595 C 3983.22 2.33995 2.58935 0
M  V30 43596 C 3984.56 2.71857 3.26157 0
M  V30 43597 O 3985.59 2.3322 2.69234 0
M  V30 43598 O 3984.45 3.38445 4.29089 0
M  V30 43599 H 3981.54 0.483772 0.670741 0
M  V30 43600 H 3984.09 1.49576 0.801571 0
M  V30 43601 H 3982.86 3.2796 2.13443 0
M  V30 43602 H 3982.48 2.09798 3.37743 0
M  V30 43603 N 3983.48 -0.992073 1.22457 0
M  V30 43604 C 3984.41 -2.10061 1.01964 0
M  V30 43605 C 3985.39 -1.69995 -0.0596887 0
M  V30 43606 O 3986.58 -1.93928 0.102689 0
M  V30 43607 C 3983.71 -3.42122 0.597503 0
M  V30 43608 C 3982.66 -3.96039 1.62286 0
M  V30 43609 C 3981.99 -5.24158 1.05653 0
M  V30 43610 C 3983.29 -4.2663 3.01304 0
M  V30 43611 H 3984.98 -2.27462 1.94682 0
M  V30 43612 H 3982.53 -1.09307 0.937441 0
M  V30 43613 H 3984.48 -4.19083 0.441248 0
M  V30 43614 H 3983.2 -3.2455 -0.365344 0
M  V30 43615 H 3981.86 -3.2121 1.7669 0
M  V30 43616 H 3981.51 -5.02928 0.0850151 0
M  V30 43617 H 3981.21 -5.61199 1.74154 0
M  V30 43618 H 3982.73 -6.03753 0.91188 0
M  V30 43619 H 3984.15 -4.94386 2.90269 0
M  V30 43620 H 3982.54 -4.74845 3.66936 0
M  V30 43621 H 3983.61 -3.34372 3.51174 0
M  V30 43622 N 3984.96 -1.03439 -1.18904 0
M  V30 43623 C 3985.89 -0.578055 -2.21791 0
M  V30 43624 C 3986.9 0.348986 -1.59016 0
M  V30 43625 O 3988.09 0.1445 -1.77914 0
M  V30 43626 C 3985.19 0.176288 -3.38441 0
M  V30 43627 C 3984.36 -0.757064 -4.30798 0
M  V30 43628 C 3983.42 -0.0471403 -5.26179 0
M  V30 43629 O 3982.45 -0.675517 -5.65177 0
M  V30 43630 N 3983.65 1.2217 -5.67499 0
M  V30 43631 H 3986.42 -1.46296 -2.61568 0
M  V30 43632 H 3983.98 -0.914101 -1.33626 0
M  V30 43633 H 3985.97 0.660902 -3.99267 0
M  V30 43634 H 3984.54 0.962663 -2.97408 0
M  V30 43635 H 3983.76 -1.42166 -3.67672 0
M  V30 43636 H 3985.05 -1.39122 -4.8941 0
M  V30 43637 H 3984.45 1.75285 -5.37858 0
M  V30 43638 H 3983 1.6507 -6.30551 0
M  V30 43639 N 3986.44 1.35011 -0.813001 0
M  V30 43640 C 3987.68 1.9819 -0.395597 0
M  V30 43641 C 3988 1.64801 1.04239 0
M  V30 43642 O 3987.27 0.933708 1.72217 0
M  V30 43643 H 3985.85 0.733128 -0.143289 0
M  V30 43644 H 3988.52 1.64817 -1.04026 0
M  V30 43645 H 3987.61 3.07962 -0.50652 0
M  V30 43646 N 3987.91 0.567071 1.47044 0
M  V30 43647 C 3988.88 -0.164718 2.28607 0
M  V30 43648 C 3989.88 -0.833518 1.3751 0
M  V30 43649 O 3991.07 -0.687867 1.60044 0
M  V30 43650 C 3988.2 -1.24205 3.17468 0
M  V30 43651 H 3989.39 0.551866 2.94779 0
M  V30 43652 H 3986.94 0.324403 1.52896 0
M  V30 43653 H 3987.68 -1.99072 2.5601 0
M  V30 43654 H 3987.46 -0.767176 3.84522 0
M  V30 43655 H 3988.95 -1.75575 3.78897 0
M  V30 43656 N 3989.39 -1.5464 0.304027 0
M  V30 43657 C 3990.32 -2.19818 -0.612798 0
M  V30 43658 C 3991.3 -1.1686 -1.1306 0
M  V30 43659 O 3992.49 -1.45515 -1.19823 0
M  V30 43660 C 3989.61 -2.84442 -1.83876 0
M  V30 43661 C 3988.66 -4.00953 -1.45393 0
M  V30 43662 S 3989.49 -5.33092 -0.507279 0
M  V30 43663 C 3990.65 -6.012 -1.74097 0
M  V30 43664 H 3990.88 -2.97241 -0.0590764 0
M  V30 43665 H 3988.41 -1.54148 0.0881572 0
M  V30 43666 H 3990.37 -3.223 -2.5423 0
M  V30 43667 H 3989.03 -2.06859 -2.36365 0
M  V30 43668 H 3988.23 -4.44963 -2.36694 0
M  V30 43669 H 3987.83 -3.64667 -0.830306 0
M  V30 43670 H 3990.12 -6.22191 -2.68113 0
M  V30 43671 H 3991.06 -6.9524 -1.34337 0
M  V30 43672 H 3991.47 -5.30879 -1.91906 0
M  V30 43673 N 3990.87 -0.0318079 -1.57568 0
M  V30 43674 C 3992.15 0.685049 -1.83211 0
M  V30 43675 C 3992.53 1.90178 -0.916274 0
M  V30 43676 O 3991.87 2.28483 0.0274642 0
M  V30 43677 C 3992.08 1.06072 -3.3249 0
M  V30 43678 C 3993.43 1.45122 -3.9903 0
M  V30 43679 O 3994.46 1.15362 -3.37002 0
M  V30 43680 O 3993.32 2.00583 -5.08359 0
M  V30 43681 H 3990.41 0.336324 -0.755523 0
M  V30 43682 H 3992.96 -0.059695 -1.69595 0
M  V30 43683 H 3991.73 0.194849 -3.90815 0
M  V30 43684 H 3991.35 1.86354 -3.51223 0
M  V30 43685 N 3992.35 1.55741 0.241371 0
M  V30 43686 C 3993.63 1.68591 0.991791 0
M  V30 43687 C 3994.01 0.57331 2.03166 0
M  V30 43688 O 3993.35 -0.422481 2.2456 0
M  V30 43689 C 3993.56 3.09115 1.62015 0
M  V30 43690 C 3994.91 3.67892 2.11991 0
M  V30 43691 O 3995.94 3.11951 1.71945 0
M  V30 43692 O 3994.79 4.65973 2.85537 0
M  V30 43693 H 3991.89 0.685916 0.462005 0
M  V30 43694 H 3994.43 1.68069 0.23472 0
M  V30 43695 H 3993.21 3.81545 0.868283 0
M  V30 43696 H 3992.83 3.13671 2.44328 0
M  V30 43697 N 3993.83 -0.507266 1.49213 0
M  V30 43698 C 3994.76 -1.61826 1.68329 0
M  V30 43699 C 3995.74 -1.61567 0.531998 0
M  V30 43700 O 3996.92 -1.78406 0.767135 0
M  V30 43701 C 3994.05 -3.00337 1.744 0
M  V30 43702 C 3993.01 -3.1546 2.89256 0
M  V30 43703 C 3992.33 -4.55259 2.80434 0
M  V30 43704 C 3993.63 -2.96077 4.30274 0
M  V30 43705 H 3995.33 -1.46083 2.61343 0
M  V30 43706 H 3992.87 -0.701345 1.25766 0
M  V30 43707 H 3994.83 -3.77953 1.86359 0
M  V30 43708 H 3993.55 -3.17154 0.779804 0
M  V30 43709 H 3992.21 -2.40267 2.76888 0
M  V30 43710 H 3991.86 -4.68944 1.81936 0
M  V30 43711 H 3991.56 -4.66319 3.57519 0
M  V30 43712 H 3993.08 -5.34944 2.94393 0
M  V30 43713 H 3994.49 -3.63467 4.43356 0
M  V30 43714 H 3992.89 -3.18614 5.08532 0
M  V30 43715 H 3993.96 -1.92264 4.45155 0
M  V30 43716 N 3995.3 -1.38182 -0.757851 0
M  V30 43717 C 3996.58 -1.2468 -1.50713 0
M  V30 43718 C 3996.96 0.153652 -2.1054 0
M  V30 43719 O 3996.31 1.16273 -1.96705 0
M  V30 43720 C 3996.52 -2.35365 -2.5769 0
M  V30 43721 C 3997.87 -2.73583 -3.24711 0
M  V30 43722 O 3998.89 -2.34645 -2.67993 0
M  V30 43723 O 3997.75 -3.40716 -4.27288 0
M  V30 43724 H 3994.84 -0.487323 -0.668166 0
M  V30 43725 H 3997.39 -1.49999 -0.793627 0
M  V30 43726 H 3996.16 -3.29088 -2.117 0
M  V30 43727 H 3995.79 -2.11587 -3.36626 0
M  V30 43728 N 3996.78 0.985565 -1.22981 0
M  V30 43729 C 3997.75 2.05861 -1.00767 0
M  V30 43730 C 3998.75 1.60775 0.0286117 0
M  V30 43731 O 3999.94 1.72922 -0.210624 0
M  V30 43732 C 3997.07 3.36855 -0.523606 0
M  V30 43733 H 3998.26 2.27001 -1.95986 0
M  V30 43734 H 3995.81 1.15822 -1.04952 0
M  V30 43735 H 3996.55 3.21402 0.432602 0
M  V30 43736 H 3996.33 3.70917 -1.27134 0
M  V30 43737 H 3997.82 4.15787 -0.388664 0
M  V30 43738 N 3998.26 1.04068 1.18353 0
M  V30 43739 C 3999.54 0.658313 1.84189 0
M  V30 43740 C 3999.92 -0.862205 1.92689 0
M  V30 43741 O 3999.27 -1.76367 1.45283 0
M  V30 43742 C 3999.48 1.33416 3.22492 0
M  V30 43743 C 4000.82 1.46496 3.98527 0
M  V30 43744 O 4001.85 1.29226 3.31932 0
M  V30 43745 O 4000.71 1.74638 5.17845 0
M  V30 43746 H 3997.8 0.230343 0.794274 0
M  V30 43747 H 4000.35 1.13957 1.25745 0
M  V30 43748 H 3999.12 2.37202 3.11208 0
M  V30 43749 H 3998.74 0.841517 3.88593 0
M  V30 43750 N 3999.74 -1.34578 0.820149 0
M  V30 43751 C 4000.67 -2.27446 0.185364 0
M  V30 43752 C 4001.65 -1.48753 -0.656601 0
M  V30 43753 O 4002.83 -1.77979 -0.620943 0
M  V30 43754 C 3999.96 -3.30486 -0.741397 0
M  V30 43755 C 3999.01 -4.26494 0.0226826 0
M  V30 43756 S 3999.84 -5.17733 1.36796 0
M  V30 43757 C 4001 -6.24309 0.446003 0
M  V30 43758 H 4001.23 -2.80937 0.972708 0
M  V30 43759 H 3998.76 -1.41584 0.615904 0
M  V30 43760 H 4000.72 -3.90342 -1.27055 0
M  V30 43761 H 3999.38 -2.75847 -1.50224 0
M  V30 43762 H 3998.57 -4.99368 -0.681739 0
M  V30 43763 H 3998.18 -3.70877 0.482304 0
M  V30 43764 H 4000.47 -6.76524 -0.363519 0
M  V30 43765 H 4001.41 -6.98792 1.14434 0
M  V30 43766 H 4001.82 -5.64489 0.0356668 0
M  V30 43767 N 4001.22 -0.574861 -1.46742 0
M  V30 43768 C 4002.16 0.162868 -2.30225 0
M  V30 43769 C 4003.13 0.891605 -1.40141 0
M  V30 43770 O 4004.32 0.883824 -1.69095 0
M  V30 43771 C 4001.46 1.17564 -3.24458 0
M  V30 43772 C 4000.57 0.451157 -4.29638 0
M  V30 43773 C 3999.71 1.45076 -5.11005 0
M  V30 43774 C 3998.75 0.712246 -6.07942 0
M  V30 43775 N 3997.88 1.65953 -6.82205 0
M  V30 43776 H 4002.72 -0.555115 -2.92784 0
M  V30 43777 H 4000.26 -0.285571 -1.44301 0
M  V30 43778 H 4002.22 1.77561 -3.77529 0
M  V30 43779 H 4000.85 1.86143 -2.63724 0
M  V30 43780 H 3999.9 -0.26369 -3.79485 0
M  V30 43781 H 4001.21 -0.126555 -4.98639 0
M  V30 43782 H 4000.37 2.12376 -5.68315 0
M  V30 43783 H 3999.1 2.0624 -4.41946 0
M  V30 43784 H 3998.11 0.02543 -5.49794 0
M  V30 43785 H 3999.33 0.106107 -6.79017 0
M  V30 43786 H 3997.28 2.25942 -6.15862 0
M  V30 43787 H 3997.2 1.13443 -7.4744 0
M  V30 43788 H 3998.47 2.32312 -7.44077 0
M  V30 43789 N 4002.69 1.54476 -0.312224 0
M  V30 43790 C 4003.6 2.27619 0.568056 0
M  V30 43791 C 4004.62 1.31549 1.13889 0
M  V30 43792 O 4005.8 1.64548 1.16129 0
M  V30 43793 C 4002.86 3.01119 1.71838 0
M  V30 43794 C 4001.92 4.1275 1.18049 0
M  V30 43795 C 4001.16 4.82737 2.27599 0
M  V30 43796 O 4001.38 4.52157 3.47722 0
M  V30 43797 O 4000.31 5.69895 1.93657 0
M  V30 43798 H 4004.14 3.03689 -0.0256046 0
M  V30 43799 H 4001.72 1.49195 -0.078296 0
M  V30 43800 H 4003.61 3.47184 2.38833 0
M  V30 43801 H 4002.28 2.27934 2.29843 0
M  V30 43802 H 4001.19 3.7106 0.475942 0
M  V30 43803 H 4002.52 4.87946 0.645716 0
M  V30 43804 N 4004.17 0.0401637 1.57549 0
M  V30 43805 C 4005.14 -0.923089 2.0979 0
M  V30 43806 C 4006.14 -1.24701 1.0152 0
M  V30 43807 O 4007.33 -1.18552 1.27637 0
M  V30 43808 C 4004.46 -2.23632 2.57297 0
M  V30 43809 H 4005.65 -0.47043 2.96187 0
M  V30 43810 H 4003.2 -0.208061 1.54909 0
M  V30 43811 H 4003.94 -2.73503 1.7426 0
M  V30 43812 H 4003.72 -2.01429 3.36406 0
M  V30 43813 H 4005.21 -2.92652 2.979 0
M  V30 43814 N 4005.65 -1.55866 -0.233109 0
M  V30 43815 C 4006.56 -1.94617 -1.31001 0
M  V30 43816 C 4007.58 -0.848426 -1.51914 0
M  V30 43817 O 4008.75 -1.15101 -1.65268 0
M  V30 43818 C 4005.82 -2.24499 -2.64199 0
M  V30 43819 C 4004.88 -3.4778 -2.51689 0
M  V30 43820 C 4004.11 -3.76227 -3.78535 0
M  V30 43821 O 4004.33 -3.06528 -4.81037 0
M  V30 43822 O 4003.27 -4.69736 -3.7634 0
M  V30 43823 H 4007.09 -2.8637 -1.01124 0
M  V30 43824 H 4004.68 -1.42926 -0.435018 0
M  V30 43825 H 4006.56 -2.44965 -3.42885 0
M  V30 43826 H 4005.24 -1.35923 -2.9378 0
M  V30 43827 H 4004.14 -3.32606 -1.71242 0
M  V30 43828 H 4005.48 -4.36702 -2.2705 0
M  V30 43829 N 4007.13 0.499346 -1.4948 0
M  V30 43830 C 4008.35 1.28206 -1.63027 0
M  V30 43831 C 4008.78 1.85655 -0.30227 0
M  V30 43832 O 4008.14 1.6594 0.730326 0
M  V30 43833 C 4008.19 2.38694 -2.70291 0
M  V30 43834 O 4007.29 3.42589 -2.29579 0
M  V30 43835 H 4006.63 0.378422 -0.545612 0
M  V30 43836 H 4009.16 0.597594 -1.95678 0
M  V30 43837 H 4009.17 2.84433 -2.9251 0
M  V30 43838 H 4007.85 1.96247 -3.66688 0
M  V30 43839 H 4006.42 3.02758 -2.17698 0
M  V30 43840 N 4008.61 1.38582 0.750513 0
M  V30 43841 C 4009.85 1.35158 1.51195 0
M  V30 43842 C 4010.19 -0.0573726 1.94115 0
M  V30 43843 O 4009.46 -1.01919 1.65659 0
M  V30 43844 C 4009.74 2.31004 2.76241 0
M  V30 43845 C 4009.6 3.80774 2.39439 0
M  V30 43846 C 4010.92 2.24931 3.78278 0
M  V30 43847 H 4008.04 0.49228 0.548479 0
M  V30 43848 H 4010.68 1.69454 0.859372 0
M  V30 43849 H 4008.83 2.01888 3.31924 0
M  V30 43850 H 4010.5 4.20577 1.89507 0
M  V30 43851 H 4008.74 3.98305 1.71859 0
M  V30 43852 H 4009.41 4.43302 3.28918 0
M  V30 43853 H 4011.89 2.50641 3.32142 0
M  V30 43854 H 4010.77 2.941 4.63462 0
M  V30 43855 H 4011.03 1.24916 4.24085 0
M  V30 43856 N 4010.09 -0.979029 1.23502 0
M  V30 43857 C 4011.5 -1.2455 0.99797 0
M  V30 43858 C 4011.7 -1.99253 -0.300104 0
M  V30 43859 O 4010.76 -2.31017 -1.01919 0
M  V30 43860 C 4012.07 -2.04371 2.20574 0
M  V30 43861 C 4013.62 -2.17505 2.25079 0
M  V30 43862 C 4014.09 -3.00718 3.45446 0
M  V30 43863 N 4015.58 -3.08302 3.45693 0
M  V30 43864 C 4016.32 -3.73016 4.35484 0
M  V30 43865 N 4015.82 -4.39542 5.35514 0
M  V30 43866 N 4017.61 -3.69916 4.23224 0
M  V30 43867 H 4009.76 -0.478613 2.06937 0
M  V30 43868 H 4012.02 -0.274068 0.907519 0
M  V30 43869 H 4011.73 -1.56857 3.14784 0
M  V30 43870 H 4011.6 -3.05119 2.21771 0
M  V30 43871 H 4013.99 -2.64227 1.31408 0
M  V30 43872 H 4014.07 -1.16142 2.27914 0
M  V30 43873 H 4013.71 -2.54692 4.39425 0
M  V30 43874 H 4013.64 -4.02254 3.39852 0
M  V30 43875 H 4016.14 -2.60969 2.73319 0
M  V30 43876 H 4016.45 -4.86704 6.00282 0
M  V30 43877 H 4014.79 -4.38246 5.39412 0
M  V30 43878 H 4017.98 -3.17113 3.44321 0
M  V30 43879 H 4018.16 -4.20068 4.93404 0
M  V30 43880 N 4011.56 -1.04695 -1.178 0
M  V30 43881 C 4012.51 -0.637359 -2.23697 0
M  V30 43882 C 4013.51 0.338927 -1.65975 0
M  V30 43883 O 4014.71 0.205533 -1.78823 0
M  V30 43884 H 4011.09 -0.187916 -0.728142 0
M  V30 43885 H 4013.06 -1.54074 -2.55546 0
M  V30 43886 C 4011.81 -0.0228273 -3.47693 0
M  V30 43887 H 4011.13 -0.765127 -3.9241 0
M  V30 43888 H 4012.57 0.226455 -4.23395 0
M  V30 43889 C 4011.03 1.22906 -3.13681 0
M  V30 43890 O 4011.56 2.31907 -3.27997 0
M  V30 43891 N 4009.76 1.12478 -2.6795 0
M  V30 43892 H 4009.31 0.237773 -2.565 0
M  V30 43893 H 4009.27 1.96329 -2.45565 0
M  V30 43894 N 4013.04 1.34141 -0.827275 0
M  V30 43895 C 4014.29 1.9776 -0.416595 0
M  V30 43896 C 4014.61 1.65897 1.02485 0
M  V30 43897 O 4013.88 0.951921 1.71217 0
M  V30 43898 H 4012.46 0.731567 -0.151056 0
M  V30 43899 H 4015.12 1.63705 -1.05768 0
M  V30 43900 H 4014.22 3.07408 -0.539155 0
M  V30 43901 N 4014.52 0.582635 1.46435 0
M  V30 43902 C 4015.77 0.0766188 2.03256 0
M  V30 43903 C 4016.12 -1.26912 1.44607 0
M  V30 43904 O 4015.41 -1.81905 0.601753 0
M  V30 43905 C 4015.61 -0.0476116 3.57368 0
M  V30 43906 C 4015.44 1.28454 4.30964 0
M  V30 43907 C 4014.21 1.85866 4.69874 0
M  V30 43908 C 4016.4 2.20771 4.64505 0
M  V30 43909 N 4014.39 3.12821 5.2822 0
M  V30 43910 C 4015.76 3.32313 5.2342 0
M  V30 43911 C 4017.81 2.20452 4.46436 0
M  V30 43912 C 4016.52 4.43668 5.66172 0
M  V30 43913 C 4018.54 3.30837 4.90205 0
M  V30 43914 C 4017.9 4.411 5.49191 0
M  V30 43915 H 4014 0.070813 0.778787 0
M  V30 43916 H 4016.59 0.775517 1.78588 0
M  V30 43917 H 4014.76 -0.715678 3.81749 0
M  V30 43918 H 4016.49 -0.558006 4.00835 0
M  V30 43919 H 4013.24 1.3936 4.52632 0
M  V30 43920 H 4013.67 3.776 5.61914 0
M  V30 43921 H 4018.31 1.36476 4.00167 0
M  V30 43922 H 4016.03 5.28386 6.11419 0
M  V30 43923 H 4019.61 3.31708 4.77976 0
M  V30 43924 H 4018.49 5.25105 5.82438 0
M  V30 43925 N 4016 -1.54309 0.320412 0
M  V30 43926 C 4016.94 -2.24225 -0.546971 0
M  V30 43927 C 4017.91 -1.23188 -1.11417 0
M  V30 43928 O 4019.1 -1.51862 -1.1551 0
M  V30 43929 C 4016.24 -3.00123 -1.70354 0
M  V30 43930 C 4015.35 -4.15971 -1.16587 0
M  V30 43931 C 4014.49 -4.79406 -2.28787 0
M  V30 43932 C 4013.53 -5.87363 -1.72253 0
M  V30 43933 N 4012.66 -6.44673 -2.78102 0
M  V30 43934 H 4017.5 -2.97948 0.0558248 0
M  V30 43935 H 4015.04 -1.47047 0.0393214 0
M  V30 43936 H 4017 -3.42371 -2.38407 0
M  V30 43937 H 4015.63 -2.2874 -2.27767 0
M  V30 43938 H 4014.68 -3.78527 -0.376987 0
M  V30 43939 H 4015.99 -4.9369 -0.712167 0
M  V30 43940 H 4015.15 -5.24607 -3.0475 0
M  V30 43941 H 4013.89 -4.01061 -2.77492 0
M  V30 43942 H 4012.89 -5.41568 -0.947856 0
M  V30 43943 H 4014.12 -6.67604 -1.24428 0
M  V30 43944 H 4012.06 -5.69203 -3.26105 0
M  V30 43945 H 4011.98 -7.17796 -2.37285 0
M  V30 43946 H 4013.25 -6.9453 -3.53904 0
M  V30 43947 N 4017.48 -0.0485183 -1.57525 0
M  V30 43948 C 4018.89 0.48756 -1.80221 0
M  V30 43949 C 4019.24 1.7108 -0.96052 0
M  V30 43950 O 4018.36 2.1568 -0.176358 0
M  V30 43951 C 4018.96 0.891302 -3.26866 0
M  V30 43952 C 4017.52 1.37238 -3.50489 0
M  V30 43953 C 4016.66 0.346299 -2.75129 0
M  V30 43954 H 4019.61 -0.274419 -1.56309 0
M  V30 43955 H 4019.64 1.7544 -3.3764 0
M  V30 43956 H 4019.15 0.000812706 -3.881 0
M  V30 43957 H 4017.25 2.28215 -2.94532 0
M  V30 43958 H 4017.36 1.36637 -4.59203 0
M  V30 43959 H 4015.73 0.81861 -2.41186 0
M  V30 43960 H 4016.51 -0.536059 -3.39089 0
M  V30 43961 N 4018.95 1.55988 0.224839 0
M  V30 43962 C 4020.2 1.79113 0.951123 0
M  V30 43963 C 4020.53 0.6176 1.84118 0
M  V30 43964 O 4019.81 -0.383279 1.90686 0
M  V30 43965 C 4020.09 3.12295 1.79287 0
M  V30 43966 C 4019.94 4.40091 0.929526 0
M  V30 43967 C 4021.26 3.4189 2.77126 0
M  V30 43968 H 4018.38 0.651609 0.344347 0
M  V30 43969 H 4021.02 1.8872 0.220195 0
M  V30 43970 H 4019.17 3.04236 2.41604 0
M  V30 43971 H 4020.85 4.60165 0.323351 0
M  V30 43972 H 4019.09 4.33164 0.234801 0
M  V30 43973 H 4019.76 5.29709 1.5528 0
M  V30 43974 H 4022.24 3.50056 2.24945 0
M  V30 43975 H 4021.11 4.36254 3.33127 0
M  V30 43976 H 4021.37 2.63894 3.54701 0
M  V30 43977 N 4020.43 -0.491412 1.49743 0
M  V30 43978 C 4021.68 -1.24245 1.59397 0
M  V30 43979 C 4022 -1.92877 0.286968 0
M  V30 43980 O 4021.27 -1.83183 -0.694321 0
M  V30 43981 H 4019.85 -0.461588 0.587321 0
M  V30 43982 H 4022.51 -0.568697 1.86418 0
M  V30 43983 H 4021.61 -2.00127 2.3949 0
M  V30 43984 N 4021.91 -1.38978 -0.743153 0
M  V30 43985 C 4023.19 -1.26271 -1.49382 0
M  V30 43986 C 4023.57 0.131312 -2.10691 0
M  V30 43987 O 4022.92 1.1418 -1.97927 0
M  V30 43988 C 4023.13 -2.38085 -2.5518 0
M  V30 43989 C 4024.47 -2.77012 -3.21791 0
M  V30 43990 O 4025.5 -2.37474 -2.65489 0
M  V30 43991 O 4024.36 -3.45229 -4.2365 0
M  V30 43992 H 4021.45 -0.494382 -0.66296 0
M  V30 43993 H 4024 -1.50832 -0.777673 0
M  V30 43994 H 4022.77 -3.31314 -2.08198 0
M  V30 43995 H 4022.39 -2.15145 -3.34363 0
M  V30 43996 N 4023.39 0.972465 -1.2402 0
M  V30 43997 C 4024.32 2.08412 -1.05293 0
M  V30 43998 C 4025.3 1.70069 0.0326364 0
M  V30 43999 O 4026.48 1.9374 -0.133528 0
M  V30 44000 C 4023.61 3.41128 -0.651856 0
M  V30 44001 C 4022.57 3.93407 -1.68566 0
M  V30 44002 C 4021.89 5.22411 -1.13979 0
M  V30 44003 C 4023.19 4.21783 -3.08053 0
M  V30 44004 H 4024.89 2.24336 -1.98276 0
M  V30 44005 H 4022.43 1.07802 -0.954713 0
M  V30 44006 H 4024.39 4.18328 -0.507865 0
M  V30 44007 H 4023.11 3.2509 0.313665 0
M  V30 44008 H 4021.77 3.18359 -1.81778 0
M  V30 44009 H 4021.42 5.02729 -0.165016 0
M  V30 44010 H 4021.12 5.58357 -1.8306 0
M  V30 44011 H 4022.64 6.02225 -1.00782 0
M  V30 44012 H 4024.06 4.89705 -2.98097 0
M  V30 44013 H 4022.45 4.68947 -3.74444 0
M  V30 44014 H 4023.52 3.28743 -3.56449 0
M  V30 44015 N 4024.87 1.05318 1.17243 0
M  V30 44016 C 4025.8 0.676349 2.2349 0
M  V30 44017 C 4026.78 -0.326478 1.66938 0
M  V30 44018 O 4027.96 -0.203789 1.93128 0
M  V30 44019 C 4025.09 0.0516366 3.47262 0
M  V30 44020 C 4024.05 0.979363 4.16644 0
M  V30 44021 C 4023.37 0.218463 5.34254 0
M  V30 44022 C 4024.67 2.30407 4.68732 0
M  V30 44023 H 4026.37 1.56459 2.55266 0
M  V30 44024 H 4023.91 0.753736 1.22698 0
M  V30 44025 H 4025.87 -0.223791 4.20805 0
M  V30 44026 H 4024.59 -0.871559 3.14756 0
M  V30 44027 H 4023.25 1.23938 3.45015 0
M  V30 44028 H 4022.9 -0.707537 4.97999 0
M  V30 44029 H 4022.6 0.836643 5.81613 0
M  V30 44030 H 4024.12 -0.0496501 6.1058 0
M  V30 44031 H 4025.53 2.08847 5.33906 0
M  V30 44032 H 4023.93 2.87634 5.26675 0
M  V30 44033 H 4025 2.94176 3.85472 0
M  V30 44034 N 4026.34 -1.33701 0.834377 0
M  V30 44035 C 4027.59 -1.97188 0.42426 0
M  V30 44036 C 4027.91 -1.66848 -1.02083 0
M  V30 44037 O 4029.11 -2.23914 -1.53541 0
M  V30 44038 C 4027.57 -3.52874 0.70769 0
M  V30 44039 C 4027.18 -3.92094 2.16716 0
M  V30 44040 C 4028.92 -4.22934 0.364302 0
M  V30 44041 C 4026.83 -5.4074 2.39488 0
M  V30 44042 H 4025.76 -0.737915 0.15491 0
M  V30 44043 H 4028.41 -1.52383 1.02233 0
M  V30 44044 H 4026.79 -3.9598 0.0393019 0
M  V30 44045 H 4027.96 -3.60059 2.87566 0
M  V30 44046 H 4026.28 -3.35003 2.47309 0
M  V30 44047 H 4028.88 -5.32242 0.512124 0
M  V30 44048 H 4029.22 -4.10503 -0.692302 0
M  V30 44049 H 4029.75 -3.85342 0.987737 0
M  V30 44050 H 4026.49 -5.58169 3.43697 0
M  V30 44051 H 4026.01 -5.74251 1.73194 0
M  V30 44052 H 4027.69 -6.07569 2.22417 0
M  V30 44053 N 4027.82 -0.590393 -1.46124 0
M  V30 44054 C 4029.1 -0.0116992 -1.95597 0
M  V30 44055 C 4029.48 1.45128 -1.53301 0
M  V30 44056 O 4028.83 2.14507 -0.787336 0
M  V30 44057 C 4029.04 -0.191788 -3.48473 0
M  V30 44058 C 4030.39 -0.0636078 -4.24552 0
M  V30 44059 O 4031.41 -0.121018 -3.55994 0
M  V30 44060 O 4030.27 0.0656811 -5.46461 0
M  V30 44061 H 4027.36 0.0454776 -0.825749 0
M  V30 44062 H 4029.91 -0.65925 -1.56371 0
M  V30 44063 H 4028.68 -1.20852 -3.7217 0
M  V30 44064 H 4028.3 0.491836 -3.94546 0
M  V30 44065 N 4029.3 1.54136 -0.328591 0
M  V30 44066 C 4030.53 2.05542 0.277008 0
M  V30 44067 C 4030.95 1.20288 1.44611 0
M  V30 44068 O 4030.31 0.213139 1.80043 0
M  V30 44069 C 4030.36 3.54045 0.684433 0
M  V30 44070 O 4029.46 3.71709 1.78623 0
M  V30 44071 H 4028.8 0.662185 0.0490663 0
M  V30 44072 H 4031.33 1.98927 -0.478461 0
M  V30 44073 H 4031.34 3.96406 0.965714 0
M  V30 44074 H 4030.02 4.1555 -0.170627 0
M  V30 44075 H 4028.59 3.41253 1.50337 0
M  V30 44076 N 4030.78 0.0568716 1.57497 0
M  V30 44077 C 4031.71 -0.91339 2.14894 0
M  V30 44078 C 4032.69 -1.32063 1.07208 0
M  V30 44079 O 4033.87 -1.39433 1.35174 0
M  V30 44080 C 4031 -2.18624 2.69853 0
M  V30 44081 C 4029.96 -1.91889 3.82574 0
M  V30 44082 C 4029.28 -3.25678 4.24073 0
M  V30 44083 C 4030.58 -1.23597 5.07465 0
M  V30 44084 H 4032.28 -0.435295 2.96219 0
M  V30 44085 H 4029.82 -0.207935 1.42491 0
M  V30 44086 H 4031.78 -2.86905 3.08648 0
M  V30 44087 H 4030.5 -2.6865 1.85728 0
M  V30 44088 H 4029.16 -1.26018 3.4426 0
M  V30 44089 H 4028.81 -3.73515 3.36891 0
M  V30 44090 H 4028.51 -3.08586 5.00049 0
M  V30 44091 H 4030.03 -3.95181 4.65473 0
M  V30 44092 H 4031.45 -1.81922 5.4367 0
M  V30 44093 H 4029.84 -1.16813 5.88621 0
M  V30 44094 H 4030.91 -0.212832 4.84433 0
M  V30 44095 N 4032.26 -1.56105 -0.216564 0
M  V30 44096 C 4033.19 -1.89316 -1.29198 0
M  V30 44097 C 4034.2 -0.781857 -1.42797 0
M  V30 44098 O 4035.39 -1.06018 -1.43605 0
M  V30 44099 C 4032.49 -2.09107 -2.66697 0
M  V30 44100 C 4031.66 -3.40152 -2.74983 0
M  V30 44101 C 4030.72 -3.49315 -3.9353 0
M  V30 44102 O 4029.75 -4.22307 -3.81635 0
M  V30 44103 N 4030.95 -2.80823 -5.08054 0
M  V30 44104 H 4033.72 -2.82157 -1.01033 0
M  V30 44105 H 4031.28 -1.56712 -0.406583 0
M  V30 44106 H 4033.27 -2.12547 -3.44392 0
M  V30 44107 H 4031.84 -1.22868 -2.87441 0
M  V30 44108 H 4031.06 -3.48766 -1.83727 0
M  V30 44109 H 4032.35 -4.26468 -2.77493 0
M  V30 44110 H 4031.74 -2.21308 -5.20614 0
M  V30 44111 H 4030.3 -2.89918 -5.83773 0
M  V30 44112 N 4033.73 0.483463 -1.50001 0
M  V30 44113 C 4035.01 1.24476 -1.50881 0
M  V30 44114 C 4035.39 2.09657 -0.24643 0
M  V30 44115 O 4034.74 2.15113 0.770623 0
M  V30 44116 C 4034.95 2.08643 -2.79766 0
M  V30 44117 C 4036.3 2.67247 -3.29945 0
M  V30 44118 O 4037.32 2.18897 -2.81003 0
M  V30 44119 O 4036.18 3.55312 -4.1523 0
M  V30 44120 H 4033.27 0.564195 -0.604659 0
M  V30 44121 H 4035.82 0.496297 -1.62281 0
M  V30 44122 H 4034.59 1.45793 -3.63126 0
M  V30 44123 H 4034.22 2.90648 -2.71311 0
M  V30 44124 N 4035.21 1.39371 0.735772 0
M  V30 44125 C 4036.16 1.3452 1.84088 0
M  V30 44126 C 4037.15 0.226212 1.59302 0
M  V30 44127 O 4038.34 0.46368 1.70819 0
M  V30 44128 C 4035.47 1.19025 3.22006 0
M  V30 44129 C 4034.55 2.35621 3.52624 0
M  V30 44130 N 4034.94 3.61093 3.54183 0
M  V30 44131 C 4033.24 2.28562 3.82982 0
M  V30 44132 C 4033.94 4.38192 3.82573 0
M  V30 44133 N 4032.92 3.67769 4.00308 0
M  V30 44134 H 4036.72 2.29498 1.83597 0
M  V30 44135 H 4034.24 1.32856 0.933977 0
M  V30 44136 H 4036.23 1.13633 4.01115 0
M  V30 44137 H 4034.89 0.249964 3.23736 0
M  V30 44138 H 4035.9 3.94527 3.35513 0
M  V30 44139 H 4032.58 1.42791 3.92323 0
M  V30 44140 H 4033.97 5.46948 3.90254 0
M  V30 44141 N 4036.69 -0.965875 1.24534 0
M  V30 44142 C 4037.94 -1.70341 1.08013 0
M  V30 44143 C 4038.25 -1.91859 -0.380704 0
M  V30 44144 O 4039.46 -2.63201 -0.666135 0
M  V30 44145 C 4037.92 -3.06614 1.88457 0
M  V30 44146 C 4037.52 -2.92931 3.38962 0
M  V30 44147 C 4039.27 -3.84227 1.80472 0
M  V30 44148 C 4037.17 -4.24525 4.11743 0
M  V30 44149 H 4036.1 -0.638784 0.400588 0
M  V30 44150 H 4038.76 -1.07615 1.48631 0
M  V30 44151 H 4037.14 -3.70179 1.40655 0
M  V30 44152 H 4038.31 -2.38367 3.94357 0
M  V30 44153 H 4036.63 -2.28782 3.47919 0
M  V30 44154 H 4039.22 -4.81675 2.3215 0
M  V30 44155 H 4039.57 -4.09111 0.770334 0
M  V30 44156 H 4040.1 -3.27391 2.25964 0
M  V30 44157 H 4036.84 -4.04833 5.15548 0
M  V30 44158 H 4036.36 -4.78897 3.61133 0
M  V30 44159 H 4038.04 -4.93133 4.18842 0
M  V30 44160 N 4038.17 -1.05938 -1.16683 0
M  V30 44161 C 4039.08 -0.677971 -2.2459 0
M  V30 44162 C 4040.1 0.304367 -1.71317 0
M  V30 44163 O 4041.27 0.15458 -2.00806 0
M  V30 44164 C 4038.34 -0.0664646 -3.46636 0
M  V30 44165 C 4037.4 -1.10021 -4.14962 0
M  V30 44166 C 4036.63 -0.51779 -5.31182 0
M  V30 44167 O 4036.85 0.670538 -5.66445 0
M  V30 44168 O 4035.79 -1.25573 -5.88655 0
M  V30 44169 H 4039.61 -1.57748 -2.59517 0
M  V30 44170 H 4037.2 -0.831417 -1.24128 0
M  V30 44171 H 4039.08 0.272995 -4.20515 0
M  V30 44172 H 4037.76 0.806579 -3.1349 0
M  V30 44173 H 4036.66 -1.49179 -3.43069 0
M  V30 44174 H 4038 -1.94466 -4.52155 0
M  V30 44175 N 4039.65 1.33256 -0.841456 0
M  V30 44176 C 4040.59 2.29161 -0.274527 0
M  V30 44177 C 4041.56 1.54449 0.611116 0
M  V30 44178 O 4042.75 1.82736 0.548836 0
M  V30 44179 C 4039.89 3.40814 0.542215 0
M  V30 44180 C 4039 4.30432 -0.36774 0
M  V30 44181 C 4038.14 5.29201 0.460354 0
M  V30 44182 C 4037.18 6.1046 -0.447829 0
M  V30 44183 N 4036.31 7.01265 0.342291 0
M  V30 44184 H 4041.15 2.77047 -1.09767 0
M  V30 44185 H 4038.69 1.36319 -0.552759 0
M  V30 44186 H 4040.65 4.04254 1.03125 0
M  V30 44187 H 4039.28 2.94114 1.3303 0
M  V30 44188 H 4038.33 3.6769 -0.975097 0
M  V30 44189 H 4039.64 4.87292 -1.06529 0
M  V30 44190 H 4038.8 5.98181 1.0131 0
M  V30 44191 H 4037.54 4.72926 1.19133 0
M  V30 44192 H 4036.54 5.40395 -1.01257 0
M  V30 44193 H 4037.77 6.68819 -1.17721 0
M  V30 44194 H 4035.71 6.47435 1.0566 0
M  V30 44195 H 4035.63 7.55418 -0.296489 0
M  V30 44196 H 4036.9 7.74549 0.877195 0
M  V30 44197 N 4041.13 0.598134 1.45809 0
M  V30 44198 C 4042.37 0.0872775 2.01511 0
M  V30 44199 C 4042.69 -1.28639 1.47347 0
M  V30 44200 O 4043.89 -1.88945 1.94967 0
M  V30 44201 C 4042.35 0.10538 3.59746 0
M  V30 44202 C 4041.96 1.47832 4.22906 0
M  V30 44203 C 4043.7 -0.350727 4.23049 0
M  V30 44204 C 4041.61 1.45331 5.73265 0
M  V30 44205 H 4040.54 0.0288594 0.753447 0
M  V30 44206 H 4043.19 0.752066 1.6738 0
M  V30 44207 H 4041.57 -0.625878 3.91023 0
M  V30 44208 H 4042.75 2.23053 4.03217 0
M  V30 44209 H 4041.06 1.87573 3.7176 0
M  V30 44210 H 4043.66 -0.388467 5.33287 0
M  V30 44211 H 4044 -1.37148 3.9306 0
M  V30 44212 H 4044.53 0.326958 3.96454 0
M  V30 44213 H 4041.27 2.45136 6.07938 0
M  V30 44214 H 4040.79 0.743541 5.95174 0
M  V30 44215 H 4042.47 1.17286 6.36281 0
M  V30 44216 N 4042.6 -1.5396 0.33676 0
M  V30 44217 C 4043.54 -2.21069 -0.566033 0
M  V30 44218 C 4044.51 -1.19232 -1.10556 0
M  V30 44219 O 4045.7 -1.48024 -1.1671 0
M  V30 44220 C 4042.83 -2.88278 -1.77801 0
M  V30 44221 C 4041.87 -4.03947 -1.36856 0
M  V30 44222 S 4042.7 -5.34048 -0.394088 0
M  V30 44223 C 4043.86 -6.04757 -1.61305 0
M  V30 44224 H 4044.09 -2.973 0.00398621 0
M  V30 44225 H 4041.63 -1.53926 0.120835 0
M  V30 44226 H 4043.58 -3.27621 -2.47336 0
M  V30 44227 H 4042.25 -2.11826 -2.31924 0
M  V30 44228 H 4041.44 -4.49883 -2.27202 0
M  V30 44229 H 4041.04 -3.66346 -0.752768 0
M  V30 44230 H 4043.33 -6.27738 -2.54855 0
M  V30 44231 H 4044.28 -6.97933 -1.1956 0
M  V30 44232 H 4044.68 -5.3483 -1.80602 0
M  V30 44233 N 4044.08 -0.0652232 -1.57465 0
M  V30 44234 C 4045.04 0.889597 -2.11232 0
M  V30 44235 C 4046.04 1.2307 -1.03491 0
M  V30 44236 O 4047.23 1.16506 -1.29507 0
M  V30 44237 C 4044.37 2.1951 -2.60822 0
M  V30 44238 H 4045.56 0.423249 -2.96898 0
M  V30 44239 H 4043.11 0.18339 -1.5522 0
M  V30 44240 H 4043.85 2.70696 -1.7859 0
M  V30 44241 H 4043.63 1.96051 -3.39568 0
M  V30 44242 H 4045.12 2.87876 -3.02518 0
M  V30 44243 N 4045.56 1.56218 0.208282 0
M  V30 44244 C 4046.81 1.79845 0.930693 0
M  V30 44245 C 4047.13 0.63624 1.83799 0
M  V30 44246 O 4046.39 -0.378722 1.92 0
M  V30 44247 C 4046.69 3.09348 1.78993 0
M  V30 44248 C 4046.35 4.38867 1.03474 0
M  V30 44249 C 4045.02 4.74055 0.82618 0
M  V30 44250 C 4047.37 5.18773 0.502419 0
M  V30 44251 C 4044.7 5.86654 0.0736086 0
M  V30 44252 C 4047.05 6.32156 -0.236875 0
M  V30 44253 C 4045.71 6.65937 -0.45657 0
M  V30 44254 H 4044.98 0.658101 0.340565 0
M  V30 44255 H 4047.63 1.90474 0.197937 0
M  V30 44256 H 4045.93 2.93899 2.59096 0
M  V30 44257 H 4047.63 3.24833 2.35127 0
M  V30 44258 H 4044.22 4.11245 1.20729 0
M  V30 44259 H 4048.41 4.92012 0.650984 0
M  V30 44260 H 4043.66 6.11307 -0.106705 0
M  V30 44261 H 4047.84 6.93296 -0.656796 0
M  V30 44262 H 4045.46 7.5303 -1.04163 0
M  V30 44263 N 4047.04 -0.475502 1.50256 0
M  V30 44264 C 4048.45 -0.808882 1.37584 0
M  V30 44265 C 4048.65 -1.96891 0.428529 0
M  V30 44266 O 4047.71 -2.52163 -0.130469 0
M  V30 44267 C 4049.02 -1.1251 2.78858 0
M  V30 44268 C 4050.57 -1.23181 2.87742 0
M  V30 44269 C 4051.05 -1.58118 4.2984 0
M  V30 44270 N 4052.54 -1.65118 4.3277 0
M  V30 44271 C 4053.27 -1.93647 5.39711 0
M  V30 44272 N 4052.77 -2.20226 6.56866 0
M  V30 44273 N 4054.56 -1.95112 5.27151 0
M  V30 44274 H 4046.71 0.289047 2.10424 0
M  V30 44275 H 4048.97 0.0667879 0.945644 0
M  V30 44276 H 4048.68 -0.34583 3.49996 0
M  V30 44277 H 4048.55 -2.06238 3.15825 0
M  V30 44278 H 4050.94 -2.00176 2.16826 0
M  V30 44279 H 4051.02 -0.274431 2.54324 0
M  V30 44280 H 4050.67 -0.816648 5.01292 0
M  V30 44281 H 4050.6 -2.54999 4.60742 0
M  V30 44282 H 4053.09 -1.46636 3.48291 0
M  V30 44283 H 4053.4 -2.41255 7.34177 0
M  V30 44284 H 4051.75 -2.17627 6.60048 0
M  V30 44285 H 4054.94 -1.73841 4.34623 0
M  V30 44286 H 4055.11 -2.1701 6.10582 0
M  V30 44287 N 4048.52 -1.39759 -0.72837 0
M  V30 44288 C 4049.43 -1.41296 -1.87276 0
M  V30 44289 C 4050.44 -0.306995 -1.7127 0
M  V30 44290 O 4051.62 -0.549536 -1.93758 0
M  V30 44291 C 4048.68 -1.26135 -3.22941 0
M  V30 44292 C 4047.74 -2.46763 -3.51293 0
M  V30 44293 C 4046.98 -2.32315 -4.80484 0
M  V30 44294 O 4047.2 -1.33015 -5.54674 0
M  V30 44295 O 4046.13 -3.21434 -5.08885 0
M  V30 44296 H 4049.96 -2.37776 -1.88935 0
M  V30 44297 H 4047.54 -1.20945 -0.877082 0
M  V30 44298 H 4049.43 -1.19839 -4.04001 0
M  V30 44299 H 4048.1 -0.327549 -3.22039 0
M  V30 44300 H 4047.01 -2.58636 -2.70293 0
M  V30 44301 H 4048.34 -3.3886 -3.5698 0
M  V30 44302 N 4049.99 0.959257 -1.25044 0
M  V30 44303 C 4050.9 2.08904 -1.06753 0
M  V30 44304 C 4051.92 1.73999 -0.00594864 0
M  V30 44305 O 4053.1 2.00345 -0.205911 0
M  V30 44306 C 4050.16 3.39898 -0.683413 0
M  V30 44307 C 4049.22 3.88699 -1.82241 0
M  V30 44308 C 4048.45 5.1344 -1.45653 0
M  V30 44309 O 4048.68 5.69324 -0.350112 0
M  V30 44310 O 4047.61 5.56836 -2.28512 0
M  V30 44311 H 4051.44 2.27235 -2.01489 0
M  V30 44312 H 4049.02 1.07316 -1.0394 0
M  V30 44313 H 4050.9 4.18645 -0.481109 0
M  V30 44314 H 4049.58 3.22848 0.234739 0
M  V30 44315 H 4048.49 3.10976 -2.07954 0
M  V30 44316 H 4049.82 4.10239 -2.71964 0
M  V30 44317 N 4051.47 1.06556 1.16119 0
M  V30 44318 C 4052.72 0.778903 1.86054 0
M  V30 44319 C 4053.03 -0.697325 1.82748 0
M  V30 44320 O 4054.24 -1.09845 2.48287 0
M  V30 44321 C 4052.7 1.34321 3.33895 0
M  V30 44322 C 4052.3 2.84987 3.45668 0
M  V30 44323 C 4054.05 1.13422 4.09067 0
M  V30 44324 C 4051.96 3.34649 4.8761 0
M  V30 44325 H 4050.89 0.28769 0.696958 0
M  V30 44326 H 4053.54 1.2846 1.31035 0
M  V30 44327 H 4051.92 0.765276 3.88535 0
M  V30 44328 H 4053.09 3.48755 3.01175 0
M  V30 44329 H 4051.41 3.04584 2.83932 0
M  V30 44330 H 4054 1.48011 5.13806 0
M  V30 44331 H 4054.35 0.0727451 4.16236 0
M  V30 44332 H 4054.88 1.67808 3.60673 0
M  V30 44333 H 4051.62 4.40287 4.85621 0
M  V30 44334 H 4051.14 2.75631 5.32717 0
M  V30 44335 H 4052.82 3.30132 5.56437 0
M  V30 44336 N 4052.95 -1.32808 0.848511 0
M  V30 44337 C 4053.91 -2.27309 0.293784 0
M  V30 44338 C 4054.91 -1.51354 -0.543016 0
M  V30 44339 O 4056.1 -1.70536 -0.355413 0
M  V30 44340 C 4053.24 -3.35842 -0.585035 0
M  V30 44341 H 4054.43 -2.77887 1.12778 0
M  V30 44342 H 4051.98 -1.43375 0.622355 0
M  V30 44343 H 4052.72 -2.90522 -1.44109 0
M  V30 44344 H 4052.5 -3.92098 0.0138467 0
M  V30 44345 H 4053.99 -4.0627 -0.966132 0
M  V30 44346 N 4054.43 -0.605858 -1.45489 0
M  V30 44347 C 4055.84 -0.185623 -1.85775 0
M  V30 44348 C 4056.19 1.25706 -1.5064 0
M  V30 44349 O 4055.32 1.95289 -0.932261 0
M  V30 44350 C 4055.91 -0.330103 -3.37188 0
M  V30 44351 C 4054.47 0.0354272 -3.76383 0
M  V30 44352 C 4053.62 -0.655345 -2.69445 0
M  V30 44353 H 4056.57 -0.812648 -1.36315 0
M  V30 44354 H 4056.59 0.438169 -3.77969 0
M  V30 44355 H 4056.1 -1.3802 -3.62729 0
M  V30 44356 H 4054.2 1.08477 -3.5646 0
M  V30 44357 H 4054.31 -0.357019 -4.77768 0
M  V30 44358 H 4052.68 -0.0931682 -2.5453 0
M  V30 44359 H 4053.46 -1.70754 -2.97822 0
M  V30 44360 N 4055.91 1.53779 -0.34492 0
M  V30 44361 C 4057.16 2.00117 0.252181 0
M  V30 44362 C 4057.47 1.23666 1.51546 0
M  V30 44363 O 4058.67 1.60488 2.18988 0
M  V30 44364 C 4057.13 3.56411 0.49992 0
M  V30 44365 C 4056.74 4.41719 -0.747532 0
M  V30 44366 C 4058.48 4.11161 1.05581 0
M  V30 44367 C 4056.39 5.89525 -0.470517 0
M  V30 44368 H 4055.32 0.747603 0.0980102 0
M  V30 44369 H 4057.97 1.77629 -0.460462 0
M  V30 44370 H 4056.35 3.74971 1.2733 0
M  V30 44371 H 4057.53 4.34935 -1.52212 0
M  V30 44372 H 4055.84 3.97969 -1.22515 0
M  V30 44373 H 4058.44 5.19202 1.27804 0
M  V30 44374 H 4058.78 3.64465 2.01174 0
M  V30 44375 H 4059.31 3.96318 0.343097 0
M  V30 44376 H 4056.05 6.40458 -1.39621 0
M  V30 44377 H 4055.57 5.9921 0.26596 0
M  V30 44378 H 4057.25 6.4694 -0.0882744 0
M  V30 44379 N 4057.38 0.0735731 1.57428 0
M  V30 44380 C 4058.33 -0.910711 2.1403 0
M  V30 44381 C 4059.33 -1.30703 1.07764 0
M  V30 44382 O 4060.53 -1.28407 1.26141 0
M  V30 44383 H 4056.91 -0.31164 0.684386 0
M  V30 44384 H 4058.88 -0.408416 2.95592 0
M  V30 44385 C 4057.63 -2.16815 2.71821 0
M  V30 44386 H 4056.95 -1.87203 3.53263 0
M  V30 44387 H 4058.39 -2.83794 3.15019 0
M  V30 44388 C 4056.85 -2.92786 1.66667 0
M  V30 44389 O 4057.38 -3.86552 1.09272 0
M  V30 44390 N 4055.59 -2.55926 1.3766 0
M  V30 44391 H 4055.13 -1.79749 1.84521 0
M  V30 44392 H 4055.09 -3.07061 0.675361 0
M  V30 44393 N 4058.86 -1.56326 -0.199995 0
M  V30 44394 C 4060.11 -1.80336 -0.921142 0
M  V30 44395 C 4060.44 -0.645979 -1.83459 0
M  V30 44396 O 4059.69 0.368534 -1.92199 0
M  V30 44397 C 4059.99 -3.10293 -1.7735 0
M  V30 44398 C 4059.66 -4.39409 -1.01145 0
M  V30 44399 C 4058.32 -4.74486 -0.801028 0
M  V30 44400 C 4060.67 -5.19032 -0.4749 0
M  V30 44401 C 4058 -5.86685 -0.0424959 0
M  V30 44402 C 4060.35 -6.32022 0.270397 0
M  V30 44403 C 4059.02 -6.65685 0.49188 0
M  V30 44404 H 4058.29 -0.659898 -0.33707 0
M  V30 44405 H 4060.93 -1.90577 -0.187833 0
M  V30 44406 H 4059.24 -2.95269 -2.57534 0
M  V30 44407 H 4060.93 -3.26075 -2.33401 0
M  V30 44408 H 4057.52 -4.1188 -1.18546 0
M  V30 44409 H 4061.71 -4.9235 -0.624882 0
M  V30 44410 H 4056.96 -6.11242 0.139123 0
M  V30 44411 H 4061.14 -6.92938 0.693554 0
M  V30 44412 H 4058.77 -7.52467 1.08155 0
M  V30 44413 N 4060.34 0.467527 -1.50506 0
M  V30 44414 C 4061.29 1.56508 -1.69629 0
M  V30 44415 C 4062.26 1.57159 -0.537622 0
M  V30 44416 O 4063.44 1.74634 -0.768604 0
M  V30 44417 C 4060.58 2.94457 -1.7997 0
M  V30 44418 C 4059.7 3.03567 -3.07362 0
M  V30 44419 C 4058.83 4.32453 -3.08477 0
M  V30 44420 C 4057.87 4.35318 -4.30307 0
M  V30 44421 N 4057.01 5.55681 -4.29142 0
M  V30 44422 H 4061.85 1.39506 -2.63329 0
M  V30 44423 H 4059.38 0.678216 -1.30532 0
M  V30 44424 H 4061.34 3.74459 -1.83947 0
M  V30 44425 H 4059.97 3.10085 -0.897068 0
M  V30 44426 H 4059.02 2.16416 -3.12839 0
M  V30 44427 H 4060.34 3.01544 -3.97332 0
M  V30 44428 H 4059.49 5.20805 -3.11202 0
M  V30 44429 H 4058.23 4.37089 -2.16343 0
M  V30 44430 H 4057.23 3.45363 -4.2779 0
M  V30 44431 H 4058.46 4.3237 -5.23672 0
M  V30 44432 H 4056.4 5.61096 -3.39863 0
M  V30 44433 H 4056.32 5.55414 -5.12885 0
M  V30 44434 H 4057.59 6.46149 -4.36018 0
M  V30 44435 N 4061.82 1.40143 0.720948 0
M  V30 44436 C 4063.06 1.38335 1.48294 0
M  V30 44437 C 4063.4 -0.016185 1.94193 0
M  V30 44438 O 4062.67 -0.983823 1.67783 0
M  V30 44439 C 4062.96 2.36812 2.71279 0
M  V30 44440 C 4062.81 3.85767 2.31309 0
M  V30 44441 C 4064.13 2.32904 3.73422 0
M  V30 44442 H 4061.25 0.503803 0.537914 0
M  V30 44443 H 4063.89 1.71239 0.823235 0
M  V30 44444 H 4062.04 2.08883 3.27567 0
M  V30 44445 H 4063.71 4.24502 1.80544 0
M  V30 44446 H 4061.95 4.01861 1.63372 0
M  V30 44447 H 4062.62 4.50179 3.19441 0
M  V30 44448 H 4065.1 2.5763 3.2675 0
M  V30 44449 H 4063.98 3.03864 4.57119 0
M  V30 44450 H 4064.24 1.33883 4.2134 0
M  V30 44451 N 4063.3 -0.952612 1.25551 0
M  V30 44452 C 4064.24 -2.04961 1.06112 0
M  V30 44453 C 4065.21 -1.66072 -0.030358 0
M  V30 44454 O 4066.4 -1.90375 0.127211 0
M  V30 44455 C 4063.54 -3.38171 0.68805 0
M  V30 44456 C 4062.65 -3.90165 1.85459 0
M  V30 44457 C 4061.79 -5.1171 1.42569 0
M  V30 44458 C 4060.83 -5.55938 2.56124 0
M  V30 44459 N 4059.96 -6.68693 2.13996 0
M  V30 44460 H 4064.8 -2.20921 1.99995 0
M  V30 44461 H 4062.34 -1.08259 0.995914 0
M  V30 44462 H 4064.3 -4.14737 0.452695 0
M  V30 44463 H 4062.93 -3.22091 -0.213789 0
M  V30 44464 H 4061.98 -3.10102 2.2032 0
M  V30 44465 H 4063.29 -4.18935 2.7073 0
M  V30 44466 H 4062.45 -5.95699 1.15011 0
M  V30 44467 H 4061.18 -4.84659 0.543736 0
M  V30 44468 H 4060.19 -4.70513 2.84425 0
M  V30 44469 H 4061.41 -5.84996 3.44901 0
M  V30 44470 H 4059.36 -6.43347 1.28219 0
M  V30 44471 H 4059.28 -6.96991 2.92813 0
M  V30 44472 H 4060.55 -7.56085 1.89619 0
M  V30 44473 N 4064.77 -1.0717 -1.15553 0
M  V30 44474 C 4066 -0.814803 -1.9018 0
M  V30 44475 C 4066.42 0.631798 -1.77915 0
M  V30 44476 O 4065.77 1.43322 -1.12983 0
M  V30 44477 C 4065.83 -1.21161 -3.40591 0
M  V30 44478 O 4065.55 -2.60146 -3.525 0
M  V30 44479 C 4067.05 -0.983751 -4.32247 0
M  V30 44480 H 4064.27 -0.294746 -0.602798 0
M  V30 44481 H 4066.81 -1.42767 -1.46417 0
M  V30 44482 H 4064.97 -0.643108 -3.82025 0
M  V30 44483 H 4065.38 -2.76283 -4.45834 0
M  V30 44484 H 4066.85 -1.31093 -5.36208 0
M  V30 44485 H 4067.33 0.080025 -4.39127 0
M  V30 44486 H 4067.94 -1.53707 -3.96553 0
M  V30 44487 N 4066.25 1.32356 -0.855542 0
M  V30 44488 C 4067.5 1.97513 -0.460037 0
M  V30 44489 C 4067.83 1.67541 0.982023 0
M  V30 44490 O 4067.11 0.96412 1.68923 0
M  V30 44491 C 4067.39 3.53217 -0.700702 0
M  V30 44492 C 4067.24 3.92816 -2.19125 0
M  V30 44493 C 4068.56 4.39817 -0.157675 0
M  V30 44494 H 4065.68 0.717452 -0.168618 0
M  V30 44495 H 4068.32 1.56724 -1.07413 0
M  V30 44496 H 4066.47 3.88092 -0.178005 0
M  V30 44497 H 4068.15 3.68115 -2.78009 0
M  V30 44498 H 4066.39 3.41943 -2.6694 0
M  V30 44499 H 4067.06 5.01326 -2.31033 0
M  V30 44500 H 4069.54 4.11683 -0.604669 0
M  V30 44501 H 4068.41 5.47747 -0.355628 0
M  V30 44502 H 4068.67 4.32 0.939603 0
M  V30 44503 N 4067.73 0.613565 1.45166 0
M  V30 44504 C 4068.68 -0.114182 2.3232 0
M  V30 44505 C 4069.67 -0.853608 1.46321 0
M  V30 44506 O 4070.88 -0.768497 1.6277 0
M  V30 44507 H 4067.25 -0.055679 0.749936 0
M  V30 44508 H 4069.23 0.639226 2.91473 0
M  V30 44509 C 4067.97 -1.09411 3.30037 0
M  V30 44510 H 4067.3 -0.534562 3.9621 0
M  V30 44511 H 4068.74 -1.57313 3.93737 0
M  V30 44512 C 4067.2 -2.17065 2.57652 0
M  V30 44513 O 4067.73 -3.24895 2.36233 0
M  V30 44514 N 4065.93 -1.92513 2.17686 0
M  V30 44515 H 4065.48 -1.04829 2.35305 0
M  V30 44516 H 4065.44 -2.64747 1.69578 0
M  V30 44517 N 4069.21 -1.53594 0.353071 0
M  V30 44518 C 4070.49 -1.93343 -0.29627 0
M  V30 44519 C 4070.87 -1.28551 -1.67445 0
M  V30 44520 O 4070.21 -0.43994 -2.24225 0
M  V30 44521 C 4070.42 -3.47148 -0.359018 0
M  V30 44522 C 4071.77 -4.20263 -0.605332 0
M  V30 44523 O 4072.8 -3.53463 -0.440743 0
M  V30 44524 O 4071.66 -5.38617 -0.924865 0
M  V30 44525 H 4068.75 -0.808302 -0.174865 0
M  V30 44526 H 4071.3 -1.64798 0.404943 0
M  V30 44527 H 4070.07 -3.86552 0.607752 0
M  V30 44528 H 4069.69 -3.81889 -1.10663 0
M  V30 44529 N 4070.69 -0.0819208 -1.57387 0
M  V30 44530 C 4071.62 0.879086 -2.1632 0
M  V30 44531 C 4072.6 1.3034 -1.09295 0
M  V30 44532 O 4073.78 1.37265 -1.37375 0
M  V30 44533 C 4070.91 2.14304 -2.73297 0
M  V30 44534 C 4069.87 1.85778 -3.85578 0
M  V30 44535 C 4069.19 3.1889 -4.29201 0
M  V30 44536 C 4070.49 1.15508 -5.09367 0
M  V30 44537 H 4072.19 0.388114 -2.96874 0
M  V30 44538 H 4069.73 0.18524 -1.42804 0
M  V30 44539 H 4071.69 2.81958 -3.13173 0
M  V30 44540 H 4070.41 2.65661 -1.89979 0
M  V30 44541 H 4069.07 1.20526 -3.46221 0
M  V30 44542 H 4068.72 3.68108 -3.42791 0
M  V30 44543 H 4068.42 3.00591 -5.04895 0
M  V30 44544 H 4069.94 3.87725 -4.71701 0
M  V30 44545 H 4071.36 1.73249 -5.46496 0
M  V30 44546 H 4069.75 1.07433 -5.90405 0
M  V30 44547 H 4070.82 0.135736 -4.8471 0
M  V30 44548 N 4072.17 1.5643 0.191702 0
M  V30 44549 C 4073.39 1.85291 0.931771 0
M  V30 44550 C 4073.82 0.665895 1.75919 0
M  V30 44551 O 4073.17 -0.385282 1.77159 0
M  V30 44552 C 4073.22 3.12407 1.80094 0
M  V30 44553 O 4072.33 2.93198 2.90015 0
M  V30 44554 H 4071.67 0.610038 0.262202 0
M  V30 44555 H 4074.2 2.03659 0.195992 0
M  V30 44556 H 4074.21 3.43288 2.20493 0
M  V30 44557 H 4072.88 3.98422 1.19302 0
M  V30 44558 H 4071.46 2.73623 2.53347 0
M  V30 44559 N 4073.64 -0.459538 1.50751 0
M  V30 44560 C 4074.87 -1.23839 1.66369 0
M  V30 44561 C 4075.29 -1.84789 0.351387 0
M  V30 44562 O 4074.65 -1.67818 -0.686073 0
M  V30 44563 C 4074.7 -2.31444 2.76525 0
M  V30 44564 O 4073.8 -3.36382 2.38582 0
M  V30 44565 H 4073.14 -0.363823 0.555454 0
M  V30 44566 H 4075.67 -0.545503 1.97194 0
M  V30 44567 H 4075.68 -2.76578 2.99948 0
M  V30 44568 H 4074.36 -1.86456 3.71762 0
M  V30 44569 H 4072.94 -2.96879 2.25648 0
M  V30 44570 N 4075.12 -1.40523 -0.713506 0
M  V30 44571 C 4076.05 -1.36871 -1.83845 0
M  V30 44572 C 4077.07 -0.273774 -1.60482 0
M  V30 44573 O 4078.26 -0.534268 -1.70317 0
M  V30 44574 C 4075.36 -1.1077 -3.20286 0
M  V30 44575 C 4074.53 -2.31959 -3.70829 0
M  V30 44576 C 4073.59 -2.01985 -4.85889 0
M  V30 44577 O 4072.61 -2.74869 -4.98433 0
M  V30 44578 N 4073.82 -0.999086 -5.71838 0
M  V30 44579 H 4076.58 -2.33823 -1.87475 0
M  V30 44580 H 4074.14 -1.34904 -0.895127 0
M  V30 44581 H 4076.13 -0.887002 -3.9486 0
M  V30 44582 H 4074.7 -0.224781 -3.11791 0
M  V30 44583 H 4073.92 -2.69845 -2.87363 0
M  V30 44584 H 4075.21 -3.12745 -4.01333 0
M  V30 44585 H 4074.61 -0.395492 -5.64316 0
M  V30 44586 H 4073.17 -0.838291 -6.46387 0
M  V30 44587 N 4076.6 0.94594 -1.26054 0
M  V30 44588 C 4077.53 2.06132 -1.0969 0
M  V30 44589 C 4078.51 1.701 -0.00344503 0
M  V30 44590 O 4079.7 1.93414 -0.174593 0
M  V30 44591 C 4076.83 3.39668 -0.724067 0
M  V30 44592 C 4075.78 3.89743 -1.76873 0
M  V30 44593 C 4075.11 5.19875 -1.25034 0
M  V30 44594 C 4076.41 4.15154 -3.1693 0
M  V30 44595 H 4078.1 2.2008 -2.0299 0
M  V30 44596 H 4075.65 1.05753 -0.977364 0
M  V30 44597 H 4077.6 4.17157 -0.596485 0
M  V30 44598 H 4076.32 3.25682 0.244638 0
M  V30 44599 H 4074.98 3.14431 -1.8849 0
M  V30 44600 H 4074.63 5.02266 -0.271615 0
M  V30 44601 H 4074.33 5.54349 -1.94863 0
M  V30 44602 H 4075.85 5.99952 -1.13533 0
M  V30 44603 H 4077.27 4.83272 -3.08417 0
M  V30 44604 H 4075.66 4.60899 -3.84307 0
M  V30 44605 H 4076.73 3.21108 -3.63342 0
M  V30 44606 N 4078.08 1.07781 1.14983 0
M  V30 44607 C 4079.3 0.824969 1.90287 0
M  V30 44608 C 4079.73 -0.616493 1.7771 0
M  V30 44609 O 4079.09 -1.43128 1.11284 0
M  V30 44610 C 4079.13 1.24354 3.3848 0
M  V30 44611 O 4078.24 0.391526 4.10537 0
M  V30 44612 H 4077.58 0.300173 0.592277 0
M  V30 44613 H 4080.11 1.43757 1.45585 0
M  V30 44614 H 4080.12 1.22162 3.89282 0
M  V30 44615 H 4078.79 2.29341 3.46952 0
M  V30 44616 H 4077.37 0.476312 3.69845 0
M  V30 44617 N 4079.56 -1.31901 0.862549 0
M  V30 44618 C 4080.97 -1.79214 0.523376 0
M  V30 44619 C 4081.32 -1.7115 -0.95928 0
M  V30 44620 O 4080.44 -1.27479 -1.74866 0
M  V30 44621 C 4081.04 -3.25405 0.943252 0
M  V30 44622 C 4079.6 -3.70642 0.655854 0
M  V30 44623 C 4078.74 -2.52844 1.13866 0
M  V30 44624 H 4081.69 -1.19088 1.04899 0
M  V30 44625 H 4081.72 -3.79591 0.26286 0
M  V30 44626 H 4081.23 -3.31242 2.02238 0
M  V30 44627 H 4079.33 -3.70313 -0.412226 0
M  V30 44628 H 4079.44 -4.63103 1.22768 0
M  V30 44629 H 4077.81 -2.48498 0.558659 0
M  V30 44630 H 4078.59 -2.61431 2.22506 0
M  V30 44631 N 4081.03 -0.621255 -1.44838 0
M  V30 44632 C 4081.96 0.0765876 -2.33374 0
M  V30 44633 C 4082.95 0.844906 -1.47632 0
M  V30 44634 O 4084.13 0.812749 -1.76375 0
M  V30 44635 C 4081.26 1.06544 -3.30554 0
M  V30 44636 C 4080.21 0.409421 -4.26037 0
M  V30 44637 C 4079.54 1.50748 -5.1301 0
M  V30 44638 C 4080.84 -0.678085 -5.1788 0
M  V30 44639 H 4082.53 -0.662709 -2.91973 0
M  V30 44640 H 4080.08 -0.320142 -1.40396 0
M  V30 44641 H 4082.03 1.5623 -3.9137 0
M  V30 44642 H 4080.76 1.8355 -2.70142 0
M  V30 44643 H 4079.42 -0.0666965 -3.66539 0
M  V30 44644 H 4079.06 2.26817 -4.48958 0
M  V30 44645 H 4078.76 1.07397 -5.77702 0
M  V30 44646 H 4080.29 2.00634 -5.76696 0
M  V30 44647 H 4081.7 -0.264738 -5.72688 0
M  V30 44648 H 4080.1 -1.03415 -5.91122 0
M  V30 44649 H 4081.17 -1.54922 -4.59486 0
M  V30 44650 N 4082.51 1.53405 -0.361211 0
M  V30 44651 C 4083.79 1.93498 0.286013 0
M  V30 44652 C 4084.17 1.29437 1.66761 0
M  V30 44653 O 4083.52 0.451825 2.23988 0
M  V30 44654 C 4083.73 3.47334 0.340602 0
M  V30 44655 C 4085.08 4.20578 0.583036 0
M  V30 44656 O 4086.1 3.53691 0.421992 0
M  V30 44657 O 4084.96 5.391 0.896288 0
M  V30 44658 H 4082.05 0.809218 0.170576 0
M  V30 44659 H 4084.6 1.64581 -0.413677 0
M  V30 44660 H 4083.37 3.86224 -0.628243 0
M  V30 44661 H 4082.99 3.82471 1.08636 0
M  V30 44662 N 4083.99 0.0902663 1.57341 0
M  V30 44663 C 4084.92 -0.867602 2.16783 0
M  V30 44664 C 4085.9 -1.29759 1.09985 0
M  V30 44665 O 4087.09 -1.36534 1.38101 0
M  V30 44666 C 4084.22 -2.12851 2.7443 0
M  V30 44667 C 4083.17 -1.83731 3.86558 0
M  V30 44668 C 4082.5 -3.16609 4.30886 0
M  V30 44669 C 4083.8 -1.12805 5.09973 0
M  V30 44670 H 4085.49 -0.372364 2.97075 0
M  V30 44671 H 4083.04 -0.177664 1.429 0
M  V30 44672 H 4084.99 -2.80294 3.14664 0
M  V30 44673 H 4083.71 -2.6465 1.91385 0
M  V30 44674 H 4082.37 -1.18688 3.46856 0
M  V30 44675 H 4082.02 -3.66285 3.44738 0
M  V30 44676 H 4081.72 -2.97909 5.06482 0
M  V30 44677 H 4083.24 -3.85218 4.7375 0
M  V30 44678 H 4084.66 -1.70349 5.47407 0
M  V30 44679 H 4083.06 -1.04301 5.90966 0
M  V30 44680 H 4084.13 -0.110029 4.84775 0
M  V30 44681 N 4085.47 -1.56529 -0.183403 0
M  V30 44682 C 4086.42 -1.91875 -1.23158 0
M  V30 44683 C 4087.4 -0.785701 -1.40412 0
M  V30 44684 O 4088.59 -1.04873 -1.42586 0
M  V30 44685 C 4085.72 -2.27181 -2.57378 0
M  V30 44686 C 4084.81 -3.46971 -2.43869 0
M  V30 44687 N 4085.2 -4.64555 -2.00055 0
M  V30 44688 C 4083.5 -3.5134 -2.7473 0
M  V30 44689 C 4084.2 -5.46705 -1.98719 0
M  V30 44690 N 4083.18 -4.87423 -2.40666 0
M  V30 44691 H 4086.98 -2.80279 -0.884346 0
M  V30 44692 H 4084.49 -1.57604 -0.391763 0
M  V30 44693 H 4086.49 -2.50693 -3.33105 0
M  V30 44694 H 4085.15 -1.40109 -2.92915 0
M  V30 44695 H 4086.16 -4.89002 -1.70581 0
M  V30 44696 H 4082.84 -2.74715 -3.14385 0
M  V30 44697 H 4084.23 -6.50906 -1.66645 0
M  V30 44698 N 4086.95 0.451537 -1.50993 0
M  V30 44699 C 4088.36 1.03186 -1.55594 0
M  V30 44700 C 4088.71 1.92661 -0.370957 0
M  V30 44701 O 4087.83 2.10209 0.513935 0
M  V30 44702 C 4088.43 1.87813 -2.81978 0
M  V30 44703 C 4086.99 2.4092 -2.89197 0
M  V30 44704 C 4086.13 1.19761 -2.50105 0
M  V30 44705 H 4089.09 0.233361 -1.56975 0
M  V30 44706 H 4089.11 2.73108 -2.64938 0
M  V30 44707 H 4088.62 1.22665 -3.68205 0
M  V30 44708 H 4086.72 3.09564 -2.07367 0
M  V30 44709 H 4086.83 2.74689 -3.92534 0
M  V30 44710 H 4085.2 1.53853 -2.02981 0
M  V30 44711 H 4085.98 0.562457 -3.38661 0
M  V30 44712 N 4088.42 1.409 0.706044 0
M  V30 44713 C 4089.65 1.43224 1.50006 0
M  V30 44714 C 4090.07 0.0362488 1.88065 0
M  V30 44715 O 4089.43 -0.958009 1.53922 0
M  V30 44716 C 4089.48 2.33756 2.74573 0
M  V30 44717 O 4088.58 1.78738 3.71654 0
M  V30 44718 H 4087.93 0.486509 0.451891 0
M  V30 44719 H 4090.46 1.85241 0.868739 0
M  V30 44720 H 4090.47 2.49272 3.22998 0
M  V30 44721 H 4089.14 3.35193 2.46208 0
M  V30 44722 H 4087.72 1.72618 3.30541 0
M  V30 44723 N 4089.9 -0.939242 1.26554 0
M  V30 44724 C 4090.83 -2.05547 1.10782 0
M  V30 44725 C 4091.81 -1.70095 0.0124658 0
M  V30 44726 O 4093 -1.93318 0.184848 0
M  V30 44727 C 4090.13 -3.3928 0.74207 0
M  V30 44728 C 4089.08 -3.888 1.78937 0
M  V30 44729 C 4088.41 -5.19205 1.2779 0
M  V30 44730 C 4089.71 -4.13467 3.19128 0
M  V30 44731 H 4091.4 -2.19001 2.04155 0
M  V30 44732 H 4088.95 -1.05233 0.982959 0
M  V30 44733 H 4090.9 -4.16835 0.618599 0
M  V30 44734 H 4089.63 -3.25808 -0.227363 0
M  V30 44735 H 4088.28 -3.13427 1.90155 0
M  V30 44736 H 4087.93 -5.02115 0.298248 0
M  V30 44737 H 4087.63 -5.53307 1.978 0
M  V30 44738 H 4089.16 -5.99342 1.16713 0
M  V30 44739 H 4090.57 -4.81629 3.10976 0
M  V30 44740 H 4088.97 -4.58855 3.86746 0
M  V30 44741 H 4090.04 -3.19177 3.6504 0
M  V30 44742 N 4091.38 -1.08389 -1.14409 0
M  V30 44743 C 4092.33 -0.713706 -2.19488 0
M  V30 44744 C 4093.3 0.300007 -1.63368 0
M  V30 44745 O 4094.48 0.184055 -1.8991 0
M  V30 44746 C 4091.62 -0.128985 -3.44859 0
M  V30 44747 C 4090.74 -1.19545 -4.1513 0
M  V30 44748 C 4089.87 -0.574614 -5.28083 0
M  V30 44749 C 4088.91 -1.62313 -5.90187 0
M  V30 44750 N 4088.05 -1.0241 -6.94591 0
M  V30 44751 H 4092.89 -1.61408 -2.50502 0
M  V30 44752 H 4090.42 -0.806617 -1.23013 0
M  V30 44753 H 4092.38 0.227741 -4.16578 0
M  V30 44754 H 4091.01 0.734702 -3.14328 0
M  V30 44755 H 4090.06 -1.66961 -3.41801 0
M  V30 44756 H 4091.38 -1.99002 -4.57383 0
M  V30 44757 H 4090.53 -0.166123 -6.06473 0
M  V30 44758 H 4089.27 0.251615 -4.8705 0
M  V30 44759 H 4088.27 -2.04129 -5.10501 0
M  V30 44760 H 4089.5 -2.45184 -6.33294 0
M  V30 44761 H 4087.44 -0.218964 -6.55634 0
M  V30 44762 H 4087.36 -1.75577 -7.35329 0
M  V30 44763 H 4088.63 -0.641464 -7.76856 0
M  V30 44764 N 4092.86 1.31442 -0.869532 0
M  V30 44765 C 4093.79 2.26601 -0.269651 0
M  V30 44766 C 4094.77 1.51088 0.60094 0
M  V30 44767 O 4095.95 1.80161 0.55446 0
M  V30 44768 C 4093.08 3.3301 0.618228 0
M  V30 44769 C 4092.13 4.26116 -0.180957 0
M  V30 44770 S 4092.96 5.12299 -1.55917 0
M  V30 44771 C 4094.12 6.22223 -0.677404 0
M  V30 44772 H 4094.35 2.77133 -1.07631 0
M  V30 44773 H 4091.88 1.392 -0.668027 0
M  V30 44774 H 4093.84 3.94789 1.12481 0
M  V30 44775 H 4092.5 2.81232 1.39883 0
M  V30 44776 H 4091.69 5.01554 0.495932 0
M  V30 44777 H 4091.3 3.68832 -0.61962 0
M  V30 44778 H 4093.59 6.77407 0.112181 0
M  V30 44779 H 4094.53 6.94064 -1.4029 0
M  V30 44780 H 4094.94 5.63967 -0.245149 0
M  V30 44781 N 4094.34 0.628927 1.44507 0
M  V30 44782 C 4095.56 0.137814 2.06942 0
M  V30 44783 C 4095.99 -1.17764 1.46674 0
M  V30 44784 O 4095.34 -1.72193 0.567372 0
M  V30 44785 C 4095.39 0.0342476 3.60584 0
M  V30 44786 O 4094.5 -1.01031 3.99833 0
M  V30 44787 H 4093.84 0.0837705 0.658695 0
M  V30 44788 H 4096.37 0.864983 1.85416 0
M  V30 44789 H 4096.38 -0.157051 4.07698 0
M  V30 44790 H 4095.05 0.994654 4.03831 0
M  V30 44791 H 4093.63 -0.79376 3.64354 0
M  V30 44792 N 4095.82 -1.53211 0.369342 0
M  V30 44793 C 4097.23 -1.59589 0.0184396 0
M  V30 44794 C 4097.43 -1.3843 -1.46422 0
M  V30 44795 O 4096.49 -1.19134 -2.22628 0
M  V30 44796 C 4097.8 -2.96881 0.477745 0
M  V30 44797 C 4099.35 -3.1 0.432287 0
M  V30 44798 C 4099.82 -4.4971 0.867465 0
M  V30 44799 N 4101.31 -4.55836 0.822674 0
M  V30 44800 C 4102.05 -5.62134 1.13104 0
M  V30 44801 N 4101.55 -6.76169 1.50888 0
M  V30 44802 N 4103.34 -5.52138 1.05359 0
M  V30 44803 H 4095.49 -1.65216 1.33482 0
M  V30 44804 H 4097.75 -0.775091 0.545836 0
M  V30 44805 H 4097.46 -3.17516 1.5125 0
M  V30 44806 H 4097.33 -3.76963 -0.133675 0
M  V30 44807 H 4099.72 -2.89073 -0.593346 0
M  V30 44808 H 4099.8 -2.31918 1.07925 0
M  V30 44809 H 4099.44 -4.71375 1.89123 0
M  V30 44810 H 4099.37 -5.26229 0.197712 0
M  V30 44811 H 4101.87 -3.73959 0.544369 0
M  V30 44812 H 4102.18 -7.53225 1.72834 0
M  V30 44813 H 4100.52 -6.77551 1.54757 0
M  V30 44814 H 4103.71 -4.61929 0.757568 0
M  V30 44815 H 4103.89 -6.34882 1.29724 0
M  V30 44816 N 4097.29 -0.0986092 -1.57291 0
M  V30 44817 C 4098.23 0.889146 -2.11251 0
M  V30 44818 C 4099.24 1.24369 -1.05054 0
M  V30 44819 O 4100.43 1.19619 -1.3249 0
M  V30 44820 C 4097.53 2.19719 -2.58025 0
M  V30 44821 C 4096.7 2.01745 -3.88095 0
M  V30 44822 C 4095.76 3.16094 -4.20679 0
M  V30 44823 O 4094.79 2.89903 -4.89842 0
M  V30 44824 N 4095.99 4.41963 -3.76363 0
M  V30 44825 H 4098.75 0.428268 -2.96624 0
M  V30 44826 H 4096.31 0.086397 -1.61669 0
M  V30 44827 H 4098.31 2.95173 -2.76866 0
M  V30 44828 H 4096.88 2.5722 -1.77642 0
M  V30 44829 H 4096.1 1.10601 -3.78366 0
M  V30 44830 H 4097.38 1.87017 -4.73183 0
M  V30 44831 H 4096.78 4.66122 -3.20541 0
M  V30 44832 H 4095.34 5.14354 -4.00353 0
M  V30 44833 N 4098.77 1.56624 0.175099 0
M  V30 44834 C 4099.7 1.99146 1.21915 0
M  V30 44835 C 4100.68 0.866453 1.46378 0
M  V30 44836 O 4101.87 1.13226 1.57777 0
M  V30 44837 C 4099 2.34811 2.55893 0
M  V30 44838 C 4097.95 3.50236 2.46005 0
M  V30 44839 C 4097.28 3.71633 3.84439 0
M  V30 44840 C 4098.58 4.83805 1.968 0
M  V30 44841 H 4100.27 2.86611 0.8657 0
M  V30 44842 H 4097.82 1.37891 0.41499 0
M  V30 44843 H 4099.77 2.63155 3.29131 0
M  V30 44844 H 4098.49 1.4425 2.93018 0
M  V30 44845 H 4097.15 3.22014 1.75221 0
M  V30 44846 H 4096.8 2.78369 4.1895 0
M  V30 44847 H 4096.5 4.49295 3.78692 0
M  V30 44848 H 4098.03 4.02374 4.59269 0
M  V30 44849 H 4099.44 5.11049 2.5981 0
M  V30 44850 H 4097.84 5.65077 2.0201 0
M  V30 44851 H 4098.91 4.76051 0.922126 0
M  V30 44852 N 4100.25 -0.443523 1.5123 0
M  V30 44853 C 4101.53 -1.20431 1.54129 0
M  V30 44854 C 4101.91 -2.0893 0.30193 0
M  V30 44855 O 4101.25 -2.17081 -0.713318 0
M  V30 44856 C 4101.46 -2.01152 2.85199 0
M  V30 44857 C 4102.81 -2.58406 3.36915 0
M  V30 44858 O 4103.84 -2.11369 2.86708 0
M  V30 44859 O 4102.7 -3.44178 4.24504 0
M  V30 44860 H 4099.79 -0.547965 0.619405 0
M  V30 44861 H 4102.34 -0.453097 1.63539 0
M  V30 44862 H 4101.11 -1.36114 3.66863 0
M  V30 44863 H 4100.73 -2.83352 2.78922 0
M  V30 44864 N 4101.73 -1.41272 -0.698562 0
M  V30 44865 C 4103 -1.3096 -1.45289 0
M  V30 44866 C 4103.38 0.0642162 -2.11002 0
M  V30 44867 O 4102.73 1.07825 -2.0146 0
M  V30 44868 C 4102.94 -2.46083 -2.47476 0
M  V30 44869 C 4104.29 -2.87109 -3.12815 0
M  V30 44870 O 4105.31 -2.458 -2.578 0
M  V30 44871 O 4104.17 -3.58532 -4.12452 0
M  V30 44872 H 4101.27 -0.515223 -0.646896 0
M  V30 44873 H 4103.81 -1.5323 -0.729293 0
M  V30 44874 H 4102.59 -3.3777 -1.97552 0
M  V30 44875 H 4102.21 -2.25674 -3.27349 0
M  V30 44876 N 4103.21 0.932517 -1.27051 0
M  V30 44877 C 4104.14 2.04957 -1.1187 0
M  V30 44878 C 4105.12 1.70086 -0.0214862 0
M  V30 44879 O 4106.3 1.93218 -0.195097 0
M  V30 44880 C 4103.43 3.38881 -0.760053 0
M  V30 44881 C 4102.39 3.87846 -1.80997 0
M  V30 44882 C 4101.71 5.1852 -1.30541 0
M  V30 44883 C 4103.01 4.11769 -3.21316 0
M  V30 44884 H 4104.71 2.17915 -2.05313 0
M  V30 44885 H 4102.25 1.0471 -0.988526 0
M  V30 44886 H 4104.2 4.16501 -0.640696 0
M  V30 44887 H 4102.93 3.25924 0.210081 0
M  V30 44888 H 4101.59 3.12414 -1.91815 0
M  V30 44889 H 4101.24 5.0195 -0.324872 0
M  V30 44890 H 4100.94 5.52251 -2.00731 0
M  V30 44891 H 4102.46 5.98714 -1.1989 0
M  V30 44892 H 4103.87 4.79973 -3.13526 0
M  V30 44893 H 4102.27 4.56797 -3.89174 0
M  V30 44894 H 4103.34 3.17236 -3.66728 0
M  V30 44895 N 4104.68 1.08995 1.13833 0
M  V30 44896 C 4105.63 0.719943 2.21178 0
M  V30 44897 C 4106.63 -0.277093 1.67118 0
M  V30 44898 O 4107.83 -0.139023 1.79462 0
M  V30 44899 H 4104.21 0.214811 0.720666 0
M  V30 44900 H 4106.18 1.63452 2.49651 0
M  V30 44901 C 4104.93 0.151855 3.47368 0
M  V30 44902 H 4104.25 0.91024 3.893 0
M  V30 44903 H 4105.69 -0.0691591 4.23944 0
M  V30 44904 C 4104.15 -1.1118 3.18026 0
M  V30 44905 O 4104.68 -2.19574 3.36378 0
M  V30 44906 N 4102.88 -1.02456 2.7194 0
M  V30 44907 H 4102.43 -0.142411 2.57206 0
M  V30 44908 H 4102.39 -1.8708 2.52683 0
M  V30 44909 N 4106.16 -1.30979 0.87649 0
M  V30 44910 C 4107.09 -2.26455 0.281665 0
M  V30 44911 C 4108.07 -1.51404 -0.592919 0
M  V30 44912 O 4109.26 -1.80453 -0.544897 0
M  V30 44913 C 4106.38 -3.33333 -0.600559 0
M  V30 44914 C 4105.43 -4.26014 0.203553 0
M  V30 44915 S 4106.26 -5.11465 1.58632 0
M  V30 44916 C 4107.42 -6.21855 0.710393 0
M  V30 44917 H 4107.65 -2.76559 1.09099 0
M  V30 44918 H 4105.18 -1.38844 0.6754 0
M  V30 44919 H 4107.14 -3.9538 -1.10385 0
M  V30 44920 H 4105.8 -2.8197 -1.38389 0
M  V30 44921 H 4105 -5.0181 -0.469327 0
M  V30 44922 H 4104.6 -3.68498 0.639171 0
M  V30 44923 H 4106.89 -6.77457 -0.0762545 0
M  V30 44924 H 4107.83 -6.9331 1.43969 0
M  V30 44925 H 4108.24 -5.63829 0.275054 0
M  V30 44926 N 4107.64 -0.636582 -1.44171 0
M  V30 44927 C 4109.06 -0.302674 -1.56704 0
M  V30 44928 C 4109.26 1.19395 -1.62318 0
M  V30 44929 O 4108.31 1.97821 -1.56917 0
M  V30 44930 C 4109.62 -0.999395 -2.83606 0
M  V30 44931 C 4111.17 -0.978057 -2.97326 0
M  V30 44932 C 4111.65 -1.65535 -4.27039 0
M  V30 44933 N 4113.14 -1.6222 -4.33865 0
M  V30 44934 C 4113.87 -2.11514 -5.32963 0
M  V30 44935 N 4113.37 -2.69024 -6.38434 0
M  V30 44936 N 4115.16 -2.02111 -5.24507 0
M  V30 44937 H 4107.31 -1.60799 -1.38771 0
M  V30 44938 H 4109.58 -0.675281 -0.665357 0
M  V30 44939 H 4109.28 -2.05437 -2.85462 0
M  V30 44940 H 4109.16 -0.540549 -3.73307 0
M  V30 44941 H 4111.54 0.0684547 -2.95021 0
M  V30 44942 H 4111.62 -1.47544 -2.0896 0
M  V30 44943 H 4111.27 -2.70134 -4.30105 0
M  V30 44944 H 4111.2 -1.13275 -5.14273 0
M  V30 44945 H 4113.69 -1.20237 -3.58262 0
M  V30 44946 H 4114 -3.04356 -7.10343 0
M  V30 44947 H 4112.35 -2.73077 -6.39104 0
M  V30 44948 H 4115.54 -1.569 -4.41022 0
M  V30 44949 H 4115.71 -2.40838 -6.01582 0
M  V30 44950 N 4109.12 1.53013 -0.377462 0
M  V30 44951 C 4110.36 2.02401 0.201326 0
M  V30 44952 C 4110.72 1.25945 1.4545 0
M  V30 44953 O 4110.01 0.348021 1.88413 0
M  V30 44954 C 4110.21 3.53379 0.534597 0
M  V30 44955 C 4110.03 4.44457 -0.684725 0
M  V30 44956 C 4108.8 4.90834 -1.20041 0
M  V30 44957 C 4111 4.90276 -1.55352 0
M  V30 44958 N 4108.98 5.6595 -2.37852 0
M  V30 44959 C 4110.36 5.63854 -2.57816 0
M  V30 44960 C 4112.41 4.72333 -1.575 0
M  V30 44961 C 4111.11 6.21395 -3.62299 0
M  V30 44962 C 4113.14 5.30748 -2.60884 0
M  V30 44963 C 4112.5 6.04222 -3.62071 0
M  V30 44964 H 4108.6 0.781168 0.0360709 0
M  V30 44965 H 4111.18 1.87497 -0.524685 0
M  V30 44966 H 4109.36 3.6842 1.22967 0
M  V30 44967 H 4111.09 3.89478 1.09951 0
M  V30 44968 H 4107.84 4.6741 -0.763213 0
M  V30 44969 H 4108.27 6.08165 -2.97429 0
M  V30 44970 H 4112.91 4.15042 -0.806205 0
M  V30 44971 H 4110.63 6.77774 -4.40054 0
M  V30 44972 H 4114.21 5.18752 -2.63415 0
M  V30 44973 H 4113.09 6.48617 -4.40756 0
M  V30 44974 N 4110.6 0.106949 1.57237 0
M  V30 44975 C 4111.54 -0.84769 2.14669 0
M  V30 44976 C 4112.51 -1.27178 1.06841 0
M  V30 44977 O 4113.7 -1.35144 1.34688 0
M  V30 44978 C 4110.84 -2.09697 2.74083 0
M  V30 44979 C 4109.95 -1.72234 3.96181 0
M  V30 44980 C 4109.09 -2.92037 4.43721 0
M  V30 44981 C 4108.13 -2.50756 5.5838 0
M  V30 44982 N 4107.26 -3.63433 6.00717 0
M  V30 44983 H 4112.1 -0.351081 2.95925 0
M  V30 44984 H 4109.64 -0.16161 1.4621 0
M  V30 44985 H 4111.6 -2.82876 3.06654 0
M  V30 44986 H 4110.23 -2.56837 1.95537 0
M  V30 44987 H 4109.28 -0.889754 3.69848 0
M  V30 44988 H 4110.59 -1.37888 4.79363 0
M  V30 44989 H 4109.75 -3.73456 4.78138 0
M  V30 44990 H 4108.48 -3.29601 3.59464 0
M  V30 44991 H 4107.49 -1.67767 5.23578 0
M  V30 44992 H 4108.71 -2.14322 6.44393 0
M  V30 44993 H 4106.66 -4.00693 5.19405 0
M  V30 44994 H 4106.58 -3.32971 6.78724 0
M  V30 44995 H 4107.85 -4.45327 6.39769 0
M  V30 44996 N 4112.07 -1.56715 -0.166791 0
M  V30 44997 C 4113 -1.9979 -1.20857 0
M  V30 44998 C 4113.99 -0.874204 -1.45917 0
M  V30 44999 O 4115.17 -1.14061 -1.57174 0
M  V30 45000 C 4112.3 -2.36165 -2.54644 0
M  V30 45001 C 4111.25 -3.51536 -2.44144 0
M  V30 45002 C 4110.58 -3.73667 -3.82462 0
M  V30 45003 C 4111.88 -4.84842 -1.94231 0
M  V30 45004 H 4113.57 -2.87066 -0.850488 0
M  V30 45005 H 4111.12 -1.38109 -0.407671 0
M  V30 45006 H 4113.07 -2.64897 -3.27731 0
M  V30 45007 H 4111.8 -1.45802 -2.92249 0
M  V30 45008 H 4110.46 -3.22939 -1.73511 0
M  V30 45009 H 4110.1 -2.80587 -4.17468 0
M  V30 45010 H 4109.8 -4.51297 -3.76304 0
M  V30 45011 H 4111.33 -4.04804 -4.57128 0
M  V30 45012 H 4112.74 -5.1242 -2.57096 0
M  V30 45013 H 4111.14 -5.6614 -1.99011 0
M  V30 45014 H 4112.21 -4.76534 -0.896866 0
M  V30 45015 N 4113.55 0.435497 -1.51463 0
M  V30 45016 C 4114.48 1.5361 -1.75858 0
M  V30 45017 C 4115.46 1.58844 -0.608477 0
M  V30 45018 O 4116.65 1.74543 -0.851381 0
M  V30 45019 C 4113.78 2.91674 -1.8853 0
M  V30 45020 C 4112.73 3.013 -3.03978 0
M  V30 45021 C 4112.06 4.41361 -3.01836 0
M  V30 45022 C 4113.36 2.75211 -4.4391 0
M  V30 45023 H 4115.05 1.33447 -2.68015 0
M  V30 45024 H 4112.6 0.640542 -1.28969 0
M  V30 45025 H 4114.55 3.68631 -2.0418 0
M  V30 45026 H 4113.28 3.13072 -0.930234 0
M  V30 45027 H 4111.93 2.26783 -2.88037 0
M  V30 45028 H 4111.58 4.59729 -2.04103 0
M  V30 45029 H 4111.28 4.48731 -3.79361 0
M  V30 45030 H 4112.81 5.20289 -3.19581 0
M  V30 45031 H 4114.22 3.419 -4.60193 0
M  V30 45032 H 4112.62 2.93988 -5.23155 0
M  V30 45033 H 4113.69 1.70806 -4.53821 0
M  V30 45034 N 4115.03 1.41641 0.69106 0
M  V30 45035 C 4115.96 1.39779 1.81644 0
M  V30 45036 C 4116.98 0.299271 1.60026 0
M  V30 45037 O 4118.16 0.561296 1.69445 0
M  V30 45038 C 4115.26 1.15851 3.18484 0
M  V30 45039 C 4114.44 2.37829 3.67092 0
M  V30 45040 C 4113.5 2.0969 4.82614 0
M  V30 45041 O 4112.52 2.82764 4.93997 0
M  V30 45042 N 4113.72 1.08993 5.70176 0
M  V30 45043 H 4116.49 2.36776 1.83732 0
M  V30 45044 H 4114.05 1.36311 0.873552 0
M  V30 45045 H 4116.04 0.949708 3.93399 0
M  V30 45046 H 4114.61 0.274356 3.11394 0
M  V30 45047 H 4113.83 2.74382 2.83034 0
M  V30 45048 H 4115.12 3.1909 3.96307 0
M  V30 45049 H 4114.52 0.485219 5.63615 0
M  V30 45050 H 4113.08 0.94102 6.44971 0
M  V30 45051 N 4116.51 -0.925766 1.27543 0
M  V30 45052 C 4117.75 -1.67614 1.14164 0
M  V30 45053 C 4118.09 -1.91686 -0.311437 0
M  V30 45054 O 4117.36 -1.50862 -1.22763 0
M  V30 45055 C 4117.65 -3.04149 1.92783 0
M  V30 45056 C 4117.5 -2.87306 3.46086 0
M  V30 45057 C 4118.82 -4.04508 1.73381 0
M  V30 45058 H 4115.94 -0.608299 0.416102 0
M  V30 45059 H 4118.58 -1.07417 1.56721 0
M  V30 45060 H 4116.73 -3.55533 1.56616 0
M  V30 45061 H 4118.4 -2.43025 3.92093 0
M  V30 45062 H 4116.64 -2.22608 3.72328 0
M  V30 45063 H 4117.31 -3.84212 3.9634 0
M  V30 45064 H 4119.79 -3.62142 2.0492 0
M  V30 45065 H 4118.67 -4.98027 2.30782 0
M  V30 45066 H 4118.93 -4.36804 0.682231 0
M  V30 45067 N 4117.99 -1.09597 -1.13253 0
M  V30 45068 C 4119.21 -0.855137 -1.8895 0
M  V30 45069 C 4119.64 0.588143 -1.78669 0
M  V30 45070 O 4118.99 1.41339 -1.13547 0
M  V30 45071 C 4119.04 -1.29723 -3.36458 0
M  V30 45072 O 4118.15 -0.456789 -4.09862 0
M  V30 45073 H 4117.49 -0.309557 -0.587427 0
M  V30 45074 H 4120.02 -1.46055 -1.4328 0
M  V30 45075 H 4120.03 -1.2834 -3.87289 0
M  V30 45076 H 4118.7 -2.34832 -3.43259 0
M  V30 45077 H 4117.28 -0.535091 -3.69041 0
M  V30 45078 N 4119.46 1.30512 -0.883424 0
M  V30 45079 C 4120.71 1.96493 -0.501829 0
M  V30 45080 C 4121.04 1.69586 0.946264 0
M  V30 45081 O 4120.32 0.999734 1.6684 0
M  V30 45082 C 4120.6 3.51651 -0.775467 0
M  V30 45083 C 4120.45 3.8808 -2.27407 0
M  V30 45084 C 4121.77 4.39384 -0.250931 0
M  V30 45085 H 4118.89 0.713714 -0.183799 0
M  V30 45086 H 4121.53 1.54411 -1.10713 0
M  V30 45087 H 4119.68 3.87627 -0.260285 0
M  V30 45088 H 4121.36 3.62135 -2.85754 0
M  V30 45089 H 4119.6 3.36204 -2.74134 0
M  V30 45090 H 4120.27 4.96313 -2.41615 0
M  V30 45091 H 4122.75 4.10308 -0.691858 0
M  V30 45092 H 4121.62 5.46869 -0.471733 0
M  V30 45093 H 4121.88 4.33896 0.847759 0
M  V30 45094 N 4120.94 0.644219 1.43832 0
M  V30 45095 C 4122.22 0.0842855 1.95418 0
M  V30 45096 C 4122.6 -1.39338 1.58581 0
M  V30 45097 O 4121.95 -2.11437 0.866406 0
M  V30 45098 C 4122.16 0.320989 3.47521 0
M  V30 45099 C 4123.51 0.221134 4.24024 0
M  V30 45100 O 4124.53 0.253059 3.553 0
M  V30 45101 O 4123.39 0.137179 5.46328 0
M  V30 45102 H 4120.48 -0.0147991 0.826868 0
M  V30 45103 H 4123.03 0.716832 1.53817 0
M  V30 45104 H 4121.8 1.34582 3.67428 0
M  V30 45105 H 4121.42 -0.345064 3.961 0
M  V30 45106 N 4122.42 -1.52811 0.385571 0
M  V30 45107 C 4123.7 -1.93928 -0.255193 0
M  V30 45108 C 4124.08 -1.32073 -1.64681 0
M  V30 45109 O 4123.43 -0.487402 -2.23241 0
M  V30 45110 C 4123.64 -3.47832 -0.285301 0
M  V30 45111 C 4124.98 -4.21452 -0.516052 0
M  V30 45112 O 4126.01 -3.54318 -0.365669 0
M  V30 45113 O 4124.87 -5.40458 -0.810408 0
M  V30 45114 H 4121.96 -0.811829 -0.15768 0
M  V30 45115 H 4124.51 -1.63902 0.439808 0
M  V30 45116 H 4123.28 -3.85175 0.689608 0
M  V30 45117 H 4122.9 -3.84151 -1.02538 0
M  V30 45118 N 4123.9 -0.115287 -1.57178 0
M  V30 45119 C 4125.31 0.241317 -1.57765 0
M  V30 45120 C 4125.51 1.66983 -1.12778 0
M  V30 45121 O 4124.57 2.39038 -0.813461 0
M  V30 45122 C 4125.88 0.0113762 -3.00698 0
M  V30 45123 C 4127.43 0.0775637 -3.12904 0
M  V30 45124 C 4127.91 -0.124637 -4.5783 0
M  V30 45125 N 4129.4 -0.0704812 -4.63146 0
M  V30 45126 C 4130.13 -0.201891 -5.73044 0
M  V30 45127 N 4129.63 -0.389264 -6.91706 0
M  V30 45128 N 4131.42 -0.141728 -5.61921 0
M  V30 45129 H 4123.57 -1.04839 -1.84723 0
M  V30 45130 H 4125.84 -0.412532 -0.853534 0
M  V30 45131 H 4125.54 -0.976055 -3.37885 0
M  V30 45132 H 4125.42 0.744882 -3.69772 0
M  V30 45133 H 4127.8 1.05552 -2.75577 0
M  V30 45134 H 4127.88 -0.687762 -2.46381 0
M  V30 45135 H 4127.53 -1.09955 -4.95855 0
M  V30 45136 H 4127.46 0.660629 -5.2244 0
M  V30 45137 H 4129.95 0.0709778 -3.77833 0
M  V30 45138 H 4130.26 -0.480501 -7.71305 0
M  V30 45139 H 4128.61 -0.425191 -6.93698 0
M  V30 45140 H 4131.8 0.00366645 -4.681 0
M  V30 45141 H 4131.97 -0.247584 -6.47527 0
M  V30 45142 N 4125.38 1.56801 0.158477 0
M  V30 45143 C 4126.31 2.00428 1.19796 0
M  V30 45144 C 4127.29 0.88193 1.45451 0
M  V30 45145 O 4128.47 1.14893 1.56567 0
M  V30 45146 C 4125.6 2.37512 2.53388 0
M  V30 45147 C 4124.56 3.52826 2.42277 0
M  V30 45148 C 4123.88 3.7569 3.80475 0
M  V30 45149 C 4125.18 4.85865 1.91657 0
M  V30 45150 H 4126.88 2.87513 0.835252 0
M  V30 45151 H 4124.42 1.38323 0.400341 0
M  V30 45152 H 4126.38 2.66631 3.26322 0
M  V30 45153 H 4125.1 1.4735 2.91471 0
M  V30 45154 H 4123.76 3.23855 1.71796 0
M  V30 45155 H 4123.41 2.82797 4.15974 0
M  V30 45156 H 4123.11 4.53286 3.73905 0
M  V30 45157 H 4124.63 4.07222 4.54975 0
M  V30 45158 H 4126.05 5.13776 2.54375 0
M  V30 45159 H 4124.44 5.67188 1.96006 0
M  V30 45160 H 4125.51 4.77003 0.871582 0
M  V30 45161 N 4126.86 -0.427458 1.51692 0
M  V30 45162 C 4127.8 -1.51955 1.73719 0
M  V30 45163 C 4128.77 -1.55678 0.5791 0
M  V30 45164 O 4129.96 -1.72535 0.814635 0
M  V30 45165 C 4127.1 -2.89582 1.87714 0
M  V30 45166 C 4126.21 -2.95311 3.15302 0
M  V30 45167 C 4125.35 -4.24122 3.19834 0
M  V30 45168 C 4124.38 -4.23756 4.41698 0
M  V30 45169 N 4123.52 -5.44108 4.43724 0
M  V30 45170 H 4128.36 -1.32476 2.66935 0
M  V30 45171 H 4125.9 -0.643369 1.32284 0
M  V30 45172 H 4127.86 -3.6945 1.9381 0
M  V30 45173 H 4126.49 -3.07597 0.978966 0
M  V30 45174 H 4125.54 -2.08045 3.18467 0
M  V30 45175 H 4126.85 -2.90903 4.05187 0
M  V30 45176 H 4126 -5.12371 3.24901 0
M  V30 45177 H 4124.74 -4.312 2.27855 0
M  V30 45178 H 4123.75 -3.33899 4.36797 0
M  V30 45179 H 4124.97 -4.18334 5.34952 0
M  V30 45180 H 4122.92 -5.51888 3.5462 0
M  V30 45181 H 4122.84 -5.41621 5.27431 0
M  V30 45182 H 4124.1 -6.34361 4.52997 0
M  V30 45183 N 4128.33 -1.42005 -0.683539 0
M  V30 45184 C 4129.27 -1.4074 -1.809 0
M  V30 45185 C 4130.28 -0.307753 -1.59865 0
M  V30 45186 O 4131.47 -0.570274 -1.69145 0
M  V30 45187 C 4128.57 -1.17538 -3.17865 0
M  V30 45188 C 4127.74 -2.39772 -3.65825 0
M  V30 45189 C 4126.8 -2.12246 -4.81496 0
M  V30 45190 O 4125.83 -2.8538 -4.9249 0
M  V30 45191 N 4127.03 -1.12016 -5.6959 0
M  V30 45192 H 4129.79 -2.37747 -1.82473 0
M  V30 45193 H 4127.35 -1.36772 -0.866311 0
M  V30 45194 H 4129.35 -0.970558 -3.9289 0
M  V30 45195 H 4127.92 -0.290866 -3.11244 0
M  V30 45196 H 4127.14 -2.75879 -2.81575 0
M  V30 45197 H 4128.42 -3.21187 -3.94609 0
M  V30 45198 H 4127.82 -0.515102 -5.6335 0
M  V30 45199 H 4126.38 -0.975211 -6.44463 0
M  V30 45200 N 4129.81 0.918989 -1.28033 0
M  V30 45201 C 4130.74 2.03759 -1.14038 0
M  V30 45202 C 4131.72 1.70054 -0.0395249 0
M  V30 45203 O 4132.91 1.93 -0.21558 0
M  V30 45204 C 4130.04 3.38056 -0.795953 0
M  V30 45205 C 4128.99 3.85904 -1.851 0
M  V30 45206 C 4128.32 5.17106 -1.36033 0
M  V30 45207 C 4129.62 4.08338 -3.25665 0
M  V30 45208 H 4131.31 2.15725 -2.07613 0
M  V30 45209 H 4128.86 1.03656 -0.999576 0
M  V30 45210 H 4130.81 4.15798 -0.684836 0
M  V30 45211 H 4129.53 3.26128 0.175501 0
M  V30 45212 H 4128.19 3.10362 -1.95117 0
M  V30 45213 H 4127.84 5.01577 -0.378092 0
M  V30 45214 H 4127.54 5.5009 -2.06577 0
M  V30 45215 H 4129.07 5.97409 -1.26233 0
M  V30 45216 H 4130.48 4.76621 -3.18599 0
M  V30 45217 H 4128.88 4.52644 -3.93997 0
M  V30 45218 H 4129.95 3.13329 -3.70072 0
M  V30 45219 N 4131.29 1.10196 1.12671 0
M  V30 45220 C 4132.22 0.706382 2.18043 0
M  V30 45221 C 4133.23 -0.255681 1.6078 0
M  V30 45222 O 4134.42 -0.0405255 1.78454 0
M  V30 45223 C 4131.52 0.0213326 3.38893 0
M  V30 45224 C 4130.7 1.00694 4.25652 0
M  V30 45225 C 4129.76 0.353837 5.25009 0
M  V30 45226 O 4128.78 1.00388 5.60277 0
M  V30 45227 N 4129.98 -0.88875 5.73656 0
M  V30 45228 H 4132.75 1.61297 2.52593 0
M  V30 45229 H 4130.31 0.990454 1.28069 0
M  V30 45230 H 4132.3 -0.426993 4.02441 0
M  V30 45231 H 4130.87 -0.787628 3.02515 0
M  V30 45232 H 4130.09 1.63361 3.58758 0
M  V30 45233 H 4131.38 1.67419 4.80467 0
M  V30 45234 H 4130.78 -1.43629 5.47163 0
M  V30 45235 H 4129.33 -1.28026 6.39103 0
M  V30 45236 N 4132.77 -1.30042 0.890333 0
M  V30 45237 C 4133.68 -2.31738 0.365307 0
M  V30 45238 C 4134.69 -1.65565 -0.53519 0
M  V30 45239 O 4135.87 -1.96821 -0.427023 0
M  V30 45240 C 4132.93 -3.44303 -0.406949 0
M  V30 45241 C 4132 -4.26091 0.523943 0
M  V30 45242 C 4131.23 -5.33281 -0.211551 0
M  V30 45243 O 4131.45 -5.52006 -1.43687 0
M  V30 45244 O 4130.39 -6.00282 0.441104 0
M  V30 45245 H 4134.21 -2.78608 1.20877 0
M  V30 45246 H 4131.8 -1.34308 0.654343 0
M  V30 45247 H 4133.68 -4.12861 -0.844002 0
M  V30 45248 H 4132.35 -2.99559 -1.22662 0
M  V30 45249 H 4131.26 -3.6021 1.00992 0
M  V30 45250 H 4132.59 -4.74453 1.30977 0
M  V30 45251 N 4134.25 -0.651838 -1.43488 0
M  V30 45252 C 4135.21 0.0311534 -2.29179 0
M  V30 45253 C 4136.21 0.751928 -1.42136 0
M  V30 45254 O 4137.4 0.593387 -1.63782 0
M  V30 45255 C 4134.53 1.05484 -3.24169 0
M  V30 45256 H 4135.72 -0.722792 -2.9106 0
M  V30 45257 H 4133.28 -0.412994 -1.50745 0
M  V30 45258 H 4134.01 1.83807 -2.67181 0
M  V30 45259 H 4133.8 0.541684 -3.8834 0
M  V30 45260 H 4135.29 1.53186 -3.88489 0
M  V30 45261 N 4135.72 1.52604 -0.39367 0
M  V30 45262 C 4136.67 2.23385 0.456399 0
M  V30 45263 C 4137.66 1.23936 1.02609 0
M  V30 45264 O 4138.85 1.49251 0.951475 0
M  V30 45265 C 4135.98 3.04737 1.58083 0
M  V30 45266 C 4135.06 4.11585 1.02266 0
M  V30 45267 N 4135.46 5.05444 0.189814 0
M  V30 45268 C 4133.75 4.26794 1.29472 0
M  V30 45269 C 4134.45 5.81578 -0.119029 0
M  V30 45270 N 4133.43 5.41423 0.486069 0
M  V30 45271 H 4137.23 2.93308 -0.186395 0
M  V30 45272 H 4134.75 1.61123 -0.203219 0
M  V30 45273 H 4136.74 3.53986 2.20227 0
M  V30 45274 H 4135.4 2.3635 2.2264 0
M  V30 45275 H 4136.41 5.1761 -0.173276 0
M  V30 45276 H 4133.09 3.69636 1.94101 0
M  V30 45277 H 4134.48 6.67191 -0.794097 0
M  V30 45278 N 4137.2 0.12362 1.57114 0
M  V30 45279 C 4138.62 -0.232947 1.57891 0
M  V30 45280 C 4138.82 -1.66383 1.13662 0
M  V30 45281 O 4137.87 -2.38603 0.826126 0
M  V30 45282 C 4139.19 0.00457065 3.007 0
M  V30 45283 C 4140.73 -0.0609685 3.12941 0
M  V30 45284 C 4141.21 0.148915 4.57758 0
M  V30 45285 N 4142.7 0.095042 4.63102 0
M  V30 45286 C 4143.44 0.232278 5.72929 0
M  V30 45287 N 4142.93 0.425942 6.91489 0
M  V30 45288 N 4144.72 0.171526 5.61838 0
M  V30 45289 H 4136.88 1.05817 1.84164 0
M  V30 45290 H 4139.14 0.417053 0.851335 0
M  V30 45291 H 4138.84 0.99396 3.37362 0
M  V30 45292 H 4138.72 -0.725262 3.70162 0
M  V30 45293 H 4141.11 -1.04089 2.76133 0
M  V30 45294 H 4141.19 0.700819 2.46013 0
M  V30 45295 H 4140.83 1.12583 4.95265 0
M  V30 45296 H 4140.76 -0.632914 5.22783 0
M  V30 45297 H 4143.25 -0.0509394 3.77866 0
M  V30 45298 H 4143.56 0.521398 7.71039 0
M  V30 45299 H 4141.91 0.461973 6.93463 0
M  V30 45300 H 4145.1 0.0211581 4.68095 0
M  V30 45301 H 4145.27 0.281921 6.47386 0
M  V30 45302 N 4138.68 -1.56883 -0.15016 0
M  V30 45303 C 4139.96 -1.74086 -0.891811 0
M  V30 45304 C 4140.34 -0.690786 -1.99478 0
M  V30 45305 O 4139.68 0.290837 -2.26642 0
M  V30 45306 C 4139.89 -3.18035 -1.43717 0
M  V30 45307 C 4141.24 -3.79626 -1.90182 0
M  V30 45308 O 4142.27 -3.21445 -1.53465 0
M  V30 45309 O 4141.13 -4.81828 -2.57883 0
M  V30 45310 H 4138.22 -0.711685 -0.421228 0
M  V30 45311 H 4140.77 -1.69151 -0.136332 0
M  V30 45312 H 4139.54 -3.85958 -0.644355 0
M  V30 45313 H 4139.16 -3.27383 -2.25624 0
M  V30 45314 N 4140.16 0.419408 -1.51917 0
M  V30 45315 C 4141.41 1.16729 -1.65471 0
M  V30 45316 C 4141.73 1.9076 -0.379602 0
M  V30 45317 O 4140.99 1.85041 0.63706 0
M  V30 45318 C 4141.29 2.19514 -2.82043 0
M  V30 45319 C 4140.95 1.62366 -4.20652 0
M  V30 45320 C 4139.62 1.46504 -4.58356 0
M  V30 45321 C 4141.97 1.2053 -5.07072 0
M  V30 45322 C 4139.3 0.873083 -5.80167 0
M  V30 45323 C 4141.65 0.627564 -6.29479 0
M  V30 45324 C 4140.31 0.455997 -6.65941 0
M  V30 45325 H 4139.58 0.427143 -0.605499 0
M  V30 45326 H 4142.23 0.455884 -1.85994 0
M  V30 45327 H 4140.53 2.96761 -2.55813 0
M  V30 45328 H 4142.23 2.77235 -2.89727 0
M  V30 45329 H 4138.82 1.75692 -3.90935 0
M  V30 45330 H 4143 1.31598 -4.78535 0
M  V30 45331 H 4138.26 0.72808 -6.07049 0
M  V30 45332 H 4142.43 0.294958 -6.95775 0
M  V30 45333 H 4140.06 -0.00480947 -7.602 0
M  V30 45334 N 4141.64 1.42366 0.675998 0
M  V30 45335 C 4142.88 1.42489 1.43322 0
M  V30 45336 C 4143.21 0.0418931 1.94955 0
M  V30 45337 O 4142.48 -0.919388 1.72986 0
M  V30 45338 H 4141.06 0.524545 0.531848 0
M  V30 45339 H 4143.72 1.77777 0.798836 0
M  V30 45340 H 4142.81 2.12393 2.28682 0
M  V30 45341 N 4143.11 -0.912187 1.28518 0
M  V30 45342 C 4144.53 -1.47658 1.14254 0
M  V30 45343 C 4144.88 -1.94376 -0.266901 0
M  V30 45344 O 4144 -1.826 -1.1613 0
M  V30 45345 C 4144.6 -2.68366 2.06797 0
M  V30 45346 C 4143.16 -3.2098 1.96592 0
M  V30 45347 C 4142.3 -1.93685 1.98447 0
M  V30 45348 H 4145.25 -0.724744 1.41185 0
M  V30 45349 H 4145.27 -3.43682 1.63288 0
M  V30 45350 H 4144.79 -2.34333 3.0937 0
M  V30 45351 H 4142.89 -3.59735 0.970629 0
M  V30 45352 H 4143 -3.86124 2.83629 0
M  V30 45353 H 4141.36 -2.10852 1.42876 0
M  V30 45354 H 4142.15 -1.61946 3.02702 0
M  V30 45355 N 4144.59 -1.10792 -1.12085 0
M  V30 45356 C 4145.82 -0.87513 -1.88033 0
M  V30 45357 C 4146.24 0.56916 -1.79282 0
M  V30 45358 O 4145.6 1.40127 -1.15039 0
M  V30 45359 C 4145.65 -1.33284 -3.35064 0
M  V30 45360 O 4144.75 -0.500235 -4.09355 0
M  V30 45361 H 4144.09 -0.31577 -0.584111 0
M  V30 45362 H 4146.62 -1.47567 -1.41722 0
M  V30 45363 H 4146.63 -1.3244 -3.85906 0
M  V30 45364 H 4145.31 -2.38459 -3.40749 0
M  V30 45365 H 4143.89 -0.574202 -3.68453 0
M  V30 45366 N 4146.07 1.29568 -0.897217 0
M  V30 45367 C 4147.3 2.00341 -0.5365 0
M  V30 45368 C 4147.72 1.66727 0.870851 0
M  V30 45369 O 4147.08 0.89052 1.57922 0
M  V30 45370 C 4147.13 3.53075 -0.732843 0
M  V30 45371 O 4146.23 4.11835 0.215775 0
M  V30 45372 H 4145.57 0.629946 -0.209915 0
M  V30 45373 H 4148.1 1.65123 -1.20812 0
M  V30 45374 H 4148.11 4.03004 -0.636539 0
M  V30 45375 H 4146.79 3.76877 -1.75888 0
M  V30 45376 H 4145.36 3.7283 0.0721356 0
M  V30 45377 N 4147.55 0.659438 1.4314 0
M  V30 45378 C 4148.48 -0.0671217 2.29102 0
M  V30 45379 C 4149.49 -0.780918 1.42848 0
M  V30 45380 O 4150.68 -0.637637 1.66723 0
M  V30 45381 C 4147.78 -1.11832 3.19917 0
M  V30 45382 C 4146.96 -0.481428 4.34742 0
M  V30 45383 C 4146.01 -1.43035 5.06387 0
M  V30 45384 O 4145.04 -0.936549 5.61442 0
M  V30 45385 N 4146.24 -2.76414 5.10466 0
M  V30 45386 H 4149.01 0.670726 2.92098 0
M  V30 45387 H 4146.57 0.502687 1.53898 0
M  V30 45388 H 4148.56 -1.75407 3.64712 0
M  V30 45389 H 4147.13 -1.75807 2.58477 0
M  V30 45390 H 4146.35 0.33353 3.92786 0
M  V30 45391 H 4147.64 -0.037088 5.08786 0
M  V30 45392 H 4147.04 -3.19086 4.67119 0
M  V30 45393 H 4145.59 -3.35276 5.58958 0
M  V30 45394 N 4149.03 -1.52393 0.401757 0
M  V30 45395 C 4149.98 -2.23624 -0.444545 0
M  V30 45396 C 4150.96 -1.24478 -1.01951 0
M  V30 45397 O 4152.15 -1.49754 -0.943546 0
M  V30 45398 C 4149.28 -3.05571 -1.56465 0
M  V30 45399 C 4148.37 -4.12122 -1.00082 0
M  V30 45400 N 4148.76 -5.05537 -0.163007 0
M  V30 45401 C 4147.06 -4.27474 -1.27207 0
M  V30 45402 C 4147.76 -5.81507 0.14987 0
M  V30 45403 N 4146.73 -5.41673 -0.45735 0
M  V30 45404 H 4150.54 -2.93205 0.201947 0
M  V30 45405 H 4148.05 -1.61013 0.211761 0
M  V30 45406 H 4150.05 -3.55149 -2.18346 0
M  V30 45407 H 4148.71 -2.37528 -2.21383 0
M  V30 45408 H 4149.72 -5.17511 0.200724 0
M  V30 45409 H 4146.39 -3.7066 -1.92138 0
M  V30 45410 H 4147.78 -6.6676 0.829469 0
M  V30 45411 N 4150.5 -0.131951 -1.57047 0
M  V30 45412 C 4151.75 0.522891 -1.95633 0
M  V30 45413 C 4152.08 1.65855 -1.016 0
M  V30 45414 O 4151.33 1.95654 -0.0423063 0
M  V30 45415 C 4151.63 1.08407 -3.40562 0
M  V30 45416 C 4151.3 0.0684292 -4.50848 0
M  V30 45417 C 4149.96 -0.21081 -4.80738 0
M  V30 45418 C 4152.31 -0.623026 -5.17463 0
M  V30 45419 C 4149.64 -1.18757 -5.74555 0
M  V30 45420 C 4151.99 -1.5885 -6.12331 0
M  V30 45421 C 4150.66 -1.87559 -6.40607 0
M  V30 45422 H 4149.93 0.191339 -0.71587 0
M  V30 45423 H 4152.57 -0.215598 -1.90282 0
M  V30 45424 H 4150.88 1.89959 -3.4267 0
M  V30 45425 H 4152.58 1.59907 -3.67737 0
M  V30 45426 H 4149.17 0.296255 -4.27575 0
M  V30 45427 H 4153.35 -0.420473 -4.94516 0
M  V30 45428 H 4148.61 -1.4166 -5.94762 0
M  V30 45429 H 4152.78 -2.12989 -6.6303 0
M  V30 45430 H 4150.41 -2.63399 -7.13109 0
M  V30 45431 N 4151.98 1.5696 0.141838 0
M  V30 45432 C 4152.91 2.01687 1.17663 0
M  V30 45433 C 4153.89 0.897308 1.44507 0
M  V30 45434 O 4155.08 1.16547 1.5534 0
M  V30 45435 C 4152.21 2.40186 2.50854 0
M  V30 45436 C 4151.16 3.55376 2.38521 0
M  V30 45437 C 4150.49 3.79704 3.76469 0
M  V30 45438 C 4151.79 4.8787 1.86493 0
M  V30 45439 H 4153.48 2.88383 0.804711 0
M  V30 45440 H 4151.03 1.3874 0.385648 0
M  V30 45441 H 4152.98 2.70077 3.23475 0
M  V30 45442 H 4151.71 1.50433 2.89892 0
M  V30 45443 H 4150.36 3.25658 1.68351 0
M  V30 45444 H 4150.01 2.87193 4.12952 0
M  V30 45445 H 4149.71 4.57227 3.69077 0
M  V30 45446 H 4151.24 4.12025 4.50631 0
M  V30 45447 H 4152.65 5.16445 2.48912 0
M  V30 45448 H 4151.05 5.69235 1.89979 0
M  V30 45449 H 4152.12 4.779 0.820941 0
M  V30 45450 N 4153.46 -0.411345 1.52137 0
M  V30 45451 C 4154.69 -1.18483 1.70225 0
M  V30 45452 C 4155.11 -1.83577 0.409998 0
M  V30 45453 O 4154.47 -1.69915 -0.632336 0
M  V30 45454 C 4154.52 -2.2253 2.83748 0
M  V30 45455 O 4153.62 -3.28621 2.49162 0
M  V30 45456 H 4152.96 -0.345968 0.566747 0
M  V30 45457 H 4155.49 -0.482491 1.9883 0
M  V30 45458 H 4155.5 -2.66895 3.08595 0
M  V30 45459 H 4154.18 -1.74534 3.77506 0
M  V30 45460 H 4152.75 -2.8955 2.34979 0
M  V30 45461 N 4154.94 -1.42722 -0.668439 0
M  V30 45462 C 4156.17 -1.46941 -1.45657 0
M  V30 45463 C 4156.58 -0.0826464 -1.88619 0
M  V30 45464 O 4155.94 0.903972 -1.58539 0
M  V30 45465 C 4155.99 -2.40207 -2.70153 0
M  V30 45466 O 4155.71 -3.73489 -2.28992 0
M  V30 45467 C 4157.21 -2.53512 -3.63657 0
M  V30 45468 H 4154.43 -0.499561 -0.447973 0
M  V30 45469 H 4156.98 -1.87305 -0.820793 0
M  V30 45470 H 4155.13 -2.03079 -3.29905 0
M  V30 45471 H 4155.55 -4.23499 -3.09433 0
M  V30 45472 H 4157.02 -3.22879 -4.4772 0
M  V30 45473 H 4157.5 -1.57506 -4.09986 0
M  V30 45474 H 4158.1 -2.91388 -3.09795 0
M  V30 45475 N 4156.42 0.905358 -1.29 0
M  V30 45476 C 4157.64 1.69417 -1.19635 0
M  V30 45477 C 4158.07 1.86557 0.2404 0
M  V30 45478 O 4157.43 1.38179 1.17372 0
M  V30 45479 C 4157.47 3.05932 -1.90887 0
M  V30 45480 O 4156.58 3.93878 -1.22205 0
M  V30 45481 H 4155.92 0.518454 -0.414851 0
M  V30 45482 H 4158.45 1.13142 -1.7047 0
M  V30 45483 H 4158.46 3.56111 -1.99121 0
M  V30 45484 H 4157.13 2.92775 -2.95391 0
M  V30 45485 H 4155.71 3.52312 -1.22191 0
M  V30 45486 N 4157.9 1.11385 1.11495 0
M  V30 45487 C 4159.14 0.863624 1.83492 0
M  V30 45488 C 4159.47 -0.609227 1.84396 0
M  V30 45489 O 4158.75 -1.44976 1.29662 0
M  V30 45490 C 4159.03 1.42515 3.30698 0
M  V30 45491 C 4158.89 2.96558 3.38192 0
M  V30 45492 C 4160.2 1.07561 4.26754 0
M  V30 45493 H 4157.32 0.315185 0.666204 0
M  V30 45494 H 4159.97 1.37863 1.30743 0
M  V30 45495 H 4158.12 0.987119 3.7575 0
M  V30 45496 H 4159.79 3.4896 3.01702 0
M  V30 45497 H 4158.03 3.32655 2.7843 0
M  V30 45498 H 4158.7 3.30935 4.41799 0
M  V30 45499 H 4161.18 1.45374 3.89879 0
M  V30 45500 H 4160.05 1.49528 5.28141 0
M  V30 45501 H 4160.31 -0.0136996 4.42098 0
M  V30 45502 N 4159.37 -1.2909 0.904076 0
M  V30 45503 C 4160.31 -2.26628 0.342416 0
M  V30 45504 C 4161.32 -1.54482 -0.513725 0
M  V30 45505 O 4162.51 -1.7542 -0.330173 0
M  V30 45506 C 4159.61 -3.3473 -0.530032 0
M  V30 45507 C 4158.78 -4.3636 0.301381 0
M  V30 45508 C 4157.84 -5.23775 -0.504599 0
M  V30 45509 O 4156.87 -5.69145 0.0794439 0
M  V30 45510 N 4158.07 -5.51569 -1.80975 0
M  V30 45511 H 4160.83 -2.7546 1.18076 0
M  V30 45512 H 4158.39 -1.4247 0.769016 0
M  V30 45513 H 4160.39 -3.90141 -1.07573 0
M  V30 45514 H 4158.96 -2.85681 -1.26907 0
M  V30 45515 H 4158.18 -3.80547 1.02848 0
M  V30 45516 H 4159.46 -5.01296 0.870615 0
M  V30 45517 H 4158.86 -5.16525 -2.30692 0
M  V30 45518 H 4157.42 -6.09778 -2.30248 0
M  V30 45519 N 4160.85 -0.66702 -1.42789 0
M  V30 45520 C 4161.78 0.00230257 -2.335 0
M  V30 45521 C 4162.76 0.79751 -1.50246 0
M  V30 45522 O 4163.95 0.756226 -1.78871 0
M  V30 45523 C 4161.08 0.959737 -3.33776 0
M  V30 45524 C 4160.03 0.273674 -4.27124 0
M  V30 45525 C 4159.36 1.34351 -5.17546 0
M  V30 45526 C 4160.66 -0.842501 -5.1546 0
M  V30 45527 H 4162.35 -0.755263 -2.89717 0
M  V30 45528 H 4159.9 -0.364646 -1.39307 0
M  V30 45529 H 4161.85 1.437 -3.96142 0
M  V30 45530 H 4160.57 1.74863 -2.75845 0
M  V30 45531 H 4159.23 -0.183274 -3.66142 0
M  V30 45532 H 4158.88 2.12419 -4.55946 0
M  V30 45533 H 4158.58 0.889636 -5.80826 0
M  V30 45534 H 4160.11 1.82186 -5.82787 0
M  V30 45535 H 4161.52 -0.4468 -5.71556 0
M  V30 45536 H 4159.92 -1.22169 -5.87533 0
M  V30 45537 H 4160.99 -1.69462 -4.54324 0
M  V30 45538 N 4162.33 1.52178 -0.409833 0
M  V30 45539 C 4163.74 1.86605 0.0596028 0
M  V30 45540 C 4164.09 1.32855 1.44375 0
M  V30 45541 O 4163.22 0.66811 2.05828 0
M  V30 45542 C 4163.81 3.38605 0.114932 0
M  V30 45543 C 4162.37 3.72668 0.528706 0
M  V30 45544 C 4161.52 2.75712 -0.296339 0
M  V30 45545 H 4164.47 1.45795 -0.626868 0
M  V30 45546 H 4164.49 3.68958 0.930049 0
M  V30 45547 H 4164 3.77696 -0.892602 0
M  V30 45548 H 4162.1 3.39156 1.54286 0
M  V30 45549 H 4162.22 4.78324 0.272603 0
M  V30 45550 H 4160.58 2.53553 0.241423 0
M  V30 45551 H 4161.36 3.17642 -1.30223 0
M  V30 45552 N 4163.81 0.140278 1.56974 0
M  V30 45553 C 4165.05 -0.506911 1.96982 0
M  V30 45554 C 4165.41 -1.62917 1.02351 0
M  V30 45555 O 4164.7 -1.91514 0.0573237 0
M  V30 45556 C 4164.9 -1.066 3.41132 0
M  V30 45557 C 4164.72 0.000569055 4.497 0
M  V30 45558 C 4163.49 0.439694 5.03383 0
M  V30 45559 C 4165.69 0.789538 5.08203 0
M  V30 45560 N 4163.67 1.48981 5.95548 0
M  V30 45561 C 4165.05 1.69031 5.96514 0
M  V30 45562 C 4167.1 0.838072 4.90796 0
M  V30 45563 C 4165.8 2.63545 6.69281 0
M  V30 45564 C 4167.83 1.77101 5.6426 0
M  V30 45565 C 4167.19 2.65932 6.52273 0
M  V30 45566 H 4163.29 -0.154496 0.766587 0
M  V30 45567 H 4165.87 0.233324 1.93297 0
M  V30 45568 H 4164.05 -1.77587 3.45424 0
M  V30 45569 H 4165.78 -1.67925 3.68216 0
M  V30 45570 H 4162.53 0.0432227 4.7358 0
M  V30 45571 H 4162.96 2.01442 6.46336 0
M  V30 45572 H 4167.6 0.165385 4.22476 0
M  V30 45573 H 4165.32 3.31817 7.36833 0
M  V30 45574 H 4168.9 1.81427 5.52789 0
M  V30 45575 H 4167.78 3.36947 7.08122 0
M  V30 45576 N 4165.29 -1.57033 -0.133512 0
M  V30 45577 C 4166.22 -1.95898 -1.18982 0
M  V30 45578 C 4167.23 -0.856451 -1.38451 0
M  V30 45579 O 4168.42 -1.13481 -1.37783 0
M  V30 45580 C 4165.52 -2.2295 -2.55238 0
M  V30 45581 C 4164.69 -3.5425 -2.56566 0
M  V30 45582 C 4163.75 -3.69684 -3.7446 0
M  V30 45583 O 4162.78 -4.41943 -3.58713 0
M  V30 45584 N 4163.98 -3.07359 -4.92454 0
M  V30 45585 H 4166.74 -2.87116 -0.859345 0
M  V30 45586 H 4164.31 -1.58646 -0.322942 0
M  V30 45587 H 4166.3 -2.30504 -3.32641 0
M  V30 45588 H 4164.87 -1.37931 -2.80524 0
M  V30 45589 H 4164.09 -3.58015 -1.64981 0
M  V30 45590 H 4165.38 -4.40578 -2.54496 0
M  V30 45591 H 4164.77 -2.48593 -5.08151 0
M  V30 45592 H 4163.33 -3.20455 -5.67584 0
M  V30 45593 N 4166.76 0.403271 -1.52353 0
M  V30 45594 C 4168.18 0.742318 -1.41286 0
M  V30 45595 C 4168.38 1.94622 -0.52198 0
M  V30 45596 O 4167.44 2.52498 0.0100103 0
M  V30 45597 C 4168.75 0.990769 -2.83909 0
M  V30 45598 C 4170.3 1.09312 -2.93291 0
M  V30 45599 C 4170.77 1.3743 -4.36895 0
M  V30 45600 N 4172.26 1.44282 -4.40156 0
M  V30 45601 C 4173 1.67676 -5.48336 0
M  V30 45602 N 4172.49 1.88635 -6.66625 0
M  V30 45603 N 4174.29 1.69739 -5.35859 0
M  V30 45604 H 4166.44 -0.389114 -2.08805 0
M  V30 45605 H 4168.7 -0.11183 -0.941381 0
M  V30 45606 H 4168.41 0.178449 -3.51247 0
M  V30 45607 H 4168.28 1.90935 -3.25306 0
M  V30 45608 H 4170.67 1.89603 -2.2613 0
M  V30 45609 H 4170.75 0.152777 -2.55343 0
M  V30 45610 H 4170.39 0.576546 -5.04617 0
M  V30 45611 H 4170.32 2.32726 -4.72384 0
M  V30 45612 H 4172.81 1.29851 -3.5489 0
M  V30 45613 H 4173.13 2.05952 -7.44851 0
M  V30 45614 H 4171.47 1.85888 -6.6968 0
M  V30 45615 H 4174.66 1.52907 -4.42422 0
M  V30 45616 H 4174.84 1.87631 -6.20241 0
M  V30 45617 N 4168.24 1.43075 0.66086 0
M  V30 45618 C 4169.47 1.47923 1.45373 0
M  V30 45619 C 4169.89 0.096062 1.87855 0
M  V30 45620 O 4169.25 -0.908555 1.56892 0
M  V30 45621 C 4169.3 2.42373 2.66998 0
M  V30 45622 O 4168.4 1.90471 3.65779 0
M  V30 45623 H 4167.74 0.500639 0.436184 0
M  V30 45624 H 4170.27 1.87911 0.809366 0
M  V30 45625 H 4170.28 2.59421 3.14904 0
M  V30 45626 H 4168.96 3.42856 2.3542 0
M  V30 45627 H 4167.53 1.83047 3.24882 0
M  V30 45628 N 4169.72 -0.898504 1.29478 0
M  V30 45629 C 4170.97 -1.64376 1.16891 0
M  V30 45630 C 4171.28 -1.93608 -0.278469 0
M  V30 45631 O 4172.49 -2.66362 -0.525681 0
M  V30 45632 C 4170.94 -2.96193 2.04445 0
M  V30 45633 C 4170.55 -2.74552 3.54013 0
M  V30 45634 C 4172.3 -3.7412 2.00585 0
M  V30 45635 C 4170.2 -4.02102 4.33668 0
M  V30 45636 H 4169.13 -0.616652 0.433886 0
M  V30 45637 H 4171.78 -0.995854 1.54127 0
M  V30 45638 H 4170.17 -3.62203 1.60079 0
M  V30 45639 H 4171.34 -2.17128 4.06438 0
M  V30 45640 H 4169.66 -2.10018 3.59557 0
M  V30 45641 H 4172.25 -4.68692 2.57356 0
M  V30 45642 H 4172.6 -4.04452 0.986111 0
M  V30 45643 H 4173.13 -3.14953 2.43001 0
M  V30 45644 H 4169.87 -3.76936 5.36283 0
M  V30 45645 H 4169.39 -4.59081 3.86011 0
M  V30 45646 H 4171.07 -4.70238 4.44393 0
M  V30 45647 N 4171.2 -1.11974 -1.10903 0
M  V30 45648 C 4172.42 -0.895024 -1.87094 0
M  V30 45649 C 4172.85 0.550112 -1.79876 0
M  V30 45650 O 4172.21 1.38899 -1.16519 0
M  V30 45651 C 4172.25 -1.36831 -3.33631 0
M  V30 45652 O 4171.36 -0.543625 -4.08801 0
M  V30 45653 H 4170.7 -0.321948 -0.580728 0
M  V30 45654 H 4173.23 -1.49062 -1.40149 0
M  V30 45655 H 4173.24 -1.36526 -3.8448 0
M  V30 45656 H 4171.91 -2.4206 -3.38201 0
M  V30 45657 H 4170.49 -0.613249 -3.67823 0
M  V30 45658 N 4172.68 1.28609 -0.910909 0
M  V30 45659 C 4173.63 2.25005 -0.368333 0
M  V30 45660 C 4174.61 1.52336 0.517943 0
M  V30 45661 O 4175.8 1.73339 0.358129 0
M  V30 45662 C 4172.93 3.41043 0.393036 0
M  V30 45663 C 4172.02 4.21037 -0.508798 0
M  V30 45664 N 4172.41 4.79118 -1.62111 0
M  V30 45665 C 4170.71 4.44931 -0.308656 0
M  V30 45666 C 4171.41 5.3928 -2.18064 0
M  V30 45667 N 4170.38 5.23283 -1.47226 0
M  V30 45668 H 4174.19 2.6748 -1.21786 0
M  V30 45669 H 4171.7 1.43347 -0.763237 0
M  V30 45670 H 4173.7 4.0918 0.798564 0
M  V30 45671 H 4172.36 3.00103 1.23969 0
M  V30 45672 H 4173.37 4.77568 -2.00372 0
M  V30 45673 H 4170.04 4.14511 0.498717 0
M  V30 45674 H 4171.43 5.95269 -3.11616 0
M  V30 45675 N 4174.15 0.674583 1.42433 0
M  V30 45676 C 4175.1 -0.0155442 2.32595 0
M  V30 45677 C 4176.1 -0.79078 1.4981 0
M  V30 45678 O 4177.3 -0.698769 1.65883 0
M  V30 45679 H 4173.68 -0.0238215 0.751623 0
M  V30 45680 H 4175.65 0.762274 2.88499 0
M  V30 45681 C 4174.4 -0.953143 3.34381 0
M  V30 45682 H 4173.72 -0.366035 3.98121 0
M  V30 45683 H 4175.16 -1.40472 4.00055 0
M  V30 45684 C 4173.62 -2.05942 2.66626 0
M  V30 45685 O 4174.15 -3.14583 2.49801 0
M  V30 45686 N 4172.36 -1.83107 2.25655 0
M  V30 45687 H 4171.9 -0.94755 2.3954 0
M  V30 45688 H 4171.86 -2.57316 1.80654 0
M  V30 45689 N 4175.63 -1.51958 0.417898 0
M  V30 45690 C 4176.58 -2.2725 -0.403265 0
M  V30 45691 C 4177.55 -1.30025 -1.03357 0
M  V30 45692 O 4178.73 -1.58901 -1.05618 0
M  V30 45693 C 4175.87 -3.10349 -1.50922 0
M  V30 45694 C 4174.99 -4.22543 -0.898969 0
M  V30 45695 C 4174.12 -4.92986 -1.97835 0
M  V30 45696 C 4173.16 -5.97129 -1.3455 0
M  V30 45697 N 4172.3 -6.61055 -2.3654 0
M  V30 45698 H 4177.14 -2.9699 0.245195 0
M  V30 45699 H 4174.68 -1.465 0.132759 0
M  V30 45700 H 4176.63 -3.5684 -2.16151 0
M  V30 45701 H 4175.26 -2.42762 -2.12759 0
M  V30 45702 H 4174.32 -3.80159 -0.135495 0
M  V30 45703 H 4175.63 -4.9722 -0.396757 0
M  V30 45704 H 4174.78 -5.42926 -2.7077 0
M  V30 45705 H 4173.52 -4.17896 -2.51424 0
M  V30 45706 H 4172.53 -5.465 -0.60152 0
M  V30 45707 H 4173.75 -6.74165 -0.81719 0
M  V30 45708 H 4171.7 -5.8879 -2.89245 0
M  V30 45709 H 4171.61 -7.31434 -1.91156 0
M  V30 45710 H 4172.88 -7.15631 -3.09018 0
M  V30 45711 N 4177.11 -0.1486 -1.56898 0
M  V30 45712 C 4178.36 0.502856 -1.96467 0
M  V30 45713 C 4178.69 1.6441 -1.03358 0
M  V30 45714 O 4177.96 1.9435 -0.0762753 0
M  V30 45715 C 4178.25 1.00751 -3.45719 0
M  V30 45716 C 4178.1 -0.132356 -4.49605 0
M  V30 45717 C 4179.42 1.88876 -3.97509 0
M  V30 45718 H 4176.54 0.181316 -0.714348 0
M  V30 45719 H 4179.18 -0.23015 -1.88601 0
M  V30 45720 H 4177.33 1.63214 -3.52553 0
M  V30 45721 H 4179 -0.76875 -4.54849 0
M  V30 45722 H 4177.25 -0.791264 -4.26523 0
M  V30 45723 H 4177.92 0.262488 -5.51376 0
M  V30 45724 H 4180.39 1.36239 -3.93164 0
M  V30 45725 H 4179.27 2.21095 -5.02402 0
M  V30 45726 H 4179.53 2.82629 -3.39961 0
M  V30 45727 N 4178.59 1.57102 0.125182 0
M  V30 45728 C 4180 1.73759 0.682986 0
M  V30 45729 C 4180.35 0.766356 1.80614 0
M  V30 45730 O 4179.48 -0.0621362 2.16311 0
M  V30 45731 C 4180.07 3.15068 1.2457 0
M  V30 45732 C 4178.63 3.33252 1.74986 0
M  V30 45733 C 4177.78 2.69645 0.647059 0
M  V30 45734 H 4180.73 1.5838 -0.100685 0
M  V30 45735 H 4180.75 3.16276 2.11542 0
M  V30 45736 H 4180.26 3.85732 0.428032 0
M  V30 45737 H 4178.36 2.6762 2.5925 0
M  V30 45738 H 4178.47 4.41371 1.86356 0
M  V30 45739 H 4176.84 2.30709 1.07914 0
M  V30 45740 H 4177.62 3.42929 -0.159529 0
M  V30 45741 N 4180.07 -0.395186 1.52565 0
M  V30 45742 C 4181.3 -1.1605 1.70927 0
M  V30 45743 C 4181.7 -1.84374 0.424586 0
M  V30 45744 O 4181.05 -1.73266 -0.610297 0
M  V30 45745 C 4181.11 -2.2562 2.79886 0
M  V30 45746 C 4180.77 -1.77315 4.21199 0
M  V30 45747 C 4181.77 -1.25327 5.04568 0
M  V30 45748 C 4179.46 -1.83725 4.67494 0
M  V30 45749 C 4181.45 -0.803894 6.3231 0
M  V30 45750 C 4179.14 -1.38399 5.95222 0
M  V30 45751 C 4180.13 -0.86818 6.7746 0
M  V30 45752 O 4179.82 -0.421513 8.02794 0
M  V30 45753 H 4179.55 -0.354176 0.575791 0
M  V30 45754 H 4182.11 -0.469181 1.9997 0
M  V30 45755 H 4180.34 -2.98157 2.4625 0
M  V30 45756 H 4182.03 -2.87319 2.8671 0
M  V30 45757 H 4182.79 -1.19736 4.69988 0
M  V30 45758 H 4178.67 -2.22816 4.03576 0
M  V30 45759 H 4182.22 -0.400603 6.96449 0
M  V30 45760 H 4178.11 -1.43674 6.29308 0
M  V30 45761 H 4178.88 -0.543555 8.16693 0
M  V30 45762 N 4181.54 -1.43423 -0.653263 0
M  V30 45763 C 4182.77 -1.48263 -1.43881 0
M  V30 45764 C 4183.18 -0.0990862 -1.8894 0
M  V30 45765 O 4182.53 0.900955 -1.60089 0
M  V30 45766 C 4182.59 -2.36615 -2.70654 0
M  V30 45767 C 4182.25 -3.84155 -2.47535 0
M  V30 45768 C 4183.25 -4.75264 -2.1076 0
M  V30 45769 C 4180.93 -4.28642 -2.61861 0
M  V30 45770 C 4182.93 -6.08856 -1.88609 0
M  V30 45771 C 4180.61 -5.62287 -2.39324 0
M  V30 45772 C 4181.61 -6.52211 -2.02754 0
M  V30 45773 O 4181.3 -7.83385 -1.80453 0
M  V30 45774 H 4181.03 -0.505806 -0.448483 0
M  V30 45775 H 4183.59 -1.88832 -0.808184 0
M  V30 45776 H 4181.82 -1.90933 -3.36276 0
M  V30 45777 H 4183.51 -2.32658 -3.32603 0
M  V30 45778 H 4184.27 -4.42173 -1.99269 0
M  V30 45779 H 4180.15 -3.58924 -2.893 0
M  V30 45780 H 4183.69 -6.79006 -1.59989 0
M  V30 45781 H 4179.59 -5.94946 -2.50419 0
M  V30 45782 H 4180.36 -7.94962 -1.94879 0
M  V30 45783 N 4183.02 0.891625 -1.29953 0
M  V30 45784 C 4184.27 1.63754 -1.17761 0
M  V30 45785 C 4184.58 1.93753 0.268197 0
M  V30 45786 O 4185.79 2.66637 0.511548 0
M  V30 45787 C 4184.25 2.95104 -2.06013 0
M  V30 45788 C 4183.85 2.72671 -3.55464 0
M  V30 45789 C 4185.6 3.73051 -2.02566 0
M  V30 45790 C 4183.51 3.99797 -4.35794 0
M  V30 45791 H 4182.44 0.614342 -0.43715 0
M  V30 45792 H 4185.09 0.987666 -1.54653 0
M  V30 45793 H 4183.47 3.61348 -1.61998 0
M  V30 45794 H 4184.64 2.14969 -4.07584 0
M  V30 45795 H 4182.96 2.08108 -3.60666 0
M  V30 45796 H 4185.55 4.6732 -2.59838 0
M  V30 45797 H 4185.9 4.03923 -1.00755 0
M  V30 45798 H 4186.43 3.1366 -2.44668 0
M  V30 45799 H 4183.17 3.74087 -5.38274 0
M  V30 45800 H 4182.69 4.57028 -3.8844 0
M  V30 45801 H 4184.37 4.67875 -4.4688 0
M  V30 45802 N 4184.5 1.12561 1.10308 0
M  V30 45803 C 4185.45 0.789945 2.18775 0
M  V30 45804 C 4186.44 -0.223786 1.67915 0
M  V30 45805 O 4187.65 -0.0818578 1.79814 0
M  V30 45806 H 4184.02 0.23763 0.713468 0
M  V30 45807 H 4186 1.71312 2.44325 0
M  V30 45808 C 4184.74 0.262291 3.46709 0
M  V30 45809 H 4184.07 1.03363 3.86207 0
M  V30 45810 H 4185.51 0.0657503 4.23949 0
M  V30 45811 C 4183.97 -1.01006 3.21402 0
M  V30 45812 O 4184.5 -2.08761 3.43193 0
M  V30 45813 N 4182.7 -0.937523 2.75062 0
M  V30 45814 H 4182.25 -0.0605104 2.57529 0
M  V30 45815 H 4182.21 -1.78946 2.58507 0
M  V30 45816 N 4185.98 -1.28124 0.917717 0
M  V30 45817 C 4186.93 -2.24807 0.380261 0
M  V30 45818 C 4187.91 -1.52608 -0.509856 0
M  V30 45819 O 4189.11 -1.73527 -0.348931 0
M  V30 45820 C 4186.23 -3.41246 -0.374944 0
M  V30 45821 C 4185.32 -4.20761 0.531119 0
M  V30 45822 N 4185.71 -4.78251 1.64649 0
M  V30 45823 C 4184.01 -4.44761 0.332248 0
M  V30 45824 C 4184.71 -5.38116 2.20921 0
M  V30 45825 N 4183.69 -5.22495 1.49999 0
M  V30 45826 H 4187.49 -2.6683 1.23203 0
M  V30 45827 H 4185 -1.42941 0.770828 0
M  V30 45828 H 4187 -4.09598 -0.776853 0
M  V30 45829 H 4185.66 -3.00756 -1.22376 0
M  V30 45830 H 4186.67 -4.76499 2.02902 0
M  V30 45831 H 4183.35 -4.14769 -0.476728 0
M  V30 45832 H 4184.74 -5.93608 3.14768 0
M  V30 45833 N 4187.46 -0.682127 -1.42073 0
M  V30 45834 C 4188.39 0.0306651 -2.29179 0
M  V30 45835 C 4189.4 0.758093 -1.44072 0
M  V30 45836 O 4190.59 0.611032 -1.67716 0
M  V30 45837 C 4187.69 1.06729 -3.21655 0
M  V30 45838 C 4186.86 0.412204 -4.35453 0
M  V30 45839 C 4185.92 1.3496 -5.08598 0
M  V30 45840 O 4184.95 0.84711 -5.62861 0
M  V30 45841 N 4186.15 2.68258 -5.14799 0
M  V30 45842 H 4188.92 -0.717111 -2.90994 0
M  V30 45843 H 4186.48 -0.527107 -1.53079 0
M  V30 45844 H 4188.47 1.69582 -3.67456 0
M  V30 45845 H 4187.04 1.71673 -2.61242 0
M  V30 45846 H 4186.26 -0.395977 -3.92206 0
M  V30 45847 H 4187.55 -0.0438602 -5.08781 0
M  V30 45848 H 4186.95 3.11615 -4.72136 0
M  V30 45849 H 4185.5 3.26341 -5.64221 0
M  V30 45850 N 4188.94 1.51735 -0.425951 0
M  V30 45851 C 4190.16 2.06403 0.143315 0
M  V30 45852 C 4190.58 1.29448 1.37436 0
M  V30 45853 O 4189.94 0.35089 1.79095 0
M  V30 45854 C 4189.99 3.5834 0.476954 0
M  V30 45855 O 4189.71 4.32387 -0.705224 0
M  V30 45856 C 4191.21 4.29483 1.09813 0
M  V30 45857 H 4188.43 0.670875 0.0129651 0
M  V30 45858 H 4190.97 1.95446 -0.601753 0
M  V30 45859 H 4189.13 3.69249 1.17192 0
M  V30 45860 H 4189.54 5.22794 -0.422691 0
M  V30 45861 H 4191.02 5.36915 1.28166 0
M  V30 45862 H 4191.49 3.87039 2.07599 0
M  V30 45863 H 4192.1 4.22988 0.442882 0
M  V30 45864 N 4190.41 0.156919 1.56817 0
M  V30 45865 C 4191.35 -0.81013 2.14405 0
M  V30 45866 C 4192.36 -1.20384 1.09597 0
M  V30 45867 O 4193.55 -1.14619 1.36838 0
M  V30 45868 C 4190.65 -2.09991 2.66001 0
M  V30 45869 C 4189.82 -1.87203 3.95315 0
M  V30 45870 C 4188.88 -3.00263 4.32121 0
M  V30 45871 O 4187.91 -2.71523 5.00264 0
M  V30 45872 N 4189.11 -4.2769 3.92507 0
M  V30 45873 H 4191.87 -0.317883 2.98009 0
M  V30 45874 H 4189.43 -0.026335 1.61879 0
M  V30 45875 H 4191.43 -2.84694 2.87631 0
M  V30 45876 H 4190 -2.50449 1.87067 0
M  V30 45877 H 4189.22 -0.964824 3.8221 0
M  V30 45878 H 4190.5 -1.69327 4.79798 0
M  V30 45879 H 4189.9 -4.53905 3.3762 0
M  V30 45880 H 4188.46 -4.99141 4.19168 0
M  V30 45881 N 4191.89 -1.57166 -0.116849 0
M  V30 45882 C 4193.12 -1.89153 -0.838383 0
M  V30 45883 C 4193.53 -0.748392 -1.73334 0
M  V30 45884 O 4192.89 0.280687 -1.80329 0
M  V30 45885 C 4192.94 -3.20614 -1.67001 0
M  V30 45886 O 4192.66 -4.30526 -0.811082 0
M  V30 45887 C 4194.16 -3.66319 -2.49651 0
M  V30 45888 H 4191.38 -0.626266 -0.240898 0
M  V30 45889 H 4193.93 -2.04252 -0.100595 0
M  V30 45890 H 4192.08 -3.07177 -2.36053 0
M  V30 45891 H 4192.5 -5.05886 -1.3849 0
M  V30 45892 H 4193.97 -4.61058 -3.03529 0
M  V30 45893 H 4194.45 -2.93081 -3.27109 0
M  V30 45894 H 4195.05 -3.8255 -1.85837 0
M  V30 45895 N 4193.37 0.38709 -1.52772 0
M  V30 45896 C 4194.6 1.15309 -1.71789 0
M  V30 45897 C 4195.01 1.8367 -0.437114 0
M  V30 45898 O 4194.37 1.7275 0.588543 0
M  V30 45899 C 4194.42 2.19969 -2.86873 0
M  V30 45900 O 4194.14 1.54395 -4.09993 0
M  V30 45901 C 4195.64 3.09282 -3.17584 0
M  V30 45902 H 4192.86 0.345649 -0.575124 0
M  V30 45903 H 4195.41 0.452572 -1.99429 0
M  V30 45904 H 4193.56 2.85653 -2.61689 0
M  V30 45905 H 4193.98 2.23953 -4.74284 0
M  V30 45906 H 4195.45 3.78743 -4.01569 0
M  V30 45907 H 4195.93 3.72896 -2.32046 0
M  V30 45908 H 4196.53 2.4924 -3.44615 0
M  V30 45909 N 4194.85 1.43768 0.645648 0
M  V30 45910 C 4196.09 1.47295 1.41716 0
M  V30 45911 C 4196.45 0.0972992 1.91753 0
M  V30 45912 O 4197.65 0.00725325 2.68799 0
M  V30 45913 C 4195.92 2.49234 2.56158 0
M  V30 45914 S 4197.48 2.71696 3.44567 0
M  V30 45915 H 4194.3 0.521152 0.483655 0
M  V30 45916 H 4196.9 1.80589 0.748866 0
M  V30 45917 H 4195.61 3.4791 2.17685 0
M  V30 45918 H 4195.14 2.17464 3.27831 0
M  V30 45919 H 4197.15 2.02194 4.53136 0
M  V30 45920 N 4196.33 -0.884721 1.30424 0
M  V30 45921 C 4197.57 -1.63902 1.20448 0
M  V30 45922 C 4197.93 -1.90917 -0.238433 0
M  V30 45923 O 4197.22 -1.51919 -1.16752 0
M  V30 45924 C 4197.41 -2.98411 1.96687 0
M  V30 45925 C 4197.24 -2.84528 3.48244 0
M  V30 45926 C 4196.01 -2.84497 4.176 0
M  V30 45927 C 4198.21 -2.60458 4.43471 0
M  V30 45928 N 4196.19 -2.61507 5.55416 0
M  V30 45929 C 4197.56 -2.46593 5.68852 0
M  V30 45930 C 4199.62 -2.45684 4.33063 0
M  V30 45931 C 4198.32 -2.19457 6.85004 0
M  V30 45932 C 4200.35 -2.19934 5.48983 0
M  V30 45933 C 4199.71 -2.06846 6.73345 0
M  V30 45934 H 4195.81 -0.604727 0.495812 0
M  V30 45935 H 4198.39 -1.04252 1.64437 0
M  V30 45936 H 4196.56 -3.56093 1.55089 0
M  V30 45937 H 4198.3 -3.63035 1.78851 0
M  V30 45938 H 4195.05 -2.96336 3.69434 0
M  V30 45939 H 4195.47 -2.53024 6.27939 0
M  V30 45940 H 4200.12 -2.54538 3.37594 0
M  V30 45941 H 4197.83 -2.09341 7.80514 0
M  V30 45942 H 4201.42 -2.09325 5.42839 0
M  V30 45943 H 4200.3 -1.872 7.61529 0
M  V30 45944 N 4197.8 -1.13144 -1.09709 0
M  V30 45945 C 4199.08 -0.802597 -1.78375 0
M  V30 45946 C 4199.46 0.706357 -1.98932 0
M  V30 45947 O 4198.81 1.64264 -1.58838 0
M  V30 45948 C 4199.02 -1.58621 -3.10871 0
M  V30 45949 C 4200.37 -1.77702 -3.85626 0
M  V30 45950 O 4201.39 -1.55195 -3.20613 0
M  V30 45951 O 4200.25 -2.15236 -5.0233 0
M  V30 45952 H 4197.34 -0.292732 -0.773458 0
M  V30 45953 H 4199.89 -1.23589 -1.16292 0
M  V30 45954 H 4198.66 -2.61182 -2.91375 0
M  V30 45955 H 4198.28 -1.14765 -3.80677 0
M  V30 45956 N 4199.28 1.27635 -0.924498 0
M  V30 45957 C 4200.23 2.24602 -0.392178 0
M  V30 45958 C 4201.22 1.52876 0.501756 0
M  V30 45959 O 4202.41 1.73709 0.339724 0
M  V30 45960 C 4199.54 3.4144 0.356842 0
M  V30 45961 C 4198.62 4.20474 -0.553426 0
M  V30 45962 N 4199.01 4.77371 -1.67183 0
M  V30 45963 C 4197.31 4.44578 -0.35583 0
M  V30 45964 C 4198.01 5.36937 -2.23772 0
M  V30 45965 N 4196.99 5.21692 -1.52768 0
M  V30 45966 H 4200.79 2.66173 -1.24616 0
M  V30 45967 H 4198.31 1.4253 -0.778398 0
M  V30 45968 H 4200.3 4.10004 0.75512 0
M  V30 45969 H 4198.96 3.01401 1.20779 0
M  V30 45970 H 4199.97 4.75416 -2.05426 0
M  V30 45971 H 4196.65 4.15016 0.454725 0
M  V30 45972 H 4198.04 5.9193 -3.17912 0
M  V30 45973 N 4200.76 0.689652 1.41709 0
M  V30 45974 C 4202.17 0.293619 1.84377 0
M  V30 45975 C 4202.52 -1.16709 1.57713 0
M  V30 45976 O 4201.65 -1.89522 1.04453 0
M  V30 45977 C 4202.24 0.526132 3.3469 0
M  V30 45978 C 4200.8 0.184075 3.7595 0
M  V30 45979 C 4199.95 0.811324 2.65166 0
M  V30 45980 H 4202.9 0.890741 1.31345 0
M  V30 45981 H 4202.92 -0.217057 3.7988 0
M  V30 45982 H 4202.43 1.58933 3.54065 0
M  V30 45983 H 4200.53 -0.875095 3.62178 0
M  V30 45984 H 4200.65 0.634964 4.74874 0
M  V30 45985 H 4199.01 0.241408 2.53553 0
M  V30 45986 H 4199.79 1.87827 2.8736 0
M  V30 45987 N 4202.24 -1.51507 0.433991 0
M  V30 45988 C 4203.19 -2.27665 -0.37914 0
M  V30 45989 C 4204.16 -1.31114 -1.01972 0
M  V30 45990 O 4205.34 -1.60012 -1.03927 0
M  V30 45991 C 4202.48 -3.11932 -1.47622 0
M  V30 45992 C 4201.59 -4.23473 -0.854102 0
M  V30 45993 C 4200.73 -4.95056 -1.92595 0
M  V30 45994 C 4199.77 -5.98522 -1.28209 0
M  V30 45995 N 4198.9 -6.63526 -2.29515 0
M  V30 45996 H 4203.74 -2.96713 0.276681 0
M  V30 45997 H 4201.28 -1.46351 0.148289 0
M  V30 45998 H 4203.24 -3.59112 -2.12354 0
M  V30 45999 H 4201.87 -2.45005 -2.10172 0
M  V30 46000 H 4200.92 -3.80281 -0.0951661 0
M  V30 46001 H 4202.23 -4.97612 -0.343998 0
M  V30 46002 H 4201.39 -5.45767 -2.64997 0
M  V30 46003 H 4200.13 -4.20539 -2.46978 0
M  V30 46004 H 4199.13 -5.47107 -0.543523 0
M  V30 46005 H 4200.36 -6.74994 -0.745639 0
M  V30 46006 H 4198.3 -5.91824 -2.82984 0
M  V30 46007 H 4198.22 -7.3342 -1.83387 0
M  V30 46008 H 4199.49 -7.18868 -3.01411 0
M  V30 46009 N 4203.72 -0.165233 -1.56731 0
M  V30 46010 C 4204.65 0.805948 -2.13494 0
M  V30 46011 C 4205.63 1.23009 -1.06337 0
M  V30 46012 O 4206.81 1.32295 -1.34277 0
M  V30 46013 C 4203.94 2.08455 -2.66954 0
M  V30 46014 C 4202.98 1.80491 -3.86426 0
M  V30 46015 S 4203.82 0.979578 -5.26464 0
M  V30 46016 C 4204.97 2.26897 -5.83325 0
M  V30 46017 H 4205.21 0.323308 -2.95537 0
M  V30 46018 H 4202.74 0.0493435 -1.54321 0
M  V30 46019 H 4204.7 2.81898 -2.98402 0
M  V30 46020 H 4203.36 2.53832 -1.85008 0
M  V30 46021 H 4202.55 2.75345 -4.22139 0
M  V30 46022 H 4202.15 1.15147 -3.55833 0
M  V30 46023 H 4204.45 3.22408 -5.95868 0
M  V30 46024 H 4205.39 1.95663 -6.8053 0
M  V30 46025 H 4205.8 2.38379 -5.11699 0
M  V30 46026 N 4205.19 1.57226 0.108512 0
M  V30 46027 C 4206.42 1.89595 0.82834 0
M  V30 46028 C 4206.84 0.757574 1.72934 0
M  V30 46029 O 4206.19 -0.27112 1.80475 0
M  V30 46030 C 4206.25 3.21495 1.65298 0
M  V30 46031 O 4205.97 4.30951 0.788239 0
M  V30 46032 C 4207.47 3.67637 2.47705 0
M  V30 46033 H 4204.69 0.627535 0.237573 0
M  V30 46034 H 4207.23 2.04303 0.0897616 0
M  V30 46035 H 4205.39 3.08425 2.34421 0
M  V30 46036 H 4205.8 5.06613 1.35805 0
M  V30 46037 H 4207.27 4.62661 3.0108 0
M  V30 46038 H 4207.75 2.94811 3.2555 0
M  V30 46039 H 4208.36 3.8353 1.83806 0
M  V30 46040 N 4206.67 -0.378982 1.52975 0
M  V30 46041 C 4207.58 -1.48761 1.81404 0
M  V30 46042 C 4208.6 -1.59234 0.701463 0
M  V30 46043 O 4209.77 -1.75381 0.990116 0
M  V30 46044 C 4206.84 -2.84183 1.98598 0
M  V30 46045 C 4205.9 -2.83348 3.22509 0
M  V30 46046 C 4205.13 -4.12311 3.38873 0
M  V30 46047 O 4205.36 -5.07787 2.59823 0
M  V30 46048 O 4204.29 -4.18939 4.32173 0
M  V30 46049 H 4208.12 -1.27666 2.75563 0
M  V30 46050 H 4205.7 -0.567796 1.3819 0
M  V30 46051 H 4207.58 -3.64448 2.11556 0
M  V30 46052 H 4206.26 -3.05283 1.07628 0
M  V30 46053 H 4205.17 -2.01829 3.14985 0
M  V30 46054 H 4206.5 -2.67201 4.13358 0
M  V30 46055 N 4208.15 -1.44108 -0.638015 0
M  V30 46056 C 4209.08 -1.53263 -1.76161 0
M  V30 46057 C 4210.06 -0.386136 -1.65659 0
M  V30 46058 O 4211.25 -0.605358 -1.84524 0
M  V30 46059 C 4208.38 -1.46986 -3.14662 0
M  V30 46060 C 4207.33 -2.60041 -3.39945 0
M  V30 46061 C 4206.66 -2.38816 -4.78405 0
M  V30 46062 C 4207.96 -4.02224 -3.33186 0
M  V30 46063 H 4209.65 -2.47309 -1.68756 0
M  V30 46064 H 4207.2 -1.19027 -0.810462 0
M  V30 46065 H 4209.15 -1.51992 -3.93035 0
M  V30 46066 H 4207.87 -0.494528 -3.22834 0
M  V30 46067 H 4206.53 -2.54413 -2.6395 0
M  V30 46068 H 4206.18 -1.39491 -4.83271 0
M  V30 46069 H 4205.88 -3.14611 -4.9628 0
M  V30 46070 H 4207.4 -2.4563 -5.59016 0
M  V30 46071 H 4208.82 -4.09259 -4.01473 0
M  V30 46072 H 4207.22 -4.78167 -3.62596 0
M  V30 46073 H 4208.29 -4.26283 -2.31108 0
M  V30 46074 N 4209.63 0.877792 -1.30891 0
M  V30 46075 C 4210.88 1.6302 -1.20128 0
M  V30 46076 C 4211.2 1.92984 0.24238 0
M  V30 46077 O 4210.46 1.55444 1.18893 0
M  V30 46078 C 4210.76 2.97364 -1.98266 0
M  V30 46079 C 4210.42 2.86924 -3.4783 0
M  V30 46080 C 4209.09 2.83783 -3.88613 0
M  V30 46081 C 4211.44 2.74527 -4.4304 0
M  V30 46082 C 4208.77 2.66095 -5.22887 0
M  V30 46083 C 4211.12 2.58376 -5.77429 0
M  V30 46084 C 4209.78 2.53614 -6.17443 0
M  V30 46085 H 4209.05 0.596533 -0.439579 0
M  V30 46086 H 4211.7 1.02004 -1.62072 0
M  V30 46087 H 4210 3.62371 -1.48979 0
M  V30 46088 H 4211.7 3.54557 -1.87325 0
M  V30 46089 H 4208.29 2.90181 -3.15425 0
M  V30 46090 H 4212.47 2.76014 -4.12468 0
M  V30 46091 H 4207.73 2.60828 -5.52973 0
M  V30 46092 H 4211.9 2.47759 -6.50837 0
M  V30 46093 H 4209.53 2.39666 -7.21432 0
M  V30 46094 N 4211.11 1.13725 1.09108 0
M  V30 46095 C 4212.04 0.775393 2.15686 0
M  V30 46096 C 4213.05 -0.204401 1.61512 0
M  V30 46097 O 4214.24 0.0162688 1.78493 0
M  V30 46098 C 4211.34 0.129138 3.38654 0
M  V30 46099 C 4210.51 1.14185 4.22233 0
M  V30 46100 C 4209.57 0.520686 5.23618 0
M  V30 46101 O 4208.6 1.18162 5.568 0
M  V30 46102 N 4209.8 -0.705796 5.76193 0
M  V30 46103 H 4212.57 1.69252 2.47334 0
M  V30 46104 H 4210.13 1.0307 1.24853 0
M  V30 46105 H 4212.12 -0.298743 4.03596 0
M  V30 46106 H 4210.69 -0.690986 3.04867 0
M  V30 46107 H 4209.91 1.74691 3.53379 0
M  V30 46108 H 4211.2 1.8262 4.74897 0
M  V30 46109 H 4210.59 -1.26148 5.51455 0
M  V30 46110 H 4209.15 -1.07629 6.42852 0
M  V30 46111 N 4212.58 -1.27143 0.931254 0
M  V30 46112 C 4213.81 -1.98848 0.589428 0
M  V30 46113 C 4214.23 -1.68977 -0.82634 0
M  V30 46114 O 4213.59 -0.932077 -1.55506 0
M  V30 46115 C 4213.64 -3.51008 0.826197 0
M  V30 46116 O 4212.74 -4.12262 -0.106508 0
M  V30 46117 H 4212.09 -0.624159 0.226543 0
M  V30 46118 H 4214.62 -1.61862 1.25148 0
M  V30 46119 H 4214.63 -4.01175 0.743164 0
M  V30 46120 H 4213.3 -3.72081 1.85819 0
M  V30 46121 H 4211.88 -3.7289 0.0267391 0
M  V30 46122 N 4214.06 -0.697157 -1.41342 0
M  V30 46123 C 4214.99 -0.0472267 -2.33452 0
M  V30 46124 C 4215.97 0.765462 -1.51904 0
M  V30 46125 O 4217.16 0.718114 -1.80435 0
M  V30 46126 C 4214.29 0.888722 -3.35737 0
M  V30 46127 C 4213.24 0.183013 -4.27609 0
M  V30 46128 C 4212.57 1.23343 -5.20279 0
M  V30 46129 C 4213.87 -0.951649 -5.13557 0
M  V30 46130 H 4215.56 -0.816546 -2.8805 0
M  V30 46131 H 4213.11 -0.394113 -1.38502 0
M  V30 46132 H 4215.06 1.35265 -3.99101 0
M  V30 46133 H 4213.79 1.68973 -2.79492 0
M  V30 46134 H 4212.45 -0.260897 -3.6567 0
M  V30 46135 H 4212.09 2.027 -4.6035 0
M  V30 46136 H 4211.79 0.766234 -5.82583 0
M  V30 46137 H 4213.32 1.69783 -5.8652 0
M  V30 46138 H 4214.73 -0.567935 -5.7048 0
M  V30 46139 H 4213.13 -1.34604 -5.84809 0
M  V30 46140 H 4214.2 -1.79061 -4.50628 0
M  V30 46141 N 4215.54 1.51274 -0.44202 0
M  V30 46142 C 4216.5 2.26427 0.355462 0
M  V30 46143 C 4217.5 1.30052 0.945677 0
M  V30 46144 O 4218.69 1.53726 0.819395 0
M  V30 46145 C 4215.83 3.0596 1.50338 0
M  V30 46146 H 4217.02 2.98363 -0.30323 0
M  V30 46147 H 4214.57 1.55075 -0.195306 0
M  V30 46148 H 4215.31 2.38451 2.19799 0
M  V30 46149 H 4215.09 3.76752 1.08629 0
M  V30 46150 H 4216.58 3.62874 2.06669 0
M  V30 46151 N 4217.02 0.173543 1.56642 0
M  V30 46152 C 4218.3 -0.517315 1.88635 0
M  V30 46153 C 4218.68 -1.81156 1.08378 0
M  V30 46154 O 4218.02 -2.27803 0.178359 0
M  V30 46155 C 4218.23 -0.757058 3.4069 0
M  V30 46156 C 4219.58 -1.08607 4.10475 0
M  V30 46157 O 4220.61 -0.845522 3.46019 0
M  V30 46158 O 4219.47 -1.53999 5.24354 0
M  V30 46159 H 4216.56 -0.266935 0.782735 0
M  V30 46160 H 4219.11 0.212145 1.68369 0
M  V30 46161 H 4217.88 0.157806 3.90982 0
M  V30 46162 H 4217.5 -1.53976 3.66575 0
M  V30 46163 N 4218.5 -1.57281 -0.100172 0
M  V30 46164 C 4219.43 -2.04736 -1.12274 0
M  V30 46165 C 4220.41 -0.935306 -1.42078 0
M  V30 46166 O 4221.59 -1.20625 -1.52195 0
M  V30 46167 C 4218.72 -2.46753 -2.44398 0
M  V30 46168 C 4217.68 -3.61575 -2.29015 0
M  V30 46169 C 4217 -3.89552 -3.6627 0
M  V30 46170 C 4218.3 -4.92643 -1.73493 0
M  V30 46171 H 4220 -2.90415 -0.727968 0
M  V30 46172 H 4217.54 -1.39714 -0.348728 0
M  V30 46173 H 4219.5 -2.78559 -3.16201 0
M  V30 46174 H 4218.22 -1.58066 -2.85802 0
M  V30 46175 H 4216.88 -3.30008 -1.59658 0
M  V30 46176 H 4216.53 -2.98041 -4.05192 0
M  V30 46177 H 4216.23 -4.66851 -3.56824 0
M  V30 46178 H 4217.75 -4.23828 -4.39548 0
M  V30 46179 H 4219.17 -5.22863 -2.35131 0
M  V30 46180 H 4217.56 -5.74071 -1.7482 0
M  V30 46181 H 4218.63 -4.79909 -0.693945 0
M  V30 46182 N 4219.98 0.370864 -1.53174 0
M  V30 46183 C 4220.92 1.47438 -1.79902 0
M  V30 46184 C 4221.92 1.55679 -0.667855 0
M  V30 46185 O 4223.12 1.58629 -0.850696 0
M  V30 46186 H 4219.5 0.491061 -0.569529 0
M  V30 46187 H 4221.47 1.22097 -2.72277 0
M  V30 46188 C 4220.22 2.84343 -2.00111 0
M  V30 46189 H 4219.54 2.78759 -2.8659 0
M  V30 46190 H 4220.98 3.60749 -2.22792 0
M  V30 46191 C 4219.44 3.27777 -0.778709 0
M  V30 46192 O 4219.97 4.01685 0.035154 0
M  V30 46193 N 4218.18 2.84261 -0.603649 0
M  V30 46194 H 4217.72 2.24283 -1.26708 0
M  V30 46195 H 4217.68 3.13679 0.212847 0
M  V30 46196 N 4221.45 1.44444 0.630363 0
M  V30 46197 C 4222.4 1.5167 1.76349 0
M  V30 46198 C 4223.4 0.388346 1.64889 0
M  V30 46199 O 4224.6 0.563323 1.70958 0
M  V30 46200 H 4220.98 0.475948 0.582218 0
M  V30 46201 H 4222.95 2.47037 1.67377 0
M  V30 46202 C 4221.7 1.4788 3.14685 0
M  V30 46203 H 4221.02 2.34021 3.24152 0
M  V30 46204 H 4222.46 1.56997 3.93863 0
M  V30 46205 C 4220.92 0.199681 3.36308 0
M  V30 46206 O 4221.45 -0.72981 3.95015 0
M  V30 46207 N 4219.65 0.102575 2.90419 0
M  V30 46208 H 4219.2 0.859803 2.42827 0
M  V30 46209 H 4219.16 -0.752513 3.05262 0
M  V30 46210 N 4222.93 -0.870838 1.31355 0
M  V30 46211 C 4224.18 -1.62621 1.2117 0
M  V30 46212 C 4224.51 -1.92835 -0.229856 0
M  V30 46213 O 4223.79 -1.55933 -1.16254 0
M  V30 46214 C 4224.07 -2.95699 2.0551 0
M  V30 46215 C 4223.92 -2.72369 3.5796 0
M  V30 46216 C 4225.24 -3.96791 1.90382 0
M  V30 46217 H 4222.36 -0.590104 0.441528 0
M  V30 46218 H 4225 -1.00673 1.61136 0
M  V30 46219 H 4223.15 -3.4857 1.71555 0
M  V30 46220 H 4224.82 -2.26176 4.02047 0
M  V30 46221 H 4223.07 -2.06616 3.81434 0
M  V30 46222 H 4223.74 -3.67056 4.12279 0
M  V30 46223 H 4226.21 -3.53125 2.20096 0
M  V30 46224 H 4225.09 -4.87791 2.51697 0
M  V30 46225 H 4225.35 -4.33518 0.866881 0
M  V30 46226 N 4224.41 -1.14302 -1.08503 0
M  V30 46227 C 4225.83 -0.883196 -1.32935 0
M  V30 46228 C 4226.03 0.476196 -1.95792 0
M  V30 46229 O 4225.08 1.22069 -2.21033 0
M  V30 46230 C 4226.39 -2.01516 -2.23186 0
M  V30 46231 C 4227.94 -2.04834 -2.36669 0
M  V30 46232 C 4228.42 -3.1732 -3.30261 0
M  V30 46233 N 4229.91 -3.16892 -3.37837 0
M  V30 46234 C 4230.64 -4.00568 -4.10283 0
M  V30 46235 N 4230.14 -4.94282 -4.85445 0
M  V30 46236 N 4231.93 -3.88633 -4.06105 0
M  V30 46237 H 4224.08 -2.01858 -0.660834 0
M  V30 46238 H 4226.35 -0.879535 -0.353726 0
M  V30 46239 H 4226.05 -2.99579 -1.84242 0
M  V30 46240 H 4225.93 -1.93744 -3.23641 0
M  V30 46241 H 4228.31 -1.07378 -2.74871 0
M  V30 46242 H 4228.39 -2.16676 -1.3596 0
M  V30 46243 H 4228.04 -4.15021 -2.92779 0
M  V30 46244 H 4227.97 -3.02715 -4.30896 0
M  V30 46245 H 4230.46 -2.49016 -2.84252 0
M  V30 46246 H 4230.77 -5.54598 -5.38183 0
M  V30 46247 H 4229.12 -4.9828 -4.84501 0
M  V30 46248 H 4232.31 -3.1474 -3.46491 0
M  V30 46249 H 4232.48 -4.54072 -4.62302 0
M  V30 46250 N 4225.89 1.26648 -0.937984 0
M  V30 46251 C 4227.13 1.93901 -0.583852 0
M  V30 46252 C 4227.46 1.73627 0.876571 0
M  V30 46253 O 4226.72 1.06473 1.64201 0
M  V30 46254 C 4227.02 3.46686 -0.868539 0
M  V30 46255 C 4226.68 3.87094 -2.31233 0
M  V30 46256 C 4225.34 3.97837 -2.70702 0
M  V30 46257 C 4227.7 4.07401 -3.25075 0
M  V30 46258 C 4225.02 4.26281 -4.03115 0
M  V30 46259 C 4227.38 4.37333 -4.57081 0
M  V30 46260 C 4226.04 4.46289 -4.96369 0
M  V30 46261 H 4225.31 0.709532 -0.213647 0
M  V30 46262 H 4227.96 1.5052 -1.18389 0
M  V30 46263 H 4226.26 3.91359 -0.185933 0
M  V30 46264 H 4227.96 3.9688 -0.573359 0
M  V30 46265 H 4224.55 3.79277 -1.99617 0
M  V30 46266 H 4228.73 3.98532 -2.9578 0
M  V30 46267 H 4223.99 4.31427 -4.33222 0
M  V30 46268 H 4228.16 4.51992 -5.29789 0
M  V30 46269 H 4225.79 4.68084 -5.99 0
M  V30 46270 N 4227.37 0.704643 1.4097 0
M  V30 46271 C 4228.59 0.247316 2.0592 0
M  V30 46272 C 4229.02 -1.09823 1.5271 0
M  V30 46273 O 4228.37 -1.68944 0.65785 0
M  V30 46274 C 4228.42 0.225337 3.59895 0
M  V30 46275 O 4227.53 -0.796948 4.04626 0
M  V30 46276 H 4226.87 0.118569 0.653328 0
M  V30 46277 H 4229.4 0.962052 1.80571 0
M  V30 46278 H 4229.41 0.0592812 4.07957 0
M  V30 46279 H 4228.08 1.20732 3.97991 0
M  V30 46280 H 4226.66 -0.599508 3.68049 0
M  V30 46281 N 4228.84 -1.51038 0.450036 0
M  V30 46282 C 4229.81 -2.26612 -0.343449 0
M  V30 46283 C 4230.81 -1.30552 -0.938766 0
M  V30 46284 O 4232 -1.54158 -0.811231 0
M  V30 46285 C 4229.13 -3.06753 -1.48713 0
M  V30 46286 H 4230.32 -2.98198 0.319048 0
M  V30 46287 H 4227.88 -1.54969 0.203527 0
M  V30 46288 H 4228.61 -2.39614 -2.18531 0
M  V30 46289 H 4228.4 -3.77323 -1.0663 0
M  V30 46290 H 4229.89 -3.63965 -2.04742 0
M  V30 46291 N 4230.32 -0.181847 -1.56547 0
M  V30 46292 C 4231.55 0.465684 -2.01283 0
M  V30 46293 C 4231.96 1.56639 -1.06117 0
M  V30 46294 O 4231.3 1.83615 -0.0559082 0
M  V30 46295 C 4231.37 1.09448 -3.42434 0
M  V30 46296 C 4231.03 0.134143 -4.56803 0
M  V30 46297 C 4232.03 -0.6515 -5.15802 0
M  V30 46298 C 4229.71 0.0269087 -5.02293 0
M  V30 46299 C 4231.71 -1.53147 -6.18728 0
M  V30 46300 C 4229.39 -0.856638 -6.05066 0
M  V30 46301 C 4230.39 -1.63441 -6.63156 0
M  V30 46302 O 4230.08 -2.50317 -7.63935 0
M  V30 46303 H 4229.81 0.122591 -0.664791 0
M  V30 46304 H 4232.36 -0.283861 -2.03429 0
M  V30 46305 H 4230.59 1.89236 -3.37234 0
M  V30 46306 H 4232.28 1.6453 -3.71059 0
M  V30 46307 H 4233.05 -0.578885 -4.81533 0
M  V30 46308 H 4228.93 0.622093 -4.56783 0
M  V30 46309 H 4232.47 -2.139 -6.63997 0
M  V30 46310 H 4228.37 -0.930418 -6.38759 0
M  V30 46311 H 4229.14 -2.43949 -7.81301 0
M  V30 46312 N 4231.8 1.57332 0.09183 0
M  V30 46313 C 4233.22 1.53238 0.446124 0
M  V30 46314 C 4233.42 0.899058 1.80331 0
M  V30 46315 O 4232.47 0.492965 2.47641 0
M  V30 46316 C 4233.79 2.97952 0.405609 0
M  V30 46317 C 4235.33 3.09184 0.487232 0
M  V30 46318 C 4235.81 4.55511 0.476832 0
M  V30 46319 N 4237.3 4.60071 0.537492 0
M  V30 46320 C 4238.03 5.70743 0.551336 0
M  V30 46321 N 4237.53 6.90837 0.521191 0
M  V30 46322 N 4239.32 5.58927 0.596392 0
M  V30 46323 H 4231.47 1.96876 -0.797095 0
M  V30 46324 H 4233.74 0.900262 -0.297038 0
M  V30 46325 H 4233.44 3.47767 -0.524528 0
M  V30 46326 H 4233.32 3.5681 1.22336 0
M  V30 46327 H 4235.7 2.59356 1.40779 0
M  V30 46328 H 4235.79 2.53272 -0.358722 0
M  V30 46329 H 4235.43 5.05992 -0.439794 0
M  V30 46330 H 4235.36 5.09265 1.34004 0
M  V30 46331 H 4237.85 3.7364 0.565851 0
M  V30 46332 H 4238.16 7.70945 0.535128 0
M  V30 46333 H 4236.51 6.93283 0.488188 0
M  V30 46334 H 4239.7 4.64009 0.617495 0
M  V30 46335 H 4239.87 6.45182 0.603712 0
M  V30 46336 N 4233.28 -0.362736 1.53369 0
M  V30 46337 C 4234.51 -1.12562 1.73601 0
M  V30 46338 C 4234.92 -1.82952 0.466279 0
M  V30 46339 O 4234.28 -1.73664 -0.560985 0
M  V30 46340 C 4234.33 -2.15377 2.90336 0
M  V30 46341 O 4234.05 -1.47852 4.12397 0
M  V30 46342 C 4235.55 -3.0419 3.22464 0
M  V30 46343 H 4232.77 -0.336456 0.58055 0
M  V30 46344 H 4235.32 -0.420788 2.00124 0
M  V30 46345 H 4233.47 -2.81454 2.662 0
M  V30 46346 H 4233.88 -2.16379 4.77787 0
M  V30 46347 H 4235.36 -3.72307 4.07544 0
M  V30 46348 H 4235.84 -3.69157 2.37949 0
M  V30 46349 H 4236.44 -2.43726 3.48537 0
M  V30 46350 N 4234.76 -1.44777 -0.622694 0
M  V30 46351 C 4235.72 -1.51923 -1.71616 0
M  V30 46352 C 4236.72 -0.400331 -1.55737 0
M  V30 46353 O 4237.91 -0.663268 -1.61079 0
M  V30 46354 C 4235.04 -1.40128 -3.10768 0
M  V30 46355 H 4236.23 -2.49334 -1.6665 0
M  V30 46356 H 4233.79 -1.31993 -0.837103 0
M  V30 46357 H 4234.52 -0.438431 -3.21323 0
M  V30 46358 H 4234.31 -2.2127 -3.23701 0
M  V30 46359 H 4235.8 -1.48129 -3.90445 0
M  V30 46360 N 4236.23 0.863859 -1.31815 0
M  V30 46361 C 4237.48 1.61219 -1.21208 0
M  V30 46362 C 4237.8 1.94278 0.227039 0
M  V30 46363 O 4239 2.67662 0.454875 0
M  V30 46364 C 4237.46 2.90668 -2.12226 0
M  V30 46365 C 4237.07 2.65069 -3.61168 0
M  V30 46366 C 4238.81 3.68671 -2.10433 0
M  V30 46367 C 4236.72 3.90463 -4.44176 0
M  V30 46368 H 4235.65 0.604931 -0.450082 0
M  V30 46369 H 4238.3 0.95464 -1.56713 0
M  V30 46370 H 4236.68 3.57831 -1.69626 0
M  V30 46371 H 4237.85 2.06276 -4.12052 0
M  V30 46372 H 4236.17 2.00411 -3.64999 0
M  V30 46373 H 4238.77 4.61704 -2.69692 0
M  V30 46374 H 4239.11 4.01695 -1.093 0
M  V30 46375 H 4239.64 3.084 -2.51266 0
M  V30 46376 H 4236.38 3.62585 -5.46088 0
M  V30 46377 H 4235.9 4.48686 -3.98047 0
M  V30 46378 H 4237.58 4.58291 -4.56704 0
M  V30 46379 N 4237.71 1.14875 1.07895 0
M  V30 46380 C 4238.66 0.84046 2.14953 0
M  V30 46381 C 4239.63 -0.204248 1.64839 0
M  V30 46382 O 4240.81 -0.0730188 1.9066 0
M  V30 46383 C 4237.95 0.329828 3.4352 0
M  V30 46384 C 4237.07 1.43545 4.07454 0
M  V30 46385 C 4236.2 0.881524 5.23835 0
M  V30 46386 C 4235.24 1.96447 5.7972 0
M  V30 46387 N 4234.38 1.42733 6.87439 0
M  V30 46388 H 4239.22 1.75739 2.40666 0
M  V30 46389 H 4236.76 0.876965 1.18101 0
M  V30 46390 H 4238.71 0.0155233 4.17197 0
M  V30 46391 H 4237.34 -0.55019 3.18077 0
M  V30 46392 H 4236.4 1.86605 3.31486 0
M  V30 46393 H 4237.71 2.25331 4.45003 0
M  V30 46394 H 4236.86 0.519432 6.04472 0
M  V30 46395 H 4235.6 0.0327773 4.87689 0
M  V30 46396 H 4234.61 2.33545 4.97732 0
M  V30 46397 H 4235.83 2.81689 6.17922 0
M  V30 46398 H 4233.78 0.600845 6.53243 0
M  V30 46399 H 4233.69 2.1815 7.23841 0
M  V30 46400 H 4234.96 1.0933 7.71795 0
M  V30 46401 N 4239.19 -1.26148 0.944687 0
M  V30 46402 C 4240.44 -1.92882 0.589851 0
M  V30 46403 C 4240.75 -1.749 -0.875756 0
M  V30 46404 O 4241.96 -2.36121 -1.34012 0
M  V30 46405 C 4240.41 -3.45606 1.00421 0
M  V30 46406 C 4240.02 -3.72317 2.49167 0
M  V30 46407 C 4241.77 -4.18325 0.72143 0
M  V30 46408 C 4239.67 -5.18498 2.84454 0
M  V30 46409 H 4238.6 -0.722132 0.216892 0
M  V30 46410 H 4241.25 -1.43171 1.1478 0
M  V30 46411 H 4239.64 -3.94223 0.374756 0
M  V30 46412 H 4240.81 -3.34392 3.17046 0
M  V30 46413 H 4239.13 -3.12838 2.74811 0
M  V30 46414 H 4241.72 -5.25987 0.961359 0
M  V30 46415 H 4242.07 -4.14894 -0.341908 0
M  V30 46416 H 4242.6 -3.75585 1.31076 0
M  V30 46417 H 4239.34 -5.27033 3.89765 0
M  V30 46418 H 4238.86 -5.57506 2.21239 0
M  V30 46419 H 4240.54 -5.86533 2.73108 0
M  V30 46420 N 4240.67 -0.712109 -1.40594 0
M  V30 46421 C 4242.08 -0.385313 -1.54879 0
M  V30 46422 C 4242.28 1.10623 -1.68418 0
M  V30 46423 O 4241.34 1.89225 -1.67183 0
M  V30 46424 C 4242.65 -1.14832 -2.7791 0
M  V30 46425 C 4244.2 -1.13429 -2.91724 0
M  V30 46426 C 4244.68 -1.87938 -4.17664 0
M  V30 46427 N 4246.17 -1.8499 -4.24656 0
M  V30 46428 C 4246.9 -2.39468 -5.21002 0
M  V30 46429 N 4246.4 -3.02487 -6.23276 0
M  V30 46430 N 4248.19 -2.2963 -5.13056 0
M  V30 46431 H 4240.34 -1.67929 -1.30052 0
M  V30 46432 H 4242.61 -0.709601 -0.628626 0
M  V30 46433 H 4242.31 -2.20279 -2.74171 0
M  V30 46434 H 4242.19 -0.737671 -3.69917 0
M  V30 46435 H 4244.57 -0.0880256 -2.94969 0
M  V30 46436 H 4244.65 -1.58413 -2.00845 0
M  V30 46437 H 4244.3 -2.92553 -4.15181 0
M  V30 46438 H 4244.23 -1.40376 -5.07545 0
M  V30 46439 H 4246.72 -1.39059 -3.51384 0
M  V30 46440 H 4247.03 -3.41582 -6.93211 0
M  V30 46441 H 4245.38 -3.0657 -6.2373 0
M  V30 46442 H 4248.57 -1.80057 -4.32085 0
M  V30 46443 H 4248.74 -2.72388 -5.8797 0
M  V30 46444 N 4242.15 1.50797 -0.45804 0
M  V30 46445 C 4243.56 1.5921 -0.111453 0
M  V30 46446 C 4243.76 1.46732 1.38102 0
M  V30 46447 O 4242.82 1.31911 2.15304 0
M  V30 46448 C 4244.13 2.9359 -0.650023 0
M  V30 46449 C 4245.68 3.06953 -0.612291 0
M  V30 46450 C 4246.15 4.43887 -1.12818 0
M  V30 46451 N 4247.65 4.50264 -1.08704 0
M  V30 46452 C 4248.38 5.54584 -1.45686 0
M  V30 46453 N 4247.88 6.66222 -1.90054 0
M  V30 46454 N 4249.67 5.45056 -1.37371 0
M  V30 46455 H 4241.82 1.57153 -1.42887 0
M  V30 46456 H 4244.08 0.741949 -0.590098 0
M  V30 46457 H 4243.79 3.08157 -1.69505 0
M  V30 46458 H 4243.66 3.77101 -0.0863329 0
M  V30 46459 H 4246.05 2.92041 0.423799 0
M  V30 46460 H 4246.13 2.25231 -1.21263 0
M  V30 46461 H 4245.78 4.59547 -2.16284 0
M  V30 46462 H 4245.71 5.24181 -0.504182 0
M  V30 46463 H 4248.2 3.70149 -0.761471 0
M  V30 46464 H 4248.51 7.41867 -2.16455 0
M  V30 46465 H 4246.85 6.67376 -1.93997 0
M  V30 46466 H 4250.05 4.56727 -1.0256 0
M  V30 46467 H 4250.22 6.26239 -1.66519 0
M  V30 46468 N 4243.63 0.190147 1.56449 0
M  V30 46469 C 4244.56 -0.72798 2.21862 0
M  V30 46470 C 4245.54 -1.22502 1.18014 0
M  V30 46471 O 4246.72 -1.27475 1.46505 0
M  V30 46472 C 4243.85 -1.94968 2.87411 0
M  V30 46473 C 4242.81 -1.58775 3.9746 0
M  V30 46474 C 4242.13 -2.88565 4.50149 0
M  V30 46475 C 4243.43 -0.801444 5.16114 0
M  V30 46476 H 4245.13 -0.182682 2.98842 0
M  V30 46477 H 4242.67 -0.0864256 1.4374 0
M  V30 46478 H 4244.62 -2.59715 3.31853 0
M  V30 46479 H 4243.35 -2.51942 2.07828 0
M  V30 46480 H 4242.01 -0.963887 3.53702 0
M  V30 46481 H 4241.66 -3.43619 3.67335 0
M  V30 46482 H 4241.36 -2.65096 5.24402 0
M  V30 46483 H 4242.88 -3.5431 4.9729 0
M  V30 46484 H 4244.29 -1.35191 5.57132 0
M  V30 46485 H 4242.69 -0.665065 5.96403 0
M  V30 46486 H 4243.76 0.198492 4.84494 0
M  V30 46487 N 4245.1 -1.57379 -0.083485 0
M  V30 46488 C 4246.04 -1.99584 -1.12689 0
M  V30 46489 C 4247.05 -0.900065 -1.35656 0
M  V30 46490 O 4248.24 -1.17807 -1.34103 0
M  V30 46491 C 4245.34 -2.30957 -2.48016 0
M  V30 46492 C 4244.51 -3.62233 -2.45166 0
M  V30 46493 C 4243.57 -3.8141 -3.6251 0
M  V30 46494 O 4242.6 -4.53132 -3.44471 0
M  V30 46495 N 4243.8 -3.22871 -4.82426 0
M  V30 46496 H 4246.56 -2.89704 -0.767567 0
M  V30 46497 H 4244.12 -1.59594 -0.272306 0
M  V30 46498 H 4246.12 -2.4097 -3.25139 0
M  V30 46499 H 4244.69 -1.46786 -2.75994 0
M  V30 46500 H 4243.91 -3.63083 -1.53508 0
M  V30 46501 H 4245.19 -4.48452 -2.40351 0
M  V30 46502 H 4244.59 -2.64634 -4.99985 0
M  V30 46503 H 4243.15 -3.3835 -5.57102 0
M  V30 46504 N 4246.58 0.354597 -1.53559 0
M  V30 46505 C 4247.53 1.43494 -1.80771 0
M  V30 46506 C 4248.5 1.52738 -0.652717 0
M  V30 46507 O 4249.68 1.68452 -0.896026 0
M  V30 46508 C 4246.82 2.80296 -2.01316 0
M  V30 46509 C 4245.94 2.79931 -3.29033 0
M  V30 46510 C 4245.07 4.08379 -3.39705 0
M  V30 46511 C 4244.11 4.022 -4.61413 0
M  V30 46512 N 4243.25 5.22317 -4.69179 0
M  V30 46513 H 4248.09 1.19589 -2.72951 0
M  V30 46514 H 4245.62 0.579522 -1.35203 0
M  V30 46515 H 4247.58 3.59783 -2.11216 0
M  V30 46516 H 4246.21 3.02576 -1.12461 0
M  V30 46517 H 4245.26 1.92614 -3.28031 0
M  V30 46518 H 4246.58 2.7124 -4.18605 0
M  V30 46519 H 4245.73 4.96286 -3.48977 0
M  V30 46520 H 4244.47 4.19837 -2.48169 0
M  V30 46521 H 4243.47 3.12679 -4.5223 0
M  V30 46522 H 4244.7 3.92334 -5.54302 0
M  V30 46523 H 4242.65 5.3434 -3.80548 0
M  V30 46524 H 4242.56 5.15839 -5.52672 0
M  V30 46525 H 4243.83 6.12026 -4.82747 0
M  V30 46526 N 4248.06 1.45105 0.615008 0
M  V30 46527 C 4249.02 1.52831 1.70808 0
M  V30 46528 C 4250.02 0.408584 1.55522 0
M  V30 46529 O 4251.21 0.671801 1.60725 0
M  V30 46530 C 4248.34 1.41774 3.10021 0
M  V30 46531 H 4249.54 2.50215 1.65326 0
M  V30 46532 H 4247.09 1.32436 0.830092 0
M  V30 46533 H 4247.83 0.455465 3.21086 0
M  V30 46534 H 4247.61 2.22983 3.22523 0
M  V30 46535 H 4249.1 1.50197 3.89654 0
M  V30 46536 N 4249.54 -0.856857 1.32271 0
M  V30 46537 C 4250.47 -1.98086 1.2363 0
M  V30 46538 C 4251.45 -1.69672 0.120615 0
M  V30 46539 O 4252.63 -1.91751 0.307417 0
M  V30 46540 C 4249.76 -3.33873 0.956337 0
M  V30 46541 C 4248.72 -3.76633 2.03301 0
M  V30 46542 C 4248.04 -5.10027 1.6055 0
M  V30 46543 C 4249.34 -3.92335 3.44776 0
M  V30 46544 H 4251.04 -2.05574 2.17669 0
M  V30 46545 H 4248.58 -0.987684 1.04789 0
M  V30 46546 H 4250.54 -4.12057 0.882438 0
M  V30 46547 H 4249.26 -3.26594 -0.0197011 0
M  V30 46548 H 4247.92 -3.007 2.09703 0
M  V30 46549 H 4247.57 -4.99202 0.61697 0
M  V30 46550 H 4247.27 -5.39608 2.32588 0
M  V30 46551 H 4248.79 -5.90706 1.54593 0
M  V30 46552 H 4250.21 -4.60878 3.40976 0
M  V30 46553 H 4248.6 -4.3333 4.15144 0
M  V30 46554 H 4249.67 -2.95315 3.846 0
M  V30 46555 N 4251.02 -1.15446 -1.07285 0
M  V30 46556 C 4252.26 -0.940292 -1.81488 0
M  V30 46557 C 4252.62 0.523173 -1.84735 0
M  V30 46558 O 4253.82 0.855693 -2.54816 0
M  V30 46559 C 4252.09 -1.53853 -3.22589 0
M  V30 46560 S 4253.65 -1.46758 -4.13531 0
M  V30 46561 H 4250.47 -0.338388 -0.625312 0
M  V30 46562 H 4253.07 -1.47007 -1.28876 0
M  V30 46563 H 4251.77 -2.59657 -3.17815 0
M  V30 46564 H 4251.31 -1.00764 -3.80276 0
M  V30 46565 H 4253.32 -0.46092 -4.94055 0
M  V30 46566 N 4252.49 1.25646 -0.951364 0
M  V30 46567 C 4253.42 2.28366 -0.486938 0
M  V30 46568 C 4254.4 1.6362 0.465043 0
M  V30 46569 O 4255.59 1.90745 0.364703 0
M  V30 46570 C 4252.72 3.46476 0.239168 0
M  V30 46571 C 4251.67 4.23379 -0.627237 0
M  V30 46572 C 4251 5.34208 0.22942 0
M  V30 46573 C 4252.3 4.8637 -1.90371 0
M  V30 46574 H 4253.99 2.67465 -1.34547 0
M  V30 46575 H 4251.54 1.28576 -0.648405 0
M  V30 46576 H 4253.49 4.17456 0.575178 0
M  V30 46577 H 4252.22 3.06358 1.13192 0
M  V30 46578 H 4250.88 3.54177 -0.946285 0
M  V30 46579 H 4250.52 4.9033 1.12183 0
M  V30 46580 H 4250.22 5.86575 -0.346955 0
M  V30 46581 H 4251.75 6.08022 0.560471 0
M  V30 46582 H 4253.16 5.49512 -1.63431 0
M  V30 46583 H 4251.56 5.489 -2.42547 0
M  V30 46584 H 4252.63 4.08739 -2.60883 0
M  V30 46585 N 4253.97 0.719555 1.40215 0
M  V30 46586 C 4255.25 0.187754 1.94697 0
M  V30 46587 C 4255.63 -1.30736 1.65744 0
M  V30 46588 O 4254.98 -2.06547 0.977266 0
M  V30 46589 C 4255.19 0.504751 3.45331 0
M  V30 46590 C 4256.53 0.445589 4.22255 0
M  V30 46591 O 4257.56 0.44104 3.53459 0
M  V30 46592 O 4256.42 0.426583 5.44833 0
M  V30 46593 H 4253.51 0.0290521 0.82649 0
M  V30 46594 H 4256.06 0.797359 1.49801 0
M  V30 46595 H 4254.83 1.53869 3.59778 0
M  V30 46596 H 4254.45 -0.134614 3.97372 0
M  V30 46597 N 4255.45 -1.50552 0.466031 0
M  V30 46598 C 4256.38 -2.31286 -0.320762 0
M  V30 46599 C 4257.36 -1.37964 -0.994984 0
M  V30 46600 O 4258.55 -1.66885 -0.993128 0
M  V30 46601 C 4255.68 -3.17566 -1.40602 0
M  V30 46602 C 4254.63 -4.194 -0.853689 0
M  V30 46603 C 4253.96 -4.94385 -2.03686 0
M  V30 46604 C 4255.26 -5.22134 0.13157 0
M  V30 46605 H 4256.95 -2.97311 0.353047 0
M  V30 46606 H 4254.5 -1.42978 0.171232 0
M  V30 46607 H 4256.45 -3.7284 -1.96388 0
M  V30 46608 H 4255.17 -2.49417 -2.10853 0
M  V30 46609 H 4253.83 -3.6522 -0.317835 0
M  V30 46610 H 4253.48 -4.22713 -2.72623 0
M  V30 46611 H 4253.18 -5.63264 -1.67354 0
M  V30 46612 H 4254.7 -5.52492 -2.59972 0
M  V30 46613 H 4256.12 -5.72309 -0.336946 0
M  V30 46614 H 4254.51 -5.98705 0.40891 0
M  V30 46615 H 4255.58 -4.73192 1.05911 0
M  V30 46616 N 4256.93 -0.198441 -1.56346 0
M  V30 46617 C 4257.86 0.716204 -2.22245 0
M  V30 46618 C 4258.84 1.21874 -1.18662 0
M  V30 46619 O 4260.02 1.26697 -1.47179 0
M  V30 46620 C 4257.15 1.93441 -2.88441 0
M  V30 46621 C 4256.11 1.56665 -3.98296 0
M  V30 46622 C 4255.43 2.86174 -4.51673 0
M  V30 46623 C 4256.73 0.774062 -5.16532 0
M  V30 46624 H 4258.43 0.166831 -2.98935 0
M  V30 46625 H 4255.97 0.0788015 -1.43784 0
M  V30 46626 H 4257.93 2.57951 -3.33225 0
M  V30 46627 H 4256.65 2.50837 -2.09161 0
M  V30 46628 H 4255.31 0.945116 -3.54208 0
M  V30 46629 H 4254.96 3.41667 -3.69152 0
M  V30 46630 H 4254.66 2.62311 -5.25801 0
M  V30 46631 H 4256.18 3.51667 -4.99162 0
M  V30 46632 H 4257.6 1.32234 -5.57841 0
M  V30 46633 H 4255.99 0.633427 -5.96748 0
M  V30 46634 H 4257.06 -0.224183 -4.84381 0
M  V30 46635 N 4258.41 1.57421 0.0751377 0
M  V30 46636 C 4259.32 2.06808 1.10759 0
M  V30 46637 C 4260.33 0.996935 1.42609 0
M  V30 46638 O 4261.51 1.31142 1.52852 0
M  V30 46639 C 4258.57 2.49937 2.40276 0
M  V30 46640 C 4257.63 3.71334 2.15429 0
M  V30 46641 C 4256.87 4.12396 3.3877 0
M  V30 46642 O 4257.09 3.53361 4.47763 0
M  V30 46643 O 4256.02 5.0521 3.2718 0
M  V30 46644 H 4259.85 2.95089 0.71805 0
M  V30 46645 H 4257.44 1.46577 0.289039 0
M  V30 46646 H 4259.32 2.78214 3.16505 0
M  V30 46647 H 4257.99 1.64785 2.78617 0
M  V30 46648 H 4256.9 3.48145 1.36916 0
M  V30 46649 H 4258.23 4.57327 1.8197 0
M  V30 46650 N 4259.88 -0.346449 1.53745 0
M  V30 46651 C 4260.81 -1.43096 1.84515 0
M  V30 46652 C 4261.8 -1.55027 0.700053 0
M  V30 46653 O 4262.98 -1.69282 0.951696 0
M  V30 46654 C 4260.11 -2.80186 2.05215 0
M  V30 46655 C 4259.06 -2.83064 3.21027 0
M  V30 46656 C 4258.39 -4.23012 3.27055 0
M  V30 46657 C 4259.69 -2.48862 4.59201 0
M  V30 46658 H 4261.38 -1.17594 2.7534 0
M  V30 46659 H 4258.93 -0.564259 1.32484 0
M  V30 46660 H 4260.88 -3.56099 2.25325 0
M  V30 46661 H 4259.61 -3.07116 1.11118 0
M  V30 46662 H 4258.27 -2.09604 3.00769 0
M  V30 46663 H 4257.91 -4.47047 2.30559 0
M  V30 46664 H 4257.61 -4.2585 4.04878 0
M  V30 46665 H 4259.14 -5.00771 3.49372 0
M  V30 46666 H 4260.55 -3.14488 4.79344 0
M  V30 46667 H 4258.95 -2.62987 5.39405 0
M  V30 46668 H 4260.02 -1.44056 4.63007 0
M  V30 46669 N 4261.36 -1.45429 -0.607304 0
M  V30 46670 C 4262.59 -1.53217 -1.39783 0
M  V30 46671 C 4263.01 -0.165717 -1.87369 0
M  V30 46672 O 4262.37 0.8497 -1.60156 0
M  V30 46673 C 4262.42 -2.52115 -2.57818 0
M  V30 46674 O 4261.52 -2.03916 -3.58458 0
M  V30 46675 H 4260.86 -0.516483 -0.417303 0
M  V30 46676 H 4263.39 -1.90785 -0.739067 0
M  V30 46677 H 4263.4 -2.7093 -3.05059 0
M  V30 46678 H 4262.08 -3.51358 -2.22532 0
M  V30 46679 H 4260.66 -1.94978 -3.17865 0
M  V30 46680 N 4262.84 0.84983 -1.32724 0
M  V30 46681 C 4264.07 1.63668 -1.26571 0
M  V30 46682 C 4264.48 1.88074 0.16542 0
M  V30 46683 O 4263.84 1.45315 1.10407 0
M  V30 46684 C 4263.89 2.99321 -2.02705 0
M  V30 46685 O 4263.61 2.75993 -3.40234 0
M  V30 46686 C 4265.11 3.93762 -2.03633 0
M  V30 46687 H 4262.33 0.509616 -0.4365 0
M  V30 46688 H 4264.88 1.05933 -1.74924 0
M  V30 46689 H 4263.03 3.53688 -1.58062 0
M  V30 46690 H 4263.45 3.62298 -3.79263 0
M  V30 46691 H 4264.92 4.86195 -2.61377 0
M  V30 46692 H 4265.4 4.27101 -1.0238 0
M  V30 46693 H 4266 3.45332 -2.48245 0
M  V30 46694 N 4264.32 1.16013 1.06671 0
M  V30 46695 C 4265.55 0.963354 1.83104 0
M  V30 46696 C 4265.96 -0.488419 1.82373 0
M  V30 46697 O 4265.32 -1.3389 1.24014 0
M  V30 46698 C 4265.37 1.47843 3.29886 0
M  V30 46699 O 4265.09 2.87334 3.30712 0
M  V30 46700 C 4266.59 1.32413 4.23062 0
M  V30 46701 H 4263.81 0.341715 0.57747 0
M  V30 46702 H 4266.36 1.53951 1.34609 0
M  V30 46703 H 4264.51 0.944651 3.75706 0
M  V30 46704 H 4264.92 3.10838 4.22469 0
M  V30 46705 H 4266.4 1.73288 5.24095 0
M  V30 46706 H 4266.88 0.269181 4.38374 0
M  V30 46707 H 4267.48 1.84733 3.83084 0
M  V30 46708 N 4265.8 -1.25139 0.958014 0
M  V30 46709 C 4266.74 -2.27759 0.472094 0
M  V30 46710 C 4267.74 -1.63052 -0.459375 0
M  V30 46711 O 4268.94 -1.76841 -0.335732 0
M  V30 46712 H 4265.32 -0.739933 0.134174 0
M  V30 46713 H 4267.29 -2.66127 1.34977 0
M  V30 46714 C 4266.04 -3.46929 -0.231454 0
M  V30 46715 H 4265.36 -3.96954 0.476163 0
M  V30 46716 H 4266.8 -4.20606 -0.53542 0
M  V30 46717 C 4265.26 -3.03855 -1.45513 0
M  V30 46718 O 4265.79 -3.10163 -2.55268 0
M  V30 46719 N 4264 -2.59009 -1.31768 0
M  V30 46720 H 4263.54 -2.54075 -0.42468 0
M  V30 46721 H 4263.5 -2.30553 -2.13758 0
M  V30 46722 N 4267.27 -0.726981 -1.39831 0
M  V30 46723 C 4268.18 -0.0831249 -2.34453 0
M  V30 46724 C 4269.2 0.730981 -1.57901 0
M  V30 46725 O 4270.38 0.661304 -1.90233 0
M  V30 46726 C 4267.44 0.819265 -3.36881 0
M  V30 46727 C 4266.5 -0.00618205 -4.293 0
M  V30 46728 C 4265.74 0.853232 -5.26836 0
M  V30 46729 O 4265.96 2.09219 -5.30644 0
M  V30 46730 O 4264.89 0.286156 -6.01219 0
M  V30 46731 H 4268.72 -0.863896 -2.91154 0
M  V30 46732 H 4266.3 -0.487568 -1.4122 0
M  V30 46733 H 4268.19 1.33582 -3.99667 0
M  V30 46734 H 4266.86 1.57899 -2.82577 0
M  V30 46735 H 4265.77 -0.568072 -3.69762 0
M  V30 46736 H 4267.1 -0.727942 -4.86787 0
M  V30 46737 N 4268.75 1.50303 -0.474008 0
M  V30 46738 C 4270 2.01535 0.0816735 0
M  V30 46739 C 4270.31 1.36065 1.4052 0
M  V30 46740 O 4271.52 1.7847 2.04599 0
M  V30 46741 C 4269.98 3.59366 0.196062 0
M  V30 46742 C 4269.58 4.33795 -1.1192 0
M  V30 46743 C 4271.33 4.18629 0.703547 0
M  V30 46744 C 4269.24 5.83417 -0.96845 0
M  V30 46745 H 4268.17 0.75322 0.0342979 0
M  V30 46746 H 4270.82 1.73087 -0.609347 0
M  V30 46747 H 4269.2 3.84413 0.95093 0
M  V30 46748 H 4270.37 4.2047 -1.88525 0
M  V30 46749 H 4268.69 3.86154 -1.55802 0
M  V30 46750 H 4271.28 5.28165 0.833413 0
M  V30 46751 H 4271.63 3.80203 1.69562 0
M  V30 46752 H 4272.16 3.978 0.00598149 0
M  V30 46753 H 4268.9 6.26321 -1.93398 0
M  V30 46754 H 4268.42 5.99308 -0.242831 0
M  V30 46755 H 4270.1 6.43864 -0.636242 0
M  V30 46756 N 4270.23 0.20673 1.56238 0
M  V30 46757 C 4271.48 -0.428956 1.97905 0
M  V30 46758 C 4271.81 -1.60818 1.09397 0
M  V30 46759 O 4271.06 -1.9523 0.135607 0
M  V30 46760 C 4271.36 -0.920351 3.45347 0
M  V30 46761 C 4271.03 0.146754 4.50661 0
M  V30 46762 C 4269.69 0.439936 4.79185 0
M  V30 46763 C 4272.04 0.869204 5.13901 0
M  V30 46764 C 4269.37 1.46034 5.68235 0
M  V30 46765 C 4271.72 1.87884 6.04055 0
M  V30 46766 C 4270.38 2.1791 6.30929 0
M  V30 46767 H 4269.65 -0.156966 0.724184 0
M  V30 46768 H 4272.3 0.306139 1.89037 0
M  V30 46769 H 4270.61 -1.73394 3.51343 0
M  V30 46770 H 4272.3 -1.4218 3.74948 0
M  V30 46771 H 4268.89 -0.0919161 4.28501 0
M  V30 46772 H 4273.08 0.655934 4.91946 0
M  V30 46773 H 4268.33 1.69876 5.87326 0
M  V30 46774 H 4272.51 2.4438 6.52113 0
M  V30 46775 H 4270.13 2.97123 6.9973 0
M  V30 46776 N 4271.71 -1.57458 -0.0667882 0
M  V30 46777 C 4272.66 -2.04033 -1.07885 0
M  V30 46778 C 4273.63 -0.921914 -1.38166 0
M  V30 46779 O 4274.81 -1.18993 -1.49149 0
M  V30 46780 C 4271.95 -2.49333 -2.38594 0
M  V30 46781 C 4271.06 -3.74814 -2.14799 0
M  V30 46782 C 4270.2 -4.08876 -3.39107 0
M  V30 46783 C 4269.24 -5.27383 -3.10699 0
M  V30 46784 N 4268.37 -5.57059 -4.27352 0
M  V30 46785 H 4273.21 -2.90262 -0.674704 0
M  V30 46786 H 4270.75 -1.43542 -0.321577 0
M  V30 46787 H 4272.71 -2.73651 -3.14914 0
M  V30 46788 H 4271.34 -1.66075 -2.76801 0
M  V30 46789 H 4270.39 -3.57806 -1.29148 0
M  V30 46790 H 4271.7 -4.6127 -1.89818 0
M  V30 46791 H 4270.86 -4.34122 -4.2382 0
M  V30 46792 H 4269.6 -3.20997 -3.67168 0
M  V30 46793 H 4268.6 -5.01929 -2.24383 0
M  V30 46794 H 4269.83 -6.16884 -2.83955 0
M  V30 46795 H 4267.77 -4.72139 -4.55434 0
M  V30 46796 H 4267.69 -6.37945 -4.05662 0
M  V30 46797 H 4268.96 -5.86859 -5.13047 0
M  V30 46798 N 4273.19 0.33829 -1.53926 0
M  V30 46799 C 4274.12 1.43644 -1.78603 0
M  V30 46800 C 4275.13 1.48487 -0.667491 0
M  V30 46801 O 4276.32 1.51475 -0.944325 0
M  V30 46802 C 4273.42 2.82271 -1.87553 0
M  V30 46803 C 4272.59 3.00806 -3.17545 0
M  V30 46804 C 4271.65 4.19706 -3.17385 0
M  V30 46805 O 4270.68 4.13571 -3.91086 0
M  V30 46806 N 4271.88 5.28508 -2.40125 0
M  V30 46807 H 4274.65 1.22844 -2.73367 0
M  V30 46808 H 4272.21 0.5282 -1.53041 0
M  V30 46809 H 4274.2 3.59996 -1.84891 0
M  V30 46810 H 4272.77 2.9619 -0.999527 0
M  V30 46811 H 4271.99 2.10506 -3.33288 0
M  V30 46812 H 4273.28 3.10075 -4.03399 0
M  V30 46813 H 4272.68 5.36363 -1.79808 0
M  V30 46814 H 4271.23 6.04707 -2.43255 0
M  V30 46815 N 4274.67 1.45749 0.599583 0
M  V30 46816 C 4275.62 1.51454 1.70428 0
M  V30 46817 C 4276.6 0.377019 1.56421 0
M  V30 46818 O 4277.79 0.624383 1.65621 0
M  V30 46819 C 4274.92 1.49175 3.09195 0
M  V30 46820 C 4274.01 2.68158 3.2856 0
M  V30 46821 N 4274.4 3.93208 3.18153 0
M  V30 46822 C 4272.7 2.64025 3.59454 0
M  V30 46823 C 4273.4 4.72662 3.39066 0
M  V30 46824 N 4272.37 4.0425 3.63432 0
M  V30 46825 H 4276.17 2.45953 1.60887 0
M  V30 46826 H 4273.69 1.41153 0.803095 0
M  V30 46827 H 4275.69 1.51347 3.88458 0
M  V30 46828 H 4274.35 0.557391 3.1988 0
M  V30 46829 H 4275.36 4.2471 2.96382 0
M  V30 46830 H 4272.03 1.79535 3.76927 0
M  V30 46831 H 4273.42 5.81654 3.36345 0
M  V30 46832 N 4276.14 -0.84278 1.33173 0
M  V30 46833 C 4277.09 -1.9523 1.23101 0
M  V30 46834 C 4278.06 -1.65732 0.110498 0
M  V30 46835 O 4279.25 -1.88612 0.288098 0
M  V30 46836 C 4276.39 -3.31123 0.972176 0
M  V30 46837 C 4275.5 -3.73044 2.17859 0
M  V30 46838 C 4274.63 -4.97787 1.85424 0
M  V30 46839 C 4273.67 -5.32231 3.02319 0
M  V30 46840 N 4272.81 -6.48151 2.69898 0
M  V30 46841 H 4277.65 -2.03177 2.17998 0
M  V30 46842 H 4275.19 -0.994289 1.08408 0
M  V30 46843 H 4277.14 -4.09408 0.802558 0
M  V30 46844 H 4275.77 -3.22744 0.0599545 0
M  V30 46845 H 4274.83 -2.90314 2.45809 0
M  V30 46846 H 4276.14 -3.94484 3.05261 0
M  V30 46847 H 4275.29 -5.83809 1.65083 0
M  V30 46848 H 4274.03 -4.78308 0.952531 0
M  V30 46849 H 4273.04 -4.44715 3.23278 0
M  V30 46850 H 4274.26 -5.5366 3.93239 0
M  V30 46851 H 4272.21 -6.30166 1.82282 0
M  V30 46852 H 4272.12 -6.69667 3.5083 0
M  V30 46853 H 4273.39 -7.37295 2.53015 0
M  V30 46854 N 4277.62 -1.16577 -1.06054 0
M  V30 46855 C 4278.55 -0.897731 -2.15553 0
M  V30 46856 C 4279.53 0.156897 -1.69375 0
M  V30 46857 O 4280.72 0.00848526 -1.94198 0
M  V30 46858 C 4277.85 -0.400691 -3.44981 0
M  V30 46859 C 4276.8 -1.3935 -4.04679 0
M  V30 46860 C 4276.13 -0.75477 -5.29346 0
M  V30 46861 C 4277.43 -2.76389 -4.43177 0
M  V30 46862 H 4279.12 -1.81343 -2.38233 0
M  V30 46863 H 4276.67 -0.873337 -1.14494 0
M  V30 46864 H 4278.62 -0.20064 -4.20922 0
M  V30 46865 H 4277.34 0.550519 -3.21927 0
M  V30 46866 H 4276 -1.58015 -3.30797 0
M  V30 46867 H 4275.65 0.203003 -5.0259 0
M  V30 46868 H 4275.35 -1.41745 -5.70247 0
M  V30 46869 H 4276.88 -0.564794 -6.07982 0
M  V30 46870 H 4278.29 -2.61494 -5.1019 0
M  V30 46871 H 4276.69 -3.39154 -4.9507 0
M  V30 46872 H 4277.76 -3.31459 -3.53925 0
M  V30 46873 N 4279.1 1.2463 -0.964637 0
M  V30 46874 C 4280.05 2.27505 -0.484166 0
M  V30 46875 C 4281.04 1.63294 0.450721 0
M  V30 46876 O 4282.25 1.77017 0.326349 0
M  V30 46877 H 4278.62 0.739211 -0.138096 0
M  V30 46878 H 4280.59 2.65408 -1.36387 0
M  V30 46879 C 4279.34 3.47047 0.213052 0
M  V30 46880 H 4278.67 3.96696 -0.497208 0
M  V30 46881 H 4280.11 4.20884 0.513107 0
M  V30 46882 C 4278.56 3.04622 1.43899 0
M  V30 46883 O 4279.09 3.11512 2.5362 0
M  V30 46884 N 4277.3 2.59704 1.30393 0
M  V30 46885 H 4276.85 2.54297 0.4112 0
M  V30 46886 H 4276.81 2.31684 2.12533 0
M  V30 46887 N 4280.58 0.734386 1.39444 0
M  V30 46888 C 4281.51 0.0544145 2.29135 0
M  V30 46889 C 4282.52 -0.7041 1.46786 0
M  V30 46890 O 4283.71 -0.548364 1.69868 0
M  V30 46891 C 4280.81 -0.947171 3.25395 0
M  V30 46892 C 4279.98 -0.250304 4.36683 0
M  V30 46893 C 4279.04 -1.15991 5.13257 0
M  V30 46894 O 4278.07 -0.637624 5.65617 0
M  V30 46895 N 4279.27 -2.48967 5.244 0
M  V30 46896 H 4282.04 0.824618 2.88132 0
M  V30 46897 H 4279.6 0.583558 1.51017 0
M  V30 46898 H 4281.59 -1.55828 3.73497 0
M  V30 46899 H 4280.16 -1.61859 2.67433 0
M  V30 46900 H 4279.38 0.541269 3.90466 0
M  V30 46901 H 4280.67 0.232661 5.08268 0
M  V30 46902 H 4280.07 -2.93877 4.83377 0
M  V30 46903 H 4278.62 -3.05175 5.75944 0
M  V30 46904 N 4282.06 -1.50049 0.481972 0
M  V30 46905 C 4283 -2.30382 -0.320432 0
M  V30 46906 C 4284 -1.38146 -0.98041 0
M  V30 46907 O 4285.2 -1.55287 -0.910271 0
M  V30 46908 H 4281.58 -0.742008 -0.122183 0
M  V30 46909 H 4283.55 -2.96004 0.377357 0
M  V30 46910 C 4282.3 -3.18994 -1.38341 0
M  V30 46911 H 4281.62 -3.89883 -0.884964 0
M  V30 46912 H 4283.06 -3.78178 -1.91721 0
M  V30 46913 C 4281.52 -2.37317 -2.39128 0
M  V30 46914 O 4282.05 -2.06389 -3.44625 0
M  V30 46915 N 4280.26 -1.99694 -2.11118 0
M  V30 46916 H 4279.8 -2.25045 -1.2535 0
M  V30 46917 H 4279.76 -1.4535 -2.78785 0
M  V30 46918 N 4283.53 -0.215012 -1.56126 0
M  V30 46919 C 4284.81 0.46712 -1.8994 0
M  V30 46920 C 4285.19 1.78219 -1.13143 0
M  V30 46921 O 4284.54 2.2725 -0.238694 0
M  V30 46922 C 4284.75 0.666464 -3.42577 0
M  V30 46923 C 4286.1 0.976854 -4.1321 0
M  V30 46924 O 4287.12 0.753484 -3.48139 0
M  V30 46925 O 4285.98 1.40042 -5.28252 0
M  V30 46926 H 4283.07 0.246089 -0.789537 0
M  V30 46927 H 4285.62 -0.25671 -1.67747 0
M  V30 46928 H 4284.39 -0.261413 -3.90426 0
M  V30 46929 H 4284.01 1.44202 -3.70529 0
M  V30 46930 N 4285.01 1.57492 0.0584368 0
M  V30 46931 C 4285.94 2.01352 1.09499 0
M  V30 46932 C 4286.96 0.921532 1.34207 0
M  V30 46933 O 4288.15 1.19926 1.32212 0
M  V30 46934 C 4285.25 2.34874 2.4431 0
M  V30 46935 C 4284.42 3.66087 2.39372 0
M  V30 46936 C 4283.48 3.87129 3.56396 0
M  V30 46937 O 4282.5 4.58555 3.37218 0
M  V30 46938 N 4283.71 3.30505 4.77228 0
M  V30 46939 H 4286.47 2.90889 0.72138 0
M  V30 46940 H 4284.03 1.60007 0.246882 0
M  V30 46941 H 4286.02 2.46112 3.21265 0
M  V30 46942 H 4284.59 1.51158 2.73624 0
M  V30 46943 H 4283.81 3.65479 1.47712 0
M  V30 46944 H 4285.1 4.52219 2.33186 0
M  V30 46945 H 4284.5 2.72555 4.95712 0
M  V30 46946 H 4283.06 3.4717 5.51649 0
M  V30 46947 N 4286.49 -0.330122 1.54104 0
M  V30 46948 C 4287.42 -1.41131 1.86022 0
M  V30 46949 C 4288.4 -1.54275 0.716456 0
M  V30 46950 O 4289.59 -1.68263 0.969597 0
M  V30 46951 C 4286.72 -2.77993 2.08175 0
M  V30 46952 C 4285.67 -2.79644 3.24011 0
M  V30 46953 C 4285 -4.19519 3.31523 0
M  V30 46954 C 4286.3 -2.43977 4.61814 0
M  V30 46955 H 4287.99 -1.14667 2.76571 0
M  V30 46956 H 4285.54 -0.550176 1.33075 0
M  V30 46957 H 4287.49 -3.53689 2.29089 0
M  V30 46958 H 4286.21 -3.0592 1.14369 0
M  V30 46959 H 4284.87 -2.06402 3.02975 0
M  V30 46960 H 4284.52 -4.44577 2.35288 0
M  V30 46961 H 4284.22 -4.21531 4.09372 0
M  V30 46962 H 4285.74 -4.97038 3.54663 0
M  V30 46963 H 4287.16 -3.09386 4.82652 0
M  V30 46964 H 4285.55 -2.57251 5.42164 0
M  V30 46965 H 4286.62 -1.39137 4.64509 0
M  V30 46966 N 4287.97 -1.46065 -0.591845 0
M  V30 46967 C 4288.9 -1.5879 -1.71196 0
M  V30 46968 C 4289.88 -0.438644 -1.64347 0
M  V30 46969 O 4291.06 -0.663757 -1.82505 0
M  V30 46970 C 4288.19 -1.56922 -3.09827 0
M  V30 46971 C 4287.15 -2.70725 -3.315 0
M  V30 46972 C 4286.47 -2.53915 -4.70565 0
M  V30 46973 C 4287.77 -4.12621 -3.20221 0
M  V30 46974 H 4289.47 -2.52553 -1.60803 0
M  V30 46975 H 4287.01 -1.21546 -0.772184 0
M  V30 46976 H 4288.97 -1.6442 -3.88 0
M  V30 46977 H 4287.69 -0.596985 -3.21098 0
M  V30 46978 H 4286.35 -2.62681 -2.55722 0
M  V30 46979 H 4286 -1.54795 -4.78589 0
M  V30 46980 H 4285.7 -3.30241 -4.86019 0
M  V30 46981 H 4287.22 -2.6329 -5.50918 0
M  V30 46982 H 4288.64 -4.21824 -3.88249 0
M  V30 46983 H 4287.03 -4.89461 -3.472 0
M  V30 46984 H 4288.1 -4.33419 -2.17429 0
M  V30 46985 N 4289.45 0.835705 -1.33618 0
M  V30 46986 C 4290.67 1.62838 -1.28447 0
M  V30 46987 C 4291.1 1.87569 0.141172 0
M  V30 46988 O 4290.45 1.44207 1.09882 0
M  V30 46989 C 4290.5 2.95384 -2.06835 0
M  V30 46990 O 4289.61 3.86846 -1.42912 0
M  V30 46991 H 4288.95 0.495734 -0.44175 0
M  V30 46992 H 4291.48 1.03947 -1.76228 0
M  V30 46993 H 4291.49 3.45055 -2.17718 0
M  V30 46994 H 4290.16 2.76705 -3.10495 0
M  V30 46995 H 4288.74 3.4534 -1.40695 0
M  V30 46996 N 4290.92 1.17138 1.05434 0
M  V30 46997 C 4292.17 0.959675 1.78656 0
M  V30 46998 C 4292.5 -0.510626 1.87367 0
M  V30 46999 O 4291.78 -1.37899 1.37165 0
M  V30 47000 C 4292.06 1.59844 3.22679 0
M  V30 47001 C 4291.91 3.14068 3.21996 0
M  V30 47002 C 4293.23 1.30031 4.20452 0
M  V30 47003 H 4290.35 0.350055 0.64856 0
M  V30 47004 H 4292.99 1.446 1.23251 0
M  V30 47005 H 4291.14 1.18491 3.69989 0
M  V30 47006 H 4292.82 3.64462 2.82781 0
M  V30 47007 H 4291.06 3.46946 2.60405 0
M  V30 47008 H 4291.73 3.53889 4.23635 0
M  V30 47009 H 4294.21 1.65836 3.81625 0
M  V30 47010 H 4293.08 1.77314 5.19472 0
M  V30 47011 H 4293.34 0.220666 4.41549 0
M  V30 47012 N 4292.4 -1.24116 0.971232 0
M  V30 47013 C 4293.81 -1.74134 0.673378 0
M  V30 47014 C 4294.16 -1.78664 -0.810778 0
M  V30 47015 O 4293.29 -1.41841 -1.63432 0
M  V30 47016 C 4293.88 -3.1624 1.21564 0
M  V30 47017 C 4292.44 -3.6375 0.967616 0
M  V30 47018 C 4291.59 -2.42284 1.34885 0
M  V30 47019 H 4294.54 -1.09769 1.14615 0
M  V30 47020 H 4294.56 -3.75998 0.58362 0
M  V30 47021 H 4294.07 -3.1291 2.29584 0
M  V30 47022 H 4292.18 -3.72474 -0.0969014 0
M  V30 47023 H 4292.29 -4.51033 1.61575 0
M  V30 47024 H 4290.65 -2.42869 0.767252 0
M  V30 47025 H 4291.44 -2.41632 2.43862 0
M  V30 47026 N 4293.88 -0.741771 -1.39052 0
M  V30 47027 C 4295.16 -0.218705 -1.94373 0
M  V30 47028 C 4295.54 1.28083 -1.67803 0
M  V30 47029 O 4294.89 2.04966 -1.01 0
M  V30 47030 C 4295.1 -0.559626 -3.44484 0
M  V30 47031 C 4296.44 -0.51271 -4.21493 0
M  V30 47032 O 4297.47 -0.497217 -3.52713 0
M  V30 47033 O 4296.33 -0.513207 -5.44085 0
M  V30 47034 H 4293.42 -0.0421972 -0.825923 0
M  V30 47035 H 4295.97 -0.82109 -1.48513 0
M  V30 47036 H 4294.74 -1.59573 -3.57284 0
M  V30 47037 H 4294.36 0.071379 -3.97536 0
M  V30 47038 N 4295.36 1.49792 -0.489923 0
M  V30 47039 C 4296.6 2.02715 0.0585952 0
M  V30 47040 C 4296.94 1.36977 1.37663 0
M  V30 47041 O 4296.21 0.501712 1.87918 0
M  V30 47042 C 4296.5 3.5941 0.222749 0
M  V30 47043 C 4296.35 4.35694 -1.11763 0
M  V30 47044 C 4297.67 4.29309 0.968575 0
M  V30 47045 H 4294.79 0.736733 0.0198208 0
M  V30 47046 H 4297.43 1.78926 -0.63918 0
M  V30 47047 H 4295.58 3.79811 0.817074 0
M  V30 47048 H 4297.25 4.26818 -1.74998 0
M  V30 47049 H 4295.49 3.98689 -1.70966 0
M  V30 47050 H 4296.16 5.43655 -0.9562 0
M  V30 47051 H 4298.64 4.13498 0.464633 0
M  V30 47052 H 4297.52 5.3872 1.05226 0
M  V30 47053 H 4297.78 3.93782 2.00968 0
M  V30 47054 N 4296.84 0.223289 1.5601 0
M  V30 47055 C 4298.09 -0.408305 1.97524 0
M  V30 47056 C 4298.4 -1.60775 1.11404 0
M  V30 47057 O 4299.6 -2.30897 1.42824 0
M  V30 47058 C 4298.06 -0.777823 3.51394 0
M  V30 47059 C 4297.67 0.398904 4.46221 0
M  V30 47060 C 4299.41 -1.37492 4.01617 0
M  V30 47061 C 4297.32 0.00685563 5.914 0
M  V30 47062 H 4296.25 -0.156324 0.737617 0
M  V30 47063 H 4298.9 0.319776 1.80692 0
M  V30 47064 H 4297.28 -1.56337 3.63833 0
M  V30 47065 H 4298.46 1.17643 4.4553 0
M  V30 47066 H 4296.77 0.909355 4.06349 0
M  V30 47067 H 4299.37 -1.68118 5.07583 0
M  V30 47068 H 4299.71 -2.29131 3.4757 0
M  V30 47069 H 4300.24 -0.652771 3.92408 0
M  V30 47070 H 4296.98 0.889768 6.49433 0
M  V30 47071 H 4296.5 -0.734947 5.9528 0
M  V30 47072 H 4298.18 -0.419226 6.4564 0
M  V30 47073 N 4298.31 -1.5752 -0.0500839 0
M  V30 47074 C 4299.26 -2.06231 -1.07572 0
M  V30 47075 C 4300.26 -0.971842 -1.3875 0
M  V30 47076 O 4301.46 -1.15685 -1.37902 0
M  V30 47077 H 4297.84 -0.657846 -0.364339 0
M  V30 47078 H 4299.81 -2.9148 -0.638915 0
M  V30 47079 C 4298.56 -2.53985 -2.37459 0
M  V30 47080 H 4297.88 -3.37498 -2.14324 0
M  V30 47081 H 4299.32 -2.91799 -3.07619 0
M  V30 47082 C 4297.78 -1.43198 -3.04952 0
M  V30 47083 O 4298.31 -0.786287 -3.93929 0
M  V30 47084 N 4296.52 -1.1717 -2.65931 0
M  V30 47085 H 4296.06 -1.6986 -1.93663 0
M  V30 47086 H 4296.02 -0.432533 -3.11411 0
M  V30 47087 N 4299.79 0.321945 -1.54277 0
M  V30 47088 C 4301.03 1.0679 -1.74285 0
M  V30 47089 C 4301.4 1.85193 -0.506697 0
M  V30 47090 O 4302.6 2.62376 -0.584157 0
M  V30 47091 C 4300.87 1.96679 -2.98416 0
M  V30 47092 S 4302.43 2.78204 -3.39335 0
M  V30 47093 H 4299.25 0.360494 -0.612834 0
M  V30 47094 H 4301.85 0.343708 -1.92455 0
M  V30 47095 H 4300.55 1.37918 -3.86532 0
M  V30 47096 H 4300.08 2.735 -2.82774 0
M  V30 47097 H 4302.1 3.99162 -2.94761 0
M  V30 47098 N 4301.27 1.46377 0.58409 0
M  V30 47099 C 4302.2 1.59696 1.70351 0
M  V30 47100 C 4303.18 0.447353 1.64112 0
M  V30 47101 O 4304.37 0.673426 1.8215 0
M  V30 47102 C 4301.5 1.58563 3.0899 0
M  V30 47103 C 4300.45 2.72479 3.30059 0
M  V30 47104 C 4299.78 2.56407 4.69211 0
M  V30 47105 C 4301.08 4.14313 3.18028 0
M  V30 47106 H 4302.77 2.53402 1.59461 0
M  V30 47107 H 4300.32 1.21953 0.765728 0
M  V30 47108 H 4302.27 1.66475 3.87123 0
M  V30 47109 H 4300.99 0.614005 3.20776 0
M  V30 47110 H 4299.65 2.64034 2.54326 0
M  V30 47111 H 4299.3 1.57331 4.77761 0
M  V30 47112 H 4299 3.32813 4.84261 0
M  V30 47113 H 4300.52 2.66208 5.49514 0
M  V30 47114 H 4301.94 4.23877 3.86007 0
M  V30 47115 H 4300.34 4.91295 3.446 0
M  V30 47116 H 4301.41 4.34566 2.15128 0
M  V30 47117 N 4302.75 -0.828607 1.34059 0
M  V30 47118 C 4303.98 -1.61634 1.29159 0
M  V30 47119 C 4304.39 -1.88313 -0.135478 0
M  V30 47120 O 4303.75 -1.47053 -1.08081 0
M  V30 47121 C 4303.8 -2.96058 2.07441 0
M  V30 47122 O 4303.52 -2.70546 3.44582 0
M  V30 47123 C 4305.02 -3.90473 2.09872 0
M  V30 47124 H 4302.24 -0.502607 0.444552 0
M  V30 47125 H 4304.79 -1.03137 1.76587 0
M  V30 47126 H 4302.94 -3.51128 1.63669 0
M  V30 47127 H 4303.36 -3.56219 3.84979 0
M  V30 47128 H 4304.83 -4.81976 2.69079 0
M  V30 47129 H 4305.31 -4.25418 1.09162 0
M  V30 47130 H 4305.91 -3.41339 2.53708 0
M  V30 47131 N 4304.23 -1.17696 -1.04812 0
M  V30 47132 C 4305.46 -0.992362 -1.81548 0
M  V30 47133 C 4305.87 0.459343 -1.83127 0
M  V30 47134 O 4305.23 1.31901 -1.26129 0
M  V30 47135 C 4305.28 -1.53073 -3.27492 0
M  V30 47136 O 4305 -2.92559 -3.26099 0
M  V30 47137 C 4306.5 -1.39126 -4.20902 0
M  V30 47138 H 4303.72 -0.350859 -0.571961 0
M  V30 47139 H 4306.26 -1.56073 -1.32142 0
M  V30 47140 H 4304.42 -1.0043 -3.74156 0
M  V30 47141 H 4304.83 -3.17519 -4.17471 0
M  V30 47142 H 4306.31 -1.81604 -5.21271 0
M  V30 47143 H 4306.78 -0.338889 -4.37891 0
M  V30 47144 H 4307.39 -1.90804 -3.80097 0
M  V30 47145 N 4305.71 1.23599 -0.977801 0
M  V30 47146 C 4306.93 1.95983 -0.663185 0
M  V30 47147 C 4307.35 1.72414 0.769346 0
M  V30 47148 O 4306.71 1.01398 1.51739 0
M  V30 47149 C 4306.76 3.49042 -0.940847 0
M  V30 47150 O 4306.48 3.71811 -2.31707 0
M  V30 47151 C 4307.98 4.38629 -0.641822 0
M  V30 47152 H 4305.2 0.624052 -0.246576 0
M  V30 47153 H 4307.74 1.57159 -1.30848 0
M  V30 47154 H 4305.9 3.85891 -0.341605 0
M  V30 47155 H 4306.31 4.66123 -2.40477 0
M  V30 47156 H 4307.79 5.44835 -0.886485 0
M  V30 47157 H 4308.26 4.37148 0.424073 0
M  V30 47158 H 4308.87 4.07383 -1.22143 0
M  V30 47159 N 4307.18 0.749135 1.38657 0
M  V30 47160 C 4308.41 0.313539 2.04207 0
M  V30 47161 C 4308.82 -1.0615 1.56617 0
M  V30 47162 O 4308.16 -1.68464 0.732492 0
M  V30 47163 C 4308.23 0.252699 3.58611 0
M  V30 47164 C 4307.89 1.56854 4.29238 0
M  V30 47165 C 4308.89 2.51691 4.54915 0
M  V30 47166 C 4306.57 1.83675 4.67513 0
M  V30 47167 C 4308.57 3.7157 5.17894 0
M  V30 47168 C 4306.25 3.03829 5.30218 0
M  V30 47169 C 4307.25 3.97597 5.55343 0
M  V30 47170 O 4306.94 5.15639 6.16743 0
M  V30 47171 H 4306.67 0.132544 0.662879 0
M  V30 47172 H 4309.23 1.01765 1.78418 0
M  V30 47173 H 4307.46 -0.507622 3.83354 0
M  V30 47174 H 4309.14 -0.152786 4.05612 0
M  V30 47175 H 4309.91 2.32245 4.25779 0
M  V30 47176 H 4305.79 1.11528 4.47306 0
M  V30 47177 H 4309.33 4.44774 5.37421 0
M  V30 47178 H 4305.23 3.2317 5.58777 0
M  V30 47179 H 4306 5.16161 6.35232 0
M  V30 47180 N 4308.66 -1.4953 0.49786 0
M  V30 47181 C 4309.94 -1.95287 -0.110638 0
M  V30 47182 C 4310.32 -1.43925 -1.5443 0
M  V30 47183 O 4309.67 -0.651654 -2.19011 0
M  V30 47184 C 4309.88 -3.4899 -0.0265022 0
M  V30 47185 C 4311.22 -4.24119 -0.202007 0
M  V30 47186 O 4312.25 -3.56054 -0.101837 0
M  V30 47187 O 4311.11 -5.4498 -0.407277 0
M  V30 47188 H 4308.2 -0.821289 -0.0970261 0
M  V30 47189 H 4310.75 -1.60188 0.560174 0
M  V30 47190 H 4309.52 -3.78999 0.973422 0
M  V30 47191 H 4309.14 -3.90698 -0.737599 0
M  V30 47192 N 4310.14 -0.23156 -1.5589 0
M  V30 47193 C 4311.39 0.396632 -1.9817 0
M  V30 47194 C 4311.71 1.59579 -1.1207 0
M  V30 47195 O 4310.98 1.94877 -0.199976 0
M  V30 47196 H 4309.56 0.149531 -0.731881 0
M  V30 47197 H 4312.22 -0.326783 -1.92141 0
M  V30 47198 H 4311.32 0.716189 -3.03772 0
M  V30 47199 N 4311.62 1.57545 0.0417295 0
M  V30 47200 C 4312.55 2.08762 1.04598 0
M  V30 47201 C 4313.53 0.987392 1.38508 0
M  V30 47202 O 4314.71 1.2619 1.47613 0
M  V30 47203 C 4311.84 2.55653 2.35072 0
M  V30 47204 C 4310.8 3.69825 2.15437 0
M  V30 47205 C 4310.12 4.02877 3.51559 0
M  V30 47206 C 4311.42 4.98743 1.55089 0
M  V30 47207 H 4313.12 2.92917 0.619681 0
M  V30 47208 H 4310.66 1.40912 0.296634 0
M  V30 47209 H 4312.62 2.90102 3.05645 0
M  V30 47210 H 4311.34 1.68565 2.79738 0
M  V30 47211 H 4310 3.35706 1.473 0
M  V30 47212 H 4309.65 3.12874 3.93851 0
M  V30 47213 H 4309.35 4.79773 3.39252 0
M  V30 47214 H 4310.87 4.39849 4.23515 0
M  V30 47215 H 4312.29 5.3123 2.15564 0
M  V30 47216 H 4310.68 5.80164 1.53393 0
M  V30 47217 H 4311.75 4.82154 0.515352 0
M  V30 47218 N 4313.1 -0.313759 1.54445 0
M  V30 47219 C 4314.01 -1.40933 1.8755 0
M  V30 47220 C 4315.02 -1.56116 0.768369 0
M  V30 47221 O 4316.2 -1.71024 1.06361 0
M  V30 47222 C 4313.26 -2.75504 2.10472 0
M  V30 47223 C 4312.32 -2.69415 3.34237 0
M  V30 47224 C 4311.56 -3.97567 3.56056 0
M  V30 47225 O 4311.78 -4.96311 2.81126 0
M  V30 47226 O 4310.71 -4.00232 4.49553 0
M  V30 47227 H 4314.54 -1.15863 2.8073 0
M  V30 47228 H 4312.12 -0.508674 1.40474 0
M  V30 47229 H 4314.01 -3.55147 2.26823 0
M  V30 47230 H 4312.68 -3.00444 1.20479 0
M  V30 47231 H 4311.59 -1.88288 3.23262 0
M  V30 47232 H 4312.92 -2.49428 4.24319 0
M  V30 47233 N 4314.57 -1.46684 -0.576319 0
M  V30 47234 C 4315.51 -1.53771 -1.69962 0
M  V30 47235 C 4316.52 -0.425489 -1.57141 0
M  V30 47236 O 4317.71 -0.694171 -1.64449 0
M  V30 47237 C 4314.81 -1.40793 -3.0827 0
M  V30 47238 C 4313.98 -2.66248 -3.47032 0
M  V30 47239 C 4313.04 -2.47378 -4.64425 0
M  V30 47240 O 4312.07 -3.21126 -4.69965 0
M  V30 47241 N 4313.27 -1.53958 -5.59712 0
M  V30 47242 H 4316.03 -2.50627 -1.64335 0
M  V30 47243 H 4313.59 -1.42822 -0.76247 0
M  V30 47244 H 4315.59 -1.25932 -3.84608 0
M  V30 47245 H 4314.16 -0.520937 -3.08229 0
M  V30 47246 H 4313.38 -2.96006 -2.60335 0
M  V30 47247 H 4314.66 -3.49573 -3.69697 0
M  V30 47248 H 4314.06 -0.931563 -5.57977 0
M  V30 47249 H 4312.62 -1.45057 -6.35454 0
M  V30 47250 N 4316.05 0.821486 -1.34497 0
M  V30 47251 C 4316.98 1.93769 -1.20536 0
M  V30 47252 C 4317.96 1.62312 -0.0966642 0
M  V30 47253 O 4319.15 1.86669 -0.262076 0
M  V30 47254 C 4316.27 3.27792 -0.852664 0
M  V30 47255 C 4315.32 3.78208 -1.97132 0
M  V30 47256 S 4316.15 3.97794 -3.58497 0
M  V30 47257 C 4317.31 5.34742 -3.25272 0
M  V30 47258 H 4317.54 2.05314 -2.1502 0
M  V30 47259 H 4315.07 0.97722 -1.1954 0
M  V30 47260 H 4317.03 4.05225 -0.655963 0
M  V30 47261 H 4315.69 3.14013 0.0738566 0
M  V30 47262 H 4314.89 4.75235 -1.67832 0
M  V30 47263 H 4314.49 3.07725 -2.12558 0
M  V30 47264 H 4316.78 6.18207 -2.77176 0
M  V30 47265 H 4317.72 5.69026 -4.21444 0
M  V30 47266 H 4318.13 5.00321 -2.61417 0
M  V30 47267 N 4317.53 1.1825 1.04186 0
M  V30 47268 C 4318.48 0.876395 2.10484 0
M  V30 47269 C 4319.46 -0.153361 1.60167 0
M  V30 47270 O 4320.66 0.0505097 1.76928 0
M  V30 47271 C 4317.79 0.402588 3.40931 0
M  V30 47272 C 4316.87 1.46435 3.98017 0
M  V30 47273 N 4317.26 2.68048 4.28933 0
M  V30 47274 C 4315.56 1.32458 4.25877 0
M  V30 47275 C 4316.26 3.36348 4.746 0
M  V30 47276 N 4315.24 2.6373 4.75339 0
M  V30 47277 H 4319.04 1.80088 2.32262 0
M  V30 47278 H 4316.55 1.07272 1.21928 0
M  V30 47279 H 4318.55 0.164801 4.16574 0
M  V30 47280 H 4317.21 -0.515574 3.20581 0
M  V30 47281 H 4318.22 3.04926 4.18618 0
M  V30 47282 H 4314.9 0.468865 4.14859 0
M  V30 47283 H 4316.29 4.40276 5.0755 0
M  V30 47284 N 4319.01 -1.23079 0.984342 0
M  V30 47285 C 4319.96 -2.24691 0.527513 0
M  V30 47286 C 4320.93 -1.60284 -0.435678 0
M  V30 47287 O 4322.11 -1.87704 -0.342345 0
M  V30 47288 C 4319.25 -3.44729 -0.16008 0
M  V30 47289 C 4318.36 -4.23678 0.843838 0
M  V30 47290 C 4317.5 -5.31039 0.130645 0
M  V30 47291 C 4316.54 -6.01701 1.12351 0
M  V30 47292 N 4315.67 -7.00725 0.439205 0
M  V30 47293 H 4320.51 -2.63132 1.39877 0
M  V30 47294 H 4318.05 -1.29332 0.700838 0
M  V30 47295 H 4320.01 -4.13211 -0.575577 0
M  V30 47296 H 4318.64 -3.07076 -0.995186 0
M  V30 47297 H 4317.69 -3.54575 1.3777 0
M  V30 47298 H 4319 -4.72433 1.60026 0
M  V30 47299 H 4318.16 -6.05735 -0.342017 0
M  V30 47300 H 4316.9 -4.83236 -0.658346 0
M  V30 47301 H 4315.9 -5.25794 1.60689 0
M  V30 47302 H 4317.13 -6.51592 1.91323 0
M  V30 47303 H 4315.07 -6.55167 -0.330505 0
M  V30 47304 H 4314.99 -7.47443 1.13421 0
M  V30 47305 H 4316.26 -7.79499 -0.0109381 0
M  V30 47306 N 4320.49 -0.756478 -1.38258 0
M  V30 47307 C 4321.76 -0.239308 -1.94131 0
M  V30 47308 C 4322.14 1.26296 -1.69152 0
M  V30 47309 O 4321.49 2.03884 -1.03169 0
M  V30 47310 C 4321.7 -0.596132 -3.43871 0
M  V30 47311 C 4323.05 -0.557386 -4.20926 0
M  V30 47312 O 4324.07 -0.534599 -3.52165 0
M  V30 47313 O 4322.93 -0.570886 -5.4351 0
M  V30 47314 H 4320.03 -0.0509548 -0.825429 0
M  V30 47315 H 4322.57 -0.836796 -1.47634 0
M  V30 47316 H 4321.34 -1.63354 -3.55572 0
M  V30 47317 H 4320.97 0.029211 -3.97589 0
M  V30 47318 N 4321.96 1.49264 -0.505783 0
M  V30 47319 C 4322.89 2.32055 0.259327 0
M  V30 47320 C 4323.88 1.40554 0.958056 0
M  V30 47321 O 4325.06 1.69459 0.948533 0
M  V30 47322 C 4322.19 3.21183 1.32133 0
M  V30 47323 C 4321.14 4.21516 0.742193 0
M  V30 47324 C 4320.47 4.99611 1.90506 0
M  V30 47325 C 4321.77 5.21602 -0.269958 0
M  V30 47326 H 4323.46 2.96271 -0.431749 0
M  V30 47327 H 4321.01 1.42474 -0.20908 0
M  V30 47328 H 4322.96 3.77916 1.86434 0
M  V30 47329 H 4321.69 2.5492 2.04166 0
M  V30 47330 H 4320.35 3.65934 0.220891 0
M  V30 47331 H 4319.99 4.29792 2.61319 0
M  V30 47332 H 4319.69 5.67503 1.52361 0
M  V30 47333 H 4321.22 5.5919 2.45232 0
M  V30 47334 H 4322.63 5.73001 0.18509 0
M  V30 47335 H 4321.03 5.97411 -0.567502 0
M  V30 47336 H 4322.1 4.70218 -1.1842 0
M  V30 47337 N 4323.44 0.239823 1.55765 0
M  V30 47338 C 4324.69 -0.387454 1.99064 0
M  V30 47339 C 4325.02 -1.58105 1.12768 0
M  V30 47340 O 4324.3 -1.93575 0.189457 0
M  V30 47341 C 4324.58 -0.804228 3.51005 0
M  V30 47342 C 4324.43 0.394264 4.48069 0
M  V30 47343 C 4325.75 -1.65379 4.07845 0
M  V30 47344 H 4322.87 -0.139359 0.723704 0
M  V30 47345 H 4325.51 0.339718 1.86938 0
M  V30 47346 H 4323.66 -1.42382 3.61469 0
M  V30 47347 H 4325.33 1.03263 4.49594 0
M  V30 47348 H 4323.58 1.03859 4.21184 0
M  V30 47349 H 4324.25 0.0594258 5.51968 0
M  V30 47350 H 4326.72 -1.13084 4.00439 0
M  V30 47351 H 4325.6 -1.91427 5.14438 0
M  V30 47352 H 4325.86 -2.62327 3.55861 0
M  V30 47353 N 4324.92 -1.57565 -0.0333739 0
M  V30 47354 C 4325.87 -2.0736 -1.05378 0
M  V30 47355 C 4326.86 -0.986504 -1.37712 0
M  V30 47356 O 4328.07 -1.17141 -1.36667 0
M  V30 47357 H 4324.44 -0.661673 -0.357342 0
M  V30 47358 H 4326.41 -2.92141 -0.607964 0
M  V30 47359 C 4325.16 -2.56489 -2.34752 0
M  V30 47360 H 4324.49 -3.39753 -2.10732 0
M  V30 47361 H 4325.93 -2.95045 -3.04507 0
M  V30 47362 C 4324.39 -1.46424 -3.03417 0
M  V30 47363 O 4324.92 -0.828024 -3.93073 0
M  V30 47364 N 4323.12 -1.19984 -2.64674 0
M  V30 47365 H 4322.67 -1.71904 -1.91851 0
M  V30 47366 H 4322.63 -0.465538 -3.10934 0
M  V30 47367 N 4326.4 0.305564 -1.54609 0
M  V30 47368 C 4327.64 1.04288 -1.73931 0
M  V30 47369 C 4327.98 1.87077 -0.521126 0
M  V30 47370 O 4327.25 1.88438 0.481814 0
M  V30 47371 C 4327.54 1.95267 -3.0256 0
M  V30 47372 C 4327.39 1.15688 -4.34668 0
M  V30 47373 C 4328.71 2.94512 -3.27034 0
M  V30 47374 H 4325.83 0.37773 -0.632842 0
M  V30 47375 H 4328.47 0.317928 -1.87321 0
M  V30 47376 H 4326.62 2.57081 -2.91275 0
M  V30 47377 H 4328.29 0.561948 -4.57864 0
M  V30 47378 H 4326.53 0.459492 -4.3136 0
M  V30 47379 H 4327.2 1.82586 -5.20928 0
M  V30 47380 H 4329.68 2.42825 -3.37898 0
M  V30 47381 H 4328.56 3.55338 -4.18361 0
M  V30 47382 H 4328.82 3.6793 -2.45112 0
M  V30 47383 N 4327.88 1.46988 0.568532 0
M  V30 47384 C 4329.29 1.47025 1.15068 0
M  V30 47385 C 4329.64 0.218761 1.94977 0
M  V30 47386 O 4328.76 -0.677165 2.05532 0
M  V30 47387 C 4329.36 2.66385 2.09344 0
M  V30 47388 C 4327.92 2.69417 2.62852 0
M  V30 47389 C 4327.06 2.39945 1.39002 0
M  V30 47390 H 4330.02 1.54662 0.355718 0
M  V30 47391 H 4330.04 2.4271 2.93039 0
M  V30 47392 H 4329.55 3.57454 1.51157 0
M  V30 47393 H 4327.65 1.82457 3.24869 0
M  V30 47394 H 4327.76 3.69789 3.04619 0
M  V30 47395 H 4326.13 1.90294 1.69294 0
M  V30 47396 H 4326.91 3.33209 0.826251 0
M  V30 47397 N 4329.35 -0.814342 1.3493 0
M  V30 47398 C 4330.28 -1.94052 1.29869 0
M  V30 47399 C 4331.27 -1.69202 0.174534 0
M  V30 47400 O 4332.45 -1.90676 0.368265 0
M  V30 47401 C 4329.58 -3.30662 1.06207 0
M  V30 47402 C 4328.53 -3.69975 2.15181 0
M  V30 47403 C 4327.86 -5.04661 1.76695 0
M  V30 47404 C 4329.16 -3.81167 3.57084 0
M  V30 47405 H 4330.85 -1.98545 2.24099 0
M  V30 47406 H 4328.4 -0.953846 1.07879 0
M  V30 47407 H 4330.35 -4.09041 1.01308 0
M  V30 47408 H 4329.08 -3.26491 0.0842123 0
M  V30 47409 H 4327.74 -2.93876 2.19163 0
M  V30 47410 H 4327.38 -4.96986 0.775475 0
M  V30 47411 H 4327.08 -5.31935 2.49637 0
M  V30 47412 H 4328.61 -5.85489 1.73307 0
M  V30 47413 H 4330.02 -4.49796 3.55466 0
M  V30 47414 H 4328.42 -4.19903 4.2872 0
M  V30 47415 H 4329.49 -2.8293 3.938 0
M  V30 47416 N 4330.83 -1.18801 -1.03557 0
M  V30 47417 C 4332.07 -0.997555 -1.78405 0
M  V30 47418 C 4332.44 0.464136 -1.86306 0
M  V30 47419 O 4333.64 0.774192 -2.5741 0
M  V30 47420 C 4331.91 -1.64038 -3.17531 0
M  V30 47421 S 4333.47 -1.5984 -4.08652 0
M  V30 47422 H 4330.29 -0.358111 -0.614229 0
M  V30 47423 H 4332.89 -1.51033 -1.24134 0
M  V30 47424 H 4331.59 -2.69636 -3.09394 0
M  V30 47425 H 4331.12 -1.12812 -3.76878 0
M  V30 47426 H 4333.14 -0.617867 -4.92338 0
M  V30 47427 N 4332.31 1.22555 -0.990855 0
M  V30 47428 C 4333.56 1.91533 -0.666552 0
M  V30 47429 C 4333.89 1.76996 0.799134 0
M  V30 47430 O 4333.17 1.13754 1.57767 0
M  V30 47431 C 4333.45 3.43814 -1.0707 0
M  V30 47432 C 4333.3 3.67411 -2.59479 0
M  V30 47433 C 4334.62 4.35677 -0.622408 0
M  V30 47434 H 4331.74 0.695569 -0.243625 0
M  V30 47435 H 4334.38 1.44472 -1.23401 0
M  V30 47436 H 4332.53 3.84027 -0.587865 0
M  V30 47437 H 4334.2 3.36615 -3.15417 0
M  V30 47438 H 4332.45 3.11762 -3.01641 0
M  V30 47439 H 4333.12 4.7405 -2.82808 0
M  V30 47440 H 4335.59 4.02968 -1.03711 0
M  V30 47441 H 4334.47 5.40904 -0.933511 0
M  V30 47442 H 4334.73 4.39519 0.47698 0
M  V30 47443 N 4333.79 0.763799 1.37855 0
M  V30 47444 C 4335.07 0.2496 1.94001 0
M  V30 47445 C 4335.45 -1.25397 1.6982 0
M  V30 47446 O 4334.79 -2.03334 1.04248 0
M  V30 47447 C 4335 0.61436 3.4355 0
M  V30 47448 C 4336.35 0.579701 4.20624 0
M  V30 47449 O 4337.38 0.553267 3.51877 0
M  V30 47450 O 4336.24 0.599701 5.432 0
M  V30 47451 H 4333.33 0.0553316 0.825147 0
M  V30 47452 H 4335.88 0.844614 1.47188 0
M  V30 47453 H 4334.65 1.65237 3.547 0
M  V30 47454 H 4334.27 -0.00812546 3.97599 0
M  V30 47455 N 4335.27 -1.48993 0.513692 0
M  V30 47456 C 4336.2 -2.26155 -0.304845 0
M  V30 47457 C 4337.18 -1.31291 -0.959246 0
M  V30 47458 O 4338.36 -1.60604 -0.986852 0
M  V30 47459 C 4335.49 -3.07016 -1.43035 0
M  V30 47460 C 4334.54 -4.17131 -0.889029 0
M  V30 47461 S 4335.37 -5.35005 0.230262 0
M  V30 47462 C 4336.52 -6.19423 -0.898106 0
M  V30 47463 H 4336.76 -2.95232 0.350038 0
M  V30 47464 H 4334.29 -1.51473 0.299195 0
M  V30 47465 H 4336.25 -3.54185 -2.07517 0
M  V30 47466 H 4334.91 -2.37383 -2.05689 0
M  V30 47467 H 4334.1 -4.73273 -1.73288 0
M  V30 47468 H 4333.7 -3.72618 -0.321196 0
M  V30 47469 H 4336 -6.53137 -1.80049 0
M  V30 47470 H 4336.94 -7.07106 -0.375028 0
M  V30 47471 H 4337.35 -5.52217 -1.17116 0
M  V30 47472 N 4336.75 -0.248081 -1.55635 0
M  V30 47473 C 4337.99 0.377857 -2.00877 0
M  V30 47474 C 4338.35 1.55043 -1.1325 0
M  V30 47475 O 4339.55 2.24418 -1.47952 0
M  V30 47476 C 4337.82 0.776224 -3.48869 0
M  V30 47477 S 4339.38 1.39252 -4.16118 0
M  V30 47478 H 4336.2 0.118839 -0.700998 0
M  V30 47479 H 4338.8 -0.363591 -1.92089 0
M  V30 47480 H 4337.5 -0.0864609 -4.10309 0
M  V30 47481 H 4337.04 1.54982 -3.61586 0
M  V30 47482 H 4339.05 2.68154 -4.17502 0
M  V30 47483 N 4338.22 1.5758 0.0250174 0
M  V30 47484 C 4339.15 2.09859 1.02378 0
M  V30 47485 C 4340.13 1.00203 1.37453 0
M  V30 47486 O 4341.32 1.27749 1.46266 0
M  V30 47487 C 4338.45 2.58132 2.32347 0
M  V30 47488 C 4337.4 3.72089 2.11503 0
M  V30 47489 C 4336.73 4.06583 3.47266 0
M  V30 47490 C 4338.03 5.0036 1.49791 0
M  V30 47491 H 4339.72 2.93558 0.588578 0
M  V30 47492 H 4337.27 1.41218 0.281672 0
M  V30 47493 H 4339.22 2.93328 3.02551 0
M  V30 47494 H 4337.95 1.71522 2.77935 0
M  V30 47495 H 4336.61 3.37249 1.43731 0
M  V30 47496 H 4336.25 3.17034 3.90511 0
M  V30 47497 H 4335.95 4.83344 3.34144 0
M  V30 47498 H 4337.48 4.44316 4.18826 0
M  V30 47499 H 4338.89 5.33486 2.09917 0
M  V30 47500 H 4337.29 5.81759 1.47231 0
M  V30 47501 H 4338.36 4.82673 0.464184 0
M  V30 47502 N 4339.7 -0.29736 1.54769 0
M  V30 47503 C 4340.65 -1.38687 1.86731 0
M  V30 47504 C 4341.64 -1.52316 0.741371 0
M  V30 47505 O 4342.85 -1.5439 0.925411 0
M  V30 47506 H 4339.22 -0.463329 0.592309 0
M  V30 47507 H 4341.2 -1.08968 2.77792 0
M  V30 47508 C 4339.94 -2.74472 2.13449 0
M  V30 47509 H 4339.27 -2.64768 2.99563 0
M  V30 47510 H 4340.71 -3.49708 2.39751 0
M  V30 47511 C 4339.17 -3.23688 0.934208 0
M  V30 47512 O 4339.7 -4.01395 0.156535 0
M  V30 47513 N 4337.9 -2.81057 0.738586 0
M  V30 47514 H 4337.45 -2.17982 1.37265 0
M  V30 47515 H 4337.41 -3.14337 -0.0629449 0
M  V30 47516 N 4341.18 -1.47287 -0.560729 0
M  V30 47517 C 4342.43 -1.54943 -1.31773 0
M  V30 47518 C 4342.78 -0.207454 -1.91278 0
M  V30 47519 O 4342.07 0.786454 -1.74715 0
M  V30 47520 C 4342.27 -2.60098 -2.4512 0
M  V30 47521 C 4342.1 -4.04389 -1.96722 0
M  V30 47522 C 4340.87 -4.71875 -1.80726 0
M  V30 47523 C 4343.06 -4.91517 -1.51378 0
M  V30 47524 N 4341.05 -6.00698 -1.26629 0
M  V30 47525 C 4342.42 -6.10339 -1.09023 0
M  V30 47526 C 4344.47 -4.77988 -1.39397 0
M  V30 47527 C 4343.18 -7.17126 -0.558778 0
M  V30 47528 C 4345.2 -5.84868 -0.876537 0
M  V30 47529 C 4344.56 -7.02877 -0.462894 0
M  V30 47530 H 4340.66 -0.621703 -0.474352 0
M  V30 47531 H 4343.25 -1.84019 -0.635997 0
M  V30 47532 H 4341.42 -2.32895 -3.10829 0
M  V30 47533 H 4343.15 -2.57617 -3.12114 0
M  V30 47534 H 4339.9 -4.27728 -2.03335 0
M  V30 47535 H 4340.33 -6.69321 -1.0168 0
M  V30 47536 H 4344.97 -3.87122 -1.6999 0
M  V30 47537 H 4342.69 -8.07742 -0.240471 0
M  V30 47538 H 4346.27 -5.76447 -0.787439 0
M  V30 47539 H 4345.15 -7.8417 -0.0687107 0
M  V30 47540 N 4342.66 0.807175 -1.3536 0
M  V30 47541 C 4343.59 1.93361 -1.30896 0
M  V30 47542 C 4344.57 1.69107 -0.183504 0
M  V30 47543 O 4345.75 1.90478 -0.378372 0
M  V30 47544 C 4342.88 3.30094 -1.07959 0
M  V30 47545 C 4341.84 3.68828 -2.1714 0
M  V30 47546 C 4341.16 5.03717 -1.79369 0
M  V30 47547 C 4342.46 3.79268 -3.591 0
M  V30 47548 H 4344.16 1.97354 -2.25149 0
M  V30 47549 H 4341.7 0.948112 -1.08383 0
M  V30 47550 H 4343.66 4.08498 -1.03476 0
M  V30 47551 H 4342.38 3.26442 -0.101526 0
M  V30 47552 H 4341.04 2.92709 -2.20719 0
M  V30 47553 H 4340.69 4.96568 -0.801821 0
M  V30 47554 H 4340.39 5.30604 -2.52455 0
M  V30 47555 H 4341.91 5.84561 -1.7641 0
M  V30 47556 H 4343.33 4.47905 -3.57846 0
M  V30 47557 H 4341.72 4.17624 -4.30941 0
M  V30 47558 H 4342.79 2.80838 -3.95295 0
M  V30 47559 N 4344.14 1.19348 1.02926 0
M  V30 47560 C 4345.07 0.954565 2.13097 0
M  V30 47561 C 4346.05 -0.111935 1.69731 0
M  V30 47562 O 4347.23 0.0430059 1.94152 0
M  V30 47563 C 4344.36 0.492016 3.43797 0
M  V30 47564 C 4343.32 1.50031 4.00843 0
M  V30 47565 C 4342.64 0.894851 5.27159 0
M  V30 47566 C 4343.94 2.88042 4.35694 0
M  V30 47567 H 4345.64 1.87596 2.33341 0
M  V30 47568 H 4343.18 0.903386 1.12138 0
M  V30 47569 H 4345.13 0.312169 4.20242 0
M  V30 47570 H 4343.86 -0.464973 3.23273 0
M  V30 47571 H 4342.52 1.66729 3.26492 0
M  V30 47572 H 4342.17 -0.0696784 5.02952 0
M  V30 47573 H 4341.87 1.56815 5.66289 0
M  V30 47574 H 4343.39 0.725791 6.06271 0
M  V30 47575 H 4344.8 2.74929 5.03078 0
M  V30 47576 H 4343.2 3.52161 4.85904 0
M  V30 47577 H 4344.27 3.40726 3.45013 0
M  V30 47578 N 4345.61 -1.22028 0.997341 0
M  V30 47579 C 4346.56 -2.26142 0.544314 0
M  V30 47580 C 4347.56 -1.64431 -0.407268 0
M  V30 47581 O 4348.76 -1.7782 -0.279301 0
M  V30 47582 H 4345.14 -0.73529 0.157647 0
M  V30 47583 H 4347.11 -2.61698 1.43376 0
M  V30 47584 C 4345.86 -3.4749 -0.120964 0
M  V30 47585 H 4345.18 -3.95238 0.60221 0
M  V30 47586 H 4346.62 -4.22096 -0.401336 0
M  V30 47587 C 4345.08 -3.0833 -1.35772 0
M  V30 47588 O 4345.61 -3.18127 -2.45271 0
M  V30 47589 N 4343.81 -2.6307 -1.23462 0
M  V30 47590 H 4343.36 -2.55298 -0.343633 0
M  V30 47591 H 4343.32 -2.37237 -2.06315 0
M  V30 47592 N 4347.09 -0.771099 -1.37448 0
M  V30 47593 C 4348.34 -0.335623 -2.00004 0
M  V30 47594 C 4348.67 1.08487 -1.61072 0
M  V30 47595 O 4347.95 1.74621 -0.856599 0
M  V30 47596 C 4348.23 -0.478449 -3.56907 0
M  V30 47597 C 4348.08 -1.94131 -4.0575 0
M  V30 47598 C 4349.4 0.11767 -4.39943 0
M  V30 47599 H 4346.52 -0.123423 -0.726592 0
M  V30 47600 H 4349.16 -0.974021 -1.63134 0
M  V30 47601 H 4347.31 0.0650333 -3.88446 0
M  V30 47602 H 4348.98 -2.54445 -3.8478 0
M  V30 47603 H 4347.23 -2.45035 -3.57967 0
M  V30 47604 H 4347.9 -1.99231 -5.14792 0
M  V30 47605 H 4350.37 -0.346043 -4.14659 0
M  V30 47606 H 4349.25 -0.0124031 -5.48899 0
M  V30 47607 H 4349.51 1.20791 -4.25279 0
M  V30 47608 N 4348.57 1.48719 -0.521586 0
M  V30 47609 C 4349.8 2.06597 0.0117432 0
M  V30 47610 C 4350.21 1.37959 1.29475 0
M  V30 47611 O 4349.55 0.45824 1.77893 0
M  V30 47612 C 4349.61 3.58119 0.31482 0
M  V30 47613 C 4349.28 4.48575 -0.873476 0
M  V30 47614 C 4350.27 4.88857 -1.76961 0
M  V30 47615 C 4347.96 4.90594 -1.0781 0
M  V30 47616 C 4349.95 5.69917 -2.85435 0
M  V30 47617 C 4347.64 5.71426 -2.16599 0
M  V30 47618 C 4348.64 6.10995 -3.05244 0
M  V30 47619 O 4348.33 6.90207 -4.12152 0
M  V30 47620 H 4348.06 0.675478 -0.0265707 0
M  V30 47621 H 4350.61 1.9221 -0.724179 0
M  V30 47622 H 4348.84 3.70588 1.10461 0
M  V30 47623 H 4350.53 3.98153 0.789222 0
M  V30 47624 H 4351.3 4.57023 -1.62343 0
M  V30 47625 H 4347.18 4.59284 -0.397423 0
M  V30 47626 H 4350.72 6.00721 -3.54654 0
M  V30 47627 H 4346.62 6.02673 -2.31204 0
M  V30 47628 H 4347.39 7.08548 -4.09758 0
M  V30 47629 N 4350.05 0.256331 1.55501 0
M  V30 47630 C 4351.33 -0.416596 1.91112 0
M  V30 47631 C 4351.71 -1.75156 1.17828 0
M  V30 47632 O 4351.05 -2.26537 0.298862 0
M  V30 47633 C 4351.26 -0.575401 3.44224 0
M  V30 47634 C 4352.61 -0.866955 4.15655 0
M  V30 47635 O 4353.64 -0.660916 3.50015 0
M  V30 47636 O 4352.49 -1.25988 5.31779 0
M  V30 47637 H 4349.59 -0.225069 0.795785 0
M  V30 47638 H 4352.13 0.301095 1.67008 0
M  V30 47639 H 4350.91 0.364835 3.89595 0
M  V30 47640 H 4350.53 -1.34328 3.74222 0
M  V30 47641 N 4351.53 -1.57591 -0.0166602 0
M  V30 47642 C 4352.75 -1.94102 -0.716392 0
M  V30 47643 C 4353.17 -0.857111 -1.68223 0
M  V30 47644 O 4352.53 0.165437 -1.81749 0
M  V30 47645 C 4352.58 -3.30585 -1.46273 0
M  V30 47646 O 4352.3 -4.34813 -0.535642 0
M  V30 47647 C 4353.8 -3.81454 -2.25849 0
M  V30 47648 H 4351.02 -0.640319 -0.200582 0
M  V30 47649 H 4353.56 -2.04479 0.0295055 0
M  V30 47650 H 4351.72 -3.21567 -2.1604 0
M  V30 47651 H 4352.13 -5.13669 -1.06037 0
M  V30 47652 H 4353.61 -4.79428 -2.73593 0
M  V30 47653 H 4354.08 -3.1329 -3.07808 0
M  V30 47654 H 4354.69 -3.93594 -1.61132 0
M  V30 47655 N 4353 0.289148 -1.54925 0
M  V30 47656 C 4354.25 1.02084 -1.74423 0
M  V30 47657 C 4354.57 1.87391 -0.539421 0
M  V30 47658 O 4353.84 1.90754 0.446071 0
M  V30 47659 H 4352.42 0.379897 -0.643186 0
M  V30 47660 H 4355.09 0.317273 -1.923 0
M  V30 47661 H 4354.18 1.66712 -2.63844 0
M  V30 47662 N 4354.48 1.47583 0.55291 0
M  V30 47663 C 4355.9 1.33196 0.879258 0
M  V30 47664 C 4356.1 0.325675 1.98851 0
M  V30 47665 O 4355.15 -0.261279 2.51145 0
M  V30 47666 C 4356.47 2.72638 1.26843 0
M  V30 47667 C 4358.02 2.80955 1.37962 0
M  V30 47668 C 4358.49 4.21047 1.80233 0
M  V30 47669 N 4359.98 4.23609 1.87376 0
M  V30 47670 C 4360.72 5.28924 2.21421 0
M  V30 47671 N 4360.21 6.44539 2.54049 0
M  V30 47672 N 4362.01 5.16304 2.22231 0
M  V30 47673 H 4354.16 2.11641 -0.179352 0
M  V30 47674 H 4356.42 0.947837 -0.0175761 0
M  V30 47675 H 4356.13 3.47727 0.527169 0
M  V30 47676 H 4356 3.04686 2.22365 0
M  V30 47677 H 4358.39 2.06135 2.11169 0
M  V30 47678 H 4358.47 2.52555 0.406169 0
M  V30 47679 H 4358.11 4.96373 1.07594 0
M  V30 47680 H 4358.04 4.46874 2.78588 0
M  V30 47681 H 4360.53 3.40204 1.6453 0
M  V30 47682 H 4360.85 7.20654 2.79066 0
M  V30 47683 H 4359.19 6.47852 2.5162 0
M  V30 47684 H 4362.38 4.25006 1.96183 0
M  V30 47685 H 4362.55 5.98485 2.48434 0
M  V30 47686 N 4355.96 -0.799985 1.35787 0
M  V30 47687 C 4357.19 -1.58858 1.32558 0
M  V30 47688 C 4357.6 -1.88558 -0.0955035 0
M  V30 47689 O 4356.96 -1.49313 -1.04938 0
M  V30 47690 C 4357.01 -2.91591 2.13674 0
M  V30 47691 O 4356.73 -2.63176 3.50243 0
M  V30 47692 C 4358.23 -3.85933 2.18107 0
M  V30 47693 H 4355.45 -0.493065 0.455113 0
M  V30 47694 H 4358 -0.993683 1.78735 0
M  V30 47695 H 4356.15 -3.47578 1.7108 0
M  V30 47696 H 4356.57 -3.47972 3.92448 0
M  V30 47697 H 4358.04 -4.7616 2.79242 0
M  V30 47698 H 4358.52 -4.23007 1.18161 0
M  V30 47699 H 4359.12 -3.35881 2.60891 0
M  V30 47700 N 4357.44 -1.19892 -1.02292 0
M  V30 47701 C 4358.69 -1.00323 -1.75441 0
M  V30 47702 C 4359.01 0.466455 -1.89339 0
M  V30 47703 O 4358.28 1.33755 -1.43131 0
M  V30 47704 H 4356.86 -0.368216 -0.649943 0
M  V30 47705 H 4359.52 -1.50892 -1.2336 0
M  V30 47706 H 4358.62 -1.45628 -2.76042 0
M  V30 47707 N 4358.92 1.21498 -1.0038 0
M  V30 47708 C 4359.86 2.23823 -0.563193 0
M  V30 47709 C 4360.83 1.60957 0.410123 0
M  V30 47710 O 4362.02 1.88224 0.31244 0
M  V30 47711 C 4359.16 3.4494 0.105216 0
M  V30 47712 C 4358.27 4.22282 -0.911134 0
M  V30 47713 C 4357.41 5.30764 -0.215112 0
M  V30 47714 C 4356.45 5.99837 -1.21909 0
M  V30 47715 N 4355.58 6.99937 -0.550629 0
M  V30 47716 H 4360.42 2.60873 -1.44046 0
M  V30 47717 H 4357.96 1.282 -0.721324 0
M  V30 47718 H 4359.92 4.14074 0.509766 0
M  V30 47719 H 4358.55 3.08621 0.946206 0
M  V30 47720 H 4357.6 3.52338 -1.43394 0
M  V30 47721 H 4358.91 4.69828 -1.67522 0
M  V30 47722 H 4358.07 6.06203 0.245606 0
M  V30 47723 H 4356.8 4.84222 0.581384 0
M  V30 47724 H 4355.81 5.23171 -1.69033 0
M  V30 47725 H 4357.03 6.48466 -2.01665 0
M  V30 47726 H 4354.98 6.5561 0.226232 0
M  V30 47727 H 4354.9 7.45544 -1.25298 0
M  V30 47728 H 4356.17 7.79418 -0.113075 0
M  V30 47729 N 4360.39 0.778378 1.37037 0
M  V30 47730 C 4361.64 0.34236 1.98773 0
M  V30 47731 C 4361.96 -1.08895 1.62484 0
M  V30 47732 O 4363.16 -1.62669 2.17373 0
M  V30 47733 C 4361.62 0.561171 3.55498 0
M  V30 47734 C 4361.23 2.00318 4.0072 0
M  V30 47735 C 4362.97 0.189107 4.24079 0
M  V30 47736 C 4360.88 2.16923 5.5018 0
M  V30 47737 H 4359.81 0.124265 0.74369 0
M  V30 47738 H 4362.46 0.958447 1.5648 0
M  V30 47739 H 4360.84 -0.12447 3.95804 0
M  V30 47740 H 4362.01 2.72431 3.71642 0
M  V30 47741 H 4360.33 2.33245 3.44943 0
M  V30 47742 H 4362.93 0.291603 5.33904 0
M  V30 47743 H 4363.27 -0.861454 4.07289 0
M  V30 47744 H 4363.8 0.827553 3.89097 0
M  V30 47745 H 4360.54 3.20322 5.71904 0
M  V30 47746 H 4360.06 1.49301 5.80921 0
M  V30 47747 H 4361.74 1.97104 6.16246 0
M  V30 47748 N 4361.87 -1.4844 0.529465 0
M  V30 47749 C 4363.29 -1.58497 0.187288 0
M  V30 47750 C 4363.49 -1.53153 -1.30944 0
M  V30 47751 O 4362.55 -1.42033 -2.08765 0
M  V30 47752 C 4363.86 -2.90154 0.789358 0
M  V30 47753 C 4365.41 -3.03682 0.758045 0
M  V30 47754 C 4365.88 -4.37999 1.33868 0
M  V30 47755 N 4367.37 -4.44565 1.30063 0
M  V30 47756 C 4368.11 -5.47001 1.7198 0
M  V30 47757 N 4367.6 -6.56395 2.21624 0
M  V30 47758 N 4369.4 -5.37881 1.6322 0
M  V30 47759 H 4361.55 -1.50156 1.50223 0
M  V30 47760 H 4363.81 -0.71295 0.624825 0
M  V30 47761 H 4363.52 -2.99719 1.84015 0
M  V30 47762 H 4363.39 -3.7626 0.266154 0
M  V30 47763 H 4365.78 -2.9373 -0.28398 0
M  V30 47764 H 4365.86 -2.19189 1.31871 0
M  V30 47765 H 4365.5 -4.48705 2.37963 0
M  V30 47766 H 4365.43 -5.21178 0.753702 0
M  V30 47767 H 4367.92 -3.66094 0.937207 0
M  V30 47768 H 4368.24 -7.30695 2.51604 0
M  V30 47769 H 4366.58 -6.5736 2.25617 0
M  V30 47770 H 4369.77 -4.51313 1.24234 0
M  V30 47771 H 4369.95 -6.17581 1.96208 0
M  V30 47772 N 4363.35 -0.264574 -1.55363 0
M  V30 47773 C 4364.6 0.355736 -1.99656 0
M  V30 47774 C 4364.93 1.56291 -1.15269 0
M  V30 47775 O 4364.21 1.93249 -0.22023 0
M  V30 47776 C 4364.49 0.748285 -3.5224 0
M  V30 47777 C 4364.34 -0.465498 -4.47385 0
M  V30 47778 C 4365.66 1.5887 -4.10425 0
M  V30 47779 H 4362.78 0.127827 -0.72583 0
M  V30 47780 H 4365.42 -0.369416 -1.86374 0
M  V30 47781 H 4363.57 1.36613 -3.63688 0
M  V30 47782 H 4365.24 -1.10403 -4.47894 0
M  V30 47783 H 4363.49 -1.10547 -4.19478 0
M  V30 47784 H 4364.16 -0.147232 -5.51804 0
M  V30 47785 H 4366.63 1.067 -4.02187 0
M  V30 47786 H 4365.51 1.83219 -5.17419 0
M  V30 47787 H 4365.77 2.56633 -3.59989 0
M  V30 47788 N 4364.83 1.57598 0.00830251 0
M  V30 47789 C 4365.76 2.04733 1.03038 0
M  V30 47790 C 4366.77 0.963763 1.31208 0
M  V30 47791 O 4367.96 1.24071 1.2833 0
M  V30 47792 C 4365.06 2.42528 2.36714 0
M  V30 47793 C 4364.24 3.73517 2.27604 0
M  V30 47794 C 4363.3 3.98271 3.43899 0
M  V30 47795 O 4362.32 4.69051 3.22459 0
M  V30 47796 N 4363.52 3.4552 4.66472 0
M  V30 47797 H 4366.29 2.93036 0.628471 0
M  V30 47798 H 4363.85 1.60711 0.195852 0
M  V30 47799 H 4365.84 2.56208 3.13272 0
M  V30 47800 H 4364.41 1.59787 2.68676 0
M  V30 47801 H 4363.63 3.69993 1.3601 0
M  V30 47802 H 4364.92 4.59408 2.18681 0
M  V30 47803 H 4364.32 2.88187 4.8679 0
M  V30 47804 H 4362.87 3.64545 5.40324 0
M  V30 47805 N 4366.31 -0.280928 1.55076 0
M  V30 47806 C 4367.53 -1.0363 1.79654 0
M  V30 47807 C 4367.96 -1.79442 0.564106 0
M  V30 47808 O 4367.32 -1.74663 -0.486057 0
M  V30 47809 C 4367.36 -1.97681 3.01587 0
M  V30 47810 O 4366.47 -3.06322 2.76117 0
M  V30 47811 H 4365.81 -0.296691 0.594029 0
M  V30 47812 H 4368.34 -0.312246 2.02203 0
M  V30 47813 H 4368.35 -2.39781 3.30105 0
M  V30 47814 H 4367.02 -1.41912 3.9094 0
M  V30 47815 H 4365.6 -2.68594 2.58673 0
M  V30 47816 N 4367.79 -1.47874 -0.545076 0
M  V30 47817 C 4368.72 -1.64156 -1.66057 0
M  V30 47818 C 4369.7 -0.490708 -1.62868 0
M  V30 47819 O 4370.88 -0.721483 -1.803 0
M  V30 47820 C 4368.01 -1.667 -3.04678 0
M  V30 47821 C 4366.97 -2.81134 -3.22719 0
M  V30 47822 C 4366.29 -2.68757 -4.62248 0
M  V30 47823 C 4367.59 -4.226 -3.06931 0
M  V30 47824 H 4369.29 -2.57541 -1.52686 0
M  V30 47825 H 4366.83 -1.23941 -0.733125 0
M  V30 47826 H 4368.78 -1.7668 -3.82573 0
M  V30 47827 H 4367.51 -0.698837 -3.19036 0
M  V30 47828 H 4366.17 -2.70684 -2.47236 0
M  V30 47829 H 4365.82 -1.69943 -4.73422 0
M  V30 47830 H 4365.52 -3.45536 -4.75267 0
M  V30 47831 H 4367.04 -2.80684 -5.42263 0
M  V30 47832 H 4368.45 -4.33962 -3.74633 0
M  V30 47833 H 4366.85 -5.00259 -3.31453 0
M  V30 47834 H 4367.92 -4.40117 -2.0353 0
M  V30 47835 N 4369.26 0.792773 -1.36209 0
M  V30 47836 C 4370.21 1.90527 -1.30262 0
M  V30 47837 C 4371.18 1.65208 -0.171933 0
M  V30 47838 O 4372.37 1.87413 -0.357901 0
M  V30 47839 C 4369.51 3.27287 -1.0944 0
M  V30 47840 C 4368.62 3.64701 -2.31554 0
M  V30 47841 C 4367.75 4.90562 -2.03771 0
M  V30 47842 C 4366.79 5.20644 -3.21864 0
M  V30 47843 N 4365.93 6.37687 -2.93768 0
M  V30 47844 H 4370.77 1.94946 -2.25389 0
M  V30 47845 H 4368.31 0.953369 -1.12024 0
M  V30 47846 H 4370.26 4.06147 -0.953954 0
M  V30 47847 H 4368.89 3.22299 -0.179698 0
M  V30 47848 H 4367.95 2.80991 -2.56414 0
M  V30 47849 H 4369.26 3.82882 -3.19691 0
M  V30 47850 H 4368.41 5.77279 -1.86637 0
M  V30 47851 H 4367.15 4.74443 -1.1294 0
M  V30 47852 H 4366.16 4.3241 -3.39561 0
M  V30 47853 H 4367.38 5.38684 -4.13517 0
M  V30 47854 H 4365.33 6.22967 -2.05544 0
M  V30 47855 H 4365.24 6.56185 -3.75443 0
M  V30 47856 H 4366.51 7.27396 -2.80205 0
M  V30 47857 N 4370.74 1.20433 1.01654 0
M  V30 47858 C 4371.99 1.00877 1.74662 0
M  V30 47859 C 4372.3 -0.459713 1.90121 0
M  V30 47860 O 4373.51 -0.7744 2.60222 0
M  V30 47861 C 4371.97 1.75618 3.14144 0
M  V30 47862 C 4371.57 3.26559 3.06697 0
M  V30 47863 C 4373.32 1.64429 3.91361 0
M  V30 47864 C 4371.22 3.93837 4.41187 0
M  V30 47865 H 4370.15 0.373832 0.654802 0
M  V30 47866 H 4372.81 1.44054 1.13669 0
M  V30 47867 H 4371.19 1.25227 3.75678 0
M  V30 47868 H 4372.36 3.84164 2.5447 0
M  V30 47869 H 4370.68 3.38161 2.42973 0
M  V30 47870 H 4373.27 2.12034 4.90862 0
M  V30 47871 H 4373.62 0.600507 4.11946 0
M  V30 47872 H 4374.15 2.12233 3.36455 0
M  V30 47873 H 4370.89 4.98368 4.25805 0
M  V30 47874 H 4370.41 3.41022 4.93421 0
M  V30 47875 H 4372.09 3.98092 5.10031 0
M  V30 47876 N 4372.22 -1.20963 1.01023 0
M  V30 47877 C 4373.47 -1.89791 0.694534 0
M  V30 47878 C 4373.79 -1.78824 -0.777628 0
M  V30 47879 O 4373.06 -1.18651 -1.55881 0
M  V30 47880 H 4371.64 -0.702525 0.253905 0
M  V30 47881 H 4374.3 -1.46936 1.28046 0
M  V30 47882 H 4373.4 -2.96568 0.972306 0
M  V30 47883 N 4373.7 -0.785634 -1.36622 0
M  V30 47884 C 4374.63 -0.195598 -2.32679 0
M  V30 47885 C 4375.61 0.667307 -1.56464 0
M  V30 47886 O 4376.79 0.601911 -1.84637 0
M  V30 47887 C 4373.92 0.673407 -3.40709 0
M  V30 47888 C 4372.88 -0.0893007 -4.27907 0
M  V30 47889 C 4372.2 0.900053 -5.2707 0
M  V30 47890 C 4373.5 -1.27633 -5.06465 0
M  V30 47891 H 4375.2 -0.998083 -2.82274 0
M  V30 47892 H 4372.74 -0.481397 -1.35715 0
M  V30 47893 H 4374.7 1.09609 -4.06895 0
M  V30 47894 H 4373.42 1.50856 -2.89672 0
M  V30 47895 H 4372.08 -0.492922 -3.63271 0
M  V30 47896 H 4371.73 1.73013 -4.72309 0
M  V30 47897 H 4371.43 0.394182 -5.86276 0
M  V30 47898 H 4372.95 1.32139 -5.96131 0
M  V30 47899 H 4374.37 -0.929589 -5.65713 0
M  V30 47900 H 4372.76 -1.71523 -5.75065 0
M  V30 47901 H 4373.83 -2.07356 -4.38328 0
M  V30 47902 N 4375.18 1.48157 -0.53733 0
M  V30 47903 C 4376.11 2.26611 0.268827 0
M  V30 47904 C 4377.09 1.328 0.938237 0
M  V30 47905 O 4378.27 1.62153 0.961176 0
M  V30 47906 C 4375.4 3.09253 1.38132 0
M  V30 47907 C 4374.44 4.18493 0.822554 0
M  V30 47908 S 4375.28 5.34571 -0.315347 0
M  V30 47909 C 4376.43 6.20773 0.799447 0
M  V30 47910 H 4376.67 2.94638 -0.396963 0
M  V30 47911 H 4374.2 1.50978 -0.323255 0
M  V30 47912 H 4376.16 3.57442 2.01856 0
M  V30 47913 H 4374.82 2.40626 2.01887 0
M  V30 47914 H 4374.01 4.7597 1.65737 0
M  V30 47915 H 4373.61 3.73082 0.261875 0
M  V30 47916 H 4375.9 6.55919 1.69636 0
M  V30 47917 H 4376.85 7.07613 0.262486 0
M  V30 47918 H 4377.26 5.54011 1.08316 0
M  V30 47919 N 4376.65 0.272809 1.55221 0
M  V30 47920 C 4377.88 -0.350927 2.0441 0
M  V30 47921 C 4378.3 -1.48854 1.14996 0
M  V30 47922 O 4377.66 -1.80694 0.148093 0
M  V30 47923 C 4377.71 -0.811625 3.51347 0
M  V30 47924 O 4376.81 -1.91907 3.65028 0
M  V30 47925 H 4376.16 -0.0729068 0.659985 0
M  V30 47926 H 4378.69 0.406435 2.00522 0
M  V30 47927 H 4378.7 -1.10799 3.92667 0
M  V30 47928 H 4377.37 0.0207069 4.15895 0
M  V30 47929 H 4375.95 -1.62541 3.35611 0
M  V30 47930 N 4378.13 -1.576 5.54043e-05 0
M  V30 47931 C 4379.06 -2.11461 -0.990267 0
M  V30 47932 C 4380.04 -1.02377 -1.35842 0
M  V30 47933 O 4381.23 -1.3006 -1.44216 0
M  V30 47934 C 4378.36 -2.61796 -2.28211 0
M  V30 47935 C 4377.31 -3.75407 -2.05556 0
M  V30 47936 C 4376.64 -4.12057 -3.40754 0
M  V30 47937 C 4377.94 -5.0268 -1.41811 0
M  V30 47938 H 4379.63 -2.94457 -0.541801 0
M  V30 47939 H 4377.18 -1.41649 -0.259169 0
M  V30 47940 H 4379.13 -2.98104 -2.97846 0
M  V30 47941 H 4377.86 -1.75922 -2.75171 0
M  V30 47942 H 4376.51 -3.39493 -1.38347 0
M  V30 47943 H 4376.16 -3.23206 -3.85417 0
M  V30 47944 H 4375.86 -4.88599 -3.26412 0
M  V30 47945 H 4377.39 -4.50923 -4.11704 0
M  V30 47946 H 4378.8 -5.36758 -2.01403 0
M  V30 47947 H 4377.2 -5.84027 -1.37957 0
M  V30 47948 H 4378.27 -4.83351 -0.387336 0
M  V30 47949 N 4379.61 0.2727 -1.55223 0
M  V30 47950 C 4380.84 1.02676 -1.80201 0
M  V30 47951 C 4381.26 1.7914 -0.573614 0
M  V30 47952 O 4380.62 1.74918 0.476787 0
M  V30 47953 C 4380.67 1.96079 -3.02631 0
M  V30 47954 O 4379.77 3.04854 -2.77737 0
M  V30 47955 H 4379.11 0.293537 -0.595594 0
M  V30 47956 H 4381.64 0.301519 -2.02366 0
M  V30 47957 H 4381.65 2.38027 -3.31372 0
M  V30 47958 H 4380.33 1.39837 -3.91687 0
M  V30 47959 H 4378.9 2.67218 -2.60094 0
M  V30 47960 N 4381.09 1.48161 0.537226 0
M  V30 47961 C 4382.04 1.62144 1.6425 0
M  V30 47962 C 4383.01 0.463724 1.59495 0
M  V30 47963 O 4384.19 0.686304 1.7803 0
M  V30 47964 C 4381.33 1.66038 3.02532 0
M  V30 47965 C 4380.44 2.92866 3.17574 0
M  V30 47966 C 4379.58 2.87968 4.46372 0
M  V30 47967 C 4378.62 4.09532 4.54918 0
M  V30 47968 N 4377.75 4.02753 5.75095 0
M  V30 47969 H 4382.59 2.56534 1.51638 0
M  V30 47970 H 4380.13 1.27226 0.738369 0
M  V30 47971 H 4382.09 1.66278 3.82632 0
M  V30 47972 H 4380.72 0.751442 3.13932 0
M  V30 47973 H 4379.77 3.02403 2.30773 0
M  V30 47974 H 4381.08 3.82833 3.19751 0
M  V30 47975 H 4380.24 2.86569 5.34755 0
M  V30 47976 H 4378.98 1.95718 4.46706 0
M  V30 47977 H 4377.98 4.11214 3.64942 0
M  V30 47978 H 4379.21 5.02933 4.56328 0
M  V30 47979 H 4377.15 3.13319 5.7634 0
M  V30 47980 H 4377.07 4.86418 5.78735 0
M  V30 47981 H 4378.34 4.05402 6.65785 0
M  V30 47982 N 4382.57 -0.785538 1.36627 0
M  V30 47983 C 4383.81 -1.54053 1.30814 0
M  V30 47984 C 4384.14 -1.94683 -0.111089 0
M  V30 47985 O 4383.41 -1.65245 -1.05219 0
M  V30 47986 H 4381.99 -0.571337 0.481231 0
M  V30 47987 H 4384.65 -0.935761 1.70966 0
M  V30 47988 H 4383.74 -2.44631 1.9381 0
M  V30 47989 N 4384.04 -1.20971 -1.01014 0
M  V30 47990 C 4384.97 -0.988347 -2.11551 0
M  V30 47991 C 4385.96 0.0849181 -1.69888 0
M  V30 47992 O 4387.14 -0.0738884 -1.94059 0
M  V30 47993 C 4384.27 -0.546649 -3.42971 0
M  V30 47994 C 4383.22 -1.56389 -3.98405 0
M  V30 47995 C 4382.55 -0.978604 -5.25669 0
M  V30 47996 C 4383.85 -2.94937 -4.31056 0
M  V30 47997 H 4385.54 -1.91284 -2.30327 0
M  V30 47998 H 4383.09 -0.921111 -1.10687 0
M  V30 47999 H 4385.04 -0.378987 -4.19692 0
M  V30 48000 H 4383.77 0.413484 -3.23972 0
M  V30 48001 H 4382.43 -1.71903 -3.23798 0
M  V30 48002 H 4382.07 -0.0103456 -5.02999 0
M  V30 48003 H 4381.77 -1.65804 -5.63722 0
M  V30 48004 H 4383.3 -0.822152 -6.0504 0
M  V30 48005 H 4384.71 -2.82897 -4.9864 0
M  V30 48006 H 4383.11 -3.59847 -4.8024 0
M  V30 48007 H 4384.18 -3.46172 -3.39548 0
M  V30 48008 N 4385.52 1.20426 -1.01663 0
M  V30 48009 C 4386.45 2.25464 -0.607305 0
M  V30 48010 C 4387.43 1.65855 0.377658 0
M  V30 48011 O 4388.62 1.9241 0.263081 0
M  V30 48012 C 4385.75 3.47256 0.0551728 0
M  V30 48013 C 4384.7 4.19459 -0.850779 0
M  V30 48014 C 4384.03 5.34673 -0.0540739 0
M  V30 48015 C 4385.33 4.75596 -2.15885 0
M  V30 48016 H 4387.02 2.59957 -1.48535 0
M  V30 48017 H 4384.57 1.24958 -0.715649 0
M  V30 48018 H 4386.52 4.19918 0.353085 0
M  V30 48019 H 4385.25 3.11927 0.967936 0
M  V30 48020 H 4383.9 3.48663 -1.1327 0
M  V30 48021 H 4383.55 4.95588 0.86034 0
M  V30 48022 H 4383.25 5.83911 -0.657397 0
M  V30 48023 H 4384.78 6.10138 0.237383 0
M  V30 48024 H 4386.19 5.40076 -1.9233 0
M  V30 48025 H 4384.59 5.35271 -2.71302 0
M  V30 48026 H 4385.66 3.94336 -2.82183 0
M  V30 48027 N 4387 0.792868 1.36203 0
M  V30 48028 C 4387.91 0.194891 2.33789 0
M  V30 48029 C 4388.93 -0.654812 1.61209 0
M  V30 48030 O 4390.1 -0.569788 1.93172 0
M  V30 48031 C 4387.17 -0.657601 3.40406 0
M  V30 48032 C 4386.23 0.210999 4.28781 0
M  V30 48033 C 4385.46 -0.6009 5.30306 0
M  V30 48034 O 4385.68 -1.83663 5.40022 0
M  V30 48035 O 4384.62 0.00101987 6.019 0
M  V30 48036 H 4388.44 1.00183 2.867 0
M  V30 48037 H 4386.03 0.55439 1.38733 0
M  V30 48038 H 4387.91 -1.14361 4.05585 0
M  V30 48039 H 4386.59 -1.44237 2.89789 0
M  V30 48040 H 4385.49 0.743843 3.6663 0
M  V30 48041 H 4386.83 0.959365 4.8276 0
M  V30 48042 N 4388.48 -1.4787 0.54518 0
M  V30 48043 C 4389.39 -2.33634 -0.212664 0
M  V30 48044 C 4390.4 -1.47443 -0.923931 0
M  V30 48045 O 4391.58 -1.80396 -0.895508 0
M  V30 48046 C 4388.65 -3.23889 -1.23681 0
M  V30 48047 C 4387.71 -4.25963 -0.534267 0
M  V30 48048 C 4386.94 -5.11904 -1.50962 0
M  V30 48049 O 4387.16 -5.00087 -2.74352 0
M  V30 48050 O 4386.1 -5.92835 -1.04069 0
M  V30 48051 H 4389.92 -2.99712 0.490522 0
M  V30 48052 H 4387.51 -1.46234 0.305922 0
M  V30 48053 H 4389.39 -3.79673 -1.82829 0
M  V30 48054 H 4388.06 -2.60453 -1.92213 0
M  V30 48055 H 4386.97 -3.73971 0.0980994 0
M  V30 48056 H 4388.3 -4.92078 0.109386 0
M  V30 48057 N 4389.96 -0.281037 -1.55074 0
M  V30 48058 C 4390.9 0.603858 -2.2276 0
M  V30 48059 C 4391.87 1.14516 -1.20313 0
M  V30 48060 O 4393.06 1.19337 -1.48873 0
M  V30 48061 C 4390.2 1.77937 -2.9569 0
M  V30 48062 C 4389.31 1.27135 -4.12869 0
M  V30 48063 C 4388.45 2.40913 -4.73428 0
M  V30 48064 C 4387.49 1.87145 -5.82789 0
M  V30 48065 N 4386.62 2.94418 -6.37387 0
M  V30 48066 H 4391.46 0.0200192 -2.97993 0
M  V30 48067 H 4389 -0.00188596 -1.471 0
M  V30 48068 H 4390.96 2.47043 -3.36193 0
M  V30 48069 H 4389.59 2.33514 -2.2287 0
M  V30 48070 H 4388.64 0.473198 -3.77445 0
M  V30 48071 H 4389.95 0.837578 -4.91717 0
M  V30 48072 H 4389.11 3.18002 -5.16681 0
M  V30 48073 H 4387.84 2.87609 -3.93869 0
M  V30 48074 H 4386.85 1.08537 -5.3898 0
M  V30 48075 H 4388.07 1.41378 -6.64221 0
M  V30 48076 H 4386.02 3.40485 -5.60719 0
M  V30 48077 H 4385.94 2.55476 -7.11525 0
M  V30 48078 H 4387.21 3.71465 -6.85298 0
M  V30 48079 N 4391.44 1.57598 -0.00841331 0
M  V30 48080 C 4392.67 1.94934 0.684428 0
M  V30 48081 C 4393.07 0.882292 1.67369 0
M  V30 48082 O 4392.42 -0.146557 1.83114 0
M  V30 48083 C 4392.48 3.28305 1.46479 0
M  V30 48084 C 4392.14 4.5255 0.636181 0
M  V30 48085 C 4393.14 5.19839 -0.0797413 0
M  V30 48086 C 4390.82 4.98944 0.579674 0
M  V30 48087 C 4392.82 6.31827 -0.841065 0
M  V30 48088 C 4390.51 6.10819 -0.18537 0
M  V30 48089 C 4391.5 6.77118 -0.894465 0
M  V30 48090 O 4391.19 7.86847 -1.64701 0
M  V30 48091 H 4390.92 0.647256 0.195027 0
M  V30 48092 H 4393.48 2.05318 -0.0581993 0
M  V30 48093 H 4391.71 3.14353 2.25209 0
M  V30 48094 H 4393.4 3.50692 2.04376 0
M  V30 48095 H 4394.16 4.84979 -0.0452907 0
M  V30 48096 H 4390.04 4.47159 1.12114 0
M  V30 48097 H 4393.59 6.83508 -1.39507 0
M  V30 48098 H 4389.48 6.45119 -0.221611 0
M  V30 48099 H 4390.25 8.03407 -1.5646 0
M  V30 48100 N 4392.91 -0.264465 1.55365 0
M  V30 48101 C 4394.33 -0.612099 1.47396 0
M  V30 48102 C 4394.53 -1.89132 0.695085 0
M  V30 48103 O 4393.59 -2.51563 0.217363 0
M  V30 48104 C 4394.9 -0.731132 2.91676 0
M  V30 48105 C 4396.45 -0.824624 3.01942 0
M  V30 48106 C 4396.92 -0.975365 4.47494 0
M  V30 48107 N 4398.41 -1.04068 4.51358 0
M  V30 48108 C 4399.15 -1.17626 5.61205 0
M  V30 48109 N 4398.64 -1.2785 6.80901 0
M  V30 48110 N 4400.44 -1.20804 5.48965 0
M  V30 48111 H 4392.59 0.575528 2.04454 0
M  V30 48112 H 4394.85 0.196131 0.927489 0
M  V30 48113 H 4394.56 0.138516 3.51427 0
M  V30 48114 H 4394.43 -1.60871 3.41175 0
M  V30 48115 H 4396.82 -1.68473 2.42282 0
M  V30 48116 H 4396.9 0.0777378 2.55682 0
M  V30 48117 H 4396.54 -0.11988 5.07759 0
M  V30 48118 H 4396.47 -1.8925 4.91418 0
M  V30 48119 H 4398.96 -0.973718 3.6514 0
M  V30 48120 H 4399.28 -1.38054 7.60369 0
M  V30 48121 H 4397.62 -1.24839 6.83696 0
M  V30 48122 H 4400.81 -1.12453 4.54392 0
M  V30 48123 H 4400.99 -1.31027 6.34615 0
M  V30 48124 N 4394.39 -1.48444 -0.529361 0
M  V30 48125 C 4395.62 -1.59923 -1.30798 0
M  V30 48126 C 4396.03 -0.258858 -1.87421 0
M  V30 48127 O 4395.37 0.762037 -1.67149 0
M  V30 48128 C 4395.43 -2.58702 -2.49627 0
M  V30 48129 C 4395.1 -4.03752 -2.14087 0
M  V30 48130 C 4396.1 -4.91416 -1.69723 0
M  V30 48131 C 4393.78 -4.49293 -2.24591 0
M  V30 48132 C 4395.77 -6.2265 -1.36329 0
M  V30 48133 C 4393.46 -5.80547 -1.90809 0
M  V30 48134 C 4394.46 -6.67048 -1.4675 0
M  V30 48135 O 4394.15 -7.9586 -1.13412 0
M  V30 48136 H 4393.88 -0.541995 -0.404002 0
M  V30 48137 H 4396.43 -1.95002 -0.64524 0
M  V30 48138 H 4394.66 -2.18745 -3.18885 0
M  V30 48139 H 4396.35 -2.6001 -3.11689 0
M  V30 48140 H 4397.12 -4.5747 -1.61078 0
M  V30 48141 H 4393 -3.82151 -2.5784 0
M  V30 48142 H 4396.54 -6.90122 -1.01867 0
M  V30 48143 H 4392.44 -6.14029 -1.99096 0
M  V30 48144 H 4393.21 -8.08618 -1.26804 0
M  V30 48145 N 4395.87 0.778281 -1.37042 0
M  V30 48146 C 4396.8 1.90541 -1.34968 0
M  V30 48147 C 4397.78 1.6868 -0.219333 0
M  V30 48148 O 4398.97 1.89633 -0.41869 0
M  V30 48149 C 4396.1 3.2773 -1.14937 0
M  V30 48150 C 4395.05 3.64139 -2.24914 0
M  V30 48151 C 4394.38 4.99799 -1.90013 0
M  V30 48152 C 4395.68 3.71566 -3.67064 0
M  V30 48153 H 4397.37 1.92533 -2.29284 0
M  V30 48154 H 4394.92 0.924909 -1.1037 0
M  V30 48155 H 4396.87 4.06211 -1.12118 0
M  V30 48156 H 4395.59 3.26153 -0.170746 0
M  V30 48157 H 4394.25 2.87962 -2.26878 0
M  V30 48158 H 4393.9 4.94756 -0.90697 0
M  V30 48159 H 4393.6 5.25129 -2.63653 0
M  V30 48160 H 4395.12 5.80688 -1.8877 0
M  V30 48161 H 4396.54 4.40214 -3.67267 0
M  V30 48162 H 4394.93 4.08389 -4.39703 0
M  V30 48163 H 4396 2.7239 -4.01163 0
M  V30 48164 N 4397.35 1.21505 1.00371 0
M  V30 48165 C 4398.59 1.03306 1.74167 0
M  V30 48166 C 4398.92 -0.433259 1.89613 0
M  V30 48167 O 4398.18 -1.33774 1.42839 0
M  V30 48168 C 4398.48 1.67684 3.15621 0
M  V30 48169 C 4398.14 3.17544 3.20119 0
M  V30 48170 C 4396.8 3.58438 3.21054 0
M  V30 48171 C 4399.16 4.13515 3.17261 0
M  V30 48172 C 4396.48 4.93805 3.16818 0
M  V30 48173 C 4398.84 5.48845 3.14566 0
M  V30 48174 C 4397.5 5.89134 3.13811 0
M  V30 48175 H 4396.77 0.378022 0.637323 0
M  V30 48176 H 4399.42 1.51115 1.17629 0
M  V30 48177 H 4397.72 1.12171 3.754 0
M  V30 48178 H 4399.42 1.51105 3.71441 0
M  V30 48179 H 4396.01 2.84976 3.20135 0
M  V30 48180 H 4400.19 3.82947 3.15698 0
M  V30 48181 H 4395.45 5.24266 3.14571 0
M  V30 48182 H 4399.62 6.22945 3.11308 0
M  V30 48183 H 4397.25 6.93995 3.10282 0
M  V30 48184 N 4398.83 -1.19885 1.023 0
M  V30 48185 C 4399.77 -2.22899 0.59873 0
M  V30 48186 C 4400.74 -1.61589 -0.384464 0
M  V30 48187 O 4401.93 -1.88698 -0.282456 0
M  V30 48188 C 4399.07 -3.45063 -0.0503263 0
M  V30 48189 C 4398.18 -4.20779 0.978201 0
M  V30 48190 C 4397.32 -5.30355 0.299525 0
M  V30 48191 C 4396.35 -5.97822 1.31437 0
M  V30 48192 N 4395.49 -6.98973 0.661913 0
M  V30 48193 H 4400.33 -2.58548 1.48178 0
M  V30 48194 H 4397.87 -1.27037 0.741629 0
M  V30 48195 H 4399.83 -4.14833 -0.443825 0
M  V30 48196 H 4398.46 -3.10087 -0.896988 0
M  V30 48197 H 4397.51 -3.50013 1.48981 0
M  V30 48198 H 4398.82 -4.67103 1.74975 0
M  V30 48199 H 4397.97 -6.06517 -0.149134 0
M  V30 48200 H 4396.71 -4.85086 -0.504274 0
M  V30 48201 H 4395.72 -5.20416 1.77335 0
M  V30 48202 H 4396.94 -6.45176 2.11956 0
M  V30 48203 H 4394.89 -6.55887 -0.121902 0
M  V30 48204 H 4394.81 -7.43457 1.37143 0
M  V30 48205 H 4396.07 -7.79139 0.237059 0
M  V30 48206 N 4400.3 -0.80008 -1.35781 0
M  V30 48207 C 4401.21 -0.207286 -2.33682 0
M  V30 48208 C 4402.23 0.646254 -1.61554 0
M  V30 48209 O 4403.41 0.559536 -1.93471 0
M  V30 48210 C 4400.47 0.639539 -3.4075 0
M  V30 48211 C 4399.53 -0.233736 -4.28663 0
M  V30 48212 C 4398.76 0.572768 -5.30618 0
M  V30 48213 O 4398.99 1.80797 -5.40989 0
M  V30 48214 O 4397.92 -0.0329401 -6.01891 0
M  V30 48215 H 4401.75 -1.01702 -2.86165 0
M  V30 48216 H 4399.33 -0.56174 -1.38437 0
M  V30 48217 H 4401.21 1.12209 -4.06186 0
M  V30 48218 H 4399.89 1.42698 -2.90549 0
M  V30 48219 H 4398.8 -0.763276 -3.66231 0
M  V30 48220 H 4400.13 -0.984954 -4.82244 0
M  V30 48221 N 4401.78 1.47579 -0.553014 0
M  V30 48222 C 4403.03 2.02781 -0.0274361 0
M  V30 48223 C 4403.36 1.42692 1.31729 0
M  V30 48224 O 4402.64 0.580963 1.85621 0
M  V30 48225 C 4402.92 3.60032 0.0701105 0
M  V30 48226 C 4402.77 4.30562 -1.30142 0
M  V30 48227 C 4404.09 4.33031 0.785618 0
M  V30 48228 H 4401.21 0.736911 -0.0114444 0
M  V30 48229 H 4403.85 1.76054 -0.714494 0
M  V30 48230 H 4402 3.82934 0.655248 0
M  V30 48231 H 4403.67 4.19011 -1.92943 0
M  V30 48232 H 4401.92 3.91079 -1.87722 0
M  V30 48233 H 4402.59 5.3911 -1.18592 0
M  V30 48234 H 4405.06 4.15096 0.288836 0
M  V30 48235 H 4403.94 5.42698 0.822822 0
M  V30 48236 H 4404.2 4.01951 1.84086 0
M  V30 48237 N 4403.26 0.289257 1.54923 0
M  V30 48238 C 4404.22 -0.579066 2.21764 0
M  V30 48239 C 4405.22 -1.07043 1.19994 0
M  V30 48240 O 4406.41 -0.968333 1.44807 0
M  V30 48241 C 4403.54 -1.80045 2.89477 0
M  V30 48242 H 4404.74 0.0047545 2.999 0
M  V30 48243 H 4402.29 0.0399856 1.56249 0
M  V30 48244 H 4403.03 -2.42441 2.1539 0
M  V30 48245 H 4402.81 -1.45589 3.64069 0
M  V30 48246 H 4404.3 -2.41761 3.40502 0
M  V30 48247 N 4404.74 -1.57591 0.016771 0
M  V30 48248 C 4405.99 -1.90908 -0.663218 0
M  V30 48249 C 4406.31 -0.892569 -1.73373 0
M  V30 48250 O 4405.58 0.0676934 -1.95783 0
M  V30 48251 H 4404.16 -0.704646 -0.247958 0
M  V30 48252 H 4406.82 -1.94802 0.0616594 0
M  V30 48253 H 4405.91 -2.91164 -1.12382 0
M  V30 48254 N 4406.22 0.256222 -1.55503 0
M  V30 48255 C 4407.63 0.826009 -1.67434 0
M  V30 48256 C 4407.98 1.86394 -0.612511 0
M  V30 48257 O 4407.1 2.15032 0.242949 0
M  V30 48258 C 4407.7 1.50501 -3.03537 0
M  V30 48259 C 4406.26 2.02262 -3.17438 0
M  V30 48260 C 4405.4 0.870456 -2.63284 0
M  V30 48261 H 4408.36 0.032217 -1.58667 0
M  V30 48262 H 4408.38 2.37269 -2.97462 0
M  V30 48263 H 4407.89 0.74935 -3.80797 0
M  V30 48264 H 4405.99 2.80738 -2.44984 0
M  V30 48265 H 4406.1 2.2264 -4.24226 0
M  V30 48266 H 4404.47 1.26843 -2.20869 0
M  V30 48267 H 4405.25 0.128028 -3.43061 0
M  V30 48268 N 4407.69 1.48722 0.521481 0
M  V30 48269 C 4408.92 1.60848 1.30137 0
M  V30 48270 C 4409.34 0.271962 1.86831 0
M  V30 48271 O 4408.69 -0.73991 1.66828 0
M  V30 48272 C 4408.75 2.66164 2.4462 0
M  V30 48273 O 4408.47 3.9463 1.90261 0
M  V30 48274 C 4409.97 2.88807 3.36312 0
M  V30 48275 H 4407.19 0.542089 0.395449 0
M  V30 48276 H 4409.73 1.94612 0.628217 0
M  V30 48277 H 4407.89 2.35235 3.07804 0
M  V30 48278 H 4408.3 4.52477 2.65263 0
M  V30 48279 H 4409.77 3.66278 4.1297 0
M  V30 48280 H 4410.25 1.97948 3.92063 0
M  V30 48281 H 4410.86 3.21073 2.78913 0
M  V30 48282 N 4409.17 -0.771003 1.37453 0
M  V30 48283 C 4410.08 -1.91533 1.35471 0
M  V30 48284 C 4411.1 -1.72133 0.254183 0
M  V30 48285 O 4412.27 -1.95356 0.489694 0
M  V30 48286 C 4409.34 -3.26667 1.16145 0
M  V30 48287 C 4408.4 -3.58715 2.35843 0
M  V30 48288 C 4407.63 -4.87401 2.1743 0
M  V30 48289 O 4407.86 -5.58502 1.15895 0
M  V30 48290 O 4406.79 -5.18529 3.05633 0
M  V30 48291 H 4410.62 -1.96157 2.31854 0
M  V30 48292 H 4408.2 -0.913858 1.18191 0
M  V30 48293 H 4410.08 -4.07495 1.07359 0
M  V30 48294 H 4408.76 -3.22893 0.228365 0
M  V30 48295 H 4407.67 -2.78118 2.50202 0
M  V30 48296 H 4409 -3.67232 3.27722 0
M  V30 48297 N 4410.65 -1.22035 -0.997255 0
M  V30 48298 C 4411.58 -0.929808 -2.08398 0
M  V30 48299 C 4412.56 0.125624 -1.62114 0
M  V30 48300 O 4413.75 -0.00502036 -1.88499 0
M  V30 48301 C 4410.87 -0.397607 -3.36358 0
M  V30 48302 C 4409.92 -1.43704 -4.01561 0
M  V30 48303 S 4410.75 -3.0089 -4.42974 0
M  V30 48304 C 4411.91 -2.49296 -5.7411 0
M  V30 48305 H 4412.14 -1.85006 -2.32723 0
M  V30 48306 H 4409.67 -1.05094 -1.13113 0
M  V30 48307 H 4411.63 -0.0971289 -4.10385 0
M  V30 48308 H 4410.29 0.501462 -3.10071 0
M  V30 48309 H 4409.49 -1.01445 -4.93685 0
M  V30 48310 H 4409.09 -1.686 -3.33841 0
M  V30 48311 H 4411.38 -1.90265 -6.50235 0
M  V30 48312 H 4412.32 -3.39893 -6.21191 0
M  V30 48313 H 4412.73 -1.90733 -5.31301 0
M  V30 48314 N 4412.13 1.19341 -1.02934 0
M  V30 48315 C 4413.37 1.90736 -0.734794 0
M  V30 48316 C 4413.73 1.77853 0.723351 0
M  V30 48317 O 4414.93 2.43848 1.131 0
M  V30 48318 C 4413.2 3.37565 -1.17407 0
M  V30 48319 S 4414.76 4.27173 -1.00344 0
M  V30 48320 H 4411.58 0.658761 -0.267497 0
M  V30 48321 H 4414.18 1.44276 -1.31927 0
M  V30 48322 H 4412.89 3.44467 -2.23093 0
M  V30 48323 H 4412.42 3.89057 -0.582909 0
M  V30 48324 H 4414.43 4.96126 0.0857408 0
M  V30 48325 N 4413.61 0.80727 1.35355 0
M  V30 48326 C 4414.88 0.311194 1.93109 0
M  V30 48327 C 4415.26 -1.19931 1.73723 0
M  V30 48328 O 4414.61 -1.99914 1.10664 0
M  V30 48329 C 4414.82 0.723347 3.41422 0
M  V30 48330 C 4416.17 0.713225 4.18567 0
M  V30 48331 O 4417.19 0.664934 3.49939 0
M  V30 48332 O 4416.05 0.772213 5.41017 0
M  V30 48333 H 4413.15 0.081555 0.822969 0
M  V30 48334 H 4415.69 0.891013 1.44427 0
M  V30 48335 H 4414.46 1.76438 3.49264 0
M  V30 48336 H 4414.09 0.118372 3.97424 0
M  V30 48337 N 4415.08 -1.47283 0.560833 0
M  V30 48338 C 4416.02 -2.28119 -0.222358 0
M  V30 48339 C 4417.03 -1.37222 -0.876008 0
M  V30 48340 O 4418.22 -1.62014 -0.74925 0
M  V30 48341 C 4415.32 -3.11595 -1.33274 0
M  V30 48342 C 4414.49 -4.30476 -0.775189 0
M  V30 48343 C 4413.55 -4.95519 -1.77051 0
M  V30 48344 O 4412.58 -5.53797 -1.3152 0
M  V30 48345 N 4413.78 -4.90542 -3.10401 0
M  V30 48346 H 4416.54 -2.95975 0.471062 0
M  V30 48347 H 4414.1 -1.56953 0.397146 0
M  V30 48348 H 4416.1 -3.51974 -1.9974 0
M  V30 48349 H 4414.67 -2.45958 -1.92934 0
M  V30 48350 H 4413.89 -3.94144 0.0663498 0
M  V30 48351 H 4415.17 -5.07363 -0.382093 0
M  V30 48352 H 4414.57 -4.44401 -3.50034 0
M  V30 48353 H 4413.13 -5.3493 -3.72415 0
M  V30 48354 N 4416.56 -0.297469 -1.54767 0
M  V30 48355 C 4417.98 0.0560262 -1.59502 0
M  V30 48356 C 4418.18 1.5272 -1.31449 0
M  V30 48357 O 4417.23 2.27943 -1.08619 0
M  V30 48358 C 4418.55 -0.338736 -2.98786 0
M  V30 48359 C 4420.1 -0.287207 -3.1168 0
M  V30 48360 C 4420.57 -0.656738 -4.53267 0
M  V30 48361 N 4422.06 -0.609139 -4.59177 0
M  V30 48362 C 4422.8 -0.867585 -5.66798 0
M  V30 48363 N 4422.29 -1.19181 -6.82472 0
M  V30 48364 N 4424.09 -0.794883 -5.56451 0
M  V30 48365 H 4416.24 -1.2563 -1.71263 0
M  V30 48366 H 4418.5 -0.509085 -0.79971 0
M  V30 48367 H 4418.21 -1.36274 -3.24226 0
M  V30 48368 H 4418.08 0.309376 -3.75929 0
M  V30 48369 H 4420.47 0.727548 -2.85991 0
M  V30 48370 H 4420.55 -0.969892 -2.367 0
M  V30 48371 H 4420.19 -1.66928 -4.79685 0
M  V30 48372 H 4420.12 0.0479798 -5.26578 0
M  V30 48373 H 4422.61 -0.369331 -3.76091 0
M  V30 48374 H 4422.93 -1.37509 -7.60468 0
M  V30 48375 H 4421.27 -1.22982 -6.84033 0
M  V30 48376 H 4424.46 -0.541261 -4.6496 0
M  V30 48377 H 4424.63 -0.99967 -6.40243 0
M  V30 48378 N 4418.04 1.5758 -0.0251282 0
M  V30 48379 C 4418.97 2.06873 0.986723 0
M  V30 48380 C 4419.99 0.991377 1.29134 0
M  V30 48381 O 4421.17 1.26766 1.25669 0
M  V30 48382 C 4418.27 2.47494 2.31516 0
M  V30 48383 C 4417.45 3.78261 2.1963 0
M  V30 48384 C 4416.51 4.05476 3.35374 0
M  V30 48385 O 4415.53 4.75785 3.12437 0
M  V30 48386 N 4416.73 3.55337 4.59038 0
M  V30 48387 H 4419.5 2.94304 0.566172 0
M  V30 48388 H 4417.06 1.6109 0.161719 0
M  V30 48389 H 4419.05 2.62796 3.07767 0
M  V30 48390 H 4417.62 1.6545 2.65226 0
M  V30 48391 H 4416.84 3.72795 1.28131 0
M  V30 48392 H 4418.13 4.63944 2.08887 0
M  V30 48393 H 4417.53 2.98448 4.80568 0
M  V30 48394 H 4416.09 3.75924 5.3247 0
M  V30 48395 N 4419.52 -0.247971 1.55637 0
M  V30 48396 C 4420.45 -1.31072 1.93242 0
M  V30 48397 C 4421.43 -1.50261 0.797227 0
M  V30 48398 O 4422.61 -1.62887 1.05743 0
M  V30 48399 C 4419.74 -2.66568 2.22619 0
M  V30 48400 C 4418.7 -2.62075 3.38379 0
M  V30 48401 C 4418.02 -4.01356 3.53295 0
M  V30 48402 C 4419.32 -2.19154 4.74098 0
M  V30 48403 H 4421.02 -0.998457 2.82261 0
M  V30 48404 H 4418.56 -0.478862 1.35805 0
M  V30 48405 H 4420.52 -3.41049 2.47515 0
M  V30 48406 H 4419.24 -2.99428 1.30425 0
M  V30 48407 H 4417.9 -1.90052 3.1349 0
M  V30 48408 H 4417.55 -4.3148 2.58523 0
M  V30 48409 H 4417.25 -3.99239 4.31141 0
M  V30 48410 H 4418.77 -4.77539 3.80511 0
M  V30 48411 H 4420.19 -2.83367 4.98373 0
M  V30 48412 H 4418.58 -2.2815 5.55038 0
M  V30 48413 H 4419.65 -1.14319 4.71232 0
M  V30 48414 N 4421 -1.48997 -0.513587 0
M  V30 48415 C 4422.25 -1.57535 -1.26598 0
M  V30 48416 C 4422.57 -0.258304 -1.93282 0
M  V30 48417 O 4421.84 0.721438 -1.82132 0
M  V30 48418 H 4420.42 -0.580404 -0.470256 0
M  V30 48419 H 4423.08 -1.85554 -0.596308 0
M  V30 48420 H 4422.17 -2.36493 -2.0366 0
M  V30 48421 N 4422.48 0.763702 -1.3786 0
M  V30 48422 C 4423.41 1.89099 -1.36982 0
M  V30 48423 C 4424.39 1.68438 -0.237212 0
M  V30 48424 O 4425.57 1.89178 -0.43878 0
M  V30 48425 C 4422.7 3.26492 -1.18406 0
M  V30 48426 C 4421.66 3.61733 -2.28764 0
M  V30 48427 C 4420.98 4.97756 -1.95304 0
M  V30 48428 C 4422.28 3.67652 -3.70985 0
M  V30 48429 H 4423.98 1.90091 -2.31313 0
M  V30 48430 H 4421.52 0.913151 -1.11344 0
M  V30 48431 H 4423.47 4.04999 -1.1642 0
M  V30 48432 H 4422.2 3.25954 -0.205329 0
M  V30 48433 H 4420.86 2.85539 -2.29919 0
M  V30 48434 H 4420.51 4.93766 -0.959394 0
M  V30 48435 H 4420.21 5.22304 -2.69208 0
M  V30 48436 H 4421.73 5.78653 -1.94918 0
M  V30 48437 H 4423.14 4.36294 -3.71915 0
M  V30 48438 H 4421.54 4.03702 -4.44009 0
M  V30 48439 H 4422.61 2.6812 -4.0403 0
M  V30 48440 N 4423.95 1.22562 0.990769 0
M  V30 48441 C 4424.88 1.02188 2.09952 0
M  V30 48442 C 4425.86 -0.0578797 1.70001 0
M  V30 48443 O 4427.05 0.104752 1.93917 0
M  V30 48444 C 4424.18 0.601143 3.42058 0
M  V30 48445 C 4423.13 1.62707 3.95867 0
M  V30 48446 C 4422.46 1.06211 5.24045 0
M  V30 48447 C 4423.76 3.01758 4.26309 0
M  V30 48448 H 4425.45 1.94924 2.27255 0
M  V30 48449 H 4423 0.938604 1.09207 0
M  V30 48450 H 4424.95 0.445708 4.19036 0
M  V30 48451 H 4423.68 -0.36189 3.24589 0
M  V30 48452 H 4422.34 1.77032 3.21022 0
M  V30 48453 H 4421.98 0.0903671 5.02919 0
M  V30 48454 H 4421.68 1.74751 5.61013 0
M  V30 48455 H 4423.21 0.918305 6.03655 0
M  V30 48456 H 4424.62 2.90794 4.94076 0
M  V30 48457 H 4423.02 3.67441 4.74454 0
M  V30 48458 H 4424.09 3.5153 3.33998 0
M  V30 48459 N 4425.43 -1.18793 1.03566 0
M  V30 48460 C 4426.36 -2.24469 0.643098 0
M  V30 48461 C 4427.34 -1.66434 -0.351224 0
M  V30 48462 O 4428.53 -1.92804 -0.232437 0
M  V30 48463 C 4425.66 -3.473 7.95998e-05 0
M  V30 48464 C 4424.61 -4.18052 0.917404 0
M  V30 48465 C 4423.94 -5.34519 0.139129 0
M  V30 48466 C 4425.24 -4.72101 2.23424 0
M  V30 48467 H 4426.93 -2.57561 1.52652 0
M  V30 48468 H 4424.48 -1.23804 0.735438 0
M  V30 48469 H 4426.43 -4.20427 -0.286235 0
M  V30 48470 H 4425.15 -3.13428 -0.918188 0
M  V30 48471 H 4423.81 -3.46816 1.18802 0
M  V30 48472 H 4423.46 -4.96894 -0.781387 0
M  V30 48473 H 4423.16 -5.82791 0.750209 0
M  V30 48474 H 4424.69 -6.10439 -0.140286 0
M  V30 48475 H 4426.1 -5.36948 2.00898 0
M  V30 48476 H 4424.5 -5.30887 2.79784 0
M  V30 48477 H 4425.57 -3.89797 2.88421 0
M  V30 48478 N 4426.91 -0.814437 -1.34925 0
M  V30 48479 C 4427.86 -0.202832 -2.27096 0
M  V30 48480 C 4428.84 0.627938 -1.48141 0
M  V30 48481 O 4430.04 0.483909 -1.70257 0
M  V30 48482 C 4427.16 0.641342 -3.37256 0
M  V30 48483 C 4426.25 -0.199589 -4.2363 0
M  V30 48484 N 4426.64 -1.26645 -4.89688 0
M  V30 48485 C 4424.94 0.0174865 -4.45997 0
M  V30 48486 C 4425.64 -1.7805 -5.53781 0
M  V30 48487 N 4424.62 -1.08572 -5.32647 0
M  V30 48488 H 4428.42 -1.01903 -2.75668 0
M  V30 48489 H 4425.93 -0.656384 -1.48544 0
M  V30 48490 H 4427.93 1.0956 -4.02246 0
M  V30 48491 H 4426.59 1.4558 -2.90235 0
M  V30 48492 H 4427.6 -1.64918 -4.9094 0
M  V30 48493 H 4424.28 0.800457 -4.09755 0
M  V30 48494 H 4425.67 -2.67258 -6.1646 0
M  V30 48495 N 4428.39 1.46984 -0.568636 0
M  V30 48496 C 4429.66 1.95592 0.0173386 0
M  V30 48497 C 4430.04 1.51129 1.47388 0
M  V30 48498 O 4429.39 0.755405 2.15652 0
M  V30 48499 C 4429.6 3.48719 -0.140036 0
M  V30 48500 C 4430.95 4.246 -0.000575644 0
M  V30 48501 O 4431.97 3.56135 -0.0681568 0
M  V30 48502 O 4430.83 5.46303 0.146796 0
M  V30 48503 H 4427.93 0.824983 0.0577309 0
M  V30 48504 H 4430.47 1.57333 -0.635964 0
M  V30 48505 H 4429.25 3.73923 -1.15314 0
M  V30 48506 H 4428.87 3.93773 0.550352 0
M  V30 48507 N 4429.87 0.305673 1.54607 0
M  V30 48508 C 4430.83 -0.555512 2.22366 0
M  V30 48509 C 4431.83 -1.05764 1.21122 0
M  V30 48510 O 4433.02 -0.95292 1.45825 0
M  V30 48511 C 4430.15 -1.76964 2.9137 0
M  V30 48512 H 4431.34 0.0365626 2.99878 0
M  V30 48513 H 4428.9 0.0565556 1.56198 0
M  V30 48514 H 4429.63 -2.40143 2.17949 0
M  V30 48515 H 4429.42 -1.41719 3.65593 0
M  V30 48516 H 4430.91 -2.38136 3.43047 0
M  V30 48517 N 4431.34 -1.57564 0.0334847 0
M  V30 48518 C 4432.59 -1.91157 -0.643571 0
M  V30 48519 C 4432.91 -0.911981 -1.73038 0
M  V30 48520 O 4434.11 -1.13931 -2.46438 0
M  V30 48521 C 4432.57 -3.39447 -1.19598 0
M  V30 48522 C 4432.18 -4.47774 -0.142224 0
M  V30 48523 C 4433.92 -3.82101 -1.8493 0
M  V30 48524 C 4431.83 -5.87165 -0.706521 0
M  V30 48525 H 4430.76 -0.713377 -0.244151 0
M  V30 48526 H 4433.41 -1.8323 0.0994967 0
M  V30 48527 H 4431.79 -3.4232 -1.9908 0
M  V30 48528 H 4432.96 -4.56467 0.630456 0
M  V30 48529 H 4431.28 -4.14351 0.412591 0
M  V30 48530 H 4433.88 -4.83599 -2.28113 0
M  V30 48531 H 4434.22 -3.17395 -2.69381 0
M  V30 48532 H 4434.75 -3.81669 -1.12131 0
M  V30 48533 H 4431.49 -6.55424 0.0999483 0
M  V30 48534 H 4431.01 -5.8207 -1.44759 0
M  V30 48535 H 4432.69 -6.3587 -1.19491 0
M  V30 48536 N 4432.82 0.239714 -1.55766 0
M  V30 48537 C 4433.75 1.31995 -1.87377 0
M  V30 48538 C 4434.77 1.43941 -0.760572 0
M  V30 48539 O 4435.96 1.45163 -1.03875 0
M  V30 48540 C 4433.06 2.69772 -2.05125 0
M  V30 48541 C 4432.23 2.80002 -3.36032 0
M  V30 48542 C 4431.29 3.98672 -3.43434 0
M  V30 48543 O 4430.31 3.87862 -4.16595 0
M  V30 48544 N 4431.52 5.12167 -2.7325 0
M  V30 48545 H 4434.28 1.05211 -2.80626 0
M  V30 48546 H 4431.84 0.429802 -1.56091 0
M  V30 48547 H 4433.83 3.47509 -2.07411 0
M  V30 48548 H 4432.4 2.89233 -1.18587 0
M  V30 48549 H 4431.62 1.88884 -3.46001 0
M  V30 48550 H 4432.91 2.83793 -4.22302 0
M  V30 48551 H 4432.31 5.23842 -2.13555 0
M  V30 48552 H 4430.87 5.88012 -2.8122 0
M  V30 48553 N 4434.3 1.49267 0.505678 0
M  V30 48554 C 4435.55 1.57766 1.2567 0
M  V30 48555 C 4435.86 0.267439 1.93763 0
M  V30 48556 O 4437.07 0.230922 2.70516 0
M  V30 48557 C 4435.52 2.7834 2.28156 0
M  V30 48558 C 4435.13 4.16102 1.66022 0
M  V30 48559 C 4436.88 2.96166 3.04115 0
M  V30 48560 C 4434.78 5.27904 2.66591 0
M  V30 48561 H 4433.71 0.587408 0.472724 0
M  V30 48562 H 4436.36 1.75646 0.531118 0
M  V30 48563 H 4434.75 2.53944 3.03856 0
M  V30 48564 H 4435.92 4.50615 0.963463 0
M  V30 48565 H 4434.23 4.03595 1.0247 0
M  V30 48566 H 4436.83 3.76863 3.79313 0
M  V30 48567 H 4437.17 2.06547 3.61447 0
M  V30 48568 H 4437.71 3.20578 2.3553 0
M  V30 48569 H 4434.45 6.19568 2.14046 0
M  V30 48570 H 4433.97 4.97851 3.34522 0
M  V30 48571 H 4435.65 5.57042 3.29109 0
M  V30 48572 N 4435.78 -0.756381 1.38263 0
M  V30 48573 C 4437.19 -1.33355 1.30665 0
M  V30 48574 C 4437.54 -1.96162 -0.0388185 0
M  V30 48575 O 4436.67 -1.94877 -0.940849 0
M  V30 48576 C 4437.26 -2.42469 2.36631 0
M  V30 48577 C 4435.82 -2.95913 2.3262 0
M  V30 48578 C 4434.97 -1.69268 2.19645 0
M  V30 48579 H 4437.92 -0.555467 1.48662 0
M  V30 48580 H 4437.94 -3.22337 2.02185 0
M  V30 48581 H 4437.45 -1.96727 3.34544 0
M  V30 48582 H 4435.55 -3.45991 1.38279 0
M  V30 48583 H 4435.66 -3.50482 3.26648 0
M  V30 48584 H 4434.03 -1.92787 1.66449 0
M  V30 48585 H 4434.81 -1.25608 3.19496 0
M  V30 48586 N 4437.26 -1.23086 -0.984255 0
M  V30 48587 C 4438.67 -0.992681 -1.24972 0
M  V30 48588 C 4438.87 0.308548 -1.99124 0
M  V30 48589 O 4437.93 1.02897 -2.30583 0
M  V30 48590 C 4439.24 -2.19706 -2.05304 0
M  V30 48591 C 4440.79 -2.24155 -2.18457 0
M  V30 48592 C 4441.26 -3.44168 -3.02179 0
M  V30 48593 N 4442.76 -3.44383 -3.09765 0
M  V30 48594 C 4443.49 -4.33899 -3.74859 0
M  V30 48595 N 4442.99 -5.33645 -4.41808 0
M  V30 48596 N 4444.78 -4.21652 -3.71707 0
M  V30 48597 H 4436.93 -2.06733 -0.487381 0
M  V30 48598 H 4439.19 -0.906349 -0.277912 0
M  V30 48599 H 4438.9 -3.14116 -1.5819 0
M  V30 48600 H 4438.77 -2.20475 -3.06056 0
M  V30 48601 H 4441.16 -1.30287 -2.64782 0
M  V30 48602 H 4441.24 -2.27419 -1.17107 0
M  V30 48603 H 4440.89 -4.38341 -2.56553 0
M  V30 48604 H 4440.82 -3.38144 -4.03691 0
M  V30 48605 H 4443.31 -2.72211 -2.62126 0
M  V30 48606 H 4443.62 -5.98214 -4.89245 0
M  V30 48607 H 4441.96 -5.37549 -4.40529 0
M  V30 48608 H 4445.16 -3.42973 -3.1857 0
M  V30 48609 H 4445.33 -4.91618 -4.22156 0
M  V30 48610 N 4438.73 1.18243 -1.04194 0
M  V30 48611 C 4439.67 2.21418 -0.592166 0
M  V30 48612 C 4440.68 1.59234 0.338853 0
M  V30 48613 O 4441.87 1.78003 0.133169 0
M  V30 48614 C 4438.97 3.38547 0.154735 0
M  V30 48615 C 4438.14 4.30308 -0.784479 0
M  V30 48616 C 4437.2 5.26138 -0.0806432 0
M  V30 48617 O 4436.23 5.64736 -0.711491 0
M  V30 48618 N 4437.43 5.68265 1.18554 0
M  V30 48619 H 4440.19 2.60631 -1.47958 0
M  V30 48620 H 4437.75 1.33041 -0.922591 0
M  V30 48621 H 4439.75 3.9968 0.635465 0
M  V30 48622 H 4438.32 2.98015 0.943706 0
M  V30 48623 H 4437.54 3.66759 -1.44504 0
M  V30 48624 H 4438.82 4.88515 -1.42235 0
M  V30 48625 H 4438.22 5.38963 1.71857 0
M  V30 48626 H 4436.78 6.3159 1.61052 0
M  V30 48627 N 4440.21 0.821581 1.34491 0
M  V30 48628 C 4441.14 0.25722 2.32079 0
M  V30 48629 C 4442.12 -0.625589 1.58178 0
M  V30 48630 O 4443.31 -0.552746 1.86168 0
M  V30 48631 C 4440.44 -0.582837 3.42374 0
M  V30 48632 C 4439.39 0.202721 4.2752 0
M  V30 48633 C 4438.72 -0.759993 5.29271 0
M  V30 48634 C 4440.02 1.41016 5.02903 0
M  V30 48635 H 4441.71 1.07257 2.79529 0
M  V30 48636 H 4439.26 0.51721 1.34391 0
M  V30 48637 H 4441.21 -0.987828 4.09658 0
M  V30 48638 H 4439.94 -1.43123 2.9357 0
M  V30 48639 H 4438.59 0.589064 3.61836 0
M  V30 48640 H 4438.24 -1.6043 4.7673 0
M  V30 48641 H 4437.94 -0.238603 5.87115 0
M  V30 48642 H 4439.47 -1.16287 5.99424 0
M  V30 48643 H 4440.88 1.07925 5.6305 0
M  V30 48644 H 4439.28 1.8671 5.70315 0
M  V30 48645 H 4440.35 2.18905 4.32676 0
M  V30 48646 N 4441.69 -1.4668 0.576422 0
M  V30 48647 C 4442.94 -2.02012 0.0594873 0
M  V30 48648 C 4443.26 -1.45106 -1.30266 0
M  V30 48649 O 4442.53 -0.633383 -1.85378 0
M  V30 48650 H 4441.11 -0.746758 0.0190008 0
M  V30 48651 H 4443.77 -1.79859 0.750781 0
M  V30 48652 H 4442.87 -3.12097 -0.0142353 0
M  V30 48653 N 4443.17 -0.313868 -1.54443 0
M  V30 48654 C 4444.08 0.565634 -2.27679 0
M  V30 48655 C 4445.09 1.13749 -1.3167 0
M  V30 48656 O 4446.27 1.15953 -1.64672 0
M  V30 48657 C 4443.34 1.71517 -3.01302 0
M  V30 48658 C 4442.4 1.1761 -4.12876 0
M  V30 48659 C 4441.63 2.27085 -4.82978 0
M  V30 48660 O 4441.85 3.4724 -4.52527 0
M  V30 48661 O 4440.79 1.9305 -5.70101 0
M  V30 48662 H 4444.61 -0.0288364 -3.03686 0
M  V30 48663 H 4442.2 -0.0798837 -1.49186 0
M  V30 48664 H 4444.08 2.38463 -3.47438 0
M  V30 48665 H 4442.75 2.296 -2.28178 0
M  V30 48666 H 4441.66 0.471993 -3.71111 0
M  V30 48667 H 4442.99 0.640523 -4.88014 0
M  V30 48668 N 4444.65 1.57544 -0.0418402 0
M  V30 48669 C 4445.89 1.92604 0.634954 0
M  V30 48670 C 4446.23 0.919687 1.71042 0
M  V30 48671 O 4445.5 -0.0557209 1.9442 0
M  V30 48672 C 4445.78 3.38089 1.23967 0
M  V30 48673 C 4445.64 4.49468 0.172899 0
M  V30 48674 C 4446.96 3.83783 2.15403 0
M  V30 48675 H 4444.07 0.700405 0.22935 0
M  V30 48676 H 4446.72 1.89728 -0.101699 0
M  V30 48677 H 4444.87 3.40671 1.8675 0
M  V30 48678 H 4446.54 4.59016 -0.458473 0
M  V30 48679 H 4444.78 4.30907 -0.500148 0
M  V30 48680 H 4445.45 5.48325 0.635861 0
M  V30 48681 H 4447.93 3.83018 1.62592 0
M  V30 48682 H 4446.8 4.86249 2.54662 0
M  V30 48683 H 4447.07 3.20008 3.05036 0
M  V30 48684 N 4446.12 -0.23145 1.55891 0
M  V30 48685 C 4447.09 -1.27021 1.90783 0
M  V30 48686 C 4448.09 -1.40306 0.785556 0
M  V30 48687 O 4449.28 -1.38741 1.05341 0
M  V30 48688 C 4446.41 -2.64558 2.14992 0
M  V30 48689 H 4447.6 -0.972918 2.8368 0
M  V30 48690 H 4445.16 -0.471433 1.49021 0
M  V30 48691 H 4445.89 -2.99402 1.24615 0
M  V30 48692 H 4445.68 -2.56295 2.96741 0
M  V30 48693 H 4447.17 -3.39535 2.43117 0
M  V30 48694 N 4447.6 -1.49533 -0.497755 0
M  V30 48695 C 4448.57 -1.65921 -1.58123 0
M  V30 48696 C 4449.57 -0.530878 -1.51784 0
M  V30 48697 O 4450.76 -0.797397 -1.54878 0
M  V30 48698 C 4447.89 -1.65961 -2.97774 0
M  V30 48699 H 4449.08 -2.62561 -1.4492 0
M  V30 48700 H 4446.63 -1.38613 -0.722226 0
M  V30 48701 H 4447.37 -0.709176 -3.16451 0
M  V30 48702 H 4447.15 -2.47907 -3.03784 0
M  V30 48703 H 4448.64 -1.80686 -3.76487 0
M  V30 48704 N 4449.08 0.749038 -1.38662 0
M  V30 48705 C 4450.33 1.50828 -1.35119 0
M  V30 48706 C 4450.66 1.94415 0.0573365 0
M  V30 48707 O 4449.91 1.66069 1.03536 0
M  V30 48708 C 4450.21 2.77112 -2.25707 0
M  V30 48709 C 4449.88 2.52464 -3.73594 0
M  V30 48710 C 4448.54 2.45451 -4.13893 0
M  V30 48711 C 4450.89 2.31049 -4.67189 0
M  V30 48712 C 4448.22 2.15045 -5.45869 0
M  V30 48713 C 4450.57 2.02162 -5.99427 0
M  V30 48714 C 4449.23 1.93609 -6.38805 0
M  V30 48715 H 4448.5 0.551919 -0.494436 0
M  V30 48716 H 4451.15 0.860919 -1.71057 0
M  V30 48717 H 4449.46 3.46521 -1.8284 0
M  V30 48718 H 4451.15 3.35088 -2.20266 0
M  V30 48719 H 4447.74 2.58795 -3.41647 0
M  V30 48720 H 4451.93 2.35443 -4.36898 0
M  V30 48721 H 4447.18 2.06934 -5.75316 0
M  V30 48722 H 4451.36 1.84597 -6.71489 0
M  V30 48723 H 4448.98 1.69813 -7.40991 0
M  V30 48724 N 4450.56 1.23606 0.977714 0
M  V30 48725 C 4451.81 1.06765 1.71597 0
M  V30 48726 C 4452.13 -0.395862 1.9094 0
M  V30 48727 O 4451.4 -1.28351 1.47996 0
M  V30 48728 H 4449.98 0.392085 0.635829 0
M  V30 48729 H 4452.64 1.55366 1.17675 0
M  V30 48730 H 4451.74 1.55773 2.70446 0
M  V30 48731 N 4452.04 -1.17688 1.0482 0
M  V30 48732 C 4453.29 -1.87485 0.754563 0
M  V30 48733 C 4453.61 -1.81207 -0.720343 0
M  V30 48734 O 4452.88 -1.2355 -1.52027 0
M  V30 48735 H 4451.46 -0.694092 0.276127 0
M  V30 48736 H 4454.12 -1.42788 1.32656 0
M  V30 48737 H 4453.21 -2.93325 1.06616 0
M  V30 48738 N 4453.52 -0.828702 -1.34053 0
M  V30 48739 C 4454.74 -0.431708 -2.02857 0
M  V30 48740 C 4455.17 0.956282 -1.61978 0
M  V30 48741 O 4454.52 1.62335 -0.807285 0
M  V30 48742 C 4454.57 -0.548448 -3.56405 0
M  V30 48743 O 4453.68 0.429412 -4.10158 0
M  V30 48744 H 4453.02 -0.176909 -0.639999 0
M  V30 48745 H 4455.55 -1.12072 -1.71175 0
M  V30 48746 H 4455.56 -0.426338 -4.05766 0
M  V30 48747 H 4454.23 -1.56074 -3.85505 0
M  V30 48748 H 4452.81 0.265705 -3.71952 0
M  V30 48749 N 4454.99 1.46373 -0.584193 0
M  V30 48750 C 4455.94 2.32042 0.160965 0
M  V30 48751 C 4456.94 1.44572 0.882915 0
M  V30 48752 O 4458.14 1.61189 0.801135 0
M  V30 48753 H 4454.52 0.748662 0.070777 0
M  V30 48754 H 4456.49 2.92702 -0.580372 0
M  V30 48755 C 4455.24 3.27766 1.16038 0
M  V30 48756 H 4454.56 3.95053 0.61428 0
M  V30 48757 H 4456 3.90487 1.65214 0
M  V30 48758 C 4454.46 2.53226 2.22212 0
M  V30 48759 O 4454.99 2.29639 3.29589 0
M  V30 48760 N 4453.19 2.13763 1.9686 0
M  V30 48761 H 4452.74 2.33145 1.09549 0
M  V30 48762 H 4452.7 1.64209 2.6811 0
M  V30 48763 N 4456.47 0.322054 1.54274 0
M  V30 48764 C 4457.72 -0.281861 1.99721 0
M  V30 48765 C 4458.03 -1.53365 1.21403 0
M  V30 48766 O 4459.24 -2.21347 1.57219 0
M  V30 48767 C 4457.7 -0.552775 3.5563 0
M  V30 48768 C 4457.3 0.681876 4.4278 0
M  V30 48769 C 4459.05 -1.11673 4.09548 0
M  V30 48770 C 4456.95 0.38295 5.90159 0
M  V30 48771 H 4455.88 -0.109098 0.746065 0
M  V30 48772 H 4458.54 0.434042 1.78293 0
M  V30 48773 H 4456.92 -1.32882 3.73039 0
M  V30 48774 H 4458.09 1.45739 4.37146 0
M  V30 48775 H 4456.41 1.16594 3.99743 0
M  V30 48776 H 4459 -1.35497 5.17247 0
M  V30 48777 H 4459.35 -2.06563 3.61438 0
M  V30 48778 H 4459.88 -0.401893 3.95765 0
M  V30 48779 H 4456.62 1.30098 6.4246 0
M  V30 48780 H 4456.14 -0.354884 5.98749 0
M  V30 48781 H 4457.82 -0.00777412 6.47 0
M  V30 48782 N 4457.95 -1.5752 0.0501946 0
M  V30 48783 C 4458.86 -2.14955 -0.939751 0
M  V30 48784 C 4459.88 -1.10711 -1.34235 0
M  V30 48785 O 4461.05 -1.42874 -1.41947 0
M  V30 48786 C 4458.12 -2.6824 -2.19655 0
M  V30 48787 C 4457.18 -3.87279 -1.85239 0
M  V30 48788 C 4456.41 -4.38012 -3.04927 0
M  V30 48789 O 4456.63 -3.87825 -4.18267 0
M  V30 48790 O 4455.57 -5.29612 -2.85998 0
M  V30 48791 H 4459.39 -2.99862 -0.481286 0
M  V30 48792 H 4456.98 -1.48411 -0.171647 0
M  V30 48793 H 4458.86 -3.02485 -2.93395 0
M  V30 48794 H 4457.54 -1.86405 -2.64641 0
M  V30 48795 H 4456.44 -3.57924 -1.08818 0
M  V30 48796 H 4457.78 -4.70341 -1.45053 0
M  V30 48797 N 4459.43 0.223179 -1.56012 0
M  V30 48798 C 4460.84 0.790308 -1.69148 0
M  V30 48799 C 4461.19 1.85053 -0.65191 0
M  V30 48800 O 4460.31 2.15499 0.197283 0
M  V30 48801 C 4460.91 1.44029 -3.06661 0
M  V30 48802 C 4459.47 1.95483 -3.21657 0
M  V30 48803 C 4458.62 0.814413 -2.65071 0
M  V30 48804 H 4461.57 -0.0014459 -1.587 0
M  V30 48805 H 4461.59 2.30906 -3.02428 0
M  V30 48806 H 4461.1 0.668409 -3.82301 0
M  V30 48807 H 4459.2 2.75478 -2.50884 0
M  V30 48808 H 4459.31 2.13592 -4.28854 0
M  V30 48809 H 4457.68 1.2213 -2.23509 0
M  V30 48810 H 4458.46 0.0552308 -3.43256 0
M  V30 48811 N 4460.91 1.49795 0.489818 0
M  V30 48812 C 4462.13 1.6384 1.27166 0
M  V30 48813 C 4462.56 0.314085 1.85459 0
M  V30 48814 O 4461.91 -0.719745 1.66401 0
M  V30 48815 C 4461.96 2.71806 2.36969 0
M  V30 48816 O 4461.07 2.31756 3.4112 0
M  V30 48817 H 4460.41 0.548011 0.37494 0
M  V30 48818 H 4462.94 1.96055 0.585122 0
M  V30 48819 H 4462.95 2.94315 2.82565 0
M  V30 48820 H 4461.62 3.6793 1.93908 0
M  V30 48821 H 4460.2 2.19621 3.01365 0
M  V30 48822 N 4462.38 -0.741673 1.39057 0
M  V30 48823 C 4463.63 -1.50332 1.36118 0
M  V30 48824 C 4463.96 -1.94148 -0.0450114 0
M  V30 48825 O 4463.24 -1.66304 -1.00862 0
M  V30 48826 C 4463.52 -2.74764 2.32759 0
M  V30 48827 C 4463.37 -2.3701 3.82291 0
M  V30 48828 C 4464.69 -3.76838 2.27335 0
M  V30 48829 H 4461.81 -0.545333 0.495763 0
M  V30 48830 H 4464.45 -0.848565 1.69998 0
M  V30 48831 H 4462.6 -3.30632 2.03997 0
M  V30 48832 H 4464.28 -1.86825 4.21775 0
M  V30 48833 H 4462.52 -1.6932 3.99391 0
M  V30 48834 H 4463.19 -3.26089 4.45388 0
M  V30 48835 H 4465.67 -3.30539 2.52751 0
M  V30 48836 H 4464.54 -4.6158 2.97045 0
M  V30 48837 H 4464.8 -4.23281 1.27614 0
M  V30 48838 N 4463.86 -1.24123 -0.971145 0
M  V30 48839 C 4465.28 -1.00588 -1.23912 0
M  V30 48840 C 4465.48 0.28741 -1.9944 0
M  V30 48841 O 4464.53 1.00446 -2.31661 0
M  V30 48842 C 4465.85 -2.21871 -2.02963 0
M  V30 48843 C 4467.39 -2.26459 -2.16068 0
M  V30 48844 C 4467.87 -3.47354 -2.98512 0
M  V30 48845 N 4469.36 -3.47649 -3.06095 0
M  V30 48846 C 4470.1 -4.3785 -3.70236 0
M  V30 48847 N 4469.59 -5.38301 -4.36123 0
M  V30 48848 N 4471.38 -4.25571 -3.67214 0
M  V30 48849 H 4463.54 -2.07238 -0.465426 0
M  V30 48850 H 4465.8 -0.909246 -0.268283 0
M  V30 48851 H 4465.5 -3.15776 -1.54849 0
M  V30 48852 H 4465.38 -2.23709 -3.03701 0
M  V30 48853 H 4467.77 -1.33088 -2.63385 0
M  V30 48854 H 4467.85 -2.28649 -1.14688 0
M  V30 48855 H 4467.49 -4.41038 -2.51889 0
M  V30 48856 H 4467.42 -3.42407 -4.00081 0
M  V30 48857 H 4469.91 -2.74975 -2.59224 0
M  V30 48858 H 4470.22 -6.03369 -4.82872 0
M  V30 48859 H 4468.57 -5.42192 -4.34803 0
M  V30 48860 H 4471.76 -3.46333 -3.14914 0
M  V30 48861 H 4471.93 -4.96068 -4.16918 0
M  V30 48862 N 4465.34 1.17131 -1.05443 0
M  V30 48863 C 4466.57 1.9191 -0.786463 0
M  V30 48864 C 4466.99 1.76432 0.652172 0
M  V30 48865 O 4466.35 1.08378 1.45341 0
M  V30 48866 C 4466.4 3.40916 -1.17509 0
M  V30 48867 O 4465.5 4.11243 -0.308733 0
M  V30 48868 H 4464.84 0.598205 -0.288179 0
M  V30 48869 H 4467.37 1.48452 -1.40795 0
M  V30 48870 H 4467.38 3.91664 -1.14294 0
M  V30 48871 H 4466.06 3.51502 -2.22304 0
M  V30 48872 H 4464.63 3.7073 -0.4017 0
M  V30 48873 N 4466.82 0.835799 1.33612 0
M  V30 48874 C 4468.06 0.43606 1.99694 0
M  V30 48875 C 4468.42 -0.985512 1.64778 0
M  V30 48876 O 4469.62 -1.48882 2.23803 0
M  V30 48877 C 4467.89 0.646844 3.51498 0
M  V30 48878 S 4469.45 0.341869 4.37466 0
M  V30 48879 H 4466.27 0.164161 0.691789 0
M  V30 48880 H 4468.87 1.08442 1.62667 0
M  V30 48881 H 4467.58 1.6809 3.74398 0
M  V30 48882 H 4467.11 -0.015779 3.93397 0
M  V30 48883 H 4469.12 -0.839536 4.89046 0
M  V30 48884 N 4468.3 -1.46061 0.591947 0
M  V30 48885 C 4469.54 -2.02338 0.0810702 0
M  V30 48886 C 4469.87 -1.46232 -1.28244 0
M  V30 48887 O 4469.13 -0.620883 -1.8559 0
M  V30 48888 C 4469.43 -3.57391 -0.0248556 0
M  V30 48889 C 4469.09 -4.32579 1.27226 0
M  V30 48890 C 4467.75 -4.52838 1.62761 0
M  V30 48891 C 4470.11 -4.7568 2.13022 0
M  V30 48892 C 4467.43 -5.13452 2.83873 0
M  V30 48893 C 4469.79 -5.37632 3.33369 0
M  V30 48894 C 4468.45 -5.56117 3.69175 0
M  V30 48895 H 4467.72 -0.740406 0.0296657 0
M  V30 48896 H 4470.37 -1.75318 0.770435 0
M  V30 48897 H 4468.67 -3.836 -0.797402 0
M  V30 48898 H 4470.37 -3.98622 -0.436044 0
M  V30 48899 H 4466.96 -4.17113 0.985645 0
M  V30 48900 H 4471.14 -4.59775 1.86871 0
M  V30 48901 H 4466.4 -5.25954 3.11741 0
M  V30 48902 H 4470.57 -5.69986 4.00112 0
M  V30 48903 H 4468.2 -6.02854 4.6311 0
M  V30 48904 N 4469.77 -0.330231 -1.54101 0
M  V30 48905 C 4470.71 0.566824 -2.2208 0
M  V30 48906 C 4471.72 1.07458 -1.22297 0
M  V30 48907 O 4472.91 0.987012 -1.48729 0
M  V30 48908 C 4470.01 1.79128 -2.87692 0
M  V30 48909 C 4469.18 1.42108 -4.13671 0
M  V30 48910 C 4468.24 2.50378 -4.62815 0
M  V30 48911 O 4467.27 2.14242 -5.27341 0
M  V30 48912 N 4468.47 3.81417 -4.37608 0
M  V30 48913 H 4471.23 -0.0152897 -2.99696 0
M  V30 48914 H 4468.79 -0.153738 -1.61168 0
M  V30 48915 H 4470.79 2.50963 -3.17489 0
M  V30 48916 H 4469.36 2.28107 -2.13742 0
M  V30 48917 H 4468.58 0.534064 -3.90565 0
M  V30 48918 H 4469.86 1.14954 -4.95644 0
M  V30 48919 H 4469.26 4.1357 -3.85975 0
M  V30 48920 H 4467.82 4.49463 -4.72045 0
M  V30 48921 N 4471.25 1.57491 -0.0585476 0
M  V30 48922 C 4472.18 2.08919 0.942621 0
M  V30 48923 C 4473.2 1.01855 1.27002 0
M  V30 48924 O 4474.39 1.29403 1.22952 0
M  V30 48925 C 4471.49 2.52349 2.26215 0
M  V30 48926 C 4470.66 3.82835 2.11557 0
M  V30 48927 C 4469.72 4.12499 3.26698 0
M  V30 48928 O 4468.74 4.82305 3.02275 0
M  V30 48929 N 4469.95 3.64994 4.51398 0
M  V30 48930 H 4472.71 2.95438 0.503619 0
M  V30 48931 H 4470.27 1.61397 0.127513 0
M  V30 48932 H 4472.26 2.69265 3.02124 0
M  V30 48933 H 4470.83 1.71039 2.61657 0
M  V30 48934 H 4470.05 3.75429 1.20195 0
M  V30 48935 H 4471.34 4.6827 1.98999 0
M  V30 48936 H 4470.74 3.08575 4.74129 0
M  V30 48937 H 4469.3 3.87134 5.24377 0
M  V30 48938 N 4472.73 -0.214903 1.56128 0
M  V30 48939 C 4473.68 -1.28594 1.9382 0
M  V30 48940 C 4474.67 -1.48172 0.821068 0
M  V30 48941 O 4475.88 -1.49267 1.00595 0
M  V30 48942 H 4472.25 -0.43128 0.616037 0
M  V30 48943 H 4474.22 -0.940892 2.83178 0
M  V30 48944 C 4472.97 -2.62771 2.27698 0
M  V30 48945 H 4472.3 -2.48516 3.13177 0
M  V30 48946 H 4473.74 -3.36508 2.57951 0
M  V30 48947 C 4472.2 -3.18281 1.10448 0
M  V30 48948 O 4472.73 -4.00001 0.369086 0
M  V30 48949 N 4470.93 -2.76747 0.88653 0
M  V30 48950 H 4470.48 -2.10399 1.48627 0
M  V30 48951 H 4470.44 -3.14229 0.103767 0
M  V30 48952 N 4474.21 -1.50053 -0.481867 0
M  V30 48953 C 4475.16 -1.6864 -1.60197 0
M  V30 48954 C 4476.15 -0.55224 -1.60146 0
M  V30 48955 O 4477.36 -0.732435 -1.64424 0
M  V30 48956 H 4473.73 -0.5321 -0.531389 0
M  V30 48957 H 4475.7 -2.62621 -1.41678 0
M  V30 48958 C 4474.45 -1.78785 -2.98213 0
M  V30 48959 H 4473.77 -2.65441 -2.98967 0
M  V30 48960 H 4475.21 -1.9582 -3.76073 0
M  V30 48961 C 4473.67 -0.536966 -3.32593 0
M  V30 48962 O 4474.2 0.328757 -4.00352 0
M  V30 48963 N 4472.41 -0.394192 -2.87914 0
M  V30 48964 H 4471.96 -1.09971 -2.32947 0
M  V30 48965 H 4471.91 0.441628 -3.11283 0
M  V30 48966 N 4475.69 0.734288 -1.39449 0
M  V30 48967 C 4476.63 1.86966 -1.3837 0
M  V30 48968 C 4477.63 1.67287 -0.266746 0
M  V30 48969 O 4478.83 1.74619 -0.436817 0
M  V30 48970 H 4475.21 0.615459 -0.432104 0
M  V30 48971 H 4477.18 1.84992 -2.34138 0
M  V30 48972 C 4475.93 3.24655 -1.24476 0
M  V30 48973 H 4475.25 3.40395 -2.09694 0
M  V30 48974 H 4476.69 4.04288 -1.27779 0
M  V30 48975 C 4475.15 3.36868 0.046749 0
M  V30 48976 O 4475.68 3.88621 1.01668 0
M  V30 48977 N 4473.89 2.90392 0.110043 0
M  V30 48978 H 4473.43 2.48464 -0.679956 0
M  V30 48979 H 4473.39 2.98942 0.973694 0
M  V30 48980 N 4477.16 1.24636 0.964549 0
M  V30 48981 C 4478.11 1.04151 2.05964 0
M  V30 48982 C 4479.08 -0.0462036 1.66036 0
M  V30 48983 O 4480.27 0.109039 1.90488 0
M  V30 48984 C 4477.41 0.655749 3.38813 0
M  V30 48985 C 4476.52 1.81728 3.91917 0
M  V30 48986 C 4475.65 1.3768 5.13047 0
M  V30 48987 C 4474.69 2.50808 5.58356 0
M  V30 48988 N 4473.83 2.07605 6.70704 0
M  V30 48989 H 4478.67 1.97877 2.2282 0
M  V30 48990 H 4476.21 0.985538 1.09204 0
M  V30 48991 H 4478.17 0.4131 4.1515 0
M  V30 48992 H 4476.8 -0.244514 3.21873 0
M  V30 48993 H 4475.85 2.17351 3.1219 0
M  V30 48994 H 4477.16 2.6672 4.215 0
M  V30 48995 H 4476.31 1.09321 5.96769 0
M  V30 48996 H 4475.05 0.497464 4.85156 0
M  V30 48997 H 4474.06 2.79923 4.73205 0
M  V30 48998 H 4475.28 3.39303 5.8826 0
M  V30 48999 H 4473.23 1.22074 6.44542 0
M  V30 49000 H 4473.15 2.86149 6.99753 0
M  V30 49001 H 4474.41 1.82395 7.5786 0
M  V30 49002 N 4478.64 -1.1657 1.06062 0
M  V30 49003 C 4480.05 -1.68659 0.800691 0
M  V30 49004 C 4480.4 -1.84186 -0.676016 0
M  V30 49005 O 4479.53 -1.53573 -1.52461 0
M  V30 49006 C 4480.12 -3.06351 1.44687 0
M  V30 49007 C 4478.68 -3.5557 1.23477 0
M  V30 49008 C 4477.83 -2.31611 1.52485 0
M  V30 49009 H 4480.78 -1.00965 1.22441 0
M  V30 49010 H 4480.8 -3.70633 0.860918 0
M  V30 49011 H 4480.31 -2.95018 2.52162 0
M  V30 49012 H 4478.42 -3.72167 0.179658 0
M  V30 49013 H 4478.53 -4.37805 1.94586 0
M  V30 49014 H 4476.89 -2.36509 0.945293 0
M  V30 49015 H 4477.68 -2.22878 2.61114 0
M  V30 49016 N 4480.12 -0.842873 -1.33167 0
M  V30 49017 C 4481.03 -0.281526 -2.32905 0
M  V30 49018 C 4482.05 0.594529 -1.63528 0
M  V30 49019 O 4483.22 0.497701 -1.95154 0
M  V30 49020 C 4480.29 0.530809 -3.42612 0
M  V30 49021 C 4479.35 -0.369993 -4.27703 0
M  V30 49022 C 4478.58 0.403666 -5.32171 0
M  V30 49023 O 4478.81 1.63494 -5.46467 0
M  V30 49024 O 4477.74 -0.22441 -6.01482 0
M  V30 49025 H 4481.57 -1.10754 -2.82785 0
M  V30 49026 H 4479.15 -0.605498 -1.3658 0
M  V30 49027 H 4481.03 0.992293 -4.0955 0
M  V30 49028 H 4479.71 1.33382 -2.94942 0
M  V30 49029 H 4478.61 -0.879403 -3.63617 0
M  V30 49030 H 4479.95 -1.13788 -4.78867 0
M  V30 49031 N 4481.6 1.45745 -0.599685 0
M  V30 49032 C 4482.85 2.01502 -0.0894219 0
M  V30 49033 C 4483.16 1.47484 1.28482 0
M  V30 49034 O 4484.37 1.95167 1.88738 0
M  V30 49035 C 4482.82 3.59734 -0.109208 0
M  V30 49036 C 4482.43 4.22749 -1.48282 0
M  V30 49037 C 4484.18 4.23086 0.346225 0
M  V30 49038 C 4482.08 5.7311 -1.45941 0
M  V30 49039 H 4481.01 0.753416 -0.0296612 0
M  V30 49040 H 4483.66 1.673 -0.753847 0
M  V30 49041 H 4482.05 3.91089 0.621717 0
M  V30 49042 H 4483.22 4.02979 -2.23482 0
M  V30 49043 H 4481.53 3.7156 -1.87969 0
M  V30 49044 H 4484.13 5.33328 0.382792 0
M  V30 49045 H 4484.47 3.93206 1.3673 0
M  V30 49046 H 4485.01 3.96419 -0.331177 0
M  V30 49047 H 4481.75 6.07677 -2.45783 0
M  V30 49048 H 4481.27 5.95094 -0.749874 0
M  V30 49049 H 4482.95 6.36155 -1.17963 0
M  V30 49050 N 4483.08 0.338398 1.53924 0
M  V30 49051 C 4484.3 -0.263915 2.05714 0
M  V30 49052 C 4484.73 -1.43842 1.21206 0
M  V30 49053 O 4484.09 -1.79903 0.224598 0
M  V30 49054 C 4484.13 -0.661876 3.54474 0
M  V30 49055 O 4483.24 -1.76252 3.72839 0
M  V30 49056 H 4482.58 -0.0448489 0.662484 0
M  V30 49057 H 4485.11 0.491118 1.98618 0
M  V30 49058 H 4485.12 -0.940454 3.97013 0
M  V30 49059 H 4483.79 0.197083 4.15433 0
M  V30 49060 H 4482.37 -1.48161 3.42203 0
M  V30 49061 N 4484.56 -1.57458 0.0668989 0
M  V30 49062 C 4485.8 -1.93589 -0.604232 0
M  V30 49063 C 4486.13 -0.946782 -1.69557 0
M  V30 49064 O 4485.41 0.0247832 -1.94484 0
M  V30 49065 C 4485.69 -3.40018 -1.18573 0
M  V30 49066 C 4485.55 -4.49686 -0.10137 0
M  V30 49067 C 4486.86 -3.87162 -2.0927 0
M  V30 49068 H 4483.98 -0.703966 -0.218178 0
M  V30 49069 H 4486.63 -1.89542 0.13187 0
M  V30 49070 H 4484.78 -3.43599 -1.81307 0
M  V30 49071 H 4486.45 -4.58229 0.53144 0
M  V30 49072 H 4484.69 -4.30057 0.568638 0
M  V30 49073 H 4485.36 -5.49268 -0.548547 0
M  V30 49074 H 4487.84 -3.85557 -1.56478 0
M  V30 49075 H 4486.71 -4.90239 -2.46894 0
M  V30 49076 H 4486.97 -3.24821 -2.99906 0
M  V30 49077 N 4486.03 0.20662 -1.5624 0
M  V30 49078 C 4486.98 1.2561 -1.93625 0
M  V30 49079 C 4487.95 1.45821 -0.795326 0
M  V30 49080 O 4489.14 1.59145 -1.0525 0
M  V30 49081 C 4486.28 2.59831 -2.27116 0
M  V30 49082 C 4485.39 2.47295 -3.54216 0
M  V30 49083 C 4484.52 3.74141 -3.77083 0
M  V30 49084 C 4483.56 3.5639 -4.97647 0
M  V30 49085 N 4482.7 4.7522 -5.16827 0
M  V30 49086 H 4487.54 0.930284 -2.83107 0
M  V30 49087 H 4485.08 0.448016 -1.40111 0
M  V30 49088 H 4487.03 3.38013 -2.44547 0
M  V30 49089 H 4485.66 2.9048 -1.40789 0
M  V30 49090 H 4484.72 1.60471 -3.44896 0
M  V30 49091 H 4486.03 2.30106 -4.42552 0
M  V30 49092 H 4485.18 4.60764 -3.94691 0
M  V30 49093 H 4483.92 3.94272 -2.87055 0
M  V30 49094 H 4482.93 2.68151 -4.79974 0
M  V30 49095 H 4484.15 3.37716 -5.89173 0
M  V30 49096 H 4482.1 4.95636 -4.29745 0
M  V30 49097 H 4482.01 4.60814 -5.99322 0
M  V30 49098 H 4483.28 5.63227 -5.38884 0
M  V30 49099 N 4487.51 1.50306 0.473902 0
M  V30 49100 C 4488.42 1.71746 1.59814 0
M  V30 49101 C 4489.44 0.600515 1.63309 0
M  V30 49102 O 4490.61 0.878505 1.8123 0
M  V30 49103 C 4487.68 1.80438 2.96046 0
M  V30 49104 C 4486.74 3.04159 3.02962 0
M  V30 49105 C 4485.97 3.12427 4.32695 0
M  V30 49106 O 4486.2 2.2756 5.23041 0
M  V30 49107 O 4485.13 4.05129 4.45145 0
M  V30 49108 H 4488.96 2.6704 1.44648 0
M  V30 49109 H 4486.54 1.34369 0.6531 0
M  V30 49110 H 4488.42 1.88351 3.76964 0
M  V30 49111 H 4487.1 0.883266 3.11416 0
M  V30 49112 H 4486 3.01748 2.21132 0
M  V30 49113 H 4487.34 3.9584 2.92527 0
M  V30 49114 N 4488.99 -0.726883 1.39836 0
M  V30 49115 C 4490.24 -1.48659 1.37502 0
M  V30 49116 C 4490.56 -1.94482 -0.0263994 0
M  V30 49117 O 4489.82 -1.67695 -1.0088 0
M  V30 49118 C 4490.12 -2.73487 2.30087 0
M  V30 49119 C 4489.78 -2.46489 3.77563 0
M  V30 49120 C 4488.45 -2.38835 4.17745 0
M  V30 49121 C 4490.8 -2.23587 4.70806 0
M  V30 49122 C 4488.13 -2.06333 5.49221 0
M  V30 49123 C 4490.48 -1.926 6.02568 0
M  V30 49124 C 4489.14 -1.83421 6.41804 0
M  V30 49125 H 4488.41 -0.543983 0.503154 0
M  V30 49126 H 4491.06 -0.833596 1.72405 0
M  V30 49127 H 4489.36 -3.43569 1.88329 0
M  V30 49128 H 4491.06 -3.31541 2.25569 0
M  V30 49129 H 4487.65 -2.53327 3.45721 0
M  V30 49130 H 4491.84 -2.28463 4.40589 0
M  V30 49131 H 4487.09 -1.97755 5.78535 0
M  V30 49132 H 4491.27 -1.73891 6.7434 0
M  V30 49133 H 4488.89 -1.58003 7.43599 0
M  V30 49134 N 4490.47 -1.25146 -0.957926 0
M  V30 49135 C 4491.72 -1.09095 -1.6965 0
M  V30 49136 C 4492.03 0.36848 -1.92098 0
M  V30 49137 O 4493.24 0.649363 -2.6362 0
M  V30 49138 C 4491.69 -1.90406 -3.05407 0
M  V30 49139 C 4491.3 -3.4082 -2.90767 0
M  V30 49140 C 4493.04 -1.82914 -3.8307 0
M  V30 49141 C 4490.95 -4.14438 -4.21894 0
M  V30 49142 H 4489.88 -0.404647 -0.63622 0
M  V30 49143 H 4492.53 -1.49313 -1.06667 0
M  V30 49144 H 4490.91 -1.43009 -3.69276 0
M  V30 49145 H 4492.09 -3.95867 -2.35851 0
M  V30 49146 H 4490.4 -3.49369 -2.26562 0
M  V30 49147 H 4493 -2.35212 -4.80187 0
M  V30 49148 H 4493.34 -0.796368 -4.08612 0
M  V30 49149 H 4493.88 -2.28044 -3.25946 0
M  V30 49150 H 4490.61 -5.18116 -4.01542 0
M  V30 49151 H 4490.13 -3.64175 -4.76588 0
M  V30 49152 H 4491.81 -4.21973 -4.90456 0
M  V30 49153 N 4491.95 1.16006 -1.06679 0
M  V30 49154 C 4493.22 1.82677 -0.699178 0
M  V30 49155 C 4493.6 1.94562 0.819068 0
M  V30 49156 O 4492.95 1.49175 1.73087 0
M  V30 49157 C 4493.16 3.1944 -1.40566 0
M  V30 49158 C 4494.51 3.95165 -1.55337 0
M  V30 49159 O 4495.53 3.28971 -1.36588 0
M  V30 49160 O 4494.39 5.13827 -1.8613 0
M  V30 49161 H 4491.49 0.788946 -0.247979 0
M  V30 49162 H 4494.03 1.23175 -1.1673 0
M  V30 49163 H 4492.8 3.05847 -2.44076 0
M  V30 49164 H 4492.43 3.86622 -0.927869 0
M  V30 49165 N 4493.42 0.849923 1.32718 0
M  V30 49166 C 4494.67 0.460924 1.98109 0
M  V30 49167 C 4495.02 -0.971657 1.66062 0
M  V30 49168 O 4494.32 -1.67181 0.936003 0
M  V30 49169 C 4494.51 0.631395 3.51779 0
M  V30 49170 C 4494.34 2.079 3.98758 0
M  V30 49171 C 4493.11 2.71652 4.26067 0
M  V30 49172 C 4495.31 3.04904 4.14172 0
M  V30 49173 N 4493.29 4.07372 4.59261 0
M  V30 49174 C 4494.66 4.25599 4.5085 0
M  V30 49175 C 4496.72 3.01162 3.96492 0
M  V30 49176 C 4495.42 5.43044 4.71695 0
M  V30 49177 C 4497.45 4.17847 4.18518 0
M  V30 49178 C 4496.81 5.373 4.55509 0
M  V30 49179 H 4492.91 0.217309 0.7512 0
M  V30 49180 H 4495.49 1.10032 1.60627 0
M  V30 49181 H 4493.66 0.0217331 3.88394 0
M  V30 49182 H 4495.39 0.212756 4.0414 0
M  V30 49183 H 4492.15 2.22719 4.17963 0
M  V30 49184 H 4492.57 4.77368 4.80051 0
M  V30 49185 H 4497.21 2.09933 3.66999 0
M  V30 49186 H 4494.93 6.34809 5.00044 0
M  V30 49187 H 4498.52 4.16382 4.06346 0
M  V30 49188 H 4497.4 6.26087 4.72212 0
M  V30 49189 N 4494.9 -1.45425 0.607406 0
M  V30 49190 C 4495.84 -2.27636 -0.160402 0
M  V30 49191 C 4496.81 -1.37125 -0.873808 0
M  V30 49192 O 4498 -1.66554 -0.882716 0
M  V30 49193 C 4495.12 -3.15491 -1.2322 0
M  V30 49194 C 4494.17 -4.21941 -0.621949 0
M  V30 49195 S 4495 -5.32457 0.570039 0
M  V30 49196 C 4496.16 -6.23881 -0.502358 0
M  V30 49197 H 4496.39 -2.92408 0.537086 0
M  V30 49198 H 4493.93 -1.49264 0.394921 0
M  V30 49199 H 4495.88 -3.66665 -1.84572 0
M  V30 49200 H 4494.54 -2.49984 -1.90176 0
M  V30 49201 H 4493.74 -4.83335 -1.42839 0
M  V30 49202 H 4493.34 -3.73907 -0.0835749 0
M  V30 49203 H 4495.63 -6.63266 -1.38148 0
M  V30 49204 H 4496.57 -7.0806 0.0754248 0
M  V30 49205 H 4496.98 -5.58548 -0.817604 0
M  V30 49206 N 4496.38 -0.346557 -1.53742 0
M  V30 49207 C 4497.33 0.524875 -2.21876 0
M  V30 49208 C 4498.31 1.06372 -1.20722 0
M  V30 49209 O 4499.51 0.99692 -1.46255 0
M  V30 49210 C 4496.64 1.67379 -2.99732 0
M  V30 49211 C 4495.72 1.14874 -4.08246 0
M  V30 49212 N 4496.11 0.345151 -5.04621 0
M  V30 49213 C 4494.41 1.42535 -4.22611 0
M  V30 49214 C 4495.11 0.0598661 -5.81669 0
M  V30 49215 N 4494.09 0.65233 -5.39672 0
M  V30 49216 H 4497.89 -0.0961124 -2.93743 0
M  V30 49217 H 4495.4 -0.153576 -1.61672 0
M  V30 49218 H 4497.4 2.31008 -3.47046 0
M  V30 49219 H 4496.06 2.29803 -2.29392 0
M  V30 49220 H 4497.07 -0.014026 -5.17898 0
M  V30 49221 H 4493.75 2.05376 -3.63493 0
M  V30 49222 H 4495.14 -0.588556 -6.69317 0
M  V30 49223 N 4497.86 1.5742 -0.0752483 0
M  V30 49224 C 4498.79 2.15945 0.888248 0
M  V30 49225 C 4499.77 1.08741 1.30803 0
M  V30 49226 O 4500.95 1.36792 1.37846 0
M  V30 49227 C 4498.08 2.72386 2.1546 0
M  V30 49228 C 4497.04 3.84787 1.87411 0
M  V30 49229 C 4496.36 4.27845 3.20706 0
M  V30 49230 C 4497.66 5.08873 1.17666 0
M  V30 49231 H 4499.36 2.96707 0.400695 0
M  V30 49232 H 4496.9 1.42724 0.191292 0
M  V30 49233 H 4498.86 3.11975 2.83284 0
M  V30 49234 H 4497.58 1.88851 2.66464 0
M  V30 49235 H 4496.24 3.45707 1.21992 0
M  V30 49236 H 4495.89 3.41227 3.69558 0
M  V30 49237 H 4495.59 5.03616 3.02729 0
M  V30 49238 H 4497.11 4.70053 3.89721 0
M  V30 49239 H 4498.53 5.45756 1.75564 0
M  V30 49240 H 4496.92 5.89944 1.09935 0
M  V30 49241 H 4497.99 4.84648 0.156283 0
M  V30 49242 N 4499.34 -0.198331 1.56347 0
M  V30 49243 C 4500.25 -1.26633 1.97487 0
M  V30 49244 C 4501.26 -1.49986 0.882055 0
M  V30 49245 O 4502.44 -1.62663 1.18754 0
M  V30 49246 C 4499.5 -2.59133 2.30328 0
M  V30 49247 C 4498.56 -2.4388 3.533 0
M  V30 49248 C 4497.8 -3.70061 3.84566 0
M  V30 49249 O 4498.02 -4.7409 3.17167 0
M  V30 49250 O 4496.95 -3.65783 4.78002 0
M  V30 49251 H 4500.78 -0.947203 2.88551 0
M  V30 49252 H 4498.37 -0.403072 1.4386 0
M  V30 49253 H 4500.25 -3.37343 2.52542 0
M  V30 49254 H 4498.92 -2.90679 1.42433 0
M  V30 49255 H 4497.83 -1.63791 3.36338 0
M  V30 49256 H 4499.16 -2.17266 4.41652 0
M  V30 49257 N 4500.81 -1.50555 -0.465925 0
M  V30 49258 C 4502.23 -1.54602 -1.04666 0
M  V30 49259 C 4502.58 -0.352556 -1.93006 0
M  V30 49260 O 4501.7 0.53397 -2.09709 0
M  V30 49261 C 4502.3 -2.80173 -1.90496 0
M  V30 49262 C 4500.86 -2.86884 -2.43668 0
M  V30 49263 C 4500 -2.48951 -1.22142 0
M  V30 49264 H 4502.95 -1.56745 -0.248329 0
M  V30 49265 H 4502.97 -2.6232 -2.75623 0
M  V30 49266 H 4502.49 -3.67018 -1.26173 0
M  V30 49267 H 4500.59 -2.04404 -3.11528 0
M  V30 49268 H 4500.7 -3.89895 -2.78422 0
M  V30 49269 H 4499.06 -2.01504 -1.55783 0
M  V30 49270 H 4499.85 -3.38109 -0.594748 0
M  V30 49271 N 4502.29 0.719457 -1.4022 0
M  V30 49272 C 4503.22 1.84423 -1.36091 0
M  V30 49273 C 4504.24 1.60596 -0.266969 0
M  V30 49274 O 4505.43 1.70542 -0.527043 0
M  V30 49275 C 4502.53 3.20753 -1.09411 0
M  V30 49276 C 4501.7 3.71809 -2.30385 0
M  V30 49277 C 4500.76 4.86741 -1.99924 0
M  V30 49278 O 4499.78 4.99594 -2.72754 0
M  V30 49279 N 4500.99 5.72256 -0.974836 0
M  V30 49280 H 4503.75 1.88465 -2.33026 0
M  V30 49281 H 4501.31 0.900838 -1.34523 0
M  V30 49282 H 4503.3 3.95232 -0.870255 0
M  V30 49283 H 4501.87 3.11883 -0.211562 0
M  V30 49284 H 4501.09 2.88504 -2.68624 0
M  V30 49285 H 4502.38 4.02655 -3.11041 0
M  V30 49286 H 4501.78 5.64478 -0.371566 0
M  V30 49287 H 4500.34 6.46736 -0.810883 0
M  V30 49288 N 4503.77 1.25652 0.951275 0
M  V30 49289 C 4505 1.1345 1.7362 0
M  V30 49290 C 4505.42 -0.3075 1.8557 0
M  V30 49291 O 4504.78 -1.22277 1.33858 0
M  V30 49292 C 4504.83 1.79734 3.12615 0
M  V30 49293 O 4503.93 1.07926 3.98027 0
M  V30 49294 H 4503.27 0.395891 0.533073 0
M  V30 49295 H 4505.8 1.6628 1.19214 0
M  V30 49296 H 4505.81 1.86154 3.63058 0
M  V30 49297 H 4504.49 2.84644 3.03234 0
M  V30 49298 H 4503.06 1.09411 3.56488 0
M  V30 49299 N 4505.25 -1.15438 1.07293 0
M  V30 49300 C 4506.18 -2.19133 0.636875 0
M  V30 49301 C 4507.16 -1.58886 -0.345564 0
M  V30 49302 O 4508.34 -1.86806 -0.252129 0
M  V30 49303 C 4505.47 -3.38638 -0.0648824 0
M  V30 49304 C 4504.52 -4.17409 0.875906 0
M  V30 49305 S 4505.35 -4.79874 2.37659 0
M  V30 49306 C 4506.51 -6.02747 1.68661 0
M  V30 49307 H 4506.74 -2.55782 1.51535 0
M  V30 49308 H 4504.27 -1.2639 0.886838 0
M  V30 49309 H 4506.23 -4.07875 -0.463521 0
M  V30 49310 H 4504.89 -3.00334 -0.919696 0
M  V30 49311 H 4504.08 -5.02908 0.331607 0
M  V30 49312 H 4503.69 -3.53718 1.2149 0
M  V30 49313 H 4505.98 -6.70109 0.997988 0
M  V30 49314 H 4506.92 -6.61745 2.5199 0
M  V30 49315 H 4507.33 -5.52351 1.16484 0
M  V30 49316 N 4506.73 -0.85695 -1.32265 0
M  V30 49317 C 4507.97 -0.462139 -1.97464 0
M  V30 49318 C 4508.31 0.980239 -1.67645 0
M  V30 49319 O 4507.58 1.6882 -0.965917 0
M  V30 49320 C 4507.86 -0.70446 -3.53142 0
M  V30 49321 C 4507.72 -2.19542 -3.92583 0
M  V30 49322 C 4509.04 -0.162355 -4.398 0
M  V30 49323 H 4506.15 -0.169382 -0.717272 0
M  V30 49324 H 4508.8 -1.0758 -1.5661 0
M  V30 49325 H 4506.95 -0.182135 -3.88073 0
M  V30 49326 H 4508.62 -2.784 -3.67819 0
M  V30 49327 H 4506.86 -2.67304 -3.41659 0
M  V30 49328 H 4507.53 -2.31566 -5.0108 0
M  V30 49329 H 4510.01 -0.60905 -4.11618 0
M  V30 49330 H 4508.88 -0.361457 -5.47709 0
M  V30 49331 H 4509.15 0.935006 -4.321 0
M  V30 49332 N 4508.2 1.45101 -0.61511 0
M  V30 49333 C 4509.45 2.03035 -0.121876 0
M  V30 49334 C 4509.81 1.47398 1.2366 0
M  V30 49335 O 4509.1 0.642124 1.8052 0
M  V30 49336 C 4509.29 3.57386 -0.0320054 0
M  V30 49337 C 4509.12 4.27995 -1.38022 0
M  V30 49338 C 4507.89 4.65617 -1.96287 0
M  V30 49339 C 4510.09 4.59472 -2.31063 0
M  V30 49340 N 4508.07 5.2112 -3.2451 0
M  V30 49341 C 4509.44 5.15887 -3.4389 0
M  V30 49342 C 4511.5 4.41415 -2.30342 0
M  V30 49343 C 4510.2 5.56149 -4.5617 0
M  V30 49344 C 4512.23 4.82714 -3.41675 0
M  V30 49345 C 4511.59 5.39229 -4.53224 0
M  V30 49346 H 4507.69 0.777017 -0.0881432 0
M  V30 49347 H 4510.27 1.76817 -0.815106 0
M  V30 49348 H 4508.44 3.83249 0.630464 0
M  V30 49349 H 4510.17 4.01978 0.46858 0
M  V30 49350 H 4506.93 4.49415 -1.49408 0
M  V30 49351 H 4507.35 5.53363 -3.90023 0
M  V30 49352 H 4512 3.97028 -1.45356 0
M  V30 49353 H 4509.71 5.99498 -5.41875 0
M  V30 49354 H 4513.3 4.70468 -3.42273 0
M  V30 49355 H 4512.18 5.70597 -5.37949 0
M  V30 49356 N 4509.68 0.354705 1.53557 0
M  V30 49357 C 4510.61 -0.489011 2.28322 0
M  V30 49358 C 4511.59 -1.0932 1.3032 0
M  V30 49359 O 4512.78 -1.11249 1.59177 0
M  V30 49360 C 4509.91 -1.63445 3.06436 0
M  V30 49361 C 4508.86 -1.15805 4.12035 0
M  V30 49362 C 4508.19 -2.39288 4.78169 0
M  V30 49363 C 4509.49 -0.250548 5.21699 0
M  V30 49364 H 4511.18 0.134719 2.99097 0
M  V30 49365 H 4508.73 0.0662332 1.43848 0
M  V30 49366 H 4510.68 -2.23123 3.57483 0
M  V30 49367 H 4509.41 -2.28525 2.33333 0
M  V30 49368 H 4508.07 -0.584019 3.61918 0
M  V30 49369 H 4507.71 -3.028 4.01648 0
M  V30 49370 H 4507.41 -2.08089 5.4952 0
M  V30 49371 H 4508.94 -2.99672 5.32005 0
M  V30 49372 H 4510.35 -0.754495 5.68314 0
M  V30 49373 H 4508.75 -0.0299358 6.00093 0
M  V30 49374 H 4509.82 0.710294 4.7967 0
M  V30 49375 N 4511.16 -1.57378 0.0835957 0
M  V30 49376 C 4512.57 -1.81263 -0.447294 0
M  V30 49377 C 4512.92 -0.99839 -1.68898 0
M  V30 49378 O 4512.05 -0.224358 -2.15234 0
M  V30 49379 C 4512.64 -3.2877 -0.818271 0
M  V30 49380 C 4511.2 -3.53459 -1.29396 0
M  V30 49381 C 4510.35 -2.75832 -0.284927 0
M  V30 49382 H 4513.3 -1.55659 0.30917 0
M  V30 49383 H 4513.32 -3.41465 -1.67875 0
M  V30 49384 H 4512.83 -3.88006 0.0856383 0
M  V30 49385 H 4510.93 -2.99542 -2.21597 0
M  V30 49386 H 4511.05 -4.62133 -1.26374 0
M  V30 49387 H 4509.41 -2.4295 -0.764682 0
M  V30 49388 H 4510.19 -3.37811 0.61146 0
M  V30 49389 N 4512.64 0.190037 -1.5645 0
M  V30 49390 C 4513.89 0.910989 -1.81187 0
M  V30 49391 C 4514.22 1.82696 -0.65846 0
M  V30 49392 O 4513.49 1.91493 0.340708 0
M  V30 49393 C 4513.78 1.72286 -3.16211 0
M  V30 49394 C 4513.63 0.831263 -4.42052 0
M  V30 49395 C 4514.95 2.69442 -3.47979 0
M  V30 49396 H 4512.07 0.329747 -0.659118 0
M  V30 49397 H 4514.71 0.178102 -1.89163 0
M  V30 49398 H 4512.86 2.34767 -3.09543 0
M  V30 49399 H 4514.53 0.220767 -4.60771 0
M  V30 49400 H 4512.77 0.138254 -4.3358 0
M  V30 49401 H 4513.45 1.43442 -5.33037 0
M  V30 49402 H 4515.92 2.17091 -3.5498 0
M  V30 49403 H 4514.8 3.23326 -4.43566 0
M  V30 49404 H 4515.06 3.48734 -2.71729 0
M  V30 49405 N 4514.12 1.508 0.457934 0
M  V30 49406 C 4515.05 1.73558 1.56204 0
M  V30 49407 C 4516.03 0.58483 1.5973 0
M  V30 49408 O 4517.21 0.825376 1.75787 0
M  V30 49409 C 4514.34 1.8418 2.9444 0
M  V30 49410 C 4513.3 2.99471 3.05779 0
M  V30 49411 C 4512.62 2.95251 4.45793 0
M  V30 49412 C 4513.92 4.39776 2.8177 0
M  V30 49413 H 4515.62 2.66005 1.37411 0
M  V30 49414 H 4513.16 1.28004 0.659617 0
M  V30 49415 H 4515.12 1.98685 3.71621 0
M  V30 49416 H 4513.84 0.883656 3.14419 0
M  V30 49417 H 4512.5 2.84638 2.31034 0
M  V30 49418 H 4512.15 1.97256 4.62709 0
M  V30 49419 H 4511.85 3.72657 4.54313 0
M  V30 49420 H 4513.37 3.11822 5.24976 0
M  V30 49421 H 4514.79 4.55066 3.48694 0
M  V30 49422 H 4513.18 5.18733 3.01722 0
M  V30 49423 H 4514.25 4.51235 1.77524 0
M  V30 49424 N 4515.6 -0.71201 1.40599 0
M  V30 49425 C 4516.55 -1.81778 1.37625 0
M  V30 49426 C 4517.53 -1.58895 0.253218 0
M  V30 49427 O 4518.72 -1.70007 0.492607 0
M  V30 49428 C 4515.85 -3.1994 1.24473 0
M  V30 49429 C 4514.94 -3.48574 2.41572 0
M  V30 49430 N 4515.33 -3.48003 3.67053 0
M  V30 49431 C 4513.63 -3.79048 2.35029 0
M  V30 49432 C 4514.33 -3.75081 4.44623 0
M  V30 49433 N 4513.3 -3.94008 3.74511 0
M  V30 49434 H 4517.1 -1.79675 2.32581 0
M  V30 49435 H 4514.62 -0.911292 1.34422 0
M  V30 49436 H 4516.62 -3.99128 1.20425 0
M  V30 49437 H 4515.28 -3.23266 0.304876 0
M  V30 49438 H 4516.29 -3.28768 4.00165 0
M  V30 49439 H 4512.96 -3.89842 1.49429 0
M  V30 49440 H 4514.35 -3.80914 5.53493 0
M  V30 49441 N 4517.07 -1.26155 -0.944598 0
M  V30 49442 C 4518.49 -1.03194 -1.21751 0
M  V30 49443 C 4518.69 0.245042 -2.00004 0
M  V30 49444 O 4517.75 0.955094 -2.3374 0
M  V30 49445 C 4519.06 -2.26126 -1.98211 0
M  V30 49446 C 4520.61 -2.30991 -2.11215 0
M  V30 49447 C 4521.08 -3.53607 -2.91077 0
M  V30 49448 N 4522.57 -3.54064 -2.98652 0
M  V30 49449 C 4523.31 -4.45605 -3.60865 0
M  V30 49450 N 4522.8 -5.47431 -4.24607 0
M  V30 49451 N 4524.6 -4.33264 -3.58104 0
M  V30 49452 H 4516.75 -2.08179 -0.421363 0
M  V30 49453 H 4519.01 -0.914732 -0.248937 0
M  V30 49454 H 4518.72 -3.1899 -1.48117 0
M  V30 49455 H 4518.59 -2.30101 -2.98887 0
M  V30 49456 H 4520.98 -1.38645 -2.60503 0
M  V30 49457 H 4521.06 -2.3103 -1.09812 0
M  V30 49458 H 4520.7 -4.46281 -2.42477 0
M  V30 49459 H 4520.63 -3.50816 -3.92728 0
M  V30 49460 H 4523.12 -2.80412 -2.53333 0
M  V30 49461 H 4523.44 -6.13476 -4.69965 0
M  V30 49462 H 4521.78 -5.51292 -4.23204 0
M  V30 49463 H 4524.97 -3.52935 -3.07497 0
M  V30 49464 H 4525.15 -5.048 -4.06301 0
M  V30 49465 N 4518.55 1.14868 -1.07903 0
M  V30 49466 C 4519.8 1.86061 -0.806791 0
M  V30 49467 C 4520.13 1.82436 0.665642 0
M  V30 49468 O 4519.41 1.25143 1.48894 0
M  V30 49469 C 4519.69 3.34924 -1.32279 0
M  V30 49470 C 4519.54 3.47151 -2.86018 0
M  V30 49471 C 4520.86 4.29859 -0.943868 0
M  V30 49472 H 4517.98 0.675581 -0.294549 0
M  V30 49473 H 4520.62 1.3492 -1.33778 0
M  V30 49474 H 4518.77 3.78608 -0.871107 0
M  V30 49475 H 4520.44 3.12291 -3.39518 0
M  V30 49476 H 4518.69 2.88528 -3.23935 0
M  V30 49477 H 4519.36 4.51766 -3.17193 0
M  V30 49478 H 4521.83 3.94165 -1.33316 0
M  V30 49479 H 4520.71 5.32489 -1.33217 0
M  V30 49480 H 4520.97 4.41847 0.149641 0
M  V30 49481 N 4520.03 0.863952 1.31809 0
M  V30 49482 C 4520.99 0.320292 2.26951 0
M  V30 49483 C 4521.99 -0.525315 1.51977 0
M  V30 49484 O 4523.18 -0.335487 1.70939 0
M  V30 49485 C 4520.31 -0.545801 3.36502 0
M  V30 49486 H 4521.51 1.16013 2.76552 0
M  V30 49487 H 4519.06 0.639045 1.42639 0
M  V30 49488 H 4519.8 -1.40708 2.92184 0
M  V30 49489 H 4519.58 0.0596052 3.92055 0
M  V30 49490 H 4521.07 -0.918652 4.0737 0
M  V30 49491 N 4521.51 -1.44772 0.622796 0
M  V30 49492 C 4522.47 -2.2907 -0.077321 0
M  V30 49493 C 4523.47 -1.40592 -0.780412 0
M  V30 49494 O 4524.66 -1.62553 -0.626265 0
M  V30 49495 C 4521.79 -3.21978 -1.11994 0
M  V30 49496 H 4522.99 -2.92457 0.664004 0
M  V30 49497 H 4520.54 -1.51546 0.382539 0
M  V30 49498 H 4521.27 -2.63423 -1.89153 0
M  V30 49499 H 4521.06 -3.8717 -0.619815 0
M  V30 49500 H 4522.55 -3.85324 -1.60982 0
M  V30 49501 N 4522.99 -0.362844 -1.53366 0
M  V30 49502 C 4523.95 0.4726 -2.24275 0
M  V30 49503 C 4524.95 1.01196 -1.24964 0
M  V30 49504 O 4526.14 0.898142 -1.49262 0
M  V30 49505 C 4523.27 1.66028 -2.97737 0
M  V30 49506 H 4524.46 -0.147835 -2.99535 0
M  V30 49507 H 4522.02 -0.114488 -1.5588 0
M  V30 49508 H 4522.75 2.31888 -2.26712 0
M  V30 49509 H 4522.54 1.28053 -3.70601 0
M  V30 49510 H 4524.03 2.2524 -3.51649 0
M  V30 49511 N 4524.46 1.57332 -0.0919406 0
M  V30 49512 C 4525.37 2.17371 0.882429 0
M  V30 49513 C 4526.39 1.14231 1.31253 0
M  V30 49514 O 4527.57 1.46587 1.38109 0
M  V30 49515 C 4524.63 2.73969 2.12466 0
M  V30 49516 C 4523.69 3.92054 1.74906 0
M  V30 49517 C 4522.93 4.45943 2.93207 0
M  V30 49518 O 4523.15 3.98779 4.07838 0
M  V30 49519 O 4522.08 5.37008 2.71856 0
M  V30 49520 H 4525.91 3.01033 0.401614 0
M  V30 49521 H 4523.49 1.48814 0.132238 0
M  V30 49522 H 4525.38 3.10157 2.85272 0
M  V30 49523 H 4524.05 1.93356 2.59606 0
M  V30 49524 H 4522.96 3.60683 0.992898 0
M  V30 49525 H 4524.29 4.74021 1.32532 0
M  V30 49526 N 4525.94 -0.181737 1.56549 0
M  V30 49527 C 4527.17 -0.915881 1.85524 0
M  V30 49528 C 4527.59 -1.7628 0.676078 0
M  V30 49529 O 4526.94 -1.79014 -0.355014 0
M  V30 49530 C 4526.99 -1.80115 3.13434 0
M  V30 49531 O 4526.71 -0.988412 4.26804 0
M  V30 49532 C 4528.22 -2.64585 3.55682 0
M  V30 49533 H 4525.44 -0.266588 0.615769 0
M  V30 49534 H 4527.98 -0.184968 2.03662 0
M  V30 49535 H 4526.13 -2.48553 2.97154 0
M  V30 49536 H 4526.55 -1.5929 4.99727 0
M  V30 49537 H 4528.02 -3.22334 4.48112 0
M  V30 49538 H 4528.5 -3.38948 2.79304 0
M  V30 49539 H 4529.11 -2.01497 3.74539 0
M  V30 49540 N 4527.42 -1.51041 -0.44993 0
M  V30 49541 C 4528.38 -1.70868 -1.52764 0
M  V30 49542 C 4529.38 -0.578898 -1.50018 0
M  V30 49543 O 4530.57 -0.846266 -1.52263 0
M  V30 49544 C 4527.71 -1.75351 -2.92344 0
M  V30 49545 H 4528.9 -2.67039 -1.36493 0
M  V30 49546 H 4526.45 -1.40841 -0.677762 0
M  V30 49547 H 4527.19 -0.809493 -3.14035 0
M  V30 49548 H 4526.97 -2.57446 -2.95743 0
M  V30 49549 H 4528.46 -1.92572 -3.70548 0
M  V30 49550 N 4528.9 0.704544 -1.40975 0
M  V30 49551 C 4529.85 1.81857 -1.42115 0
M  V30 49552 C 4530.82 1.6378 -0.27665 0
M  V30 49553 O 4532 1.84758 -0.476365 0
M  V30 49554 C 4529.14 3.19665 -1.30033 0
M  V30 49555 C 4528.25 3.49237 -2.54279 0
M  V30 49556 C 4527.39 4.7661 -2.34557 0
M  V30 49557 C 4526.43 4.99121 -3.54323 0
M  V30 49558 N 4525.56 6.17714 -3.33728 0
M  V30 49559 H 4530.4 1.80217 -2.3733 0
M  V30 49560 H 4527.94 0.880196 -1.1786 0
M  V30 49561 H 4529.9 3.99258 -1.21032 0
M  V30 49562 H 4528.53 3.20504 -0.384304 0
M  V30 49563 H 4527.58 2.64115 -2.73765 0
M  V30 49564 H 4528.89 3.61776 -3.43394 0
M  V30 49565 H 4528.05 5.64241 -2.22972 0
M  V30 49566 H 4526.79 4.663 -1.42884 0
M  V30 49567 H 4525.79 4.0994 -3.66373 0
M  V30 49568 H 4527.02 5.11295 -4.46938 0
M  V30 49569 H 4524.96 6.08634 -2.44747 0
M  V30 49570 H 4524.88 6.3098 -4.16414 0
M  V30 49571 H 4526.15 7.08104 -3.25897 0
M  V30 49572 N 4530.38 1.26654 0.937895 0
M  V30 49573 C 4531.33 1.05163 2.02299 0
M  V30 49574 C 4532.31 -0.0170668 1.60891 0
M  V30 49575 O 4533.5 0.200275 1.75863 0
M  V30 49576 C 4530.63 0.69008 3.36293 0
M  V30 49577 C 4529.72 1.7964 3.84175 0
M  V30 49578 N 4530.11 3.03436 4.04673 0
M  V30 49579 C 4528.41 1.68075 4.13118 0
M  V30 49580 C 4529.11 3.75361 4.44386 0
M  V30 49581 N 4528.08 3.03067 4.51278 0
M  V30 49582 H 4531.89 1.99125 2.16163 0
M  V30 49583 H 4529.4 1.1722 1.12398 0
M  V30 49584 H 4531.4 0.517257 4.13679 0
M  V30 49585 H 4530.06 -0.242025 3.23797 0
M  V30 49586 H 4531.07 3.39307 3.91269 0
M  V30 49587 H 4527.74 0.818773 4.09393 0
M  V30 49588 H 4529.13 4.81707 4.6841 0
M  V30 49589 N 4531.85 -1.14294 1.08511 0
M  V30 49590 C 4532.79 -2.19068 0.673936 0
M  V30 49591 C 4533.8 -1.60382 -0.279521 0
M  V30 49592 O 4534.99 -1.78374 -0.0670127 0
M  V30 49593 C 4532.09 -3.38888 -0.0289788 0
M  V30 49594 C 4531.26 -4.271 0.943644 0
M  V30 49595 C 4530.32 -5.25476 0.27586 0
M  V30 49596 O 4529.35 -5.61706 0.920599 0
M  V30 49597 N 4530.55 -5.72274 -0.973812 0
M  V30 49598 H 4533.31 -2.5496 1.5753 0
M  V30 49599 H 4530.87 -1.29525 0.971333 0
M  V30 49600 H 4532.87 -4.01763 -0.486689 0
M  V30 49601 H 4531.44 -3.01312 -0.832449 0
M  V30 49602 H 4530.66 -3.61143 1.58017 0
M  V30 49603 H 4531.94 -4.82899 1.60268 0
M  V30 49604 H 4531.34 -5.44971 -1.51735 0
M  V30 49605 H 4529.9 -6.37132 -1.375 0
M  V30 49606 N 4533.33 -0.87093 -1.31349 0
M  V30 49607 C 4534.3 -0.332323 -2.26778 0
M  V30 49608 C 4535.3 0.517248 -1.52254 0
M  V30 49609 O 4536.49 0.326417 -1.71114 0
M  V30 49610 C 4533.62 0.527948 -3.36787 0
M  V30 49611 H 4534.81 -1.17478 -2.75933 0
M  V30 49612 H 4532.36 -0.6466 -1.42298 0
M  V30 49613 H 4533.1 1.39157 -2.92926 0
M  V30 49614 H 4532.88 -0.080396 -3.92018 0
M  V30 49615 H 4534.37 0.897036 -4.07852 0
M  V30 49616 N 4534.81 1.4444 -0.630465 0
M  V30 49617 C 4535.76 2.30679 0.0748544 0
M  V30 49618 C 4536.73 1.43443 0.837452 0
M  V30 49619 O 4537.91 1.72346 0.818623 0
M  V30 49620 C 4535.05 3.28709 1.05091 0
M  V30 49621 C 4534.17 4.31047 0.286802 0
M  V30 49622 C 4533.3 5.16171 1.25462 0
M  V30 49623 C 4532.34 6.10218 0.479629 0
M  V30 49624 N 4531.48 6.88044 1.39787 0
M  V30 49625 H 4536.32 2.90451 -0.666489 0
M  V30 49626 H 4533.85 1.43106 -0.340454 0
M  V30 49627 H 4535.81 3.84033 1.63018 0
M  V30 49628 H 4534.44 2.70639 1.75939 0
M  V30 49629 H 4533.49 3.78202 -0.408376 0
M  V30 49630 H 4534.81 4.97793 -0.316832 0
M  V30 49631 H 4533.96 5.76008 1.90524 0
M  V30 49632 H 4532.7 4.49497 1.89218 0
M  V30 49633 H 4531.7 5.4949 -0.184488 0
M  V30 49634 H 4532.93 6.78927 -0.153204 0
M  V30 49635 H 4530.87 6.24039 2.02265 0
M  V30 49636 H 4530.79 7.51226 0.848243 0
M  V30 49637 H 4532.06 7.52404 2.03736 0
M  V30 49638 N 4536.29 0.370972 1.53172 0
M  V30 49639 C 4537.53 -0.217035 2.03244 0
M  V30 49640 C 4537.89 -1.45554 1.25212 0
M  V30 49641 O 4539.09 -2.11951 1.65318 0
M  V30 49642 C 4537.36 -0.49654 3.53934 0
M  V30 49643 S 4538.92 -1.05745 4.25868 0
M  V30 49644 H 4535.74 -0.0627578 0.708225 0
M  V30 49645 H 4538.34 0.515085 1.88592 0
M  V30 49646 H 4537.05 0.41224 4.08324 0
M  V30 49647 H 4536.58 -1.25758 3.72758 0
M  V30 49648 H 4538.59 -2.34129 4.3749 0
M  V30 49649 N 4537.77 -1.57281 0.100283 0
M  V30 49650 C 4538.71 -2.15545 -0.874252 0
M  V30 49651 C 4539.71 -1.09967 -1.28855 0
M  V30 49652 O 4540.91 -1.28303 -1.26248 0
M  V30 49653 H 4537.29 -0.689577 -0.299979 0
M  V30 49654 H 4539.26 -2.96242 -0.358186 0
M  V30 49655 C 4538.01 -2.75462 -2.1217 0
M  V30 49656 H 4537.33 -3.5639 -1.8118 0
M  V30 49657 H 4538.77 -3.19791 -2.78406 0
M  V30 49658 C 4537.23 -1.71612 -2.89915 0
M  V30 49659 O 4537.76 -1.15818 -3.84642 0
M  V30 49660 N 4535.97 -1.41984 -2.53553 0
M  V30 49661 H 4535.51 -1.87545 -1.76591 0
M  V30 49662 H 4535.47 -0.727382 -3.0587 0
M  V30 49663 N 4539.25 0.173432 -1.56643 0
M  V30 49664 C 4540.49 0.888694 -1.81067 0
M  V30 49665 C 4540.81 1.83504 -0.677185 0
M  V30 49666 O 4542.01 2.59251 -0.806297 0
M  V30 49667 C 4540.47 1.6308 -3.20832 0
M  V30 49668 C 4540.08 0.728201 -4.42042 0
M  V30 49669 C 4541.82 2.33441 -3.5455 0
M  V30 49670 C 4539.73 1.47042 -5.72829 0
M  V30 49671 H 4538.66 0.335594 -0.675198 0
M  V30 49672 H 4541.31 0.141648 -1.82952 0
M  V30 49673 H 4539.69 2.42252 -3.13257 0
M  V30 49674 H 4540.87 -0.0264069 -4.60792 0
M  V30 49675 H 4539.18 0.134346 -4.16183 0
M  V30 49676 H 4541.78 2.89562 -4.49509 0
M  V30 49677 H 4542.12 3.08677 -2.79328 0
M  V30 49678 H 4542.65 1.61215 -3.63668 0
M  V30 49679 H 4539.39 0.760429 -6.51074 0
M  V30 49680 H 4538.91 2.19841 -5.58059 0
M  V30 49681 H 4540.59 2.01847 -6.14709 0
M  V30 49682 N 4540.72 1.51278 0.441914 0
M  V30 49683 C 4541.96 1.65376 1.20126 0
M  V30 49684 C 4542.33 0.359938 1.88596 0
M  V30 49685 O 4543.53 0.376645 2.66148 0
M  V30 49686 C 4541.8 2.82077 2.1947 0
M  V30 49687 S 4543.36 3.16478 3.03953 0
M  V30 49688 H 4540.18 0.582683 0.407433 0
M  V30 49689 H 4542.78 1.89168 0.493543 0
M  V30 49690 H 4541.48 3.74528 1.67799 0
M  V30 49691 H 4541.01 2.6046 2.94829 0
M  V30 49692 H 4543.03 2.62558 4.21044 0
M  V30 49693 N 4542.2 -0.697058 1.41347 0
M  V30 49694 C 4543.15 -1.81101 1.43077 0
M  V30 49695 C 4544.12 -1.63631 0.285332 0
M  V30 49696 O 4545.3 -1.84502 0.486156 0
M  V30 49697 C 4542.44 -3.18971 1.31726 0
M  V30 49698 C 4541.56 -3.47883 2.56127 0
M  V30 49699 C 4540.69 -4.75359 2.37081 0
M  V30 49700 C 4539.73 -4.97234 3.56965 0
M  V30 49701 N 4538.87 -6.15935 3.36999 0
M  V30 49702 H 4543.71 -1.78956 2.38283 0
M  V30 49703 H 4541.24 -0.873933 1.18325 0
M  V30 49704 H 4543.2 -3.98611 1.23147 0
M  V30 49705 H 4541.83 -3.20296 0.401296 0
M  V30 49706 H 4540.88 -2.6266 2.75162 0
M  V30 49707 H 4542.2 -3.5995 3.45308 0
M  V30 49708 H 4541.35 -5.63051 2.25961 0
M  V30 49709 H 4540.09 -4.65536 1.45355 0
M  V30 49710 H 4539.09 -4.07991 3.68542 0
M  V30 49711 H 4540.32 -5.08918 4.49643 0
M  V30 49712 H 4538.27 -6.07327 2.47971 0
M  V30 49713 H 4538.18 -6.28763 4.19754 0
M  V30 49714 H 4539.45 -7.06366 3.29648 0
M  V30 49715 N 4543.68 -1.2715 -0.931165 0
M  V30 49716 C 4544.59 -1.1138 -2.06475 0
M  V30 49717 C 4545.61 -0.0447061 -1.73943 0
M  V30 49718 O 4546.78 -0.250487 -1.99836 0
M  V30 49719 C 4543.85 -0.758957 -3.38291 0
M  V30 49720 C 4542.91 -1.90855 -3.84543 0
M  V30 49721 C 4542.14 -1.57054 -5.10068 0
M  V30 49722 O 4542.36 -0.476845 -5.68403 0
M  V30 49723 O 4541.3 -2.40859 -5.51607 0
M  V30 49724 H 4545.12 -2.06501 -2.2269 0
M  V30 49725 H 4542.71 -1.06305 -1.04974 0
M  V30 49726 H 4544.59 -0.574245 -4.17469 0
M  V30 49727 H 4543.27 0.162765 -3.23291 0
M  V30 49728 H 4542.17 -2.14829 -3.06266 0
M  V30 49729 H 4543.51 -2.81035 -4.04079 0
M  V30 49730 N 4545.16 1.13717 -1.09116 0
M  V30 49731 C 4546.4 1.86573 -0.834866 0
M  V30 49732 C 4546.76 1.81437 0.628058 0
M  V30 49733 O 4547.96 2.495 1.00015 0
M  V30 49734 C 4546.23 3.30867 -1.35136 0
M  V30 49735 S 4547.79 4.21253 -1.22846 0
M  V30 49736 H 4544.61 0.643656 -0.30204 0
M  V30 49737 H 4547.21 1.3708 -1.39389 0
M  V30 49738 H 4545.92 3.32157 -2.41039 0
M  V30 49739 H 4545.45 3.85421 -0.78832 0
M  V30 49740 H 4547.46 4.95883 -0.177365 0
M  V30 49741 N 4546.64 0.877884 1.30885 0
M  V30 49742 C 4548.05 0.544256 1.78591 0
M  V30 49743 C 4548.4 -0.93924 1.72258 0
M  V30 49744 O 4547.52 -1.73366 1.29512 0
M  V30 49745 C 4548.12 0.981164 3.24282 0
M  V30 49746 C 4546.68 0.699065 3.69851 0
M  V30 49747 C 4545.82 1.16809 2.51497 0
M  V30 49748 H 4548.77 1.06282 1.17855 0
M  V30 49749 H 4548.8 0.307142 3.79258 0
M  V30 49750 H 4548.31 2.0609 3.28859 0
M  V30 49751 H 4546.41 -0.368981 3.70769 0
M  V30 49752 H 4546.52 1.28164 4.61639 0
M  V30 49753 H 4544.89 0.587622 2.47829 0
M  V30 49754 H 4545.67 2.25542 2.58816 0
M  V30 49755 N 4548.11 -1.44104 0.638116 0
M  V30 49756 C 4549.36 -2.01194 0.142815 0
M  V30 49757 C 4549.68 -1.50839 -1.24527 0
M  V30 49758 O 4550.88 -2.00103 -1.83497 0
M  V30 49759 C 4549.34 -3.59318 0.204547 0
M  V30 49760 C 4548.95 -4.18669 1.59438 0
M  V30 49761 C 4550.69 -4.23855 -0.23393 0
M  V30 49762 C 4548.6 -5.69039 1.61085 0
M  V30 49763 H 4547.53 -0.752365 0.0496263 0
M  V30 49764 H 4550.18 -1.65243 0.797939 0
M  V30 49765 H 4548.56 -3.926 -0.517808 0
M  V30 49766 H 4549.73 -3.96912 2.34088 0
M  V30 49767 H 4548.05 -3.66446 1.97754 0
M  V30 49768 H 4550.65 -5.34155 -0.241255 0
M  V30 49769 H 4550.99 -3.96693 -1.26256 0
M  V30 49770 H 4551.52 -3.95402 0.436164 0
M  V30 49771 H 4548.26 -6.00946 2.61808 0
M  V30 49772 H 4547.78 -5.92897 0.907389 0
M  V30 49773 H 4549.46 -6.32804 1.34788 0
M  V30 49774 N 4549.59 -0.37909 -1.52973 0
M  V30 49775 C 4550.84 0.206656 -2.01744 0
M  V30 49776 C 4551.17 1.4731 -1.26545 0
M  V30 49777 O 4550.45 1.91083 -0.36297 0
M  V30 49778 C 4550.73 0.48494 -3.5682 0
M  V30 49779 C 4550.58 -0.796074 -4.42699 0
M  V30 49780 C 4551.9 1.27988 -4.21079 0
M  V30 49781 H 4549.02 0.0736349 -0.733312 0
M  V30 49782 H 4551.66 -0.506646 -1.8312 0
M  V30 49783 H 4549.81 1.09259 -3.7282 0
M  V30 49784 H 4551.48 -1.43322 -4.38471 0
M  V30 49785 H 4549.73 -1.41358 -4.10122 0
M  V30 49786 H 4550.4 -0.55614 -5.49191 0
M  V30 49787 H 4552.87 0.765723 -4.08994 0
M  V30 49788 H 4551.75 1.44333 -5.29584 0
M  V30 49789 H 4552.01 2.29222 -3.78034 0
M  V30 49790 N 4551.07 1.57225 -0.108623 0
M  V30 49791 C 4552.32 1.9445 0.550785 0
M  V30 49792 C 4552.64 0.992133 1.67874 0
M  V30 49793 O 4551.91 0.0465688 1.95845 0
M  V30 49794 H 4550.49 0.717904 0.206454 0
M  V30 49795 H 4553.15 1.94112 -0.17513 0
M  V30 49796 H 4552.25 2.97221 0.952154 0
M  V30 49797 N 4552.55 -0.165123 1.56733 0
M  V30 49798 C 4553.79 -0.880743 1.82344 0
M  V30 49799 C 4554.12 -1.81975 0.686685 0
M  V30 49800 O 4553.38 -1.92972 -0.32563 0
M  V30 49801 C 4553.68 -1.70394 3.14166 0
M  V30 49802 C 4553.34 -0.913319 4.41553 0
M  V30 49803 C 4552 -0.695136 4.76153 0
M  V30 49804 C 4554.36 -0.359166 5.19961 0
M  V30 49805 C 4551.68 0.088201 5.86634 0
M  V30 49806 C 4554.04 0.411115 6.31263 0
M  V30 49807 C 4552.7 0.640042 6.64424 0
M  V30 49808 H 4551.97 -0.322287 0.667242 0
M  V30 49809 H 4554.62 -0.145335 1.90948 0
M  V30 49810 H 4552.92 -2.50893 3.00932 0
M  V30 49811 H 4554.62 -2.26079 3.31194 0
M  V30 49812 H 4551.21 -1.09342 4.14418 0
M  V30 49813 H 4555.39 -0.515054 4.9362 0
M  V30 49814 H 4550.65 0.275245 6.1078 0
M  V30 49815 H 4554.82 0.847737 6.91221 0
M  V30 49816 H 4552.45 1.2489 7.49871 0
M  V30 49817 N 4554.03 -1.5151 -0.433885 0
M  V30 49818 C 4555.44 -1.39762 -0.770633 0
M  V30 49819 C 4555.64 -0.482663 -1.95634 0
M  V30 49820 O 4554.7 0.0608804 -2.52427 0
M  V30 49821 C 4556.01 -2.81855 -1.04777 0
M  V30 49822 C 4557.56 -2.91029 -1.15199 0
M  V30 49823 C 4558.03 -4.34037 -1.46204 0
M  V30 49824 N 4559.53 -4.37159 -1.53121 0
M  V30 49825 C 4560.26 -5.44846 -1.7869 0
M  V30 49826 N 4559.76 -6.62689 -2.02028 0
M  V30 49827 N 4561.55 -5.32331 -1.805 0
M  V30 49828 H 4553.7 -2.09547 0.346966 0
M  V30 49829 H 4555.96 -0.943443 0.0928405 0
M  V30 49830 H 4555.67 -3.50816 -0.24918 0
M  V30 49831 H 4555.54 -3.21393 -1.9745 0
M  V30 49832 H 4557.93 -2.22264 -1.9412 0
M  V30 49833 H 4558.01 -2.54984 -0.204192 0
M  V30 49834 H 4557.66 -5.03353 -0.678097 0
M  V30 49835 H 4557.59 -4.67599 -2.42196 0
M  V30 49836 H 4560.08 -3.52202 -1.36975 0
M  V30 49837 H 4560.39 -7.40551 -2.20917 0
M  V30 49838 H 4558.73 -6.65798 -1.99343 0
M  V30 49839 H 4561.93 -4.39251 -1.61789 0
M  V30 49840 H 4562.1 -6.16335 -2.00089 0
M  V30 49841 N 4555.5 0.689552 -1.41714 0
M  V30 49842 C 4556.73 1.47608 -1.44553 0
M  V30 49843 C 4557.14 1.89131 -0.0509699 0
M  V30 49844 O 4556.49 1.57744 0.941405 0
M  V30 49845 C 4556.55 2.76588 -2.2965 0
M  V30 49846 C 4556.21 2.57231 -3.77731 0
M  V30 49847 C 4557.21 2.22787 -4.69747 0
M  V30 49848 C 4554.89 2.72685 -4.21839 0
M  V30 49849 C 4556.89 2.04043 -6.03859 0
M  V30 49850 C 4554.57 2.53557 -5.56015 0
M  V30 49851 C 4555.57 2.19287 -6.4684 0
M  V30 49852 O 4555.26 2.00331 -7.78539 0
M  V30 49853 H 4554.99 0.46121 -0.494228 0
M  V30 49854 H 4557.55 0.855979 -1.86714 0
M  V30 49855 H 4555.78 3.41026 -1.82313 0
M  V30 49856 H 4557.47 3.38417 -2.24118 0
M  V30 49857 H 4558.23 2.10457 -4.36958 0
M  V30 49858 H 4554.11 2.98341 -3.51445 0
M  V30 49859 H 4557.65 1.77217 -6.74715 0
M  V30 49860 H 4553.55 2.65479 -5.8838 0
M  V30 49861 H 4554.32 2.15047 -7.89745 0
M  V30 49862 N 4556.98 1.27642 0.924409 0
M  V30 49863 C 4558.4 1.05118 1.20093 0
M  V30 49864 C 4558.6 -0.213192 2.00369 0
M  V30 49865 O 4557.65 -0.917787 2.3523 0
M  V30 49866 C 4558.97 2.29251 1.94588 0
M  V30 49867 C 4560.52 2.34322 2.07514 0
M  V30 49868 C 4560.99 3.58193 2.85415 0
M  V30 49869 N 4562.48 3.5877 2.92981 0
M  V30 49870 C 4563.22 4.5129 3.5373 0
M  V30 49871 N 4562.71 5.54117 4.15844 0
M  V30 49872 N 4564.51 4.38907 3.51166 0
M  V30 49873 H 4556.66 2.08823 0.388191 0
M  V30 49874 H 4558.92 0.918577 0.234353 0
M  V30 49875 H 4558.63 3.21306 1.43023 0
M  V30 49876 H 4558.5 2.34827 2.95189 0
M  V30 49877 H 4560.89 1.42771 2.58264 0
M  V30 49878 H 4560.97 2.32748 1.06123 0
M  V30 49879 H 4560.61 4.50083 2.35347 0
M  V30 49880 H 4560.54 3.5702 3.87098 0
M  V30 49881 H 4563.03 2.84407 2.4884 0
M  V30 49882 H 4563.35 6.20875 4.60146 0
M  V30 49883 H 4561.69 5.57955 4.1438 0
M  V30 49884 H 4564.88 3.57782 3.01844 0
M  V30 49885 H 4565.05 5.112 3.98219 0
M  V30 49886 N 4558.46 -1.13137 1.09717 0
M  V30 49887 C 4559.69 -1.88859 0.857147 0
M  V30 49888 C 4560.11 -1.78731 -0.586241 0
M  V30 49889 O 4559.47 -1.13697 -1.41218 0
M  V30 49890 C 4559.52 -3.3632 1.30081 0
M  V30 49891 O 4558.62 -4.09814 0.461151 0
M  V30 49892 H 4557.96 -0.587097 0.310182 0
M  V30 49893 H 4560.49 -1.43124 1.46208 0
M  V30 49894 H 4560.5 -3.87152 1.28752 0
M  V30 49895 H 4559.18 -3.43009 2.35197 0
M  V30 49896 H 4557.75 -3.68984 0.539017 0
M  V30 49897 N 4559.94 -0.884812 -1.30418 0
M  V30 49898 C 4560.87 -0.367655 -2.30587 0
M  V30 49899 C 4561.85 0.549408 -1.60983 0
M  V30 49900 O 4563.03 0.463294 -1.88593 0
M  V30 49901 C 4560.16 0.418822 -3.44765 0
M  V30 49902 C 4559.12 -0.406466 -4.26066 0
M  V30 49903 C 4558.44 0.506606 -5.32295 0
M  V30 49904 C 4559.74 -1.64849 -4.95603 0
M  V30 49905 H 4561.44 -1.20472 -2.74093 0
M  V30 49906 H 4558.98 -0.580741 -1.3177 0
M  V30 49907 H 4560.94 0.79125 -4.13905 0
M  V30 49908 H 4559.66 1.28953 -3.00064 0
M  V30 49909 H 4558.32 -0.76103 -3.58614 0
M  V30 49910 H 4557.97 1.37502 -4.83841 0
M  V30 49911 H 4557.67 -0.0417893 -5.87585 0
M  V30 49912 H 4559.19 0.875552 -6.0429 0
M  V30 49913 H 4560.61 -1.34666 -5.57259 0
M  V30 49914 H 4559 -2.13707 -5.60758 0
M  V30 49915 H 4560.07 -2.39299 -4.21739 0
M  V30 49916 N 4561.42 1.43763 -0.645749 0
M  V30 49917 C 4562.36 2.30745 0.0503837 0
M  V30 49918 C 4563.33 1.44323 0.822191 0
M  V30 49919 O 4564.52 1.73205 0.800297 0
M  V30 49920 C 4561.66 3.29806 1.01599 0
M  V30 49921 C 4560.77 4.31327 0.241068 0
M  V30 49922 C 4559.91 5.17473 1.1998 0
M  V30 49923 C 4558.95 6.10692 0.41488 0
M  V30 49924 N 4558.08 6.89487 1.32482 0
M  V30 49925 H 4562.92 2.89728 -0.697257 0
M  V30 49926 H 4560.46 1.42737 -0.355613 0
M  V30 49927 H 4562.42 3.8574 1.58935 0
M  V30 49928 H 4561.05 2.72489 1.73059 0
M  V30 49929 H 4560.1 3.77747 -0.448467 0
M  V30 49930 H 4561.41 4.97429 -0.369612 0
M  V30 49931 H 4560.57 5.77997 1.84404 0
M  V30 49932 H 4559.3 4.51479 1.84439 0
M  V30 49933 H 4558.31 5.49264 -0.242758 0
M  V30 49934 H 4559.53 6.78726 -0.225204 0
M  V30 49935 H 4557.48 6.26149 1.95635 0
M  V30 49936 H 4557.4 7.52084 0.768518 0
M  V30 49937 H 4558.67 7.54523 1.95744 0
M  V30 49938 N 4562.89 0.387197 1.5277 0
M  V30 49939 C 4563.84 -0.465864 2.2319 0
M  V30 49940 C 4564.83 -1.03134 1.235 0
M  V30 49941 O 4566.02 -0.957793 1.48847 0
M  V30 49942 C 4563.15 -1.59373 3.04064 0
M  V30 49943 C 4562.24 -1.0401 4.11148 0
M  V30 49944 N 4562.63 -0.211239 5.05359 0
M  V30 49945 C 4560.92 -1.3128 4.26241 0
M  V30 49946 C 4561.63 0.0943742 5.81623 0
M  V30 49947 N 4560.6 -0.509016 5.41212 0
M  V30 49948 H 4564.4 0.173959 2.93385 0
M  V30 49949 H 4561.92 0.196387 1.61208 0
M  V30 49950 H 4563.91 -2.21725 3.53049 0
M  V30 49951 H 4562.57 -2.2364 2.35404 0
M  V30 49952 H 4563.59 0.151333 5.17679 0
M  V30 49953 H 4560.26 -1.95666 3.6881 0
M  V30 49954 H 4561.65 0.765807 6.67522 0
M  V30 49955 N 4564.37 -1.57165 0.116959 0
M  V30 49956 C 4565.62 -1.95125 -0.541534 0
M  V30 49957 C 4565.95 -1.00012 -1.66817 0
M  V30 49958 O 4565.2 -0.0236346 -1.95686 0
M  V30 49959 C 4565.5 -3.39512 -1.11652 0
M  V30 49960 C 4565.17 -4.50762 -0.111447 0
M  V30 49961 C 4563.83 -4.80917 0.164927 0
M  V30 49962 C 4566.18 -5.18034 0.57362 0
M  V30 49963 C 4563.51 -5.75662 1.13269 0
M  V30 49964 C 4565.86 -6.13819 1.53 0
M  V30 49965 C 4564.53 -6.42368 1.81438 0
M  V30 49966 H 4563.8 -0.714012 -0.198161 0
M  V30 49967 H 4566.44 -1.9048 0.197431 0
M  V30 49968 H 4564.75 -3.40842 -1.9322 0
M  V30 49969 H 4566.44 -3.66195 -1.63409 0
M  V30 49970 H 4563.03 -4.27273 -0.337042 0
M  V30 49971 H 4567.22 -4.94894 0.373266 0
M  V30 49972 H 4562.47 -5.96087 1.35979 0
M  V30 49973 H 4566.65 -6.65032 2.06652 0
M  V30 49974 H 4564.28 -7.1559 2.56583 0
M  V30 49975 N 4565.85 0.156809 -1.56818 0
M  V30 49976 C 4566.8 1.21312 -1.9846 0
M  V30 49977 C 4567.79 1.45022 -0.875495 0
M  V30 49978 O 4569 1.45431 -1.06065 0
M  V30 49979 H 4565.37 0.40812 -0.631619 0
M  V30 49980 H 4567.34 0.835144 -2.86475 0
M  V30 49981 C 4566.09 2.54139 -2.37294 0
M  V30 49982 H 4565.42 2.36722 -3.22185 0
M  V30 49983 H 4566.86 3.26702 -2.70262 0
M  V30 49984 C 4565.32 3.13963 -1.22184 0
M  V30 49985 O 4565.85 3.98355 -0.517289 0
M  V30 49986 N 4564.05 2.73266 -0.988632 0
M  V30 49987 H 4563.6 2.04738 -1.56333 0
M  V30 49988 H 4563.56 3.13627 -0.220319 0
M  V30 49989 N 4567.33 1.51738 0.425844 0
M  V30 49990 C 4568.56 1.68554 1.19471 0
M  V30 49991 C 4568.97 0.387353 1.85192 0
M  V30 49992 O 4568.31 -0.645082 1.72001 0
M  V30 49993 C 4568.37 2.75283 2.31213 0
M  V30 49994 C 4568.04 4.17541 1.85765 0
M  V30 49995 C 4569.03 5.01941 1.35467 0
M  V30 49996 C 4566.72 4.63697 1.93107 0
M  V30 49997 C 4568.71 6.30562 0.931126 0
M  V30 49998 C 4566.4 5.92312 1.50363 0
M  V30 49999 C 4567.4 6.75573 1.0045 0
M  V30 50000 O 4567.08 8.01782 0.58317 0
M  V30 50001 H 4566.82 0.568538 0.365705 0
M  V30 50002 H 4569.37 1.98984 0.509375 0
M  V30 50003 H 4567.6 2.40193 3.03058 0
M  V30 50004 H 4569.29 2.80863 2.93037 0
M  V30 50005 H 4570.06 4.6748 1.29181 0
M  V30 50006 H 4565.93 3.99005 2.30902 0
M  V30 50007 H 4569.48 6.955 0.540839 0
M  V30 50008 H 4565.38 6.26285 1.56324 0
M  V30 50009 H 4566.14 8.15432 0.707988 0
M  V30 50010 N 4568.81 -0.682027 1.42078 0
M  V30 50011 C 4570.08 -1.43751 1.32647 0
M  V30 50012 C 4570.46 -2.11063 -0.0395869 0
M  V30 50013 O 4569.81 -2.02704 -1.05467 0
M  V30 50014 C 4570.02 -2.44587 2.48954 0
M  V30 50015 C 4571.37 -3.09443 2.9074 0
M  V30 50016 O 4572.39 -2.54913 2.48792 0
M  V30 50017 O 4571.25 -4.0824 3.63321 0
M  V30 50018 H 4568.35 -0.640839 0.522738 0
M  V30 50019 H 4570.89 -0.711361 1.54071 0
M  V30 50020 H 4569.67 -1.93597 3.40053 0
M  V30 50021 H 4569.29 -3.24693 2.29479 0
M  V30 50022 N 4570.29 -1.2813 -0.917626 0
M  V30 50023 C 4571.53 -1.15229 -1.66884 0
M  V30 50024 C 4571.86 0.299226 -1.91881 0
M  V30 50025 O 4571.14 1.218 -1.51641 0
M  V30 50026 C 4571.42 -1.94716 -3.02915 0
M  V30 50027 C 4571.28 -3.47908 -2.85096 0
M  V30 50028 C 4572.59 -1.75954 -4.03396 0
M  V30 50029 H 4569.71 -0.419967 -0.605638 0
M  V30 50030 H 4572.36 -1.57402 -1.06417 0
M  V30 50031 H 4570.51 -1.58877 -3.54528 0
M  V30 50032 H 4572.18 -3.93632 -2.40523 0
M  V30 50033 H 4570.42 -3.73738 -2.20233 0
M  V30 50034 H 4571.09 -3.98778 -3.8168 0
M  V30 50035 H 4573.57 -2.07222 -3.6083 0
M  V30 50036 H 4572.44 -2.33948 -4.96547 0
M  V30 50037 H 4572.7 -0.71003 -4.36361 0
M  V30 50038 N 4571.76 1.12553 -1.10316 0
M  V30 50039 C 4573 1.85677 -0.854608 0
M  V30 50040 C 4573.37 1.82093 0.608779 0
M  V30 50041 O 4574.57 2.50547 0.973629 0
M  V30 50042 C 4572.84 3.29415 -1.38638 0
M  V30 50043 S 4574.4 4.19926 -1.27307 0
M  V30 50044 H 4571.22 0.640416 -0.30885 0
M  V30 50045 H 4573.82 1.35594 -1.40835 0
M  V30 50046 H 4572.52 3.29582 -2.44548 0
M  V30 50047 H 4572.05 3.84563 -0.829155 0
M  V30 50048 H 4574.07 4.95667 -0.22995 0
M  V30 50049 N 4573.24 0.891716 1.29947 0
M  V30 50050 C 4574.17 0.320775 2.26944 0
M  V30 50051 C 4575.19 -0.528443 1.53985 0
M  V30 50052 O 4576.38 -0.346897 1.75097 0
M  V30 50053 C 4573.48 -0.561948 3.34209 0
M  V30 50054 C 4572.65 0.259729 4.36628 0
M  V30 50055 C 4571.71 -0.554556 5.2327 0
M  V30 50056 O 4570.73 0.0251312 5.69194 0
M  V30 50057 N 4571.94 -1.8623 5.49817 0
M  V30 50058 H 4574.7 1.15442 2.76574 0
M  V30 50059 H 4572.26 0.755386 1.43198 0
M  V30 50060 H 4574.25 -1.11291 3.89097 0
M  V30 50061 H 4572.82 -1.29627 2.84457 0
M  V30 50062 H 4572.04 0.99212 3.81511 0
M  V30 50063 H 4573.33 0.82274 5.02104 0
M  V30 50064 H 4572.73 -2.3561 5.143 0
M  V30 50065 H 4571.29 -2.36056 6.07553 0
M  V30 50066 N 4574.72 -1.43419 0.653364 0
M  V30 50067 C 4575.94 -2.06678 0.172919 0
M  V30 50068 C 4576.37 -1.48652 -1.15257 0
M  V30 50069 O 4575.73 -0.596517 -1.71206 0
M  V30 50070 C 4575.78 -3.60474 0.0954452 0
M  V30 50071 O 4574.88 -4.0149 -0.942301 0
M  V30 50072 H 4574.22 -0.657178 0.0949386 0
M  V30 50073 H 4576.75 -1.83921 0.89633 0
M  V30 50074 H 4576.76 -4.07905 -0.0878294 0
M  V30 50075 H 4575.44 -4.02085 1.06305 0
M  V30 50076 H 4574.01 -3.65649 -0.731803 0
M  V30 50077 N 4576.2 -0.395293 -1.52562 0
M  V30 50078 C 4577.44 0.184673 -2.03564 0
M  V30 50079 C 4577.8 1.43543 -1.27512 0
M  V30 50080 O 4579 2.09295 -1.68669 0
M  V30 50081 C 4577.27 0.440169 -3.54679 0
M  V30 50082 S 4578.83 0.989562 -4.27496 0
M  V30 50083 H 4575.65 0.0514826 -0.709134 0
M  V30 50084 H 4578.25 -0.545023 -1.87749 0
M  V30 50085 H 4576.96 -0.477149 -4.07617 0
M  V30 50086 H 4576.49 1.19812 -3.74711 0
M  V30 50087 H 4578.5 2.2714 -4.4116 0
M  V30 50088 N 4577.68 1.57101 -0.125292 0
M  V30 50089 C 4578.92 1.95409 0.531179 0
M  V30 50090 C 4579.25 1.00896 1.66284 0
M  V30 50091 O 4578.51 0.0340119 1.9567 0
M  V30 50092 C 4578.8 3.401 1.0985 0
M  V30 50093 C 4578.47 4.50815 0.0875405 0
M  V30 50094 C 4577.13 4.80823 -0.190429 0
M  V30 50095 C 4579.48 5.17722 -0.601084 0
M  V30 50096 C 4576.81 5.75053 -1.1632 0
M  V30 50097 C 4579.16 6.12999 -1.56253 0
M  V30 50098 C 4577.83 6.41397 -1.84842 0
M  V30 50099 H 4577.1 0.715053 0.194372 0
M  V30 50100 H 4579.75 1.90372 -0.20753 0
M  V30 50101 H 4578.05 3.41862 1.9141 0
M  V30 50102 H 4579.75 3.67056 1.61465 0
M  V30 50103 H 4576.34 4.27445 0.314378 0
M  V30 50104 H 4580.52 4.94689 -0.399507 0
M  V30 50105 H 4575.78 5.95358 -1.39138 0
M  V30 50106 H 4579.95 6.63927 -2.10176 0
M  V30 50107 H 4577.58 7.14219 -2.60374 0
M  V30 50108 N 4579.15 -0.14849 1.56899 0
M  V30 50109 C 4580.4 -0.861354 1.83267 0
M  V30 50110 C 4580.73 -1.81236 0.705947 0
M  V30 50111 O 4579.98 -1.93306 -0.305144 0
M  V30 50112 C 4580.28 -1.67053 3.15956 0
M  V30 50113 C 4579.95 -0.866435 4.42497 0
M  V30 50114 C 4578.61 -0.644594 4.76863 0
M  V30 50115 C 4580.96 -0.303997 5.20313 0
M  V30 50116 C 4578.29 0.150416 5.86507 0
M  V30 50117 C 4580.64 0.478046 6.30791 0
M  V30 50118 C 4579.31 0.710477 6.63708 0
M  V30 50119 H 4578.58 -0.315192 0.670623 0
M  V30 50120 H 4581.22 -0.125074 1.91091 0
M  V30 50121 H 4579.53 -2.47687 3.03576 0
M  V30 50122 H 4581.23 -2.22554 3.33573 0
M  V30 50123 H 4577.82 -1.0494 4.15554 0
M  V30 50124 H 4582 -0.46267 4.94139 0
M  V30 50125 H 4577.26 0.340011 6.10454 0
M  V30 50126 H 4581.43 0.921002 6.90283 0
M  V30 50127 H 4579.06 1.32836 7.48504 0
M  V30 50128 N 4580.63 -1.51961 -0.417791 0
M  V30 50129 C 4581.86 -1.69721 -1.19204 0
M  V30 50130 C 4582.28 -0.402213 -1.83749 0
M  V30 50131 O 4581.64 0.639533 -1.69646 0
M  V30 50132 C 4581.69 -2.82802 -2.23731 0
M  V30 50133 O 4580.79 -2.47767 -3.29674 0
M  V30 50134 H 4580.13 -0.565275 -0.348367 0
M  V30 50135 H 4582.66 -1.98623 -0.490916 0
M  V30 50136 H 4582.67 -3.07461 -2.68201 0
M  V30 50137 H 4581.35 -3.76763 -1.76133 0
M  V30 50138 H 4579.92 -2.33749 -2.90544 0
M  V30 50139 N 4582.11 0.674483 -1.42438 0
M  V30 50140 C 4583.36 1.4317 -1.42642 0
M  V30 50141 C 4583.68 1.9495 -0.0439678 0
M  V30 50142 O 4582.95 1.73083 0.917546 0
M  V30 50143 H 4581.53 0.531289 -0.52511 0
M  V30 50144 H 4584.19 0.796943 -1.77862 0
M  V30 50145 H 4583.29 2.28456 -2.12637 0
M  V30 50146 N 4583.59 1.28615 0.910818 0
M  V30 50147 C 4585 1.06386 1.18972 0
M  V30 50148 C 4585.2 -0.191928 2.00584 0
M  V30 50149 O 4584.26 -0.892786 2.3619 0
M  V30 50150 C 4585.57 2.31302 1.92146 0
M  V30 50151 C 4587.12 2.3651 2.05017 0
M  V30 50152 C 4587.6 3.612 2.81599 0
M  V30 50153 N 4589.09 3.61858 2.8916 0
M  V30 50154 C 4589.82 4.55016 3.48924 0
M  V30 50155 N 4589.32 5.58496 4.09943 0
M  V30 50156 N 4591.11 4.42607 3.46491 0
M  V30 50157 H 4583.26 2.09222 0.36602 0
M  V30 50158 H 4585.53 0.921011 0.224597 0
M  V30 50159 H 4585.23 3.22805 1.39607 0
M  V30 50160 H 4585.11 2.37944 2.92681 0
M  V30 50161 H 4587.49 1.45503 2.56735 0
M  V30 50162 H 4587.57 2.3386 1.03649 0
M  V30 50163 H 4587.22 4.52553 2.3056 0
M  V30 50164 H 4587.15 3.61105 3.83289 0
M  V30 50165 H 4589.64 2.8703 2.45809 0
M  V30 50166 H 4589.95 6.2572 4.53535 0
M  V30 50167 H 4588.3 5.62319 4.08439 0
M  V30 50168 H 4591.49 3.60963 2.98032 0
M  V30 50169 H 4591.66 5.15395 3.92775 0
M  V30 50170 N 4585.07 -1.11967 1.10911 0
M  V30 50171 C 4586.29 -1.87399 0.87689 0
M  V30 50172 C 4586.71 -1.79896 -0.572961 0
M  V30 50173 O 4586.07 -1.17634 -1.3953 0
M  V30 50174 C 4586.12 -3.36423 1.32294 0
M  V30 50175 O 4585.84 -3.43756 2.71594 0
M  V30 50176 C 4587.34 -4.28779 1.12533 0
M  V30 50177 H 4584.56 -0.592782 0.314405 0
M  V30 50178 H 4587.1 -1.41644 1.47504 0
M  V30 50179 H 4585.26 -3.79704 0.768362 0
M  V30 50180 H 4585.67 -4.36509 2.90792 0
M  V30 50181 H 4587.15 -5.31608 1.48651 0
M  V30 50182 H 4587.62 -4.39153 0.0643938 0
M  V30 50183 H 4588.23 -3.91285 1.66662 0
M  V30 50184 N 4586.54 -0.898595 -1.29472 0
M  V30 50185 C 4587.51 -0.380351 -2.26022 0
M  V30 50186 C 4588.51 0.484837 -1.53317 0
M  V30 50187 O 4589.7 0.290047 -1.71768 0
M  V30 50188 C 4586.83 0.456391 -3.37831 0
M  V30 50189 H 4588.02 -1.23305 -2.73379 0
M  V30 50190 H 4585.58 -0.676638 -1.40895 0
M  V30 50191 H 4586.31 1.32912 -2.95812 0
M  V30 50192 H 4586.1 -0.163531 -3.91759 0
M  V30 50193 H 4587.59 0.810322 -4.09663 0
M  V30 50194 N 4588.02 1.4307 -0.660961 0
M  V30 50195 C 4588.97 2.30785 0.0259072 0
M  V30 50196 C 4589.94 1.45187 0.806837 0
M  V30 50197 O 4591.12 1.74044 0.781882 0
M  V30 50198 C 4588.26 3.30865 0.980951 0
M  V30 50199 C 4587.38 4.31558 0.195306 0
M  V30 50200 C 4586.51 5.18716 1.14485 0
M  V30 50201 C 4585.55 6.11098 0.350084 0
M  V30 50202 N 4584.69 6.90854 1.25161 0
M  V30 50203 H 4589.53 2.88972 -0.727948 0
M  V30 50204 H 4587.07 1.42352 -0.370732 0
M  V30 50205 H 4589.02 3.87404 1.54835 0
M  V30 50206 H 4587.65 2.7431 1.70159 0
M  V30 50207 H 4586.71 3.7725 -0.488507 0
M  V30 50208 H 4588.02 4.97009 -0.42235 0
M  V30 50209 H 4587.17 5.7992 1.78263 0
M  V30 50210 H 4585.91 4.5341 1.7964 0
M  V30 50211 H 4584.92 5.48975 -0.301001 0
M  V30 50212 H 4586.14 6.78449 -0.29718 0
M  V30 50213 H 4584.09 6.28189 1.88983 0
M  V30 50214 H 4584 7.52856 0.688706 0
M  V30 50215 H 4585.27 7.56556 1.8773 0
M  V30 50216 N 4589.5 0.403378 1.5235 0
M  V30 50217 C 4590.75 -0.173932 2.0135 0
M  V30 50218 C 4591.07 -1.46135 1.29111 0
M  V30 50219 O 4590.34 -1.91447 0.41532 0
M  V30 50220 H 4588.92 -0.0672649 0.743965 0
M  V30 50221 H 4591.58 0.538301 1.87319 0
M  V30 50222 H 4590.68 -0.374145 3.09849 0
M  V30 50223 N 4590.98 -1.57033 0.133622 0
M  V30 50224 C 4591.93 -2.12644 -0.822596 0
M  V30 50225 C 4592.91 -1.05085 -1.21844 0
M  V30 50226 O 4594.1 -1.31291 -1.18709 0
M  V30 50227 C 4591.23 -2.74101 -2.06697 0
M  V30 50228 C 4590.32 -3.88763 -1.69483 0
M  V30 50229 N 4590.71 -4.95197 -1.0302 0
M  V30 50230 C 4589.01 -3.9922 -1.98845 0
M  V30 50231 C 4589.71 -5.75417 -0.85267 0
M  V30 50232 N 4588.69 -5.25731 -1.38232 0
M  V30 50233 H 4592.49 -2.92309 -0.305434 0
M  V30 50234 H 4590 -1.62256 -0.0683706 0
M  V30 50235 H 4592 -3.12295 -2.76184 0
M  V30 50236 H 4590.66 -1.95905 -2.58943 0
M  V30 50237 H 4591.67 -5.13249 -0.692489 0
M  V30 50238 H 4588.35 -3.32084 -2.53035 0
M  V30 50239 H 4589.74 -6.7109 -0.329855 0
M  V30 50240 N 4592.46 0.140167 -1.56975 0
M  V30 50241 C 4593.4 1.17285 -1.98778 0
M  V30 50242 C 4594.37 1.42317 -0.856458 0
M  V30 50243 O 4595.56 1.54537 -1.11906 0
M  V30 50244 C 4592.7 2.49965 -2.37932 0
M  V30 50245 C 4591.81 2.32049 -3.64386 0
M  V30 50246 C 4590.95 3.57811 -3.92612 0
M  V30 50247 C 4589.99 3.34962 -5.12315 0
M  V30 50248 N 4589.12 4.52872 -5.36518 0
M  V30 50249 H 4593.96 0.809371 -2.86798 0
M  V30 50250 H 4591.5 0.388187 -1.41886 0
M  V30 50251 H 4593.46 3.27337 -2.58663 0
M  V30 50252 H 4592.09 2.84247 -1.52982 0
M  V30 50253 H 4591.14 1.45698 -3.51392 0
M  V30 50254 H 4592.45 2.11129 -4.51914 0
M  V30 50255 H 4591.61 4.43609 -4.13879 0
M  V30 50256 H 4590.34 3.81742 -3.0352 0
M  V30 50257 H 4589.35 2.47553 -4.90915 0
M  V30 50258 H 4590.57 3.12423 -6.02967 0
M  V30 50259 H 4588.52 4.76963 -4.5038 0
M  V30 50260 H 4588.44 4.3498 -6.18327 0
M  V30 50261 H 4589.71 5.39864 -5.62287 0
M  V30 50262 N 4593.93 1.52181 0.409726 0
M  V30 50263 C 4594.86 1.7844 1.50603 0
M  V30 50264 C 4595.85 0.635351 1.57789 0
M  V30 50265 O 4597.03 0.880884 1.73072 0
M  V30 50266 C 4594.16 1.93454 2.88432 0
M  V30 50267 C 4593.11 3.09048 2.96097 0
M  V30 50268 C 4592.44 3.09284 4.36174 0
M  V30 50269 C 4593.74 4.48517 2.67637 0
M  V30 50270 H 4595.43 2.70242 1.28879 0
M  V30 50271 H 4592.98 1.30038 0.618559 0
M  V30 50272 H 4594.93 2.10407 3.65112 0
M  V30 50273 H 4593.66 0.983238 3.11448 0
M  V30 50274 H 4592.32 2.91844 2.21861 0
M  V30 50275 H 4591.96 2.11877 4.56199 0
M  V30 50276 H 4591.66 3.86922 4.42227 0
M  V30 50277 H 4593.19 3.28366 5.1479 0
M  V30 50278 H 4594.6 4.65929 3.3404 0
M  V30 50279 H 4593 5.28069 2.85066 0
M  V30 50280 H 4594.07 4.56655 1.63079 0
M  V30 50281 N 4595.41 -0.666919 1.42793 0
M  V30 50282 C 4596.36 -1.77308 1.43339 0
M  V30 50283 C 4597.35 -1.58009 0.303641 0
M  V30 50284 O 4598.54 -1.68354 0.546444 0
M  V30 50285 C 4595.67 -3.15818 1.34589 0
M  V30 50286 C 4594.75 -3.40712 2.5254 0
M  V30 50287 N 4595.14 -3.36149 3.77938 0
M  V30 50288 C 4593.44 -3.71379 2.46969 0
M  V30 50289 C 4594.14 -3.60746 4.5633 0
M  V30 50290 N 4593.12 -3.81894 3.86856 0
M  V30 50291 H 4596.92 -1.72185 2.3818 0
M  V30 50292 H 4594.44 -0.868066 1.37253 0
M  V30 50293 H 4596.43 -3.95095 1.33062 0
M  V30 50294 H 4595.09 -3.22132 0.407566 0
M  V30 50295 H 4596.1 -3.15871 4.10422 0
M  V30 50296 H 4592.78 -3.84891 1.61756 0
M  V30 50297 H 4594.17 -3.63112 5.65331 0
M  V30 50298 N 4596.89 -1.29096 -0.903985 0
M  V30 50299 C 4598.12 -1.19522 -1.68518 0
M  V30 50300 C 4598.53 0.247314 -1.87577 0
M  V30 50301 O 4597.87 1.17793 -1.40963 0
M  V30 50302 C 4597.93 -1.8326 -3.09283 0
M  V30 50303 C 4597.6 -3.32542 -3.13472 0
M  V30 50304 C 4598.59 -4.28831 -2.93938 0
M  V30 50305 C 4596.28 -3.73668 -3.35674 0
M  V30 50306 C 4598.27 -5.64222 -2.96534 0
M  V30 50307 C 4595.96 -5.09182 -3.37901 0
M  V30 50308 C 4596.96 -6.04269 -3.18352 0
M  V30 50309 O 4596.65 -7.3731 -3.20359 0
M  V30 50310 H 4596.38 -0.415486 -0.533243 0
M  V30 50311 H 4598.93 -1.70916 -1.13916 0
M  V30 50312 H 4597.16 -1.26371 -3.65468 0
M  V30 50313 H 4598.85 -1.68067 -3.6947 0
M  V30 50314 H 4599.62 -3.98392 -2.76602 0
M  V30 50315 H 4595.5 -3.00114 -3.49932 0
M  V30 50316 H 4599.04 -6.38417 -2.81193 0
M  V30 50317 H 4594.94 -5.39268 -3.54768 0
M  V30 50318 H 4595.71 -7.4606 -3.36655 0
M  V30 50319 N 4598.37 1.11377 -1.11503 0
M  V30 50320 C 4599.78 1.64647 -0.880248 0
M  V30 50321 C 4600.13 1.87202 0.587368 0
M  V30 50322 O 4599.26 1.60672 1.4496 0
M  V30 50323 C 4599.85 2.99099 -1.59139 0
M  V30 50324 C 4598.41 3.49274 -1.40301 0
M  V30 50325 C 4597.56 2.24072 -1.63362 0
M  V30 50326 H 4600.51 0.950078 -1.27119 0
M  V30 50327 H 4600.53 3.66103 -1.03677 0
M  V30 50328 H 4600.04 2.82651 -2.65951 0
M  V30 50329 H 4598.14 3.70886 -0.357019 0
M  V30 50330 H 4598.26 4.28022 -2.15253 0
M  V30 50331 H 4596.62 2.31729 -1.05706 0
M  V30 50332 H 4597.4 2.10166 -2.7145 0
M  V30 50333 N 4599.85 0.905449 1.28994 0
M  V30 50334 C 4600.78 0.332039 2.25771 0
M  V30 50335 C 4601.76 -0.559046 1.52687 0
M  V30 50336 O 4602.94 -0.504566 1.81622 0
M  V30 50337 C 4600.07 -0.526159 3.34588 0
M  V30 50338 C 4599.12 0.298399 4.25455 0
M  V30 50339 S 4599.95 1.69986 5.07804 0
M  V30 50340 C 4601.1 0.848737 6.20119 0
M  V30 50341 H 4601.34 1.15232 2.7406 0
M  V30 50342 H 4598.87 0.70616 1.37305 0
M  V30 50343 H 4600.83 -1.01551 3.97741 0
M  V30 50344 H 4599.49 -1.32074 2.84983 0
M  V30 50345 H 4598.68 -0.35743 5.02731 0
M  V30 50346 H 4598.28 0.721097 3.66983 0
M  V30 50347 H 4600.58 0.0746707 6.77459 0
M  V30 50348 H 4601.52 1.59377 6.89931 0
M  V30 50349 H 4601.93 0.400581 5.63077 0
M  V30 50350 N 4601.33 -1.42718 0.668539 0
M  V30 50351 C 4602.57 -2.01922 0.18849 0
M  V30 50352 C 4602.9 -1.52709 -1.19974 0
M  V30 50353 O 4602.18 -0.726629 -1.80417 0
M  V30 50354 C 4602.46 -3.5945 0.216211 0
M  V30 50355 C 4602.32 -4.18858 1.63945 0
M  V30 50356 C 4603.63 -4.37905 -0.439025 0
M  V30 50357 H 4600.75 -0.733671 0.069967 0
M  V30 50358 H 4603.4 -1.69819 0.852136 0
M  V30 50359 H 4601.55 -3.8693 -0.348876 0
M  V30 50360 H 4603.22 -4.02354 2.2563 0
M  V30 50361 H 4601.46 -3.74925 2.18206 0
M  V30 50362 H 4602.13 -5.27981 1.61058 0
M  V30 50363 H 4604.61 -4.16079 0.0419341 0
M  V30 50364 H 4603.48 -5.4752 -0.388964 0
M  V30 50365 H 4603.74 -4.15309 -1.51563 0
M  V30 50366 N 4602.8 -0.411452 -1.52134 0
M  V30 50367 C 4603.71 0.419693 -2.30815 0
M  V30 50368 C 4604.73 1.05145 -1.38638 0
M  V30 50369 O 4605.91 1.05246 -1.71713 0
M  V30 50370 C 4602.97 1.52008 -3.116 0
M  V30 50371 C 4602.03 0.911142 -4.1952 0
M  V30 50372 C 4601.26 1.95909 -4.96443 0
M  V30 50373 O 4601.49 3.17758 -4.73694 0
M  V30 50374 O 4600.42 1.56403 -5.81224 0
M  V30 50375 H 4604.25 -0.221911 -3.02888 0
M  V30 50376 H 4601.83 -0.174599 -1.48376 0
M  V30 50377 H 4603.71 2.15885 -3.619 0
M  V30 50378 H 4602.39 2.14624 -2.42318 0
M  V30 50379 H 4601.3 0.235025 -3.73361 0
M  V30 50380 H 4602.63 0.328867 -4.911 0
M  V30 50381 N 4604.28 1.56959 -0.141948 0
M  V30 50382 C 4605.51 2.00033 0.516758 0
M  V30 50383 C 4605.92 1.02096 1.59289 0
M  V30 50384 O 4605.26 0.00916115 1.83698 0
M  V30 50385 C 4605.32 3.39538 1.18128 0
M  V30 50386 C 4604.99 4.56314 0.250353 0
M  V30 50387 C 4605.99 5.17293 -0.52002 0
M  V30 50388 C 4603.67 5.02062 0.154731 0
M  V30 50389 C 4605.66 6.22425 -1.37352 0
M  V30 50390 C 4603.35 6.0705 -0.702375 0
M  V30 50391 C 4604.35 6.67101 -1.46511 0
M  V30 50392 O 4604.04 7.70058 -2.30794 0
M  V30 50393 H 4603.77 0.661456 0.13947 0
M  V30 50394 H 4606.32 2.04086 -0.231998 0
M  V30 50395 H 4604.55 3.32309 1.97757 0
M  V30 50396 H 4606.24 3.66752 1.7392 0
M  V30 50397 H 4607.01 4.8285 -0.45615 0
M  V30 50398 H 4602.89 4.55052 0.73814 0
M  V30 50399 H 4606.43 6.69226 -1.96932 0
M  V30 50400 H 4602.33 6.4092 -0.767556 0
M  V30 50401 H 4603.1 7.87256 -2.23986 0
M  V30 50402 N 4605.76 -0.13184 1.57048 0
M  V30 50403 C 4607 -0.847907 1.85984 0
M  V30 50404 C 4607.36 -1.77652 0.728263 0
M  V30 50405 O 4608.56 -2.53319 0.899057 0
M  V30 50406 C 4606.84 -1.58908 3.2013 0
M  V30 50407 S 4608.39 -2.34849 3.70664 0
M  V30 50408 H 4605.21 -0.28325 0.652143 0
M  V30 50409 H 4607.81 -0.106989 1.95207 0
M  V30 50410 H 4606.52 -0.89863 4.00441 0
M  V30 50411 H 4606.05 -2.37062 3.13951 0
M  V30 50412 H 4608.06 -3.60332 3.41138 0
M  V30 50413 N 4607.24 -1.52396 -0.40165 0
M  V30 50414 C 4608.49 -1.66048 -1.14503 0
M  V30 50415 C 4608.8 -0.400283 -1.9146 0
M  V30 50416 O 4610.01 -0.416727 -2.68283 0
M  V30 50417 C 4608.46 -2.93396 -2.08439 0
M  V30 50418 C 4608.07 -4.2655 -1.36963 0
M  V30 50419 C 4609.81 -3.16412 -2.8299 0
M  V30 50420 C 4607.72 -5.45015 -2.29592 0
M  V30 50421 H 4606.65 -0.618577 -0.431136 0
M  V30 50422 H 4609.3 -1.78887 -0.408858 0
M  V30 50423 H 4607.68 -2.74273 -2.8564 0
M  V30 50424 H 4608.86 -4.56182 -0.650755 0
M  V30 50425 H 4607.17 -4.09695 -0.744236 0
M  V30 50426 H 4609.77 -4.02097 -3.52451 0
M  V30 50427 H 4610.11 -2.30955 -3.4636 0
M  V30 50428 H 4610.65 -3.36042 -2.12886 0
M  V30 50429 H 4607.38 -6.32841 -1.70857 0
M  V30 50430 H 4606.9 -5.19712 -2.99431 0
M  V30 50431 H 4608.58 -5.78391 -2.89954 0
M  V30 50432 N 4608.72 0.659337 -1.43145 0
M  V30 50433 C 4610.13 1.24036 -1.39542 0
M  V30 50434 C 4610.48 1.95963 -0.0964053 0
M  V30 50435 O 4609.6 2.00895 0.804368 0
M  V30 50436 C 4610.2 2.25592 -2.52772 0
M  V30 50437 C 4608.76 2.79186 -2.52453 0
M  V30 50438 C 4607.9 1.53735 -2.30783 0
M  V30 50439 H 4610.85 0.451738 -1.52135 0
M  V30 50440 H 4610.88 3.07644 -2.2391 0
M  V30 50441 H 4610.39 1.73214 -3.47302 0
M  V30 50442 H 4608.49 3.35643 -1.61785 0
M  V30 50443 H 4608.6 3.27148 -3.50016 0
M  V30 50444 H 4606.97 1.80862 -1.79334 0
M  V30 50445 H 4607.75 1.033 -3.2739 0
M  V30 50446 N 4610.19 1.29574 0.897126 0
M  V30 50447 C 4611.42 1.20588 1.68125 0
M  V30 50448 C 4611.84 -0.233115 1.87355 0
M  V30 50449 O 4611.19 -1.15574 1.4124 0
M  V30 50450 C 4611.24 1.91783 3.06434 0
M  V30 50451 O 4610.97 3.30063 2.8808 0
M  V30 50452 C 4612.47 1.89305 4.00847 0
M  V30 50453 H 4609.69 0.417844 0.525021 0
M  V30 50454 H 4612.23 1.70991 1.12171 0
M  V30 50455 H 4610.39 1.45209 3.59156 0
M  V30 50456 H 4610.8 3.65955 3.75735 0
M  V30 50457 H 4612.27 2.4368 4.95302 0
M  V30 50458 H 4612.75 0.869165 4.30514 0
M  V30 50459 H 4613.36 2.35634 3.54057 0
M  V30 50460 N 4611.67 -1.10784 1.12092 0
M  V30 50461 C 4612.9 -1.86458 0.896717 0
M  V30 50462 C 4613.31 -1.80494 -0.553849 0
M  V30 50463 O 4612.67 -1.19107 -1.38274 0
M  V30 50464 C 4612.72 -3.35001 1.35855 0
M  V30 50465 O 4612.44 -3.40856 2.75225 0
M  V30 50466 C 4613.94 -4.27561 1.17075 0
M  V30 50467 H 4611.16 -0.589414 0.320675 0
M  V30 50468 H 4613.71 -1.40071 1.48998 0
M  V30 50469 H 4611.86 -3.78867 0.808592 0
M  V30 50470 H 4612.28 -4.33401 2.95405 0
M  V30 50471 H 4613.75 -5.30001 1.54282 0
M  V30 50472 H 4614.23 -4.3906 0.110968 0
M  V30 50473 H 4614.83 -3.89495 1.70803 0
M  V30 50474 N 4613.15 -0.912277 -1.28512 0
M  V30 50475 C 4614.38 -0.559844 -1.99701 0
M  V30 50476 C 4614.8 0.851334 -1.67732 0
M  V30 50477 O 4614.16 1.56872 -0.90889 0
M  V30 50478 C 4614.21 -0.773998 -3.52195 0
M  V30 50479 O 4613.31 0.167697 -4.12059 0
M  V30 50480 H 4612.65 -0.217252 -0.627453 0
M  V30 50481 H 4615.18 -1.22731 -1.63702 0
M  V30 50482 H 4615.19 -0.683528 -4.02234 0
M  V30 50483 H 4613.87 -1.80275 -3.74798 0
M  V30 50484 H 4612.44 0.0286198 -3.72889 0
M  V30 50485 N 4614.63 1.42361 -0.676098 0
M  V30 50486 C 4615.88 2.01123 -0.198508 0
M  V30 50487 C 4616.2 1.53735 1.19961 0
M  V30 50488 O 4615.47 0.759581 1.80575 0
M  V30 50489 H 4614.05 0.743675 -0.0703982 0
M  V30 50490 H 4616.71 1.7426 -0.872898 0
M  V30 50491 H 4615.81 3.11453 -0.200795 0
M  V30 50492 N 4616.11 0.419515 1.51914 0
M  V30 50493 C 4617.02 -0.407447 2.31035 0
M  V30 50494 C 4618.03 -1.04409 1.39194 0
M  V30 50495 O 4619.21 -1.04334 1.72268 0
M  V30 50496 C 4616.27 -1.50354 3.12401 0
M  V30 50497 C 4615.33 -0.888881 4.19997 0
M  V30 50498 C 4614.57 -1.93274 4.97474 0
M  V30 50499 O 4614.79 -3.15242 4.75372 0
M  V30 50500 O 4613.72 -1.53318 5.82046 0
M  V30 50501 H 4617.55 0.237971 3.02766 0
M  V30 50502 H 4615.14 0.182465 1.48282 0
M  V30 50503 H 4617.02 -2.13963 3.6304 0
M  V30 50504 H 4615.69 -2.13336 2.43453 0
M  V30 50505 H 4614.6 -0.215222 3.7348 0
M  V30 50506 H 4615.93 -0.302819 4.91268 0
M  V30 50507 N 4617.58 -1.56882 0.15027 0
M  V30 50508 C 4618.86 -1.87846 -0.545261 0
M  V30 50509 C 4619.24 -1.05676 -1.82745 0
M  V30 50510 O 4618.59 -0.144522 -2.28043 0
M  V30 50511 C 4618.8 -3.39529 -0.80755 0
M  V30 50512 C 4620.15 -4.08818 -1.14688 0
M  V30 50513 O 4621.17 -3.44726 -0.896795 0
M  V30 50514 O 4620.03 -5.2201 -1.61766 0
M  V30 50515 H 4617.12 -0.778686 -0.278526 0
M  V30 50516 H 4619.67 -1.68665 0.187127 0
M  V30 50517 H 4618.44 -3.91173 0.0997471 0
M  V30 50518 H 4618.07 -3.64249 -1.594 0
M  V30 50519 N 4619.06 0.12351 -1.57115 0
M  V30 50520 C 4620.31 0.833321 -1.84888 0
M  V30 50521 C 4620.64 1.79739 -0.735355 0
M  V30 50522 O 4619.92 1.92765 0.259183 0
M  V30 50523 C 4620.2 1.58719 -3.23234 0
M  V30 50524 C 4620.05 0.643026 -4.4518 0
M  V30 50525 C 4621.37 2.5444 -3.59094 0
M  V30 50526 H 4618.49 0.301495 -0.67251 0
M  V30 50527 H 4621.13 0.0977113 -1.89749 0
M  V30 50528 H 4619.28 2.21427 -3.19221 0
M  V30 50529 H 4620.95 0.0251393 -4.61293 0
M  V30 50530 H 4619.2 -0.0457664 -4.33776 0
M  V30 50531 H 4619.87 1.20705 -5.38641 0
M  V30 50532 H 4622.34 2.0184 -3.63868 0
M  V30 50533 H 4621.22 3.04222 -4.56881 0
M  V30 50534 H 4621.48 3.36896 -2.86276 0
M  V30 50535 N 4620.54 1.52607 0.393562 0
M  V30 50536 C 4621.96 1.41756 0.733307 0
M  V30 50537 C 4622.16 0.534362 1.94285 0
M  V30 50538 O 4621.21 0.00606746 2.52499 0
M  V30 50539 C 4622.53 2.84534 0.972671 0
M  V30 50540 C 4624.07 2.93981 1.07443 0
M  V30 50541 C 4624.55 4.37761 1.34645 0
M  V30 50542 N 4626.04 4.41065 1.41477 0
M  V30 50543 C 4626.77 5.49392 1.64181 0
M  V30 50544 N 4626.27 6.67812 1.84386 0
M  V30 50545 N 4628.06 5.36929 1.66323 0
M  V30 50546 H 4620.21 2.08553 -0.402402 0
M  V30 50547 H 4622.48 0.94065 -0.117822 0
M  V30 50548 H 4622.18 3.51353 0.15608 0
M  V30 50549 H 4622.06 3.26515 1.8886 0
M  V30 50550 H 4624.44 2.27333 1.88159 0
M  V30 50551 H 4624.53 2.55435 0.136515 0
M  V30 50552 H 4624.17 5.04974 0.544403 0
M  V30 50553 H 4624.1 4.73856 2.29713 0
M  V30 50554 H 4626.59 3.5571 1.27589 0
M  V30 50555 H 4626.9 7.46148 2.01205 0
M  V30 50556 H 4625.25 6.7085 1.8162 0
M  V30 50557 H 4628.44 4.43387 1.50086 0
M  V30 50558 H 4628.61 6.21423 1.83678 0
M  V30 50559 N 4622.02 -0.651737 1.43493 0
M  V30 50560 C 4623.3 -1.40905 1.35666 0
M  V30 50561 C 4623.68 -2.11099 0.00519155 0
M  V30 50562 O 4623.02 -2.04896 -1.01143 0
M  V30 50563 C 4623.23 -2.39251 2.54086 0
M  V30 50564 C 4624.58 -3.03207 2.97239 0
M  V30 50565 O 4625.61 -2.49579 2.54143 0
M  V30 50566 O 4624.46 -4.00441 3.71899 0
M  V30 50567 H 4621.56 -0.629607 0.536213 0
M  V30 50568 H 4624.1 -0.67852 1.55545 0
M  V30 50569 H 4622.88 -1.8634 3.44083 0
M  V30 50570 H 4622.5 -3.19752 2.36314 0
M  V30 50571 N 4623.5 -1.30048 -0.890242 0
M  V30 50572 C 4624.74 -1.18567 -1.64159 0
M  V30 50573 C 4625.07 0.260784 -1.92744 0
M  V30 50574 O 4624.33 1.20371 -1.54303 0
M  V30 50575 C 4624.63 -1.9542 -2.99242 0
M  V30 50576 C 4624.29 -3.45076 -2.9023 0
M  V30 50577 C 4622.95 -3.85888 -2.87479 0
M  V30 50578 C 4625.31 -4.404 -2.78742 0
M  V30 50579 C 4622.63 -5.20324 -2.71072 0
M  V30 50580 C 4624.99 -5.74938 -2.63874 0
M  V30 50581 C 4623.65 -6.14995 -2.59494 0
M  V30 50582 H 4622.92 -0.433867 -0.6007 0
M  V30 50583 H 4625.57 -1.61092 -1.03546 0
M  V30 50584 H 4623.87 -1.45514 -3.63776 0
M  V30 50585 H 4625.57 -1.83933 -3.56328 0
M  V30 50586 H 4622.16 -3.12642 -2.93178 0
M  V30 50587 H 4626.34 -4.09816 -2.79937 0
M  V30 50588 H 4621.6 -5.50459 -2.66092 0
M  V30 50589 H 4625.77 -6.48443 -2.53958 0
M  V30 50590 H 4623.4 -7.19112 -2.46539 0
M  V30 50591 N 4624.97 1.10188 -1.12678 0
M  V30 50592 C 4626.2 1.8598 -0.906593 0
M  V30 50593 C 4626.62 1.80785 0.544269 0
M  V30 50594 O 4625.97 1.19839 1.37641 0
M  V30 50595 C 4626.03 3.34276 -1.37629 0
M  V30 50596 O 4625.75 3.39392 -2.77029 0
M  V30 50597 C 4627.25 4.26934 -1.1934 0
M  V30 50598 H 4624.47 0.587705 -0.323796 0
M  V30 50599 H 4627.01 1.39279 -1.49738 0
M  V30 50600 H 4625.17 3.78433 -0.828672 0
M  V30 50601 H 4625.58 4.31828 -2.97699 0
M  V30 50602 H 4627.05 5.29175 -1.5709 0
M  V30 50603 H 4627.53 4.38995 -0.134251 0
M  V30 50604 H 4628.14 3.88584 -1.72866 0
M  V30 50605 N 4626.45 0.919079 1.28026 0
M  V30 50606 C 4627.4 0.410085 2.27128 0
M  V30 50607 C 4628.37 -0.518349 1.57805 0
M  V30 50608 O 4629.55 -0.439386 1.85672 0
M  V30 50609 C 4626.69 -0.338934 3.43432 0
M  V30 50610 C 4625.81 0.622618 4.2749 0
M  V30 50611 C 4624.94 -0.14538 5.31001 0
M  V30 50612 C 4623.98 0.80944 6.06724 0
M  V30 50613 N 4623.12 0.0746196 7.0206 0
M  V30 50614 H 4627.96 1.2602 2.70042 0
M  V30 50615 H 4625.5 0.63271 1.32798 0
M  V30 50616 H 4627.45 -0.789442 4.09663 0
M  V30 50617 H 4626.08 -1.15335 3.01492 0
M  V30 50618 H 4625.14 1.19166 3.61253 0
M  V30 50619 H 4626.45 1.35269 4.80108 0
M  V30 50620 H 4625.6 -0.656205 6.03141 0
M  V30 50621 H 4624.34 -0.908474 4.79164 0
M  V30 50622 H 4623.35 1.33159 5.33431 0
M  V30 50623 H 4624.57 1.57218 6.60651 0
M  V30 50624 H 4622.52 -0.670386 6.52566 0
M  V30 50625 H 4622.43 0.744421 7.52326 0
M  V30 50626 H 4623.7 -0.415835 7.7839 0
M  V30 50627 N 4627.93 -1.42001 0.683638 0
M  V30 50628 C 4629.18 -2.01711 0.209896 0
M  V30 50629 C 4629.51 -1.53973 -1.18347 0
M  V30 50630 O 4628.79 -0.745724 -1.79636 0
M  V30 50631 C 4629.07 -3.59201 0.254323 0
M  V30 50632 C 4628.92 -4.17096 1.68378 0
M  V30 50633 C 4630.24 -4.38346 -0.392555 0
M  V30 50634 H 4627.36 -0.732888 0.0777446 0
M  V30 50635 H 4630 -1.68906 0.8701 0
M  V30 50636 H 4628.15 -3.87279 -0.307817 0
M  V30 50637 H 4629.82 -3.99938 2.29885 0
M  V30 50638 H 4628.07 -3.72589 2.2217 0
M  V30 50639 H 4628.74 -5.26244 1.66649 0
M  V30 50640 H 4631.21 -4.16011 0.0860625 0
M  V30 50641 H 4630.09 -5.47902 -0.330871 0
M  V30 50642 H 4630.35 -4.16893 -1.47149 0
M  V30 50643 N 4629.41 -0.427565 -1.51689 0
M  V30 50644 C 4630.34 0.379519 -2.30395 0
M  V30 50645 C 4631.32 1.02977 -1.35387 0
M  V30 50646 O 4632.51 1.03528 -1.64303 0
M  V30 50647 C 4629.64 1.48638 -3.13885 0
M  V30 50648 C 4628.59 0.960148 -4.17091 0
M  V30 50649 C 4627.92 2.16202 -4.89041 0
M  V30 50650 C 4629.22 0.00135318 -5.223 0
M  V30 50651 H 4630.91 -0.277268 -2.98113 0
M  V30 50652 H 4628.46 -0.134789 -1.43368 0
M  V30 50653 H 4630.41 2.05813 -3.67721 0
M  V30 50654 H 4629.13 2.17132 -2.4397 0
M  V30 50655 H 4627.79 0.410678 -3.64292 0
M  V30 50656 H 4627.44 2.83292 -4.15638 0
M  V30 50657 H 4627.14 1.81634 -5.58823 0
M  V30 50658 H 4628.66 2.73948 -5.45696 0
M  V30 50659 H 4630.08 0.482486 -5.71266 0
M  V30 50660 H 4628.47 -0.25641 -5.99552 0
M  V30 50661 H 4629.54 -0.938341 -4.75734 0
M  V30 50662 N 4630.89 1.568 -0.158588 0
M  V30 50663 C 4631.83 2.1734 0.776653 0
M  V30 50664 C 4632.8 1.10964 1.23597 0
M  V30 50665 O 4633.99 1.39058 1.30642 0
M  V30 50666 C 4631.13 2.80829 2.00572 0
M  V30 50667 C 4630.24 4.0163 1.59115 0
M  V30 50668 C 4629.38 4.53082 2.7729 0
M  V30 50669 C 4628.42 5.66322 2.32262 0
M  V30 50670 N 4627.55 6.12341 3.43486 0
M  V30 50671 H 4632.39 2.96919 0.253597 0
M  V30 50672 H 4629.93 1.46662 0.113452 0
M  V30 50673 H 4631.89 3.15789 2.72641 0
M  V30 50674 H 4630.52 2.03875 2.50269 0
M  V30 50675 H 4629.57 3.72573 0.767675 0
M  V30 50676 H 4630.88 4.83637 1.22053 0
M  V30 50677 H 4630.04 4.90158 3.57534 0
M  V30 50678 H 4628.78 3.70106 3.17604 0
M  V30 50679 H 4627.78 5.28811 1.50462 0
M  V30 50680 H 4629.01 6.51091 1.9302 0
M  V30 50681 H 4626.95 5.32298 3.834 0
M  V30 50682 H 4626.87 6.89304 3.10476 0
M  V30 50683 H 4628.14 6.54064 4.24052 0
M  V30 50684 N 4632.37 -0.115176 1.57179 0
M  V30 50685 C 4633.31 -1.16007 2.01606 0
M  V30 50686 C 4634.31 -1.4265 0.913637 0
M  V30 50687 O 4635.51 -1.42568 1.09884 0
M  V30 50688 H 4631.89 -0.39123 0.642217 0
M  V30 50689 H 4633.86 -0.758896 2.88589 0
M  V30 50690 C 4632.61 -2.47759 2.43949 0
M  V30 50691 H 4631.93 -2.28096 3.28348 0
M  V30 50692 H 4633.37 -3.19422 2.78829 0
M  V30 50693 C 4631.83 -3.10613 1.30465 0
M  V30 50694 O 4632.36 -3.96844 0.622724 0
M  V30 50695 N 4630.57 -2.70549 1.06074 0
M  V30 50696 H 4630.11 -2.00521 1.61707 0
M  V30 50697 H 4630.07 -3.12933 0.303394 0
M  V30 50698 N 4633.84 -1.52813 -0.385464 0
M  V30 50699 C 4634.79 -1.77843 -1.47107 0
M  V30 50700 C 4635.76 -0.621812 -1.54022 0
M  V30 50701 O 4636.95 -0.861905 -1.70223 0
M  V30 50702 C 4634.09 -1.95628 -2.84295 0
M  V30 50703 C 4633.2 -3.23326 -2.86504 0
M  V30 50704 C 4632.33 -3.31409 -4.15141 0
M  V30 50705 C 4631.37 -4.53216 -4.11415 0
M  V30 50706 N 4630.51 -4.5856 -5.31664 0
M  V30 50707 H 4635.35 -2.70487 -1.25064 0
M  V30 50708 H 4632.89 -1.34008 -0.606645 0
M  V30 50709 H 4634.84 -2.03925 -3.63965 0
M  V30 50710 H 4633.47 -1.06342 -3.04781 0
M  V30 50711 H 4632.53 -3.24083 -1.99184 0
M  V30 50712 H 4633.84 -4.13055 -2.79619 0
M  V30 50713 H 4632.99 -3.38907 -5.03216 0
M  V30 50714 H 4631.73 -2.3966 -4.24752 0
M  V30 50715 H 4630.74 -4.45839 -3.21727 0
M  V30 50716 H 4631.96 -5.46285 -4.03423 0
M  V30 50717 H 4629.91 -3.69705 -5.41899 0
M  V30 50718 H 4629.82 -5.42166 -5.2687 0
M  V30 50719 H 4631.09 -4.70318 -6.21628 0
M  V30 50720 N 4635.32 0.644118 -1.43836 0
M  V30 50721 C 4636.57 1.4039 -1.45935 0
M  V30 50722 C 4636.9 1.94305 -0.0870341 0
M  V30 50723 O 4636.15 1.73291 0.909317 0
M  V30 50724 C 4636.45 2.59607 -2.4564 0
M  V30 50725 C 4636.12 2.24056 -3.91292 0
M  V30 50726 C 4634.78 2.14073 -4.30959 0
M  V30 50727 C 4637.13 1.95758 -4.83041 0
M  V30 50728 C 4634.46 1.73961 -5.60316 0
M  V30 50729 C 4636.81 1.57141 -6.12772 0
M  V30 50730 C 4635.47 1.4569 -6.51407 0
M  V30 50731 H 4634.74 0.513722 -0.534014 0
M  V30 50732 H 4637.39 0.731662 -1.76972 0
M  V30 50733 H 4635.7 3.32004 -2.0804 0
M  V30 50734 H 4637.39 3.17826 -2.44515 0
M  V30 50735 H 4633.98 2.3274 -3.59903 0
M  V30 50736 H 4638.17 2.02387 -4.53159 0
M  V30 50737 H 4633.42 1.63689 -5.89081 0
M  V30 50738 H 4637.6 1.34279 -6.83332 0
M  V30 50739 H 4635.22 1.1438 -7.51546 0
M  V30 50740 N 4636.8 1.30518 0.883332 0
M  V30 50741 C 4638.22 1.08885 1.16688 0
M  V30 50742 C 4638.42 -0.149338 2.00946 0
M  V30 50743 O 4637.47 -0.842486 2.3803 0
M  V30 50744 C 4638.78 2.35325 1.87196 0
M  V30 50745 C 4640.33 2.40806 1.99954 0
M  V30 50746 C 4640.81 3.67092 2.73874 0
M  V30 50747 N 4642.3 3.6791 2.81419 0
M  V30 50748 C 4643.03 4.62315 3.39194 0
M  V30 50749 N 4642.53 5.67066 3.98005 0
M  V30 50750 N 4644.32 4.49857 3.37024 0
M  V30 50751 H 4636.47 2.09952 0.321559 0
M  V30 50752 H 4638.74 0.925567 0.20501 0
M  V30 50753 H 4638.44 3.25693 1.32728 0
M  V30 50754 H 4638.32 2.44099 2.87568 0
M  V30 50755 H 4640.7 1.50916 2.53591 0
M  V30 50756 H 4640.78 2.36006 0.986647 0
M  V30 50757 H 4640.43 4.57342 2.20909 0
M  V30 50758 H 4640.36 3.69154 3.75543 0
M  V30 50759 H 4642.85 2.9218 2.39665 0
M  V30 50760 H 4643.16 6.352 4.4016 0
M  V30 50761 H 4641.51 5.70856 3.96419 0
M  V30 50762 H 4644.7 3.67204 2.90308 0
M  V30 50763 H 4644.87 5.2361 3.81754 0
M  V30 50764 N 4638.28 -1.09589 1.13261 0
M  V30 50765 C 4639.5 -1.86037 0.916798 0
M  V30 50766 C 4639.93 -1.80506 -0.529082 0
M  V30 50767 O 4639.29 -1.18132 -1.3753 0
M  V30 50768 C 4639.33 -3.32012 1.40715 0
M  V30 50769 O 4638.44 -4.08139 0.591296 0
M  V30 50770 H 4637.78 -0.576932 0.328703 0
M  V30 50771 H 4640.31 -1.384 1.50687 0
M  V30 50772 H 4640.32 -3.8286 1.41004 0
M  V30 50773 H 4638.99 -3.35353 2.45991 0
M  V30 50774 H 4637.57 -3.67082 0.656134 0
M  V30 50775 N 4639.76 -0.925856 -1.27537 0
M  V30 50776 C 4640.7 -0.422124 -2.26907 0
M  V30 50777 C 4641.67 0.509973 -1.58077 0
M  V30 50778 O 4642.86 0.429533 -1.85902 0
M  V30 50779 C 4640 0.320716 -3.43606 0
M  V30 50780 C 4639.11 -0.64528 -4.27154 0
M  V30 50781 C 4638.25 0.117218 -5.31071 0
M  V30 50782 C 4637.28 -0.841604 -6.06287 0
M  V30 50783 N 4636.42 -0.111851 -7.02011 0
M  V30 50784 H 4641.26 -1.2745 -2.6937 0
M  V30 50785 H 4638.8 -0.639744 -1.3246 0
M  V30 50786 H 4640.76 0.767706 -4.10076 0
M  V30 50787 H 4639.39 1.13735 -3.021 0
M  V30 50788 H 4638.44 -1.2108 -3.60616 0
M  V30 50789 H 4639.75 -1.37813 -4.79384 0
M  V30 50790 H 4638.9 0.62421 -6.0348 0
M  V30 50791 H 4637.64 0.88305 -4.79639 0
M  V30 50792 H 4636.65 -1.35986 -5.32717 0
M  V30 50793 H 4637.87 -1.60719 -6.59808 0
M  V30 50794 H 4635.82 0.63577 -6.52912 0
M  V30 50795 H 4635.74 -0.784309 -7.51921 0
M  V30 50796 H 4637 0.374549 -7.786 0
M  V30 50797 N 4641.23 1.41636 -0.691159 0
M  V30 50798 C 4642.18 2.30788 -0.0230516 0
M  V30 50799 C 4643.15 1.46866 0.775859 0
M  V30 50800 O 4644.34 1.75663 0.744789 0
M  V30 50801 C 4641.48 3.32871 0.910549 0
M  V30 50802 C 4640.59 4.31875 0.103722 0
M  V30 50803 C 4639.72 5.21028 1.03456 0
M  V30 50804 C 4638.76 6.11703 0.220383 0
M  V30 50805 N 4637.9 6.93353 1.10479 0
M  V30 50806 H 4642.74 2.87363 -0.789079 0
M  V30 50807 H 4640.28 1.41533 -0.400844 0
M  V30 50808 H 4642.23 3.90601 1.46583 0
M  V30 50809 H 4640.86 2.77857 1.64302 0
M  V30 50810 H 4639.92 3.76129 -0.568417 0
M  V30 50811 H 4641.23 4.96001 -0.527678 0
M  V30 50812 H 4640.38 5.83571 1.65922 0
M  V30 50813 H 4639.12 4.57118 1.69983 0
M  V30 50814 H 4638.13 5.48213 -0.417379 0
M  V30 50815 H 4639.35 6.77666 -0.441022 0
M  V30 50816 H 4637.3 6.32056 1.75616 0
M  V30 50817 H 4637.21 7.54148 0.528859 0
M  V30 50818 H 4638.48 7.60368 1.7164 0
M  V30 50819 N 4642.71 0.435603 1.5146 0
M  V30 50820 C 4643.94 -0.129981 2.06191 0
M  V30 50821 C 4644.35 -1.3716 1.30322 0
M  V30 50822 O 4643.69 -1.80224 0.355662 0
M  V30 50823 C 4643.76 -0.519293 3.5573 0
M  V30 50824 C 4643.42 0.615278 4.52839 0
M  V30 50825 C 4644.42 1.48689 4.98184 0
M  V30 50826 C 4642.1 0.795515 4.95961 0
M  V30 50827 C 4644.1 2.52345 5.85321 0
M  V30 50828 C 4641.78 1.83535 5.82888 0
M  V30 50829 C 4642.78 2.6977 6.27466 0
M  V30 50830 O 4642.47 3.71969 7.12667 0
M  V30 50831 H 4642.2 -0.0121375 0.675891 0
M  V30 50832 H 4644.75 0.612969 1.9604 0
M  V30 50833 H 4642.98 -1.31492 3.63657 0
M  V30 50834 H 4644.67 -1.01583 3.92983 0
M  V30 50835 H 4645.44 1.35916 4.65566 0
M  V30 50836 H 4641.32 0.133875 4.60806 0
M  V30 50837 H 4644.86 3.19687 6.20037 0
M  V30 50838 H 4640.76 1.96328 6.14919 0
M  V30 50839 H 4641.53 3.68529 7.30841 0
M  V30 50840 N 4644.19 -1.56714 0.166901 0
M  V30 50841 C 4645.44 -1.96749 -0.479183 0
M  V30 50842 C 4645.77 -1.05269 -1.6355 0
M  V30 50843 O 4645.02 -0.0858785 -1.95511 0
M  V30 50844 C 4645.32 -3.42893 -1.00794 0
M  V30 50845 C 4644.99 -4.50889 0.0320159 0
M  V30 50846 C 4643.65 -4.80149 0.317844 0
M  V30 50847 C 4646 -5.15947 0.738138 0
M  V30 50848 C 4643.33 -5.71767 1.31526 0
M  V30 50849 C 4645.68 -6.08641 1.72451 0
M  V30 50850 C 4644.34 -6.3627 2.01783 0
M  V30 50851 H 4643.61 -0.719955 -0.175345 0
M  V30 50852 H 4646.26 -1.89755 0.257931 0
M  V30 50853 H 4644.57 -3.46816 -1.82279 0
M  V30 50854 H 4646.26 -3.71208 -1.51676 0
M  V30 50855 H 4642.85 -4.28129 -0.200938 0
M  V30 50856 H 4647.04 -4.93456 0.530524 0
M  V30 50857 H 4642.29 -5.91459 1.54874 0
M  V30 50858 H 4646.47 -6.58121 2.27705 0
M  V30 50859 H 4644.09 -7.07065 2.79219 0
M  V30 50860 N 4645.67 0.106839 -1.57237 0
M  V30 50861 C 4646.63 1.11459 -2.00274 0
M  V30 50862 C 4647.63 1.33619 -0.894566 0
M  V30 50863 O 4648.82 1.29931 -1.16033 0
M  V30 50864 C 4645.95 2.46637 -2.35335 0
M  V30 50865 H 4647.15 0.744414 -2.90514 0
M  V30 50866 H 4644.7 0.351523 -1.52296 0
M  V30 50867 H 4645.43 2.88553 -1.48013 0
M  V30 50868 H 4645.22 2.31904 -3.1617 0
M  V30 50869 H 4646.71 3.19142 -2.6933 0
M  V30 50870 N 4647.15 1.53016 0.377354 0
M  V30 50871 C 4648.09 1.78621 1.46162 0
M  V30 50872 C 4649.06 0.629971 1.5369 0
M  V30 50873 O 4650.25 0.870921 1.69763 0
M  V30 50874 C 4647.39 1.97133 2.83253 0
M  V30 50875 C 4646.5 3.24841 2.84785 0
M  V30 50876 C 4645.64 3.33606 4.13377 0
M  V30 50877 C 4644.68 4.55391 4.09005 0
M  V30 50878 N 4643.81 4.61373 5.29225 0
M  V30 50879 H 4648.65 2.71146 1.23628 0
M  V30 50880 H 4646.19 1.34328 0.599529 0
M  V30 50881 H 4648.15 2.05852 3.62879 0
M  V30 50882 H 4646.78 1.07957 3.04212 0
M  V30 50883 H 4645.83 3.25135 1.97462 0
M  V30 50884 H 4647.14 4.14532 2.77425 0
M  V30 50885 H 4646.3 3.41571 5.01412 0
M  V30 50886 H 4645.03 2.41909 4.23475 0
M  V30 50887 H 4644.04 4.47538 3.19358 0
M  V30 50888 H 4645.26 5.48417 4.0052 0
M  V30 50889 H 4643.21 3.72573 5.39931 0
M  V30 50890 H 4643.13 5.44953 5.23987 0
M  V30 50891 H 4644.4 4.73608 6.19125 0
M  V30 50892 N 4648.62 -0.636481 1.44176 0
M  V30 50893 C 4649.57 -1.74227 1.47067 0
M  V30 50894 C 4650.56 -1.57329 0.337089 0
M  V30 50895 O 4651.75 -1.67157 0.582031 0
M  V30 50896 C 4648.88 -3.12892 1.41257 0
M  V30 50897 C 4647.97 -3.35278 2.5971 0
M  V30 50898 N 4648.36 -3.28057 3.84984 0
M  V30 50899 C 4646.65 -3.66057 2.54791 0
M  V30 50900 C 4647.36 -3.50985 4.6388 0
M  V30 50901 N 4646.33 -3.73603 3.9487 0
M  V30 50902 H 4650.13 -1.67094 2.41778 0
M  V30 50903 H 4647.65 -0.838757 1.39063 0
M  V30 50904 H 4649.64 -3.92184 1.41412 0
M  V30 50905 H 4648.3 -3.21195 0.475803 0
M  V30 50906 H 4649.32 -3.07094 4.17029 0
M  V30 50907 H 4645.99 -3.81374 1.69884 0
M  V30 50908 H 4647.38 -3.51039 5.72906 0
M  V30 50909 N 4650.1 -1.30985 -0.876398 0
M  V30 50910 C 4651.51 -1.18282 -1.44451 0
M  V30 50911 C 4651.86 0.213197 -1.95038 0
M  V30 50912 O 4650.99 1.11051 -1.85733 0
M  V30 50913 C 4651.58 -2.14119 -2.62561 0
M  V30 50914 C 4650.14 -2.05369 -3.15437 0
M  V30 50915 C 4649.29 -2.03713 -1.88139 0
M  V30 50916 H 4652.24 -1.4313 -0.685534 0
M  V30 50917 H 4652.26 -1.72704 -3.39048 0
M  V30 50918 H 4651.77 -3.15714 -2.25713 0
M  V30 50919 H 4649.88 -1.06946 -3.56922 0
M  V30 50920 H 4649.99 -2.94169 -3.78155 0
M  V30 50921 H 4648.35 -1.48636 -2.06832 0
M  V30 50922 H 4649.14 -3.07053 -1.53537 0
M  V30 50923 N 4651.58 1.08987 -1.13841 0
M  V30 50924 C 4653 1.33309 -0.877552 0
M  V30 50925 C 4653.2 1.95589 0.484491 0
M  V30 50926 O 4652.25 2.20513 1.23005 0
M  V30 50927 C 4653.57 2.24038 -2.00568 0
M  V30 50928 C 4655.11 2.37535 -2.03829 0
M  V30 50929 C 4655.59 3.31603 -3.15917 0
M  V30 50930 N 4657.08 3.39178 -3.15457 0
M  V30 50931 C 4657.81 4.11978 -3.98826 0
M  V30 50932 N 4657.31 4.87536 -4.9222 0
M  V30 50933 N 4659.1 4.07748 -3.86908 0
M  V30 50934 H 4651.25 0.669385 -2.01576 0
M  V30 50935 H 4653.52 0.357451 -0.878028 0
M  V30 50936 H 4653.22 1.85511 -2.98795 0
M  V30 50937 H 4653.1 3.24459 -1.9237 0
M  V30 50938 H 4655.48 2.75324 -1.06211 0
M  V30 50939 H 4655.57 1.36877 -2.16098 0
M  V30 50940 H 4655.21 2.94536 -4.13776 0
M  V30 50941 H 4655.14 4.32175 -3.00885 0
M  V30 50942 H 4657.63 2.85306 -2.47809 0
M  V30 50943 H 4657.94 5.4053 -5.52311 0
M  V30 50944 H 4656.29 4.86609 -4.96222 0
M  V30 50945 H 4659.48 3.47822 -3.13269 0
M  V30 50946 H 4659.65 4.64222 -4.52108 0
M  V30 50947 N 4653.06 0.932607 1.27044 0
M  V30 50948 C 4653.99 0.452983 2.29064 0
M  V30 50949 C 4654.97 -0.489281 1.62911 0
M  V30 50950 O 4656.15 -0.392979 1.90182 0
M  V30 50951 C 4653.28 -0.290576 3.46082 0
M  V30 50952 C 4652.24 0.564317 4.24263 0
M  V30 50953 C 4651.56 -0.308699 5.33808 0
M  V30 50954 C 4652.86 1.8313 4.89143 0
M  V30 50955 H 4654.56 1.30561 2.69433 0
M  V30 50956 H 4652.1 0.629247 1.29524 0
M  V30 50957 H 4654.06 -0.637086 4.16556 0
M  V30 50958 H 4652.78 -1.17728 3.04644 0
M  V30 50959 H 4651.44 0.893602 3.55542 0
M  V30 50960 H 4651.09 -1.1945 4.88611 0
M  V30 50961 H 4650.79 0.259839 5.87025 0
M  V30 50962 H 4652.31 -0.650671 6.07123 0
M  V30 50963 H 4653.73 1.55256 5.51877 0
M  V30 50964 H 4652.12 2.34372 5.5244 0
M  V30 50965 H 4653.19 2.54787 4.12567 0
M  V30 50966 N 4654.54 -1.41267 0.698661 0
M  V30 50967 C 4655.78 -2.00781 0.23048 0
M  V30 50968 C 4656.11 -1.55624 -1.175 0
M  V30 50969 O 4655.38 -0.788213 -1.79343 0
M  V30 50970 H 4653.96 -0.742461 0.0822205 0
M  V30 50971 H 4656.62 -1.72849 0.900511 0
M  V30 50972 H 4655.71 -3.11095 0.250319 0
M  V30 50973 N 4656.01 -0.44363 -1.51227 0
M  V30 50974 C 4657.24 0.119044 -2.06257 0
M  V30 50975 C 4657.65 1.36467 -1.31048 0
M  V30 50976 O 4657 1.80033 -0.365214 0
M  V30 50977 C 4657.06 0.500421 -3.56 0
M  V30 50978 C 4656.72 -0.639284 -4.52507 0
M  V30 50979 C 4657.72 -1.51328 -4.97389 0
M  V30 50980 C 4655.4 -0.821806 -4.95532 0
M  V30 50981 C 4657.4 -2.55445 -5.83975 0
M  V30 50982 C 4655.08 -1.86624 -5.81906 0
M  V30 50983 C 4656.08 -2.73094 -6.26026 0
M  V30 50984 O 4655.77 -3.75743 -7.10685 0
M  V30 50985 H 4655.5 0.00855289 -0.675946 0
M  V30 50986 H 4658.06 -0.623357 -1.95713 0
M  V30 50987 H 4656.29 1.29562 -3.6435 0
M  V30 50988 H 4657.98 0.994978 -3.93516 0
M  V30 50989 H 4658.74 -1.38384 -4.64839 0
M  V30 50990 H 4654.62 -0.158311 -4.60728 0
M  V30 50991 H 4658.16 -3.22971 -6.18333 0
M  V30 50992 H 4654.06 -1.99586 -6.13869 0
M  V30 50993 H 4654.83 -3.72399 -7.28876 0
M  V30 50994 N 4657.49 1.56623 -0.175209 0
M  V30 50995 C 4658.42 2.21157 0.749117 0
M  V30 50996 C 4659.4 1.1684 1.23622 0
M  V30 50997 O 4660.59 1.45282 1.28868 0
M  V30 50998 C 4657.72 2.85537 1.97701 0
M  V30 50999 C 4656.67 3.95927 1.62561 0
M  V30 51000 C 4656 4.47375 2.92848 0
M  V30 51001 C 4657.3 5.15326 0.850657 0
M  V30 51002 H 4658.99 2.98654 0.21119 0
M  V30 51003 H 4656.54 1.43651 0.100138 0
M  V30 51004 H 4658.49 3.29359 2.6287 0
M  V30 51005 H 4657.22 2.05415 2.53914 0
M  V30 51006 H 4655.88 3.52766 0.997595 0
M  V30 51007 H 4655.52 3.64039 3.47109 0
M  V30 51008 H 4655.22 5.21849 2.70088 0
M  V30 51009 H 4656.75 4.93886 3.59039 0
M  V30 51010 H 4658.16 5.55817 1.40501 0
M  V30 51011 H 4656.56 5.95742 0.721945 0
M  V30 51012 H 4657.63 4.84661 -0.152252 0
M  V30 51013 N 4658.97 -0.0984986 1.57292 0
M  V30 51014 C 4660.38 -0.653395 1.74893 0
M  V30 51015 C 4660.73 -1.79287 0.796901 0
M  V30 51016 O 4659.86 -2.16385 -0.0254125 0
M  V30 51017 C 4660.45 -1.19205 3.17137 0
M  V30 51018 C 4659.01 -1.69304 3.36174 0
M  V30 51019 C 4658.16 -0.601199 2.70704 0
M  V30 51020 H 4661.11 0.127552 1.58187 0
M  V30 51021 H 4661.13 -2.06143 3.19821 0
M  V30 51022 H 4660.64 -0.362499 3.86403 0
M  V30 51023 H 4658.74 -2.5467 2.71981 0
M  V30 51024 H 4658.86 -1.78837 4.4447 0
M  V30 51025 H 4657.22 -1.03982 2.32508 0
M  V30 51026 H 4658 0.217712 3.42609 0
M  V30 51027 N 4660.45 -1.53214 -0.369234 0
M  V30 51028 C 4661.7 -1.6947 -1.11391 0
M  V30 51029 C 4662.03 -0.443324 -1.89072 0
M  V30 51030 O 4661.3 0.559321 -1.86284 0
M  V30 51031 C 4661.59 -2.94227 -2.07611 0
M  V30 51032 C 4661.44 -4.29513 -1.33562 0
M  V30 51033 C 4662.76 -3.14576 -3.07783 0
M  V30 51034 H 4659.88 -0.616681 -0.403575 0
M  V30 51035 H 4662.52 -1.85846 -0.395114 0
M  V30 51036 H 4660.67 -2.80396 -2.68906 0
M  V30 51037 H 4662.34 -4.55149 -0.750795 0
M  V30 51038 H 4660.58 -4.29091 -0.637467 0
M  V30 51039 H 4661.26 -5.12933 -2.03971 0
M  V30 51040 H 4663.73 -3.27569 -2.56589 0
M  V30 51041 H 4662.61 -4.0331 -3.72334 0
M  V30 51042 H 4662.87 -2.29689 -3.77751 0
M  V30 51043 N 4661.93 0.628826 -1.44511 0
M  V30 51044 C 4662.86 1.75395 -1.47544 0
M  V30 51045 C 4663.87 1.58573 -0.368562 0
M  V30 51046 O 4665.06 1.66845 -0.634434 0
M  V30 51047 C 4662.16 3.13146 -1.29588 0
M  V30 51048 C 4661.33 3.56404 -2.53564 0
M  V30 51049 C 4660.39 4.73041 -2.30474 0
M  V30 51050 O 4659.42 4.81236 -3.03974 0
M  V30 51051 N 4660.62 5.64898 -1.3368 0
M  V30 51052 H 4663.39 1.73264 -2.4454 0
M  V30 51053 H 4660.95 0.813463 -1.3998 0
M  V30 51054 H 4662.94 3.88898 -1.11985 0
M  V30 51055 H 4661.51 3.09906 -0.40948 0
M  V30 51056 H 4660.73 2.70837 -2.86428 0
M  V30 51057 H 4662.02 3.82059 -3.36018 0
M  V30 51058 H 4661.42 5.60973 -0.729801 0
M  V30 51059 H 4659.97 6.4027 -1.22054 0
M  V30 51060 N 4663.41 1.31448 0.869439 0
M  V30 51061 C 4664.63 1.24127 1.65529 0
M  V30 51062 C 4665.05 -0.193321 1.87808 0
M  V30 51063 O 4664.41 -1.12552 1.4366 0
M  V30 51064 C 4664.46 1.98239 3.02297 0
M  V30 51065 O 4664.18 3.36099 2.81014 0
M  V30 51066 C 4665.68 1.97765 3.96742 0
M  V30 51067 H 4662.9 0.428887 0.51604 0
M  V30 51068 H 4665.44 1.73332 1.08519 0
M  V30 51069 H 4663.6 1.52794 3.55995 0
M  V30 51070 H 4664.01 3.73843 3.67888 0
M  V30 51071 H 4665.49 2.54131 4.90022 0
M  V30 51072 H 4665.96 0.960288 4.28573 0
M  V30 51073 H 4666.57 2.43091 3.4898 0
M  V30 51074 N 4664.88 -1.08381 1.14417 0
M  V30 51075 C 4666.13 -1.81041 0.913897 0
M  V30 51076 C 4666.46 -1.86006 -0.558144 0
M  V30 51077 O 4665.74 -1.33611 -1.41345 0
M  V30 51078 C 4666.02 -3.26643 1.51581 0
M  V30 51079 C 4665.87 -3.29885 3.05771 0
M  V30 51080 C 4667.19 -4.23625 1.19288 0
M  V30 51081 H 4664.31 -0.657259 0.333437 0
M  V30 51082 H 4666.95 -1.26891 1.41416 0
M  V30 51083 H 4665.1 -3.72885 1.09036 0
M  V30 51084 H 4666.78 -2.91964 3.57148 0
M  V30 51085 H 4665.02 -2.69151 3.40206 0
M  V30 51086 H 4665.69 -4.32504 3.42993 0
M  V30 51087 H 4668.17 -3.85722 1.5607 0
M  V30 51088 H 4667.04 -5.23816 1.64036 0
M  V30 51089 H 4667.3 -4.41968 0.108223 0
M  V30 51090 N 4666.36 -0.939331 -1.26548 0
M  V30 51091 C 4667.29 -0.465124 -2.28821 0
M  V30 51092 C 4668.27 0.480635 -1.63168 0
M  V30 51093 O 4669.46 0.382888 -1.90388 0
M  V30 51094 C 4666.59 0.272219 -3.46232 0
M  V30 51095 C 4665.54 -0.586809 -4.23958 0
M  V30 51096 C 4664.87 0.280385 -5.33964 0
M  V30 51097 C 4666.17 -1.85721 -4.88165 0
M  V30 51098 H 4667.86 -1.31989 -2.68737 0
M  V30 51099 H 4665.41 -0.636107 -1.29189 0
M  V30 51100 H 4667.36 0.614986 -4.16888 0
M  V30 51101 H 4666.08 1.1611 -3.05264 0
M  V30 51102 H 4664.74 -0.912445 -3.55063 0
M  V30 51103 H 4664.39 1.16857 -4.89238 0
M  V30 51104 H 4664.09 -0.290967 -5.86879 0
M  V30 51105 H 4665.62 0.618464 -6.0746 0
M  V30 51106 H 4667.03 -1.5818 -5.51046 0
M  V30 51107 H 4665.43 -2.37299 -5.51189 0
M  V30 51108 H 4666.5 -2.56971 -4.1121 0
M  V30 51109 N 4667.84 1.40895 -0.706143 0
M  V30 51110 C 4668.75 2.3455 -0.048311 0
M  V30 51111 C 4669.77 1.56798 0.754341 0
M  V30 51112 O 4670.94 1.89231 0.689472 0
M  V30 51113 C 4668.01 3.35628 0.869185 0
M  V30 51114 C 4667.07 4.29261 0.0575485 0
M  V30 51115 C 4666.3 5.25511 0.931347 0
M  V30 51116 O 4666.52 5.2748 2.17073 0
M  V30 51117 O 4665.46 6.00728 0.375376 0
M  V30 51118 H 4669.28 2.92404 -0.820579 0
M  V30 51119 H 4666.87 1.41928 -0.46655 0
M  V30 51120 H 4668.75 3.9764 1.395 0
M  V30 51121 H 4667.43 2.80202 1.62076 0
M  V30 51122 H 4666.33 3.70564 -0.513118 0
M  V30 51123 H 4667.67 4.87814 -0.655597 0
M  V30 51124 N 4669.32 0.451643 1.5099 0
M  V30 51125 C 4670.57 -0.109786 2.01802 0
M  V30 51126 C 4670.89 -1.41953 1.33695 0
M  V30 51127 O 4670.16 -1.90029 0.476017 0
M  V30 51128 H 4668.74 -0.0435622 0.745729 0
M  V30 51129 H 4671.4 0.597622 1.85511 0
M  V30 51130 H 4670.49 -0.27538 3.10883 0
M  V30 51131 N 4670.8 -1.56528 0.183513 0
M  V30 51132 C 4672.07 -1.88961 -0.505293 0
M  V30 51133 C 4672.45 -1.09529 -1.80462 0
M  V30 51134 O 4671.8 -0.19286 -2.27685 0
M  V30 51135 C 4672.01 -3.41165 -0.73535 0
M  V30 51136 C 4673.36 -4.11158 -1.05991 0
M  V30 51137 O 4674.38 -3.46551 -0.823472 0
M  V30 51138 O 4673.24 -5.25323 -1.50657 0
M  V30 51139 H 4670.34 -0.784419 -0.261946 0
M  V30 51140 H 4672.88 -1.6823 0.222861 0
M  V30 51141 H 4671.65 -3.90873 0.182698 0
M  V30 51142 H 4671.28 -3.67548 -1.51638 0
M  V30 51143 N 4672.27 0.0901557 -1.57342 0
M  V30 51144 C 4673.22 1.12785 -2.03426 0
M  V30 51145 C 4674.22 1.41178 -0.936216 0
M  V30 51146 O 4675.42 1.40801 -1.12138 0
M  V30 51147 H 4671.8 0.380963 -0.64836 0
M  V30 51148 H 4673.77 0.712888 -2.89759 0
M  V30 51149 C 4672.52 2.43846 -2.47859 0
M  V30 51150 H 4671.84 2.22844 -3.31935 0
M  V30 51151 H 4673.28 3.14945 -2.83876 0
M  V30 51152 C 4671.74 3.08498 -1.3539 0
M  V30 51153 O 4672.27 3.95803 -0.68578 0
M  V30 51154 N 4670.48 2.68827 -1.10364 0
M  V30 51155 H 4670.02 1.97923 -1.64876 0
M  V30 51156 H 4669.98 3.1241 -0.353141 0
M  V30 51157 N 4673.75 1.53407 0.361103 0
M  V30 51158 C 4674.68 1.83141 1.4485 0
M  V30 51159 C 4675.66 0.685228 1.55688 0
M  V30 51160 O 4676.85 0.9355 1.70182 0
M  V30 51161 C 4673.98 2.02532 2.82131 0
M  V30 51162 C 4672.93 3.18312 2.86115 0
M  V30 51163 C 4672.26 3.23004 4.26113 0
M  V30 51164 C 4673.56 4.56805 2.53232 0
M  V30 51165 H 4675.25 2.74205 1.20216 0
M  V30 51166 H 4672.8 1.3194 0.576875 0
M  V30 51167 H 4674.75 2.21916 3.58233 0
M  V30 51168 H 4673.48 1.08183 3.08162 0
M  V30 51169 H 4672.13 2.98755 2.12464 0
M  V30 51170 H 4671.78 2.26283 4.49227 0
M  V30 51171 H 4671.48 4.00796 4.29694 0
M  V30 51172 H 4673.01 3.44577 5.04082 0
M  V30 51173 H 4674.42 4.76321 3.19048 0
M  V30 51174 H 4672.82 5.36871 2.68122 0
M  V30 51175 H 4673.89 4.61612 1.48468 0
M  V30 51176 N 4675.23 -0.621153 1.44843 0
M  V30 51177 C 4676.14 -1.76115 1.54986 0
M  V30 51178 C 4677.16 -1.68475 0.434987 0
M  V30 51179 O 4678.33 -1.89074 0.693759 0
M  V30 51180 C 4675.4 -3.12535 1.50075 0
M  V30 51181 C 4674.46 -3.31731 2.72494 0
M  V30 51182 C 4673.69 -4.61643 2.67808 0
M  V30 51183 O 4673.91 -5.43094 1.74371 0
M  V30 51184 O 4672.85 -4.83258 3.58811 0
M  V30 51185 H 4676.67 -1.70509 2.51317 0
M  V30 51186 H 4674.26 -0.783598 1.27201 0
M  V30 51187 H 4676.14 -3.93839 1.49896 0
M  V30 51188 H 4674.82 -3.18661 0.568918 0
M  V30 51189 H 4673.72 -2.50067 2.78239 0
M  V30 51190 H 4675.06 -3.30473 3.64758 0
M  V30 51191 N 4676.71 -1.31907 -0.862456 0
M  V30 51192 C 4677.94 -1.25004 -1.64869 0
M  V30 51193 C 4678.35 0.183359 -1.87908 0
M  V30 51194 O 4677.71 1.11789 -1.44255 0
M  V30 51195 C 4677.76 -1.9984 -3.01241 0
M  V30 51196 O 4677.48 -3.37585 -2.79228 0
M  V30 51197 C 4678.98 -1.99866 -3.95687 0
M  V30 51198 H 4676.2 -0.431617 -0.513758 0
M  V30 51199 H 4678.75 -1.73905 -1.07598 0
M  V30 51200 H 4676.9 -1.5468 -3.5518 0
M  V30 51201 H 4677.31 -3.75788 -3.65901 0
M  V30 51202 H 4678.79 -2.56726 -4.88667 0
M  V30 51203 H 4679.27 -0.983003 -4.28058 0
M  V30 51204 H 4679.87 -2.44939 -3.47685 0
M  V30 51205 N 4678.19 1.07773 -1.1499 0
M  V30 51206 C 4679.6 1.61763 -0.932184 0
M  V30 51207 C 4679.95 1.88975 0.527514 0
M  V30 51208 O 4679.07 1.65203 1.39775 0
M  V30 51209 C 4679.67 2.93885 -1.68574 0
M  V30 51210 C 4678.23 3.44634 -1.51342 0
M  V30 51211 C 4677.37 2.18761 -1.70408 0
M  V30 51212 H 4680.33 0.909155 -1.30077 0
M  V30 51213 H 4680.35 3.62619 -1.15272 0
M  V30 51214 H 4679.86 2.74047 -2.74808 0
M  V30 51215 H 4677.96 3.69562 -0.474832 0
M  V30 51216 H 4678.07 4.20958 -2.28761 0
M  V30 51217 H 4676.44 2.28249 -1.13025 0
M  V30 51218 H 4677.22 2.01423 -2.77999 0
M  V30 51219 N 4679.66 0.946029 1.26048 0
M  V30 51220 C 4680.91 0.591903 1.9282 0
M  V30 51221 C 4681.23 -0.873894 1.74993 0
M  V30 51222 O 4682.43 -1.33761 2.36263 0
M  V30 51223 C 4680.89 1.00788 3.45499 0
M  V30 51224 C 4680.5 2.49563 3.72052 0
M  V30 51225 C 4682.24 0.725882 4.18248 0
M  V30 51226 C 4680.15 2.85006 5.18195 0
M  V30 51227 H 4679.08 0.21766 0.7219 0
M  V30 51228 H 4681.73 1.14932 1.43048 0
M  V30 51229 H 4680.11 0.378951 3.94183 0
M  V30 51230 H 4681.28 3.17402 3.34055 0
M  V30 51231 H 4679.6 2.75144 3.12546 0
M  V30 51232 H 4682.2 0.966956 5.25884 0
M  V30 51233 H 4682.54 -0.337493 4.1493 0
M  V30 51234 H 4683.07 1.31476 3.75445 0
M  V30 51235 H 4679.81 3.90326 5.26618 0
M  V30 51236 H 4679.33 2.21833 5.5727 0
M  V30 51237 H 4681.01 2.73732 5.86242 0
M  V30 51238 N 4681.14 -1.40518 0.713605 0
M  V30 51239 C 4682.37 -2.05236 0.261847 0
M  V30 51240 C 4682.79 -1.53759 -1.09561 0
M  V30 51241 O 4682.14 -0.693327 -1.68817 0
M  V30 51242 C 4682.19 -3.60762 0.230833 0
M  V30 51243 O 4681.91 -4.1034 1.53469 0
M  V30 51244 C 4683.42 -4.42651 -0.239719 0
M  V30 51245 H 4680.64 -0.660529 0.11808 0
M  V30 51246 H 4683.18 -1.79964 0.971256 0
M  V30 51247 H 4681.33 -3.85011 -0.429526 0
M  V30 51248 H 4681.75 -5.04521 1.43384 0
M  V30 51249 H 4683.22 -5.51599 -0.210274 0
M  V30 51250 H 4683.7 -4.20086 -1.28156 0
M  V30 51251 H 4684.31 -4.23505 0.390291 0
M  V30 51252 N 4682.62 -0.459644 -1.50748 0
M  V30 51253 C 4683.55 0.330563 -2.31148 0
M  V30 51254 C 4684.53 1.00082 -1.37541 0
M  V30 51255 O 4685.72 1.00019 -1.66462 0
M  V30 51256 C 4682.85 1.41947 -3.16967 0
M  V30 51257 C 4681.8 0.87146 -4.19034 0
M  V30 51258 C 4681.13 2.0578 -4.93517 0
M  V30 51259 C 4682.43 -0.109435 -5.22185 0
M  V30 51260 H 4684.12 -0.34044 -2.97458 0
M  V30 51261 H 4681.67 -0.165169 -1.4305 0
M  V30 51262 H 4683.62 1.97967 -3.72004 0
M  V30 51263 H 4682.34 2.11908 -2.48521 0
M  V30 51264 H 4681 0.333314 -3.65082 0
M  V30 51265 H 4680.65 2.74412 -4.21553 0
M  V30 51266 H 4680.35 1.6974 -5.6255 0
M  V30 51267 H 4681.87 2.62312 -5.51385 0
M  V30 51268 H 4683.29 0.361203 -5.72161 0
M  V30 51269 H 4681.69 -0.383526 -5.98873 0
M  V30 51270 H 4682.76 -1.03904 -4.73637 0
M  V30 51271 N 4684.1 1.56428 -0.191812 0
M  V30 51272 C 4685.35 1.96661 0.448019 0
M  V30 51273 C 4685.66 1.08142 1.62987 0
M  V30 51274 O 4686.87 1.38143 2.33728 0
M  V30 51275 C 4685.32 3.49756 0.848462 0
M  V30 51276 C 4684.93 4.46934 -0.308921 0
M  V30 51277 C 4686.67 3.98765 1.45556 0
M  V30 51278 C 4684.58 5.91293 0.112298 0
M  V30 51279 H 4683.51 0.734318 0.171153 0
M  V30 51280 H 4686.16 1.813 -0.283306 0
M  V30 51281 H 4684.54 3.6061 1.63636 0
M  V30 51282 H 4685.72 4.4781 -1.08643 0
M  V30 51283 H 4684.03 4.08099 -0.827301 0
M  V30 51284 H 4686.63 5.04093 1.7831 0
M  V30 51285 H 4686.97 3.42883 2.36087 0
M  V30 51286 H 4687.51 3.91013 0.731699 0
M  V30 51287 H 4684.25 6.51094 -0.758743 0
M  V30 51288 H 4683.77 5.93679 0.854733 0
M  V30 51289 H 4685.44 6.44665 0.549221 0
M  V30 51290 N 4685.58 -0.0818102 1.57388 0
M  V30 51291 C 4686.8 -0.799879 1.91355 0
M  V30 51292 C 4687.23 -1.7083 0.787318 0
M  V30 51293 O 4686.58 -1.7942 -0.260417 0
M  V30 51294 C 4686.63 -1.578 3.2424 0
M  V30 51295 O 4685.74 -2.68795 3.12766 0
M  V30 51296 H 4685.08 -0.218888 0.626884 0
M  V30 51297 H 4687.61 -0.0530537 2.04531 0
M  V30 51298 H 4687.62 -1.9594 3.57871 0
M  V30 51299 H 4686.29 -0.911405 4.05791 0
M  V30 51300 H 4684.87 -2.33587 2.90675 0
M  V30 51301 N 4687.06 -1.53597 -0.352963 0
M  V30 51302 C 4687.99 -1.75725 -1.45588 0
M  V30 51303 C 4688.97 -0.606014 -1.50885 0
M  V30 51304 O 4690.15 -0.840082 -1.68745 0
M  V30 51305 C 4687.28 -1.84742 -2.8388 0
M  V30 51306 C 4686.32 -3.06819 -2.96251 0
M  V30 51307 S 4687.16 -4.66074 -2.63695 0
M  V30 51308 C 4688.31 -4.77957 -4.04114 0
M  V30 51309 H 4688.55 -2.68998 -1.26599 0
M  V30 51310 H 4686.08 -1.44345 -0.548067 0
M  V30 51311 H 4688.04 -1.90622 -3.63556 0
M  V30 51312 H 4686.7 -0.924986 -3.00171 0
M  V30 51313 H 4685.89 -3.09775 -3.97562 0
M  V30 51314 H 4685.49 -2.99116 -2.24512 0
M  V30 51315 H 4687.78 -4.58787 -4.98518 0
M  V30 51316 H 4688.73 -5.80037 -4.06156 0
M  V30 51317 H 4689.14 -4.06486 -3.91701 0
M  V30 51318 N 4688.53 0.613463 -1.4517 0
M  V30 51319 C 4689.78 1.37273 -1.50092 0
M  V30 51320 C 4690.13 1.91902 -0.138362 0
M  V30 51321 O 4689.43 1.71767 0.848929 0
M  V30 51322 C 4689.62 2.54338 -2.51092 0
M  V30 51323 C 4689.45 2.11172 -3.97034 0
M  V30 51324 C 4688.22 1.9762 -4.65053 0
M  V30 51325 C 4690.42 1.68999 -4.85741 0
M  V30 51326 N 4688.4 1.48203 -5.95742 0
M  V30 51327 C 4689.77 1.30955 -6.06012 0
M  V30 51328 C 4691.83 1.56538 -4.72652 0
M  V30 51329 C 4690.53 0.816946 -7.14646 0
M  V30 51330 C 4692.56 1.08682 -5.81328 0
M  V30 51331 C 4691.92 0.715986 -7.00752 0
M  V30 51332 H 4688.02 0.496457 -0.604198 0
M  V30 51333 H 4690.6 0.701924 -1.81607 0
M  V30 51334 H 4688.77 3.19023 -2.21538 0
M  V30 51335 H 4690.5 3.21199 -2.46198 0
M  V30 51336 H 4687.26 2.18623 -4.2012 0
M  V30 51337 H 4687.68 1.25743 -6.6522 0
M  V30 51338 H 4692.32 1.83835 -3.80742 0
M  V30 51339 H 4690.04 0.531513 -8.0635 0
M  V30 51340 H 4693.63 0.994741 -5.73233 0
M  V30 51341 H 4692.51 0.351366 -7.83412 0
M  V30 51342 N 4690.01 1.32363 0.855449 0
M  V30 51343 C 4691.42 1.20565 1.42551 0
M  V30 51344 C 4691.77 -0.182141 1.95353 0
M  V30 51345 O 4690.9 -1.08082 1.87476 0
M  V30 51346 C 4691.49 2.18269 2.59122 0
M  V30 51347 C 4690.05 2.10362 3.1213 0
M  V30 51348 C 4689.2 2.0668 1.84874 0
M  V30 51349 H 4692.15 1.44202 0.662676 0
M  V30 51350 H 4692.17 1.78076 3.36258 0
M  V30 51351 H 4691.68 3.19265 2.20661 0
M  V30 51352 H 4689.78 1.12611 3.55175 0
M  V30 51353 H 4689.9 3.00148 3.73428 0
M  V30 51354 H 4688.26 1.51908 2.04441 0
M  V30 51355 H 4689.04 3.09457 1.48632 0
M  V30 51356 N 4691.49 -1.07162 1.1556 0
M  V30 51357 C 4692.4 -2.17944 0.868193 0
M  V30 51358 C 4693.42 -1.73297 -0.156236 0
M  V30 51359 O 4694.59 -2.01392 0.0183035 0
M  V30 51360 C 4691.66 -3.44787 0.363671 0
M  V30 51361 C 4690.72 -4.03991 1.45223 0
M  V30 51362 C 4689.95 -5.2478 0.971692 0
M  V30 51363 O 4690.17 -5.7011 -0.181994 0
M  V30 51364 O 4689.11 -5.75708 1.75623 0
M  V30 51365 H 4692.93 -2.45024 1.79435 0
M  V30 51366 H 4690.52 -1.16536 0.934865 0
M  V30 51367 H 4692.4 -4.21306 0.0888594 0
M  V30 51368 H 4691.08 -3.19255 -0.534596 0
M  V30 51369 H 4689.98 -3.29003 1.78067 0
M  V30 51370 H 4691.32 -4.338 2.32548 0
M  V30 51371 N 4692.97 -0.9527 -1.25544 0
M  V30 51372 C 4693.92 -0.442111 -2.23672 0
M  V30 51373 C 4694.9 0.467578 -1.53956 0
M  V30 51374 O 4696.09 0.300945 -1.74423 0
M  V30 51375 C 4693.22 0.280696 -3.42151 0
M  V30 51376 C 4692.31 -0.64695 -4.19136 0
M  V30 51377 N 4692.7 -1.77775 -4.73529 0
M  V30 51378 C 4691 -0.454773 -4.43675 0
M  V30 51379 C 4691.7 -2.35677 -5.31819 0
M  V30 51380 N 4690.67 -1.64351 -5.1816 0
M  V30 51381 H 4694.48 -1.30514 -2.63331 0
M  V30 51382 H 4691.99 -0.809954 -1.4076 0
M  V30 51383 H 4693.99 0.663602 -4.11585 0
M  V30 51384 H 4692.65 1.14036 -3.04016 0
M  V30 51385 H 4693.66 -2.15965 -4.70722 0
M  V30 51386 H 4690.34 0.362166 -4.15926 0
M  V30 51387 H 4691.73 -3.31019 -5.84702 0
M  V30 51388 N 4694.45 1.40138 -0.721047 0
M  V30 51389 C 4695.68 2.04797 -0.272332 0
M  V30 51390 C 4696.08 1.54446 1.09284 0
M  V30 51391 O 4695.43 0.698401 1.69906 0
M  V30 51392 C 4695.49 3.59047 -0.180397 0
M  V30 51393 C 4695.15 4.32312 -1.48175 0
M  V30 51394 C 4696.15 4.59894 -2.42474 0
M  V30 51395 C 4693.83 4.71119 -1.74218 0
M  V30 51396 C 4695.83 5.25276 -3.6106 0
M  V30 51397 C 4693.52 5.36232 -2.93085 0
M  V30 51398 C 4694.51 5.63241 -3.86328 0
M  V30 51399 O 4694.2 6.27007 -5.03108 0
M  V30 51400 H 4693.93 0.665414 -0.119162 0
M  V30 51401 H 4696.49 1.80432 -0.981496 0
M  V30 51402 H 4694.72 3.82253 0.584755 0
M  V30 51403 H 4696.41 4.05222 0.234476 0
M  V30 51404 H 4697.17 4.30371 -2.23619 0
M  V30 51405 H 4693.05 4.49462 -1.02493 0
M  V30 51406 H 4696.6 5.46273 -4.33856 0
M  V30 51407 H 4692.49 5.65174 -3.11846 0
M  V30 51408 H 4693.26 6.45503 -5.03258 0
M  V30 51409 N 4695.92 0.467632 1.50502 0
M  V30 51410 C 4697.2 -0.149962 1.95024 0
M  V30 51411 C 4697.58 -1.57299 1.40785 0
M  V30 51412 O 4696.93 -2.20279 0.607397 0
M  V30 51413 C 4697.14 -0.0968097 3.48866 0
M  V30 51414 C 4698.49 -0.287416 4.23626 0
M  V30 51415 O 4699.51 -0.173553 3.55777 0
M  V30 51416 O 4698.37 -0.516995 5.44049 0
M  V30 51417 H 4695.46 -0.113553 0.819167 0
M  V30 51418 H 4698.01 0.527787 1.61284 0
M  V30 51419 H 4696.78 0.896865 3.80883 0
M  V30 51420 H 4696.4 -0.816166 3.89133 0
M  V30 51421 N 4697.4 -1.56324 0.200105 0
M  V30 51422 C 4698.81 -1.84081 -0.311605 0
M  V30 51423 C 4699.16 -1.12092 -1.61027 0
M  V30 51424 O 4698.29 -0.383395 -2.12977 0
M  V30 51425 C 4698.88 -3.33934 -0.572143 0
M  V30 51426 C 4697.44 -3.62084 -1.02821 0
M  V30 51427 C 4696.59 -2.77186 -0.0795365 0
M  V30 51428 H 4699.54 -1.52937 0.423782 0
M  V30 51429 H 4699.56 -3.52976 -1.42084 0
M  V30 51430 H 4699.07 -3.86301 0.373215 0
M  V30 51431 H 4697.17 -3.15154 -1.98767 0
M  V30 51432 H 4697.29 -4.70233 -0.917459 0
M  V30 51433 H 4695.65 -2.47953 -0.582361 0
M  V30 51434 H 4696.43 -3.32344 0.860355 0
M  V30 51435 N 4698.88 0.0734624 -1.57429 0
M  V30 51436 C 4700.1 0.789719 -1.91776 0
M  V30 51437 C 4700.53 1.7041 -0.796366 0
M  V30 51438 O 4699.89 1.79556 0.250898 0
M  V30 51439 C 4699.94 1.56079 -3.25072 0
M  V30 51440 O 4699.04 2.67133 -3.14187 0
M  V30 51441 H 4698.38 0.21556 -0.628036 0
M  V30 51442 H 4700.91 0.0422062 -2.04556 0
M  V30 51443 H 4700.92 1.94039 -3.58905 0
M  V30 51444 H 4699.6 0.889872 -4.06268 0
M  V30 51445 H 4698.17 2.32042 -2.91909 0
M  V30 51446 N 4700.36 1.53782 0.344812 0
M  V30 51447 C 4701.29 1.77993 1.444 0
M  V30 51448 C 4702.3 0.661191 1.48769 0
M  V30 51449 O 4703.49 0.937896 1.51874 0
M  V30 51450 C 4700.59 1.86355 2.83064 0
M  V30 51451 C 4699.76 3.16267 3.02149 0
M  V30 51452 C 4698.82 3.15603 4.21048 0
M  V30 51453 O 4697.85 3.89329 4.15225 0
M  V30 51454 N 4699.05 2.37882 5.29521 0
M  V30 51455 H 4701.82 2.72843 1.24002 0
M  V30 51456 H 4699.38 1.52816 0.534683 0
M  V30 51457 H 4701.37 1.83363 3.60777 0
M  V30 51458 H 4699.94 0.986962 2.96611 0
M  V30 51459 H 4699.16 3.32393 2.11917 0
M  V30 51460 H 4700.45 4.02081 3.11782 0
M  V30 51461 H 4699.85 1.77533 5.37121 0
M  V30 51462 H 4698.4 2.4069 6.05732 0
M  V30 51463 N 4701.84 -0.605756 1.45494 0
M  V30 51464 C 4703.06 -1.3962 1.53366 0
M  V30 51465 C 4703.49 -1.87351 0.167711 0
M  V30 51466 O 4702.84 -1.60246 -0.847995 0
M  V30 51467 C 4702.89 -2.5755 2.52389 0
M  V30 51468 O 4702 -3.58241 2.04297 0
M  V30 51469 H 4701.34 -0.416753 0.516927 0
M  V30 51470 H 4703.87 -0.737036 1.90864 0
M  V30 51471 H 4703.88 -3.0477 2.71255 0
M  V30 51472 H 4702.55 -2.22158 3.51594 0
M  V30 51473 H 4701.13 -3.17657 1.95316 0
M  V30 51474 N 4703.31 -1.32814 -0.848417 0
M  V30 51475 C 4704.73 -1.2132 -1.4191 0
M  V30 51476 C 4705.08 0.171778 -1.95447 0
M  V30 51477 O 4704.2 1.07086 -1.88047 0
M  V30 51478 C 4704.8 -2.1964 -2.5796 0
M  V30 51479 C 4703.36 -2.12014 -3.1101 0
M  V30 51480 C 4702.5 -2.07658 -1.83776 0
M  V30 51481 H 4705.45 -1.44552 -0.65502 0
M  V30 51482 H 4705.47 -1.79857 -3.35309 0
M  V30 51483 H 4704.99 -3.20431 -2.18965 0
M  V30 51484 H 4703.09 -1.14493 -3.54573 0
M  V30 51485 H 4703.2 -3.02124 -3.71831 0
M  V30 51486 H 4701.56 -1.5299 -2.03632 0
M  V30 51487 H 4702.35 -3.1024 -1.46989 0
M  V30 51488 N 4704.79 1.06547 -1.16127 0
M  V30 51489 C 4705.72 2.13905 -0.823246 0
M  V30 51490 C 4706.74 1.61927 0.168373 0
M  V30 51491 O 4707.93 1.78412 -0.0560247 0
M  V30 51492 C 4705.03 3.38282 -0.204543 0
M  V30 51493 C 4704.2 4.19584 -1.23562 0
M  V30 51494 C 4703.26 5.22328 -0.637195 0
M  V30 51495 O 4702.28 5.5403 -1.30536 0
M  V30 51496 N 4703.49 5.77623 0.577271 0
M  V30 51497 H 4706.25 2.43502 -1.74719 0
M  V30 51498 H 4703.81 1.22526 -1.05825 0
M  V30 51499 H 4705.8 4.04161 0.208767 0
M  V30 51500 H 4704.37 3.06331 0.622904 0
M  V30 51501 H 4703.59 3.494 -1.8252 0
M  V30 51502 H 4704.88 4.70711 -1.93153 0
M  V30 51503 H 4704.28 5.54129 1.13833 0
M  V30 51504 H 4702.84 6.4509 0.932826 0
M  V30 51505 N 4706.27 0.959345 1.25037 0
M  V30 51506 C 4707.2 0.501469 2.28052 0
M  V30 51507 C 4708.18 -0.454615 1.63912 0
M  V30 51508 O 4709.37 -0.35255 1.90973 0
M  V30 51509 C 4706.5 -0.217102 3.46621 0
M  V30 51510 C 4705.45 0.654183 4.22971 0
M  V30 51511 C 4704.78 -0.195401 5.34343 0
M  V30 51512 C 4706.08 1.93464 4.85148 0
M  V30 51513 H 4707.77 1.36247 2.66603 0
M  V30 51514 H 4705.32 0.656579 1.2816 0
M  V30 51515 H 4707.27 -0.548585 4.17814 0
M  V30 51516 H 4705.99 -1.11239 3.07072 0
M  V30 51517 H 4704.65 0.968817 3.53567 0
M  V30 51518 H 4704.3 -1.09059 4.91035 0
M  V30 51519 H 4704 0.384297 5.86342 0
M  V30 51520 H 4705.52 -0.521744 6.08367 0
M  V30 51521 H 4706.94 1.66927 5.4846 0
M  V30 51522 H 4705.34 2.46038 5.47344 0
M  V30 51523 H 4706.41 2.63481 4.0707 0
M  V30 51524 N 4707.75 -1.39754 0.728469 0
M  V30 51525 C 4709 -2.00644 0.273557 0
M  V30 51526 C 4709.32 -1.5779 -1.13722 0
M  V30 51527 O 4708.58 -0.794949 -1.78827 0
M  V30 51528 C 4708.88 -3.56001 0.315901 0
M  V30 51529 C 4708.54 -4.18483 1.67878 0
M  V30 51530 C 4707.21 -4.35263 2.05182 0
M  V30 51531 C 4709.56 -4.5321 2.57391 0
M  V30 51532 C 4706.89 -4.84057 3.3152 0
M  V30 51533 C 4709.24 -5.0341 3.83095 0
M  V30 51534 C 4707.9 -5.18398 4.205 0
M  V30 51535 H 4707.17 -0.734208 0.100102 0
M  V30 51536 H 4709.82 -1.67177 0.934031 0
M  V30 51537 H 4708.12 -3.89454 -0.428148 0
M  V30 51538 H 4709.82 -4.00963 -0.0541165 0
M  V30 51539 H 4706.41 -4.05819 1.37872 0
M  V30 51540 H 4710.59 -4.3987 2.29843 0
M  V30 51541 H 4705.85 -4.93846 3.60452 0
M  V30 51542 H 4710.02 -5.29255 4.52618 0
M  V30 51543 H 4707.65 -5.55969 5.18462 0
M  V30 51544 N 4709.23 -0.475607 -1.50252 0
M  V30 51545 C 4710.18 0.334945 -2.25526 0
M  V30 51546 C 4711.16 0.95758 -1.29303 0
M  V30 51547 O 4712.35 0.869382 -1.54178 0
M  V30 51548 C 4709.48 1.41374 -3.12839 0
M  V30 51549 C 4708.57 0.798616 -4.16513 0
M  V30 51550 N 4708.96 -0.0837593 -5.05731 0
M  V30 51551 C 4707.26 1.06206 -4.3317 0
M  V30 51552 C 4707.96 -0.433317 -5.80084 0
M  V30 51553 N 4706.93 0.192609 -5.43259 0
M  V30 51554 H 4710.74 -0.344715 -2.91871 0
M  V30 51555 H 4708.25 -0.290042 -1.59789 0
M  V30 51556 H 4710.25 2.00764 -3.65375 0
M  V30 51557 H 4708.91 2.09535 -2.48043 0
M  V30 51558 H 4709.92 -0.452897 -5.15916 0
M  V30 51559 H 4706.59 1.73831 -3.79591 0
M  V30 51560 H 4707.98 -1.15369 -6.61921 0
M  V30 51561 N 4710.7 1.56216 -0.208392 0
M  V30 51562 C 4711.98 1.89741 0.475167 0
M  V30 51563 C 4712.36 1.12386 1.78697 0
M  V30 51564 O 4711.71 0.229059 2.27349 0
M  V30 51565 C 4711.92 3.42292 0.68098 0
M  V30 51566 C 4713.27 4.12792 0.994362 0
M  V30 51567 O 4714.29 3.47817 0.768235 0
M  V30 51568 O 4713.15 5.27654 1.4228 0
M  V30 51569 H 4710.24 0.788487 0.249433 0
M  V30 51570 H 4712.79 1.67854 -0.249597 0
M  V30 51571 H 4711.56 3.90533 -0.24486 0
M  V30 51572 H 4711.19 3.69914 1.45772 0
M  V30 51573 N 4712.18 -0.0651125 1.57465 0
M  V30 51574 C 4713.46 -0.796377 1.78654 0
M  V30 51575 C 4713.84 -1.95451 0.797634 0
M  V30 51576 O 4713.19 -2.27883 -0.167866 0
M  V30 51577 C 4713.4 -1.2631 3.25341 0
M  V30 51578 C 4714.75 -1.69377 3.89354 0
M  V30 51579 O 4715.77 -1.3586 3.29273 0
M  V30 51580 O 4714.63 -2.31453 4.95067 0
M  V30 51581 H 4711.72 -0.382131 0.73342 0
M  V30 51582 H 4714.27 -0.0446715 1.69641 0
M  V30 51583 H 4713.04 -0.434723 3.88878 0
M  V30 51584 H 4712.66 -2.07592 3.39104 0
M  V30 51585 N 4713.66 -1.53962 -0.336652 0
M  V30 51586 C 4714.89 -1.75487 -1.09599 0
M  V30 51587 C 4715.3 -0.497264 -1.82134 0
M  V30 51588 O 4714.66 0.531428 -1.74591 0
M  V30 51589 C 4714.71 -2.9395 -2.10418 0
M  V30 51590 O 4714.43 -4.14847 -1.40831 0
M  V30 51591 C 4715.93 -3.27581 -2.98673 0
M  V30 51592 H 4713.15 -0.586177 -0.326554 0
M  V30 51593 H 4715.7 -2.00809 -0.38676 0
M  V30 51594 H 4713.85 -2.70939 -2.76895 0
M  V30 51595 H 4714.27 -4.81391 -2.08238 0
M  V30 51596 H 4715.74 -4.13804 -3.65336 0
M  V30 51597 H 4716.22 -2.44181 -3.65065 0
M  V30 51598 H 4716.82 -3.52623 -2.37775 0
M  V30 51599 N 4715.14 0.598031 -1.45813 0
M  V30 51600 C 4716.09 1.70267 -1.51635 0
M  V30 51601 C 4717.07 1.5638 -0.378684 0
M  V30 51602 O 4718.26 1.65555 -0.626146 0
M  V30 51603 C 4715.39 3.09037 -1.49504 0
M  V30 51604 C 4714.48 3.28275 -2.68508 0
M  V30 51605 N 4714.87 3.17734 -3.93546 0
M  V30 51606 C 4713.17 3.59172 -2.64407 0
M  V30 51607 C 4713.87 3.38563 -4.73022 0
M  V30 51608 N 4712.85 3.63002 -4.04636 0
M  V30 51609 H 4716.65 1.60625 -2.46124 0
M  V30 51610 H 4714.16 0.801592 -1.41238 0
M  V30 51611 H 4716.16 3.88297 -1.51761 0
M  V30 51612 H 4714.82 3.19821 -0.560795 0
M  V30 51613 H 4715.83 2.9593 -4.25025 0
M  V30 51614 H 4712.51 3.76735 -1.79936 0
M  V30 51615 H 4713.9 3.35726 -5.82012 0
M  V30 51616 N 4716.62 1.33262 0.841362 0
M  V30 51617 C 4717.84 1.27756 1.63381 0
M  V30 51618 C 4718.27 -0.149122 1.87508 0
M  V30 51619 O 4717.63 -1.10493 1.4374 0
M  V30 51620 C 4717.67 2.05581 2.96258 0
M  V30 51621 O 4716.78 1.41271 3.87448 0
M  V30 51622 H 4716.12 0.439645 0.497603 0
M  V30 51623 H 4718.65 1.75785 1.04693 0
M  V30 51624 H 4718.66 2.16253 3.45975 0
M  V30 51625 H 4717.33 3.09319 2.78019 0
M  V30 51626 H 4715.91 1.39229 3.45933 0
M  V30 51627 N 4718.1 -1.0593 1.1669 0
M  V30 51628 C 4719.51 -1.30935 0.912588 0
M  V30 51629 C 4719.71 -1.96804 -0.432464 0
M  V30 51630 O 4718.77 -2.23697 -1.17115 0
M  V30 51631 C 4720.08 -2.18642 2.06437 0
M  V30 51632 C 4721.63 -2.32047 2.10055 0
M  V30 51633 C 4722.1 -3.2311 3.24598 0
M  V30 51634 N 4723.59 -3.30695 3.24338 0
M  V30 51635 C 4724.33 -4.01259 4.09608 0
M  V30 51636 N 4723.83 -4.74314 5.04973 0
M  V30 51637 N 4725.62 -3.97347 3.97583 0
M  V30 51638 H 4717.77 -0.615705 2.0328 0
M  V30 51639 H 4720.03 -0.334046 0.887196 0
M  V30 51640 H 4719.74 -1.77523 3.03609 0
M  V30 51641 H 4719.61 -3.19245 2.00905 0
M  V30 51642 H 4722 -2.72411 1.13474 0
M  V30 51643 H 4722.08 -1.31099 2.19651 0
M  V30 51644 H 4721.72 -2.83462 4.2144 0
M  V30 51645 H 4721.65 -4.24046 3.12238 0
M  V30 51646 H 4724.15 -2.78635 2.55286 0
M  V30 51647 H 4724.46 -5.25696 5.66448 0
M  V30 51648 H 4722.8 -4.73282 5.08949 0
M  V30 51649 H 4725.99 -3.39394 3.22381 0
M  V30 51650 H 4726.17 -4.52072 4.64257 0
M  V30 51651 N 4719.57 -0.965962 -1.24527 0
M  V30 51652 C 4720.82 -0.622504 -1.91854 0
M  V30 51653 C 4721.14 0.845944 -1.76361 0
M  V30 51654 O 4722.34 1.29985 -2.38361 0
M  V30 51655 C 4720.8 -1.06272 -3.43852 0
M  V30 51656 C 4720.41 -2.5545 -3.68034 0
M  V30 51657 C 4722.15 -0.792329 -4.1704 0
M  V30 51658 C 4720.06 -2.93214 -5.13595 0
M  V30 51659 H 4718.99 -0.229117 -0.718346 0
M  V30 51660 H 4721.64 -1.17193 -1.41202 0
M  V30 51661 H 4720.02 -0.441614 -3.9353 0
M  V30 51662 H 4721.19 -3.22676 -3.28963 0
M  V30 51663 H 4719.51 -2.80081 -3.08129 0
M  V30 51664 H 4722.11 -1.0505 -5.24279 0
M  V30 51665 H 4722.45 0.271438 -4.15414 0
M  V30 51666 H 4722.98 -1.37432 -3.73306 0
M  V30 51667 H 4719.72 -3.98654 -5.20341 0
M  V30 51668 H 4719.24 -2.3067 -5.53671 0
M  V30 51669 H 4720.92 -2.83024 -5.81813 0
M  V30 51670 N 4721.05 1.39365 -0.73587 0
M  V30 51671 C 4721.96 2.34395 -0.0980518 0
M  V30 51672 C 4722.98 1.58363 0.720912 0
M  V30 51673 O 4724.15 1.90651 0.649178 0
M  V30 51674 C 4721.22 3.37396 0.797798 0
M  V30 51675 C 4720.28 4.29287 -0.0335171 0
M  V30 51676 C 4719.51 5.27368 0.819669 0
M  V30 51677 O 4719.74 5.31966 2.05836 0
M  V30 51678 O 4718.67 6.01389 0.247868 0
M  V30 51679 H 4722.5 2.90598 -0.882417 0
M  V30 51680 H 4720.08 1.40907 -0.49655 0
M  V30 51681 H 4721.96 4.0051 1.31034 0
M  V30 51682 H 4720.64 2.83577 1.56096 0
M  V30 51683 H 4719.54 3.69393 -0.591605 0
M  V30 51684 H 4720.88 4.86314 -0.758923 0
M  V30 51685 N 4722.53 0.483569 1.49998 0
M  V30 51686 C 4723.46 -0.340554 2.26656 0
M  V30 51687 C 4724.47 -0.946106 1.32487 0
M  V30 51688 O 4725.66 -0.832397 1.57903 0
M  V30 51689 C 4722.76 -1.4928 3.04251 0
M  V30 51690 C 4721.94 -0.997754 4.25868 0
M  V30 51691 C 4721 -2.02552 4.85653 0
M  V30 51692 O 4720.02 -1.60109 5.46218 0
M  V30 51693 N 4721.22 -3.35463 4.73756 0
M  V30 51694 H 4723.99 0.316682 2.98022 0
M  V30 51695 H 4721.55 0.31508 1.58804 0
M  V30 51696 H 4723.54 -2.17754 3.41124 0
M  V30 51697 H 4722.11 -2.0545 2.35604 0
M  V30 51698 H 4721.33 -0.138478 3.93957 0
M  V30 51699 H 4722.62 -0.645128 5.04694 0
M  V30 51700 H 4722.02 -3.72646 4.25619 0
M  V30 51701 H 4720.57 -3.997 5.14863 0
M  V30 51702 N 4724.01 -1.56103 0.216674 0
M  V30 51703 C 4725.24 -2.02271 -0.420731 0
M  V30 51704 C 4725.65 -1.0958 -1.54236 0
M  V30 51705 O 4724.99 -0.0967953 -1.83445 0
M  V30 51706 C 4725.05 -3.44787 -1.01793 0
M  V30 51707 C 4724.71 -4.56989 -0.0323548 0
M  V30 51708 C 4725.71 -5.14223 0.766235 0
M  V30 51709 C 4723.4 -5.02228 0.0849857 0
M  V30 51710 C 4725.39 -6.15163 1.66892 0
M  V30 51711 C 4723.08 -6.03008 0.991206 0
M  V30 51712 C 4724.08 -6.59351 1.78172 0
M  V30 51713 O 4723.76 -7.5817 2.67272 0
M  V30 51714 H 4723.5 -0.667357 -0.107752 0
M  V30 51715 H 4726.05 -2.02746 0.329105 0
M  V30 51716 H 4724.28 -3.41365 -1.81677 0
M  V30 51717 H 4725.97 -3.74632 -1.56224 0
M  V30 51718 H 4726.73 -4.80124 0.686004 0
M  V30 51719 H 4722.61 -4.58056 -0.520188 0
M  V30 51720 H 4726.16 -6.59068 2.28638 0
M  V30 51721 H 4722.05 -6.36528 1.07247 0
M  V30 51722 H 4722.82 -7.75673 2.61292 0
M  V30 51723 N 4725.49 0.0567608 -1.57498 0
M  V30 51724 C 4726.45 1.05031 -2.03718 0
M  V30 51725 C 4727.45 1.30706 -0.936623 0
M  V30 51726 O 4728.64 1.26174 -1.20108 0
M  V30 51727 C 4725.77 2.39026 -2.43063 0
M  V30 51728 H 4726.96 0.651613 -2.92735 0
M  V30 51729 H 4724.52 0.302893 -1.53337 0
M  V30 51730 H 4725.25 2.83698 -1.57118 0
M  V30 51731 H 4725.04 2.21727 -3.23387 0
M  V30 51732 H 4726.53 3.10411 -2.79347 0
M  V30 51733 N 4726.96 1.54139 0.328482 0
M  V30 51734 C 4728.19 1.76066 1.08667 0
M  V30 51735 C 4728.61 0.506916 1.81868 0
M  V30 51736 O 4727.96 -0.522162 1.74871 0
M  V30 51737 C 4728.01 2.95062 2.08856 0
M  V30 51738 O 4727.74 4.15588 1.38629 0
M  V30 51739 C 4729.24 3.2916 2.96931 0
M  V30 51740 H 4726.46 0.587901 0.32344 0
M  V30 51741 H 4729 2.01012 0.376105 0
M  V30 51742 H 4727.16 2.72403 2.75454 0
M  V30 51743 H 4727.57 4.82488 2.05682 0
M  V30 51744 H 4729.04 4.15736 3.63136 0
M  V30 51745 H 4729.52 2.46113 3.63765 0
M  V30 51746 H 4730.13 3.53879 2.35901 0
M  V30 51747 N 4728.44 -0.59029 1.46128 0
M  V30 51748 C 4729.86 -0.912871 1.30915 0
M  V30 51749 C 4730.06 -1.99615 0.274964 0
M  V30 51750 O 4729.11 -2.50398 -0.325109 0
M  V30 51751 C 4730.43 -1.33741 2.69321 0
M  V30 51752 C 4731.97 -1.45067 2.77353 0
M  V30 51753 C 4732.45 -1.9089 4.16323 0
M  V30 51754 N 4733.94 -1.98096 4.18703 0
M  V30 51755 C 4734.68 -2.3481 5.23117 0
M  V30 51756 N 4734.17 -2.7037 6.37865 0
M  V30 51757 N 4735.96 -2.35299 5.10481 0
M  V30 51758 H 4728.12 0.125432 2.12029 0
M  V30 51759 H 4730.38 -0.00655148 0.947977 0
M  V30 51760 H 4730.08 -0.615493 3.46272 0
M  V30 51761 H 4729.96 -2.30047 2.98928 0
M  V30 51762 H 4732.35 -2.16346 2.00695 0
M  V30 51763 H 4732.43 -0.470311 2.51439 0
M  V30 51764 H 4732.07 -1.20192 4.93474 0
M  V30 51765 H 4732 -2.8987 4.39639 0
M  V30 51766 H 4734.49 -1.73134 3.35906 0
M  V30 51767 H 4734.8 -2.97316 7.13318 0
M  V30 51768 H 4733.15 -2.68026 6.41239 0
M  V30 51769 H 4736.34 -2.06935 4.19875 0
M  V30 51770 H 4736.51 -2.63584 5.91969 0
M  V30 51771 N 4729.92 -1.33707 -0.834283 0
M  V30 51772 C 4730.85 -1.26974 -1.95959 0
M  V30 51773 C 4731.83 -0.149396 -1.69443 0
M  V30 51774 O 4733.02 -0.339919 -1.91202 0
M  V30 51775 C 4730.15 -1.01287 -3.32202 0
M  V30 51776 C 4729.1 -2.09665 -3.73128 0
M  V30 51777 C 4728.43 -1.69184 -5.07229 0
M  V30 51778 C 4729.73 -3.51386 -3.86426 0
M  V30 51779 H 4731.42 -2.21127 -2.0185 0
M  V30 51780 H 4728.97 -1.06451 -0.969756 0
M  V30 51781 H 4730.92 -0.95225 -4.105 0
M  V30 51782 H 4729.64 -0.0357351 -3.2658 0
M  V30 51783 H 4728.3 -2.14777 -2.97097 0
M  V30 51784 H 4727.95 -0.701612 -4.98083 0
M  V30 51785 H 4727.65 -2.41713 -5.35582 0
M  V30 51786 H 4729.17 -1.64597 -5.87997 0
M  V30 51787 H 4730.59 -3.4875 -4.55024 0
M  V30 51788 H 4728.98 -4.2244 -4.26222 0
M  V30 51789 H 4730.05 -3.89557 -2.88745 0
M  V30 51790 N 4731.4 1.0531 -1.1725 0
M  V30 51791 C 4732.36 2.11196 -0.890431 0
M  V30 51792 C 4733.36 1.6036 0.118887 0
M  V30 51793 O 4734.55 1.73832 -0.113147 0
M  V30 51794 C 4731.68 3.39264 -0.333541 0
M  V30 51795 H 4732.88 2.37653 -1.82924 0
M  V30 51796 H 4730.43 1.21535 -0.982801 0
M  V30 51797 H 4731.16 3.18464 0.612476 0
M  V30 51798 H 4730.95 3.77473 -1.06095 0
M  V30 51799 H 4732.44 4.17314 -0.154469 0
M  V30 51800 N 4732.88 0.972553 1.24013 0
M  V30 51801 C 4733.81 0.464454 2.24445 0
M  V30 51802 C 4734.82 -0.429444 1.57034 0
M  V30 51803 O 4736.01 -0.23484 1.76948 0
M  V30 51804 C 4733.11 -0.348267 3.37106 0
M  V30 51805 C 4732.28 0.536883 4.34093 0
M  V30 51806 C 4731.34 -0.220653 5.25737 0
M  V30 51807 O 4730.37 0.387067 5.67882 0
M  V30 51808 N 4731.57 -1.50887 5.60547 0
M  V30 51809 H 4734.34 1.32797 2.68673 0
M  V30 51810 H 4731.9 0.844925 1.38104 0
M  V30 51811 H 4733.89 -0.863202 3.95387 0
M  V30 51812 H 4732.46 -1.11274 2.92125 0
M  V30 51813 H 4731.68 1.23274 3.74429 0
M  V30 51814 H 4732.97 1.14039 4.95855 0
M  V30 51815 H 4732.36 -2.02426 5.28243 0
M  V30 51816 H 4730.92 -1.9694 6.21335 0
M  V30 51817 N 4734.35 -1.38973 0.74325 0
M  V30 51818 C 4735.29 -2.28128 0.0572967 0
M  V30 51819 C 4736.27 -1.4483 -0.739131 0
M  V30 51820 O 4737.45 -1.7421 -0.719948 0
M  V30 51821 C 4734.58 -3.25799 -0.925886 0
M  V30 51822 C 4733.62 -4.25948 -0.216949 0
M  V30 51823 S 4734.46 -5.246 1.07495 0
M  V30 51824 C 4735.61 -6.25829 0.0945745 0
M  V30 51825 H 4735.84 -2.85958 0.813347 0
M  V30 51826 H 4733.38 -1.4482 0.535392 0
M  V30 51827 H 4735.34 -3.82588 -1.48783 0
M  V30 51828 H 4734 -2.66972 -1.65483 0
M  V30 51829 H 4733.19 -4.94749 -0.961198 0
M  V30 51830 H 4732.79 -3.73001 0.273191 0
M  V30 51831 H 4735.08 -6.73413 -0.743002 0
M  V30 51832 H 4736.03 -7.04117 0.749961 0
M  V30 51833 H 4736.43 -5.63798 -0.281508 0
M  V30 51834 N 4735.83 -0.491517 -1.49739 0
M  V30 51835 C 4736.74 0.296753 -2.32716 0
M  V30 51836 C 4737.76 0.976485 -1.44017 0
M  V30 51837 O 4738.93 0.959961 -1.7705 0
M  V30 51838 C 4736 1.35277 -3.19219 0
M  V30 51839 C 4735.06 0.687483 -4.2376 0
M  V30 51840 C 4734.29 1.69319 -5.06129 0
M  V30 51841 O 4734.52 2.92202 -4.89871 0
M  V30 51842 O 4733.45 1.25374 -5.88698 0
M  V30 51843 H 4737.28 -0.382154 -3.01286 0
M  V30 51844 H 4734.86 -0.253004 -1.47242 0
M  V30 51845 H 4736.74 1.96398 -3.72835 0
M  V30 51846 H 4735.42 2.01478 -2.53354 0
M  V30 51847 H 4734.33 0.0367844 -3.74082 0
M  V30 51848 H 4735.66 0.0680835 -4.92153 0
M  V30 51849 N 4737.31 1.55986 -0.224949 0
M  V30 51850 C 4738.73 1.59067 0.13037 0
M  V30 51851 C 4738.93 1.24182 1.58686 0
M  V30 51852 O 4737.98 0.978674 2.32762 0
M  V30 51853 C 4739.3 3.00041 -0.198988 0
M  V30 51854 C 4740.84 3.1268 -0.141501 0
M  V30 51855 C 4741.32 4.55837 -0.444582 0
M  V30 51856 N 4742.81 4.61519 -0.394277 0
M  V30 51857 C 4743.54 5.70229 -0.602238 0
M  V30 51858 N 4743.04 6.87288 -0.872155 0
M  V30 51859 N 4744.83 5.59554 -0.534442 0
M  V30 51860 H 4736.98 1.76937 -1.17504 0
M  V30 51861 H 4739.25 0.822587 -0.471226 0
M  V30 51862 H 4738.95 3.3023 -1.21001 0
M  V30 51863 H 4738.83 3.74077 0.484404 0
M  V30 51864 H 4741.21 2.82286 0.860166 0
M  V30 51865 H 4741.3 2.40966 -0.85842 0
M  V30 51866 H 4740.94 4.86949 -1.4437 0
M  V30 51867 H 4740.87 5.25781 0.293567 0
M  V30 51868 H 4743.36 3.77404 -0.193489 0
M  V30 51869 H 4743.67 7.66054 -1.01885 0
M  V30 51870 H 4742.02 6.89025 -0.909387 0
M  V30 51871 H 4745.21 4.66979 -0.323776 0
M  V30 51872 H 4745.38 6.44209 -0.699919 0
M  V30 51873 N 4738.79 -0.0484076 1.57526 0
M  V30 51874 C 4740.02 -0.755354 1.92619 0
M  V30 51875 C 4740.43 -1.69916 0.823044 0
M  V30 51876 O 4739.79 -1.81378 -0.202021 0
M  V30 51877 C 4739.84 -1.52904 3.27571 0
M  V30 51878 O 4739.56 -0.623137 4.33646 0
M  V30 51879 C 4741.06 -2.33489 3.76826 0
M  V30 51880 H 4738.28 -0.213442 0.636147 0
M  V30 51881 H 4740.83 -0.0116979 2.04497 0
M  V30 51882 H 4738.98 -2.22475 3.17149 0
M  V30 51883 H 4739.39 -1.16365 5.11429 0
M  V30 51884 H 4740.87 -2.83197 4.73818 0
M  V30 51885 H 4741.35 -3.14058 3.07025 0
M  V30 51886 H 4741.95 -1.69029 3.90268 0
M  V30 51887 N 4740.27 -1.54311 -0.320303 0
M  V30 51888 C 4741.21 -1.84652 -1.41444 0
M  V30 51889 C 4742.21 -0.718678 -1.53399 0
M  V30 51890 O 4743.41 -0.90239 -1.55746 0
M  V30 51891 H 4739.79 -0.585366 -0.472071 0
M  V30 51892 H 4741.76 -2.76144 -1.13079 0
M  V30 51893 C 4740.51 -2.09351 -2.7761 0
M  V30 51894 H 4739.83 -2.956 -2.69186 0
M  V30 51895 H 4741.27 -2.34533 -3.53229 0
M  V30 51896 C 4739.73 -0.886054 -3.2504 0
M  V30 51897 O 4740.26 -0.0969303 -4.01583 0
M  V30 51898 N 4738.47 -0.696781 -2.82123 0
M  V30 51899 H 4738.01 -1.34014 -2.19996 0
M  V30 51900 H 4737.97 0.109602 -3.14209 0
M  V30 51901 N 4741.74 0.582532 -1.46439 0
M  V30 51902 C 4742.99 1.33809 -1.51458 0
M  V30 51903 C 4743.31 1.94276 -0.16786 0
M  V30 51904 O 4742.58 1.78568 0.805614 0
M  V30 51905 H 4741.16 0.496818 -0.557835 0
M  V30 51906 H 4743.83 0.682217 -1.8257 0
M  V30 51907 H 4742.92 2.14471 -2.26735 0
M  V30 51908 N 4743.22 1.34147 0.82718 0
M  V30 51909 C 4744.45 1.29481 1.62016 0
M  V30 51910 C 4744.87 -0.129226 1.87656 0
M  V30 51911 O 4744.23 -1.08962 1.44903 0
M  V30 51912 C 4744.28 2.08712 2.94061 0
M  V30 51913 O 4743.38 1.45372 3.85928 0
M  V30 51914 H 4742.72 0.444898 0.492912 0
M  V30 51915 H 4745.25 1.76886 1.02823 0
M  V30 51916 H 4745.26 2.1991 3.43662 0
M  V30 51917 H 4743.94 3.1225 2.74723 0
M  V30 51918 H 4742.52 1.42891 3.44437 0
M  V30 51919 N 4744.7 -1.04686 1.17807 0
M  V30 51920 C 4745.95 -1.77778 0.969595 0
M  V30 51921 C 4746.28 -1.87928 -0.501335 0
M  V30 51922 O 4745.53 -1.37923 -1.38837 0
M  V30 51923 C 4745.83 -3.21461 1.56197 0
M  V30 51924 C 4745.5 -3.31359 3.05797 0
M  V30 51925 C 4744.16 -3.33767 3.46631 0
M  V30 51926 C 4746.51 -3.31962 4.01809 0
M  V30 51927 C 4743.84 -3.34414 4.82063 0
M  V30 51928 C 4746.19 -3.34148 5.37148 0
M  V30 51929 C 4744.85 -3.34846 5.77438 0
M  V30 51930 H 4744.12 -0.650537 0.3548 0
M  V30 51931 H 4746.77 -1.23 1.46776 0
M  V30 51932 H 4745.08 -3.79199 0.985648 0
M  V30 51933 H 4746.77 -3.76647 1.37616 0
M  V30 51934 H 4743.36 -3.30201 2.7325 0
M  V30 51935 H 4747.55 -3.29298 3.71317 0
M  V30 51936 H 4742.8 -3.33267 5.12585 0
M  V30 51937 H 4746.98 -3.33563 6.11317 0
M  V30 51938 H 4744.6 -3.351 6.82358 0
M  V30 51939 N 4746.18 -0.979116 -1.23495 0
M  V30 51940 C 4747.11 -0.537686 -2.27225 0
M  V30 51941 C 4748.09 0.428481 -1.64615 0
M  V30 51942 O 4749.28 0.322124 -1.9151 0
M  V30 51943 C 4746.41 0.16193 -3.46922 0
M  V30 51944 C 4745.36 -0.721391 -4.21877 0
M  V30 51945 C 4744.69 0.110367 -5.34586 0
M  V30 51946 C 4745.99 -2.01158 -4.82009 0
M  V30 51947 H 4747.68 -1.40471 -2.64402 0
M  V30 51948 H 4745.23 -0.676885 -1.27099 0
M  V30 51949 H 4747.18 0.482045 -4.18634 0
M  V30 51950 H 4745.9 1.0634 -3.08803 0
M  V30 51951 H 4744.56 -1.02494 -3.51981 0
M  V30 51952 H 4744.21 1.01233 -4.92708 0
M  V30 51953 H 4743.91 -0.477531 -5.85656 0
M  V30 51954 H 4745.43 0.424892 -6.0912 0
M  V30 51955 H 4746.85 -1.75631 -5.45735 0
M  V30 51956 H 4745.24 -2.54714 -5.43361 0
M  V30 51957 H 4746.31 -2.69924 -4.02827 0
M  V30 51958 N 4747.66 1.38577 -0.75061 0
M  V30 51959 C 4748.89 2.0447 -0.31617 0
M  V30 51960 C 4749.3 1.56609 1.05446 0
M  V30 51961 O 4748.66 0.737842 1.6692 0
M  V30 51962 C 4748.71 3.60023 -0.326401 0
M  V30 51963 O 4748.43 4.06127 -1.64294 0
M  V30 51964 C 4749.93 4.43131 0.122273 0
M  V30 51965 H 4747.15 0.657166 -0.135551 0
M  V30 51966 H 4749.69 1.77325 -1.01863 0
M  V30 51967 H 4747.85 3.86015 0.327296 0
M  V30 51968 H 4748.26 5.00542 -1.5671 0
M  V30 51969 H 4749.74 5.51963 0.0639533 0
M  V30 51970 H 4750.21 4.23337 1.16973 0
M  V30 51971 H 4750.82 4.22322 -0.502439 0
M  V30 51972 N 4749.14 0.499451 1.49477 0
M  V30 51973 C 4750.41 -0.10856 1.95299 0
M  V30 51974 C 4750.79 -1.54277 1.44089 0
M  V30 51975 O 4750.14 -2.18941 0.653985 0
M  V30 51976 C 4750.35 -0.0227884 3.48993 0
M  V30 51977 C 4751.7 -0.197494 4.2414 0
M  V30 51978 O 4752.72 -0.0980483 3.56065 0
M  V30 51979 O 4751.58 -0.401478 5.45023 0
M  V30 51980 H 4748.68 -0.0961521 0.821391 0
M  V30 51981 H 4751.22 0.561879 1.60128 0
M  V30 51982 H 4749.99 0.977455 3.78895 0
M  V30 51983 H 4749.62 -0.733441 3.90777 0
M  V30 51984 N 4750.61 -1.55865 0.233218 0
M  V30 51985 C 4751.84 -2.0345 -0.402835 0
M  V30 51986 C 4752.26 -1.11171 -1.51732 0
M  V30 51987 O 4751.62 -0.10206 -1.81013 0
M  V30 51988 C 4751.67 -3.49168 -0.900778 0
M  V30 51989 O 4750.77 -3.60026 -2.01135 0
M  V30 51990 H 4750.11 -0.657916 -0.0896794 0
M  V30 51991 H 4752.64 -2.01492 0.355272 0
M  V30 51992 H 4752.65 -3.8972 -1.20757 0
M  V30 51993 H 4751.33 -4.15813 -0.0851427 0
M  V30 51994 H 4749.91 -3.31366 -1.7103 0
M  V30 51995 N 4752.09 0.0400529 -1.57549 0
M  V30 51996 C 4753.32 0.748863 -1.93408 0
M  V30 51997 C 4753.74 1.68683 -0.832334 0
M  V30 51998 O 4753.1 1.80047 0.212755 0
M  V30 51999 C 4753.15 1.49148 -3.2831 0
M  V30 52000 O 4752.25 2.60408 -3.19783 0
M  V30 52001 H 4751.59 0.20219 -0.632467 0
M  V30 52002 H 4754.12 -0.00119279 -2.046 0
M  V30 52003 H 4754.13 1.86383 -3.6294 0
M  V30 52004 H 4752.81 0.803496 -4.08065 0
M  V30 52005 H 4751.38 2.25798 -2.96766 0
M  V30 52006 N 4753.57 1.54478 0.312115 0
M  V30 52007 C 4754.79 1.77529 1.07229 0
M  V30 52008 C 4755.22 0.527838 1.80542 0
M  V30 52009 O 4754.58 -0.521149 1.73648 0
M  V30 52010 C 4754.63 2.97543 2.03717 0
M  V30 52011 O 4753.73 2.69889 3.11823 0
M  V30 52012 H 4753.07 0.587931 0.308599 0
M  V30 52013 H 4755.6 2.01533 0.352922 0
M  V30 52014 H 4755.61 3.25207 2.46383 0
M  V30 52015 H 4754.29 3.88001 1.4976 0
M  V30 52016 H 4752.86 2.53209 2.73751 0
M  V30 52017 N 4755.05 -0.574758 1.46746 0
M  V30 52018 C 4756.28 -1.35851 1.56052 0
M  V30 52019 C 4756.69 -1.8769 0.204431 0
M  V30 52020 O 4756.05 -1.64052 -0.799572 0
M  V30 52021 C 4756.1 -2.54057 2.57172 0
M  V30 52022 O 4755.82 -2.04364 3.87514 0
M  V30 52023 C 4757.32 -3.46505 2.76495 0
M  V30 52024 H 4754.54 -0.414735 0.527481 0
M  V30 52025 H 4757.08 -0.697968 1.9222 0
M  V30 52026 H 4755.24 -3.16084 2.23986 0
M  V30 52027 H 4755.65 -2.81403 4.4262 0
M  V30 52028 H 4757.13 -4.25906 3.51152 0
M  V30 52029 H 4757.6 -3.98944 1.83685 0
M  V30 52030 H 4758.21 -2.90307 3.10809 0
M  V30 52031 N 4756.53 -1.34584 -0.820054 0
M  V30 52032 C 4757.75 -1.30185 -1.60808 0
M  V30 52033 C 4758.17 0.123485 -1.88396 0
M  V30 52034 O 4757.53 1.07143 -1.47739 0
M  V30 52035 C 4757.58 -2.09322 -2.94731 0
M  V30 52036 O 4757.3 -3.46297 -2.68346 0
M  V30 52037 C 4758.8 -2.12354 -3.89128 0
M  V30 52038 H 4756.02 -0.447744 -0.499767 0
M  V30 52039 H 4758.56 -1.7724 -1.02011 0
M  V30 52040 H 4756.72 -1.65902 -3.50079 0
M  V30 52041 H 4757.13 -3.87239 -3.5376 0
M  V30 52042 H 4758.61 -2.72143 -4.80252 0
M  V30 52043 H 4759.08 -1.11869 -4.24714 0
M  V30 52044 H 4759.69 -2.55876 -3.39717 0
M  V30 52045 N 4758 1.0406 -1.18361 0
M  V30 52046 C 4759.25 1.76911 -0.977075 0
M  V30 52047 C 4759.57 1.88626 0.494511 0
M  V30 52048 O 4758.84 1.41129 1.35865 0
M  V30 52049 H 4757.42 0.655338 -0.358527 0
M  V30 52050 H 4760.08 1.25587 -1.49044 0
M  V30 52051 H 4759.18 2.78173 -1.41514 0
M  V30 52052 N 4759.48 0.985651 1.22974 0
M  V30 52053 C 4760.71 0.675323 1.96097 0
M  V30 52054 C 4761.13 -0.752093 1.7241 0
M  V30 52055 O 4760.49 -1.51306 0.998804 0
M  V30 52056 C 4760.54 0.978022 3.47084 0
M  V30 52057 O 4759.64 0.07283 4.12336 0
M  V30 52058 H 4758.98 0.253465 0.613719 0
M  V30 52059 H 4761.51 1.32067 1.56268 0
M  V30 52060 H 4761.52 0.916879 3.97564 0
M  V30 52061 H 4760.2 2.0182 3.6365 0
M  V30 52062 H 4758.77 0.188834 3.72422 0
M  V30 52063 N 4760.96 -1.38177 0.757949 0
M  V30 52064 C 4762.21 -2.00315 0.316523 0
M  V30 52065 C 4762.54 -1.60029 -1.10019 0
M  V30 52066 O 4761.81 -0.839897 -1.75431 0
M  V30 52067 C 4762.1 -3.57348 0.44437 0
M  V30 52068 C 4761.95 -4.07584 1.90251 0
M  V30 52069 C 4763.27 -4.3981 -0.159645 0
M  V30 52070 H 4760.39 -0.727737 0.116484 0
M  V30 52071 H 4763.03 -1.64056 0.95841 0
M  V30 52072 H 4761.18 -3.88366 -0.102097 0
M  V30 52073 H 4762.85 -3.8719 2.50762 0
M  V30 52074 H 4761.1 -3.60289 2.41608 0
M  V30 52075 H 4761.77 -5.1667 1.94309 0
M  V30 52076 H 4764.24 -4.1497 0.30646 0
M  V30 52077 H 4763.12 -5.48885 -0.0399745 0
M  V30 52078 H 4763.38 -4.24107 -1.24844 0
M  V30 52079 N 4762.44 -0.507371 -1.4921 0
M  V30 52080 C 4763.35 0.272054 -2.33017 0
M  V30 52081 C 4764.36 0.961155 -1.45044 0
M  V30 52082 O 4765.54 0.941128 -1.78058 0
M  V30 52083 C 4762.61 1.31884 -3.20636 0
M  V30 52084 C 4761.67 0.642499 -4.24465 0
M  V30 52085 C 4760.9 1.63941 -5.07897 0
M  V30 52086 O 4761.12 2.8699 -4.92943 0
M  V30 52087 O 4760.06 1.19123 -5.89994 0
M  V30 52088 H 4763.88 -0.414088 -3.00864 0
M  V30 52089 H 4761.47 -0.268607 -1.46966 0
M  V30 52090 H 4763.35 1.92432 -3.74897 0
M  V30 52091 H 4762.02 1.98779 -2.55477 0
M  V30 52092 H 4760.93 -0.00289403 -3.741 0
M  V30 52093 H 4762.26 0.0158803 -4.92197 0
M  V30 52094 N 4763.92 1.55739 -0.241481 0
M  V30 52095 C 4765.19 1.90706 0.434813 0
M  V30 52096 C 4765.57 1.16151 1.76273 0
M  V30 52097 O 4764.92 0.277231 2.26812 0
M  V30 52098 C 4765.13 3.43659 0.608222 0
M  V30 52099 C 4766.48 4.14809 0.906579 0
M  V30 52100 O 4767.5 3.49368 0.694285 0
M  V30 52101 O 4766.36 5.30553 1.31056 0
M  V30 52102 H 4763.46 0.793601 0.232652 0
M  V30 52103 H 4766 1.67287 -0.285145 0
M  V30 52104 H 4764.77 3.89926 -0.327642 0
M  V30 52105 H 4764.4 3.72923 1.37892 0
M  V30 52106 N 4765.39 -0.0316971 1.57568 0
M  V30 52107 C 4766.3 -1.05014 2.09784 0
M  V30 52108 C 4767.32 -1.39805 1.03588 0
M  V30 52109 O 4768.5 -1.49177 1.35307 0
M  V30 52110 C 4765.56 -2.33292 2.56468 0
M  V30 52111 C 4764.62 -2.05106 3.77134 0
M  V30 52112 C 4763.86 -3.27268 4.21582 0
M  V30 52113 O 4764.08 -4.37848 3.65575 0
M  V30 52114 O 4763.01 -3.13123 5.1404 0
M  V30 52115 H 4766.84 -0.6364 2.96957 0
M  V30 52116 H 4764.42 -0.248507 1.47319 0
M  V30 52117 H 4766.31 -3.08712 2.86836 0
M  V30 52118 H 4764.98 -2.73967 1.72406 0
M  V30 52119 H 4763.89 -1.27263 3.51788 0
M  V30 52120 H 4765.22 -1.69289 4.62171 0
M  V30 52121 N 4766.87 -1.54642 -0.303919 0
M  V30 52122 C 4767.82 -1.81775 -1.3763 0
M  V30 52123 C 4768.81 -0.674748 -1.46068 0
M  V30 52124 O 4770 -0.935304 -1.5027 0
M  V30 52125 C 4767.13 -2.06594 -2.74178 0
M  V30 52126 C 4766.21 -3.2707 -2.69974 0
M  V30 52127 N 4766.6 -4.47691 -2.35386 0
M  V30 52128 C 4764.9 -3.29039 -3.01081 0
M  V30 52129 C 4765.6 -5.29697 -2.40407 0
M  V30 52130 N 4764.58 -4.67349 -2.77644 0
M  V30 52131 H 4768.38 -2.726 -1.09847 0
M  V30 52132 H 4765.9 -1.54102 -0.512486 0
M  V30 52133 H 4767.89 -2.24178 -3.51496 0
M  V30 52134 H 4766.55 -1.17035 -3.02875 0
M  V30 52135 H 4767.56 -4.74343 -2.07891 0
M  V30 52136 H 4764.24 -2.49576 -3.34691 0
M  V30 52137 H 4765.63 -6.36068 -2.16489 0
M  V30 52138 N 4768.35 0.566968 -1.47048 0
M  V30 52139 C 4769.31 1.6569 -1.58365 0
M  V30 52140 C 4770.31 1.54095 -0.459496 0
M  V30 52141 O 4771.5 1.58429 -0.724281 0
M  V30 52142 C 4768.64 3.05192 -1.5189 0
M  V30 52143 H 4769.83 1.5701 -2.55515 0
M  V30 52144 H 4767.38 0.786101 -1.35093 0
M  V30 52145 H 4768.12 3.19415 -0.560785 0
M  V30 52146 H 4767.9 3.15017 -2.33466 0
M  V30 52147 H 4769.39 3.84506 -1.62927 0
M  V30 52148 N 4769.83 1.35017 0.812906 0
M  V30 52149 C 4770.76 1.30075 1.93914 0
M  V30 52150 C 4771.74 0.176334 1.69184 0
M  V30 52151 O 4772.92 0.370294 1.90637 0
M  V30 52152 C 4770.05 1.06559 3.30549 0
M  V30 52153 C 4769.01 2.15574 3.69745 0
M  V30 52154 C 4768.33 1.77232 5.04473 0
M  V30 52155 C 4769.63 3.57489 3.80787 0
M  V30 52156 H 4771.33 2.2431 1.98306 0
M  V30 52157 H 4768.87 1.0798 0.952698 0
M  V30 52158 H 4770.83 1.01744 4.08933 0
M  V30 52159 H 4769.55 0.0876867 3.26482 0
M  V30 52160 H 4768.21 2.19476 2.93642 0
M  V30 52161 H 4767.86 0.780764 4.96903 0
M  V30 52162 H 4767.56 2.50203 5.31669 0
M  V30 52163 H 4769.08 1.7393 5.85304 0
M  V30 52164 H 4770.5 3.55945 4.49418 0
M  V30 52165 H 4768.89 4.29167 4.19447 0
M  V30 52166 H 4769.96 3.94101 2.82511 0
M  V30 52167 N 4771.31 -1.03431 1.18911 0
M  V30 52168 C 4772.56 -1.7614 0.98273 0
M  V30 52169 C 4772.87 -1.89418 -0.487886 0
M  V30 52170 O 4774.07 -2.59043 -0.812944 0
M  V30 52171 C 4772.53 -3.16716 1.70935 0
M  V30 52172 C 4772.14 -3.11511 3.2197 0
M  V30 52173 C 4773.88 -3.93759 1.58601 0
M  V30 52174 C 4771.79 -4.46985 3.87244 0
M  V30 52175 H 4770.72 -0.66028 0.36407 0
M  V30 52176 H 4773.37 -1.15795 1.42351 0
M  V30 52177 H 4771.75 -3.77496 1.19637 0
M  V30 52178 H 4772.93 -2.60145 3.80344 0
M  V30 52179 H 4771.24 -2.47966 3.34517 0
M  V30 52180 H 4773.84 -4.93956 2.04724 0
M  V30 52181 H 4774.18 -4.12792 0.539287 0
M  V30 52182 H 4774.71 -3.39569 2.07215 0
M  V30 52183 H 4771.45 -4.33157 4.91992 0
M  V30 52184 H 4770.97 -4.98429 3.33659 0
M  V30 52185 H 4772.65 -5.15884 3.90477 0
M  V30 52186 N 4772.78 -0.992159 -1.2245 0
M  V30 52187 C 4773.72 -0.500102 -2.23677 0
M  V30 52188 C 4774.73 0.404407 -1.57697 0
M  V30 52189 O 4775.92 0.206659 -1.773 0
M  V30 52190 C 4773.02 0.294592 -3.37617 0
M  V30 52191 C 4772.19 -0.605875 -4.33183 0
M  V30 52192 C 4771.25 0.136985 -5.26022 0
M  V30 52193 O 4770.28 -0.477363 -5.67195 0
M  V30 52194 N 4771.48 1.4195 -5.62877 0
M  V30 52195 H 4774.24 -1.37055 -2.66526 0
M  V30 52196 H 4771.8 -0.866789 -1.36742 0
M  V30 52197 H 4773.8 0.80019 -3.9671 0
M  V30 52198 H 4772.37 1.06613 -2.93858 0
M  V30 52199 H 4771.59 -1.29215 -3.72421 0
M  V30 52200 H 4772.87 -1.21914 -4.93978 0
M  V30 52201 H 4772.27 1.93996 -5.31396 0
M  V30 52202 H 4770.83 1.8703 -6.2439 0
M  V30 52203 N 4774.26 1.37773 -0.765266 0
M  V30 52204 C 4775.19 2.28957 -0.105442 0
M  V30 52205 C 4776.21 1.48318 0.671228 0
M  V30 52206 O 4777.4 1.71048 0.51039 0
M  V30 52207 C 4774.5 3.27424 0.874453 0
M  V30 52208 C 4773.67 4.37132 0.152969 0
M  V30 52209 C 4772.73 5.15713 1.04529 0
M  V30 52210 O 4771.75 5.66897 0.511472 0
M  V30 52211 N 4772.96 5.29816 2.37224 0
M  V30 52212 H 4775.72 2.86224 -0.888596 0
M  V30 52213 H 4773.28 1.4968 -0.617053 0
M  V30 52214 H 4775.27 3.76875 1.47469 0
M  V30 52215 H 4773.84 2.70972 1.55861 0
M  V30 52216 H 4773.06 3.89164 -0.628112 0
M  V30 52217 H 4774.35 5.07623 -0.345822 0
M  V30 52218 H 4773.75 4.89803 2.83036 0
M  V30 52219 H 4772.31 5.82599 2.9227 0
M  V30 52220 N 4775.74 0.515277 1.48938 0
M  V30 52221 C 4776.97 -0.0205009 2.0659 0
M  V30 52222 C 4777.38 -1.30059 1.37409 0
M  V30 52223 O 4776.72 -1.78085 0.450695 0
M  V30 52224 C 4776.78 -0.329998 3.57982 0
M  V30 52225 C 4776.45 0.854453 4.48941 0
M  V30 52226 C 4777.45 1.74887 4.89602 0
M  V30 52227 C 4775.13 1.05729 4.91046 0
M  V30 52228 C 4777.12 2.83016 5.71122 0
M  V30 52229 C 4774.81 2.14174 5.72339 0
M  V30 52230 C 4775.81 3.02651 6.12284 0
M  V30 52231 O 4775.5 4.09223 6.91948 0
M  V30 52232 H 4775.23 0.0237071 0.675584 0
M  V30 52233 H 4777.78 0.716024 1.92516 0
M  V30 52234 H 4776.01 -1.12031 3.70116 0
M  V30 52235 H 4777.7 -0.806093 3.97815 0
M  V30 52236 H 4778.47 1.60404 4.57707 0
M  V30 52237 H 4774.35 0.37795 4.59448 0
M  V30 52238 H 4777.89 3.52104 6.0222 0
M  V30 52239 H 4773.79 2.28647 6.03648 0
M  V30 52240 H 4774.56 4.06751 7.10279 0
M  V30 52241 N 4777.22 -1.55609 0.249737 0
M  V30 52242 C 4778.46 -2.00917 -0.375719 0
M  V30 52243 C 4778.82 -1.13415 -1.54923 0
M  V30 52244 O 4780.02 -1.48191 -2.24261 0
M  V30 52245 C 4778.3 -3.48951 -0.772511 0
M  V30 52246 S 4779.85 -4.16266 -1.38809 0
M  V30 52247 H 4776.67 -0.701124 -0.118092 0
M  V30 52248 H 4779.27 -1.9205 0.365635 0
M  V30 52249 H 4777.98 -4.10299 0.0908272 0
M  V30 52250 H 4777.51 -3.6175 -1.54597 0
M  V30 52251 H 4779.52 -4.17787 -2.6771 0
M  V30 52252 N 4778.7 0.0233405 -1.57583 0
M  V30 52253 C 4779.63 1.04987 -2.03741 0
M  V30 52254 C 4780.64 1.32121 -0.951199 0
M  V30 52255 O 4781.83 1.29508 -1.22841 0
M  V30 52256 C 4778.93 2.39018 -2.40258 0
M  V30 52257 C 4778.1 2.31158 -3.71329 0
M  V30 52258 C 4777.16 3.47684 -3.94971 0
M  V30 52259 O 4776.19 3.2692 -4.65953 0
M  V30 52260 N 4777.39 4.69748 -3.41053 0
M  V30 52261 H 4780.16 0.656404 -2.92423 0
M  V30 52262 H 4777.72 0.211179 -1.60517 0
M  V30 52263 H 4779.71 3.15703 -2.53207 0
M  V30 52264 H 4778.28 2.70189 -1.57216 0
M  V30 52265 H 4777.5 1.39534 -3.68679 0
M  V30 52266 H 4778.79 2.23055 -4.57301 0
M  V30 52267 H 4778.19 4.89518 -2.83529 0
M  V30 52268 H 4776.74 5.43778 -3.59372 0
M  V30 52269 N 4780.18 1.54801 0.295713 0
M  V30 52270 C 4781.4 1.78331 1.04908 0
M  V30 52271 C 4781.82 0.545379 1.80751 0
M  V30 52272 O 4781.18 -0.484952 1.75939 0
M  V30 52273 C 4781.23 2.99425 2.0255 0
M  V30 52274 O 4780.95 4.18435 1.29783 0
M  V30 52275 C 4782.45 3.35385 2.89883 0
M  V30 52276 H 4779.67 0.594629 0.310897 0
M  V30 52277 H 4782.21 2.01764 0.333383 0
M  V30 52278 H 4780.37 2.78185 2.69614 0
M  V30 52279 H 4780.78 4.86743 1.95402 0
M  V30 52280 H 4782.26 4.23345 3.54236 0
M  V30 52281 H 4782.73 2.53774 3.58463 0
M  V30 52282 H 4783.34 3.58804 2.28342 0
M  V30 52283 N 4781.65 -0.559161 1.47347 0
M  V30 52284 C 4782.58 -1.67616 1.62564 0
M  V30 52285 C 4783.56 -1.63329 0.475144 0
M  V30 52286 O 4784.75 -1.80981 0.704246 0
M  V30 52287 C 4781.88 -3.06254 1.63785 0
M  V30 52288 C 4780.83 -3.25387 2.78042 0
M  V30 52289 C 4780.16 -4.64792 2.64334 0
M  V30 52290 C 4781.46 -3.1095 4.19652 0
M  V30 52291 H 4783.15 -1.55137 2.56072 0
M  V30 52292 H 4780.7 -0.744918 1.23235 0
M  V30 52293 H 4782.65 -3.84241 1.73022 0
M  V30 52294 H 4781.38 -3.19688 0.668363 0
M  V30 52295 H 4780.04 -2.49808 2.68313 0
M  V30 52296 H 4779.68 -4.75022 1.65418 0
M  V30 52297 H 4779.38 -4.78543 3.40985 0
M  V30 52298 H 4780.91 -5.44916 2.75497 0
M  V30 52299 H 4782.32 -3.78756 4.30368 0
M  V30 52300 H 4780.72 -3.36211 4.97074 0
M  V30 52301 H 4781.79 -2.07721 4.38155 0
M  V30 52302 N 4783.13 -1.35446 -0.805734 0
M  V30 52303 C 4784.38 -1.28512 -1.55977 0
M  V30 52304 C 4784.7 0.139978 -1.94497 0
M  V30 52305 O 4783.97 1.0766 -1.63665 0
M  V30 52306 H 4782.55 -0.472696 -0.578418 0
M  V30 52307 H 4785.21 -1.69558 -0.961038 0
M  V30 52308 H 4784.31 -1.90157 -2.47481 0
M  V30 52309 N 4784.61 1.02799 -1.19458 0
M  V30 52310 C 4785.86 1.75865 -0.995784 0
M  V30 52311 C 4786.18 1.89139 0.474477 0
M  V30 52312 O 4785.45 1.42562 1.34361 0
M  V30 52313 H 4784.03 0.651498 -0.365458 0
M  V30 52314 H 4786.69 1.23999 -1.50367 0
M  V30 52315 H 4785.79 2.76656 -1.44456 0
M  V30 52316 N 4786.09 0.998639 1.21922 0
M  V30 52317 C 4787 0.562816 2.27749 0
M  V30 52318 C 4788.01 -0.391143 1.69547 0
M  V30 52319 O 4789.19 -0.256554 1.99759 0
M  V30 52320 C 4786.25 -0.109998 3.46525 0
M  V30 52321 C 4785.32 0.887643 4.20023 0
M  V30 52322 C 4784.55 0.246841 5.33129 0
M  V30 52323 O 4784.77 -0.95789 5.62299 0
M  V30 52324 O 4783.71 0.954583 5.94282 0
M  V30 52325 H 4787.53 1.44339 2.67208 0
M  V30 52326 H 4785.12 0.76718 1.28198 0
M  V30 52327 H 4787 -0.486609 4.18581 0
M  V30 52328 H 4785.67 -0.965045 3.0898 0
M  V30 52329 H 4784.58 1.31529 3.50215 0
M  V30 52330 H 4785.91 1.71207 4.61464 0
M  V30 52331 N 4787.57 -1.37365 0.772562 0
M  V30 52332 C 4788.79 -2.04469 0.347457 0
M  V30 52333 C 4789.22 -1.57885 -1.02244 0
M  V30 52334 O 4788.57 -0.739469 -1.65534 0
M  V30 52335 C 4788.62 -3.58368 0.400605 0
M  V30 52336 O 4787.73 -4.08032 -0.598646 0
M  V30 52337 H 4787.07 -0.646767 0.150293 0
M  V30 52338 H 4789.6 -1.75663 1.04898 0
M  V30 52339 H 4789.61 -4.07182 0.258189 0
M  V30 52340 H 4788.28 -3.91628 1.4 0
M  V30 52341 H 4786.86 -3.70535 -0.419281 0
M  V30 52342 N 4789.04 -0.523168 -1.48663 0
M  V30 52343 C 4790.45 -0.0809653 -1.86524 0
M  V30 52344 C 4790.81 1.3397 -1.43341 0
M  V30 52345 O 4789.93 2.00218 -0.821079 0
M  V30 52346 C 4790.53 -0.140156 -3.3851 0
M  V30 52347 C 4789.08 0.246816 -3.7559 0
M  V30 52348 C 4788.23 -0.502941 -2.72701 0
M  V30 52349 H 4791.18 -0.734786 -1.40665 0
M  V30 52350 H 4791.2 0.649813 -3.7491 0
M  V30 52351 H 4790.72 -1.17425 -3.6991 0
M  V30 52352 H 4788.82 1.28331 -3.49803 0
M  V30 52353 H 4788.93 -0.0880543 -4.79019 0
M  V30 52354 H 4787.29 0.0499686 -2.54651 0
M  V30 52355 H 4788.08 -1.53753 -3.06944 0
M  V30 52356 N 4790.52 1.55474 -0.257986 0
M  V30 52357 C 4791.77 1.99503 0.364196 0
M  V30 52358 C 4792.1 1.14605 1.56778 0
M  V30 52359 O 4791.38 0.212036 1.93341 0
M  V30 52360 C 4791.66 3.51919 0.76321 0
M  V30 52361 C 4791.51 4.47578 -0.446529 0
M  V30 52362 C 4792.83 4.09748 1.60608 0
M  V30 52363 H 4789.95 0.725282 0.130903 0
M  V30 52364 H 4792.59 1.86529 -0.361512 0
M  V30 52365 H 4790.74 3.63106 1.38153 0
M  V30 52366 H 4792.41 4.48358 -1.08503 0
M  V30 52367 H 4790.66 4.19943 -1.08768 0
M  V30 52368 H 4791.33 5.51861 -0.123839 0
M  V30 52369 H 4793.8 4.01731 1.08403 0
M  V30 52370 H 4792.68 5.16637 1.85411 0
M  V30 52371 H 4792.94 3.58898 2.58156 0
M  V30 52372 N 4792 -0.0149831 1.57593 0
M  V30 52373 C 4793.23 -0.717999 1.94575 0
M  V30 52374 C 4793.65 -1.67337 0.859064 0
M  V30 52375 O 4793.01 -1.80363 -0.184084 0
M  V30 52376 C 4793.06 -1.43906 3.30641 0
M  V30 52377 O 4792.16 -2.55288 3.23885 0
M  V30 52378 H 4791.5 -0.192103 0.635604 0
M  V30 52379 H 4794.03 0.0337427 2.04572 0
M  V30 52380 H 4794.04 -1.80585 3.65859 0
M  V30 52381 H 4792.72 -0.738475 4.09291 0
M  V30 52382 H 4791.29 -2.21048 3.0032 0
M  V30 52383 N 4793.48 -1.54955 -0.2875 0
M  V30 52384 C 4794.41 -1.83229 -1.37694 0
M  V30 52385 C 4795.42 -0.71595 -1.46212 0
M  V30 52386 O 4796.61 -0.993617 -1.48289 0
M  V30 52387 C 4793.71 -1.96732 -2.75952 0
M  V30 52388 C 4792.89 -3.27263 -2.90203 0
M  V30 52389 C 4791.94 -3.31012 -4.09044 0
M  V30 52390 O 4790.97 -4.04471 -4.00489 0
M  V30 52391 N 4792.17 -2.57371 -5.20327 0
M  V30 52392 H 4794.94 -2.77258 -1.1379 0
M  V30 52393 H 4792.5 -1.54695 -0.477598 0
M  V30 52394 H 4794.49 -1.96627 -3.53723 0
M  V30 52395 H 4793.06 -1.09637 -2.92743 0
M  V30 52396 H 4792.28 -3.40029 -1.99435 0
M  V30 52397 H 4793.57 -4.13376 -2.96645 0
M  V30 52398 H 4792.97 -1.97345 -5.30162 0
M  V30 52399 H 4791.52 -2.63005 -5.96382 0
M  V30 52400 N 4794.96 0.551339 -1.47641 0
M  V30 52401 C 4796.37 1.13344 -1.48358 0
M  V30 52402 C 4796.72 1.94708 -0.2415 0
M  V30 52403 O 4795.84 2.06308 0.653133 0
M  V30 52404 C 4796.44 2.0622 -2.6881 0
M  V30 52405 C 4795 2.5969 -2.72466 0
M  V30 52406 C 4794.14 1.36192 -2.41551 0
M  V30 52407 H 4797.1 0.337644 -1.55067 0
M  V30 52408 H 4797.12 2.90187 -2.46113 0
M  V30 52409 H 4796.63 1.46975 -3.59194 0
M  V30 52410 H 4794.73 3.22718 -1.86236 0
M  V30 52411 H 4794.84 3.00283 -3.73319 0
M  V30 52412 H 4793.21 1.67062 -1.92256 0
M  V30 52413 H 4793.99 0.787308 -3.3415 0
M  V30 52414 N 4796.43 1.35872 0.79854 0
M  V30 52415 C 4797.37 1.25311 1.91911 0
M  V30 52416 C 4798.38 0.174605 1.61861 0
M  V30 52417 O 4799.57 0.42856 1.73279 0
M  V30 52418 C 4796.67 0.908714 3.2649 0
M  V30 52419 C 4795.84 2.08724 3.84386 0
M  V30 52420 C 4794.9 1.71735 4.97387 0
M  V30 52421 O 4793.93 2.4371 5.14387 0
M  V30 52422 N 4795.13 0.645675 5.76898 0
M  V30 52423 H 4797.89 2.21856 2.01494 0
M  V30 52424 H 4795.45 1.29146 0.976363 0
M  V30 52425 H 4797.45 0.642596 3.99566 0
M  V30 52426 H 4796.02 0.0326914 3.12583 0
M  V30 52427 H 4795.24 2.5167 3.03407 0
M  V30 52428 H 4796.52 2.87482 4.19799 0
M  V30 52429 H 4795.92 0.0478469 5.6568 0
M  V30 52430 H 4794.48 0.439358 6.50318 0
M  V30 52431 N 4797.91 -1.02164 1.20001 0
M  V30 52432 C 4799.14 -1.79829 1.03325 0
M  V30 52433 C 4799.56 -1.83505 -0.413216 0
M  V30 52434 O 4798.92 -1.2664 -1.29739 0
M  V30 52435 C 4798.97 -3.22391 1.61545 0
M  V30 52436 O 4798.07 -4.03552 0.849661 0
M  V30 52437 H 4797.41 -0.554859 0.364729 0
M  V30 52438 H 4799.94 -1.28537 1.59184 0
M  V30 52439 H 4799.95 -3.73118 1.65067 0
M  V30 52440 H 4798.63 -3.1903 2.6682 0
M  V30 52441 H 4797.21 -3.62166 0.888256 0
M  V30 52442 N 4799.39 -1.00509 -1.21391 0
M  V30 52443 C 4800.8 -0.721143 -1.7221 0
M  V30 52444 C 4801.15 0.761199 -1.80832 0
M  V30 52445 O 4800.28 1.59459 -1.46294 0
M  V30 52446 C 4800.87 -1.30239 -3.12767 0
M  V30 52447 C 4799.43 -1.06756 -3.60943 0
M  V30 52448 C 4798.58 -1.41515 -2.38472 0
M  V30 52449 H 4801.53 -1.17598 -1.06566 0
M  V30 52450 H 4801.55 -0.687087 -3.74245 0
M  V30 52451 H 4801.06 -2.38126 -3.0646 0
M  V30 52452 H 4799.16 -0.00585261 -3.726 0
M  V30 52453 H 4799.28 -1.73951 -4.46405 0
M  V30 52454 H 4797.64 -0.833936 -2.40661 0
M  V30 52455 H 4798.42 -2.50433 -2.34816 0
M  V30 52456 N 4800.87 1.36954 -0.779835 0
M  V30 52457 C 4801.83 2.2851 -0.177743 0
M  V30 52458 C 4802.83 1.48395 0.619325 0
M  V30 52459 O 4804.02 1.68506 0.441725 0
M  V30 52460 C 4801.15 3.32431 0.755162 0
M  V30 52461 H 4802.35 2.83265 -0.984922 0
M  V30 52462 H 4799.9 1.46356 -0.548596 0
M  V30 52463 H 4800.63 2.82813 1.58704 0
M  V30 52464 H 4800.42 3.9166 0.18568 0
M  V30 52465 H 4801.91 4.00828 1.1716 0
M  V30 52466 N 4802.35 0.531045 1.48384 0
M  V30 52467 C 4803.28 -0.268273 2.27625 0
M  V30 52468 C 4804.29 -0.903477 1.35429 0
M  V30 52469 O 4805.48 -0.78174 1.60471 0
M  V30 52470 C 4802.58 -1.39524 3.08846 0
M  V30 52471 C 4801.75 -0.861762 4.28827 0
M  V30 52472 C 4800.81 -1.86999 4.91851 0
M  V30 52473 O 4799.84 -1.42651 5.51035 0
M  V30 52474 N 4801.04 -3.20221 4.84189 0
M  V30 52475 H 4803.81 0.411335 2.96864 0
M  V30 52476 H 4801.37 0.365443 1.57722 0
M  V30 52477 H 4803.36 -2.06791 3.47879 0
M  V30 52478 H 4801.93 -1.9785 2.42021 0
M  V30 52479 H 4801.15 -0.013074 3.94198 0
M  V30 52480 H 4802.44 -0.484237 5.0649 0
M  V30 52481 H 4801.83 -3.58917 4.37259 0
M  V30 52482 H 4800.39 -3.83117 5.27318 0
M  V30 52483 N 4803.82 -1.55335 0.266227 0
M  V30 52484 C 4805.07 -1.98575 -0.353679 0
M  V30 52485 C 4805.39 -1.15795 -1.57642 0
M  V30 52486 O 4806.59 -1.49137 -2.26871 0
M  V30 52487 C 4805.05 -3.53406 -0.680623 0
M  V30 52488 C 4804.66 -4.44951 0.521807 0
M  V30 52489 C 4806.4 -4.05256 -1.26365 0
M  V30 52490 C 4804.31 -5.91156 0.169943 0
M  V30 52491 H 4803.24 -0.741647 -0.135923 0
M  V30 52492 H 4805.89 -1.79742 0.369484 0
M  V30 52493 H 4804.27 -3.68006 -1.46244 0
M  V30 52494 H 4805.44 -4.42116 1.29884 0
M  V30 52495 H 4803.76 -4.03687 1.02107 0
M  V30 52496 H 4806.36 -5.12026 -1.54056 0
M  V30 52497 H 4806.7 -3.53756 -2.19459 0
M  V30 52498 H 4807.23 -3.94059 -0.544308 0
M  V30 52499 H 4803.97 -6.46732 1.06852 0
M  V30 52500 H 4803.49 -5.97081 -0.570507 0
M  V30 52501 H 4805.17 -6.46551 -0.241018 0
M  V30 52502 N 4805.3 0.0066254 -1.57599 0
M  V30 52503 C 4806.23 0.999222 -2.1104 0
M  V30 52504 C 4807.21 1.36275 -1.018 0
M  V30 52505 O 4808.4 1.44766 -1.29447 0
M  V30 52506 C 4805.53 2.29318 -2.60826 0
M  V30 52507 C 4804.48 2.07146 -3.74532 0
M  V30 52508 C 4803.81 3.42498 -4.10608 0
M  V30 52509 C 4805.11 1.43941 -5.02074 0
M  V30 52510 H 4806.8 0.554279 -2.94225 0
M  V30 52511 H 4804.35 0.265172 -1.41537 0
M  V30 52512 H 4806.3 2.99107 -2.96839 0
M  V30 52513 H 4805.03 2.75914 -1.74754 0
M  V30 52514 H 4803.69 1.39785 -3.38904 0
M  V30 52515 H 4803.33 3.86784 -3.2157 0
M  V30 52516 H 4803.03 3.2848 -4.87211 0
M  V30 52517 H 4804.56 4.13612 -4.49174 0
M  V30 52518 H 4805.97 2.03677 -5.359 0
M  V30 52519 H 4804.37 1.40432 -5.83437 0
M  V30 52520 H 4805.44 0.407823 -4.83182 0
M  V30 52521 N 4806.78 1.55106 0.279278 0
M  V30 52522 C 4807.73 1.87555 1.34506 0
M  V30 52523 C 4808.7 0.726437 1.49372 0
M  V30 52524 O 4809.88 0.977121 1.63881 0
M  V30 52525 C 4807.02 2.14748 2.70143 0
M  V30 52526 C 4806.14 3.42294 2.6355 0
M  V30 52527 C 4805.27 3.5922 3.91324 0
M  V30 52528 C 4804.31 4.80481 3.79216 0
M  V30 52529 N 4803.45 4.94096 4.98812 0
M  V30 52530 H 4808.29 2.78459 1.06134 0
M  V30 52531 H 4805.82 1.37869 0.512888 0
M  V30 52532 H 4807.78 2.28513 3.49053 0
M  V30 52533 H 4806.41 1.27085 2.96731 0
M  V30 52534 H 4805.46 3.37035 1.76385 0
M  V30 52535 H 4806.78 4.31336 2.505 0
M  V30 52536 H 4805.93 3.72768 4.78674 0
M  V30 52537 H 4804.67 2.68351 4.07233 0
M  V30 52538 H 4803.67 4.66942 2.90249 0
M  V30 52539 H 4804.9 5.72778 3.64832 0
M  V30 52540 H 4802.85 4.06157 5.15143 0
M  V30 52541 H 4802.76 5.77173 4.88269 0
M  V30 52542 H 4804.03 5.12024 5.87752 0
M  V30 52543 N 4808.26 -0.543502 1.47932 0
M  V30 52544 C 4809.48 -1.3299 1.59149 0
M  V30 52545 C 4809.91 -1.86471 0.247022 0
M  V30 52546 O 4809.27 -1.63698 -0.779266 0
M  V30 52547 C 4809.32 -2.46613 2.63086 0
M  V30 52548 O 4808.42 -3.49253 2.19307 0
M  V30 52549 H 4807.76 -0.394453 0.534137 0
M  V30 52550 H 4810.29 -0.655421 1.93818 0
M  V30 52551 H 4810.3 -2.92991 2.83937 0
M  V30 52552 H 4808.98 -2.07046 3.607 0
M  V30 52553 H 4807.55 -3.09087 2.08614 0
M  V30 52554 N 4809.74 -1.36293 -0.791323 0
M  V30 52555 C 4810.98 -1.3061 -1.55141 0
M  V30 52556 C 4811.32 0.114974 -1.93859 0
M  V30 52557 O 4810.59 1.06792 -1.6256 0
M  V30 52558 C 4810.87 -2.22702 -2.82977 0
M  V30 52559 C 4810.73 -3.73498 -2.50638 0
M  V30 52560 C 4812.05 -2.13602 -3.84789 0
M  V30 52561 H 4809.17 -0.475781 -0.562852 0
M  V30 52562 H 4811.81 -1.66829 -0.909299 0
M  V30 52563 H 4809.96 -1.91945 -3.37771 0
M  V30 52564 H 4811.63 -4.14765 -2.01909 0
M  V30 52565 H 4809.87 -3.93027 -1.83608 0
M  V30 52566 H 4810.54 -4.33342 -3.41933 0
M  V30 52567 H 4813.02 -2.40671 -3.39436 0
M  V30 52568 H 4811.9 -2.80211 -4.71988 0
M  V30 52569 H 4812.16 -1.12271 -4.27607 0
M  V30 52570 N 4811.22 1.01526 -1.20541 0
M  V30 52571 C 4812.13 2.13554 -0.971188 0
M  V30 52572 C 4813.14 1.73845 0.0733755 0
M  V30 52573 O 4814.32 2.01075 -0.114369 0
M  V30 52574 C 4811.38 3.4266 -0.527759 0
M  V30 52575 C 4810.44 3.96602 -1.64333 0
M  V30 52576 C 4809.68 5.19546 -1.22096 0
M  V30 52577 O 4809.9 5.70329 -0.0902203 0
M  V30 52578 O 4808.83 5.66674 -2.02891 0
M  V30 52579 H 4812.66 2.36184 -1.90921 0
M  V30 52580 H 4810.24 1.11943 -0.989402 0
M  V30 52581 H 4812.13 4.20403 -0.289769 0
M  V30 52582 H 4810.8 3.21442 0.381666 0
M  V30 52583 H 4809.71 3.20132 -1.93562 0
M  V30 52584 H 4811.04 4.2221 -2.52981 0
M  V30 52585 N 4812.69 1.01151 1.20856 0
M  V30 52586 C 4814.11 0.725472 1.42159 0
M  V30 52587 C 4814.31 -0.696853 1.89067 0
M  V30 52588 O 4813.37 -1.46532 2.05632 0
M  V30 52589 C 4814.68 1.74686 2.44755 0
M  V30 52590 C 4816.23 1.76442 2.58529 0
M  V30 52591 C 4816.7 2.77494 3.64364 0
M  V30 52592 N 4818.19 2.76202 3.71842 0
M  V30 52593 C 4818.93 3.51051 4.53377 0
M  V30 52594 N 4818.42 4.3556 5.38757 0
M  V30 52595 N 4820.22 3.39671 4.47861 0
M  V30 52596 H 4812.37 1.92983 0.887214 0
M  V30 52597 H 4814.63 0.833343 0.451933 0
M  V30 52598 H 4814.34 2.76558 2.17275 0
M  V30 52599 H 4814.21 1.55484 3.43663 0
M  V30 52600 H 4816.6 0.75258 2.85342 0
M  V30 52601 H 4816.68 1.99717 1.59833 0
M  V30 52602 H 4816.32 3.78839 3.38295 0
M  V30 52603 H 4816.25 2.51482 4.62671 0
M  V30 52604 H 4818.74 2.14896 3.10851 0
M  V30 52605 H 4819.06 4.89453 5.98043 0
M  V30 52606 H 4817.4 4.3964 5.38277 0
M  V30 52607 H 4820.59 2.73076 3.80193 0
M  V30 52608 H 4820.77 3.98258 5.1117 0
M  V30 52609 N 4814.17 -1.36538 0.787088 0
M  V30 52610 C 4815.08 -2.3387 0.184978 0
M  V30 52611 C 4816.1 -1.6093 -0.66164 0
M  V30 52612 O 4817.27 -1.92929 -0.577972 0
M  V30 52613 C 4814.34 -3.40125 -0.672025 0
M  V30 52614 C 4813.4 -4.28867 0.192821 0
M  V30 52615 C 4812.63 -5.30047 -0.623375 0
M  V30 52616 O 4812.86 -5.39239 -1.85951 0
M  V30 52617 O 4811.79 -6.01895 -0.0244952 0
M  V30 52618 H 4815.62 -2.87123 0.989663 0
M  V30 52619 H 4813.2 -1.38967 0.548504 0
M  V30 52620 H 4815.08 -4.05097 -1.16079 0
M  V30 52621 H 4813.76 -2.89175 -1.45464 0
M  V30 52622 H 4812.66 -3.66942 0.728295 0
M  V30 52623 H 4814 -4.83162 0.938892 0
M  V30 52624 N 4815.65 -0.538906 -1.481 0
M  V30 52625 C 4816.56 0.222566 -2.33542 0
M  V30 52626 C 4817.58 0.930173 -1.4705 0
M  V30 52627 O 4818.75 0.903148 -1.80014 0
M  V30 52628 C 4815.82 1.25053 -3.23361 0
M  V30 52629 C 4814.88 0.552319 -4.25732 0
M  V30 52630 C 4814.11 1.53131 -5.1126 0
M  V30 52631 O 4814.33 2.76469 -4.9892 0
M  V30 52632 O 4813.27 1.06581 -5.92388 0
M  V30 52633 H 4817.09 -0.477812 -2.99918 0
M  V30 52634 H 4814.68 -0.29972 -1.46363 0
M  V30 52635 H 4816.56 1.84437 -3.78894 0
M  V30 52636 H 4815.24 1.93316 -2.59636 0
M  V30 52637 H 4814.14 -0.0822455 -3.7401 0
M  V30 52638 H 4815.48 -0.0885256 -4.9212 0
M  V30 52639 N 4817.13 1.55192 -0.274461 0
M  V30 52640 C 4818.54 1.59401 0.0796982 0
M  V30 52641 C 4818.74 1.29168 1.54654 0
M  V30 52642 O 4817.8 1.05223 2.29531 0
M  V30 52643 C 4819.11 2.99256 -0.294343 0
M  V30 52644 C 4820.66 3.12072 -0.240906 0
M  V30 52645 C 4821.14 4.54192 -0.589378 0
M  V30 52646 N 4822.63 4.60031 -0.540906 0
M  V30 52647 C 4823.36 5.68024 -0.783347 0
M  V30 52648 N 4822.86 6.84166 -1.09037 0
M  V30 52649 N 4824.65 5.5757 -0.712189 0
M  V30 52650 H 4816.8 1.73109 -1.23073 0
M  V30 52651 H 4819.06 0.807179 -0.497158 0
M  V30 52652 H 4818.77 3.26213 -1.31446 0
M  V30 52653 H 4818.64 3.75428 0.365149 0
M  V30 52654 H 4821.03 2.84879 0.769923 0
M  V30 52655 H 4821.11 2.38113 -0.934647 0
M  V30 52656 H 4820.76 4.8211 -1.59789 0
M  V30 52657 H 4820.69 5.26449 0.126146 0
M  V30 52658 H 4823.18 3.76598 -0.313459 0
M  V30 52659 H 4823.49 7.62425 -1.26205 0
M  V30 52660 H 4821.84 6.85783 -1.12814 0
M  V30 52661 H 4825.03 4.65712 -0.472178 0
M  V30 52662 H 4825.2 6.41656 -0.904515 0
M  V30 52663 N 4818.61 0.00173253 1.576 0
M  V30 52664 C 4819.85 -0.681404 1.90266 0
M  V30 52665 C 4820.17 -1.74217 0.875985 0
M  V30 52666 O 4819.44 -1.95709 -0.0863724 0
M  V30 52667 H 4818.02 -0.254671 0.702248 0
M  V30 52668 H 4820.69 0.0430681 1.94852 0
M  V30 52669 H 4819.78 -1.15156 2.90079 0
M  V30 52670 N 4820.08 -1.55252 -0.271048 0
M  V30 52671 C 4820.99 -1.91365 -1.35708 0
M  V30 52672 C 4822.01 -0.811129 -1.53937 0
M  V30 52673 O 4823.19 -1.11037 -1.68026 0
M  V30 52674 C 4820.25 -2.1799 -2.69595 0
M  V30 52675 C 4819.31 -3.41539 -2.60095 0
M  V30 52676 C 4818.55 -3.66884 -3.87597 0
M  V30 52677 O 4818.77 -2.94706 -4.88369 0
M  V30 52678 O 4817.7 -4.60419 -3.87683 0
M  V30 52679 H 4821.53 -2.83818 -1.08078 0
M  V30 52680 H 4819.11 -1.41823 -0.469742 0
M  V30 52681 H 4821 -2.36531 -3.48757 0
M  V30 52682 H 4819.67 -1.28719 -2.97007 0
M  V30 52683 H 4818.58 -3.28332 -1.79302 0
M  V30 52684 H 4819.91 -4.31036 -2.37632 0
M  V30 52685 N 4821.56 0.535649 -1.48218 0
M  V30 52686 C 4822.49 1.65009 -1.6521 0
M  V30 52687 C 4823.47 1.62553 -0.501068 0
M  V30 52688 O 4824.66 1.79837 -0.732949 0
M  V30 52689 C 4821.79 3.0361 -1.68636 0
M  V30 52690 C 4820.74 3.20922 -2.83183 0
M  V30 52691 C 4820.07 4.60528 -2.71695 0
M  V30 52692 C 4821.37 3.04234 -4.24545 0
M  V30 52693 H 4823.06 1.51043 -2.58508 0
M  V30 52694 H 4820.61 0.725218 -1.24405 0
M  V30 52695 H 4822.56 3.8144 -1.79113 0
M  V30 52696 H 4821.29 3.18584 -0.719138 0
M  V30 52697 H 4819.94 2.45507 -2.72253 0
M  V30 52698 H 4819.59 4.7233 -1.72954 0
M  V30 52699 H 4819.29 4.73057 -3.48555 0
M  V30 52700 H 4820.82 5.40465 -2.84131 0
M  V30 52701 H 4822.23 3.71862 -4.36339 0
M  V30 52702 H 4820.63 3.28261 -5.02359 0
M  V30 52703 H 4821.7 2.00724 -4.41404 0
M  V30 52704 N 4823.04 1.36711 0.784084 0
M  V30 52705 C 4823.95 1.33637 1.92817 0
M  V30 52706 C 4824.97 0.237746 1.72368 0
M  V30 52707 O 4826.14 0.471031 1.95814 0
M  V30 52708 C 4823.21 1.13023 3.2776 0
M  V30 52709 C 4822.27 2.3241 3.60949 0
M  V30 52710 C 4821.5 2.12769 4.89454 0
M  V30 52711 O 4821.72 1.10561 5.59582 0
M  V30 52712 O 4820.66 3.00672 5.21421 0
M  V30 52713 H 4824.48 2.29971 1.9836 0
M  V30 52714 H 4822.07 1.17313 0.925094 0
M  V30 52715 H 4823.95 1.03466 4.08501 0
M  V30 52716 H 4822.63 0.197543 3.23097 0
M  V30 52717 H 4821.53 2.47537 2.80493 0
M  V30 52718 H 4822.87 3.24203 3.70342 0
M  V30 52719 N 4824.52 -1.00885 1.21078 0
M  V30 52720 C 4825.93 -1.26947 0.967301 0
M  V30 52721 C 4826.13 -1.98462 -0.348603 0
M  V30 52722 O 4825.19 -2.28463 -1.07522 0
M  V30 52723 C 4826.5 -2.09689 2.15525 0
M  V30 52724 C 4828.05 -2.22929 2.19708 0
M  V30 52725 C 4828.53 -3.09052 3.3801 0
M  V30 52726 N 4830.02 -3.16641 3.38072 0
M  V30 52727 C 4830.75 -3.83525 4.26258 0
M  V30 52728 N 4830.25 -4.5247 5.24636 0
M  V30 52729 N 4832.04 -3.80126 4.14078 0
M  V30 52730 H 4824.19 -0.528933 2.05709 0
M  V30 52731 H 4826.46 -0.296116 0.900566 0
M  V30 52732 H 4826.16 -1.64487 3.10865 0
M  V30 52733 H 4826.04 -3.10436 2.14264 0
M  V30 52734 H 4828.42 -2.67353 1.24926 0
M  V30 52735 H 4828.5 -1.21665 2.25014 0
M  V30 52736 H 4828.15 -2.65332 4.33083 0
M  V30 52737 H 4828.08 -4.10421 3.29942 0
M  V30 52738 H 4830.57 -2.67557 2.66874 0
M  V30 52739 H 4830.88 -5.01198 5.88235 0
M  V30 52740 H 4829.23 -4.5127 5.28565 0
M  V30 52741 H 4832.42 -3.25415 3.36485 0
M  V30 52742 H 4832.59 -4.31975 4.83013 0
M  V30 52743 N 4826 -1.01791 -1.20318 0
M  V30 52744 C 4827.25 -0.703316 -1.89041 0
M  V30 52745 C 4827.56 0.770382 -1.7979 0
M  V30 52746 O 4828.76 1.19758 -2.4366 0
M  V30 52747 C 4827.22 -1.2076 -3.39035 0
M  V30 52748 C 4826.83 -2.7083 -3.56868 0
M  V30 52749 C 4828.57 -0.968497 -4.13304 0
M  V30 52750 C 4826.48 -3.14733 -5.00696 0
M  V30 52751 H 4825.41 -0.259379 -0.707982 0
M  V30 52752 H 4828.06 -1.23077 -1.36104 0
M  V30 52753 H 4826.44 -0.608126 -3.91303 0
M  V30 52754 H 4827.62 -3.36338 -3.14981 0
M  V30 52755 H 4825.93 -2.92898 -2.95972 0
M  V30 52756 H 4828.53 -1.27192 -5.19352 0
M  V30 52757 H 4828.87 0.0950027 -4.16192 0
M  V30 52758 H 4829.4 -1.53142 -3.67141 0
M  V30 52759 H 4826.14 -4.20365 -5.02965 0
M  V30 52760 H 4825.66 -2.53946 -5.43389 0
M  V30 52761 H 4827.34 -3.07446 -5.69285 0
M  V30 52762 N 4827.47 1.36119 -0.794317 0
M  V30 52763 C 4828.72 1.9836 -0.365534 0
M  V30 52764 C 4829.04 1.63744 1.06992 0
M  V30 52765 O 4830.24 2.19257 1.60121 0
M  V30 52766 C 4828.7 3.54819 -0.602621 0
M  V30 52767 C 4828.31 3.98355 -2.04981 0
M  V30 52768 C 4830.05 4.23829 -0.238586 0
M  V30 52769 C 4827.96 5.47611 -2.23329 0
M  V30 52770 H 4826.89 0.742189 -0.132936 0
M  V30 52771 H 4829.54 1.55351 -0.976644 0
M  V30 52772 H 4827.92 3.95923 0.0782698 0
M  V30 52773 H 4829.09 3.68437 -2.7675 0
M  V30 52774 H 4827.41 3.42197 -2.37255 0
M  V30 52775 H 4830.01 5.33528 -0.353892 0
M  V30 52776 H 4830.35 4.08267 0.813863 0
M  V30 52777 H 4830.88 3.88105 -0.872906 0
M  V30 52778 H 4827.62 5.68127 -3.26975 0
M  V30 52779 H 4827.14 5.79139 -1.5607 0
M  V30 52780 H 4828.82 6.13904 -2.04282 0
M  V30 52781 N 4828.95 0.546753 1.47812 0
M  V30 52782 C 4829.92 -0.196207 2.28359 0
M  V30 52783 C 4830.92 -0.852389 1.36349 0
M  V30 52784 O 4832.11 -0.709858 1.59081 0
M  V30 52785 C 4829.24 -1.28568 3.15726 0
M  V30 52786 H 4830.43 0.51119 2.95511 0
M  V30 52787 H 4827.98 0.303302 1.53329 0
M  V30 52788 H 4828.72 -2.02581 2.53242 0
M  V30 52789 H 4828.5 -0.820094 3.83428 0
M  V30 52790 H 4829.99 -1.8078 3.76442 0
M  V30 52791 N 4830.43 -1.55044 0.282687 0
M  V30 52792 C 4831.71 -1.91792 -0.384098 0
M  V30 52793 C 4832.09 -1.20784 -1.73131 0
M  V30 52794 O 4831.44 -0.337269 -2.25997 0
M  V30 52795 C 4831.65 -3.45151 -0.516893 0
M  V30 52796 C 4832.99 -4.17067 -0.796281 0
M  V30 52797 O 4834.02 -3.51086 -0.601412 0
M  V30 52798 O 4832.88 -5.33841 -1.16943 0
M  V30 52799 H 4829.97 -0.79949 -0.211529 0
M  V30 52800 H 4832.52 -1.66472 0.329398 0
M  V30 52801 H 4831.29 -3.8892 0.430909 0
M  V30 52802 H 4830.91 -3.76448 -1.27957 0
M  V30 52803 N 4831.91 -0.0100904 -1.57597 0
M  V30 52804 C 4832.84 0.976782 -2.12088 0
M  V30 52805 C 4833.82 1.35187 -1.0324 0
M  V30 52806 O 4835 1.43385 -1.30975 0
M  V30 52807 C 4832.13 2.26539 -2.63244 0
M  V30 52808 C 4831.09 2.03162 -3.76708 0
M  V30 52809 C 4830.41 3.38124 -4.14218 0
M  V30 52810 C 4831.71 1.38608 -5.03572 0
M  V30 52811 H 4833.41 0.523041 -2.94796 0
M  V30 52812 H 4830.95 0.250145 -1.41811 0
M  V30 52813 H 4832.91 2.95941 -2.99994 0
M  V30 52814 H 4831.63 2.74045 -1.77671 0
M  V30 52815 H 4830.29 1.36183 -3.40367 0
M  V30 52816 H 4829.94 3.83352 -3.25654 0
M  V30 52817 H 4829.64 3.23294 -4.90667 0
M  V30 52818 H 4831.16 4.08825 -4.53536 0
M  V30 52819 H 4832.58 1.97981 -5.3803 0
M  V30 52820 H 4830.97 1.34236 -5.84894 0
M  V30 52821 H 4832.04 0.356552 -4.83587 0
M  V30 52822 N 4833.39 1.55393 0.262811 0
M  V30 52823 C 4834.3 1.92082 1.34691 0
M  V30 52824 C 4835.31 0.819281 1.53505 0
M  V30 52825 O 4836.49 1.11926 1.67435 0
M  V30 52826 C 4833.55 2.19416 2.68435 0
M  V30 52827 C 4832.61 3.42914 2.5828 0
M  V30 52828 C 4831.85 3.68935 3.85646 0
M  V30 52829 O 4832.07 2.97292 4.86799 0
M  V30 52830 O 4831 4.62468 3.85236 0
M  V30 52831 H 4834.83 2.84388 1.06571 0
M  V30 52832 H 4832.42 1.4207 0.462214 0
M  V30 52833 H 4834.3 2.38377 3.47497 0
M  V30 52834 H 4832.97 1.30292 2.9632 0
M  V30 52835 H 4831.88 3.29278 1.77558 0
M  V30 52836 H 4833.21 4.3229 2.35343 0
M  V30 52837 N 4834.87 -0.527781 1.485 0
M  V30 52838 C 4835.78 -1.65902 1.65873 0
M  V30 52839 C 4836.79 -1.65368 0.54125 0
M  V30 52840 O 4837.97 -1.84279 0.812599 0
M  V30 52841 C 4835.03 -3.02358 1.69648 0
M  V30 52842 C 4834.09 -3.1373 2.93039 0
M  V30 52843 C 4833.33 -4.43677 2.96625 0
M  V30 52844 O 4833.55 -5.30905 2.08556 0
M  V30 52845 O 4832.48 -4.59461 3.88818 0
M  V30 52846 H 4836.31 -1.54181 2.61652 0
M  V30 52847 H 4833.89 -0.701117 1.31927 0
M  V30 52848 H 4835.78 -3.83509 1.74639 0
M  V30 52849 H 4834.45 -3.14398 0.770423 0
M  V30 52850 H 4833.36 -2.31866 2.93579 0
M  V30 52851 H 4834.69 -3.06607 3.85036 0
M  V30 52852 N 4836.34 -1.37125 -0.776822 0
M  V30 52853 C 4837.25 -1.34658 -1.92105 0
M  V30 52854 C 4838.27 -0.246884 -1.7224 0
M  V30 52855 O 4839.45 -0.481409 -1.95562 0
M  V30 52856 C 4836.51 -1.14759 -3.27156 0
M  V30 52857 C 4835.57 -2.34321 -3.59711 0
M  V30 52858 C 4834.8 -2.15362 -4.88318 0
M  V30 52859 O 4835.03 -1.13527 -5.58988 0
M  V30 52860 O 4833.96 -3.03433 -5.1982 0
M  V30 52861 H 4837.79 -2.3102 -1.97138 0
M  V30 52862 H 4835.37 -1.17802 -0.91886 0
M  V30 52863 H 4837.25 -1.05631 -4.07946 0
M  V30 52864 H 4835.93 -0.214675 -3.22987 0
M  V30 52865 H 4834.84 -2.49021 -2.79177 0
M  V30 52866 H 4836.17 -3.26162 -3.68618 0
M  V30 52867 N 4837.82 1.00242 -1.21611 0
M  V30 52868 C 4838.75 2.0924 -0.935475 0
M  V30 52869 C 4839.77 1.62592 0.0823023 0
M  V30 52870 O 4840.96 1.77864 -0.150518 0
M  V30 52871 C 4838.06 3.36722 -0.383571 0
M  V30 52872 C 4837.23 4.12445 -1.4563 0
M  V30 52873 C 4836.29 5.18216 -0.913173 0
M  V30 52874 O 4835.31 5.46331 -1.5972 0
M  V30 52875 N 4836.52 5.7987 0.270275 0
M  V30 52876 H 4839.28 2.33898 -1.87381 0
M  V30 52877 H 4836.84 1.16744 -1.12171 0
M  V30 52878 H 4838.83 4.047 -0.00576384 0
M  V30 52879 H 4837.4 3.09202 0.459649 0
M  V30 52880 H 4836.62 3.39234 -2.00784 0
M  V30 52881 H 4837.91 4.59811 -2.17833 0
M  V30 52882 H 4837.31 5.59384 0.842999 0
M  V30 52883 H 4835.87 6.49128 0.589566 0
M  V30 52884 N 4839.3 1.02428 1.19776 0
M  V30 52885 C 4840.72 0.740509 1.41381 0
M  V30 52886 C 4840.92 -0.67676 1.89795 0
M  V30 52887 O 4839.97 -1.44342 2.07175 0
M  V30 52888 C 4841.28 1.77273 2.42889 0
M  V30 52889 C 4842.83 1.79174 2.56643 0
M  V30 52890 C 4843.31 2.81343 3.614 0
M  V30 52891 N 4844.8 2.80131 3.68892 0
M  V30 52892 C 4845.53 3.5584 4.49628 0
M  V30 52893 N 4845.03 4.4125 5.34107 0
M  V30 52894 N 4846.82 3.44402 4.44234 0
M  V30 52895 H 4838.97 1.93913 0.866696 0
M  V30 52896 H 4841.24 0.83809 0.443069 0
M  V30 52897 H 4840.94 2.78847 2.14329 0
M  V30 52898 H 4840.82 1.5912 3.41995 0
M  V30 52899 H 4843.2 0.782802 2.84528 0
M  V30 52900 H 4843.28 2.01401 1.57706 0
M  V30 52901 H 4842.93 3.82406 3.34258 0
M  V30 52902 H 4842.86 2.56376 4.59977 0
M  V30 52903 H 4845.35 2.18181 3.08554 0
M  V30 52904 H 4845.66 4.95768 5.92819 0
M  V30 52905 H 4844.01 4.45324 5.33583 0
M  V30 52906 H 4847.2 2.77093 3.77276 0
M  V30 52907 H 4847.37 4.03658 5.06917 0
M  V30 52908 N 4840.78 -1.35696 0.801525 0
M  V30 52909 C 4841.73 -2.31769 0.196399 0
M  V30 52910 C 4842.72 -1.56391 -0.651026 0
M  V30 52911 O 4843.93 -1.71559 -0.544755 0
M  V30 52912 H 4840.3 -0.750668 0.0447453 0
M  V30 52913 H 4842.27 -2.80356 1.02191 0
M  V30 52914 C 4841.02 -3.41673 -0.644582 0
M  V30 52915 H 4840.34 -3.998 -0.00185156 0
M  V30 52916 H 4841.78 -4.11187 -1.03446 0
M  V30 52917 C 4840.24 -2.84278 -1.80798 0
M  V30 52918 O 4840.77 -2.77418 -2.9052 0
M  V30 52919 N 4838.98 -2.41396 -1.6179 0
M  V30 52920 H 4838.53 -2.47175 -0.725406 0
M  V30 52921 H 4838.48 -2.03342 -2.3979 0
M  V30 52922 N 4842.26 -0.554584 -1.4752 0
M  V30 52923 C 4843.19 0.182892 -2.32783 0
M  V30 52924 C 4844.17 0.911327 -1.43627 0
M  V30 52925 O 4845.35 0.892305 -1.72486 0
M  V30 52926 C 4842.48 1.21502 -3.25353 0
M  V30 52927 C 4841.44 0.603206 -4.23728 0
M  V30 52928 C 4840.76 1.73977 -5.05605 0
M  V30 52929 C 4842.06 -0.441304 -5.20432 0
M  V30 52930 H 4843.76 -0.528923 -2.94691 0
M  V30 52931 H 4841.3 -0.255809 -1.4171 0
M  V30 52932 H 4843.25 1.73908 -3.83841 0
M  V30 52933 H 4841.98 1.95674 -2.61494 0
M  V30 52934 H 4840.64 0.100461 -3.66462 0
M  V30 52935 H 4840.29 2.47047 -4.38151 0
M  V30 52936 H 4839.99 1.3362 -5.72206 0
M  V30 52937 H 4841.51 2.26715 -5.6695 0
M  V30 52938 H 4842.92 -0.00340085 -5.733 0
M  V30 52939 H 4841.32 -0.763611 -5.95222 0
M  V30 52940 H 4842.39 -1.33815 -4.6607 0
M  V30 52941 N 4843.73 1.54892 -0.290906 0
M  V30 52942 C 4844.67 2.20566 0.623159 0
M  V30 52943 C 4845.68 1.19523 1.10535 0
M  V30 52944 O 4846.87 1.46169 1.02454 0
M  V30 52945 C 4843.97 2.8304 1.86391 0
M  V30 52946 C 4843.14 4.09921 1.5259 0
M  V30 52947 C 4842.2 4.56293 2.62075 0
M  V30 52948 O 4841.23 5.21718 2.27593 0
M  V30 52949 N 4842.43 4.2776 3.92431 0
M  V30 52950 H 4845.19 2.99638 0.0609861 0
M  V30 52951 H 4842.75 1.61507 -0.112671 0
M  V30 52952 H 4844.75 3.11 2.58962 0
M  V30 52953 H 4843.32 2.07868 2.33473 0
M  V30 52954 H 4842.54 3.8908 0.633287 0
M  V30 52955 H 4843.82 4.92558 1.2753 0
M  V30 52956 H 4843.22 3.75324 4.23259 0
M  V30 52957 H 4841.78 4.60453 4.61331 0
M  V30 52958 N 4845.21 0.018448 1.57589 0
M  V30 52959 C 4846.46 -0.663476 1.9164 0
M  V30 52960 C 4846.79 -1.72389 0.894194 0
M  V30 52961 O 4846.07 -1.94316 -0.0845766 0
M  V30 52962 C 4846.35 -1.28973 3.36211 0
M  V30 52963 C 4846.2 -0.239604 4.49161 0
M  V30 52964 C 4847.52 -2.21077 3.80543 0
M  V30 52965 H 4844.64 -0.239722 0.696924 0
M  V30 52966 H 4847.28 0.0735228 1.89858 0
M  V30 52967 H 4845.43 -1.91787 3.37861 0
M  V30 52968 H 4847.1 0.390281 4.59646 0
M  V30 52969 H 4845.35 0.436124 4.31602 0
M  V30 52970 H 4846.02 -0.71719 5.47321 0
M  V30 52971 H 4848.49 -1.6826 3.80562 0
M  V30 52972 H 4847.37 -2.61852 4.82415 0
M  V30 52973 H 4847.63 -3.09753 3.15445 0
M  V30 52974 N 4846.69 -1.5553 -0.254567 0
M  V30 52975 C 4847.6 -1.92794 -1.3367 0
M  V30 52976 C 4848.62 -0.82741 -1.53068 0
M  V30 52977 O 4849.79 -1.12813 -1.66839 0
M  V30 52978 C 4846.86 -2.20837 -2.67268 0
M  V30 52979 C 4845.92 -3.44279 -2.56458 0
M  V30 52980 C 4845.15 -3.70975 -3.83684 0
M  V30 52981 O 4845.37 -2.99869 -4.85216 0
M  V30 52982 O 4844.31 -4.64505 -3.82778 0
M  V30 52983 H 4848.13 -2.84949 -1.05061 0
M  V30 52984 H 4845.72 -1.42313 -0.454673 0
M  V30 52985 H 4847.6 -2.40216 -3.46228 0
M  V30 52986 H 4846.28 -1.31862 -2.95625 0
M  V30 52987 H 4845.18 -3.30215 -1.7581 0
M  V30 52988 H 4846.52 -4.33532 -2.33047 0
M  V30 52989 N 4848.17 0.519898 -1.48778 0
M  V30 52990 C 4849.4 1.29777 -1.60753 0
M  V30 52991 C 4849.81 1.87252 -0.270786 0
M  V30 52992 O 4849.15 1.67631 0.751379 0
M  V30 52993 C 4849.21 2.47975 -2.60286 0
M  V30 52994 C 4848.87 2.11512 -4.05107 0
M  V30 52995 C 4849.87 1.66591 -4.92487 0
M  V30 52996 C 4847.56 2.21726 -4.50714 0
M  V30 52997 C 4849.55 1.32362 -6.23505 0
M  V30 52998 C 4847.24 1.87109 -5.8175 0
M  V30 52999 C 4848.24 1.42499 -6.67969 0
M  V30 53000 O 4847.92 1.08342 -7.96566 0
M  V30 53001 H 4847.66 0.400542 -0.544556 0
M  V30 53002 H 4850.21 0.632811 -1.95409 0
M  V30 53003 H 4848.44 3.17485 -2.20771 0
M  V30 53004 H 4850.13 3.10027 -2.61989 0
M  V30 53005 H 4850.89 1.58161 -4.58487 0
M  V30 53006 H 4846.77 2.55402 -3.83785 0
M  V30 53007 H 4850.32 0.974706 -6.90757 0
M  V30 53008 H 4846.21 1.95182 -6.15284 0
M  V30 53009 H 4846.98 1.21653 -8.09409 0
M  V30 53010 N 4849.65 1.37535 0.769539 0
M  V30 53011 C 4850.56 1.35675 1.91389 0
M  V30 53012 C 4851.57 0.256015 1.72106 0
M  V30 53013 O 4852.75 0.491773 1.95304 0
M  V30 53014 C 4849.81 1.16493 3.26543 0
M  V30 53015 C 4848.87 2.36225 3.58464 0
M  V30 53016 C 4848.11 2.17949 4.87169 0
M  V30 53017 O 4848.33 1.16489 5.58378 0
M  V30 53018 O 4847.26 3.06185 5.18203 0
M  V30 53019 H 4851.09 2.32062 1.9591 0
M  V30 53020 H 4848.68 1.18288 0.9126 0
M  V30 53021 H 4850.56 1.07792 4.0738 0
M  V30 53022 H 4849.23 0.231801 3.22869 0
M  V30 53023 H 4848.14 2.50498 2.77852 0
M  V30 53024 H 4849.47 3.28113 3.66883 0
M  V30 53025 N 4851.12 -0.995956 1.22141 0
M  V30 53026 C 4852.06 -2.08741 0.946558 0
M  V30 53027 C 4853.07 -1.62633 -0.0736785 0
M  V30 53028 O 4854.26 -1.77782 0.159949 0
M  V30 53029 C 4851.36 -3.36514 0.401423 0
M  V30 53030 C 4850.53 -4.11667 1.47815 0
M  V30 53031 C 4849.59 -5.17724 0.940643 0
M  V30 53032 O 4848.62 -5.45477 1.62615 0
M  V30 53033 N 4849.82 -5.80006 -0.239519 0
M  V30 53034 H 4852.58 -2.32901 1.88619 0
M  V30 53035 H 4850.14 -1.16148 1.12789 0
M  V30 53036 H 4852.14 -4.04691 0.027226 0
M  V30 53037 H 4850.71 -3.09442 -0.443245 0
M  V30 53038 H 4849.93 -3.38164 2.0258 0
M  V30 53039 H 4851.21 -4.58649 2.20269 0
M  V30 53040 H 4850.61 -5.59823 -0.813321 0
M  V30 53041 H 4849.17 -6.49432 -0.555133 0
M  V30 53042 N 4852.6 -1.03061 -1.19231 0
M  V30 53043 C 4853.53 -0.633576 -2.2474 0
M  V30 53044 C 4854.51 0.358276 -1.66284 0
M  V30 53045 O 4855.7 0.240608 -1.92704 0
M  V30 53046 C 4852.83 0.0146427 -3.47297 0
M  V30 53047 C 4851.78 -0.899674 -4.18437 0
M  V30 53048 C 4851.11 -0.116469 -5.34573 0
M  V30 53049 C 4852.41 -2.2142 -4.73044 0
M  V30 53050 H 4854.1 -1.51559 -2.58206 0
M  V30 53051 H 4851.65 -0.730183 -1.24114 0
M  V30 53052 H 4853.6 0.304055 -4.20302 0
M  V30 53053 H 4852.33 0.931467 -3.13036 0
M  V30 53054 H 4850.98 -1.17331 -3.47317 0
M  V30 53055 H 4850.63 0.802444 -4.96558 0
M  V30 53056 H 4850.33 -0.725498 -5.83104 0
M  V30 53057 H 4851.86 0.166161 -6.10374 0
M  V30 53058 H 4853.27 -1.9862 -5.37795 0
M  V30 53059 H 4851.67 -2.77531 -5.32068 0
M  V30 53060 H 4852.74 -2.86766 -3.91016 0
M  V30 53061 N 4854.08 1.35269 -0.80871 0
M  V30 53062 C 4855.03 2.29763 -0.218563 0
M  V30 53063 C 4856 1.52913 0.648598 0
M  V30 53064 O 4857.18 1.81343 0.593234 0
M  V30 53065 C 4854.32 3.3939 0.625163 0
M  V30 53066 C 4853.44 4.31201 -0.262667 0
M  V30 53067 C 4852.57 5.27921 0.589266 0
M  V30 53068 C 4851.61 6.1137 -0.298832 0
M  V30 53069 N 4850.75 7.00222 0.513197 0
M  V30 53070 H 4855.59 2.79642 -1.02978 0
M  V30 53071 H 4853.12 1.37627 -0.519352 0
M  V30 53072 H 4855.08 4.01619 1.12952 0
M  V30 53073 H 4853.71 2.90782 1.40163 0
M  V30 53074 H 4852.76 3.69959 -0.885143 0
M  V30 53075 H 4854.08 4.89744 -0.946143 0
M  V30 53076 H 4853.23 5.95533 1.15867 0
M  V30 53077 H 4851.97 4.6988 1.3063 0
M  V30 53078 H 4850.97 5.42704 -0.880491 0
M  V30 53079 H 4852.2 6.71491 -1.01376 0
M  V30 53080 H 4850.14 6.44666 1.21417 0
M  V30 53081 H 4850.06 7.55917 -0.112187 0
M  V30 53082 H 4851.33 7.72179 1.06581 0
M  V30 53083 N 4855.56 0.5624 1.47224 0
M  V30 53084 C 4856.84 -0.0256298 1.95583 0
M  V30 53085 C 4857.22 -1.48027 1.50503 0
M  V30 53086 O 4856.56 -2.15971 0.746257 0
M  V30 53087 C 4856.77 0.125252 3.48775 0
M  V30 53088 C 4858.12 -0.0174235 4.24596 0
M  V30 53089 O 4859.15 0.0530593 3.5616 0
M  V30 53090 O 4858 -0.169953 5.46236 0
M  V30 53091 H 4855.1 -0.0612275 0.82473 0
M  V30 53092 H 4857.64 0.629289 1.57601 0
M  V30 53093 H 4856.42 1.13728 3.74408 0
M  V30 53094 H 4856.04 -0.56704 3.93536 0
M  V30 53095 N 4857.04 -1.54735 0.299116 0
M  V30 53096 C 4857.97 -2.20893 -0.611453 0
M  V30 53097 C 4858.98 -1.20108 -1.099 0
M  V30 53098 O 4860.17 -1.4671 -1.01678 0
M  V30 53099 C 4857.27 -2.84024 -1.84887 0
M  V30 53100 C 4856.44 -4.10724 -1.50414 0
M  V30 53101 C 4855.5 -4.57676 -2.59651 0
M  V30 53102 O 4854.53 -5.22918 -2.24823 0
M  V30 53103 N 4855.73 -4.29835 -3.90157 0
M  V30 53104 H 4858.5 -2.99666 -0.0450948 0
M  V30 53105 H 4856.06 -1.61445 0.121235 0
M  V30 53106 H 4858.05 -3.12369 -2.57309 0
M  V30 53107 H 4856.62 -2.09103 -2.32368 0
M  V30 53108 H 4855.84 -3.8941 -0.612645 0
M  V30 53109 H 4857.13 -4.93228 -1.24916 0
M  V30 53110 H 4856.52 -3.77564 -4.21262 0
M  V30 53111 H 4855.08 -4.62893 -4.58883 0
M  V30 53112 N 4858.51 -0.0268051 -1.57577 0
M  V30 53113 C 4859.46 0.96493 -2.06575 0
M  V30 53114 C 4860.45 1.28691 -0.965792 0
M  V30 53115 O 4861.64 1.2734 -1.22937 0
M  V30 53116 C 4858.77 2.24812 -2.59451 0
M  V30 53117 C 4857.86 1.95461 -3.76372 0
M  V30 53118 N 4858.25 1.3637 -4.8707 0
M  V30 53119 C 4856.54 2.25464 -3.84814 0
M  V30 53120 C 4857.25 1.24099 -5.68308 0
M  V30 53121 N 4856.22 1.73572 -5.15145 0
M  V30 53122 H 4860.02 0.502993 -2.89564 0
M  V30 53123 H 4857.54 0.178265 -1.61419 0
M  V30 53124 H 4859.53 2.9673 -2.92843 0
M  V30 53125 H 4858.19 2.71634 -1.77891 0
M  V30 53126 H 4859.21 1.03901 -5.07371 0
M  V30 53127 H 4855.88 2.74976 -3.14157 0
M  V30 53128 H 4857.27 0.78427 -6.67307 0
M  V30 53129 N 4859.99 1.55663 0.246315 0
M  V30 53130 C 4860.92 1.93381 1.30866 0
M  V30 53131 C 4861.9 0.798826 1.50176 0
M  V30 53132 O 4863.09 1.05916 1.62774 0
M  V30 53133 C 4860.22 2.22902 2.66331 0
M  V30 53134 C 4859.17 3.38658 2.61715 0
M  V30 53135 C 4858.5 3.53722 4.0098 0
M  V30 53136 C 4859.8 4.74331 2.1865 0
M  V30 53137 H 4861.49 2.82367 0.995452 0
M  V30 53138 H 4859.04 1.35856 0.477416 0
M  V30 53139 H 4860.99 2.47878 3.40785 0
M  V30 53140 H 4859.72 1.30743 2.99289 0
M  V30 53141 H 4858.37 3.13692 1.89718 0
M  V30 53142 H 4858.02 2.58982 4.31204 0
M  V30 53143 H 4857.72 4.31565 3.9878 0
M  V30 53144 H 4859.25 3.81019 4.77134 0
M  V30 53145 H 4860.66 4.98675 2.82836 0
M  V30 53146 H 4859.06 5.55281 2.2756 0
M  V30 53147 H 4860.13 4.71353 1.13818 0
M  V30 53148 N 4861.47 -0.512001 1.49051 0
M  V30 53149 C 4862.89 -0.842192 1.3557 0
M  V30 53150 C 4863.09 -1.97877 0.380389 0
M  V30 53151 O 4862.14 -2.5177 -0.191921 0
M  V30 53152 C 4863.46 -1.19276 2.76032 0
M  V30 53153 C 4865 -1.30161 2.84652 0
M  V30 53154 C 4865.48 -1.68553 4.25857 0
M  V30 53155 N 4866.97 -1.75623 4.28615 0
M  V30 53156 C 4867.7 -2.0675 5.34829 0
M  V30 53157 N 4867.2 -2.36178 6.513 0
M  V30 53158 N 4868.99 -2.07909 5.22236 0
M  V30 53159 H 4861.14 0.237648 2.11066 0
M  V30 53160 H 4863.41 0.0437079 0.946992 0
M  V30 53161 H 4863.11 -0.431076 3.49048 0
M  V30 53162 H 4862.99 -2.13878 3.10702 0
M  V30 53163 H 4865.37 -2.05404 2.1188 0
M  V30 53164 H 4865.46 -0.336367 2.53579 0
M  V30 53165 H 4865.1 -0.938648 4.99151 0
M  V30 53166 H 4865.03 -2.66159 4.54387 0
M  V30 53167 H 4867.52 -1.55085 3.44611 0
M  V30 53168 H 4867.83 -2.59087 7.28075 0
M  V30 53169 H 4866.18 -2.33658 6.54545 0
M  V30 53170 H 4869.37 -1.84388 4.30254 0
M  V30 53171 H 4869.54 -2.31835 6.05109 0
M  V30 53172 N 4862.95 -1.37941 -0.762235 0
M  V30 53173 C 4864.36 -1.18949 -1.06411 0
M  V30 53174 C 4864.56 -0.0321871 -2.01474 0
M  V30 53175 O 4863.62 0.624758 -2.44649 0
M  V30 53176 C 4864.93 -2.51224 -1.65249 0
M  V30 53177 C 4866.48 -2.5783 -1.77461 0
M  V30 53178 C 4866.96 -3.90259 -2.39712 0
M  V30 53179 N 4868.45 -3.91753 -2.47152 0
M  V30 53180 C 4869.18 -4.90976 -2.96192 0
M  V30 53181 N 4868.68 -6.00597 -3.45333 0
M  V30 53182 N 4870.47 -4.78373 -2.95154 0
M  V30 53183 H 4862.62 -2.11994 -0.131226 0
M  V30 53184 H 4864.89 -0.940266 -0.120845 0
M  V30 53185 H 4864.59 -3.3632 -1.02866 0
M  V30 53186 H 4864.47 -2.68998 -2.64423 0
M  V30 53187 H 4866.85 -1.73134 -2.38974 0
M  V30 53188 H 4866.93 -2.43931 -0.770155 0
M  V30 53189 H 4866.58 -4.75374 -1.78835 0
M  V30 53190 H 4866.51 -4.01466 -3.40782 0
M  V30 53191 H 4869 -3.12571 -2.12386 0
M  V30 53192 H 4869.31 -6.72249 -3.81184 0
M  V30 53193 H 4867.66 -6.04229 -3.43413 0
M  V30 53194 H 4870.85 -3.9185 -2.56069 0
M  V30 53195 H 4871.02 -5.55855 -3.33061 0
M  V30 53196 N 4864.43 0.989464 -1.22668 0
M  V30 53197 C 4865.68 1.72608 -1.05123 0
M  V30 53198 C 4866 1.90553 0.414064 0
M  V30 53199 O 4865.27 1.46765 1.29757 0
M  V30 53200 H 4863.85 0.639541 -0.386 0
M  V30 53201 H 4866.51 1.19152 -1.54236 0
M  V30 53202 H 4865.6 2.71921 -1.53185 0
M  V30 53203 N 4865.91 1.03692 1.18683 0
M  V30 53204 C 4866.84 0.645486 2.24401 0
M  V30 53205 C 4867.82 -0.349453 1.66472 0
M  V30 53206 O 4869 -0.230385 1.92829 0
M  V30 53207 C 4866.13 0.00377546 3.473 0
M  V30 53208 C 4865.09 0.921852 4.17954 0
M  V30 53209 C 4864.41 0.144817 5.34504 0
M  V30 53210 C 4865.71 2.23926 4.71863 0
M  V30 53211 H 4867.41 1.52926 2.57398 0
M  V30 53212 H 4864.95 0.736755 1.23725 0
M  V30 53213 H 4866.9 -0.281761 4.20457 0
M  V30 53214 H 4865.63 -0.914852 3.13525 0
M  V30 53215 H 4864.29 1.19171 3.4669 0
M  V30 53216 H 4863.94 -0.776099 4.96977 0
M  V30 53217 H 4863.64 0.756411 5.82711 0
M  V30 53218 H 4865.16 -0.13379 6.10453 0
M  V30 53219 H 4866.57 2.01469 5.36734 0
M  V30 53220 H 4864.97 2.80349 5.30589 0
M  V30 53221 H 4866.04 2.88836 3.89489 0
M  V30 53222 N 4867.38 -1.34838 0.815872 0
M  V30 53223 C 4868.79 -1.80935 0.460353 0
M  V30 53224 C 4869.15 -1.67689 -1.01857 0
M  V30 53225 O 4868.27 -1.21283 -1.79219 0
M  V30 53226 C 4868.87 -3.28506 0.828824 0
M  V30 53227 C 4867.42 -3.7271 0.525775 0
M  V30 53228 C 4866.57 -2.56673 1.0495 0
M  V30 53229 H 4869.52 -1.22685 1.00668 0
M  V30 53230 H 4869.54 -3.80278 0.12989 0
M  V30 53231 H 4869.06 -3.38115 1.90525 0
M  V30 53232 H 4867.16 -3.68644 -0.541537 0
M  V30 53233 H 4867.27 -4.67115 1.0649 0
M  V30 53234 H 4865.63 -2.503 0.471374 0
M  V30 53235 H 4866.42 -2.69055 2.13223 0
M  V30 53236 N 4868.86 -0.570199 -1.46923 0
M  V30 53237 C 4870.11 -0.0510997 -2.02736 0
M  V30 53238 C 4870.44 1.30055 -1.4422 0
M  V30 53239 O 4869.72 1.8493 -0.602586 0
M  V30 53240 C 4870 0.0280884 -3.60089 0
M  V30 53241 C 4869.85 -1.35158 -4.29013 0
M  V30 53242 C 4871.17 0.735028 -4.33919 0
M  V30 53243 H 4868.29 -0.0200437 -0.736727 0
M  V30 53244 H 4870.93 -0.734991 -1.75208 0
M  V30 53245 H 4869.08 0.610513 -3.83673 0
M  V30 53246 H 4870.75 -1.9782 -4.16731 0
M  V30 53247 H 4869 -1.92274 -3.88862 0
M  V30 53248 H 4869.67 -1.24876 -5.3769 0
M  V30 53249 H 4872.14 0.240373 -4.15405 0
M  V30 53250 H 4871.02 0.759431 -5.43621 0
M  V30 53251 H 4871.28 1.79382 -4.04072 0
M  V30 53252 N 4870.34 1.54575 -0.307318 0
M  V30 53253 C 4871.59 1.99868 0.299504 0
M  V30 53254 C 4871.91 1.1972 1.53923 0
M  V30 53255 O 4871.18 0.294788 1.93669 0
M  V30 53256 H 4869.76 0.738303 0.113657 0
M  V30 53257 H 4872.42 1.90318 -0.420109 0
M  V30 53258 H 4871.52 3.06903 0.567175 0
M  V30 53259 N 4871.82 0.0351614 1.57561 0
M  V30 53260 C 4873.04 -0.655733 1.96761 0
M  V30 53261 C 4873.47 -1.64519 0.911866 0
M  V30 53262 O 4872.83 -1.80857 -0.12661 0
M  V30 53263 C 4872.87 -1.33314 3.35052 0
M  V30 53264 O 4871.98 -2.44855 3.31843 0
M  V30 53265 H 4871.32 -0.171784 0.641394 0
M  V30 53266 H 4873.85 0.0988087 2.04361 0
M  V30 53267 H 4873.86 -1.68854 3.71419 0
M  V30 53268 H 4872.53 -0.607888 4.11434 0
M  V30 53269 H 4871.11 -2.11382 3.07201 0
M  V30 53270 N 4873.3 -1.55792 -0.238056 0
M  V30 53271 C 4874.71 -1.68386 -0.806413 0
M  V30 53272 C 4875.06 -0.634222 -1.85667 0
M  V30 53273 O 4874.18 0.217837 -2.15301 0
M  V30 53274 C 4874.78 -3.05273 -1.46949 0
M  V30 53275 C 4873.34 -3.19777 -1.98543 0
M  V30 53276 C 4872.48 -2.64282 -0.83967 0
M  V30 53277 H 4875.43 -1.58694 -0.0136977 0
M  V30 53278 H 4875.46 -3.00211 -2.33781 0
M  V30 53279 H 4874.97 -3.81646 -0.704858 0
M  V30 53280 H 4873.07 -2.48244 -2.77859 0
M  V30 53281 H 4873.18 -4.26796 -2.17674 0
M  V30 53282 H 4871.55 -2.22334 -1.24257 0
M  V30 53283 H 4872.33 -3.43187 -0.0879825 0
M  V30 53284 N 4874.77 0.504089 -1.49321 0
M  V30 53285 C 4876.18 1.08567 -1.51889 0
M  V30 53286 C 4876.54 1.93841 -0.303323 0
M  V30 53287 O 4875.66 2.08282 0.587166 0
M  V30 53288 C 4876.26 1.97564 -2.75234 0
M  V30 53289 C 4874.81 2.5089 -2.8059 0
M  V30 53290 C 4873.96 1.28439 -2.45762 0
M  V30 53291 H 4876.91 0.288139 -1.56062 0
M  V30 53292 H 4876.93 2.8221 -2.55221 0
M  V30 53293 H 4876.45 1.35473 -3.63688 0
M  V30 53294 H 4874.55 3.16629 -1.96409 0
M  V30 53295 H 4874.66 2.88254 -3.82683 0
M  V30 53296 H 4873.02 1.60861 -1.97474 0
M  V30 53297 H 4873.81 0.680602 -3.36486 0
M  V30 53298 N 4876.25 1.38343 0.754909 0
M  V30 53299 C 4877.16 1.37697 1.89939 0
M  V30 53300 C 4878.18 0.274255 1.71825 0
M  V30 53301 O 4879.35 0.51246 1.94771 0
M  V30 53302 C 4876.42 1.1995 3.25289 0
M  V30 53303 C 4875.48 2.40014 3.55938 0
M  V30 53304 C 4874.71 2.23104 4.8483 0
M  V30 53305 O 4874.94 1.22405 5.57111 0
M  V30 53306 O 4873.87 3.11664 5.14926 0
M  V30 53307 H 4877.7 2.34127 1.93438 0
M  V30 53308 H 4875.28 1.19249 0.900002 0
M  V30 53309 H 4877.16 1.12107 4.06214 0
M  V30 53310 H 4875.84 0.266033 3.22605 0
M  V30 53311 H 4874.74 2.53431 2.7518 0
M  V30 53312 H 4876.08 3.31985 3.63382 0
M  V30 53313 N 4877.73 -0.982945 1.23191 0
M  V30 53314 C 4878.95 -1.76451 1.08994 0
M  V30 53315 C 4879.38 -1.84727 -0.354627 0
M  V30 53316 O 4878.74 -1.30703 -1.25644 0
M  V30 53317 C 4878.79 -3.17088 1.7172 0
M  V30 53318 O 4877.89 -4.00645 0.977618 0
M  V30 53319 H 4877.23 -0.542975 0.382196 0
M  V30 53320 H 4879.76 -1.23407 1.63192 0
M  V30 53321 H 4879.77 -3.67678 1.76854 0
M  V30 53322 H 4878.45 -3.1038 2.76834 0
M  V30 53323 H 4877.02 -3.59157 1.00303 0
M  V30 53324 N 4879.21 -1.0432 -1.18132 0
M  V30 53325 C 4880.46 -0.743256 -1.87506 0
M  V30 53326 C 4880.77 0.732072 -1.81384 0
M  V30 53327 O 4881.98 1.14563 -2.46145 0
M  V30 53328 C 4880.43 -1.27925 -3.36397 0
M  V30 53329 C 4880.04 -2.78339 -3.51043 0
M  V30 53330 C 4881.78 -1.05595 -4.11157 0
M  V30 53331 C 4879.69 -3.25283 -4.93908 0
M  V30 53332 H 4878.62 -0.274338 -0.702321 0
M  V30 53333 H 4881.27 -1.25936 -1.33463 0
M  V30 53334 H 4879.65 -0.69099 -3.89925 0
M  V30 53335 H 4880.83 -3.42944 -3.07776 0
M  V30 53336 H 4879.14 -2.9911 -2.89693 0
M  V30 53337 H 4881.74 -1.38179 -5.16537 0
M  V30 53338 H 4882.08 0.00670094 -4.16299 0
M  V30 53339 H 4882.62 -1.60895 -3.6381 0
M  V30 53340 H 4879.36 -4.30939 -4.93935 0
M  V30 53341 H 4878.88 -2.65415 -5.3788 0
M  V30 53342 H 4880.55 -3.19453 -5.62636 0
M  V30 53343 N 4880.69 1.34403 -0.823012 0
M  V30 53344 C 4881.94 1.9754 -0.407527 0
M  V30 53345 C 4882.25 1.65977 1.03494 0
M  V30 53346 O 4883.45 2.22604 1.55434 0
M  V30 53347 C 4881.91 3.53461 -0.677748 0
M  V30 53348 C 4881.52 3.93918 -2.13384 0
M  V30 53349 C 4883.26 4.23228 -0.328433 0
M  V30 53350 C 4881.17 5.42751 -2.34895 0
M  V30 53351 H 4880.1 0.739202 -0.148649 0
M  V30 53352 H 4882.75 1.53244 -1.00938 0
M  V30 53353 H 4881.13 3.96 -0.00572886 0
M  V30 53354 H 4882.31 3.62484 -2.84503 0
M  V30 53355 H 4880.62 3.37088 -2.4446 0
M  V30 53356 H 4883.22 5.32657 -0.466982 0
M  V30 53357 H 4883.56 4.09901 0.72708 0
M  V30 53358 H 4884.09 3.86166 -0.955032 0
M  V30 53359 H 4880.83 5.61063 -3.38952 0
M  V30 53360 H 4880.35 5.75698 -1.6832 0
M  V30 53361 H 4882.03 6.09433 -2.17258 0
M  V30 53362 N 4882.16 0.577983 1.46619 0
M  V30 53363 C 4883.39 0.0653264 2.07297 0
M  V30 53364 C 4883.81 -1.22823 1.42464 0
M  V30 53365 O 4883.17 -1.74073 0.506779 0
M  V30 53366 C 4883.22 -0.0919322 3.60483 0
M  V30 53367 O 4882.32 -1.14958 3.96053 0
M  V30 53368 H 4881.67 0.0606732 0.661222 0
M  V30 53369 H 4884.2 0.799581 1.88329 0
M  V30 53370 H 4884.21 -0.299598 4.06899 0
M  V30 53371 H 4882.88 0.852755 4.07064 0
M  V30 53372 H 4881.46 -0.920752 3.61354 0
M  V30 53373 N 4883.64 -1.54409 0.315511 0
M  V30 53374 C 4885.05 -1.85886 -0.1742 0
M  V30 53375 C 4885.4 -1.23728 -1.52269 0
M  V30 53376 O 4884.53 -0.54032 -2.09546 0
M  V30 53377 C 4885.12 -3.37258 -0.322862 0
M  V30 53378 C 4883.68 -3.68713 -0.756793 0
M  V30 53379 C 4882.83 -2.77012 0.126292 0
M  V30 53380 H 4885.78 -1.49372 0.53606 0
M  V30 53381 H 4885.8 -3.62543 -1.1551 0
M  V30 53382 H 4885.31 -3.82469 0.658736 0
M  V30 53383 H 4883.42 -3.2903 -1.74842 0
M  V30 53384 H 4883.53 -4.75743 -0.566123 0
M  V30 53385 H 4881.89 -2.5159 -0.396831 0
M  V30 53386 H 4882.68 -3.25047 1.10451 0
M  V30 53387 N 4885.12 -0.0435168 -1.5754 0
M  V30 53388 C 4886.07 0.942966 -2.07586 0
M  V30 53389 C 4887.05 1.27659 -0.979387 0
M  V30 53390 O 4888.25 1.26029 -1.2428 0
M  V30 53391 C 4885.38 2.22047 -2.6182 0
M  V30 53392 C 4884.46 1.91458 -3.78424 0
M  V30 53393 N 4884.85 1.31196 -4.88489 0
M  V30 53394 C 4883.15 2.2137 -3.87184 0
M  V30 53395 C 4883.85 1.18064 -5.69593 0
M  V30 53396 N 4882.83 1.68098 -5.16957 0
M  V30 53397 H 4886.63 0.472252 -2.90081 0
M  V30 53398 H 4884.14 0.161135 -1.61599 0
M  V30 53399 H 4886.14 2.93607 -2.95974 0
M  V30 53400 H 4884.8 2.69732 -1.80762 0
M  V30 53401 H 4885.81 0.98514 -5.08444 0
M  V30 53402 H 4882.49 2.71629 -3.17055 0
M  V30 53403 H 4883.88 0.713449 -6.68101 0
M  V30 53404 N 4886.6 1.55916 0.229791 0
M  V30 53405 C 4887.55 1.88134 1.288 0
M  V30 53406 C 4888.53 0.743671 1.42683 0
M  V30 53407 O 4889.72 1.00593 1.45636 0
M  V30 53408 C 4886.85 2.1944 2.64009 0
M  V30 53409 C 4885.94 3.39578 2.54062 0
M  V30 53410 N 4886.33 4.58411 2.13758 0
M  V30 53411 C 4884.63 3.43029 2.85039 0
M  V30 53412 C 4885.33 5.40564 2.14861 0
M  V30 53413 N 4884.31 4.80063 2.5503 0
M  V30 53414 H 4888.11 2.7753 0.967163 0
M  V30 53415 H 4885.62 1.56371 0.438378 0
M  V30 53416 H 4887.62 2.40693 3.404 0
M  V30 53417 H 4886.28 1.31352 2.96946 0
M  V30 53418 H 4887.29 4.83722 1.85023 0
M  V30 53419 H 4883.97 2.65261 3.22402 0
M  V30 53420 H 4885.36 6.45672 1.85895 0
M  V30 53421 N 4888.08 -0.496163 1.49586 0
M  V30 53422 C 4889.3 -1.27388 1.63033 0
M  V30 53423 C 4889.72 -1.86342 0.303634 0
M  V30 53424 O 4889.08 -1.6806 -0.711487 0
M  V30 53425 C 4889.13 -2.40067 2.70277 0
M  V30 53426 O 4888.85 -1.83535 3.97802 0
M  V30 53427 C 4890.35 -3.31361 2.94473 0
M  V30 53428 H 4887.57 -0.386191 0.548723 0
M  V30 53429 H 4890.11 -0.595095 1.9565 0
M  V30 53430 H 4888.27 -3.03767 2.40426 0
M  V30 53431 H 4888.68 -2.57545 4.56914 0
M  V30 53432 H 4890.16 -4.06694 3.73235 0
M  V30 53433 H 4890.63 -3.88647 2.04574 0
M  V30 53434 H 4891.24 -2.73423 3.2576 0
M  V30 53435 N 4889.55 -1.38742 -0.747561 0
M  V30 53436 C 4890.78 -1.38707 -1.54192 0
M  V30 53437 C 4891.2 0.0195978 -1.8809 0
M  V30 53438 O 4890.56 1.00328 -1.5101 0
M  V30 53439 C 4890.61 -2.25501 -2.81392 0
M  V30 53440 O 4889.71 -1.67626 -3.76796 0
M  V30 53441 H 4889.06 -0.472879 -0.466134 0
M  V30 53442 H 4891.59 -1.8258 -0.923348 0
M  V30 53443 H 4891.6 -2.39573 -3.30256 0
M  V30 53444 H 4890.27 -3.27736 -2.5605 0
M  V30 53445 H 4888.85 -1.62729 -3.3552 0
M  V30 53446 N 4891.03 0.976398 -1.2371 0
M  V30 53447 C 4891.94 2.10356 -1.03864 0
M  V30 53448 C 4892.96 1.73991 0.0180308 0
M  V30 53449 O 4894.13 2.00609 -0.178282 0
M  V30 53450 C 4891.2 3.40807 -0.636507 0
M  V30 53451 C 4890.26 3.91173 -1.76867 0
M  V30 53452 C 4889.49 5.15399 -1.38564 0
M  V30 53453 O 4889.72 5.69753 -0.27162 0
M  V30 53454 O 4888.65 5.59932 -2.20816 0
M  V30 53455 H 4892.48 2.2999 -1.98339 0
M  V30 53456 H 4890.06 1.08738 -1.02451 0
M  V30 53457 H 4891.94 4.19268 -0.42337 0
M  V30 53458 H 4890.62 3.22494 0.279209 0
M  V30 53459 H 4889.53 3.13812 -2.03649 0
M  V30 53460 H 4890.86 4.13948 -2.66285 0
M  V30 53461 N 4892.51 1.04945 1.17577 0
M  V30 53462 C 4893.79 0.671982 1.83695 0
M  V30 53463 C 4894.17 -0.847861 1.93325 0
M  V30 53464 O 4893.52 -1.75282 1.46589 0
M  V30 53465 C 4893.73 1.35809 3.21492 0
M  V30 53466 C 4895.07 1.49454 3.97428 0
M  V30 53467 O 4896.1 1.3169 3.30963 0
M  V30 53468 O 4894.96 1.78482 5.16533 0
M  V30 53469 H 4892.05 0.23624 0.79254 0
M  V30 53470 H 4894.6 1.14889 1.24895 0
M  V30 53471 H 4893.37 2.39509 3.09437 0
M  V30 53472 H 4892.99 0.870372 3.87957 0
M  V30 53473 N 4893.99 -1.33965 0.830128 0
M  V30 53474 C 4895.21 -2.02811 0.433867 0
M  V30 53475 C 4895.64 -1.6208 -0.954557 0
M  V30 53476 O 4895 -0.809012 -1.62249 0
M  V30 53477 C 4895.05 -3.56346 0.552241 0
M  V30 53478 O 4894.15 -4.10204 -0.425047 0
M  V30 53479 H 4893.49 -0.639811 0.17759 0
M  V30 53480 H 4896.02 -1.71056 1.12254 0
M  V30 53481 H 4896.03 -4.05721 0.430656 0
M  V30 53482 H 4894.71 -3.85338 1.56484 0
M  V30 53483 H 4893.28 -3.7198 -0.261747 0
M  V30 53484 N 4895.47 -0.585751 -1.4631 0
M  V30 53485 C 4896.38 0.148154 -2.34132 0
M  V30 53486 C 4897.39 0.882919 -1.49935 0
M  V30 53487 O 4898.57 0.84542 -1.82797 0
M  V30 53488 C 4895.63 1.14702 -3.27176 0
M  V30 53489 C 4894.7 0.416596 -4.27274 0
M  V30 53490 C 4893.93 1.36788 -5.15873 0
M  V30 53491 O 4894.15 2.60457 -5.07463 0
M  V30 53492 O 4893.09 0.876809 -5.95479 0
M  V30 53493 H 4896.91 -0.572987 -2.98246 0
M  V30 53494 H 4894.5 -0.346133 -1.45335 0
M  V30 53495 H 4896.38 1.72289 -3.8457 0
M  V30 53496 H 4895.05 1.84958 -2.65655 0
M  V30 53497 H 4893.96 -0.201192 -3.73559 0
M  V30 53498 H 4895.29 -0.245045 -4.9159 0
M  V30 53499 N 4896.95 1.5424 -0.323695 0
M  V30 53500 C 4897.88 2.2729 0.534913 0
M  V30 53501 C 4898.86 1.28091 1.11923 0
M  V30 53502 O 4900.04 1.56903 1.14433 0
M  V30 53503 C 4897.17 3.03081 1.69586 0
M  V30 53504 C 4896.13 4.09619 1.24083 0
M  V30 53505 C 4895.45 4.73251 2.48873 0
M  V30 53506 C 4896.75 5.21088 0.355606 0
M  V30 53507 H 4898.45 2.99307 -0.074431 0
M  V30 53508 H 4895.99 1.43952 -0.037238 0
M  V30 53509 H 4897.94 3.52915 2.3028 0
M  V30 53510 H 4896.67 2.28681 2.33179 0
M  V30 53511 H 4895.33 3.60668 0.656818 0
M  V30 53512 H 4894.98 3.95466 3.10831 0
M  V30 53513 H 4894.68 5.45216 2.19119 0
M  V30 53514 H 4896.2 5.25859 3.1033 0
M  V30 53515 H 4897.61 5.66678 0.868843 0
M  V30 53516 H 4896.01 5.9991 0.150834 0
M  V30 53517 H 4897.08 4.81003 -0.613508 0
M  V30 53518 N 4898.42 0.0518709 1.57515 0
M  V30 53519 C 4899.67 -0.621219 1.91895 0
M  V30 53520 C 4899.99 -1.71962 0.932113 0
M  V30 53521 O 4901.19 -2.45092 1.168 0
M  V30 53522 C 4899.65 -1.15629 3.4082 0
M  V30 53523 C 4899.26 -0.0899571 4.4791 0
M  V30 53524 C 4901 -1.80458 3.84233 0
M  V30 53525 C 4898.91 -0.637948 5.87949 0
M  V30 53526 H 4897.84 -0.235809 0.716177 0
M  V30 53527 H 4900.49 0.120874 1.83101 0
M  V30 53528 H 4898.87 -1.95072 3.4462 0
M  V30 53529 H 4900.04 0.683685 4.557 0
M  V30 53530 H 4898.36 0.46092 4.13841 0
M  V30 53531 H 4900.96 -2.22454 4.86229 0
M  V30 53532 H 4901.3 -2.65658 3.20518 0
M  V30 53533 H 4901.83 -1.0767 3.82952 0
M  V30 53534 H 4898.57 0.176432 6.55263 0
M  V30 53535 H 4898.09 -1.37956 5.83719 0
M  V30 53536 H 4899.77 -1.12062 6.37221 0
M  V30 53537 N 4899.9 -1.56035 -0.221519 0
M  V30 53538 C 4900.86 -1.91588 -1.25803 0
M  V30 53539 C 4901.86 -0.794474 -1.39803 0
M  V30 53540 O 4903.05 -1.06222 -1.38067 0
M  V30 53541 C 4900.19 -2.16672 -2.63184 0
M  V30 53542 H 4901.38 -2.84294 -0.954835 0
M  V30 53543 H 4898.93 -1.49318 -0.461935 0
M  V30 53544 H 4899.67 -1.26519 -2.98603 0
M  V30 53545 H 4899.45 -2.98367 -2.544 0
M  V30 53546 H 4900.94 -2.45274 -3.3798 0
M  V30 53547 N 4901.38 0.488223 -1.49847 0
M  V30 53548 C 4902.29 1.61445 -1.70213 0
M  V30 53549 C 4903.31 1.63875 -0.584904 0
M  V30 53550 O 4904.48 1.8206 -0.861171 0
M  V30 53551 C 4901.55 2.97754 -1.77605 0
M  V30 53552 C 4900.61 3.0585 -3.01254 0
M  V30 53553 C 4899.84 4.35657 -3.08284 0
M  V30 53554 O 4900.06 5.25189 -2.22559 0
M  V30 53555 O 4899 4.48991 -4.00863 0
M  V30 53556 H 4902.82 1.4719 -2.65648 0
M  V30 53557 H 4900.41 0.665892 -1.33739 0
M  V30 53558 H 4902.29 3.78744 -1.84746 0
M  V30 53559 H 4900.97 3.12245 -0.853509 0
M  V30 53560 H 4899.87 2.24001 -2.99624 0
M  V30 53561 H 4901.21 2.96291 -3.9303 0
M  V30 53562 N 4902.86 1.39136 0.740193 0
M  V30 53563 C 4903.82 1.37223 1.83582 0
M  V30 53564 C 4904.82 0.270277 1.58512 0
M  V30 53565 O 4906.01 0.527901 1.66009 0
M  V30 53566 C 4903.14 1.1397 3.21284 0
M  V30 53567 H 4904.34 2.34712 1.86683 0
M  V30 53568 H 4901.89 1.24625 0.943306 0
M  V30 53569 H 4902.62 0.171424 3.23847 0
M  V30 53570 H 4902.41 1.93766 3.40877 0
M  V30 53571 H 4903.9 1.1536 4.0135 0
M  V30 53572 N 4904.34 -0.969824 1.24226 0
M  V30 53573 C 4905.28 -2.06404 1.03277 0
M  V30 53574 C 4906.25 -1.66015 -0.0532416 0
M  V30 53575 O 4907.44 -1.90533 0.100963 0
M  V30 53576 C 4904.58 -3.39087 0.641381 0
M  V30 53577 C 4903.69 -3.92684 1.80065 0
M  V30 53578 C 4902.83 -5.13627 1.35504 0
M  V30 53579 C 4901.86 -5.59415 2.48439 0
M  V30 53580 N 4901 -6.71578 2.0476 0
M  V30 53581 H 4905.84 -2.23656 1.96931 0
M  V30 53582 H 4903.38 -1.09621 0.9809 0
M  V30 53583 H 4905.34 -4.15321 0.395497 0
M  V30 53584 H 4903.97 -3.21766 -0.258156 0
M  V30 53585 H 4903.02 -3.13109 2.16025 0
M  V30 53586 H 4904.33 -4.22627 2.64931 0
M  V30 53587 H 4903.48 -5.97227 1.06791 0
M  V30 53588 H 4902.22 -4.85363 0.476893 0
M  V30 53589 H 4901.23 -4.74388 2.77914 0
M  V30 53590 H 4902.45 -5.89693 3.36807 0
M  V30 53591 H 4900.4 -6.45053 1.19341 0
M  V30 53592 H 4900.32 -7.0096 2.8318 0
M  V30 53593 H 4901.58 -7.58627 1.79181 0
M  V30 53594 N 4905.81 -1.05567 -1.17018 0
M  V30 53595 C 4906.74 -0.681104 -2.23346 0
M  V30 53596 C 4907.72 0.322924 -1.67007 0
M  V30 53597 O 4908.91 0.199679 -1.93171 0
M  V30 53598 C 4906.04 -0.0590274 -3.4725 0
M  V30 53599 C 4904.99 -0.988228 -4.16435 0
M  V30 53600 C 4904.32 -0.229834 -5.34206 0
M  V30 53601 C 4905.62 -2.31405 -4.68241 0
M  V30 53602 H 4907.31 -1.57002 -2.54933 0
M  V30 53603 H 4904.86 -0.756345 -1.22537 0
M  V30 53604 H 4906.81 0.214834 -4.20852 0
M  V30 53605 H 4905.54 0.864858 -3.14941 0
M  V30 53606 H 4904.2 -1.24672 -3.4475 0
M  V30 53607 H 4903.84 0.696936 -4.98148 0
M  V30 53608 H 4903.54 -0.849019 -5.81434 0
M  V30 53609 H 4905.07 0.0366548 -6.10589 0
M  V30 53610 H 4906.48 -2.09982 -5.33461 0
M  V30 53611 H 4904.88 -2.88754 -5.26062 0
M  V30 53612 H 4905.95 -2.94995 -3.84845 0
M  V30 53613 N 4907.29 1.33523 -0.837221 0
M  V30 53614 C 4908.22 2.31763 -0.284287 0
M  V30 53615 C 4909.2 1.58898 0.607086 0
M  V30 53616 O 4910.39 1.868 0.530982 0
M  V30 53617 C 4907.52 3.43031 0.542841 0
M  V30 53618 C 4906.47 4.27254 -0.252601 0
M  V30 53619 C 4905.8 5.30122 0.698173 0
M  V30 53620 C 4907.1 5.01223 -1.46875 0
M  V30 53621 H 4908.79 2.78258 -1.10512 0
M  V30 53622 H 4906.34 1.33778 -0.532859 0
M  V30 53623 H 4908.29 4.10783 0.939952 0
M  V30 53624 H 4907.01 2.95221 1.39687 0
M  V30 53625 H 4905.67 3.61124 -0.631251 0
M  V30 53626 H 4905.32 4.7857 1.54855 0
M  V30 53627 H 4905.02 5.87354 0.170068 0
M  V30 53628 H 4906.55 6.00741 1.09283 0
M  V30 53629 H 4907.96 5.61752 -1.14489 0
M  V30 53630 H 4906.36 5.68098 -1.93353 0
M  V30 53631 H 4907.43 4.30092 -2.2394 0
M  V30 53632 N 4908.77 0.593501 1.45998 0
M  V30 53633 C 4910.19 0.25602 1.57533 0
M  V30 53634 C 4910.39 -1.24161 1.58702 0
M  V30 53635 O 4909.44 -2.02392 1.50975 0
M  V30 53636 C 4910.76 0.914761 2.86448 0
M  V30 53637 C 4912.3 0.889359 3.00099 0
M  V30 53638 C 4912.78 1.52784 4.31765 0
M  V30 53639 N 4914.27 1.49268 4.3849 0
M  V30 53640 C 4915 1.95599 5.39007 0
M  V30 53641 N 4914.5 2.49952 6.46139 0
M  V30 53642 N 4916.29 1.86451 5.30276 0
M  V30 53643 H 4908.44 1.56609 1.43483 0
M  V30 53644 H 4910.71 0.655231 0.68511 0
M  V30 53645 H 4910.41 1.96871 2.91435 0
M  V30 53646 H 4910.29 0.429488 3.74747 0
M  V30 53647 H 4912.67 -0.156007 2.94687 0
M  V30 53648 H 4912.76 1.41276 2.13248 0
M  V30 53649 H 4912.4 2.57246 4.37935 0
M  V30 53650 H 4912.33 0.97958 5.17409 0
M  V30 53651 H 4914.82 1.09549 3.61673 0
M  V30 53652 H 4915.13 2.83134 7.19065 0
M  V30 53653 H 4913.48 2.53983 6.46929 0
M  V30 53654 H 4916.67 1.43738 4.45485 0
M  V30 53655 H 4916.84 2.22873 6.08467 0
M  V30 53656 N 4910.25 -1.54066 0.33187 0
M  V30 53657 C 4911.18 -2.22141 -0.56446 0
M  V30 53658 C 4912.19 -1.22412 -1.07328 0
M  V30 53659 O 4913.38 -1.48834 -0.985429 0
M  V30 53660 C 4910.48 -2.87882 -1.78821 0
M  V30 53661 C 4909.66 -4.13822 -1.41668 0
M  V30 53662 C 4908.71 -4.63081 -2.49885 0
M  V30 53663 O 4907.74 -5.27569 -2.13681 0
M  V30 53664 N 4908.94 -4.38014 -3.80951 0
M  V30 53665 H 4911.71 -2.99694 0.018479 0
M  V30 53666 H 4909.27 -1.61152 0.155453 0
M  V30 53667 H 4911.26 -3.17756 -2.50625 0
M  V30 53668 H 4909.83 -2.13985 -2.2788 0
M  V30 53669 H 4909.05 -3.90622 -0.529907 0
M  V30 53670 H 4910.34 -4.95766 -1.14426 0
M  V30 53671 H 4909.74 -3.86414 -4.13159 0
M  V30 53672 H 4908.29 -4.72523 -4.48961 0
M  V30 53673 N 4911.73 -0.0602235 -1.57485 0
M  V30 53674 C 4912.68 0.920896 -2.08575 0
M  V30 53675 C 4913.66 1.26613 -0.992872 0
M  V30 53676 O 4914.85 1.24704 -1.2561 0
M  V30 53677 C 4911.98 2.19258 -2.64161 0
M  V30 53678 C 4911.07 1.87433 -3.80433 0
M  V30 53679 N 4911.46 1.26008 -4.89853 0
M  V30 53680 C 4909.76 2.17251 -3.8951 0
M  V30 53681 C 4910.46 1.12016 -5.70813 0
M  V30 53682 N 4909.43 1.62606 -5.1871 0
M  V30 53683 H 4913.24 0.441459 -2.90566 0
M  V30 53684 H 4910.75 0.143986 -1.6176 0
M  V30 53685 H 4912.75 2.90451 -2.99071 0
M  V30 53686 H 4911.41 2.678 -1.83612 0
M  V30 53687 H 4912.42 0.931157 -5.0946 0
M  V30 53688 H 4909.09 2.68251 -3.19919 0
M  V30 53689 H 4910.48 0.642548 -6.68821 0
M  V30 53690 N 4913.2 1.56151 0.213241 0
M  V30 53691 C 4914.15 1.93091 1.2643 0
M  V30 53692 C 4915.12 0.789137 1.46157 0
M  V30 53693 O 4916.31 1.04575 1.59589 0
M  V30 53694 C 4913.45 2.26012 2.60792 0
M  V30 53695 C 4912.56 3.53165 2.48795 0
M  V30 53696 C 4911.69 3.75494 3.75737 0
M  V30 53697 C 4910.73 4.96132 3.58496 0
M  V30 53698 N 4909.87 5.14808 4.77407 0
M  V30 53699 H 4914.71 2.8271 0.942277 0
M  V30 53700 H 4912.25 1.3992 0.453951 0
M  V30 53701 H 4914.21 2.43112 3.39046 0
M  V30 53702 H 4912.84 1.39556 2.91074 0
M  V30 53703 H 4911.89 3.44213 1.61932 0
M  V30 53704 H 4913.2 4.41573 2.3198 0
M  V30 53705 H 4912.35 3.92734 4.62433 0
M  V30 53706 H 4911.09 2.85382 3.95485 0
M  V30 53707 H 4910.1 4.78833 2.70184 0
M  V30 53708 H 4911.32 5.87736 3.4021 0
M  V30 53709 H 4909.27 4.2764 4.97453 0
M  V30 53710 H 4909.19 5.97363 4.6335 0
M  V30 53711 H 4910.45 5.36491 5.65506 0
M  V30 53712 N 4914.68 -0.48027 1.50104 0
M  V30 53713 C 4915.93 -1.23057 1.60316 0
M  V30 53714 C 4916.25 -1.92658 0.301294 0
M  V30 53715 O 4915.52 -1.83694 -0.680689 0
M  V30 53716 H 4914.1 -0.45721 0.590735 0
M  V30 53717 H 4916.76 -0.554827 1.86836 0
M  V30 53718 H 4915.86 -1.98342 2.40971 0
M  V30 53719 N 4916.16 -1.39527 -0.732804 0
M  V30 53720 C 4917.58 -1.21179 -1.03864 0
M  V30 53721 C 4917.78 -0.0749156 -2.01361 0
M  V30 53722 O 4916.83 0.572723 -2.45919 0
M  V30 53723 C 4918.15 -2.54672 -1.59883 0
M  V30 53724 C 4919.69 -2.61537 -1.71952 0
M  V30 53725 C 4920.17 -3.95256 -2.3138 0
M  V30 53726 N 4921.66 -3.96907 -2.38787 0
M  V30 53727 C 4922.39 -4.97149 -2.85711 0
M  V30 53728 N 4921.89 -6.07787 -3.32516 0
M  V30 53729 N 4923.68 -4.84526 -2.8494 0
M  V30 53730 H 4915.83 -2.12225 -0.0862294 0
M  V30 53731 H 4918.1 -0.942618 -0.100874 0
M  V30 53732 H 4917.8 -3.38427 -0.957091 0
M  V30 53733 H 4917.68 -2.74547 -2.58658 0
M  V30 53734 H 4920.06 -1.78164 -2.35248 0
M  V30 53735 H 4920.15 -2.4551 -0.71824 0
M  V30 53736 H 4919.79 -4.7906 -1.68712 0
M  V30 53737 H 4919.72 -4.08605 -3.3219 0
M  V30 53738 H 4922.21 -3.17006 -2.05708 0
M  V30 53739 H 4922.52 -6.80183 -3.66838 0
M  V30 53740 H 4920.87 -6.11377 -3.30519 0
M  V30 53741 H 4924.06 -3.97194 -2.47699 0
M  V30 53742 H 4924.23 -5.62794 -3.21196 0
M  V30 53743 N 4917.64 0.963222 -1.24739 0
M  V30 53744 C 4918.57 2.07624 -1.06839 0
M  V30 53745 C 4919.55 1.70088 0.0199968 0
M  V30 53746 O 4920.73 1.93636 -0.147922 0
M  V30 53747 C 4917.86 3.40634 -0.677189 0
M  V30 53748 C 4916.82 3.92144 -1.71485 0
M  V30 53749 C 4916.14 5.21549 -1.17858 0
M  V30 53750 C 4917.44 4.19482 -3.11179 0
M  V30 53751 H 4919.14 2.22857 -1.99938 0
M  V30 53752 H 4916.68 1.07089 -0.962698 0
M  V30 53753 H 4918.64 4.17939 -0.538939 0
M  V30 53754 H 4917.36 3.25314 0.289497 0
M  V30 53755 H 4916.02 3.16999 -1.84139 0
M  V30 53756 H 4915.67 5.02593 -0.202372 0
M  V30 53757 H 4915.37 5.56981 -1.87205 0
M  V30 53758 H 4916.89 6.0146 -1.05254 0
M  V30 53759 H 4918.31 4.87476 -3.01728 0
M  V30 53760 H 4916.7 4.66152 -3.77919 0
M  V30 53761 H 4917.77 3.26085 -3.58883 0
M  V30 53762 N 4919.12 1.06186 1.16457 0
M  V30 53763 C 4920.03 0.682749 2.24445 0
M  V30 53764 C 4921.04 -0.30072 1.71382 0
M  V30 53765 O 4922.22 -0.150306 2.00838 0
M  V30 53766 C 4919.28 0.0738421 3.46621 0
M  V30 53767 C 4918.34 1.10904 4.14727 0
M  V30 53768 C 4917.58 0.529094 5.31071 0
M  V30 53769 O 4917.8 -0.65848 5.66586 0
M  V30 53770 O 4916.73 1.26826 5.88387 0
M  V30 53771 H 4920.56 1.583 2.59181 0
M  V30 53772 H 4918.15 0.834057 1.23951 0
M  V30 53773 H 4920.03 -0.264044 4.20572 0
M  V30 53774 H 4918.7 -0.799905 3.13661 0
M  V30 53775 H 4917.61 1.49909 3.42751 0
M  V30 53776 H 4918.94 1.95428 4.5174 0
M  V30 53777 N 4920.59 -1.33077 0.84429 0
M  V30 53778 C 4921.56 -2.27402 0.286565 0
M  V30 53779 C 4922.56 -1.51181 -0.547819 0
M  V30 53780 O 4923.75 -1.70422 -0.360826 0
M  V30 53781 C 4920.88 -3.35655 -0.595695 0
M  V30 53782 H 4922.07 -2.78244 1.11895 0
M  V30 53783 H 4919.63 -1.43572 0.617799 0
M  V30 53784 H 4920.36 -2.90063 -1.4503 0
M  V30 53785 H 4920.15 -3.921 0.00139779 0
M  V30 53786 H 4921.64 -4.05962 -0.979026 0
M  V30 53787 N 4922.07 -0.601236 -1.45681 0
M  V30 53788 C 4923.49 -0.264371 -1.57395 0
M  V30 53789 C 4923.69 1.23318 -1.59358 0
M  V30 53790 O 4922.74 2.01589 -1.52046 0
M  V30 53791 C 4924.06 -0.929939 -2.85959 0
M  V30 53792 C 4925.61 -0.905261 -2.99623 0
M  V30 53793 C 4926.08 -1.55072 -4.30949 0
M  V30 53794 N 4927.57 -1.51591 -4.37692 0
M  V30 53795 C 4928.31 -1.98455 -5.37962 0
M  V30 53796 N 4927.8 -2.53375 -6.44805 0
M  V30 53797 N 4929.6 -1.89261 -5.2928 0
M  V30 53798 H 4921.75 -1.57368 -1.42651 0
M  V30 53799 H 4924.01 -0.658855 -0.681626 0
M  V30 53800 H 4923.72 -1.98414 -2.90387 0
M  V30 53801 H 4923.59 -0.449355 -3.74514 0
M  V30 53802 H 4925.98 0.140377 -2.94766 0
M  V30 53803 H 4926.06 -1.42405 -2.12496 0
M  V30 53804 H 4925.7 -2.59565 -4.36564 0
M  V30 53805 H 4925.63 -1.00701 -5.16882 0
M  V30 53806 H 4928.12 -1.11465 -3.61087 0
M  V30 53807 H 4928.44 -2.86944 -7.17554 0
M  V30 53808 H 4926.78 -2.57411 -6.45573 0
M  V30 53809 H 4929.97 -1.46099 -4.44717 0
M  V30 53810 H 4930.14 -2.26097 -6.07276 0
M  V30 53811 N 4923.55 1.53888 -0.340036 0
M  V30 53812 C 4924.48 2.21189 0.561327 0
M  V30 53813 C 4925.46 1.19467 1.10302 0
M  V30 53814 O 4926.65 1.48272 1.16394 0
M  V30 53815 C 4923.77 2.88656 1.77187 0
M  V30 53816 C 4922.82 4.04237 1.35996 0
M  V30 53817 S 4923.65 5.34131 0.382721 0
M  V30 53818 C 4924.81 6.05099 1.60018 0
M  V30 53819 H 4925.04 2.97298 -0.0103137 0
M  V30 53820 H 4922.57 1.539 -0.12411 0
M  V30 53821 H 4924.53 3.28146 2.46638 0
M  V30 53822 H 4923.19 2.12319 2.31473 0
M  V30 53823 H 4922.39 4.50366 2.26244 0
M  V30 53824 H 4921.99 3.66505 0.744969 0
M  V30 53825 H 4924.28 6.28279 2.53519 0
M  V30 53826 H 4925.22 6.98186 1.18074 0
M  V30 53827 H 4925.63 5.35213 1.79464 0
M  V30 53828 N 4925.03 0.0685745 1.57451 0
M  V30 53829 C 4925.96 -0.929299 2.09515 0
M  V30 53830 C 4926.97 -1.26351 1.02661 0
M  V30 53831 O 4928.16 -1.22126 1.30183 0
M  V30 53832 C 4925.26 -2.24603 2.53785 0
M  V30 53833 C 4924.44 -2.09115 3.84174 0
M  V30 53834 C 4923.5 -3.24064 4.1457 0
M  V30 53835 O 4922.52 -2.99198 4.8422 0
M  V30 53836 N 4923.72 -4.49064 3.67861 0
M  V30 53837 H 4926.49 -0.484797 2.95753 0
M  V30 53838 H 4924.05 -0.117234 1.61475 0
M  V30 53839 H 4926.04 -3.00403 2.71183 0
M  V30 53840 H 4924.61 -2.60563 1.72701 0
M  V30 53841 H 4923.83 -1.17802 3.76187 0
M  V30 53842 H 4925.12 -1.96013 4.69528 0
M  V30 53843 H 4924.52 -4.72154 3.11587 0
M  V30 53844 H 4923.07 -5.21901 3.90465 0
M  V30 53845 N 4926.51 -1.56262 -0.204957 0
M  V30 53846 C 4927.76 -1.79239 -0.924995 0
M  V30 53847 C 4928.07 -0.640076 -1.84831 0
M  V30 53848 O 4929.28 -0.753901 -2.60823 0
M  V30 53849 C 4927.73 -3.17481 -1.69511 0
M  V30 53850 C 4927.34 -4.40485 -0.817114 0
M  V30 53851 C 4929.08 -3.49774 -2.40537 0
M  V30 53852 C 4926.99 -5.6975 -1.58553 0
M  V30 53853 H 4925.92 -0.6683 -0.34913 0
M  V30 53854 H 4928.57 -1.8263 -0.17848 0
M  V30 53855 H 4926.95 -3.08312 -2.48515 0
M  V30 53856 H 4928.13 -4.60752 -0.0664368 0
M  V30 53857 H 4926.44 -4.15828 -0.218169 0
M  V30 53858 H 4929.04 -4.43583 -2.9856 0
M  V30 53859 H 4929.38 -2.73052 -3.14242 0
M  V30 53860 H 4929.92 -3.60346 -1.68509 0
M  V30 53861 H 4926.65 -6.4941 -0.89145 0
M  V30 53862 H 4926.17 -5.53517 -2.31039 0
M  V30 53863 H 4927.85 -6.10517 -2.14191 0
M  V30 53864 N 4927.99 0.472303 -1.50356 0
M  V30 53865 C 4928.92 1.57853 -1.7206 0
M  V30 53866 C 4929.9 1.60281 -0.569561 0
M  V30 53867 O 4931.08 1.76567 -0.808565 0
M  V30 53868 C 4928.21 2.96184 -1.81362 0
M  V30 53869 C 4927.17 3.08623 -2.9654 0
M  V30 53870 C 4926.49 4.4859 -2.90983 0
M  V30 53871 C 4927.79 2.85954 -4.37067 0
M  V30 53872 H 4929.49 1.39943 -2.64681 0
M  V30 53873 H 4927.03 0.671801 -1.27369 0
M  V30 53874 H 4928.98 3.735 -1.9513 0
M  V30 53875 H 4927.71 3.15248 -0.853613 0
M  V30 53876 H 4926.37 2.33739 -2.82421 0
M  V30 53877 H 4926.02 4.6457 -1.92831 0
M  V30 53878 H 4925.72 4.57848 -3.68305 0
M  V30 53879 H 4927.24 5.27927 -3.06798 0
M  V30 53880 H 4928.65 3.53021 -4.51718 0
M  V30 53881 H 4927.05 3.06658 -5.1583 0
M  V30 53882 H 4928.12 1.81822 -4.49521 0
M  V30 53883 N 4929.46 1.39914 0.725394 0
M  V30 53884 C 4930.37 1.41695 1.86975 0
M  V30 53885 C 4931.39 0.31064 1.71205 0
M  V30 53886 O 4932.57 0.553658 1.9364 0
M  V30 53887 C 4929.63 1.26822 3.22672 0
M  V30 53888 C 4928.69 2.4751 3.50767 0
M  V30 53889 C 4927.92 2.33337 4.79989 0
M  V30 53890 O 4928.15 1.34195 5.5439 0
M  V30 53891 O 4927.08 3.22516 5.082 0
M  V30 53892 H 4930.91 2.38178 1.88428 0
M  V30 53893 H 4928.49 1.21131 0.874505 0
M  V30 53894 H 4930.37 1.20698 4.03745 0
M  V30 53895 H 4929.05 0.334402 3.21968 0
M  V30 53896 H 4927.96 2.59211 2.69742 0
M  V30 53897 H 4929.29 3.39619 3.56258 0
M  V30 53898 N 4930.94 -0.956593 1.25248 0
M  V30 53899 C 4932.22 -1.67713 1.00657 0
M  V30 53900 C 4932.6 -2.05852 -0.467793 0
M  V30 53901 O 4931.95 -1.77034 -1.44469 0
M  V30 53902 C 4932.16 -2.90086 1.94039 0
M  V30 53903 C 4933.5 -3.62082 2.21769 0
M  V30 53904 O 4934.53 -3.00164 1.91781 0
M  V30 53905 O 4933.39 -4.7357 2.72752 0
M  V30 53906 H 4930.48 -0.733718 0.381559 0
M  V30 53907 H 4933.03 -1.00969 1.36394 0
M  V30 53908 H 4931.8 -2.58678 2.936 0
M  V30 53909 H 4931.42 -3.6456 1.58687 0
M  V30 53910 N 4932.42 -1.06802 -1.15892 0
M  V30 53911 C 4933.37 -0.653289 -2.1844 0
M  V30 53912 C 4934.35 0.318707 -1.57712 0
M  V30 53913 O 4935.55 0.133326 -1.76497 0
M  V30 53914 C 4932.67 -0.0466991 -3.43268 0
M  V30 53915 C 4931.76 -1.0435 -4.11062 0
M  V30 53916 N 4932.15 -2.221 -4.54429 0
M  V30 53917 C 4930.45 -0.875587 -4.37321 0
M  V30 53918 C 4931.15 -2.85293 -5.06934 0
M  V30 53919 N 4930.13 -2.12991 -5.00136 0
M  V30 53920 H 4933.93 -1.55019 -2.49692 0
M  V30 53921 H 4931.44 -0.940431 -1.324 0
M  V30 53922 H 4933.44 0.268284 -4.16036 0
M  V30 53923 H 4932.1 0.845394 -3.13501 0
M  V30 53924 H 4933.11 -2.59849 -4.47995 0
M  V30 53925 H 4929.79 -0.0359189 -4.17485 0
M  V30 53926 H 4931.18 -3.85242 -5.50489 0
M  V30 53927 N 4933.9 1.32627 -0.851335 0
M  V30 53928 C 4934.85 2.30881 -0.282283 0
M  V30 53929 C 4935.84 1.58699 0.592534 0
M  V30 53930 O 4937.05 1.73462 0.480707 0
M  V30 53931 H 4933.42 0.74849 -0.072575 0
M  V30 53932 H 4935.39 2.7637 -1.12526 0
M  V30 53933 C 4934.14 3.4383 0.517328 0
M  V30 53934 H 4933.46 3.99531 -0.146533 0
M  V30 53935 H 4934.9 4.14743 0.881134 0
M  V30 53936 C 4933.36 2.90792 1.70122 0
M  V30 53937 O 4933.89 2.8801 2.80024 0
M  V30 53938 N 4932.1 2.47235 1.5272 0
M  V30 53939 H 4931.65 2.49697 0.633169 0
M  V30 53940 H 4931.6 2.12102 2.32078 0
M  V30 53941 N 4935.38 0.608953 1.4536 0
M  V30 53942 C 4936.32 -0.109091 2.30542 0
M  V30 53943 C 4937.29 -0.858654 1.42184 0
M  V30 53944 O 4938.48 -0.844118 1.71112 0
M  V30 53945 C 4935.62 -1.09959 3.27113 0
M  V30 53946 C 4934.73 -0.35076 4.30574 0
M  V30 53947 C 4933.87 -1.3311 5.14252 0
M  V30 53948 C 4932.9 -0.570163 6.09439 0
M  V30 53949 N 4932.04 -1.49986 6.85893 0
M  V30 53950 H 4936.88 0.623297 2.91409 0
M  V30 53951 H 4934.42 0.319172 1.43596 0
M  V30 53952 H 4936.38 -1.68701 3.8157 0
M  V30 53953 H 4935.01 -1.79938 2.67997 0
M  V30 53954 H 4934.06 0.352187 3.78766 0
M  V30 53955 H 4935.37 0.2429 4.98208 0
M  V30 53956 H 4934.52 -1.99054 5.73116 0
M  V30 53957 H 4933.26 -1.9587 4.46639 0
M  V30 53958 H 4932.27 0.102895 5.49704 0
M  V30 53959 H 4933.49 0.0523994 6.7908 0
M  V30 53960 H 4931.44 -2.11507 6.20968 0
M  V30 53961 H 4931.36 -0.95967 7.49884 0
M  V30 53962 H 4932.62 -2.14883 7.49297 0
M  V30 53963 N 4936.85 -1.53705 0.348193 0
M  V30 53964 C 4937.79 -2.22727 -0.540868 0
M  V30 53965 C 4938.8 -1.23543 -1.06023 0
M  V30 53966 O 4939.99 -1.49871 -0.969588 0
M  V30 53967 C 4937.09 -2.89763 -1.75758 0
M  V30 53968 C 4936.26 -4.15302 -1.37271 0
M  V30 53969 C 4935.32 -4.65705 -2.44959 0
M  V30 53970 O 4934.35 -5.29806 -2.08073 0
M  V30 53971 N 4935.55 -4.4203 -3.76284 0
M  V30 53972 H 4938.31 -2.99658 0.0502646 0
M  V30 53973 H 4935.87 -1.60978 0.172536 0
M  V30 53974 H 4937.87 -3.20397 -2.47241 0
M  V30 53975 H 4936.44 -2.1639 -2.25597 0
M  V30 53976 H 4935.66 -3.91162 -0.488447 0
M  V30 53977 H 4936.94 -4.96952 -1.09161 0
M  V30 53978 H 4936.34 -3.90775 -4.09037 0
M  V30 53979 H 4934.9 -4.77258 -4.43924 0
M  V30 53980 N 4938.33 -0.0769235 -1.57412 0
M  V30 53981 C 4939.26 0.88595 -2.1604 0
M  V30 53982 C 4940.24 1.30687 -1.08881 0
M  V30 53983 O 4941.43 1.377 -1.36939 0
M  V30 53984 C 4938.56 2.1517 -2.72615 0
M  V30 53985 C 4937.51 1.87002 -3.84986 0
M  V30 53986 C 4936.84 3.20251 -4.28186 0
M  V30 53987 C 4938.14 1.17125 -5.08998 0
M  V30 53988 H 4939.83 0.397537 -2.96749 0
M  V30 53989 H 4937.38 0.189773 -1.42744 0
M  V30 53990 H 4939.33 2.82951 -3.12276 0
M  V30 53991 H 4938.06 2.66263 -1.89134 0
M  V30 53992 H 4936.71 1.21624 -3.45837 0
M  V30 53993 H 4936.36 3.69195 -3.4162 0
M  V30 53994 H 4936.06 3.02193 -5.03938 0
M  V30 53995 H 4937.59 3.89221 -4.70467 0
M  V30 53996 H 4939 1.74984 -5.45943 0
M  V30 53997 H 4937.4 1.09307 -5.90061 0
M  V30 53998 H 4938.47 0.151125 -4.84664 0
M  V30 53999 N 4939.81 1.56368 0.196667 0
M  V30 54000 C 4940.72 1.97622 1.26423 0
M  V30 54001 C 4941.74 0.88365 1.49892 0
M  V30 54002 O 4942.91 1.18927 1.62537 0
M  V30 54003 C 4939.98 2.30604 2.58887 0
M  V30 54004 C 4939.04 3.5356 2.43504 0
M  V30 54005 C 4938.27 3.84959 3.69651 0
M  V30 54006 O 4938.49 3.17671 4.73752 0
M  V30 54007 O 4937.43 4.78391 3.65274 0
M  V30 54008 H 4941.25 2.88652 0.944131 0
M  V30 54009 H 4938.84 1.43903 0.401541 0
M  V30 54010 H 4940.72 2.52901 3.37074 0
M  V30 54011 H 4939.4 1.42743 2.90527 0
M  V30 54012 H 4938.3 3.36512 1.63433 0
M  V30 54013 H 4939.64 4.41883 2.16796 0
M  V30 54014 N 4941.29 -0.464322 1.50605 0
M  V30 54015 C 4942.51 -1.24367 1.65975 0
M  V30 54016 C 4942.94 -1.84899 0.345518 0
M  V30 54017 O 4942.3 -1.67599 -0.691398 0
M  V30 54018 C 4942.34 -2.32321 2.75788 0
M  V30 54019 O 4941.45 -3.37137 2.37512 0
M  V30 54020 H 4940.79 -0.365585 0.554296 0
M  V30 54021 H 4943.32 -0.551761 1.9702 0
M  V30 54022 H 4943.33 -2.77529 2.99068 0
M  V30 54023 H 4942 -1.87635 3.71168 0
M  V30 54024 H 4940.58 -2.97594 2.24704 0
M  V30 54025 N 4942.77 -1.40296 -0.717964 0
M  V30 54026 C 4943.7 -1.36287 -1.84278 0
M  V30 54027 C 4944.71 -0.268678 -1.60568 0
M  V30 54028 O 4945.9 -0.528857 -1.70486 0
M  V30 54029 C 4943 -1.09752 -3.20636 0
M  V30 54030 C 4942.17 -2.3078 -3.71563 0
M  V30 54031 C 4941.23 -2.00442 -4.86528 0
M  V30 54032 O 4940.26 -2.73286 -4.99303 0
M  V30 54033 N 4941.46 -0.980925 -5.72152 0
M  V30 54034 H 4944.23 -2.33226 -1.88217 0
M  V30 54035 H 4941.79 -1.34619 -0.899406 0
M  V30 54036 H 4943.78 -0.874461 -3.9514 0
M  V30 54037 H 4942.35 -0.214881 -3.11861 0
M  V30 54038 H 4941.57 -2.68931 -2.88218 0
M  V30 54039 H 4942.86 -3.11469 -4.02324 0
M  V30 54040 H 4942.25 -0.377573 -5.64439 0
M  V30 54041 H 4940.81 -0.817765 -6.4665 0
M  V30 54042 N 4944.24 0.949938 -1.25754 0
M  V30 54043 C 4945.17 2.06479 -1.09035 0
M  V30 54044 C 4946.16 1.701 0.00195552 0
M  V30 54045 O 4947.34 1.93468 -0.168451 0
M  V30 54046 C 4944.47 3.39896 -0.713279 0
M  V30 54047 C 4943.42 3.90303 -1.75635 0
M  V30 54048 C 4942.75 5.2027 -1.23383 0
M  V30 54049 C 4944.05 4.16158 -3.15611 0
M  V30 54050 H 4945.74 2.20724 -2.02291 0
M  V30 54051 H 4943.29 1.06062 -0.974002 0
M  V30 54052 H 4945.24 4.17344 -0.583237 0
M  V30 54053 H 4943.97 3.25603 0.254977 0
M  V30 54054 H 4942.63 3.15028 -1.87491 0
M  V30 54055 H 4942.27 5.0235 -0.255667 0
M  V30 54056 H 4941.97 5.54964 -1.93102 0
M  V30 54057 H 4943.5 6.0031 -1.11628 0
M  V30 54058 H 4944.91 4.84249 -3.06881 0
M  V30 54059 H 4943.31 4.62117 -3.82842 0
M  V30 54060 H 4944.38 3.2226 -3.62321 0
M  V30 54061 N 4945.72 1.07416 1.15324 0
M  V30 54062 C 4946.67 0.664865 2.18091 0
M  V30 54063 C 4947.66 -0.310339 1.57879 0
M  V30 54064 O 4948.85 -0.123964 1.76565 0
M  V30 54065 C 4945.98 0.0649028 3.43239 0
M  V30 54066 C 4945.06 1.06529 4.10503 0
M  V30 54067 N 4945.45 2.24507 4.53244 0
M  V30 54068 C 4943.75 0.898767 4.3685 0
M  V30 54069 C 4944.45 2.87978 5.05414 0
M  V30 54070 N 4943.43 2.1564 4.98999 0
M  V30 54071 H 4947.23 1.56341 2.48867 0
M  V30 54072 H 4944.75 0.947439 1.31899 0
M  V30 54073 H 4946.74 -0.246217 4.16172 0
M  V30 54074 H 4945.4 -0.828756 3.13945 0
M  V30 54075 H 4946.41 2.62221 4.4661 0
M  V30 54076 H 4943.09 0.0580586 4.1746 0
M  V30 54077 H 4944.48 3.88156 5.48438 0
M  V30 54078 N 4947.2 -1.32174 0.858357 0
M  V30 54079 C 4948.62 -1.49871 0.548708 0
M  V30 54080 C 4948.82 -1.79281 -0.919811 0
M  V30 54081 O 4947.87 -1.86457 -1.70265 0
M  V30 54082 C 4949.19 -2.64038 1.4389 0
M  V30 54083 C 4950.73 -2.77923 1.43971 0
M  V30 54084 C 4951.21 -3.95174 2.3152 0
M  V30 54085 N 4952.7 -4.02442 2.29336 0
M  V30 54086 C 4953.43 -4.9241 2.93803 0
M  V30 54087 N 4952.93 -5.8736 3.67397 0
M  V30 54088 N 4954.72 -4.85562 2.83172 0
M  V30 54089 H 4946.87 -1.11351 1.80872 0
M  V30 54090 H 4949.14 -0.549148 0.772748 0
M  V30 54091 H 4948.84 -2.49046 2.48332 0
M  V30 54092 H 4948.72 -3.59908 1.12897 0
M  V30 54093 H 4951.1 -2.92336 0.402915 0
M  V30 54094 H 4951.19 -1.82756 1.78981 0
M  V30 54095 H 4950.83 -3.81519 3.35269 0
M  V30 54096 H 4950.76 -4.89626 1.93841 0
M  V30 54097 H 4953.25 -3.34501 1.75833 0
M  V30 54098 H 4953.56 -6.52713 4.13745 0
M  V30 54099 H 4951.91 -5.87375 3.71505 0
M  V30 54100 H 4955.1 -4.10355 2.25225 0
M  V30 54101 H 4955.27 -5.55474 3.33695 0
M  V30 54102 N 4948.68 -0.616653 -1.45035 0
M  V30 54103 C 4949.61 0.0839967 -2.33349 0
M  V30 54104 C 4950.59 0.849589 -1.47363 0
M  V30 54105 O 4951.77 0.818345 -1.76116 0
M  V30 54106 C 4948.9 1.07593 -3.30214 0
M  V30 54107 C 4947.86 0.422946 -4.25905 0
M  V30 54108 C 4947.18 1.52376 -5.12529 0
M  V30 54109 C 4948.48 -0.66164 -5.18092 0
M  V30 54110 H 4950.18 -0.653436 -2.92182 0
M  V30 54111 H 4947.72 -0.315683 -1.40497 0
M  V30 54112 H 4949.68 1.57472 -3.90872 0
M  V30 54113 H 4948.4 1.84407 -2.69558 0
M  V30 54114 H 4947.06 -0.0550589 -3.66559 0
M  V30 54115 H 4946.71 2.28241 -4.48235 0
M  V30 54116 H 4946.41 1.09231 -5.77358 0
M  V30 54117 H 4947.93 2.02464 -5.76056 0
M  V30 54118 H 4949.35 -0.246554 -5.7277 0
M  V30 54119 H 4947.74 -1.01538 -5.91447 0
M  V30 54120 H 4948.81 -1.53462 -4.59975 0
M  V30 54121 N 4950.16 1.53519 -0.356339 0
M  V30 54122 C 4951.57 1.59599 -0.00490877 0
M  V30 54123 C 4951.77 1.37184 1.4759 0
M  V30 54124 O 4950.83 1.17242 2.2363 0
M  V30 54125 C 4952.14 2.97275 -0.452558 0
M  V30 54126 C 4953.69 3.10356 -0.40599 0
M  V30 54127 C 4954.16 4.50429 -0.829307 0
M  V30 54128 N 4955.66 4.56517 -0.783998 0
M  V30 54129 C 4956.39 5.63073 -1.08334 0
M  V30 54130 N 4955.89 6.77424 -1.4515 0
M  V30 54131 N 4957.68 5.53011 -1.00674 0
M  V30 54132 H 4949.83 1.66342 -1.32076 0
M  V30 54133 H 4952.09 0.779691 -0.539245 0
M  V30 54134 H 4951.8 3.18787 -1.48553 0
M  V30 54135 H 4951.67 3.76836 0.165629 0
M  V30 54136 H 4954.06 2.8856 0.617833 0
M  V30 54137 H 4954.14 2.32824 -1.05955 0
M  V30 54138 H 4953.79 4.72962 -1.8512 0
M  V30 54139 H 4953.72 5.26377 -0.153091 0
M  V30 54140 H 4956.21 3.74407 -0.512644 0
M  V30 54141 H 4956.52 7.54664 -1.66442 0
M  V30 54142 H 4954.86 6.78839 -1.49007 0
M  V30 54143 H 4958.06 4.62555 -0.718378 0
M  V30 54144 H 4958.23 6.35959 -1.24337 0
M  V30 54145 N 4951.63 0.0852704 1.57369 0
M  V30 54146 C 4952.57 -0.907025 2.10489 0
M  V30 54147 C 4953.58 -1.25255 1.03995 0
M  V30 54148 O 4954.77 -1.20738 1.31471 0
M  V30 54149 C 4951.87 -2.21899 2.56152 0
M  V30 54150 C 4951.04 -2.05028 3.8637 0
M  V30 54151 C 4950.1 -3.19649 4.17984 0
M  V30 54152 O 4949.13 -2.94045 4.87366 0
M  V30 54153 N 4950.33 -4.45138 3.72603 0
M  V30 54154 H 4953.09 -0.453401 2.96251 0
M  V30 54155 H 4950.65 -0.1001 1.6159 0
M  V30 54156 H 4952.65 -2.9751 2.74354 0
M  V30 54157 H 4951.22 -2.58716 1.75455 0
M  V30 54158 H 4950.44 -1.13805 3.77415 0
M  V30 54159 H 4951.72 -1.91022 4.7158 0
M  V30 54160 H 4951.12 -4.68823 3.16578 0
M  V30 54161 H 4949.68 -5.1773 3.95978 0
M  V30 54162 N 4953.11 -1.5647 -0.188372 0
M  V30 54163 C 4954.04 -1.98105 -1.23599 0
M  V30 54164 C 4955.02 -0.854012 -1.47108 0
M  V30 54165 O 4956.21 -1.11884 -1.58731 0
M  V30 54166 C 4953.34 -2.32633 -2.57874 0
M  V30 54167 C 4952.29 -3.48138 -2.48966 0
M  V30 54168 C 4951.62 -3.6836 -3.87575 0
M  V30 54169 C 4952.92 -4.82119 -2.00895 0
M  V30 54170 H 4954.61 -2.85867 -0.889968 0
M  V30 54171 H 4952.16 -1.37534 -0.426666 0
M  V30 54172 H 4954.11 -2.60355 -3.31351 0
M  V30 54173 H 4952.84 -1.41761 -2.9423 0
M  V30 54174 H 4951.5 -3.20517 -1.77945 0
M  V30 54175 H 4951.14 -2.74808 -4.21295 0
M  V30 54176 H 4950.84 -4.46068 -3.82488 0
M  V30 54177 H 4952.37 -3.98465 -4.62664 0
M  V30 54178 H 4953.78 -5.08828 -2.64134 0
M  V30 54179 H 4952.18 -5.63344 -2.06794 0
M  V30 54180 H 4953.25 -4.75252 -0.962453 0
M  V30 54181 N 4954.59 0.456329 -1.50849 0
M  V30 54182 C 4955.52 1.56019 -1.73725 0
M  V30 54183 C 4956.5 1.59668 -0.586529 0
M  V30 54184 O 4957.69 1.75699 -0.827246 0
M  V30 54185 C 4954.82 2.94244 -1.84493 0
M  V30 54186 C 4953.77 3.0546 -2.99797 0
M  V30 54187 C 4953.1 4.45478 -2.95725 0
M  V30 54188 C 4954.4 2.81302 -4.40075 0
M  V30 54189 H 4956.09 1.37128 -2.66151 0
M  V30 54190 H 4953.64 0.658254 -1.28074 0
M  V30 54191 H 4955.59 3.7141 -1.9908 0
M  V30 54192 H 4954.31 3.14324 -0.887001 0
M  V30 54193 H 4952.97 2.30731 -2.84884 0
M  V30 54194 H 4952.62 4.62498 -1.97748 0
M  V30 54195 H 4952.32 4.53916 -3.73141 0
M  V30 54196 H 4953.85 5.24644 -3.1238 0
M  V30 54197 H 4955.26 3.4821 -4.55437 0
M  V30 54198 H 4953.66 3.0117 -5.19054 0
M  V30 54199 H 4954.73 1.77044 -4.51424 0
M  V30 54200 N 4956.07 1.40675 0.710514 0
M  V30 54201 C 4956.98 1.4367 1.85462 0
M  V30 54202 C 4958 0.328781 1.70866 0
M  V30 54203 O 4959.17 0.574165 1.93042 0
M  V30 54204 C 4956.24 1.30238 3.21308 0
M  V30 54205 C 4955.3 2.51216 3.48122 0
M  V30 54206 C 4954.53 2.38415 4.77487 0
M  V30 54207 O 4954.75 1.40067 5.52935 0
M  V30 54208 O 4953.69 3.27888 5.0475 0
M  V30 54209 H 4957.51 2.40163 1.85891 0
M  V30 54210 H 4955.1 1.22052 0.861609 0
M  V30 54211 H 4956.98 1.24974 4.02442 0
M  V30 54212 H 4955.66 0.368532 3.21595 0
M  V30 54213 H 4954.56 2.62057 2.66978 0
M  V30 54214 H 4955.9 3.43378 3.52636 0
M  V30 54215 N 4957.55 -0.943255 1.26256 0
M  V30 54216 C 4958.48 -2.04539 1.03424 0
M  V30 54217 C 4959.49 -1.62799 -0.00463387 0
M  V30 54218 O 4960.68 -1.76944 0.235208 0
M  V30 54219 C 4957.78 -3.34509 0.543789 0
M  V30 54220 C 4956.95 -4.05027 1.65142 0
M  V30 54221 C 4956.01 -5.13269 1.15938 0
M  V30 54222 O 4955.04 -5.38089 1.85605 0
M  V30 54223 N 4956.24 -5.805 0.00669686 0
M  V30 54224 H 4959.01 -2.24692 1.98327 0
M  V30 54225 H 4956.57 -1.11259 1.17614 0
M  V30 54226 H 4958.56 -4.04211 0.198845 0
M  V30 54227 H 4957.13 -3.11043 -0.311601 0
M  V30 54228 H 4956.35 -3.29268 2.16741 0
M  V30 54229 H 4957.64 -4.48894 2.39523 0
M  V30 54230 H 4957.04 -5.62769 -0.575149 0
M  V30 54231 H 4955.59 -6.51202 -0.279187 0
M  V30 54232 N 4959.03 -1.08026 -1.14753 0
M  V30 54233 C 4960.44 -0.829202 -1.67276 0
M  V30 54234 C 4960.79 0.644656 -1.85307 0
M  V30 54235 O 4959.91 1.49832 -1.56139 0
M  V30 54236 C 4960.51 -1.49866 -3.03851 0
M  V30 54237 C 4959.07 -1.29494 -3.53423 0
M  V30 54238 C 4958.21 -1.56394 -2.28989 0
M  V30 54239 H 4961.16 -1.24137 -0.988719 0
M  V30 54240 H 4961.19 -0.923702 -3.69118 0
M  V30 54241 H 4960.7 -2.57133 -2.90696 0
M  V30 54242 H 4958.8 -0.2428 -3.71808 0
M  V30 54243 H 4958.91 -2.01989 -4.34439 0
M  V30 54244 H 4957.28 -0.985299 -2.3487 0
M  V30 54245 H 4958.06 -2.64859 -2.18414 0
M  V30 54246 N 4960.5 1.31717 -0.865354 0
M  V30 54247 C 4961.41 2.32393 -0.321016 0
M  V30 54248 C 4962.43 1.64513 0.566688 0
M  V30 54249 O 4963.61 1.9597 0.464506 0
M  V30 54250 C 4960.67 3.43464 0.47258 0
M  V30 54251 C 4959.73 4.27013 -0.442535 0
M  V30 54252 C 4958.96 5.3278 0.313282 0
M  V30 54253 O 4959.19 5.49163 1.54195 0
M  V30 54254 O 4958.12 6.01014 -0.326469 0
M  V30 54255 H 4961.95 2.80864 -1.15538 0
M  V30 54256 H 4959.53 1.35533 -0.628593 0
M  V30 54257 H 4961.41 4.11176 0.922637 0
M  V30 54258 H 4960.09 2.97164 1.28357 0
M  V30 54259 H 4959 3.62072 -0.940994 0
M  V30 54260 H 4960.33 4.76866 -1.21899 0
M  V30 54261 N 4961.98 0.624336 1.44706 0
M  V30 54262 C 4963.21 0.131243 2.06984 0
M  V30 54263 C 4963.63 -1.18229 1.463 0
M  V30 54264 O 4962.99 -1.72373 0.561902 0
M  V30 54265 C 4963.04 0.0227992 3.60593 0
M  V30 54266 O 4962.14 -1.023 3.9951 0
M  V30 54267 H 4961.48 0.0816788 0.658957 0
M  V30 54268 H 4964.01 0.859092 1.8569 0
M  V30 54269 H 4964.02 -0.169994 4.07646 0
M  V30 54270 H 4962.7 0.981828 4.04145 0
M  V30 54271 H 4961.27 -0.805324 3.641 0
M  V30 54272 N 4963.46 -1.53328 0.364476 0
M  V30 54273 C 4964.74 -1.93558 -0.281894 0
M  V30 54274 C 4965.12 -1.29791 -1.66485 0
M  V30 54275 O 4964.46 -0.456591 -2.23892 0
M  V30 54276 C 4964.67 -3.47406 -0.333209 0
M  V30 54277 C 4966.02 -4.20701 -0.574083 0
M  V30 54278 O 4967.05 -3.53781 -0.414463 0
M  V30 54279 O 4965.91 -5.3929 -0.884812 0
M  V30 54280 H 4963 -0.809579 -0.168853 0
M  V30 54281 H 4965.55 -1.64492 0.417179 0
M  V30 54282 H 4964.32 -3.86089 0.636461 0
M  V30 54283 H 4963.94 -3.82701 -1.07822 0
M  V30 54284 N 4964.94 -0.0936148 -1.57322 0
M  V30 54285 C 4966.16 0.582254 -1.99059 0
M  V30 54286 C 4966.59 1.61022 -0.972298 0
M  V30 54287 O 4965.95 1.81203 0.0593985 0
M  V30 54288 C 4965.99 1.20787 -3.39769 0
M  V30 54289 O 4965.1 2.3237 -3.40702 0
M  V30 54290 H 4964.44 0.147861 -0.647328 0
M  V30 54291 H 4966.97 -0.174588 -2.03854 0
M  V30 54292 H 4966.98 1.54953 -3.7743 0
M  V30 54293 H 4965.65 0.454769 -4.13406 0
M  V30 54294 H 4964.23 1.99834 -3.14834 0
M  V30 54295 N 4966.42 1.56568 0.180071 0
M  V30 54296 C 4967.83 1.5049 0.531506 0
M  V30 54297 C 4968.03 0.796332 1.85097 0
M  V30 54298 O 4967.09 0.353066 2.50019 0
M  V30 54299 C 4968.4 2.95203 0.572352 0
M  V30 54300 C 4969.95 3.05959 0.660156 0
M  V30 54301 C 4970.42 4.52113 0.731976 0
M  V30 54302 N 4971.91 4.56325 0.795102 0
M  V30 54303 C 4972.65 5.66745 0.871097 0
M  V30 54304 N 4972.15 6.86818 0.908466 0
M  V30 54305 N 4973.94 5.54694 0.909444 0
M  V30 54306 H 4966.09 2.01043 -0.685236 0
M  V30 54307 H 4968.35 0.915528 -0.245994 0
M  V30 54308 H 4968.06 3.50164 -0.328331 0
M  V30 54309 H 4967.93 3.49374 1.42188 0
M  V30 54310 H 4970.32 2.51037 1.55127 0
M  V30 54311 H 4970.4 2.54887 -0.215872 0
M  V30 54312 H 4970.04 5.07664 -0.154843 0
M  V30 54313 H 4969.97 5.00932 1.62402 0
M  V30 54314 H 4972.47 3.69871 0.77486 0
M  V30 54315 H 4972.78 7.66721 0.967384 0
M  V30 54316 H 4971.12 6.89446 0.87689 0
M  V30 54317 H 4974.31 4.59808 0.877191 0
M  V30 54318 H 4974.49 6.40771 0.965209 0
M  V30 54319 N 4967.89 -0.448323 1.51089 0
M  V30 54320 C 4969.14 -1.19555 1.62448 0
M  V30 54321 C 4969.46 -1.92601 0.341219 0
M  V30 54322 O 4970.66 -2.69437 0.334031 0
M  V30 54323 C 4969.12 -2.17363 2.86847 0
M  V30 54324 C 4968.73 -1.50015 4.22137 0
M  V30 54325 C 4970.47 -2.92586 3.07561 0
M  V30 54326 C 4968.38 -2.46243 5.37697 0
M  V30 54327 H 4967.31 -0.449954 0.605027 0
M  V30 54328 H 4969.96 -0.463673 1.77545 0
M  V30 54329 H 4968.34 -2.93939 2.6536 0
M  V30 54330 H 4969.51 -0.790726 4.53965 0
M  V30 54331 H 4967.83 -0.869868 4.07213 0
M  V30 54332 H 4970.43 -3.64649 3.91069 0
M  V30 54333 H 4970.77 -3.53298 2.20195 0
M  V30 54334 H 4971.3 -2.23119 3.29337 0
M  V30 54335 H 4968.04 -1.90236 6.27288 0
M  V30 54336 H 4967.56 -3.15271 5.10259 0
M  V30 54337 H 4969.24 -3.07603 5.69201 0
M  V30 54338 N 4969.37 -1.4105 -0.703043 0
M  V30 54339 C 4970.32 -1.42501 -1.83838 0
M  V30 54340 C 4971.31 -0.303944 -1.66651 0
M  V30 54341 O 4972.52 -0.475606 -1.73603 0
M  V30 54342 H 4968.9 -0.445707 -0.605681 0
M  V30 54343 H 4970.87 -2.38201 -1.7973 0
M  V30 54344 C 4969.62 -1.31677 -3.21802 0
M  V30 54345 H 4968.94 -2.17224 -3.35639 0
M  V30 54346 H 4970.38 -1.36753 -4.01341 0
M  V30 54347 C 4968.84 -0.0283012 -3.36888 0
M  V30 54348 O 4969.37 0.929858 -3.9079 0
M  V30 54349 N 4967.57 0.0453301 -2.90565 0
M  V30 54350 H 4967.12 -0.735133 -2.46888 0
M  V30 54351 H 4967.08 0.906862 -3.01037 0
M  V30 54352 N 4970.85 0.936546 -1.26754 0
M  V30 54353 C 4972.1 1.67994 -1.12349 0
M  V30 54354 C 4972.42 1.92138 0.332871 0
M  V30 54355 O 4971.69 1.52136 1.23415 0
M  V30 54356 H 4970.27 0.622594 -0.412777 0
M  V30 54357 H 4972.93 1.12503 -1.59151 0
M  V30 54358 H 4972.03 2.65179 -1.6458 0
M  V30 54359 N 4972.33 1.08633 1.14178 0
M  V30 54360 C 4973.57 0.818622 1.85544 0
M  V30 54361 C 4973.91 -0.654012 1.82856 0
M  V30 54362 O 4973.18 -1.48094 1.26088 0
M  V30 54363 C 4973.47 1.34408 3.34075 0
M  V30 54364 C 4973.32 2.88223 3.45323 0
M  V30 54365 C 4974.64 0.97122 4.2925 0
M  V30 54366 H 4971.76 0.298845 0.673692 0
M  V30 54367 H 4974.4 1.34634 1.34066 0
M  V30 54368 H 4972.55 0.895197 3.78046 0
M  V30 54369 H 4974.22 3.41499 3.10122 0
M  V30 54370 H 4972.46 3.25766 2.86459 0
M  V30 54371 H 4973.13 3.20063 4.49737 0
M  V30 54372 H 4975.61 1.35823 3.93308 0
M  V30 54373 H 4974.49 1.36605 5.3163 0
M  V30 54374 H 4974.75 -0.121504 4.41933 0
M  V30 54375 N 4973.81 -1.31256 0.872327 0
M  V30 54376 C 4975.03 -2.01328 0.49817 0
M  V30 54377 C 4975.46 -1.65034 -0.90251 0
M  V30 54378 O 4974.81 -0.860221 -1.59593 0
M  V30 54379 C 4974.86 -3.54409 0.66533 0
M  V30 54380 O 4973.97 -4.11348 -0.294329 0
M  V30 54381 H 4973.31 -0.633837 0.197855 0
M  V30 54382 H 4975.84 -1.67398 1.17639 0
M  V30 54383 H 4975.85 -4.04145 0.559515 0
M  V30 54384 H 4974.52 -3.80165 1.68664 0
M  V30 54385 H 4973.1 -3.72625 -0.143272 0
M  V30 54386 N 4975.28 -0.632002 -1.44373 0
M  V30 54387 C 4976.7 -0.219101 -1.8541 0
M  V30 54388 C 4977.05 1.22968 -1.52883 0
M  V30 54389 O 4976.17 1.93576 -0.967334 0
M  V30 54390 C 4976.77 -0.390868 -3.36538 0
M  V30 54391 C 4975.33 -0.0324674 -3.76386 0
M  V30 54392 C 4974.47 -0.703838 -2.68219 0
M  V30 54393 H 4977.42 -0.837103 -1.34827 0
M  V30 54394 H 4977.44 0.369923 -3.78698 0
M  V30 54395 H 4976.96 -1.4454 -3.6018 0
M  V30 54396 H 4975.06 1.02029 -3.58358 0
M  V30 54397 H 4975.17 -0.443136 -4.77046 0
M  V30 54398 H 4973.53 -0.139063 -2.5432 0
M  V30 54399 H 4974.32 -1.76098 -2.94694 0
M  V30 54400 N 4976.76 1.53132 -0.372602 0
M  V30 54401 C 4978.01 2.02336 0.207751 0
M  V30 54402 C 4978.36 1.25483 1.45849 0
M  V30 54403 O 4977.66 0.342038 1.88522 0
M  V30 54404 C 4977.85 3.53208 0.545814 0
M  V30 54405 C 4977.68 4.44672 -0.67061 0
M  V30 54406 C 4976.45 4.91213 -1.18482 0
M  V30 54407 C 4978.65 4.90767 -1.53794 0
M  V30 54408 N 4976.63 5.66703 -2.36054 0
M  V30 54409 C 4978 5.64669 -2.56024 0
M  V30 54410 C 4980.06 4.7283 -1.56 0
M  V30 54411 C 4978.76 6.22542 -3.60325 0
M  V30 54412 C 4980.78 5.31574 -2.59198 0
M  V30 54413 C 4980.15 6.05368 -3.60151 0
M  V30 54414 H 4976.25 0.781049 0.0385509 0
M  V30 54415 H 4978.83 1.87663 -0.51873 0
M  V30 54416 H 4977 3.68028 1.24136 0
M  V30 54417 H 4978.73 3.89127 1.11187 0
M  V30 54418 H 4975.49 4.6765 -0.748369 0
M  V30 54419 H 4975.91 6.09106 -2.95497 0
M  V30 54420 H 4980.55 4.15296 -0.793023 0
M  V30 54421 H 4978.27 6.79168 -4.379 0
M  V30 54422 H 4981.86 5.19586 -2.61767 0
M  V30 54423 H 4980.74 6.50013 -4.38695 0
M  V30 54424 N 4978.24 0.101957 1.5727 0
M  V30 54425 C 4979.2 -0.840054 2.1325 0
M  V30 54426 C 4980.2 -1.20621 1.06335 0
M  V30 54427 O 4981.39 -1.13452 1.3219 0
M  V30 54428 C 4978.53 -2.13363 2.65874 0
M  V30 54429 H 4979.72 -0.35384 2.97805 0
M  V30 54430 H 4977.27 -0.147113 1.55606 0
M  V30 54431 H 4978.01 -2.66454 1.84859 0
M  V30 54432 H 4977.79 -1.88073 3.44051 0
M  V30 54433 H 4979.28 -2.80737 3.09154 0
M  V30 54434 N 4979.72 -1.56661 -0.171765 0
M  V30 54435 C 4980.94 -1.86463 -0.9081 0
M  V30 54436 C 4981.37 -0.688243 -1.75057 0
M  V30 54437 O 4980.73 0.36269 -1.77635 0
M  V30 54438 C 4980.77 -3.14676 -1.76101 0
M  V30 54439 O 4979.88 -2.96868 -2.86258 0
M  V30 54440 H 4979.22 -0.613327 -0.254412 0
M  V30 54441 H 4981.75 -2.03892 -0.170041 0
M  V30 54442 H 4981.76 -3.46069 -2.16103 0
M  V30 54443 H 4980.43 -3.99909 -1.14219 0
M  V30 54444 H 4979.01 -2.76827 -2.49842 0
M  V30 54445 N 4981.2 0.440304 -1.51324 0
M  V30 54446 C 4982.61 1.02027 -1.56357 0
M  V30 54447 C 4982.96 1.9238 -0.385265 0
M  V30 54448 O 4982.08 2.10585 0.498299 0
M  V30 54449 C 4982.68 1.85713 -2.83366 0
M  V30 54450 C 4981.24 2.38764 -2.90979 0
M  V30 54451 C 4980.38 1.17899 -2.50988 0
M  V30 54452 H 4983.34 0.221689 -1.57144 0
M  V30 54453 H 4983.36 2.71131 -2.66961 0
M  V30 54454 H 4982.87 1.19926 -3.69106 0
M  V30 54455 H 4980.97 3.08014 -2.09662 0
M  V30 54456 H 4981.08 2.71764 -3.94565 0
M  V30 54457 H 4979.45 1.5234 -2.04119 0
M  V30 54458 H 4980.23 0.537274 -3.3907 0
M  V30 54459 N 4982.68 1.41421 0.695553 0
M  V30 54460 C 4983.61 1.39202 1.82087 0
M  V30 54461 C 4984.62 0.294189 1.6012 0
M  V30 54462 O 4985.81 0.555913 1.69623 0
M  V30 54463 C 4982.91 1.14839 3.1885 0
M  V30 54464 C 4982.08 2.36662 3.67845 0
M  V30 54465 C 4981.14 2.08156 4.83278 0
M  V30 54466 O 4980.17 2.81194 4.94892 0
M  V30 54467 N 4981.37 1.07183 5.70519 0
M  V30 54468 H 4984.13 2.36191 1.84482 0
M  V30 54469 H 4981.7 1.36033 0.877875 0
M  V30 54470 H 4983.69 0.937213 3.93698 0
M  V30 54471 H 4982.26 0.264468 3.11479 0
M  V30 54472 H 4981.48 2.73482 2.83903 0
M  V30 54473 H 4982.77 3.1783 3.97318 0
M  V30 54474 H 4982.16 0.467322 5.63766 0
M  V30 54475 H 4980.72 0.920538 6.45267 0
M  V30 54476 N 4984.15 -0.929811 1.27249 0
M  V30 54477 C 4985.1 -2.01625 1.06449 0
M  V30 54478 C 4986.09 -1.60899 -0.00682186 0
M  V30 54479 O 4987.28 -1.75732 0.211469 0
M  V30 54480 C 4984.41 -3.35846 0.711479 0
M  V30 54481 C 4983.49 -3.83023 1.82082 0
M  V30 54482 N 4983.89 -4.02733 3.06007 0
M  V30 54483 C 4982.18 -4.1204 1.70702 0
M  V30 54484 C 4982.88 -4.41987 3.78183 0
M  V30 54485 N 4981.86 -4.49339 3.05934 0
M  V30 54486 H 4985.66 -2.14891 2.00497 0
M  V30 54487 H 4983.18 -1.11649 1.17933 0
M  V30 54488 H 4985.17 -4.13341 0.543587 0
M  V30 54489 H 4983.83 -3.23944 -0.221403 0
M  V30 54490 H 4984.84 -3.891 3.41791 0
M  V30 54491 H 4981.52 -4.08863 0.844824 0
M  V30 54492 H 4982.91 -4.65333 4.8468 0
M  V30 54493 N 4985.63 -1.09237 -1.13601 0
M  V30 54494 C 4986.86 -0.849134 -1.89221 0
M  V30 54495 C 4987.28 0.593812 -1.78481 0
M  V30 54496 O 4986.64 1.41699 -1.13097 0
M  V30 54497 C 4986.69 -1.28654 -3.36869 0
M  V30 54498 O 4985.79 -0.443774 -4.10005 0
M  V30 54499 H 4985.13 -0.307691 -0.588407 0
M  V30 54500 H 4987.66 -1.456 -1.43743 0
M  V30 54501 H 4987.67 -1.2711 -3.87695 0
M  V30 54502 H 4986.35 -2.33741 -3.44003 0
M  V30 54503 H 4984.92 -0.523371 -3.69209 0
M  V30 54504 N 4987.11 1.30792 -0.879276 0
M  V30 54505 C 4988.07 2.26562 -0.346756 0
M  V30 54506 C 4989.07 1.5258 0.507543 0
M  V30 54507 O 4990.26 1.71319 0.315514 0
M  V30 54508 C 4987.39 3.37116 0.506492 0
M  V30 54509 H 4988.59 2.75179 -1.19233 0
M  V30 54510 H 4986.14 1.41884 -0.655648 0
M  V30 54511 H 4986.88 2.93807 1.37289 0
M  V30 54512 H 4986.66 3.91958 -0.105356 0
M  V30 54513 H 4988.15 4.08415 0.871048 0
M  V30 54514 N 4988.59 0.639649 1.44036 0
M  V30 54515 C 4989.52 -0.0468623 2.33453 0
M  V30 54516 C 4990.5 -0.826037 1.48696 0
M  V30 54517 O 4991.68 -0.790223 1.77395 0
M  V30 54518 C 4988.81 -1.02326 3.31884 0
M  V30 54519 C 4987.77 -0.355134 4.26524 0
M  V30 54520 C 4987.09 -1.44203 5.14888 0
M  V30 54521 C 4988.39 0.74398 5.16974 0
M  V30 54522 H 4990.09 0.699837 2.91106 0
M  V30 54523 H 4987.63 0.337995 1.39977 0
M  V30 54524 H 4989.59 -1.51233 3.93327 0
M  V30 54525 H 4988.31 -1.80095 2.72458 0
M  V30 54526 H 4986.97 0.113368 3.66425 0
M  V30 54527 H 4986.62 -2.21082 4.5181 0
M  V30 54528 H 4986.32 -1.00032 5.79023 0
M  V30 54529 H 4987.84 -1.93274 5.79204 0
M  V30 54530 H 4989.26 0.337645 5.72305 0
M  V30 54531 H 4987.65 1.10934 5.89757 0
M  V30 54532 H 4988.72 1.60761 4.57476 0
M  V30 54533 N 4990.07 -1.52932 0.380717 0
M  V30 54534 C 4991.29 -2.06364 -0.207084 0
M  V30 54535 C 4991.72 -1.25127 -1.40445 0
M  V30 54536 O 4991.07 -0.274125 -1.79216 0
M  V30 54537 C 4991.12 -3.56164 -0.563871 0
M  V30 54538 O 4990.23 -3.77558 -1.65904 0
M  V30 54539 H 4989.57 -0.663468 -0.0265626 0
M  V30 54540 H 4992.1 -1.97188 0.545704 0
M  V30 54541 H 4992.11 -3.99456 -0.830612 0
M  V30 54542 H 4990.78 -4.14731 0.311572 0
M  V30 54543 H 4989.36 -3.46159 -1.38667 0
M  V30 54544 N 4991.54 -0.110296 -1.57214 0
M  V30 54545 C 4992.77 0.556955 -1.98951 0
M  V30 54546 C 4993.18 1.61314 -0.988663 0
M  V30 54547 O 4992.52 1.83679 0.0278513 0
M  V30 54548 C 4992.59 1.24945 -3.37089 0
M  V30 54549 C 4992.25 0.342238 -4.55717 0
M  V30 54550 C 4993.25 -0.415693 -5.18235 0
M  V30 54551 C 4990.93 0.255852 -5.01648 0
M  V30 54552 C 4992.93 -1.24783 -6.25066 0
M  V30 54553 C 4990.61 -0.579926 -6.08342 0
M  V30 54554 C 4991.61 -1.33041 -6.69917 0
M  V30 54555 O 4991.3 -2.15232 -7.74552 0
M  V30 54556 H 4991.03 0.152769 -0.658512 0
M  V30 54557 H 4993.59 -0.190832 -2.04512 0
M  V30 54558 H 4991.82 2.04412 -3.28257 0
M  V30 54559 H 4993.5 1.81274 -3.63173 0
M  V30 54560 H 4994.27 -0.358775 -4.83671 0
M  V30 54561 H 4990.15 0.829672 -4.53473 0
M  V30 54562 H 4993.69 -1.83409 -6.73058 0
M  V30 54563 H 4989.59 -0.63827 -6.42337 0
M  V30 54564 H 4990.36 -2.0808 -7.91609 0
M  V30 54565 N 4993.02 1.5675 0.163455 0
M  V30 54566 C 4994.25 1.86942 0.898198 0
M  V30 54567 C 4994.67 0.697517 1.74689 0
M  V30 54568 O 4994.03 -0.353265 1.77825 0
M  V30 54569 C 4994.08 3.15605 1.7443 0
M  V30 54570 O 4993.18 2.98381 2.84679 0
M  V30 54571 H 4992.52 0.614668 0.251156 0
M  V30 54572 H 4995.05 2.03979 0.159226 0
M  V30 54573 H 4995.06 3.4721 2.14265 0
M  V30 54574 H 4993.74 4.00509 1.12096 0
M  V30 54575 H 4992.31 2.78148 2.4837 0
M  V30 54576 N 4994.5 -0.432272 1.51556 0
M  V30 54577 C 4995.43 -1.53236 1.76185 0
M  V30 54578 C 4996.41 -1.58715 0.611857 0
M  V30 54579 O 4997.6 -1.74361 0.855094 0
M  V30 54580 C 4994.73 -2.91272 1.89151 0
M  V30 54581 C 4993.68 -3.00652 3.04618 0
M  V30 54582 C 4993.01 -4.40717 3.02775 0
M  V30 54583 C 4994.31 -2.74265 4.44495 0
M  V30 54584 H 4996 -1.32877 2.68299 0
M  V30 54585 H 4993.55 -0.637795 1.29105 0
M  V30 54586 H 4995.5 -3.68195 2.04964 0
M  V30 54587 H 4994.22 -3.12874 0.936895 0
M  V30 54588 H 4992.88 -2.26169 2.88519 0
M  V30 54589 H 4992.53 -4.59294 2.05081 0
M  V30 54590 H 4992.23 -4.47922 3.80315 0
M  V30 54591 H 4993.75 -5.19607 3.20687 0
M  V30 54592 H 4995.17 -3.4092 4.60919 0
M  V30 54593 H 4993.56 -2.92874 5.23779 0
M  V30 54594 H 4994.63 -1.6984 4.54183 0
M  V30 54595 N 4995.98 -1.41788 -0.688044 0
M  V30 54596 C 4997.25 -1.32036 -1.44312 0
M  V30 54597 C 4997.63 0.0485337 -2.11044 0
M  V30 54598 O 4996.98 1.06325 -2.02255 0
M  V30 54599 C 4997.19 -2.47915 -2.4564 0
M  V30 54600 C 4998.54 -2.89426 -3.10673 0
M  V30 54601 O 4999.56 -2.47709 -2.55966 0
M  V30 54602 O 4998.42 -3.61588 -4.09776 0
M  V30 54603 H 4995.52 -0.520016 -0.643049 0
M  V30 54604 H 4998.06 -1.53768 -0.717886 0
M  V30 54605 H 4996.84 -3.39229 -1.95036 0
M  V30 54606 H 4996.46 -2.281 -3.25662 0
M  V30 54607 N 4997.46 0.92305 -1.2774 0
M  V30 54608 C 4998.87 1.48622 -1.12998 0
M  V30 54609 C 4999.22 1.94143 0.283371 0
M  V30 54610 O 4998.34 1.81609 1.17674 0
M  V30 54611 C 4998.94 2.7011 -2.04514 0
M  V30 54612 C 4997.5 3.22636 -1.93864 0
M  V30 54613 C 4996.64 1.95361 -1.96798 0
M  V30 54614 H 4999.6 0.736688 -1.40565 0
M  V30 54615 H 4999.62 3.45054 -1.60369 0
M  V30 54616 H 4999.13 2.36948 -3.07372 0
M  V30 54617 H 4997.23 3.60545 -0.940095 0
M  V30 54618 H 4997.34 3.88515 -2.80345 0
M  V30 54619 H 4995.71 2.12056 -1.41083 0
M  V30 54620 H 4996.49 1.64506 -3.01318 0
M  V30 54621 N 4998.93 1.09838 1.1302 0
M  V30 54622 C 5000.21 0.749289 1.80679 0
M  V30 54623 C 5000.59 -0.765102 1.96747 0
M  V30 54624 O 4999.94 -1.68907 1.53892 0
M  V30 54625 C 5000.15 1.49322 3.15443 0
M  V30 54626 C 5001.5 1.66176 3.90731 0
M  V30 54627 O 5002.52 1.45608 3.25079 0
M  V30 54628 O 5001.38 2.00229 5.08498 0
M  V30 54629 H 4998.47 0.269641 0.781807 0
M  V30 54630 H 5001.02 1.20083 1.19909 0
M  V30 54631 H 4999.79 2.52417 2.99 0
M  V30 54632 H 4999.42 1.03413 3.83916 0
M  V30 54633 N 5000.41 -1.30324 0.8862 0
M  V30 54634 C 5001.38 -2.26375 0.358766 0
M  V30 54635 C 5002.38 -1.52847 -0.499444 0
M  V30 54636 O 5003.57 -1.71484 -0.306425 0
M  V30 54637 C 5000.7 -3.3738 -0.488607 0
M  V30 54638 H 5001.89 -2.74543 1.20691 0
M  V30 54639 H 4999.44 -1.41534 0.663163 0
M  V30 54640 H 5000.18 -2.94531 -1.35729 0
M  V30 54641 H 4999.96 -3.91897 0.126141 0
M  V30 54642 H 5001.45 -4.08871 -0.849376 0
M  V30 54643 N 5001.89 -0.647279 -1.43694 0
M  V30 54644 C 5003.12 -0.164156 -2.06749 0
M  V30 54645 C 5003.54 1.15886 -1.48162 0
M  V30 54646 O 5002.9 1.71457 -0.589254 0
M  V30 54647 C 5002.95 -0.0801635 -3.60511 0
M  V30 54648 O 5002.05 0.959312 -4.01087 0
M  V30 54649 H 5001.39 -0.0921519 -0.657574 0
M  V30 54650 H 5003.92 -0.888525 -1.843 0
M  V30 54651 H 5003.93 0.10512 -4.07865 0
M  V30 54652 H 5002.61 -1.046 -4.02532 0
M  V30 54653 H 5001.18 0.747297 -3.65335 0
M  V30 54654 N 5003.37 1.52728 -0.388822 0
M  V30 54655 C 5004.62 2.01175 0.193137 0
M  V30 54656 C 5004.94 1.27711 1.4736 0
M  V30 54657 O 5004.21 0.397033 1.91834 0
M  V30 54658 H 5002.79 0.74329 0.0743609 0
M  V30 54659 H 5005.45 1.87824 -0.520402 0
M  V30 54660 H 5004.55 3.09478 0.403695 0
M  V30 54661 N 5004.85 0.118632 1.57153 0
M  V30 54662 C 5006.26 -0.406806 1.82214 0
M  V30 54663 C 5006.61 -1.66632 1.03577 0
M  V30 54664 O 5005.73 -2.14681 0.272247 0
M  V30 54665 C 5006.33 -0.744833 3.30511 0
M  V30 54666 C 5004.89 -1.21491 3.56254 0
M  V30 54667 C 5004.03 -0.223414 2.76399 0
M  V30 54668 H 5006.99 0.343767 1.54932 0
M  V30 54669 H 5007.01 -1.60228 3.45119 0
M  V30 54670 H 5006.52 0.172047 3.87718 0
M  V30 54671 H 5004.62 -2.1487 3.04404 0
M  V30 54672 H 5004.73 -1.16048 4.64833 0
M  V30 54673 H 5003.1 -0.710374 2.44593 0
M  V30 54674 H 5003.88 0.686557 3.36365 0
M  V30 54675 N 5006.32 -1.56835 -0.15514 0
M  V30 54676 C 5007.26 -1.9424 -1.2167 0
M  V30 54677 C 5008.27 -0.837289 -1.39618 0
M  V30 54678 O 5009.46 -1.11572 -1.39334 0
M  V30 54679 C 5006.56 -2.19412 -2.58286 0
M  V30 54680 C 5005.73 -3.5068 -2.61423 0
M  V30 54681 C 5004.79 -3.64488 -3.79519 0
M  V30 54682 O 5003.82 -4.36958 -3.64769 0
M  V30 54683 N 5005.02 -3.00543 -4.96643 0
M  V30 54684 H 5007.78 -2.85904 -0.898831 0
M  V30 54685 H 5005.34 -1.58186 -0.344775 0
M  V30 54686 H 5007.34 -2.25898 -3.35786 0
M  V30 54687 H 5005.91 -1.34052 -2.82398 0
M  V30 54688 H 5005.13 -3.55707 -1.69899 0
M  V30 54689 H 5006.41 -4.37029 -2.60544 0
M  V30 54690 H 5005.81 -2.41567 -5.11529 0
M  V30 54691 H 5004.37 -3.12603 -5.71947 0
M  V30 54692 N 5007.8 0.424229 -1.51783 0
M  V30 54693 C 5009.05 1.17254 -1.65099 0
M  V30 54694 C 5009.38 1.90879 -0.373544 0
M  V30 54695 O 5008.63 1.84837 0.642932 0
M  V30 54696 C 5008.93 2.20408 -2.81345 0
M  V30 54697 C 5008.6 1.63701 -4.20134 0
M  V30 54698 C 5007.26 1.47959 -4.57888 0
M  V30 54699 C 5009.61 1.22139 -5.06687 0
M  V30 54700 C 5006.94 0.891499 -5.79887 0
M  V30 54701 C 5009.29 0.647546 -6.29277 0
M  V30 54702 C 5007.96 0.477137 -6.65792 0
M  V30 54703 H 5007.23 0.429064 -0.60414 0
M  V30 54704 H 5009.87 0.461787 -1.85849 0
M  V30 54705 H 5008.18 2.97572 -2.54869 0
M  V30 54706 H 5009.87 2.78153 -2.88846 0
M  V30 54707 H 5006.46 1.76932 -3.90375 0
M  V30 54708 H 5010.65 1.33116 -4.78115 0
M  V30 54709 H 5005.9 0.74735 -6.06815 0
M  V30 54710 H 5010.08 0.317047 -6.95678 0
M  V30 54711 H 5007.71 0.0193263 -7.60198 0
M  V30 54712 N 5009.28 1.4215 0.680515 0
M  V30 54713 C 5010.23 1.4164 1.78667 0
M  V30 54714 C 5011.21 0.28855 1.58292 0
M  V30 54715 O 5012.41 0.530355 1.68868 0
M  V30 54716 C 5009.54 1.31569 3.17087 0
M  V30 54717 C 5008.62 2.49277 3.43106 0
M  V30 54718 N 5009.01 3.74714 3.3974 0
M  V30 54719 C 5007.31 2.43414 3.73718 0
M  V30 54720 C 5008.01 4.52867 3.65084 0
M  V30 54721 N 5006.99 3.83195 3.85568 0
M  V30 54722 H 5010.79 2.36526 1.7445 0
M  V30 54723 H 5008.3 1.36418 0.881123 0
M  V30 54724 H 5010.3 1.29286 3.96347 0
M  V30 54725 H 5008.96 0.376809 3.22506 0
M  V30 54726 H 5009.97 4.07389 3.19773 0
M  V30 54727 H 5006.65 1.58076 3.86417 0
M  V30 54728 H 5008.04 5.6184 3.6849 0
M  V30 54729 N 5010.76 -0.916262 1.28228 0
M  V30 54730 C 5011.69 -2.02299 1.07739 0
M  V30 54731 C 5012.7 -1.62773 0.0298993 0
M  V30 54732 O 5013.89 -1.76405 0.272688 0
M  V30 54733 C 5010.99 -3.3328 0.614621 0
M  V30 54734 C 5010.17 -4.01433 1.73696 0
M  V30 54735 C 5009.22 -5.10694 1.26799 0
M  V30 54736 O 5008.25 -5.34031 1.96976 0
M  V30 54737 N 5009.45 -5.80355 0.129828 0
M  V30 54738 H 5012.22 -2.20434 2.03049 0
M  V30 54739 H 5009.78 -1.0874 1.19947 0
M  V30 54740 H 5011.77 -4.03698 0.284539 0
M  V30 54741 H 5010.34 -3.11634 -0.245554 0
M  V30 54742 H 5009.56 -3.24596 2.23676 0
M  V30 54743 H 5010.85 -4.43713 2.48991 0
M  V30 54744 H 5010.25 -5.63862 -0.455648 0
M  V30 54745 H 5008.8 -6.51647 -0.140995 0
M  V30 54746 N 5012.24 -1.10435 -1.12436 0
M  V30 54747 C 5013.2 -0.756618 -2.16351 0
M  V30 54748 C 5014.2 0.218934 -1.59303 0
M  V30 54749 O 5015.39 -0.00422092 -1.74199 0
M  V30 54750 C 5012.52 -0.120732 -3.40686 0
M  V30 54751 H 5013.72 -1.67705 -2.48627 0
M  V30 54752 H 5011.27 -0.904877 -1.27443 0
M  V30 54753 H 5012 0.810426 -3.1401 0
M  V30 54754 H 5011.79 -0.822828 -3.83369 0
M  V30 54755 H 5013.28 0.106798 -4.17463 0
M  V30 54756 N 5013.72 1.29852 -0.893099 0
M  V30 54757 C 5014.68 2.26181 -0.370766 0
M  V30 54758 C 5015.68 1.5311 0.491331 0
M  V30 54759 O 5016.87 1.71644 0.297326 0
M  V30 54760 C 5014 3.37635 0.470708 0
M  V30 54761 H 5015.19 2.73899 -1.22145 0
M  V30 54762 H 5012.75 1.4118 -0.67066 0
M  V30 54763 H 5013.48 2.95246 1.34165 0
M  V30 54764 H 5013.27 3.91825 -0.146922 0
M  V30 54765 H 5014.76 4.09316 0.827681 0
M  V30 54766 N 5015.19 0.65489 1.43349 0
M  V30 54767 C 5016.44 0.168629 2.01395 0
M  V30 54768 C 5016.76 -1.2223 1.51937 0
M  V30 54769 O 5016.03 -1.81682 0.732691 0
M  V30 54770 H 5014.61 0.0593505 0.744639 0
M  V30 54771 H 5017.27 0.846933 1.75536 0
M  V30 54772 H 5016.37 0.154538 3.11717 0
M  V30 54773 N 5016.67 -1.5252 0.396917 0
M  V30 54774 C 5017.58 -2.30404 -0.441699 0
M  V30 54775 C 5018.6 -1.37628 -1.06463 0
M  V30 54776 O 5019.77 -1.707 -1.0688 0
M  V30 54777 C 5016.84 -3.10135 -1.54975 0
M  V30 54778 C 5015.9 -4.18631 -0.951132 0
M  V30 54779 C 5015.13 -4.94551 -2.00638 0
M  V30 54780 O 5015.36 -4.7064 -3.22264 0
M  V30 54781 O 5014.29 -5.79705 -1.61942 0
M  V30 54782 H 5018.12 -3.03086 0.192999 0
M  V30 54783 H 5015.7 -1.48536 0.160433 0
M  V30 54784 H 5017.58 -3.59824 -2.19328 0
M  V30 54785 H 5016.26 -2.40259 -2.16927 0
M  V30 54786 H 5015.16 -3.7312 -0.270642 0
M  V30 54787 H 5016.5 -4.90764 -0.375714 0
M  V30 54788 N 5018.15 -0.126964 -1.57088 0
M  V30 54789 C 5019.43 0.573087 -1.87016 0
M  V30 54790 C 5019.81 1.84294 -1.02952 0
M  V30 54791 O 5019.15 2.28232 -0.110653 0
M  V30 54792 C 5019.36 0.857865 -3.38292 0
M  V30 54793 C 5020.71 1.20744 -4.0707 0
M  V30 54794 O 5021.74 0.947871 -3.43357 0
M  V30 54795 O 5020.6 1.69497 -5.19551 0
M  V30 54796 H 5017.69 0.290055 -0.774466 0
M  V30 54797 H 5020.24 -0.162068 -1.68924 0
M  V30 54798 H 5019.01 -0.0416662 -3.91278 0
M  V30 54799 H 5018.63 1.6479 -3.61842 0
M  V30 54800 N 5019.63 1.56915 0.14682 0
M  V30 54801 C 5020.56 2.01312 1.18303 0
M  V30 54802 C 5021.54 0.892715 1.44792 0
M  V30 54803 O 5022.72 1.16053 1.55709 0
M  V30 54804 C 5019.85 2.39389 2.51616 0
M  V30 54805 C 5018.81 3.54617 2.39648 0
M  V30 54806 C 5018.13 3.78507 3.77673 0
M  V30 54807 C 5019.43 4.87276 1.88041 0
M  V30 54808 H 5021.13 2.88126 0.813862 0
M  V30 54809 H 5018.67 1.38617 0.390051 0
M  V30 54810 H 5020.63 2.69049 3.24331 0
M  V30 54811 H 5019.35 1.49512 2.90368 0
M  V30 54812 H 5018.01 3.25122 1.69384 0
M  V30 54813 H 5017.66 2.85881 4.13861 0
M  V30 54814 H 5017.36 4.56052 3.70527 0
M  V30 54815 H 5018.88 4.10592 4.51936 0
M  V30 54816 H 5020.3 5.15653 2.5055 0
M  V30 54817 H 5018.69 5.68629 1.91785 0
M  V30 54818 H 5019.76 4.77637 0.836109 0
M  V30 54819 N 5021.11 -0.416173 1.52006 0
M  V30 54820 C 5022.04 -1.51358 1.778 0
M  V30 54821 C 5023.02 -1.58057 0.628656 0
M  V30 54822 O 5024.2 -1.73444 0.873539 0
M  V30 54823 C 5021.33 -2.89249 1.9223 0
M  V30 54824 C 5020.29 -2.97404 3.0779 0
M  V30 54825 C 5019.61 -4.37481 3.07432 0
M  V30 54826 C 5020.91 -2.69536 4.47379 0
M  V30 54827 H 5022.61 -1.30023 2.69693 0
M  V30 54828 H 5020.15 -0.624066 1.29774 0
M  V30 54829 H 5022.1 -3.66001 2.08857 0
M  V30 54830 H 5020.83 -3.11862 0.970027 0
M  V30 54831 H 5019.49 -2.23096 2.90901 0
M  V30 54832 H 5019.14 -4.57093 2.09941 0
M  V30 54833 H 5018.84 -4.43863 3.85044 0
M  V30 54834 H 5020.36 -5.16177 3.26181 0
M  V30 54835 H 5021.77 -3.36012 4.64509 0
M  V30 54836 H 5020.17 -2.87302 5.26856 0
M  V30 54837 H 5021.24 -1.65013 4.55959 0
M  V30 54838 N 5022.58 -1.42509 -0.672966 0
M  V30 54839 C 5023.55 -1.45826 -1.76826 0
M  V30 54840 C 5024.55 -0.345597 -1.57042 0
M  V30 54841 O 5025.74 -0.606505 -1.63301 0
M  V30 54842 C 5022.87 -1.29169 -3.15481 0
M  V30 54843 H 5024.06 -2.43351 -1.75272 0
M  V30 54844 H 5021.61 -1.28984 -0.882772 0
M  V30 54845 H 5022.35 -0.32574 -3.2266 0
M  V30 54846 H 5022.13 -2.09809 -3.31244 0
M  V30 54847 H 5023.62 -1.34377 -3.95389 0
M  V30 54848 N 5024.06 0.909449 -1.28712 0
M  V30 54849 C 5025.47 1.47415 -1.14568 0
M  V30 54850 C 5025.82 1.94432 0.262764 0
M  V30 54851 O 5024.95 1.82847 1.15742 0
M  V30 54852 C 5025.54 2.67925 -2.07368 0
M  V30 54853 C 5024.1 3.20561 -1.97275 0
M  V30 54854 C 5023.25 1.93262 -1.98859 0
M  V30 54855 H 5026.2 0.721738 -1.41339 0
M  V30 54856 H 5026.22 3.43334 -1.64019 0
M  V30 54857 H 5025.73 2.33674 -3.09868 0
M  V30 54858 H 5023.83 3.59528 -0.978283 0
M  V30 54859 H 5023.95 3.85519 -2.8445 0
M  V30 54860 H 5022.31 2.10548 -1.43324 0
M  V30 54861 H 5023.09 1.61301 -3.03046 0
M  V30 54862 N 5025.54 1.1103 1.11848 0
M  V30 54863 C 5026.95 0.873261 1.65018 0
M  V30 54864 C 5027.3 -0.595299 1.86951 0
M  V30 54865 O 5026.43 -1.4564 1.60056 0
M  V30 54866 C 5027.02 1.57869 2.99771 0
M  V30 54867 C 5025.58 1.38819 3.49866 0
M  V30 54868 C 5024.73 1.62411 2.24762 0
M  V30 54869 H 5027.68 1.26715 0.955458 0
M  V30 54870 H 5027.7 1.02124 3.66539 0
M  V30 54871 H 5027.21 2.6475 2.83776 0
M  V30 54872 H 5025.31 0.341293 3.71034 0
M  V30 54873 H 5025.43 2.13436 4.28931 0
M  V30 54874 H 5023.79 1.04722 2.32175 0
M  V30 54875 H 5024.57 2.70557 2.11315 0
M  V30 54876 N 5027.02 -1.29376 0.899973 0
M  V30 54877 C 5027.97 -2.25309 0.349244 0
M  V30 54878 C 5028.95 -1.51891 -0.530839 0
M  V30 54879 O 5030.14 -1.73029 -0.372812 0
M  V30 54880 C 5027.27 -3.40697 -0.421936 0
M  V30 54881 C 5026.36 -4.21453 0.473083 0
M  V30 54882 N 5026.75 -4.80475 1.58043 0
M  V30 54883 C 5025.05 -4.45176 0.270924 0
M  V30 54884 C 5025.75 -5.41109 2.13484 0
M  V30 54885 N 5024.73 -5.24513 1.42784 0
M  V30 54886 H 5028.53 -2.68503 1.19514 0
M  V30 54887 H 5026.04 -1.43989 0.751057 0
M  V30 54888 H 5028.04 -4.08489 -0.833226 0
M  V30 54889 H 5026.7 -2.99041 -1.26509 0
M  V30 54890 H 5027.71 -4.7925 1.96316 0
M  V30 54891 H 5024.39 -4.14073 -0.533842 0
M  V30 54892 H 5025.78 -5.97889 3.06558 0
M  V30 54893 N 5028.5 -0.662483 -1.43 0
M  V30 54894 C 5029.77 -0.109164 -1.95295 0
M  V30 54895 C 5030.15 1.37307 -1.60343 0
M  V30 54896 O 5029.5 2.10317 -0.893261 0
M  V30 54897 C 5029.71 -0.365218 -3.47084 0
M  V30 54898 C 5031.06 -0.275113 -4.23708 0
M  V30 54899 O 5032.08 -0.298285 -3.54949 0
M  V30 54900 O 5030.94 -0.206741 -5.46109 0
M  V30 54901 H 5028.04 0.00426816 -0.826989 0
M  V30 54902 H 5030.58 -0.736362 -1.52891 0
M  V30 54903 H 5029.35 -1.3925 -3.65685 0
M  V30 54904 H 5028.98 0.294594 -3.96507 0
M  V30 54905 N 5029.97 1.52307 -0.404999 0
M  V30 54906 C 5031.2 2.06186 0.171746 0
M  V30 54907 C 5031.62 1.27541 1.39207 0
M  V30 54908 O 5030.97 0.326175 1.79562 0
M  V30 54909 C 5031.03 3.57648 0.526291 0
M  V30 54910 O 5030.75 4.33317 -0.64557 0
M  V30 54911 C 5032.25 4.27929 1.15721 0
M  V30 54912 H 5029.47 0.670632 0.0222092 0
M  V30 54913 H 5032.01 1.96257 -0.574761 0
M  V30 54914 H 5030.17 3.67599 1.22269 0
M  V30 54915 H 5030.58 5.23327 -0.350604 0
M  V30 54916 H 5032.05 5.35098 1.35553 0
M  V30 54917 H 5032.53 3.84142 2.12913 0
M  V30 54918 H 5033.14 4.22337 0.501132 0
M  V30 54919 N 5031.45 0.135293 1.57018 0
M  V30 54920 C 5032.68 -0.529272 2.00533 0
M  V30 54921 C 5033.1 -1.58387 1.01465 0
M  V30 54922 O 5032.46 -1.81296 -0.0113349 0
M  V30 54923 C 5032.51 -1.11736 3.42852 0
M  V30 54924 O 5031.61 -2.23255 3.46743 0
M  V30 54925 H 5030.95 -0.130646 0.65102 0
M  V30 54926 H 5033.48 0.228575 2.03319 0
M  V30 54927 H 5033.49 -1.44891 3.81406 0
M  V30 54928 H 5032.17 -0.345001 4.14467 0
M  V30 54929 H 5030.75 -1.91417 3.20022 0
M  V30 54930 N 5032.93 -1.5699 -0.138497 0
M  V30 54931 C 5034.16 -1.87979 -0.864371 0
M  V30 54932 C 5034.57 -0.724434 -1.74348 0
M  V30 54933 O 5033.93 0.305512 -1.79925 0
M  V30 54934 C 5033.98 -3.18282 -1.71403 0
M  V30 54935 O 5033.7 -4.29368 -0.870336 0
M  V30 54936 C 5035.2 -3.62843 -2.54675 0
M  V30 54937 H 5032.42 -0.622887 -0.249506 0
M  V30 54938 H 5034.97 -2.04094 -0.128734 0
M  V30 54939 H 5033.12 -3.03895 -2.40264 0
M  V30 54940 H 5033.54 -5.0393 -1.45449 0
M  V30 54941 H 5035.01 -4.56831 -3.09854 0
M  V30 54942 H 5035.49 -2.88545 -3.31117 0
M  V30 54943 H 5036.09 -3.79953 -1.91091 0
M  V30 54944 N 5034.41 0.408106 -1.52224 0
M  V30 54945 C 5035.69 1.16801 -1.56897 0
M  V30 54946 C 5036.07 2.08168 -0.35061 0
M  V30 54947 O 5035.41 2.18686 0.662459 0
M  V30 54948 C 5035.62 1.94441 -2.89816 0
M  V30 54949 C 5036.97 2.50472 -3.42854 0
M  V30 54950 O 5038 2.0462 -2.91563 0
M  V30 54951 O 5036.85 3.34176 -4.32422 0
M  V30 54952 H 5033.95 0.53336 -0.632026 0
M  V30 54953 H 5036.49 0.414804 -1.64552 0
M  V30 54954 H 5035.27 1.27514 -3.6994 0
M  V30 54955 H 5034.89 2.76765 -2.85459 0
M  V30 54956 N 5035.89 1.42864 0.665399 0
M  V30 54957 C 5036.82 1.49874 1.79054 0
M  V30 54958 C 5037.8 0.354452 1.66366 0
M  V30 54959 O 5038.98 0.570034 1.85645 0
M  V30 54960 C 5036.11 1.40954 3.1741 0
M  V30 54961 C 5035.07 2.53507 3.44845 0
M  V30 54962 C 5034.39 2.29643 4.82875 0
M  V30 54963 C 5035.69 3.95793 3.40801 0
M  V30 54964 H 5037.39 2.44044 1.73445 0
M  V30 54965 H 5034.93 1.17459 0.833029 0
M  V30 54966 H 5036.89 1.44464 3.95864 0
M  V30 54967 H 5035.61 0.43283 3.23719 0
M  V30 54968 H 5034.27 2.49329 2.68757 0
M  V30 54969 H 5033.92 1.30243 4.85845 0
M  V30 54970 H 5033.62 3.05083 5.02193 0
M  V30 54971 H 5035.14 2.34917 5.63601 0
M  V30 54972 H 5036.55 4.01523 4.0921 0
M  V30 54973 H 5034.95 4.71161 3.71655 0
M  V30 54974 H 5036.02 4.21795 2.39201 0
M  V30 54975 N 5037.36 -0.902611 1.29192 0
M  V30 54976 C 5038.59 -1.68635 1.19875 0
M  V30 54977 C 5039.01 -1.87255 -0.241055 0
M  V30 54978 O 5038.36 -1.40749 -1.16172 0
M  V30 54979 C 5038.42 -3.07244 1.90482 0
M  V30 54980 O 5038.14 -2.89476 3.28839 0
M  V30 54981 C 5039.64 -4.01646 1.87604 0
M  V30 54982 H 5036.86 -0.526788 0.415615 0
M  V30 54983 H 5039.4 -1.12895 1.70514 0
M  V30 54984 H 5037.56 -3.59769 1.43685 0
M  V30 54985 H 5037.97 -3.77283 3.64359 0
M  V30 54986 H 5039.44 -4.96331 2.41578 0
M  V30 54987 H 5039.92 -4.30878 0.850907 0
M  V30 54988 H 5040.53 -3.55053 2.34131 0
M  V30 54989 N 5038.84 -1.11622 -1.11258 0
M  V30 54990 C 5039.75 -0.789058 -2.20932 0
M  V30 54991 C 5040.77 0.218609 -1.72621 0
M  V30 54992 O 5041.94 0.0543119 -2.01327 0
M  V30 54993 C 5039.01 -0.239136 -3.45874 0
M  V30 54994 C 5038.07 -1.30565 -4.08964 0
M  V30 54995 C 5037.3 -0.781873 -5.27942 0
M  V30 54996 O 5037.53 0.387405 -5.69083 0
M  V30 54997 O 5036.46 -1.54754 -5.81666 0
M  V30 54998 H 5040.29 -1.70485 -2.51333 0
M  V30 54999 H 5037.87 -0.892245 -1.1983 0
M  V30 55000 H 5039.75 0.063083 -4.21353 0
M  V30 55001 H 5038.43 0.649343 -3.1712 0
M  V30 55002 H 5037.34 -1.66091 -3.35208 0
M  V30 55003 H 5038.67 -2.16758 -4.41901 0
M  V30 55004 N 5040.32 1.28897 -0.906821 0
M  V30 55005 C 5041.57 1.95556 -0.537189 0
M  V30 55006 C 5041.9 1.71265 0.915521 0
M  V30 55007 O 5041.17 1.02966 1.6501 0
M  V30 55008 C 5041.46 3.50195 -0.838768 0
M  V30 55009 C 5041.31 3.83915 -2.3437 0
M  V30 55010 C 5042.63 4.3886 -0.330143 0
M  V30 55011 H 5039.75 0.710282 -0.196642 0
M  V30 55012 H 5042.39 1.52388 -1.1348 0
M  V30 55013 H 5040.54 3.87095 -0.33016 0
M  V30 55014 H 5042.21 3.56922 -2.9224 0
M  V30 55015 H 5040.46 3.31205 -2.80153 0
M  V30 55016 H 5041.13 4.91874 -2.50528 0
M  V30 55017 H 5043.6 4.08993 -0.765753 0
M  V30 55018 H 5042.48 5.45929 -0.570296 0
M  V30 55019 H 5042.74 4.35354 0.769358 0
M  V30 55020 N 5041.8 0.670057 1.42646 0
M  V30 55021 C 5042.73 -0.0612821 2.28118 0
M  V30 55022 C 5043.71 -0.813365 1.40795 0
M  V30 55023 O 5044.89 -0.809469 1.70235 0
M  V30 55024 C 5042.02 -1.09387 3.2055 0
M  V30 55025 C 5041.07 -0.437915 4.24246 0
M  V30 55026 S 5041.9 0.800994 5.29476 0
M  V30 55027 C 5043.06 -0.230641 6.25475 0
M  V30 55028 H 5043.29 0.663707 2.89797 0
M  V30 55029 H 5040.82 0.459442 1.47406 0
M  V30 55030 H 5042.78 -1.68456 3.74343 0
M  V30 55031 H 5041.44 -1.79128 2.58016 0
M  V30 55032 H 5040.63 -1.2169 4.89089 0
M  V30 55033 H 5040.24 0.079066 3.73916 0
M  V30 55034 H 5042.53 -1.0918 6.68645 0
M  V30 55035 H 5043.47 0.383194 7.07062 0
M  V30 55036 H 5043.88 -0.573993 5.61574 0
M  V30 55037 N 5043.28 -1.5209 0.413071 0
M  V30 55038 C 5044.19 -2.3086 -0.417237 0
M  V30 55039 C 5045.2 -1.3875 -1.04998 0
M  V30 55040 O 5046.38 -1.71824 -1.05063 0
M  V30 55041 C 5043.44 -3.11761 -1.51677 0
M  V30 55042 C 5042.51 -4.19616 -0.906677 0
M  V30 55043 C 5041.74 -4.96651 -1.95381 0
M  V30 55044 O 5041.96 -4.74032 -3.17254 0
M  V30 55045 O 5040.9 -5.8139 -1.55784 0
M  V30 55046 H 5044.72 -3.02864 0.225134 0
M  V30 55047 H 5042.31 -1.48358 0.176178 0
M  V30 55048 H 5044.19 -3.6213 -2.155 0
M  V30 55049 H 5042.86 -2.42546 -2.14366 0
M  V30 55050 H 5041.77 -3.73386 -0.231052 0
M  V30 55051 H 5043.1 -4.91135 -0.323641 0
M  V30 55052 N 5044.76 -0.143618 -1.56944 0
M  V30 55053 C 5045.69 0.828278 -2.13711 0
M  V30 55054 C 5046.7 1.21309 -1.08573 0
M  V30 55055 O 5047.89 1.15775 -1.35861 0
M  V30 55056 C 5044.99 2.12239 -2.64212 0
M  V30 55057 C 5044.16 1.90547 -3.93714 0
M  V30 55058 C 5043.22 3.03916 -4.2956 0
M  V30 55059 O 5042.25 2.75754 -4.97944 0
M  V30 55060 N 5043.45 4.31002 -3.88867 0
M  V30 55061 H 5046.21 0.343137 -2.97729 0
M  V30 55062 H 5043.78 0.0400583 -1.6185 0
M  V30 55063 H 5045.77 2.87122 -2.85207 0
M  V30 55064 H 5044.34 2.52026 -1.84936 0
M  V30 55065 H 5043.56 0.997193 -3.81379 0
M  V30 55066 H 5044.85 1.73388 -4.78345 0
M  V30 55067 H 5044.24 4.56751 -3.3376 0
M  V30 55068 H 5042.8 5.02677 -4.14921 0
M  V30 55069 N 5046.23 1.57062 0.130169 0
M  V30 55070 C 5047.48 1.83448 0.838424 0
M  V30 55071 C 5047.8 0.727532 1.81566 0
M  V30 55072 O 5049 0.877484 2.56929 0
M  V30 55073 C 5047.46 3.25207 1.54171 0
M  V30 55074 C 5047.07 4.43882 0.606022 0
M  V30 55075 C 5048.81 3.60852 2.23575 0
M  V30 55076 C 5046.72 5.76666 1.31189 0
M  V30 55077 H 5045.65 0.684196 0.316847 0
M  V30 55078 H 5048.3 1.83274 0.0911414 0
M  V30 55079 H 5046.68 3.19818 2.33522 0
M  V30 55080 H 5047.85 4.60544 -0.15347 0
M  V30 55081 H 5046.17 4.16395 0.0195241 0
M  V30 55082 H 5048.77 4.57323 2.77056 0
M  V30 55083 H 5049.11 2.87734 3.00857 0
M  V30 55084 H 5049.64 3.67976 1.51124 0
M  V30 55085 H 5046.38 6.52924 0.580593 0
M  V30 55086 H 5045.9 5.6391 2.04367 0
M  V30 55087 H 5047.58 6.20041 1.84818 0
M  V30 55088 N 5047.71 -0.400028 1.52439 0
M  V30 55089 C 5048.66 -1.48727 1.72812 0
M  V30 55090 C 5049.65 -1.50002 0.582085 0
M  V30 55091 O 5050.84 -1.55825 0.839503 0
M  V30 55092 C 5047.97 -2.86561 1.89044 0
M  V30 55093 C 5047.05 -2.89899 3.09547 0
M  V30 55094 N 5047.44 -2.62922 4.32095 0
M  V30 55095 C 5045.74 -3.21067 3.09567 0
M  V30 55096 C 5046.44 -2.73061 5.13627 0
M  V30 55097 N 5045.42 -3.06326 4.49072 0
M  V30 55098 H 5049.22 -1.26679 2.65197 0
M  V30 55099 H 5046.73 -0.607849 1.50595 0
M  V30 55100 H 5048.73 -3.64827 2.01759 0
M  V30 55101 H 5047.39 -3.096 0.978656 0
M  V30 55102 H 5048.4 -2.37147 4.60415 0
M  V30 55103 H 5045.08 -3.49643 2.28158 0
M  V30 55104 H 5046.47 -2.55842 6.21285 0
M  V30 55105 N 5049.19 -1.43215 -0.657814 0
M  V30 55106 C 5050.41 -1.48232 -1.45058 0
M  V30 55107 C 5050.84 -0.10006 -1.87834 0
M  V30 55108 O 5050.2 0.905214 -1.57085 0
M  V30 55109 C 5050.25 -2.4294 -2.66481 0
M  V30 55110 O 5049.35 -1.91249 -3.65373 0
M  V30 55111 H 5048.69 -0.501566 -0.435117 0
M  V30 55112 H 5051.22 -1.88083 -0.805365 0
M  V30 55113 H 5051.23 -2.60091 -3.14351 0
M  V30 55114 H 5049.91 -3.43357 -2.34689 0
M  V30 55115 H 5048.48 -1.83738 -3.24492 0
M  V30 55116 N 5050.67 0.895746 -1.29669 0
M  V30 55117 C 5051.9 1.67997 -1.20767 0
M  V30 55118 C 5052.31 1.8738 0.231121 0
M  V30 55119 O 5051.67 1.41363 1.15424 0
M  V30 55120 C 5051.72 3.0623 -1.92108 0
M  V30 55121 O 5051.44 2.87728 -3.30369 0
M  V30 55122 C 5052.94 4.00646 -1.89732 0
M  V30 55123 H 5050.16 0.524576 -0.418403 0
M  V30 55124 H 5052.7 1.11989 -1.7111 0
M  V30 55125 H 5050.86 3.59001 -1.45591 0
M  V30 55126 H 5051.27 3.75346 -3.66355 0
M  V30 55127 H 5052.75 4.95043 -2.44207 0
M  V30 55128 H 5053.22 4.30421 -0.873746 0
M  V30 55129 H 5053.83 3.53806 -2.36011 0
M  V30 55130 N 5052.15 1.1221 1.10665 0
M  V30 55131 C 5053.39 0.875939 1.82575 0
M  V30 55132 C 5053.72 -0.598277 1.8507 0
M  V30 55133 O 5052.98 -1.45814 1.30525 0
M  V30 55134 C 5053.27 1.39288 3.29141 0
M  V30 55135 C 5052.94 2.88172 3.46796 0
M  V30 55136 C 5051.6 3.28825 3.51323 0
M  V30 55137 C 5053.95 3.84023 3.52386 0
M  V30 55138 C 5051.28 4.64041 3.59003 0
M  V30 55139 C 5053.63 5.19066 3.61599 0
M  V30 55140 C 5052.3 5.59265 3.64389 0
M  V30 55141 H 5051.57 0.320529 0.668089 0
M  V30 55142 H 5054.22 1.40188 1.30459 0
M  V30 55143 H 5052.52 0.787342 3.83807 0
M  V30 55144 H 5054.22 1.17865 3.83287 0
M  V30 55145 H 5050.81 2.55729 3.43949 0
M  V30 55146 H 5054.99 3.53711 3.48142 0
M  V30 55147 H 5050.25 4.94581 3.59444 0
M  V30 55148 H 5054.42 5.93165 3.64868 0
M  V30 55149 H 5052.05 6.6403 3.70092 0
M  V30 55150 N 5053.62 -1.28415 0.913644 0
M  V30 55151 C 5055.03 -1.77022 0.593299 0
M  V30 55152 C 5055.39 -1.74782 -0.891379 0
M  V30 55153 O 5054.51 -1.34243 -1.69728 0
M  V30 55154 C 5055.11 -3.21453 1.07022 0
M  V30 55155 C 5053.66 -3.67783 0.800793 0
M  V30 55156 C 5052.81 -2.48181 1.237 0
M  V30 55157 H 5055.76 -1.14879 1.09492 0
M  V30 55158 H 5055.78 -3.78267 0.411614 0
M  V30 55159 H 5055.3 -3.23051 2.15081 0
M  V30 55160 H 5053.4 -3.71645 -0.266594 0
M  V30 55161 H 5053.51 -4.57929 1.40846 0
M  V30 55162 H 5051.87 -2.46114 0.655742 0
M  V30 55163 H 5052.66 -2.52498 2.32594 0
M  V30 55164 N 5055.1 -0.677613 -1.42289 0
M  V30 55165 C 5056.33 -0.207974 -2.06355 0
M  V30 55166 C 5056.75 1.12718 -1.50587 0
M  V30 55167 O 5056.11 1.70168 -0.62549 0
M  V30 55168 C 5056.16 -0.156615 -3.6026 0
M  V30 55169 O 5055.26 0.87402 -4.03032 0
M  V30 55170 H 5054.6 -0.106079 -0.655472 0
M  V30 55171 H 5057.13 -0.927418 -1.82374 0
M  V30 55172 H 5057.14 0.0185823 -4.07996 0
M  V30 55173 H 5055.82 -1.13115 -4.00222 0
M  V30 55174 H 5054.39 0.669636 -3.66838 0
M  V30 55175 N 5056.58 1.51869 -0.421131 0
M  V30 55176 C 5057.82 2.03848 0.150095 0
M  V30 55177 C 5058.18 1.2993 1.41358 0
M  V30 55178 O 5059.39 1.72197 2.06402 0
M  V30 55179 C 5057.66 3.55375 0.379905 0
M  V30 55180 S 5059.22 4.29114 0.91686 0
M  V30 55181 H 5056.03 0.709905 0.039439 0
M  V30 55182 H 5058.64 1.86797 -0.576811 0
M  V30 55183 H 5057.34 4.06748 -0.546265 0
M  V30 55184 H 5056.87 3.76691 1.13435 0
M  V30 55185 H 5058.89 4.44952 2.19619 0
M  V30 55186 N 5058.06 0.151939 1.56866 0
M  V30 55187 C 5059.3 -0.500626 1.98174 0
M  V30 55188 C 5059.66 -1.61712 1.03505 0
M  V30 55189 O 5060.86 -2.33089 1.33877 0
M  V30 55190 C 5059.13 -0.989213 3.43438 0
M  V30 55191 S 5060.69 -1.64568 4.06771 0
M  V30 55192 H 5057.51 -0.161706 0.692367 0
M  V30 55193 H 5060.11 0.244822 1.93961 0
M  V30 55194 H 5058.82 -0.165928 4.10064 0
M  V30 55195 H 5058.35 -1.76916 3.51375 0
M  V30 55196 H 5060.36 -2.93312 4.00228 0
M  V30 55197 N 5059.54 -1.57128 -0.121838 0
M  V30 55198 C 5060.95 -1.73904 -0.679286 0
M  V30 55199 C 5061.3 -0.770198 -1.80451 0
M  V30 55200 O 5060.42 0.0575322 -2.16324 0
M  V30 55201 C 5061.02 -3.15332 -1.23899 0
M  V30 55202 C 5059.58 -3.33624 -1.74276 0
M  V30 55203 C 5058.72 -2.69782 -0.641319 0
M  V30 55204 H 5061.68 -1.58359 0.104055 0
M  V30 55205 H 5061.7 -3.16725 -2.10868 0
M  V30 55206 H 5061.21 -3.85823 -0.419821 0
M  V30 55207 H 5059.31 -2.68171 -2.5868 0
M  V30 55208 H 5059.42 -4.41767 -1.85416 0
M  V30 55209 H 5057.79 -2.30938 -1.07422 0
M  V30 55210 H 5058.57 -3.42894 0.166828 0
M  V30 55211 N 5061.01 0.391938 -1.52649 0
M  V30 55212 C 5061.96 1.49904 -1.77853 0
M  V30 55213 C 5062.96 1.56585 -0.646337 0
M  V30 55214 O 5064.16 1.59786 -0.828754 0
M  V30 55215 H 5060.54 0.498863 -0.562707 0
M  V30 55216 H 5062.51 1.25838 -2.70569 0
M  V30 55217 C 5061.26 2.87074 -1.96173 0
M  V30 55218 H 5060.58 2.82682 -2.82721 0
M  V30 55219 H 5062.02 3.63785 -2.178 0
M  V30 55220 C 5060.48 3.28819 -0.733464 0
M  V30 55221 O 5061.01 4.01598 0.0905069 0
M  V30 55222 N 5059.22 2.85066 -0.564417 0
M  V30 55223 H 5058.76 2.26008 -1.23606 0
M  V30 55224 H 5058.72 3.13356 0.256055 0
M  V30 55225 N 5062.49 1.43562 0.650209 0
M  V30 55226 C 5063.74 1.45554 1.41216 0
M  V30 55227 C 5064.07 0.0806154 1.94033 0
M  V30 55228 O 5063.35 -0.898983 1.72478 0
M  V30 55229 C 5063.63 2.50037 2.5914 0
M  V30 55230 C 5063.48 3.96816 2.11796 0
M  V30 55231 C 5064.8 2.51225 3.6135 0
M  V30 55232 H 5061.92 0.529985 0.512137 0
M  V30 55233 H 5064.56 1.75129 0.736871 0
M  V30 55234 H 5062.71 2.24948 3.1675 0
M  V30 55235 H 5064.38 4.32972 1.59163 0
M  V30 55236 H 5062.63 4.09503 1.43141 0
M  V30 55237 H 5063.3 4.6554 2.96608 0
M  V30 55238 H 5065.77 2.73594 3.13505 0
M  V30 55239 H 5064.65 3.26268 4.41407 0
M  V30 55240 H 5064.91 1.54715 4.14144 0
M  V30 55241 N 5063.97 -0.888857 1.30143 0
M  V30 55242 C 5065.38 -1.45573 1.16898 0
M  V30 55243 C 5065.73 -1.94826 -0.231798 0
M  V30 55244 O 5064.86 -1.84665 -1.12818 0
M  V30 55245 C 5065.45 -2.64592 2.11604 0
M  V30 55246 C 5064.01 -3.17382 2.0235 0
M  V30 55247 C 5063.16 -1.90074 2.01909 0
M  V30 55248 H 5066.11 -0.69916 1.42469 0
M  V30 55249 H 5066.13 -3.40681 1.69461 0
M  V30 55250 H 5065.64 -2.28715 3.13546 0
M  V30 55251 H 5063.74 -3.57926 1.03536 0
M  V30 55252 H 5063.86 -3.80945 2.90547 0
M  V30 55253 H 5062.22 -2.08241 1.46656 0
M  V30 55254 H 5063 -1.5646 3.05574 0
M  V30 55255 N 5065.45 -1.12795 -1.10068 0
M  V30 55256 C 5066.67 -0.908903 -1.86423 0
M  V30 55257 C 5067.1 0.536729 -1.8028 0
M  V30 55258 O 5066.46 1.38029 -1.17548 0
M  V30 55259 C 5066.5 -1.39306 -3.32605 0
M  V30 55260 O 5065.61 -0.57399 -4.08386 0
M  V30 55261 H 5064.95 -0.326255 -0.57832 0
M  V30 55262 H 5067.48 -1.50099 -1.39038 0
M  V30 55263 H 5067.49 -1.39379 -3.83455 0
M  V30 55264 H 5066.16 -2.44567 -3.36393 0
M  V30 55265 H 5064.74 -0.640567 -3.67357 0
M  V30 55266 N 5066.93 1.27928 -0.920441 0
M  V30 55267 C 5068.34 1.47082 -0.619589 0
M  V30 55268 C 5068.54 1.83466 0.833226 0
M  V30 55269 O 5067.6 1.94368 1.61175 0
M  V30 55270 C 5068.91 2.56873 -1.56323 0
M  V30 55271 C 5070.46 2.70738 -1.57067 0
M  V30 55272 C 5070.93 3.83678 -2.5011 0
M  V30 55273 N 5072.43 3.91042 -2.48275 0
M  V30 55274 C 5073.16 4.77831 -3.16962 0
M  V30 55275 N 5072.66 5.69162 -3.95002 0
M  V30 55276 N 5074.45 4.71498 -3.06016 0
M  V30 55277 H 5066.6 1.02594 -1.85979 0
M  V30 55278 H 5068.86 0.511654 -0.798069 0
M  V30 55279 H 5068.57 2.36914 -2.59932 0
M  V30 55280 H 5068.44 3.54112 -1.29941 0
M  V30 55281 H 5070.83 2.90081 -0.541934 0
M  V30 55282 H 5070.91 1.74008 -1.87496 0
M  V30 55283 H 5070.56 3.65089 -3.5309 0
M  V30 55284 H 5070.49 4.7982 -2.16981 0
M  V30 55285 H 5072.98 3.25731 -1.91593 0
M  V30 55286 H 5073.29 6.3223 -4.44416 0
M  V30 55287 H 5071.63 5.68981 -3.99106 0
M  V30 55288 H 5074.83 3.99142 -2.44547 0
M  V30 55289 H 5075 5.38921 -3.59818 0
M  V30 55290 N 5068.4 0.685149 1.41928 0
M  V30 55291 C 5069.82 0.287764 1.84469 0
M  V30 55292 C 5070.17 -1.17209 1.57342 0
M  V30 55293 O 5069.29 -1.89852 1.03851 0
M  V30 55294 C 5069.89 0.515503 3.34855 0
M  V30 55295 C 5068.45 0.172138 3.76006 0
M  V30 55296 C 5067.59 0.802901 2.65422 0
M  V30 55297 H 5070.54 0.886566 1.31627 0
M  V30 55298 H 5070.56 -0.229117 3.7981 0
M  V30 55299 H 5070.08 1.57808 3.54568 0
M  V30 55300 H 5068.18 -0.886589 3.61898 0
M  V30 55301 H 5068.29 0.619884 4.75073 0
M  V30 55302 H 5066.65 0.233356 2.53629 0
M  V30 55303 H 5067.44 1.86914 2.87955 0
M  V30 55304 N 5069.88 -1.51644 0.429179 0
M  V30 55305 C 5070.81 -2.25281 -0.422045 0
M  V30 55306 C 5071.83 -1.2899 -0.993253 0
M  V30 55307 O 5073.02 -1.548 -0.888781 0
M  V30 55308 C 5070.12 -2.98672 -1.60151 0
M  V30 55309 C 5069.29 -4.21994 -1.15063 0
M  V30 55310 C 5068.35 -4.78035 -2.19929 0
M  V30 55311 O 5067.37 -5.4009 -1.79697 0
M  V30 55312 N 5068.58 -4.61354 -3.52324 0
M  V30 55313 H 5071.34 -2.9897 0.209036 0
M  V30 55314 H 5068.9 -1.59837 0.257625 0
M  V30 55315 H 5070.89 -3.33052 -2.2991 0
M  V30 55316 H 5069.46 -2.28044 -2.1381 0
M  V30 55317 H 5068.68 -3.93201 -0.280413 0
M  V30 55318 H 5069.97 -5.0204 -0.826655 0
M  V30 55319 H 5069.37 -4.11908 -3.87748 0
M  V30 55320 H 5067.93 -5.00118 -4.18001 0
M  V30 55321 N 5071.36 -0.160256 -1.56783 0
M  V30 55322 C 5072.32 0.760329 -2.16221 0
M  V30 55323 C 5073.32 1.16592 -1.10739 0
M  V30 55324 O 5074.51 1.08468 -1.3631 0
M  V30 55325 C 5071.65 2.03348 -2.7361 0
M  V30 55326 H 5072.84 0.243068 -2.98913 0
M  V30 55327 H 5070.39 0.089259 -1.56045 0
M  V30 55328 H 5071.13 2.5941 -1.94621 0
M  V30 55329 H 5070.91 1.75174 -3.50794 0
M  V30 55330 H 5072.4 2.6907 -3.19361 0
M  V30 55331 N 5072.84 1.57191 0.113503 0
M  V30 55332 C 5073.77 1.95954 1.1695 0
M  V30 55333 C 5074.75 0.83 1.3982 0
M  V30 55334 O 5075.93 1.08867 1.53884 0
M  V30 55335 C 5073.06 2.26049 2.52229 0
M  V30 55336 C 5072.11 3.4858 2.45753 0
M  V30 55337 S 5072.94 5.00968 1.89185 0
M  V30 55338 C 5074.1 5.34222 3.26126 0
M  V30 55339 H 5074.33 2.85217 0.838968 0
M  V30 55340 H 5071.86 1.51037 0.320476 0
M  V30 55341 H 5073.82 2.44065 3.30064 0
M  V30 55342 H 5072.48 1.3739 2.82459 0
M  V30 55343 H 5071.67 3.6702 3.45416 0
M  V30 55344 H 5071.28 3.29978 1.76041 0
M  V30 55345 H 5073.57 5.2974 4.22353 0
M  V30 55346 H 5074.51 6.35409 3.12507 0
M  V30 55347 H 5074.92 4.61692 3.24808 0
M  V30 55348 O 5074.36 -0.257755 1.5943 0
M  V30 55349 H 5075.05 -0.901822 1.71426 0
M  V30 END ATOM
M  V30 BEGIN BOND
M  V30 END BOND
M  V30 END CTAB
M  END
$$$$
