drugbank_target|P46976 Glycogenin-1 (DB01861; DB03435)
 OpenBabel12092120543D

  0  0  0     0  0            999 V3000
M  V30 BEGIN CTAB
M  V30 COUNTS 5490 5560 0 0 0
M  V30 BEGIN ATOM
M  V30 1 H -0.908 1.98254 -0.117106 0
M  V30 2 N 0 1.576 0 0
M  V30 3 C 0.933 2.03868 1.02534 0
M  V30 4 C 1.911 0.928543 1.3348 0
M  V30 5 O 3.095 1.19667 1.45644 0
M  V30 6 C 0.222 2.43627 2.35294 0
M  V30 7 C -0.732 3.65373 2.2001 0
M  V30 8 S 0.101 5.13292 1.52614 0
M  V30 9 C 1.257 5.56322 2.86805 0
M  V30 10 H 1.49 2.90518 0.631377 0
M  V30 11 H -0.977 1.52953 0.210867 0
M  V30 12 H 0.981 2.67203 3.11629 0
M  V30 13 H -0.358 1.57376 2.7183 0
M  V30 14 H -1.165 3.90944 3.18086 0
M  V30 15 H -1.563 3.418 1.51819 0
M  V30 16 H 0.729 5.58782 3.83104 0
M  V30 17 H 1.672 6.56266 2.65933 0
M  V30 18 H 2.08 4.83886 2.90714 0
M  V30 19 N 1.4781 -0.272755 1.55222 0
M  V30 20 C 2.7061 -1.02255 1.79865 0
M  V30 21 C 3.1211 -1.79924 0.572088 0
M  V30 22 O 2.4781 -1.76638 -0.458842 0
M  V30 23 C 2.5291 -1.98094 3.02392 0
M  V30 24 O 2.2501 -1.23572 4.20311 0
M  V30 25 C 3.7511 -2.84884 3.39641 0
M  V30 26 H 0.9711 -0.302057 0.599168 0
M  V30 27 H 3.5151 -0.303465 2.02236 0
M  V30 28 H 1.6701 -2.65465 2.82147 0
M  V30 29 H 2.0841 -1.88172 4.89583 0
M  V30 30 H 3.5581 -3.47927 4.28545 0
M  V30 31 H 4.0351 -3.54665 2.59055 0
M  V30 32 H 4.6411 -2.23003 3.62146 0
M  V30 33 N 2.9562 -1.48159 -0.537278 0
M  V30 34 C 4.2332 -1.46291 -1.29839 0
M  V30 35 C 4.6132 -0.170613 -2.10409 0
M  V30 36 O 3.9612 0.847746 -2.12192 0
M  V30 37 C 4.1712 -2.72055 -2.18603 0
M  V30 38 C 5.5192 -3.20087 -2.7898 0
M  V30 39 O 6.5432 -2.72921 -2.28894 0
M  V30 40 O 5.4022 -4.02138 -3.70064 0
M  V30 41 H 2.4962 -0.583906 -0.585647 0
M  V30 42 H 5.0422 -1.60384 -0.554534 0
M  V30 43 H 3.8142 -3.57628 -1.58801 0
M  V30 44 H 3.4372 -2.60646 -3.00249 0
M  V30 45 N 4.4343 0.785586 -1.36625 0
M  V30 46 C 5.3663 1.90711 -1.2713 0
M  V30 47 C 6.3793 1.61688 -0.189986 0
M  V30 48 O 7.5683 1.72864 -0.445014 0
M  V30 49 C 4.6683 3.25611 -0.939713 0
M  V30 50 C 3.8413 3.82385 -2.12369 0
M  V30 51 C 2.9003 4.95732 -1.76456 0
M  V30 52 O 1.9263 5.12047 -2.48589 0
M  V30 53 N 3.1283 5.76258 -0.700492 0
M  V30 54 H 5.8933 1.99376 -2.23762 0
M  V30 55 H 3.4543 0.964041 -1.30069 0
M  V30 56 H 5.4463 3.98937 -0.680554 0
M  V30 57 H 4.0163 3.12538 -0.0624074 0
M  V30 58 H 3.2363 3.01001 -2.54543 0
M  V30 59 H 4.5243 4.17047 -2.9146 0
M  V30 60 H 3.9223 5.65609 -0.101624 0
M  V30 61 H 2.4793 6.4987 -0.501165 0
M  V30 62 N 5.9124 1.20967 1.01018 0
M  V30 63 C 6.8754 0.965918 2.07853 0
M  V30 64 C 7.8754 -0.0610545 1.60684 0
M  V30 65 O 9.0654 0.175681 1.73312 0
M  V30 66 C 6.1974 0.455513 3.37843 0
M  V30 67 H 7.3904 1.91365 2.3091 0
M  V30 68 H 4.9434 1.02594 1.17916 0
M  V30 69 H 5.6784 -0.497381 3.20463 0
M  V30 70 H 5.4634 1.19622 3.73407 0
M  V30 71 H 6.9534 0.304667 4.16487 0
M  V30 72 N 7.3905 -1.2043 1.01659 0
M  V30 73 C 8.6375 -1.89797 0.705917 0
M  V30 74 C 8.9655 -1.78848 -0.764439 0
M  V30 75 O 8.2205 -1.16694 -1.57102 0
M  V30 76 C 8.5195 -3.40464 1.08714 0
M  V30 77 C 8.1855 -3.71614 2.5537 0
M  V30 78 C 6.8475 -3.79826 2.95441 0
M  V30 79 C 9.1995 -3.85915 3.50313 0
M  V30 80 C 6.5275 -3.99797 4.29394 0
M  V30 81 C 8.8795 -4.07396 4.83954 0
M  V30 82 C 7.5435 -4.13837 5.23732 0
M  V30 83 H 6.8135 -0.694518 0.258313 0
M  V30 84 H 9.4605 -1.42691 1.27717 0
M  V30 85 H 7.7655 -3.89385 0.434309 0
M  V30 86 H 9.4625 -3.92433 0.824461 0
M  V30 87 H 6.0525 -3.65822 2.23321 0
M  V30 88 H 10.2365 -3.78926 3.20513 0
M  V30 89 H 5.4925 -4.03018 4.59768 0
M  V30 90 H 9.6665 -4.17404 5.57447 0
M  V30 91 H 7.2935 -4.29064 6.27541 0
M  V30 92 N 8.8686 -0.792821 -1.36206 0
M  V30 93 C 10.1146 -0.36733 -1.99446 0
M  V30 94 C 10.4476 1.05917 -1.62774 0
M  V30 95 O 9.7226 1.7324 -0.88421 0
M  V30 96 C 10.0056 -0.535044 -3.56103 0
M  V30 97 C 9.8586 -2.00548 -4.02617 0
M  V30 98 C 11.1776 0.0478191 -4.40074 0
M  V30 99 H 8.2966 -0.134941 -0.724541 0
M  V30 100 H 10.9386 -0.999794 -1.61568 0
M  V30 101 H 9.0886 0.00336329 -3.885 0
M  V30 102 H 10.7606 -2.60521 -3.80692 0
M  V30 103 H 9.0036 -2.50686 -3.54032 0
M  V30 104 H 9.6746 -2.07377 -5.11565 0
M  V30 105 H 12.1506 -0.411822 -4.14057 0
M  V30 106 H 11.0266 -0.0995336 -5.4881 0
M  V30 107 H 11.2876 1.14025 -4.27142 0
M  V30 108 N 10.3467 1.47872 -0.545128 0
M  V30 109 C 11.5747 2.06889 -0.021084 0
M  V30 110 C 11.9897 1.39955 1.2672 0
M  V30 111 O 11.3467 0.492036 1.75742 0
M  V30 112 C 11.3977 3.60996 0.190817 0
M  V30 113 O 11.1187 4.25419 -1.04644 0
M  V30 114 C 12.6197 4.36849 0.753521 0
M  V30 115 H 9.8397 0.669785 -0.0403635 0
M  V30 116 H 12.3837 1.90049 -0.755095 0
M  V30 117 H 10.5387 3.77391 0.87492 0
M  V30 118 H 10.9527 5.17785 -0.836611 0
M  V30 119 H 12.4267 5.45399 0.851139 0
M  V30 120 H 12.9037 4.02306 1.762 0
M  V30 121 H 13.5097 4.25169 0.105503 0
M  V30 122 N 11.8248 0.280983 1.55075 0
M  V30 123 C 12.7548 -0.597469 2.25727 0
M  V30 124 C 13.7358 -1.15417 1.24952 0
M  V30 125 O 14.9208 -1.18722 1.53684 0
M  V30 126 C 12.0508 -1.7789 2.98283 0
M  V30 127 C 11.0048 -1.35347 4.06036 0
M  V30 128 C 10.3308 -2.61846 4.66198 0
M  V30 129 C 11.6308 -0.499354 5.19907 0
M  V30 130 H 13.3248 -0.00824265 2.99399 0
M  V30 131 H 10.8708 -0.0025244 1.44 0
M  V30 132 H 12.8238 -2.39937 3.46422 0
M  V30 133 H 11.5478 -2.39405 2.22155 0
M  V30 134 H 10.2068 -0.756156 3.58717 0
M  V30 135 H 9.8548 -3.21632 3.86732 0
M  V30 136 H 9.5548 -2.3409 5.38958 0
M  V30 137 H 11.0788 -3.24732 5.1709 0
M  V30 138 H 12.4928 -1.02498 5.64063 0
M  V30 139 H 10.8898 -0.316424 5.99265 0
M  V30 140 H 11.9598 0.480459 4.82514 0
M  V30 141 N 13.3029 -1.57598 0.00835791 0
M  V30 142 C 14.5309 -1.95214 -0.68549 0
M  V30 143 C 14.9459 -0.883706 -1.66841 0
M  V30 144 O 14.3029 0.136565 -1.81988 0
M  V30 145 C 14.3539 -3.32865 -1.41007 0
M  V30 146 O 14.0749 -4.35609 -0.466552 0
M  V30 147 C 15.5759 -3.84991 -2.19765 0
M  V30 148 H 12.7959 -0.643422 -0.190392 0
M  V30 149 H 15.3399 -2.04406 0.0619607 0
M  V30 150 H 13.4949 -3.24956 -2.10908 0
M  V30 151 H 13.9089 -5.15288 -0.978699 0
M  V30 152 H 15.3829 -4.8371 -2.65948 0
M  V30 153 H 15.8599 -3.18137 -3.02796 0
M  V30 154 H 16.4659 -3.96103 -1.54864 0
M  V30 155 N 14.781 0.264519 -1.55364 0
M  V30 156 C 16.009 1.013 -1.80405 0
M  V30 157 C 16.424 1.79618 -0.581622 0
M  V30 158 O 15.781 1.76879 0.449468 0
M  V30 159 C 15.832 1.96487 -3.03439 0
M  V30 160 O 15.553 1.21341 -4.20961 0
M  V30 161 C 17.054 2.83079 -3.41147 0
M  V30 162 H 14.274 0.298875 -0.600762 0
M  V30 163 H 16.818 0.292736 -2.02394 0
M  V30 164 H 14.973 2.63965 -2.83551 0
M  V30 165 H 15.387 1.85573 -4.90574 0
M  V30 166 H 16.861 3.4565 -4.30384 0
M  V30 167 H 17.338 3.53286 -2.60932 0
M  V30 168 H 17.944 2.2108 -3.63323 0
M  V30 169 N 16.2591 1.48442 0.529413 0
M  V30 170 C 17.2071 1.63452 1.65487 0
M  V30 171 C 18.2011 0.500955 1.61823 0
M  V30 172 O 19.4071 0.679695 1.66674 0
M  V30 173 H 15.7821 0.514905 0.548066 0
M  V30 174 H 17.7531 2.57975 1.49971 0
M  V30 175 C 16.5021 1.69196 3.03756 0
M  V30 176 H 15.8251 2.55784 3.07269 0
M  V30 177 H 17.2651 1.83743 3.82119 0
M  V30 178 C 15.7241 0.430765 3.34135 0
M  V30 179 O 16.2541 -0.4561 3.99102 0
M  V30 180 N 14.4601 0.302293 2.89023 0
M  V30 181 H 14.0071 1.02496 2.36331 0
M  V30 182 H 13.9651 -0.540546 3.09718 0
M  V30 183 N 17.7372 -0.778329 1.37039 0
M  V30 184 C 19.0142 -1.52551 1.22424 0
M  V30 185 C 19.3942 -2.10288 -0.184964 0
M  V30 186 O 18.7422 -1.94953 -1.19187 0
M  V30 187 C 18.9522 -2.61164 2.31504 0
M  V30 188 C 20.3002 -3.28746 2.68721 0
M  V30 189 O 21.3242 -2.71455 2.30631 0
M  V30 190 O 20.1832 -4.3231 3.3432 0
M  V30 191 H 17.2772 -0.675343 0.477326 0
M  V30 192 H 19.8232 -0.815859 1.48801 0
M  V30 193 H 18.5952 -2.16574 3.25901 0
M  V30 194 H 18.2182 -3.39737 2.06554 0
M  V30 195 N 19.2153 -1.21501 -1.00376 0
M  V30 196 C 20.1783 -0.976927 -2.07337 0
M  V30 197 C 21.1783 0.0525322 -1.60714 0
M  V30 198 O 22.3683 -0.184869 -1.73216 0
M  V30 199 C 19.5003 -0.473423 -3.37597 0
M  V30 200 H 20.6933 -1.92587 -2.29892 0
M  V30 201 H 18.2463 -1.03217 -1.17371 0
M  V30 202 H 18.9813 0.480379 -3.20722 0
M  V30 203 H 18.7663 -1.216 -3.72768 0
M  V30 204 H 20.2563 -0.32675 -4.1632 0
M  V30 205 N 20.6934 1.19889 -1.02296 0
M  V30 206 C 21.9234 1.93109 -0.734332 0
M  V30 207 C 22.3314 1.75377 0.709889 0
M  V30 208 O 21.6744 1.06912 1.49384 0
M  V30 209 C 21.7364 3.45362 -0.99827 0
M  V30 210 C 21.4004 3.8686 -2.43287 0
M  V30 211 C 22.3974 3.92102 -3.41397 0
M  V30 212 C 20.0824 4.18668 -2.77529 0
M  V30 213 C 22.0764 4.28573 -4.71809 0
M  V30 214 C 19.7634 4.54813 -4.08153 0
M  V30 215 C 20.7614 4.59739 -5.05103 0
M  V30 216 O 20.4494 4.95051 -6.33388 0
M  V30 217 H 20.1814 0.620409 -0.268456 0
M  V30 218 H 22.7354 1.53144 -1.3688 0
M  V30 219 H 20.9654 3.85482 -0.306645 0
M  V30 220 H 22.6544 3.99814 -0.700234 0
M  V30 221 H 23.4204 3.67685 -3.1628 0
M  V30 222 H 19.2994 4.14021 -2.0275 0
M  V30 223 H 22.8434 4.32333 -5.4748 0
M  V30 224 H 18.7404 4.78687 -4.33047 0
M  V30 225 H 19.5084 5.1302 -6.37772 0
M  V30 226 N 22.1715 0.800033 1.35784 0
M  V30 227 C 23.1345 0.211565 2.28221 0
M  V30 228 C 24.1345 -0.59728 1.49296 0
M  V30 229 O 25.3245 -0.416721 1.69142 0
M  V30 230 C 22.4565 -0.705846 3.33513 0
M  V30 231 H 23.6495 1.02677 2.81776 0
M  V30 232 H 21.2025 0.570211 1.45528 0
M  V30 233 H 21.9375 -1.54498 2.85133 0
M  V30 234 H 21.7225 -0.127655 3.91892 0
M  V30 235 H 23.2125 -1.11211 4.02519 0
M  V30 236 N 23.6496 -1.47581 0.552962 0
M  V30 237 C 24.5966 -2.29957 -0.197108 0
M  V30 238 C 25.5666 -1.38799 -0.912359 0
M  V30 239 O 26.7516 -1.67761 -0.908888 0
M  V30 240 C 23.8916 -3.22672 -1.22379 0
M  V30 241 C 23.0046 -4.28919 -0.515038 0
M  V30 242 C 22.1396 -5.0879 -1.52664 0
M  V30 243 C 21.1786 -6.06815 -0.802631 0
M  V30 244 N 20.3156 -6.7966 -1.76086 0
M  V30 245 H 25.1556 -2.93578 0.511486 0
M  V30 246 H 22.6926 -1.4471 0.264067 0
M  V30 247 H 24.6506 -3.74845 -1.83159 0
M  V30 248 H 23.2806 -2.60925 -1.90047 0
M  V30 249 H 22.3326 -3.79835 0.207192 0
M  V30 250 H 23.6446 -4.98773 0.0523425 0
M  V30 251 H 22.7986 -5.65091 -2.20809 0
M  V30 252 H 21.5376 -4.38828 -2.12794 0
M  V30 253 H 20.5426 -5.49695 -0.107238 0
M  V30 254 H 21.7676 -6.78784 -0.207135 0
M  V30 255 H 19.7136 -6.12432 -2.35081 0
M  V30 256 H 19.6306 -7.45669 -1.24552 0
M  V30 257 H 20.8986 -7.40538 -2.43359 0
M  V30 258 N 25.1277 -0.289203 -1.54924 0
M  V30 259 C 26.3757 0.322879 -1.99504 0
M  V30 260 C 26.6967 1.55313 -1.1791 0
M  V30 261 O 25.9667 1.94001 -0.272097 0
M  V30 262 H 24.5467 0.122291 -0.736922 0
M  V30 263 H 27.2087 -0.397802 -1.90797 0
M  V30 264 H 26.3047 0.603061 -3.06218 0
M  V30 265 N 26.6058 1.57591 -0.0167156 0
M  V30 266 C 27.5688 2.08393 0.954204 0
M  V30 267 C 28.5688 0.996531 1.26198 0
M  V30 268 O 29.7588 1.25858 1.20438 0
M  V30 269 C 26.8908 2.5394 2.27436 0
M  V30 270 H 28.0838 2.95455 0.514451 0
M  V30 271 H 25.6368 1.54582 0.231089 0
M  V30 272 H 26.3718 1.70171 2.76066 0
M  V30 273 H 26.1568 3.33371 2.06412 0
M  V30 274 H 27.6468 2.93512 2.97053 0
M  V30 275 N 28.0839 -0.256276 1.55502 0
M  V30 276 C 29.0139 -1.32102 1.92539 0
M  V30 277 C 29.9949 -1.50684 0.789194 0
M  V30 278 O 31.1799 -1.63449 1.04872 0
M  V30 279 C 28.3099 -2.67752 2.21192 0
M  V30 280 C 27.2639 -2.63878 3.36975 0
M  V30 281 C 26.5899 -4.03236 3.51147 0
M  V30 282 C 27.8899 -2.21682 4.72921 0
M  V30 283 H 29.5839 -1.01351 2.81724 0
M  V30 284 H 27.1299 -0.486105 1.35547 0
M  V30 285 H 29.0829 -3.42365 2.45691 0
M  V30 286 H 27.8069 -3.0012 1.28824 0
M  V30 287 H 26.4659 -1.91722 3.12471 0
M  V30 288 H 26.1139 -4.32854 2.56216 0
M  V30 289 H 25.8139 -4.01535 4.29003 0
M  V30 290 H 27.3379 -4.79563 3.77957 0
M  V30 291 H 28.7519 -2.86023 4.96854 0
M  V30 292 H 27.1489 -2.3111 5.53812 0
M  V30 293 H 28.2189 -1.16833 4.70615 0
M  V30 294 N 29.562 -1.4872 -0.521534 0
M  V30 295 C 30.808 -1.574 -1.27879 0
M  V30 296 C 31.141 -0.250817 -1.92573 0
M  V30 297 O 30.416 0.743934 -1.79711 0
M  V30 298 C 30.699 -2.71843 -2.36164 0
M  V30 299 C 30.552 -4.13893 -1.76105 0
M  V30 300 C 31.871 -2.82008 -3.37875 0
M  V30 301 H 28.99 -0.572941 -0.463581 0
M  V30 302 H 31.632 -1.80927 -0.580119 0
M  V30 303 H 29.782 -2.51914 -2.95756 0
M  V30 304 H 31.454 -4.45284 -1.20499 0
M  V30 305 H 29.697 -4.20498 -1.06601 0
M  V30 306 H 30.368 -4.89804 -2.5455 0
M  V30 307 H 32.844 -3.00086 -2.88249 0
M  V30 308 H 31.72 -3.63796 -4.11028 0
M  V30 309 H 31.981 -1.90511 -3.98946 0
M  V30 310 N 31.0401 0.771051 -1.3745 0
M  V30 311 C 31.9701 1.89827 -1.3597 0
M  V30 312 C 32.9511 1.68562 -0.228216 0
M  V30 313 O 34.1361 1.8941 -0.428675 0
M  V30 314 C 31.2661 3.2712 -1.16662 0
M  V30 315 C 30.2201 3.6295 -2.2683 0
M  V30 316 C 29.5461 4.98791 -1.92644 0
M  V30 317 C 30.8461 3.69627 -3.69017 0
M  V30 318 H 32.5401 1.91323 -2.30295 0
M  V30 319 H 30.0861 0.919082 -1.10855 0
M  V30 320 H 32.0391 4.05615 -1.14256 0
M  V30 321 H 30.7631 3.26059 -0.187926 0
M  V30 322 H 29.4221 2.86763 -2.28392 0
M  V30 323 H 29.0701 4.94271 -0.933021 0
M  V30 324 H 28.7701 5.23733 -2.66416 0
M  V30 325 H 30.2941 5.79685 -1.91826 0
M  V30 326 H 31.7081 4.38273 -3.69581 0
M  V30 327 H 30.1051 4.06067 -4.41848 0
M  V30 328 H 31.1751 2.70273 -4.02592 0
M  V30 329 N 32.5182 1.22032 0.997298 0
M  V30 330 C 33.7662 1.04016 1.73278 0
M  V30 331 C 34.0872 -0.426255 1.90284 0
M  V30 332 O 33.3572 -1.30694 1.45931 0
M  V30 333 H 31.9372 0.381897 0.642 0
M  V30 334 H 34.5992 1.5347 1.20137 0
M  V30 335 H 33.6952 1.51441 2.72896 0
M  V30 336 N 33.9963 -1.19345 1.0293 0
M  V30 337 C 35.2213 -1.93538 0.745511 0
M  V30 338 C 35.6463 -1.75007 -0.689511 0
M  V30 339 O 35.0043 -1.05265 -1.47611 0
M  V30 340 C 35.0523 -3.43336 1.10239 0
M  V30 341 O 34.1563 -4.11806 0.221289 0
M  V30 342 H 33.4973 -0.604193 0.275404 0
M  V30 343 H 36.0273 -1.5141 1.37609 0
M  V30 344 H 36.0373 -3.94004 1.05947 0
M  V30 345 H 34.7123 -3.56146 2.14786 0
M  V30 346 H 33.2893 -3.715 0.322842 0
M  V30 347 N 35.4744 -0.807222 -1.35358 0
M  V30 348 C 36.6994 -0.399309 -2.0352 0
M  V30 349 C 37.1244 0.981986 -1.60433 0
M  V30 350 O 36.4824 1.63601 -0.781299 0
M  V30 351 C 36.5304 -0.491552 -3.57234 0
M  V30 352 O 35.6344 0.494754 -4.09421 0
M  V30 353 H 34.9754 -0.166682 -0.642739 0
M  V30 354 H 37.5054 -1.09328 -1.72941 0
M  V30 355 H 37.5154 -0.361588 -4.06395 0
M  V30 356 H 36.1904 -1.49907 -3.87944 0
M  V30 357 H 34.7674 0.324977 -3.71481 0
M  V30 358 N 36.9525 1.47285 -0.560781 0
M  V30 359 C 37.8825 2.32857 0.173105 0
M  V30 360 C 38.8635 1.44009 0.905281 0
M  V30 361 O 40.0485 1.7286 0.885046 0
M  V30 362 C 37.1785 3.25861 1.20133 0
M  V30 363 C 36.1325 4.23978 0.585388 0
M  V30 364 C 35.4585 5.06332 1.7185 0
M  V30 365 C 36.7585 5.20242 -0.463178 0
M  V30 366 H 38.4525 2.94466 -0.541307 0
M  V30 367 H 35.9985 1.41601 -0.261764 0
M  V30 368 H 37.9515 3.84569 1.72293 0
M  V30 369 H 36.6755 2.62315 1.94573 0
M  V30 370 H 35.3345 3.66501 0.085054 0
M  V30 371 H 34.9825 4.39186 2.45203 0
M  V30 372 H 34.6825 5.72762 1.31213 0
M  V30 373 H 36.2065 5.67899 2.24329 0
M  V30 374 H 37.6205 5.73293 -0.027502 0
M  V30 375 H 36.0175 5.94896 -0.788627 0
M  V30 376 H 37.0875 4.65504 -1.35773 0
M  V30 377 N 38.4306 0.297415 1.54768 0
M  V30 378 C 39.3776 -0.580276 2.23386 0
M  V30 379 C 40.3476 -1.13238 1.21517 0
M  V30 380 O 41.5326 -1.17757 1.50126 0
M  V30 381 C 38.6726 -1.74801 2.97555 0
M  V30 382 C 37.7856 -1.22764 4.1419 0
M  V30 383 C 36.9206 -2.35895 4.75949 0
M  V30 384 C 35.9596 -1.80974 5.84735 0
M  V30 385 N 35.0966 -2.87664 6.40464 0
M  V30 386 H 39.9366 0.0114833 2.97998 0
M  V30 387 H 37.4736 0.0174361 1.4709 0
M  V30 388 H 39.4316 -2.43475 3.38786 0
M  V30 389 H 38.0616 -2.31145 2.25326 0
M  V30 390 H 37.1136 -0.433271 3.77924 0
M  V30 391 H 38.4256 -0.785551 4.92575 0
M  V30 392 H 37.5796 -3.12523 5.20014 0
M  V30 393 H 36.3186 -2.83429 3.96887 0
M  V30 394 H 35.3236 -1.02834 5.40097 0
M  V30 395 H 36.5486 -1.34348 6.65678 0
M  V30 396 H 34.4946 -3.34538 5.64287 0
M  V30 397 H 34.4116 -2.4794 7.14186 0
M  V30 398 H 35.6796 -3.642 6.89187 0
M  V30 399 N 39.9087 -1.5758 0.0250728 0
M  V30 400 C 40.8407 -2.06869 -0.986796 0
M  V30 401 C 41.8537 -0.991332 -1.29137 0
M  V30 402 O 43.0427 -1.26761 -1.25674 0
M  V30 403 C 40.1427 -2.47486 -2.31525 0
M  V30 404 C 39.3157 -3.78253 -2.19643 0
M  V30 405 C 38.3747 -4.05464 -3.35388 0
M  V30 406 O 37.4007 -4.75774 -3.12454 0
M  V30 407 N 38.6027 -3.55321 -4.59051 0
M  V30 408 H 41.3677 -2.94302 -0.566276 0
M  V30 409 H 38.9287 -1.6109 -0.161776 0
M  V30 410 H 40.9207 -2.62785 -3.07776 0
M  V30 411 H 39.4907 -1.65441 -2.65232 0
M  V30 412 H 38.7107 -3.7279 -1.28144 0
M  V30 413 H 39.9987 -4.63936 -2.08903 0
M  V30 414 H 39.3967 -2.98431 -4.80578 0
M  V30 415 H 37.9537 -3.75905 -5.32483 0
M  V30 416 N 41.3868 0.248026 -1.55636 0
M  V30 417 C 42.3368 1.30994 -1.86614 0
M  V30 418 C 43.3208 1.43543 -0.726918 0
M  V30 419 O 44.5128 1.46804 -0.988818 0
M  V30 420 C 41.6418 2.6656 -2.16335 0
M  V30 421 C 40.7278 2.58019 -3.36581 0
M  V30 422 N 41.1188 2.1911 -4.55878 0
M  V30 423 C 39.4168 2.89035 -3.39669 0
M  V30 424 C 40.1178 2.21174 -5.38012 0
M  V30 425 N 39.0938 2.60632 -4.77045 0
M  V30 426 H 42.8958 0.999583 -2.76379 0
M  V30 427 H 40.4098 0.456652 -1.55848 0
M  V30 428 H 42.4068 3.43194 -2.36692 0
M  V30 429 H 41.0668 2.98463 -1.27867 0
M  V30 430 H 42.0778 1.90672 -4.81523 0
M  V30 431 H 38.7548 3.25485 -2.61469 0
M  V30 432 H 40.1448 1.9344 -6.43452 0
M  V30 433 N 42.8649 1.48995 0.513639 0
M  V30 434 C 44.2809 1.35478 0.843682 0
M  V30 435 C 44.4809 0.378213 1.97919 0
M  V30 436 O 43.5369 -0.194689 2.51748 0
M  V30 437 C 44.8499 2.75901 1.1958 0
M  V30 438 C 46.3979 2.84509 1.30474 0
M  V30 439 C 46.8729 4.25671 1.69021 0
M  V30 440 N 48.3639 4.28422 1.76094 0
M  V30 441 C 49.0989 5.34601 2.07338 0
M  V30 442 N 48.5949 6.5104 2.36894 0
M  V30 443 N 50.3879 5.22007 2.08483 0
M  V30 444 H 42.5389 2.11092 -0.235328 0
M  V30 445 H 44.8019 0.947039 -0.0426669 0
M  V30 446 H 44.5079 3.49001 0.434913 0
M  V30 447 H 44.3819 3.10467 2.1422 0
M  V30 448 H 46.7689 2.11655 2.05637 0
M  V30 449 H 46.8499 2.53542 0.339155 0
M  V30 450 H 46.4939 4.99048 0.944135 0
M  V30 451 H 46.4239 4.54094 2.66658 0
M  V30 452 H 48.9149 3.44441 1.55464 0
M  V30 453 H 49.2279 7.2779 2.59887 0
M  V30 454 H 47.5729 6.54287 2.34378 0
M  V30 455 H 50.7639 4.30051 1.84861 0
M  V30 456 H 50.9369 6.04854 2.325 0
M  V30 457 N 44.343 -0.763751 1.37857 0
M  V30 458 C 45.571 -1.55293 1.36718 0
M  V30 459 C 45.986 -1.88745 -0.0455434 0
M  V30 460 O 45.343 -1.52039 -1.00947 0
M  V30 461 C 45.394 -2.85831 2.2132 0
M  V30 462 O 45.115 -2.5381 3.57089 0
M  V30 463 C 46.616 -3.80023 2.28249 0
M  V30 464 H 43.836 -0.480841 0.468009 0
M  V30 465 H 46.38 -0.946009 1.81303 0
M  V30 466 H 44.535 -3.42926 1.80223 0
M  V30 467 H 44.949 -3.37459 4.01524 0
M  V30 468 H 46.423 -4.68599 2.91752 0
M  V30 469 H 46.9 -4.1973 1.2932 0
M  V30 470 H 47.506 -3.28855 2.69693 0
M  V30 471 N 45.8211 -1.22559 -0.990812 0
M  V30 472 C 47.0491 -1.07779 -1.76611 0
M  V30 473 C 47.4641 0.371513 -1.85109 0
M  V30 474 O 46.8211 1.25737 -1.32274 0
M  V30 475 C 46.8721 -1.68512 -3.19822 0
M  V30 476 O 46.5931 -3.07774 -3.1178 0
M  V30 477 C 48.0941 -1.59035 -4.13791 0
M  V30 478 H 45.3141 -0.377729 -0.554583 0
M  V30 479 H 47.8581 -1.62195 -1.24551 0
M  V30 480 H 46.0131 -1.18154 -3.68942 0
M  V30 481 H 46.4271 -3.37062 -4.01858 0
M  V30 482 H 47.9011 -2.0625 -5.1202 0
M  V30 483 H 48.3781 -0.547273 -4.35777 0
M  V30 484 H 48.9841 -2.08709 -3.70568 0
M  V30 485 N 47.2992 1.18797 -1.03562 0
M  V30 486 C 48.7152 1.40671 -0.753917 0
M  V30 487 C 48.9152 1.9043 0.658686 0
M  V30 488 O 47.9712 2.08538 1.42366 0
M  V30 489 C 49.2842 2.41192 -1.79574 0
M  V30 490 C 50.8322 2.54928 -1.81606 0
M  V30 491 C 51.3072 3.58709 -2.84766 0
M  V30 492 N 52.7982 3.66212 -2.83625 0
M  V30 493 C 53.5332 4.46225 -3.60098 0
M  V30 494 N 53.0292 5.29888 -4.46308 0
M  V30 495 N 54.8222 4.40939 -3.4861 0
M  V30 496 H 46.9732 0.848221 -1.94728 0
M  V30 497 H 49.2362 0.435081 -0.842264 0
M  V30 498 H 48.9422 2.11669 -2.80872 0
M  V30 499 H 48.8162 3.40467 -1.62365 0
M  V30 500 H 51.2032 2.83771 -0.809817 0
M  V30 501 H 51.2842 1.55784 -2.02891 0
M  V30 502 H 50.9282 3.30607 -3.85566 0
M  V30 503 H 50.8582 4.57519 -2.60737 0
M  V30 504 H 53.3492 3.06466 -2.21105 0
M  V30 505 H 53.6622 5.88078 -5.01382 0
M  V30 506 H 52.0072 5.29326 -4.50377 0
M  V30 507 H 55.1982 3.74624 -2.80668 0
M  V30 508 H 55.3712 5.03056 -4.08459 0
M  V30 509 N 48.7773 0.814389 1.34928 0
M  V30 510 C 50.1933 0.499084 1.51596 0
M  V30 511 C 50.3933 -0.978319 1.76157 0
M  V30 512 O 49.4493 -1.76309 1.80752 0
M  V30 513 C 50.7623 1.35121 2.68631 0
M  V30 514 C 52.3103 1.34746 2.82511 0
M  V30 515 C 52.7853 2.18388 4.0258 0
M  V30 516 N 54.2763 2.15966 4.09772 0
M  V30 517 C 55.0113 2.77437 5.01813 0
M  V30 518 N 54.5073 3.47866 5.99134 0
M  V30 519 N 56.3003 2.67037 4.94619 0
M  V30 520 H 48.4513 1.7711 1.17243 0
M  V30 521 H 50.7143 0.754256 0.574284 0
M  V30 522 H 50.4203 2.40001 2.57085 0
M  V30 523 H 50.2943 1.00991 3.63429 0
M  V30 524 H 52.6813 0.30648 2.93504 0
M  V30 525 H 52.7623 1.72869 1.88547 0
M  V30 526 H 52.4063 3.2253 3.92347 0
M  V30 527 H 52.3363 1.77621 4.9574 0
M  V30 528 H 54.8273 1.64729 3.40107 0
M  V30 529 H 55.1403 3.92038 6.65977 0
M  V30 530 H 53.4853 3.51972 5.99284 0
M  V30 531 H 56.6763 2.11597 4.17546 0
M  V30 532 H 56.8493 3.15232 5.66156 0
M  V30 533 N 50.2554 -1.46986 0.568584 0
M  V30 534 C 51.1854 -2.32946 -0.160753 0
M  V30 535 C 52.1664 -1.44487 -0.897631 0
M  V30 536 O 53.3514 -1.73327 -0.875867 0
M  V30 537 C 50.4814 -3.26494 -1.18403 0
M  V30 538 C 49.4354 -4.24282 -0.562895 0
M  V30 539 C 48.7614 -5.07236 -1.69163 0
M  V30 540 C 50.0614 -5.19989 0.490761 0
M  V30 541 H 51.7554 -2.94175 0.556916 0
M  V30 542 H 49.3014 -1.4146 0.26927 0
M  V30 543 H 51.2544 -3.85477 -1.70251 0
M  V30 544 H 49.9784 -2.63343 -1.93179 0
M  V30 545 H 48.6374 -3.66541 -0.0656164 0
M  V30 546 H 48.2854 -4.4048 -2.42871 0
M  V30 547 H 47.9854 -5.7345 -1.28174 0
M  V30 548 H 49.5094 -5.6908 -2.21314 0
M  V30 549 H 50.9234 -5.73271 0.0579047 0
M  V30 550 H 49.3204 -5.94469 0.820165 0
M  V30 551 H 50.3904 -4.64777 1.3824 0
M  V30 552 N 51.7335 -0.305618 -1.54608 0
M  V30 553 C 52.9795 0.302746 -2.00528 0
M  V30 554 C 53.3125 1.53184 -1.19367 0
M  V30 555 O 52.5875 1.92598 -0.271321 0
M  V30 556 C 52.8705 0.654756 -3.54097 0
M  V30 557 C 52.7235 -0.583793 -4.45995 0
M  V30 558 C 54.0425 1.47947 -4.14487 0
M  V30 559 H 51.1615 0.108564 -0.72896 0
M  V30 560 H 53.8035 -0.418634 -1.85331 0
M  V30 561 H 51.9535 1.26935 -3.67178 0
M  V30 562 H 53.6255 -1.22224 -4.44814 0
M  V30 563 H 51.8685 -1.21615 -4.16404 0
M  V30 564 H 52.5395 -0.293287 -5.5122 0
M  V30 565 H 55.0155 0.96013 -4.04871 0
M  V30 566 H 53.8915 1.69454 -5.22088 0
M  V30 567 H 54.1525 2.47011 -3.66658 0
M  V30 568 N 53.2116 1.57565 -0.0334293 0
M  V30 569 C 54.4576 1.92262 0.645226 0
M  V30 570 C 54.7906 0.910543 1.71531 0
M  V30 571 O 54.0656 -0.066099 1.94388 0
M  V30 572 C 54.3486 3.37422 1.2577 0
M  V30 573 C 54.2016 4.49369 0.196891 0
M  V30 574 C 55.5206 3.82628 2.17449 0
M  V30 575 H 52.6396 0.699171 0.233085 0
M  V30 576 H 55.2816 1.89779 -0.0915694 0
M  V30 577 H 53.4316 3.39669 1.88566 0
M  V30 578 H 55.1036 4.59254 -0.433962 0
M  V30 579 H 53.3466 4.31168 -0.477137 0
M  V30 580 H 54.0176 5.47978 0.665124 0
M  V30 581 H 56.4936 3.82145 1.64634 0
M  V30 582 H 55.3696 4.84883 2.57254 0
M  V30 583 H 55.6306 3.18376 3.0674 0
M  V30 584 N 54.6897 -0.239769 1.55765 0
M  V30 585 C 55.6197 -1.30052 1.9393 0
M  V30 586 C 56.6007 -1.49839 0.805132 0
M  V30 587 O 57.7857 -1.62328 1.06599 0
M  V30 588 C 54.9157 -2.65391 2.2402 0
M  V30 589 C 53.8697 -2.60289 3.39755 0
M  V30 590 C 53.1957 -3.99489 3.55405 0
M  V30 591 C 54.4957 -2.16654 4.75246 0
M  V30 592 H 56.1897 -0.983573 2.82783 0
M  V30 593 H 53.7357 -0.471701 1.36055 0
M  V30 594 H 55.6887 -3.3974 2.49308 0
M  V30 595 H 54.4127 -2.98736 1.32 0
M  V30 596 H 53.0717 -1.88398 3.14487 0
M  V30 597 H 52.7197 -4.30112 2.60793 0
M  V30 598 H 52.4197 -3.96962 4.33238 0
M  V30 599 H 53.9437 -4.75528 3.83022 0
M  V30 600 H 55.3577 -2.80737 4.99859 0
M  V30 601 H 53.7547 -2.25223 5.56232 0
M  V30 602 H 54.8247 -1.11835 4.71827 0
M  V30 603 N 56.1678 -1.49265 -0.50573 0
M  V30 604 C 57.1308 -1.65075 -1.59006 0
M  V30 605 C 58.1308 -0.522768 -1.52065 0
M  V30 606 O 59.3208 -0.789117 -1.55302 0
M  V30 607 C 56.4528 -1.64369 -2.98656 0
M  V30 608 H 57.6458 -2.61784 -1.46319 0
M  V30 609 H 55.1988 -1.38226 -0.729616 0
M  V30 610 H 55.9338 -0.692272 -3.16825 0
M  V30 611 H 55.7188 -2.46282 -3.05103 0
M  V30 612 H 57.2088 -1.78674 -3.77446 0
M  V30 613 N 57.6459 0.756429 -1.3826 0
M  V30 614 C 58.8739 1.54565 -1.3754 0
M  V30 615 C 59.2889 1.88767 0.0355331 0
M  V30 616 O 58.6459 1.52572 1.0014 0
M  V30 617 C 58.6969 2.84654 -2.22833 0
M  V30 618 O 58.4179 2.51912 -3.5843 0
M  V30 619 C 59.9189 3.78807 -2.30261 0
M  V30 620 H 57.1389 0.478353 -0.470553 0
M  V30 621 H 59.6829 0.936381 -1.81803 0
M  V30 622 H 57.8379 3.41965 -1.8204 0
M  V30 623 H 58.2519 3.35325 -4.03308 0
M  V30 624 H 59.7259 4.67045 -2.94233 0
M  V30 625 H 60.2029 4.19038 -1.31545 0
M  V30 626 H 60.8089 3.2742 -2.71433 0
M  V30 627 N 59.124 1.23083 0.984299 0
M  V30 628 C 60.535 1.05609 1.5396 0
M  V30 629 C 60.886 -0.377793 1.92528 0
M  V30 630 O 60.011 -1.26398 1.75649 0
M  V30 631 C 60.606 1.91087 2.7977 0
M  V30 632 C 59.165 1.77885 3.31713 0
M  V30 633 C 58.312 1.87028 2.04733 0
M  V30 634 H 61.263 1.36802 0.804419 0
M  V30 635 H 61.284 1.43336 3.5247 0
M  V30 636 H 60.796 2.9544 2.51668 0
M  V30 637 H 58.897 0.762995 3.64704 0
M  V30 638 H 59.01 2.61047 4.01735 0
M  V30 639 H 57.374 1.30565 2.18689 0
M  V30 640 H 58.157 2.92929 1.79017 0
M  V30 641 N 60.6021 -1.18246 1.0419 0
M  V30 642 C 61.5341 -2.2142 0.592088 0
M  V30 643 C 62.5471 -1.59233 -0.338909 0
M  V30 644 O 63.7361 -1.78002 -0.133231 0
M  V30 645 C 60.8361 -3.38546 -0.154854 0
M  V30 646 C 60.0091 -4.3031 0.784328 0
M  V30 647 C 59.0681 -5.26138 0.0804583 0
M  V30 648 O 58.0941 -5.64738 0.711292 0
M  V30 649 N 59.2961 -5.68261 -1.18574 0
M  V30 650 H 62.0611 -2.60636 1.47949 0
M  V30 651 H 59.6221 -1.33044 0.922544 0
M  V30 652 H 61.6141 -3.99678 -0.635606 0
M  V30 653 H 60.1841 -2.98012 -0.943811 0
M  V30 654 H 59.4041 -3.66764 1.44491 0
M  V30 655 H 60.6921 -4.8852 1.42218 0
M  V30 656 H 60.0901 -5.38957 -1.71876 0
M  V30 657 H 58.6471 -6.31584 -1.61074 0
M  V30 658 N 62.0802 -0.821533 -1.34494 0
M  V30 659 C 63.3262 -0.409552 -1.98622 0
M  V30 660 C 63.6592 1.0244 -1.64984 0
M  V30 661 O 62.9342 1.71325 -0.920758 0
M  V30 662 C 63.2172 -0.610458 -3.54888 0
M  V30 663 C 63.0702 -2.09043 -3.98273 0
M  V30 664 C 64.3892 -0.0455379 -4.40076 0
M  V30 665 H 61.5082 -0.15028 -0.721516 0
M  V30 666 H 64.1502 -1.03384 -1.59411 0
M  V30 667 H 62.3002 -0.079044 -3.8842 0
M  V30 668 H 63.9722 -2.68537 -3.75081 0
M  V30 669 H 62.2152 -2.58139 -3.48635 0
M  V30 670 H 62.8862 -2.18182 -5.07051 0
M  V30 671 H 65.3622 -0.499557 -4.1309 0
M  V30 672 H 64.2382 -0.215922 -5.48475 0
M  V30 673 H 64.4992 1.04939 -4.29465 0
M  V30 674 N 63.5583 1.46682 -0.576371 0
M  V30 675 C 64.7833 2.07304 -0.0630475 0
M  V30 676 C 65.2083 1.42329 1.2298 0
M  V30 677 O 64.5663 0.504865 1.74129 0
M  V30 678 C 64.6143 3.60472 0.095895 0
M  V30 679 O 63.7183 3.95927 1.15394 0
M  V30 680 H 63.0593 0.661288 -0.0599463 0
M  V30 681 H 65.5893 1.88417 -0.797511 0
M  V30 682 H 65.5993 4.06865 0.304071 0
M  V30 683 H 64.2743 4.07157 -0.84828 0
M  V30 684 H 62.8513 3.61252 0.924724 0
M  V30 685 N 65.0364 0.313813 1.54444 0
M  V30 686 C 66.3134 -0.345447 1.92525 0
M  V30 687 C 66.6934 -1.70667 1.24242 0
M  V30 688 O 66.0414 -2.25273 0.382654 0
M  V30 689 C 66.2514 -0.44737 3.46121 0
M  V30 690 C 67.5994 -0.712238 4.18584 0
M  V30 691 O 68.6234 -0.530678 3.52225 0
M  V30 692 O 67.4824 -1.06183 5.36085 0
M  V30 693 H 64.5764 -0.195407 0.803583 0
M  V30 694 H 67.1224 0.362813 1.65776 0
M  V30 695 H 65.8944 0.509043 3.87975 0
M  V30 696 H 65.5174 -1.20359 3.78945 0
M  V30 697 N 66.5145 -1.57545 0.0417849 0
M  V30 698 C 67.7395 -1.97035 -0.647455 0
M  V30 699 C 68.1645 -0.918775 -1.64135 0
M  V30 700 O 67.5225 0.119006 -1.80909 0
M  V30 701 C 67.5705 -3.35609 -1.31905 0
M  V30 702 O 66.6745 -3.3287 -2.43457 0
M  V30 703 H 66.0155 -0.64211 -0.169086 0
M  V30 704 H 68.5455 -2.04318 0.107399 0
M  V30 705 H 68.5555 -3.72126 -1.67291 0
M  V30 706 H 67.2305 -4.11685 -0.590586 0
M  V30 707 H 65.8075 -3.08087 -2.10088 0
M  V30 708 N 67.9926 0.231505 -1.5589 0
M  V30 709 C 68.9256 1.31369 -1.86595 0
M  V30 710 C 69.9036 1.45671 -0.722397 0
M  V30 711 O 71.0876 1.61642 -0.969743 0
M  V30 712 C 68.2146 2.68529 -2.06421 0
M  V30 713 C 67.2606 2.71295 -3.29092 0
M  V30 714 S 68.0936 2.26358 -4.85306 0
M  V30 715 C 69.2496 3.65414 -5.08157 0
M  V30 716 H 69.4826 1.05128 -2.78092 0
M  V30 717 H 67.0156 0.433259 -1.48197 0
M  V30 718 H 68.9736 3.47499 -2.18528 0
M  V30 719 H 67.6346 2.91999 -1.15738 0
M  V30 720 H 66.8276 3.72063 -3.39978 0
M  V30 721 H 66.4296 2.0038 -3.15791 0
M  V30 722 H 68.7216 4.6103 -4.96445 0
M  V30 723 H 69.6646 3.5945 -6.10083 0
M  V30 724 H 70.0726 3.5864 -4.35933 0
M  V30 725 N 69.4707 1.49531 0.497807 0
M  V30 726 C 70.8867 1.36365 0.829266 0
M  V30 727 C 71.0867 0.399184 1.97506 0
M  V30 728 O 70.1427 -0.167977 2.51941 0
M  V30 729 C 71.4557 2.77153 1.16647 0
M  V30 730 C 73.0037 2.85877 1.27449 0
M  V30 731 C 73.4787 4.2744 1.64497 0
M  V30 732 N 74.9697 4.30265 1.7154 0
M  V30 733 C 75.7047 5.3677 2.01656 0
M  V30 734 N 75.2007 6.53516 2.29976 0
M  V30 735 N 76.9937 5.24189 2.02934 0
M  V30 736 H 69.1447 2.10831 -0.257703 0
M  V30 737 H 71.4077 0.946534 -0.0527091 0
M  V30 738 H 71.1137 3.49442 0.397872 0
M  V30 739 H 70.9877 3.12722 2.10915 0
M  V30 740 H 73.3747 2.13824 2.0338 0
M  V30 741 H 73.4557 2.53887 0.312244 0
M  V30 742 H 73.0997 5.00021 0.891151 0
M  V30 743 H 73.0297 4.56896 2.61827 0
M  V30 744 H 75.5207 3.4607 1.51802 0
M  V30 745 H 75.8337 7.30506 2.52153 0
M  V30 746 H 74.1787 6.56737 2.27425 0
M  V30 747 H 77.3697 4.31988 1.80289 0
M  V30 748 H 77.5427 6.07286 2.26071 0
M  V30 749 N 70.9488 -0.749086 1.3866 0
M  V30 750 C 71.8958 -1.86291 1.36251 0
M  V30 751 C 72.8658 -1.64578 0.224347 0
M  V30 752 O 74.0508 -1.86181 0.417279 0
M  V30 753 C 71.1908 -3.23644 1.19786 0
M  V30 754 C 70.3038 -3.57158 2.43027 0
M  V30 755 C 69.4388 -4.83838 2.19258 0
M  V30 756 C 68.4778 -5.10152 3.38247 0
M  V30 757 N 67.6148 -6.28029 3.13884 0
M  V30 758 H 72.4548 -1.87685 2.3147 0
M  V30 759 H 69.9918 -0.917287 1.14997 0
M  V30 760 H 71.9498 -4.0291 1.08254 0
M  V30 761 H 70.5798 -3.21566 0.282031 0
M  V30 762 H 69.6318 -2.72701 2.65214 0
M  V30 763 H 70.9438 -3.7253 3.31697 0
M  V30 764 H 70.0978 -5.71057 2.04888 0
M  V30 765 H 68.8368 -4.70614 1.2796 0
M  V30 766 H 67.8418 -4.21401 3.53131 0
M  V30 767 H 69.0668 -5.25271 4.30427 0
M  V30 768 H 67.0128 -6.1612 2.25238 0
M  V30 769 H 66.9298 -6.43922 3.96106 0
M  V30 770 H 68.1978 -7.18124 3.03179 0
M  V30 771 N 72.4269 -1.23603 -0.977757 0
M  V30 772 C 73.6729 -1.07129 -1.72195 0
M  V30 773 C 74.0059 0.390501 -1.90233 0
M  V30 774 O 73.2809 1.28902 -1.45653 0
M  V30 775 C 73.5639 -1.80031 -3.11867 0
M  V30 776 C 73.4169 -3.33899 -3.01383 0
M  V30 777 C 74.7359 -1.56492 -4.11337 0
M  V30 778 H 71.8549 -0.390571 -0.624999 0
M  V30 779 H 74.4969 -1.52142 -1.13811 0
M  V30 780 H 72.6469 -1.41768 -3.6171 0
M  V30 781 H 74.3189 -3.81699 -2.59043 0
M  V30 782 H 72.5619 -3.62796 -2.37827 0
M  V30 783 H 73.2329 -3.801 -4.00285 0
M  V30 784 H 75.7089 -1.89757 -3.70313 0
M  V30 785 H 74.5849 -2.09973 -5.07151 0
M  V30 786 H 74.8459 -0.500874 -4.39254 0
M  V30 787 N 73.905 1.17692 -1.04816 0
M  V30 788 C 74.835 2.23777 -0.666791 0
M  V30 789 C 75.816 1.66796 0.33361 0
M  V30 790 O 77.001 1.93039 0.212042 0
M  V30 791 C 74.131 3.47281 -0.0367933 0
M  V30 792 C 73.085 4.17059 -0.961546 0
M  V30 793 C 72.411 5.34342 -0.195626 0
M  V30 794 C 73.711 4.69713 -2.28402 0
M  V30 795 H 75.405 2.55933 -1.55367 0
M  V30 796 H 72.951 1.23019 -0.748484 0
M  V30 797 H 74.904 4.20706 0.241775 0
M  V30 798 H 73.628 3.14381 0.885004 0
M  V30 799 H 72.287 3.45541 -1.22462 0
M  V30 800 H 71.935 4.97692 0.728816 0
M  V30 801 H 71.635 5.81966 -0.811775 0
M  V30 802 H 73.159 6.10553 0.0757473 0
M  V30 803 H 74.573 5.34794 -2.06563 0
M  V30 804 H 72.97 5.279 -2.8538 0
M  V30 805 H 74.04 3.86726 -2.92525 0
M  V30 806 N 75.3831 0.828654 1.34056 0
M  V30 807 C 76.2931 0.256725 2.33191 0
M  V30 808 C 77.3091 -0.611898 1.62886 0
M  V30 809 O 78.4851 -0.51844 1.94613 0
M  V30 810 C 75.5501 -0.567238 3.42028 0
M  V30 811 C 74.6111 0.324458 4.28072 0
M  V30 812 C 73.8441 -0.460274 5.31712 0
M  V30 813 O 74.0671 -1.693 5.44696 0
M  V30 814 O 73.0011 0.160391 6.01686 0
M  V30 815 H 76.8271 1.07739 2.83947 0
M  V30 816 H 74.4121 0.59093 1.37217 0
M  V30 817 H 76.2941 -1.03582 4.08471 0
M  V30 818 H 74.9691 -1.36513 2.93506 0
M  V30 819 H 73.8761 0.840659 3.64532 0
M  V30 820 H 75.2091 1.08685 4.8005 0
M  V30 821 N 76.8612 -1.46375 0.584142 0
M  V30 822 C 78.0892 -2.06761 0.0759296 0
M  V30 823 C 78.5042 -1.43266 -1.22965 0
M  V30 824 O 77.8612 -0.538458 -1.74376 0
M  V30 825 C 77.9122 -3.61375 -0.0950384 0
M  V30 826 O 77.6332 -4.22495 1.15887 0
M  V30 827 C 79.1342 -4.38693 -0.637434 0
M  V30 828 H 76.3542 -0.668479 0.0581075 0
M  V30 829 H 78.8982 -1.8798 0.805218 0
M  V30 830 H 77.0532 -3.79578 -0.774554 0
M  V30 831 H 77.4672 -5.15385 0.973598 0
M  V30 832 H 78.9412 -5.47464 -0.706237 0
M  V30 833 H 79.4182 -4.06836 -1.65472 0
M  V30 834 H 80.0242 -4.25299 0.00725967 0
M  V30 835 N 78.3393 -0.321999 -1.54275 0
M  V30 836 C 79.5853 0.281461 -2.00837 0
M  V30 837 C 79.9183 1.51909 -1.20985 0
M  V30 838 O 79.1933 1.923 -0.291733 0
M  V30 839 C 79.4763 0.617162 -3.54772 0
M  V30 840 C 79.3293 -0.631064 -4.45351 0
M  V30 841 C 80.6483 1.43542 -4.16033 0
M  V30 842 H 77.7673 0.100826 -0.730071 0
M  V30 843 H 80.4093 -0.438268 -1.84876 0
M  V30 844 H 78.5593 1.23034 -3.68504 0
M  V30 845 H 80.2313 -1.26934 -4.43492 0
M  V30 846 H 78.4743 -1.26025 -4.15091 0
M  V30 847 H 79.1453 -0.351735 -5.50878 0
M  V30 848 H 81.6213 0.917134 -4.05867 0
M  V30 849 H 80.4973 1.63907 -5.23856 0
M  V30 850 H 80.7583 2.43108 -3.69257 0
M  V30 851 N 79.8174 1.5752 -0.0501392 0
M  V30 852 C 81.0644 1.9265 0.623874 0
M  V30 853 C 81.3924 0.928411 1.70912 0
M  V30 854 O 80.6474 -0.0594525 1.9561 0
M  V30 855 C 80.9464 3.34467 1.25963 0
M  V30 856 C 80.6124 4.49883 0.302689 0
M  V30 857 C 79.2744 4.81184 0.0393636 0
M  V30 858 C 81.6264 5.20002 -0.353205 0
M  V30 859 C 78.9544 5.79951 -0.887308 0
M  V30 860 C 81.3064 6.1976 -1.26806 0
M  V30 861 C 79.9704 6.49491 -1.54007 0
M  V30 862 H 79.2404 0.704957 0.228292 0
M  V30 863 H 81.8874 1.91146 -0.116398 0
M  V30 864 H 80.1924 3.32333 2.07514 0
M  V30 865 H 81.8894 3.58928 1.78806 0
M  V30 866 H 78.4794 4.25457 0.518109 0
M  V30 867 H 82.6634 4.96033 -0.162854 0
M  V30 868 H 77.9194 6.01322 -1.10553 0
M  V30 869 H 82.0934 6.73205 -1.78236 0
M  V30 870 H 79.7204 7.25837 -2.25976 0
M  V30 871 N 81.2955 -0.223234 1.56011 0
M  V30 872 C 82.5725 -0.972108 1.69733 0
M  V30 873 C 82.9525 -2.02485 0.59691 0
M  V30 874 O 82.3005 -2.25037 -0.396324 0
M  V30 875 C 82.5105 -1.58407 3.10979 0
M  V30 876 C 83.8585 -2.07696 3.70334 0
M  V30 877 O 84.8825 -1.68304 3.1393 0
M  V30 878 O 83.7415 -2.80096 4.69264 0
M  V30 879 H 80.8355 -0.453993 0.691245 0
M  V30 880 H 83.3815 -0.215149 1.68331 0
M  V30 881 H 82.1535 -0.823831 3.82529 0
M  V30 882 H 81.7765 -2.40661 3.16493 0
M  V30 883 N 82.7736 -1.49793 -0.48987 0
M  V30 884 C 83.6836 -1.70036 -1.61632 0
M  V30 885 C 84.6996 -0.583102 -1.63939 0
M  V30 886 O 85.8756 -0.859169 -1.82154 0
M  V30 887 C 82.9406 -1.77277 -2.97949 0
M  V30 888 C 82.0016 -3.00918 -3.06181 0
M  V30 889 C 81.2346 -3.07804 -4.35996 0
M  V30 890 O 81.4576 -2.21982 -5.25433 0
M  V30 891 O 80.3916 -4.00369 -4.49431 0
M  V30 892 H 84.2176 -2.65486 -1.47482 0
M  V30 893 H 81.8026 -1.33666 -0.667362 0
M  V30 894 H 83.6846 -1.84329 -3.78947 0
M  V30 895 H 82.3596 -0.850076 -3.12339 0
M  V30 896 H 81.2666 -2.99377 -2.2433 0
M  V30 897 H 82.5996 -3.92704 -2.96723 0
M  V30 898 N 84.2517 0.741722 -1.39055 0
M  V30 899 C 85.4977 1.50336 -1.36113 0
M  V30 900 C 85.8307 1.94148 0.0450796 0
M  V30 901 O 85.1057 1.66301 1.00868 0
M  V30 902 C 85.3887 2.74773 -2.32749 0
M  V30 903 C 85.2417 2.37023 -3.82283 0
M  V30 904 C 86.5607 3.76846 -2.27322 0
M  V30 905 H 83.6797 0.545351 -0.495743 0
M  V30 906 H 86.3217 0.848624 -1.69995 0
M  V30 907 H 84.4717 3.30639 -2.03986 0
M  V30 908 H 86.1437 1.8684 -4.21768 0
M  V30 909 H 84.3867 1.69334 -3.99385 0
M  V30 910 H 85.0577 3.26104 -4.45376 0
M  V30 911 H 87.5337 3.30548 -2.5274 0
M  V30 912 H 86.4097 4.6159 -2.97028 0
M  V30 913 H 86.6707 4.23286 -1.27599 0
M  V30 914 N 85.7298 1.2412 0.971189 0
M  V30 915 C 86.9788 1.07284 1.70801 0
M  V30 916 C 87.2918 -0.388902 1.91695 0
M  V30 917 O 88.4978 -0.677379 2.62914 0
M  V30 918 C 86.9538 1.87145 3.07416 0
M  V30 919 C 86.5618 3.37707 2.94377 0
M  V30 920 C 88.3058 1.78828 3.84995 0
M  V30 921 C 86.2128 4.09925 4.26281 0
M  V30 922 H 85.1428 0.397854 0.64049 0
M  V30 923 H 87.7938 1.4817 1.0825 0
M  V30 924 H 86.1758 1.39071 3.70777 0
M  V30 925 H 87.3498 3.93335 2.4005 0
M  V30 926 H 85.6648 3.46938 2.30267 0
M  V30 927 H 88.2618 2.30089 4.82662 0
M  V30 928 H 88.6048 0.75284 4.09436 0
M  V30 929 H 89.1378 2.24563 3.28354 0
M  V30 930 H 85.8768 5.13813 4.07033 0
M  V30 931 H 85.3968 3.59083 4.80437 0
M  V30 932 H 87.0758 4.1673 4.94919 0
M  V30 933 N 87.2079 -1.17134 1.05439 0
M  V30 934 C 88.1409 -2.2012 0.601855 0
M  V30 935 C 89.1189 -1.58314 -0.370854 0
M  V30 936 O 90.3029 -1.8638 -0.281882 0
M  V30 937 C 87.4299 -3.38491 -0.118868 0
M  V30 938 C 86.4759 -4.18752 0.809242 0
M  V30 939 S 87.3089 -4.83602 2.29977 0
M  V30 940 C 88.4649 -6.0536 1.59029 0
M  V30 941 H 88.6979 -2.58165 1.47438 0
M  V30 942 H 86.2309 -1.27788 0.866573 0
M  V30 943 H 88.1889 -4.07084 -0.528495 0
M  V30 944 H 86.8499 -2.98829 -0.967465 0
M  V30 945 H 86.0429 -5.03373 0.251379 0
M  V30 946 H 85.6449 -3.5561 1.15835 0
M  V30 947 H 87.9369 -6.71615 0.891017 0
M  V30 948 H 88.8799 -6.65679 2.41407 0
M  V30 949 H 89.2879 -5.54138 1.07663 0
M  V30 950 N 88.686 -0.835752 -1.33615 0
M  V30 951 C 89.932 -0.430596 -1.98176 0
M  V30 952 C 90.265 1.00684 -1.66061 0
M  V30 953 O 89.54 1.70339 -0.938877 0
M  V30 954 C 89.823 -0.648065 -3.5422 0
M  V30 955 C 89.676 -2.13255 -3.96033 0
M  V30 956 C 90.995 -0.0922113 -4.40003 0
M  V30 957 H 88.114 -0.157924 -0.719881 0
M  V30 958 H 90.756 -1.05069 -1.58305 0
M  V30 959 H 88.906 -0.120237 -3.88314 0
M  V30 960 H 90.578 -2.725 -3.72211 0
M  V30 961 H 88.821 -2.61823 -3.45878 0
M  V30 962 H 89.492 -2.23547 -5.04708 0
M  V30 963 H 91.968 -0.543343 -4.12537 0
M  V30 964 H 90.844 -0.274083 -5.48215 0
M  V30 965 H 91.105 1.00378 -4.30554 0
M  V30 966 N 90.1641 1.46063 -0.591896 0
M  V30 967 C 91.4411 1.95595 -0.0137119 0
M  V30 968 C 91.8211 1.5345 1.4497 0
M  V30 969 O 91.1691 0.789543 2.14426 0
M  V30 970 C 91.3791 3.48453 -0.195373 0
M  V30 971 C 92.7271 4.24546 -0.0679765 0
M  V30 972 O 93.7511 3.55982 -0.124681 0
M  V30 973 O 92.6101 5.46467 0.0600579 0
M  V30 974 H 89.7041 0.825795 0.0446279 0
M  V30 975 H 92.2501 1.56303 -0.660859 0
M  V30 976 H 91.0221 3.72045 -1.21235 0
M  V30 977 H 90.6451 3.94597 0.487775 0
M  V30 978 N 91.6422 0.330177 1.54103 0
M  V30 979 C 92.8882 -0.270806 2.00984 0
M  V30 980 C 93.2212 -1.51265 1.21789 0
M  V30 981 O 92.4962 -1.92142 0.301927 0
M  V30 982 C 92.7792 -0.598339 3.55094 0
M  V30 983 C 92.6322 0.654674 4.4501 0
M  V30 984 C 93.9512 -1.41334 4.16789 0
M  V30 985 H 91.0702 -0.0969531 0.730595 0
M  V30 986 H 93.7122 0.448066 1.84641 0
M  V30 987 H 91.8622 -1.21078 3.69151 0
M  V30 988 H 93.5342 1.29285 4.42813 0
M  V30 989 H 91.7772 1.28224 4.14416 0
M  V30 990 H 92.4482 0.380944 5.50684 0
M  V30 991 H 94.9242 -0.895597 4.06347 0
M  V30 992 H 93.8002 -1.61127 5.24718 0
M  V30 993 H 94.0612 -2.41146 3.70541 0
M  V30 994 N 93.1203 -1.57491 0.0584922 0
M  V30 995 C 94.0503 -2.14988 -0.911178 0
M  V30 996 C 95.0313 -1.07343 -1.31952 0
M  V30 997 O 96.2163 -1.35318 -1.39294 0
M  V30 998 C 93.3463 -2.70078 -2.18347 0
M  V30 999 C 92.3003 -3.82771 -1.91495 0
M  V30 1000 C 91.6263 -4.24408 -3.25241 0
M  V30 1001 C 92.9263 -5.07592 -1.23075 0
M  V30 1002 H 94.6203 -2.96263 -0.432246 0
M  V30 1003 H 92.1663 -1.42512 -0.206469 0
M  V30 1004 H 94.1193 -3.08943 -2.86587 0
M  V30 1005 H 92.8433 -1.86005 -2.68458 0
M  V30 1006 H 91.5023 -3.44389 -1.25664 0
M  V30 1007 H 91.1503 -3.37275 -3.73168 0
M  V30 1008 H 90.8503 -5.00366 -3.08071 0
M  V30 1009 H 92.3743 -4.65879 -3.94701 0
M  V30 1010 H 93.7883 -5.43857 -1.81362 0
M  V30 1011 H 92.1853 -5.88741 -1.16207 0
M  V30 1012 H 93.2553 -4.84454 -0.207847 0
M  V30 1013 N 94.5984 0.214957 -1.56127 0
M  V30 1014 C 95.8754 0.963093 -1.70247 0
M  V30 1015 C 96.2554 2.02166 -0.60764 0
M  V30 1016 O 95.6034 2.25244 0.384385 0
M  V30 1017 C 95.8134 1.56756 -3.11815 0
M  V30 1018 C 97.1614 2.0573 -3.7143 0
M  V30 1019 O 98.1854 1.66637 -3.14818 0
M  V30 1020 O 97.0444 2.77603 -4.70743 0
M  V30 1021 H 94.1384 0.450321 -0.693643 0
M  V30 1022 H 96.6844 0.206219 -1.68442 0
M  V30 1023 H 95.4564 0.803533 -3.82961 0
M  V30 1024 H 95.0794 2.3898 -3.17765 0
M  V30 1025 N 96.0765 1.50051 0.48192 0
M  V30 1026 C 97.3015 1.64508 1.26301 0
M  V30 1027 C 97.7265 0.323851 1.85291 0
M  V30 1028 O 97.0845 -0.710969 1.66778 0
M  V30 1029 C 97.1325 2.7305 2.35533 0
M  V30 1030 O 96.2365 2.3355 3.39895 0
M  V30 1031 H 95.5775 0.549978 0.372048 0
M  V30 1032 H 98.1075 1.9636 0.574786 0
M  V30 1033 H 98.1175 2.95799 2.8101 0
M  V30 1034 H 96.7925 3.68946 1.91967 0
M  V30 1035 H 95.3695 2.21205 3.00204 0
M  V30 1036 N 97.5546 -0.734337 1.39446 0
M  V30 1037 C 98.8026 -1.49096 1.36436 0
M  V30 1038 C 99.1236 -1.94961 -0.0388255 0
M  V30 1039 O 98.3936 -1.69033 -0.990191 0
M  V30 1040 H 96.9736 -0.5531 0.502085 0
M  V30 1041 H 99.6356 -0.871725 1.74319 0
M  V30 1042 H 98.7316 -2.37276 2.02747 0
M  V30 1043 N 99.0327 -1.24633 -0.964593 0
M  V30 1044 C 100.31 -0.995809 -1.68354 0
M  V30 1045 C 100.69 0.480964 -2.05548 0
M  V30 1046 O 100.038 1.45599 -1.76105 0
M  V30 1047 C 100.248 -1.92177 -2.91323 0
M  V30 1048 C 101.596 -2.19446 -3.63495 0
M  V30 1049 O 102.62 -1.89855 -3.01386 0
M  V30 1050 O 101.479 -2.69714 -4.75307 0
M  V30 1051 H 98.5727 -0.376854 -0.736146 0
M  V30 1052 H 101.119 -1.35745 -1.0184 0
M  V30 1053 H 99.8907 -2.91938 -2.60553 0
M  V30 1054 H 99.5137 -1.56349 -3.65569 0
M  V30 1055 N 100.511 1.16574 -1.06058 0
M  V30 1056 C 101.736 1.91493 -0.796562 0
M  V30 1057 C 102.161 1.76773 0.642868 0
M  V30 1058 O 101.519 1.09142 1.44768 0
M  V30 1059 C 101.567 3.40293 -1.19303 0
M  V30 1060 O 100.671 4.11074 -0.330394 0
M  V30 1061 H 100.012 0.596678 -0.291326 0
M  V30 1062 H 102.542 1.47708 -1.41575 0
M  V30 1063 H 102.552 3.91057 -1.16356 0
M  V30 1064 H 101.227 3.50326 -2.24153 0
M  V30 1065 H 99.8038 3.70513 -0.421225 0
M  V30 1066 N 101.989 0.842826 1.3317 0
M  V30 1067 C 102.952 0.284065 2.27433 0
M  V30 1068 C 103.952 -0.54948 1.5112 0
M  V30 1069 O 105.142 -0.362699 1.70382 0
M  V30 1070 C 102.274 -0.599384 3.35589 0
M  V30 1071 H 103.467 1.11589 2.78366 0
M  V30 1072 H 101.02 0.616221 1.4364 0
M  V30 1073 H 101.755 -1.45349 2.89904 0
M  V30 1074 H 101.54 -0.00291266 3.921 0
M  V30 1075 H 103.03 -0.983488 4.05854 0
M  V30 1076 N 103.467 -1.45747 0.599634 0
M  V30 1077 C 104.417 -2.27538 -0.145107 0
M  V30 1078 C 105.401 -1.3686 -0.846055 0
M  V30 1079 O 106.593 -1.6091 -0.737357 0
M  V30 1080 C 103.722 -3.23569 -1.14708 0
M  V30 1081 C 102.808 -4.21734 -0.447383 0
M  V30 1082 N 103.199 -5.03257 0.506535 0
M  V30 1083 C 101.497 -4.40536 -0.695966 0
M  V30 1084 C 102.198 -5.74426 0.917068 0
M  V30 1085 N 101.174 -5.42966 0.26253 0
M  V30 1086 H 104.976 -2.87965 0.587672 0
M  V30 1087 H 102.49 -1.56803 0.422697 0
M  V30 1088 H 104.487 -3.8089 -1.69495 0
M  V30 1089 H 103.147 -2.64702 -1.8805 0
M  V30 1090 H 104.158 -5.10319 0.882899 0
M  V30 1091 H 100.835 -3.92802 -1.41467 0
M  V30 1092 H 102.225 -6.4995 1.70338 0
M  V30 1093 N 104.945 -0.338344 -1.53925 0
M  V30 1094 C 105.875 0.51328 -2.27789 0
M  V30 1095 C 106.856 1.107 -1.29149 0
M  V30 1096 O 108.041 1.12937 -1.57984 0
M  V30 1097 C 105.171 1.66697 -3.04679 0
M  V30 1098 C 104.125 1.20183 -4.1078 0
M  V30 1099 C 103.451 2.44363 -4.75595 0
M  V30 1100 C 104.751 0.30605 -5.21403 0
M  V30 1101 H 106.445 -0.102883 -2.99223 0
M  V30 1102 H 103.991 -0.0509219 -1.4391 0
M  V30 1103 H 105.944 2.26915 -3.55088 0
M  V30 1104 H 104.668 2.30995 -2.30887 0
M  V30 1105 H 103.327 0.622499 -3.61276 0
M  V30 1106 H 102.975 3.07057 -3.98403 0
M  V30 1107 H 102.675 2.13925 -5.47275 0
M  V30 1108 H 104.199 3.05317 -5.28786 0
M  V30 1109 H 105.613 0.814929 -5.67478 0
M  V30 1110 H 104.01 0.0937929 -6.00027 0
M  V30 1111 H 105.08 -0.65921 -4.80398 0
M  V30 1112 N 106.423 1.57458 -0.0668435 0
M  V30 1113 C 107.651 1.97624 0.612565 0
M  V30 1114 C 108.066 0.94502 1.63447 0
M  V30 1115 O 107.423 -0.0689276 1.8237 0
M  V30 1116 C 107.474 3.37869 1.28555 0
M  V30 1117 O 107.195 4.3704 0.304557 0
M  V30 1118 C 108.696 3.92882 2.05325 0
M  V30 1119 H 105.916 0.650045 0.166381 0
M  V30 1120 H 108.46 2.04035 -0.137782 0
M  V30 1121 H 106.615 3.3256 1.98702 0
M  V30 1122 H 107.029 5.18565 0.786779 0
M  V30 1123 H 108.503 4.93247 2.47812 0
M  V30 1124 H 108.98 3.29156 2.9078 0
M  V30 1125 H 109.586 4.01577 1.40056 0
M  V30 1126 N 107.901 -0.206675 1.56239 0
M  V30 1127 C 108.831 -1.25909 1.96645 0
M  V30 1128 C 109.812 -1.48097 0.836734 0
M  V30 1129 O 110.997 -1.6003 1.10019 0
M  V30 1130 C 108.127 -2.6058 2.29599 0
M  V30 1131 C 107.081 -2.53024 3.452 0
M  V30 1132 C 106.407 -3.91861 3.63798 0
M  V30 1133 C 107.707 -2.06524 4.79734 0
M  V30 1134 H 109.401 -0.923369 2.84806 0
M  V30 1135 H 106.947 -0.442735 1.37025 0
M  V30 1136 H 108.9 -3.34375 2.56459 0
M  V30 1137 H 107.624 -2.95869 1.38307 0
M  V30 1138 H 106.283 -1.81684 3.18412 0
M  V30 1139 H 105.931 -4.24483 2.69857 0
M  V30 1140 H 105.631 -3.87683 4.4156 0
M  V30 1141 H 107.155 -4.67296 3.93022 0
M  V30 1142 H 108.569 -2.70072 5.05702 0
M  V30 1143 H 106.966 -2.13374 5.60885 0
M  V30 1144 H 108.036 -1.01802 4.74093 0
M  V30 1145 N 109.379 -1.50304 -0.473955 0
M  V30 1146 C 110.312 -1.63595 -1.59097 0
M  V30 1147 C 111.29 -0.484142 -1.55225 0
M  V30 1148 O 112.474 -0.703271 -1.7489 0
M  V30 1149 C 109.601 -1.61589 -2.97669 0
M  V30 1150 C 108.647 -2.82295 -3.19705 0
M  V30 1151 S 109.48 -4.43635 -2.99913 0
M  V30 1152 C 110.636 -4.44317 -4.40832 0
M  V30 1153 H 110.869 -2.58082 -1.47583 0
M  V30 1154 H 108.402 -1.39531 -0.661087 0
M  V30 1155 H 110.36 -1.61116 -3.7756 0
M  V30 1156 H 109.021 -0.683421 -3.06575 0
M  V30 1157 H 108.214 -2.77188 -4.20931 0
M  V30 1158 H 107.816 -2.8032 -2.47582 0
M  V30 1159 H 110.108 -4.17703 -5.33414 0
M  V30 1160 H 111.051 -5.45911 -4.50984 0
M  V30 1161 H 111.459 -3.74059 -4.22777 0
M  V30 1162 N 110.857 0.726932 -1.39834 0
M  V30 1163 C 111.804 1.841 -1.39197 0
M  V30 1164 C 112.774 1.642 -0.250502 0
M  V30 1165 O 113.959 1.85494 -0.446846 0
M  V30 1166 C 111.099 3.21697 -1.24919 0
M  V30 1167 C 110.212 3.53247 -2.48678 0
M  V30 1168 C 109.347 4.80289 -2.26928 0
M  V30 1169 C 108.386 5.04707 -3.4632 0
M  V30 1170 N 107.523 6.22956 -3.23836 0
M  V30 1171 H 112.363 1.83979 -2.34427 0
M  V30 1172 H 109.9 0.898876 -1.16442 0
M  V30 1173 H 111.858 4.01137 -1.1465 0
M  V30 1174 H 110.488 3.21076 -0.333153 0
M  V30 1175 H 109.54 2.68447 -2.69519 0
M  V30 1176 H 110.852 3.67205 -3.37582 0
M  V30 1177 H 110.006 5.67725 -2.13947 0
M  V30 1178 H 108.745 4.68519 -1.35431 0
M  V30 1179 H 107.75 4.1573 -3.5979 0
M  V30 1180 H 108.975 5.18357 -4.38729 0
M  V30 1181 H 106.921 6.12459 -2.35011 0
M  V30 1182 H 106.838 6.37539 -4.063 0
M  V30 1183 H 108.106 7.1321 -3.14566 0
M  V30 1184 N 112.336 1.25143 0.95797 0
M  V30 1185 C 113.752 1.01892 1.22842 0
M  V30 1186 C 113.952 -0.266311 1.99732 0
M  V30 1187 O 113.008 -0.979913 2.3271 0
M  V30 1188 C 114.321 2.24004 2.00606 0
M  V30 1189 C 115.869 2.28731 2.13662 0
M  V30 1190 C 116.344 3.5049 2.94823 0
M  V30 1191 N 117.835 3.50866 3.02403 0
M  V30 1192 C 118.57 4.4174 3.65586 0
M  V30 1193 N 118.066 5.42882 4.30408 0
M  V30 1194 N 119.859 4.29429 3.62694 0
M  V30 1195 H 112.01 2.07718 0.443493 0
M  V30 1196 H 114.273 0.912031 0.258657 0
M  V30 1197 H 113.979 3.17395 1.51503 0
M  V30 1198 H 113.853 2.26907 3.01319 0
M  V30 1199 H 116.24 1.35865 2.61963 0
M  V30 1200 H 116.321 2.29848 1.12265 0
M  V30 1201 H 115.965 4.43676 2.47213 0
M  V30 1202 H 115.895 3.46617 3.96439 0
M  V30 1203 H 118.386 2.777 2.56302 0
M  V30 1204 H 118.699 6.0844 4.76467 0
M  V30 1205 H 117.044 5.46758 4.29047 0
M  V30 1206 H 120.235 3.49643 3.11236 0
M  V30 1207 H 120.408 5.00448 4.1165 0
M  V30 1208 N 113.814 -1.1601 1.06675 0
M  V30 1209 C 115.225 -1.68235 0.809565 0
M  V30 1210 C 115.576 -1.8454 -0.666303 0
M  V30 1211 O 114.701 -1.54374 -1.5165 0
M  V30 1212 C 115.296 -3.05585 1.46299 0
M  V30 1213 C 113.855 -3.54915 1.25349 0
M  V30 1214 C 113.002 -2.30804 1.53703 0
M  V30 1215 H 115.953 -1.00318 1.22971 0
M  V30 1216 H 115.974 -3.70174 0.880431 0
M  V30 1217 H 115.486 -2.93686 2.53713 0
M  V30 1218 H 113.587 -3.72067 0.199261 0
M  V30 1219 H 113.7 -4.36774 1.9689 0
M  V30 1220 H 112.064 -2.36007 0.957739 0
M  V30 1221 H 112.847 -2.21499 2.62284 0
M  V30 1222 N 115.292 -0.849877 -1.32721 0
M  V30 1223 C 116.202 -0.293791 -2.32753 0
M  V30 1224 C 117.218 0.585906 -1.63839 0
M  V30 1225 O 118.394 0.487413 -1.95413 0
M  V30 1226 C 115.459 0.512752 -3.42887 0
M  V30 1227 C 114.52 -0.39252 -4.27502 0
M  V30 1228 C 113.753 0.375625 -5.32377 0
M  V30 1229 O 113.976 1.60613 -5.4732 0
M  V30 1230 O 112.91 -0.256094 -6.01355 0
M  V30 1231 H 116.736 -1.12242 -2.82197 0
M  V30 1232 H 114.321 -0.612685 -1.36259 0
M  V30 1233 H 116.203 0.970704 -4.10067 0
M  V30 1234 H 114.878 1.31826 -2.95641 0
M  V30 1235 H 113.785 -0.898547 -3.63149 0
M  V30 1236 H 115.118 -1.16309 -4.7826 0
M  V30 1237 N 116.77 1.45427 -0.607355 0
M  V30 1238 C 117.7 2.3329 0.0989352 0
M  V30 1239 C 118.681 1.46816 0.859007 0
M  V30 1240 O 119.866 1.75588 0.829604 0
M  V30 1241 C 116.996 3.29518 1.09705 0
M  V30 1242 C 115.95 4.25626 0.450206 0
M  V30 1243 C 115.276 5.11542 1.55655 0
M  V30 1244 C 116.576 5.18505 -0.628455 0
M  V30 1245 H 118.27 2.92595 -0.634716 0
M  V30 1246 H 115.816 1.40696 -0.306681 0
M  V30 1247 H 117.769 3.89855 1.59971 0
M  V30 1248 H 116.493 2.68372 1.86129 0
M  V30 1249 H 115.152 3.66586 -0.0315886 0
M  V30 1250 H 114.8 4.46765 2.31107 0
M  V30 1251 H 114.5 5.76647 1.12925 0
M  V30 1252 H 116.024 5.74748 2.06148 0
M  V30 1253 H 117.438 5.72916 -0.209877 0
M  V30 1254 H 115.835 5.92085 -0.977489 0
M  V30 1255 H 116.905 4.60948 -1.50514 0
M  V30 1256 N 118.248 0.346503 1.53744 0
M  V30 1257 C 119.496 -0.248612 2.00565 0
M  V30 1258 C 119.817 -1.5083 1.23593 0
M  V30 1259 O 119.087 -1.92858 0.343912 0
M  V30 1260 H 117.667 -0.0948564 0.740953 0
M  V30 1261 H 120.329 0.468341 1.89189 0
M  V30 1262 H 119.425 -0.488994 3.08245 0
M  V30 1263 N 119.726 -1.57421 0.075193 0
M  V30 1264 C 120.972 -1.93905 -0.594025 0
M  V30 1265 C 121.305 -0.955701 -1.69056 0
M  V30 1266 O 120.58 0.0145373 -1.94495 0
M  V30 1267 C 120.863 -3.40638 -1.1678 0
M  V30 1268 C 120.716 -4.49733 -0.0776792 0
M  V30 1269 C 122.035 -3.88259 -2.07228 0
M  V30 1270 H 119.154 -0.705105 -0.214466 0
M  V30 1271 H 121.796 -1.8947 0.141854 0
M  V30 1272 H 119.946 -3.44549 -1.79494 0
M  V30 1273 H 121.618 -4.57942 0.555573 0
M  V30 1274 H 119.861 -4.29751 0.591286 0
M  V30 1275 H 120.532 -5.49549 -0.519603 0
M  V30 1276 H 123.008 -3.86376 -1.54445 0
M  V30 1277 H 121.884 -4.91533 -2.44308 0
M  V30 1278 H 122.145 -3.26396 -2.98191 0
M  V30 1279 N 121.204 0.198386 -1.56346 0
M  V30 1280 C 122.432 0.935572 -1.84539 0
M  V30 1281 C 122.847 1.76989 -0.657281 0
M  V30 1282 O 122.204 1.78626 0.374043 0
M  V30 1283 C 122.255 1.8344 -3.11499 0
M  V30 1284 O 121.976 1.03377 -4.25728 0
M  V30 1285 C 123.477 2.68355 -3.52846 0
M  V30 1286 H 120.697 0.273126 -0.612897 0
M  V30 1287 H 123.241 0.20663 -2.03453 0
M  V30 1288 H 121.396 2.51701 -2.94492 0
M  V30 1289 H 121.81 1.64599 -4.98003 0
M  V30 1290 H 123.284 3.27085 -4.44657 0
M  V30 1291 H 123.761 3.41901 -2.75681 0
M  V30 1292 H 124.367 2.05471 -3.72373 0
M  V30 1293 N 122.682 1.50554 0.465978 0
M  V30 1294 C 123.612 1.72722 1.57128 0
M  V30 1295 C 124.593 0.576294 1.6004 0
M  V30 1296 O 125.778 0.81598 1.76225 0
M  V30 1297 C 122.908 1.82605 2.95419 0
M  V30 1298 C 121.862 2.97835 3.07373 0
M  V30 1299 C 121.188 2.92867 4.47363 0
M  V30 1300 C 122.488 4.38265 2.84114 0
M  V30 1301 H 124.182 2.65267 1.38829 0
M  V30 1302 H 121.728 1.2765 0.666441 0
M  V30 1303 H 123.681 1.96698 3.72677 0
M  V30 1304 H 122.405 0.866858 3.14886 0
M  V30 1305 H 121.064 2.83401 2.3255 0
M  V30 1306 H 120.712 1.94783 4.63755 0
M  V30 1307 H 120.412 3.70227 4.56296 0
M  V30 1308 H 121.936 3.09015 5.26633 0
M  V30 1309 H 123.35 4.53198 3.51118 0
M  V30 1310 H 121.747 5.17115 3.04487 0
M  V30 1311 H 122.817 4.50281 1.7993 0
M  V30 1312 N 124.16 -0.719506 1.40217 0
M  V30 1313 C 125.388 -1.50864 1.41589 0
M  V30 1314 C 125.803 -1.88794 0.0145275 0
M  V30 1315 O 125.16 -1.55174 -0.960594 0
M  V30 1316 C 125.211 -2.78646 2.30302 0
M  V30 1317 O 124.932 -2.42321 3.64983 0
M  V30 1318 C 126.433 -3.72569 2.40224 0
M  V30 1319 H 123.653 -0.465709 0.48307 0
M  V30 1320 H 126.197 -0.88785 1.84221 0
M  V30 1321 H 124.352 -3.37019 1.91042 0
M  V30 1322 H 124.766 -3.24514 4.12057 0
M  V30 1323 H 126.24 -4.5908 3.06512 0
M  V30 1324 H 126.717 -4.15403 1.42608 0
M  V30 1325 H 127.323 -3.20109 2.80019 0
M  V30 1326 N 125.638 -1.25649 -0.95132 0
M  V30 1327 C 126.585 -1.06323 -2.04851 0
M  V30 1328 C 127.555 0.0286491 -1.66075 0
M  V30 1329 O 128.74 -0.12917 -1.90362 0
M  V30 1330 C 125.88 -0.691529 -3.381 0
M  V30 1331 C 124.993 -1.85861 -3.89974 0
M  V30 1332 C 124.128 -1.43096 -5.11563 0
M  V30 1333 C 123.167 -2.56696 -5.55674 0
M  V30 1334 N 122.304 -2.14684 -6.68472 0
M  V30 1335 H 127.144 -2.00222 -2.20715 0
M  V30 1336 H 124.681 -0.997027 -1.08156 0
M  V30 1337 H 126.639 -0.456963 -4.1469 0
M  V30 1338 H 125.269 0.210474 -3.22113 0
M  V30 1339 H 124.321 -2.20639 -3.09875 0
M  V30 1340 H 125.633 -2.71161 -4.18657 0
M  V30 1341 H 124.787 -1.15624 -5.9558 0
M  V30 1342 H 123.526 -0.548722 -4.84603 0
M  V30 1343 H 122.531 -2.84909 -4.7022 0
M  V30 1344 H 123.756 -3.45503 -5.8464 0
M  V30 1345 H 121.702 -1.28881 -6.43215 0
M  V30 1346 H 121.619 -2.9353 -6.96689 0
M  V30 1347 H 122.887 -1.90397 -7.5589 0
M  V30 1348 N 127.117 1.15442 -1.07289 0
M  V30 1349 C 128.047 2.22312 -0.714107 0
M  V30 1350 C 129.028 1.67467 0.298155 0
M  V30 1351 O 130.213 1.93445 0.171048 0
M  V30 1352 C 127.343 3.47124 -0.110448 0
M  V30 1353 C 126.297 4.14926 -1.04979 0
M  V30 1354 C 125.623 5.33807 -0.308924 0
M  V30 1355 C 126.923 4.64762 -2.38314 0
M  V30 1356 H 128.617 2.5258 -1.6076 0
M  V30 1357 H 126.163 1.21404 -0.77441 0
M  V30 1358 H 128.116 4.21124 0.152482 0
M  V30 1359 H 126.84 3.16187 0.81812 0
M  V30 1360 H 125.499 3.42866 -1.29764 0
M  V30 1361 H 125.147 4.99126 0.623084 0
M  V30 1362 H 124.847 5.80113 -0.935036 0
M  V30 1363 H 126.371 6.10576 -0.0537771 0
M  V30 1364 H 127.785 5.30292 -2.1786 0
M  V30 1365 H 126.182 5.21728 -2.96514 0
M  V30 1366 H 127.252 3.80434 -3.00663 0
M  V30 1367 N 128.595 0.856903 1.32268 0
M  V30 1368 C 129.545 0.274899 2.26337 0
M  V30 1369 C 130.529 -0.580543 1.50062 0
M  V30 1370 O 131.721 -0.429559 1.71708 0
M  V30 1371 C 128.85 -0.533841 3.39124 0
M  V30 1372 C 127.936 0.334114 4.22782 0
M  V30 1373 N 128.327 1.42143 4.85416 0
M  V30 1374 C 126.625 0.124256 4.45827 0
M  V30 1375 C 127.326 1.95559 5.47843 0
M  V30 1376 N 126.302 1.25444 5.28928 0
M  V30 1377 H 130.104 1.10612 2.72291 0
M  V30 1378 H 127.618 0.703258 1.46383 0
M  V30 1379 H 129.615 -0.96722 4.05525 0
M  V30 1380 H 128.275 -1.36283 2.94715 0
M  V30 1381 H 129.286 1.80436 4.85451 0
M  V30 1382 H 125.963 -0.669837 4.12092 0
M  V30 1383 H 127.353 2.86714 6.07655 0
M  V30 1384 N 130.073 -1.45103 0.615059 0
M  V30 1385 C 131.313 -2.04069 0.116282 0
M  V30 1386 C 131.677 -1.4721 -1.2326 0
M  V30 1387 O 132.878 -1.97577 -1.82255 0
M  V30 1388 C 131.149 -3.57298 0.085482 0
M  V30 1389 S 132.708 -4.37394 -0.351015 0
M  V30 1390 H 129.526 -0.709006 0.0532183 0
M  V30 1391 H 132.128 -1.77709 0.81484 0
M  V30 1392 H 130.832 -3.9619 1.0706 0
M  V30 1393 H 130.363 -3.88244 -0.634835 0
M  V30 1394 H 132.378 -4.69734 -1.59889 0
M  V30 1395 N 131.551 -0.354651 -1.53558 0
M  V30 1396 C 132.797 0.231422 -2.02079 0
M  V30 1397 C 133.152 1.47308 -1.23767 0
M  V30 1398 O 132.445 1.8891 -0.319947 0
M  V30 1399 C 132.639 0.587121 -3.52545 0
M  V30 1400 C 132.468 -0.618513 -4.45426 0
M  V30 1401 C 131.238 -1.12724 -4.92566 0
M  V30 1402 C 133.436 -1.48039 -4.92533 0
M  V30 1403 N 131.418 -2.29404 -5.69427 0
M  V30 1404 C 132.789 -2.49397 -5.67628 0
M  V30 1405 C 134.844 -1.50454 -4.74624 0
M  V30 1406 C 133.547 -3.53013 -6.26717 0
M  V30 1407 C 135.573 -2.52958 -5.34571 0
M  V30 1408 C 134.935 -3.5304 -6.09543 0
M  V30 1409 H 131.034 0.0476909 -0.780544 0
M  V30 1410 H 133.618 -0.496727 -1.88257 0
M  V30 1411 H 131.789 1.28436 -3.6655 0
M  V30 1412 H 133.521 1.15734 -3.87799 0
M  V30 1413 H 130.276 -0.693577 -4.68494 0
M  V30 1414 H 130.7 -2.88347 -6.12524 0
M  V30 1415 H 135.342 -0.744356 -4.16196 0
M  V30 1416 H 133.06 -4.2992 -6.84247 0
M  V30 1417 H 136.646 -2.55667 -5.22614 0
M  V30 1418 H 135.526 -4.31056 -6.55103 0
M  V30 1419 N 133.029 1.57378 -0.0835403 0
M  V30 1420 C 134.254 1.98682 0.594987 0
M  V30 1421 C 134.679 0.961969 1.61641 0
M  V30 1422 O 134.037 -0.0709989 1.81161 0
M  V30 1423 C 134.085 3.38988 1.2296 0
M  V30 1424 O 133.189 3.39208 2.34546 0
M  V30 1425 H 132.53 0.646368 0.152002 0
M  V30 1426 H 135.06 2.03961 -0.161533 0
M  V30 1427 H 135.07 3.76431 1.57366 0
M  V30 1428 H 133.745 4.13107 0.481228 0
M  V30 1429 H 132.322 3.13548 2.01846 0
M  V30 1430 N 134.507 -0.190092 1.56449 0
M  V30 1431 C 135.437 -1.23816 1.97969 0
M  V30 1432 C 136.418 -1.47201 0.852395 0
M  V30 1433 O 137.603 -1.58854 1.1171 0
M  V30 1434 C 134.733 -2.5813 2.3235 0
M  V30 1435 C 133.687 -2.49348 3.47864 0
M  V30 1436 C 133.013 -3.8798 3.67934 0
M  V30 1437 C 134.313 -2.01424 4.81898 0
M  V30 1438 H 136.007 -0.89311 2.85769 0
M  V30 1439 H 133.553 -0.428177 1.37487 0
M  V30 1440 H 135.506 -3.31637 2.59991 0
M  V30 1441 H 134.23 -2.94386 1.41438 0
M  V30 1442 H 132.889 -1.78297 3.20321 0
M  V30 1443 H 132.537 -4.21597 2.74344 0
M  V30 1444 H 132.237 -3.82978 4.45648 0
M  V30 1445 H 133.761 -4.63101 3.97957 0
M  V30 1446 H 135.175 -2.64693 5.08538 0
M  V30 1447 H 133.572 -2.07413 5.63116 0
M  V30 1448 H 134.642 -0.967677 4.75146 0
M  V30 1449 N 135.985 -1.50799 -0.457987 0
M  V30 1450 C 137.213 -1.66218 -1.23203 0
M  V30 1451 C 137.628 -0.350894 -1.85511 0
M  V30 1452 O 136.985 0.668546 -1.69814 0
M  V30 1453 C 137.036 -2.76291 -2.33121 0
M  V30 1454 O 136.757 -4.02338 -1.73366 0
M  V30 1455 C 138.258 -3.028 -3.2377 0
M  V30 1456 H 135.478 -0.558361 -0.372121 0
M  V30 1457 H 138.022 -1.97099 -0.545179 0
M  V30 1458 H 136.177 -2.48068 -2.97558 0
M  V30 1459 H 136.591 -4.63312 -2.4585 0
M  V30 1460 H 138.065 -3.8345 -3.97077 0
M  V30 1461 H 138.542 -2.14385 -3.83322 0
M  V30 1462 H 139.148 -3.32604 -2.65056 0
M  V30 1463 N 137.463 0.71206 -1.40597 0
M  V30 1464 C 138.395 1.83704 -1.37061 0
M  V30 1465 C 139.408 1.60453 -0.275426 0
M  V30 1466 O 140.597 1.70262 -0.53602 0
M  V30 1467 C 137.697 3.20172 -1.11099 0
M  V30 1468 C 136.87 3.7059 -2.3234 0
M  V30 1469 C 135.929 4.85681 -2.02485 0
M  V30 1470 O 134.955 4.9815 -2.75382 0
M  V30 1471 N 136.157 5.71735 -1.00497 0
M  V30 1472 H 138.922 1.87235 -2.34016 0
M  V30 1473 H 136.483 0.893739 -1.34996 0
M  V30 1474 H 138.475 3.94768 -0.891064 0
M  V30 1475 H 137.045 3.11767 -0.227989 0
M  V30 1476 H 136.265 2.87085 -2.7014 0
M  V30 1477 H 137.553 4.01011 -3.13157 0
M  V30 1478 H 136.951 5.64275 -0.401298 0
M  V30 1479 H 135.508 6.463 -0.844942 0
M  V30 1480 N 138.941 1.26152 0.944643 0
M  V30 1481 C 140.171 1.14094 1.72239 0
M  V30 1482 C 140.579 -0.306931 1.86694 0
M  V30 1483 O 139.922 -1.22222 1.3714 0
M  V30 1484 C 139.984 1.73316 3.14963 0
M  V30 1485 C 139.648 3.2239 3.23904 0
M  V30 1486 C 140.645 4.19252 3.07447 0
M  V30 1487 C 138.33 3.62788 3.47405 0
M  V30 1488 C 140.324 5.54491 3.14353 0
M  V30 1489 C 138.011 4.98162 3.53947 0
M  V30 1490 C 139.009 5.93823 3.37436 0
M  V30 1491 O 138.697 7.26732 3.43679 0
M  V30 1492 H 138.429 0.398292 0.546205 0
M  V30 1493 H 140.983 1.67201 1.19301 0
M  V30 1494 H 139.213 1.14667 3.69308 0
M  V30 1495 H 140.902 1.56214 3.74636 0
M  V30 1496 H 141.668 3.8938 2.8915 0
M  V30 1497 H 137.547 2.88816 3.59313 0
M  V30 1498 H 141.091 6.29137 3.01384 0
M  V30 1499 H 136.988 5.27695 3.71763 0
M  V30 1500 H 137.756 7.3496 3.60245 0
M  V30 1501 N 140.419 -1.14872 1.07899 0
M  V30 1502 C 141.644 -1.90202 0.826926 0
M  V30 1503 C 142.069 -1.77774 -0.614664 0
M  V30 1504 O 141.427 -1.11431 -1.43013 0
M  V30 1505 C 141.475 -3.38352 1.24702 0
M  V30 1506 O 140.579 -4.10497 0.39575 0
M  V30 1507 H 139.92 -0.591968 0.300782 0
M  V30 1508 H 142.45 -1.45437 1.43907 0
M  V30 1509 H 142.46 -3.89156 1.22563 0
M  V30 1510 H 141.135 -3.46715 2.29698 0
M  V30 1511 H 139.712 -3.69796 0.480117 0
M  V30 1512 N 141.898 -0.863906 -1.31812 0
M  V30 1513 C 142.845 -0.313303 -2.28664 0
M  V30 1514 C 143.815 0.584868 -1.55462 0
M  V30 1515 O 145 0.517805 -1.83639 0
M  V30 1516 C 142.14 0.48441 -3.41683 0
M  V30 1517 C 141.253 -0.440594 -4.29747 0
M  V30 1518 C 140.388 0.370652 -5.29905 0
M  V30 1519 C 139.427 -0.551164 -6.09613 0
M  V30 1520 N 138.564 0.223462 -7.01744 0
M  V30 1521 H 143.404 -1.14444 -2.75148 0
M  V30 1522 H 140.941 -0.575769 -1.35364 0
M  V30 1523 H 142.899 0.962627 -4.05943 0
M  V30 1524 H 141.529 1.28029 -2.96325 0
M  V30 1525 H 140.581 -1.03724 -3.65986 0
M  V30 1526 H 141.893 -1.14767 -4.85417 0
M  V30 1527 H 141.047 0.911638 -5.99812 0
M  V30 1528 H 139.786 1.11105 -4.74876 0
M  V30 1529 H 138.791 -1.10396 -5.38603 0
M  V30 1530 H 140.016 -1.29032 -6.66729 0
M  V30 1531 H 137.962 0.946787 -6.49132 0
M  V30 1532 H 137.879 -0.424399 -7.54808 0
M  V30 1533 H 139.147 0.745876 -7.75923 0
M  V30 1534 N 143.376 1.44774 -0.622745 0
M  V30 1535 C 144.616 2.04004 -0.127102 0
M  V30 1536 C 144.98 1.47862 1.22478 0
M  V30 1537 O 146.181 1.98541 1.81204 0
M  V30 1538 C 144.452 3.57247 -0.104429 0
M  V30 1539 S 146.011 4.37574 0.327814 0
M  V30 1540 H 142.829 0.708713 -0.0569776 0
M  V30 1541 H 145.431 1.77275 -0.824253 0
M  V30 1542 H 144.135 3.95616 -1.09159 0
M  V30 1543 H 143.666 3.88575 0.614236 0
M  V30 1544 H 145.681 4.70575 1.57395 0
M  V30 1545 N 144.854 0.36279 1.53368 0
M  V30 1546 C 146.1 -0.228113 2.01513 0
M  V30 1547 C 146.433 -1.48648 1.2497 0
M  V30 1548 O 145.708 -1.91459 0.342616 0
M  V30 1549 C 145.991 -0.522884 3.56284 0
M  V30 1550 C 145.844 0.74892 4.43521 0
M  V30 1551 C 147.163 -1.32461 4.19693 0
M  V30 1552 H 144.282 -0.0814343 0.732487 0
M  V30 1553 H 146.924 0.48713 1.83649 0
M  V30 1554 H 145.074 -1.1322 3.71636 0
M  V30 1555 H 146.746 1.38648 4.39971 0
M  V30 1556 H 144.989 1.36986 4.11603 0
M  V30 1557 H 145.66 0.497667 5.49752 0
M  V30 1558 H 148.136 -0.809203 4.08156 0
M  V30 1559 H 147.012 -1.49961 5.28018 0
M  V30 1560 H 147.273 -2.33232 3.75573 0
M  V30 1561 N 146.332 -1.57332 0.0918853 0
M  V30 1562 C 147.579 -1.94236 -0.572577 0
M  V30 1563 C 147.907 -0.973398 -1.6839 0
M  V30 1564 O 147.162 0.00756912 -1.95699 0
M  V30 1565 C 147.461 -3.37689 -1.17051 0
M  V30 1566 C 147.127 -4.50527 -0.183304 0
M  V30 1567 C 145.789 -4.81119 0.0882276 0
M  V30 1568 C 148.141 -5.18883 0.49095 0
M  V30 1569 C 145.469 -5.77395 1.04076 0
M  V30 1570 C 147.821 -6.1618 1.43193 0
M  V30 1571 C 146.485 -6.45179 1.71173 0
M  V30 1572 H 145.755 -0.710762 -0.209521 0
M  V30 1573 H 148.402 -1.9077 0.167036 0
M  V30 1574 H 146.707 -3.37718 -1.9863 0
M  V30 1575 H 148.404 -3.63543 -1.69227 0
M  V30 1576 H 144.994 -4.26681 -0.405124 0
M  V30 1577 H 149.178 -4.95427 0.294312 0
M  V30 1578 H 144.434 -5.98179 1.26457 0
M  V30 1579 H 148.608 -6.68243 1.96023 0
M  V30 1580 H 146.235 -7.1959 2.4514 0
M  V30 1581 N 147.81 0.181792 -1.56548 0
M  V30 1582 C 148.743 1.25366 -1.90679 0
M  V30 1583 C 149.721 1.43299 -0.768376 0
M  V30 1584 O 150.905 1.58475 -1.02068 0
M  V30 1585 C 148.032 2.61826 -2.1486 0
M  V30 1586 C 147.078 2.60688 -3.37556 0
M  V30 1587 S 147.911 2.10804 -4.92262 0
M  V30 1588 C 149.067 3.49062 -5.19525 0
M  V30 1589 H 149.3 0.962277 -2.81296 0
M  V30 1590 H 146.833 0.385892 -1.495 0
M  V30 1591 H 148.791 3.40371 -2.29473 0
M  V30 1592 H 147.452 2.88169 -1.24969 0
M  V30 1593 H 146.645 3.61058 -3.51643 0
M  V30 1594 H 146.247 1.90232 -3.22006 0
M  V30 1595 H 148.539 4.45003 -5.10861 0
M  V30 1596 H 149.482 3.39859 -6.2121 0
M  V30 1597 H 149.89 3.4459 -4.47122 0
M  V30 1598 N 149.288 1.51039 0.449983 0
M  V30 1599 C 150.565 1.53612 1.21089 0
M  V30 1600 C 150.945 0.292997 2.09057 0
M  V30 1601 O 150.293 -0.72259 2.16774 0
M  V30 1602 C 150.503 2.84337 2.0237 0
M  V30 1603 C 151.851 3.35807 2.59843 0
M  V30 1604 O 152.875 2.85802 2.12593 0
M  V30 1605 O 151.734 4.23029 3.45989 0
M  V30 1606 H 148.828 0.617057 0.550608 0
M  V30 1607 H 151.374 1.63344 0.460082 0
M  V30 1608 H 150.146 3.66278 1.37681 0
M  V30 1609 H 149.769 2.77708 2.84542 0
M  V30 1610 N 150.766 -0.704594 1.40972 0
M  V30 1611 C 151.729 -1.80035 1.41845 0
M  V30 1612 C 152.729 -1.57774 0.310474 0
M  V30 1613 O 153.919 -1.64613 0.56992 0
M  V30 1614 C 151.051 -3.18284 1.22098 0
M  V30 1615 H 152.244 -1.80658 2.3938 0
M  V30 1616 H 149.797 -0.911329 1.26982 0
M  V30 1617 H 150.532 -3.23306 0.253672 0
M  V30 1618 H 150.317 -3.35843 2.02366 0
M  V30 1619 H 151.807 -3.98289 1.25522 0
M  V30 1620 N 152.244 -1.26651 -0.937939 0
M  V30 1621 C 153.521 -1.0313 -1.66204 0
M  V30 1622 C 153.901 0.437256 -2.06522 0
M  V30 1623 O 153.249 1.41831 -1.79154 0
M  V30 1624 C 153.459 -1.98314 -2.87181 0
M  V30 1625 C 154.807 -2.27107 -3.58758 0
M  V30 1626 O 155.831 -1.96205 -2.97291 0
M  V30 1627 O 154.69 -2.79736 -4.69479 0
M  V30 1628 H 151.784 -0.392384 -0.727986 0
M  V30 1629 H 154.33 -1.37874 -0.989382 0
M  V30 1630 H 153.102 -2.97399 -2.54302 0
M  V30 1631 H 152.725 -1.64068 -3.6217 0
M  V30 1632 N 153.722 1.14298 -1.08507 0
M  V30 1633 C 154.95 1.89219 -0.836876 0
M  V30 1634 C 155.365 1.78638 0.611054 0
M  V30 1635 O 154.722 1.14643 1.41998 0
M  V30 1636 C 154.773 3.39158 -1.25116 0
M  V30 1637 O 154.494 3.49449 -2.64229 0
M  V30 1638 C 155.995 4.31073 -1.03398 0
M  V30 1639 H 153.215 0.599328 -0.301739 0
M  V30 1640 H 155.759 1.44746 -1.44461 0
M  V30 1641 H 153.914 3.81251 -0.687514 0
M  V30 1642 H 154.328 4.42589 -2.81452 0
M  V30 1643 H 155.802 5.34646 -1.37323 0
M  V30 1644 H 156.279 4.3919 0.0289259 0
M  V30 1645 H 156.885 3.94738 -1.58311 0
M  V30 1646 N 155.201 0.870884 1.31352 0
M  V30 1647 C 156.131 0.343096 2.30966 0
M  V30 1648 C 157.112 -0.566507 1.60389 0
M  V30 1649 O 158.297 -0.483336 1.88089 0
M  V30 1650 C 155.427 -0.455487 3.443 0
M  V30 1651 C 154.381 0.361103 4.26474 0
M  V30 1652 C 153.707 -0.563221 5.31725 0
M  V30 1653 C 155.007 1.59566 4.97329 0
M  V30 1654 H 156.701 1.17548 2.75359 0
M  V30 1655 H 154.247 0.566686 1.32381 0
M  V30 1656 H 156.2 -0.83525 4.13039 0
M  V30 1657 H 154.924 -1.32139 2.98675 0
M  V30 1658 H 153.583 0.722825 3.59403 0
M  V30 1659 H 153.231 -1.42643 4.82351 0
M  V30 1660 H 152.931 -0.0207409 5.87596 0
M  V30 1661 H 154.455 -0.939808 6.03324 0
M  V30 1662 H 155.869 1.28728 5.58661 0
M  V30 1663 H 154.266 2.07728 5.63 0
M  V30 1664 H 155.336 2.34798 4.24262 0
M  V30 1665 N 156.679 -1.44442 0.630414 0
M  V30 1666 C 157.925 -2.02351 0.134816 0
M  V30 1667 C 158.258 -1.4947 -1.23986 0
M  V30 1668 O 157.533 -0.678475 -1.82283 0
M  V30 1669 C 157.816 -3.59898 0.120707 0
M  V30 1670 C 157.669 -4.23063 1.52767 0
M  V30 1671 C 158.988 -4.36585 -0.555127 0
M  V30 1672 H 156.107 -0.73527 0.0504646 0
M  V30 1673 H 158.749 -1.72022 0.806751 0
M  V30 1674 H 156.899 -3.85868 -0.451477 0
M  V30 1675 H 158.571 -4.08202 2.14869 0
M  V30 1676 H 156.814 -3.80586 2.08175 0
M  V30 1677 H 157.485 -5.32071 1.46984 0
M  V30 1678 H 159.961 -4.16044 -0.0685429 0
M  V30 1679 H 158.837 -5.46294 -0.534185 0
M  V30 1680 H 159.098 -4.11138 -1.62535 0
M  V30 1681 N 158.157 -0.370918 -1.53173 0
M  V30 1682 C 159.087 0.464847 -2.28826 0
M  V30 1683 C 160.068 1.07936 -1.31468 0
M  V30 1684 O 161.253 1.0956 -1.60344 0
M  V30 1685 C 158.383 1.60196 -3.08147 0
M  V30 1686 C 157.337 1.11443 -4.13237 0
M  V30 1687 C 156.663 2.3422 -4.80672 0
M  V30 1688 C 157.963 0.195384 -5.21934 0
M  V30 1689 H 159.657 -0.166329 -2.98938 0
M  V30 1690 H 157.203 -0.0814359 -1.4377 0
M  V30 1691 H 159.156 2.19332 -3.59822 0
M  V30 1692 H 157.88 2.26045 -2.35735 0
M  V30 1693 H 156.539 0.545727 -3.62515 0
M  V30 1694 H 156.187 2.98537 -4.04827 0
M  V30 1695 H 155.887 2.02269 -5.51689 0
M  V30 1696 H 157.411 2.94032 -5.35143 0
M  V30 1697 H 158.825 0.694375 -5.69079 0
M  V30 1698 H 157.222 -0.0335027 -6.00091 0
M  V30 1699 H 158.292 -0.760961 -4.78892 0
M  V30 1700 N 159.635 1.57281 -0.100228 0
M  V30 1701 C 160.598 2.13158 0.842398 0
M  V30 1702 C 161.598 1.06202 1.20738 0
M  V30 1703 O 162.788 1.32066 1.13597 0
M  V30 1704 C 159.92 2.65639 2.13655 0
M  V30 1705 H 161.113 2.97766 0.357114 0
M  V30 1706 H 158.666 1.5559 0.148823 0
M  V30 1707 H 159.401 1.84566 2.66657 0
M  V30 1708 H 159.186 3.43844 1.88451 0
M  V30 1709 H 160.676 3.08846 2.81077 0
M  V30 1710 N 161.113 -0.173488 1.56642 0
M  V30 1711 C 162.061 -1.23417 1.97157 0
M  V30 1712 C 163.055 -1.45946 0.860013 0
M  V30 1713 O 164.261 -1.46551 1.04512 0
M  V30 1714 H 160.636 -0.414818 0.62724 0
M  V30 1715 H 162.607 -0.865582 2.8557 0
M  V30 1716 C 161.356 -2.5665 2.34576 0
M  V30 1717 H 160.679 -2.40137 3.19647 0
M  V30 1718 H 162.119 -3.2956 2.6677 0
M  V30 1719 C 160.578 -3.15245 1.18836 0
M  V30 1720 O 161.108 -3.98883 0.474869 0
M  V30 1721 N 159.314 -2.74303 0.959497 0
M  V30 1722 H 158.861 -2.0639 1.54146 0
M  V30 1723 H 158.819 -3.13844 0.186932 0
M  V30 1724 N 162.591 -1.51276 -0.441967 0
M  V30 1725 C 163.84 -1.6295 -1.18871 0
M  V30 1726 C 164.153 -0.349312 -1.92456 0
M  V30 1727 O 165.359 -0.345355 -2.69295 0
M  V30 1728 C 163.815 -2.87759 -2.16155 0
M  V30 1729 C 163.423 -4.22764 -1.48239 0
M  V30 1730 C 165.167 -3.08788 -2.91291 0
M  V30 1731 C 163.074 -5.38728 -2.4398 0
M  V30 1732 H 162.004 -0.606913 -0.447406 0
M  V30 1733 H 164.655 -1.77739 -0.456205 0
M  V30 1734 H 163.037 -2.66593 -2.92821 0
M  V30 1735 H 164.211 -4.54293 -0.771635 0
M  V30 1736 H 162.526 -4.07575 -0.852741 0
M  V30 1737 H 165.123 -3.92599 -3.63002 0
M  V30 1738 H 165.466 -2.21679 -3.5237 0
M  V30 1739 H 165.999 -3.30272 -2.21733 0
M  V30 1740 H 162.738 -6.28082 -1.87598 0
M  V30 1741 H 162.258 -5.1158 -3.13123 0
M  V30 1742 H 163.937 -5.70489 -3.05207 0
M  V30 1743 N 164.069 0.697108 -1.41344 0
M  V30 1744 C 165.346 1.45154 -1.31109 0
M  V30 1745 C 165.726 2.11009 0.0620449 0
M  V30 1746 O 165.074 2.01571 1.07618 0
M  V30 1747 C 165.284 2.47223 -2.46337 0
M  V30 1748 C 166.632 3.1252 -2.87431 0
M  V30 1749 O 167.656 2.57547 -2.46065 0
M  V30 1750 O 166.515 4.12083 -3.58957 0
M  V30 1751 H 163.609 0.646365 -0.515889 0
M  V30 1752 H 166.155 0.727716 -1.53305 0
M  V30 1753 H 164.927 1.97204 -3.37974 0
M  V30 1754 H 164.55 3.27116 -2.2601 0
M  V30 1755 N 165.547 1.27147 0.931209 0
M  V30 1756 C 166.824 1.0401 1.65654 0
M  V30 1757 C 167.204 -0.426297 2.06751 0
M  V30 1758 O 166.552 -1.40879 1.79904 0
M  V30 1759 C 166.762 1.99834 2.86125 0
M  V30 1760 C 168.11 2.29007 3.57549 0
M  V30 1761 O 169.134 1.97779 2.96246 0
M  V30 1762 O 167.993 2.82222 4.67989 0
M  V30 1763 H 165.087 0.396239 0.725895 0
M  V30 1764 H 167.633 1.38397 0.982056 0
M  V30 1765 H 166.405 2.98744 2.52721 0
M  V30 1766 H 166.028 1.65987 3.61295 0
M  V30 1767 N 167.025 -1.13721 1.09112 0
M  V30 1768 C 167.955 -2.21148 0.749385 0
M  V30 1769 C 168.936 -1.6792 -0.271475 0
M  V30 1770 O 170.121 -1.93693 -0.140251 0
M  V30 1771 C 167.251 -3.46905 0.165659 0
M  V30 1772 C 166.205 -4.13203 1.11567 0
M  V30 1773 C 165.531 -5.33248 0.393809 0
M  V30 1774 C 166.831 -4.60912 2.45678 0
M  V30 1775 H 168.525 -2.4999 1.64758 0
M  V30 1776 H 166.071 -1.20156 0.793626 0
M  V30 1777 H 168.024 -4.21313 -0.085466 0
M  V30 1778 H 166.748 -3.17449 -0.767714 0
M  V30 1779 H 165.407 -3.40758 1.35202 0
M  V30 1780 H 165.055 -5.00054 -0.543599 0
M  V30 1781 H 164.755 -5.78552 1.02721 0
M  V30 1782 H 166.279 -6.10413 0.150908 0
M  V30 1783 H 167.693 -5.26759 2.26269 0
M  V30 1784 H 166.09 -5.16944 3.04776 0
M  V30 1785 H 167.16 -3.75603 3.06677 0
M  V30 1786 N 168.503 -0.877838 -1.30888 0
M  V30 1787 C 169.75 -0.492696 -1.96415 0
M  V30 1788 C 170.078 0.956671 -1.69346 0
M  V30 1789 O 169.333 1.68993 -0.986913 0
M  V30 1790 C 169.632 -0.705748 -3.50363 0
M  V30 1791 C 169.298 -2.1291 -3.97467 0
M  V30 1792 C 167.96 -2.51834 -4.1004 0
M  V30 1793 C 170.312 -3.05702 -4.22132 0
M  V30 1794 C 167.64 -3.82775 -4.44635 0
M  V30 1795 C 169.992 -4.36166 -4.58194 0
M  V30 1796 C 168.656 -4.74993 -4.68975 0
M  V30 1797 H 167.926 -0.18029 -0.718733 0
M  V30 1798 H 170.573 -1.11233 -1.55883 0
M  V30 1799 H 168.878 -0.00303058 -3.918 0
M  V30 1800 H 170.575 -0.387456 -3.99124 0
M  V30 1801 H 167.165 -1.81694 -3.88182 0
M  V30 1802 H 171.349 -2.76853 -4.11906 0
M  V30 1803 H 166.605 -4.12609 -4.51181 0
M  V30 1804 H 170.779 -5.08111 -4.76231 0
M  V30 1805 H 168.406 -5.76495 -4.95537 0
M  V30 1806 N 169.982 1.44106 -0.638065 0
M  V30 1807 C 171.259 1.95453 -0.0759321 0
M  V30 1808 C 171.639 1.57984 1.40015 0
M  V30 1809 O 170.987 0.857361 2.11806 0
M  V30 1810 C 171.197 3.47655 -0.306132 0
M  V30 1811 C 172.545 4.24114 -0.203008 0
M  V30 1812 O 173.569 3.55405 -0.237871 0
M  V30 1813 O 172.428 5.46381 -0.113827 0
M  V30 1814 H 169.522 0.826797 0.0183332 0
M  V30 1815 H 172.068 1.54122 -0.710251 0
M  V30 1816 H 170.84 3.68 -1.3301 0
M  V30 1817 H 170.463 3.95949 0.361991 0
M  V30 1818 N 171.46 0.379036 1.52974 0
M  V30 1819 C 172.876 0.0285448 1.59574 0
M  V30 1820 C 173.076 -1.45542 1.39355 0
M  V30 1821 O 172.132 -2.2187 1.20541 0
M  V30 1822 C 173.445 0.496535 2.96572 0
M  V30 1823 C 174.993 0.451909 3.0972 0
M  V30 1824 C 175.468 0.895924 4.49152 0
M  V30 1825 N 176.959 0.851522 4.55306 0
M  V30 1826 C 177.694 1.16661 5.61407 0
M  V30 1827 N 177.19 1.55166 6.752 0
M  V30 1828 N 178.983 1.08853 5.51459 0
M  V30 1829 H 171.134 1.34525 1.64367 0
M  V30 1830 H 173.397 0.550733 0.771619 0
M  V30 1831 H 173.103 1.53258 3.16552 0
M  V30 1832 H 172.977 -0.109802 3.7704 0
M  V30 1833 H 175.364 -0.575029 2.89443 0
M  V30 1834 H 175.445 1.09392 2.3123 0
M  V30 1835 H 175.089 1.92104 4.70168 0
M  V30 1836 H 175.019 0.23103 5.26093 0
M  V30 1837 H 177.51 0.568038 3.73606 0
M  V30 1838 H 177.823 1.776 7.52116 0
M  V30 1839 H 176.168 1.59044 6.76557 0
M  V30 1840 H 179.359 0.786803 4.6144 0
M  V30 1841 H 179.532 1.33742 6.34048 0
M  V30 1842 N 172.938 -1.57226 0.108567 0
M  V30 1843 C 173.848 -2.18292 -0.859401 0
M  V30 1844 C 174.864 -1.15612 -1.30038 0
M  V30 1845 O 176.04 -1.48039 -1.36552 0
M  V30 1846 C 173.105 -2.762 -2.09558 0
M  V30 1847 C 172.166 -3.93881 -1.70752 0
M  V30 1848 C 171.399 -4.49018 -2.88477 0
M  V30 1849 O 171.622 -4.03068 -4.036 0
M  V30 1850 O 170.556 -5.39852 -2.66164 0
M  V30 1851 H 174.382 -3.01441 -0.369769 0
M  V30 1852 H 171.967 -1.48945 -0.1165 0
M  V30 1853 H 173.849 -3.13156 -2.81978 0
M  V30 1854 H 172.524 -1.96089 -2.57548 0
M  V30 1855 H 171.431 -3.61713 -0.954714 0
M  V30 1856 H 172.764 -4.75396 -1.27513 0
M  V30 1857 N 174.416 0.165178 -1.56732 0
M  V30 1858 C 175.326 1.22423 -2.00125 0
M  V30 1859 C 176.342 1.48084 -0.913619 0
M  V30 1860 O 177.518 1.60112 -1.22172 0
M  V30 1861 C 174.583 2.54197 -2.35764 0
M  V30 1862 C 173.644 2.36343 -3.58386 0
M  V30 1863 C 172.877 3.61834 -3.92316 0
M  V30 1864 O 173.1 4.67267 -3.27135 0
M  V30 1865 O 172.034 3.55579 -4.85641 0
M  V30 1866 H 175.86 0.885886 -2.90492 0
M  V30 1867 H 173.445 0.372518 -1.44681 0
M  V30 1868 H 175.327 3.3192 -2.59629 0
M  V30 1869 H 174.002 2.87598 -1.48557 0
M  V30 1870 H 172.909 1.56632 -3.39731 0
M  V30 1871 H 174.242 2.07865 -4.46154 0
M  V30 1872 N 175.894 1.51508 0.433938 0
M  V30 1873 C 176.824 1.76016 1.53429 0
M  V30 1874 C 177.805 0.610112 1.58782 0
M  V30 1875 O 178.99 0.853177 1.74455 0
M  V30 1876 C 176.12 1.88831 2.9148 0
M  V30 1877 C 175.074 3.04288 3.00987 0
M  V30 1878 C 174.4 3.0229 4.4105 0
M  V30 1879 C 175.7 4.44193 2.74754 0
M  V30 1880 H 177.394 2.68152 1.33171 0
M  V30 1881 H 174.94 1.29035 0.639214 0
M  V30 1882 H 176.893 2.04559 3.6842 0
M  V30 1883 H 175.617 0.933455 3.12976 0
M  V30 1884 H 174.276 2.8827 2.26486 0
M  V30 1885 H 173.924 2.04576 4.59519 0
M  V30 1886 H 173.624 3.79822 4.4834 0
M  V30 1887 H 175.148 3.20116 5.1996 0
M  V30 1888 H 176.562 4.60544 3.41426 0
M  V30 1889 H 174.959 5.23457 2.9345 0
M  V30 1890 H 176.029 4.53996 1.70339 0
M  V30 1891 N 177.372 -0.689602 1.41712 0
M  V30 1892 C 178.597 -1.48329 1.44959 0
M  V30 1893 C 179.022 -1.8801 0.0581283 0
M  V30 1894 O 178.38 -1.55026 -0.940035 0
M  V30 1895 C 178.428 -2.71835 2.36935 0
M  V30 1896 O 177.532 -3.69549 1.8305 0
M  V30 1897 H 176.873 -0.446199 0.491734 0
M  V30 1898 H 179.403 -0.847127 1.86239 0
M  V30 1899 H 179.413 -3.20076 2.53013 0
M  V30 1900 H 178.088 -2.42291 3.38035 0
M  V30 1901 H 176.665 -3.2851 1.76452 0
M  V30 1902 N 178.85 -1.27639 -0.924453 0
M  V30 1903 C 179.813 -1.10681 -2.00705 0
M  V30 1904 C 180.813 -0.0497823 -1.60723 0
M  V30 1905 O 182.003 -0.294654 -1.7169 0
M  V30 1906 C 179.135 -0.687164 -3.33902 0
M  V30 1907 H 180.328 -2.06817 -2.17179 0
M  V30 1908 H 177.881 -1.10473 -1.10569 0
M  V30 1909 H 178.616 0.275439 -3.23128 0
M  V30 1910 H 178.401 -1.45061 -3.6428 0
M  V30 1911 H 179.891 -0.590853 -4.13399 0
M  V30 1912 N 180.328 1.1314 -1.09713 0
M  V30 1913 C 181.291 2.16831 -0.742751 0
M  V30 1914 C 182.291 1.59159 0.229129 0
M  V30 1915 O 183.481 1.74199 0.00693237 0
M  V30 1916 C 180.613 3.40756 -0.0989168 0
M  V30 1917 H 181.806 2.49695 -1.66109 0
M  V30 1918 H 179.359 1.2802 -0.896699 0
M  V30 1919 H 180.094 3.13485 0.830514 0
M  V30 1920 H 179.879 3.83888 -0.798265 0
M  V30 1921 H 181.369 4.17386 0.133524 0
M  V30 1922 N 181.806 0.884767 1.30421 0
M  V30 1923 C 183.217 0.553656 1.78302 0
M  V30 1924 C 183.568 -0.930153 1.7275 0
M  V30 1925 O 182.693 -1.72681 1.30423 0
M  V30 1926 C 183.288 0.998234 3.2376 0
M  V30 1927 C 181.847 0.71854 3.69478 0
M  V30 1928 C 180.994 1.18132 2.50879 0
M  V30 1929 H 183.945 1.06901 1.17294 0
M  V30 1930 H 183.966 0.327118 3.79091 0
M  V30 1931 H 183.478 2.0782 3.27769 0
M  V30 1932 H 181.579 -0.349444 3.70958 0
M  V30 1933 H 181.692 1.30595 4.60958 0
M  V30 1934 H 180.056 0.600669 2.47516 0
M  V30 1935 H 180.839 2.26902 2.57624 0
M  V30 1936 N 183.284 -1.43765 0.645699 0
M  V30 1937 C 184.561 -1.9541 0.0862963 0
M  V30 1938 C 184.941 -1.58725 -1.39175 0
M  V30 1939 O 184.289 -0.868581 -2.11348 0
M  V30 1940 C 184.499 -3.47488 0.324565 0
M  V30 1941 C 185.847 -4.24001 0.225497 0
M  V30 1942 O 186.871 -3.55274 0.256715 0
M  V30 1943 O 185.73 -5.46313 0.142801 0
M  V30 1944 H 182.824 -0.826882 -0.0139483 0
M  V30 1945 H 185.37 -1.53743 0.718415 0
M  V30 1946 H 184.142 -3.67289 1.3496 0
M  V30 1947 H 183.765 -3.96135 -0.340987 0
M  V30 1948 N 184.763 -0.387143 -1.52771 0
M  V30 1949 C 186.174 0.0873634 -1.86495 0
M  V30 1950 C 186.525 1.46336 -1.30691 0
M  V30 1951 O 185.65 2.068 -0.637409 0
M  V30 1952 C 186.245 0.165305 -3.38396 0
M  V30 1953 C 184.804 0.584101 -3.7184 0
M  V30 1954 C 183.951 -0.255279 -2.76122 0
M  V30 1955 H 186.902 -0.605104 -1.46711 0
M  V30 1956 H 186.923 0.984848 -3.67534 0
M  V30 1957 H 186.435 -0.836301 -3.78982 0
M  V30 1958 H 184.536 1.59315 -3.36823 0
M  V30 1959 H 184.649 0.343749 -4.77865 0
M  V30 1960 H 183.013 0.279126 -2.53166 0
M  V30 1961 H 183.796 -1.25482 -3.19545 0
M  V30 1962 N 186.241 1.57166 -0.116904 0
M  V30 1963 C 187.489 1.94737 0.540533 0
M  V30 1964 C 187.81 1.00096 1.67349 0
M  V30 1965 O 187.08 0.0568854 1.95817 0
M  V30 1966 H 185.66 0.718981 0.202669 0
M  V30 1967 H 188.322 1.94017 -0.185353 0
M  V30 1968 H 187.418 2.97719 0.936483 0
M  V30 1969 N 187.719 -0.156864 1.56817 0
M  V30 1970 C 188.965 -0.867645 1.83966 0
M  V30 1971 C 189.32 -1.79233 0.699511 0
M  V30 1972 O 188.613 -1.89186 -0.303176 0
M  V30 1973 C 188.807 -1.68737 3.1506 0
M  V30 1974 C 188.636 -0.843548 4.41718 0
M  V30 1975 C 187.406 -0.512994 5.02689 0
M  V30 1976 C 189.604 -0.178416 5.1399 0
M  V30 1977 N 187.586 0.345456 6.12927 0
M  V30 1978 C 188.957 0.540586 6.17639 0
M  V30 1979 C 191.012 -0.0980696 4.97803 0
M  V30 1980 C 189.715 1.33233 7.06853 0
M  V30 1981 C 191.741 0.680387 5.87473 0
M  V30 1982 C 191.103 1.3877 6.90596 0
M  V30 1983 H 187.202 -0.295642 0.723961 0
M  V30 1984 H 189.786 -0.13365 1.94241 0
M  V30 1985 H 187.957 -2.39268 3.0595 0
M  V30 1986 H 189.689 -2.34056 3.30151 0
M  V30 1987 H 186.444 -0.846476 4.65974 0
M  V30 1988 H 186.868 0.765415 6.72659 0
M  V30 1989 H 191.51 -0.630562 4.18071 0
M  V30 1990 H 189.228 1.87612 7.8602 0
M  V30 1991 H 192.814 0.744415 5.77018 0
M  V30 1992 H 191.694 1.9804 7.58782 0
M  V30 1993 N 189.197 -1.51736 -0.425897 0
M  V30 1994 C 190.608 -1.5732 -1.00536 0
M  V30 1995 C 190.959 -0.403537 -1.92005 0
M  V30 1996 O 190.084 0.478256 -2.11049 0
M  V30 1997 C 190.679 -2.85119 -1.8301 0
M  V30 1998 C 189.238 -2.93236 -2.35987 0
M  V30 1999 C 188.385 -2.52098 -1.15508 0
M  V30 2000 H 191.336 -1.57348 -0.206739 0
M  V30 2001 H 191.357 -2.69526 -2.68581 0
M  V30 2002 H 190.869 -3.7023 -1.16411 0
M  V30 2003 H 188.97 -2.12581 -3.06007 0
M  V30 2004 H 189.083 -3.9713 -2.68001 0
M  V30 2005 H 187.447 -2.05558 -1.50393 0
M  V30 2006 H 188.23 -3.39565 -0.505014 0
M  V30 2007 N 190.675 0.682077 -1.42076 0
M  V30 2008 C 191.952 1.43755 -1.32642 0
M  V30 2009 C 192.332 2.11063 0.0396611 0
M  V30 2010 O 191.68 2.02701 1.05474 0
M  V30 2011 C 191.89 2.44596 -2.48946 0
M  V30 2012 C 193.238 3.09454 -2.9073 0
M  V30 2013 O 194.262 2.54922 -2.48783 0
M  V30 2014 O 193.121 4.08253 -3.63307 0
M  V30 2015 H 190.215 0.640857 -0.522715 0
M  V30 2016 H 192.761 0.711415 -1.54068 0
M  V30 2017 H 191.533 1.93609 -3.40046 0
M  V30 2018 H 191.156 3.24701 -2.29467 0
M  V30 2019 N 192.153 1.28127 0.917671 0
M  V30 2020 C 193.393 1.163 1.68088 0
M  V30 2021 C 193.757 -0.284515 1.8988 0
M  V30 2022 O 194.958 -0.525413 2.63615 0
M  V30 2023 C 193.229 1.93546 3.00457 0
M  V30 2024 S 194.788 1.98048 3.91564 0
M  V30 2025 H 191.606 0.415005 0.577315 0
M  V30 2026 H 194.208 1.62173 1.09179 0
M  V30 2027 H 192.912 2.97888 2.82295 0
M  V30 2028 H 192.443 1.48207 3.64415 0
M  V30 2029 H 194.458 1.08415 4.84211 0
M  V30 2030 N 193.631 -1.12557 1.10312 0
M  V30 2031 C 194.878 -1.84038 0.844759 0
M  V30 2032 C 195.206 -1.84026 -0.629668 0
M  V30 2033 O 194.461 -1.28026 -1.48013 0
M  V30 2034 C 194.76 -3.31462 1.33669 0
M  V30 2035 C 194.426 -3.51647 2.82232 0
M  V30 2036 C 193.088 -3.56864 3.22802 0
M  V30 2037 C 195.44 -3.58867 3.77974 0
M  V30 2038 C 192.768 -3.66844 4.57867 0
M  V30 2039 C 195.12 -3.70375 5.1284 0
M  V30 2040 C 193.784 -3.73848 5.52986 0
M  V30 2041 H 193.054 -0.673444 0.309119 0
M  V30 2042 H 195.701 -1.32824 1.37949 0
M  V30 2043 H 194.006 -3.85091 0.721949 0
M  V30 2044 H 195.703 -3.85236 1.11329 0
M  V30 2045 H 192.293 -3.48249 2.49842 0
M  V30 2046 H 196.477 -3.54107 3.47738 0
M  V30 2047 H 191.733 -3.67804 4.88396 0
M  V30 2048 H 195.907 -3.74904 5.86873 0
M  V30 2049 H 193.534 -3.81333 6.57639 0
M  V30 2050 N 195.109 -0.891671 -1.2995 0
M  V30 2051 C 196.057 -0.353066 -2.29905 0
M  V30 2052 C 197.051 0.543509 -1.60444 0
M  V30 2053 O 198.257 0.4272 -1.74857 0
M  V30 2054 H 194.632 -0.095531 -0.745907 0
M  V30 2055 H 196.603 -1.20961 -2.72784 0
M  V30 2056 C 195.352 0.411475 -3.45257 0
M  V30 2057 H 194.675 -0.269182 -3.98893 0
M  V30 2058 H 196.115 0.753328 -4.17254 0
M  V30 2059 C 194.574 1.6111 -2.9588 0
M  V30 2060 O 195.104 2.71045 -2.96475 0
M  V30 2061 N 193.31 1.45054 -2.51809 0
M  V30 2062 H 192.857 0.556175 -2.51524 0
M  V30 2063 H 192.815 2.25453 -2.1913 0
M  V30 2064 N 196.587 1.43421 -0.653314 0
M  V30 2065 C 197.812 2.06678 -0.172846 0
M  V30 2066 C 198.237 1.48648 1.15262 0
M  V30 2067 O 197.595 0.596457 1.71208 0
M  V30 2068 C 197.643 3.60474 -0.0953184 0
M  V30 2069 O 196.747 4.01487 0.942442 0
M  V30 2070 H 196.088 0.657181 -0.0949155 0
M  V30 2071 H 198.618 1.83925 -0.896265 0
M  V30 2072 H 198.628 4.07905 0.0879728 0
M  V30 2073 H 197.303 4.02088 -1.06291 0
M  V30 2074 H 195.88 3.65646 0.731932 0
M  V30 2075 N 198.065 0.39524 1.52563 0
M  V30 2076 C 199.313 -0.184678 2.01254 0
M  V30 2077 C 199.634 -1.46822 1.28329 0
M  V30 2078 O 198.904 -1.91666 0.405094 0
M  V30 2079 H 197.484 -0.0712355 0.743596 0
M  V30 2080 H 200.146 0.528293 1.87603 0
M  V30 2081 H 199.242 -0.390681 3.09645 0
M  V30 2082 N 199.544 -1.57102 0.125237 0
M  V30 2083 C 200.79 -1.95697 -0.532035 0
M  V30 2084 C 201.123 -1.009 -1.6593 0
M  V30 2085 O 200.398 -0.047347 -1.94442 0
M  V30 2086 C 200.681 -3.44181 -1.05884 0
M  V30 2087 C 200.534 -4.49752 0.0654392 0
M  V30 2088 C 201.853 -3.94655 -1.9477 0
M  V30 2089 H 198.972 -0.711571 -0.191925 0
M  V30 2090 H 201.614 -1.88923 0.20206 0
M  V30 2091 H 199.764 -3.50085 -1.68442 0
M  V30 2092 H 201.436 -4.55943 0.700982 0
M  V30 2093 H 199.679 -4.27653 0.727709 0
M  V30 2094 H 200.35 -5.50924 -0.344505 0
M  V30 2095 H 202.826 -3.91094 -1.42074 0
M  V30 2096 H 201.702 -4.99057 -2.28546 0
M  V30 2097 H 201.963 -3.35718 -2.87656 0
M  V30 2098 N 201.022 0.148545 -1.56898 0
M  V30 2099 C 202.269 0.861418 -1.83264 0
M  V30 2100 C 202.597 1.81239 -0.705883 0
M  V30 2101 O 201.852 1.93305 0.305212 0
M  V30 2102 C 202.151 1.67064 -3.1595 0
M  V30 2103 C 201.817 0.866591 -4.42494 0
M  V30 2104 C 200.479 0.644762 -4.76861 0
M  V30 2105 C 202.831 0.30418 -5.20312 0
M  V30 2106 C 200.159 -0.15021 -5.86508 0
M  V30 2107 C 202.511 -0.477824 -6.30793 0
M  V30 2108 C 201.175 -0.710244 -6.63711 0
M  V30 2109 H 200.445 0.315215 -0.670612 0
M  V30 2110 H 203.092 0.125142 -1.91091 0
M  V30 2111 H 201.397 2.47698 -3.03567 0
M  V30 2112 H 203.094 2.22566 -3.33565 0
M  V30 2113 H 199.684 1.04955 -4.15551 0
M  V30 2114 H 203.868 0.462844 -4.94137 0
M  V30 2115 H 199.124 -0.339796 -6.10455 0
M  V30 2116 H 203.298 -0.92076 -6.90286 0
M  V30 2117 H 200.925 -1.3281 -7.48509 0
M  V30 2118 N 202.5 1.5196 0.417844 0
M  V30 2119 C 203.746 1.65836 1.16732 0
M  V30 2120 C 204.079 0.382881 1.90388 0
M  V30 2121 O 203.354 -0.618368 1.84408 0
M  V30 2122 C 203.637 2.87466 2.16876 0
M  V30 2123 C 203.49 4.25041 1.47174 0
M  V30 2124 C 204.809 3.04613 3.17646 0
M  V30 2125 H 201.928 0.603515 0.423011 0
M  V30 2126 H 204.57 1.84494 0.454105 0
M  V30 2127 H 202.72 2.71689 2.777 0
M  V30 2128 H 204.392 4.52527 0.895376 0
M  V30 2129 H 202.635 4.26843 0.773806 0
M  V30 2130 H 203.306 5.06176 2.20204 0
M  V30 2131 H 205.782 3.1923 2.66892 0
M  V30 2132 H 204.658 3.91247 3.8499 0
M  V30 2133 H 204.919 2.17541 3.84874 0
M  V30 2134 N 203.978 -0.674533 1.42435 0
M  V30 2135 C 205.208 -1.46071 1.46105 0
M  V30 2136 C 205.616 -1.89067 0.0709605 0
M  V30 2137 O 204.959 -1.58731 -0.924677 0
M  V30 2138 C 205.021 -2.74145 2.32561 0
M  V30 2139 C 204.685 -2.53224 3.8043 0
M  V30 2140 C 205.682 -2.17809 4.72075 0
M  V30 2141 C 203.367 -2.6821 4.24698 0
M  V30 2142 C 205.361 -1.97648 6.05982 0
M  V30 2143 C 203.048 -2.47665 5.58664 0
M  V30 2144 C 204.046 -2.12437 6.49122 0
M  V30 2145 O 203.734 -1.9209 7.80613 0
M  V30 2146 H 203.466 -0.455959 0.499076 0
M  V30 2147 H 206.02 -0.836193 1.87609 0
M  V30 2148 H 204.25 -3.3908 1.85908 0
M  V30 2149 H 205.939 -3.36028 2.27683 0
M  V30 2150 H 206.705 -2.05826 4.39159 0
M  V30 2151 H 202.584 -2.94609 3.54579 0
M  V30 2152 H 206.128 -1.70075 6.7655 0
M  V30 2153 H 202.025 -2.59244 5.91154 0
M  V30 2154 H 202.793 -2.06686 7.91974 0
M  V30 2155 N 205.456 -1.28612 -0.910864 0
M  V30 2156 C 206.388 -1.08589 -2.01844 0
M  V30 2157 C 207.401 -0.0367419 -1.62759 0
M  V30 2158 O 208.59 -0.280101 -1.76289 0
M  V30 2159 C 205.69 -0.628626 -3.33019 0
M  V30 2160 C 204.863 -1.75382 -4.00699 0
M  V30 2161 C 203.922 -1.28945 -5.10156 0
M  V30 2162 O 202.948 -1.9922 -5.33198 0
M  V30 2163 N 204.15 -0.154224 -5.80295 0
M  V30 2164 H 206.915 -2.03973 -2.19579 0
M  V30 2165 H 204.476 -1.20403 -1.08234 0
M  V30 2166 H 206.468 -0.301508 -4.03575 0
M  V30 2167 H 205.038 0.232451 -3.11735 0
M  V30 2168 H 204.258 -2.25039 -3.23653 0
M  V30 2169 H 205.546 -2.50854 -4.42662 0
M  V30 2170 H 204.944 0.43194 -5.64049 0
M  V30 2171 H 203.501 0.113599 -6.51701 0
M  V30 2172 N 206.934 1.1197 -1.10907 0
M  V30 2173 C 208.345 1.65114 -0.871446 0
M  V30 2174 C 208.696 1.86885 0.597353 0
M  V30 2175 O 207.821 1.59896 1.45816 0
M  V30 2176 C 208.416 2.99944 -1.5754 0
M  V30 2177 C 206.975 3.50018 -1.38435 0
M  V30 2178 C 206.122 2.24941 -1.62164 0
M  V30 2179 H 209.073 0.956851 -1.2661 0
M  V30 2180 H 209.094 3.66651 -1.01721 0
M  V30 2181 H 208.606 2.84067 -2.64438 0
M  V30 2182 H 206.707 3.71071 -0.337214 0
M  V30 2183 H 206.82 4.29165 -2.12965 0
M  V30 2184 H 205.184 2.3229 -1.04467 0
M  V30 2185 H 205.967 2.11612 -2.70324 0
M  V30 2186 N 208.412 0.89855 1.29475 0
M  V30 2187 C 209.637 0.538561 2.00285 0
M  V30 2188 C 210.062 -0.869135 1.66816 0
M  V30 2189 O 209.42 -1.57831 0.892145 0
M  V30 2190 C 209.468 0.736475 3.52999 0
M  V30 2191 O 208.572 -0.211537 4.11857 0
M  V30 2192 H 207.913 0.210563 0.62973 0
M  V30 2193 H 210.443 1.20982 1.64998 0
M  V30 2194 H 210.453 0.640685 4.02938 0
M  V30 2195 H 209.128 1.76276 3.76696 0
M  V30 2196 H 207.705 -0.0682991 3.72837 0
M  V30 2197 N 209.89 -1.43072 0.660911 0
M  V30 2198 C 211.136 -2.0202 0.177708 0
M  V30 2199 C 211.469 -1.52066 -1.20787 0
M  V30 2200 O 210.744 -0.716987 -1.80802 0
M  V30 2201 C 211.027 -3.59561 0.197019 0
M  V30 2202 C 210.88 -4.19727 1.61706 0
M  V30 2203 C 212.199 -4.37664 -0.462396 0
M  V30 2204 H 209.318 -0.734034 0.0660494 0
M  V30 2205 H 211.96 -1.70272 0.843058 0
M  V30 2206 H 210.11 -3.86739 -0.369527 0
M  V30 2207 H 211.782 -4.03553 2.23479 0
M  V30 2208 H 210.025 -3.76084 2.16201 0
M  V30 2209 H 210.696 -5.28834 1.58237 0
M  V30 2210 H 213.172 -4.16095 0.0197215 0
M  V30 2211 H 212.048 -5.47305 -0.418188 0
M  V30 2212 H 212.309 -4.14493 -1.53778 0
M  V30 2213 N 211.368 -0.403325 -1.52352 0
M  V30 2214 C 212.278 0.432009 -2.30588 0
M  V30 2215 C 213.294 1.05884 -1.38075 0
M  V30 2216 O 214.47 1.06161 -1.71148 0
M  V30 2217 C 211.535 1.53669 -3.10784 0
M  V30 2218 C 210.596 0.933525 -4.19027 0
M  V30 2219 C 209.829 1.98557 -4.9539 0
M  V30 2220 O 210.052 3.20283 -4.71991 0
M  V30 2221 O 208.986 1.59504 -5.80381 0
M  V30 2222 H 212.812 -0.205739 -3.03002 0
M  V30 2223 H 210.397 -0.166675 -1.48467 0
M  V30 2224 H 212.279 2.17814 -3.60742 0
M  V30 2225 H 210.954 2.15915 -2.41169 0
M  V30 2226 H 209.861 0.254954 -3.7323 0
M  V30 2227 H 211.194 0.35508 -4.90918 0
M  V30 2228 N 212.846 1.57033 -0.133567 0
M  V30 2229 C 214.074 2.00044 0.528195 0
M  V30 2230 C 214.489 1.01349 1.59291 0
M  V30 2231 O 213.846 0.00848369 1.82498 0
M  V30 2232 C 213.897 3.43018 1.1411 0
M  V30 2233 O 213.618 4.37939 0.11892 0
M  V30 2234 C 215.119 4.01237 1.88477 0
M  V30 2235 H 212.339 0.656517 0.138661 0
M  V30 2236 H 214.883 2.03267 -0.224196 0
M  V30 2237 H 213.038 3.40688 1.84418 0
M  V30 2238 H 213.452 5.21436 0.56613 0
M  V30 2239 H 214.926 5.03314 2.26669 0
M  V30 2240 H 215.403 3.41193 2.76558 0
M  V30 2241 H 216.009 4.07156 1.22898 0
M  V30 2242 N 214.325 -0.140222 1.56975 0
M  V30 2243 C 215.555 -0.865181 1.87612 0
M  V30 2244 C 215.963 -1.74942 0.72055 0
M  V30 2245 O 215.306 -1.80917 -0.318561 0
M  V30 2246 C 215.368 -1.76782 3.13031 0
M  V30 2247 C 215.032 -1.06005 4.44536 0
M  V30 2248 C 216.029 -0.410768 5.18275 0
M  V30 2249 C 213.714 -1.04754 4.91255 0
M  V30 2250 C 215.708 0.241572 6.36942 0
M  V30 2251 C 213.395 -0.391394 6.09845 0
M  V30 2252 C 214.393 0.252029 6.82535 0
M  V30 2253 O 214.081 0.897757 7.98871 0
M  V30 2254 H 213.813 -0.255188 0.625983 0
M  V30 2255 H 216.367 -0.135653 2.04952 0
M  V30 2256 H 214.597 -2.53846 2.91718 0
M  V30 2257 H 216.286 -2.36533 3.29859 0
M  V30 2258 H 217.052 -0.412195 4.83245 0
M  V30 2259 H 212.931 -1.53777 4.34596 0
M  V30 2260 H 216.475 0.744375 6.93617 0
M  V30 2261 H 212.372 -0.387656 6.44335 0
M  V30 2262 H 213.14 0.800102 8.1458 0
M  V30 2263 N 215.803 -1.52179 -0.40978 0
M  V30 2264 C 216.751 -1.76086 -1.51975 0
M  V30 2265 C 217.745 -0.627964 -1.57331 0
M  V30 2266 O 218.951 -0.809993 -1.60745 0
M  V30 2267 H 215.326 -0.556829 -0.505416 0
M  V30 2268 H 217.297 -2.69077 -1.28996 0
M  V30 2269 C 216.046 -1.92799 -2.8935 0
M  V30 2270 H 215.369 -2.79392 -2.85972 0
M  V30 2271 H 216.809 -2.13527 -3.66309 0
M  V30 2272 C 215.268 -0.694923 -3.29655 0
M  V30 2273 O 215.798 0.13751 -4.01465 0
M  V30 2274 N 214.004 -0.53101 -2.85707 0
M  V30 2275 H 213.551 -1.20952 -2.27439 0
M  V30 2276 H 213.509 0.292718 -3.13034 0
M  V30 2277 N 217.281 0.66697 -1.42791 0
M  V30 2278 C 218.213 1.7925 -1.42836 0
M  V30 2279 C 219.226 1.59496 -0.326333 0
M  V30 2280 O 220.415 1.6847 -0.589916 0
M  V30 2281 C 217.515 3.16476 -1.21229 0
M  V30 2282 C 216.688 3.63011 -2.44013 0
M  V30 2283 C 215.747 4.78993 -2.17834 0
M  V30 2284 O 214.773 4.89137 -2.91091 0
M  V30 2285 N 215.975 5.68248 -1.18635 0
M  V30 2286 H 218.74 1.79695 -2.39854 0
M  V30 2287 H 216.301 0.850338 -1.37771 0
M  V30 2288 H 218.293 3.91734 -1.01621 0
M  V30 2289 H 216.863 3.10884 -0.32706 0
M  V30 2290 H 216.083 2.78346 -2.79137 0
M  V30 2291 H 217.371 3.90845 -3.25757 0
M  V30 2292 H 216.769 5.62712 -0.580615 0
M  V30 2293 H 215.326 6.43285 -1.05013 0
M  V30 2294 N 218.759 1.29093 0.90403 0
M  V30 2295 C 219.689 1.16401 2.02418 0
M  V30 2296 C 220.67 0.0593085 1.69997 0
M  V30 2297 O 221.855 0.238021 1.92736 0
M  V30 2298 C 218.985 0.835233 3.37107 0
M  V30 2299 C 217.939 1.89578 3.83724 0
M  V30 2300 C 217.265 1.42041 5.15489 0
M  V30 2301 C 218.565 3.30394 4.04521 0
M  V30 2302 H 220.259 2.10109 2.13295 0
M  V30 2303 H 217.805 1.01157 1.02486 0
M  V30 2304 H 219.758 0.733169 4.14973 0
M  V30 2305 H 218.482 -0.137543 3.2631 0
M  V30 2306 H 217.141 1.98715 3.08071 0
M  V30 2307 H 216.789 0.436426 5.01103 0
M  V30 2308 H 216.489 2.12964 5.4765 0
M  V30 2309 H 218.013 1.33176 5.959 0
M  V30 2310 H 219.427 3.24123 4.72882 0
M  V30 2311 H 217.824 3.99237 4.48029 0
M  V30 2312 H 218.894 3.73692 3.09002 0
M  V30 2313 N 220.237 -1.11381 1.11499 0
M  V30 2314 C 221.167 -2.19509 0.796125 0
M  V30 2315 C 222.148 -1.68458 -0.235796 0
M  V30 2316 O 223.333 -1.93947 -0.0991344 0
M  V30 2317 C 220.463 -3.46475 0.239205 0
M  V30 2318 C 219.417 -4.10744 1.20307 0
M  V30 2319 C 218.743 -5.32293 0.50683 0
M  V30 2320 C 220.043 -4.55597 2.55399 0
M  V30 2321 H 221.737 -2.46439 1.70024 0
M  V30 2322 H 219.283 -1.18446 0.818935 0
M  V30 2323 H 221.236 -4.214 0.00392006 0
M  V30 2324 H 219.96 -3.19006 -0.700206 0
M  V30 2325 H 218.619 -3.37813 1.42399 0
M  V30 2326 H 218.267 -5.01095 -0.437408 0
M  V30 2327 H 217.967 -5.76243 1.1497 0
M  V30 2328 H 219.491 -6.09956 0.280351 0
M  V30 2329 H 220.905 -5.21841 2.37391 0
M  V30 2330 H 219.302 -5.10363 3.15673 0
M  V30 2331 H 220.372 -3.69013 3.14575 0
M  V30 2332 N 221.715 -0.905404 -1.28997 0
M  V30 2333 C 222.665 -0.358713 -2.25161 0
M  V30 2334 C 223.649 0.524449 -1.52113 0
M  V30 2335 O 224.841 0.365534 -1.73184 0
M  V30 2336 C 221.97 0.407609 -3.40872 0
M  V30 2337 C 221.056 -0.490797 -4.21251 0
M  V30 2338 N 221.447 -1.60061 -4.79806 0
M  V30 2339 C 219.745 -0.289636 -4.45059 0
M  V30 2340 C 220.446 -2.15757 -5.40207 0
M  V30 2341 N 219.422 -1.44988 -5.23908 0
M  V30 2342 H 223.224 -1.20642 -2.67998 0
M  V30 2343 H 220.738 -0.757103 -1.43672 0
M  V30 2344 H 222.735 0.816046 -4.08835 0
M  V30 2345 H 221.395 1.25251 -2.9957 0
M  V30 2346 H 222.406 -1.98329 -4.7842 0
M  V30 2347 H 219.083 0.51643 -4.14294 0
M  V30 2348 H 220.473 -3.09069 -5.96595 0
M  V30 2349 N 223.193 1.4272 -0.668489 0
M  V30 2350 C 224.123 2.335 -0.000100175 0
M  V30 2351 C 225.104 1.50328 0.795964 0
M  V30 2352 O 226.289 1.78949 0.754385 0
M  V30 2353 C 223.419 3.33874 0.956302 0
M  V30 2354 C 222.373 4.27152 0.269278 0
M  V30 2355 C 221.699 5.17684 1.33818 0
M  V30 2356 C 222.999 5.15373 -0.847805 0
M  V30 2357 H 224.693 2.89639 -0.758244 0
M  V30 2358 H 222.239 1.39269 -0.366079 0
M  V30 2359 H 224.192 3.9629 1.43292 0
M  V30 2360 H 222.916 2.76025 1.74579 0
M  V30 2361 H 221.575 3.66123 -0.187042 0
M  V30 2362 H 221.223 4.56165 2.1195 0
M  V30 2363 H 220.923 5.80918 0.883659 0
M  V30 2364 H 222.447 5.82974 1.81586 0
M  V30 2365 H 223.861 5.7151 -0.452681 0
M  V30 2366 H 222.258 5.87407 -1.22773 0
M  V30 2367 H 223.328 4.5415 -1.69929 0
M  V30 2368 N 224.671 0.411399 1.52136 0
M  V30 2369 C 225.634 -0.401089 2.25663 0
M  V30 2370 C 226.634 -0.971732 1.28117 0
M  V30 2371 O 227.824 -0.850254 1.52041 0
M  V30 2372 C 224.956 -1.56483 3.02863 0
M  V30 2373 H 226.149 0.24295 2.98914 0
M  V30 2374 H 223.702 0.163968 1.55438 0
M  V30 2375 H 224.437 -2.24567 2.33967 0
M  V30 2376 H 224.222 -1.16211 3.74483 0
M  V30 2377 H 225.712 -2.13951 3.58629 0
M  V30 2378 N 226.149 -1.5696 0.141893 0
M  V30 2379 C 227.374 -2.00754 -0.520838 0
M  V30 2380 C 227.799 -1.0213 -1.57959 0
M  V30 2381 O 227.157 0.00371324 -1.813 0
M  V30 2382 C 227.205 -3.43318 -1.10294 0
M  V30 2383 O 226.309 -3.47679 -2.21795 0
M  V30 2384 H 225.65 -0.651564 -0.127908 0
M  V30 2385 H 228.18 -2.03221 0.23712 0
M  V30 2386 H 228.19 -3.82012 -1.43287 0
M  V30 2387 H 226.865 -4.14608 -0.327574 0
M  V30 2388 H 225.442 -3.20824 -1.9007 0
M  V30 2389 N 227.627 0.131896 -1.57047 0
M  V30 2390 C 228.537 1.1815 -2.02676 0
M  V30 2391 C 229.553 1.46113 -0.944824 0
M  V30 2392 O 230.729 1.57485 -1.25541 0
M  V30 2393 C 227.794 2.49139 -2.41103 0
M  V30 2394 C 226.855 2.28688 -3.63318 0
M  V30 2395 C 226.088 3.53431 -3.99903 0
M  V30 2396 O 226.311 4.60223 -3.36973 0
M  V30 2397 O 225.245 3.45198 -4.93074 0
M  V30 2398 H 229.071 0.824069 -2.92306 0
M  V30 2399 H 226.656 0.341745 -1.45439 0
M  V30 2400 H 228.538 3.26338 -2.66611 0
M  V30 2401 H 227.213 2.84382 -1.54624 0
M  V30 2402 H 226.12 1.4939 -3.42977 0
M  V30 2403 H 227.453 1.98355 -4.50462 0
M  V30 2404 N 229.106 1.52395 0.401703 0
M  V30 2405 C 230.038 1.72505 1.50912 0
M  V30 2406 C 231.051 0.605468 1.51122 0
M  V30 2407 O 232.24 0.880828 1.55254 0
M  V30 2408 C 229.34 1.75711 2.89791 0
M  V30 2409 C 228.513 3.04824 3.1369 0
M  V30 2410 C 227.572 2.99743 4.32482 0
M  V30 2411 O 226.598 3.73635 4.29402 0
M  V30 2412 N 227.8 2.18047 5.37992 0
M  V30 2413 H 230.565 2.68049 1.34052 0
M  V30 2414 H 228.126 1.50724 0.591084 0
M  V30 2415 H 230.118 1.69834 3.6734 0
M  V30 2416 H 228.688 0.876092 3.00072 0
M  V30 2417 H 227.908 3.2429 2.24119 0
M  V30 2418 H 229.196 3.90221 3.26504 0
M  V30 2419 H 228.594 1.57456 5.43345 0
M  V30 2420 H 227.151 2.18021 6.14256 0
M  V30 2421 N 230.584 -0.659388 1.43143 0
M  V30 2422 C 231.832 -1.41654 1.44147 0
M  V30 2423 C 232.153 -1.94893 0.0645739 0
M  V30 2424 O 231.423 -1.74044 -0.899198 0
M  V30 2425 H 230.003 -0.525708 0.530697 0
M  V30 2426 H 232.665 -0.778097 1.78694 0
M  V30 2427 H 231.761 -2.26195 2.1504 0
M  V30 2428 N 232.062 -1.29571 -0.897171 0
M  V30 2429 C 233.287 -1.20705 -1.68656 0
M  V30 2430 C 233.712 0.228582 -1.86706 0
M  V30 2431 O 233.07 1.16494 -1.3892 0
M  V30 2432 C 233.118 -1.9282 -3.04717 0
M  V30 2433 O 232.222 -1.24697 -3.93096 0
M  V30 2434 H 231.563 -0.418126 -0.515816 0
M  V30 2435 H 234.093 -1.71183 -1.12061 0
M  V30 2436 H 234.103 -2.01372 -3.54843 0
M  V30 2437 H 232.778 -2.97239 -2.90899 0
M  V30 2438 H 231.355 -1.2442 -3.51531 0
M  V30 2439 N 233.54 1.10788 -1.12088 0
M  V30 2440 C 234.787 1.82671 -0.873931 0
M  V30 2441 C 235.115 1.85004 0.600311 0
M  V30 2442 O 234.37 1.30365 1.45957 0
M  V30 2443 C 234.669 3.29294 -1.38926 0
M  V30 2444 C 234.335 3.47113 -2.87791 0
M  V30 2445 C 232.997 3.51684 -3.28439 0
M  V30 2446 C 235.349 3.52808 -3.83635 0
M  V30 2447 C 232.677 3.59513 -4.63646 0
M  V30 2448 C 235.029 3.62169 -5.18668 0
M  V30 2449 C 233.693 3.65003 -5.58864 0
M  V30 2450 H 232.963 0.668441 -0.319794 0
M  V30 2451 H 235.61 1.30613 -1.40045 0
M  V30 2452 H 233.915 3.83894 -0.783122 0
M  V30 2453 H 235.612 3.83416 -1.17443 0
M  V30 2454 H 232.202 3.4423 -2.5535 0
M  V30 2455 H 236.386 3.4853 -3.53328 0
M  V30 2456 H 231.642 3.59987 -4.94185 0
M  V30 2457 H 235.816 3.6552 -5.92763 0
M  V30 2458 H 233.443 3.70822 -6.63623 0
M  V30 2459 N 235.018 0.912232 1.28515 0
M  V30 2460 C 236.295 0.463597 1.90027 0
M  V30 2461 C 236.675 -1.05753 1.82701 0
M  V30 2462 O 236.023 -1.90492 1.26194 0
M  V30 2463 C 236.233 0.992253 3.34597 0
M  V30 2464 C 237.581 1.04344 4.11579 0
M  V30 2465 O 238.605 0.94079 3.43551 0
M  V30 2466 O 237.464 1.1995 5.33174 0
M  V30 2467 H 234.558 0.146666 0.813891 0
M  V30 2468 H 237.104 1.00292 1.36893 0
M  V30 2469 H 235.876 2.03623 3.34146 0
M  V30 2470 H 235.499 0.433672 3.95228 0
M  V30 2471 N 236.496 -1.42363 0.676048 0
M  V30 2472 C 237.744 -2.01123 0.198437 0
M  V30 2473 C 238.065 -1.53731 -1.19966 0
M  V30 2474 O 237.335 -0.759518 -1.80577 0
M  V30 2475 H 235.915 -0.743678 0.0703721 0
M  V30 2476 H 238.577 -1.74263 0.872837 0
M  V30 2477 H 237.673 -3.11454 0.200686 0
M  V30 2478 N 237.974 -0.419461 -1.51915 0
M  V30 2479 C 239.222 0.152637 -2.01523 0
M  V30 2480 C 239.543 1.44762 -1.30649 0
M  V30 2481 O 238.813 1.90997 -0.435535 0
M  V30 2482 H 237.393 0.0593966 -0.744635 0
M  V30 2483 H 240.055 -0.558073 -1.86739 0
M  V30 2484 H 239.151 0.341369 -3.10227 0
M  V30 2485 N 239.452 1.56882 -0.150215 0
M  V30 2486 C 240.729 1.87844 0.545327 0
M  V30 2487 C 241.109 1.0567 1.82749 0
M  V30 2488 O 240.457 0.144442 2.28043 0
M  V30 2489 C 240.667 3.39526 0.80767 0
M  V30 2490 C 242.015 4.08814 1.14703 0
M  V30 2491 O 243.039 3.44723 0.896917 0
M  V30 2492 O 241.898 5.22004 1.61784 0
M  V30 2493 H 238.992 0.778677 0.278553 0
M  V30 2494 H 241.538 1.68666 -0.187068 0
M  V30 2495 H 240.31 3.91173 -0.0996096 0
M  V30 2496 H 239.933 3.64243 1.59413 0
M  V30 2497 N 240.93 -0.123565 1.57115 0
M  V30 2498 C 241.862 -1.17739 1.96648 0
M  V30 2499 C 242.875 -1.37906 0.865201 0
M  V30 2500 O 244.064 -1.37062 1.14351 0
M  V30 2501 C 241.164 -2.53821 2.24562 0
M  V30 2502 C 240.337 -2.54317 3.55867 0
M  V30 2503 C 239.396 -3.72112 3.72047 0
M  V30 2504 O 238.422 -3.55907 4.44206 0
M  V30 2505 N 239.624 -4.90498 3.10471 0
M  V30 2506 H 242.389 -0.841147 2.87654 0
M  V30 2507 H 239.95 -0.31289 1.58848 0
M  V30 2508 H 241.942 -3.31175 2.32606 0
M  V30 2509 H 240.512 -2.79645 1.39705 0
M  V30 2510 H 239.732 -1.62711 3.59053 0
M  V30 2511 H 241.02 -2.51701 4.42181 0
M  V30 2512 H 240.418 -5.06567 2.51806 0
M  V30 2513 H 238.975 -5.65544 3.24043 0
M  V30 2514 N 242.408 -1.52605 -0.393616 0
M  V30 2515 C 243.656 -1.67093 -1.13685 0
M  V30 2516 C 243.977 -0.411011 -1.90619 0
M  V30 2517 O 243.247 0.574491 -1.87287 0
M  V30 2518 H 241.827 -0.615923 -0.422668 0
M  V30 2519 H 244.489 -1.89704 -0.447039 0
M  V30 2520 H 243.585 -2.51922 -1.84232 0
M  V30 2521 N 243.887 0.651787 -1.4349 0
M  V30 2522 C 245.136 1.40754 -1.44469 0
M  V30 2523 C 245.449 1.95463 -0.0731845 0
M  V30 2524 O 246.655 2.71471 0.0395721 0
M  V30 2525 C 245.111 2.54735 -2.5424 0
M  V30 2526 C 244.719 2.06628 -3.97504 0
M  V30 2527 C 246.463 3.32092 -2.64414 0
M  V30 2528 C 244.37 3.17829 -4.98737 0
M  V30 2529 H 243.3 0.528862 -0.53742 0
M  V30 2530 H 245.951 0.703365 -1.69485 0
M  V30 2531 H 244.333 3.2763 -2.22428 0
M  V30 2532 H 245.507 1.40734 -4.38783 0
M  V30 2533 H 243.822 1.42146 -3.91387 0
M  V30 2534 H 246.419 4.14952 -3.37223 0
M  V30 2535 H 246.762 3.80217 -1.69532 0
M  V30 2536 H 247.295 2.66279 -2.95534 0
M  V30 2537 H 244.034 2.74671 -5.95177 0
M  V30 2538 H 243.554 3.82429 -4.62069 0
M  V30 2539 H 245.233 3.82937 -5.21505 0
M  V30 2540 N 245.365 1.30045 0.890287 0
M  V30 2541 C 246.295 1.18541 2.01172 0
M  V30 2542 C 247.276 0.0773356 1.69924 0
M  V30 2543 O 248.461 0.25845 1.92473 0
M  V30 2544 C 245.591 0.870941 3.36202 0
M  V30 2545 C 244.545 1.93637 3.81692 0
M  V30 2546 C 243.871 1.475 5.13953 0
M  V30 2547 C 245.171 3.34666 4.00994 0
M  V30 2548 H 246.865 2.12359 2.11054 0
M  V30 2549 H 244.411 1.02238 1.01407 0
M  V30 2550 H 246.364 0.777141 4.14172 0
M  V30 2551 H 245.088 -0.102926 3.26438 0
M  V30 2552 H 243.747 2.01972 3.05946 0
M  V30 2553 H 243.395 0.489551 5.00612 0
M  V30 2554 H 243.095 2.1876 5.4536 0
M  V30 2555 H 244.619 1.39489 5.94454 0
M  V30 2556 H 246.033 3.2912 4.69417 0
M  V30 2557 H 244.43 4.03966 4.43769 0
M  V30 2558 H 245.5 3.76949 3.05021 0
M  V30 2559 N 246.843 -1.10192 1.12674 0
M  V30 2560 C 247.791 -2.18694 0.792196 0
M  V30 2561 C 248.785 -1.67938 -0.222058 0
M  V30 2562 O 249.991 -1.79822 -0.0800074 0
M  V30 2563 H 246.366 -0.713223 0.238364 0
M  V30 2564 H 248.337 -2.44149 1.71564 0
M  V30 2565 C 247.086 -3.46682 0.265859 0
M  V30 2566 H 246.409 -3.86101 1.03761 0
M  V30 2567 H 247.849 -4.23942 0.0701128 0
M  V30 2568 C 246.308 -3.21506 -1.00675 0
M  V30 2569 O 246.838 -3.43408 -2.08408 0
M  V30 2570 N 245.044 -2.75158 -0.934692 0
M  V30 2571 H 244.591 -2.57535 -0.0578604 0
M  V30 2572 H 244.549 -2.58691 -1.7868 0
M  V30 2573 N 248.321 -0.919034 -1.28029 0
M  V30 2574 C 249.549 -0.570971 -1.98866 0
M  V30 2575 C 249.964 0.848996 -1.68634 0
M  V30 2576 O 249.321 1.56307 -0.942036 0
M  V30 2577 C 249.372 -0.776876 -3.53054 0
M  V30 2578 O 249.093 -2.14097 -3.82222 0
M  V30 2579 C 250.594 -0.436356 -4.41147 0
M  V30 2580 H 247.814 -0.217175 -0.634883 0
M  V30 2581 H 250.358 -1.23368 -1.63097 0
M  V30 2582 H 248.513 -0.161085 -3.87065 0
M  V30 2583 H 248.927 -2.18455 -4.76841 0
M  V30 2584 H 250.401 -0.63117 -5.4838 0
M  V30 2585 H 250.878 0.627686 -4.34692 0
M  V30 2586 H 251.484 -1.02991 -4.12641 0
M  V30 2587 N 249.799 1.42003 -0.683588 0
M  V30 2588 C 251.046 2.01413 -0.209514 0
M  V30 2589 C 251.374 1.54088 1.1869 0
M  V30 2590 O 250.629 0.737591 1.81268 0
M  V30 2591 C 250.928 3.56827 -0.202357 0
M  V30 2592 C 250.594 4.23617 -1.54464 0
M  V30 2593 C 249.256 4.41577 -1.91215 0
M  V30 2594 C 251.608 4.61178 -2.42826 0
M  V30 2595 C 248.936 4.9437 -3.15935 0
M  V30 2596 C 251.288 5.15355 -3.66867 0
M  V30 2597 C 249.952 5.31528 -4.03776 0
M  V30 2598 H 249.222 0.737023 -0.0766668 0
M  V30 2599 H 251.869 1.70067 -0.880312 0
M  V30 2600 H 250.174 3.87892 0.551969 0
M  V30 2601 H 251.871 4.00588 0.181793 0
M  V30 2602 H 248.461 4.10004 -1.24877 0
M  V30 2603 H 252.645 4.46968 -2.15717 0
M  V30 2604 H 247.901 5.05076 -3.44541 0
M  V30 2605 H 252.075 5.43402 -4.35531 0
M  V30 2606 H 249.702 5.72199 -5.00492 0
M  V30 2607 N 251.277 0.427512 1.51691 0
M  V30 2608 C 252.524 -0.142229 2.02 0
M  V30 2609 C 252.852 -1.43566 1.31221 0
M  V30 2610 O 252.107 -1.91298 0.412744 0
M  V30 2611 C 252.406 -0.418249 3.54944 0
M  V30 2612 C 252.072 0.788187 4.43958 0
M  V30 2613 C 250.734 1.11906 4.68007 0
M  V30 2614 C 253.086 1.59347 4.96244 0
M  V30 2615 C 250.414 2.25608 5.41588 0
M  V30 2616 C 252.766 2.7214 5.71072 0
M  V30 2617 C 251.43 3.05692 5.93387 0
M  V30 2618 H 250.7 -0.0520451 0.73917 0
M  V30 2619 H 253.347 0.572697 1.82736 0
M  V30 2620 H 251.652 -1.21496 3.72486 0
M  V30 2621 H 253.349 -0.872339 3.91397 0
M  V30 2622 H 249.939 0.520344 4.2543 0
M  V30 2623 H 254.123 1.35106 4.77556 0
M  V30 2624 H 249.379 2.51929 5.57083 0
M  V30 2625 H 253.553 3.34914 6.10578 0
M  V30 2626 H 251.18 3.9391 6.50184 0
M  V30 2627 N 252.755 -1.56801 0.158532 0
M  V30 2628 C 253.98 -2.01295 -0.499516 0
M  V30 2629 C 254.405 -1.03799 -1.56867 0
M  V30 2630 O 253.763 -0.0155162 -1.81293 0
M  V30 2631 C 253.811 -3.44469 -1.06647 0
M  V30 2632 O 252.915 -3.50012 -2.18095 0
M  V30 2633 H 252.256 -0.652884 -0.12099 0
M  V30 2634 H 254.786 -2.02958 0.258661 0
M  V30 2635 H 254.796 -3.8351 -1.39227 0
M  V30 2636 H 253.471 -4.14932 -0.283581 0
M  V30 2637 H 252.048 -3.22822 -1.86656 0
M  V30 2638 N 254.233 0.115231 -1.57178 0
M  V30 2639 C 255.458 0.840354 -1.89612 0
M  V30 2640 C 255.883 1.72464 -0.750845 0
M  V30 2641 O 255.241 1.78826 0.298478 0
M  V30 2642 C 255.289 1.64654 -3.20814 0
M  V30 2643 O 254.393 2.7538 -3.06985 0
M  V30 2644 H 253.734 0.232158 -0.622092 0
M  V30 2645 H 256.264 0.0964977 -2.04372 0
M  V30 2646 H 256.274 2.03499 -3.53627 0
M  V30 2647 H 254.949 0.997416 -4.03763 0
M  V30 2648 H 253.526 2.3971 -2.85646 0
M  V30 2649 N 255.711 1.52812 0.385517 0
M  V30 2650 C 256.957 1.69225 1.12847 0
M  V30 2651 C 257.312 0.42864 1.87564 0
M  V30 2652 O 256.605 -0.57779 1.8268 0
M  V30 2653 C 256.799 2.86856 2.13187 0
M  V30 2654 C 256.628 4.24535 1.48325 0
M  V30 2655 C 255.398 4.89701 1.24585 0
M  V30 2656 C 257.596 5.05794 0.931501 0
M  V30 2657 N 255.578 6.11353 0.558644 0
M  V30 2658 C 256.949 6.1888 0.372552 0
M  V30 2659 C 259.004 4.90963 0.828248 0
M  V30 2660 C 257.707 7.18757 -0.279556 0
M  V30 2661 C 259.733 5.91095 0.189956 0
M  V30 2662 C 259.095 7.03489 -0.358207 0
M  V30 2663 H 255.194 0.67268 0.39878 0
M  V30 2664 H 257.778 1.9017 0.417528 0
M  V30 2665 H 255.949 2.67484 2.81614 0
M  V30 2666 H 257.681 2.92188 2.80014 0
M  V30 2667 H 254.436 4.48485 1.52178 0
M  V30 2668 H 254.86 6.76606 0.230983 0
M  V30 2669 H 259.502 4.04274 1.23784 0
M  V30 2670 H 257.22 8.05052 -0.701152 0
M  V30 2671 H 260.806 5.81694 0.111264 0
M  V30 2672 H 259.686 7.79642 -0.844314 0
M  V30 2673 N 257.189 -0.644168 1.43834 0
M  V30 2674 C 258.152 -1.73857 1.49353 0
M  V30 2675 C 259.152 -1.56315 0.377112 0
M  V30 2676 O 260.342 -1.62048 0.639226 0
M  V30 2677 C 257.474 -3.12819 1.35488 0
M  V30 2678 H 258.667 -1.70342 2.46827 0
M  V30 2679 H 256.22 -0.856652 1.30733 0
M  V30 2680 H 256.955 -3.2194 0.390569 0
M  V30 2681 H 256.74 -3.26958 2.16428 0
M  V30 2682 H 258.23 -3.92606 1.42302 0
M  V30 2683 N 258.668 -1.30515 -0.883378 0
M  V30 2684 C 259.896 -1.22359 -1.66841 0
M  V30 2685 C 260.311 0.213296 -1.87591 0
M  V30 2686 O 259.668 1.14075 -1.42454 0
M  V30 2687 C 259.719 -1.95011 -3.04389 0
M  V30 2688 O 259.44 -3.3309 -2.84575 0
M  V30 2689 C 260.941 -1.93532 -3.98824 0
M  V30 2690 H 258.161 -0.423371 -0.520575 0
M  V30 2691 H 260.705 -1.72167 -1.10357 0
M  V30 2692 H 258.86 -1.48997 -3.57601 0
M  V30 2693 H 259.274 -3.69907 -3.71846 0
M  V30 2694 H 260.748 -2.48902 -4.92699 0
M  V30 2695 H 261.225 -0.914627 -4.29571 0
M  V30 2696 H 261.831 -2.39364 -3.51547 0
M  V30 2697 N 260.146 1.09593 -1.13257 0
M  V30 2698 C 261.374 1.855 -0.916378 0
M  V30 2699 C 261.789 1.81069 0.534738 0
M  V30 2700 O 261.146 1.20562 1.37007 0
M  V30 2701 C 261.197 3.33546 -1.39388 0
M  V30 2702 O 260.918 3.37927 -2.78813 0
M  V30 2703 C 262.419 4.26299 -1.21588 0
M  V30 2704 H 259.639 0.585991 -0.326887 0
M  V30 2705 H 262.183 1.38488 -1.5047 0
M  V30 2706 H 260.338 3.77992 -0.848597 0
M  V30 2707 H 260.752 4.30254 -2.9997 0
M  V30 2708 H 262.226 5.28341 -1.59876 0
M  V30 2709 H 262.703 4.38918 -0.157376 0
M  V30 2710 H 263.309 3.87668 -1.7491 0
M  V30 2711 N 261.624 0.925811 1.2754 0
M  V30 2712 C 262.901 0.483726 1.89524 0
M  V30 2713 C 263.281 -1.03809 1.83812 0
M  V30 2714 O 262.629 -1.89143 1.28207 0
M  V30 2715 C 262.839 1.02769 3.33526 0
M  V30 2716 C 264.187 1.08703 4.10449 0
M  V30 2717 O 265.211 0.977175 3.42534 0
M  V30 2718 O 264.07 1.25599 5.31871 0
M  V30 2719 H 261.164 0.15529 0.812289 0
M  V30 2720 H 263.71 1.01738 1.35822 0
M  V30 2721 H 262.482 2.07155 3.31967 0
M  V30 2722 H 262.105 0.475567 3.94746 0
M  V30 2723 N 263.102 -1.41638 0.69111 0
M  V30 2724 C 264.351 -2.00526 0.217318 0
M  V30 2725 C 264.664 -1.55353 -1.18848 0
M  V30 2726 O 265.87 -2.06769 -1.75951 0
M  V30 2727 C 264.326 -3.58313 0.337639 0
M  V30 2728 C 263.934 -4.12469 1.74852 0
M  V30 2729 C 265.678 -4.24431 -0.0766066 0
M  V30 2730 C 263.585 -5.62675 1.82074 0
M  V30 2731 H 262.515 -0.750008 0.0774893 0
M  V30 2732 H 265.166 -1.6217 0.858661 0
M  V30 2733 H 263.548 -3.9425 -0.371879 0
M  V30 2734 H 264.722 -3.8796 2.48644 0
M  V30 2735 H 263.037 -3.58861 2.11205 0
M  V30 2736 H 265.634 -5.34683 -0.0430284 0
M  V30 2737 H 265.977 -4.01101 -1.1146 0
M  V30 2738 H 266.51 -3.93512 0.582476 0
M  V30 2739 H 263.249 -5.90826 2.83911 0
M  V30 2740 H 262.769 -5.89124 1.12661 0
M  V30 2741 H 264.448 -6.27371 1.58159 0
M  V30 2742 N 264.58 -0.43555 -1.51462 0
M  V30 2743 C 265.996 -0.0877501 -1.59359 0
M  V30 2744 C 266.196 1.4027 -1.4466 0
M  V30 2745 O 265.252 2.17243 -1.28693 0
M  V30 2746 C 266.565 -0.606264 -2.94525 0
M  V30 2747 C 268.113 -0.566548 -3.0783 0
M  V30 2748 C 268.588 -1.06201 -4.45517 0
M  V30 2749 N 270.079 -1.01992 -4.51832 0
M  V30 2750 C 270.814 -1.37417 -5.5669 0
M  V30 2751 N 270.31 -1.80119 -6.68976 0
M  V30 2752 N 272.103 -1.29245 -5.47039 0
M  V30 2753 H 264.254 -1.40533 -1.59261 0
M  V30 2754 H 266.517 -0.578992 -0.750648 0
M  V30 2755 H 266.223 -1.64901 -3.10645 0
M  V30 2756 H 266.097 -0.0302097 -3.77188 0
M  V30 2757 H 268.484 0.467208 -2.91378 0
M  V30 2758 H 268.565 -1.17898 -2.2701 0
M  V30 2759 H 268.209 -2.09422 -4.62715 0
M  V30 2760 H 268.139 -0.426127 -5.24873 0
M  V30 2761 H 270.63 -0.706308 -3.71241 0
M  V30 2762 H 270.943 -2.05392 -7.45006 0
M  V30 2763 H 269.288 -1.84044 -6.70189 0
M  V30 2764 H 272.479 -0.957522 -4.58202 0
M  V30 2765 H 272.652 -1.57182 -6.28648 0
M  V30 2766 N 266.058 1.56714 -0.166846 0
M  V30 2767 C 267.005 2.17746 0.765193 0
M  V30 2768 C 267.975 1.11614 1.23011 0
M  V30 2769 O 269.16 1.39745 1.29908 0
M  V30 2770 C 266.3 2.81882 1.9909 0
M  V30 2771 C 265.413 4.02462 1.56997 0
M  V30 2772 C 264.548 4.54537 2.749 0
M  V30 2773 C 263.587 5.67538 2.29275 0
M  V30 2774 N 262.724 6.14142 3.40255 0
M  V30 2775 H 267.564 2.97048 0.237952 0
M  V30 2776 H 265.101 1.4672 0.105725 0
M  V30 2777 H 267.059 3.17221 2.70974 0
M  V30 2778 H 265.689 2.05191 2.49192 0
M  V30 2779 H 264.741 3.72973 0.748037 0
M  V30 2780 H 266.053 4.84273 1.19503 0
M  V30 2781 H 265.207 4.92035 3.54946 0
M  V30 2782 H 263.946 3.71774 3.1565 0
M  V30 2783 H 262.951 5.29597 1.47674 0
M  V30 2784 H 264.176 6.52099 1.89588 0
M  V30 2785 H 262.122 5.3431 3.8059 0
M  V30 2786 H 262.039 6.9093 3.06841 0
M  V30 2787 H 263.307 6.56289 4.206 0
M  V30 2788 N 267.536 -0.106894 1.57237 0
M  V30 2789 C 268.486 -1.1366 1.9765 0
M  V30 2790 C 269.47 -1.36416 0.853203 0
M  V30 2791 O 270.662 -1.37305 1.11697 0
M  V30 2792 C 267.791 -2.46 2.39455 0
M  V30 2793 C 266.877 -2.26668 3.58445 0
M  V30 2794 N 267.268 -1.77176 4.73754 0
M  V30 2795 C 265.566 -2.57279 3.64312 0
M  V30 2796 C 266.267 -1.71836 5.5574 0
M  V30 2797 N 265.243 -2.16623 4.98573 0
M  V30 2798 H 269.045 -0.74669 2.84256 0
M  V30 2799 H 266.559 -0.314483 1.59326 0
M  V30 2800 H 268.556 -3.2049 2.6663 0
M  V30 2801 H 267.216 -2.85738 1.54219 0
M  V30 2802 H 268.227 -1.46545 4.96734 0
M  V30 2803 H 264.904 -3.00622 2.89711 0
M  V30 2804 H 266.294 -1.34723 6.58255 0
M  V30 2805 N 269.014 -1.53014 -0.377408 0
M  V30 2806 C 269.944 -1.81589 -1.46791 0
M  V30 2807 C 270.925 -0.668622 -1.56408 0
M  V30 2808 O 272.11 -0.917337 -1.71168 0
M  V30 2809 C 269.24 -1.99519 -2.8427 0
M  V30 2810 C 268.194 -3.15249 -2.89486 0
M  V30 2811 C 267.52 -3.18451 -4.29527 0
M  V30 2812 C 268.82 -4.54084 -2.58079 0
M  V30 2813 H 270.514 -2.7291 -1.23127 0
M  V30 2814 H 268.06 -1.31319 -0.590883 0
M  V30 2815 H 270.013 -2.18092 -3.60575 0
M  V30 2816 H 268.737 -1.04897 -3.09296 0
M  V30 2817 H 267.396 -2.96477 -2.15631 0
M  V30 2818 H 267.044 -2.2149 -4.5161 0
M  V30 2819 H 266.744 -3.962 -4.33934 0
M  V30 2820 H 268.268 -3.39193 -5.07721 0
M  V30 2821 H 269.682 -4.72899 -3.24098 0
M  V30 2822 H 268.079 -5.33987 -2.7382 0
M  V30 2823 H 269.149 -4.60006 -1.53372 0
M  V30 2824 N 270.492 0.636531 -1.44174 0
M  V30 2825 C 271.903 1.21806 -1.41493 0
M  V30 2826 C 272.254 1.95785 -0.1275 0
M  V30 2827 O 271.379 2.02147 0.772376 0
M  V30 2828 C 271.974 2.21551 -2.56321 0
M  V30 2829 C 270.533 2.75143 -2.56853 0
M  V30 2830 C 269.68 1.50052 -2.33195 0
M  V30 2831 H 272.631 0.427531 -1.52833 0
M  V30 2832 H 272.652 3.0405 -2.28765 0
M  V30 2833 H 272.164 1.67679 -3.50008 0
M  V30 2834 H 270.265 3.33033 -1.67093 0
M  V30 2835 H 270.378 3.2155 -3.55165 0
M  V30 2836 H 268.742 1.77993 -1.82183 0
M  V30 2837 H 269.525 0.980903 -3.28988 0
M  V30 2838 N 271.97 1.30982 0.876444 0
M  V30 2839 C 273.217 1.20296 1.62896 0
M  V30 2840 C 273.545 -0.240395 1.93009 0
M  V30 2841 O 272.8 -1.18733 1.55567 0
M  V30 2842 C 273.099 1.98572 2.9716 0
M  V30 2843 C 272.765 3.48125 2.86566 0
M  V30 2844 C 271.427 3.88905 2.83383 0
M  V30 2845 C 273.779 4.43322 2.74071 0
M  V30 2846 C 271.107 5.2316 2.65556 0
M  V30 2847 C 273.459 5.77695 2.57781 0
M  V30 2848 C 272.123 6.17704 2.52979 0
M  V30 2849 H 271.393 0.440193 0.59608 0
M  V30 2850 H 274.04 1.62177 1.01837 0
M  V30 2851 H 272.345 1.49352 3.62217 0
M  V30 2852 H 274.042 1.8769 3.54364 0
M  V30 2853 H 270.632 3.15723 2.89856 0
M  V30 2854 H 274.816 4.12752 2.75589 0
M  V30 2855 H 270.072 5.53241 2.60259 0
M  V30 2856 H 274.246 6.51091 2.47089 0
M  V30 2857 H 271.873 7.21678 2.38924 0
M  V30 2858 N 273.449 -1.08991 1.13837 0
M  V30 2859 C 274.698 -1.80631 0.897509 0
M  V30 2860 C 275.011 -1.86872 -0.57777 0
M  V30 2861 O 276.217 -2.54866 -0.935701 0
M  V30 2862 C 274.673 -3.24517 1.55618 0
M  V30 2863 C 274.281 -3.26529 3.0673 0
M  V30 2864 C 276.025 -4.00882 1.3962 0
M  V30 2865 C 273.932 -4.64965 3.65461 0
M  V30 2866 H 272.862 -0.67691 0.332129 0
M  V30 2867 H 275.513 -1.2246 1.3666 0
M  V30 2868 H 273.895 -3.82778 1.01476 0
M  V30 2869 H 275.069 -2.78008 3.67489 0
M  V30 2870 H 273.384 -2.63656 3.22296 0
M  V30 2871 H 275.981 -5.03167 1.80906 0
M  V30 2872 H 276.324 -4.14896 0.341578 0
M  V30 2873 H 276.857 -3.49075 1.90766 0
M  V30 2874 H 273.596 -4.56153 4.70749 0
M  V30 2875 H 273.116 -5.13792 3.09481 0
M  V30 2876 H 274.795 -5.3394 3.654 0
M  V30 2877 N 274.927 -0.932562 -1.27047 0
M  V30 2878 C 276.157 -0.591173 -1.97961 0
M  V30 2879 C 276.565 0.836219 -1.69717 0
M  V30 2880 O 275.908 1.56801 -0.957036 0
M  V30 2881 C 275.97 -0.743082 -3.51736 0
M  V30 2882 C 275.634 -2.1435 -4.03613 0
M  V30 2883 C 276.631 -3.11815 -4.16014 0
M  V30 2884 C 274.316 -2.46175 -4.37839 0
M  V30 2885 C 276.31 -4.39211 -4.61923 0
M  V30 2886 C 273.997 -3.73806 -4.83438 0
M  V30 2887 C 274.995 -4.70137 -4.95439 0
M  V30 2888 O 274.683 -5.95496 -5.40037 0
M  V30 2889 H 274.415 -0.222375 -0.638377 0
M  V30 2890 H 276.969 -1.25317 -1.62742 0
M  V30 2891 H 275.199 -0.0239739 -3.86693 0
M  V30 2892 H 276.888 -0.40603 -4.03864 0
M  V30 2893 H 277.654 -2.88549 -3.89826 0
M  V30 2894 H 273.533 -1.71936 -4.27737 0
M  V30 2895 H 277.077 -5.14404 -4.71205 0
M  V30 2896 H 272.974 -3.96888 -5.09068 0
M  V30 2897 H 273.742 -5.98554 -5.58279 0
M  V30 2898 N 276.405 1.4127 -0.698611 0
M  V30 2899 C 277.353 2.32588 -0.023855 0
M  V30 2900 C 278.347 1.51128 0.765292 0
M  V30 2901 O 279.553 1.67043 0.670571 0
M  V30 2902 H 275.928 0.751918 0.0110871 0
M  V30 2903 H 277.899 2.87167 -0.811031 0
M  V30 2904 C 276.648 3.35947 0.896369 0
M  V30 2905 H 275.971 3.98684 0.298548 0
M  V30 2906 H 277.411 4.02376 1.33676 0
M  V30 2907 C 275.87 2.70076 2.01396 0
M  V30 2908 O 276.4 2.55093 3.10307 0
M  V30 2909 N 274.606 2.28724 1.79259 0
M  V30 2910 H 274.153 2.4111 0.906841 0
M  V30 2911 H 274.111 1.84986 2.54219 0
M  V30 2912 N 277.883 0.443576 1.51229 0
M  V30 2913 C 278.813 -0.355142 2.30783 0
M  V30 2914 C 279.794 -1.0154 1.36468 0
M  V30 2915 O 280.979 -1.01785 1.65389 0
M  V30 2916 C 278.109 -1.45312 3.15439 0
M  V30 2917 C 277.063 -0.916002 4.18083 0
M  V30 2918 C 276.389 -2.1102 4.91299 0
M  V30 2919 C 277.689 0.0538602 5.22272 0
M  V30 2920 H 279.383 0.308767 2.97804 0
M  V30 2921 H 276.929 0.149937 1.43217 0
M  V30 2922 H 278.882 -2.01914 3.69876 0
M  V30 2923 H 277.606 -2.14541 2.46252 0
M  V30 2924 H 276.265 -0.372145 3.64706 0
M  V30 2925 H 275.913 -2.78882 4.18609 0
M  V30 2926 H 275.613 -1.75717 5.60712 0
M  V30 2927 H 277.137 -2.68164 5.48562 0
M  V30 2928 H 278.551 -0.422069 5.71744 0
M  V30 2929 H 276.948 0.319776 5.99247 0
M  V30 2930 H 278.018 0.98858 4.74716 0
M  V30 2931 N 279.361 -1.56624 0.175154 0
M  V30 2932 C 280.586 -2.01813 -0.478137 0
M  V30 2933 C 281.011 -1.05457 -1.55757 0
M  V30 2934 O 280.369 -0.0347439 -1.81267 0
M  V30 2935 C 280.417 -3.45581 -1.02987 0
M  V30 2936 O 279.521 -3.52305 -2.14371 0
M  V30 2937 H 278.862 -0.65413 -0.114059 0
M  V30 2938 H 281.392 -2.02673 0.280173 0
M  V30 2939 H 281.402 -3.84965 -1.35151 0
M  V30 2940 H 280.077 -4.1521 -0.239556 0
M  V30 2941 H 278.654 -3.24783 -1.83222 0
M  V30 2942 N 280.839 0.0985539 -1.57292 0
M  V30 2943 C 282.064 0.820196 -1.90493 0
M  V30 2944 C 282.489 1.71658 -0.769094 0
M  V30 2945 O 281.847 1.79133 0.279495 0
M  V30 2946 C 281.895 1.61242 -3.22542 0
M  V30 2947 O 280.999 2.72108 -3.09888 0
M  V30 2948 H 280.34 0.225547 -0.62452 0
M  V30 2949 H 282.87 0.0748159 -2.04463 0
M  V30 2950 H 282.88 1.99737 -3.55766 0
M  V30 2951 H 281.555 0.954535 -4.04798 0
M  V30 2952 H 280.132 2.36667 -2.88172 0
M  V30 2953 N 282.317 1.53212 0.369288 0
M  V30 2954 C 283.566 1.68436 1.10961 0
M  V30 2955 C 283.879 0.440738 1.9057 0
M  V30 2956 O 285.085 0.473446 2.6734 0
M  V30 2957 C 283.541 2.97744 2.0218 0
M  V30 2958 C 283.149 4.29355 1.279 0
M  V30 2959 C 284.893 3.22334 2.76226 0
M  V30 2960 C 282.8 5.49755 2.17999 0
M  V30 2961 H 281.73 0.627568 0.41794 0
M  V30 2962 H 284.381 1.79713 0.370884 0
M  V30 2963 H 282.763 2.8026 2.79768 0
M  V30 2964 H 283.937 4.57458 0.554007 0
M  V30 2965 H 282.252 4.11179 0.657311 0
M  V30 2966 H 284.849 4.09471 3.43857 0
M  V30 2967 H 285.192 2.38238 3.41392 0
M  V30 2968 H 285.725 3.40475 2.05723 0
M  V30 2969 H 282.464 6.36318 1.57417 0
M  V30 2970 H 281.984 5.25937 2.88359 0
M  V30 2971 H 283.663 5.84401 2.77641 0
M  V30 2972 N 283.795 -0.628877 1.44509 0
M  V30 2973 C 285.02 -1.42048 1.5112 0
M  V30 2974 C 285.445 -1.87594 0.137818 0
M  V30 2975 O 284.803 -1.58873 -0.873437 0
M  V30 2976 C 284.851 -2.61541 2.48251 0
M  V30 2977 O 283.955 -3.61453 1.98559 0
M  V30 2978 H 283.296 -0.424942 0.510216 0
M  V30 2979 H 285.826 -0.767374 1.89664 0
M  V30 2980 H 285.836 -3.09057 2.66361 0
M  V30 2981 H 284.511 -2.27736 3.48007 0
M  V30 2982 H 283.088 -3.20731 1.90227 0
M  V30 2983 N 285.273 -1.31445 -0.869486 0
M  V30 2984 C 286.522 -1.20517 -1.61736 0
M  V30 2985 C 286.835 0.235341 -1.94179 0
M  V30 2986 O 288.041 0.466312 -2.67465 0
M  V30 2987 C 286.497 -2.10982 -2.91573 0
M  V30 2988 C 286.105 -3.60032 -2.66611 0
M  V30 2989 C 287.849 -2.08856 -3.69567 0
M  V30 2990 C 285.756 -4.42503 -3.92358 0
M  V30 2991 H 284.686 -0.447493 -0.606849 0
M  V30 2992 H 287.337 -1.56303 -0.96133 0
M  V30 2993 H 285.719 -1.68095 -3.58553 0
M  V30 2994 H 286.893 -4.11167 -2.08035 0
M  V30 2995 H 285.208 -3.64139 -2.0197 0
M  V30 2996 H 287.805 -2.67716 -4.62852 0
M  V30 2997 H 288.148 -1.07582 -4.02159 0
M  V30 2998 H 288.681 -2.49945 -3.09471 0
M  V30 2999 H 285.42 -5.44533 -3.64916 0
M  V30 3000 H 284.94 -3.96125 -4.50383 0
M  V30 3001 H 286.619 -4.54741 -4.60238 0
M  V30 3002 N 286.751 1.08385 -1.14413 0
M  V30 3003 C 287.981 1.8425 -0.934644 0
M  V30 3004 C 288.389 1.81907 0.520234 0
M  V30 3005 O 287.732 1.22126 1.37226 0
M  V30 3006 C 287.794 3.32853 -1.35828 0
M  V30 3007 C 287.458 3.5893 -2.82875 0
M  V30 3008 C 288.455 3.53756 -3.80989 0
M  V30 3009 C 286.14 3.86934 -3.20293 0
M  V30 3010 C 288.134 3.76216 -5.14529 0
M  V30 3011 C 285.821 4.09047 -4.54008 0
M  V30 3012 C 286.819 4.03682 -5.50936 0
M  V30 3013 O 286.507 4.25214 -6.82238 0
M  V30 3014 H 286.239 0.588502 -0.332628 0
M  V30 3015 H 288.793 1.37792 -1.52324 0
M  V30 3016 H 287.023 3.8007 -0.713019 0
M  V30 3017 H 288.712 3.90154 -1.11957 0
M  V30 3018 H 289.478 3.32135 -3.53428 0
M  V30 3019 H 285.357 3.9023 -2.45442 0
M  V30 3020 H 288.901 3.71943 -5.90173 0
M  V30 3021 H 284.798 4.30151 -4.8129 0
M  V30 3022 H 285.566 4.42619 -6.88499 0
M  V30 3023 N 288.23 0.939286 1.26551 0
M  V30 3024 C 289.455 0.602008 1.98471 0
M  V30 3025 C 289.88 -0.815624 1.69497 0
M  V30 3026 O 289.238 -1.54912 0.941905 0
M  V30 3027 C 289.286 0.848407 3.50477 0
M  V30 3028 O 288.39 -0.0804009 4.12322 0
M  V30 3029 H 287.731 0.23049 0.622712 0
M  V30 3030 H 290.261 1.2617 1.61066 0
M  V30 3031 H 290.271 0.768553 4.00696 0
M  V30 3032 H 288.946 1.88171 3.70897 0
M  V30 3033 H 287.523 0.0503508 3.72866 0
M  V30 3034 N 289.708 -1.40897 0.706093 0
M  V30 3035 C 290.938 -2.05075 0.250523 0
M  V30 3036 C 291.346 -1.53275 -1.10921 0
M  V30 3037 O 290.689 -0.680281 -1.7064 0
M  V30 3038 C 290.751 -3.59219 0.142178 0
M  V30 3039 C 290.415 -4.33864 1.43566 0
M  V30 3040 C 291.412 -4.62448 2.37566 0
M  V30 3041 C 289.097 -4.72946 1.69195 0
M  V30 3042 C 291.091 -5.29088 3.5545 0
M  V30 3043 C 288.778 -5.3932 2.87362 0
M  V30 3044 C 289.776 -5.6732 3.80312 0
M  V30 3045 O 289.464 -6.32325 4.96408 0
M  V30 3046 H 289.196 -0.666645 0.112074 0
M  V30 3047 H 291.75 -1.81467 0.962239 0
M  V30 3048 H 289.98 -3.81609 -0.6254 0
M  V30 3049 H 291.669 -4.0495 -0.277584 0
M  V30 3050 H 292.435 -4.32727 2.19027 0
M  V30 3051 H 288.314 -4.50527 0.977042 0
M  V30 3052 H 291.858 -5.50859 4.28018 0
M  V30 3053 H 287.755 -5.68461 3.05814 0
M  V30 3054 H 288.523 -6.50821 4.9636 0
M  V30 3055 N 291.186 -0.45159 -1.50991 0
M  V30 3056 C 292.116 0.342898 -2.30969 0
M  V30 3057 C 293.097 1.00815 -1.37005 0
M  V30 3058 O 294.282 1.00907 -1.65926 0
M  V30 3059 C 291.412 1.43637 -3.16205 0
M  V30 3060 C 290.366 0.893818 -4.18563 0
M  V30 3061 C 289.692 2.08411 -4.92411 0
M  V30 3062 C 290.992 -0.0815568 -5.22236 0
M  V30 3063 H 292.686 -0.324556 -2.97636 0
M  V30 3064 H 290.232 -0.157531 -1.43136 0
M  V30 3065 H 292.185 1.9995 -3.70942 0
M  V30 3066 H 290.909 2.13232 -2.47386 0
M  V30 3067 H 289.568 0.352798 -3.64898 0
M  V30 3068 H 289.216 2.76658 -4.20082 0
M  V30 3069 H 288.916 1.72741 -5.61636 0
M  V30 3070 H 290.44 2.65251 -5.49976 0
M  V30 3071 H 291.854 0.391742 -5.7196 0
M  V30 3072 H 290.251 -0.351551 -5.99069 0
M  V30 3073 H 291.321 -1.01374 -4.74185 0
M  V30 3074 N 292.664 1.56529 -0.183458 0
M  V30 3075 C 294.075 1.83739 0.331177 0
M  V30 3076 C 294.426 1.10373 1.62211 0
M  V30 3077 O 293.551 0.36071 2.13373 0
M  V30 3078 C 294.146 3.33306 0.607646 0
M  V30 3079 C 292.705 3.60969 1.06668 0
M  V30 3080 C 291.852 2.77086 0.109029 0
M  V30 3081 H 294.803 1.53379 -0.407484 0
M  V30 3082 H 294.824 3.51444 1.45832 0
M  V30 3083 H 294.336 3.86677 -0.332086 0
M  V30 3084 H 292.437 3.13021 2.0211 0
M  V30 3085 H 292.55 4.69231 0.967447 0
M  V30 3086 H 290.914 2.47319 0.608714 0
M  V30 3087 H 291.697 3.33241 -0.82494 0
M  V30 3088 N 294.142 -0.090211 1.57342 0
M  V30 3089 C 295.105 -1.09335 2.01441 0
M  V30 3090 C 296.105 -1.32666 0.908641 0
M  V30 3091 O 297.295 -1.28697 1.174 0
M  V30 3092 C 294.427 -2.44136 2.3793 0
M  V30 3093 H 295.62 -0.713662 2.91285 0
M  V30 3094 H 293.173 -0.335404 1.52659 0
M  V30 3095 H 293.908 -2.86972 1.51055 0
M  V30 3096 H 293.693 -2.28548 3.18603 0
M  V30 3097 H 295.183 -3.16277 2.72688 0
M  V30 3098 N 295.62 -1.53406 -0.361157 0
M  V30 3099 C 296.867 -1.69802 -1.10333 0
M  V30 3100 C 297.195 -0.452087 -1.89173 0
M  V30 3101 O 296.45 0.566017 -1.87336 0
M  V30 3102 C 296.749 -2.90211 -2.08596 0
M  V30 3103 C 296.415 -4.26539 -1.46203 0
M  V30 3104 C 295.077 -4.6361 -1.28915 0
M  V30 3105 C 297.429 -5.113 -1.01101 0
M  V30 3106 C 294.757 -5.83075 -0.651157 0
M  V30 3107 C 297.109 -6.31415 -0.387007 0
M  V30 3108 C 295.773 -6.67195 -0.201657 0
M  V30 3109 H 295.043 -0.621351 -0.403737 0
M  V30 3110 H 297.69 -1.87598 -0.384609 0
M  V30 3111 H 295.995 -2.66946 -2.86788 0
M  V30 3112 H 297.692 -3.00091 -2.65982 0
M  V30 3113 H 294.282 -3.97352 -1.60653 0
M  V30 3114 H 298.466 -4.83206 -1.13249 0
M  V30 3115 H 293.722 -6.09385 -0.496006 0
M  V30 3116 H 297.896 -6.96394 -0.0293563 0
M  V30 3117 H 295.523 -7.59628 0.294766 0
M  V30 3118 N 297.098 0.621204 -1.44841 0
M  V30 3119 C 298.045 1.73267 -1.5247 0
M  V30 3120 C 299.015 1.6189 -0.371611 0
M  V30 3121 O 300.2 1.81668 -0.58321 0
M  V30 3122 C 297.34 3.11545 -1.48438 0
M  V30 3123 C 296.453 3.33827 -2.74196 0
M  V30 3124 C 295.588 4.62133 -2.61929 0
M  V30 3125 C 294.627 4.77627 -3.82804 0
M  V30 3126 N 293.764 5.97219 -3.69153 0
M  V30 3127 H 298.604 1.66082 -2.47428 0
M  V30 3128 H 296.141 0.810026 -1.22788 0
M  V30 3129 H 298.099 3.91528 -1.4409 0
M  V30 3130 H 296.729 3.1772 -0.570402 0
M  V30 3131 H 295.781 2.47715 -2.88689 0
M  V30 3132 H 297.093 3.41153 -3.6389 0
M  V30 3133 H 296.247 5.50291 -2.5547 0
M  V30 3134 H 294.986 4.57182 -1.69811 0
M  V30 3135 H 293.991 3.87896 -3.89637 0
M  V30 3136 H 295.216 4.84385 -4.75971 0
M  V30 3137 H 293.162 5.93339 -2.79794 0
M  V30 3138 H 293.079 6.05644 -4.52472 0
M  V30 3139 H 294.347 6.87912 -3.66603 0
M  V30 3140 N 298.576 1.31904 0.862503 0
M  V30 3141 C 299.822 1.22197 1.61851 0
M  V30 3142 C 300.155 -0.217641 1.92977 0
M  V30 3143 O 299.43 -1.15264 1.56666 0
M  V30 3144 C 299.713 2.07378 2.94391 0
M  V30 3145 C 299.566 3.59678 2.70096 0
M  V30 3146 C 300.885 1.92891 3.95577 0
M  V30 3147 H 298.004 0.445255 0.587296 0
M  V30 3148 H 300.646 1.6177 0.99651 0
M  V30 3149 H 298.796 1.73758 3.47477 0
M  V30 3150 H 300.468 4.03472 2.23625 0
M  V30 3151 H 298.711 3.82735 2.04197 0
M  V30 3152 H 299.382 4.14595 3.64438 0
M  V30 3153 H 301.858 2.22327 3.51724 0
M  V30 3154 H 300.734 2.54781 4.86187 0
M  V30 3155 H 300.995 0.894315 4.3296 0
M  V30 3156 N 300.054 -1.07777 1.14986 0
M  V30 3157 C 301.301 -1.8029 0.922056 0
M  V30 3158 C 301.629 -1.86531 -0.55105 0
M  V30 3159 O 300.884 -1.34189 -1.42449 0
M  V30 3160 C 301.183 -3.25495 1.47608 0
M  V30 3161 C 300.849 -3.39361 2.96893 0
M  V30 3162 C 299.511 -3.42852 3.37647 0
M  V30 3163 C 301.863 -3.42512 3.92854 0
M  V30 3164 C 299.191 -3.47094 4.73015 0
M  V30 3165 C 301.543 -3.4829 5.28088 0
M  V30 3166 C 300.207 -3.50058 5.68345 0
M  V30 3167 H 299.477 -0.659727 0.337404 0
M  V30 3168 H 302.124 -1.26854 1.43459 0
M  V30 3169 H 300.429 -3.81683 0.88463 0
M  V30 3170 H 302.126 -3.80168 1.27568 0
M  V30 3171 H 298.716 -3.37339 2.64387 0
M  V30 3172 H 302.9 -3.3904 3.62444 0
M  V30 3173 H 298.156 -3.46758 5.03556 0
M  V30 3174 H 302.33 -3.49675 6.02246 0
M  V30 3175 H 299.957 -3.53097 6.73221 0
M  V30 3176 N 301.532 -0.945985 -1.26051 0
M  V30 3177 C 302.78 -0.594941 -1.93145 0
M  V30 3178 C 303.101 0.86953 -1.7454 0
M  V30 3179 O 302.371 1.61838 -1.10387 0
M  V30 3180 H 300.951 -0.217044 -0.714773 0
M  V30 3181 H 303.613 -1.20235 -1.53393 0
M  V30 3182 H 302.709 -0.816835 -3.01221 0
M  V30 3183 N 303.011 1.40521 -0.713556 0
M  V30 3184 C 303.974 2.29098 -0.0684347 0
M  V30 3185 C 304.974 1.45268 0.689472 0
M  V30 3186 O 306.164 1.66205 0.521677 0
M  V30 3187 C 303.296 3.28446 0.913024 0
M  V30 3188 H 304.489 2.87645 -0.84855 0
M  V30 3189 H 302.042 1.48809 -0.47809 0
M  V30 3190 H 302.777 2.74913 1.72027 0
M  V30 3191 H 302.562 3.90327 0.372472 0
M  V30 3192 H 304.052 3.94777 1.36165 0
M  V30 3193 N 304.489 0.459591 1.5075 0
M  V30 3194 C 305.714 -0.0996819 2.0716 0
M  V30 3195 C 306.139 -1.33761 1.32249 0
M  V30 3196 O 305.497 -1.77551 0.366786 0
M  V30 3197 C 305.545 -0.378226 3.58611 0
M  V30 3198 O 304.649 -1.46081 3.85661 0
M  V30 3199 H 303.99 0.00791392 0.663953 0
M  V30 3200 H 306.52 0.647329 1.9409 0
M  V30 3201 H 306.53 -0.622135 4.03229 0
M  V30 3202 H 305.205 0.526439 4.12555 0
M  V30 3203 H 303.782 -1.20511 3.5289 0
M  V30 3204 N 305.967 -1.56429 0.191757 0
M  V30 3205 C 306.93 -2.17707 -0.716688 0
M  V30 3206 C 307.93 -1.13061 -1.14341 0
M  V30 3207 O 309.12 -1.38464 -1.05704 0
M  V30 3208 C 306.252 -2.77644 -1.97804 0
M  V30 3209 H 307.445 -2.99342 -0.1829 0
M  V30 3210 H 304.998 -1.56193 -0.0578566 0
M  V30 3211 H 305.733 -1.99799 -2.55443 0
M  V30 3212 H 305.518 -3.54246 -1.68083 0
M  V30 3213 H 307.008 -3.24708 -2.62592 0
M  V30 3214 N 307.445 0.0818655 -1.57387 0
M  V30 3215 C 308.392 1.09834 -2.0299 0
M  V30 3216 C 309.362 1.39043 -0.908639 0
M  V30 3217 O 310.547 1.50282 -1.17559 0
M  V30 3218 C 307.687 2.40971 -2.47037 0
M  V30 3219 C 306.8 2.18379 -3.7274 0
M  V30 3220 C 305.935 3.43008 -4.0561 0
M  V30 3221 C 304.974 3.15736 -5.24383 0
M  V30 3222 N 304.111 4.32667 -5.52941 0
M  V30 3223 H 308.951 0.702472 -2.89602 0
M  V30 3224 H 306.488 0.33531 -1.43227 0
M  V30 3225 H 308.446 3.1752 -2.70623 0
M  V30 3226 H 307.076 2.78379 -1.63417 0
M  V30 3227 H 306.128 1.32569 -3.56552 0
M  V30 3228 H 307.44 1.94227 -4.59431 0
M  V30 3229 H 306.594 4.27958 -4.30043 0
M  V30 3230 H 305.333 3.70225 -3.17466 0
M  V30 3231 H 304.338 2.2918 -4.99757 0
M  V30 3232 H 305.563 2.8985 -6.14136 0
M  V30 3233 H 303.509 4.59935 -4.67756 0
M  V30 3234 H 303.426 4.11753 -6.34031 0
M  V30 3235 H 304.694 5.18644 -5.81918 0
M  V30 3236 N 308.923 1.53595 0.353017 0
M  V30 3237 C 310.169 1.70638 1.09593 0
M  V30 3238 C 310.502 0.463286 1.88593 0
M  V30 3239 O 309.777 -0.539597 1.86865 0
M  V30 3240 C 310.06 2.96406 2.04489 0
M  V30 3241 C 309.913 4.30901 1.29014 0
M  V30 3242 C 311.232 3.17812 3.0444 0
M  V30 3243 H 308.351 0.620913 0.397034 0
M  V30 3244 H 310.993 1.86254 0.375446 0
M  V30 3245 H 309.143 2.83223 2.65927 0
M  V30 3246 H 310.815 4.55917 0.702638 0
M  V30 3247 H 309.058 4.29741 0.592071 0
M  V30 3248 H 309.729 5.1506 1.98537 0
M  V30 3249 H 312.205 3.30263 2.53112 0
M  V30 3250 H 311.081 4.07223 3.6805 0
M  V30 3251 H 311.342 2.33669 3.75301 0
M  V30 3252 N 310.401 -0.613514 1.45168 0
M  V30 3253 C 311.647 -1.37471 1.49096 0
M  V30 3254 C 311.98 -1.93765 0.129901 0
M  V30 3255 O 311.255 -1.74707 -0.854858 0
M  V30 3256 C 311.538 -2.52701 2.56542 0
M  V30 3257 C 311.391 -2.01643 4.0207 0
M  V30 3258 C 312.71 -3.54849 2.60327 0
M  V30 3259 H 309.829 -0.498502 0.54283 0
M  V30 3260 H 312.471 -0.692125 1.76945 0
M  V30 3261 H 310.621 -3.10931 2.32926 0
M  V30 3262 H 312.293 -1.48108 4.36877 0
M  V30 3263 H 310.536 -1.32688 4.13009 0
M  V30 3264 H 311.207 -2.84681 4.72928 0
M  V30 3265 H 313.683 -3.0645 2.81474 0
M  V30 3266 H 312.559 -4.32973 3.37381 0
M  V30 3267 H 312.82 -4.10079 1.6519 0
M  V30 3268 N 311.879 -1.3236 -0.855495 0
M  V30 3269 C 312.829 -1.17809 -1.95205 0
M  V30 3270 C 313.813 -0.0852319 -1.60674 0
M  V30 3271 O 315.005 -0.311651 -1.74235 0
M  V30 3272 C 312.134 -0.902437 -3.31226 0
M  V30 3273 C 311.22 -2.03695 -3.7198 0
M  V30 3274 N 311.611 -3.28544 -3.84568 0
M  V30 3275 C 309.909 -1.93993 -4.016 0
M  V30 3276 C 310.61 -4.02847 -4.19629 0
M  V30 3277 N 309.586 -3.31138 -4.31102 0
M  V30 3278 H 313.388 -2.12462 -2.0307 0
M  V30 3279 H 310.902 -1.24127 -1.0472 0
M  V30 3280 H 312.899 -0.77915 -4.09554 0
M  V30 3281 H 311.559 0.0357267 -3.2468 0
M  V30 3282 H 312.57 -3.6349 -3.68911 0
M  V30 3283 H 309.247 -1.07733 -4.03361 0
M  V30 3284 H 310.637 -5.10506 -4.36845 0
M  V30 3285 N 313.357 1.07166 -1.15556 0
M  V30 3286 C 314.604 1.79798 -0.931604 0
M  V30 3287 C 314.932 1.8682 0.54115 0
M  V30 3288 O 314.187 1.34942 1.41736 0
M  V30 3289 C 314.486 3.24707 -1.49332 0
M  V30 3290 C 314.152 3.37781 -2.98688 0
M  V30 3291 C 312.814 3.41057 -3.39461 0
M  V30 3292 C 315.166 3.40424 -3.94665 0
M  V30 3293 C 312.494 3.4458 -4.74849 0
M  V30 3294 C 314.846 3.45485 -5.29927 0
M  V30 3295 C 313.51 3.47039 -5.70193 0
M  V30 3296 H 312.78 0.657928 -0.340898 0
M  V30 3297 H 315.427 1.26091 -1.44129 0
M  V30 3298 H 313.732 3.81208 -0.904859 0
M  V30 3299 H 315.429 3.79486 -1.29582 0
M  V30 3300 H 312.019 3.35932 -2.66172 0
M  V30 3301 H 316.203 3.37113 -3.64237 0
M  V30 3302 H 311.459 3.44083 -5.05388 0
M  V30 3303 H 315.633 3.46476 -6.04092 0
M  V30 3304 H 313.26 3.49522 -6.75084 0
M  V30 3305 N 314.835 0.952656 1.25548 0
M  V30 3306 C 315.765 0.489287 2.28316 0
M  V30 3307 C 316.746 -0.463359 1.63667 0
M  V30 3308 O 317.931 -0.36274 1.90782 0
M  V30 3309 C 315.061 -0.235603 3.465 0
M  V30 3310 C 314.015 0.631593 4.23314 0
M  V30 3311 C 313.341 -0.223923 5.34231 0
M  V30 3312 C 314.641 1.90871 4.86174 0
M  V30 3313 H 316.335 1.34822 2.67326 0
M  V30 3314 H 313.881 0.649728 1.28509 0
M  V30 3315 H 315.834 -0.570882 4.17515 0
M  V30 3316 H 314.558 -1.12877 3.06474 0
M  V30 3317 H 313.217 0.949929 3.54079 0
M  V30 3318 H 312.865 -1.11678 4.90446 0
M  V30 3319 H 312.565 0.35299 5.86539 0
M  V30 3320 H 314.089 -0.554214 6.0808 0
M  V30 3321 H 315.503 1.63997 5.49343 0
M  V30 3322 H 313.9 2.43112 5.4865 0
M  V30 3323 H 314.97 2.61304 4.08471 0
M  V30 3324 N 316.313 -1.40141 0.720998 0
M  V30 3325 C 317.561 -2.0039 0.262323 0
M  V30 3326 C 317.882 -1.57469 -1.15015 0
M  V30 3327 O 317.152 -0.816582 -1.78069 0
M  V30 3328 H 315.732 -0.741063 0.093996 0
M  V30 3329 H 318.394 -1.71398 0.927835 0
M  V30 3330 H 317.49 -3.10658 0.299671 0
M  V30 3331 N 317.792 -0.46758 -1.50504 0
M  V30 3332 C 319.208 -0.121533 -1.59137 0
M  V30 3333 C 319.408 1.3717 -1.47603 0
M  V30 3334 O 318.464 2.14464 -1.33272 0
M  V30 3335 C 319.777 -0.6686 -2.93173 0
M  V30 3336 C 321.325 -0.631716 -3.06559 0
M  V30 3337 C 321.8 -1.15627 -4.43164 0
M  V30 3338 N 323.291 -1.11553 -4.49567 0
M  V30 3339 C 324.026 -1.49195 -5.5365 0
M  V30 3340 N 323.522 -1.94269 -6.65005 0
M  V30 3341 N 325.315 -1.4082 -5.44175 0
M  V30 3342 H 317.466 -1.4388 -1.56245 0
M  V30 3343 H 319.729 -0.594784 -0.738198 0
M  V30 3344 H 319.435 -1.71453 -3.07078 0
M  V30 3345 H 319.309 -0.11021 -3.77039 0
M  V30 3346 H 321.696 0.405297 -2.92304 0
M  V30 3347 H 321.777 -1.22687 -2.24458 0
M  V30 3348 H 321.421 -2.1919 -4.58168 0
M  V30 3349 H 321.351 -0.537365 -5.23851 0
M  V30 3350 H 323.842 -0.784895 -3.69659 0
M  V30 3351 H 324.155 -2.21148 -7.40482 0
M  V30 3352 H 322.5 -1.98219 -6.66134 0
M  V30 3353 H 325.691 -1.0545 -4.56068 0
M  V30 3354 H 325.864 -1.70481 -6.25172 0
M  V30 3355 N 319.27 1.56325 -0.20005 0
M  V30 3356 C 320.516 1.98012 0.438059 0
M  V30 3357 C 320.849 1.08702 1.60927 0
M  V30 3358 O 320.124 0.140064 1.93995 0
M  V30 3359 C 320.407 3.48841 0.893419 0
M  V30 3360 C 320.26 4.48928 -0.279947 0
M  V30 3361 C 321.579 4.03498 1.75719 0
M  V30 3362 H 318.698 0.719918 0.157757 0
M  V30 3363 H 321.34 1.87743 -0.291968 0
M  V30 3364 H 319.49 3.57723 1.51547 0
M  V30 3365 H 321.162 4.52079 -0.91772 0
M  V30 3366 H 319.405 4.23694 -0.930919 0
M  V30 3367 H 320.076 5.5194 0.0812601 0
M  V30 3368 H 322.552 3.97427 1.23253 0
M  V30 3369 H 321.428 5.09393 2.04476 0
M  V30 3370 H 321.689 3.4906 2.71311 0
M  V30 3371 N 320.748 -0.0735177 1.57428 0
M  V30 3372 C 321.695 -1.08756 2.0357 0
M  V30 3373 C 322.665 -1.38559 0.916 0
M  V30 3374 O 323.85 -1.49656 1.18354 0
M  V30 3375 C 320.99 -2.39657 2.48311 0
M  V30 3376 C 320.103 -2.16399 3.73892 0
M  V30 3377 C 319.238 -3.40852 4.07423 0
M  V30 3378 C 318.277 -3.1295 5.2605 0
M  V30 3379 N 317.414 -4.29729 5.55228 0
M  V30 3380 H 322.254 -0.687104 2.8997 0
M  V30 3381 H 319.791 -0.327709 1.43403 0
M  V30 3382 H 321.749 -3.16081 2.72303 0
M  V30 3383 H 320.379 -2.77508 1.64891 0
M  V30 3384 H 319.431 -1.30676 3.57251 0
M  V30 3385 H 320.743 -1.91788 4.60455 0
M  V30 3386 H 319.897 -4.25671 4.32306 0
M  V30 3387 H 318.636 -3.68537 3.19425 0
M  V30 3388 H 317.641 -2.26526 5.00965 0
M  V30 3389 H 318.866 -2.86589 6.15665 0
M  V30 3390 H 316.812 -4.57448 4.70188 0
M  V30 3391 H 316.729 -4.08385 6.36206 0
M  V30 3392 H 317.997 -5.1555 5.84661 0
M  V30 3393 N 322.226 -1.5378 -0.344866 0
M  V30 3394 C 323.637 -1.62428 -0.920552 0
M  V30 3395 C 323.988 -0.504747 -1.89596 0
M  V30 3396 O 323.113 0.365711 -2.13287 0
M  V30 3397 C 323.708 -2.94419 -1.67639 0
M  V30 3398 C 322.267 -3.05333 -2.20111 0
M  V30 3399 C 321.414 -2.57866 -1.01982 0
M  V30 3400 H 324.365 -1.58222 -0.123042 0
M  V30 3401 H 324.386 -2.83384 -2.53917 0
M  V30 3402 H 323.898 -3.7588 -0.966224 0
M  V30 3403 H 321.999 -2.28502 -2.94308 0
M  V30 3404 H 322.112 -4.10778 -2.46573 0
M  V30 3405 H 320.476 -2.13241 -1.39285 0
M  V30 3406 H 321.259 -3.41765 -0.324308 0
M  V30 3407 N 323.704 0.605807 -1.45491 0
M  V30 3408 C 324.95 1.36481 -1.50813 0
M  V30 3409 C 325.305 1.91826 -0.148469 0
M  V30 3410 O 324.598 1.72211 0.839869 0
M  V30 3411 C 324.792 2.53012 -2.52428 0
M  V30 3412 C 324.621 2.09078 -3.98141 0
M  V30 3413 C 323.391 1.95167 -4.66088 0
M  V30 3414 C 325.589 1.66438 -4.86624 0
M  V30 3415 N 323.571 1.45062 -5.96515 0
M  V30 3416 C 324.942 1.27761 -6.06694 0
M  V30 3417 C 326.997 1.54046 -4.7347 0
M  V30 3418 C 325.7 0.779286 -7.15066 0
M  V30 3419 C 327.726 1.05618 -5.81892 0
M  V30 3420 C 327.088 0.67906 -7.01119 0
M  V30 3421 H 323.187 0.493267 -0.606805 0
M  V30 3422 H 325.771 0.692347 -1.81974 0
M  V30 3423 H 323.942 3.17851 -2.23215 0
M  V30 3424 H 325.674 3.19897 -2.47887 0
M  V30 3425 H 322.429 2.16407 -4.21266 0
M  V30 3426 H 322.853 1.22237 -6.65873 0
M  V30 3427 H 327.495 1.81827 -3.81705 0
M  V30 3428 H 325.213 0.489026 -8.06619 0
M  V30 3429 H 328.799 0.964529 -5.73749 0
M  V30 3430 H 327.679 0.310091 -7.83587 0
M  V30 3431 N 325.182 1.32811 0.848464 0
M  V30 3432 C 326.13 1.22231 1.97895 0
M  V30 3433 C 327.124 0.125749 1.68933 0
M  V30 3434 O 328.33 0.289083 1.77663 0
M  V30 3435 H 324.705 0.379058 0.649476 0
M  V30 3436 H 326.676 2.17828 2.03945 0
M  V30 3437 C 325.425 0.968572 3.33937 0
M  V30 3438 H 324.748 1.80458 3.56756 0
M  V30 3439 H 326.188 0.934808 4.13567 0
M  V30 3440 C 324.647 -0.328628 3.35293 0
M  V30 3441 O 325.177 -1.33848 3.78745 0
M  V30 3442 N 323.383 -0.352788 2.88451 0
M  V30 3443 H 322.93 0.469541 2.53285 0
M  V30 3444 H 322.888 -1.22057 2.89741 0
M  V30 3445 N 326.66 -1.06551 1.16123 0
M  V30 3446 C 327.89 -1.8274 0.963838 0
M  V30 3447 C 328.298 -1.82712 -0.491228 0
M  V30 3448 O 327.641 -1.24294 -1.35265 0
M  V30 3449 C 327.703 -3.3065 1.41106 0
M  V30 3450 C 327.367 -3.54384 2.88549 0
M  V30 3451 C 328.364 -3.4765 3.86569 0
M  V30 3452 C 326.049 -3.81789 3.26408 0
M  V30 3453 C 328.043 -3.67982 5.2045 0
M  V30 3454 C 325.73 -4.01772 4.60459 0
M  V30 3455 C 326.728 -3.94866 5.57288 0
M  V30 3456 O 326.416 -4.14306 6.88916 0
M  V30 3457 H 326.148 -0.583136 0.341948 0
M  V30 3458 H 328.702 -1.35351 1.54497 0
M  V30 3459 H 326.932 -3.78887 0.773394 0
M  V30 3460 H 328.621 -3.88324 1.1815 0
M  V30 3461 H 329.387 -3.2647 3.58667 0
M  V30 3462 H 325.266 -3.86276 2.51619 0
M  V30 3463 H 328.81 -3.62507 5.96015 0
M  V30 3464 H 324.707 -4.2244 4.88072 0
M  V30 3465 H 325.475 -4.31609 6.95454 0
M  V30 3466 N 328.138 -0.959301 -1.25041 0
M  V30 3467 C 329.366 -0.633949 -1.96948 0
M  V30 3468 C 329.781 0.794916 -1.7125 0
M  V30 3469 O 329.138 1.53231 -0.991287 0
M  V30 3470 C 329.189 -0.888805 -3.50403 0
M  V30 3471 O 328.91 -2.26149 -3.75218 0
M  V30 3472 C 330.411 -0.576482 -4.39536 0
M  V30 3473 H 327.631 -0.237263 -0.627652 0
M  V30 3474 H 330.175 -1.28495 -1.59089 0
M  V30 3475 H 328.33 -0.284145 -3.86357 0
M  V30 3476 H 328.744 -2.33514 -4.6965 0
M  V30 3477 H 330.218 -0.805314 -5.46094 0
M  V30 3478 H 330.695 0.489075 -4.36468 0
M  V30 3479 H 331.301 -1.16067 -4.09156 0
M  V30 3480 N 329.616 1.39756 -0.72842 0
M  V30 3481 C 330.846 2.04651 -0.283117 0
M  V30 3482 C 331.254 1.5502 1.08469 0
M  V30 3483 O 330.597 0.707343 1.69536 0
M  V30 3484 C 330.659 3.58947 -0.199309 0
M  V30 3485 C 330.323 4.31525 -1.5045 0
M  V30 3486 C 331.32 4.5861 -2.44894 0
M  V30 3487 C 329.005 4.70195 -1.76698 0
M  V30 3488 C 330.999 5.23366 -3.63822 0
M  V30 3489 C 328.686 5.3468 -2.95906 0
M  V30 3490 C 329.684 5.61198 -3.89289 0
M  V30 3491 O 329.372 6.24347 -5.06404 0
M  V30 3492 H 329.104 0.664777 -0.122666 0
M  V30 3493 H 331.658 1.79913 -0.990987 0
M  V30 3494 H 329.888 3.82556 0.56461 0
M  V30 3495 H 331.577 4.0534 0.213125 0
M  V30 3496 H 332.343 4.29187 -2.25883 0
M  V30 3497 H 328.222 4.48916 -1.04859 0
M  V30 3498 H 331.766 5.4398 -4.36728 0
M  V30 3499 H 327.663 5.63524 -3.14819 0
M  V30 3500 H 328.431 6.42842 -5.06652 0
M  V30 3501 N 331.094 0.475555 1.50254 0
M  V30 3502 C 332.371 -0.139685 1.95101 0
M  V30 3503 C 332.751 -1.56555 1.41611 0
M  V30 3504 O 332.099 -2.19956 0.618993 0
M  V30 3505 C 332.309 -0.0784298 3.48912 0
M  V30 3506 C 333.657 -0.265095 4.23772 0
M  V30 3507 O 334.681 -0.154808 3.55863 0
M  V30 3508 O 333.54 -0.488327 5.44314 0
M  V30 3509 H 330.634 -0.109236 0.819754 0
M  V30 3510 H 333.18 0.536276 1.61004 0
M  V30 3511 H 331.952 0.916918 3.80405 0
M  V30 3512 H 331.575 -0.795655 3.89558 0
M  V30 3513 N 332.573 -1.56217 0.208337 0
M  V30 3514 C 333.984 -1.84243 -0.301904 0
M  V30 3515 C 334.335 -1.12939 -1.60434 0
M  V30 3516 O 333.46 -0.39461 -2.12772 0
M  V30 3517 C 334.055 -3.34231 -0.554543 0
M  V30 3518 C 332.614 -3.62621 -1.00912 0
M  V30 3519 C 331.761 -2.77224 -0.064933 0
M  V30 3520 H 334.712 -1.52712 0.431833 0
M  V30 3521 H 334.733 -3.5372 -1.40223 0
M  V30 3522 H 334.245 -3.86099 0.393561 0
M  V30 3523 H 332.346 -3.16197 -1.97104 0
M  V30 3524 H 332.459 -4.7071 -0.892674 0
M  V30 3525 H 330.823 -2.48256 -0.56929 0
M  V30 3526 H 331.606 -3.31887 0.877851 0
M  V30 3527 N 334.051 0.0651679 -1.57465 0
M  V30 3528 C 334.998 1.07675 -2.04144 0
M  V30 3529 C 335.968 1.38071 -0.923335 0
M  V30 3530 O 337.153 1.49026 -1.19146 0
M  V30 3531 C 334.293 2.38337 -2.49579 0
M  V30 3532 C 333.406 2.14413 -3.75035 0
M  V30 3533 C 332.541 3.38686 -4.09225 0
M  V30 3534 C 331.58 3.10156 -5.27702 0
M  V30 3535 N 330.717 4.26778 -5.57499 0
M  V30 3536 H 335.557 0.671716 -2.90331 0
M  V30 3537 H 333.094 0.3201 -1.43575 0
M  V30 3538 H 335.052 3.14632 -2.73975 0
M  V30 3539 H 333.682 2.7663 -1.6636 0
M  V30 3540 H 332.734 1.2878 -3.57939 0
M  V30 3541 H 334.046 1.89344 -4.61466 0
M  V30 3542 H 333.2 4.23373 -4.34558 0
M  V30 3543 H 331.939 3.66837 -3.21374 0
M  V30 3544 H 330.944 2.23866 -5.02159 0
M  V30 3545 H 332.169 2.8332 -6.17176 0
M  V30 3546 H 330.115 4.54948 -4.72608 0
M  V30 3547 H 330.032 4.05005 -6.38362 0
M  V30 3548 H 331.3 5.12443 -5.87386 0
M  V30 3549 N 335.529 1.53961 0.336706 0
M  V30 3550 C 336.757 1.75483 1.09605 0
M  V30 3551 C 337.172 0.4972 1.82136 0
M  V30 3552 O 336.529 -0.53149 1.74589 0
M  V30 3553 C 336.58 2.93943 2.10428 0
M  V30 3554 O 336.301 4.14842 1.40846 0
M  V30 3555 C 337.802 3.27571 2.98684 0
M  V30 3556 H 335.022 0.586166 0.326574 0
M  V30 3557 H 337.566 2.00808 0.38683 0
M  V30 3558 H 335.721 2.70929 2.76905 0
M  V30 3559 H 336.135 4.81383 2.08255 0
M  V30 3560 H 337.609 4.13791 3.6535 0
M  V30 3561 H 338.086 2.44168 3.65074 0
M  V30 3562 H 338.692 3.52615 2.37787 0
M  V30 3563 N 337.007 -0.598083 1.45811 0
M  V30 3564 C 337.954 -1.7082 1.55207 0
M  V30 3565 C 338.924 -1.61278 0.39732 0
M  V30 3566 O 340.109 -1.80717 0.612038 0
M  V30 3567 C 337.249 -3.09144 1.53376 0
M  V30 3568 C 336.362 -3.29423 2.79472 0
M  V30 3569 C 335.497 -4.57907 2.69248 0
M  V30 3570 C 334.536 -4.71476 3.90354 0
M  V30 3571 N 333.673 -5.9127 3.78608 0
M  V30 3572 H 338.513 -1.62125 2.50039 0
M  V30 3573 H 336.05 -0.790389 1.24062 0
M  V30 3574 H 338.008 -3.89186 1.50301 0
M  V30 3575 H 336.638 -3.16773 0.620876 0
M  V30 3576 H 335.69 -2.43091 2.92594 0
M  V30 3577 H 337.002 -3.3532 3.69272 0
M  V30 3578 H 336.156 -5.46157 2.64192 0
M  V30 3579 H 334.895 -4.54423 1.77063 0
M  V30 3580 H 333.9 -3.81648 3.95759 0
M  V30 3581 H 335.125 -4.76751 4.83617 0
M  V30 3582 H 333.071 -5.88813 2.89199 0
M  V30 3583 H 332.988 -5.98369 4.6205 0
M  V30 3584 H 334.256 -6.81992 3.77501 0
M  V30 3585 N 338.485 -1.33259 -0.841409 0
M  V30 3586 C 339.71 -1.2775 -1.63385 0
M  V30 3587 C 340.135 0.149188 -1.87507 0
M  V30 3588 O 339.493 1.10498 -1.43736 0
M  V30 3589 C 339.541 -2.05571 -2.96265 0
M  V30 3590 O 338.645 -1.41257 -3.87453 0
M  V30 3591 H 337.986 -0.439627 -0.497618 0
M  V30 3592 H 340.516 -1.75782 -1.04699 0
M  V30 3593 H 340.526 -2.16241 -3.45982 0
M  V30 3594 H 339.201 -3.09309 -2.7803 0
M  V30 3595 H 337.778 -1.39217 -3.45938 0
M  V30 3596 N 339.963 1.05934 -1.16686 0
M  V30 3597 C 341.209 1.79065 -0.95203 0
M  V30 3598 C 341.542 1.87147 0.518629 0
M  V30 3599 O 340.817 1.36574 1.38484 0
M  V30 3600 C 341.1 3.23359 -1.58464 0
M  V30 3601 C 340.953 3.23336 -3.12689 0
M  V30 3602 C 342.272 4.21004 -1.28232 0
M  V30 3603 H 339.391 0.65005 -0.34728 0
M  V30 3604 H 342.033 1.23868 -1.44072 0
M  V30 3605 H 340.183 3.70493 -1.16908 0
M  V30 3606 H 341.855 2.84336 -3.6325 0
M  V30 3607 H 340.098 2.61886 -3.4583 0
M  V30 3608 H 340.769 4.25144 -3.52075 0
M  V30 3609 H 343.245 3.8233 -1.64203 0
M  V30 3610 H 342.121 5.20225 -1.75092 0
M  V30 3611 H 342.382 4.41639 -0.201791 0
M  V30 3612 N 341.441 0.965919 1.2453 0
M  V30 3613 C 342.388 0.49402 2.25451 0
M  V30 3614 C 343.358 -0.45948 1.59618 0
M  V30 3615 O 344.543 -0.370238 1.87173 0
M  V30 3616 C 341.683 -0.211359 3.44452 0
M  V30 3617 C 340.796 0.7807 4.24887 0
M  V30 3618 C 339.931 0.0516105 5.31175 0
M  V30 3619 C 338.97 1.03385 6.03306 0
M  V30 3620 N 338.107 0.334887 7.01301 0
M  V30 3621 H 342.947 1.35946 2.65184 0
M  V30 3622 H 340.484 0.681515 1.3036 0
M  V30 3623 H 342.442 -0.637 4.12308 0
M  V30 3624 H 341.072 -1.04077 3.05562 0
M  V30 3625 H 340.124 1.32479 3.56586 0
M  V30 3626 H 341.436 1.52978 4.74762 0
M  V30 3627 H 340.59 -0.432114 6.05159 0
M  V30 3628 H 339.329 -0.730179 4.82203 0
M  V30 3629 H 338.334 1.52847 5.28127 0
M  V30 3630 H 339.559 1.81606 6.54367 0
M  V30 3631 H 337.505 -0.427959 6.54603 0
M  V30 3632 H 337.422 1.02287 7.49048 0
M  V30 3633 H 338.69 -0.126928 7.79397 0
M  V30 3634 N 342.919 -1.39368 0.735821 0
M  V30 3635 C 344.144 -2.05319 0.293052 0
M  V30 3636 C 344.569 -1.55115 -1.064 0
M  V30 3637 O 343.927 -0.695261 -1.67439 0
M  V30 3638 C 343.975 -3.59305 0.305323 0
M  V30 3639 O 343.079 -4.06299 -0.706761 0
M  V30 3640 H 342.42 -0.650529 0.13307 0
M  V30 3641 H 344.95 -1.78386 1.00197 0
M  V30 3642 H 344.96 -4.07724 0.149997 0
M  V30 3643 H 343.635 -3.95207 1.29553 0
M  V30 3644 H 342.212 -3.69292 -0.517504 0
M  V30 3645 N 344.397 -0.483516 -1.5 0
M  V30 3646 C 345.307 0.309172 -2.32554 0
M  V30 3647 C 346.323 0.984159 -1.43493 0
M  V30 3648 O 347.499 0.969399 -1.76535 0
M  V30 3649 C 344.564 1.36979 -3.18493 0
M  V30 3650 C 343.625 0.710095 -4.23387 0
M  V30 3651 C 342.858 1.72018 -5.05218 0
M  V30 3652 O 343.081 2.94813 -4.88305 0
M  V30 3653 O 342.015 1.28515 -5.8802 0
M  V30 3654 H 345.841 -0.366064 -3.01486 0
M  V30 3655 H 343.426 -0.24514 -1.47375 0
M  V30 3656 H 345.308 1.98385 -3.71781 0
M  V30 3657 H 343.983 2.02828 -2.52275 0
M  V30 3658 H 342.89 0.0567539 -3.74057 0
M  V30 3659 H 344.223 0.0943557 -4.9211 0
M  V30 3660 N 345.875 1.56104 -0.216619 0
M  V30 3661 C 346.838 2.18819 0.681962 0
M  V30 3662 C 347.838 1.14866 1.12528 0
M  V30 3663 O 349.028 1.40128 1.03488 0
M  V30 3664 C 346.16 2.80756 1.93362 0
M  V30 3665 H 347.353 2.99595 0.135254 0
M  V30 3666 H 344.906 1.56265 0.0330003 0
M  V30 3667 H 345.641 2.03837 2.52232 0
M  V30 3668 H 345.426 3.56876 1.62426 0
M  V30 3669 H 346.916 3.28844 2.57393 0
M  V30 3670 N 347.353 -0.0568162 1.57498 0
M  V30 3671 C 348.303 -1.07315 2.01166 0
M  V30 3672 C 349.287 -1.33632 0.896171 0
M  V30 3673 O 350.479 -1.33682 1.16009 0
M  V30 3674 C 347.608 -2.38257 2.47161 0
M  V30 3675 C 346.694 -2.1515 3.65474 0
M  V30 3676 N 347.085 -1.62014 4.7915 0
M  V30 3677 C 345.383 -2.45559 3.72313 0
M  V30 3678 C 346.084 -1.54069 5.60926 0
M  V30 3679 N 345.06 -2.00652 5.05213 0
M  V30 3680 H 348.862 -0.655878 2.86488 0
M  V30 3681 H 346.376 -0.263635 1.60246 0
M  V30 3682 H 348.373 -3.11845 2.76691 0
M  V30 3683 H 347.033 -2.80687 1.63232 0
M  V30 3684 H 348.044 -1.30667 5.01145 0
M  V30 3685 H 344.721 -2.91253 2.99129 0
M  V30 3686 H 346.111 -1.13712 6.62208 0
M  V30 3687 N 348.832 -1.54138 -0.328536 0
M  V30 3688 C 350.109 -1.62749 -1.08499 0
M  V30 3689 C 350.489 -0.458198 -2.06067 0
M  V30 3690 O 349.837 0.548046 -2.2183 0
M  V30 3691 C 350.047 -2.99519 -1.79135 0
M  V30 3692 C 351.395 -3.55394 -2.32337 0
M  V30 3693 O 352.419 -3.01792 -1.89209 0
M  V30 3694 O 351.278 -4.49186 -3.11279 0
M  V30 3695 H 348.372 -0.65886 -0.499832 0
M  V30 3696 H 350.918 -1.66484 -0.328826 0
M  V30 3697 H 349.69 -3.76061 -1.08139 0
M  V30 3698 H 349.313 -2.99441 -2.61574 0
M  V30 3699 N 350.31 0.590341 -1.46126 0
M  V30 3700 C 351.721 1.17243 -1.45296 0
M  V30 3701 C 352.072 1.95281 -0.189723 0
M  V30 3702 O 351.197 2.04502 0.707674 0
M  V30 3703 C 351.792 2.13284 -2.6324 0
M  V30 3704 C 350.351 2.66832 -2.65476 0
M  V30 3705 C 349.498 1.42557 -2.3785 0
M  V30 3706 H 352.449 0.378692 -1.54116 0
M  V30 3707 H 352.47 2.96619 -2.38323 0
M  V30 3708 H 351.982 1.56459 -3.55165 0
M  V30 3709 H 350.083 3.27548 -1.77603 0
M  V30 3710 H 350.196 3.10088 -3.65215 0
M  V30 3711 H 348.56 1.72107 -1.87753 0
M  V30 3712 H 349.343 0.875741 -3.31942 0
M  V30 3713 N 351.788 1.33704 0.83433 0
M  V30 3714 C 352.736 1.24323 1.96587 0
M  V30 3715 C 353.73 0.143659 1.6879 0
M  V30 3716 O 354.936 0.30791 1.77347 0
M  V30 3717 H 351.311 0.385925 0.645419 0
M  V30 3718 H 353.282 2.19978 2.01624 0
M  V30 3719 C 352.031 1.00394 3.32891 0
M  V30 3720 H 351.354 1.84231 3.54822 0
M  V30 3721 H 352.794 0.97862 4.12552 0
M  V30 3722 C 351.253 -0.293047 3.35623 0
M  V30 3723 O 351.783 -1.29823 3.80143 0
M  V30 3724 N 349.989 -0.322174 2.88809 0
M  V30 3725 H 349.536 0.496379 2.52772 0
M  V30 3726 H 349.494 -1.18977 2.91019 0
M  V30 3727 N 353.266 -1.05314 1.17247 0
M  V30 3728 C 354.199 -2.12512 0.831507 0
M  V30 3729 C 355.177 -1.61351 -0.201168 0
M  V30 3730 O 356.361 -1.88317 -0.0829831 0
M  V30 3731 C 353.488 -3.37848 0.24015 0
M  V30 3732 C 352.534 -4.07832 1.24801 0
M  V30 3733 S 353.367 -4.56537 2.79882 0
M  V30 3734 C 354.523 -5.85122 2.22223 0
M  V30 3735 H 354.756 -2.41106 1.7394 0
M  V30 3736 H 352.289 -1.17896 0.996988 0
M  V30 3737 H 354.247 -4.10391 -0.0945588 0
M  V30 3738 H 352.908 -3.07392 -0.645668 0
M  V30 3739 H 352.101 -4.97883 0.78287 0
M  V30 3740 H 351.703 -3.41348 1.52831 0
M  V30 3741 H 353.995 -6.58408 1.59703 0
M  V30 3742 H 354.938 -6.36381 3.10523 0
M  V30 3743 H 355.346 -5.39626 1.65722 0
M  V30 3744 N 354.744 -0.972509 -1.24016 0
M  V30 3745 C 355.972 -0.654803 -1.96265 0
M  V30 3746 C 356.387 0.776708 -1.72083 0
M  V30 3747 O 355.744 1.52171 -1.00748 0
M  V30 3748 C 355.795 -0.92592 -3.49441 0
M  V30 3749 O 355.516 -2.30116 -3.72798 0
M  V30 3750 C 357.017 -0.623068 -4.38899 0
M  V30 3751 H 354.237 -0.243907 -0.6251 0
M  V30 3752 H 356.781 -1.30175 -1.57717 0
M  V30 3753 H 354.936 -0.325108 -3.86033 0
M  V30 3754 H 355.35 -2.38483 -4.67147 0
M  V30 3755 H 356.824 -0.863189 -5.45209 0
M  V30 3756 H 357.301 0.442754 -4.36963 0
M  V30 3757 H 357.907 -1.204 -4.07902 0
M  V30 3758 N 356.222 1.38976 -0.743202 0
M  V30 3759 C 357.172 2.27843 -0.084513 0
M  V30 3760 C 358.156 1.44677 0.704094 0
M  V30 3761 O 359.348 1.67511 0.571755 0
M  V30 3762 C 356.477 3.33466 0.815781 0
M  V30 3763 C 355.563 4.24095 0.0208844 0
M  V30 3764 N 355.954 4.95609 -1.0102 0
M  V30 3765 C 354.252 4.45303 0.249293 0
M  V30 3766 C 354.953 5.62287 -1.49024 0
M  V30 3767 N 353.929 5.37571 -0.807377 0
M  V30 3768 H 357.731 2.80593 -0.87436 0
M  V30 3769 H 355.245 1.51755 -0.578283 0
M  V30 3770 H 357.242 3.96008 1.30321 0
M  V30 3771 H 355.902 2.82276 1.6047 0
M  V30 3772 H 356.913 4.98849 -1.39176 0
M  V30 3773 H 353.59 4.0504 1.01237 0
M  V30 3774 H 354.98 6.29519 -2.34853 0
M  V30 3775 N 357.7 0.491464 1.49741 0
M  V30 3776 C 359.111 0.0413169 1.86654 0
M  V30 3777 C 359.462 -1.36985 1.40462 0
M  V30 3778 O 358.587 -2.01917 0.778354 0
M  V30 3779 C 359.182 0.0682023 3.38731 0
M  V30 3780 C 357.741 -0.32656 3.74981 0
M  V30 3781 C 356.888 0.444888 2.73708 0
M  V30 3782 H 359.839 0.704733 1.42194 0
M  V30 3783 H 359.86 -0.729322 3.73445 0
M  V30 3784 H 359.372 1.09539 3.72321 0
M  V30 3785 H 357.473 -1.35734 3.46997 0
M  V30 3786 H 357.586 -0.013741 4.79098 0
M  V30 3787 H 355.95 -0.104062 2.54487 0
M  V30 3788 H 356.733 1.47197 3.10142 0
M  V30 3789 N 359.178 -1.55987 0.224894 0
M  V30 3790 C 360.088 -2.24066 -0.69511 0
M  V30 3791 C 361.104 -1.24939 -1.21104 0
M  V30 3792 O 362.28 -1.5776 -1.25195 0
M  V30 3793 C 359.345 -2.90983 -1.88493 0
M  V30 3794 C 358.406 -4.05462 -1.41064 0
M  V30 3795 C 357.639 -4.69179 -2.54375 0
M  V30 3796 O 357.862 -4.31895 -3.72589 0
M  V30 3797 O 356.796 -5.58108 -2.25386 0
M  V30 3798 H 360.622 -3.03353 -0.145149 0
M  V30 3799 H 358.207 -1.49399 -0.00569476 0
M  V30 3800 H 360.089 -3.33209 -2.57972 0
M  V30 3801 H 358.764 -2.14653 -2.42293 0
M  V30 3802 H 357.671 -3.67798 -0.683774 0
M  V30 3803 H 359.004 -4.83545 -0.918985 0
M  V30 3804 N 360.656 0.0484629 -1.57525 0
M  V30 3805 C 361.903 0.743125 -1.88372 0
M  V30 3806 C 362.231 1.76383 -0.819715 0
M  V30 3807 O 361.486 1.94855 0.181659 0
M  V30 3808 C 361.785 1.46632 -3.25935 0
M  V30 3809 C 361.451 0.583427 -4.4711 0
M  V30 3810 C 360.113 0.340191 -4.79996 0
M  V30 3811 C 362.465 -0.0273345 -5.21193 0
M  V30 3812 C 359.793 -0.522903 -5.84365 0
M  V30 3813 C 362.145 -0.878017 -6.26477 0
M  V30 3814 C 360.809 -1.1309 -6.5785 0
M  V30 3815 H 360.079 0.271929 -0.689301 0
M  V30 3816 H 362.726 0.00336166 -1.915 0
M  V30 3817 H 361.031 2.2789 -3.18706 0
M  V30 3818 H 362.728 2.00902 -3.47044 0
M  V30 3819 H 359.318 0.783151 -4.21384 0
M  V30 3820 H 363.502 0.147654 -4.9608 0
M  V30 3821 H 358.758 -0.727335 -6.07058 0
M  V30 3822 H 362.932 -1.35789 -6.83033 0
M  V30 3823 H 360.559 -1.80144 -7.38547 0
M  V30 3824 N 362.134 1.5431 0.320358 0
M  V30 3825 C 363.064 1.86912 1.3995 0
M  V30 3826 C 364.045 0.726211 1.53819 0
M  V30 3827 O 365.23 0.980233 1.67646 0
M  V30 3828 C 362.36 2.09932 2.7667 0
M  V30 3829 C 361.314 3.25776 2.77586 0
M  V30 3830 C 360.64 3.34173 4.17412 0
M  V30 3831 C 361.94 4.6335 2.41048 0
M  V30 3832 H 363.634 2.77292 1.12914 0
M  V30 3833 H 361.18 1.33421 0.541738 0
M  V30 3834 H 363.133 2.31324 3.52232 0
M  V30 3835 H 361.857 1.16304 3.0519 0
M  V30 3836 H 360.516 3.04276 2.04479 0
M  V30 3837 H 360.164 2.38098 4.43078 0
M  V30 3838 H 359.864 4.12033 4.18931 0
M  V30 3839 H 361.388 3.57803 4.94782 0
M  V30 3840 H 362.802 4.84602 3.06324 0
M  V30 3841 H 361.199 5.43782 2.53813 0
M  V30 3842 H 362.269 4.65381 1.36193 0
M  V30 3843 N 363.613 -0.582584 1.46437 0
M  V30 3844 C 364.862 -1.337 1.5102 0
M  V30 3845 C 365.175 -1.94891 0.166359 0
M  V30 3846 O 366.381 -2.71351 0.0899954 0
M  V30 3847 C 364.837 -2.42315 2.66104 0
M  V30 3848 C 364.445 -1.87427 4.06909 0
M  V30 3849 C 366.189 -3.19099 2.79958 0
M  V30 3850 C 364.096 -2.93672 5.13333 0
M  V30 3851 H 363.026 -0.502619 0.562041 0
M  V30 3852 H 365.677 -0.621701 1.72647 0
M  V30 3853 H 364.059 -3.16645 2.37807 0
M  V30 3854 H 365.233 -1.19639 4.44998 0
M  V30 3855 H 363.548 -1.2331 3.97723 0
M  V30 3856 H 366.145 -3.9839 3.56636 0
M  V30 3857 H 366.488 -3.71695 1.87479 0
M  V30 3858 H 367.021 -2.51875 3.07902 0
M  V30 3859 H 363.76 -2.45962 6.07604 0
M  V30 3860 H 363.28 -3.59948 4.79789 0
M  V30 3861 H 364.959 -3.5762 5.39182 0
M  V30 3862 N 365.091 -1.34144 -0.827227 0
M  V30 3863 C 366.021 -1.28005 -1.95287 0
M  V30 3864 C 367.002 -0.158321 -1.69362 0
M  V30 3865 O 368.187 -0.349987 -1.9102 0
M  V30 3866 C 365.317 -1.03036 -3.31664 0
M  V30 3867 C 364.271 -2.11628 -3.72019 0
M  V30 3868 C 363.597 -1.71854 -5.0633 0
M  V30 3869 C 364.897 -3.53417 -3.8457 0
M  V30 3870 H 366.591 -2.22187 -2.00682 0
M  V30 3871 H 364.137 -1.0696 -0.964135 0
M  V30 3872 H 366.09 -0.973863 -4.09993 0
M  V30 3873 H 364.814 -0.0529391 -3.26557 0
M  V30 3874 H 363.473 -2.16339 -2.95961 0
M  V30 3875 H 363.121 -0.727841 -4.97706 0
M  V30 3876 H 362.821 -2.44531 -5.34302 0
M  V30 3877 H 364.345 -1.67692 -5.87122 0
M  V30 3878 H 365.759 -3.51142 -4.5318 0
M  V30 3879 H 364.156 -4.24679 -4.2399 0
M  V30 3880 H 365.226 -3.91072 -2.86689 0
M  V30 3881 N 366.569 1.04691 -1.17803 0
M  V30 3882 C 367.815 1.78181 -0.980977 0
M  V30 3883 C 368.17 1.86191 0.484825 0
M  V30 3884 O 367.463 1.35436 1.35527 0
M  V30 3885 C 367.657 3.21467 -1.56186 0
M  V30 3886 C 367.486 3.27422 -3.08261 0
M  V30 3887 C 366.256 3.36415 -3.77032 0
M  V30 3888 C 368.454 3.15947 -4.0581 0
M  V30 3889 N 366.436 3.31554 -5.16667 0
M  V30 3890 C 367.807 3.18514 -5.31929 0
M  V30 3891 C 369.862 2.99945 -3.97413 0
M  V30 3892 C 368.565 3.06723 -6.50625 0
M  V30 3893 C 370.591 2.89497 -5.15699 0
M  V30 3894 C 369.953 2.92702 -6.40706 0
M  V30 3895 H 366.052 0.6641 -0.412911 0
M  V30 3896 H 368.636 1.24762 -1.49474 0
M  V30 3897 H 366.807 3.73245 -1.07436 0
M  V30 3898 H 368.539 3.8322 -1.30093 0
M  V30 3899 H 365.294 3.41887 -3.27735 0
M  V30 3900 H 365.718 3.3258 -5.89678 0
M  V30 3901 H 370.36 2.96302 -3.01604 0
M  V30 3902 H 368.078 3.0912 -7.46639 0
M  V30 3903 H 371.664 2.78179 -5.10987 0
M  V30 3904 H 370.544 2.84697 -7.30696 0
M  V30 3905 N 368.047 0.979072 1.23499 0
M  V30 3906 C 369.293 0.6578 1.9247 0
M  V30 3907 C 369.648 -0.799746 1.74991 0
M  V30 3908 O 368.941 -1.56922 1.09937 0
M  V30 3909 C 369.135 0.981932 3.43646 0
M  V30 3910 C 368.964 2.46944 3.75831 0
M  V30 3911 C 367.734 3.13119 3.96591 0
M  V30 3912 C 369.932 3.45006 3.81412 0
M  V30 3913 N 367.914 4.51489 4.15969 0
M  V30 3914 C 369.285 4.68778 4.05768 0
M  V30 3915 C 371.34 3.39505 3.64198 0
M  V30 3916 C 370.043 5.87723 4.14697 0
M  V30 3917 C 372.069 4.57814 3.7438 0
M  V30 3918 C 371.431 5.80381 3.99171 0
M  V30 3919 H 367.53 0.291746 0.72554 0
M  V30 3920 H 370.114 1.25626 1.48749 0
M  V30 3921 H 368.285 0.412179 3.86207 0
M  V30 3922 H 370.017 0.618068 3.99953 0
M  V30 3923 H 366.772 2.63619 3.93449 0
M  V30 3924 H 367.196 5.23221 4.29615 0
M  V30 3925 H 371.838 2.45773 3.44029 0
M  V30 3926 H 369.556 6.81874 4.33675 0
M  V30 3927 H 373.142 4.55132 3.62417 0
M  V30 3928 H 372.022 6.70398 4.06861 0
M  V30 3929 N 369.525 -1.3858 0.750561 0
M  V30 3930 C 370.473 -2.32339 0.110162 0
M  V30 3931 C 371.467 -1.53864 -0.708674 0
M  V30 3932 O 372.673 -1.69417 -0.608112 0
M  V30 3933 H 369.048 -0.751812 0.0168275 0
M  V30 3934 H 371.019 -2.83959 0.917053 0
M  V30 3935 C 369.768 -3.39043 -0.771067 0
M  V30 3936 H 369.091 -3.99517 -0.150374 0
M  V30 3937 H 370.531 -4.07061 -1.1865 0
M  V30 3938 C 368.99 -2.77365 -1.91234 0
M  V30 3939 O 369.52 -2.66434 -3.00626 0
M  V30 3940 N 367.726 -2.35219 -1.70646 0
M  V30 3941 H 367.273 -2.4431 -0.81673 0
M  V30 3942 H 367.231 -1.94294 -2.47178 0
M  V30 3943 N 371.003 -0.499398 -1.49478 0
M  V30 3944 C 372.252 0.0475259 -2.01644 0
M  V30 3945 C 372.565 1.38195 -1.38425 0
M  V30 3946 O 373.771 2.01547 -1.8191 0
M  V30 3947 C 372.227 0.135164 -3.59646 0
M  V30 3948 C 371.835 -1.19252 -4.31837 0
M  V30 3949 C 373.579 0.632538 -4.19761 0
M  V30 3950 C 371.486 -1.06713 -5.81693 0
M  V30 3951 H 370.416 0.0215349 -0.753692 0
M  V30 3952 H 373.067 -0.638577 -1.7203 0
M  V30 3953 H 371.449 0.885681 -3.85969 0
M  V30 3954 H 372.623 -1.9562 -4.17216 0
M  V30 3955 H 370.938 -1.62321 -3.83459 0
M  V30 3956 H 373.535 0.743833 -5.29501 0
M  V30 3957 H 373.878 1.63098 -3.83021 0
M  V30 3958 H 374.411 -0.0613987 -3.97753 0
M  V30 3959 H 371.15 -2.03979 -6.22955 0
M  V30 3960 H 370.67 -0.344307 -5.98811 0
M  V30 3961 H 372.349 -0.745208 -6.42694 0
M  V30 3962 N 372.481 1.55866 -0.233164 0
M  V30 3963 C 373.728 1.98603 0.395374 0
M  V30 3964 C 374.056 1.12105 1.58942 0
M  V30 3965 O 373.311 0.168656 1.94972 0
M  V30 3966 C 373.61 3.46856 0.861724 0
M  V30 3967 C 373.276 4.50348 -0.223066 0
M  V30 3968 C 371.938 4.78371 -0.521038 0
M  V30 3969 C 374.29 5.12355 -0.956124 0
M  V30 3970 C 371.618 5.6568 -1.55638 0
M  V30 3971 C 373.97 6.00786 -1.98089 0
M  V30 3972 C 372.634 6.27148 -2.28565 0
M  V30 3973 H 371.904 0.726739 0.144677 0
M  V30 3974 H 374.551 1.88491 -0.338114 0
M  V30 3975 H 372.856 3.5423 1.67418 0
M  V30 3976 H 374.553 3.77302 1.35809 0
M  V30 3977 H 371.143 4.28596 0.0193234 0
M  V30 3978 H 375.327 4.90765 -0.739166 0
M  V30 3979 H 370.583 5.84365 -1.798 0
M  V30 3980 H 374.757 6.4788 -2.55391 0
M  V30 3981 H 372.384 6.94597 -3.08932 0
M  V30 3982 N 373.959 -0.0401083 1.57549 0
M  V30 3983 C 375.187 -0.745196 1.93014 0
M  V30 3984 C 375.602 -1.6948 0.831984 0
M  V30 3985 O 374.959 -1.81482 -0.192463 0
M  V30 3986 C 375.01 -1.51176 3.28372 0
M  V30 3987 O 374.731 -0.600284 4.33968 0
M  V30 3988 C 376.232 -2.315 3.78051 0
M  V30 3989 H 373.452 -0.210088 0.637263 0
M  V30 3990 H 375.996 -0.000924689 2.045 0
M  V30 3991 H 374.151 -2.20801 3.18317 0
M  V30 3992 H 374.565 -1.13669 5.12035 0
M  V30 3993 H 376.039 -2.80697 4.75303 0
M  V30 3994 H 376.516 -3.12436 3.08675 0
M  V30 3995 H 377.122 -1.66971 3.91153 0
M  V30 3996 N 375.437 -1.54477 -0.31217 0
M  V30 3997 C 376.665 -1.77205 -1.068 0
M  V30 3998 C 377.08 -0.526114 -1.81321 0
M  V30 3999 O 376.437 0.503647 -1.75413 0
M  V30 4000 C 376.488 -2.97253 -2.05725 0
M  V30 4001 O 376.209 -4.1703 -1.34228 0
M  V30 4002 C 377.71 -3.32281 -2.93435 0
M  V30 4003 H 374.93 -0.591287 -0.317208 0
M  V30 4004 H 377.474 -2.01398 -0.354834 0
M  V30 4005 H 375.629 -2.753 -2.72559 0
M  V30 4006 H 376.043 -4.84636 -2.00571 0
M  V30 4007 H 377.517 -4.19551 -3.58721 0
M  V30 4008 H 377.994 -2.49945 -3.61143 0
M  V30 4009 H 378.6 -3.56353 -2.32147 0
M  V30 4010 N 376.915 0.57481 -1.46744 0
M  V30 4011 C 377.863 1.70435 -1.58286 0
M  V30 4012 C 378.857 1.63287 -0.450956 0
M  V30 4013 O 380.063 1.68685 -0.628121 0
M  V30 4014 H 376.438 0.56364 -0.497809 0
M  V30 4015 H 378.409 1.57833 -2.53242 0
M  V30 4016 C 377.158 3.08815 -1.59776 0
M  V30 4017 H 376.481 3.1499 -2.46214 0
M  V30 4018 H 377.921 3.87588 -1.71905 0
M  V30 4019 C 376.38 3.35301 -0.327812 0
M  V30 4020 O 376.91 3.97511 0.57861 0
M  V30 4021 N 375.116 2.89816 -0.213274 0
M  V30 4022 H 374.663 2.39371 -0.951798 0
M  V30 4023 H 374.621 3.0791 0.63553 0
M  V30 4024 N 378.394 1.34581 0.820102 0
M  V30 4025 C 379.64 1.27285 1.57881 0
M  V30 4026 C 379.973 -0.156137 1.93571 0
M  V30 4027 O 379.248 -1.10222 1.60254 0
M  V30 4028 C 379.531 2.16639 2.87645 0
M  V30 4029 C 379.384 3.68088 2.58517 0
M  V30 4030 C 380.703 2.05378 3.8924 0
M  V30 4031 H 377.822 0.463714 0.572833 0
M  V30 4032 H 380.464 1.64859 0.944539 0
M  V30 4033 H 378.614 1.84725 3.41773 0
M  V30 4034 H 380.286 4.10382 2.10676 0
M  V30 4035 H 378.529 3.89038 1.91917 0
M  V30 4036 H 379.2 4.2598 3.51063 0
M  V30 4037 H 381.676 2.33404 3.44473 0
M  V30 4038 H 380.552 2.7012 4.77835 0
M  V30 4039 H 380.813 1.0316 4.29896 0
M  V30 4040 N 379.872 -1.04064 1.18357 0
M  V30 4041 C 380.802 -2.14001 0.934113 0
M  V30 4042 C 381.783 -1.69616 -0.128186 0
M  V30 4043 O 382.968 -1.94185 0.0244093 0
M  V30 4044 C 380.098 -3.44253 0.459066 0
M  V30 4045 C 379.052 -4.02261 1.46185 0
M  V30 4046 C 378.378 -5.27992 0.844322 0
M  V30 4047 C 379.678 -4.38432 2.83856 0
M  V30 4048 H 381.372 -2.35127 1.85352 0
M  V30 4049 H 378.918 -1.12998 0.892604 0
M  V30 4050 H 380.871 -4.20522 0.271907 0
M  V30 4051 H 379.595 -3.22813 -0.495912 0
M  V30 4052 H 378.254 -3.28074 1.63595 0
M  V30 4053 H 377.902 -5.02862 -0.117845 0
M  V30 4054 H 377.602 -5.67765 1.51384 0
M  V30 4055 H 379.126 -6.06938 0.667693 0
M  V30 4056 H 380.54 -5.05688 2.70098 0
M  V30 4057 H 378.937 -4.89254 3.47491 0
M  V30 4058 H 380.007 -3.4826 3.37406 0
M  V30 4059 N 381.35 -0.985608 -1.22978 0
M  V30 4060 C 382.761 -0.693593 -1.73338 0
M  V30 4061 C 383.112 0.789935 -1.79595 0
M  V30 4062 O 382.237 1.61771 -1.43733 0
M  V30 4063 C 382.832 -1.25235 -3.14804 0
M  V30 4064 C 381.391 -1.00987 -3.626 0
M  V30 4065 C 380.538 -1.37695 -2.40698 0
M  V30 4066 H 383.489 -1.15884 -1.08428 0
M  V30 4067 H 383.51 -0.627329 -3.75293 0
M  V30 4068 H 383.022 -2.33209 -3.10218 0
M  V30 4069 H 381.123 0.0535565 -3.72562 0
M  V30 4070 H 381.236 -1.66812 -4.49122 0
M  V30 4071 H 379.6 -0.795459 -2.4196 0
M  V30 4072 H 380.383 -2.46657 -2.38779 0
M  V30 4073 N 382.828 1.3818 -0.7579 0
M  V30 4074 C 383.758 2.33027 -0.148597 0
M  V30 4075 C 384.739 1.55085 0.69875 0
M  V30 4076 O 385.924 1.83384 0.639053 0
M  V30 4077 C 383.054 3.3928 0.742034 0
M  V30 4078 C 382.008 4.28 -0.00291946 0
M  V30 4079 C 381.334 5.25146 1.00625 0
M  V30 4080 C 382.634 5.08938 -1.17385 0
M  V30 4081 H 384.328 2.84231 -0.940909 0
M  V30 4082 H 381.874 1.36659 -0.453908 0
M  V30 4083 H 383.827 4.046 1.17799 0
M  V30 4084 H 382.551 2.86569 1.56671 0
M  V30 4085 H 381.21 3.64192 -0.419504 0
M  V30 4086 H 380.858 4.68721 1.8251 0
M  V30 4087 H 380.558 5.85361 0.512428 0
M  V30 4088 H 382.082 5.93342 1.44143 0
M  V30 4089 H 383.496 5.67474 -0.815224 0
M  V30 4090 H 381.893 5.7841 -1.59882 0
M  V30 4091 H 382.963 4.42424 -1.98468 0
M  V30 4092 N 384.306 0.507319 1.49211 0
M  V30 4093 C 385.236 -0.256939 2.32082 0
M  V30 4094 C 386.217 -0.956609 1.40652 0
M  V30 4095 O 387.402 -0.946788 1.69557 0
M  V30 4096 C 384.532 -1.31802 3.21318 0
M  V30 4097 C 383.486 -0.737855 4.21592 0
M  V30 4098 C 382.812 -1.89992 4.99807 0
M  V30 4099 C 384.112 0.275325 5.21574 0
M  V30 4100 H 385.806 0.434798 2.96226 0
M  V30 4101 H 383.352 0.210546 1.42452 0
M  V30 4102 H 385.305 -1.86045 3.78107 0
M  V30 4103 H 384.029 -2.03903 2.5513 0
M  V30 4104 H 382.688 -0.217126 3.65956 0
M  V30 4105 H 382.336 -2.60877 4.30061 0
M  V30 4106 H 382.036 -1.51777 5.6766 0
M  V30 4107 H 383.56 -2.44657 5.59442 0
M  V30 4108 H 384.974 -0.179193 5.7302 0
M  V30 4109 H 383.371 0.573649 5.97352 0
M  V30 4110 H 384.441 1.18903 4.70096 0
M  V30 4111 N 385.784 -1.5574 0.241426 0
M  V30 4112 C 386.716 -2.18469 -0.693091 0
M  V30 4113 C 387.729 -1.15942 -1.14286 0
M  V30 4114 O 388.918 -1.42832 -1.07058 0
M  V30 4115 C 386.018 -2.7696 -1.95311 0
M  V30 4116 C 385.191 -4.04853 -1.65568 0
M  V30 4117 C 384.25 -4.47715 -2.76474 0
M  V30 4118 O 383.276 -5.14205 -2.44094 0
M  V30 4119 N 384.478 -4.15044 -4.05855 0
M  V30 4120 H 387.243 -2.99292 -0.156388 0
M  V30 4121 H 384.804 -1.61784 0.0611752 0
M  V30 4122 H 386.796 -3.02594 -2.68736 0
M  V30 4123 H 385.366 -2.00326 -2.39975 0
M  V30 4124 H 384.586 -3.86865 -0.756886 0
M  V30 4125 H 385.874 -4.88246 -1.43153 0
M  V30 4126 H 385.272 -3.61654 -4.34998 0
M  V30 4127 H 383.829 -4.45526 -4.75762 0
M  V30 4128 N 387.262 0.0317525 -1.57568 0
M  V30 4129 C 388.194 1.06073 -2.03178 0
M  V30 4130 C 389.207 1.32627 -0.944132 0
M  V30 4131 O 390.396 1.30162 -1.22148 0
M  V30 4132 C 387.496 2.40297 -2.38978 0
M  V30 4133 C 386.669 2.33137 -3.70089 0
M  V30 4134 C 385.728 3.49787 -3.9311 0
M  V30 4135 O 384.754 3.29403 -4.64201 0
M  V30 4136 N 385.956 4.71562 -3.38541 0
M  V30 4137 H 388.721 0.672006 -2.92069 0
M  V30 4138 H 386.282 0.219745 -1.60402 0
M  V30 4139 H 388.274 3.1705 -2.51518 0
M  V30 4140 H 386.844 2.71024 -1.55771 0
M  V30 4141 H 386.064 1.415 -3.67928 0
M  V30 4142 H 387.352 2.25493 -4.56104 0
M  V30 4143 H 386.75 4.91024 -2.80912 0
M  V30 4144 H 385.307 5.45689 -3.56464 0
M  V30 4145 N 388.74 1.54641 0.303973 0
M  V30 4146 C 389.987 1.7378 1.03955 0
M  V30 4147 C 390.315 0.521986 1.87365 0
M  V30 4148 O 389.57 -0.496099 1.89308 0
M  V30 4149 C 389.869 2.97753 1.97681 0
M  V30 4150 C 389.535 4.31671 1.30271 0
M  V30 4151 C 388.197 4.68075 1.11619 0
M  V30 4152 C 390.549 5.147 0.82055 0
M  V30 4153 C 387.877 5.8509 0.434304 0
M  V30 4154 C 390.229 6.32416 0.152395 0
M  V30 4155 C 388.893 6.67484 -0.0461067 0
M  V30 4156 H 388.163 0.635908 0.380398 0
M  V30 4157 H 390.81 1.88896 0.314718 0
M  V30 4158 H 389.115 2.77406 2.76682 0
M  V30 4159 H 390.812 3.09756 2.54661 0
M  V30 4160 H 387.402 4.03041 1.45795 0
M  V30 4161 H 391.586 4.87077 0.952374 0
M  V30 4162 H 386.842 6.10806 0.269495 0
M  V30 4163 H 391.016 6.96023 -0.229126 0
M  V30 4164 H 388.643 7.58011 -0.576494 0
M  V30 4165 N 390.218 -0.567019 1.47046 0
M  V30 4166 C 391.466 -1.322 1.52864 0
M  V30 4167 C 391.787 -1.94088 0.188388 0
M  V30 4168 O 391.057 -1.7941 -0.786693 0
M  V30 4169 H 389.637 -0.490894 0.563056 0
M  V30 4170 H 392.299 -0.662879 1.83281 0
M  V30 4171 H 391.395 -2.12062 2.2899 0
M  V30 4172 N 391.696 -1.35014 -0.812953 0
M  V30 4173 C 392.626 -1.30069 -1.93919 0
M  V30 4174 C 393.607 -0.176275 -1.69184 0
M  V30 4175 O 394.792 -0.370227 -1.90638 0
M  V30 4176 C 391.922 -1.06547 -3.30552 0
M  V30 4177 C 390.876 -2.15561 -3.69753 0
M  V30 4178 C 390.202 -1.77214 -5.04479 0
M  V30 4179 C 391.502 -3.57476 -3.808 0
M  V30 4180 H 393.196 -2.24303 -1.98314 0
M  V30 4181 H 390.742 -1.07977 -0.952736 0
M  V30 4182 H 392.695 -1.01729 -4.08937 0
M  V30 4183 H 391.419 -0.0875719 -3.26483 0
M  V30 4184 H 390.078 -2.19466 -2.9365 0
M  V30 4185 H 389.726 -0.780589 -4.96906 0
M  V30 4186 H 389.426 -2.50184 -5.31678 0
M  V30 4187 H 390.95 -1.7391 -5.8531 0
M  V30 4188 H 392.364 -3.55929 -4.4943 0
M  V30 4189 H 390.761 -4.29152 -4.19462 0
M  V30 4190 H 391.831 -3.94091 -2.82525 0
M  V30 4191 N 393.175 1.03435 -1.18907 0
M  V30 4192 C 394.421 1.77005 -0.989798 0
M  V30 4193 C 394.754 1.88205 0.478816 0
M  V30 4194 O 394.029 1.39481 1.35556 0
M  V30 4195 C 394.312 3.19925 -1.65287 0
M  V30 4196 C 394.165 3.1663 -3.19477 0
M  V30 4197 C 395.484 4.18189 -1.37134 0
M  V30 4198 H 392.603 0.642538 -0.360991 0
M  V30 4199 H 395.245 1.20784 -1.46667 0
M  V30 4200 H 393.395 3.67929 -1.24741 0
M  V30 4201 H 395.067 2.76567 -3.692 0
M  V30 4202 H 393.31 2.54491 -3.51307 0
M  V30 4203 H 393.981 4.1758 -3.61013 0
M  V30 4204 H 396.457 3.78761 -1.72276 0
M  V30 4205 H 395.333 5.16394 -1.86087 0
M  V30 4206 H 395.594 4.41112 -0.295424 0
M  V30 4207 N 394.653 0.992116 1.22453 0
M  V30 4208 C 395.6 0.541731 2.24352 0
M  V30 4209 C 396.57 -0.425519 1.60557 0
M  V30 4210 O 397.755 -0.330453 1.87917 0
M  V30 4211 C 394.895 -0.138248 3.44823 0
M  V30 4212 C 394.008 0.870649 4.23136 0
M  V30 4213 C 393.143 0.164269 5.30946 0
M  V30 4214 C 392.182 1.16159 6.00977 0
M  V30 4215 N 391.319 0.483568 7.00433 0
M  V30 4216 H 396.159 1.41541 2.62241 0
M  V30 4217 H 393.696 0.709013 1.28885 0
M  V30 4218 H 395.654 -0.5494 4.13567 0
M  V30 4219 H 394.284 -0.975721 3.077 0
M  V30 4220 H 393.336 1.40013 3.53696 0
M  V30 4221 H 394.648 1.63014 4.7141 0
M  V30 4222 H 393.802 -0.303653 6.0594 0
M  V30 4223 H 392.541 -0.627733 4.83643 0
M  V30 4224 H 391.546 1.64015 5.24766 0
M  V30 4225 H 392.771 1.95445 6.50368 0
M  V30 4226 H 390.717 -0.289012 6.55363 0
M  V30 4227 H 390.634 1.18152 7.4671 0
M  V30 4228 H 391.902 0.0384219 7.79491 0
M  V30 4229 N 396.131 -1.37776 0.765217 0
M  V30 4230 C 397.408 -1.93975 0.251596 0
M  V30 4231 C 397.788 -1.69949 -1.25222 0
M  V30 4232 O 397.136 -1.04457 -2.03226 0
M  V30 4233 C 397.346 -3.43487 0.617895 0
M  V30 4234 C 398.694 -4.20564 0.584029 0
M  V30 4235 O 399.718 -3.5182 0.556888 0
M  V30 4236 O 398.577 -5.43138 0.605291 0
M  V30 4237 H 395.671 -0.82509 0.0561806 0
M  V30 4238 H 398.217 -1.47101 0.846128 0
M  V30 4239 H 396.989 -3.5453 1.65602 0
M  V30 4240 H 396.612 -3.976 -0.00403411 0
M  V30 4241 N 397.609 -0.515225 -1.4894 0
M  V30 4242 C 398.837 0.0206034 -2.0689 0
M  V30 4243 C 399.252 1.29514 -1.37374 0
M  V30 4244 O 398.609 1.76698 -0.456529 0
M  V30 4245 C 398.66 0.26351 -3.60538 0
M  V30 4246 O 398.381 -0.960517 -4.27441 0
M  V30 4247 C 399.882 0.841383 -4.35242 0
M  V30 4248 H 397.102 -0.0268608 -0.670462 0
M  V30 4249 H 399.646 -0.716651 -1.91532 0
M  V30 4250 H 397.801 0.950777 -3.75552 0
M  V30 4251 H 398.215 -0.73212 -5.19365 0
M  V30 4252 H 399.689 0.96085 -5.43573 0
M  V30 4253 H 400.166 1.8427 -3.98674 0
M  V30 4254 H 400.772 0.191143 -4.2487 0
M  V30 4255 N 399.087 1.5561 -0.249682 0
M  V30 4256 C 400.327 2.00916 0.37579 0
M  V30 4257 C 400.691 1.13409 1.54927 0
M  V30 4258 O 401.892 1.48183 2.24266 0
M  V30 4259 C 400.163 3.48949 0.772633 0
M  V30 4260 S 401.722 4.16261 1.38824 0
M  V30 4261 H 398.54 0.70112 0.118117 0
M  V30 4262 H 401.142 1.92052 -0.365567 0
M  V30 4263 H 399.846 4.103 -0.090683 0
M  V30 4264 H 399.377 3.61745 1.5461 0
M  V30 4265 H 401.392 4.17778 2.67724 0
M  V30 4266 N 400.565 -0.0233959 1.57583 0
M  V30 4267 C 401.79 -0.728376 1.94189 0
M  V30 4268 C 402.215 -1.67793 0.850119 0
M  V30 4269 O 401.573 -1.80262 -0.19371 0
M  V30 4270 C 401.621 -1.45669 3.29868 0
M  V30 4271 O 400.725 -2.57013 3.22518 0
M  V30 4272 H 400.066 -0.195493 0.63457 0
M  V30 4273 H 402.596 0.0228214 2.04587 0
M  V30 4274 H 402.606 -1.82535 3.6489 0
M  V30 4275 H 401.281 -0.760314 4.08891 0
M  V30 4276 H 399.858 -2.22648 2.99136 0
M  V30 4277 N 402.043 -1.548 -0.295768 0
M  V30 4278 C 403.273 -1.78069 -1.04762 0
M  V30 4279 C 403.681 -0.542847 -1.81245 0
M  V30 4280 O 403.024 0.497051 -1.76848 0
M  V30 4281 C 403.086 -2.93881 -2.07061 0
M  V30 4282 C 402.75 -4.31777 -1.49725 0
M  V30 4283 C 403.747 -5.11613 -0.924581 0
M  V30 4284 C 401.432 -4.78389 -1.5313 0
M  V30 4285 C 403.426 -6.36184 -0.393594 0
M  V30 4286 C 401.113 -6.02921 -0.996447 0
M  V30 4287 C 402.111 -6.81654 -0.428569 0
M  V30 4288 O 401.799 -8.0384 0.0981593 0
M  V30 4289 H 401.531 -0.597475 -0.316226 0
M  V30 4290 H 404.085 -2.02584 -0.338973 0
M  V30 4291 H 402.315 -2.65003 -2.81621 0
M  V30 4292 H 404.004 -3.04679 -2.6819 0
M  V30 4293 H 404.77 -4.76743 -0.891136 0
M  V30 4294 H 400.649 -4.17132 -1.9627 0
M  V30 4295 H 404.193 -6.97582 0.0503014 0
M  V30 4296 H 400.09 -6.37277 -1.02706 0
M  V30 4297 H 400.858 -8.18499 -0.0146455 0
M  V30 4298 N 403.521 0.559213 -1.47345 0
M  V30 4299 C 404.767 1.31843 -1.54095 0
M  V30 4300 C 405.1 1.93149 -0.201726 0
M  V30 4301 O 404.375 1.77759 0.789428 0
M  V30 4302 C 404.658 2.43006 -2.65744 0
M  V30 4303 C 404.511 1.86581 -4.09277 0
M  V30 4304 C 405.83 3.44943 -2.73318 0
M  V30 4305 H 402.949 0.478012 -0.560957 0
M  V30 4306 H 405.591 0.625977 -1.79392 0
M  V30 4307 H 403.741 3.02072 -2.44305 0
M  V30 4308 H 405.413 1.31792 -4.42073 0
M  V30 4309 H 403.656 1.17268 -4.17649 0
M  V30 4310 H 404.327 2.66933 -4.83168 0
M  V30 4311 H 406.803 2.95793 -2.92653 0
M  V30 4312 H 405.679 4.20153 -3.53218 0
M  V30 4313 H 405.94 4.03665 -1.80296 0
M  V30 4314 N 404.999 1.35443 0.805782 0
M  V30 4315 C 405.947 1.28465 1.93906 0
M  V30 4316 C 406.941 0.17943 1.68447 0
M  V30 4317 O 408.147 0.345459 1.76654 0
M  V30 4318 H 404.522 0.399528 0.637088 0
M  V30 4319 H 406.493 2.24206 1.96912 0
M  V30 4320 C 405.242 1.07432 3.30687 0
M  V30 4321 H 404.565 1.91716 3.50835 0
M  V30 4322 H 406.005 1.06591 4.10383 0
M  V30 4323 C 404.464 -0.22179 3.36169 0
M  V30 4324 O 404.994 -1.21731 3.82811 0
M  V30 4325 N 403.2 -0.260841 2.89427 0
M  V30 4326 H 402.747 0.549884 2.51663 0
M  V30 4327 H 402.705 -1.12777 2.93477 0
M  V30 4328 N 406.477 -1.02803 1.19454 0
M  V30 4329 C 407.723 -1.76478 0.999171 0
M  V30 4330 C 408.056 -1.88456 -0.468828 0
M  V30 4331 O 407.331 -1.40198 -1.34814 0
M  V30 4332 C 407.614 -3.19044 1.66981 0
M  V30 4333 C 407.467 -3.14932 3.21151 0
M  V30 4334 C 408.786 -4.17456 1.39349 0
M  V30 4335 H 405.905 -0.640614 0.364393 0
M  V30 4336 H 408.547 -1.20005 1.47305 0
M  V30 4337 H 406.697 -3.67263 1.2669 0
M  V30 4338 H 408.369 -2.74605 3.70661 0
M  V30 4339 H 406.612 -2.52625 3.52652 0
M  V30 4340 H 407.283 -4.1566 3.63223 0
M  V30 4341 H 409.759 -3.77842 1.74283 0
M  V30 4342 H 408.635 -5.154 1.88823 0
M  V30 4343 H 408.896 -4.40949 0.318813 0
M  V30 4344 N 407.956 -0.998596 -1.21925 0
M  V30 4345 C 408.886 -0.573688 -2.26343 0
M  V30 4346 C 409.867 0.402296 -1.65274 0
M  V30 4347 O 411.052 0.291683 -1.91997 0
M  V30 4348 C 408.182 0.106839 -3.47136 0
M  V30 4349 C 407.136 -0.788269 -4.20678 0
M  V30 4350 C 406.462 0.0254927 -5.34694 0
M  V30 4351 C 407.762 -2.08784 -4.78755 0
M  V30 4352 H 409.456 -1.44651 -2.62138 0
M  V30 4353 H 407.002 -0.696975 -1.26009 0
M  V30 4354 H 408.955 0.415531 -4.19346 0
M  V30 4355 H 407.679 1.01424 -3.10452 0
M  V30 4356 H 406.338 -1.08069 -3.50309 0
M  V30 4357 H 405.986 0.933989 -4.94253 0
M  V30 4358 H 405.686 -0.570437 -5.84825 0
M  V30 4359 H 407.21 0.328147 -6.09718 0
M  V30 4360 H 408.624 -1.84272 -5.42878 0
M  V30 4361 H 407.021 -2.63307 -5.39249 0
M  V30 4362 H 408.091 -2.76284 -3.98491 0
M  V30 4363 N 409.434 1.37368 -0.772513 0
M  V30 4364 C 410.659 2.0447 -0.347386 0
M  V30 4365 C 411.084 1.57882 1.0225 0
M  V30 4366 O 410.442 0.73941 1.65537 0
M  V30 4367 C 410.49 3.58369 -0.400479 0
M  V30 4368 O 409.594 4.0803 0.598789 0
M  V30 4369 H 408.935 0.646773 -0.15027 0
M  V30 4370 H 411.465 1.75667 -1.04892 0
M  V30 4371 H 411.475 4.07183 -0.258045 0
M  V30 4372 H 410.15 3.91633 -1.39986 0
M  V30 4373 H 408.727 3.70534 0.419411 0
M  V30 4374 N 410.912 0.523116 1.48665 0
M  V30 4375 C 412.189 -0.0775449 1.95446 0
M  V30 4376 C 412.569 -1.5197 1.4652 0
M  V30 4377 O 411.917 -2.17876 0.688657 0
M  V30 4378 C 412.127 0.0326135 3.48985 0
M  V30 4379 C 413.475 -0.130141 4.24401 0
M  V30 4380 O 414.499 -0.0415142 3.56176 0
M  V30 4381 O 413.358 -0.31491 5.45592 0
M  V30 4382 H 410.452 -0.0831012 0.822814 0
M  V30 4383 H 412.998 0.587227 1.59216 0
M  V30 4384 H 411.77 1.03748 3.77296 0
M  V30 4385 H 411.393 -0.671317 3.91892 0
M  V30 4386 N 412.39 -1.55475 0.257931 0
M  V30 4387 C 413.32 -2.24815 -0.630912 0
M  V30 4388 C 414.301 -1.23224 -1.17259 0
M  V30 4389 O 415.486 -1.51904 -1.20991 0
M  V30 4390 C 412.616 -2.95609 -1.82298 0
M  V30 4391 C 411.57 -4.03982 -1.41359 0
M  V30 4392 C 410.896 -4.6226 -2.68738 0
M  V30 4393 C 412.196 -5.19109 -0.57648 0
M  V30 4394 H 413.89 -2.99354 -0.0526878 0
M  V30 4395 H 411.436 -1.4398 -0.023901 0
M  V30 4396 H 413.389 -3.42822 -2.45054 0
M  V30 4397 H 412.113 -2.18577 -2.42676 0
M  V30 4398 H 410.772 -3.57555 -0.809324 0
M  V30 4399 H 410.42 -3.81915 -3.27338 0
M  V30 4400 H 410.12 -5.35424 -2.42065 0
M  V30 4401 H 411.644 -5.12212 -3.32372 0
M  V30 4402 H 413.058 -5.62479 -1.10861 0
M  V30 4403 H 411.455 -5.98729 -0.405351 0
M  V30 4404 H 412.525 -4.83174 0.408776 0
M  V30 4405 N 413.868 0.0150385 -1.57593 0
M  V30 4406 C 415.114 0.704043 -1.90187 0
M  V30 4407 C 415.447 1.74249 -0.857366 0
M  V30 4408 O 414.722 1.94092 0.125843 0
M  V30 4409 C 415.005 1.36087 -3.33395 0
M  V30 4410 C 414.858 0.334981 -4.48551 0
M  V30 4411 C 416.177 2.29112 -3.7576 0
M  V30 4412 H 413.296 0.254475 -0.691673 0
M  V30 4413 H 415.938 -0.0331678 -1.89971 0
M  V30 4414 H 414.088 1.98922 -3.3371 0
M  V30 4415 H 415.76 -0.292534 -4.60372 0
M  V30 4416 H 414.003 -0.344325 -4.32431 0
M  V30 4417 H 414.674 0.833316 -5.45674 0
M  V30 4418 H 417.15 1.76308 -3.76902 0
M  V30 4419 H 416.026 2.72043 -4.76743 0
M  V30 4420 H 416.287 3.16385 -3.08793 0
M  V30 4421 N 415.346 1.54954 0.287554 0
M  V30 4422 C 416.576 1.78622 1.03816 0
M  V30 4423 C 416.984 0.552451 1.80955 0
M  V30 4424 O 416.327 -0.487665 1.77109 0
M  V30 4425 C 416.389 2.94975 2.055 0
M  V30 4426 C 416.053 4.32565 1.47433 0
M  V30 4427 C 417.05 5.12096 0.897436 0
M  V30 4428 C 414.735 4.79195 1.50591 0
M  V30 4429 C 416.729 6.36383 0.359851 0
M  V30 4430 C 414.416 6.03441 0.964459 0
M  V30 4431 C 415.414 6.81872 0.392413 0
M  V30 4432 O 415.102 8.03777 -0.140788 0
M  V30 4433 H 414.834 0.599144 0.313053 0
M  V30 4434 H 417.388 2.02761 0.328225 0
M  V30 4435 H 415.618 2.66493 2.80211 0
M  V30 4436 H 417.307 3.06097 2.6657 0
M  V30 4437 H 418.073 4.77209 0.865841 0
M  V30 4438 H 413.952 4.18167 1.94055 0
M  V30 4439 H 417.496 6.97545 -0.0872951 0
M  V30 4440 H 413.393 6.37813 0.993246 0
M  V30 4441 H 414.161 8.18495 -0.0287617 0
M  V30 4442 N 416.824 -0.551391 1.4764 0
M  V30 4443 C 418.052 -1.33357 1.58189 0
M  V30 4444 C 418.467 -1.87342 0.234199 0
M  V30 4445 O 417.824 -1.65301 -0.77343 0
M  V30 4446 C 417.875 -2.49942 2.61173 0
M  V30 4447 O 417.596 -1.98187 3.90709 0
M  V30 4448 C 419.097 -3.42072 2.8196 0
M  V30 4449 H 416.317 -0.40631 0.533998 0
M  V30 4450 H 418.861 -0.667367 1.93304 0
M  V30 4451 H 417.016 -3.12489 2.28975 0
M  V30 4452 H 417.43 -2.74342 4.47031 0
M  V30 4453 H 418.904 -4.20278 3.57869 0
M  V30 4454 H 419.381 -3.95978 1.89995 0
M  V30 4455 H 419.987 -2.85336 3.15378 0
M  V30 4456 N 418.302 -1.35869 -0.798587 0
M  V30 4457 C 419.232 -1.32118 -1.92528 0
M  V30 4458 C 420.213 -0.194209 -1.68988 0
M  V30 4459 O 421.398 -0.390426 -1.90235 0
M  V30 4460 C 418.528 -1.10047 -3.29404 0
M  V30 4461 C 417.482 -2.19471 -3.67446 0
M  V30 4462 C 416.808 -1.82555 -5.02571 0
M  V30 4463 C 418.108 -3.61495 -3.76987 0
M  V30 4464 H 419.802 -2.26394 -1.95924 0
M  V30 4465 H 417.348 -1.08981 -0.94123 0
M  V30 4466 H 419.301 -1.06061 -4.07835 0
M  V30 4467 H 418.025 -0.122195 -3.26371 0
M  V30 4468 H 416.684 -2.22568 -2.91306 0
M  V30 4469 H 416.332 -0.833249 -4.9605 0
M  V30 4470 H 416.032 -2.5581 -5.28995 0
M  V30 4471 H 417.556 -1.80108 -5.83432 0
M  V30 4472 H 418.97 -3.60676 -4.4563 0
M  V30 4473 H 417.367 -4.33577 -4.14887 0
M  V30 4474 H 418.437 -3.97065 -2.78329 0
M  V30 4475 N 419.78 1.02168 -1.19998 0
M  V30 4476 C 420.743 2.08765 -0.94604 0
M  V30 4477 C 421.743 1.60618 0.0763846 0
M  V30 4478 O 422.933 1.73472 -0.159135 0
M  V30 4479 C 420.065 3.38262 -0.423255 0
M  V30 4480 H 421.258 2.32726 -1.89153 0
M  V30 4481 H 418.811 1.1889 -1.01464 0
M  V30 4482 H 419.546 3.19974 0.527938 0
M  V30 4483 H 419.331 3.74532 -1.16053 0
M  V30 4484 H 420.821 4.16759 -0.264911 0
M  V30 4485 N 421.258 1.00505 1.21394 0
M  V30 4486 C 422.505 0.687774 1.90462 0
M  V30 4487 C 422.833 -0.78147 1.7811 0
M  V30 4488 O 422.088 -1.58208 1.1519 0
M  V30 4489 C 422.387 1.0546 3.41486 0
M  V30 4490 C 422.053 2.51812 3.74034 0
M  V30 4491 C 420.715 2.91804 3.82628 0
M  V30 4492 C 423.067 3.46614 3.8924 0
M  V30 4493 C 420.395 4.2556 4.03876 0
M  V30 4494 C 422.747 4.80044 4.11995 0
M  V30 4495 C 421.411 5.19759 4.18816 0
M  V30 4496 H 420.681 0.251674 0.696951 0
M  V30 4497 H 423.328 1.26349 1.43903 0
M  V30 4498 H 421.633 0.397133 3.89782 0
M  V30 4499 H 423.33 0.786976 3.93202 0
M  V30 4500 H 419.92 2.1982 3.67936 0
M  V30 4501 H 424.104 3.16883 3.81967 0
M  V30 4502 H 419.36 4.55901 4.07387 0
M  V30 4503 H 423.534 5.53439 4.22704 0
M  V30 4504 H 421.161 6.23418 4.35033 0
M  V30 4505 N 422.737 -1.36956 0.779787 0
M  V30 4506 C 423.962 -2.04283 0.358224 0
M  V30 4507 C 424.387 -1.58422 -1.01411 0
M  V30 4508 O 423.745 -0.748179 -1.65142 0
M  V30 4509 C 423.793 -3.58152 0.419479 0
M  V30 4510 O 422.897 -4.08342 -0.577142 0
M  V30 4511 H 422.238 -0.645967 0.153698 0
M  V30 4512 H 424.768 -1.75108 1.05822 0
M  V30 4513 H 424.778 -4.07041 0.279636 0
M  V30 4514 H 423.453 -3.90886 1.42061 0
M  V30 4515 H 422.03 -3.70751 -0.399755 0
M  V30 4516 N 424.215 -0.530993 -1.48385 0
M  V30 4517 C 425.455 0.000718982 -2.044 0
M  V30 4518 C 425.819 1.31485 -1.39913 0
M  V30 4519 O 427.02 1.93265 -1.86821 0
M  V30 4520 C 425.291 0.119177 -3.57201 0
M  V30 4521 S 426.85 0.600806 -4.34667 0
M  V30 4522 H 423.668 -0.0125473 -0.710889 0
M  V30 4523 H 426.27 -0.711783 -1.82082 0
M  V30 4524 H 424.974 -0.842061 -4.01668 0
M  V30 4525 H 424.505 0.856026 -3.83974 0
M  V30 4526 H 426.52 1.86514 -4.59812 0
M  V30 4527 N 425.693 1.55336 -0.266172 0
M  V30 4528 C 426.941 1.99003 0.35246 0
M  V30 4529 C 427.262 1.15591 1.57047 0
M  V30 4530 O 426.532 0.243268 1.94384 0
M  V30 4531 H 425.112 0.735025 0.133217 0
M  V30 4532 H 427.774 1.91367 -0.369434 0
M  V30 4533 H 426.87 3.05289 0.648453 0
M  V30 4534 N 427.171 -0.0066808 1.57599 0
M  V30 4535 C 428.418 -0.69292 1.90276 0
M  V30 4536 C 428.746 -1.74148 0.866192 0
M  V30 4537 O 428.001 -1.95268 -0.129933 0
M  V30 4538 C 428.3 -1.37939 3.29708 0
M  V30 4539 C 427.966 -0.464679 4.48499 0
M  V30 4540 C 426.628 -0.212809 4.80729 0
M  V30 4541 C 428.98 0.16551 5.20937 0
M  V30 4542 C 426.308 0.677653 5.82773 0
M  V30 4543 C 428.66 1.04381 6.23929 0
M  V30 4544 C 427.324 1.30492 6.54621 0
M  V30 4545 H 426.594 -0.253558 0.696268 0
M  V30 4546 H 429.241 0.0474123 1.91441 0
M  V30 4547 H 427.546 -2.1936 3.24636 0
M  V30 4548 H 429.243 -1.9163 3.52249 0
M  V30 4549 H 425.833 -0.671153 4.23313 0
M  V30 4550 H 430.017 -0.0160756 4.96297 0
M  V30 4551 H 425.273 0.88803 6.04917 0
M  V30 4552 H 429.447 1.53851 6.79193 0
M  V30 4553 H 427.074 1.99662 7.33512 0
M  V30 4554 N 428.649 -1.55105 -0.279332 0
M  V30 4555 C 429.889 -1.7716 -1.01949 0
M  V30 4556 C 430.253 -0.557511 -1.83728 0
M  V30 4557 O 431.454 -0.656198 -2.60667 0
M  V30 4558 C 429.725 -3.0372 -1.88385 0
M  V30 4559 S 431.284 -3.46868 -2.68752 0
M  V30 4560 H 428.102 -0.62253 -0.343478 0
M  V30 4561 H 430.704 -1.93329 -0.290572 0
M  V30 4562 H 429.408 -3.90184 -1.2722 0
M  V30 4563 H 428.939 -2.902 -2.65608 0
M  V30 4564 H 430.954 -3.05643 -3.90892 0
M  V30 4565 N 430.127 0.543554 -1.4793 0
M  V30 4566 C 431.543 0.870806 -1.3375 0
M  V30 4567 C 431.743 1.9864 -0.338261 0
M  V30 4568 O 430.799 2.51305 0.245371 0
M  V30 4569 C 432.112 1.25114 -2.73435 0
M  V30 4570 C 433.66 1.3618 -2.81823 0
M  V30 4571 C 434.135 1.77563 -4.22179 0
M  V30 4572 N 435.626 1.8469 -4.24787 0
M  V30 4573 C 436.361 2.18067 -5.30315 0
M  V30 4574 N 435.857 2.49963 -6.46135 0
M  V30 4575 N 437.65 2.18958 -5.17701 0
M  V30 4576 H 429.801 -0.19275 -2.11524 0
M  V30 4577 H 432.064 -0.0235777 -0.947707 0
M  V30 4578 H 431.77 0.50514 -3.48053 0
M  V30 4579 H 431.644 2.20431 -3.06088 0
M  V30 4580 H 434.031 2.09859 -2.07468 0
M  V30 4581 H 434.112 0.390169 -2.52807 0
M  V30 4582 H 433.756 1.04449 -4.97044 0
M  V30 4583 H 433.686 2.75753 -4.48629 0
M  V30 4584 H 436.177 1.62372 -3.41239 0
M  V30 4585 H 436.49 2.74497 -7.22406 0
M  V30 4586 H 434.835 2.47513 -6.49432 0
M  V30 4587 H 438.026 1.93488 -4.2624 0
M  V30 4588 H 438.199 2.44639 -6.00047 0
M  V30 4589 N 431.605 1.3629 0.791371 0
M  V30 4590 C 432.552 1.30458 1.90393 0
M  V30 4591 C 433.522 0.173632 1.6519 0
M  V30 4592 O 434.707 0.35983 1.87376 0
M  V30 4593 C 431.847 1.09777 3.27174 0
M  V30 4594 C 430.96 2.31929 3.64462 0
M  V30 4595 C 430.095 2.04276 4.90352 0
M  V30 4596 C 429.134 3.224 5.20312 0
M  V30 4597 N 428.271 2.94424 6.37385 0
M  V30 4598 H 433.111 2.25589 1.94714 0
M  V30 4599 H 430.648 1.12122 0.952216 0
M  V30 4600 H 432.606 0.958133 4.06049 0
M  V30 4601 H 431.236 0.183014 3.22281 0
M  V30 4602 H 430.288 2.56703 2.80727 0
M  V30 4603 H 431.6 3.20085 3.82553 0
M  V30 4604 H 430.754 1.87231 5.77087 0
M  V30 4605 H 429.493 1.13428 4.74326 0
M  V30 4606 H 428.498 3.40005 4.32061 0
M  V30 4607 H 429.723 4.14071 5.38258 0
M  V30 4608 H 427.669 2.06185 6.22755 0
M  V30 4609 H 427.586 3.76118 6.55798 0
M  V30 4610 H 428.854 2.80953 7.27108 0
M  V30 4611 N 433.083 -1.0153 1.20538 0
M  V30 4612 C 433.993 -2.13557 0.971113 0
M  V30 4613 C 435.009 -1.73845 -0.0734366 0
M  V30 4614 O 436.185 -2.01075 0.114299 0
M  V30 4615 C 433.25 -3.42661 0.527639 0
M  V30 4616 C 432.311 -3.96608 1.64319 0
M  V30 4617 C 431.544 -5.1955 1.22078 0
M  V30 4618 O 431.767 -5.70329 0.0900198 0
M  V30 4619 O 430.701 -5.66681 2.02871 0
M  V30 4620 H 434.527 -2.3619 1.90913 0
M  V30 4621 H 432.112 -1.11946 0.989362 0
M  V30 4622 H 433.994 -4.20404 0.289621 0
M  V30 4623 H 432.669 -3.21441 -0.381779 0
M  V30 4624 H 431.576 -3.20139 1.93551 0
M  V30 4625 H 432.909 -4.22219 2.52966 0
M  V30 4626 N 434.561 -1.01147 -1.20859 0
M  V30 4627 C 435.838 -0.613136 -1.85742 0
M  V30 4628 C 436.218 0.909004 -1.90526 0
M  V30 4629 O 435.566 1.79862 -1.40932 0
M  V30 4630 C 435.776 -1.255 -3.25654 0
M  V30 4631 C 437.124 -1.3672 -4.01986 0
M  V30 4632 O 438.148 -1.21082 -3.34989 0
M  V30 4633 O 437.007 -1.6194 -5.21956 0
M  V30 4634 H 434.101 -0.210878 -0.799662 0
M  V30 4635 H 436.647 -1.10853 -1.2849 0
M  V30 4636 H 435.419 -2.29532 -3.16908 0
M  V30 4637 H 435.042 -0.746369 -3.90532 0
M  V30 4638 N 436.039 1.36541 -0.78704 0
M  V30 4639 C 437.285 1.99599 -0.358872 0
M  V30 4640 C 437.618 1.62323 1.06606 0
M  V30 4641 O 436.893 0.876858 1.73613 0
M  V30 4642 C 437.176 3.56327 -0.519944 0
M  V30 4643 C 437.029 4.03464 -1.98839 0
M  V30 4644 C 438.348 4.4005 0.0664737 0
M  V30 4645 H 435.467 0.725107 -0.131869 0
M  V30 4646 H 438.109 1.6199 -0.992936 0
M  V30 4647 H 436.259 3.88495 0.0198321 0
M  V30 4648 H 437.931 3.81793 -2.58905 0
M  V30 4649 H 436.174 3.55092 -2.49183 0
M  V30 4650 H 436.845 5.12439 -2.05207 0
M  V30 4651 H 439.321 4.14228 -0.394267 0
M  V30 4652 H 438.197 5.48847 -0.0762682 0
M  V30 4653 H 438.458 4.26655 1.15835 0
M  V30 4654 N 437.518 0.538854 1.48102 0
M  V30 4655 C 438.743 0.0102694 2.07397 0
M  V30 4656 C 439.168 -1.26562 1.39153 0
M  V30 4657 O 438.526 -1.75357 0.460387 0
M  V30 4658 C 438.574 -0.187602 3.60112 0
M  V30 4659 O 437.678 -1.25432 3.92862 0
M  V30 4660 H 437.019 0.0430975 0.6626 0
M  V30 4661 H 439.549 0.749301 1.90385 0
M  V30 4662 H 439.559 -0.407517 4.0596 0
M  V30 4663 H 438.234 0.744386 4.09184 0
M  V30 4664 H 436.811 -1.01636 3.58782 0
M  V30 4665 N 438.996 -1.55193 0.274407 0
M  V30 4666 C 440.244 -1.99187 -0.341902 0
M  V30 4667 C 440.565 -1.16422 -1.56431 0
M  V30 4668 O 439.835 -0.253573 -1.94252 0
M  V30 4669 H 438.415 -0.735721 -0.129317 0
M  V30 4670 H 441.077 -1.91168 0.379578 0
M  V30 4671 H 440.173 -3.05629 -0.632253 0
M  V30 4672 N 440.474 -0.00167713 -1.576 0
M  V30 4673 C 441.437 0.974046 -2.07473 0
M  V30 4674 C 442.437 1.27143 -0.984444 0
M  V30 4675 O 443.627 1.21633 -1.24703 0
M  V30 4676 C 440.759 2.29849 -2.51759 0
M  V30 4677 H 441.952 0.54262 -2.9495 0
M  V30 4678 H 439.505 0.245829 -1.54355 0
M  V30 4679 H 440.24 2.77677 -1.67529 0
M  V30 4680 H 440.025 2.09584 -3.31386 0
M  V30 4681 H 441.515 2.9984 -2.90664 0
M  V30 4682 N 441.952 1.55251 0.271103 0
M  V30 4683 C 443.201 1.75151 1.00025 0
M  V30 4684 C 443.514 0.561041 1.87381 0
M  V30 4685 O 444.72 0.642506 2.63788 0
M  V30 4686 C 443.176 3.09999 1.82835 0
M  V30 4687 C 442.784 4.3662 1.00336 0
M  V30 4688 C 444.528 3.39249 2.55168 0
M  V30 4689 C 442.435 5.62506 1.82595 0
M  V30 4690 H 441.365 0.652877 0.377183 0
M  V30 4691 H 444.016 1.81708 0.255843 0
M  V30 4692 H 442.398 2.97485 2.61378 0
M  V30 4693 H 443.572 4.60055 0.261959 0
M  V30 4694 H 441.887 4.14527 0.394486 0
M  V30 4695 H 444.484 4.3051 3.1712 0
M  V30 4696 H 444.827 2.59467 3.2555 0
M  V30 4697 H 445.36 3.52869 1.83653 0
M  V30 4698 H 442.099 6.45041 1.16631 0
M  V30 4699 H 441.619 5.43211 2.54327 0
M  V30 4700 H 443.298 6.00875 2.39913 0
M  V30 4701 N 443.43 -0.535701 1.48216 0
M  V30 4702 C 444.655 -1.32149 1.59848 0
M  V30 4703 C 445.08 -1.86338 0.256842 0
M  V30 4704 O 444.438 -1.64107 -0.770632 0
M  V30 4705 C 444.486 -2.45224 2.64381 0
M  V30 4706 O 443.59 -3.48093 2.21144 0
M  V30 4707 H 442.931 -0.391634 0.536208 0
M  V30 4708 H 445.461 -0.645202 1.94161 0
M  V30 4709 H 445.471 -2.91491 2.85476 0
M  V30 4710 H 444.146 -2.05143 3.61786 0
M  V30 4711 H 442.723 -3.07984 2.10239 0
M  V30 4712 N 444.908 -1.36708 -0.784132 0
M  V30 4713 C 445.858 -1.2799 -1.88686 0
M  V30 4714 C 446.842 -0.170282 -1.59996 0
M  V30 4715 O 448.034 -0.403571 -1.72338 0
M  V30 4716 C 445.163 -1.07674 -3.25977 0
M  V30 4717 C 444.249 -2.23127 -3.60659 0
M  V30 4718 N 444.64 -3.48467 -3.66612 0
M  V30 4719 C 442.938 -2.15009 -3.90752 0
M  V30 4720 C 443.639 -4.24525 -3.97685 0
M  V30 4721 N 442.615 -3.53524 -4.12943 0
M  V30 4722 H 446.417 -2.22927 -1.91522 0
M  V30 4723 H 443.931 -1.29503 -0.979933 0
M  V30 4724 H 445.928 -0.995151 -4.04849 0
M  V30 4725 H 444.588 -0.13643 -3.24413 0
M  V30 4726 H 445.599 -3.82534 -3.49125 0
M  V30 4727 H 442.276 -1.28963 -3.97083 0
M  V30 4728 H 443.666 -5.32944 -4.0917 0
M  V30 4729 N 446.386 1.0089 -1.21074 0
M  V30 4730 C 447.316 2.1145 -0.990523 0
M  V30 4731 C 448.297 1.69897 0.0831699 0
M  V30 4732 O 449.482 1.94052 -0.0758853 0
M  V30 4733 C 446.612 3.42914 -0.550177 0
M  V30 4734 C 445.566 3.98244 -1.56799 0
M  V30 4735 C 444.892 5.25568 -0.984013 0
M  V30 4736 C 446.192 4.30752 -2.95381 0
M  V30 4737 H 447.886 2.3013 -1.91521 0
M  V30 4738 H 445.432 1.10592 -0.92225 0
M  V30 4739 H 447.385 4.19653 -0.383305 0
M  V30 4740 H 446.109 3.24014 0.41015 0
M  V30 4741 H 444.768 3.23621 -1.72236 0
M  V30 4742 H 444.416 5.02998 -0.0155216 0
M  V30 4743 H 444.116 5.63551 -1.66384 0
M  V30 4744 H 445.64 6.04955 -0.828378 0
M  V30 4745 H 447.054 4.98349 -2.8341 0
M  V30 4746 H 445.451 4.79869 -3.60341 0
M  V30 4747 H 446.521 3.39192 -3.46521 0
M  V30 4748 N 447.864 1.01787 1.20321 0
M  V30 4749 C 449.089 0.727009 1.9424 0
M  V30 4750 C 449.514 -0.706179 1.74341 0
M  V30 4751 O 448.872 -1.48609 1.03852 0
M  V30 4752 C 448.92 1.06958 3.44372 0
M  V30 4753 O 448.024 0.181983 4.11998 0
M  V30 4754 H 447.365 0.269626 0.606793 0
M  V30 4755 H 449.895 1.36158 1.52716 0
M  V30 4756 H 449.905 1.02182 3.94997 0
M  V30 4757 H 448.58 2.11378 3.58179 0
M  V30 4758 H 447.157 0.287378 3.71791 0
M  V30 4759 N 449.342 -1.36122 0.79427 0
M  V30 4760 C 450.272 -2.32551 0.210328 0
M  V30 4761 C 451.253 -1.56884 -0.657386 0
M  V30 4762 O 452.438 -1.85014 -0.590207 0
M  V30 4763 C 449.568 -3.41128 -0.651819 0
M  V30 4764 C 448.522 -4.27842 0.116395 0
M  V30 4765 C 447.848 -5.2763 -0.86666 0
M  V30 4766 C 449.148 -5.05647 1.30837 0
M  V30 4767 H 450.842 -2.81636 1.01594 0
M  V30 4768 H 448.388 -1.35407 0.489981 0
M  V30 4769 H 450.341 -4.07581 -1.07031 0
M  V30 4770 H 449.065 -2.90622 -1.49019 0
M  V30 4771 H 447.724 -3.62952 0.515915 0
M  V30 4772 H 447.372 -4.73395 -1.70019 0
M  V30 4773 H 447.072 -5.86514 -0.35705 0
M  V30 4774 H 448.596 -5.96955 -1.28361 0
M  V30 4775 H 450.01 -5.65113 0.965393 0
M  V30 4776 H 448.407 -5.73967 1.75161 0
M  V30 4777 H 449.477 -4.37006 2.10128 0
M  V30 4778 N 450.82 -0.546701 -1.47814 0
M  V30 4779 C 452.068 -0.0187037 -2.02091 0
M  V30 4780 C 452.389 1.33168 -1.42447 0
M  V30 4781 O 451.659 1.86619 -0.595839 0
M  V30 4782 H 450.239 -0.00392531 -0.74699 0
M  V30 4783 H 452.901 -0.714327 -1.81338 0
M  V30 4784 H 451.997 0.0772219 -3.12004 0
M  V30 4785 N 452.299 1.55045 -0.282633 0
M  V30 4786 C 453.209 2.26491 0.61147 0
M  V30 4787 C 454.225 1.29348 1.16384 0
M  V30 4788 O 455.401 1.62298 1.19253 0
M  V30 4789 C 452.466 2.97779 1.77563 0
M  V30 4790 C 451.527 4.10418 1.25919 0
M  V30 4791 C 450.76 4.78297 2.36786 0
M  V30 4792 O 450.983 4.45426 3.56303 0
M  V30 4793 O 449.917 5.66089 2.04517 0
M  V30 4794 H 453.743 3.03683 0.0324615 0
M  V30 4795 H 451.328 1.49317 -0.0497576 0
M  V30 4796 H 453.21 3.42554 2.45427 0
M  V30 4797 H 451.885 2.23498 2.34159 0
M  V30 4798 H 450.792 3.70082 0.546797 0
M  V30 4799 H 452.125 4.86622 0.738887 0
M  V30 4800 N 453.777 0.010035 1.57597 0
M  V30 4801 C 455.026 -0.671945 1.90178 0
M  V30 4802 C 455.339 -1.74376 0.886131 0
M  V30 4803 O 456.545 -2.48107 1.10252 0
M  V30 4804 C 455.001 -1.24636 3.3763 0
M  V30 4805 C 454.609 -0.208838 4.47513 0
M  V30 4806 C 456.353 -1.90595 3.79307 0
M  V30 4807 C 454.26 -0.793814 5.86048 0
M  V30 4808 H 453.19 -0.25474 0.709665 0
M  V30 4809 H 455.841 0.0722206 1.83358 0
M  V30 4810 H 454.223 -2.04152 3.3932 0
M  V30 4811 H 455.397 0.562463 4.57354 0
M  V30 4812 H 453.712 0.350889 4.14919 0
M  V30 4813 H 456.309 -2.35284 4.80151 0
M  V30 4814 H 456.652 -2.74074 3.13352 0
M  V30 4815 H 457.185 -1.17798 3.79958 0
M  V30 4816 H 453.924 0.00240855 6.555 0
M  V30 4817 H 453.444 -1.53404 5.79851 0
M  V30 4818 H 455.123 -1.2894 6.34022 0
M  V30 4819 N 455.255 -1.55392 -0.262866 0
M  V30 4820 C 456.666 -1.67079 -0.833158 0
M  V30 4821 C 457.017 -0.604539 -1.86654 0
M  V30 4822 O 456.142 0.252138 -2.14926 0
M  V30 4823 C 456.737 -3.02891 -1.51797 0
M  V30 4824 C 455.296 -3.16571 -2.03617 0
M  V30 4825 C 454.443 -2.62909 -0.881701 0
M  V30 4826 H 457.394 -1.58652 -0.0389986 0
M  V30 4827 H 457.415 -2.96445 -2.38538 0
M  V30 4828 H 456.927 -3.80473 -0.765619 0
M  V30 4829 H 455.028 -2.43782 -2.81782 0
M  V30 4830 H 455.141 -4.23271 -2.24452 0
M  V30 4831 H 453.505 -2.20324 -1.27786 0
M  V30 4832 H 454.288 -3.43003 -0.14269 0
M  V30 4833 N 456.733 0.527833 -1.48498 0
M  V30 4834 C 457.696 1.61439 -1.62696 0
M  V30 4835 C 458.696 1.52824 -0.500136 0
M  V30 4836 O 459.886 1.56456 -0.765976 0
M  V30 4837 C 457.018 3.01063 -1.59918 0
M  V30 4838 H 458.211 1.50189 -2.59583 0
M  V30 4839 H 455.764 0.750055 -1.37127 0
M  V30 4840 H 456.499 3.17818 -0.645163 0
M  V30 4841 H 456.284 3.08725 -2.41726 0
M  V30 4842 H 457.774 3.80057 -1.73051 0
M  V30 4843 N 458.211 1.37122 0.776871 0
M  V30 4844 C 459.144 1.26835 1.89705 0
M  V30 4845 C 460.122 0.14992 1.61907 0
M  V30 4846 O 461.306 0.323242 1.85708 0
M  V30 4847 C 458.433 0.95986 3.24814 0
M  V30 4848 C 457.479 2.09447 3.7153 0
M  V30 4849 S 458.312 3.71368 3.85806 0
M  V30 4850 C 459.468 3.42659 5.23771 0
M  V30 4851 H 459.701 2.21647 1.98141 0
M  V30 4852 H 457.234 1.22685 0.937433 0
M  V30 4853 H 459.192 0.788696 4.02852 0
M  V30 4854 H 457.853 0.0293137 3.14086 0
M  V30 4855 H 457.046 1.8335 4.69467 0
M  V30 4856 H 456.648 2.2255 3.00578 0
M  V30 4857 H 458.94 2.9733 6.0877 0
M  V30 4858 H 459.883 4.39905 5.54878 0
M  V30 4859 H 460.291 2.77708 4.91466 0
M  V30 4860 N 459.689 -1.00246 1.21608 0
M  V30 4861 C 460.652 -2.07233 0.979133 0
M  V30 4862 C 461.652 -1.6072 -0.0508219 0
M  V30 4863 O 462.842 -1.73196 0.186712 0
M  V30 4864 C 459.974 -3.37546 0.477016 0
M  V30 4865 H 461.167 -2.29687 1.92831 0
M  V30 4866 H 458.72 -1.17261 1.03342 0
M  V30 4867 H 459.455 -3.20773 -0.476966 0
M  V30 4868 H 459.24 -3.72638 1.21997 0
M  V30 4869 H 460.73 -4.16285 0.331181 0
M  V30 4870 N 461.167 -1.02423 -1.1978 0
M  V30 4871 C 462.099 -0.559152 -2.22275 0
M  V30 4872 C 463.112 0.36251 -1.58713 0
M  V30 4873 O 464.301 0.159641 -1.77785 0
M  V30 4874 C 461.401 0.205094 -3.38279 0
M  V30 4875 C 460.574 -0.720361 -4.31427 0
M  V30 4876 C 459.633 -0.00234368 -5.262 0
M  V30 4877 O 458.659 -0.627378 -5.65732 0
M  V30 4878 N 459.861 1.26996 -5.66438 0
M  V30 4879 H 462.626 -1.44064 -2.62804 0
M  V30 4880 H 460.187 -0.902692 -1.34399 0
M  V30 4881 H 462.179 0.694868 -3.9869 0
M  V30 4882 H 460.749 0.987947 -2.96578 0
M  V30 4883 H 459.969 -1.39031 -3.68869 0
M  V30 4884 H 461.257 -1.3495 -4.90577 0
M  V30 4885 H 460.655 1.79858 -5.36347 0
M  V30 4886 H 459.212 1.70432 -6.29123 0
M  V30 4887 N 462.645 1.35699 -0.801477 0
M  V30 4888 C 464.056 1.81415 -0.441073 0
M  V30 4889 C 464.407 1.66595 1.03636 0
M  V30 4890 O 463.532 1.19369 1.80499 0
M  V30 4891 C 464.127 3.29369 -0.793819 0
M  V30 4892 C 462.686 3.73248 -0.486083 0
M  V30 4893 C 461.833 2.57775 -1.02213 0
M  V30 4894 H 464.784 1.23749 -0.993572 0
M  V30 4895 H 464.805 3.80395 -0.0894158 0
M  V30 4896 H 464.317 3.40123 -1.86917 0
M  V30 4897 H 462.418 3.68046 0.580735 0
M  V30 4898 H 462.531 4.68222 -1.01513 0
M  V30 4899 H 460.895 2.50788 -0.444712 0
M  V30 4900 H 461.678 2.71309 -2.10348 0
M  V30 4901 N 464.123 0.554532 1.47522 0
M  V30 4902 C 465.37 0.029479 2.02479 0
M  V30 4903 C 465.698 -1.31929 1.42916 0
M  V30 4904 O 464.953 -1.87112 0.573385 0
M  V30 4905 C 465.252 -0.115927 3.57212 0
M  V30 4906 C 464.918 1.16161 4.3568 0
M  V30 4907 C 463.58 1.51168 4.56839 0
M  V30 4908 C 465.932 2.0083 4.80954 0
M  V30 4909 C 463.26 2.70696 5.2052 0
M  V30 4910 C 465.612 3.19559 5.45953 0
M  V30 4911 C 464.276 3.54882 5.65345 0
M  V30 4912 H 463.546 0.0107871 0.740921 0
M  V30 4913 H 466.193 0.725506 1.77225 0
M  V30 4914 H 464.498 -0.894902 3.81443 0
M  V30 4915 H 466.195 -0.53749 3.97381 0
M  V30 4916 H 462.785 0.879026 4.19489 0
M  V30 4917 H 466.969 1.75093 4.64388 0
M  V30 4918 H 462.225 2.98236 5.33728 0
M  V30 4919 H 466.399 3.85456 5.79997 0
M  V30 4920 H 464.026 4.47596 6.1446 0
M  V30 4921 N 465.601 -1.54893 0.290851 0
M  V30 4922 C 466.847 -2.0023 -0.321867 0
M  V30 4923 C 467.18 -1.179 -1.54316 0
M  V30 4924 O 466.455 -0.25293 -1.92848 0
M  V30 4925 C 466.738 -3.53456 -0.688515 0
M  V30 4926 C 466.591 -4.46532 0.541209 0
M  V30 4927 C 467.91 -4.13057 -1.51895 0
M  V30 4928 H 465.029 -0.727891 -0.115515 0
M  V30 4929 H 467.671 -1.85722 0.400931 0
M  V30 4930 H 465.821 -3.6595 -1.30433 0
M  V30 4931 H 467.493 -4.4596 1.17973 0
M  V30 4932 H 465.736 -4.17545 1.17636 0
M  V30 4933 H 466.407 -5.51475 0.240675 0
M  V30 4934 H 468.883 -4.03937 -0.99872 0
M  V30 4935 H 467.759 -5.20448 -1.74429 0
M  V30 4936 H 468.02 -3.64284 -2.50498 0
M  V30 4937 N 467.08 -0.0183926 -1.57589 0
M  V30 4938 C 468.305 0.676634 -1.96052 0
M  V30 4939 C 468.73 1.6548 -0.894307 0
M  V30 4940 O 468.088 1.80712 0.145849 0
M  V30 4941 C 468.136 1.36872 -3.33614 0
M  V30 4942 O 467.24 2.48372 -3.29219 0
M  V30 4943 H 466.581 0.1786 -0.63953 0
M  V30 4944 H 469.111 -0.077056 -2.04455 0
M  V30 4945 H 469.121 1.72797 -3.69601 0
M  V30 4946 H 467.796 0.651636 -4.10763 0
M  V30 4947 H 466.373 2.14639 -3.04934 0
M  V30 4948 N 468.558 1.5553 0.254621 0
M  V30 4949 C 469.783 1.81383 1.00573 0
M  V30 4950 C 470.208 0.594419 1.78461 0
M  V30 4951 O 469.566 -0.456403 1.75461 0
M  V30 4952 C 469.614 3.04892 1.92545 0
M  V30 4953 O 468.718 2.81266 3.01601 0
M  V30 4954 H 468.059 0.598969 0.286587 0
M  V30 4955 H 470.589 2.02703 0.277952 0
M  V30 4956 H 470.599 3.34119 2.34155 0
M  V30 4957 H 469.274 3.93287 1.3527 0
M  V30 4958 H 467.851 2.63185 2.64174 0
M  V30 4959 N 470.036 -0.519951 1.48776 0
M  V30 4960 C 470.946 -1.65025 1.66745 0
M  V30 4961 C 471.962 -1.6508 0.549954 0
M  V30 4962 O 473.138 -1.83848 0.822295 0
M  V30 4963 C 470.203 -3.0146 1.71238 0
M  V30 4964 C 469.264 -3.12182 2.94688 0
M  V30 4965 C 468.497 -4.42109 2.98958 0
M  V30 4966 O 468.72 -5.29799 2.1135 0
M  V30 4967 O 467.654 -4.57406 3.91233 0
M  V30 4968 H 471.48 -1.52801 2.62461 0
M  V30 4969 H 469.065 -0.694157 1.32294 0
M  V30 4970 H 470.947 -3.82584 1.76657 0
M  V30 4971 H 469.622 -3.13988 0.786975 0
M  V30 4972 H 468.529 -2.30316 2.94797 0
M  V30 4973 H 469.862 -3.04574 3.86646 0
M  V30 4974 N 471.514 -1.37532 -0.769588 0
M  V30 4975 C 472.424 -1.35668 -1.91393 0
M  V30 4976 C 473.44 -0.255954 -1.72107 0
M  V30 4977 O 474.616 -0.491704 -1.95305 0
M  V30 4978 C 471.681 -1.16481 -3.26547 0
M  V30 4979 C 470.742 -2.36212 -3.58472 0
M  V30 4980 C 469.975 -2.17932 -4.87177 0
M  V30 4981 O 470.198 -1.1647 -5.58382 0
M  V30 4982 O 469.132 -3.06167 -5.18214 0
M  V30 4983 H 472.958 -2.32055 -1.95918 0
M  V30 4984 H 470.543 -1.18284 -0.912641 0
M  V30 4985 H 472.425 -1.07778 -4.07384 0
M  V30 4986 H 471.1 -0.231687 -3.2287 0
M  V30 4987 H 470.007 -2.50488 -2.77861 0
M  V30 4988 H 471.34 -3.281 -3.66894 0
M  V30 4989 N 472.992 0.995999 -1.22138 0
M  V30 4990 C 474.408 1.25917 -0.980667 0
M  V30 4991 C 474.608 1.98819 0.327604 0
M  V30 4992 O 473.664 2.29587 1.05101 0
M  V30 4993 C 474.977 2.07399 -2.17729 0
M  V30 4994 C 476.525 2.20594 -2.22052 0
M  V30 4995 C 477 3.05462 -3.41258 0
M  V30 4996 N 478.491 3.13049 -3.41401 0
M  V30 4997 C 479.226 3.78997 -4.30289 0
M  V30 4998 N 478.722 4.46899 -5.2939 0
M  V30 4999 N 480.515 3.75728 -4.18073 0
M  V30 5000 H 472.666 0.507158 -2.06256 0
M  V30 5001 H 474.929 0.28658 -0.903646 0
M  V30 5002 H 474.635 1.61191 -3.12586 0
M  V30 5003 H 474.509 3.08154 -2.17534 0
M  V30 5004 H 476.896 2.66017 -1.27745 0
M  V30 5005 H 476.977 1.1928 -2.26287 0
M  V30 5006 H 476.621 2.60739 -4.35864 0
M  V30 5007 H 476.551 4.06911 -3.34262 0
M  V30 5008 H 479.042 2.64721 -2.69688 0
M  V30 5009 H 479.355 4.94952 -5.935 0
M  V30 5010 H 477.7 4.45657 -5.33306 0
M  V30 5011 H 480.891 3.2184 -3.39907 0
M  V30 5012 H 481.064 4.26845 -4.87553 0
M  V30 5013 N 474.47 1.03057 1.19235 0
M  V30 5014 C 475.417 0.612832 2.22515 0
M  V30 5015 C 476.387 -0.374224 1.61829 0
M  V30 5016 O 477.572 -0.270501 1.88873 0
M  V30 5017 C 474.712 -0.028475 3.45088 0
M  V30 5018 C 473.825 1.00483 4.20151 0
M  V30 5019 C 472.96 0.333102 5.30155 0
M  V30 5020 C 471.999 1.3522 5.96977 0
M  V30 5021 N 471.136 0.70616 6.9854 0
M  V30 5022 H 475.976 1.49812 2.57605 0
M  V30 5023 H 473.513 0.749658 1.26564 0
M  V30 5024 H 475.471 -0.417548 4.15105 0
M  V30 5025 H 474.101 -0.877334 3.10649 0
M  V30 5026 H 473.153 1.51194 3.49062 0
M  V30 5027 H 474.465 1.77929 4.65986 0
M  V30 5028 H 473.619 -0.110725 6.06599 0
M  V30 5029 H 472.358 -0.473547 4.85396 0
M  V30 5030 H 471.363 1.80627 5.19282 0
M  V30 5031 H 472.588 2.16037 6.4382 0
M  V30 5032 H 470.534 -0.0803667 6.55951 0
M  V30 5033 H 470.451 1.41848 7.42573 0
M  V30 5034 H 471.719 0.286391 7.78974 0
M  V30 5035 N 475.948 -1.35272 0.808662 0
M  V30 5036 C 476.858 -2.33546 0.222079 0
M  V30 5037 C 477.874 -1.6196 -0.636011 0
M  V30 5038 O 479.05 -1.93822 -0.547274 0
M  V30 5039 C 476.115 -3.41148 -0.61795 0
M  V30 5040 C 475.176 -4.28507 0.260875 0
M  V30 5041 C 474.409 -5.3097 -0.539156 0
M  V30 5042 O 474.632 -5.42123 -1.77367 0
M  V30 5043 O 473.566 -6.01858 0.0710526 0
M  V30 5044 H 477.392 -2.85515 1.03512 0
M  V30 5045 H 474.977 -1.38079 0.570495 0
M  V30 5046 H 476.859 -4.06889 -1.09634 0
M  V30 5047 H 475.534 -2.91447 -1.40855 0
M  V30 5048 H 474.441 -3.6574 0.786451 0
M  V30 5049 H 475.774 -4.81611 1.01547 0
M  V30 5050 N 477.426 -0.562348 -1.47226 0
M  V30 5051 C 478.842 -0.222492 -1.58042 0
M  V30 5052 C 479.042 1.27505 -1.56028 0
M  V30 5053 O 478.098 2.05555 -1.46641 0
M  V30 5054 C 479.411 -0.853694 -2.88327 0
M  V30 5055 C 480.959 -0.825397 -3.01921 0
M  V30 5056 C 481.434 -1.43576 -4.34914 0
M  V30 5057 N 482.925 -1.39918 -4.41562 0
M  V30 5058 C 483.66 -1.84103 -5.43041 0
M  V30 5059 N 483.156 -2.36167 -6.51304 0
M  V30 5060 N 484.949 -1.75142 -5.34118 0
M  V30 5061 H 477.1 -1.53525 -1.46778 0
M  V30 5062 H 479.363 -0.640527 -0.698877 0
M  V30 5063 H 479.069 -1.90635 -2.95552 0
M  V30 5064 H 478.943 -0.34977 -3.75575 0
M  V30 5065 H 481.33 0.218583 -2.94289 0
M  V30 5066 H 481.411 -1.36713 -2.16202 0
M  V30 5067 H 481.055 -2.47884 -4.43301 0
M  V30 5068 H 480.985 -0.869427 -5.19373 0
M  V30 5069 H 483.476 -1.0184 -3.63919 0
M  V30 5070 H 483.789 -2.67793 -7.24919 0
M  V30 5071 H 482.134 -2.40181 -6.52179 0
M  V30 5072 H 485.325 -1.34241 -4.48439 0
M  V30 5073 H 485.498 -2.09895 -6.13065 0
M  V30 5074 N 478.904 1.54736 -0.299062 0
M  V30 5075 C 480.15 2.01114 0.304123 0
M  V30 5076 C 480.505 1.18376 1.51674 0
M  V30 5077 O 479.798 0.251635 1.8994 0
M  V30 5078 C 479.992 3.50199 0.713835 0
M  V30 5079 C 479.821 4.47366 -0.457531 0
M  V30 5080 C 478.591 4.9631 -0.948933 0
M  V30 5081 C 480.789 4.9755 -1.30186 0
M  V30 5082 N 478.771 5.77327 -2.08726 0
M  V30 5083 C 480.142 5.7625 -2.28771 0
M  V30 5084 C 482.197 4.79739 -1.33246 0
M  V30 5085 C 480.9 6.39036 -3.3019 0
M  V30 5086 C 482.926 5.43343 -2.33521 0
M  V30 5087 C 482.288 6.21874 -3.30836 0
M  V30 5088 H 478.387 0.778318 0.0757992 0
M  V30 5089 H 480.971 1.89925 -0.428536 0
M  V30 5090 H 479.142 3.61681 1.41567 0
M  V30 5091 H 480.874 3.83374 1.29639 0
M  V30 5092 H 477.629 4.7069 -0.52423 0
M  V30 5093 H 478.053 6.22521 -2.66077 0
M  V30 5094 H 482.695 4.18609 -0.59383 0
M  V30 5095 H 480.413 6.99302 -4.04973 0
M  V30 5096 H 483.999 5.31492 -2.3666 0
M  V30 5097 H 482.879 6.70217 -4.07159 0
M  V30 5098 N 480.382 0.0267497 1.57577 0
M  V30 5099 C 481.292 -0.971633 2.13533 0
M  V30 5100 C 482.308 -1.35868 1.08701 0
M  V30 5101 O 483.484 -1.44058 1.40746 0
M  V30 5102 C 480.549 -2.23622 2.64941 0
M  V30 5103 C 479.61 -1.90982 3.8448 0
M  V30 5104 C 478.843 -3.11411 4.33427 0
M  V30 5105 O 479.066 -4.23992 3.81558 0
M  V30 5106 O 478 -2.93848 5.25297 0
M  V30 5107 H 481.826 -0.525853 2.99113 0
M  V30 5108 H 479.411 -0.193712 1.48139 0
M  V30 5109 H 481.293 -2.97864 2.98086 0
M  V30 5110 H 479.968 -2.67386 1.82446 0
M  V30 5111 H 478.875 -1.14132 3.56265 0
M  V30 5112 H 480.208 -1.52036 4.6813 0
M  V30 5113 N 481.861 -1.55662 -0.24637 0
M  V30 5114 C 482.793 -1.86811 -1.32794 0
M  V30 5115 C 483.806 -0.754413 -1.44265 0
M  V30 5116 O 484.995 -1.03253 -1.45606 0
M  V30 5117 C 482.095 -2.0397 -2.70646 0
M  V30 5118 C 481.268 -3.34832 -2.81436 0
M  V30 5119 C 480.327 -3.41727 -4.00136 0
M  V30 5120 O 479.353 -4.14934 -3.89639 0
M  V30 5121 N 480.555 -2.71058 -5.1333 0
M  V30 5122 H 483.32 -2.80174 -1.06409 0
M  V30 5123 H 480.881 -1.55906 -0.43647 0
M  V30 5124 H 482.873 -2.05924 -3.48393 0
M  V30 5125 H 481.443 -1.1735 -2.89738 0
M  V30 5126 H 480.663 -3.4519 -1.90361 0
M  V30 5127 H 481.951 -4.21085 -2.85595 0
M  V30 5128 H 481.349 -2.11314 -5.2475 0
M  V30 5129 H 479.906 -2.78704 -5.89209 0
M  V30 5130 N 483.339 0.512053 -1.4905 0
M  V30 5131 C 484.587 1.26436 -1.57665 0
M  V30 5132 C 484.908 1.93255 -0.260293 0
M  V30 5133 O 484.178 1.82206 0.719564 0
M  V30 5134 H 482.758 0.469658 -0.580888 0
M  V30 5135 H 485.42 0.594398 -1.85615 0
M  V30 5136 H 484.516 2.03417 -2.36702 0
M  V30 5137 N 484.817 1.37938 0.762283 0
M  V30 5138 C 485.749 1.30349 1.88525 0
M  V30 5139 C 486.762 0.217402 1.61342 0
M  V30 5140 O 487.951 0.474291 1.72084 0
M  V30 5141 C 485.051 0.994844 3.23969 0
M  V30 5142 C 484.224 2.18829 3.78725 0
M  V30 5143 C 483.283 1.84844 4.92665 0
M  V30 5144 O 482.309 2.57244 5.07754 0
M  V30 5145 N 483.511 0.798201 5.74986 0
M  V30 5146 H 486.276 2.27114 1.95549 0
M  V30 5147 H 483.837 1.31686 0.941825 0
M  V30 5148 H 485.829 0.748168 3.97724 0
M  V30 5149 H 484.399 0.115446 3.12387 0
M  V30 5150 H 483.619 2.59615 2.96637 0
M  V30 5151 H 484.907 2.98497 4.1204 0
M  V30 5152 H 484.305 0.197611 5.65355 0
M  V30 5153 H 482.862 0.611396 6.48926 0
M  V30 5154 N 486.295 -0.989507 1.22664 0
M  V30 5155 C 487.258 -2.06183 1.00106 0
M  V30 5156 C 488.258 -1.60765 -0.0337726 0
M  V30 5157 O 489.448 -1.72989 0.205072 0
M  V30 5158 C 486.58 -3.37021 0.51279 0
M  V30 5159 H 487.773 -2.27629 1.95256 0
M  V30 5160 H 485.326 -1.16158 1.0458 0
M  V30 5161 H 486.061 -3.21261 -0.442917 0
M  V30 5162 H 485.846 -3.71323 1.25942 0
M  V30 5163 H 487.336 -4.1591 0.375315 0
M  V30 5164 N 487.773 -1.03688 -1.18687 0
M  V30 5165 C 489.05 -0.652397 -1.84399 0
M  V30 5166 C 489.43 0.868386 -1.92412 0
M  V30 5167 O 488.778 1.76832 -1.44716 0
M  V30 5168 C 488.988 -1.3238 -3.22919 0
M  V30 5169 C 490.336 -1.45216 -3.98996 0
M  V30 5170 O 491.36 -1.2816 -3.32345 0
M  V30 5171 O 490.219 -1.72975 -5.18403 0
M  V30 5172 H 487.313 -0.227793 -0.795009 0
M  V30 5173 H 489.859 -1.13553 -1.2611 0
M  V30 5174 H 488.631 -2.36202 -3.11968 0
M  V30 5175 H 488.254 -0.829039 -3.88861 0
M  V30 5176 N 489.251 1.34841 -0.815825 0
M  V30 5177 C 490.481 2.02436 -0.412695 0
M  V30 5178 C 490.889 1.61604 0.983906 0
M  V30 5179 O 490.232 0.813729 1.64694 0
M  V30 5180 C 490.294 3.56953 -0.427182 0
M  V30 5181 C 489.958 4.21083 -1.77589 0
M  V30 5182 C 490.955 4.42107 -2.73564 0
M  V30 5183 C 488.64 4.58006 -2.06243 0
M  V30 5184 C 490.634 4.99169 -3.9637 0
M  V30 5185 C 488.321 5.1478 -3.2931 0
M  V30 5186 C 489.319 5.35304 -4.24191 0
M  V30 5187 O 489.007 5.90878 -5.45086 0
M  V30 5188 H 488.739 0.655631 -0.164695 0
M  V30 5189 H 491.293 1.73246 -1.1034 0
M  V30 5190 H 489.523 3.85372 0.320175 0
M  V30 5191 H 491.212 4.05875 -0.0450875 0
M  V30 5192 H 491.978 4.13953 -2.52721 0
M  V30 5193 H 487.857 4.41339 -1.33196 0
M  V30 5194 H 491.401 5.15105 -4.70439 0
M  V30 5195 H 487.298 5.42362 -3.5002 0
M  V30 5196 H 488.066 6.0932 -5.46508 0
M  V30 5197 N 490.729 0.570148 1.46925 0
M  V30 5198 C 491.662 -0.218362 2.27153 0
M  V30 5199 C 492.64 -0.90847 1.34854 0
M  V30 5200 O 493.824 -0.924875 1.64251 0
M  V30 5201 C 490.951 -1.3122 3.12248 0
M  V30 5202 C 489.997 -0.729277 4.20219 0
M  V30 5203 S 490.83 0.434159 5.33737 0
M  V30 5204 C 491.986 -0.661188 6.22398 0
M  V30 5205 H 492.219 0.462393 2.93682 0
M  V30 5206 H 489.752 0.356753 1.50222 0
M  V30 5207 H 491.71 -1.93856 3.61842 0
M  V30 5208 H 490.371 -1.96485 2.45056 0
M  V30 5209 H 489.564 -1.5511 4.79538 0
M  V30 5210 H 489.166 -0.178836 3.73572 0
M  V30 5211 H 491.458 -1.55006 6.5953 0
M  V30 5212 H 492.401 -0.105046 7.08022 0
M  V30 5213 H 492.809 -0.959682 5.56283 0
M  V30 5214 N 492.207 -1.54576 0.307264 0
M  V30 5215 C 493.455 -1.99867 -0.299574 0
M  V30 5216 C 493.776 -1.19714 -1.53927 0
M  V30 5217 O 493.046 -0.29472 -1.9367 0
M  V30 5218 H 491.626 -0.738299 -0.113683 0
M  V30 5219 H 494.288 -1.9032 0.420042 0
M  V30 5220 H 493.384 -3.06901 -0.567283 0
M  V30 5221 N 493.685 -0.035106 -1.57561 0
M  V30 5222 C 494.648 0.929819 -2.09492 0
M  V30 5223 C 495.648 1.25026 -1.01119 0
M  V30 5224 O 496.838 1.18961 -1.27255 0
M  V30 5225 C 493.97 2.24457 -2.56577 0
M  V30 5226 H 495.163 0.479935 -2.96035 0
M  V30 5227 H 492.716 0.213033 -1.54841 0
M  V30 5228 H 493.451 2.74061 -1.73382 0
M  V30 5229 H 493.236 2.02508 -3.35757 0
M  V30 5230 H 494.726 2.93607 -2.96959 0
M  V30 5231 N 495.163 1.55791 0.238111 0
M  V30 5232 C 496.44 1.68798 0.98826 0
M  V30 5233 C 496.82 0.577562 2.03045 0
M  V30 5234 O 496.168 -0.41778 2.24648 0
M  V30 5235 C 496.378 3.09454 1.61367 0
M  V30 5236 C 497.726 3.68335 2.11221 0
M  V30 5237 O 498.75 3.1231 1.71292 0
M  V30 5238 O 497.609 4.6657 2.84561 0
M  V30 5239 H 494.703 0.686881 0.460568 0
M  V30 5240 H 497.249 1.68118 0.231202 0
M  V30 5241 H 496.021 3.81726 0.860295 0
M  V30 5242 H 495.644 3.14182 2.4367 0
M  V30 5243 N 496.642 -0.504142 1.49319 0
M  V30 5244 C 497.867 -1.28729 1.62615 0
M  V30 5245 C 498.292 -1.85752 0.296309 0
M  V30 5246 O 497.65 -1.65704 -0.735649 0
M  V30 5247 C 497.698 -2.39561 2.69524 0
M  V30 5248 O 496.802 -3.43324 2.28478 0
M  V30 5249 H 496.143 -0.380172 0.544395 0
M  V30 5250 H 498.673 -0.603872 1.95485 0
M  V30 5251 H 498.683 -2.8537 2.91595 0
M  V30 5252 H 497.358 -1.97423 3.66056 0
M  V30 5253 H 495.935 -3.03455 2.16725 0
M  V30 5254 N 498.12 -1.38341 -0.754957 0
M  V30 5255 C 499.367 -1.34473 -1.51404 0
M  V30 5256 C 499.695 0.0656458 -1.94389 0
M  V30 5257 O 498.95 1.04244 -1.65625 0
M  V30 5258 C 499.249 -2.2452 -2.78075 0
M  V30 5259 C 498.915 -3.72512 -2.54059 0
M  V30 5260 C 497.577 -4.1284 -2.47218 0
M  V30 5261 C 499.929 -4.66197 -2.33044 0
M  V30 5262 C 497.257 -5.44945 -2.17376 0
M  V30 5263 C 499.609 -5.98558 -2.04723 0
M  V30 5264 C 498.273 -6.37972 -1.96337 0
M  V30 5265 H 497.543 -0.492072 -0.554027 0
M  V30 5266 H 500.19 -1.70687 -0.868223 0
M  V30 5267 H 498.495 -1.81357 -3.473 0
M  V30 5268 H 500.192 -2.18832 -3.36026 0
M  V30 5269 H 496.782 -3.40538 -2.60253 0
M  V30 5270 H 500.966 -4.35888 -2.37309 0
M  V30 5271 H 496.222 -5.74426 -2.09391 0
M  V30 5272 H 500.396 -6.70693 -1.87465 0
M  V30 5273 H 498.023 -7.40258 -1.72978 0
M  V30 5274 N 499.598 0.982988 -1.23187 0
M  V30 5275 C 500.875 1.69814 -0.970707 0
M  V30 5276 C 501.255 2.04811 0.511424 0
M  V30 5277 O 500.603 1.73924 1.48198 0
M  V30 5278 C 500.813 2.94143 -1.87831 0
M  V30 5279 C 502.161 3.66712 -2.14026 0
M  V30 5280 O 503.185 3.04171 -1.8536 0
M  V30 5281 O 502.044 4.79258 -2.62629 0
M  V30 5282 H 499.138 0.741659 -0.365884 0
M  V30 5283 H 501.684 1.03844 -1.34218 0
M  V30 5284 H 500.456 2.64858 -2.88038 0
M  V30 5285 H 500.079 3.6785 -1.50905 0
M  V30 5286 N 501.076 1.04316 1.18135 0
M  V30 5287 C 502.024 0.630175 2.23901 0
M  V30 5288 C 503.018 -0.344254 1.65865 0
M  V30 5289 O 504.224 -0.211273 1.78756 0
M  V30 5290 H 500.599 0.185578 0.728742 0
M  V30 5291 H 502.57 1.53253 2.56039 0
M  V30 5292 C 501.319 0.011666 3.47698 0
M  V30 5293 H 500.642 0.752526 3.92654 0
M  V30 5294 H 502.082 -0.240046 4.2332 0
M  V30 5295 C 500.541 -1.23913 3.13285 0
M  V30 5296 O 501.071 -2.32959 3.27251 0
M  V30 5297 N 499.277 -1.13338 2.67587 0
M  V30 5298 H 498.824 -0.246006 2.56423 0
M  V30 5299 H 498.782 -1.97116 2.44934 0
M  V30 5300 N 502.554 -1.34406 0.822964 0
M  V30 5301 C 503.803 -1.97542 0.407458 0
M  V30 5302 C 504.116 -1.65973 -1.035 0
M  V30 5303 O 505.322 -2.22598 -1.55442 0
M  V30 5304 C 503.778 -3.53463 0.677623 0
M  V30 5305 C 503.386 -3.93925 2.1337 0
M  V30 5306 C 505.13 -4.23229 0.328284 0
M  V30 5307 C 503.037 -5.42759 2.34876 0
M  V30 5308 H 501.967 -0.739207 0.148623 0
M  V30 5309 H 504.618 -1.53248 1.00932 0
M  V30 5310 H 503 -3.96 0.00558965 0
M  V30 5311 H 504.174 -3.62494 2.8449 0
M  V30 5312 H 502.489 -3.37097 2.44448 0
M  V30 5313 H 505.086 -5.32659 0.466794 0
M  V30 5314 H 505.429 -4.09899 -0.727224 0
M  V30 5315 H 505.962 -3.86169 0.954896 0
M  V30 5316 H 502.701 -5.61075 3.38932 0
M  V30 5317 H 502.221 -5.75704 1.68299 0
M  V30 5318 H 503.9 -6.0944 2.17236 0
M  V30 5319 N 504.032 -0.577932 -1.46621 0
M  V30 5320 C 504.979 0.158048 -2.30258 0
M  V30 5321 C 505.949 0.888669 -1.40328 0
M  V30 5322 O 507.134 0.880283 -1.6928 0
M  V30 5323 C 504.274 1.16884 -3.24703 0
M  V30 5324 C 503.387 0.442163 -4.29731 0
M  V30 5325 C 502.522 1.44007 -5.11308 0
M  V30 5326 C 501.561 0.69952 -6.0809 0
M  V30 5327 N 500.698 1.64525 -6.82551 0
M  V30 5328 H 505.538 -0.561242 -2.92667 0
M  V30 5329 H 503.075 -0.288591 -1.44241 0
M  V30 5330 H 505.033 1.7677 -3.779 0
M  V30 5331 H 503.663 1.85591 -2.64113 0
M  V30 5332 H 502.715 -0.271632 -3.79429 0
M  V30 5333 H 504.027 -0.136992 -4.98612 0
M  V30 5334 H 503.181 2.11186 -5.68758 0
M  V30 5335 H 501.92 2.05315 -4.42377 0
M  V30 5336 H 500.925 0.0139217 -5.49798 0
M  V30 5337 H 502.15 0.091894 -6.79038 0
M  V30 5338 H 500.096 2.24653 -6.16334 0
M  V30 5339 H 500.013 1.11878 -7.47676 0
M  V30 5340 H 501.281 2.30754 -7.44562 0
M  V30 5341 N 505.51 1.54411 -0.315457 0
M  V30 5342 C 506.926 1.59556 0.037464 0
M  V30 5343 C 507.126 1.33217 1.5118 0
M  V30 5344 O 506.182 1.11264 2.26664 0
M  V30 5345 C 507.495 2.98372 -0.373477 0
M  V30 5346 C 509.043 3.11324 -0.323452 0
M  V30 5347 C 509.518 4.52472 -0.709433 0
M  V30 5348 N 511.009 4.58437 -0.662524 0
M  V30 5349 C 511.744 5.65751 -0.933474 0
M  V30 5350 N 511.24 6.81039 -1.27114 0
M  V30 5351 N 513.033 5.55489 -0.859573 0
M  V30 5352 H 505.184 1.6979 -1.27614 0
M  V30 5353 H 507.447 0.793732 -0.518356 0
M  V30 5354 H 507.153 3.22618 -1.40037 0
M  V30 5355 H 507.027 3.76264 0.265615 0
M  V30 5356 H 509.414 2.86818 0.694223 0
M  V30 5357 H 509.495 2.35555 -0.997367 0
M  V30 5358 H 509.139 4.7771 -1.72498 0
M  V30 5359 H 509.069 5.26598 -0.0132923 0
M  V30 5360 H 511.56 3.75636 -0.413065 0
M  V30 5361 H 511.873 7.58816 -1.46348 0
M  V30 5362 H 510.218 6.82555 -1.30932 0
M  V30 5363 H 513.409 4.64299 -0.595324 0
M  V30 5364 H 513.582 6.39036 -1.0741 0
M  V30 5365 N 506.988 0.0434614 1.5754 0
M  V30 5366 C 507.935 -0.93356 2.11077 0
M  V30 5367 C 508.905 -1.31383 1.01626 0
M  V30 5368 O 510.09 -1.40465 1.29129 0
M  V30 5369 C 507.23 -2.20578 2.65404 0
M  V30 5370 C 506.343 -1.88068 3.88914 0
M  V30 5371 C 505.478 -3.09691 4.31584 0
M  V30 5372 C 504.517 -2.73067 5.47815 0
M  V30 5373 N 503.654 -3.87359 5.85574 0
M  V30 5374 H 508.494 -0.470118 2.94268 0
M  V30 5375 H 506.031 -0.220434 1.45439 0
M  V30 5376 H 507.989 -2.95011 2.94999 0
M  V30 5377 H 506.619 -2.64513 1.85021 0
M  V30 5378 H 505.671 -1.03816 3.6596 0
M  V30 5379 H 506.983 -1.57104 4.73413 0
M  V30 5380 H 506.137 -3.92431 4.62691 0
M  V30 5381 H 504.876 -3.43827 3.45882 0
M  V30 5382 H 503.881 -1.88742 5.16388 0
M  V30 5383 H 505.106 -2.40131 6.35227 0
M  V30 5384 H 503.052 -4.21311 5.02825 0
M  V30 5385 H 502.969 -3.60068 6.64746 0
M  V30 5386 H 504.237 -4.70761 6.21292 0
M  V30 5387 N 508.466 -1.55915 -0.229846 0
M  V30 5388 C 509.396 -1.94754 -1.28815 0
M  V30 5389 C 510.377 -0.814657 -1.49323 0
M  V30 5390 O 511.562 -1.07631 -1.61645 0
M  V30 5391 C 508.692 -2.25705 -2.63959 0
M  V30 5392 C 507.646 -3.41406 -2.5812 0
M  V30 5393 C 506.972 -3.57941 -3.97218 0
M  V30 5394 C 508.272 -4.76616 -2.13623 0
M  V30 5395 H 509.966 -2.83404 -0.965547 0
M  V30 5396 H 507.512 -1.36353 -0.463028 0
M  V30 5397 H 509.465 -2.51467 -3.38146 0
M  V30 5398 H 508.189 -1.339 -2.9789 0
M  V30 5399 H 506.848 -3.1568 -1.86391 0
M  V30 5400 H 506.496 -2.63526 -4.28443 0
M  V30 5401 H 506.196 -4.35757 -3.94195 0
M  V30 5402 H 507.72 -3.86042 -4.73079 0
M  V30 5403 H 509.134 -5.01637 -2.77549 0
M  V30 5404 H 507.531 -5.57655 -2.21677 0
M  V30 5405 H 508.601 -4.7253 -1.08829 0
M  V30 5406 N 509.944 0.496216 -1.49584 0
M  V30 5407 C 511.221 1.25755 -1.49816 0
M  V30 5408 C 511.601 2.09859 -0.228572 0
M  V30 5409 O 510.949 2.14449 0.788908 0
M  V30 5410 C 511.159 2.11017 -2.7798 0
M  V30 5411 C 512.507 2.70047 -3.27658 0
M  V30 5412 O 513.531 2.21281 -2.79129 0
M  V30 5413 O 512.39 3.58834 -4.1219 0
M  V30 5414 H 509.484 0.569322 -0.599834 0
M  V30 5415 H 512.03 0.510094 -1.61852 0
M  V30 5416 H 510.802 1.48879 -3.61871 0
M  V30 5417 H 510.425 2.92947 -2.68827 0
M  V30 5418 N 511.423 1.38739 0.74761 0
M  V30 5419 C 512.651 1.38521 1.53686 0
M  V30 5420 C 513.066 -0.0235129 1.88785 0
M  V30 5421 O 512.423 -0.991662 1.53207 0
M  V30 5422 C 512.474 2.24641 2.83229 0
M  V30 5423 O 512.195 3.60026 2.49625 0
M  V30 5424 C 513.696 2.32669 3.77333 0
M  V30 5425 H 510.916 0.473589 0.475347 0
M  V30 5426 H 513.46 1.82395 0.924786 0
M  V30 5427 H 511.615 1.84213 3.40799 0
M  V30 5428 H 512.029 4.05435 3.3275 0
M  V30 5429 H 513.503 2.97201 4.65162 0
M  V30 5430 H 513.98 1.3421 4.18192 0
M  V30 5431 H 514.586 2.73512 3.25685 0
M  V30 5432 N 512.901 -0.976442 1.23707 0
M  V30 5433 C 514.131 -1.75087 1.09673 0
M  V30 5434 C 514.539 -1.85852 -0.354344 0
M  V30 5435 O 513.882 -1.33985 -1.25673 0
M  V30 5436 C 513.944 -3.19272 1.65245 0
M  V30 5437 C 513.608 -3.32004 3.14042 0
M  V30 5438 C 514.605 -3.18017 4.11292 0
M  V30 5439 C 512.29 -3.56525 3.53829 0
M  V30 5440 C 514.284 -3.28363 5.46312 0
M  V30 5441 C 511.971 -3.6651 4.88993 0
M  V30 5442 C 512.969 -3.52439 5.85043 0
M  V30 5443 O 512.657 -3.62063 7.1775 0
M  V30 5444 H 512.389 -0.556164 0.384262 0
M  V30 5445 H 514.943 -1.23518 1.64111 0
M  V30 5446 H 513.173 -3.72107 1.05231 0
M  V30 5447 H 514.862 -3.7849 1.46629 0
M  V30 5448 H 515.628 -2.98966 3.81896 0
M  V30 5449 H 511.507 -3.66547 2.79579 0
M  V30 5450 H 515.051 -3.17297 6.21263 0
M  V30 5451 H 510.948 -3.85072 5.18063 0
M  V30 5452 H 511.716 -3.78833 7.25553 0
M  V30 5453 N 514.379 -1.04941 -1.1758 0
M  V30 5454 C 515.309 -0.669172 -2.23706 0
M  V30 5455 C 516.29 0.331835 -1.66832 0
M  V30 5456 O 517.475 0.209988 -1.93061 0
M  V30 5457 C 514.605 -0.0404889 -3.47276 0
M  V30 5458 C 513.559 -0.965983 -4.16957 0
M  V30 5459 C 512.885 -0.201312 -5.34321 0
M  V30 5460 C 514.185 -2.28902 -4.69469 0
M  V30 5461 H 515.879 -1.55639 -2.55767 0
M  V30 5462 H 513.425 -0.749793 -1.22939 0
M  V30 5463 H 515.378 0.237298 -4.20731 0
M  V30 5464 H 514.102 0.881658 -3.14475 0
M  V30 5465 H 512.761 -1.22829 -3.45411 0
M  V30 5466 H 512.409 0.723519 -4.97769 0
M  V30 5467 H 512.109 -0.817968 -5.81879 0
M  V30 5468 H 513.633 0.0692499 -6.10561 0
M  V30 5469 H 515.047 -2.07132 -5.34574 0
M  V30 5470 H 513.444 -2.85942 -5.27596 0
M  V30 5471 H 514.514 -2.92937 -3.86414 0
M  V30 5472 N 515.857 1.33968 -0.830081 0
M  V30 5473 C 516.789 2.28194 -0.21448 0
M  V30 5474 C 517.802 1.5135 0.599752 0
M  V30 5475 O 518.991 1.73286 0.42826 0
M  V30 5476 C 516.091 3.31221 0.717356 0
M  V30 5477 C 515.264 4.37365 -0.055613 0
M  V30 5478 C 514.323 5.2011 0.798231 0
M  V30 5479 O 513.349 5.68691 0.240616 0
M  V30 5480 N 514.551 5.40523 2.11695 0
M  V30 5481 H 517.316 2.81662 -1.02405 0
M  V30 5482 H 514.877 1.46568 -0.687713 0
M  V30 5483 H 516.869 3.83477 1.29334 0
M  V30 5484 H 515.439 2.78095 1.42765 0
M  V30 5485 H 514.659 3.85727 -0.812936 0
M  V30 5486 H 515.947 5.05397 -0.587444 0
M  V30 5487 H 515.345 5.0274 2.59363 0
M  V30 5488 H 513.902 5.95871 2.64162 0
M  V30 5489 O 517.374 0.726383 1.44243 0
M  V30 5490 H 518.065 0.275111 1.91736 0
M  V30 END ATOM
M  V30 BEGIN BOND
M  V30 END BOND
M  V30 END CTAB
M  END
$$$$
