drugbank_target|P47205 UDP-3-O-[3-hydroxymyristoyl] N-acetylglucosamine deacetylase (DB07861)
 OpenBabel12092120473D

  0  0  0     0  0            999 V3000
M  V30 BEGIN CTAB
M  V30 COUNTS 4718 4758 0 0 0
M  V30 BEGIN ATOM
M  V30 1 H -0.908 1.98254 -0.117106 0
M  V30 2 N 0 1.576 0 0
M  V30 3 C 0.933 2.03868 1.02534 0
M  V30 4 C 1.911 0.928543 1.3348 0
M  V30 5 O 3.095 1.19667 1.45644 0
M  V30 6 C 0.222 2.43627 2.35294 0
M  V30 7 C -0.732 3.65373 2.2001 0
M  V30 8 S 0.101 5.13292 1.52614 0
M  V30 9 C 1.257 5.56322 2.86805 0
M  V30 10 H 1.49 2.90518 0.631377 0
M  V30 11 H -0.977 1.52953 0.210867 0
M  V30 12 H 0.981 2.67203 3.11629 0
M  V30 13 H -0.358 1.57376 2.7183 0
M  V30 14 H -1.165 3.90944 3.18086 0
M  V30 15 H -1.563 3.418 1.51819 0
M  V30 16 H 0.729 5.58782 3.83104 0
M  V30 17 H 1.672 6.56266 2.65933 0
M  V30 18 H 2.08 4.83886 2.90714 0
M  V30 19 N 1.4781 -0.272755 1.55222 0
M  V30 20 C 2.7271 -1.00211 1.75045 0
M  V30 21 C 3.0401 -1.87441 0.559046 0
M  V30 22 O 4.2461 -2.63856 0.639698 0
M  V30 23 C 2.7021 -1.83165 3.09804 0
M  V30 24 C 2.3101 -1.008 4.36513 0
M  V30 25 C 4.0541 -2.55529 3.38977 0
M  V30 26 C 1.9611 -1.83194 5.62311 0
M  V30 27 H 0.8911 -0.377878 0.652476 0
M  V30 28 H 3.5421 -0.257776 1.8168 0
M  V30 29 H 1.9241 -2.61694 2.97207 0
M  V30 30 H 3.0981 -0.266855 4.60027 0
M  V30 31 H 1.4131 -0.398897 4.14485 0
M  V30 32 H 4.0101 -3.17578 4.30172 0
M  V30 33 H 4.3531 -3.25825 2.59121 0
M  V30 34 H 4.8861 -1.84029 3.52673 0
M  V30 35 H 1.6251 -1.17318 6.44916 0
M  V30 36 H 1.1451 -2.54905 5.4294 0
M  V30 37 H 2.8241 -2.40552 6.00619 0
M  V30 38 N 2.9562 -1.48159 -0.537278 0
M  V30 39 C 3.9032 -1.62138 -1.64256 0
M  V30 40 C 4.8732 -0.463668 -1.59497 0
M  V30 41 O 6.0582 -0.686241 -1.78032 0
M  V30 42 C 3.1982 -1.66028 -3.02537 0
M  V30 43 C 2.3112 -2.92855 -3.17585 0
M  V30 44 C 1.4462 -2.87952 -4.46382 0
M  V30 45 C 0.4852 -4.09516 -4.54932 0
M  V30 46 N -0.3778 -4.02733 -5.75109 0
M  V30 47 H 4.4622 -2.56529 -1.51647 0
M  V30 48 H 1.9992 -1.27224 -0.738414 0
M  V30 49 H 3.9572 -1.66265 -3.82638 0
M  V30 50 H 2.5872 -0.751331 -3.13934 0
M  V30 51 H 1.6392 -3.02395 -2.30784 0
M  V30 52 H 2.9512 -3.82822 -3.19764 0
M  V30 53 H 2.1052 -2.8655 -5.34765 0
M  V30 54 H 0.8442 -1.95702 -4.46712 0
M  V30 55 H -0.1508 -4.11201 -3.64957 0
M  V30 56 H 1.0742 -5.02917 -4.56346 0
M  V30 57 H -0.9798 -3.13299 -5.76351 0
M  V30 58 H -1.0628 -4.86397 -5.78752 0
M  V30 59 H 0.2052 -4.05379 -6.65799 0
M  V30 60 N 4.4343 0.785586 -1.36625 0
M  V30 61 C 5.3663 1.90711 -1.2713 0
M  V30 62 C 6.3793 1.61688 -0.189986 0
M  V30 63 O 7.5683 1.72864 -0.445014 0
M  V30 64 C 4.6683 3.25611 -0.939713 0
M  V30 65 C 3.8413 3.82385 -2.12369 0
M  V30 66 C 2.9003 4.95732 -1.76456 0
M  V30 67 O 1.9263 5.12047 -2.48589 0
M  V30 68 N 3.1283 5.76258 -0.700492 0
M  V30 69 H 5.8933 1.99376 -2.23762 0
M  V30 70 H 3.4543 0.964041 -1.30069 0
M  V30 71 H 5.4463 3.98937 -0.680554 0
M  V30 72 H 4.0163 3.12538 -0.0624074 0
M  V30 73 H 3.2363 3.01001 -2.54543 0
M  V30 74 H 4.5243 4.17047 -2.9146 0
M  V30 75 H 3.9223 5.65609 -0.101624 0
M  V30 76 H 2.4793 6.4987 -0.501165 0
M  V30 77 N 5.9124 1.20967 1.01018 0
M  V30 78 C 7.3284 0.965905 1.27053 0
M  V30 79 C 7.5284 -0.350785 1.98423 0
M  V30 80 O 6.5844 -1.07773 2.28344 0
M  V30 81 C 7.8974 2.15294 2.09926 0
M  V30 82 C 9.4454 2.19463 2.23171 0
M  V30 83 C 9.9204 3.3767 3.09424 0
M  V30 84 N 11.4114 3.37724 3.17012 0
M  V30 85 C 12.1464 4.25837 3.83993 0
M  V30 86 N 11.6424 5.24138 4.53047 0
M  V30 87 N 13.4354 4.1366 3.80581 0
M  V30 88 H 5.5864 2.0565 0.531194 0
M  V30 89 H 7.8494 0.90024 0.297106 0
M  V30 90 H 7.5554 3.10684 1.64828 0
M  V30 91 H 7.4294 2.13923 3.10672 0
M  V30 92 H 9.8164 1.24632 2.6749 0
M  V30 93 H 9.8974 2.2488 1.21912 0
M  V30 94 H 9.5414 4.32791 2.65808 0
M  V30 95 H 9.4714 3.29491 4.10784 0
M  V30 96 H 11.9624 2.6658 2.6785 0
M  V30 97 H 12.2754 5.87684 5.01844 0
M  V30 98 H 10.6204 5.28068 4.5185 0
M  V30 99 H 13.8114 3.36127 3.25785 0
M  V30 100 H 13.9844 4.82538 4.32505 0
M  V30 101 N 7.3905 -1.2043 1.01659 0
M  V30 102 C 8.6185 -1.93777 0.725132 0
M  V30 103 C 9.0335 -1.74772 -0.714166 0
M  V30 104 O 8.3905 -1.06169 -1.4844 0
M  V30 105 C 8.4415 -3.45876 1.05129 0
M  V30 106 O 8.1625 -3.6426 2.43406 0
M  V30 107 C 9.6635 -4.36368 0.780891 0
M  V30 108 H 6.8835 -0.615901 0.266284 0
M  V30 109 H 9.4275 -1.52922 1.35776 0
M  V30 110 H 7.5825 -3.8461 0.464065 0
M  V30 111 H 7.9965 -4.58246 2.55169 0
M  V30 112 H 9.4705 -5.41743 1.05918 0
M  V30 113 H 9.9475 -4.38275 -0.284937 0
M  V30 114 H 10.5535 -4.03296 1.35027 0
M  V30 115 N 8.8686 -0.792821 -1.36206 0
M  V30 116 C 9.7986 -0.207853 -2.32573 0
M  V30 117 C 10.7796 0.659055 -1.56813 0
M  V30 118 O 11.9646 0.592176 -1.84951 0
M  V30 119 C 9.0946 0.655449 -3.41059 0
M  V30 120 C 8.0486 -0.111842 -4.27854 0
M  V30 121 C 7.3746 0.872274 -5.27537 0
M  V30 122 C 8.6746 -1.30299 -5.05786 0
M  V30 123 H 10.3686 -1.01294 -2.81744 0
M  V30 124 H 7.9146 -0.48854 -1.3546 0
M  V30 125 H 9.8676 1.07464 -4.07467 0
M  V30 126 H 8.5916 1.49328 -2.90463 0
M  V30 127 H 7.2506 -0.512053 -3.63006 0
M  V30 128 H 6.8986 1.70523 -4.73214 0
M  V30 129 H 6.5986 0.363291 -5.86476 0
M  V30 130 H 8.1226 1.28996 -5.96818 0
M  V30 131 H 9.5366 -0.959379 -5.65216 0
M  V30 132 H 7.9336 -1.7455 -5.74154 0
M  V30 133 H 9.0036 -2.09663 -4.37229 0
M  V30 134 N 10.3467 1.47872 -0.545128 0
M  V30 135 C 11.2937 2.29849 0.2093 0
M  V30 136 C 12.2637 1.38313 0.919707 0
M  V30 137 O 13.4487 1.67277 0.917772 0
M  V30 138 C 10.5887 3.22019 1.24088 0
M  V30 139 C 9.7017 4.2864 0.537778 0
M  V30 140 C 8.8367 5.07973 1.5536 0
M  V30 141 C 7.8757 6.06381 0.8348 0
M  V30 142 N 7.0127 6.78717 1.79688 0
M  V30 143 H 11.8527 2.93845 -0.49591 0
M  V30 144 H 9.3897 1.44848 -0.256389 0
M  V30 145 H 11.3477 3.73868 1.85144 0
M  V30 146 H 9.9777 2.59914 1.91428 0
M  V30 147 H 9.0297 3.7994 -0.187046 0
M  V30 148 H 10.3417 4.98793 -0.0258907 0
M  V30 149 H 9.4957 5.63912 2.23803 0
M  V30 150 H 8.2347 4.37693 2.15118 0
M  V30 151 H 7.2397 5.49631 0.136388 0
M  V30 152 H 8.4647 6.78665 0.24313 0
M  V30 153 H 6.4107 6.11177 2.38326 0
M  V30 154 H 6.3277 7.44998 1.28505 0
M  V30 155 H 7.5957 7.39237 2.47282 0
M  V30 156 N 11.8248 0.280983 1.55075 0
M  V30 157 C 12.7728 -0.619864 2.24188 0
M  V30 158 C 13.7668 -1.15315 1.24092 0
M  V30 159 O 14.9728 -1.1061 1.42005 0
M  V30 160 H 11.3478 -0.218459 0.719569 0
M  V30 161 H 13.3188 -0.0141831 2.98397 0
M  V30 162 C 12.0678 -1.7899 2.98091 0
M  V30 163 H 11.3908 -1.38874 3.74905 0
M  V30 164 H 12.8308 -2.39672 3.49762 0
M  V30 165 C 11.2898 -2.68192 2.03899 0
M  V30 166 O 11.8198 -3.6872 1.594 0
M  V30 167 N 10.0258 -2.35488 1.70275 0
M  V30 168 H 9.5728 -1.53787 2.06658 0
M  V30 169 H 9.5308 -2.95442 1.07524 0
M  V30 170 N 13.3029 -1.57598 0.00835791 0
M  V30 171 C 14.5519 -1.90107 -0.673968 0
M  V30 172 C 14.8649 -0.884275 -1.7447 0
M  V30 173 O 16.0709 -1.09987 -2.48224 0
M  V30 174 C 14.5269 -3.37497 -1.24995 0
M  V30 175 C 14.1349 -4.47491 -0.2136 0
M  V30 176 C 15.8789 -3.79104 -1.90999 0
M  V30 177 C 13.7859 -5.85963 -0.80005 0
M  V30 178 H 12.7159 -0.709393 -0.255495 0
M  V30 179 H 15.3669 -1.83365 0.0702693 0
M  V30 180 H 13.7489 -3.39102 -2.04513 0
M  V30 181 H 14.9229 -4.57414 0.557596 0
M  V30 182 H 13.2379 -4.14956 0.346474 0
M  V30 183 H 15.8349 -4.79901 -2.35795 0
M  V30 184 H 16.1779 -3.1306 -2.74407 0
M  V30 185 H 16.7109 -3.79833 -1.18203 0
M  V30 186 H 13.4499 -6.555 -0.00456708 0
M  V30 187 H 12.9699 -5.79687 -1.54021 0
M  V30 188 H 14.6489 -6.33884 -1.29615 0
M  V30 189 N 14.781 0.264519 -1.55364 0
M  V30 190 C 16.03 0.992812 -1.75574 0
M  V30 191 C 16.343 1.87142 -0.568979 0
M  V30 192 O 17.549 2.63513 -0.653682 0
M  V30 193 C 16.005 1.81519 -3.10771 0
M  V30 194 C 15.613 0.984839 -4.37041 0
M  V30 195 C 17.357 2.53727 -3.40327 0
M  V30 196 C 15.264 1.80209 -5.63275 0
M  V30 197 H 14.194 0.374412 -0.65447 0
M  V30 198 H 16.845 0.248138 -1.81815 0
M  V30 199 H 15.227 2.60115 -2.98591 0
M  V30 200 H 16.401 0.242455 -4.60162 0
M  V30 201 H 14.716 0.37691 -4.14691 0
M  V30 202 H 17.313 3.15292 -4.3185 0
M  V30 203 H 17.656 3.24447 -2.60845 0
M  V30 204 H 18.189 1.82156 -3.53644 0
M  V30 205 H 14.928 1.13896 -6.45529 0
M  V30 206 H 14.448 2.52022 -5.44284 0
M  V30 207 H 16.127 2.37364 -6.01887 0
M  V30 208 N 16.2591 1.48442 0.529413 0
M  V30 209 C 17.6751 1.34575 0.858004 0
M  V30 210 C 17.8751 0.3572 1.98309 0
M  V30 211 O 16.9311 -0.221379 2.51528 0
M  V30 212 C 18.2441 2.74617 1.22499 0
M  V30 213 C 19.7921 2.83109 1.33484 0
M  V30 214 C 20.2671 4.23854 1.73526 0
M  V30 215 N 21.7581 4.2653 1.80628 0
M  V30 216 C 22.4931 5.32372 2.12997 0
M  V30 217 N 21.9891 6.48491 2.43786 0
M  V30 218 N 23.7821 5.19766 2.14008 0
M  V30 219 H 15.9331 2.1133 -0.212925 0
M  V30 220 H 18.1961 0.947439 -0.0326199 0
M  V30 221 H 17.9021 3.4852 0.471905 0
M  V30 222 H 17.7761 3.08177 2.17501 0
M  V30 223 H 20.1631 2.09462 2.0787 0
M  V30 224 H 20.2441 2.53168 0.366027 0
M  V30 225 H 19.8881 4.98018 0.997013 0
M  V30 226 H 19.8181 4.5124 2.71459 0
M  V30 227 H 22.3091 3.42772 1.59108 0
M  V30 228 H 22.6221 7.24993 2.67592 0
M  V30 229 H 20.9671 6.51765 2.41304 0
M  V30 230 H 24.1581 4.28066 1.89412 0
M  V30 231 H 24.3311 6.02354 2.38902 0
M  V30 232 N 17.7372 -0.778329 1.37039 0
M  V30 233 C 18.7002 -1.87301 1.32102 0
M  V30 234 C 19.7002 -1.59198 0.226405 0
M  V30 235 O 20.8902 -1.67403 0.481861 0
M  V30 236 C 18.0222 -3.24309 1.05055 0
M  V30 237 H 19.2152 -1.93093 2.29467 0
M  V30 238 H 16.7682 -0.977358 1.21973 0
M  V30 239 H 17.5032 -3.24196 0.0819373 0
M  V30 240 H 17.2882 -3.46098 1.84279 0
M  V30 241 H 18.7782 -4.04382 1.04234 0
M  V30 242 N 19.2153 -1.21501 -1.00376 0
M  V30 243 C 20.4433 -1.059 -1.77744 0
M  V30 244 C 20.8583 0.391125 -1.84704 0
M  V30 245 O 20.2153 1.27133 -1.30933 0
M  V30 246 C 20.2663 -1.65111 -3.21591 0
M  V30 247 O 19.9873 -3.0445 -3.15027 0
M  V30 248 C 21.4883 -1.54637 -4.15454 0
M  V30 249 H 18.7083 -0.371825 -0.558558 0
M  V30 250 H 21.2523 -1.60865 -1.26264 0
M  V30 251 H 19.4073 -1.14235 -3.70175 0
M  V30 252 H 19.8213 -3.3278 -4.0541 0
M  V30 253 H 21.2953 -2.00808 -5.14179 0
M  V30 254 H 21.7723 -0.501022 -4.36333 0
M  V30 255 H 22.3783 -2.04767 -3.72761 0
M  V30 256 N 20.6934 1.19889 -1.02296 0
M  V30 257 C 21.9414 1.89046 -0.714558 0
M  V30 258 C 22.2624 1.79636 0.758681 0
M  V30 259 O 21.5324 1.20292 1.54618 0
M  V30 260 H 20.1124 0.699802 -0.261317 0
M  V30 261 H 22.7744 1.45574 -1.29592 0
M  V30 262 H 21.8704 2.95524 -1.0036 0
M  V30 263 N 22.1715 0.800033 1.35784 0
M  V30 264 C 23.4175 0.377901 1.99248 0
M  V30 265 C 23.7505 -1.05052 1.63333 0
M  V30 266 O 23.0255 -1.72768 0.893385 0
M  V30 267 C 23.3085 0.553922 3.55814 0
M  V30 268 C 23.1615 2.0268 4.01548 0
M  V30 269 C 24.4805 -0.0244802 4.40093 0
M  V30 270 H 21.5995 0.138782 0.723815 0
M  V30 271 H 24.2415 1.00835 1.61035 0
M  V30 272 H 22.3915 0.0172398 3.88496 0
M  V30 273 H 24.0635 2.62536 3.79305 0
M  V30 274 H 22.3065 2.5256 3.52698 0
M  V30 275 H 22.9775 2.10087 5.10458 0
M  V30 276 H 25.4535 0.433775 4.13833 0
M  V30 277 H 24.3295 0.128637 5.48749 0
M  V30 278 H 24.5905 -1.11758 4.27741 0
M  V30 279 N 23.6496 -1.47581 0.552962 0
M  V30 280 C 24.8976 -2.02082 0.0272703 0
M  V30 281 C 25.2186 -1.4301 -1.32563 0
M  V30 282 O 24.4886 -0.603745 -1.86365 0
M  V30 283 H 23.0686 -0.746966 0.00709182 0
M  V30 284 H 25.7306 -1.81033 0.722008 0
M  V30 285 H 24.8266 -3.12034 -0.0639951 0
M  V30 286 N 25.1277 -0.289203 -1.54924 0
M  V30 287 C 26.0577 0.58549 -2.2604 0
M  V30 288 C 27.0387 1.14753 -1.25562 0
M  V30 289 O 28.2237 1.17906 -1.54311 0
M  V30 290 C 25.3537 1.76305 -2.99222 0
M  V30 291 C 24.3077 1.33191 -4.06748 0
M  V30 292 C 23.6337 2.5937 -4.6758 0
M  V30 293 C 24.9337 0.471775 -5.20165 0
M  V30 294 H 26.6277 -0.00763532 -2.99399 0
M  V30 295 H 24.1737 -0.00511229 -1.43999 0
M  V30 296 H 26.1267 2.38097 -3.47689 0
M  V30 297 H 24.8507 2.38223 -2.23422 0
M  V30 298 H 23.5097 0.737121 -3.59113 0
M  V30 299 H 23.1577 3.19576 -3.88433 0
M  V30 300 H 22.8577 2.31228 -5.40192 0
M  V30 301 H 24.3817 3.21985 -5.18804 0
M  V30 302 H 25.7957 0.995056 -5.64599 0
M  V30 303 H 24.1927 0.284639 -5.99425 0
M  V30 304 H 25.2627 -0.506041 -4.82252 0
M  V30 305 N 26.6058 1.57591 -0.0167156 0
M  V30 306 C 27.5558 2.05953 0.978137 0
M  V30 307 C 28.5398 0.957532 1.29306 0
M  V30 308 O 29.7318 1.22119 1.28125 0
M  V30 309 C 26.8608 2.58006 2.26468 0
M  V30 310 C 25.9468 3.75113 1.97867 0
M  V30 311 N 26.3378 4.86187 1.39486 0
M  V30 312 C 24.6358 3.83363 2.27924 0
M  V30 313 C 25.3368 5.67502 1.27735 0
M  V30 314 N 24.3128 5.14023 1.76866 0
M  V30 315 H 28.1148 2.89236 0.521522 0
M  V30 316 H 25.6288 1.61301 0.188596 0
M  V30 317 H 27.6258 2.90937 2.98599 0
M  V30 318 H 26.2858 1.76148 2.72767 0
M  V30 319 H 27.2968 5.06695 1.07147 0
M  V30 320 H 23.9738 3.1239 2.76982 0
M  V30 321 H 25.3638 6.66791 0.826978 0
M  V30 322 N 28.0839 -0.256276 1.55502 0
M  V30 323 C 29.3089 -1.00766 1.81276 0
M  V30 324 C 29.7339 -1.78524 0.59252 0
M  V30 325 O 29.0919 -1.75413 -0.45827 0
M  V30 326 C 29.1399 -1.92869 3.04687 0
M  V30 327 O 28.2439 -3.019 2.80945 0
M  V30 328 H 27.5849 -0.287224 0.598664 0
M  V30 329 H 30.1149 -0.280109 2.02674 0
M  V30 330 H 30.1249 -2.34511 3.33869 0
M  V30 331 H 28.7999 -1.35689 3.93143 0
M  V30 332 H 27.3769 -2.64454 2.62904 0
M  V30 333 N 29.562 -1.4872 -0.521534 0
M  V30 334 C 30.81 -1.56857 -1.27437 0
M  V30 335 C 31.131 -0.247982 -1.93417 0
M  V30 336 O 30.401 0.731151 -1.81744 0
M  V30 337 H 28.981 -0.577885 -0.473347 0
M  V30 338 H 31.643 -1.85233 -0.606205 0
M  V30 339 H 30.739 -2.35402 -2.0492 0
M  V30 340 N 31.0401 0.771051 -1.3745 0
M  V30 341 C 31.9501 1.91538 -1.35464 0
M  V30 342 C 32.9661 1.72134 -0.254123 0
M  V30 343 O 34.1421 1.95358 -0.489626 0
M  V30 344 C 31.2071 3.26671 -1.16134 0
M  V30 345 C 30.2681 3.58723 -2.35831 0
M  V30 346 C 29.5011 4.87409 -2.17413 0
M  V30 347 O 29.7241 5.58506 -1.15876 0
M  V30 348 O 28.6581 5.18539 -3.05615 0
M  V30 349 H 32.4841 1.96165 -2.31847 0
M  V30 350 H 30.0691 0.9139 -1.18187 0
M  V30 351 H 31.9511 4.07499 -1.07345 0
M  V30 352 H 30.6261 3.22894 -0.228251 0
M  V30 353 H 29.5331 2.78127 -2.50192 0
M  V30 354 H 30.8661 3.67243 -3.27709 0
M  V30 355 N 32.5182 1.22032 0.997298 0
M  V30 356 C 33.4652 0.986467 2.08656 0
M  V30 357 C 34.4352 -0.0902671 1.65855 0
M  V30 358 O 35.6202 0.0584294 1.90711 0
M  V30 359 C 32.7602 0.565569 3.40434 0
M  V30 360 C 31.8732 1.71259 3.96604 0
M  V30 361 C 31.0082 1.24011 5.16522 0
M  V30 362 C 30.0472 2.35896 5.64818 0
M  V30 363 N 29.1842 1.89726 6.7598 0
M  V30 364 H 34.0242 1.91892 2.27994 0
M  V30 365 H 31.5612 0.956199 1.11782 0
M  V30 366 H 33.5192 0.302738 4.161 0
M  V30 367 H 32.1492 -0.329879 3.2111 0
M  V30 368 H 31.2012 2.08986 3.17851 0
M  V30 369 H 32.5132 2.55436 4.28432 0
M  V30 370 H 31.6672 0.934395 5.99461 0
M  V30 371 H 30.4062 0.368487 4.86306 0
M  V30 372 H 29.4112 2.67261 4.8047 0
M  V30 373 H 30.6362 3.23567 5.97061 0
M  V30 374 H 28.5822 1.0492 6.47555 0
M  V30 375 H 28.4992 2.67471 7.07103 0
M  V30 376 H 29.7672 1.62211 7.62435 0
M  V30 377 N 33.9963 -1.19345 1.0293 0
M  V30 378 C 35.2423 -1.89318 0.727083 0
M  V30 379 C 35.5753 -1.79446 -0.742483 0
M  V30 380 O 34.8503 -1.1871 -1.54072 0
M  V30 381 C 35.1333 -3.40238 1.17942 0
M  V30 382 C 34.9863 -3.58979 2.71024 0
M  V30 383 C 36.3053 -4.33479 0.760548 0
M  V30 384 H 33.4243 -0.687475 0.265606 0
M  V30 385 H 36.0663 -1.40477 1.2793 0
M  V30 386 H 34.2163 -3.81964 0.709608 0
M  V30 387 H 35.8883 -3.26421 3.25955 0
M  V30 388 H 34.1313 -3.02018 3.11396 0
M  V30 389 H 34.8023 -4.64823 2.9773 0
M  V30 390 H 37.2783 -3.99469 1.16464 0
M  V30 391 H 36.1543 -5.37664 1.10493 0
M  V30 392 H 36.4153 -4.40813 -0.337063 0
M  V30 393 N 35.4744 -0.807222 -1.35358 0
M  V30 394 C 36.7044 -0.399796 -2.02695 0
M  V30 395 C 37.1124 0.994176 -1.60974 0
M  V30 396 O 36.4554 1.65209 -0.803226 0
M  V30 397 C 36.5174 -0.404445 -3.57218 0
M  V30 398 C 36.1814 -1.74904 -4.22206 0
M  V30 399 C 37.1784 -2.70743 -4.4384 0
M  V30 400 C 34.8634 -2.03322 -4.5931 0
M  V30 401 C 36.8574 -3.93183 -5.01683 0
M  V30 402 C 34.5444 -3.26026 -5.16866 0
M  V30 403 C 35.5424 -4.20774 -5.37994 0
M  V30 404 O 35.2304 -5.41312 -5.94337 0
M  V30 405 H 34.9624 -0.160517 -0.656666 0
M  V30 406 H 37.5164 -1.09235 -1.73945 0
M  V30 407 H 35.7464 0.344707 -3.85161 0
M  V30 408 H 37.4354 -0.0192429 -4.05895 0
M  V30 409 H 38.2014 -2.5008 -4.15554 0
M  V30 410 H 34.0804 -1.30384 -4.42178 0
M  V30 411 H 37.6244 -4.6715 -5.1809 0
M  V30 412 H 33.5214 -3.46559 -5.44579 0
M  V30 413 H 34.2894 -5.42618 -6.12787 0
M  V30 414 N 36.9525 1.47285 -0.560781 0
M  V30 415 C 37.8825 2.32857 0.173105 0
M  V30 416 C 38.8635 1.44009 0.905281 0
M  V30 417 O 40.0485 1.7286 0.885046 0
M  V30 418 C 37.1785 3.25861 1.20133 0
M  V30 419 C 36.1325 4.23978 0.585388 0
M  V30 420 C 35.4585 5.06332 1.7185 0
M  V30 421 C 36.7585 5.20242 -0.463178 0
M  V30 422 H 38.4525 2.94466 -0.541307 0
M  V30 423 H 35.9985 1.41601 -0.261764 0
M  V30 424 H 37.9515 3.84569 1.72293 0
M  V30 425 H 36.6755 2.62315 1.94573 0
M  V30 426 H 35.3345 3.66501 0.085054 0
M  V30 427 H 34.9825 4.39186 2.45203 0
M  V30 428 H 34.6825 5.72762 1.31213 0
M  V30 429 H 36.2065 5.67899 2.24329 0
M  V30 430 H 37.6205 5.73293 -0.027502 0
M  V30 431 H 36.0175 5.94896 -0.788627 0
M  V30 432 H 37.0875 4.65504 -1.35773 0
M  V30 433 N 38.4306 0.297415 1.54768 0
M  V30 434 C 39.6586 -0.315623 2.04478 0
M  V30 435 C 40.0736 -1.47792 1.17486 0
M  V30 436 O 39.4306 -1.81404 0.19971 0
M  V30 437 C 39.4816 -0.7753 3.53088 0
M  V30 438 O 39.2026 0.340732 4.36773 0
M  V30 439 C 40.7036 -1.45386 4.18781 0
M  V30 440 H 37.9236 -0.0690887 0.667434 0
M  V30 441 H 40.4676 0.436003 1.99798 0
M  V30 442 H 38.6226 -1.47696 3.58141 0
M  V30 443 H 39.0366 -0.0165035 5.24497 0
M  V30 444 H 40.5106 -1.72669 5.24299 0
M  V30 445 H 40.9876 -2.39275 3.68299 0
M  V30 446 H 41.5936 -0.795475 4.17795 0
M  V30 447 N 39.9087 -1.5758 0.0250728 0
M  V30 448 C 40.8387 -2.13007 -0.956575 0
M  V30 449 C 41.8197 -1.0452 -1.342 0
M  V30 450 O 43.0047 -1.32332 -1.42133 0
M  V30 451 C 40.1347 -2.65386 -2.24026 0
M  V30 452 C 39.0887 -3.78623 -1.99571 0
M  V30 453 C 38.4147 -4.17414 -3.3417 0
M  V30 454 C 39.7147 -5.04867 -1.33814 0
M  V30 455 H 41.4087 -2.9528 -0.494991 0
M  V30 456 H 38.9547 -1.42042 -0.236651 0
M  V30 457 H 40.9077 -3.02794 -2.93076 0
M  V30 458 H 39.6317 -1.80268 -2.72343 0
M  V30 459 H 38.2907 -3.41646 -1.32941 0
M  V30 460 H 37.9387 -3.29284 -3.80238 0
M  V30 461 H 37.6387 -4.93719 -3.18615 0
M  V30 462 H 39.1627 -4.57402 -4.04495 0
M  V30 463 H 40.5767 -5.39888 -1.92857 0
M  V30 464 H 38.9737 -5.86144 -1.28669 0
M  V30 465 H 40.0437 -4.83904 -0.310561 0
M  V30 466 N 41.3868 0.248026 -1.55636 0
M  V30 467 C 42.3338 1.30707 -1.90222 0
M  V30 468 C 43.3038 1.47881 -0.756332 0
M  V30 469 O 44.4888 1.61883 -1.00988 0
M  V30 470 C 41.6288 2.65769 -2.20138 0
M  V30 471 C 40.7418 2.56612 -3.47526 0
M  V30 472 C 39.8768 3.8402 -3.67017 0
M  V30 473 C 38.9158 3.69476 -4.8801 0
M  V30 474 N 38.0528 4.88774 -5.04029 0
M  V30 475 H 42.8928 1.00512 -2.80538 0
M  V30 476 H 40.4298 0.485055 -1.38873 0
M  V30 477 H 42.3878 3.44386 -2.35487 0
M  V30 478 H 41.0178 2.94115 -1.33027 0
M  V30 479 H 40.0698 1.69571 -3.40514 0
M  V30 480 H 41.3818 2.41774 -4.36287 0
M  V30 481 H 40.5358 4.7108 -3.8232 0
M  V30 482 H 39.2748 4.01754 -2.76487 0
M  V30 483 H 38.2798 2.80799 -4.72686 0
M  V30 484 H 39.5048 3.53238 -5.8 0
M  V30 485 H 37.4508 5.0687 -4.16435 0
M  V30 486 H 37.3678 4.76562 -5.86877 0
M  V30 487 H 38.6358 5.77335 -5.23741 0
M  V30 488 N 42.8649 1.48995 0.513639 0
M  V30 489 C 44.2759 1.5119 1.09537 0
M  V30 490 C 44.6269 0.290906 1.94031 0
M  V30 491 O 43.7519 -0.60049 2.07902 0
M  V30 492 C 44.3469 2.73964 1.99322 0
M  V30 493 C 42.9059 2.78978 2.52682 0
M  V30 494 C 42.0529 2.44934 1.30009 0
M  V30 495 H 45.0039 1.55875 0.298125 0
M  V30 496 H 45.0249 2.53409 2.83838 0
M  V30 497 H 44.5369 3.62813 1.37799 0
M  V30 498 H 42.6379 1.94378 3.1788 0
M  V30 499 H 42.7509 3.8083 2.90698 0
M  V30 500 H 41.1149 1.9644 1.62122 0
M  V30 501 H 41.8979 3.36043 0.702131 0
M  V30 502 N 44.343 -0.763751 1.37857 0
M  V30 503 C 45.306 -1.85889 1.34081 0
M  V30 504 C 46.306 -1.58949 0.243277 0
M  V30 505 O 47.496 -1.66882 0.499589 0
M  V30 506 C 44.628 -3.23176 1.08489 0
M  V30 507 H 45.821 -1.90648 2.31502 0
M  V30 508 H 43.374 -0.964367 1.23003 0
M  V30 509 H 44.109 -3.24091 0.116318 0
M  V30 510 H 43.894 -3.44124 1.8794 0
M  V30 511 H 45.384 -4.03254 1.08517 0
M  V30 512 N 45.8211 -1.22559 -0.990812 0
M  V30 513 C 47.2321 -1.04791 -1.54518 0
M  V30 514 C 47.5831 0.387998 -1.92325 0
M  V30 515 O 46.7081 1.27328 -1.74976 0
M  V30 516 C 47.3031 -1.896 -2.80779 0
M  V30 517 C 45.8621 -1.76124 -3.32652 0
M  V30 518 C 45.0091 -1.8594 -2.05722 0
M  V30 519 H 47.9601 -1.36374 -0.811662 0
M  V30 520 H 47.9811 -1.41464 -3.53225 0
M  V30 521 H 47.4931 -2.94101 -2.53231 0
M  V30 522 H 45.5941 -0.743643 -3.65104 0
M  V30 523 H 45.7071 -2.58913 -4.03114 0
M  V30 524 H 44.0711 -1.29403 -2.19379 0
M  V30 525 H 44.8541 -2.91976 -1.80568 0
M  V30 526 N 47.2992 1.18797 -1.03562 0
M  V30 527 C 48.5452 1.8893 -0.737113 0
M  V30 528 C 48.8782 1.79837 0.732956 0
M  V30 529 O 48.1532 1.19525 1.5344 0
M  V30 530 C 48.4362 3.39607 -1.19745 0
M  V30 531 C 48.2892 3.57537 -2.72924 0
M  V30 532 C 49.6082 4.33069 -0.783526 0
M  V30 533 H 46.7272 0.686057 -0.269249 0
M  V30 534 H 49.3692 1.39797 -1.28673 0
M  V30 535 H 47.5192 3.81583 -0.729855 0
M  V30 536 H 49.1912 3.24688 -3.27682 0
M  V30 537 H 47.4342 3.00363 -3.12993 0
M  V30 538 H 48.1052 4.63238 -3.00191 0
M  V30 539 H 50.5812 3.98846 -1.18581 0
M  V30 540 H 49.4572 5.3707 -1.13343 0
M  V30 541 H 49.7182 4.40986 0.313681 0
M  V30 542 N 48.7773 0.814389 1.34928 0
M  V30 543 C 50.0543 0.321363 1.92942 0
M  V30 544 C 50.4343 -1.19014 1.74353 0
M  V30 545 O 49.7823 -1.99328 1.11716 0
M  V30 546 C 49.9923 0.741323 3.41036 0
M  V30 547 C 51.3403 0.735266 4.18185 0
M  V30 548 O 52.3643 0.68336 3.49584 0
M  V30 549 O 51.2233 0.800703 5.40602 0
M  V30 550 H 48.3173 0.0858893 0.822528 0
M  V30 551 H 50.8633 0.898609 1.43955 0
M  V30 552 H 49.6353 1.78276 3.4833 0
M  V30 553 H 49.2583 0.139307 3.97356 0
M  V30 554 N 50.2554 -1.46986 0.568584 0
M  V30 555 C 51.4834 -2.0683 0.0539956 0
M  V30 556 C 51.8984 -1.41953 -1.24478 0
M  V30 557 O 51.2554 -0.519933 -1.74937 0
M  V30 558 C 51.3064 -3.61254 -0.133362 0
M  V30 559 O 51.0274 -4.237 1.11399 0
M  V30 560 C 52.5284 -4.37992 -0.683927 0
M  V30 561 H 49.7484 -0.669058 0.0510141 0
M  V30 562 H 52.2924 -1.88824 0.785234 0
M  V30 563 H 50.4474 -3.78735 -0.81477 0
M  V30 564 H 50.8614 -5.16388 0.91888 0
M  V30 565 H 52.3354 -5.46684 -0.764263 0
M  V30 566 H 52.8124 -4.05058 -1.69778 0
M  V30 567 H 53.4184 -4.25283 -0.0378494 0
M  V30 568 N 51.7335 -0.305618 -1.54608 0
M  V30 569 C 52.9815 0.301701 -1.99835 0
M  V30 570 C 53.3025 1.54054 -1.19551 0
M  V30 571 O 52.5725 1.93702 -0.292658 0
M  V30 572 H 51.1525 0.114468 -0.738178 0
M  V30 573 H 53.8145 -0.418016 -1.90364 0
M  V30 574 H 52.9105 0.570548 -3.06841 0
M  V30 575 N 53.2116 1.57565 -0.0334293 0
M  V30 576 C 54.4606 1.91155 0.643639 0
M  V30 577 C 54.7736 0.91192 1.73042 0
M  V30 578 O 55.9796 1.13923 2.46442 0
M  V30 579 C 54.4356 3.39443 1.1961 0
M  V30 580 C 54.0436 4.47774 0.142381 0
M  V30 581 C 55.7876 3.82094 1.84944 0
M  V30 582 C 53.6946 5.87162 0.706727 0
M  V30 583 H 52.6246 0.713368 0.244176 0
M  V30 584 H 55.2756 1.8323 -0.0994323 0
M  V30 585 H 53.6576 3.42313 1.99092 0
M  V30 586 H 54.8316 4.56469 -0.630296 0
M  V30 587 H 53.1466 4.14352 -0.412446 0
M  V30 588 H 55.7436 4.83591 2.2813 0
M  V30 589 H 56.0866 3.17386 2.69392 0
M  V30 590 H 56.6196 3.81665 1.12145 0
M  V30 591 H 53.3586 6.55424 -0.0997178 0
M  V30 592 H 52.8786 5.82064 1.44779 0
M  V30 593 H 54.5576 6.35866 1.19514 0
M  V30 594 N 54.6897 -0.239769 1.55765 0
M  V30 595 C 55.9357 -0.968234 1.78194 0
M  V30 596 C 56.2687 -1.84701 0.599938 0
M  V30 597 O 55.5437 -1.9031 -0.401524 0
M  V30 598 C 55.8267 -1.8227 3.10564 0
M  V30 599 C 55.6797 -0.971633 4.3918 0
M  V30 600 C 56.9987 -2.80388 3.39221 0
M  V30 601 H 54.1177 -0.350572 0.648281 0
M  V30 602 H 56.7597 -0.238259 1.885 0
M  V30 603 H 54.9097 -2.44507 3.01908 0
M  V30 604 H 56.5817 -0.367408 4.59835 0
M  V30 605 H 54.8247 -0.276276 4.32919 0
M  V30 606 H 55.4957 -1.60346 5.28198 0
M  V30 607 H 57.9717 -2.28287 3.47885 0
M  V30 608 H 56.8477 -3.3729 4.33044 0
M  V30 609 H 57.1087 -3.57212 2.60484 0
M  V30 610 N 56.1678 -1.49265 -0.50573 0
M  V30 611 C 57.4148 -1.58513 -1.26015 0
M  V30 612 C 57.7428 -0.26972 -1.92621 0
M  V30 613 O 56.9978 0.741997 -1.81088 0
M  V30 614 C 57.2968 -2.69008 -2.35308 0
M  V30 615 C 56.9628 -4.10662 -1.86192 0
M  V30 616 C 55.6248 -4.49212 -1.72516 0
M  V30 617 C 57.9768 -4.99336 -1.49375 0
M  V30 618 C 55.3048 -5.74214 -1.20394 0
M  V30 619 C 57.6568 -6.24852 -0.987072 0
M  V30 620 C 56.3208 -6.62236 -0.836669 0
M  V30 621 H 55.5908 -0.580041 -0.461122 0
M  V30 622 H 58.2378 -1.83078 -0.561665 0
M  V30 623 H 56.5428 -2.38396 -3.10926 0
M  V30 624 H 58.2398 -2.73373 -2.93374 0
M  V30 625 H 54.8298 -3.8023 -1.97795 0
M  V30 626 H 59.0138 -4.70212 -1.5879 0
M  V30 627 H 54.2698 -6.01883 -1.07458 0
M  V30 628 H 58.4438 -6.92944 -0.692983 0
M  V30 629 H 56.0708 -7.58979 -0.430607 0
M  V30 630 N 57.6459 0.756429 -1.3826 0
M  V30 631 C 58.8859 1.52833 -1.35725 0
M  V30 632 C 59.2499 1.91926 0.0534106 0
M  V30 633 O 60.4509 2.68028 0.203613 0
M  V30 634 C 58.7219 2.74919 -2.28373 0
M  V30 635 S 60.2809 3.64817 -2.43832 0
M  V30 636 H 57.0989 0.523043 -0.481608 0
M  V30 637 H 59.7009 0.888212 -1.74158 0
M  V30 638 H 58.4049 2.44304 -3.29763 0
M  V30 639 H 57.9359 3.43878 -1.91079 0
M  V30 640 H 59.9509 4.676 -1.66027 0
M  V30 641 N 59.124 1.23083 0.984299 0
M  V30 642 C 60.54 0.992637 1.24975 0
M  V30 643 C 60.74 -0.308618 1.99123 0
M  V30 644 O 59.796 -1.02905 2.30579 0
M  V30 645 C 61.109 2.19698 2.05312 0
M  V30 646 C 62.657 2.24147 2.18465 0
M  V30 647 C 63.132 3.44157 3.02192 0
M  V30 648 N 64.623 3.44372 3.09777 0
M  V30 649 C 65.358 4.33886 3.74874 0
M  V30 650 N 64.854 5.3363 4.41827 0
M  V30 651 N 66.647 4.21639 3.71721 0
M  V30 652 H 58.798 2.06731 0.487453 0
M  V30 653 H 61.061 0.906339 0.277944 0
M  V30 654 H 60.767 3.1411 1.58201 0
M  V30 655 H 60.641 2.20465 3.06064 0
M  V30 656 H 63.028 1.30277 2.64786 0
M  V30 657 H 63.109 2.27415 1.17115 0
M  V30 658 H 62.753 4.38332 2.56568 0
M  V30 659 H 62.683 3.3813 4.03702 0
M  V30 660 H 65.174 2.72201 2.62135 0
M  V30 661 H 65.487 5.98196 4.89266 0
M  V30 662 H 63.832 5.37534 4.40548 0
M  V30 663 H 67.023 3.42962 3.18582 0
M  V30 664 H 67.196 4.91604 4.22173 0
M  V30 665 N 60.6021 -1.18246 1.0419 0
M  V30 666 C 61.8301 -1.92195 0.766072 0
M  V30 667 C 62.2451 -1.76247 -0.676933 0
M  V30 668 O 61.6021 -1.09293 -1.46155 0
M  V30 669 C 61.6531 -3.43568 1.12442 0
M  V30 670 O 61.3741 -3.59015 2.51078 0
M  V30 671 C 62.8751 -4.34613 0.873275 0
M  V30 672 H 60.0951 -0.610114 0.279288 0
M  V30 673 H 62.6391 -1.50007 1.38989 0
M  V30 674 H 60.7941 -3.8354 0.545542 0
M  V30 675 H 61.2081 -4.5273 2.64831 0
M  V30 676 H 62.6821 -5.39374 1.17385 0
M  V30 677 H 63.1591 -4.38781 -0.191909 0
M  V30 678 H 63.7651 -4.00341 1.43551 0
M  V30 679 N 62.0802 -0.821533 -1.34494 0
M  V30 680 C 63.3572 -0.33159 -1.92769 0
M  V30 681 C 63.7372 1.18088 -1.74981 0
M  V30 682 O 63.0852 1.98733 -1.12772 0
M  V30 683 C 63.2952 -0.759398 -3.40638 0
M  V30 684 C 64.6432 -0.757433 -4.1779 0
M  V30 685 O 65.6672 -0.70189 -3.49216 0
M  V30 686 O 64.5262 -0.829361 -5.4017 0
M  V30 687 H 61.6202 -0.0902502 -0.822061 0
M  V30 688 H 64.1662 -0.906231 -1.43477 0
M  V30 689 H 62.9382 -1.8012 -3.47379 0
M  V30 690 H 62.5612 -0.160378 -3.97276 0
M  V30 691 N 63.5583 1.46682 -0.576371 0
M  V30 692 C 64.4883 2.33028 0.148397 0
M  V30 693 C 65.4693 1.44961 0.889956 0
M  V30 694 O 66.6543 1.73789 0.866662 0
M  V30 695 C 63.7843 3.27117 1.1667 0
M  V30 696 C 62.7383 4.24575 0.540386 0
M  V30 697 C 62.0643 5.08126 1.6647 0
M  V30 698 C 63.3643 5.19722 -0.518331 0
M  V30 699 H 65.0583 2.93875 -0.572509 0
M  V30 700 H 62.6043 1.41315 -0.276768 0
M  V30 701 H 64.5573 3.86374 1.68204 0
M  V30 702 H 63.2813 2.64364 1.9178 0
M  V30 703 H 61.9403 3.66571 0.0461769 0
M  V30 704 H 61.5883 4.41762 2.40531 0
M  V30 705 H 61.2883 5.74122 1.25131 0
M  V30 706 H 62.8123 5.70246 2.18293 0
M  V30 707 H 64.2263 5.73232 -0.0883058 0
M  V30 708 H 62.6233 5.94026 -0.851679 0
M  V30 709 H 63.6933 4.64037 -1.40703 0
M  V30 710 N 65.0364 0.313813 1.54444 0
M  V30 711 C 66.3134 -0.345447 1.92525 0
M  V30 712 C 66.6934 -1.70667 1.24242 0
M  V30 713 O 66.0414 -2.25273 0.382654 0
M  V30 714 C 66.2514 -0.44737 3.46121 0
M  V30 715 C 67.5994 -0.712238 4.18584 0
M  V30 716 O 68.6234 -0.530678 3.52225 0
M  V30 717 O 67.4824 -1.06183 5.36085 0
M  V30 718 H 64.5764 -0.195407 0.803583 0
M  V30 719 H 67.1224 0.362813 1.65776 0
M  V30 720 H 65.8944 0.509043 3.87975 0
M  V30 721 H 65.5174 -1.20359 3.78945 0
M  V30 722 N 66.5145 -1.57545 0.0417849 0
M  V30 723 C 67.9255 -1.80011 -0.495259 0
M  V30 724 C 68.2765 -0.953199 -1.71489 0
M  V30 725 O 67.4015 -0.167138 -2.15754 0
M  V30 726 C 67.9965 -3.26482 -0.905265 0
M  V30 727 C 66.5555 -3.499 -1.38734 0
M  V30 728 C 65.7025 -2.74979 -0.358056 0
M  V30 729 H 68.6535 -1.56425 0.267736 0
M  V30 730 H 68.6745 -3.36887 -1.76882 0
M  V30 731 H 68.1865 -3.88096 -0.017401 0
M  V30 732 H 66.2875 -2.93553 -2.29471 0
M  V30 733 H 66.4005 -4.58615 -1.38598 0
M  V30 734 H 64.7645 -2.40834 -0.828912 0
M  V30 735 H 65.5475 -3.39315 0.521561 0
M  V30 736 N 67.9926 0.231505 -1.5589 0
M  V30 737 C 69.2386 0.95877 -1.78705 0
M  V30 738 C 69.5716 1.8438 -0.609725 0
M  V30 739 O 68.8466 1.90521 0.391426 0
M  V30 740 C 69.1296 1.8062 -3.11526 0
M  V30 741 C 68.9826 0.948328 -4.39689 0
M  V30 742 C 70.3016 2.78585 -3.40703 0
M  V30 743 H 67.4206 0.347129 -0.650131 0
M  V30 744 H 70.0626 0.228259 -1.88624 0
M  V30 745 H 68.2126 2.42902 -3.03201 0
M  V30 746 H 69.8846 0.343016 -4.60023 0
M  V30 747 H 68.1276 0.253314 -4.3306 0
M  V30 748 H 68.7986 1.57543 -5.29041 0
M  V30 749 H 71.2746 2.26439 -3.49091 0
M  V30 750 H 70.1506 3.34988 -4.34826 0
M  V30 751 H 70.4116 3.55825 -2.62375 0
M  V30 752 N 69.4707 1.49531 0.497807 0
M  V30 753 C 70.7167 1.59415 1.25358 0
M  V30 754 C 71.0497 0.281422 1.9215 0
M  V30 755 O 70.3247 -0.715249 1.80871 0
M  V30 756 C 70.6077 2.75566 2.3181 0
M  V30 757 C 70.4607 4.16642 1.69498 0
M  V30 758 C 71.7797 2.87347 3.33346 0
M  V30 759 H 68.8987 0.580244 0.454408 0
M  V30 760 H 71.5407 1.81827 0.551262 0
M  V30 761 H 69.6907 2.56587 2.91711 0
M  V30 762 H 71.3627 4.47145 1.13399 0
M  V30 763 H 69.6057 4.22141 0.998978 0
M  V30 764 H 70.2767 4.93792 2.46725 0
M  V30 765 H 72.7527 3.04634 2.83438 0
M  V30 766 H 71.6287 3.70289 4.05188 0
M  V30 767 H 71.8897 1.96834 3.95865 0
M  V30 768 N 70.9488 -0.749086 1.3866 0
M  V30 769 C 71.8588 -1.89358 1.38494 0
M  V30 770 C 72.8748 -1.71708 0.281476 0
M  V30 771 O 74.0508 -1.94554 0.520643 0
M  V30 772 C 71.1158 -3.24782 1.21316 0
M  V30 773 C 70.1768 -3.54926 2.41508 0
M  V30 774 C 69.4098 -4.83888 2.2514 0
M  V30 775 O 69.6328 -5.56592 1.24746 0
M  V30 776 O 68.5668 -5.13612 3.13826 0
M  V30 777 H 72.3928 -1.92452 2.34938 0
M  V30 778 H 69.9778 -0.894981 1.19626 0
M  V30 779 H 71.8598 -4.05739 1.13814 0
M  V30 780 H 70.5348 -3.2249 0.279592 0
M  V30 781 H 69.4418 -2.74112 2.54585 0
M  V30 782 H 70.7748 -3.61983 3.3351 0
M  V30 783 N 72.4269 -1.23603 -0.977757 0
M  V30 784 C 73.6759 -1.06377 -1.71368 0
M  V30 785 C 73.9889 0.399062 -1.91486 0
M  V30 786 O 75.1949 0.691312 -2.62551 0
M  V30 787 C 73.6509 -1.85512 -3.08404 0
M  V30 788 C 73.2589 -3.36141 -2.96164 0
M  V30 789 C 75.0029 -1.76783 -3.85938 0
M  V30 790 C 72.9099 -4.07659 -4.28449 0
M  V30 791 H 71.8399 -0.394452 -0.642591 0
M  V30 792 H 74.4909 -1.47594 -1.09034 0
M  V30 793 H 72.8729 -1.37103 -3.71509 0
M  V30 794 H 74.0469 -3.92056 -2.42133 0
M  V30 795 H 72.3619 -3.45712 -2.32104 0
M  V30 796 H 74.9589 -2.27526 -4.83876 0
M  V30 797 H 75.3019 -0.731116 -4.0983 0
M  V30 798 H 75.8349 -2.22818 -3.2954 0
M  V30 799 H 72.5739 -5.11648 -4.09752 0
M  V30 800 H 72.0939 -3.5653 -4.82334 0
M  V30 801 H 73.7729 -4.141 -4.97122 0
M  V30 802 N 73.905 1.17692 -1.04816 0
M  V30 803 C 75.316 1.69501 -0.782698 0
M  V30 804 C 75.667 1.83456 0.695577 0
M  V30 805 O 74.792 1.51942 1.54086 0
M  V30 806 C 75.387 3.07874 -1.41419 0
M  V30 807 C 73.946 3.56864 -1.19686 0
M  V30 808 C 73.093 2.3322 -1.50012 0
M  V30 809 H 76.044 1.02262 -1.2136 0
M  V30 810 H 76.065 3.71528 -0.821428 0
M  V30 811 H 75.577 2.97685 -2.49009 0
M  V30 812 H 73.678 3.72337 -0.140043 0
M  V30 813 H 73.791 4.39851 -1.89916 0
M  V30 814 H 72.155 2.37501 -0.920071 0
M  V30 815 H 72.938 2.25644 -2.58727 0
M  V30 816 N 75.3831 0.828654 1.34056 0
M  V30 817 C 76.3461 0.259927 2.27721 0
M  V30 818 C 77.3461 -0.565478 1.50529 0
M  V30 819 O 78.5361 -0.38075 1.69988 0
M  V30 820 C 75.6681 -0.634944 3.34935 0
M  V30 821 H 76.8611 1.0863 2.79534 0
M  V30 822 H 74.4141 0.600951 1.44285 0
M  V30 823 H 75.1491 -1.48416 2.88346 0
M  V30 824 H 74.9341 -0.0444999 3.92075 0
M  V30 825 H 76.4241 -1.02648 4.04788 0
M  V30 826 N 76.8612 -1.46375 0.584142 0
M  V30 827 C 78.2772 -1.57694 0.245929 0
M  V30 828 C 78.4772 -1.57903 -1.25175 0
M  V30 829 O 77.5332 -1.49676 -2.03355 0
M  V30 830 C 78.8462 -2.87028 0.896402 0
M  V30 831 C 80.3942 -3.00662 0.870127 0
M  V30 832 C 80.8692 -4.32734 1.50017 0
M  V30 833 N 82.3602 -4.39436 1.46458 0
M  V30 834 C 83.0952 -5.40248 1.92144 0
M  V30 835 N 82.5912 -6.47726 2.4581 0
M  V30 836 N 84.3842 -5.31459 1.83052 0
M  V30 837 H 76.5352 -1.44483 1.55687 0
M  V30 838 H 78.7982 -0.689291 0.650831 0
M  V30 839 H 78.5042 -2.9269 1.95002 0
M  V30 840 H 78.3782 -3.75014 0.405486 0
M  V30 841 H 80.7652 -2.94581 -0.174871 0
M  V30 842 H 80.8462 -2.14148 1.39908 0
M  V30 843 H 80.4902 -4.39573 2.54437 0
M  V30 844 H 80.4202 -5.18025 0.946432 0
M  V30 845 H 82.9112 -3.62367 1.07231 0
M  V30 846 H 83.2242 -7.20863 2.78525 0
M  V30 847 H 81.5692 -6.48542 2.49836 0
M  V30 848 H 84.7602 -4.46396 1.40883 0
M  V30 849 H 84.9332 -6.09881 2.18973 0
M  V30 850 N 78.3393 -0.321999 -1.54275 0
M  V30 851 C 79.3023 0.531975 -2.22941 0
M  V30 852 C 80.3023 1.04478 -1.22234 0
M  V30 853 O 81.4923 0.937452 -1.46825 0
M  V30 854 C 78.6243 1.73874 -2.93224 0
M  V30 855 H 79.8173 -0.0682612 -2.99822 0
M  V30 856 H 77.3703 -0.0730644 -1.56129 0
M  V30 857 H 78.1053 2.37825 -2.20476 0
M  V30 858 H 77.8903 1.37847 -3.6707 0
M  V30 859 H 79.3803 2.34496 -3.45545 0
M  V30 860 N 79.8174 1.5752 -0.0501392 0
M  V30 861 C 80.7274 2.14952 0.939827 0
M  V30 862 C 81.7434 1.10706 1.34239 0
M  V30 863 O 82.9194 1.42869 1.41952 0
M  V30 864 C 79.9844 2.68232 2.19665 0
M  V30 865 C 79.0454 3.87272 1.85253 0
M  V30 866 C 78.2784 4.38002 3.04943 0
M  V30 867 O 78.5014 3.87811 4.18281 0
M  V30 868 O 77.4354 5.29602 2.86017 0
M  V30 869 H 81.2614 2.9986 0.481392 0
M  V30 870 H 78.8464 1.4841 0.171699 0
M  V30 871 H 80.7284 3.02475 2.93406 0
M  V30 872 H 79.4034 1.86395 2.64648 0
M  V30 873 H 78.3104 3.5792 1.0883 0
M  V30 874 H 79.6434 4.70336 1.4507 0
M  V30 875 N 81.2955 -0.223234 1.56011 0
M  V30 876 C 82.2435 -1.29627 1.93131 0
M  V30 877 C 83.2375 -1.48608 0.813146 0
M  V30 878 O 84.4435 -1.49802 0.997966 0
M  V30 879 H 80.8185 -0.434563 0.613726 0
M  V30 880 H 82.7895 -0.955995 2.82672 0
M  V30 881 C 81.5385 -2.63983 2.26292 0
M  V30 882 H 80.8615 -2.50185 3.11846 0
M  V30 883 H 82.3015 -3.3788 2.56151 0
M  V30 884 C 80.7605 -3.18866 1.08747 0
M  V30 885 O 81.2905 -4.00192 0.347727 0
M  V30 886 N 79.4965 -2.77217 0.871743 0
M  V30 887 H 79.0435 -2.1119 1.47501 0
M  V30 888 H 79.0015 -3.1428 0.0869905 0
M  V30 889 N 82.7736 -1.49793 -0.48987 0
M  V30 890 C 84.0196 -1.60078 -1.24511 0
M  V30 891 C 84.3526 -0.291608 -1.91998 0
M  V30 892 O 83.6276 0.705647 -1.81248 0
M  V30 893 C 83.9106 -2.76791 -2.30345 0
M  V30 894 C 83.7636 -4.17535 -1.67286 0
M  V30 895 C 85.0826 -2.89111 -3.31817 0
M  V30 896 H 82.2016 -0.582645 -0.451324 0
M  V30 897 H 84.8436 -1.82117 -0.541612 0
M  V30 898 H 82.9936 -2.5813 -2.90346 0
M  V30 899 H 84.6656 -4.4774 -1.11026 0
M  V30 900 H 82.9086 -4.22665 -0.976577 0
M  V30 901 H 83.5796 -4.95094 -2.44103 0
M  V30 902 H 86.0556 -3.06133 -2.81819 0
M  V30 903 H 84.9316 -3.72433 -4.03219 0
M  V30 904 H 85.1926 -1.9893 -3.94815 0
M  V30 905 N 84.2517 0.741722 -1.39055 0
M  V30 906 C 85.4997 1.49818 -1.35643 0
M  V30 907 C 85.8207 1.94938 0.0491642 0
M  V30 908 O 85.0907 1.68505 0.999141 0
M  V30 909 H 83.6707 0.555755 -0.499144 0
M  V30 910 H 86.3327 0.880957 -1.73854 0
M  V30 911 H 85.4287 2.38348 -2.01486 0
M  V30 912 N 85.7298 1.2412 0.971189 0
M  V30 913 C 86.6398 1.04747 2.09917 0
M  V30 914 C 87.6558 -0.0107162 1.73997 0
M  V30 915 O 88.8318 0.186714 2.00533 0
M  V30 916 C 85.8968 0.650828 3.40537 0
M  V30 917 C 84.9578 1.7851 3.90426 0
M  V30 918 C 84.1908 1.40729 5.14812 0
M  V30 919 O 84.4138 0.29557 5.69634 0
M  V30 920 O 83.3478 2.23168 5.58999 0
M  V30 921 H 87.1738 1.99304 2.29154 0
M  V30 922 H 84.7588 1.02908 1.08307 0
M  V30 923 H 86.6408 0.440992 4.19086 0
M  V30 924 H 85.3158 -0.265649 3.22608 0
M  V30 925 H 84.2228 2.04966 3.12953 0
M  V30 926 H 85.5558 2.68023 4.12825 0
M  V30 927 N 87.2079 -1.17134 1.05439 0
M  V30 928 C 88.4359 -1.91372 0.786414 0
M  V30 929 C 88.8509 -1.76955 -0.658202 0
M  V30 930 O 88.2079 -1.10838 -1.44987 0
M  V30 931 C 88.2589 -3.42356 1.1608 0
M  V30 932 O 87.9799 -3.56332 2.54871 0
M  V30 933 C 89.4809 -4.33663 0.919322 0
M  V30 934 H 86.7009 -0.607118 0.285743 0
M  V30 935 H 89.2449 -1.48525 1.40572 0
M  V30 936 H 87.3999 -3.82939 0.586191 0
M  V30 937 H 87.8139 -4.49896 2.69618 0
M  V30 938 H 89.2879 -5.38099 1.231 0
M  V30 939 H 89.7649 -4.38959 -0.145359 0
M  V30 940 H 90.3709 -3.98796 1.47789 0
M  V30 941 N 88.686 -0.835752 -1.33615 0
M  V30 942 C 89.914 -0.443344 -2.02094 0
M  V30 943 C 90.329 0.954522 -1.62894 0
M  V30 944 O 89.686 1.61982 -0.840723 0
M  V30 945 C 89.737 -0.550775 -3.5728 0
M  V30 946 O 89.458 -1.89356 -3.95065 0
M  V30 947 C 90.959 -0.154919 -4.43029 0
M  V30 948 H 88.179 -0.176359 -0.647409 0
M  V30 949 H 90.723 -1.12746 -1.70612 0
M  V30 950 H 88.878 0.0853997 -3.87306 0
M  V30 951 H 89.292 -1.87687 -4.89769 0
M  V30 952 H 90.766 -0.281144 -5.51284 0
M  V30 953 H 91.243 0.902863 -4.2982 0
M  V30 954 H 91.849 -0.765404 -4.18356 0
M  V30 955 N 90.1641 1.46063 -0.591896 0
M  V30 956 C 91.0971 2.27452 0.184617 0
M  V30 957 C 92.0751 1.36188 0.888351 0
M  V30 958 O 93.2591 1.65606 0.90039 0
M  V30 959 C 90.3861 3.14162 1.26571 0
M  V30 960 C 89.4321 4.21255 0.666814 0
M  V30 961 S 90.2651 5.33034 -0.513345 0
M  V30 962 C 91.4211 6.23311 0.56872 0
M  V30 963 H 91.6541 2.92963 -0.505939 0
M  V30 964 H 89.1871 1.49676 -0.379014 0
M  V30 965 H 91.1451 3.6468 1.88463 0
M  V30 966 H 89.8061 2.47946 1.92826 0
M  V30 967 H 88.9991 4.81788 1.47974 0
M  V30 968 H 88.6011 3.73797 0.123359 0
M  V30 969 H 90.8931 6.61758 1.45198 0
M  V30 970 H 91.8361 7.081 -7.23824e-05 0
M  V30 971 H 92.2441 5.57646 0.876996 0
M  V30 972 N 91.6422 0.330177 1.54103 0
M  V30 973 C 92.8672 -0.274893 2.0557 0
M  V30 974 C 93.2922 -1.44487 1.20437 0
M  V30 975 O 92.6502 -1.80021 0.214991 0
M  V30 976 C 92.6982 -0.68079 3.54115 0
M  V30 977 O 91.8022 -1.7824 3.71893 0
M  V30 978 H 91.1432 -0.0483849 0.662235 0
M  V30 979 H 93.6732 0.480508 1.98878 0
M  V30 980 H 93.6832 -0.961635 3.96505 0
M  V30 981 H 92.3582 0.174903 4.15532 0
M  V30 982 H 90.9352 -1.49985 3.41407 0
M  V30 983 N 93.1203 -1.57491 0.0584922 0
M  V30 984 C 94.3483 -1.97296 -0.623037 0
M  V30 985 C 94.7633 -0.936338 -1.63946 0
M  V30 986 O 94.1203 0.0785981 -1.82331 0
M  V30 987 C 94.1713 -3.37183 -1.30345 0
M  V30 988 O 93.8923 -4.36872 -0.32773 0
M  V30 989 C 95.3933 -3.91788 -2.07406 0
M  V30 990 H 92.6133 -0.649153 -0.169826 0
M  V30 991 H 95.1573 -2.04106 0.12696 0
M  V30 992 H 93.3123 -3.31502 -2.00463 0
M  V30 993 H 93.7263 -5.18141 -0.814269 0
M  V30 994 H 95.2003 -4.91926 -2.50425 0
M  V30 995 H 95.6773 -3.27609 -2.92521 0
M  V30 996 H 96.2833 -4.00829 -1.42184 0
M  V30 997 N 94.5984 0.214957 -1.56127 0
M  V30 998 C 95.8264 0.955092 -1.83536 0
M  V30 999 C 96.2414 1.77677 -0.638472 0
M  V30 1000 O 95.5984 1.78219 0.392968 0
M  V30 1001 C 95.6494 1.86734 -3.09536 0
M  V30 1002 O 95.3704 1.07887 -4.24608 0
M  V30 1003 C 96.8714 2.72082 -3.4998 0
M  V30 1004 H 94.0914 0.279611 -0.609966 0
M  V30 1005 H 96.6354 0.228197 -2.03223 0
M  V30 1006 H 94.7904 2.5481 -2.91806 0
M  V30 1007 H 95.2044 1.69872 -4.9623 0
M  V30 1008 H 96.6784 3.31782 -4.41163 0
M  V30 1009 H 97.1554 3.44806 -2.7204 0
M  V30 1010 H 97.7614 2.09409 -3.70173 0
M  V30 1011 N 96.0765 1.50051 0.48192 0
M  V30 1012 C 97.0065 1.71046 1.58951 0
M  V30 1013 C 97.9875 0.559288 1.60642 0
M  V30 1014 O 99.1725 0.797243 1.77081 0
M  V30 1015 C 96.3025 1.79462 2.97339 0
M  V30 1016 C 95.2565 2.94558 3.10515 0
M  V30 1017 C 94.5825 2.88105 4.50444 0
M  V30 1018 C 95.8825 4.35227 2.88747 0
M  V30 1019 H 97.5765 2.6378 1.41635 0
M  V30 1020 H 95.1225 1.26936 0.679942 0
M  V30 1021 H 97.0755 1.92734 3.74742 0
M  V30 1022 H 95.7995 0.833412 3.15788 0
M  V30 1023 H 94.4585 2.80918 2.35543 0
M  V30 1024 H 94.1065 1.89853 4.65795 0
M  V30 1025 H 93.8065 3.65366 4.60197 0
M  V30 1026 H 95.3305 3.03412 5.29881 0
M  V30 1027 H 96.7445 4.49449 3.55905 0
M  V30 1028 H 95.1415 5.13856 3.09955 0
M  V30 1029 H 96.2115 4.48347 1.84696 0
M  V30 1030 N 97.5546 -0.734337 1.39446 0
M  V30 1031 C 98.8006 -1.49613 1.36908 0
M  V30 1032 C 99.1336 -1.94169 -0.0347829 0
M  V30 1033 O 98.4086 -1.66833 -0.999847 0
M  V30 1034 C 98.6916 -2.73534 2.34203 0
M  V30 1035 C 98.5446 -2.34993 3.83534 0
M  V30 1036 C 99.8636 -3.75635 2.29317 0
M  V30 1037 H 96.9826 -0.542714 0.498629 0
M  V30 1038 H 99.6246 -0.839597 1.70443 0
M  V30 1039 H 97.7746 -3.29553 2.05736 0
M  V30 1040 H 99.4466 -1.84601 4.22753 0
M  V30 1041 H 97.6896 -1.67213 4.00278 0
M  V30 1042 H 98.3606 -3.23738 4.47099 0
M  V30 1043 H 100.837 -3.29203 2.54489 0
M  V30 1044 H 99.7126 -4.60008 2.99472 0
M  V30 1045 H 99.9736 -4.22603 1.29842 0
M  V30 1046 N 99.0327 -1.24633 -0.964593 0
M  V30 1047 C 99.9797 -1.04144 -2.05968 0
M  V30 1048 C 100.95 0.046262 -1.66036 0
M  V30 1049 O 102.135 -0.108972 -1.90489 0
M  V30 1050 C 99.2747 -0.65563 -3.38815 0
M  V30 1051 C 98.3877 -1.81714 -3.91923 0
M  V30 1052 C 97.5227 -1.37662 -5.13052 0
M  V30 1053 C 96.5617 -2.50788 -5.58365 0
M  V30 1054 N 95.6987 -2.07582 -6.70712 0
M  V30 1055 H 100.539 -1.9787 -2.22827 0
M  V30 1056 H 98.0757 -0.9855 -1.09208 0
M  V30 1057 H 100.034 -0.412954 -4.15151 0
M  V30 1058 H 98.6637 0.244627 -3.21872 0
M  V30 1059 H 97.7157 -2.1734 -3.12198 0
M  V30 1060 H 99.0277 -2.66705 -4.21509 0
M  V30 1061 H 98.1817 -1.093 -5.96773 0
M  V30 1062 H 96.9207 -0.497293 -4.85158 0
M  V30 1063 H 95.9257 -2.79906 -4.73215 0
M  V30 1064 H 97.1507 -3.39283 -5.88272 0
M  V30 1065 H 95.0967 -1.22051 -6.44546 0
M  V30 1066 H 95.0137 -2.86125 -6.99763 0
M  V30 1067 H 96.2817 -1.82369 -7.57867 0
M  V30 1068 N 100.511 1.16574 -1.06058 0
M  V30 1069 C 101.759 1.86677 -0.77434 0
M  V30 1070 C 102.08 1.81959 0.701147 0
M  V30 1071 O 101.35 1.2515 1.50713 0
M  V30 1072 H 99.9298 0.691134 -0.283449 0
M  V30 1073 H 102.592 1.41378 -1.34158 0
M  V30 1074 H 101.688 2.92181 -1.09711 0
M  V30 1075 N 101.989 0.842826 1.3317 0
M  V30 1076 C 103.266 0.362216 1.92217 0
M  V30 1077 C 103.646 -1.15289 1.76838 0
M  V30 1078 O 102.994 -1.96914 1.15919 0
M  V30 1079 C 103.204 0.813495 3.39387 0
M  V30 1080 C 104.552 0.823804 4.16532 0
M  V30 1081 O 105.576 0.757358 3.48055 0
M  V30 1082 O 104.435 0.915193 5.38782 0
M  V30 1083 H 101.529 0.103317 0.820521 0
M  V30 1084 H 104.075 0.928942 1.42017 0
M  V30 1085 H 102.847 1.85624 3.4447 0
M  V30 1086 H 102.47 0.223561 3.96971 0
M  V30 1087 N 103.467 -1.45747 0.599634 0
M  V30 1088 C 104.713 -2.02592 0.0918643 0
M  V30 1089 C 105.046 -1.46806 -1.27128 0
M  V30 1090 O 104.321 -0.639658 -1.83681 0
M  V30 1091 C 104.604 -3.60073 0.0443398 0
M  V30 1092 C 104.457 -4.26208 1.43759 0
M  V30 1093 C 105.776 -4.35309 -0.647608 0
M  V30 1094 H 102.895 -0.736175 0.034857 0
M  V30 1095 H 105.537 -1.73694 0.770081 0
M  V30 1096 H 103.687 -3.84823 -0.533224 0
M  V30 1097 H 105.359 -4.12668 2.06162 0
M  V30 1098 H 103.602 -3.84916 2.00056 0
M  V30 1099 H 104.273 -5.35069 1.35665 0
M  V30 1100 H 106.749 -4.15805 -0.156776 0
M  V30 1101 H 105.625 -5.45038 -0.649942 0
M  V30 1102 H 105.886 -4.07598 -1.71219 0
M  V30 1103 N 104.945 -0.338344 -1.53925 0
M  V30 1104 C 105.892 0.520845 -2.24846 0
M  V30 1105 C 106.862 1.09976 -1.24477 0
M  V30 1106 O 108.047 1.13735 -1.53196 0
M  V30 1107 C 105.187 1.6685 -3.02084 0
M  V30 1108 C 104.3 1.11739 -4.17299 0
M  V30 1109 C 103.435 2.23193 -4.82036 0
M  V30 1110 C 102.474 1.65407 -5.89328 0
M  V30 1111 N 101.611 2.70582 -6.47866 0
M  V30 1112 H 106.451 -0.0904881 -2.97863 0
M  V30 1113 H 103.988 -0.0564282 -1.46992 0
M  V30 1114 H 105.946 2.34407 -3.45122 0
M  V30 1115 H 104.576 2.2509 -2.31375 0
M  V30 1116 H 103.628 0.332919 -3.7894 0
M  V30 1117 H 104.94 0.654677 -4.94485 0
M  V30 1118 H 104.094 2.98626 -5.28117 0
M  V30 1119 H 102.833 2.72807 -4.04262 0
M  V30 1120 H 101.838 0.884779 -5.42634 0
M  V30 1121 H 103.063 1.16652 -6.69006 0
M  V30 1122 H 101.009 3.1946 -5.72959 0
M  V30 1123 H 100.926 2.28917 -7.20509 0
M  V30 1124 H 102.194 3.45799 -6.98601 0
M  V30 1125 N 106.423 1.57458 -0.0668435 0
M  V30 1126 C 107.669 1.93587 0.6043 0
M  V30 1127 C 108.002 0.946722 1.69561 0
M  V30 1128 O 107.277 -0.0248516 1.94484 0
M  V30 1129 C 107.56 3.40014 1.18585 0
M  V30 1130 C 107.413 4.49685 0.101529 0
M  V30 1131 C 108.732 3.87154 2.09284 0
M  V30 1132 H 105.851 0.703958 0.218202 0
M  V30 1133 H 108.493 1.89542 -0.131804 0
M  V30 1134 H 106.643 3.43592 1.81319 0
M  V30 1135 H 108.315 4.5823 -0.531279 0
M  V30 1136 H 106.558 4.30059 -0.568487 0
M  V30 1137 H 107.229 5.49266 0.54874 0
M  V30 1138 H 109.705 3.85551 1.56491 0
M  V30 1139 H 108.581 4.90231 2.46911 0
M  V30 1140 H 108.842 3.2481 2.99918 0
M  V30 1141 N 107.901 -0.206675 1.56239 0
M  V30 1142 C 109.178 -0.954051 1.70755 0
M  V30 1143 C 109.558 -2.01841 0.618353 0
M  V30 1144 O 108.906 -2.25444 -0.372434 0
M  V30 1145 C 109.116 -1.551 3.12642 0
M  V30 1146 C 110.464 -2.03757 3.72516 0
M  V30 1147 O 111.488 -1.64965 3.15698 0
M  V30 1148 O 110.347 -2.75103 4.72208 0
M  V30 1149 H 107.441 -0.446636 0.696021 0
M  V30 1150 H 109.987 -0.197283 1.68549 0
M  V30 1151 H 108.759 -0.783212 3.83382 0
M  V30 1152 H 108.382 -2.37291 3.19028 0
M  V30 1153 N 109.379 -1.50304 -0.473955 0
M  V30 1154 C 110.607 -1.64902 -1.24959 0
M  V30 1155 C 111.022 -0.331198 -1.85872 0
M  V30 1156 O 110.379 0.68652 -1.69095 0
M  V30 1157 C 110.43 -2.73803 -2.36038 0
M  V30 1158 O 110.151 -4.00477 -1.77624 0
M  V30 1159 C 111.652 -2.99349 -3.26964 0
M  V30 1160 H 108.872 -0.554383 -0.378022 0
M  V30 1161 H 111.416 -1.9651 -0.566054 0
M  V30 1162 H 109.571 -2.44898 -3.00173 0
M  V30 1163 H 109.985 -4.60678 -2.5075 0
M  V30 1164 H 111.459 -3.79217 -4.01121 0
M  V30 1165 H 111.936 -2.10307 -3.85574 0
M  V30 1166 H 112.542 -3.29774 -2.68569 0
M  V30 1167 N 110.857 0.726932 -1.39834 0
M  V30 1168 C 112.103 1.48884 -1.377 0
M  V30 1169 C 112.436 1.94185 0.0244852 0
M  V30 1170 O 111.711 1.67361 0.990986 0
M  V30 1171 C 111.994 2.72288 -2.3565 0
M  V30 1172 C 111.847 2.32956 -3.84775 0
M  V30 1173 C 113.166 3.74414 -2.31306 0
M  V30 1174 H 110.285 0.540062 -0.5015 0
M  V30 1175 H 112.927 0.830547 -1.70886 0
M  V30 1176 H 111.077 3.28457 -2.07481 0
M  V30 1177 H 112.749 1.82356 -4.23726 0
M  V30 1178 H 110.992 1.65088 -4.01159 0
M  V30 1179 H 111.663 3.21362 -4.4881 0
M  V30 1180 H 114.139 3.27849 -2.56231 0
M  V30 1181 H 113.015 4.58414 -3.01907 0
M  V30 1182 H 113.276 4.21909 -1.32081 0
M  V30 1183 N 112.336 1.25143 0.95797 0
M  V30 1184 C 113.246 1.06968 2.08794 0
M  V30 1185 C 114.262 0.00773911 1.73998 0
M  V30 1186 O 115.438 0.207972 2.00323 0
M  V30 1187 C 112.503 0.68691 3.39827 0
M  V30 1188 C 111.564 1.82641 3.88511 0
M  V30 1189 C 110.797 1.46181 5.1329 0
M  V30 1190 O 111.02 0.355971 5.69288 0
M  V30 1191 O 109.954 2.29085 5.566 0
M  V30 1192 H 113.78 2.01723 2.27027 0
M  V30 1193 H 111.365 1.04051 1.07209 0
M  V30 1194 H 113.247 0.485417 4.18595 0
M  V30 1195 H 111.922 -0.231417 3.22872 0
M  V30 1196 H 110.829 2.08274 3.10762 0
M  V30 1197 H 112.162 2.72386 4.09959 0
M  V30 1198 N 113.814 -1.1601 1.06675 0
M  V30 1199 C 114.764 -2.18512 0.650888 0
M  V30 1200 C 115.748 -1.57677 -0.320441 0
M  V30 1201 O 116.94 -1.76482 -0.135266 0
M  V30 1202 C 114.069 -3.43273 0.0429255 0
M  V30 1203 C 113.155 -4.11176 1.03898 0
M  V30 1204 N 113.546 -4.54672 2.216 0
M  V30 1205 C 111.844 -4.37417 0.870779 0
M  V30 1206 C 112.545 -5.07248 2.84736 0
M  V30 1207 N 111.521 -5.0037 2.12441 0
M  V30 1208 H 115.323 -2.49863 1.54745 0
M  V30 1209 H 112.837 -1.32503 0.938975 0
M  V30 1210 H 114.834 -4.16006 -0.272857 0
M  V30 1211 H 113.494 -3.13408 -0.84884 0
M  V30 1212 H 114.505 -4.4828 2.59356 0
M  V30 1213 H 111.182 -4.17488 0.0313293 0
M  V30 1214 H 112.572 -5.50912 3.84636 0
M  V30 1215 N 115.292 -0.849877 -1.32721 0
M  V30 1216 C 116.222 -0.306308 -2.31482 0
M  V30 1217 C 117.203 0.591952 -1.59468 0
M  V30 1218 O 118.388 0.513199 -1.87296 0
M  V30 1219 C 115.518 0.510204 -3.43532 0
M  V30 1220 C 114.472 -0.293209 -4.26994 0
M  V30 1221 C 113.798 0.647743 -5.30762 0
M  V30 1222 C 115.098 -1.51634 -4.99804 0
M  V30 1223 H 116.792 -1.13153 -2.77195 0
M  V30 1224 H 114.338 -0.545553 -1.33266 0
M  V30 1225 H 116.291 0.900856 -4.11658 0
M  V30 1226 H 115.015 1.36874 -2.96535 0
M  V30 1227 H 113.674 -0.665555 -3.60508 0
M  V30 1228 H 113.322 1.50299 -4.8002 0
M  V30 1229 H 113.022 0.11422 -5.87489 0
M  V30 1230 H 114.546 1.03567 -6.01753 0
M  V30 1231 H 115.96 -1.19824 -5.60638 0
M  V30 1232 H 114.357 -1.98745 -5.66234 0
M  V30 1233 H 115.427 -2.28018 -4.27943 0
M  V30 1234 N 116.77 1.45427 -0.607355 0
M  V30 1235 C 117.7 2.3329 0.0989352 0
M  V30 1236 C 118.681 1.46816 0.859007 0
M  V30 1237 O 119.866 1.75588 0.829604 0
M  V30 1238 C 116.996 3.29518 1.09705 0
M  V30 1239 C 115.95 4.25626 0.450206 0
M  V30 1240 C 115.276 5.11542 1.55655 0
M  V30 1241 C 116.576 5.18505 -0.628455 0
M  V30 1242 H 118.27 2.92595 -0.634716 0
M  V30 1243 H 115.816 1.40696 -0.306681 0
M  V30 1244 H 117.769 3.89855 1.59971 0
M  V30 1245 H 116.493 2.68372 1.86129 0
M  V30 1246 H 115.152 3.66586 -0.0315886 0
M  V30 1247 H 114.8 4.46765 2.31107 0
M  V30 1248 H 114.5 5.76647 1.12925 0
M  V30 1249 H 116.024 5.74748 2.06148 0
M  V30 1250 H 117.438 5.72916 -0.209877 0
M  V30 1251 H 115.835 5.92085 -0.977489 0
M  V30 1252 H 116.905 4.60948 -1.50514 0
M  V30 1253 N 118.248 0.346503 1.53744 0
M  V30 1254 C 119.473 -0.253074 2.0585 0
M  V30 1255 C 119.898 -1.43202 1.21962 0
M  V30 1256 O 119.256 -1.79783 0.234073 0
M  V30 1257 C 119.304 -0.643193 3.54817 0
M  V30 1258 O 118.408 -1.74286 3.73762 0
M  V30 1259 H 117.749 -0.0413583 0.662711 0
M  V30 1260 H 120.279 0.501574 1.98357 0
M  V30 1261 H 120.289 -0.919526 3.97503 0
M  V30 1262 H 118.964 0.218966 4.15323 0
M  V30 1263 H 117.541 -1.46356 3.42979 0
M  V30 1264 N 119.726 -1.57421 0.075193 0
M  V30 1265 C 120.689 -2.11791 -0.876203 0
M  V30 1266 C 121.689 -1.04268 -1.22412 0
M  V30 1267 O 122.879 -1.30242 -1.15684 0
M  V30 1268 C 120.011 -2.62207 -2.17854 0
M  V30 1269 H 121.204 -2.9716 -0.40444 0
M  V30 1270 H 118.757 -1.55333 -0.173557 0
M  V30 1271 H 119.492 -1.803 -2.6956 0
M  V30 1272 H 119.277 -3.40802 -1.93897 0
M  V30 1273 H 120.767 -3.04335 -2.85955 0
M  V30 1274 N 121.204 0.198386 -1.56346 0
M  V30 1275 C 122.137 1.27381 -1.89339 0
M  V30 1276 C 123.115 1.44106 -0.753134 0
M  V30 1277 O 124.299 1.59549 -1.00381 0
M  V30 1278 C 121.426 2.6409 -2.12071 0
M  V30 1279 C 120.472 2.64253 -3.34772 0
M  V30 1280 S 121.305 2.16013 -4.89999 0
M  V30 1281 C 122.461 3.54553 -5.15794 0
M  V30 1282 H 122.694 0.992058 -2.8026 0
M  V30 1283 H 120.227 0.401726 -1.49082 0
M  V30 1284 H 122.185 3.42786 -2.2585 0
M  V30 1285 H 120.846 2.89478 -1.21906 0
M  V30 1286 H 120.039 3.64768 -3.47794 0
M  V30 1287 H 119.641 1.93637 -3.1997 0
M  V30 1288 H 121.933 4.50396 -5.06112 0
M  V30 1289 H 122.876 3.46428 -6.1757 0
M  V30 1290 H 123.284 3.49313 -4.43442 0
M  V30 1291 N 122.682 1.50554 0.465978 0
M  V30 1292 C 123.645 1.69233 1.54574 0
M  V30 1293 C 124.645 0.562901 1.50626 0
M  V30 1294 O 125.835 0.830016 1.53155 0
M  V30 1295 C 122.967 1.7223 2.94193 0
M  V30 1296 H 124.16 2.65571 1.39327 0
M  V30 1297 H 121.713 1.40111 0.692711 0
M  V30 1298 H 122.448 0.77603 3.14878 0
M  V30 1299 H 122.233 2.54285 2.98466 0
M  V30 1300 H 123.723 1.88618 3.72576 0
M  V30 1301 N 124.16 -0.719506 1.40217 0
M  V30 1302 C 125.408 -1.47641 1.3801 0
M  V30 1303 C 125.729 -1.94992 -0.018145 0
M  V30 1304 O 124.999 -1.70073 -0.972207 0
M  V30 1305 H 123.579 -0.547744 0.507923 0
M  V30 1306 H 126.241 -0.853187 1.75233 0
M  V30 1307 H 125.337 -2.35112 2.05253 0
M  V30 1308 N 125.638 -1.25649 -0.95132 0
M  V30 1309 C 126.568 -1.08808 -2.06599 0
M  V30 1310 C 127.549 0.00382547 -1.701 0
M  V30 1311 O 128.734 -0.166325 -1.93486 0
M  V30 1312 C 125.864 -0.709542 -3.39975 0
M  V30 1313 C 124.818 -1.75206 -3.90496 0
M  V30 1314 C 124.144 -1.22811 -5.20405 0
M  V30 1315 C 125.444 -3.15153 -4.16504 0
M  V30 1316 H 127.138 -2.02048 -2.20946 0
M  V30 1317 H 124.684 -0.972835 -1.06169 0
M  V30 1318 H 126.637 -0.578649 -4.17408 0
M  V30 1319 H 125.361 0.258556 -3.25575 0
M  V30 1320 H 124.02 -1.87145 -3.15234 0
M  V30 1321 H 123.668 -0.250145 -5.02378 0
M  V30 1322 H 123.368 -1.92492 -5.55176 0
M  V30 1323 H 124.892 -1.10968 -6.00432 0
M  V30 1324 H 126.306 -3.06349 -4.84586 0
M  V30 1325 H 124.703 -3.82333 -4.62538 0
M  V30 1326 H 125.773 -3.61966 -3.22658 0
M  V30 1327 N 127.117 1.15442 -1.07289 0
M  V30 1328 C 128.365 1.85845 -0.794096 0
M  V30 1329 C 128.686 1.82692 0.681809 0
M  V30 1330 O 127.956 1.26741 1.49377 0
M  V30 1331 H 126.536 0.688089 -0.290763 0
M  V30 1332 H 129.198 1.39947 -1.3565 0
M  V30 1333 H 128.294 2.91001 -1.12804 0
M  V30 1334 N 128.595 0.856903 1.32268 0
M  V30 1335 C 129.844 0.457599 1.96441 0
M  V30 1336 C 130.157 -0.992426 1.68553 0
M  V30 1337 O 131.363 -1.49727 2.26482 0
M  V30 1338 C 129.819 0.767358 3.51624 0
M  V30 1339 C 129.427 2.23326 3.88367 0
M  V30 1340 C 131.171 0.435887 4.22256 0
M  V30 1341 C 129.078 2.48613 5.36606 0
M  V30 1342 H 128.008 0.167387 0.735185 0
M  V30 1343 H 130.659 1.048 1.5063 0
M  V30 1344 H 129.041 0.106367 3.95857 0
M  V30 1345 H 130.215 2.93623 3.55137 0
M  V30 1346 H 128.53 2.52948 3.30766 0
M  V30 1347 H 131.127 0.602202 5.31298 0
M  V30 1348 H 131.47 -0.622672 4.11617 0
M  V30 1349 H 132.003 1.05286 3.83614 0
M  V30 1350 H 128.742 3.53101 5.52268 0
M  V30 1351 H 128.262 1.82896 5.71235 0
M  V30 1352 H 129.941 2.32676 6.03714 0
M  V30 1353 N 130.073 -1.45103 0.615059 0
M  V30 1354 C 131.35 -1.95549 0.0448276 0
M  V30 1355 C 131.73 -1.55737 -1.4251 0
M  V30 1356 O 131.078 -0.823556 -2.13143 0
M  V30 1357 C 131.288 -3.48098 0.250785 0
M  V30 1358 C 132.636 -4.24384 0.135509 0
M  V30 1359 O 133.66 -3.55738 0.181299 0
M  V30 1360 O 132.519 -5.46493 0.0268878 0
M  V30 1361 H 129.613 -0.8264 -0.0314845 0
M  V30 1362 H 132.159 -1.55232 0.685642 0
M  V30 1363 H 130.931 -3.7007 1.27139 0
M  V30 1364 H 130.554 -3.95323 -0.424937 0
M  V30 1365 N 131.551 -0.354651 -1.53558 0
M  V30 1366 C 132.499 0.512195 -2.26891 0
M  V30 1367 C 133.493 1.09263 -1.29452 0
M  V30 1368 O 134.699 1.03709 -1.47121 0
M  V30 1369 H 131.074 0.183878 -0.729173 0
M  V30 1370 H 133.045 -0.128202 -2.98124 0
M  V30 1371 C 131.794 1.64563 -3.06291 0
M  V30 1372 H 131.117 1.20829 -3.81104 0
M  V30 1373 H 132.557 2.22711 -3.60799 0
M  V30 1374 C 131.016 2.58158 -2.16462 0
M  V30 1375 O 131.546 3.60695 -1.76811 0
M  V30 1376 N 129.752 2.27096 -1.81317 0
M  V30 1377 H 129.299 1.43751 -2.1376 0
M  V30 1378 H 129.257 2.89975 -1.21498 0
M  V30 1379 N 133.029 1.57378 -0.0835403 0
M  V30 1380 C 133.992 2.12252 0.864959 0
M  V30 1381 C 134.992 1.04916 1.21858 0
M  V30 1382 O 136.182 1.30853 1.14991 0
M  V30 1383 C 133.314 2.63358 2.16461 0
M  V30 1384 H 134.507 2.97371 0.388676 0
M  V30 1385 H 132.06 1.55423 0.165317 0
M  V30 1386 H 132.795 1.81727 2.686 0
M  V30 1387 H 132.58 3.41826 1.92087 0
M  V30 1388 H 134.07 3.05847 2.84337 0
M  V30 1389 N 134.507 -0.190092 1.56449 0
M  V30 1390 C 135.737 -0.92443 1.84764 0
M  V30 1391 C 136.145 -1.77146 0.664529 0
M  V30 1392 O 135.488 -1.79812 -0.375957 0
M  V30 1393 C 135.55 -1.86651 3.07248 0
M  V30 1394 C 135.214 -1.20094 4.40938 0
M  V30 1395 C 136.211 -0.575445 5.16706 0
M  V30 1396 C 133.896 -1.2033 4.87674 0
M  V30 1397 C 135.89 0.0388111 6.37388 0
M  V30 1398 C 133.577 -0.585214 6.08291 0
M  V30 1399 C 134.575 0.0347578 6.82991 0
M  V30 1400 O 134.263 0.643147 8.01323 0
M  V30 1401 H 133.995 -0.274974 0.617548 0
M  V30 1402 H 136.549 -0.200788 2.04416 0
M  V30 1403 H 134.779 -2.62998 2.83494 0
M  V30 1404 H 136.468 -2.46907 3.22167 0
M  V30 1405 H 137.234 -0.565728 4.81689 0
M  V30 1406 H 133.113 -1.67526 4.29484 0
M  V30 1407 H 136.657 0.523329 6.95634 0
M  V30 1408 H 132.554 -0.592451 6.42775 0
M  V30 1409 H 133.322 0.540545 8.16713 0
M  V30 1410 N 135.985 -1.50799 -0.457987 0
M  V30 1411 C 137.231 -1.62683 -1.21088 0
M  V30 1412 C 137.564 -0.332268 -1.91336 0
M  V30 1413 O 136.839 0.667043 -1.82704 0
M  V30 1414 C 137.122 -2.81615 -2.24422 0
M  V30 1415 C 136.975 -4.20989 -1.58392 0
M  V30 1416 C 138.294 -2.96085 -3.2561 0
M  V30 1417 H 135.413 -0.592087 -0.438864 0
M  V30 1418 H 138.055 -1.83225 -0.50286 0
M  V30 1419 H 136.205 -2.64231 -2.84806 0
M  V30 1420 H 137.877 -4.49994 -1.01504 0
M  V30 1421 H 136.12 -4.24641 -0.886704 0
M  V30 1422 H 136.791 -5.0016 -2.33547 0
M  V30 1423 H 139.267 -3.12042 -2.75262 0
M  V30 1424 H 138.143 -3.80902 -3.95228 0
M  V30 1425 H 138.404 -2.0726 -3.90507 0
M  V30 1426 N 137.463 0.71206 -1.40597 0
M  V30 1427 C 138.373 1.8562 -1.43466 0
M  V30 1428 C 139.389 1.70902 -0.326902 0
M  V30 1429 O 140.565 1.93105 -0.572043 0
M  V30 1430 C 137.63 3.21451 -1.29884 0
M  V30 1431 C 136.691 3.48398 -2.50833 0
M  V30 1432 C 135.924 4.77749 -2.3789 0
M  V30 1433 O 136.147 5.53089 -1.39459 0
M  V30 1434 O 135.081 5.05111 -3.27333 0
M  V30 1435 H 138.907 1.86155 -2.39958 0
M  V30 1436 H 136.492 0.86295 -1.21957 0
M  V30 1437 H 138.374 4.02579 -1.24531 0
M  V30 1438 H 137.049 3.21636 -0.364997 0
M  V30 1439 H 135.956 2.67265 -2.61763 0
M  V30 1440 H 137.289 3.53014 -3.4299 0
M  V30 1441 N 138.941 1.26152 0.944643 0
M  V30 1442 C 139.871 1.09902 2.06019 0
M  V30 1443 C 140.852 0.00519538 1.70099 0
M  V30 1444 O 142.037 0.176583 1.93396 0
M  V30 1445 C 139.167 0.727562 3.39594 0
M  V30 1446 C 138.121 1.77274 3.89561 0
M  V30 1447 C 137.447 1.25569 5.19747 0
M  V30 1448 C 138.747 3.17357 4.14827 0
M  V30 1449 H 140.441 2.03217 2.19871 0
M  V30 1450 H 137.987 0.978452 1.05652 0
M  V30 1451 H 139.94 0.600777 4.17095 0
M  V30 1452 H 138.664 -0.241287 3.25707 0
M  V30 1453 H 137.323 1.88814 3.14237 0
M  V30 1454 H 136.971 0.276783 5.02238 0
M  V30 1455 H 136.671 1.95433 5.54148 0
M  V30 1456 H 138.195 1.1415 5.99835 0
M  V30 1457 H 139.609 3.08914 4.82954 0
M  V30 1458 H 138.006 3.84781 4.60504 0
M  V30 1459 H 139.076 3.63673 3.20734 0
M  V30 1460 N 140.419 -1.14872 1.07899 0
M  V30 1461 C 141.644 -1.90202 0.826926 0
M  V30 1462 C 142.069 -1.77774 -0.614664 0
M  V30 1463 O 141.427 -1.11431 -1.43013 0
M  V30 1464 C 141.475 -3.38352 1.24702 0
M  V30 1465 O 140.579 -4.10497 0.39575 0
M  V30 1466 H 139.92 -0.591968 0.300782 0
M  V30 1467 H 142.45 -1.45437 1.43907 0
M  V30 1468 H 142.46 -3.89156 1.22563 0
M  V30 1469 H 141.135 -3.46715 2.29698 0
M  V30 1470 H 139.712 -3.69796 0.480117 0
M  V30 1471 N 141.898 -0.863906 -1.31812 0
M  V30 1472 C 142.861 -0.320212 -2.26952 0
M  V30 1473 C 143.861 0.525369 -1.51975 0
M  V30 1474 O 145.051 0.335547 -1.70938 0
M  V30 1475 C 142.183 0.545919 -3.365 0
M  V30 1476 H 143.376 -1.16004 -2.76556 0
M  V30 1477 H 140.929 -0.638995 -1.42641 0
M  V30 1478 H 141.664 1.40718 -2.92179 0
M  V30 1479 H 141.449 -0.0594674 -3.92055 0
M  V30 1480 H 142.939 0.918796 -4.07367 0
M  V30 1481 N 143.376 1.44774 -0.622745 0
M  V30 1482 C 144.601 2.06999 -0.128968 0
M  V30 1483 C 145.026 1.4617 1.1839 0
M  V30 1484 O 144.384 0.560007 1.72434 0
M  V30 1485 C 144.432 3.60595 -0.0188351 0
M  V30 1486 O 143.536 3.99398 1.02739 0
M  V30 1487 H 142.877 0.659047 -0.0809544 0
M  V30 1488 H 145.407 1.85784 -0.85705 0
M  V30 1489 H 145.417 4.07627 0.174476 0
M  V30 1490 H 144.092 4.04252 -0.977384 0
M  V30 1491 H 142.669 3.64011 0.809326 0
M  V30 1492 N 144.854 0.36279 1.53368 0
M  V30 1493 C 145.764 -0.492994 2.29362 0
M  V30 1494 C 146.78 -1.09507 1.35219 0
M  V30 1495 O 147.956 -1.10662 1.68273 0
M  V30 1496 C 145.021 -1.61855 3.066 0
M  V30 1497 C 144.082 -1.04429 4.16405 0
M  V30 1498 C 143.315 -2.11621 4.89951 0
M  V30 1499 O 143.538 -3.32684 4.63333 0
M  V30 1500 O 142.472 -1.74835 5.75948 0
M  V30 1501 H 146.298 0.125331 3.03441 0
M  V30 1502 H 143.883 0.127253 1.48857 0
M  V30 1503 H 145.765 -2.27302 3.54841 0
M  V30 1504 H 144.44 -2.22233 2.3536 0
M  V30 1505 H 143.347 -0.353819 3.72423 0
M  V30 1506 H 144.68 -0.485113 4.89804 0
M  V30 1507 N 146.332 -1.57332 0.0918853 0
M  V30 1508 C 147.578 -1.94524 -0.573425 0
M  V30 1509 C 147.911 -0.973578 -1.68033 0
M  V30 1510 O 147.186 -0.00609226 -1.94499 0
M  V30 1511 C 147.469 -3.41858 -1.13161 0
M  V30 1512 C 147.322 -4.4979 -0.0299747 0
M  V30 1513 C 148.641 -3.90435 -2.03098 0
M  V30 1514 H 145.76 -0.70734 -0.206975 0
M  V30 1515 H 148.402 -1.89309 0.161942 0
M  V30 1516 H 146.552 -3.46433 -1.7583 0
M  V30 1517 H 148.224 -4.57327 0.604112 0
M  V30 1518 H 146.467 -4.291 0.636833 0
M  V30 1519 H 147.138 -5.50069 -0.461287 0
M  V30 1520 H 149.614 -3.87992 -1.50338 0
M  V30 1521 H 148.49 -4.94097 -2.39081 0
M  V30 1522 H 148.751 -3.29541 -2.94712 0
M  V30 1523 N 147.81 0.181792 -1.56548 0
M  V30 1524 C 149.221 0.745244 -1.71181 0
M  V30 1525 C 149.572 1.83262 -0.70068 0
M  V30 1526 O 148.697 2.15946 0.140154 0
M  V30 1527 C 149.292 1.35859 -3.10367 0
M  V30 1528 C 147.851 1.86898 -3.2672 0
M  V30 1529 C 146.998 0.743942 -2.67134 0
M  V30 1530 H 149.949 -0.0434661 -1.5864 0
M  V30 1531 H 149.97 2.22817 -3.08436 0
M  V30 1532 H 149.482 0.566948 -3.83937 0
M  V30 1533 H 147.583 2.68738 -2.5809 0
M  V30 1534 H 147.696 2.02162 -4.34359 0
M  V30 1535 H 146.06 1.16169 -2.26665 0
M  V30 1536 H 146.843 -0.035676 -3.43281 0
M  V30 1537 N 149.288 1.51039 0.449983 0
M  V30 1538 C 150.537 1.62317 1.19733 0
M  V30 1539 C 150.85 0.339101 1.92638 0
M  V30 1540 O 152.056 0.331069 2.69474 0
M  V30 1541 C 150.512 2.86608 2.17678 0
M  V30 1542 C 150.12 4.21972 1.50479 0
M  V30 1543 C 151.864 3.07239 2.92924 0
M  V30 1544 C 149.771 5.37426 2.46834 0
M  V30 1545 H 148.701 0.604532 0.450619 0
M  V30 1546 H 151.352 1.77494 0.465625 0
M  V30 1547 H 149.734 2.65037 2.94231 0
M  V30 1548 H 150.908 4.53878 0.795716 0
M  V30 1549 H 149.223 4.07117 0.874344 0
M  V30 1550 H 151.82 3.90668 3.65079 0
M  V30 1551 H 152.163 2.19807 3.5354 0
M  V30 1552 H 152.696 3.29091 2.23481 0
M  V30 1553 H 149.435 6.27079 1.90926 0
M  V30 1554 H 148.955 5.09912 3.15832 0
M  V30 1555 H 150.634 5.68862 3.08228 0
M  V30 1556 N 150.766 -0.704594 1.40972 0
M  V30 1557 C 151.699 -1.82861 1.36518 0
M  V30 1558 C 152.677 -1.6091 0.23382 0
M  V30 1559 O 153.861 -1.83778 0.419271 0
M  V30 1560 C 150.988 -3.1939 1.12729 0
M  V30 1561 C 150.034 -3.60148 2.28463 0
M  V30 1562 S 150.867 -3.65994 3.90907 0
M  V30 1563 C 152.023 -5.05264 3.69403 0
M  V30 1564 H 152.256 -1.86361 2.3164 0
M  V30 1565 H 149.789 -0.872439 1.27389 0
M  V30 1566 H 151.747 -3.98211 0.996893 0
M  V30 1567 H 150.408 -3.1351 0.192427 0
M  V30 1568 H 149.601 -4.59309 2.07489 0
M  V30 1569 H 149.203 -2.88612 2.37863 0
M  V30 1570 H 151.495 -5.92504 3.28551 0
M  V30 1571 H 152.438 -5.31278 4.68134 0
M  V30 1572 H 152.846 -4.76377 3.02862 0
M  V30 1573 N 152.244 -1.26651 -0.937939 0
M  V30 1574 C 153.521 -1.0313 -1.66204 0
M  V30 1575 C 153.901 0.437256 -2.06522 0
M  V30 1576 O 153.249 1.41831 -1.79154 0
M  V30 1577 C 153.459 -1.98314 -2.87181 0
M  V30 1578 C 154.807 -2.27107 -3.58758 0
M  V30 1579 O 155.831 -1.96205 -2.97291 0
M  V30 1580 O 154.69 -2.79736 -4.69479 0
M  V30 1581 H 151.784 -0.392384 -0.727986 0
M  V30 1582 H 154.33 -1.37874 -0.989382 0
M  V30 1583 H 153.102 -2.97399 -2.54302 0
M  V30 1584 H 152.725 -1.64068 -3.6217 0
M  V30 1585 N 153.722 1.14298 -1.08507 0
M  V30 1586 C 154.97 1.84993 -0.813763 0
M  V30 1587 C 155.291 1.83405 0.662393 0
M  V30 1588 O 154.561 1.28319 1.48024 0
M  V30 1589 H 153.141 0.684966 -0.298045 0
M  V30 1590 H 155.803 1.385 -1.37126 0
M  V30 1591 H 154.899 2.89788 -1.15884 0
M  V30 1592 N 155.201 0.870884 1.31352 0
M  V30 1593 C 156.426 0.495957 2.01383 0
M  V30 1594 C 156.851 -0.904324 1.64935 0
M  V30 1595 O 156.209 -1.59687 0.858466 0
M  V30 1596 C 156.257 0.661433 3.54482 0
M  V30 1597 O 155.361 -0.298851 4.11316 0
M  V30 1598 H 154.702 0.197158 0.634054 0
M  V30 1599 H 157.232 1.17455 1.67527 0
M  V30 1600 H 157.242 0.555072 4.04207 0
M  V30 1601 H 155.917 1.68246 3.8035 0
M  V30 1602 H 154.494 -0.147368 3.72609 0
M  V30 1603 N 156.679 -1.44442 0.630414 0
M  V30 1604 C 157.642 -2.29107 -0.0652523 0
M  V30 1605 C 158.642 -1.41002 -0.772995 0
M  V30 1606 O 159.832 -1.62881 -0.617692 0
M  V30 1607 C 156.964 -3.22564 -1.10296 0
M  V30 1608 H 158.157 -2.92103 0.679401 0
M  V30 1609 H 155.71 -1.51343 0.390517 0
M  V30 1610 H 156.445 -2.64416 -1.87762 0
M  V30 1611 H 156.23 -3.87491 -0.59941 0
M  V30 1612 H 157.72 -3.86167 -1.5895 0
M  V30 1613 N 158.157 -0.370918 -1.53173 0
M  V30 1614 C 159.405 0.216673 -2.00935 0
M  V30 1615 C 159.726 1.48845 -1.25977 0
M  V30 1616 O 158.996 1.92286 -0.374551 0
M  V30 1617 H 157.576 0.0830565 -0.742368 0
M  V30 1618 H 160.238 -0.49838 -1.8842 0
M  V30 1619 H 159.334 0.439893 -3.08984 0
M  V30 1620 N 159.635 1.57281 -0.100228 0
M  V30 1621 C 161.046 1.81725 0.428107 0
M  V30 1622 C 161.397 1.01619 1.67833 0
M  V30 1623 O 160.522 0.247098 2.14985 0
M  V30 1624 C 161.117 3.29617 0.78347 0
M  V30 1625 C 159.676 3.54808 1.25653 0
M  V30 1626 C 158.823 2.76118 0.255752 0
M  V30 1627 H 161.774 1.55324 -0.325608 0
M  V30 1628 H 161.795 3.4322 1.64256 0
M  V30 1629 H 161.307 3.87893 -0.12665 0
M  V30 1630 H 159.408 3.01868 2.18418 0
M  V30 1631 H 159.521 4.63443 1.21482 0
M  V30 1632 H 157.885 2.43745 0.738956 0
M  V30 1633 H 158.668 3.37145 -0.647136 0
M  V30 1634 N 161.113 -0.173488 1.56642 0
M  V30 1635 C 162.36 -0.890465 1.81871 0
M  V30 1636 C 162.688 -1.82339 0.67696 0
M  V30 1637 O 161.943 -1.92795 -0.335926 0
M  V30 1638 C 162.242 -1.72069 3.13252 0
M  V30 1639 C 161.908 -0.936878 4.41059 0
M  V30 1640 C 160.57 -0.720545 4.75775 0
M  V30 1641 C 162.922 -0.386919 5.19762 0
M  V30 1642 C 160.25 0.0568829 5.86672 0
M  V30 1643 C 162.602 0.37741 6.31473 0
M  V30 1644 C 161.266 0.604563 6.64757 0
M  V30 1645 H 160.536 -0.325844 0.665512 0
M  V30 1646 H 163.183 -0.155527 1.90867 0
M  V30 1647 H 161.488 -2.52496 2.99588 0
M  V30 1648 H 163.185 -2.27844 3.29982 0
M  V30 1649 H 159.775 -1.11553 4.13828 0
M  V30 1650 H 163.959 -0.541398 4.93338 0
M  V30 1651 H 159.215 0.242635 6.10918 0
M  V30 1652 H 163.389 0.810825 6.91664 0
M  V30 1653 H 161.016 1.20885 7.50527 0
M  V30 1654 N 162.591 -1.51276 -0.441967 0
M  V30 1655 C 163.837 -1.63958 -1.19355 0
M  V30 1656 C 164.17 -0.352543 -1.90973 0
M  V30 1657 O 163.445 0.647627 -1.83401 0
M  V30 1658 C 163.728 -2.83979 -2.21422 0
M  V30 1659 C 163.581 -4.22646 -1.53918 0
M  V30 1660 C 164.9 -2.99521 -3.22451 0
M  V30 1661 H 162.019 -0.596709 -0.432559 0
M  V30 1662 H 164.661 -1.83748 -0.483398 0
M  V30 1663 H 162.811 -2.67237 -2.81987 0
M  V30 1664 H 164.483 -4.51045 -0.967256 0
M  V30 1665 H 162.726 -4.25558 -0.841615 0
M  V30 1666 H 163.397 -5.02609 -2.28229 0
M  V30 1667 H 165.873 -3.14944 -2.71937 0
M  V30 1668 H 164.749 -3.85072 -3.91166 0
M  V30 1669 H 165.01 -2.11391 -3.88287 0
M  V30 1670 N 164.069 0.697108 -1.41344 0
M  V30 1671 C 165.316 1.45714 -1.40619 0
M  V30 1672 C 165.644 1.94494 -0.0147907 0
M  V30 1673 O 164.899 1.69794 0.973066 0
M  V30 1674 C 165.198 2.68553 -2.35826 0
M  V30 1675 C 164.864 2.38438 -3.82698 0
M  V30 1676 C 163.526 2.29936 -4.22709 0
M  V30 1677 C 165.878 2.13567 -4.75435 0
M  V30 1678 C 163.206 1.94656 -5.53467 0
M  V30 1679 C 165.558 1.79797 -6.06511 0
M  V30 1680 C 164.222 1.69789 -6.45545 0
M  V30 1681 H 163.492 0.533206 -0.51456 0
M  V30 1682 H 166.139 0.796901 -1.74131 0
M  V30 1683 H 164.444 3.39503 -1.95563 0
M  V30 1684 H 166.141 3.2669 -2.32539 0
M  V30 1685 H 162.731 2.4595 -3.51008 0
M  V30 1686 H 166.915 2.19082 -4.45328 0
M  V30 1687 H 162.171 1.8546 -5.82593 0
M  V30 1688 H 166.345 1.59572 -6.77872 0
M  V30 1689 H 163.972 1.4222 -7.46778 0
M  V30 1690 N 165.547 1.27147 0.931209 0
M  V30 1691 C 166.477 1.12081 2.04842 0
M  V30 1692 C 167.458 0.0232364 1.70084 0
M  V30 1693 O 168.643 0.197085 1.93197 0
M  V30 1694 C 165.773 0.76354 3.38803 0
M  V30 1695 C 164.727 1.81396 3.87659 0
M  V30 1696 C 164.053 1.31075 5.18385 0
M  V30 1697 C 165.353 3.21739 4.11438 0
M  V30 1698 H 167.047 2.05537 2.17703 0
M  V30 1699 H 164.593 0.989603 1.04608 0
M  V30 1700 H 166.546 0.644982 4.16435 0
M  V30 1701 H 165.27 -0.206727 3.25945 0
M  V30 1702 H 163.929 1.92136 3.12217 0
M  V30 1703 H 163.577 0.330037 5.01916 0
M  V30 1704 H 163.277 2.013 5.52044 0
M  V30 1705 H 164.801 1.20506 5.98591 0
M  V30 1706 H 166.215 3.14019 4.79651 0
M  V30 1707 H 164.612 3.89644 4.56397 0
M  V30 1708 H 165.682 3.67054 3.16859 0
M  V30 1709 N 167.025 -1.13721 1.09112 0
M  V30 1710 C 168.274 -1.84275 0.82009 0
M  V30 1711 C 168.587 -1.84253 -0.656509 0
M  V30 1712 O 169.793 -2.50668 -1.04296 0
M  V30 1713 C 168.249 -3.30825 1.41714 0
M  V30 1714 C 167.857 -3.39244 2.92605 0
M  V30 1715 C 169.601 -4.06443 1.22492 0
M  V30 1716 C 167.508 -4.80047 3.45411 0
M  V30 1717 H 166.438 -0.690387 0.30312 0
M  V30 1718 H 169.089 -1.28146 1.31343 0
M  V30 1719 H 167.471 -3.86737 0.851498 0
M  V30 1720 H 168.645 -2.93344 3.55367 0
M  V30 1721 H 166.96 -2.77088 3.10823 0
M  V30 1722 H 169.557 -5.10387 1.59402 0
M  V30 1723 H 169.9 -4.15972 0.165299 0
M  V30 1724 H 170.433 -3.56852 1.75788 0
M  V30 1725 H 167.172 -4.75709 4.50978 0
M  V30 1726 H 166.692 -5.26455 2.87411 0
M  V30 1727 H 168.371 -5.48957 3.42425 0
M  V30 1728 N 168.503 -0.877838 -1.30888 0
M  V30 1729 C 169.435 -0.296607 -2.27273 0
M  V30 1730 C 170.448 0.544799 -1.53414 0
M  V30 1731 O 171.637 0.365511 -1.74718 0
M  V30 1732 C 168.737 0.597481 -3.33592 0
M  V30 1733 C 167.91 -0.213251 -4.3688 0
M  V30 1734 C 166.969 0.610208 -5.2265 0
M  V30 1735 O 165.995 0.035441 -5.69189 0
M  V30 1736 N 167.197 1.92071 -5.47804 0
M  V30 1737 H 169.962 -1.12492 -2.77787 0
M  V30 1738 H 167.523 -0.740105 -1.43993 0
M  V30 1739 H 169.515 1.15425 -3.87891 0
M  V30 1740 H 168.085 1.32647 -2.83061 0
M  V30 1741 H 167.305 -0.951466 -3.82545 0
M  V30 1742 H 168.593 -0.769262 -5.02951 0
M  V30 1743 H 167.991 2.4107 -5.11763 0
M  V30 1744 H 166.548 2.42508 -6.05007 0
M  V30 1745 N 169.982 1.44106 -0.638065 0
M  V30 1746 C 171.207 2.0685 -0.150916 0
M  V30 1747 C 171.632 1.47417 1.16833 0
M  V30 1748 O 170.99 0.578264 1.71831 0
M  V30 1749 C 171.038 3.60555 -0.05708 0
M  V30 1750 O 170.142 4.00465 0.984972 0
M  V30 1751 H 169.483 0.658151 -0.0879399 0
M  V30 1752 H 172.013 1.84865 -0.876707 0
M  V30 1753 H 172.023 4.07789 0.131232 0
M  V30 1754 H 170.698 4.03193 -1.02021 0
M  V30 1755 H 169.275 3.64849 0.770672 0
M  V30 1756 N 171.46 0.379036 1.52974 0
M  V30 1757 C 172.423 -0.448865 2.24762 0
M  V30 1758 C 173.423 -0.998689 1.26027 0
M  V30 1759 O 174.613 -0.882313 1.50203 0
M  V30 1760 C 171.745 -1.62872 2.99476 0
M  V30 1761 H 172.938 0.179491 2.99362 0
M  V30 1762 H 170.491 0.13096 1.5575 0
M  V30 1763 H 171.226 -2.29479 2.29151 0
M  V30 1764 H 171.011 -1.24128 3.71934 0
M  V30 1765 H 172.501 -2.2151 3.5401 0
M  V30 1766 N 172.938 -1.57226 0.108567 0
M  V30 1767 C 174.186 -1.94448 -0.550853 0
M  V30 1768 C 174.507 -0.992074 -1.67878 0
M  V30 1769 O 173.777 -0.0465 -1.95845 0
M  V30 1770 H 172.357 -0.717897 -0.206479 0
M  V30 1771 H 175.019 -1.94112 0.175062 0
M  V30 1772 H 174.115 -2.97218 -0.952259 0
M  V30 1773 N 174.416 0.165178 -1.56732 0
M  V30 1774 C 175.346 1.20651 -1.99914 0
M  V30 1775 C 176.327 1.45827 -0.875705 0
M  V30 1776 O 177.512 1.57057 -1.14223 0
M  V30 1777 C 174.642 2.54401 -2.36427 0
M  V30 1778 C 173.596 2.43782 -3.51787 0
M  V30 1779 C 172.922 3.82078 -3.7406 0
M  V30 1780 C 174.222 1.93732 -4.85041 0
M  V30 1781 H 175.916 0.847534 -2.87154 0
M  V30 1782 H 173.462 0.40625 -1.38151 0
M  V30 1783 H 175.415 3.27458 -2.65234 0
M  V30 1784 H 174.139 2.92098 -1.46103 0
M  V30 1785 H 172.798 1.73178 -3.23117 0
M  V30 1786 H 172.446 4.17179 -2.81017 0
M  V30 1787 H 172.146 3.7584 -4.51684 0
M  V30 1788 H 173.67 4.56712 -4.05274 0
M  V30 1789 H 175.084 2.56569 -5.12684 0
M  V30 1790 H 173.481 1.98428 -5.66345 0
M  V30 1791 H 174.551 0.891962 -4.76626 0
M  V30 1792 N 175.894 1.51508 0.433938 0
M  V30 1793 C 176.826 1.69266 1.54537 0
M  V30 1794 C 177.839 0.573276 1.52373 0
M  V30 1795 O 179.028 0.847698 1.57087 0
M  V30 1796 C 176.128 1.69524 2.93453 0
M  V30 1797 C 175.301 2.98101 3.20085 0
M  V30 1798 C 174.36 2.90502 4.38742 0
M  V30 1799 O 173.386 3.64442 4.3723 0
M  V30 1800 N 174.588 2.06586 5.42496 0
M  V30 1801 H 177.353 2.65145 1.39708 0
M  V30 1802 H 174.914 1.49437 0.622922 0
M  V30 1803 H 176.906 1.62004 3.70859 0
M  V30 1804 H 175.476 0.812245 3.01863 0
M  V30 1805 H 174.696 3.19464 2.30947 0
M  V30 1806 H 175.984 3.83207 3.34708 0
M  V30 1807 H 175.382 1.45896 5.46563 0
M  V30 1808 H 173.939 2.04943 6.18742 0
M  V30 1809 N 177.372 -0.689602 1.41712 0
M  V30 1810 C 178.282 -1.83314 1.46401 0
M  V30 1811 C 179.298 -1.7036 0.35405 0
M  V30 1812 O 180.474 -1.92171 0.602692 0
M  V30 1813 C 177.539 -3.19344 1.34982 0
M  V30 1814 C 176.6 -3.44363 2.56344 0
M  V30 1815 C 175.833 -4.73904 2.45461 0
M  V30 1816 O 176.056 -5.508 1.48241 0
M  V30 1817 O 174.99 -4.99839 3.35328 0
M  V30 1818 H 178.816 -1.82314 2.42889 0
M  V30 1819 H 176.401 -0.843438 1.23315 0
M  V30 1820 H 178.283 -4.00547 1.3092 0
M  V30 1821 H 176.958 -3.21014 0.41612 0
M  V30 1822 H 175.865 -2.63067 2.65982 0
M  V30 1823 H 177.198 -3.47512 3.48563 0
M  V30 1824 N 178.85 -1.27639 -0.924453 0
M  V30 1825 C 179.782 -1.06442 -2.02985 0
M  V30 1826 C 180.795 -0.0194771 -1.62788 0
M  V30 1827 O 181.984 -0.261388 -1.76576 0
M  V30 1828 C 179.084 -0.59327 -3.33667 0
M  V30 1829 C 178.257 -1.71123 -4.02537 0
M  V30 1830 C 177.316 -1.23527 -5.11495 0
M  V30 1831 O 176.342 -1.93553 -5.35281 0
M  V30 1832 N 177.544 -0.0926678 -5.80426 0
M  V30 1833 H 180.309 -2.01633 -2.2173 0
M  V30 1834 H 177.87 -1.19248 -1.09505 0
M  V30 1835 H 179.862 -0.258686 -4.03872 0
M  V30 1836 H 178.432 0.265502 -3.1147 0
M  V30 1837 H 177.652 -2.21593 -3.26022 0
M  V30 1838 H 178.94 -2.46145 -4.45298 0
M  V30 1839 H 178.338 0.491741 -5.63559 0
M  V30 1840 H 176.895 0.182714 -6.51544 0
M  V30 1841 N 180.328 1.1314 -1.09713 0
M  V30 1842 C 181.238 2.22242 -0.751367 0
M  V30 1843 C 182.254 1.72224 0.247938 0
M  V30 1844 O 183.43 2.01205 0.0885463 0
M  V30 1845 C 180.495 3.46231 -0.180274 0
M  V30 1846 C 179.556 4.11125 -1.2359 0
M  V30 1847 C 178.789 5.29195 -0.691966 0
M  V30 1848 O 179.012 5.68342 0.48414 0
M  V30 1849 O 177.946 5.84214 -1.44838 0
M  V30 1850 H 181.772 2.54197 -1.66186 0
M  V30 1851 H 179.357 1.21331 -0.871735 0
M  V30 1852 H 181.239 4.21185 0.134739 0
M  V30 1853 H 179.914 3.1597 0.703185 0
M  V30 1854 H 178.821 3.37985 -1.60366 0
M  V30 1855 H 180.154 4.45524 -2.09211 0
M  V30 1856 N 181.806 0.884767 1.30421 0
M  V30 1857 C 182.769 0.356277 2.26414 0
M  V30 1858 C 183.769 -0.501124 1.52792 0
M  V30 1859 O 184.959 -0.30831 1.7145 0
M  V30 1860 C 182.091 -0.492316 3.37326 0
M  V30 1861 H 183.284 1.20389 2.74675 0
M  V30 1862 H 180.837 0.661607 1.41607 0
M  V30 1863 H 181.572 -1.36052 2.94381 0
M  V30 1864 H 181.357 0.121832 3.91911 0
M  V30 1865 H 182.847 -0.853871 4.08777 0
M  V30 1866 N 183.284 -1.43765 0.645699 0
M  V30 1867 C 184.247 -2.29163 -0.0409488 0
M  V30 1868 C 185.247 -1.41813 -0.757996 0
M  V30 1869 O 186.437 -1.63527 -0.600382 0
M  V30 1870 C 183.569 -3.23716 -1.06869 0
M  V30 1871 H 184.762 -2.91366 0.710345 0
M  V30 1872 H 182.315 -1.5092 0.406547 0
M  V30 1873 H 183.05 -2.66393 -1.84947 0
M  V30 1874 H 182.835 -3.88105 -0.558277 0
M  V30 1875 H 184.325 -3.87831 -1.54845 0
M  V30 1876 N 184.763 -0.387143 -1.52771 0
M  V30 1877 C 185.71 0.449048 -2.26389 0
M  V30 1878 C 186.68 1.05961 -1.27912 0
M  V30 1879 O 187.865 1.08804 -1.56737 0
M  V30 1880 C 185.005 1.57155 -3.0724 0
M  V30 1881 C 184.118 0.984066 -4.20643 0
M  V30 1882 C 183.253 2.07745 -4.88892 0
M  V30 1883 C 182.292 1.46574 -5.94292 0
M  V30 1884 N 181.429 2.49834 -6.56146 0
M  V30 1885 H 186.269 -0.185205 -2.97424 0
M  V30 1886 H 183.806 -0.103164 -1.46738 0
M  V30 1887 H 185.764 2.23309 -3.52405 0
M  V30 1888 H 184.394 2.17615 -2.38419 0
M  V30 1889 H 183.446 0.212193 -3.79808 0
M  V30 1890 H 184.758 0.497029 -4.96318 0
M  V30 1891 H 183.912 2.81673 -5.3735 0
M  V30 1892 H 182.651 2.59807 -4.12737 0
M  V30 1893 H 181.656 0.711696 -5.45174 0
M  V30 1894 H 182.881 0.953088 -6.72379 0
M  V30 1895 H 180.827 3.0107 -5.82832 0
M  V30 1896 H 180.744 2.05879 -7.27427 0
M  V30 1897 H 182.012 3.23399 -7.09249 0
M  V30 1898 N 186.241 1.57166 -0.116904 0
M  V30 1899 C 187.188 2.15202 0.83408 0
M  V30 1900 C 188.158 1.07644 1.26499 0
M  V30 1901 O 189.343 1.35541 1.34288 0
M  V30 1902 C 186.483 2.75405 2.07957 0
M  V30 1903 C 185.596 3.97264 1.69721 0
M  V30 1904 C 184.731 4.45561 2.89221 0
M  V30 1905 C 183.77 5.59956 2.47215 0
M  V30 1906 N 182.907 6.03006 3.59622 0
M  V30 1907 H 187.747 2.96141 0.332335 0
M  V30 1908 H 185.284 1.46309 0.152349 0
M  V30 1909 H 187.242 3.08439 2.80929 0
M  V30 1910 H 185.872 1.97159 2.55594 0
M  V30 1911 H 184.924 3.70404 0.866316 0
M  V30 1912 H 186.236 4.80226 1.34849 0
M  V30 1913 H 185.39 4.80493 3.7042 0
M  V30 1914 H 184.129 3.61544 3.27318 0
M  V30 1915 H 183.134 5.2463 1.64448 0
M  V30 1916 H 184.359 6.45738 2.10238 0
M  V30 1917 H 182.305 5.21931 3.97396 0
M  V30 1918 H 182.222 6.80819 3.28667 0
M  V30 1919 H 183.49 6.42576 4.41267 0
M  V30 1920 N 187.719 -0.156864 1.56817 0
M  V30 1921 C 188.966 -0.871125 1.82805 0
M  V30 1922 C 189.294 -1.81611 0.696262 0
M  V30 1923 O 188.549 -1.93141 -0.315459 0
M  V30 1924 C 188.848 -1.68737 3.1506 0
M  V30 1925 C 188.514 -0.890045 4.42028 0
M  V30 1926 C 187.176 -0.670042 4.76512 0
M  V30 1927 C 189.528 -0.331769 5.20143 0
M  V30 1928 C 186.856 0.119104 5.86579 0
M  V30 1929 C 189.208 0.444365 6.31037 0
M  V30 1930 C 187.872 0.675035 6.64078 0
M  V30 1931 H 187.142 -0.318767 0.668931 0
M  V30 1932 H 189.789 -0.135274 1.91022 0
M  V30 1933 H 188.094 -2.49304 3.0225 0
M  V30 1934 H 189.791 -2.24331 3.3238 0
M  V30 1935 H 186.381 -1.07157 4.14988 0
M  V30 1936 H 190.565 -0.489043 4.93885 0
M  V30 1937 H 185.821 0.307417 6.10627 0
M  V30 1938 H 189.995 0.884139 6.90765 0
M  V30 1939 H 187.622 1.28839 7.49203 0
M  V30 1940 N 189.197 -1.51736 -0.425897 0
M  V30 1941 C 190.446 -1.64201 -1.17136 0
M  V30 1942 C 190.759 -0.369705 -1.92074 0
M  V30 1943 O 191.965 -0.373898 -2.68913 0
M  V30 1944 C 190.421 -2.90035 -2.13091 0
M  V30 1945 C 190.029 -4.24312 -1.43747 0
M  V30 1946 C 191.773 -3.1186 -2.87999 0
M  V30 1947 C 189.68 -5.41285 -2.38253 0
M  V30 1948 H 188.61 -0.611624 -0.440944 0
M  V30 1949 H 191.261 -1.78212 -0.437328 0
M  V30 1950 H 189.643 -2.69684 -2.89977 0
M  V30 1951 H 190.817 -4.55086 -0.723408 0
M  V30 1952 H 189.132 -4.08456 -0.809465 0
M  V30 1953 H 191.729 -3.96427 -3.58817 0
M  V30 1954 H 192.072 -2.25403 -3.49999 0
M  V30 1955 H 192.605 -3.32605 -2.18217 0
M  V30 1956 H 189.344 -6.30037 -1.80925 0
M  V30 1957 H 188.864 -5.14872 -3.0768 0
M  V30 1958 H 190.543 -5.73694 -2.99139 0
M  V30 1959 N 190.675 0.682077 -1.42076 0
M  V30 1960 C 192.091 0.994324 -1.24841 0
M  V30 1961 C 192.291 2.0096 -0.147389 0
M  V30 1962 O 191.347 2.47822 0.483782 0
M  V30 1963 C 192.66 1.50607 -2.60265 0
M  V30 1964 C 194.208 1.62421 -2.6756 0
M  V30 1965 C 194.683 2.16994 -4.03333 0
M  V30 1966 N 196.174 2.24337 -4.0525 0
M  V30 1967 C 196.909 2.67621 -5.07116 0
M  V30 1968 N 196.405 3.1041 -6.19368 0
M  V30 1969 N 198.198 2.67305 -4.94474 0
M  V30 1970 H 190.349 0.00973908 -2.12398 0
M  V30 1971 H 192.612 0.0668593 -0.945639 0
M  V30 1972 H 192.318 0.834583 -3.41654 0
M  V30 1973 H 192.192 2.48602 -2.83684 0
M  V30 1974 H 194.579 2.28678 -1.86521 0
M  V30 1975 H 194.66 0.629352 -2.47937 0
M  V30 1976 H 194.304 1.51349 -4.84826 0
M  V30 1977 H 194.234 3.17258 -4.20304 0
M  V30 1978 H 196.725 1.94158 -3.24209 0
M  V30 1979 H 197.038 3.42103 -6.92954 0
M  V30 1980 H 195.383 3.08286 -6.22884 0
M  V30 1981 H 198.574 2.33233 -4.05857 0
M  V30 1982 H 198.747 3.00718 -5.73997 0
M  V30 1983 N 192.153 1.28127 0.917671 0
M  V30 1984 C 193.402 1.14432 1.66097 0
M  V30 1985 C 193.715 -0.307247 1.93172 0
M  V30 1986 O 194.921 -0.565259 2.65551 0
M  V30 1987 C 193.377 2.00015 2.99202 0
M  V30 1988 C 192.985 3.49889 2.79789 0
M  V30 1989 C 194.729 1.94996 3.77064 0
M  V30 1990 C 192.636 4.27636 4.08511 0
M  V30 1991 H 191.566 0.424662 0.62304 0
M  V30 1992 H 194.217 1.52628 1.01868 0
M  V30 1993 H 192.599 1.54672 3.64544 0
M  V30 1994 H 193.773 4.03162 2.23152 0
M  V30 1995 H 192.088 3.56392 2.15345 0
M  V30 1996 H 194.685 2.50354 4.72469 0
M  V30 1997 H 195.028 0.925819 4.05875 0
M  V30 1998 H 195.561 2.38287 3.18534 0
M  V30 1999 H 192.3 5.30615 3.84874 0
M  V30 2000 H 191.82 3.79137 4.64774 0
M  V30 2001 H 193.499 4.37346 4.76799 0
M  V30 2002 N 193.631 -1.12557 1.10312 0
M  V30 2003 C 194.578 -2.18247 0.750781 0
M  V30 2004 C 195.548 -1.63853 -0.272293 0
M  V30 2005 O 196.733 -1.90195 -0.151862 0
M  V30 2006 C 193.873 -3.44591 0.187379 0
M  V30 2007 C 192.986 -4.13046 1.2656 0
M  V30 2008 C 192.121 -5.27034 0.663978 0
M  V30 2009 C 191.16 -5.87353 1.72287 0
M  V30 2010 N 190.297 -6.92757 1.1416 0
M  V30 2011 H 195.137 -2.47732 1.65628 0
M  V30 2012 H 192.674 -1.21629 0.827337 0
M  V30 2013 H 194.632 -4.16904 -0.157148 0
M  V30 2014 H 193.262 -3.15527 -0.681355 0
M  V30 2015 H 192.314 -3.38924 1.72727 0
M  V30 2016 H 193.626 -4.53947 2.06721 0
M  V30 2017 H 192.78 -6.06104 0.268824 0
M  V30 2018 H 191.519 -4.87407 -0.169082 0
M  V30 2019 H 190.524 -5.06971 2.12746 0
M  V30 2020 H 191.749 -6.29051 2.55875 0
M  V30 2021 H 189.695 -6.5517 0.329984 0
M  V30 2022 H 189.612 -7.3225 1.88007 0
M  V30 2023 H 190.88 -7.75658 0.772956 0
M  V30 2024 N 195.109 -0.891671 -1.2995 0
M  V30 2025 C 196.525 -0.58662 -1.48428 0
M  V30 2026 C 196.725 0.873951 -1.81561 0
M  V30 2027 O 195.781 1.65471 -1.90724 0
M  V30 2028 C 197.094 -1.50553 -2.60296 0
M  V30 2029 C 198.642 -1.50988 -2.74175 0
M  V30 2030 C 199.117 -2.41488 -3.89163 0
M  V30 2031 N 200.608 -2.39489 -3.96483 0
M  V30 2032 C 201.343 -3.06223 -4.84784 0
M  V30 2033 N 200.839 -3.82206 -5.77833 0
M  V30 2034 N 202.632 -2.95421 -4.78208 0
M  V30 2035 H 194.783 -1.83644 -1.06718 0
M  V30 2036 H 197.046 -0.786455 -0.529332 0
M  V30 2037 H 196.752 -2.54581 -2.42654 0
M  V30 2038 H 196.626 -1.22008 -3.56923 0
M  V30 2039 H 199.013 -0.47708 -2.91218 0
M  V30 2040 H 199.094 -1.83567 -1.78148 0
M  V30 2041 H 198.738 -3.44857 -3.72876 0
M  V30 2042 H 198.668 -2.06222 -4.84541 0
M  V30 2043 H 201.159 -1.84278 -3.29924 0
M  V30 2044 H 201.472 -4.302 -6.41988 0
M  V30 2045 H 199.817 -3.86313 -5.77743 0
M  V30 2046 H 203.008 -2.35581 -4.04499 0
M  V30 2047 H 203.181 -3.47704 -5.46814 0
M  V30 2048 N 196.587 1.43421 -0.653314 0
M  V30 2049 C 197.497 2.34568 0.0388565 0
M  V30 2050 C 198.513 1.53888 0.81207 0
M  V30 2051 O 199.689 1.86539 0.759294 0
M  V30 2052 C 196.754 3.32167 0.993269 0
M  V30 2053 C 195.815 4.28751 0.216977 0
M  V30 2054 C 195.048 5.21688 1.12593 0
M  V30 2055 O 195.271 5.19052 2.36519 0
M  V30 2056 O 194.205 5.98919 0.598284 0
M  V30 2057 H 198.031 2.95251 -0.711386 0
M  V30 2058 H 195.616 1.43564 -0.413502 0
M  V30 2059 H 197.498 3.92183 1.54176 0
M  V30 2060 H 196.173 2.73987 1.72374 0
M  V30 2061 H 195.08 3.72215 -0.375101 0
M  V30 2062 H 196.413 4.89913 -0.473924 0
M  V30 2063 N 198.065 0.39524 1.52563 0
M  V30 2064 C 199.311 -0.185318 2.01952 0
M  V30 2065 C 199.644 -1.45964 1.28095 0
M  V30 2066 O 198.919 -1.90689 0.38315 0
M  V30 2067 C 199.202 -0.447193 3.57312 0
M  V30 2068 C 199.055 0.842828 4.41833 0
M  V30 2069 C 200.374 -1.23529 4.22408 0
M  V30 2070 H 197.493 -0.0658788 0.73405 0
M  V30 2071 H 200.135 0.525975 1.82575 0
M  V30 2072 H 198.285 -1.05312 3.73954 0
M  V30 2073 H 199.957 1.4795 4.36931 0
M  V30 2074 H 198.2 1.45686 4.08605 0
M  V30 2075 H 198.871 0.614165 5.48573 0
M  V30 2076 H 201.347 -0.722445 4.0978 0
M  V30 2077 H 200.223 -1.38727 5.3108 0
M  V30 2078 H 200.484 -2.25213 3.80436 0
M  V30 2079 N 199.544 -1.57102 0.125237 0
M  V30 2080 C 200.769 -2.0019 -0.542101 0
M  V30 2081 C 201.194 -1.00449 -1.59034 0
M  V30 2082 O 200.552 0.0229423 -1.81285 0
M  V30 2083 C 200.6 -3.42129 -1.13929 0
M  V30 2084 O 199.704 -3.45307 -2.2547 0
M  V30 2085 H 199.045 -0.650171 -0.134812 0
M  V30 2086 H 201.575 -2.03461 0.215553 0
M  V30 2087 H 201.585 -3.80471 -1.4733 0
M  V30 2088 H 200.26 -4.14237 -0.371531 0
M  V30 2089 H 198.837 -3.1879 -1.93462 0
M  V30 2090 N 201.022 0.148545 -1.56898 0
M  V30 2091 C 202.268 0.862694 -1.83536 0
M  V30 2092 C 202.601 1.80889 -0.706604 0
M  V30 2093 O 201.876 1.92328 0.289885 0
M  V30 2094 C 202.159 1.63853 -3.20662 0
M  V30 2095 C 202.012 0.713925 -4.44098 0
M  V30 2096 C 203.331 2.60133 -3.54991 0
M  V30 2097 H 200.45 0.312179 -0.667618 0
M  V30 2098 H 203.092 0.127953 -1.89569 0
M  V30 2099 H 201.242 2.26489 -3.1565 0
M  V30 2100 H 202.914 0.098686 -4.61194 0
M  V30 2101 H 201.157 0.0234019 -4.33794 0
M  V30 2102 H 201.828 1.29278 -5.36648 0
M  V30 2103 H 204.304 2.07616 -3.60603 0
M  V30 2104 H 203.18 3.11468 -4.51972 0
M  V30 2105 H 203.441 3.41417 -2.80868 0
M  V30 2106 N 202.5 1.5196 0.417844 0
M  V30 2107 C 203.41 1.77554 1.53336 0
M  V30 2108 C 204.426 0.660655 1.6097 0
M  V30 2109 O 205.602 0.945099 1.77848 0
M  V30 2110 C 202.667 1.91291 2.89152 0
M  V30 2111 C 201.728 3.15183 2.91475 0
M  V30 2112 C 200.961 3.28256 4.20813 0
M  V30 2113 O 201.184 2.46798 5.14244 0
M  V30 2114 O 200.118 4.21356 4.29817 0
M  V30 2115 H 203.944 2.7222 1.34647 0
M  V30 2116 H 201.529 1.36698 0.602828 0
M  V30 2117 H 203.411 2.02199 3.69721 0
M  V30 2118 H 202.086 0.998129 3.07927 0
M  V30 2119 H 200.993 3.09739 2.09791 0
M  V30 2120 H 202.326 4.06414 2.77648 0
M  V30 2121 N 203.978 -0.674533 1.42435 0
M  V30 2122 C 204.888 -1.81751 1.48337 0
M  V30 2123 C 205.904 -1.69975 0.372099 0
M  V30 2124 O 207.08 -1.91521 0.62304 0
M  V30 2125 C 204.145 -3.17895 1.38361 0
M  V30 2126 C 203.206 -3.41625 2.59982 0
M  V30 2127 C 202.439 -4.71274 2.50473 0
M  V30 2128 O 202.662 -5.49197 1.54075 0
M  V30 2129 O 201.596 -4.96254 3.4061 0
M  V30 2130 H 205.422 -1.79728 2.44809 0
M  V30 2131 H 203.007 -0.830312 1.24202 0
M  V30 2132 H 204.889 -3.99136 1.35161 0
M  V30 2133 H 203.564 -3.20555 0.450144 0
M  V30 2134 H 202.471 -2.60231 2.68757 0
M  V30 2135 H 203.804 -3.43796 3.52229 0
M  V30 2136 N 205.456 -1.28612 -0.910864 0
M  V30 2137 C 206.704 -1.15705 -1.65701 0
M  V30 2138 C 207.025 0.29416 -1.92769 0
M  V30 2139 O 206.295 1.20331 -1.54588 0
M  V30 2140 H 204.875 -0.425216 -0.614167 0
M  V30 2141 H 207.537 -1.61381 -1.0928 0
M  V30 2142 H 206.633 -1.6988 -2.61815 0
M  V30 2143 N 206.934 1.1197 -1.10907 0
M  V30 2144 C 208.211 1.79959 -0.766432 0
M  V30 2145 C 208.591 1.97466 0.746363 0
M  V30 2146 O 207.939 1.55491 1.67436 0
M  V30 2147 C 208.149 3.14009 -1.52314 0
M  V30 2148 C 209.497 3.89134 -1.69883 0
M  V30 2149 O 210.521 3.2368 -1.48692 0
M  V30 2150 O 209.38 5.06572 -2.05054 0
M  V30 2151 H 206.474 0.779208 -0.277062 0
M  V30 2152 H 209.02 1.18762 -1.21217 0
M  V30 2153 H 207.792 2.96587 -2.55249 0
M  V30 2154 H 207.415 3.82915 -1.07059 0
M  V30 2155 N 208.412 0.89855 1.29475 0
M  V30 2156 C 209.359 0.373819 2.27753 0
M  V30 2157 C 210.329 -0.543444 1.56958 0
M  V30 2158 O 211.514 -0.468934 1.84948 0
M  V30 2159 C 208.654 -0.393648 3.42848 0
M  V30 2160 C 207.767 0.554379 4.28428 0
M  V30 2161 C 206.902 -0.230026 5.30702 0
M  V30 2162 C 205.941 0.712599 6.07938 0
M  V30 2163 N 205.078 -0.0373283 7.0209 0
M  V30 2164 H 209.918 1.21699 2.72017 0
M  V30 2165 H 207.455 0.611456 1.33789 0
M  V30 2166 H 209.413 -0.85466 4.08352 0
M  V30 2167 H 208.043 -1.20128 2.99615 0
M  V30 2168 H 207.095 1.13391 3.63107 0
M  V30 2169 H 208.407 1.27597 4.82204 0
M  V30 2170 H 207.561 -0.752288 6.02018 0
M  V30 2171 H 206.3 -0.984758 4.77654 0
M  V30 2172 H 205.305 1.24637 5.35486 0
M  V30 2173 H 206.53 1.46664 6.63074 0
M  V30 2174 H 204.476 -0.774348 6.51414 0
M  V30 2175 H 204.393 0.624374 7.53417 0
M  V30 2176 H 205.661 -0.539891 7.77628 0
M  V30 2177 N 209.89 -1.43072 0.660911 0
M  V30 2178 C 211.306 -1.56169 0.329173 0
M  V30 2179 C 211.506 -1.64317 -1.16629 0
M  V30 2180 O 210.562 -1.60245 -1.95135 0
M  V30 2181 C 211.875 -2.81873 1.04729 0
M  V30 2182 C 213.423 -2.95627 1.02828 0
M  V30 2183 C 213.898 -4.24174 1.72744 0
M  V30 2184 N 215.389 -4.31055 1.69545 0
M  V30 2185 C 216.124 -5.29304 2.20511 0
M  V30 2186 N 215.62 -6.33786 2.79799 0
M  V30 2187 N 217.413 -5.21008 2.10966 0
M  V30 2188 H 209.564 -1.36027 1.63127 0
M  V30 2189 H 211.827 -0.653823 0.686454 0
M  V30 2190 H 211.533 -2.81942 2.10242 0
M  V30 2191 H 211.407 -3.72338 0.603702 0
M  V30 2192 H 213.794 -2.95094 -0.0184742 0
M  V30 2193 H 213.875 -2.06431 1.51063 0
M  V30 2194 H 213.519 -4.25467 2.7738 0
M  V30 2195 H 213.449 -5.1228 1.2197 0
M  V30 2196 H 215.94 -3.56174 1.26288 0
M  V30 2197 H 216.253 -7.05086 3.16344 0
M  V30 2198 H 214.598 -6.34387 2.83863 0
M  V30 2199 H 217.789 -4.38301 1.64347 0
M  V30 2200 H 217.962 -5.97416 2.50993 0
M  V30 2201 N 211.368 -0.403325 -1.52352 0
M  V30 2202 C 212.331 0.413051 -2.25447 0
M  V30 2203 C 213.331 0.978513 -1.276 0
M  V30 2204 O 214.521 0.858305 -1.51587 0
M  V30 2205 C 211.653 1.58087 -3.02029 0
M  V30 2206 H 212.846 -0.227094 -2.99039 0
M  V30 2207 H 210.399 -0.155722 -1.55522 0
M  V30 2208 H 211.134 2.25804 -2.32772 0
M  V30 2209 H 210.919 1.18195 -3.73861 0
M  V30 2210 H 212.409 2.1585 -3.57489 0
M  V30 2211 N 212.846 1.57033 -0.133567 0
M  V30 2212 C 214.092 1.95976 0.521649 0
M  V30 2213 C 214.425 1.01779 1.65393 0
M  V30 2214 O 213.7 0.0576581 1.94415 0
M  V30 2215 C 213.983 3.44738 1.04057 0
M  V30 2216 C 213.836 4.49711 -0.0892897 0
M  V30 2217 C 215.155 3.95682 1.92675 0
M  V30 2218 H 212.274 0.712579 0.188149 0
M  V30 2219 H 214.916 1.88813 -0.212076 0
M  V30 2220 H 213.066 3.50973 1.66583 0
M  V30 2221 H 214.738 4.55565 -0.725152 0
M  V30 2222 H 212.981 4.27261 -0.750378 0
M  V30 2223 H 213.652 5.51099 0.315284 0
M  V30 2224 H 216.128 3.91841 1.39998 0
M  V30 2225 H 215.004 5.00262 2.25897 0
M  V30 2226 H 215.265 3.37239 2.85872 0
M  V30 2227 N 214.325 -0.140222 1.56975 0
M  V30 2228 C 215.572 -0.851687 1.83719 0
M  V30 2229 C 215.9 -1.80862 0.715485 0
M  V30 2230 O 215.155 -1.93464 -0.294956 0
M  V30 2231 C 215.454 -1.65386 3.16832 0
M  V30 2232 C 215.12 -0.843112 4.42947 0
M  V30 2233 C 213.782 -0.619464 4.77196 0
M  V30 2234 C 216.134 -0.276582 5.20466 0
M  V30 2235 C 213.462 0.181312 5.8642 0
M  V30 2236 C 215.814 0.51127 6.30531 0
M  V30 2237 C 214.478 0.745432 6.63325 0
M  V30 2238 H 213.748 -0.311654 0.672274 0
M  V30 2239 H 216.395 -0.115006 1.91154 0
M  V30 2240 H 214.7 -2.46084 3.04877 0
M  V30 2241 H 216.397 -2.20793 3.34741 0
M  V30 2242 H 212.987 -1.0275 4.16101 0
M  V30 2243 H 217.171 -0.436632 4.94376 0
M  V30 2244 H 212.427 0.372165 6.10266 0
M  V30 2245 H 216.601 0.957354 6.89788 0
M  V30 2246 H 214.228 1.36778 7.47794 0
M  V30 2247 N 215.803 -1.52179 -0.40978 0
M  V30 2248 C 217.049 -1.66453 -1.15851 0
M  V30 2249 C 217.382 -0.392972 -1.90182 0
M  V30 2250 O 216.657 0.608579 -1.84734 0
M  V30 2251 C 216.94 -2.88612 -2.15349 0
M  V30 2252 C 216.793 -4.25815 -1.44918 0
M  V30 2253 C 218.112 -3.06294 -3.16026 0
M  V30 2254 H 215.231 -0.60575 -0.419805 0
M  V30 2255 H 217.873 -1.84732 -0.444314 0
M  V30 2256 H 216.023 -2.73158 -2.76255 0
M  V30 2257 H 217.695 -4.52995 -0.871365 0
M  V30 2258 H 215.938 -4.27247 -0.751159 0
M  V30 2259 H 216.609 -5.07337 -2.17516 0
M  V30 2260 H 219.085 -3.20641 -2.65195 0
M  V30 2261 H 217.961 -3.93283 -3.8291 0
M  V30 2262 H 218.222 -2.19579 -3.83715 0
M  V30 2263 N 217.281 0.66697 -1.42791 0
M  V30 2264 C 218.692 1.2478 -1.38877 0
M  V30 2265 C 219.043 1.96012 -0.0859426 0
M  V30 2266 O 218.168 2.00463 0.815081 0
M  V30 2267 C 218.763 2.26938 -2.51564 0
M  V30 2268 C 217.322 2.80529 -2.50959 0
M  V30 2269 C 216.469 1.54965 -2.29959 0
M  V30 2270 H 219.42 0.459853 -1.51892 0
M  V30 2271 H 219.441 3.08834 -2.22265 0
M  V30 2272 H 218.953 1.75065 -3.46372 0
M  V30 2273 H 217.054 3.36502 -1.59991 0
M  V30 2274 H 217.167 3.29012 -3.48265 0
M  V30 2275 H 215.531 1.81817 -1.78366 0
M  V30 2276 H 216.314 1.05047 -3.26833 0
M  V30 2277 N 218.759 1.29093 0.90403 0
M  V30 2278 C 220.006 1.16813 1.65411 0
M  V30 2279 C 220.334 -0.28128 1.92455 0
M  V30 2280 O 219.589 -1.22006 1.53013 0
M  V30 2281 C 219.888 1.92224 3.01305 0
M  V30 2282 C 219.554 3.41968 2.93885 0
M  V30 2283 C 218.216 3.82807 2.91569 0
M  V30 2284 C 220.568 4.37409 2.83413 0
M  V30 2285 C 217.896 5.1741 2.76594 0
M  V30 2286 C 220.248 5.72097 2.69977 0
M  V30 2287 C 218.912 6.12199 2.66024 0
M  V30 2288 H 218.182 0.42745 0.605283 0
M  V30 2289 H 220.829 1.59981 1.05254 0
M  V30 2290 H 219.134 1.41635 3.65304 0
M  V30 2291 H 220.831 1.80131 3.58265 0
M  V30 2292 H 217.421 3.09504 2.96488 0
M  V30 2293 H 221.605 4.06813 2.84283 0
M  V30 2294 H 216.861 5.47596 2.71935 0
M  V30 2295 H 221.035 6.45704 2.60844 0
M  V30 2296 H 218.662 7.16448 2.54178 0
M  V30 2297 N 220.237 -1.11381 1.11499 0
M  V30 2298 C 221.514 -1.7955 0.775965 0
M  V30 2299 C 221.894 -1.97859 -0.73588 0
M  V30 2300 O 221.242 -1.56376 -1.66609 0
M  V30 2301 C 221.452 -3.13196 1.53977 0
M  V30 2302 C 222.8 -3.88227 1.71944 0
M  V30 2303 O 223.824 -3.22887 1.50407 0
M  V30 2304 O 222.683 -5.05477 2.07738 0
M  V30 2305 H 219.777 -0.777728 0.28119 0
M  V30 2306 H 222.323 -1.18118 1.21845 0
M  V30 2307 H 221.095 -2.95229 2.56818 0
M  V30 2308 H 220.718 -3.82342 1.09088 0
M  V30 2309 N 221.715 -0.905404 -1.28997 0
M  V30 2310 C 222.963 -0.533192 -1.9494 0
M  V30 2311 C 223.284 0.924618 -1.71685 0
M  V30 2312 O 222.554 1.65268 -1.05183 0
M  V30 2313 H 221.134 -0.194194 -0.721317 0
M  V30 2314 H 223.796 -1.15294 -1.57141 0
M  V30 2315 H 222.892 -0.72059 -3.03667 0
M  V30 2316 N 223.193 1.4272 -0.668489 0
M  V30 2317 C 224.44 2.01624 -0.18814 0
M  V30 2318 C 224.768 1.5282 1.20317 0
M  V30 2319 O 224.023 0.718323 1.8204 0
M  V30 2320 C 224.322 3.57021 -0.164499 0
M  V30 2321 C 223.988 4.25232 -1.49962 0
M  V30 2322 C 222.65 4.4358 -1.8652 0
M  V30 2323 C 225.002 4.63727 -2.37921 0
M  V30 2324 C 222.33 4.97694 -3.10674 0
M  V30 2325 C 224.682 5.19218 -3.6138 0
M  V30 2326 C 223.346 5.3578 -3.98115 0
M  V30 2327 H 222.616 0.737795 -0.0688454 0
M  V30 2328 H 225.263 1.70991 -0.862225 0
M  V30 2329 H 223.568 3.87285 0.593079 0
M  V30 2330 H 225.265 4.00372 0.224271 0
M  V30 2331 H 221.855 4.11306 -1.20522 0
M  V30 2332 H 226.039 4.4923 -2.10964 0
M  V30 2333 H 221.295 5.08702 -3.39164 0
M  V30 2334 H 225.469 5.4799 -4.29743 0
M  V30 2335 H 223.096 5.77475 -4.94395 0
M  V30 2336 N 224.671 0.411399 1.52136 0
M  V30 2337 C 225.618 -0.412975 2.27075 0
M  V30 2338 C 226.588 -1.03912 1.29582 0
M  V30 2339 O 227.773 -1.06296 1.58448 0
M  V30 2340 C 224.913 -1.52247 3.09701 0
M  V30 2341 C 224.026 -0.917021 4.22155 0
M  V30 2342 C 223.161 -1.9994 4.92135 0
M  V30 2343 C 222.2 -1.37101 5.96548 0
M  V30 2344 N 221.337 -2.39364 6.60038 0
M  V30 2345 H 226.177 0.232499 2.97092 0
M  V30 2346 H 223.714 0.126496 1.46555 0
M  V30 2347 H 225.672 -2.17674 3.55913 0
M  V30 2348 H 224.302 -2.13794 2.41851 0
M  V30 2349 H 223.354 -0.151742 3.80097 0
M  V30 2350 H 224.666 -0.418006 4.97045 0
M  V30 2351 H 223.82 -2.73088 5.41763 0
M  V30 2352 H 222.559 -2.53208 4.16818 0
M  V30 2353 H 221.564 -0.624873 5.46237 0
M  V30 2354 H 222.789 -0.845998 6.7381 0
M  V30 2355 H 220.735 -2.91759 5.87548 0
M  V30 2356 H 220.652 -1.9428 7.3061 0
M  V30 2357 H 221.92 -3.12074 7.14304 0
M  V30 2358 N 226.149 -1.5696 0.141893 0
M  V30 2359 C 227.395 -1.9625 -0.511248 0
M  V30 2360 C 227.728 -1.02654 -1.64851 0
M  V30 2361 O 227.003 -0.0679676 -1.94381 0
M  V30 2362 C 227.286 -3.45285 -1.02227 0
M  V30 2363 C 227.139 -4.49658 0.113138 0
M  V30 2364 C 228.458 -3.96698 -1.90574 0
M  V30 2365 H 225.577 -0.713567 -0.184367 0
M  V30 2366 H 228.219 -1.88698 0.222087 0
M  V30 2367 H 226.369 -3.51852 -1.64719 0
M  V30 2368 H 228.041 -4.55174 0.749302 0
M  V30 2369 H 226.284 -4.26857 0.773026 0
M  V30 2370 H 226.955 -5.51258 -0.286053 0
M  V30 2371 H 229.431 -3.92578 -1.37918 0
M  V30 2372 H 228.307 -5.01453 -2.2324 0
M  V30 2373 H 228.568 -3.3875 -2.84079 0
M  V30 2374 N 227.627 0.131896 -1.57047 0
M  V30 2375 C 228.852 0.860418 -1.8871 0
M  V30 2376 C 229.277 1.73251 -0.73251 0
M  V30 2377 O 228.635 1.785 0.317429 0
M  V30 2378 C 228.683 1.68047 -3.19049 0
M  V30 2379 O 227.787 2.7862 -3.04047 0
M  V30 2380 H 227.128 0.238743 -0.619595 0
M  V30 2381 H 229.658 0.118169 -2.04258 0
M  V30 2382 H 229.668 2.07238 -3.51449 0
M  V30 2383 H 228.343 1.04018 -4.02682 0
M  V30 2384 H 226.92 2.42726 -2.83088 0
M  V30 2385 N 229.106 1.52395 0.401703 0
M  V30 2386 C 230.353 1.66817 1.14796 0
M  V30 2387 C 230.681 0.401772 1.90305 0
M  V30 2388 O 229.936 -0.615487 1.85769 0
M  V30 2389 C 230.235 2.84578 2.16217 0
M  V30 2390 C 229.901 4.22513 1.5746 0
M  V30 2391 C 228.563 4.60029 1.41161 0
M  V30 2392 C 230.915 5.0844 1.14622 0
M  V30 2393 C 228.243 5.81144 0.80552 0
M  V30 2394 C 230.595 6.30167 0.55428 0
M  V30 2395 C 229.259 6.66426 0.378482 0
M  V30 2396 H 228.529 0.610428 0.420069 0
M  V30 2397 H 231.176 1.86512 0.434212 0
M  V30 2398 H 229.481 2.59248 2.93764 0
M  V30 2399 H 231.178 2.92933 2.73845 0
M  V30 2400 H 227.768 3.92953 1.71132 0
M  V30 2401 H 231.952 4.80034 1.26021 0
M  V30 2402 H 227.208 6.07855 0.657399 0
M  V30 2403 H 231.382 6.96071 0.213983 0
M  V30 2404 H 229.009 7.60143 -0.0932606 0
M  V30 2405 N 230.584 -0.659388 1.43143 0
M  V30 2406 C 231.494 -1.80167 1.50256 0
M  V30 2407 C 232.51 -1.69571 0.390106 0
M  V30 2408 O 233.686 -1.90849 0.643319 0
M  V30 2409 C 230.751 -3.16409 1.41725 0
M  V30 2410 C 229.812 -3.38848 2.63591 0
M  V30 2411 C 229.045 -4.68591 2.55458 0
M  V30 2412 O 229.268 -5.47532 1.59891 0
M  V30 2413 O 228.202 -4.92614 3.45854 0
M  V30 2414 H 232.028 -1.77121 2.46702 0
M  V30 2415 H 229.613 -0.817092 1.25076 0
M  V30 2416 H 231.495 -3.9768 1.39387 0
M  V30 2417 H 230.17 -3.20059 0.484118 0
M  V30 2418 H 229.077 -2.57366 2.71502 0
M  V30 2419 H 230.41 -3.4004 3.55856 0
M  V30 2420 N 232.062 -1.29571 -0.897171 0
M  V30 2421 C 233.311 -1.1706 -1.64256 0
M  V30 2422 C 233.624 0.276476 -1.93636 0
M  V30 2423 O 234.83 0.52294 -2.66416 0
M  V30 2424 C 233.286 -2.0475 -2.95982 0
M  V30 2425 C 232.894 -3.54295 -2.74187 0
M  V30 2426 C 234.638 -2.0097 -3.73914 0
M  V30 2427 C 232.545 -4.34081 -4.01656 0
M  V30 2428 H 231.475 -0.43452 -0.616205 0
M  V30 2429 H 234.126 -1.54229 -0.994268 0
M  V30 2430 H 232.508 -1.60452 -3.62038 0
M  V30 2431 H 233.682 -4.06662 -2.1671 0
M  V30 2432 H 231.997 -3.59773 -2.09648 0
M  V30 2433 H 234.594 -2.57838 -4.68427 0
M  V30 2434 H 234.937 -0.990273 -4.0435 0
M  V30 2435 H 235.47 -2.43325 -3.14703 0
M  V30 2436 H 232.209 -5.36671 -3.76384 0
M  V30 2437 H 231.729 -3.86483 -4.58684 0
M  V30 2438 H 233.408 -4.44877 -4.69781 0
M  V30 2439 N 233.54 1.10788 -1.12088 0
M  V30 2440 C 234.817 1.79136 -0.785476 0
M  V30 2441 C 235.197 1.98246 0.725377 0
M  V30 2442 O 234.545 1.57258 1.65778 0
M  V30 2443 C 234.755 3.12375 -1.55636 0
M  V30 2444 C 236.103 3.8731 -1.74001 0
M  V30 2445 O 237.127 3.22085 -1.52117 0
M  V30 2446 O 235.986 5.04369 -2.10415 0
M  V30 2447 H 233.08 0.776226 -0.285311 0
M  V30 2448 H 235.626 1.1747 -1.2247 0
M  V30 2449 H 234.398 2.93863 -2.5838 0
M  V30 2450 H 234.021 3.81758 -1.11114 0
M  V30 2451 N 235.018 0.912232 1.28515 0
M  V30 2452 C 236.265 0.544599 1.95039 0
M  V30 2453 C 236.593 -0.911435 1.71823 0
M  V30 2454 O 235.848 -1.66317 1.03137 0
M  V30 2455 C 236.147 0.798392 3.48368 0
M  V30 2456 C 235.813 2.23374 3.91682 0
M  V30 2457 C 234.475 2.62617 4.03219 0
M  V30 2458 C 236.827 3.16786 4.13879 0
M  V30 2459 C 234.155 3.94429 4.3433 0
M  V30 2460 C 236.507 4.48161 4.46469 0
M  V30 2461 C 235.171 4.8726 4.56217 0
M  V30 2462 H 234.441 0.199283 0.7137 0
M  V30 2463 H 237.088 1.15327 1.52879 0
M  V30 2464 H 235.393 0.106908 3.91654 0
M  V30 2465 H 237.09 0.493141 3.97956 0
M  V30 2466 H 233.68 1.91922 3.83228 0
M  V30 2467 H 237.864 2.87677 4.0442 0
M  V30 2468 H 233.12 4.24426 4.40082 0
M  V30 2469 H 237.294 5.20559 4.62592 0
M  V30 2470 H 234.921 5.89431 4.80078 0
M  V30 2471 N 236.496 -1.42363 0.676048 0
M  V30 2472 C 237.773 -1.95183 0.127726 0
M  V30 2473 C 238.153 -1.61641 -1.35777 0
M  V30 2474 O 237.501 -0.913216 -2.09458 0
M  V30 2475 C 237.711 -3.46721 0.398199 0
M  V30 2476 C 239.059 -4.23427 0.315383 0
M  V30 2477 O 240.083 -3.54649 0.332016 0
M  V30 2478 O 238.942 -5.45888 0.25865 0
M  V30 2479 H 236.036 -0.826992 0.00359427 0
M  V30 2480 H 238.582 -1.52184 0.750864 0
M  V30 2481 H 237.354 -3.64344 1.4272 0
M  V30 2482 H 236.977 -3.96769 -0.256885 0
M  V30 2483 N 237.974 -0.419461 -1.51915 0
M  V30 2484 C 238.924 0.418496 -2.24126 0
M  V30 2485 C 239.908 1.00495 -1.25656 0
M  V30 2486 O 241.1 0.926058 -1.50842 0
M  V30 2487 C 238.229 1.52899 -3.07371 0
M  V30 2488 C 237.315 0.952797 -4.13258 0
M  V30 2489 N 237.706 0.104175 -5.05693 0
M  V30 2490 C 236.004 1.22224 -4.28926 0
M  V30 2491 C 236.705 -0.21752 -5.81293 0
M  V30 2492 N 235.681 0.394293 -5.42168 0
M  V30 2493 H 239.483 -0.236048 -2.92951 0
M  V30 2494 H 236.997 -0.230481 -1.60756 0
M  V30 2495 H 238.994 2.14199 -3.57665 0
M  V30 2496 H 237.654 2.18605 -2.40088 0
M  V30 2497 H 238.665 -0.260924 -5.17242 0
M  V30 2498 H 235.342 1.87812 -3.72871 0
M  V30 2499 H 236.732 -0.906992 -6.6575 0
M  V30 2500 N 239.452 1.56882 -0.150215 0
M  V30 2501 C 240.863 1.82995 0.370076 0
M  V30 2502 C 241.214 1.06907 1.64515 0
M  V30 2503 O 240.339 0.315369 2.1409 0
M  V30 2504 C 240.934 3.31942 0.678208 0
M  V30 2505 C 239.493 3.58625 1.14301 0
M  V30 2506 C 238.64 2.76792 0.167778 0
M  V30 2507 H 241.591 1.54209 -0.374858 0
M  V30 2508 H 241.612 3.48272 1.53254 0
M  V30 2509 H 241.124 3.87294 -0.249991 0
M  V30 2510 H 239.225 3.08664 2.08704 0
M  V30 2511 H 239.338 4.67073 1.06676 0
M  V30 2512 H 237.702 2.45972 0.661037 0
M  V30 2513 H 238.485 3.34916 -0.754069 0
M  V30 2514 N 240.93 -0.123565 1.57115 0
M  V30 2515 C 242.176 -0.833386 1.84885 0
M  V30 2516 C 242.509 -1.79742 0.735292 0
M  V30 2517 O 241.784 -1.92764 -0.25925 0
M  V30 2518 C 242.067 -1.5873 3.23228 0
M  V30 2519 C 241.92 -0.643183 4.45178 0
M  V30 2520 C 243.239 -2.54453 3.59085 0
M  V30 2521 H 240.358 -0.301518 0.6725 0
M  V30 2522 H 243 -0.097778 1.89748 0
M  V30 2523 H 241.15 -2.21438 3.19214 0
M  V30 2524 H 242.822 -0.0253015 4.61293 0
M  V30 2525 H 241.065 0.0456139 4.33776 0
M  V30 2526 H 241.736 -1.20724 5.38637 0
M  V30 2527 H 244.212 -2.01853 3.63861 0
M  V30 2528 H 243.088 -3.04238 4.5687 0
M  V30 2529 H 243.349 -3.36906 2.86264 0
M  V30 2530 N 242.408 -1.52605 -0.393616 0
M  V30 2531 C 243.655 -1.67424 -1.1391 0
M  V30 2532 C 243.983 -0.411859 -1.90089 0
M  V30 2533 O 243.238 0.605626 -1.86093 0
M  V30 2534 C 243.537 -2.85721 -2.14705 0
M  V30 2535 C 243.203 -4.23342 -1.55218 0
M  V30 2536 C 241.865 -4.60771 -1.3872 0
M  V30 2537 C 244.217 -5.09041 -1.11924 0
M  V30 2538 C 241.545 -5.81563 -0.774689 0
M  V30 2539 C 243.897 -6.30452 -0.520853 0
M  V30 2540 C 242.561 -6.66617 -0.343134 0
M  V30 2541 H 241.831 -0.612648 -0.416826 0
M  V30 2542 H 244.478 -1.8674 -0.424315 0
M  V30 2543 H 242.783 -2.60803 -2.92385 0
M  V30 2544 H 244.48 -2.94382 -2.72288 0
M  V30 2545 H 241.07 -3.93855 -1.69045 0
M  V30 2546 H 245.254 -4.80695 -1.23473 0
M  V30 2547 H 240.51 -6.08196 -0.625154 0
M  V30 2548 H 244.684 -6.96175 -0.177065 0
M  V30 2549 H 242.311 -7.60083 0.133571 0
M  V30 2550 N 243.887 0.651787 -1.4349 0
M  V30 2551 C 245.303 0.96762 -1.26922 0
M  V30 2552 C 245.503 2.00602 -0.189982 0
M  V30 2553 O 244.559 2.48793 0.431107 0
M  V30 2554 C 245.872 1.45052 -2.63401 0
M  V30 2555 C 247.42 1.5671 -2.70945 0
M  V30 2556 C 247.895 2.0839 -4.07845 0
M  V30 2557 N 249.386 2.1569 -4.09917 0
M  V30 2558 C 250.121 2.56804 -5.12679 0
M  V30 2559 N 249.617 2.97203 -6.25813 0
M  V30 2560 N 251.41 2.56756 -5.00033 0
M  V30 2561 H 243.561 -0.0353158 -2.12371 0
M  V30 2562 H 245.824 0.0467858 -0.946845 0
M  V30 2563 H 245.53 0.761926 -3.43348 0
M  V30 2564 H 245.404 2.42529 -2.88894 0
M  V30 2565 H 247.791 2.2467 -1.9133 0
M  V30 2566 H 247.872 0.57662 -2.49216 0
M  V30 2567 H 247.516 1.41031 -4.87927 0
M  V30 2568 H 247.446 3.08271 -4.26938 0
M  V30 2569 H 249.937 1.87237 -3.28254 0
M  V30 2570 H 250.25 3.27328 -7.00055 0
M  V30 2571 H 248.595 2.95004 -6.29283 0
M  V30 2572 H 251.786 2.24572 -4.10713 0
M  V30 2573 H 251.959 2.88475 -5.80247 0
M  V30 2574 N 245.365 1.30045 0.890287 0
M  V30 2575 C 246.613 1.18327 1.63839 0
M  V30 2576 C 246.934 -0.263455 1.93212 0
M  V30 2577 O 246.204 -1.17856 1.56482 0
M  V30 2578 H 244.784 0.434933 0.607324 0
M  V30 2579 H 247.446 1.631 1.06698 0
M  V30 2580 H 246.542 1.74024 2.59079 0
M  V30 2581 N 246.843 -1.10192 1.12674 0
M  V30 2582 C 248.259 -1.34235 0.863317 0
M  V30 2583 C 248.459 -1.95062 -0.505277 0
M  V30 2584 O 247.515 -2.19192 -1.25345 0
M  V30 2585 C 248.828 -2.2616 1.98172 0
M  V30 2586 C 250.376 -2.3969 2.0129 0
M  V30 2587 C 250.851 -3.34946 3.1237 0
M  V30 2588 N 252.342 -3.42515 3.11829 0
M  V30 2589 C 253.077 -4.16199 3.94419 0
M  V30 2590 N 252.573 -4.92747 4.87004 0
M  V30 2591 N 254.366 -4.11843 3.82547 0
M  V30 2592 H 246.517 -0.690798 2.00853 0
M  V30 2593 H 248.78 -0.366774 0.874174 0
M  V30 2594 H 248.486 -1.8868 2.96804 0
M  V30 2595 H 248.36 -3.26488 1.88906 0
M  V30 2596 H 250.747 -2.76438 1.03276 0
M  V30 2597 H 250.828 -1.39169 2.14629 0
M  V30 2598 H 250.472 -2.98923 4.10619 0
M  V30 2599 H 250.402 -4.35353 2.96269 0
M  V30 2600 H 252.893 -2.87926 2.44759 0
M  V30 2601 H 253.206 -5.46376 5.46528 0
M  V30 2602 H 251.551 -4.91862 4.91016 0
M  V30 2603 H 254.742 -3.51136 3.0955 0
M  V30 2604 H 254.915 -4.69007 4.47142 0
M  V30 2605 N 248.321 -0.919034 -1.28029 0
M  V30 2606 C 249.549 -0.570971 -1.98866 0
M  V30 2607 C 249.964 0.848996 -1.68634 0
M  V30 2608 O 249.321 1.56307 -0.942036 0
M  V30 2609 C 249.372 -0.776876 -3.53054 0
M  V30 2610 O 249.093 -2.14097 -3.82222 0
M  V30 2611 C 250.594 -0.436356 -4.41147 0
M  V30 2612 H 247.814 -0.217175 -0.634883 0
M  V30 2613 H 250.358 -1.23368 -1.63097 0
M  V30 2614 H 248.513 -0.161085 -3.87065 0
M  V30 2615 H 248.927 -2.18455 -4.76841 0
M  V30 2616 H 250.401 -0.63117 -5.4838 0
M  V30 2617 H 250.878 0.627686 -4.34692 0
M  V30 2618 H 251.484 -1.02991 -4.12641 0
M  V30 2619 N 249.799 1.42003 -0.683588 0
M  V30 2620 C 250.731 2.29183 0.0283068 0
M  V30 2621 C 251.744 1.4415 0.756611 0
M  V30 2622 O 252.933 1.67779 0.609306 0
M  V30 2623 C 250.033 3.21765 1.06398 0
M  V30 2624 C 249.206 4.35496 0.407723 0
M  V30 2625 C 248.265 5.08737 1.34437 0
M  V30 2626 O 247.291 5.62948 0.841318 0
M  V30 2627 N 248.493 5.15075 2.67728 0
M  V30 2628 H 251.258 2.9092 -0.720105 0
M  V30 2629 H 248.819 1.53025 -0.528682 0
M  V30 2630 H 250.811 3.6763 1.69204 0
M  V30 2631 H 249.381 2.61418 1.71404 0
M  V30 2632 H 248.601 3.92165 -0.400012 0
M  V30 2633 H 249.889 5.08776 -0.0490956 0
M  V30 2634 H 249.287 4.72457 3.11129 0
M  V30 2635 H 247.844 5.64556 3.2576 0
M  V30 2636 N 251.277 0.427512 1.51691 0
M  V30 2637 C 252.209 -0.424521 2.25234 0
M  V30 2638 C 253.222 -0.994671 1.2888 0
M  V30 2639 O 254.411 -0.890483 1.54702 0
M  V30 2640 C 251.511 -1.60479 2.98496 0
M  V30 2641 C 250.684 -1.15527 4.21868 0
M  V30 2642 C 249.743 -2.20454 4.77793 0
M  V30 2643 O 248.769 -1.8029 5.39893 0
M  V30 2644 N 249.971 -3.52831 4.60967 0
M  V30 2645 H 252.736 0.205749 2.98993 0
M  V30 2646 H 250.297 0.255867 1.59865 0
M  V30 2647 H 252.289 -2.30276 3.32799 0
M  V30 2648 H 250.859 -2.14061 2.27809 0
M  V30 2649 H 250.079 -0.284736 3.9317 0
M  V30 2650 H 251.367 -0.832173 5.01949 0
M  V30 2651 H 250.765 -3.88201 4.11481 0
M  V30 2652 H 249.322 -4.18551 4.99658 0
M  V30 2653 N 252.755 -1.56801 0.158532 0
M  V30 2654 C 253.718 -2.16138 -0.762705 0
M  V30 2655 C 254.718 -1.1061 -1.16713 0
M  V30 2656 O 255.908 -1.36191 -1.08617 0
M  V30 2657 C 253.04 -2.73386 -2.03649 0
M  V30 2658 H 254.233 -2.98886 -0.246354 0
M  V30 2659 H 251.786 -1.56035 -0.0909744 0
M  V30 2660 H 252.521 -1.94335 -2.59623 0
M  V30 2661 H 252.306 -3.50601 -1.75559 0
M  V30 2662 H 253.796 -3.19065 -2.6942 0
M  V30 2663 N 254.233 0.115231 -1.57178 0
M  V30 2664 C 255.458 0.840354 -1.89612 0
M  V30 2665 C 255.883 1.72464 -0.750845 0
M  V30 2666 O 255.241 1.78826 0.298478 0
M  V30 2667 C 255.289 1.64654 -3.20814 0
M  V30 2668 O 254.393 2.7538 -3.06985 0
M  V30 2669 H 253.734 0.232158 -0.622092 0
M  V30 2670 H 256.264 0.0964977 -2.04372 0
M  V30 2671 H 256.274 2.03499 -3.53627 0
M  V30 2672 H 254.949 0.997416 -4.03763 0
M  V30 2673 H 253.526 2.3971 -2.85646 0
M  V30 2674 N 255.711 1.52812 0.385517 0
M  V30 2675 C 256.957 1.68275 1.13188 0
M  V30 2676 C 257.29 0.423179 1.89533 0
M  V30 2677 O 256.565 -0.579113 1.85679 0
M  V30 2678 C 256.848 2.92001 2.1073 0
M  V30 2679 C 256.701 4.28067 1.38125 0
M  V30 2680 C 258.02 3.11283 3.11113 0
M  V30 2681 H 255.139 0.612352 0.410115 0
M  V30 2682 H 257.781 1.85415 0.414869 0
M  V30 2683 H 255.931 2.77519 2.71874 0
M  V30 2684 H 257.603 4.54324 0.799187 0
M  V30 2685 H 255.846 4.28388 0.683092 0
M  V30 2686 H 256.517 5.10733 2.09417 0
M  V30 2687 H 258.993 3.2482 2.6006 0
M  V30 2688 H 257.869 3.99325 3.76605 0
M  V30 2689 H 258.13 2.25656 3.80173 0
M  V30 2690 N 257.189 -0.644168 1.43834 0
M  V30 2691 C 258.466 -1.40188 1.36406 0
M  V30 2692 C 258.846 -2.11094 0.0163124 0
M  V30 2693 O 258.194 -2.05426 -1.00062 0
M  V30 2694 C 258.404 -2.3791 2.55343 0
M  V30 2695 C 259.752 -3.01637 2.98832 0
M  V30 2696 O 260.776 -2.48237 2.55455 0
M  V30 2697 O 259.635 -3.98477 3.74003 0
M  V30 2698 H 256.729 -0.626773 0.539523 0
M  V30 2699 H 259.275 -0.670317 1.559 0
M  V30 2700 H 258.047 -1.84525 3.4506 0
M  V30 2701 H 257.67 -3.18503 2.37995 0
M  V30 2702 N 258.668 -1.30515 -0.883378 0
M  V30 2703 C 259.915 -1.1943 -1.63532 0
M  V30 2704 C 260.243 0.250627 -1.92878 0
M  V30 2705 O 259.498 1.19556 -1.54935 0
M  V30 2706 C 259.797 -1.96994 -2.98209 0
M  V30 2707 C 259.463 -3.466 -2.88408 0
M  V30 2708 C 258.125 -3.87397 -2.85442 0
M  V30 2709 C 260.477 -4.41863 -2.76418 0
M  V30 2710 C 257.805 -5.21745 -2.68327 0
M  V30 2711 C 260.157 -5.7632 -2.60841 0
M  V30 2712 C 258.821 -6.16354 -2.56251 0
M  V30 2713 H 258.091 -0.437025 -0.598406 0
M  V30 2714 H 260.738 -1.61635 -1.02696 0
M  V30 2715 H 259.043 -1.47429 -3.63004 0
M  V30 2716 H 260.74 -1.85808 -3.55354 0
M  V30 2717 H 257.33 -3.14182 -2.91527 0
M  V30 2718 H 261.514 -4.11285 -2.77775 0
M  V30 2719 H 256.77 -5.51853 -2.63189 0
M  V30 2720 H 260.944 -6.49772 -2.50538 0
M  V30 2721 H 258.571 -7.20401 -2.42748 0
M  V30 2722 N 260.146 1.09593 -1.13257 0
M  V30 2723 C 261.371 1.8604 -0.916732 0
M  V30 2724 C 261.796 1.80504 0.529146 0
M  V30 2725 O 261.154 1.18127 1.37534 0
M  V30 2726 C 261.202 3.32017 -1.40703 0
M  V30 2727 O 260.306 4.08141 -0.591153 0
M  V30 2728 H 259.647 0.576943 -0.328683 0
M  V30 2729 H 262.177 1.38405 -1.50682 0
M  V30 2730 H 262.187 3.82865 -1.4099 0
M  V30 2731 H 260.862 3.35361 -2.45979 0
M  V30 2732 H 259.439 3.67084 -0.656005 0
M  V30 2733 N 261.624 0.925811 1.2754 0
M  V30 2734 C 262.849 0.580924 1.99098 0
M  V30 2735 C 263.274 -0.833555 1.68622 0
M  V30 2736 O 262.632 -1.55903 0.925422 0
M  V30 2737 C 262.68 0.811186 3.51358 0
M  V30 2738 O 261.784 -0.124129 4.12213 0
M  V30 2739 H 261.125 0.223873 0.625122 0
M  V30 2740 H 263.655 1.24455 1.62395 0
M  V30 2741 H 263.665 0.72601 4.01489 0
M  V30 2742 H 262.34 1.84227 3.72872 0
M  V30 2743 H 260.917 0.0108006 3.72898 0
M  V30 2744 N 263.102 -1.41638 0.69111 0
M  V30 2745 C 264.33 -2.05628 0.22909 0
M  V30 2746 C 264.745 -1.51992 -1.11999 0
M  V30 2747 O 264.102 -0.666322 -1.69901 0
M  V30 2748 C 264.153 -3.61084 0.173283 0
M  V30 2749 O 263.874 -4.12735 1.46907 0
M  V30 2750 C 265.375 -4.42213 -0.310266 0
M  V30 2751 H 262.595 -0.662327 0.107534 0
M  V30 2752 H 265.139 -1.81489 0.942438 0
M  V30 2753 H 263.294 -3.84278 -0.490858 0
M  V30 2754 H 263.708 -5.06743 1.35322 0
M  V30 2755 H 265.182 -5.51194 -0.298196 0
M  V30 2756 H 265.659 -4.1799 -1.34838 0
M  V30 2757 H 266.265 -4.24074 0.322716 0
M  V30 2758 N 264.58 -0.43555 -1.51462 0
M  V30 2759 C 265.805 0.132627 -2.06976 0
M  V30 2760 C 266.23 1.35848 -1.30104 0
M  V30 2761 O 265.588 1.78112 -0.338493 0
M  V30 2762 C 265.636 0.43523 -3.57964 0
M  V30 2763 O 264.74 1.52198 -3.83288 0
M  V30 2764 H 264.081 0.00265 -0.663995 0
M  V30 2765 H 266.611 -0.616369 -1.95095 0
M  V30 2766 H 266.621 0.686206 -4.02188 0
M  V30 2767 H 265.296 -0.460739 -4.1334 0
M  V30 2768 H 263.873 1.2611 -3.50928 0
M  V30 2769 N 266.058 1.56714 -0.166846 0
M  V30 2770 C 267.305 1.96747 0.479252 0
M  V30 2771 C 267.633 1.05263 1.63554 0
M  V30 2772 O 266.888 0.0858098 1.95512 0
M  V30 2773 C 267.187 3.42889 1.00806 0
M  V30 2774 C 266.853 4.50889 -0.0318574 0
M  V30 2775 C 265.515 4.8015 -0.317675 0
M  V30 2776 C 267.867 5.15949 -0.737956 0
M  V30 2777 C 265.195 5.71772 -1.31506 0
M  V30 2778 C 267.547 6.08647 -1.72429 0
M  V30 2779 C 266.211 6.36277 -2.0176 0
M  V30 2780 H 265.481 0.719949 0.175371 0
M  V30 2781 H 268.128 1.89756 -0.257864 0
M  V30 2782 H 266.433 3.4681 1.82291 0
M  V30 2783 H 268.13 3.71203 1.51689 0
M  V30 2784 H 264.72 4.28128 0.201088 0
M  V30 2785 H 268.904 4.93458 -0.530351 0
M  V30 2786 H 264.16 5.91465 -1.54853 0
M  V30 2787 H 268.334 6.58129 -2.27682 0
M  V30 2788 H 265.961 7.07075 -2.79194 0
M  V30 2789 N 267.536 -0.106894 1.57237 0
M  V30 2790 C 268.782 -0.81373 1.85759 0
M  V30 2791 C 269.115 -1.78952 0.754315 0
M  V30 2792 O 268.39 -1.93029 -0.23879 0
M  V30 2793 C 268.673 -1.55293 3.24894 0
M  V30 2794 C 268.526 -0.595929 4.45835 0
M  V30 2795 C 269.845 -2.5063 3.61763 0
M  V30 2796 H 266.964 -0.294369 0.67566 0
M  V30 2797 H 269.606 -0.0776472 1.89841 0
M  V30 2798 H 267.756 -2.1804 3.21544 0
M  V30 2799 H 269.428 0.0236262 4.61294 0
M  V30 2800 H 267.671 0.0916191 4.33703 0
M  V30 2801 H 268.342 -1.15004 5.39887 0
M  V30 2802 H 270.818 -1.97982 3.65981 0
M  V30 2803 H 269.694 -2.99376 4.60071 0
M  V30 2804 H 269.955 -3.3385 2.89821 0
M  V30 2805 N 269.014 -1.53014 -0.377408 0
M  V30 2806 C 269.961 -1.78616 -1.46168 0
M  V30 2807 C 270.931 -0.629917 -1.53692 0
M  V30 2808 O 272.116 -0.870861 -1.69766 0
M  V30 2809 C 269.256 -1.97123 -2.8326 0
M  V30 2810 C 268.369 -3.24831 -2.84796 0
M  V30 2811 C 267.504 -3.33591 -4.13389 0
M  V30 2812 C 266.543 -4.55377 -4.09021 0
M  V30 2813 N 265.68 -4.61355 -5.29241 0
M  V30 2814 H 270.52 -2.71142 -1.23637 0
M  V30 2815 H 268.057 -1.34326 -0.599577 0
M  V30 2816 H 270.015 -2.05839 -3.62886 0
M  V30 2817 H 268.645 -1.07946 -3.04216 0
M  V30 2818 H 267.697 -3.25128 -1.97474 0
M  V30 2819 H 269.009 -4.14523 -2.77439 0
M  V30 2820 H 268.163 -3.41554 -5.01424 0
M  V30 2821 H 266.902 -2.41894 -4.23484 0
M  V30 2822 H 265.907 -4.47527 -3.19373 0
M  V30 2823 H 267.132 -5.48402 -4.00539 0
M  V30 2824 H 265.078 -3.72554 -5.39944 0
M  V30 2825 H 264.995 -5.44935 -5.24006 0
M  V30 2826 H 266.263 -4.73586 -6.19141 0
M  V30 2827 N 270.492 0.636531 -1.44174 0
M  V30 2828 C 271.402 1.77754 -1.53103 0
M  V30 2829 C 272.418 1.68928 -0.417034 0
M  V30 2830 O 273.594 1.89801 -0.6736 0
M  V30 2831 C 270.659 3.14115 -1.46741 0
M  V30 2832 C 269.72 3.34612 -2.68948 0
M  V30 2833 C 268.953 4.64467 -2.6288 0
M  V30 2834 O 269.176 5.44919 -1.68581 0
M  V30 2835 O 268.11 4.87049 -3.53648 0
M  V30 2836 H 271.936 1.73174 -2.49489 0
M  V30 2837 H 269.521 0.79709 -1.2636 0
M  V30 2838 H 271.403 3.95412 -1.45696 0
M  V30 2839 H 270.078 3.19249 -0.534975 0
M  V30 2840 H 268.985 2.53014 -2.75562 0
M  V30 2841 H 270.318 3.34336 -3.61221 0
M  V30 2842 N 271.97 1.30982 0.876444 0
M  V30 2843 C 273.216 1.20474 1.63138 0
M  V30 2844 C 273.549 -0.238096 1.92735 0
M  V30 2845 O 272.824 -1.1692 1.55435 0
M  V30 2846 C 273.107 2.04244 2.96574 0
M  V30 2847 C 272.96 3.56793 2.73896 0
M  V30 2848 C 274.279 1.88684 3.97601 0
M  V30 2849 H 271.398 0.439001 0.591985 0
M  V30 2850 H 274.04 1.60704 1.01361 0
M  V30 2851 H 272.19 1.70063 3.493 0
M  V30 2852 H 273.862 4.01077 2.27892 0
M  V30 2853 H 272.105 3.80548 2.08245 0
M  V30 2854 H 272.776 4.10706 3.68815 0
M  V30 2855 H 275.252 2.18584 3.54062 0
M  V30 2856 H 274.128 2.4961 4.88862 0
M  V30 2857 H 274.389 0.848343 4.33884 0
M  V30 2858 N 273.449 -1.08991 1.13837 0
M  V30 2859 C 274.674 -1.85551 0.926585 0
M  V30 2860 C 275.099 -1.80782 -0.519566 0
M  V30 2861 O 274.457 -1.18855 -1.36906 0
M  V30 2862 C 274.505 -3.31266 1.42462 0
M  V30 2863 O 273.609 -4.07822 0.612789 0
M  V30 2864 H 272.95 -0.575192 0.331738 0
M  V30 2865 H 275.48 -1.37604 1.51414 0
M  V30 2866 H 275.49 -3.82112 1.43019 0
M  V30 2867 H 274.165 -3.34052 2.47754 0
M  V30 2868 H 272.742 -3.66731 0.675463 0
M  V30 2869 N 274.927 -0.932562 -1.27047 0
M  V30 2870 C 276.343 -0.633544 -1.46487 0
M  V30 2871 C 276.543 0.815746 -1.84249 0
M  V30 2872 O 275.599 1.59319 -1.95892 0
M  V30 2873 C 276.912 -1.58758 -2.55375 0
M  V30 2874 C 278.46 -1.59634 -2.69232 0
M  V30 2875 C 278.935 -2.53747 -3.81283 0
M  V30 2876 N 280.426 -2.51982 -3.88664 0
M  V30 2877 C 281.161 -3.21491 -4.74796 0
M  V30 2878 N 280.657 -4.00395 -5.65381 0
M  V30 2879 N 282.45 -3.10485 -4.68568 0
M  V30 2880 H 274.601 -1.86946 -1.00821 0
M  V30 2881 H 276.864 -0.802897 -0.504044 0
M  V30 2882 H 276.57 -2.62172 -2.34432 0
M  V30 2883 H 276.444 -1.33301 -3.52861 0
M  V30 2884 H 278.831 -0.569488 -2.89553 0
M  V30 2885 H 278.912 -1.89142 -1.72218 0
M  V30 2886 H 278.556 -3.56545 -3.61715 0
M  V30 2887 H 278.486 -2.21532 -4.77735 0
M  V30 2888 H 280.977 -1.94681 -3.23895 0
M  V30 2889 H 281.29 -4.50406 -6.27976 0
M  V30 2890 H 279.635 -4.04498 -5.65161 0
M  V30 2891 H 282.826 -2.48331 -3.96799 0
M  V30 2892 H 282.999 -3.64925 -5.35475 0
M  V30 2893 N 276.405 1.4127 -0.698611 0
M  V30 2894 C 277.368 2.29158 -0.044132 0
M  V30 2895 C 278.368 1.44529 0.704841 0
M  V30 2896 O 279.558 1.65643 0.539276 0
M  V30 2897 C 276.69 3.27459 0.947809 0
M  V30 2898 H 277.883 2.88529 -0.817994 0
M  V30 2899 H 275.436 1.49307 -0.46228 0
M  V30 2900 H 276.171 2.73073 1.74933 0
M  V30 2901 H 275.956 3.8991 0.41385 0
M  V30 2902 H 277.446 3.93311 1.40344 0
M  V30 2903 N 277.883 0.443576 1.51229 0
M  V30 2904 C 279.299 0.0962001 1.5931 0
M  V30 2905 C 279.499 -1.39501 1.45402 0
M  V30 2906 O 278.555 -2.16557 1.29843 0
M  V30 2907 C 279.868 0.621875 2.94199 0
M  V30 2908 C 281.416 0.582865 3.07525 0
M  V30 2909 C 281.891 1.08562 4.44948 0
M  V30 2910 N 283.382 1.04387 4.51284 0
M  V30 2911 C 284.117 1.40368 5.55954 0
M  V30 2912 N 283.613 1.83664 6.68011 0
M  V30 2913 N 285.406 1.32145 5.46346 0
M  V30 2914 H 277.557 1.41376 1.58514 0
M  V30 2915 H 279.82 0.582965 0.747567 0
M  V30 2916 H 279.526 1.66546 3.09767 0
M  V30 2917 H 279.4 0.0502125 3.77167 0
M  V30 2918 H 281.787 -0.451749 2.91622 0
M  V30 2919 H 281.868 1.191 2.26382 0
M  V30 2920 H 281.512 2.11873 4.61598 0
M  V30 2921 H 281.442 0.453956 5.2464 0
M  V30 2922 H 283.933 0.725986 3.70861 0
M  V30 2923 H 284.246 2.0934 7.43906 0
M  V30 2924 H 282.591 1.87596 6.69203 0
M  V30 2925 H 285.782 0.981808 4.57688 0
M  V30 2926 H 285.955 1.60514 6.27805 0
M  V30 2927 N 279.361 -1.56624 0.175154 0
M  V30 2928 C 280.589 -2.01374 -0.474971 0
M  V30 2929 C 281.004 -1.05537 -1.56548 0
M  V30 2930 O 280.361 -0.0568668 -1.82411 0
M  V30 2931 C 280.412 -3.45923 -1.04975 0
M  V30 2932 O 280.133 -4.381 -0.00276605 0
M  V30 2933 C 281.634 -4.06093 -1.77773 0
M  V30 2934 H 278.854 -0.659962 -0.121206 0
M  V30 2935 H 281.398 -2.02601 0.27801 0
M  V30 2936 H 279.553 -3.45458 -1.75321 0
M  V30 2937 H 279.967 -5.22753 -0.427681 0
M  V30 2938 H 281.441 -5.09147 -2.13245 0
M  V30 2939 H 281.918 -3.48405 -2.67414 0
M  V30 2940 H 282.524 -4.10272 -1.12059 0
M  V30 2941 N 280.839 0.0985539 -1.57292 0
M  V30 2942 C 282.086 0.802678 -1.85912 0
M  V30 2943 C 282.414 1.78901 -0.763186 0
M  V30 2944 O 281.669 1.94178 0.243559 0
M  V30 2945 C 281.968 1.56927 -3.21105 0
M  V30 2946 C 281.634 0.725376 -4.45027 0
M  V30 2947 C 280.296 0.492726 -4.78671 0
M  V30 2948 C 282.648 0.138493 -5.21016 0
M  V30 2949 C 279.976 -0.336727 -5.85733 0
M  V30 2950 C 282.328 -0.678264 -6.28953 0
M  V30 2951 C 280.992 -0.921039 -6.61115 0
M  V30 2952 H 280.262 0.293721 -0.680301 0
M  V30 2953 H 282.909 0.0642841 -1.91392 0
M  V30 2954 H 281.214 2.37914 -3.11294 0
M  V30 2955 H 282.911 2.11841 -3.40477 0
M  V30 2956 H 279.501 0.916815 -4.18679 0
M  V30 2957 H 283.685 0.305404 -4.95359 0
M  V30 2958 H 278.941 -0.533836 -6.09065 0
M  V30 2959 H 283.115 -1.1399 -6.87007 0
M  V30 2960 H 280.742 -1.56556 -7.43905 0
M  V30 2961 N 282.317 1.53212 0.369288 0
M  V30 2962 C 283.565 1.68881 1.11012 0
M  V30 2963 C 283.886 0.441285 1.89941 0
M  V30 2964 O 283.156 -0.544623 1.88177 0
M  V30 2965 H 281.736 0.622569 0.412816 0
M  V30 2966 H 284.398 1.90391 0.416802 0
M  V30 2967 H 283.494 2.54822 1.80201 0
M  V30 2968 N 283.795 -0.628877 1.44509 0
M  V30 2969 C 285.042 -1.38839 1.47411 0
M  V30 2970 C 285.37 -1.94202 0.10757 0
M  V30 2971 O 284.625 -1.74243 -0.890947 0
M  V30 2972 C 284.924 -2.56995 2.48371 0
M  V30 2973 C 284.59 -2.19908 3.93639 0
M  V30 2974 C 283.252 -2.09506 4.33198 0
M  V30 2975 C 285.604 -1.9064 4.85083 0
M  V30 2976 C 282.932 -1.68028 5.62124 0
M  V30 2977 C 285.284 -1.50655 6.14399 0
M  V30 2978 C 283.948 -1.38796 6.5291 0
M  V30 2979 H 283.218 -0.508048 0.539414 0
M  V30 2980 H 285.865 -0.712913 1.77735 0
M  V30 2981 H 284.17 -3.29786 2.11538 0
M  V30 2982 H 285.867 -3.15223 2.47861 0
M  V30 2983 H 282.457 -2.28922 3.62343 0
M  V30 2984 H 286.641 -1.97585 4.55273 0
M  V30 2985 H 281.897 -1.57452 5.90778 0
M  V30 2986 H 286.071 -1.27048 6.84713 0
M  V30 2987 H 283.698 -1.06429 7.52713 0
M  V30 2988 N 285.273 -1.31445 -0.869486 0
M  V30 2989 C 286.206 -1.13465 -1.97992 0
M  V30 2990 C 287.184 -0.0380291 -1.62556 0
M  V30 2991 O 288.368 -0.194544 -1.87493 0
M  V30 2992 C 285.495 -0.733822 -3.30655 0
M  V30 2993 C 284.541 -1.83356 -3.85075 0
M  V30 2994 S 285.374 -3.43909 -4.10472 0
M  V30 2995 C 286.53 -3.05763 -5.46132 0
M  V30 2996 H 286.763 -2.07471 -2.1294 0
M  V30 2997 H 284.296 -1.15936 -1.01972 0
M  V30 2998 H 286.254 -0.509306 -4.07328 0
M  V30 2999 H 284.915 0.187123 -3.13542 0
M  V30 3000 H 284.108 -1.50574 -4.80982 0
M  V30 3001 H 283.71 -2.01315 -3.15195 0
M  V30 3002 H 286.002 -2.54686 -6.27807 0
M  V30 3003 H 286.945 -4.00635 -5.83864 0
M  V30 3004 H 287.353 -2.43192 -5.09429 0
M  V30 3005 N 286.751 1.08385 -1.14413 0
M  V30 3006 C 288.167 1.32844 -0.884563 0
M  V30 3007 C 288.367 1.95841 0.474181 0
M  V30 3008 O 287.423 2.21158 1.21842 0
M  V30 3009 C 288.736 2.22978 -2.01745 0
M  V30 3010 C 290.284 2.36458 -2.05077 0
M  V30 3011 C 290.759 3.29934 -3.1766 0
M  V30 3012 N 292.25 3.37511 -3.17239 0
M  V30 3013 C 292.985 4.09871 -4.0099 0
M  V30 3014 N 292.481 4.84936 -4.94781 0
M  V30 3015 N 294.274 4.05704 -3.89051 0
M  V30 3016 H 286.425 0.658756 -2.01926 0
M  V30 3017 H 288.688 0.352821 -0.879899 0
M  V30 3018 H 288.394 1.83934 -2.99769 0
M  V30 3019 H 288.268 3.23441 -1.94077 0
M  V30 3020 H 290.655 2.7476 -1.0766 0
M  V30 3021 H 290.736 1.35736 -2.16816 0
M  V30 3022 H 290.38 2.92352 -4.15322 0
M  V30 3023 H 290.31 4.30584 -3.03158 0
M  V30 3024 H 292.801 2.83996 -2.49308 0
M  V30 3025 H 293.114 5.37612 -5.55151 0
M  V30 3026 H 291.459 4.83988 -4.98779 0
M  V30 3027 H 294.65 3.46167 -3.15097 0
M  V30 3028 H 294.823 4.61834 -4.54547 0
M  V30 3029 N 288.23 0.939286 1.26551 0
M  V30 3030 C 289.507 0.5038 1.89001 0
M  V30 3031 C 289.887 -1.01854 1.84903 0
M  V30 3032 O 289.235 -1.87773 1.30206 0
M  V30 3033 C 289.445 1.063 3.32417 0
M  V30 3034 C 290.793 1.13051 4.09273 0
M  V30 3035 O 291.817 1.01345 3.41479 0
M  V30 3036 O 290.676 1.31233 5.30509 0
M  V30 3037 H 287.77 0.163897 0.810597 0
M  V30 3038 H 290.316 1.03173 1.34735 0
M  V30 3039 H 289.088 2.10665 3.29752 0
M  V30 3040 H 288.711 0.517408 3.94219 0
M  V30 3041 N 289.708 -1.40897 0.706093 0
M  V30 3042 C 290.957 -2.00284 0.238574 0
M  V30 3043 C 291.27 -1.56604 -1.17194 0
M  V30 3044 O 292.476 -2.08624 -1.73748 0
M  V30 3045 C 290.932 -3.57934 0.375623 0
M  V30 3046 C 290.54 -4.10591 1.79217 0
M  V30 3047 C 292.284 -4.24488 -0.0315857 0
M  V30 3048 C 290.191 -5.60712 1.88032 0
M  V30 3049 H 289.121 -0.749144 0.0854398 0
M  V30 3050 H 291.772 -1.61251 0.875813 0
M  V30 3051 H 290.154 -3.94622 -0.330042 0
M  V30 3052 H 291.328 -3.85301 2.52745 0
M  V30 3053 H 289.643 -3.56601 2.15 0
M  V30 3054 H 292.24 -5.34698 0.0136842 0
M  V30 3055 H 292.583 -4.02261 -1.072 0
M  V30 3056 H 293.116 -3.92873 0.624181 0
M  V30 3057 H 289.855 -5.87781 2.90161 0
M  V30 3058 H 289.375 -5.87896 1.18903 0
M  V30 3059 H 291.054 -6.25658 1.64805 0
M  V30 3060 N 291.186 -0.45159 -1.50991 0
M  V30 3061 C 292.096 0.358431 -2.31846 0
M  V30 3062 C 293.112 1.01438 -1.41373 0
M  V30 3063 O 294.288 1.00663 -1.74439 0
M  V30 3064 C 291.353 1.43704 -3.15515 0
M  V30 3065 C 290.414 0.799742 -4.21785 0
M  V30 3066 C 289.647 1.82696 -5.01456 0
M  V30 3067 O 289.87 3.05105 -4.81941 0
M  V30 3068 O 288.804 1.40958 -5.85162 0
M  V30 3069 H 292.63 -0.302032 -3.02194 0
M  V30 3070 H 290.215 -0.213825 -1.47862 0
M  V30 3071 H 292.097 2.06227 -3.67489 0
M  V30 3072 H 290.772 2.08133 -2.47916 0
M  V30 3073 H 289.679 0.136084 -3.73852 0
M  V30 3074 H 291.012 0.198718 -4.91799 0
M  V30 3075 N 292.664 1.56529 -0.183458 0
M  V30 3076 C 293.894 2.01331 0.463612 0
M  V30 3077 C 294.302 1.06278 1.5653 0
M  V30 3078 O 293.645 0.0577976 1.83609 0
M  V30 3079 C 293.707 3.42547 1.09096 0
M  V30 3080 C 293.371 4.56817 0.129442 0
M  V30 3081 C 294.368 5.15734 -0.656807 0
M  V30 3082 C 292.053 5.02295 0.02174 0
M  V30 3083 C 294.047 6.1857 -1.53784 0
M  V30 3084 C 291.734 6.04978 -0.862864 0
M  V30 3085 C 292.732 6.62988 -1.64123 0
M  V30 3086 O 292.42 7.63677 -2.51103 0
M  V30 3087 H 292.152 0.664917 0.121907 0
M  V30 3088 H 294.706 2.034 -0.285954 0
M  V30 3089 H 292.936 3.37428 1.88889 0
M  V30 3090 H 294.625 3.71228 1.64148 0
M  V30 3091 H 295.391 4.81473 -0.583839 0
M  V30 3092 H 291.27 4.56847 0.617392 0
M  V30 3093 H 294.814 6.63777 -2.14583 0
M  V30 3094 H 290.711 6.38663 -0.93699 0
M  V30 3095 H 291.479 7.81049 -2.44753 0
M  V30 3096 N 294.142 -0.090211 1.57342 0
M  V30 3097 C 295.072 -1.10976 2.05443 0
M  V30 3098 C 296.053 -1.41482 0.944284 0
M  V30 3099 O 297.238 -1.51428 1.21586 0
M  V30 3100 C 294.368 -2.42831 2.48295 0
M  V30 3101 C 293.322 -2.26721 3.63018 0
M  V30 3102 C 292.648 -3.63796 3.91863 0
M  V30 3103 C 293.948 -1.7037 4.93732 0
M  V30 3104 H 295.642 -0.709564 2.9087 0
M  V30 3105 H 293.188 -0.339874 1.39932 0
M  V30 3106 H 295.141 -3.14431 2.80555 0
M  V30 3107 H 293.865 -2.84795 1.59873 0
M  V30 3108 H 292.524 -1.57565 3.31012 0
M  V30 3109 H 292.172 -4.03297 3.00601 0
M  V30 3110 H 291.872 -3.53861 4.69101 0
M  V30 3111 H 293.396 -4.36855 4.26603 0
M  V30 3112 H 294.81 -2.31816 5.24342 0
M  V30 3113 H 293.207 -1.71181 5.75167 0
M  V30 3114 H 294.277 -0.663542 4.80339 0
M  V30 3115 N 295.62 -1.53406 -0.361157 0
M  V30 3116 C 297.036 -1.43277 -0.703124 0
M  V30 3117 C 297.236 -0.575384 -1.9311 0
M  V30 3118 O 296.292 -0.0595362 -2.5243 0
M  V30 3119 C 297.605 -2.8653 -0.9122 0
M  V30 3120 C 299.153 -2.96191 -1.01193 0
M  V30 3121 C 299.628 -4.40514 -1.25345 0
M  V30 3122 N 301.119 -4.43962 -1.32105 0
M  V30 3123 C 301.854 -5.52746 -1.5251 0
M  V30 3124 N 301.35 -6.71567 -1.70203 0
M  V30 3125 N 303.143 -5.40331 -1.54916 0
M  V30 3126 H 295.294 -2.07654 0.446475 0
M  V30 3127 H 297.557 -0.937944 0.137715 0
M  V30 3128 H 297.263 -3.51605 -0.0816414 0
M  V30 3129 H 297.137 -3.30441 -1.81903 0
M  V30 3130 H 299.524 -2.31266 -1.83303 0
M  V30 3131 H 299.605 -2.55667 -0.0823929 0
M  V30 3132 H 299.249 -5.06014 -0.437346 0
M  V30 3133 H 299.179 -4.78614 -2.19627 0
M  V30 3134 H 301.67 -3.58332 -1.20028 0
M  V30 3135 H 301.983 -7.50241 -1.85359 0
M  V30 3136 H 300.328 -6.74545 -1.67373 0
M  V30 3137 H 303.519 -4.46465 -1.40663 0
M  V30 3138 H 303.692 -6.25173 -1.70477 0
M  V30 3139 N 297.098 0.621204 -1.44841 0
M  V30 3140 C 298.323 1.41244 -1.51871 0
M  V30 3141 C 298.748 1.87519 -0.147764 0
M  V30 3142 O 298.106 1.59334 0.865 0
M  V30 3143 C 298.154 2.60221 -2.49634 0
M  V30 3144 O 297.258 3.60395 -2.00473 0
M  V30 3145 H 296.599 0.42223 -0.512463 0
M  V30 3146 H 299.129 0.757305 -1.90069 0
M  V30 3147 H 299.139 3.0764 -2.67996 0
M  V30 3148 H 297.814 2.25887 -3.4921 0
M  V30 3149 H 296.391 3.19717 -1.91925 0
M  V30 3150 N 298.576 1.31904 0.862503 0
M  V30 3151 C 299.508 1.16005 1.97675 0
M  V30 3152 C 300.521 0.0971234 1.6251 0
M  V30 3153 O 301.71 0.345337 1.75128 0
M  V30 3154 C 298.81 0.751791 3.30456 0
M  V30 3155 C 297.983 1.90133 3.93914 0
M  V30 3156 C 297.042 1.4779 5.05019 0
M  V30 3157 O 296.068 2.18872 5.25437 0
M  V30 3158 N 297.27 0.369491 5.79323 0
M  V30 3159 H 300.035 2.11982 2.11857 0
M  V30 3160 H 297.596 1.24337 1.03691 0
M  V30 3161 H 299.588 0.451084 4.02178 0
M  V30 3162 H 298.158 -0.116593 3.12382 0
M  V30 3163 H 297.378 2.36896 3.15078 0
M  V30 3164 H 298.666 2.67111 4.33047 0
M  V30 3165 H 298.064 -0.222299 5.65263 0
M  V30 3166 H 296.621 0.128354 6.51674 0
M  V30 3167 N 300.054 -1.07777 1.14986 0
M  V30 3168 C 301.002 -2.16964 0.838406 0
M  V30 3169 C 301.996 -1.68372 -0.186386 0
M  V30 3170 O 303.202 -1.79951 -0.0418465 0
M  V30 3171 H 299.577 -0.708006 0.253439 0
M  V30 3172 H 301.548 -2.40454 1.76704 0
M  V30 3173 C 300.297 -3.4604 0.339335 0
M  V30 3174 H 299.62 -3.83813 1.11927 0
M  V30 3175 H 301.06 -4.23698 0.160021 0
M  V30 3176 C 299.519 -3.23569 -0.938325 0
M  V30 3177 O 300.049 -3.47752 -2.01077 0
M  V30 3178 N 298.255 -2.77079 -0.876117 0
M  V30 3179 H 297.802 -2.576 -0.00322037 0
M  V30 3180 H 297.76 -2.62422 -1.73153 0
M  V30 3181 N 301.532 -0.945985 -1.26051 0
M  V30 3182 C 302.462 -0.477172 -2.28572 0
M  V30 3183 C 303.443 0.472032 -1.63419 0
M  V30 3184 O 304.628 0.372853 -1.90587 0
M  V30 3185 C 301.758 0.253975 -3.4637 0
M  V30 3186 C 300.712 -0.609135 -4.23643 0
M  V30 3187 C 300.038 0.252252 -5.34105 0
M  V30 3188 C 301.338 -1.8829 -4.8718 0
M  V30 3189 H 303.032 -1.33402 -2.68038 0
M  V30 3190 H 300.578 -0.642904 -1.28852 0
M  V30 3191 H 302.531 0.593016 -4.17207 0
M  V30 3192 H 301.255 1.145 -3.05871 0
M  V30 3193 H 299.914 -0.931138 -3.54578 0
M  V30 3194 H 299.562 1.14278 -4.89846 0
M  V30 3195 H 299.262 -0.32188 -5.86718 0
M  V30 3196 H 300.786 0.586454 -6.07777 0
M  V30 3197 H 302.2 -1.61081 -5.50205 0
M  V30 3198 H 300.597 -2.40199 -5.49931 0
M  V30 3199 H 301.667 -2.59134 -4.09851 0
M  V30 3200 N 303.011 1.40521 -0.713556 0
M  V30 3201 C 303.974 2.29098 -0.0684347 0
M  V30 3202 C 304.974 1.45268 0.689472 0
M  V30 3203 O 306.164 1.66205 0.521677 0
M  V30 3204 C 303.296 3.28446 0.913024 0
M  V30 3205 H 304.489 2.87645 -0.84855 0
M  V30 3206 H 302.042 1.48809 -0.47809 0
M  V30 3207 H 302.777 2.74913 1.72027 0
M  V30 3208 H 302.562 3.90327 0.372472 0
M  V30 3209 H 304.052 3.94777 1.36165 0
M  V30 3210 N 304.489 0.459591 1.5075 0
M  V30 3211 C 305.419 -0.330644 2.31147 0
M  V30 3212 C 306.4 -1.00087 1.37538 0
M  V30 3213 O 307.585 -1.00025 1.66459 0
M  V30 3214 C 304.715 -1.41958 3.16962 0
M  V30 3215 C 303.669 -0.871608 4.19031 0
M  V30 3216 C 302.995 -2.05797 4.9351 0
M  V30 3217 C 304.295 0.109251 5.22186 0
M  V30 3218 H 305.989 0.340336 2.97459 0
M  V30 3219 H 303.535 0.165119 1.4305 0
M  V30 3220 H 305.488 -1.9798 3.71997 0
M  V30 3221 H 304.212 -2.11917 2.48513 0
M  V30 3222 H 302.871 -0.333442 3.6508 0
M  V30 3223 H 302.519 -2.74427 4.21544 0
M  V30 3224 H 302.219 -1.6976 5.62544 0
M  V30 3225 H 303.743 -2.62331 5.51375 0
M  V30 3226 H 305.157 -0.361405 5.7216 0
M  V30 3227 H 303.554 0.383316 5.98875 0
M  V30 3228 H 304.624 1.03887 4.73641 0
M  V30 3229 N 305.967 -1.56429 0.191757 0
M  V30 3230 C 307.215 -1.97095 -0.447006 0
M  V30 3231 C 307.536 -1.07967 -1.62383 0
M  V30 3232 O 306.806 -0.150248 -1.95323 0
M  V30 3233 H 305.386 -0.727832 -0.168135 0
M  V30 3234 H 308.048 -1.92911 0.27771 0
M  V30 3235 H 307.144 -3.01848 -0.793371 0
M  V30 3236 N 307.445 0.0818655 -1.57387 0
M  V30 3237 C 308.693 0.781368 -1.86384 0
M  V30 3238 C 309.014 1.78618 -0.782342 0
M  V30 3239 O 308.284 1.94976 0.190061 0
M  V30 3240 H 306.864 0.291562 -0.687751 0
M  V30 3241 H 309.526 0.060348 -1.94807 0
M  V30 3242 H 308.622 1.3038 -2.83562 0
M  V30 3243 N 308.923 1.53595 0.353017 0
M  V30 3244 C 310.148 1.7462 1.11904 0
M  V30 3245 C 310.573 0.479721 1.8188 0
M  V30 3246 O 309.931 -0.567066 1.72204 0
M  V30 3247 C 309.979 2.92029 2.11545 0
M  V30 3248 O 309.083 2.61516 3.18878 0
M  V30 3249 H 308.424 0.579531 0.324099 0
M  V30 3250 H 310.954 2.00525 0.406301 0
M  V30 3251 H 310.964 3.18551 2.5493 0
M  V30 3252 H 309.639 3.83888 1.60008 0
M  V30 3253 H 308.216 2.45852 2.80377 0
M  V30 3254 N 310.401 -0.613514 1.45168 0
M  V30 3255 C 311.647 -1.37471 1.49096 0
M  V30 3256 C 311.98 -1.93765 0.129901 0
M  V30 3257 O 311.255 -1.74707 -0.854858 0
M  V30 3258 C 311.538 -2.52701 2.56542 0
M  V30 3259 C 311.391 -2.01643 4.0207 0
M  V30 3260 C 312.71 -3.54849 2.60327 0
M  V30 3261 H 309.829 -0.498502 0.54283 0
M  V30 3262 H 312.471 -0.692125 1.76945 0
M  V30 3263 H 310.621 -3.10931 2.32926 0
M  V30 3264 H 312.293 -1.48108 4.36877 0
M  V30 3265 H 310.536 -1.32688 4.13009 0
M  V30 3266 H 311.207 -2.84681 4.72928 0
M  V30 3267 H 313.683 -3.0645 2.81474 0
M  V30 3268 H 312.559 -4.32973 3.37381 0
M  V30 3269 H 312.82 -4.10079 1.6519 0
M  V30 3270 N 311.879 -1.3236 -0.855495 0
M  V30 3271 C 312.789 -1.23221 -1.99634 0
M  V30 3272 C 313.805 -0.145983 -1.73387 0
M  V30 3273 O 314.981 -0.366502 -1.98037 0
M  V30 3274 C 312.046 -0.954782 -3.33294 0
M  V30 3275 C 311.107 -2.12937 -3.72769 0
M  V30 3276 C 310.34 -1.86508 -5.00051 0
M  V30 3277 O 310.563 -0.807231 -5.64659 0
M  V30 3278 O 309.497 -2.72591 -5.36636 0
M  V30 3279 H 313.323 -2.19126 -2.1028 0
M  V30 3280 H 310.908 -1.12241 -0.986018 0
M  V30 3281 H 312.79 -0.816519 -4.13414 0
M  V30 3282 H 311.465 -0.0258854 -3.2369 0
M  V30 3283 H 310.372 -2.3231 -2.93228 0
M  V30 3284 H 311.705 -3.04102 -3.87018 0
M  V30 3285 N 313.357 1.07166 -1.15556 0
M  V30 3286 C 314.305 2.16517 -0.8499 0
M  V30 3287 C 315.299 1.68468 0.177454 0
M  V30 3288 O 316.505 1.79971 0.0323026 0
M  V30 3289 H 312.88 0.706652 -0.25719 0
M  V30 3290 H 314.851 2.39514 -1.77976 0
M  V30 3291 C 313.6 3.45855 -0.357682 0
M  V30 3292 H 312.923 3.83214 -1.13961 0
M  V30 3293 H 314.363 4.23607 -0.182489 0
M  V30 3294 C 312.822 3.24062 0.921152 0
M  V30 3295 O 313.352 3.48813 1.9923 0
M  V30 3296 N 311.558 2.77539 0.86141 0
M  V30 3297 H 311.105 2.57598 -0.0104408 0
M  V30 3298 H 311.063 2.63337 1.71758 0
M  V30 3299 N 314.835 0.952656 1.25548 0
M  V30 3300 C 315.798 0.475794 2.24207 0
M  V30 3301 C 316.798 -0.419428 1.55234 0
M  V30 3302 O 317.988 -0.216994 1.72843 0
M  V30 3303 C 315.12 -0.312814 3.39462 0
M  V30 3304 H 316.313 1.34779 2.67908 0
M  V30 3305 H 313.866 0.735739 1.37901 0
M  V30 3306 H 314.601 -1.20257 3.01179 0
M  V30 3307 H 314.386 0.329404 3.90714 0
M  V30 3308 H 315.876 -0.635986 4.12729 0
M  V30 3309 N 316.313 -1.40141 0.720998 0
M  V30 3310 C 317.562 -2.0002 0.259804 0
M  V30 3311 C 317.875 -1.57839 -1.15526 0
M  V30 3312 O 319.081 -2.10455 -1.71525 0
M  V30 3313 C 317.537 -3.57516 0.413566 0
M  V30 3314 C 317.145 -4.08667 1.83562 0
M  V30 3315 C 318.889 -4.24498 0.0134387 0
M  V30 3316 C 316.796 -5.58686 1.93968 0
M  V30 3317 H 315.726 -0.748195 0.0933806 0
M  V30 3318 H 318.377 -1.60313 0.892866 0
M  V30 3319 H 316.759 -3.9495 -0.288169 0
M  V30 3320 H 317.933 -3.82598 2.56817 0
M  V30 3321 H 316.248 -3.543 2.1877 0
M  V30 3322 H 318.845 -5.34654 0.0703954 0
M  V30 3323 H 319.188 -4.03375 -1.02927 0
M  V30 3324 H 319.721 -3.92188 0.665815 0
M  V30 3325 H 316.46 -5.8467 2.96379 0
M  V30 3326 H 315.98 -5.86602 1.25131 0
M  V30 3327 H 317.659 -6.23875 1.71431 0
M  V30 3328 N 317.792 -0.46758 -1.50504 0
M  V30 3329 C 319.038 0.0887532 -2.02606 0
M  V30 3330 C 319.371 1.39686 -1.34913 0
M  V30 3331 O 318.646 1.88644 -0.473694 0
M  V30 3332 C 318.929 0.276206 -3.59039 0
M  V30 3333 C 318.782 -1.05267 -4.37309 0
M  V30 3334 C 320.101 1.03235 -4.27821 0
M  V30 3335 H 317.22 0.0307814 -0.736357 0
M  V30 3336 H 319.862 -0.612485 -1.79857 0
M  V30 3337 H 318.012 0.8735 -3.78553 0
M  V30 3338 H 319.684 -1.68628 -4.29374 0
M  V30 3339 H 317.927 -1.65015 -4.01189 0
M  V30 3340 H 318.598 -0.875197 -5.45018 0
M  V30 3341 H 321.074 0.526111 -4.12761 0
M  V30 3342 H 319.95 1.1323 -5.37094 0
M  V30 3343 H 320.211 2.06806 -3.90748 0
M  V30 3344 N 319.27 1.56325 -0.20005 0
M  V30 3345 C 320.516 1.98012 0.438059 0
M  V30 3346 C 320.849 1.08702 1.60927 0
M  V30 3347 O 320.124 0.140064 1.93995 0
M  V30 3348 C 320.407 3.48841 0.893419 0
M  V30 3349 C 320.26 4.48928 -0.279947 0
M  V30 3350 C 321.579 4.03498 1.75719 0
M  V30 3351 H 318.698 0.719918 0.157757 0
M  V30 3352 H 321.34 1.87743 -0.291968 0
M  V30 3353 H 319.49 3.57723 1.51547 0
M  V30 3354 H 321.162 4.52079 -0.91772 0
M  V30 3355 H 319.405 4.23694 -0.930919 0
M  V30 3356 H 320.076 5.5194 0.0812601 0
M  V30 3357 H 322.552 3.97427 1.23253 0
M  V30 3358 H 321.428 5.09393 2.04476 0
M  V30 3359 H 321.689 3.4906 2.71311 0
M  V30 3360 N 320.748 -0.0735177 1.57428 0
M  V30 3361 C 322.025 -0.805903 1.78226 0
M  V30 3362 C 322.405 -1.95874 0.787189 0
M  V30 3363 O 321.753 -2.2779 -0.180029 0
M  V30 3364 C 321.963 -1.28045 3.24662 0
M  V30 3365 C 323.311 -1.71453 3.88444 0
M  V30 3366 O 324.335 -1.37616 3.28543 0
M  V30 3367 O 323.194 -2.34093 4.93825 0
M  V30 3368 H 320.288 -0.386041 0.73137 0
M  V30 3369 H 322.834 -0.0537269 1.69615 0
M  V30 3370 H 321.606 -0.455476 3.8864 0
M  V30 3371 H 321.229 -2.094 3.37991 0
M  V30 3372 N 322.226 -1.5378 -0.344866 0
M  V30 3373 C 323.136 -1.84667 -1.4469 0
M  V30 3374 C 324.152 -0.736704 -1.57635 0
M  V30 3375 O 325.328 -1.02888 -1.73136 0
M  V30 3376 C 322.393 -2.04869 -2.79696 0
M  V30 3377 C 321.454 -3.28731 -2.76106 0
M  V30 3378 C 320.687 -3.4796 -4.04673 0
M  V30 3379 O 320.91 -2.71052 -5.01883 0
M  V30 3380 O 319.844 -4.41383 -4.09224 0
M  V30 3381 H 323.67 -2.78334 -1.21506 0
M  V30 3382 H 321.255 -1.39418 -0.536921 0
M  V30 3383 H 323.137 -2.19609 -3.59652 0
M  V30 3384 H 321.812 -1.14391 -3.02814 0
M  V30 3385 H 320.719 -3.19396 -1.94774 0
M  V30 3386 H 322.052 -4.19198 -2.57941 0
M  V30 3387 N 323.704 0.605807 -1.45491 0
M  V30 3388 C 324.652 1.73754 -1.54636 0
M  V30 3389 C 325.646 1.64207 -0.416219 0
M  V30 3390 O 326.852 1.69979 -0.592199 0
M  V30 3391 H 323.227 0.574073 -0.485741 0
M  V30 3392 H 325.198 1.63169 -2.49837 0
M  V30 3393 C 323.947 3.12135 -1.53189 0
M  V30 3394 H 323.27 3.20141 -2.39478 0
M  V30 3395 H 324.71 3.91147 -1.63645 0
M  V30 3396 C 323.169 3.35921 -0.256616 0
M  V30 3397 O 323.699 3.96194 0.662798 0
M  V30 3398 N 321.905 2.90204 -0.151751 0
M  V30 3399 H 321.452 2.41336 -0.90081 0
M  V30 3400 H 321.41 3.06492 0.700699 0
M  V30 3401 N 325.182 1.32811 0.848464 0
M  V30 3402 C 326.598 1.11937 1.13764 0
M  V30 3403 C 326.798 -0.0960789 2.01271 0
M  V30 3404 O 325.854 -0.779165 2.40178 0
M  V30 3405 C 327.167 2.402 1.809 0
M  V30 3406 C 328.715 2.46016 1.93508 0
M  V30 3407 C 329.19 3.74215 2.64059 0
M  V30 3408 N 330.681 3.75232 2.71579 0
M  V30 3409 C 331.416 4.71134 3.26833 0
M  V30 3410 N 330.912 5.77406 3.8285 0
M  V30 3411 N 332.705 4.58623 3.24995 0
M  V30 3412 H 324.856 2.1073 0.265855 0
M  V30 3413 H 327.119 0.930671 0.180431 0
M  V30 3414 H 326.825 3.29093 1.24058 0
M  V30 3415 H 326.699 2.51628 2.81004 0
M  V30 3416 H 329.086 1.57577 2.49506 0
M  V30 3417 H 329.167 2.38536 0.923811 0
M  V30 3418 H 328.811 4.63031 2.08722 0
M  V30 3419 H 328.741 3.78968 3.65637 0
M  V30 3420 H 331.232 2.98423 2.31845 0
M  V30 3421 H 331.545 6.46632 4.23187 0
M  V30 3422 H 329.89 5.81152 3.81165 0
M  V30 3423 H 333.081 3.74762 2.80484 0
M  V30 3424 H 333.254 5.33535 3.67756 0
M  V30 3425 N 326.66 -1.06551 1.16123 0
M  V30 3426 C 327.906 -1.79567 0.94252 0
M  V30 3427 C 328.239 -1.86869 -0.528547 0
M  V30 3428 O 327.514 -1.35838 -1.39206 0
M  V30 3429 C 327.797 -3.24195 1.56747 0
M  V30 3430 C 327.65 -3.24989 3.10969 0
M  V30 3431 C 328.969 -4.21678 1.25998 0
M  V30 3432 H 326.088 -0.651883 0.343828 0
M  V30 3433 H 328.73 -1.2463 1.43413 0
M  V30 3434 H 326.88 -3.71107 1.14942 0
M  V30 3435 H 328.552 -2.86258 3.61737 0
M  V30 3436 H 326.795 -2.63716 3.44436 0
M  V30 3437 H 327.466 -4.27005 3.49815 0
M  V30 3438 H 329.942 -3.83196 1.62174 0
M  V30 3439 H 328.818 -5.21146 1.7233 0
M  V30 3440 H 329.079 -4.4174 0.178367 0
M  V30 3441 N 328.138 -0.959301 -1.25041 0
M  V30 3442 C 329.068 -0.501388 -2.28053 0
M  V30 3443 C 330.049 0.454673 -1.63911 0
M  V30 3444 O 331.234 0.352618 -1.90972 0
M  V30 3445 C 328.364 0.217224 -3.4662 0
M  V30 3446 C 327.318 -0.654034 -4.22973 0
M  V30 3447 C 326.644 0.195589 -5.34342 0
M  V30 3448 C 327.944 -1.93447 -4.85155 0
M  V30 3449 H 329.638 -1.36238 -2.66608 0
M  V30 3450 H 327.184 -0.656534 -1.28163 0
M  V30 3451 H 329.137 0.548732 -4.17812 0
M  V30 3452 H 327.861 1.1125 -3.07068 0
M  V30 3453 H 326.52 -0.968693 -3.5357 0
M  V30 3454 H 326.168 1.09076 -4.91031 0
M  V30 3455 H 325.868 -0.384091 -5.86343 0
M  V30 3456 H 327.392 0.521958 -6.08365 0
M  V30 3457 H 328.806 -1.66908 -5.48466 0
M  V30 3458 H 327.203 -2.46018 -5.47353 0
M  V30 3459 H 328.273 -2.63466 -4.07079 0
M  V30 3460 N 329.616 1.39756 -0.72842 0
M  V30 3461 C 330.564 2.32485 -0.0731849 0
M  V30 3462 C 331.558 1.52717 0.733063 0
M  V30 3463 O 332.764 1.68428 0.634988 0
M  V30 3464 H 329.139 0.751984 -0.00486469 0
M  V30 3465 H 331.11 2.85382 -0.871761 0
M  V30 3466 C 329.859 3.37773 0.824908 0
M  V30 3467 H 329.182 3.99227 0.213915 0
M  V30 3468 H 330.622 4.05121 1.25111 0
M  V30 3469 C 329.081 2.74287 1.95622 0
M  V30 3470 O 329.611 2.61618 3.04826 0
M  V30 3471 N 327.817 2.32475 1.74367 0
M  V30 3472 H 327.364 2.4298 0.855494 0
M  V30 3473 H 327.322 1.90337 2.50238 0
M  V30 3474 N 331.094 0.475555 1.50254 0
M  V30 3475 C 332.004 -0.321501 2.32387 0
M  V30 3476 C 333.02 -0.991755 1.42969 0
M  V30 3477 O 334.196 -0.978747 1.76018 0
M  V30 3478 C 331.261 -1.38667 3.17762 0
M  V30 3479 C 330.322 -0.732538 4.23004 0
M  V30 3480 C 329.555 -1.74695 5.04299 0
M  V30 3481 O 329.778 -2.97399 4.86734 0
M  V30 3482 O 328.712 -1.31631 5.8733 0
M  V30 3483 H 332.538 0.350071 3.01676 0
M  V30 3484 H 330.123 0.237321 1.47503 0
M  V30 3485 H 332.005 -2.00354 3.70724 0
M  V30 3486 H 330.68 -2.04163 2.51196 0
M  V30 3487 H 329.587 -0.0765902 3.74022 0
M  V30 3488 H 330.92 -0.120452 4.92053 0
M  V30 3489 N 332.573 -1.56217 0.208337 0
M  V30 3490 C 333.85 -1.89739 -0.475234 0
M  V30 3491 C 334.23 -1.1238 -1.78701 0
M  V30 3492 O 333.578 -0.228979 -2.2735 0
M  V30 3493 C 333.788 -3.42289 -0.681101 0
M  V30 3494 C 335.136 -4.12789 -0.994507 0
M  V30 3495 O 336.16 -3.47814 -0.768357 0
M  V30 3496 O 335.019 -5.27649 -1.42299 0
M  V30 3497 H 332.113 -0.788478 -0.249461 0
M  V30 3498 H 334.659 -1.67855 0.249538 0
M  V30 3499 H 333.431 -3.90534 0.244722 0
M  V30 3500 H 333.054 -3.69909 -1.45785 0
M  V30 3501 N 334.051 0.0651679 -1.57465 0
M  V30 3502 C 335.299 0.761555 -1.87202 0
M  V30 3503 C 335.62 1.77778 -0.801243 0
M  V30 3504 O 334.89 1.95166 0.16937 0
M  V30 3505 H 333.47 0.284251 -0.690804 0
M  V30 3506 H 336.132 0.0396827 -1.9486 0
M  V30 3507 H 335.228 1.27365 -2.84929 0
M  V30 3508 N 335.529 1.53961 0.336706 0
M  V30 3509 C 336.459 1.85417 1.41925 0
M  V30 3510 C 337.44 0.709856 1.5458 0
M  V30 3511 O 338.625 0.962396 1.68676 0
M  V30 3512 C 335.755 2.06985 2.78881 0
M  V30 3513 C 334.709 3.22813 2.81026 0
M  V30 3514 C 334.035 3.29727 4.20932 0
M  V30 3515 C 335.335 4.60767 2.45949 0
M  V30 3516 H 337.029 2.76079 1.15848 0
M  V30 3517 H 334.575 1.32839 0.555859 0
M  V30 3518 H 336.528 2.27575 3.54665 0
M  V30 3519 H 335.252 1.13061 3.06406 0
M  V30 3520 H 333.911 3.0209 2.07695 0
M  V30 3521 H 333.559 2.33385 4.45579 0
M  V30 3522 H 333.259 4.07566 4.23277 0
M  V30 3523 H 334.783 3.52536 4.98549 0
M  V30 3524 H 336.197 4.81325 3.11446 0
M  V30 3525 H 334.594 5.4106 2.59566 0
M  V30 3526 H 335.664 4.6391 1.41122 0
M  V30 3527 N 337.007 -0.598083 1.45811 0
M  V30 3528 C 338.423 -0.919847 1.30426 0
M  V30 3529 C 338.623 -1.99759 0.264303 0
M  V30 3530 O 337.679 -2.50221 -0.338472 0
M  V30 3531 C 338.992 -1.35176 2.68603 0
M  V30 3532 C 340.54 -1.46546 2.76574 0
M  V30 3533 C 341.015 -1.9311 4.15298 0
M  V30 3534 N 342.506 -2.00328 4.1764 0
M  V30 3535 C 343.241 -2.37599 5.21856 0
M  V30 3536 N 342.737 -2.73771 6.36413 0
M  V30 3537 N 344.53 -2.38021 5.09218 0
M  V30 3538 H 336.681 0.114111 2.12093 0
M  V30 3539 H 338.944 -0.0116121 0.947929 0
M  V30 3540 H 338.65 -0.633969 3.45939 0
M  V30 3541 H 338.524 -2.3164 2.97696 0
M  V30 3542 H 340.911 -2.17415 1.99537 0
M  V30 3543 H 340.992 -0.483727 2.51185 0
M  V30 3544 H 340.636 -1.22824 4.92825 0
M  V30 3545 H 340.566 -2.92213 4.38086 0
M  V30 3546 H 343.057 -1.74925 3.34977 0
M  V30 3547 H 343.37 -3.0112 7.11721 0
M  V30 3548 H 341.715 -2.71445 6.39799 0
M  V30 3549 H 344.906 -2.09174 4.18765 0
M  V30 3550 H 345.079 -2.66741 5.90554 0
M  V30 3551 N 338.485 -1.33259 -0.841409 0
M  V30 3552 C 339.715 -1.2742 -1.62628 0
M  V30 3553 C 340.123 0.157604 -1.88542 0
M  V30 3554 O 339.466 1.10938 -1.46419 0
M  V30 3555 C 339.528 -1.97797 -3.00194 0
M  V30 3556 C 339.192 -3.47109 -2.97261 0
M  V30 3557 C 340.189 -4.42358 -2.73159 0
M  V30 3558 C 337.874 -3.89247 -3.17478 0
M  V30 3559 C 339.868 -5.77718 -2.69296 0
M  V30 3560 C 337.555 -5.24713 -3.13241 0
M  V30 3561 C 338.553 -6.1876 -2.89181 0
M  V30 3562 O 338.241 -7.51745 -2.84843 0
M  V30 3563 H 337.973 -0.440436 -0.512827 0
M  V30 3564 H 340.527 -1.76153 -1.05638 0
M  V30 3565 H 338.757 -1.43652 -3.59028 0
M  V30 3566 H 340.446 -1.8549 -3.61038 0
M  V30 3567 H 341.212 -4.11127 -2.57294 0
M  V30 3568 H 337.091 -3.16456 -3.35226 0
M  V30 3569 H 340.635 -6.51097 -2.50436 0
M  V30 3570 H 336.532 -5.55569 -3.28654 0
M  V30 3571 H 337.3 -7.61262 -3.00702 0
M  V30 3572 N 339.963 1.05934 -1.16686 0
M  V30 3573 C 340.873 2.17014 -0.891183 0
M  V30 3574 C 341.889 1.73453 0.137907 0
M  V30 3575 O 343.065 2.01361 -0.039592 0
M  V30 3576 C 340.13 3.44384 -0.400099 0
M  V30 3577 C 339.191 4.02433 -1.49486 0
M  V30 3578 C 338.424 5.23723 -1.02711 0
M  V30 3579 O 338.647 5.7027 0.121716 0
M  V30 3580 O 337.581 5.7382 -1.81699 0
M  V30 3581 H 341.407 2.43113 -1.82015 0
M  V30 3582 H 338.992 1.15541 -0.947132 0
M  V30 3583 H 340.874 4.21189 -0.133392 0
M  V30 3584 H 339.549 3.19802 0.500817 0
M  V30 3585 H 338.456 3.27102 -1.81535 0
M  V30 3586 H 339.789 4.31317 -2.37121 0
M  V30 3587 N 341.441 0.965919 1.2453 0
M  V30 3588 C 342.718 0.543777 1.87889 0
M  V30 3589 C 343.098 -0.97909 1.87021 0
M  V30 3590 O 342.446 -1.84969 1.3416 0
M  V30 3591 C 342.656 1.13327 3.30088 0
M  V30 3592 C 344.004 1.21707 4.06783 0
M  V30 3593 O 345.028 1.08566 3.39252 0
M  V30 3594 O 343.887 1.42456 5.27606 0
M  V30 3595 H 340.981 0.181054 0.806938 0
M  V30 3596 H 343.527 1.06007 1.32516 0
M  V30 3597 H 342.299 2.17612 3.25209 0
M  V30 3598 H 341.922 0.600911 3.93033 0
M  V30 3599 N 342.919 -1.39368 0.735821 0
M  V30 3600 C 343.829 -2.34395 0.0979693 0
M  V30 3601 C 344.845 -1.58361 -0.720968 0
M  V30 3602 O 346.021 -1.90648 -0.649245 0
M  V30 3603 C 343.086 -3.37393 -0.797916 0
M  V30 3604 C 342.147 -4.29287 0.0333662 0
M  V30 3605 C 341.38 -5.27365 -0.819854 0
M  V30 3606 O 341.603 -5.31959 -2.05855 0
M  V30 3607 O 340.537 -6.01389 -0.248079 0
M  V30 3608 H 344.363 -2.90601 0.882315 0
M  V30 3609 H 341.948 -1.40909 0.4965 0
M  V30 3610 H 343.83 -4.00505 -1.31048 0
M  V30 3611 H 342.505 -2.83571 -1.56106 0
M  V30 3612 H 341.412 -3.69395 0.591475 0
M  V30 3613 H 342.745 -4.86317 0.758752 0
M  V30 3614 N 344.397 -0.483516 -1.5 0
M  V30 3615 C 345.644 0.0671597 -2.02389 0
M  V30 3616 C 345.972 1.38597 -1.36459 0
M  V30 3617 O 345.227 1.89634 -0.483458 0
M  V30 3618 C 345.526 0.286226 -3.56252 0
M  V30 3619 C 345.192 -0.952416 -4.40726 0
M  V30 3620 C 343.854 -1.29199 -4.63531 0
M  V30 3621 C 346.206 -1.77655 -4.89988 0
M  V30 3622 C 343.534 -2.45553 -5.32842 0
M  V30 3623 C 345.886 -2.93147 -5.60578 0
M  V30 3624 C 344.55 -3.27505 -5.81633 0
M  V30 3625 H 343.82 0.0245755 -0.740592 0
M  V30 3626 H 346.467 -0.640124 -1.80485 0
M  V30 3627 H 344.772 1.07587 -3.76739 0
M  V30 3628 H 346.469 0.726473 -3.94365 0
M  V30 3629 H 343.059 -0.677881 -4.23205 0
M  V30 3630 H 347.243 -1.52737 -4.72213 0
M  V30 3631 H 342.499 -2.72431 -5.47349 0
M  V30 3632 H 346.673 -3.57344 -5.97727 0
M  V30 3633 H 344.3 -4.1777 -6.35116 0
M  V30 3634 N 345.875 1.56104 -0.216619 0
M  V30 3635 C 347.121 1.98466 0.417033 0
M  V30 3636 C 347.454 1.10403 1.59765 0
M  V30 3637 O 346.729 0.160632 1.93836 0
M  V30 3638 C 347.012 3.49769 0.85637 0
M  V30 3639 C 346.865 4.48606 -0.327546 0
M  V30 3640 C 348.184 4.05339 1.7143 0
M  V30 3641 H 345.303 0.721551 0.150112 0
M  V30 3642 H 347.945 1.87423 -0.311864 0
M  V30 3643 H 346.095 3.5931 1.47745 0
M  V30 3644 H 347.767 4.5108 -0.965618 0
M  V30 3645 H 346.01 4.22682 -0.975805 0
M  V30 3646 H 346.681 5.51995 0.0227149 0
M  V30 3647 H 349.157 3.98712 1.19031 0
M  V30 3648 H 348.033 5.11533 1.99061 0
M  V30 3649 H 348.294 3.51918 2.67593 0
M  V30 3650 N 347.353 -0.0568162 1.57498 0
M  V30 3651 C 348.3 -1.06591 2.04712 0
M  V30 3652 C 349.27 -1.3758 0.930644 0
M  V30 3653 O 350.455 -1.48392 1.19935 0
M  V30 3654 C 347.595 -2.3701 2.50839 0
M  V30 3655 C 346.708 -2.12421 3.76167 0
M  V30 3656 C 345.843 -3.36511 4.11015 0
M  V30 3657 C 344.882 -3.07353 5.2934 0
M  V30 3658 N 344.019 -4.23816 5.59754 0
M  V30 3659 H 348.859 -0.65631 2.90683 0
M  V30 3660 H 346.396 -0.312481 1.43743 0
M  V30 3661 H 348.354 -3.13175 2.7564 0
M  V30 3662 H 346.984 -2.75744 1.67825 0
M  V30 3663 H 346.036 -1.2688 3.58616 0
M  V30 3664 H 347.348 -1.86894 4.62463 0
M  V30 3665 H 346.502 -4.21062 4.36797 0
M  V30 3666 H 345.241 -3.65128 3.23315 0
M  V30 3667 H 344.246 -2.212 5.03339 0
M  V30 3668 H 345.471 -2.80043 6.1867 0
M  V30 3669 H 343.417 -4.52436 4.75014 0
M  V30 3670 H 343.334 -4.01614 6.40501 0
M  V30 3671 H 344.602 -5.0932 5.90096 0
M  V30 3672 N 348.832 -1.54138 -0.328536 0
M  V30 3673 C 349.782 -1.79557 -1.4051 0
M  V30 3674 C 350.766 -0.651373 -1.47126 0
M  V30 3675 O 351.958 -0.911226 -1.51742 0
M  V30 3676 C 349.087 -2.02196 -2.77438 0
M  V30 3677 C 348.173 -3.22724 -2.75155 0
M  V30 3678 N 348.564 -4.43881 -2.42494 0
M  V30 3679 C 346.862 -3.24196 -3.06289 0
M  V30 3680 C 347.563 -5.25797 -2.48822 0
M  V30 3681 N 346.539 -4.62862 -2.8506 0
M  V30 3682 H 350.341 -2.70814 -1.1418 0
M  V30 3683 H 347.855 -1.53265 -0.536991 0
M  V30 3684 H 349.852 -2.18546 -3.55026 0
M  V30 3685 H 348.512 -1.12191 -3.04702 0
M  V30 3686 H 349.523 -4.70969 -2.15428 0
M  V30 3687 H 346.2 -2.44208 -3.38627 0
M  V30 3688 H 347.59 -6.32535 -2.26603 0
M  V30 3689 N 350.31 0.590341 -1.46126 0
M  V30 3690 C 351.257 1.69994 -1.56111 0
M  V30 3691 C 352.227 1.61065 -0.405867 0
M  V30 3692 O 353.412 1.8039 -0.621613 0
M  V30 3693 C 350.552 3.08326 -1.55013 0
M  V30 3694 C 349.665 3.27936 -2.81215 0
M  V30 3695 C 348.8 4.56473 -2.71673 0
M  V30 3696 C 347.839 4.694 -3.92849 0
M  V30 3697 N 346.976 5.89254 -3.81738 0
M  V30 3698 H 351.816 1.60797 -2.50895 0
M  V30 3699 H 349.353 0.783799 -1.24479 0
M  V30 3700 H 351.311 3.88383 -1.52362 0
M  V30 3701 H 349.941 3.16439 -0.637667 0
M  V30 3702 H 348.993 2.41536 -2.93879 0
M  V30 3703 H 350.305 3.33357 -3.71045 0
M  V30 3704 H 349.459 5.44748 -2.67085 0
M  V30 3705 H 348.198 4.53477 -1.7947 0
M  V30 3706 H 347.203 3.79544 -3.97777 0
M  V30 3707 H 348.428 4.7418 -4.86138 0
M  V30 3708 H 346.374 5.87271 -2.92317 0
M  V30 3709 H 346.291 5.95911 -4.65217 0
M  V30 3710 H 347.559 6.79981 -3.81112 0
M  V30 3711 N 351.788 1.33704 0.83433 0
M  V30 3712 C 353.037 1.24763 1.58484 0
M  V30 3713 C 353.35 -0.183775 1.94735 0
M  V30 3714 O 354.556 -0.395234 2.68608 0
M  V30 3715 C 353.012 2.18638 2.85876 0
M  V30 3716 C 352.62 3.66974 2.56971 0
M  V30 3717 C 354.364 2.18581 3.63899 0
M  V30 3718 C 352.271 4.5275 3.80488 0
M  V30 3719 H 351.201 0.463425 0.594772 0
M  V30 3720 H 353.852 1.58797 0.919551 0
M  V30 3721 H 352.234 1.77542 3.5397 0
M  V30 3722 H 353.408 4.16538 1.9706 0
M  V30 3723 H 351.723 3.69366 1.92244 0
M  V30 3724 H 354.32 2.79894 4.55591 0
M  V30 3725 H 354.663 1.18207 3.99165 0
M  V30 3726 H 355.196 2.58062 3.02735 0
M  V30 3727 H 351.935 5.54017 3.5035 0
M  V30 3728 H 351.455 4.07927 4.39722 0
M  V30 3729 H 353.134 4.66784 4.4802 0
M  V30 3730 N 353.266 -1.05314 1.17247 0
M  V30 3731 C 354.196 -2.1498 0.911362 0
M  V30 3732 C 355.177 -1.69471 -0.146169 0
M  V30 3733 O 356.362 -1.942 0.003812 0
M  V30 3734 C 353.492 -3.4472 0.422528 0
M  V30 3735 C 352.446 -4.03789 1.4191 0
M  V30 3736 C 351.772 -5.28858 0.788274 0
M  V30 3737 C 353.072 -4.41418 2.7919 0
M  V30 3738 H 354.766 -2.3708 1.82848 0
M  V30 3739 H 352.312 -1.13938 0.880569 0
M  V30 3740 H 354.265 -4.20787 0.227289 0
M  V30 3741 H 352.989 -3.22269 -0.530123 0
M  V30 3742 H 351.648 -3.2979 1.60106 0
M  V30 3743 H 351.296 -5.02709 -0.171173 0
M  V30 3744 H 350.996 -5.69338 1.45353 0
M  V30 3745 H 352.52 -6.07612 0.603282 0
M  V30 3746 H 353.934 -5.08524 2.64719 0
M  V30 3747 H 352.331 -4.92913 3.42282 0
M  V30 3748 H 353.401 -3.51819 3.33693 0
M  V30 3749 N 354.744 -0.972509 -1.24016 0
M  V30 3750 C 356.021 -0.553733 -1.87598 0
M  V30 3751 C 356.401 0.969158 -1.87538 0
M  V30 3752 O 355.749 1.84255 -1.35139 0
M  V30 3753 C 355.959 -1.15076 -3.29482 0
M  V30 3754 C 357.307 -1.23862 -4.06132 0
M  V30 3755 O 358.331 -1.10363 -3.38672 0
M  V30 3756 O 357.19 -1.45252 -5.26844 0
M  V30 3757 H 354.284 -0.185331 -0.805966 0
M  V30 3758 H 356.83 -1.06709 -1.31952 0
M  V30 3759 H 355.602 -2.19333 -3.2405 0
M  V30 3760 H 355.225 -0.621746 -3.92709 0
M  V30 3761 N 356.222 1.38976 -0.743202 0
M  V30 3762 C 357.185 2.28901 -0.117014 0
M  V30 3763 C 358.185 1.46698 0.658503 0
M  V30 3764 O 359.375 1.67274 0.486305 0
M  V30 3765 C 356.507 3.30309 0.84315 0
M  V30 3766 H 357.7 2.8578 -0.909373 0
M  V30 3767 H 355.253 1.47761 -0.509547 0
M  V30 3768 H 355.988 2.785 1.66157 0
M  V30 3769 H 355.773 3.91029 0.289594 0
M  V30 3770 H 357.263 3.97577 1.2776 0
M  V30 3771 N 357.7 0.491464 1.49741 0
M  V30 3772 C 358.949 -0.0582189 2.01616 0
M  V30 3773 C 359.262 -1.38927 1.3769 0
M  V30 3774 O 360.468 -2.02509 1.80838 0
M  V30 3775 C 358.924 -0.154235 3.59569 0
M  V30 3776 C 358.532 1.1696 4.32463 0
M  V30 3777 C 360.276 -0.65479 4.1942 0
M  V30 3778 C 358.183 1.03627 5.8225 0
M  V30 3779 H 357.113 -0.0255317 0.753568 0
M  V30 3780 H 359.764 0.629445 1.72367 0
M  V30 3781 H 358.146 -0.906138 3.85493 0
M  V30 3782 H 359.32 1.93405 4.18248 0
M  V30 3783 H 357.635 1.60285 3.84315 0
M  V30 3784 H 360.232 -0.771903 5.29099 0
M  V30 3785 H 360.575 -1.65127 3.8215 0
M  V30 3786 H 361.108 0.040304 3.9778 0
M  V30 3787 H 357.847 2.00672 6.24028 0
M  V30 3788 H 357.367 0.312546 5.98985 0
M  V30 3789 H 359.046 0.711114 6.4308 0
M  V30 3790 N 359.178 -1.55987 0.224894 0
M  V30 3791 C 360.426 -1.97998 -0.405099 0
M  V30 3792 C 360.747 -1.11387 -1.60056 0
M  V30 3793 O 360.017 -0.191645 -1.9496 0
M  V30 3794 H 358.597 -0.731235 -0.152658 0
M  V30 3795 H 361.259 -1.92279 0.318567 0
M  V30 3796 H 360.355 -3.03463 -0.729167 0
M  V30 3797 N 360.656 0.0484629 -1.57525 0
M  V30 3798 C 361.933 0.777447 -1.79486 0
M  V30 3799 C 362.313 1.94597 -0.818251 0
M  V30 3800 O 361.661 2.28047 0.143767 0
M  V30 3801 C 361.871 1.22864 -3.26658 0
M  V30 3802 C 363.219 1.65251 -3.91123 0
M  V30 3803 O 364.243 1.32372 -3.3069 0
M  V30 3804 O 363.102 2.26207 -4.97486 0
M  V30 3805 H 360.196 0.374357 -0.737419 0
M  V30 3806 H 362.742 0.0267359 -1.69679 0
M  V30 3807 H 361.514 0.393589 -3.89316 0
M  V30 3808 H 361.137 2.03996 -3.41279 0
M  V30 3809 N 362.134 1.5431 0.320358 0
M  V30 3810 C 363.064 1.86912 1.3995 0
M  V30 3811 C 364.045 0.726211 1.53819 0
M  V30 3812 O 365.23 0.980233 1.67646 0
M  V30 3813 C 362.36 2.09932 2.7667 0
M  V30 3814 C 361.314 3.25776 2.77586 0
M  V30 3815 C 360.64 3.34173 4.17412 0
M  V30 3816 C 361.94 4.6335 2.41048 0
M  V30 3817 H 363.634 2.77292 1.12914 0
M  V30 3818 H 361.18 1.33421 0.541738 0
M  V30 3819 H 363.133 2.31324 3.52232 0
M  V30 3820 H 361.857 1.16304 3.0519 0
M  V30 3821 H 360.516 3.04276 2.04479 0
M  V30 3822 H 360.164 2.38098 4.43078 0
M  V30 3823 H 359.864 4.12033 4.18931 0
M  V30 3824 H 361.388 3.57803 4.94782 0
M  V30 3825 H 362.802 4.84602 3.06324 0
M  V30 3826 H 361.199 5.43782 2.53813 0
M  V30 3827 H 362.269 4.65381 1.36193 0
M  V30 3828 N 363.613 -0.582584 1.46437 0
M  V30 3829 C 364.843 -1.36484 1.55099 0
M  V30 3830 C 365.251 -1.88233 0.191056 0
M  V30 3831 O 364.594 -1.6429 -0.821858 0
M  V30 3832 C 364.656 -2.588 2.49525 0
M  V30 3833 C 364.32 -2.28517 3.95764 0
M  V30 3834 C 365.317 -1.87346 4.84972 0
M  V30 3835 C 363.002 -2.40658 4.40896 0
M  V30 3836 C 364.996 -1.5871 6.17325 0
M  V30 3837 C 362.683 -2.11635 5.73284 0
M  V30 3838 C 363.681 -1.70725 6.61318 0
M  V30 3839 O 363.369 -1.42057 7.91249 0
M  V30 3840 H 363.101 -0.423297 0.527063 0
M  V30 3841 H 365.655 -0.715188 1.92547 0
M  V30 3842 H 363.885 -3.26571 2.07095 0
M  V30 3843 H 365.574 -3.20868 2.48593 0
M  V30 3844 H 366.34 -1.77481 4.5136 0
M  V30 3845 H 362.219 -2.71463 3.72598 0
M  V30 3846 H 365.763 -1.26704 6.85997 0
M  V30 3847 H 361.66 -2.21124 6.06444 0
M  V30 3848 H 362.428 -1.55901 8.03515 0
M  V30 3849 N 365.091 -1.34144 -0.827227 0
M  V30 3850 C 366.021 -1.28005 -1.95287 0
M  V30 3851 C 367.002 -0.158321 -1.69362 0
M  V30 3852 O 368.187 -0.349987 -1.9102 0
M  V30 3853 C 365.317 -1.03036 -3.31664 0
M  V30 3854 C 364.271 -2.11628 -3.72019 0
M  V30 3855 C 363.597 -1.71854 -5.0633 0
M  V30 3856 C 364.897 -3.53417 -3.8457 0
M  V30 3857 H 366.591 -2.22187 -2.00682 0
M  V30 3858 H 364.137 -1.0696 -0.964135 0
M  V30 3859 H 366.09 -0.973863 -4.09993 0
M  V30 3860 H 364.814 -0.0529391 -3.26557 0
M  V30 3861 H 363.473 -2.16339 -2.95961 0
M  V30 3862 H 363.121 -0.727841 -4.97706 0
M  V30 3863 H 362.821 -2.44531 -5.34302 0
M  V30 3864 H 364.345 -1.67692 -5.87122 0
M  V30 3865 H 365.759 -3.51142 -4.5318 0
M  V30 3866 H 364.156 -4.24679 -4.2399 0
M  V30 3867 H 365.226 -3.91072 -2.86689 0
M  V30 3868 N 366.569 1.04691 -1.17803 0
M  V30 3869 C 367.499 2.14494 -0.92275 0
M  V30 3870 C 368.48 1.69546 0.137179 0
M  V30 3871 O 369.665 1.94195 -0.0141108 0
M  V30 3872 C 366.795 3.44491 -0.440803 0
M  V30 3873 C 365.749 4.03031 -1.4405 0
M  V30 3874 C 365.075 5.28432 -0.81631 0
M  V30 3875 C 366.375 4.39932 -2.81527 0
M  V30 3876 H 368.069 2.36107 -1.84103 0
M  V30 3877 H 365.615 1.1347 -0.886599 0
M  V30 3878 H 367.568 4.2066 -0.249602 0
M  V30 3879 H 366.292 3.22546 0.513025 0
M  V30 3880 H 364.951 3.28937 -1.61853 0
M  V30 3881 H 364.599 5.02792 0.144511 0
M  V30 3882 H 364.299 5.68559 -1.48371 0
M  V30 3883 H 365.823 6.07284 -0.635496 0
M  V30 3884 H 367.237 5.07113 -2.67412 0
M  V30 3885 H 365.634 4.9109 -3.44892 0
M  V30 3886 H 366.704 3.50045 -3.35554 0
M  V30 3887 N 368.047 0.979072 1.23499 0
M  V30 3888 C 369.295 0.645941 1.91499 0
M  V30 3889 C 369.616 -0.822948 1.76784 0
M  V30 3890 O 368.886 -1.58854 1.14639 0
M  V30 3891 H 367.466 0.235919 0.708767 0
M  V30 3892 H 370.128 1.2426 1.50152 0
M  V30 3893 H 369.224 0.896411 2.9895 0
M  V30 3894 N 369.525 -1.3858 0.750561 0
M  V30 3895 C 370.473 -2.32339 0.110162 0
M  V30 3896 C 371.467 -1.53864 -0.708674 0
M  V30 3897 O 372.673 -1.69417 -0.608112 0
M  V30 3898 H 369.048 -0.751812 0.0168275 0
M  V30 3899 H 371.019 -2.83959 0.917053 0
M  V30 3900 C 369.768 -3.39043 -0.771067 0
M  V30 3901 H 369.091 -3.99517 -0.150374 0
M  V30 3902 H 370.531 -4.07061 -1.1865 0
M  V30 3903 C 368.99 -2.77365 -1.91234 0
M  V30 3904 O 369.52 -2.66434 -3.00626 0
M  V30 3905 N 367.726 -2.35219 -1.70646 0
M  V30 3906 H 367.273 -2.4431 -0.81673 0
M  V30 3907 H 367.231 -1.94294 -2.47178 0
M  V30 3908 N 371.003 -0.499398 -1.49478 0
M  V30 3909 C 372.228 0.044722 -2.07352 0
M  V30 3910 C 372.653 1.30207 -1.35749 0
M  V30 3911 O 372.011 1.76516 -0.413732 0
M  V30 3912 C 372.059 0.283013 -3.59488 0
M  V30 3913 O 371.163 1.35804 -3.89398 0
M  V30 3914 H 370.504 -0.0255147 -0.66351 0
M  V30 3915 H 373.034 -0.698561 -1.92305 0
M  V30 3916 H 373.044 0.515007 -4.04737 0
M  V30 3917 H 371.719 -0.635636 -4.11014 0
M  V30 3918 H 370.296 1.11113 -3.55961 0
M  V30 3919 N 372.481 1.55866 -0.233164 0
M  V30 3920 C 373.411 2.23783 0.666599 0
M  V30 3921 C 374.392 1.21343 1.19205 0
M  V30 3922 O 375.577 1.4996 1.23392 0
M  V30 3923 C 372.707 2.92671 1.86978 0
M  V30 3924 C 371.661 4.01682 1.47768 0
M  V30 3925 C 370.987 4.57926 2.76058 0
M  V30 3926 C 372.287 5.18126 0.658993 0
M  V30 3927 H 373.981 2.99232 0.100306 0
M  V30 3928 H 371.527 1.43924 0.046804 0
M  V30 3929 H 373.48 3.3888 2.50476 0
M  V30 3930 H 372.204 2.14688 2.46123 0
M  V30 3931 H 370.863 3.56222 0.866106 0
M  V30 3932 H 370.511 3.76659 3.33372 0
M  V30 3933 H 370.211 5.31505 2.50552 0
M  V30 3934 H 371.735 5.06859 3.40479 0
M  V30 3935 H 373.149 5.60644 1.19795 0
M  V30 3936 H 371.546 5.98009 0.500552 0
M  V30 3937 H 372.616 4.83763 -0.331856 0
M  V30 3938 N 373.959 -0.0401083 1.57549 0
M  V30 3939 C 375.208 -0.732108 1.87944 0
M  V30 3940 C 375.521 -1.77107 0.830206 0
M  V30 3941 O 376.727 -2.51488 1.02302 0
M  V30 3942 C 375.183 -1.35315 3.33494 0
M  V30 3943 C 374.791 -0.351105 4.46622 0
M  V30 3944 C 376.535 -2.02566 3.73051 0
M  V30 3945 C 374.442 -0.979859 5.83226 0
M  V30 3946 H 373.372 -0.277188 0.701201 0
M  V30 3947 H 376.023 0.0138501 1.83495 0
M  V30 3948 H 374.405 -2.14844 3.32653 0
M  V30 3949 H 375.579 0.416674 4.58912 0
M  V30 3950 H 373.894 0.218708 4.15825 0
M  V30 3951 H 376.491 -2.50441 4.72423 0
M  V30 3952 H 376.834 -2.83904 3.04474 0
M  V30 3953 H 377.367 -1.29827 3.76018 0
M  V30 3954 H 374.106 -0.206135 6.55176 0
M  V30 3955 H 373.626 -1.71774 5.74677 0
M  V30 3956 H 375.305 -1.49046 6.29599 0
M  V30 3957 N 375.437 -1.54477 -0.31217 0
M  V30 3958 C 376.685 -1.72884 -1.04668 0
M  V30 3959 C 377.006 -0.511477 -1.88173 0
M  V30 3960 O 376.276 0.474407 -1.90069 0
M  V30 3961 H 374.856 -0.637461 -0.389425 0
M  V30 3962 H 377.518 -1.91807 -0.345852 0
M  V30 3963 H 376.614 -2.61334 -1.70619 0
M  V30 3964 N 376.915 0.57481 -1.46744 0
M  V30 3965 C 377.825 1.711 -1.60505 0
M  V30 3966 C 378.841 1.67008 -0.488307 0
M  V30 3967 O 380.017 1.86774 -0.753495 0
M  V30 3968 C 377.082 3.07608 -1.59932 0
M  V30 3969 C 376.143 3.22904 -2.82898 0
M  V30 3970 C 375.376 4.529 -2.82343 0
M  V30 3971 O 375.599 5.37278 -1.91542 0
M  V30 3972 O 374.533 4.71611 -3.73987 0
M  V30 3973 H 378.359 1.62436 -2.56609 0
M  V30 3974 H 375.944 0.742779 -1.29627 0
M  V30 3975 H 377.826 3.88877 -1.62336 0
M  V30 3976 H 376.501 3.16692 -0.669898 0
M  V30 3977 H 375.408 2.41099 -2.86046 0
M  V30 3978 H 376.741 3.18715 -3.75076 0
M  V30 3979 N 378.394 1.34581 0.820102 0
M  V30 3980 C 379.641 1.27096 1.57648 0
M  V30 3981 C 379.969 -0.158317 1.93855 0
M  V30 3982 O 379.224 -1.12028 1.60463 0
M  V30 3983 C 379.523 2.10997 2.8847 0
M  V30 3984 C 379.189 3.59966 2.71543 0
M  V30 3985 C 377.851 4.00575 2.66634 0
M  V30 3986 C 380.203 4.54548 2.55021 0
M  V30 3987 C 377.531 5.33953 2.43128 0
M  V30 3988 C 379.883 5.88109 2.33047 0
M  V30 3989 C 378.547 6.27878 2.26552 0
M  V30 3990 H 377.817 0.465078 0.576874 0
M  V30 3991 H 380.464 1.6635 0.948671 0
M  V30 3992 H 378.769 1.6458 3.55557 0
M  V30 3993 H 380.466 2.0255 3.46084 0
M  V30 3994 H 377.056 3.27733 2.76205 0
M  V30 3995 H 381.24 4.24069 2.57835 0
M  V30 3996 H 376.496 5.63781 2.3656 0
M  V30 3997 H 380.67 6.60985 2.19251 0
M  V30 3998 H 378.297 7.31162 2.081 0
M  V30 3999 N 379.872 -1.04064 1.18357 0
M  V30 4000 C 381.288 -1.2947 0.933258 0
M  V30 4001 C 381.488 -1.97466 -0.401169 0
M  V30 4002 O 380.544 -2.25528 -1.13549 0
M  V30 4003 C 381.857 -2.15337 2.09882 0
M  V30 4004 C 383.405 -2.28683 2.13712 0
M  V30 4005 C 383.88 -3.17917 3.29686 0
M  V30 4006 N 385.371 -3.25504 3.29547 0
M  V30 4007 C 386.106 -3.94706 4.15926 0
M  V30 4008 N 385.602 -4.66239 5.12439 0
M  V30 4009 N 387.395 -3.90986 4.0384 0
M  V30 4010 H 379.546 -0.583359 2.04232 0
M  V30 4011 H 381.809 -0.319921 0.892387 0
M  V30 4012 H 381.515 -1.72682 3.06389 0
M  V30 4013 H 381.389 -3.16015 2.05947 0
M  V30 4014 H 383.776 -2.70575 1.17784 0
M  V30 4015 H 383.857 -1.27596 2.21705 0
M  V30 4016 H 383.501 -2.76736 4.25887 0
M  V30 4017 H 383.431 -4.19036 3.1893 0
M  V30 4018 H 385.922 -2.74547 2.59677 0
M  V30 4019 H 386.235 -5.16638 5.74722 0
M  V30 4020 H 384.58 -4.65143 5.16398 0
M  V30 4021 H 387.771 -3.34234 3.27727 0
M  V30 4022 H 387.944 -4.44646 4.71375 0
M  V30 4023 N 381.35 -0.985608 -1.22978 0
M  V30 4024 C 382.598 -0.656087 -1.91154 0
M  V30 4025 C 382.919 0.813561 -1.77218 0
M  V30 4026 O 382.189 1.58244 -1.1548 0
M  V30 4027 H 380.769 -0.239674 -0.707506 0
M  V30 4028 H 383.431 -1.25054 -1.49491 0
M  V30 4029 H 382.527 -0.912253 -2.9847 0
M  V30 4030 N 382.828 1.3818 -0.7579 0
M  V30 4031 C 384.075 2.00019 -0.315985 0
M  V30 4032 C 384.403 1.60163 1.10355 0
M  V30 4033 O 383.658 0.83264 1.77103 0
M  V30 4034 C 383.957 3.55252 -0.391218 0
M  V30 4035 C 383.623 4.14834 -1.76702 0
M  V30 4036 C 382.285 4.30821 -2.14353 0
M  V30 4037 C 384.637 4.47658 -2.66931 0
M  V30 4038 C 381.965 4.76928 -3.41696 0
M  V30 4039 C 384.317 4.95184 -3.93669 0
M  V30 4040 C 382.981 5.09377 -4.31383 0
M  V30 4041 H 382.251 0.731923 -0.115627 0
M  V30 4042 H 384.898 1.65161 -0.969223 0
M  V30 4043 H 383.203 3.90273 0.34558 0
M  V30 4044 H 384.9 4.00988 -0.030805 0
M  V30 4045 H 381.49 4.02808 -1.46435 0
M  V30 4046 H 385.674 4.34904 -2.39106 0
M  V30 4047 H 380.93 4.86103 -3.70829 0
M  V30 4048 H 385.104 5.19551 -4.63724 0
M  V30 4049 H 382.731 5.44865 -5.30119 0
M  V30 4050 N 384.306 0.507319 1.49211 0
M  V30 4051 C 385.253 -0.267728 2.29242 0
M  V30 4052 C 386.223 -0.954609 1.35928 0
M  V30 4053 O 387.408 -0.960046 1.64887 0
M  V30 4054 C 384.548 -1.32243 3.18756 0
M  V30 4055 C 383.661 -0.64669 4.27132 0
M  V30 4056 C 382.796 -1.68238 5.03855 0
M  V30 4057 C 381.835 -0.98885 6.0406 0
M  V30 4058 N 380.972 -1.96903 6.73924 0
M  V30 4059 H 385.812 0.420968 2.95012 0
M  V30 4060 H 383.349 0.219443 1.45454 0
M  V30 4061 H 385.307 -1.94599 3.69036 0
M  V30 4062 H 383.937 -1.97981 2.54958 0
M  V30 4063 H 382.989 0.0902926 3.80293 0
M  V30 4064 H 384.301 -0.101058 4.98698 0
M  V30 4065 H 383.455 -2.38081 5.58034 0
M  V30 4066 H 382.194 -2.26187 4.32077 0
M  V30 4067 H 381.199 -0.276222 5.49106 0
M  V30 4068 H 382.424 -0.415767 6.77826 0
M  V30 4069 H 380.37 -2.53803 6.04913 0
M  V30 4070 H 380.287 -1.47423 7.41487 0
M  V30 4071 H 381.555 -2.66015 7.32705 0
M  V30 4072 N 385.784 -1.5574 0.241426 0
M  V30 4073 C 387.009 -2.0366 -0.392111 0
M  V30 4074 C 387.434 -1.11969 -1.51144 0
M  V30 4075 O 386.792 -0.111594 -1.80956 0
M  V30 4076 C 386.84 -3.49638 -0.882371 0
M  V30 4077 O 385.944 -3.6108 -1.99235 0
M  V30 4078 H 385.285 -0.658379 -0.0862122 0
M  V30 4079 H 387.815 -2.01302 0.365881 0
M  V30 4080 H 387.825 -3.90351 -1.18702 0
M  V30 4081 H 386.5 -4.15852 -0.0632361 0
M  V30 4082 H 385.077 -3.32262 -1.69282 0
M  V30 4083 N 387.262 0.0317525 -1.57568 0
M  V30 4084 C 388.51 0.721676 -1.88776 0
M  V30 4085 C 388.831 1.76039 -0.838772 0
M  V30 4086 O 388.101 1.95482 0.127935 0
M  V30 4087 H 386.681 0.269534 -0.696678 0
M  V30 4088 H 389.343 -0.00165879 -1.949 0
M  V30 4089 H 388.439 1.21293 -2.87566 0
M  V30 4090 N 388.74 1.54641 0.303973 0
M  V30 4091 C 389.69 1.8177 1.37636 0
M  V30 4092 C 390.674 0.674697 1.46071 0
M  V30 4093 O 391.866 0.935251 1.50273 0
M  V30 4094 C 388.995 2.06584 2.74186 0
M  V30 4095 C 388.081 3.2706 2.69986 0
M  V30 4096 N 388.472 4.47682 2.35402 0
M  V30 4097 C 386.77 3.29028 3.01092 0
M  V30 4098 C 387.471 5.29689 2.40426 0
M  V30 4099 N 386.447 4.67339 2.7766 0
M  V30 4100 H 390.249 2.72596 1.09857 0
M  V30 4101 H 387.763 1.541 0.51254 0
M  V30 4102 H 389.76 2.24166 3.51504 0
M  V30 4103 H 388.42 1.17024 3.02879 0
M  V30 4104 H 389.431 4.74336 2.07908 0
M  V30 4105 H 386.108 2.49565 3.34699 0
M  V30 4106 H 387.498 6.3606 2.16512 0
M  V30 4107 N 390.218 -0.567019 1.47046 0
M  V30 4108 C 391.181 -1.65696 1.58359 0
M  V30 4109 C 392.181 -1.54097 0.459441 0
M  V30 4110 O 393.371 -1.58432 0.724225 0
M  V30 4111 C 390.503 -3.05197 1.51879 0
M  V30 4112 H 391.696 -1.57019 2.5551 0
M  V30 4113 H 389.249 -0.786148 1.3509 0
M  V30 4114 H 389.984 -3.19417 0.560673 0
M  V30 4115 H 389.769 -3.15025 2.33455 0
M  V30 4116 H 391.259 -3.84511 1.62913 0
M  V30 4117 N 391.696 -1.35014 -0.812953 0
M  V30 4118 C 392.626 -1.30069 -1.93919 0
M  V30 4119 C 393.607 -0.176275 -1.69184 0
M  V30 4120 O 394.792 -0.370227 -1.90638 0
M  V30 4121 C 391.922 -1.06547 -3.30552 0
M  V30 4122 C 390.876 -2.15561 -3.69753 0
M  V30 4123 C 390.202 -1.77214 -5.04479 0
M  V30 4124 C 391.502 -3.57476 -3.808 0
M  V30 4125 H 393.196 -2.24303 -1.98314 0
M  V30 4126 H 390.742 -1.07977 -0.952736 0
M  V30 4127 H 392.695 -1.01729 -4.08937 0
M  V30 4128 H 391.419 -0.0875719 -3.26483 0
M  V30 4129 H 390.078 -2.19466 -2.9365 0
M  V30 4130 H 389.726 -0.780589 -4.96906 0
M  V30 4131 H 389.426 -2.50184 -5.31678 0
M  V30 4132 H 390.95 -1.7391 -5.8531 0
M  V30 4133 H 392.364 -3.55929 -4.4943 0
M  V30 4134 H 390.761 -4.29152 -4.19462 0
M  V30 4135 H 391.831 -3.94091 -2.82525 0
M  V30 4136 N 393.175 1.03435 -1.18907 0
M  V30 4137 C 394.123 2.13703 -0.918353 0
M  V30 4138 C 395.117 1.68947 0.123767 0
M  V30 4139 O 396.323 1.79983 -0.0249701 0
M  V30 4140 H 392.698 0.698112 -0.279542 0
M  V30 4141 H 394.669 2.33731 -1.85506 0
M  V30 4142 C 393.418 3.44542 -0.467532 0
M  V30 4143 H 392.741 3.79394 -1.26095 0
M  V30 4144 H 394.181 4.22812 -0.317164 0
M  V30 4145 C 392.64 3.26829 0.817588 0
M  V30 4146 O 393.17 3.54975 1.88031 0
M  V30 4147 N 391.376 2.80139 0.772677 0
M  V30 4148 H 390.923 2.57434 -0.0923883 0
M  V30 4149 H 390.881 2.68668 1.63294 0
M  V30 4150 N 394.653 0.992116 1.22453 0
M  V30 4151 C 395.601 0.534644 2.26372 0
M  V30 4152 C 396.595 -0.414293 1.64256 0
M  V30 4153 O 397.801 -0.286899 1.77699 0
M  V30 4154 H 394.176 0.154502 0.735957 0
M  V30 4155 H 396.147 1.42256 2.62309 0
M  V30 4156 C 394.896 -0.135815 3.47435 0
M  V30 4157 H 394.219 0.585311 3.95492 0
M  V30 4158 H 395.659 -0.419374 4.21921 0
M  V30 4159 C 394.118 -1.37089 3.07747 0
M  V30 4160 O 394.648 -2.46629 3.17076 0
M  V30 4161 N 392.854 -1.24585 2.62539 0
M  V30 4162 H 392.401 -0.354542 2.55149 0
M  V30 4163 H 392.359 -2.07327 2.36353 0
M  V30 4164 N 396.131 -1.37776 0.765217 0
M  V30 4165 C 397.063 -2.28958 0.105361 0
M  V30 4166 C 398.076 -1.48316 -0.67128 0
M  V30 4167 O 399.265 -1.71046 -0.51045 0
M  V30 4168 C 396.365 -3.27421 -0.874569 0
M  V30 4169 C 395.538 -4.37132 -0.153123 0
M  V30 4170 C 394.597 -5.1571 -1.04547 0
M  V30 4171 O 393.623 -5.66896 -0.511672 0
M  V30 4172 N 394.825 -5.29808 -2.37243 0
M  V30 4173 H 397.59 -2.86227 0.888495 0
M  V30 4174 H 395.151 -1.49682 0.617 0
M  V30 4175 H 397.143 -3.7687 -1.47483 0
M  V30 4176 H 395.713 -2.70967 -1.55871 0
M  V30 4177 H 394.933 -3.89166 0.627975 0
M  V30 4178 H 396.221 -5.07625 0.345643 0
M  V30 4179 H 395.619 -4.89793 -2.83054 0
M  V30 4180 H 394.176 -5.82589 -2.9229 0
M  V30 4181 N 397.609 -0.515225 -1.4894 0
M  V30 4182 C 398.539 0.244628 -2.32215 0
M  V30 4183 C 399.52 0.949136 -1.41157 0
M  V30 4184 O 400.705 0.937783 -1.70057 0
M  V30 4185 C 397.835 1.30096 -3.22013 0
M  V30 4186 C 396.789 0.715486 -4.21977 0
M  V30 4187 C 396.115 1.87339 -5.00808 0
M  V30 4188 C 397.415 -0.302982 -5.2142 0
M  V30 4189 H 399.109 -0.450501 -2.95991 0
M  V30 4190 H 396.655 -0.218098 -1.42339 0
M  V30 4191 H 398.608 1.84037 -3.79089 0
M  V30 4192 H 397.332 2.02547 -2.56207 0
M  V30 4193 H 395.991 0.197715 -3.66066 0
M  V30 4194 H 395.639 2.58592 -4.31438 0
M  V30 4195 H 395.339 1.48764 -5.68457 0
M  V30 4196 H 396.863 2.41686 -5.60732 0
M  V30 4197 H 398.277 0.148802 -5.73107 0
M  V30 4198 H 396.674 -0.60532 -5.97039 0
M  V30 4199 H 397.744 -1.21395 -4.69459 0
M  V30 4200 N 399.087 1.5561 -0.249682 0
M  V30 4201 C 400.017 2.24477 0.642826 0
M  V30 4202 C 400.998 1.22601 1.17911 0
M  V30 4203 O 402.183 1.5126 1.21795 0
M  V30 4204 C 399.313 2.94638 1.83863 0
M  V30 4205 C 398.267 4.03227 1.435 0
M  V30 4206 C 397.593 4.60828 2.71186 0
M  V30 4207 C 398.893 5.18796 0.604002 0
M  V30 4208 H 400.587 2.99321 0.0685625 0
M  V30 4209 H 398.133 1.43965 0.0315363 0
M  V30 4210 H 400.086 3.41517 2.46868 0
M  V30 4211 H 398.81 2.17287 2.43832 0
M  V30 4212 H 397.469 3.57121 0.828275 0
M  V30 4213 H 397.117 3.80174 3.29358 0
M  V30 4214 H 396.817 5.34132 2.44901 0
M  V30 4215 H 398.341 5.10442 3.35084 0
M  V30 4216 H 399.755 5.61883 1.13842 0
M  V30 4217 H 398.152 5.98506 0.437097 0
M  V30 4218 H 399.222 4.83384 -0.383147 0
M  V30 4219 N 400.565 -0.0233959 1.57583 0
M  V30 4220 C 401.981 -0.379134 1.55031 0
M  V30 4221 C 402.181 -1.76255 0.976548 0
M  V30 4222 O 401.237 -2.45266 0.600078 0
M  V30 4223 C 402.55 -0.275792 2.99433 0
M  V30 4224 C 404.098 -0.352458 3.11009 0
M  V30 4225 C 404.573 -0.278501 4.57152 0
M  V30 4226 N 406.064 -0.337123 4.61972 0
M  V30 4227 C 406.799 -0.302876 5.726 0
M  V30 4228 N 406.295 -0.220589 6.92449 0
M  V30 4229 N 408.088 -0.353023 5.6099 0
M  V30 4230 H 400.239 0.881869 1.93227 0
M  V30 4231 H 402.502 0.335867 0.886509 0
M  V30 4232 H 402.208 0.675108 3.4516 0
M  V30 4233 H 402.082 -1.06721 3.61788 0
M  V30 4234 H 404.469 -1.29379 2.65226 0
M  V30 4235 H 404.55 0.468409 2.51475 0
M  V30 4236 H 404.194 0.659189 5.03604 0
M  V30 4237 H 404.124 -1.11755 5.14605 0
M  V30 4238 H 406.615 -0.403002 3.75745 0
M  V30 4239 H 406.928 -0.199713 7.72542 0
M  V30 4240 H 405.273 -0.186555 6.9475 0
M  V30 4241 H 408.464 -0.415339 4.66254 0
M  V30 4242 H 408.637 -0.322866 6.47195 0
M  V30 4243 N 402.043 -1.548 -0.295768 0
M  V30 4244 C 403.271 -1.78327 -1.04914 0
M  V30 4245 C 403.686 -0.545316 -1.80753 0
M  V30 4246 O 403.043 0.485013 -1.75937 0
M  V30 4247 C 403.094 -2.99418 -2.02561 0
M  V30 4248 O 402.815 -4.18431 -1.29798 0
M  V30 4249 C 404.316 -3.35375 -2.89895 0
M  V30 4250 H 401.536 -0.594618 -0.310918 0
M  V30 4251 H 404.08 -2.01763 -0.333454 0
M  V30 4252 H 402.235 -2.78175 -2.69624 0
M  V30 4253 H 402.649 -4.86736 -1.95419 0
M  V30 4254 H 404.123 -4.23332 -3.54251 0
M  V30 4255 H 404.6 -2.53761 -3.58472 0
M  V30 4256 H 405.206 -3.58796 -2.28355 0
M  V30 4257 N 403.521 0.559213 -1.47345 0
M  V30 4258 C 404.451 1.67622 -1.62558 0
M  V30 4259 C 405.432 1.63331 -0.475087 0
M  V30 4260 O 406.617 1.80983 -0.704182 0
M  V30 4261 C 403.747 3.0626 -1.63774 0
M  V30 4262 C 402.701 3.25397 -2.7803 0
M  V30 4263 C 402.027 4.64801 -2.64318 0
M  V30 4264 C 403.327 3.10965 -4.19641 0
M  V30 4265 H 405.021 1.55146 -2.56067 0
M  V30 4266 H 402.567 0.744961 -1.23233 0
M  V30 4267 H 404.52 3.84247 -1.73008 0
M  V30 4268 H 403.244 3.1969 -0.66825 0
M  V30 4269 H 401.903 2.49817 -2.68304 0
M  V30 4270 H 401.551 4.75028 -1.65401 0
M  V30 4271 H 401.251 4.78555 -3.40968 0
M  V30 4272 H 402.775 5.44926 -2.75478 0
M  V30 4273 H 404.189 3.78772 -4.30354 0
M  V30 4274 H 402.586 3.36229 -4.97062 0
M  V30 4275 H 403.656 2.07736 -4.38148 0
M  V30 4276 N 404.999 1.35443 0.805782 0
M  V30 4277 C 406.248 1.28097 1.55801 0
M  V30 4278 C 406.561 -0.142428 1.95081 0
M  V30 4279 O 407.767 -0.33817 2.69386 0
M  V30 4280 C 406.223 2.24653 2.81174 0
M  V30 4281 C 405.831 3.72342 2.49129 0
M  V30 4282 C 407.575 2.2625 3.59181 0
M  V30 4283 C 405.482 4.60719 3.70799 0
M  V30 4284 H 404.412 0.475937 0.584808 0
M  V30 4285 H 407.063 1.60712 0.885661 0
M  V30 4286 H 405.445 1.85011 3.50124 0
M  V30 4287 H 406.619 4.20624 1.88181 0
M  V30 4288 H 404.934 3.73361 1.84366 0
M  V30 4289 H 407.531 2.89495 4.49552 0
M  V30 4290 H 407.874 1.26647 3.96568 0
M  V30 4291 H 408.407 2.64426 2.97193 0
M  V30 4292 H 405.146 5.61324 3.3852 0
M  V30 4293 H 404.666 4.17163 4.3097 0
M  V30 4294 H 406.345 4.76182 4.38018 0
M  V30 4295 N 406.477 -1.02803 1.19454 0
M  V30 4296 C 407.44 -2.09264 0.934955 0
M  V30 4297 C 408.44 -1.60576 -0.0849015 0
M  V30 4298 O 409.63 -1.73554 0.149933 0
M  V30 4299 C 406.762 -3.38482 0.40531 0
M  V30 4300 H 407.955 -2.33726 1.87916 0
M  V30 4301 H 405.508 -1.19426 1.00832 0
M  V30 4302 H 406.243 -3.19689 -0.544899 0
M  V30 4303 H 406.028 -3.75142 1.14065 0
M  V30 4304 H 407.518 -4.16894 0.242806 0
M  V30 4305 N 407.956 -0.998596 -1.21925 0
M  V30 4306 C 409.233 -0.593401 -1.86382 0
M  V30 4307 C 409.613 0.92916 -1.89552 0
M  V30 4308 O 408.961 1.81347 -1.39017 0
M  V30 4309 C 409.171 -1.22039 -3.26967 0
M  V30 4310 C 410.519 -1.32449 -4.03413 0
M  V30 4311 O 411.543 -1.17522 -3.36254 0
M  V30 4312 O 410.402 -1.56395 -5.23644 0
M  V30 4313 H 407.496 -0.202385 -0.801854 0
M  V30 4314 H 410.042 -1.09484 -1.29659 0
M  V30 4315 H 408.814 -2.26158 -3.19325 0
M  V30 4316 H 408.437 -0.704906 -3.91301 0
M  V30 4317 N 409.434 1.37368 -0.772513 0
M  V30 4318 C 410.381 2.30262 -0.157488 0
M  V30 4319 C 411.351 1.51137 0.688965 0
M  V30 4320 O 412.536 1.79704 0.641168 0
M  V30 4321 C 409.676 3.37611 0.715045 0
M  V30 4322 C 408.789 4.31746 -0.148098 0
M  V30 4323 C 407.924 5.26171 0.729213 0
M  V30 4324 C 406.963 6.11948 -0.136418 0
M  V30 4325 N 406.1 6.98613 0.698914 0
M  V30 4326 H 410.94 2.82277 -0.955179 0
M  V30 4327 H 408.477 1.38957 -0.482631 0
M  V30 4328 H 410.435 3.98479 1.23575 0
M  V30 4329 H 409.065 2.86959 1.47833 0
M  V30 4330 H 408.117 3.72178 -0.786613 0
M  V30 4331 H 409.429 4.92084 -0.81579 0
M  V30 4332 H 408.583 5.92247 1.31637 0
M  V30 4333 H 407.322 4.66246 1.43059 0
M  V30 4334 H 406.327 5.4485 -0.736102 0
M  V30 4335 H 407.552 6.73945 -0.835134 0
M  V30 4336 H 405.498 6.41215 1.38489 0
M  V30 4337 H 405.415 7.55948 0.0885358 0
M  V30 4338 H 406.683 7.69077 1.27044 0
M  V30 4339 N 410.912 0.523116 1.48665 0
M  V30 4340 C 412.189 -0.0775449 1.95446 0
M  V30 4341 C 412.569 -1.5197 1.4652 0
M  V30 4342 O 411.917 -2.17876 0.688657 0
M  V30 4343 C 412.127 0.0326135 3.48985 0
M  V30 4344 C 413.475 -0.130141 4.24401 0
M  V30 4345 O 414.499 -0.0415142 3.56176 0
M  V30 4346 O 413.358 -0.31491 5.45592 0
M  V30 4347 H 410.452 -0.0831012 0.822814 0
M  V30 4348 H 412.998 0.587227 1.59216 0
M  V30 4349 H 411.77 1.03748 3.77296 0
M  V30 4350 H 411.393 -0.671317 3.91892 0
M  V30 4351 N 412.39 -1.55475 0.257931 0
M  V30 4352 C 413.353 -2.20551 -0.623706 0
M  V30 4353 C 414.353 -1.17809 -1.09443 0
M  V30 4354 O 415.543 -1.42823 -0.997362 0
M  V30 4355 C 412.675 -2.85784 -1.8585 0
M  V30 4356 H 413.868 -2.99848 -0.0557743 0
M  V30 4357 H 411.421 -1.56298 0.0084422 0
M  V30 4358 H 412.156 -2.10453 -2.46739 0
M  V30 4359 H 411.941 -3.61057 -1.52907 0
M  V30 4360 H 413.431 -3.35553 -2.48584 0
M  V30 4361 N 413.868 0.0150385 -1.57593 0
M  V30 4362 C 415.114 0.69849 -1.91031 0
M  V30 4363 C 415.469 1.72208 -0.85804 0
M  V30 4364 O 414.762 1.91147 0.131614 0
M  V30 4365 C 414.956 1.39686 -3.28972 0
M  V30 4366 C 414.785 0.442428 -4.47518 0
M  V30 4367 C 413.555 0.0583223 -5.05266 0
M  V30 4368 C 415.753 -0.285072 -5.13509 0
M  V30 4369 N 413.735 -0.895893 -6.07328 0
M  V30 4370 C 415.106 -1.09447 -6.10263 0
M  V30 4371 C 417.161 -0.350518 -4.96665 0
M  V30 4372 C 415.864 -1.96333 -6.91987 0
M  V30 4373 C 417.89 -1.20655 -5.78962 0
M  V30 4374 C 417.252 -2.00383 -6.75297 0
M  V30 4375 H 413.351 0.22926 -0.747639 0
M  V30 4376 H 415.935 -0.0417748 -1.94655 0
M  V30 4377 H 414.106 2.1075 -3.2625 0
M  V30 4378 H 415.838 2.03381 -3.49883 0
M  V30 4379 H 412.593 0.423506 -4.71703 0
M  V30 4380 H 413.017 -1.36792 -6.63036 0
M  V30 4381 H 417.659 0.251596 -4.22051 0
M  V30 4382 H 415.377 -2.57618 -7.65936 0
M  V30 4383 H 418.963 -1.2609 -5.67972 0
M  V30 4384 H 417.843 -2.65552 -7.3787 0
M  V30 4385 N 415.346 1.54954 0.287554 0
M  V30 4386 C 416.256 1.8991 1.37736 0
M  V30 4387 C 417.272 0.794701 1.54792 0
M  V30 4388 O 418.448 1.09243 1.69198 0
M  V30 4389 C 415.513 2.15108 2.71899 0
M  V30 4390 C 414.574 3.38752 2.63715 0
M  V30 4391 C 413.807 3.62739 3.91479 0
M  V30 4392 O 414.03 2.89492 4.91478 0
M  V30 4393 O 412.964 4.56267 3.92561 0
M  V30 4394 H 416.79 2.82652 1.11092 0
M  V30 4395 H 414.375 1.41315 0.484807 0
M  V30 4396 H 416.257 2.32806 3.51254 0
M  V30 4397 H 414.932 1.25551 2.9836 0
M  V30 4398 H 413.839 3.26405 1.82786 0
M  V30 4399 H 415.172 4.28483 2.42205 0
M  V30 4400 N 416.824 -0.551391 1.4764 0
M  V30 4401 C 418.07 -1.31024 1.54792 0
M  V30 4402 C 418.403 -1.9304 0.211967 0
M  V30 4403 O 417.678 -1.78175 -0.77999 0
M  V30 4404 C 417.961 -2.41593 2.67029 0
M  V30 4405 C 417.814 -1.84408 4.10261 0
M  V30 4406 C 419.133 -3.43488 2.75143 0
M  V30 4407 H 416.252 -0.475031 0.563485 0
M  V30 4408 H 418.894 -0.616454 1.79722 0
M  V30 4409 H 417.044 -3.00772 2.45904 0
M  V30 4410 H 418.716 -1.29445 4.42766 0
M  V30 4411 H 416.959 -1.15051 4.18265 0
M  V30 4412 H 417.63 -2.64367 4.84576 0
M  V30 4413 H 420.106 -2.94236 2.94218 0
M  V30 4414 H 418.982 -4.18274 3.55441 0
M  V30 4415 H 419.243 -4.02703 1.82435 0
M  V30 4416 N 418.302 -1.35869 -0.798587 0
M  V30 4417 C 419.548 -1.2978 -1.55836 0
M  V30 4418 C 419.881 0.125322 -1.93795 0
M  V30 4419 O 419.156 1.07658 -1.61987 0
M  V30 4420 C 419.439 -2.21188 -2.84162 0
M  V30 4421 C 419.292 -3.72155 -2.52628 0
M  V30 4422 C 420.611 -2.11545 -3.85923 0
M  V30 4423 H 417.73 -0.472769 -0.565383 0
M  V30 4424 H 420.372 -1.66341 -0.918192 0
M  V30 4425 H 418.522 -1.90139 -3.38791 0
M  V30 4426 H 420.194 -4.13682 -2.04121 0
M  V30 4427 H 418.437 -3.92042 -1.85704 0
M  V30 4428 H 419.108 -4.31511 -3.44242 0
M  V30 4429 H 421.584 -2.38855 -3.40716 0
M  V30 4430 H 420.46 -2.77688 -4.73477 0
M  V30 4431 H 420.721 -1.09987 -4.282 0
M  V30 4432 N 419.78 1.02168 -1.19998 0
M  V30 4433 C 421.008 1.79296 -1.03249 0
M  V30 4434 C 421.423 1.84103 0.418502 0
M  V30 4435 O 420.78 1.29031 1.29063 0
M  V30 4436 C 420.831 3.24007 -1.60319 0
M  V30 4437 O 420.552 3.19512 -2.99739 0
M  V30 4438 C 422.053 4.17704 -1.48453 0
M  V30 4439 H 419.273 0.564016 -0.363493 0
M  V30 4440 H 421.817 1.28639 -1.58973 0
M  V30 4441 H 419.972 3.7183 -1.08727 0
M  V30 4442 H 420.386 4.10306 -3.26725 0
M  V30 4443 H 421.86 5.17104 -1.93153 0
M  V30 4444 H 422.337 4.37029 -0.436193 0
M  V30 4445 H 422.943 3.7576 -1.99211 0
M  V30 4446 N 421.258 1.00505 1.21394 0
M  V30 4447 C 422.505 0.687774 1.90462 0
M  V30 4448 C 422.833 -0.78147 1.7811 0
M  V30 4449 O 422.088 -1.58208 1.1519 0
M  V30 4450 C 422.387 1.0546 3.41486 0
M  V30 4451 C 422.053 2.51812 3.74034 0
M  V30 4452 C 420.715 2.91804 3.82628 0
M  V30 4453 C 423.067 3.46614 3.8924 0
M  V30 4454 C 420.395 4.2556 4.03876 0
M  V30 4455 C 422.747 4.80044 4.11995 0
M  V30 4456 C 421.411 5.19759 4.18816 0
M  V30 4457 H 420.681 0.251674 0.696951 0
M  V30 4458 H 423.328 1.26349 1.43903 0
M  V30 4459 H 421.633 0.397133 3.89782 0
M  V30 4460 H 423.33 0.786976 3.93202 0
M  V30 4461 H 419.92 2.1982 3.67936 0
M  V30 4462 H 424.104 3.16883 3.81967 0
M  V30 4463 H 419.36 4.55901 4.07387 0
M  V30 4464 H 423.534 5.53439 4.22704 0
M  V30 4465 H 421.161 6.23418 4.35033 0
M  V30 4466 N 422.737 -1.36956 0.779787 0
M  V30 4467 C 423.647 -2.33965 0.172491 0
M  V30 4468 C 424.663 -1.60574 -0.670222 0
M  V30 4469 O 425.839 -1.92617 -0.588263 0
M  V30 4470 C 422.904 -3.39761 -0.690173 0
M  V30 4471 C 421.965 -4.28964 0.169924 0
M  V30 4472 C 421.198 -5.29707 -0.651662 0
M  V30 4473 O 421.421 -5.38238 -1.88827 0
M  V30 4474 O 420.355 -6.01873 -0.0566264 0
M  V30 4475 H 424.181 -2.87647 0.974321 0
M  V30 4476 H 421.766 -1.39258 0.541078 0
M  V30 4477 H 423.648 -4.04471 -1.1824 0
M  V30 4478 H 422.323 -2.88394 -1.47006 0
M  V30 4479 H 421.23 -3.67326 0.708696 0
M  V30 4480 H 422.563 -4.83656 0.913085 0
M  V30 4481 N 424.215 -0.530993 -1.48385 0
M  V30 4482 C 425.492 0.0671788 -1.95485 0
M  V30 4483 C 425.872 1.51191 -1.47324 0
M  V30 4484 O 425.22 2.17507 -0.700202 0
M  V30 4485 C 425.43 -0.0511206 -3.48963 0
M  V30 4486 C 426.778 0.107632 -4.24464 0
M  V30 4487 O 427.802 0.0226248 -3.56193 0
M  V30 4488 O 426.661 0.285972 -5.45751 0
M  V30 4489 H 423.755 0.0787365 -0.823243 0
M  V30 4490 H 426.301 -0.595662 -1.58902 0
M  V30 4491 H 425.073 -1.05747 -3.7674 0
M  V30 4492 H 424.696 0.650525 -3.92242 0
M  V30 4493 N 425.693 1.55336 -0.266172 0
M  V30 4494 C 426.656 2.20878 0.612001 0
M  V30 4495 C 427.656 1.18388 1.08816 0
M  V30 4496 O 428.846 1.4335 0.989774 0
M  V30 4497 C 425.978 2.86765 1.84332 0
M  V30 4498 H 427.171 2.99873 0.0398718 0
M  V30 4499 H 424.724 1.56291 -0.0167309 0
M  V30 4500 H 425.459 2.11759 2.45619 0
M  V30 4501 H 425.244 3.61862 1.5099 0
M  V30 4502 H 426.734 3.36867 2.46801 0
M  V30 4503 N 427.171 -0.0066808 1.57599 0
M  V30 4504 C 428.587 -0.36267 1.55425 0
M  V30 4505 C 428.787 -1.75209 0.995187 0
M  V30 4506 O 427.843 -2.44616 0.626058 0
M  V30 4507 C 429.156 -0.244017 2.99708 0
M  V30 4508 C 430.704 -0.319451 3.11366 0
M  V30 4509 C 431.179 -0.229998 4.57422 0
M  V30 4510 N 432.67 -0.288105 4.62303 0
M  V30 4511 C 433.405 -0.242127 5.72889 0
M  V30 4512 N 432.901 -0.147133 6.92644 0
M  V30 4513 N 434.694 -0.293502 5.61333 0
M  V30 4514 H 426.845 0.902314 1.92281 0
M  V30 4515 H 429.108 0.34525 0.882896 0
M  V30 4516 H 428.814 0.711678 3.44424 0
M  V30 4517 H 428.688 -1.02877 3.629 0
M  V30 4518 H 431.075 -1.26559 2.66584 0
M  V30 4519 H 431.156 0.495055 2.50964 0
M  V30 4520 H 430.8 0.712566 5.02877 0
M  V30 4521 H 430.73 -1.0629 5.15761 0
M  V30 4522 H 433.221 -0.363126 3.76151 0
M  V30 4523 H 433.534 -0.117763 7.7271 0
M  V30 4524 H 431.879 -0.112857 6.94908 0
M  V30 4525 H 435.07 -0.365864 4.66668 0
M  V30 4526 H 435.243 -0.254204 6.47501 0
M  V30 4527 N 428.649 -1.55105 -0.279332 0
M  V30 4528 C 429.877 -1.7943 -1.03017 0
M  V30 4529 C 430.292 -0.564456 -1.80165 0
M  V30 4530 O 429.649 0.466326 -1.76442 0
M  V30 4531 C 429.7 -3.0155 -1.99374 0
M  V30 4532 O 429.421 -4.19784 -1.25352 0
M  V30 4533 C 430.922 -3.3843 -2.86321 0
M  V30 4534 H 428.142 -0.597882 -0.304594 0
M  V30 4535 H 430.686 -2.02105 -0.312035 0
M  V30 4536 H 428.841 -2.81019 -2.66659 0
M  V30 4537 H 429.255 -4.88781 -1.90246 0
M  V30 4538 H 430.729 -4.27066 -3.49741 0
M  V30 4539 H 431.206 -2.57549 -3.5576 0
M  V30 4540 H 431.812 -3.61197 -2.24536 0
M  V30 4541 N 430.127 0.543554 -1.4793 0
M  V30 4542 C 431.09 1.63156 -1.60975 0
M  V30 4543 C 432.09 1.53346 -0.483899 0
M  V30 4544 O 433.28 1.5726 -0.749339 0
M  V30 4545 C 430.412 3.02743 -1.56716 0
M  V30 4546 H 431.605 1.52934 -2.57975 0
M  V30 4547 H 429.158 0.764557 -1.36324 0
M  V30 4548 H 429.893 3.18484 -0.611418 0
M  V30 4549 H 429.678 3.11272 -2.38438 0
M  V30 4550 H 431.168 3.81871 -1.6901 0
M  V30 4551 N 431.605 1.3629 0.791371 0
M  V30 4552 C 433.016 1.27225 1.36641 0
M  V30 4553 C 433.367 -0.0887968 1.95999 0
M  V30 4554 O 432.492 -0.990207 1.92416 0
M  V30 4555 C 433.087 2.30375 2.48421 0
M  V30 4556 C 431.646 2.25004 3.01746 0
M  V30 4557 C 430.793 2.15259 1.7481 0
M  V30 4558 H 433.744 1.47198 0.593173 0
M  V30 4559 H 433.765 1.93905 3.27385 0
M  V30 4560 H 433.277 3.29422 2.05189 0
M  V30 4561 H 431.378 1.29417 3.49403 0
M  V30 4562 H 431.491 3.1761 3.58693 0
M  V30 4563 H 429.855 1.61482 1.96966 0
M  V30 4564 H 430.638 3.16191 1.33709 0
M  V30 4565 N 433.083 -1.0153 1.20538 0
M  V30 4566 C 434.332 -1.74558 1.01057 0
M  V30 4567 C 434.645 -1.90168 -0.457756 0
M  V30 4568 O 435.851 -2.60301 -0.771722 0
M  V30 4569 C 434.307 -3.13963 1.75941 0
M  V30 4570 C 433.915 -3.06361 3.26875 0
M  V30 4571 C 435.659 -3.91191 1.64832 0
M  V30 4572 C 433.566 -4.40782 3.94291 0
M  V30 4573 H 432.496 -0.654417 0.374505 0
M  V30 4574 H 435.147 -1.13521 1.44171 0
M  V30 4575 H 433.529 -3.75549 1.25614 0
M  V30 4576 H 434.703 -2.54074 3.84425 0
M  V30 4577 H 433.018 -2.42625 3.38411 0
M  V30 4578 H 435.615 -4.90644 2.12539 0
M  V30 4579 H 435.958 -4.11884 0.604745 0
M  V30 4580 H 436.491 -3.36236 2.12579 0
M  V30 4581 H 433.23 -4.25292 4.98805 0
M  V30 4582 H 432.75 -4.9307 3.41529 0
M  V30 4583 H 434.429 -5.09621 3.98617 0
M  V30 4584 N 434.561 -1.01147 -1.20859 0
M  V30 4585 C 435.786 -0.716698 -1.94623 0
M  V30 4586 C 436.211 0.715415 -1.73964 0
M  V30 4587 O 435.569 1.49157 -1.03062 0
M  V30 4588 C 435.617 -1.0513 -3.44935 0
M  V30 4589 O 434.721 -0.160131 -4.12089 0
M  V30 4590 H 434.062 -0.266404 -0.608214 0
M  V30 4591 H 436.592 -1.35346 -1.53436 0
M  V30 4592 H 436.602 -1.00086 -3.95533 0
M  V30 4593 H 435.277 -2.09475 -3.59295 0
M  V30 4594 H 433.854 -0.267657 -3.71938 0
M  V30 4595 N 436.039 1.36541 -0.78704 0
M  V30 4596 C 437.269 2.03266 -0.369662 0
M  V30 4597 C 437.677 1.59481 1.01796 0
M  V30 4598 O 437.02 0.778612 1.66383 0
M  V30 4599 C 437.082 3.57779 -0.351371 0
M  V30 4600 C 436.746 4.24756 -1.68617 0
M  V30 4601 C 437.743 4.47811 -2.64124 0
M  V30 4602 C 435.428 4.62277 -1.96481 0
M  V30 4603 C 437.422 5.07464 -3.85693 0
M  V30 4604 C 435.109 5.21649 -3.18317 0
M  V30 4605 C 436.107 5.44182 -4.12741 0
M  V30 4606 O 435.795 6.02307 -5.32429 0
M  V30 4607 H 435.527 0.658977 -0.150751 0
M  V30 4608 H 438.081 1.75548 -1.0664 0
M  V30 4609 H 436.311 3.84606 0.401847 0
M  V30 4610 H 438 4.05879 0.0410147 0
M  V30 4611 H 438.766 4.19221 -2.43883 0
M  V30 4612 H 434.645 4.44065 -1.23805 0
M  V30 4613 H 438.189 5.24968 -4.59407 0
M  V30 4614 H 434.086 5.49664 -3.38437 0
M  V30 4615 H 434.854 6.20775 -5.33461 0
M  V30 4616 N 437.518 0.538854 1.48102 0
M  V30 4617 C 438.451 -0.266495 2.26639 0
M  V30 4618 C 439.429 -0.93687 1.32897 0
M  V30 4619 O 440.613 -0.959507 1.62252 0
M  V30 4620 C 437.74 -1.37814 3.09394 0
M  V30 4621 C 436.786 -0.818247 4.18577 0
M  V30 4622 S 437.619 0.320848 5.34538 0
M  V30 4623 C 438.775 -0.793059 6.20855 0
M  V30 4624 H 439.008 0.399994 2.94597 0
M  V30 4625 H 436.541 0.324808 1.50945 0
M  V30 4626 H 438.499 -2.01488 3.57649 0
M  V30 4627 H 437.16 -2.01639 2.40833 0
M  V30 4628 H 436.353 -1.65247 4.7614 0
M  V30 4629 H 435.955 -0.258036 3.73109 0
M  V30 4630 H 438.247 -1.68961 6.56093 0
M  V30 4631 H 439.19 -0.255204 7.0764 0
M  V30 4632 H 439.598 -1.07746 5.54122 0
M  V30 4633 N 438.996 -1.55193 0.274407 0
M  V30 4634 C 440.412 -1.59401 -0.0797543 0
M  V30 4635 C 440.612 -1.29162 -1.54659 0
M  V30 4636 O 439.668 -1.05215 -2.29534 0
M  V30 4637 C 440.981 -2.99257 0.294238 0
M  V30 4638 C 442.529 -3.12072 0.240796 0
M  V30 4639 C 443.004 -4.54194 0.589218 0
M  V30 4640 N 444.495 -4.60033 0.540744 0
M  V30 4641 C 445.23 -5.68027 0.783147 0
M  V30 4642 N 444.726 -6.8417 1.09013 0
M  V30 4643 N 446.519 -5.57572 0.711993 0
M  V30 4644 H 438.67 -1.73113 1.23067 0
M  V30 4645 H 440.933 -0.807197 0.497129 0
M  V30 4646 H 440.639 -3.26217 1.31435 0
M  V30 4647 H 440.513 -3.75427 -0.365281 0
M  V30 4648 H 442.9 -2.84877 -0.770024 0
M  V30 4649 H 442.981 -2.38117 0.934563 0
M  V30 4650 H 442.625 -4.82115 1.59772 0
M  V30 4651 H 442.555 -5.26448 -0.126331 0
M  V30 4652 H 445.046 -3.76599 0.313327 0
M  V30 4653 H 445.359 -7.6243 1.26178 0
M  V30 4654 H 443.704 -6.85787 1.12789 0
M  V30 4655 H 446.895 -4.65714 0.472014 0
M  V30 4656 H 447.068 -6.41659 0.90429 0
M  V30 4657 N 440.474 -0.00167713 -1.576 0
M  V30 4658 C 441.885 0.54091 -1.78693 0
M  V30 4659 C 442.236 1.7386 -0.909247 0
M  V30 4660 O 441.361 2.16109 -0.112176 0
M  V30 4661 C 441.956 0.98806 -3.24072 0
M  V30 4662 C 440.515 1.47594 -3.46256 0
M  V30 4663 C 439.662 0.42792 -2.73978 0
M  V30 4664 H 442.613 -0.22784 -1.57056 0
M  V30 4665 H 442.634 1.85398 -3.32277 0
M  V30 4666 H 442.146 0.116164 -3.87926 0
M  V30 4667 H 440.247 2.36868 -2.87618 0
M  V30 4668 H 440.36 1.50225 -4.54939 0
M  V30 4669 H 438.724 0.889934 -2.38647 0
M  V30 4670 H 439.507 -0.435038 -3.40532 0
M  V30 4671 N 441.952 1.55251 0.271103 0
M  V30 4672 C 442.915 1.87484 1.31842 0
M  V30 4673 C 443.915 0.749545 1.42262 0
M  V30 4674 O 445.105 1.01771 1.4138 0
M  V30 4675 C 442.237 2.0818 2.69951 0
M  V30 4676 H 443.43 2.81108 1.0449 0
M  V30 4677 H 440.983 1.47771 0.509258 0
M  V30 4678 H 441.718 1.16944 3.02481 0
M  V30 4679 H 441.503 2.90114 2.63774 0
M  V30 4680 H 442.993 2.34385 3.4562 0
M  V30 4681 N 443.43 -0.535701 1.48216 0
M  V30 4682 C 444.393 -1.623 1.61838 0
M  V30 4683 C 445.393 -1.53087 0.492024 0
M  V30 4684 O 446.583 -1.5686 0.757668 0
M  V30 4685 C 443.715 -3.01907 1.58319 0
M  V30 4686 H 444.908 -1.51564 2.58783 0
M  V30 4687 H 442.461 -0.757317 1.36727 0
M  V30 4688 H 443.196 -3.18155 0.628299 0
M  V30 4689 H 442.981 -3.10003 2.40085 0
M  V30 4690 H 444.471 -3.80969 1.71033 0
M  V30 4691 N 444.908 -1.36708 -0.784132 0
M  V30 4692 C 445.871 -1.31307 -1.87859 0
M  V30 4693 C 446.871 -0.219654 -1.59293 0
M  V30 4694 O 448.061 -0.47476 -1.67606 0
M  V30 4695 C 445.193 -1.03679 -3.24751 0
M  V30 4696 H 446.386 -2.28647 -1.94064 0
M  V30 4697 H 443.939 -1.21558 -0.98252 0
M  V30 4698 H 444.674 -0.0681936 -3.24228 0
M  V30 4699 H 444.459 -1.82811 -3.46876 0
M  V30 4700 H 445.949 -1.02518 -4.04821 0
M  V30 4701 N 446.386 1.0089 -1.21074 0
M  V30 4702 C 447.632 1.74866 -1.02712 0
M  V30 4703 C 447.965 1.89178 0.438787 0
M  V30 4704 O 447.24 1.42325 1.32567 0
M  V30 4705 C 447.523 3.16347 -1.72036 0
M  V30 4706 C 447.376 3.09782 -3.26121 0
M  V30 4707 C 448.695 4.15187 -1.45973 0
M  V30 4708 H 445.814 0.634736 -0.374539 0
M  V30 4709 H 448.456 1.17646 -1.49196 0
M  V30 4710 H 446.606 3.65201 -1.32517 0
M  V30 4711 H 448.278 2.68673 -3.74983 0
M  V30 4712 H 446.521 2.46982 -3.56626 0
M  V30 4713 H 447.192 4.09829 -3.6979 0
M  V30 4714 H 449.668 3.75022 -1.80272 0
M  V30 4715 H 448.544 5.12331 -1.96999 0
M  V30 4716 H 448.805 4.40386 -0.388924 0
M  V30 4717 O 447.903 1.14481 1.13914 0
M  V30 4718 H 448.594 0.866659 1.7323 0
M  V30 END ATOM
M  V30 BEGIN BOND
M  V30 END BOND
M  V30 END CTAB
M  END
$$$$
