drugbank_target|P47872 Secretin receptor (DB09532)
 OpenBabel12092119293D

  0  0  0     0  0            999 V3000
M  V30 BEGIN CTAB
M  V30 COUNTS 7080 7173 0 0 0
M  V30 BEGIN ATOM
M  V30 1 H -0.908 1.98254 -0.117106 0
M  V30 2 N 0 1.576 0 0
M  V30 3 C 0.933 2.03868 1.02534 0
M  V30 4 C 1.911 0.928543 1.3348 0
M  V30 5 O 3.095 1.19667 1.45644 0
M  V30 6 C 0.222 2.43627 2.35294 0
M  V30 7 C -0.732 3.65373 2.2001 0
M  V30 8 S 0.101 5.13292 1.52614 0
M  V30 9 C 1.257 5.56322 2.86805 0
M  V30 10 H 1.49 2.90518 0.631377 0
M  V30 11 H -0.977 1.52953 0.210867 0
M  V30 12 H 0.981 2.67203 3.11629 0
M  V30 13 H -0.358 1.57376 2.7183 0
M  V30 14 H -1.165 3.90944 3.18086 0
M  V30 15 H -1.563 3.418 1.51819 0
M  V30 16 H 0.729 5.58782 3.83104 0
M  V30 17 H 1.672 6.56266 2.65933 0
M  V30 18 H 2.08 4.83886 2.90714 0
M  V30 19 N 1.4781 -0.272755 1.55222 0
M  V30 20 C 2.8941 -0.619959 1.47067 0
M  V30 21 C 3.0941 -1.895 0.684978 0
M  V30 22 O 2.1501 -2.51675 0.203931 0
M  V30 23 C 3.4631 -0.746693 2.91282 0
M  V30 24 C 5.0111 -0.840731 3.01497 0
M  V30 25 C 5.4861 -0.99924 4.46967 0
M  V30 26 N 6.9771 -1.06476 4.50796 0
M  V30 27 C 7.7121 -1.20621 5.6057 0
M  V30 28 N 7.2081 -1.31483 6.80209 0
M  V30 29 N 9.0011 -1.23733 5.48312 0
M  V30 30 H 1.1521 0.564606 2.04758 0
M  V30 31 H 3.4151 0.191177 0.928523 0
M  V30 32 H 3.1211 0.119753 3.51496 0
M  V30 33 H 2.9951 -1.6269 3.40311 0
M  V30 34 H 5.3821 -1.69764 2.41379 0
M  V30 35 H 5.4631 0.0640874 2.5572 0
M  V30 36 H 5.1071 -0.146984 5.07687 0
M  V30 37 H 5.0371 -1.91871 4.90401 0
M  V30 38 H 7.5281 -0.993196 3.64615 0
M  V30 39 H 7.8411 -1.42111 7.59621 0
M  V30 40 H 6.1861 -1.28487 6.8302 0
M  V30 41 H 9.3771 -1.14877 4.53785 0
M  V30 42 H 9.5501 -1.34412 6.33906 0
M  V30 43 N 2.9562 -1.48159 -0.537278 0
M  V30 44 C 4.3672 -1.49429 -1.11928 0
M  V30 45 C 4.7182 -0.26 -1.9447 0
M  V30 46 O 3.8432 0.633489 -2.0692 0
M  V30 47 C 4.4382 -2.70758 -2.03656 0
M  V30 48 C 2.9972 -2.74923 -2.57088 0
M  V30 49 C 2.1442 -2.42835 -1.3389 0
M  V30 50 H 5.0952 -1.55381 -0.322886 0
M  V30 51 H 5.1162 -2.48861 -2.87834 0
M  V30 52 H 4.6282 -3.60575 -1.43553 0
M  V30 53 H 2.7292 -1.89296 -3.20933 0
M  V30 54 H 2.8422 -3.76157 -2.9672 0
M  V30 55 H 1.2062 -1.93836 -1.65226 0
M  V30 56 H 1.9892 -3.34884 -0.755504 0
M  V30 57 N 4.4343 0.785586 -1.36625 0
M  V30 58 C 5.3843 1.88822 -1.27789 0
M  V30 59 C 6.3683 1.60014 -0.168579 0
M  V30 60 O 7.5603 1.72381 -0.401737 0
M  V30 61 C 4.6893 3.26092 -1.07327 0
M  V30 62 C 3.7753 3.60897 -2.22743 0
M  V30 63 N 4.1663 3.66982 -3.48077 0
M  V30 64 C 2.4643 3.90981 -2.14593 0
M  V30 65 C 3.1653 3.98137 -4.24101 0
M  V30 66 N 2.1413 4.13319 -3.53084 0
M  V30 67 H 5.9433 1.91759 -2.22723 0
M  V30 68 H 3.4573 0.981311 -1.29399 0
M  V30 69 H 5.4543 4.04954 -0.990842 0
M  V30 70 H 4.1143 3.24428 -0.132977 0
M  V30 71 H 5.1253 3.49531 -3.82163 0
M  V30 72 H 1.8023 3.9722 -1.2854 0
M  V30 73 H 3.1923 4.09737 -5.32509 0
M  V30 74 N 5.9124 1.20967 1.01018 0
M  V30 75 C 6.8424 0.988272 2.11555 0
M  V30 76 C 7.8234 -0.0849778 1.69888 0
M  V30 77 O 9.0084 0.0738202 1.9406 0
M  V30 78 C 6.1384 0.546528 3.42973 0
M  V30 79 C 5.0924 1.56375 3.9841 0
M  V30 80 C 4.4184 0.97842 5.25672 0
M  V30 81 C 5.7184 2.94922 4.31066 0
M  V30 82 H 7.4124 1.91276 2.30334 0
M  V30 83 H 4.9584 0.921073 1.1069 0
M  V30 84 H 6.9114 0.378839 4.19694 0
M  V30 85 H 5.6354 -0.413598 3.23971 0
M  V30 86 H 4.2944 1.71891 3.23804 0
M  V30 87 H 3.9424 0.0101688 5.02999 0
M  V30 88 H 3.6424 1.65784 5.63728 0
M  V30 89 H 5.1664 0.821939 6.05043 0
M  V30 90 H 6.5804 2.8288 4.9865 0
M  V30 91 H 4.9774 3.5983 4.80253 0
M  V30 92 H 6.0474 3.4616 3.39561 0
M  V30 93 N 7.3905 -1.2043 1.01659 0
M  V30 94 C 8.6155 -1.94318 0.724942 0
M  V30 95 C 9.0405 -1.74266 -0.708034 0
M  V30 96 O 8.3985 -1.03694 -1.48719 0
M  V30 97 C 8.4465 -3.44486 1.06591 0
M  V30 98 O 7.5505 -4.12017 0.177599 0
M  V30 99 H 6.8915 -0.60708 0.26898 0
M  V30 100 H 9.4215 -1.52861 1.35995 0
M  V30 101 H 9.4315 -3.95106 1.01762 0
M  V30 102 H 8.1065 -3.58404 2.10997 0
M  V30 103 H 6.6835 -3.71821 0.283421 0
M  V30 104 N 8.8686 -0.792821 -1.36206 0
M  V30 105 C 10.2796 -0.429513 -1.81692 0
M  V30 106 C 10.6306 1.04695 -1.65932 0
M  V30 107 O 9.7556 1.81256 -1.18218 0
M  V30 108 C 10.3506 -0.772831 -3.29868 0
M  V30 109 C 8.9096 -0.462307 -3.7355 0
M  V30 110 C 8.0566 -1.00569 -2.5842 0
M  V30 111 H 11.0076 -0.985672 -1.24379 0
M  V30 112 H 11.0286 -0.0651928 -3.80444 0
M  V30 113 H 10.5406 -1.84747 -3.41307 0
M  V30 114 H 8.6416 0.604158 -3.67669 0
M  V30 115 H 8.7546 -0.985299 -4.68859 0
M  V30 116 H 7.1186 -0.428734 -2.51066 0
M  V30 117 H 7.9016 -2.08616 -2.72643 0
M  V30 118 N 10.3467 1.47872 -0.545128 0
M  V30 119 C 11.7577 1.86384 -0.108581 0
M  V30 120 C 12.1087 1.45309 1.31832 0
M  V30 121 O 11.2337 0.850641 1.9898 0
M  V30 122 C 11.8287 3.38265 -0.190274 0
M  V30 123 C 10.3877 3.75914 0.191164 0
M  V30 124 C 9.5347 2.71926 -0.543273 0
M  V30 125 H 12.4857 1.39561 -0.755537 0
M  V30 126 H 12.5067 3.75831 0.594217 0
M  V30 127 H 12.0187 3.6813 -1.2289 0
M  V30 128 H 10.1197 3.51665 1.23136 0
M  V30 129 H 10.2327 4.78836 -0.158987 0
M  V30 130 H 8.5967 2.54697 0.0122495 0
M  V30 131 H 9.3797 3.04634 -1.58282 0
M  V30 132 N 11.8248 0.280983 1.55075 0
M  V30 133 C 12.7548 -0.597469 2.25727 0
M  V30 134 C 13.7358 -1.15417 1.24952 0
M  V30 135 O 14.9208 -1.18722 1.53684 0
M  V30 136 C 12.0508 -1.7789 2.98283 0
M  V30 137 C 11.0048 -1.35347 4.06036 0
M  V30 138 C 10.3308 -2.61846 4.66198 0
M  V30 139 C 11.6308 -0.499354 5.19907 0
M  V30 140 H 13.3248 -0.00824265 2.99399 0
M  V30 141 H 10.8708 -0.0025244 1.44 0
M  V30 142 H 12.8238 -2.39937 3.46422 0
M  V30 143 H 11.5478 -2.39405 2.22155 0
M  V30 144 H 10.2068 -0.756156 3.58717 0
M  V30 145 H 9.8548 -3.21632 3.86732 0
M  V30 146 H 9.5548 -2.3409 5.38958 0
M  V30 147 H 11.0788 -3.24732 5.1709 0
M  V30 148 H 12.4928 -1.02498 5.64063 0
M  V30 149 H 10.8898 -0.316424 5.99265 0
M  V30 150 H 11.9598 0.480459 4.82514 0
M  V30 151 N 13.3029 -1.57598 0.00835791 0
M  V30 152 C 14.2349 -2.05811 -1.00868 0
M  V30 153 C 15.2479 -0.977579 -1.30182 0
M  V30 154 O 16.4369 -1.25421 -1.27011 0
M  V30 155 C 13.5369 -2.45016 -2.34137 0
M  V30 156 C 12.7099 -3.75903 -2.23643 0
M  V30 157 C 11.7689 -4.01884 -3.3967 0
M  V30 158 O 10.7949 -4.72433 -3.17483 0
M  V30 159 N 11.9969 -3.50432 -4.62793 0
M  V30 160 H 14.7619 -2.93684 -0.597458 0
M  V30 161 H 12.3229 -1.60909 -0.178852 0
M  V30 162 H 14.3149 -2.59506 -3.10546 0
M  V30 163 H 12.8849 -1.62618 -2.66972 0
M  V30 164 H 12.1049 -3.7141 -1.32091 0
M  V30 165 H 13.3929 -4.61695 -2.13812 0
M  V30 166 H 12.7909 -2.93317 -4.83716 0
M  V30 167 H 11.3479 -3.70236 -5.3644 0
M  V30 168 N 14.781 0.264519 -1.55364 0
M  V30 169 C 15.713 1.34965 -1.85248 0
M  V30 170 C 16.726 1.45136 -0.737525 0
M  V30 171 O 17.915 1.46801 -1.01547 0
M  V30 172 C 15.015 2.73008 -2.00797 0
M  V30 173 C 14.188 2.85324 -3.31525 0
M  V30 174 C 13.247 4.04097 -3.37034 0
M  V30 175 O 12.273 3.94455 -4.10358 0
M  V30 176 N 13.475 5.16458 -2.65049 0
M  V30 177 H 16.24 1.09672 -2.78913 0
M  V30 178 H 13.801 0.454635 -1.55386 0
M  V30 179 H 15.793 3.50772 -2.01844 0
M  V30 180 H 14.363 2.91087 -1.1396 0
M  V30 181 H 13.583 1.94377 -3.42945 0
M  V30 182 H 14.871 2.9049 -4.17724 0
M  V30 183 H 14.269 5.27181 -2.05175 0
M  V30 184 H 12.826 5.92422 -2.71809 0
M  V30 185 N 16.2591 1.48442 0.529413 0
M  V30 186 C 17.1891 1.65902 1.64313 0
M  V30 187 C 18.1701 0.507897 1.6234 0
M  V30 188 O 19.3551 0.740503 1.79528 0
M  V30 189 C 16.4851 1.69911 3.02898 0
M  V30 190 C 15.4391 2.8453 3.19729 0
M  V30 191 C 14.7651 2.73629 4.59381 0
M  V30 192 C 16.0651 4.25821 3.02447 0
M  V30 193 H 17.7591 2.5914 1.49955 0
M  V30 194 H 15.3051 1.24709 0.719982 0
M  V30 195 H 17.2581 1.80715 3.80684 0
M  V30 196 H 15.9821 0.732524 3.18279 0
M  V30 197 H 14.6411 2.73283 2.44361 0
M  V30 198 H 14.2891 1.74938 4.71599 0
M  V30 199 H 13.9891 3.50541 4.71588 0
M  V30 200 H 15.5131 2.86401 5.39265 0
M  V30 201 H 16.9271 4.37898 3.70024 0
M  V30 202 H 15.3241 5.03735 3.26146 0
M  V30 203 H 16.3941 4.42244 1.98867 0
M  V30 204 N 17.7372 -0.778329 1.37039 0
M  V30 205 C 18.6672 -1.90546 1.34962 0
M  V30 206 C 19.6482 -1.68681 0.219274 0
M  V30 207 O 20.8332 -1.89634 0.418624 0
M  V30 208 C 17.9632 -3.27734 1.14925 0
M  V30 209 C 16.9172 -3.64147 2.24902 0
M  V30 210 C 16.2432 -4.99806 1.89996 0
M  V30 211 C 17.5432 -3.71579 3.67051 0
M  V30 212 H 19.2372 -1.92541 2.29277 0
M  V30 213 H 16.7832 -0.924948 1.10366 0
M  V30 214 H 18.7362 -4.06215 1.12104 0
M  V30 215 H 17.4602 -3.26154 0.170631 0
M  V30 216 H 16.1192 -2.8797 2.26868 0
M  V30 217 H 15.7672 -4.94759 0.906796 0
M  V30 218 H 15.4672 -5.25139 2.63634 0
M  V30 219 H 16.9912 -5.80694 1.88749 0
M  V30 220 H 18.4052 -4.40227 3.67251 0
M  V30 221 H 16.8022 -4.08405 4.39688 0
M  V30 222 H 17.8722 -2.72404 4.01154 0
M  V30 223 N 19.2153 -1.21501 -1.00376 0
M  V30 224 C 20.1453 -0.999478 -2.11028 0
M  V30 225 C 21.1263 0.0759671 -1.6993 0
M  V30 226 O 22.3113 -0.0841106 -1.94018 0
M  V30 227 C 19.4413 -0.564709 -3.42678 0
M  V30 228 C 18.3953 -1.58486 -3.97576 0
M  V30 229 C 17.7213 -1.00628 -5.25146 0
M  V30 230 C 19.0213 -2.97204 -4.29496 0
M  V30 231 H 20.7153 -1.92495 -2.29317 0
M  V30 232 H 18.2613 -0.92693 -1.102 0
M  V30 233 H 20.2143 -0.401091 -4.19487 0
M  V30 234 H 18.9383 0.396411 -3.24185 0
M  V30 235 H 17.5973 -1.73606 -3.22888 0
M  V30 236 H 17.2453 -0.0368439 -5.02987 0
M  V30 237 H 16.9453 -1.68771 -5.62841 0
M  V30 238 H 18.4693 -0.854015 -6.04598 0
M  V30 239 H 19.8833 -2.8552 -4.97143 0
M  V30 240 H 18.2803 -3.62372 -4.78338 0
M  V30 241 H 19.3503 -3.47956 -3.3772 0
M  V30 242 N 20.6934 1.19889 -1.02296 0
M  V30 243 C 22.1044 1.71124 -0.746568 0
M  V30 244 C 22.4554 1.81939 0.734335 0
M  V30 245 O 21.5804 1.48639 1.57275 0
M  V30 246 C 22.1754 3.10804 -1.34857 0
M  V30 247 C 20.7344 3.59323 -1.1209 0
M  V30 248 C 19.8814 2.3635 -1.45031 0
M  V30 249 H 22.8324 1.04813 -1.19163 0
M  V30 250 H 22.8534 3.73186 -0.742437 0
M  V30 251 H 22.3654 3.029 -2.42638 0
M  V30 252 H 20.4664 3.7255 -0.0610337 0
M  V30 253 H 20.5794 4.4378 -1.80544 0
M  V30 254 H 18.9434 2.39399 -0.869487 0
M  V30 255 H 19.7264 2.31081 -2.53883 0
M  V30 256 N 22.1715 0.800033 1.35784 0
M  V30 257 C 23.4175 0.377901 1.99248 0
M  V30 258 C 23.7505 -1.05052 1.63333 0
M  V30 259 O 23.0255 -1.72768 0.893385 0
M  V30 260 C 23.3085 0.553922 3.55814 0
M  V30 261 C 23.1615 2.0268 4.01548 0
M  V30 262 C 24.4805 -0.0244802 4.40093 0
M  V30 263 H 21.5995 0.138782 0.723815 0
M  V30 264 H 24.2415 1.00835 1.61035 0
M  V30 265 H 22.3915 0.0172398 3.88496 0
M  V30 266 H 24.0635 2.62536 3.79305 0
M  V30 267 H 22.3065 2.5256 3.52698 0
M  V30 268 H 22.9775 2.10087 5.10458 0
M  V30 269 H 25.4535 0.433775 4.13833 0
M  V30 270 H 24.3295 0.128637 5.48749 0
M  V30 271 H 24.5905 -1.11758 4.27741 0
M  V30 272 N 23.6496 -1.47581 0.552962 0
M  V30 273 C 24.5796 -2.32762 -0.185451 0
M  V30 274 C 25.5606 -1.43527 -0.912905 0
M  V30 275 O 26.7456 -1.72388 -0.894201 0
M  V30 276 C 23.8756 -3.25219 -1.21859 0
M  V30 277 C 22.8296 -4.23661 -0.607864 0
M  V30 278 C 22.1556 -5.05413 -1.74533 0
M  V30 279 C 23.4556 -5.20481 0.435582 0
M  V30 280 H 25.1496 -2.94749 0.525684 0
M  V30 281 H 22.6956 -1.41738 0.254251 0
M  V30 282 H 24.6486 -3.8365 -1.7433 0
M  V30 283 H 23.3726 -2.61279 -1.95961 0
M  V30 284 H 22.0316 -3.66451 -0.104489 0
M  V30 285 H 21.6796 -4.3788 -2.47529 0
M  V30 286 H 21.3796 -5.72059 -1.34249 0
M  V30 287 H 22.9036 -5.66701 -2.27338 0
M  V30 288 H 24.3176 -5.733 -0.00290157 0
M  V30 289 H 22.7146 -5.95305 0.757067 0
M  V30 290 H 23.7846 -4.66217 1.33303 0
M  V30 291 N 25.1277 -0.289203 -1.54924 0
M  V30 292 C 26.0577 0.58549 -2.2604 0
M  V30 293 C 27.0387 1.14753 -1.25562 0
M  V30 294 O 28.2237 1.17906 -1.54311 0
M  V30 295 C 25.3537 1.76305 -2.99222 0
M  V30 296 C 24.3077 1.33191 -4.06748 0
M  V30 297 C 23.6337 2.5937 -4.6758 0
M  V30 298 C 24.9337 0.471775 -5.20165 0
M  V30 299 H 26.6277 -0.00763532 -2.99399 0
M  V30 300 H 24.1737 -0.00511229 -1.43999 0
M  V30 301 H 26.1267 2.38097 -3.47689 0
M  V30 302 H 24.8507 2.38223 -2.23422 0
M  V30 303 H 23.5097 0.737121 -3.59113 0
M  V30 304 H 23.1577 3.19576 -3.88433 0
M  V30 305 H 22.8577 2.31228 -5.40192 0
M  V30 306 H 24.3817 3.21985 -5.18804 0
M  V30 307 H 25.7957 0.995056 -5.64599 0
M  V30 308 H 24.1927 0.284639 -5.99425 0
M  V30 309 H 25.2627 -0.506041 -4.82252 0
M  V30 310 N 26.6058 1.57591 -0.0167156 0
M  V30 311 C 27.5688 2.08393 0.954204 0
M  V30 312 C 28.5688 0.996531 1.26198 0
M  V30 313 O 29.7588 1.25858 1.20438 0
M  V30 314 C 26.8908 2.5394 2.27436 0
M  V30 315 H 28.0838 2.95455 0.514451 0
M  V30 316 H 25.6368 1.54582 0.231089 0
M  V30 317 H 26.3718 1.70171 2.76066 0
M  V30 318 H 26.1568 3.33371 2.06412 0
M  V30 319 H 27.6468 2.93512 2.97053 0
M  V30 320 N 28.0839 -0.256276 1.55502 0
M  V30 321 C 29.3239 -0.993081 1.78654 0
M  V30 322 C 29.6879 -1.8288 0.584724 0
M  V30 323 O 30.8889 -2.59665 0.694822 0
M  V30 324 C 29.1599 -1.83856 3.06483 0
M  V30 325 S 30.7189 -2.63573 3.5082 0
M  V30 326 H 27.5369 -0.334199 0.62756 0
M  V30 327 H 30.1389 -0.26184 1.93739 0
M  V30 328 H 28.8429 -1.21414 3.92029 0
M  V30 329 H 28.3739 -2.61271 2.94111 0
M  V30 330 H 30.3889 -3.86312 3.11412 0
M  V30 331 N 29.562 -1.4872 -0.521534 0
M  V30 332 C 30.525 -1.63379 -1.60748 0
M  V30 333 C 31.525 -0.50661 -1.52611 0
M  V30 334 O 32.715 -0.772601 -1.5613 0
M  V30 335 C 29.847 -1.61192 -3.00383 0
M  V30 336 H 31.04 -2.60217 -1.49087 0
M  V30 337 H 28.593 -1.37444 -0.744235 0
M  V30 338 H 29.328 -0.65863 -3.17541 0
M  V30 339 H 29.113 -2.43032 -3.07698 0
M  V30 340 H 30.603 -1.7466 -3.7932 0
M  V30 341 N 31.0401 0.771051 -1.3745 0
M  V30 342 C 32.0031 1.86598 -1.33093 0
M  V30 343 C 33.0031 1.59076 -0.234845 0
M  V30 344 O 34.1931 1.67145 -0.490732 0
M  V30 345 C 31.3251 3.23747 -1.06773 0
M  V30 346 H 32.5181 1.91873 -2.30488 0
M  V30 347 H 30.0711 0.970876 -1.2249 0
M  V30 348 H 30.8061 3.24148 -0.099129 0
M  V30 349 H 30.5911 3.45115 -1.86112 0
M  V30 350 H 32.0811 4.03824 -1.06377 0
M  V30 351 N 32.5182 1.22032 0.997298 0
M  V30 352 C 33.4682 0.953838 2.07089 0
M  V30 353 C 34.4522 -0.0938669 1.60626 0
M  V30 354 O 35.6442 0.116078 1.76619 0
M  V30 355 C 32.7732 0.528726 3.39204 0
M  V30 356 C 31.8592 1.61092 3.92314 0
M  V30 357 N 32.2502 2.83768 4.18699 0
M  V30 358 C 30.5482 1.48158 4.20672 0
M  V30 359 C 31.2492 3.53715 4.61802 0
M  V30 360 N 30.2252 2.81174 4.65233 0
M  V30 361 H 34.0272 1.88577 2.25424 0
M  V30 362 H 31.5412 1.11719 1.17867 0
M  V30 363 H 33.5382 0.31915 4.15677 0
M  V30 364 H 32.1982 -0.39635 3.22272 0
M  V30 365 H 33.2092 3.20238 4.07023 0
M  V30 366 H 29.8862 0.622369 4.12835 0
M  V30 367 H 31.2762 4.58793 4.90875 0
M  V30 368 N 33.9963 -1.19345 1.0293 0
M  V30 369 C 35.2213 -1.93538 0.745511 0
M  V30 370 C 35.6463 -1.75007 -0.689511 0
M  V30 371 O 35.0043 -1.05265 -1.47611 0
M  V30 372 C 35.0523 -3.43336 1.10239 0
M  V30 373 O 34.1563 -4.11806 0.221289 0
M  V30 374 H 33.4973 -0.604193 0.275404 0
M  V30 375 H 36.0273 -1.5141 1.37609 0
M  V30 376 H 36.0373 -3.94004 1.05947 0
M  V30 377 H 34.7123 -3.56146 2.14786 0
M  V30 378 H 33.2893 -3.715 0.322842 0
M  V30 379 N 35.4744 -0.807222 -1.35358 0
M  V30 380 C 36.7024 -0.400377 -2.02989 0
M  V30 381 C 37.1174 0.988859 -1.60832 0
M  V30 382 O 36.4744 1.63729 -0.806175 0
M  V30 383 C 36.5254 -0.474867 -3.58368 0
M  V30 384 O 36.2464 -1.80933 -3.98992 0
M  V30 385 C 37.7474 -0.0609112 -4.43258 0
M  V30 386 H 34.9674 -0.162587 -0.651004 0
M  V30 387 H 37.5114 -1.09102 -1.72965 0
M  V30 388 H 35.6664 0.167534 -3.87038 0
M  V30 389 H 36.0804 -1.77256 -4.9364 0
M  V30 390 H 37.5544 -0.164145 -5.51756 0
M  V30 391 H 38.0314 0.993831 -4.27808 0
M  V30 392 H 38.6374 -0.676492 -4.19885 0
M  V30 393 N 36.9525 1.47285 -0.560781 0
M  V30 394 C 38.2005 2.02064 -0.0379868 0
M  V30 395 C 38.5215 1.43711 1.31803 0
M  V30 396 O 37.7915 0.61362 1.86042 0
M  V30 397 H 36.3715 0.746918 -0.0110531 0
M  V30 398 H 39.0335 1.80648 -0.731598 0
M  V30 399 H 38.1295 3.12064 0.0474463 0
M  V30 400 N 38.4306 0.297415 1.54768 0
M  V30 401 C 39.3936 -0.567375 2.22066 0
M  V30 402 C 40.3936 -1.06409 1.20556 0
M  V30 403 O 41.5836 -0.960691 1.45315 0
M  V30 404 C 38.7156 -1.78517 2.90421 0
M  V30 405 H 39.9086 0.0205534 2.99893 0
M  V30 406 H 37.4616 0.0482163 1.56226 0
M  V30 407 H 38.1966 -2.41303 2.16664 0
M  V30 408 H 37.9816 -1.43669 3.64831 0
M  V30 409 H 39.4716 -2.39964 3.41771 0
M  V30 410 N 39.9087 -1.5758 0.0250728 0
M  V30 411 C 40.8387 -2.13007 -0.956575 0
M  V30 412 C 41.8197 -1.0452 -1.342 0
M  V30 413 O 43.0047 -1.32332 -1.42133 0
M  V30 414 C 40.1347 -2.65386 -2.24026 0
M  V30 415 C 39.0887 -3.78623 -1.99571 0
M  V30 416 C 38.4147 -4.17414 -3.3417 0
M  V30 417 C 39.7147 -5.04867 -1.33814 0
M  V30 418 H 41.4087 -2.9528 -0.494991 0
M  V30 419 H 38.9547 -1.42042 -0.236651 0
M  V30 420 H 40.9077 -3.02794 -2.93076 0
M  V30 421 H 39.6317 -1.80268 -2.72343 0
M  V30 422 H 38.2907 -3.41646 -1.32941 0
M  V30 423 H 37.9387 -3.29284 -3.80238 0
M  V30 424 H 37.6387 -4.93719 -3.18615 0
M  V30 425 H 39.1627 -4.57402 -4.04495 0
M  V30 426 H 40.5767 -5.39888 -1.92857 0
M  V30 427 H 38.9737 -5.86144 -1.28669 0
M  V30 428 H 40.0437 -4.83904 -0.310561 0
M  V30 429 N 41.3868 0.248026 -1.55636 0
M  V30 430 C 42.7978 0.817177 -1.67866 0
M  V30 431 C 43.1488 1.86069 -0.622322 0
M  V30 432 O 42.2738 2.15157 0.231618 0
M  V30 433 C 42.8688 1.489 -3.04326 0
M  V30 434 C 41.4278 2.00587 -3.185 0
M  V30 435 C 40.5748 0.856573 -2.63739 0
M  V30 436 H 43.5258 0.0238579 -1.58682 0
M  V30 437 H 43.5468 2.35698 -2.98708 0
M  V30 438 H 43.0588 0.729279 -3.81186 0
M  V30 439 H 41.1598 2.79443 -2.4646 0
M  V30 440 H 41.2728 2.20402 -4.25393 0
M  V30 441 H 39.6368 1.25678 -2.21534 0
M  V30 442 H 40.4198 0.109953 -3.43124 0
M  V30 443 N 42.8649 1.48995 0.513639 0
M  V30 444 C 44.2809 1.35478 0.843682 0
M  V30 445 C 44.4809 0.378213 1.97919 0
M  V30 446 O 43.5369 -0.194689 2.51748 0
M  V30 447 C 44.8499 2.75901 1.1958 0
M  V30 448 C 46.3979 2.84509 1.30474 0
M  V30 449 C 46.8729 4.25671 1.69021 0
M  V30 450 N 48.3639 4.28422 1.76094 0
M  V30 451 C 49.0989 5.34601 2.07338 0
M  V30 452 N 48.5949 6.5104 2.36894 0
M  V30 453 N 50.3879 5.22007 2.08483 0
M  V30 454 H 42.5389 2.11092 -0.235328 0
M  V30 455 H 44.8019 0.947039 -0.0426669 0
M  V30 456 H 44.5079 3.49001 0.434913 0
M  V30 457 H 44.3819 3.10467 2.1422 0
M  V30 458 H 46.7689 2.11655 2.05637 0
M  V30 459 H 46.8499 2.53542 0.339155 0
M  V30 460 H 46.4939 4.99048 0.944135 0
M  V30 461 H 46.4239 4.54094 2.66658 0
M  V30 462 H 48.9149 3.44441 1.55464 0
M  V30 463 H 49.2279 7.2779 2.59887 0
M  V30 464 H 47.5729 6.54287 2.34378 0
M  V30 465 H 50.7639 4.30051 1.84861 0
M  V30 466 H 50.9369 6.04854 2.325 0
M  V30 467 N 44.343 -0.763751 1.37857 0
M  V30 468 C 45.273 -1.89103 1.36975 0
M  V30 469 C 46.254 -1.68439 0.237152 0
M  V30 470 O 47.439 -1.8918 0.438713 0
M  V30 471 C 44.569 -3.26496 1.18395 0
M  V30 472 C 43.523 -3.61741 2.28751 0
M  V30 473 C 42.849 -4.97762 1.95286 0
M  V30 474 C 44.149 -3.67665 3.70972 0
M  V30 475 H 45.843 -1.90099 2.31307 0
M  V30 476 H 43.389 -0.91319 1.11341 0
M  V30 477 H 45.342 -4.05003 1.16406 0
M  V30 478 H 44.066 -3.25955 0.205215 0
M  V30 479 H 42.725 -2.85547 2.29909 0
M  V30 480 H 42.373 -4.93769 0.959221 0
M  V30 481 H 42.073 -5.22313 2.69189 0
M  V30 482 H 43.597 -5.7866 1.94898 0
M  V30 483 H 45.011 -4.36307 3.719 0
M  V30 484 H 43.408 -4.03718 4.43995 0
M  V30 485 H 44.478 -2.68134 4.0402 0
M  V30 486 N 45.8211 -1.22559 -0.990812 0
M  V30 487 C 47.0611 -1.06302 -1.74583 0
M  V30 488 C 47.4251 0.394737 -1.87898 0
M  V30 489 O 48.6261 0.678214 -2.60103 0
M  V30 490 C 46.8971 -1.75699 -3.11231 0
M  V30 491 S 48.4561 -1.74882 -4.02445 0
M  V30 492 H 45.2741 -0.380639 -0.600529 0
M  V30 493 H 47.8761 -1.55532 -1.18449 0
M  V30 494 H 46.5801 -2.80923 -2.99183 0
M  V30 495 H 46.1111 -1.26708 -3.72436 0
M  V30 496 H 48.1261 -0.799997 -4.89709 0
M  V30 497 N 47.2992 1.18797 -1.03562 0
M  V30 498 C 48.5762 1.84469 -0.650434 0
M  V30 499 C 48.9562 1.92319 0.870433 0
M  V30 500 O 48.3042 1.44528 1.76986 0
M  V30 501 C 48.5142 3.2306 -1.32036 0
M  V30 502 C 49.8622 3.9915 -1.44792 0
M  V30 503 O 50.8862 3.32481 -1.27806 0
M  V30 504 O 49.7452 5.18587 -1.72423 0
M  V30 505 H 46.8392 0.795251 -0.226946 0
M  V30 506 H 49.3852 1.26231 -1.13419 0
M  V30 507 H 48.1572 3.1222 -2.3587 0
M  V30 508 H 47.7802 3.88949 -0.8249 0
M  V30 509 N 48.7773 0.814389 1.34928 0
M  V30 510 C 50.0233 0.399013 1.98836 0
M  V30 511 C 50.3563 -1.03314 1.64438 0
M  V30 512 O 49.6313 -1.71811 0.911659 0
M  V30 513 C 49.9143 0.591629 3.55207 0
M  V30 514 C 49.7673 2.06928 3.99376 0
M  V30 515 C 51.0863 0.022199 4.40094 0
M  V30 516 H 48.2053 0.146451 0.722303 0
M  V30 517 H 50.8473 1.02537 1.59957 0
M  V30 518 H 48.9973 0.0584441 3.88456 0
M  V30 519 H 50.6693 2.66544 3.76499 0
M  V30 520 H 48.9123 2.56287 3.49999 0
M  V30 521 H 49.5833 2.1549 5.08201 0
M  V30 522 H 52.0593 0.477643 4.13349 0
M  V30 523 H 50.9353 0.186832 5.48582 0
M  V30 524 H 51.1963 -1.07215 4.28902 0
M  V30 525 N 50.2554 -1.46986 0.568584 0
M  V30 526 C 51.1854 -2.32946 -0.160753 0
M  V30 527 C 52.1664 -1.44487 -0.897631 0
M  V30 528 O 53.3514 -1.73327 -0.875867 0
M  V30 529 C 50.4814 -3.26494 -1.18403 0
M  V30 530 C 49.4354 -4.24282 -0.562895 0
M  V30 531 C 48.7614 -5.07236 -1.69163 0
M  V30 532 C 50.0614 -5.19989 0.490761 0
M  V30 533 H 51.7554 -2.94175 0.556916 0
M  V30 534 H 49.3014 -1.4146 0.26927 0
M  V30 535 H 51.2544 -3.85477 -1.70251 0
M  V30 536 H 49.9784 -2.63343 -1.93179 0
M  V30 537 H 48.6374 -3.66541 -0.0656164 0
M  V30 538 H 48.2854 -4.4048 -2.42871 0
M  V30 539 H 47.9854 -5.7345 -1.28174 0
M  V30 540 H 49.5094 -5.6908 -2.21314 0
M  V30 541 H 50.9234 -5.73271 0.0579047 0
M  V30 542 H 49.3204 -5.94469 0.820165 0
M  V30 543 H 50.3904 -4.64777 1.3824 0
M  V30 544 N 51.7335 -0.305618 -1.54608 0
M  V30 545 C 52.6655 0.602161 -2.21149 0
M  V30 546 C 53.6785 1.09394 -1.20569 0
M  V30 547 O 54.8675 1.0106 -1.47136 0
M  V30 548 C 51.9675 1.83692 -2.84799 0
M  V30 549 C 51.1405 1.48686 -4.11353 0
M  V30 550 C 50.1995 2.57725 -4.58764 0
M  V30 551 O 49.2255 2.22623 -5.23858 0
M  V30 552 N 50.4275 3.88346 -4.31471 0
M  V30 553 H 53.1925 0.0324966 -2.99682 0
M  V30 554 H 50.7535 -0.128021 -1.61393 0
M  V30 555 H 52.7455 2.55994 -3.13448 0
M  V30 556 H 51.3155 2.31486 -2.10078 0
M  V30 557 H 50.5355 0.596269 -3.89664 0
M  V30 558 H 51.8235 1.22842 -4.93748 0
M  V30 559 H 51.2215 4.19671 -3.79331 0
M  V30 560 H 49.7785 4.56932 -4.64818 0
M  V30 561 N 53.2116 1.57565 -0.0334293 0
M  V30 562 C 54.4576 1.92262 0.645226 0
M  V30 563 C 54.7906 0.910543 1.71531 0
M  V30 564 O 54.0656 -0.066099 1.94388 0
M  V30 565 C 54.3486 3.37422 1.2577 0
M  V30 566 C 54.2016 4.49369 0.196891 0
M  V30 567 C 55.5206 3.82628 2.17449 0
M  V30 568 H 52.6396 0.699171 0.233085 0
M  V30 569 H 55.2816 1.89779 -0.0915694 0
M  V30 570 H 53.4316 3.39669 1.88566 0
M  V30 571 H 55.1036 4.59254 -0.433962 0
M  V30 572 H 53.3466 4.31168 -0.477137 0
M  V30 573 H 54.0176 5.47978 0.665124 0
M  V30 574 H 56.4936 3.82145 1.64634 0
M  V30 575 H 55.3696 4.84883 2.57254 0
M  V30 576 H 55.6306 3.18376 3.0674 0
M  V30 577 N 54.6897 -0.239769 1.55765 0
M  V30 578 C 55.6197 -1.30052 1.9393 0
M  V30 579 C 56.6007 -1.49839 0.805132 0
M  V30 580 O 57.7857 -1.62328 1.06599 0
M  V30 581 C 54.9157 -2.65391 2.2402 0
M  V30 582 C 53.8697 -2.60289 3.39755 0
M  V30 583 C 53.1957 -3.99489 3.55405 0
M  V30 584 C 54.4957 -2.16654 4.75246 0
M  V30 585 H 56.1897 -0.983573 2.82783 0
M  V30 586 H 53.7357 -0.471701 1.36055 0
M  V30 587 H 55.6887 -3.3974 2.49308 0
M  V30 588 H 54.4127 -2.98736 1.32 0
M  V30 589 H 53.0717 -1.88398 3.14487 0
M  V30 590 H 52.7197 -4.30112 2.60793 0
M  V30 591 H 52.4197 -3.96962 4.33238 0
M  V30 592 H 53.9437 -4.75528 3.83022 0
M  V30 593 H 55.3577 -2.80737 4.99859 0
M  V30 594 H 53.7547 -2.25223 5.56232 0
M  V30 595 H 54.8247 -1.11835 4.71827 0
M  V30 596 N 56.1678 -1.49265 -0.50573 0
M  V30 597 C 57.4138 -1.59723 -1.25937 0
M  V30 598 C 57.7688 -0.278236 -1.90378 0
M  V30 599 O 57.0618 0.72113 -1.77511 0
M  V30 600 C 57.2558 -2.69008 -2.35308 0
M  V30 601 C 57.0848 -4.11405 -1.81592 0
M  V30 602 C 55.8548 -4.78252 -1.63105 0
M  V30 603 C 58.0528 -4.96792 -1.33048 0
M  V30 604 N 56.0348 -6.0498 -1.04269 0
M  V30 605 C 57.4058 -6.13962 -0.863168 0
M  V30 606 C 59.4608 -4.82828 -1.21577 0
M  V30 607 C 58.1638 -7.18705 -0.292489 0
M  V30 608 C 60.1898 -5.87716 -0.65907 0
M  V30 609 C 59.5518 -7.0411 -0.201954 0
M  V30 610 H 55.6508 -0.638864 -0.450973 0
M  V30 611 H 58.2348 -1.86251 -0.567326 0
M  V30 612 H 56.4058 -2.4426 -3.01979 0
M  V30 613 H 58.1378 -2.69013 -3.02348 0
M  V30 614 H 54.8928 -4.34974 -1.87336 0
M  V30 615 H 55.3168 -6.72631 -0.767919 0
M  V30 616 H 59.9588 -3.93159 -1.55518 0
M  V30 617 H 57.6768 -8.08078 0.0591987 0
M  V30 618 H 61.2628 -5.7897 -0.573156 0
M  V30 619 H 60.1428 -7.83885 0.222101 0
M  V30 620 N 57.6459 0.756429 -1.3826 0
M  V30 621 C 58.5559 1.9009 -1.37488 0
M  V30 622 C 59.5719 1.71855 -0.272366 0
M  V30 623 O 60.7479 1.94827 -0.510318 0
M  V30 624 C 57.8129 3.25421 -1.19592 0
M  V30 625 C 56.8739 3.56202 -2.39622 0
M  V30 626 C 56.1069 4.85075 -2.2257 0
M  V30 627 O 56.3299 5.57246 -1.21793 0
M  V30 628 O 55.2639 5.15269 -3.11098 0
M  V30 629 H 59.0899 1.93695 -2.33914 0
M  V30 630 H 56.6749 0.901313 -1.1915 0
M  V30 631 H 58.5569 4.06337 -1.11661 0
M  V30 632 H 57.2319 3.22634 -0.262486 0
M  V30 633 H 56.1389 2.75458 -2.53128 0
M  V30 634 H 57.4719 3.63747 -3.31586 0
M  V30 635 N 59.124 1.23083 0.984299 0
M  V30 636 C 60.034 1.02515 2.11016 0
M  V30 637 C 61.05 -0.0291702 1.73976 0
M  V30 638 O 62.226 0.165434 2.00719 0
M  V30 639 C 59.291 0.614673 3.41208 0
M  V30 640 C 58.352 1.74359 3.92297 0
M  V30 641 C 57.585 1.35261 5.16275 0
M  V30 642 O 57.808 0.235136 5.69915 0
M  V30 643 O 56.742 2.17227 5.61334 0
M  V30 644 H 60.568 1.96862 2.31255 0
M  V30 645 H 58.153 1.01753 1.09392 0
M  V30 646 H 60.035 0.396518 4.1953 0
M  V30 647 H 58.71 -0.299851 3.22308 0
M  V30 648 H 57.617 2.01635 3.1511 0
M  V30 649 H 58.95 2.63629 4.15645 0
M  V30 650 N 60.6021 -1.18246 1.0419 0
M  V30 651 C 61.5341 -2.2142 0.592088 0
M  V30 652 C 62.5471 -1.59233 -0.338909 0
M  V30 653 O 63.7361 -1.78002 -0.133231 0
M  V30 654 C 60.8361 -3.38546 -0.154854 0
M  V30 655 C 60.0091 -4.3031 0.784328 0
M  V30 656 C 59.0681 -5.26138 0.0804583 0
M  V30 657 O 58.0941 -5.64738 0.711292 0
M  V30 658 N 59.2961 -5.68261 -1.18574 0
M  V30 659 H 62.0611 -2.60636 1.47949 0
M  V30 660 H 59.6221 -1.33044 0.922544 0
M  V30 661 H 61.6141 -3.99678 -0.635606 0
M  V30 662 H 60.1841 -2.98012 -0.943811 0
M  V30 663 H 59.4041 -3.66764 1.44491 0
M  V30 664 H 60.6921 -4.8852 1.42218 0
M  V30 665 H 60.0901 -5.38957 -1.71876 0
M  V30 666 H 58.6471 -6.31584 -1.61074 0
M  V30 667 N 62.0802 -0.821533 -1.34494 0
M  V30 668 C 63.3572 -0.33159 -1.92769 0
M  V30 669 C 63.7372 1.18088 -1.74981 0
M  V30 670 O 63.0852 1.98733 -1.12772 0
M  V30 671 C 63.2952 -0.759398 -3.40638 0
M  V30 672 C 64.6432 -0.757433 -4.1779 0
M  V30 673 O 65.6672 -0.70189 -3.49216 0
M  V30 674 O 64.5262 -0.829361 -5.4017 0
M  V30 675 H 61.6202 -0.0902502 -0.822061 0
M  V30 676 H 64.1662 -0.906231 -1.43477 0
M  V30 677 H 62.9382 -1.8012 -3.47379 0
M  V30 678 H 62.5612 -0.160378 -3.97276 0
M  V30 679 N 63.5583 1.46682 -0.576371 0
M  V30 680 C 64.4903 2.28341 0.198231 0
M  V30 681 C 65.5033 1.38141 0.861453 0
M  V30 682 O 66.6923 1.62797 0.732082 0
M  V30 683 C 63.7923 3.12986 1.29972 0
M  V30 684 C 62.9653 4.31271 0.729639 0
M  V30 685 C 62.0243 4.97363 1.71803 0
M  V30 686 O 61.0503 5.55156 1.25658 0
M  V30 687 N 62.2523 4.93796 3.05198 0
M  V30 688 H 65.0173 2.9546 -0.502324 0
M  V30 689 H 62.5783 1.56525 -0.413715 0
M  V30 690 H 64.5703 3.54066 1.96008 0
M  V30 691 H 63.1403 2.47984 1.90323 0
M  V30 692 H 62.3603 3.94052 -0.108012 0
M  V30 693 H 63.6483 5.07739 0.328438 0
M  V30 694 H 63.0463 4.48077 3.45317 0
M  V30 695 H 61.6033 5.38837 3.6674 0
M  V30 696 N 65.0364 0.313813 1.54444 0
M  V30 697 C 66.2764 -0.292389 2.02298 0
M  V30 698 C 66.6404 -1.50105 1.19719 0
M  V30 699 O 67.8414 -2.17947 1.5733 0
M  V30 700 C 66.1124 -0.627682 3.51845 0
M  V30 701 S 67.6714 -1.21493 4.21646 0
M  V30 702 H 64.4894 -0.0890247 0.705405 0
M  V30 703 H 67.0914 0.444668 1.90376 0
M  V30 704 H 65.7954 0.260265 4.09574 0
M  V30 705 H 65.3264 -1.39519 3.67829 0
M  V30 706 H 67.3414 -2.5022 4.28491 0
M  V30 707 N 66.5145 -1.57545 0.0417849 0
M  V30 708 C 67.4445 -2.14009 -0.933929 0
M  V30 709 C 68.4255 -1.05938 -1.33083 0
M  V30 710 O 69.6105 -1.33833 -1.40721 0
M  V30 711 C 66.7405 -2.67747 -2.21199 0
M  V30 712 C 65.6945 -3.80718 -1.95544 0
M  V30 713 C 65.0205 -4.20935 -3.29724 0
M  V30 714 C 66.3205 -5.06258 -1.28452 0
M  V30 715 H 68.0145 -2.95788 -0.463645 0
M  V30 716 H 65.5605 -1.42285 -0.221573 0
M  V30 717 H 67.5135 -3.05886 -2.89848 0
M  V30 718 H 66.2375 -1.83147 -2.70416 0
M  V30 719 H 64.8965 -3.43037 -1.2931 0
M  V30 720 H 64.5445 -3.33298 -3.76724 0
M  V30 721 H 64.2445 -4.9707 -3.13361 0
M  V30 722 H 65.7685 -4.61666 -3.9962 0
M  V30 723 H 67.1825 -5.41903 -1.8712 0
M  V30 724 H 65.5795 -5.87475 -1.22445 0
M  V30 725 H 66.6495 -4.84207 -0.259219 0
M  V30 726 N 67.9926 0.231505 -1.5589 0
M  V30 727 C 68.9246 1.31006 -1.8807 0
M  V30 728 C 69.9376 1.43539 -0.768145 0
M  V30 729 O 71.1266 1.44614 -1.04638 0
M  V30 730 C 68.2266 2.68688 -2.06543 0
M  V30 731 C 67.3996 2.78228 -3.37502 0
M  V30 732 C 66.4586 3.96857 -3.4553 0
M  V30 733 O 65.4846 3.85662 -4.18633 0
M  V30 734 N 66.6866 5.1072 -2.75944 0
M  V30 735 H 69.4516 1.03731 -2.81176 0
M  V30 736 H 67.0126 0.421573 -1.56315 0
M  V30 737 H 69.0046 3.46412 -2.09239 0
M  V30 738 H 67.5746 2.88605 -1.20109 0
M  V30 739 H 66.7946 1.87059 -3.46991 0
M  V30 740 H 68.0826 2.81564 -4.23791 0
M  V30 741 H 67.4806 5.2271 -2.16311 0
M  V30 742 H 66.0376 5.86523 -2.84314 0
M  V30 743 N 69.4707 1.49531 0.497807 0
M  V30 744 C 70.3807 1.69176 1.62532 0
M  V30 745 C 71.3967 0.5744 1.64246 0
M  V30 746 O 72.5727 0.849497 1.82608 0
M  V30 747 C 69.6377 1.75695 2.98885 0
M  V30 748 C 68.6987 2.9929 3.07773 0
M  V30 749 C 67.9317 3.05488 4.37622 0
M  V30 750 O 68.1547 2.19192 5.26603 0
M  V30 751 O 67.0887 3.9798 4.51548 0
M  V30 752 H 70.9147 2.647 1.48887 0
M  V30 753 H 68.4997 1.3331 0.674441 0
M  V30 754 H 70.3817 1.82317 3.79919 0
M  V30 755 H 69.0567 0.8335 3.12785 0
M  V30 756 H 67.9637 2.98183 2.25915 0
M  V30 757 H 69.2967 3.91125 2.98801 0
M  V30 758 N 70.9488 -0.749086 1.3866 0
M  V30 759 C 71.8788 -1.8764 1.38973 0
M  V30 760 C 72.8598 -1.68178 0.255004 0
M  V30 761 O 74.0448 -1.88704 0.458754 0
M  V30 762 C 71.1748 -3.25222 1.21851 0
M  V30 763 C 70.1288 -3.59295 2.32575 0
M  V30 764 C 69.4548 -4.95663 2.00555 0
M  V30 765 C 70.7548 -3.63709 3.7485 0
M  V30 766 H 72.4488 -1.87635 2.3331 0
M  V30 767 H 69.9948 -0.901329 1.12303 0
M  V30 768 H 71.9478 -4.03746 1.20695 0
M  V30 769 H 70.6718 -3.25719 0.239775 0
M  V30 770 H 69.3308 -2.83093 2.32925 0
M  V30 771 H 68.9788 -4.92724 1.01154 0
M  V30 772 H 68.6788 -5.19429 2.74714 0
M  V30 773 H 70.2028 -5.7656 2.01024 0
M  V30 774 H 71.6168 -4.32338 3.76506 0
M  V30 775 H 70.0138 -3.98986 4.48252 0
M  V30 776 H 71.0838 -2.63834 4.06841 0
M  V30 777 N 72.4269 -1.23603 -0.977757 0
M  V30 778 C 73.6519 -1.09735 -1.75991 0
M  V30 779 C 74.0769 0.346858 -1.84874 0
M  V30 780 O 73.4349 1.25093 -1.3123 0
M  V30 781 C 73.4829 -1.73051 -3.16363 0
M  V30 782 O 72.5869 -0.994452 -4.0023 0
M  V30 783 H 71.9279 -0.384476 -0.541364 0
M  V30 784 H 74.4579 -1.6371 -1.2272 0
M  V30 785 H 74.4679 -1.78398 -3.66931 0
M  V30 786 H 73.1429 -2.78137 -3.09213 0
M  V30 787 H 71.7199 -1.01812 -3.58732 0
M  V30 788 N 73.905 1.17692 -1.04816 0
M  V30 789 C 75.321 1.39863 -0.768794 0
M  V30 790 C 75.521 1.91118 0.638451 0
M  V30 791 O 74.577 2.10036 1.40146 0
M  V30 792 C 75.89 2.39274 -1.82122 0
M  V30 793 C 77.438 2.52987 -1.843 0
M  V30 794 C 77.913 3.55669 -2.88555 0
M  V30 795 N 79.404 3.63183 -2.87493 0
M  V30 796 C 80.139 4.42381 -3.64811 0
M  V30 797 N 79.635 5.25125 -4.51903 0
M  V30 798 N 81.428 4.37217 -3.53267 0
M  V30 799 H 73.579 0.82752 -1.95617 0
M  V30 800 H 75.842 0.426123 -0.846831 0
M  V30 801 H 75.548 2.08678 -2.83102 0
M  V30 802 H 75.422 3.38725 -1.65967 0
M  V30 803 H 77.809 2.82896 -0.839869 0
M  V30 804 H 77.89 1.53623 -2.04532 0
M  V30 805 H 77.534 3.26499 -3.89051 0
M  V30 806 H 77.464 4.54728 -2.65575 0
M  V30 807 H 79.955 3.04103 -2.24343 0
M  V30 808 H 80.268 5.82728 -5.07591 0
M  V30 809 H 78.613 5.24519 -4.55966 0
M  V30 810 H 81.804 3.71626 -2.84625 0
M  V30 811 H 81.977 4.98696 -4.13771 0
M  V30 812 N 75.3831 0.828654 1.34056 0
M  V30 813 C 76.2931 0.256725 2.33191 0
M  V30 814 C 77.3091 -0.611898 1.62886 0
M  V30 815 O 78.4851 -0.51844 1.94613 0
M  V30 816 C 75.5501 -0.567238 3.42028 0
M  V30 817 C 74.6111 0.324458 4.28072 0
M  V30 818 C 73.8441 -0.460274 5.31712 0
M  V30 819 O 74.0671 -1.693 5.44696 0
M  V30 820 O 73.0011 0.160391 6.01686 0
M  V30 821 H 76.8271 1.07739 2.83947 0
M  V30 822 H 74.4121 0.59093 1.37217 0
M  V30 823 H 76.2941 -1.03582 4.08471 0
M  V30 824 H 74.9691 -1.36513 2.93506 0
M  V30 825 H 73.8761 0.840659 3.64532 0
M  V30 826 H 75.2091 1.08685 4.8005 0
M  V30 827 N 76.8612 -1.46375 0.584142 0
M  V30 828 C 77.7932 -2.28443 -0.186119 0
M  V30 829 C 78.8062 -1.38596 -0.854115 0
M  V30 830 O 79.9952 -1.63183 -0.723438 0
M  V30 831 C 77.0952 -3.13671 -1.28311 0
M  V30 832 C 76.2682 -4.31652 -0.706758 0
M  V30 833 C 75.3272 -4.98267 -1.69163 0
M  V30 834 O 74.3532 -5.55815 -1.22712 0
M  V30 835 N 75.5552 -4.95408 -3.02575 0
M  V30 836 H 78.3202 -2.9519 0.517986 0
M  V30 837 H 75.8812 -1.56303 0.42201 0
M  V30 838 H 77.8732 -3.55101 -1.94128 0
M  V30 839 H 76.4432 -2.48989 -1.89005 0
M  V30 840 H 75.6632 -3.93989 0.128908 0
M  V30 841 H 76.9512 -5.07906 -0.301506 0
M  V30 842 H 76.3492 -4.49902 -3.42936 0
M  V30 843 H 74.9062 -5.40774 -3.63877 0
M  V30 844 N 78.3393 -0.321999 -1.54275 0
M  V30 845 C 79.5673 0.283052 -2.04955 0
M  V30 846 C 79.9823 1.45904 -1.19823 0
M  V30 847 O 79.3393 1.81063 -0.228545 0
M  V30 848 C 79.3903 0.719028 -3.54277 0
M  V30 849 O 79.1113 -0.410175 -4.36176 0
M  V30 850 C 80.6123 1.38705 -4.21041 0
M  V30 851 H 77.8323 0.0584616 -0.668448 0
M  V30 852 H 80.3763 -0.467734 -1.99079 0
M  V30 853 H 78.5313 1.41979 -3.60445 0
M  V30 854 H 78.9453 -0.0669416 -5.24457 0
M  V30 855 H 80.4193 1.64306 -5.2698 0
M  V30 856 H 80.8963 2.33385 -3.72059 0
M  V30 857 H 81.5023 0.728906 -4.19007 0
M  V30 858 N 79.8174 1.5752 -0.0501392 0
M  V30 859 C 81.0654 1.9227 0.622642 0
M  V30 860 C 81.3864 0.929083 1.71444 0
M  V30 861 O 80.6564 -0.0262186 1.95882 0
M  V30 862 H 79.2364 0.709739 0.232981 0
M  V30 863 H 81.8984 1.94628 -0.102898 0
M  V30 864 H 80.9944 2.93479 1.06191 0
M  V30 865 N 81.2955 -0.223234 1.56011 0
M  V30 866 C 82.5725 -0.972108 1.69733 0
M  V30 867 C 82.9525 -2.02485 0.59691 0
M  V30 868 O 82.3005 -2.25037 -0.396324 0
M  V30 869 C 82.5105 -1.58407 3.10979 0
M  V30 870 C 83.8585 -2.07696 3.70334 0
M  V30 871 O 84.8825 -1.68304 3.1393 0
M  V30 872 O 83.7415 -2.80096 4.69264 0
M  V30 873 H 80.8355 -0.453993 0.691245 0
M  V30 874 H 83.3815 -0.215149 1.68331 0
M  V30 875 H 82.1535 -0.823831 3.82529 0
M  V30 876 H 81.7765 -2.40661 3.16493 0
M  V30 877 N 82.7736 -1.49793 -0.48987 0
M  V30 878 C 83.7036 -1.70201 -1.59856 0
M  V30 879 C 84.6846 -0.55076 -1.60937 0
M  V30 880 O 85.8696 -0.787841 -1.77501 0
M  V30 881 C 82.9996 -1.77882 -2.98287 0
M  V30 882 C 81.9536 -2.92907 -3.12073 0
M  V30 883 C 81.2796 -2.85712 -4.51965 0
M  V30 884 C 82.5796 -4.3369 -2.91051 0
M  V30 885 H 84.2736 -2.63025 -1.43032 0
M  V30 886 H 81.8196 -1.26574 -0.686664 0
M  V30 887 H 83.7726 -1.90744 -3.75759 0
M  V30 888 H 82.4966 -0.816653 -3.16225 0
M  V30 889 H 81.1556 -2.79665 -2.37029 0
M  V30 890 H 80.8036 -1.8738 -4.66795 0
M  V30 891 H 80.5036 -3.62921 -4.62128 0
M  V30 892 H 82.0276 -3.00598 -5.31482 0
M  V30 893 H 83.4416 -4.47555 -3.58284 0
M  V30 894 H 81.8386 -5.12205 -3.12675 0
M  V30 895 H 82.9086 -4.47362 -1.87071 0
M  V30 896 N 84.2517 0.741722 -1.39055 0
M  V30 897 C 85.4997 1.49818 -1.35643 0
M  V30 898 C 85.8207 1.94938 0.0491642 0
M  V30 899 O 85.0907 1.68505 0.999141 0
M  V30 900 H 83.6707 0.555755 -0.499144 0
M  V30 901 H 86.3327 0.880957 -1.73854 0
M  V30 902 H 85.4287 2.38348 -2.01486 0
M  V30 903 N 85.7298 1.2412 0.971189 0
M  V30 904 C 86.9578 1.10575 1.74874 0
M  V30 905 C 87.3728 -0.342017 1.85676 0
M  V30 906 O 86.7298 -1.23617 1.34258 0
M  V30 907 C 86.7808 1.73579 3.171 0
M  V30 908 O 86.5018 3.12695 3.06844 0
M  V30 909 C 88.0028 1.65598 4.11208 0
M  V30 910 H 85.2228 0.386504 0.548503 0
M  V30 911 H 87.7668 1.64156 1.21955 0
M  V30 912 H 85.9218 1.24009 3.67016 0
M  V30 913 H 86.3358 3.43412 3.96445 0
M  V30 914 H 87.8098 2.1437 5.08674 0
M  V30 915 H 88.2868 0.616532 4.34851 0
M  V30 916 H 88.8928 2.14578 3.67201 0
M  V30 917 N 87.2079 -1.17134 1.05439 0
M  V30 918 C 88.1179 -2.24878 0.668365 0
M  V30 919 C 89.1339 -1.71186 -0.311687 0
M  V30 920 O 90.3099 -2.00738 -0.163161 0
M  V30 921 C 87.3749 -3.46662 0.051648 0
M  V30 922 C 86.4359 -4.15429 1.08246 0
M  V30 923 C 85.6689 -5.31399 0.495082 0
M  V30 924 O 85.8919 -5.66153 -0.694743 0
M  V30 925 O 84.8259 -5.89187 1.23056 0
M  V30 926 H 88.6519 -2.60189 1.56637 0
M  V30 927 H 86.2369 -1.24482 0.826104 0
M  V30 928 H 88.1189 -4.20394 -0.290966 0
M  V30 929 H 86.7939 -3.13142 -0.819971 0
M  V30 930 H 85.7009 -3.43704 1.47711 0
M  V30 931 H 87.0339 -4.52982 1.92532 0
M  V30 932 N 88.686 -0.835752 -1.33615 0
M  V30 933 C 89.618 -0.224151 -2.28101 0
M  V30 934 C 90.631 0.593331 -1.51603 0
M  V30 935 O 91.82 0.420911 -1.73466 0
M  V30 936 C 88.92 0.703309 -3.31522 0
M  V30 937 C 88.093 -0.0741528 -4.37337 0
M  V30 938 C 87.152 0.776176 -5.20444 0
M  V30 939 O 86.178 0.216506 -5.68788 0
M  V30 940 N 87.38 2.09401 -5.41416 0
M  V30 941 H 90.145 -1.03598 -2.81225 0
M  V30 942 H 87.706 -0.69392 -1.46275 0
M  V30 943 H 89.698 1.27707 -3.84022 0
M  V30 944 H 88.268 1.41585 -2.78698 0
M  V30 945 H 87.488 -0.82928 -3.85378 0
M  V30 946 H 88.776 -0.608863 -5.05144 0
M  V30 947 H 88.174 2.57229 -5.03835 0
M  V30 948 H 86.731 2.61633 -5.96985 0
M  V30 949 N 90.1641 1.46063 -0.591896 0
M  V30 950 C 91.5751 1.85944 -0.167822 0
M  V30 951 C 91.9261 1.49429 1.27143 0
M  V30 952 O 91.0511 0.913515 1.96173 0
M  V30 953 C 91.6461 3.37489 -0.297794 0
M  V30 954 C 90.2051 3.76332 0.0714732 0
M  V30 955 C 89.3521 2.7006 -0.629509 0
M  V30 956 H 92.3031 1.37087 -0.799555 0
M  V30 957 H 92.3241 3.77532 0.474349 0
M  V30 958 H 91.8361 3.64034 -1.3454 0
M  V30 959 H 89.9371 3.55405 1.11886 0
M  V30 960 H 90.0501 4.78088 -0.311245 0
M  V30 961 H 88.4141 2.54607 -0.0687867 0
M  V30 962 H 89.1971 2.99444 -1.67894 0
M  V30 963 N 91.6422 0.330177 1.54103 0
M  V30 964 C 92.8882 -0.270806 2.00984 0
M  V30 965 C 93.2212 -1.51265 1.21789 0
M  V30 966 O 92.4962 -1.92142 0.301927 0
M  V30 967 C 92.7792 -0.598339 3.55094 0
M  V30 968 C 92.6322 0.654674 4.4501 0
M  V30 969 C 93.9512 -1.41334 4.16789 0
M  V30 970 H 91.0702 -0.0969531 0.730595 0
M  V30 971 H 93.7122 0.448066 1.84641 0
M  V30 972 H 91.8622 -1.21078 3.69151 0
M  V30 973 H 93.5342 1.29285 4.42813 0
M  V30 974 H 91.7772 1.28224 4.14416 0
M  V30 975 H 92.4482 0.380944 5.50684 0
M  V30 976 H 94.9242 -0.895597 4.06347 0
M  V30 977 H 93.8002 -1.61127 5.24718 0
M  V30 978 H 94.0612 -2.41146 3.70541 0
M  V30 979 N 93.1203 -1.57491 0.0584922 0
M  V30 980 C 94.5313 -1.80526 -0.476138 0
M  V30 981 C 94.8823 -0.971334 -1.70469 0
M  V30 982 O 94.0073 -0.190012 -2.15564 0
M  V30 983 C 94.6023 -3.27424 -0.870587 0
M  V30 984 C 93.1613 -3.51351 -1.35015 0
M  V30 985 C 92.3083 -2.75343 -0.32887 0
M  V30 986 H 95.2593 -1.56133 0.284312 0
M  V30 987 H 95.2803 -3.38745 -1.73299 0
M  V30 988 H 94.7923 -3.88093 0.0237627 0
M  V30 989 H 92.8933 -2.95971 -2.26345 0
M  V30 990 H 93.0063 -4.60059 -1.33726 0
M  V30 991 H 91.3703 -2.417 -0.803321 0
M  V30 992 H 92.1533 -3.38743 0.557521 0
M  V30 993 N 94.5984 0.214957 -1.56127 0
M  V30 994 C 95.8464 0.936518 -1.79091 0
M  V30 995 C 96.1674 1.84606 -0.628148 0
M  V30 996 O 95.4374 1.92664 0.35462 0
M  V30 997 H 94.0174 0.3488 -0.660566 0
M  V30 998 H 96.6794 0.22523 -1.93594 0
M  V30 999 H 95.7754 1.53943 -2.71492 0
M  V30 1000 N 96.0765 1.50051 0.48192 0
M  V30 1001 C 97.3165 1.62128 1.24474 0
M  V30 1002 C 97.6805 0.309742 1.89485 0
M  V30 1003 O 98.8815 0.305854 2.67054 0
M  V30 1004 C 97.1525 2.76151 2.26882 0
M  V30 1005 S 98.7115 3.08297 3.12247 0
M  V30 1006 H 95.5295 0.571661 0.422759 0
M  V30 1007 H 98.1315 1.87791 0.54359 0
M  V30 1008 H 96.8355 3.69942 1.77683 0
M  V30 1009 H 96.3665 2.52541 3.0164 0
M  V30 1010 H 98.3815 2.51287 4.27866 0
M  V30 1011 N 97.5546 -0.734337 1.39446 0
M  V30 1012 C 98.4646 -1.87879 1.40495 0
M  V30 1013 C 99.4806 -1.714 0.299672 0
M  V30 1014 O 100.657 -1.93991 0.541249 0
M  V30 1015 C 97.7216 -3.23477 1.24754 0
M  V30 1016 C 96.7826 -3.52344 2.45259 0
M  V30 1017 C 96.0156 -4.81473 2.30259 0
M  V30 1018 O 96.2386 -5.55237 1.30643 0
M  V30 1019 O 95.1726 -5.10254 3.19256 0
M  V30 1020 H 98.9986 -1.89949 2.36966 0
M  V30 1021 H 96.5836 -0.882243 1.20569 0
M  V30 1022 H 98.4656 -4.04509 1.18111 0
M  V30 1023 H 97.1406 -3.22176 0.313781 0
M  V30 1024 H 96.0476 -2.71396 2.57478 0
M  V30 1025 H 97.3806 -3.58426 3.37331 0
M  V30 1026 N 99.0327 -1.24633 -0.964593 0
M  V30 1027 C 100.281 -1.08573 -1.70459 0
M  V30 1028 C 100.602 0.375655 -1.91347 0
M  V30 1029 O 99.8717 1.26779 -1.49345 0
M  V30 1030 H 98.4517 -0.398784 -0.631649 0
M  V30 1031 H 101.114 -1.56601 -1.16026 0
M  V30 1032 H 100.21 -1.58623 -2.68785 0
M  V30 1033 N 100.511 1.16574 -1.06058 0
M  V30 1034 C 101.444 2.19798 -0.61352 0
M  V30 1035 C 102.422 1.58509 0.362453 0
M  V30 1036 O 103.606 1.86527 0.271994 0
M  V30 1037 C 100.733 3.3855 0.100915 0
M  V30 1038 C 99.7788 4.18317 -0.831438 0
M  V30 1039 S 100.612 4.82375 -2.32539 0
M  V30 1040 C 101.768 6.04508 -1.62238 0
M  V30 1041 H 102.001 2.5738 -1.48805 0
M  V30 1042 H 99.5338 1.27327 -0.873338 0
M  V30 1043 H 101.492 4.07358 0.506898 0
M  V30 1044 H 100.153 2.99338 0.951604 0
M  V30 1045 H 99.3458 5.03232 -0.278071 0
M  V30 1046 H 98.9478 3.5499 -1.17719 0
M  V30 1047 H 101.24 6.71133 -0.926622 0
M  V30 1048 H 102.183 6.64389 -2.44934 0
M  V30 1049 H 102.591 5.53559 -1.106 0
M  V30 1050 N 101.989 0.842826 1.3317 0
M  V30 1051 C 103.235 0.450342 1.98352 0
M  V30 1052 C 103.59 -0.980508 1.65541 0
M  V30 1053 O 102.883 -1.67678 0.927065 0
M  V30 1054 C 103.077 0.612607 3.52111 0
M  V30 1055 C 102.906 2.05768 3.99862 0
M  V30 1056 C 101.676 2.69374 4.27511 0
M  V30 1057 C 103.874 3.02688 4.15794 0
M  V30 1058 N 101.856 4.04915 4.61429 0
M  V30 1059 C 103.227 4.23186 4.53115 0
M  V30 1060 C 105.282 2.99041 3.98094 0
M  V30 1061 C 103.985 5.40518 4.74587 0
M  V30 1062 C 106.011 4.15607 4.20743 0
M  V30 1063 C 105.373 5.3486 4.58371 0
M  V30 1064 H 101.472 0.213296 0.752349 0
M  V30 1065 H 104.056 1.09173 1.61212 0
M  V30 1066 H 102.227 0.000998822 3.884 0
M  V30 1067 H 103.959 0.191179 4.04248 0
M  V30 1068 H 100.714 2.20485 4.19146 0
M  V30 1069 H 101.138 4.74798 4.82593 0
M  V30 1070 H 105.78 2.0797 3.68114 0
M  V30 1071 H 103.498 6.3213 5.03425 0
M  V30 1072 H 107.084 4.14207 4.08563 0
M  V30 1073 H 105.964 6.23558 4.75547 0
M  V30 1074 N 103.467 -1.45747 0.599634 0
M  V30 1075 C 104.744 -1.95585 0.0240846 0
M  V30 1076 C 105.124 -1.54217 -1.44154 0
M  V30 1077 O 104.472 -0.800903 -2.14004 0
M  V30 1078 C 104.682 -3.48344 0.21385 0
M  V30 1079 C 106.03 -4.24504 0.0904902 0
M  V30 1080 O 107.054 -3.55911 0.143558 0
M  V30 1081 O 105.913 -5.46491 -0.0310766 0
M  V30 1082 H 103.007 -0.82602 -0.0402478 0
M  V30 1083 H 105.553 -1.55951 0.669139 0
M  V30 1084 H 104.325 -3.71397 1.23206 0
M  V30 1085 H 103.948 -3.9485 -0.466842 0
M  V30 1086 N 104.945 -0.338344 -1.53925 0
M  V30 1087 C 105.893 0.536231 -2.26335 0
M  V30 1088 C 106.887 1.1063 -1.28286 0
M  V30 1089 O 108.093 1.05264 -1.46012 0
M  V30 1090 H 104.468 0.191602 -0.727181 0
M  V30 1091 H 106.439 -0.0965747 -2.98244 0
M  V30 1092 C 105.188 1.67803 -3.04528 0
M  V30 1093 H 104.511 1.24864 -3.79801 0
M  V30 1094 H 105.951 2.26526 -3.58416 0
M  V30 1095 C 104.41 2.60439 -2.13712 0
M  V30 1096 O 104.94 3.6255 -1.72975 0
M  V30 1097 N 103.146 2.29006 -1.78898 0
M  V30 1098 H 102.693 1.46011 -2.12223 0
M  V30 1099 H 102.651 2.91248 -1.18416 0
M  V30 1100 N 106.423 1.57458 -0.0668435 0
M  V30 1101 C 107.672 1.92477 0.602947 0
M  V30 1102 C 107.985 0.948419 1.71068 0
M  V30 1103 O 109.191 1.19124 2.43971 0
M  V30 1104 C 107.647 3.41903 1.12383 0
M  V30 1105 C 107.255 4.47975 0.04737 0
M  V30 1106 C 108.999 3.85931 1.76797 0
M  V30 1107 C 106.906 5.88529 0.582022 0
M  V30 1108 H 105.836 0.718387 0.22899 0
M  V30 1109 H 108.487 1.82978 -0.138276 0
M  V30 1110 H 106.869 3.46459 1.91787 0
M  V30 1111 H 108.043 4.55029 -0.726978 0
M  V30 1112 H 106.358 4.13384 -0.500243 0
M  V30 1113 H 108.955 4.88322 2.17821 0
M  V30 1114 H 109.298 3.23029 2.62599 0
M  V30 1115 H 109.831 3.83958 1.04024 0
M  V30 1116 H 106.57 6.55065 -0.238721 0
M  V30 1117 H 106.09 5.85004 1.324 0
M  V30 1118 H 107.769 6.38258 1.05999 0
M  V30 1119 N 107.901 -0.206675 1.56239 0
M  V30 1120 C 109.126 -0.949474 1.8439 0
M  V30 1121 C 109.551 -1.76549 0.649016 0
M  V30 1122 O 108.909 -1.76782 -0.402231 0
M  V30 1123 C 108.957 -1.83078 3.10668 0
M  V30 1124 O 108.061 -2.9281 2.90407 0
M  V30 1125 H 107.402 -0.268033 0.607499 0
M  V30 1126 H 109.932 -0.215488 2.03462 0
M  V30 1127 H 109.942 -2.2377 3.41161 0
M  V30 1128 H 108.617 -1.23112 3.97261 0
M  V30 1129 H 107.194 -2.55956 2.71184 0
M  V30 1130 N 109.379 -1.50304 -0.473955 0
M  V30 1131 C 110.619 -1.62786 -1.23612 0
M  V30 1132 C 110.983 -0.319786 -1.89318 0
M  V30 1133 O 112.184 -0.320012 -2.66888 0
M  V30 1134 C 110.455 -2.77351 -2.25414 0
M  V30 1135 S 112.014 -3.09948 -3.10608 0
M  V30 1136 H 108.832 -0.573895 -0.419721 0
M  V30 1137 H 111.434 -1.88076 -0.533623 0
M  V30 1138 H 110.138 -3.70879 -1.75719 0
M  V30 1139 H 109.669 -2.54137 -3.00296 0
M  V30 1140 H 111.684 -2.53553 -4.26527 0
M  V30 1141 N 110.857 0.726932 -1.39834 0
M  V30 1142 C 112.103 1.48771 -1.38704 0
M  V30 1143 C 112.458 1.92394 0.0146387 0
M  V30 1144 O 111.751 1.64474 0.982797 0
M  V30 1145 C 111.945 2.73495 -2.30077 0
M  V30 1146 C 111.774 2.42068 -3.78989 0
M  V30 1147 C 110.544 2.33966 -4.4787 0
M  V30 1148 C 112.742 2.0708 -4.70768 0
M  V30 1149 N 110.724 1.95095 -5.82075 0
M  V30 1150 C 112.095 1.78719 -5.93683 0
M  V30 1151 C 114.15 1.93618 -4.58712 0
M  V30 1152 C 112.853 1.3825 -7.05889 0
M  V30 1153 C 114.879 1.54553 -5.70848 0
M  V30 1154 C 114.241 1.27082 -6.92842 0
M  V30 1155 H 110.34 0.542919 -0.562817 0
M  V30 1156 H 112.924 0.84408 -1.75452 0
M  V30 1157 H 111.095 3.35625 -1.95474 0
M  V30 1158 H 112.827 3.39755 -2.19883 0
M  V30 1159 H 109.582 2.51331 -4.0141 0
M  V30 1160 H 110.006 1.7823 -6.53118 0
M  V30 1161 H 114.648 2.13522 -3.64922 0
M  V30 1162 H 112.366 1.17088 -7.99572 0
M  V30 1163 H 115.952 1.44731 -5.6351 0
M  V30 1164 H 114.832 0.973069 -7.78139 0
M  V30 1165 N 112.336 1.25143 0.95797 0
M  V30 1166 C 113.747 1.08851 1.51685 0
M  V30 1167 C 114.098 -0.33687 1.93286 0
M  V30 1168 O 113.223 -1.22644 1.7829 0
M  V30 1169 C 113.818 1.96978 2.75654 0
M  V30 1170 C 112.377 1.84881 3.27866 0
M  V30 1171 C 111.524 1.91329 2.0072 0
M  V30 1172 H 114.475 1.38478 0.77522 0
M  V30 1173 H 114.496 1.5078 3.4935 0
M  V30 1174 H 114.008 3.00712 2.45345 0
M  V30 1175 H 112.109 0.840182 3.63004 0
M  V30 1176 H 112.222 2.6951 3.96107 0
M  V30 1177 H 110.586 1.35174 2.15871 0
M  V30 1178 H 111.369 2.96661 1.72764 0
M  V30 1179 N 113.814 -1.1601 1.06675 0
M  V30 1180 C 115.039 -1.91068 0.806706 0
M  V30 1181 C 115.464 -1.77112 -0.633485 0
M  V30 1182 O 114.822 -1.09908 -1.44187 0
M  V30 1183 C 114.87 -3.39655 1.21106 0
M  V30 1184 O 113.974 -4.10893 0.352189 0
M  V30 1185 H 113.315 -0.595125 0.294486 0
M  V30 1186 H 115.845 -1.46955 1.42356 0
M  V30 1187 H 115.855 -3.90434 1.18428 0
M  V30 1188 H 114.53 -3.49132 2.26008 0
M  V30 1189 H 113.107 -3.70285 0.440868 0
M  V30 1190 N 115.292 -0.849877 -1.32721 0
M  V30 1191 C 116.517 -0.463856 -2.02146 0
M  V30 1192 C 116.942 0.930449 -1.63476 0
M  V30 1193 O 116.3 1.61033 -0.832952 0
M  V30 1194 C 116.348 -0.604955 -3.55489 0
M  V30 1195 O 115.452 0.36425 -4.10788 0
M  V30 1196 H 114.793 -0.187046 -0.637111 0
M  V30 1197 H 117.323 -1.14775 -1.69375 0
M  V30 1198 H 117.333 -0.490696 -4.05038 0
M  V30 1199 H 116.008 -1.62174 -3.82978 0
M  V30 1200 H 114.585 0.206628 -3.72327 0
M  V30 1201 N 116.77 1.45427 -0.607355 0
M  V30 1202 C 118.016 2.0254 -0.102607 0
M  V30 1203 C 118.349 1.47478 1.26348 0
M  V30 1204 O 117.624 0.64939 1.83339 0
M  V30 1205 C 117.907 3.60044 -0.0634347 0
M  V30 1206 C 117.76 4.2544 -1.46017 0
M  V30 1207 C 119.079 4.35646 0.624514 0
M  V30 1208 H 116.198 0.73598 -0.0387607 0
M  V30 1209 H 118.84 1.73284 -0.779282 0
M  V30 1210 H 116.99 3.85101 0.512808 0
M  V30 1211 H 118.662 4.11569 -2.08347 0
M  V30 1212 H 116.905 3.83849 -2.02094 0
M  V30 1213 H 117.576 5.34342 -1.385 0
M  V30 1214 H 120.052 4.15882 0.134723 0
M  V30 1215 H 118.928 5.45376 0.621028 0
M  V30 1216 H 119.189 4.08501 1.69055 0
M  V30 1217 N 118.248 0.346503 1.53744 0
M  V30 1218 C 119.659 -0.136779 1.86198 0
M  V30 1219 C 120.01 -1.49749 1.26766 0
M  V30 1220 O 119.135 -2.08417 0.582355 0
M  V30 1221 C 119.73 -0.254966 3.37839 0
M  V30 1222 C 118.289 -0.682482 3.70161 0
M  V30 1223 C 117.436 0.181981 2.76702 0
M  V30 1224 H 120.387 0.565994 1.48264 0
M  V30 1225 H 120.408 -1.08195 3.64793 0
M  V30 1226 H 119.92 0.735526 3.81066 0
M  V30 1227 H 118.021 -1.68189 3.3248 0
M  V30 1228 H 118.134 -0.470326 4.76786 0
M  V30 1229 H 116.498 -0.34615 2.52337 0
M  V30 1230 H 117.281 1.16966 3.2276 0
M  V30 1231 N 119.726 -1.57421 0.075193 0
M  V30 1232 C 120.974 -1.93236 -0.591974 0
M  V30 1233 C 121.295 -0.956241 -1.69944 0
M  V30 1234 O 120.565 -0.00494792 -1.95899 0
M  V30 1235 H 119.145 -0.713355 -0.22166 0
M  V30 1236 H 121.807 -1.9444 0.133848 0
M  V30 1237 H 120.903 -2.95131 -1.01509 0
M  V30 1238 N 121.204 0.198386 -1.56346 0
M  V30 1239 C 122.62 0.549085 -1.49857 0
M  V30 1240 C 122.82 1.86016 -0.774611 0
M  V30 1241 O 121.876 2.50416 -0.323776 0
M  V30 1242 C 123.189 0.606868 -2.94512 0
M  V30 1243 C 124.737 0.695925 -3.05165 0
M  V30 1244 C 125.212 0.784848 -4.51225 0
M  V30 1245 N 126.703 0.848463 -4.55363 0
M  V30 1246 C 127.438 0.937378 -5.65686 0
M  V30 1247 N 126.934 0.9888 -6.85707 0
M  V30 1248 N 128.727 0.974312 -5.53592 0
M  V30 1249 H 120.878 -0.661655 -2.01831 0
M  V30 1250 H 123.141 -0.235261 -0.918344 0
M  V30 1251 H 122.847 -0.28732 -3.50524 0
M  V30 1252 H 122.721 1.46268 -3.47686 0
M  V30 1253 H 125.108 1.58055 -2.49204 0
M  V30 1254 H 125.189 -0.186022 -2.55123 0
M  V30 1255 H 124.833 -0.0954072 -5.0781 0
M  V30 1256 H 124.763 1.68255 -4.98997 0
M  V30 1257 H 127.254 0.818103 -3.68938 0
M  V30 1258 H 127.567 1.05707 -7.65536 0
M  V30 1259 H 125.912 0.957534 -6.88372 0
M  V30 1260 H 129.103 0.930954 -4.58749 0
M  V30 1261 H 129.276 1.04015 -6.39597 0
M  V30 1262 N 122.682 1.50554 0.465978 0
M  V30 1263 C 123.615 1.64436 1.58227 0
M  V30 1264 C 124.593 0.492367 1.54966 0
M  V30 1265 O 125.777 0.712536 1.74514 0
M  V30 1266 C 122.904 1.63165 2.96808 0
M  V30 1267 C 121.95 2.83987 3.18204 0
M  V30 1268 S 122.783 4.45219 2.97557 0
M  V30 1269 C 123.939 4.46649 4.3847 0
M  V30 1270 H 124.172 2.58861 1.46213 0
M  V30 1271 H 121.705 1.3988 0.653678 0
M  V30 1272 H 123.663 1.63116 3.76701 0
M  V30 1273 H 122.324 0.69967 3.06208 0
M  V30 1274 H 121.517 2.79416 4.19455 0
M  V30 1275 H 121.119 2.81629 2.46092 0
M  V30 1276 H 123.411 4.20526 5.31191 0
M  V30 1277 H 124.354 5.48295 4.48082 0
M  V30 1278 H 124.762 3.76296 4.20787 0
M  V30 1279 N 124.16 -0.719506 1.40217 0
M  V30 1280 C 125.406 -1.48152 1.38488 0
M  V30 1281 C 125.739 -1.94195 -0.0141867 0
M  V30 1282 O 125.014 -1.67884 -0.982096 0
M  V30 1283 C 125.297 -2.71035 2.37091 0
M  V30 1284 C 125.15 -2.30912 3.86005 0
M  V30 1285 C 126.469 -3.73182 2.33288 0
M  V30 1286 H 123.588 -0.537395 0.504357 0
M  V30 1287 H 126.23 -0.821472 1.71324 0
M  V30 1288 H 124.38 -3.27352 2.0922 0
M  V30 1289 H 126.052 -1.80107 4.24687 0
M  V30 1290 H 124.295 -1.62958 4.02029 0
M  V30 1291 H 124.966 -3.18978 4.50508 0
M  V30 1292 H 127.442 -3.26485 2.57966 0
M  V30 1293 H 126.318 -4.56806 3.04334 0
M  V30 1294 H 126.579 -4.21202 1.34317 0
M  V30 1295 N 125.638 -1.25649 -0.95132 0
M  V30 1296 C 126.548 -1.08073 -2.08224 0
M  V30 1297 C 127.564 -0.0169666 -1.73992 0
M  V30 1298 O 128.74 -0.218593 -2.0021 0
M  V30 1299 C 125.805 -0.704922 -3.39458 0
M  V30 1300 C 124.866 -1.84699 -3.87537 0
M  V30 1301 C 124.099 -1.48902 -5.12508 0
M  V30 1302 O 124.322 -0.386156 -5.69091 0
M  V30 1303 O 123.256 -2.32033 -5.55378 0
M  V30 1304 H 127.082 -2.02924 -2.25954 0
M  V30 1305 H 124.667 -1.04618 -1.06656 0
M  V30 1306 H 126.549 -0.507609 -4.18332 0
M  V30 1307 H 125.224 0.214291 -3.2299 0
M  V30 1308 H 124.131 -2.09919 -3.09653 0
M  V30 1309 H 125.464 -2.74557 -4.08509 0
M  V30 1310 N 127.117 1.15442 -1.07289 0
M  V30 1311 C 128.363 1.86489 -0.796846 0
M  V30 1312 C 128.696 1.82078 0.675371 0
M  V30 1313 O 127.971 1.24346 1.4956 0
M  V30 1314 C 128.254 3.35626 -1.30489 0
M  V30 1315 C 128.107 3.48673 -2.84161 0
M  V30 1316 C 129.426 4.30357 -0.920907 0
M  V30 1317 H 126.545 0.677144 -0.290939 0
M  V30 1318 H 129.187 1.35633 -1.33056 0
M  V30 1319 H 127.337 3.79068 -0.850883 0
M  V30 1320 H 129.009 3.14099 -3.37846 0
M  V30 1321 H 127.252 2.90253 -3.22391 0
M  V30 1322 H 127.923 4.53453 -3.14777 0
M  V30 1323 H 130.399 3.94871 -1.3121 0
M  V30 1324 H 129.275 5.33193 -1.30372 0
M  V30 1325 H 129.536 4.4176 0.173226 0
M  V30 1326 N 128.595 0.856903 1.32268 0
M  V30 1327 C 129.505 0.306131 2.32594 0
M  V30 1328 C 130.521 -0.577209 1.64147 0
M  V30 1329 O 131.697 -0.477043 1.95669 0
M  V30 1330 C 128.762 -0.494561 3.43154 0
M  V30 1331 C 127.823 0.415186 4.27288 0
M  V30 1332 C 127.056 -0.347387 5.32568 0
M  V30 1333 O 127.279 -1.57708 5.48165 0
M  V30 1334 O 126.213 0.287982 6.01211 0
M  V30 1335 H 130.039 1.13737 2.81598 0
M  V30 1336 H 127.624 0.619902 1.35932 0
M  V30 1337 H 129.506 -0.948944 4.10576 0
M  V30 1338 H 128.181 -1.30257 2.96336 0
M  V30 1339 H 127.088 0.917793 3.62667 0
M  V30 1340 H 128.421 1.18844 4.77637 0
M  V30 1341 N 130.073 -1.45103 0.615059 0
M  V30 1342 C 131.313 -2.04069 0.116282 0
M  V30 1343 C 131.677 -1.4721 -1.2326 0
M  V30 1344 O 132.878 -1.97577 -1.82255 0
M  V30 1345 C 131.149 -3.57298 0.085482 0
M  V30 1346 S 132.708 -4.37394 -0.351015 0
M  V30 1347 H 129.526 -0.709006 0.0532183 0
M  V30 1348 H 132.128 -1.77709 0.81484 0
M  V30 1349 H 130.832 -3.9619 1.0706 0
M  V30 1350 H 130.363 -3.88244 -0.634835 0
M  V30 1351 H 132.378 -4.69734 -1.59889 0
M  V30 1352 N 131.551 -0.354651 -1.53558 0
M  V30 1353 C 132.962 0.126902 -1.86268 0
M  V30 1354 C 133.313 1.49075 -1.27558 0
M  V30 1355 O 132.438 2.08105 -0.5934 0
M  V30 1356 C 133.033 0.237046 -3.3797 0
M  V30 1357 C 131.592 0.662842 -3.70518 0
M  V30 1358 C 130.739 -0.196652 -2.76602 0
M  V30 1359 H 133.69 -0.573849 -1.47962 0
M  V30 1360 H 133.711 1.06259 -3.65362 0
M  V30 1361 H 133.223 -0.755725 -3.80671 0
M  V30 1362 H 131.324 1.66424 -3.33367 0
M  V30 1363 H 131.437 0.445034 -4.77029 0
M  V30 1364 H 129.801 0.332763 -2.52517 0
M  V30 1365 H 130.584 -1.18676 -3.22135 0
M  V30 1366 N 133.029 1.57378 -0.0835403 0
M  V30 1367 C 134.445 1.57246 0.273109 0
M  V30 1368 C 134.645 1.09385 1.69225 0
M  V30 1369 O 133.701 0.765051 2.40631 0
M  V30 1370 C 135.014 3.00614 0.0720628 0
M  V30 1371 C 136.562 3.12684 0.1407 0
M  V30 1372 C 137.037 4.57989 -0.0322094 0
M  V30 1373 N 138.528 4.63194 0.0230085 0
M  V30 1374 C 139.263 5.73335 -0.0861941 0
M  V30 1375 N 138.759 6.9235 -0.24958 0
M  V30 1376 N 140.552 5.62093 -0.0282886 0
M  V30 1377 H 132.703 1.86801 -1.0109 0
M  V30 1378 H 134.966 0.861687 -0.395222 0
M  V30 1379 H 134.672 3.39786 -0.907662 0
M  V30 1380 H 134.546 3.68193 0.81936 0
M  V30 1381 H 136.933 2.73391 1.11092 0
M  V30 1382 H 137.014 2.47719 -0.637896 0
M  V30 1383 H 136.658 4.97973 -0.999247 0
M  V30 1384 H 136.588 5.21 0.765937 0
M  V30 1385 H 139.079 3.77613 0.14722 0
M  V30 1386 H 139.392 7.72117 -0.324733 0
M  V30 1387 H 137.737 6.94415 -0.285097 0
M  V30 1388 H 140.928 4.67997 0.0981408 0
M  V30 1389 H 141.101 6.47895 -0.116845 0
M  V30 1390 N 134.507 -0.190092 1.56449 0
M  V30 1391 C 135.754 -0.909705 1.80916 0
M  V30 1392 C 136.082 -1.83047 0.657583 0
M  V30 1393 O 135.337 -1.92428 -0.356356 0
M  V30 1394 C 135.636 -1.75382 3.1141 0
M  V30 1395 C 135.302 -0.983606 4.40041 0
M  V30 1396 C 133.964 -0.770967 4.74984 0
M  V30 1397 C 136.316 -0.442024 5.19322 0
M  V30 1398 C 133.644 -0.0053448 5.867 0
M  V30 1399 C 135.996 0.310412 6.31838 0
M  V30 1400 C 134.66 0.534023 6.6536 0
M  V30 1401 H 133.93 -0.332885 0.662019 0
M  V30 1402 H 136.577 -0.175762 1.90692 0
M  V30 1403 H 134.882 -2.55659 2.96893 0
M  V30 1404 H 136.579 -2.31331 3.27547 0
M  V30 1405 H 133.169 -1.15936 4.12622 0
M  V30 1406 H 137.353 -0.593693 4.92736 0
M  V30 1407 H 132.609 0.177825 6.11141 0
M  V30 1408 H 136.783 0.737419 6.92485 0
M  V30 1409 H 134.41 1.12918 7.51767 0
M  V30 1410 N 135.985 -1.50799 -0.457987 0
M  V30 1411 C 136.915 -1.73553 -1.5621 0
M  V30 1412 C 137.896 -0.584774 -1.59732 0
M  V30 1413 O 139.081 -0.825314 -1.7579 0
M  V30 1414 C 136.211 -1.84169 -2.94447 0
M  V30 1415 C 135.165 -2.99461 -3.0579 0
M  V30 1416 C 134.491 -2.95235 -4.45803 0
M  V30 1417 C 135.791 -4.39766 -2.81786 0
M  V30 1418 H 137.485 -2.66 -1.37421 0
M  V30 1419 H 135.031 -1.28002 -0.659662 0
M  V30 1420 H 136.984 -1.98672 -3.71628 0
M  V30 1421 H 135.708 -0.883545 -3.14422 0
M  V30 1422 H 134.367 -2.8463 -2.31044 0
M  V30 1423 H 134.015 -1.97239 -4.62715 0
M  V30 1424 H 133.715 -3.72642 -4.54326 0
M  V30 1425 H 135.239 -3.11803 -5.24987 0
M  V30 1426 H 136.653 -4.55054 -3.4871 0
M  V30 1427 H 135.05 -5.18722 -3.0174 0
M  V30 1428 H 136.12 -4.51229 -1.7754 0
M  V30 1429 N 137.463 0.71206 -1.40597 0
M  V30 1430 C 138.879 1.02058 -1.22704 0
M  V30 1431 C 139.079 2.01228 -0.104729 0
M  V30 1432 O 138.135 2.4674 0.53624 0
M  V30 1433 C 139.448 1.56094 -2.57012 0
M  V30 1434 C 140.996 1.6806 -2.64054 0
M  V30 1435 C 141.471 2.25501 -3.9864 0
M  V30 1436 N 142.962 2.32882 -4.004 0
M  V30 1437 C 143.697 2.78317 -5.01325 0
M  V30 1438 N 143.193 3.23478 -6.12645 0
M  V30 1439 N 144.986 2.77733 -4.88693 0
M  V30 1440 H 137.137 0.0547896 -2.12329 0
M  V30 1441 H 139.4 0.0869027 -0.944008 0
M  V30 1442 H 139.106 0.906865 -3.39807 0
M  V30 1443 H 138.98 2.54564 -2.78347 0
M  V30 1444 H 141.367 2.32583 -1.81629 0
M  V30 1445 H 141.448 0.681802 -2.46546 0
M  V30 1446 H 141.092 1.61598 -4.81506 0
M  V30 1447 H 141.022 3.26102 -4.13479 0
M  V30 1448 H 143.513 2.00991 -3.20017 0
M  V30 1449 H 143.826 3.56725 -6.85542 0
M  V30 1450 H 142.171 3.21429 -6.16205 0
M  V30 1451 H 145.362 2.4179 -4.00818 0
M  V30 1452 H 145.535 3.12826 -5.67489 0
M  V30 1453 N 138.941 1.26152 0.944643 0
M  V30 1454 C 139.874 1.01729 2.04271 0
M  V30 1455 C 140.852 -0.0568101 1.62501 0
M  V30 1456 O 142.036 0.0848987 1.88309 0
M  V30 1457 C 139.163 0.539792 3.34371 0
M  V30 1458 C 138.209 1.60593 3.9511 0
M  V30 1459 S 139.042 3.19392 4.29825 0
M  V30 1460 C 140.198 2.73402 5.63029 0
M  V30 1461 H 140.431 1.94703 2.24673 0
M  V30 1462 H 137.964 1.09793 1.08558 0
M  V30 1463 H 139.922 0.270956 4.09605 0
M  V30 1464 H 138.583 -0.369609 3.11918 0
M  V30 1465 H 137.776 1.22275 4.88943 0
M  V30 1466 H 137.378 1.82596 3.26397 0
M  V30 1467 H 139.67 2.1765 6.41588 0
M  V30 1468 H 140.613 3.65913 6.06229 0
M  V30 1469 H 141.021 2.13077 5.22741 0
M  V30 1470 N 140.419 -1.14872 1.07899 0
M  V30 1471 C 141.349 -2.2193 0.725887 0
M  V30 1472 C 142.33 -1.67622 -0.28927 0
M  V30 1473 O 143.515 -1.93533 -0.160787 0
M  V30 1474 C 140.645 -3.47061 0.128856 0
M  V30 1475 C 139.599 -4.14363 1.07178 0
M  V30 1476 C 138.925 -5.33636 0.337229 0
M  V30 1477 C 140.225 -4.63492 2.40775 0
M  V30 1478 H 141.919 -2.51724 1.62097 0
M  V30 1479 H 139.465 -1.20991 0.780838 0
M  V30 1480 H 141.418 -4.21199 -0.130147 0
M  V30 1481 H 140.142 -3.16617 -0.80134 0
M  V30 1482 H 138.801 -3.42173 1.3158 0
M  V30 1483 H 138.449 -4.99449 -0.596606 0
M  V30 1484 H 138.149 -5.79609 0.965788 0
M  V30 1485 H 139.673 -6.10539 0.0861567 0
M  V30 1486 H 141.087 -5.2913 2.20669 0
M  V30 1487 H 139.484 -5.20148 2.99276 0
M  V30 1488 H 140.554 -3.78834 3.02676 0
M  V30 1489 N 141.898 -0.863906 -1.31812 0
M  V30 1490 C 143.126 -0.486111 -2.01108 0
M  V30 1491 C 143.541 0.919755 -1.64882 0
M  V30 1492 O 142.898 1.60162 -0.874893 0
M  V30 1493 C 142.949 -0.626435 -3.56031 0
M  V30 1494 O 142.67 -1.97693 -3.90959 0
M  V30 1495 C 144.171 -0.248857 -4.42601 0
M  V30 1496 H 141.391 -0.190052 -0.643523 0
M  V30 1497 H 143.935 -1.1634 -1.68182 0
M  V30 1498 H 142.09 0.00322717 -3.874 0
M  V30 1499 H 142.504 -1.98034 -4.85678 0
M  V30 1500 H 143.978 -0.398016 -5.50563 0
M  V30 1501 H 144.455 0.811489 -4.31638 0
M  V30 1502 H 145.061 -0.853971 -4.16638 0
M  V30 1503 N 143.376 1.44774 -0.622745 0
M  V30 1504 C 144.601 2.06999 -0.128968 0
M  V30 1505 C 145.026 1.4617 1.1839 0
M  V30 1506 O 144.384 0.560007 1.72434 0
M  V30 1507 C 144.432 3.60595 -0.0188351 0
M  V30 1508 O 143.536 3.99398 1.02739 0
M  V30 1509 H 142.877 0.659047 -0.0809544 0
M  V30 1510 H 145.407 1.85784 -0.85705 0
M  V30 1511 H 145.417 4.07627 0.174476 0
M  V30 1512 H 144.092 4.04252 -0.977384 0
M  V30 1513 H 142.669 3.64011 0.809326 0
M  V30 1514 N 144.854 0.36279 1.53368 0
M  V30 1515 C 146.27 0.0116182 1.59596 0
M  V30 1516 C 146.47 -1.47012 1.37803 0
M  V30 1517 O 145.526 -2.23136 1.18181 0
M  V30 1518 C 146.839 0.465052 2.97082 0
M  V30 1519 C 148.387 0.419033 3.10182 0
M  V30 1520 C 148.862 0.848235 4.50077 0
M  V30 1521 N 150.353 0.803183 4.56183 0
M  V30 1522 C 151.088 1.107 5.62613 0
M  V30 1523 N 150.584 1.47996 6.76808 0
M  V30 1524 N 152.377 1.02998 5.52583 0
M  V30 1525 H 144.528 1.32775 1.65785 0
M  V30 1526 H 146.791 0.542518 0.777417 0
M  V30 1527 H 146.497 1.49892 3.18159 0
M  V30 1528 H 146.371 -0.149786 3.76902 0
M  V30 1529 H 148.758 -0.605696 2.88817 0
M  V30 1530 H 148.839 1.06933 2.32377 0
M  V30 1531 H 148.483 1.87107 4.7218 0
M  V30 1532 H 148.413 0.175218 5.26308 0
M  V30 1533 H 150.904 0.52838 3.74188 0
M  V30 1534 H 151.217 1.69613 7.53957 0
M  V30 1535 H 149.562 1.51859 6.78206 0
M  V30 1536 H 152.753 0.737817 4.62249 0
M  V30 1537 H 152.926 1.2701 6.35431 0
M  V30 1538 N 146.332 -1.57332 0.0918853 0
M  V30 1539 C 147.28 -2.15075 -0.885747 0
M  V30 1540 C 148.274 -1.09277 -1.29441 0
M  V30 1541 O 149.48 -1.27627 -1.26931 0
M  V30 1542 H 145.855 -0.687966 -0.303656 0
M  V30 1543 H 147.826 -2.96047 -0.373995 0
M  V30 1544 C 146.575 -2.74325 -2.13638 0
M  V30 1545 H 145.898 -3.55418 -1.8308 0
M  V30 1546 H 147.338 -3.183 -2.80109 0
M  V30 1547 C 145.797 -1.70062 -2.90827 0
M  V30 1548 O 146.327 -1.13763 -3.85254 0
M  V30 1549 N 144.533 -1.40628 -2.54307 0
M  V30 1550 H 144.08 -1.866 -1.7759 0
M  V30 1551 H 144.038 -0.711043 -3.06254 0
M  V30 1552 N 147.81 0.181792 -1.56548 0
M  V30 1553 C 149.058 0.89832 -1.81038 0
M  V30 1554 C 149.379 1.83232 -0.667164 0
M  V30 1555 O 148.649 1.93372 0.313673 0
M  V30 1556 H 147.229 0.33471 -0.667816 0
M  V30 1557 H 149.891 0.184116 -1.94028 0
M  V30 1558 H 148.987 1.4815 -2.74696 0
M  V30 1559 N 149.288 1.51039 0.449983 0
M  V30 1560 C 150.513 1.6715 1.22783 0
M  V30 1561 C 150.938 0.363081 1.84563 0
M  V30 1562 O 150.296 -0.675433 1.68249 0
M  V30 1563 C 150.344 2.77985 2.29689 0
M  V30 1564 O 149.448 2.40707 3.34864 0
M  V30 1565 H 148.789 0.557746 0.360299 0
M  V30 1566 H 151.319 1.97535 0.533005 0
M  V30 1567 H 151.329 3.01693 2.74673 0
M  V30 1568 H 150.004 3.72935 1.84098 0
M  V30 1569 H 148.581 2.27523 2.95445 0
M  V30 1570 N 150.766 -0.704594 1.40972 0
M  V30 1571 C 151.696 -1.83124 1.44872 0
M  V30 1572 C 152.677 -1.67281 0.30838 0
M  V30 1573 O 153.862 -1.87149 0.518556 0
M  V30 1574 C 150.992 -3.21181 1.32136 0
M  V30 1575 C 149.946 -3.51714 2.43888 0
M  V30 1576 C 149.272 -4.89032 2.16222 0
M  V30 1577 C 150.572 -3.516 3.86232 0
M  V30 1578 H 152.266 -1.80117 2.39161 0
M  V30 1579 H 149.812 -0.865145 1.15114 0
M  V30 1580 H 151.765 -3.99702 1.33479 0
M  V30 1581 H 150.489 -3.24791 0.343279 0
M  V30 1582 H 149.148 -2.75539 2.41813 0
M  V30 1583 H 148.796 -4.89256 1.16778 0
M  V30 1584 H 148.496 -5.10426 2.911 0
M  V30 1585 H 150.02 -5.69873 2.19265 0
M  V30 1586 H 151.434 -4.2014 3.9007 0
M  V30 1587 H 149.831 -3.84523 4.60719 0
M  V30 1588 H 150.901 -2.50757 4.15029 0
M  V30 1589 N 152.244 -1.26651 -0.937939 0
M  V30 1590 C 153.491 -1.12387 -1.6845 0
M  V30 1591 C 153.819 0.332208 -1.91642 0
M  V30 1592 O 153.074 1.2602 -1.49725 0
M  V30 1593 C 153.373 -1.84168 -3.06295 0
M  V30 1594 C 153.039 -3.34056 -3.02849 0
M  V30 1595 C 151.701 -3.74942 -3.01616 0
M  V30 1596 C 154.053 -4.29741 -2.9491 0
M  V30 1597 C 151.381 -5.09894 -2.90215 0
M  V30 1598 C 153.733 -5.64738 -2.8505 0
M  V30 1599 C 152.397 -6.0493 -2.82162 0
M  V30 1600 H 151.667 -0.411252 -0.616403 0
M  V30 1601 H 154.314 -1.57134 -1.09459 0
M  V30 1602 H 152.619 -1.319 -3.6893 0
M  V30 1603 H 154.316 -1.70569 -3.62915 0
M  V30 1604 H 150.906 -3.01534 -3.0459 0
M  V30 1605 H 155.09 -3.99133 -2.94969 0
M  V30 1606 H 150.346 -5.40194 -2.86358 0
M  V30 1607 H 154.52 -6.38561 -2.77872 0
M  V30 1608 H 152.147 -7.09457 -2.73084 0
M  V30 1609 N 153.722 1.14298 -1.08507 0
M  V30 1610 C 155.138 1.37347 -0.812901 0
M  V30 1611 C 155.338 1.93052 0.577325 0
M  V30 1612 O 154.394 2.14389 1.33393 0
M  V30 1613 C 155.707 2.33359 -1.89642 0
M  V30 1614 C 157.255 2.46996 -1.92255 0
M  V30 1615 C 157.73 3.46309 -2.99724 0
M  V30 1616 N 159.221 3.53853 -2.98902 0
M  V30 1617 C 159.956 4.3055 -3.787 0
M  V30 1618 N 159.452 5.10482 -4.6838 0
M  V30 1619 N 161.245 4.25757 -3.66998 0
M  V30 1620 H 153.396 0.764867 -1.9815 0
M  V30 1621 H 155.659 0.398966 -0.859959 0
M  V30 1622 H 155.365 1.99565 -2.89597 0
M  V30 1623 H 155.239 3.33274 -1.76659 0
M  V30 1624 H 157.626 2.80081 -0.929445 0
M  V30 1625 H 157.707 1.47039 -2.09316 0
M  V30 1626 H 157.351 3.13957 -3.99241 0
M  V30 1627 H 157.281 4.46049 -2.79907 0
M  V30 1628 H 159.772 2.96812 -2.33904 0
M  V30 1629 H 160.085 5.66284 -5.25873 0
M  V30 1630 H 158.43 5.09747 -4.72422 0
M  V30 1631 H 161.621 3.62383 -2.96304 0
M  V30 1632 H 161.794 4.85279 -4.29427 0
M  V30 1633 N 155.201 0.870884 1.31352 0
M  V30 1634 C 156.149 0.316445 2.30437 0
M  V30 1635 C 157.143 -0.568965 1.59559 0
M  V30 1636 O 158.349 -0.454964 1.74155 0
M  V30 1637 H 154.724 0.0836521 0.747333 0
M  V30 1638 H 156.695 1.16606 2.74673 0
M  V30 1639 C 155.444 -0.46635 3.44558 0
M  V30 1640 H 154.767 0.205687 3.99271 0
M  V30 1641 H 156.207 -0.819614 4.16003 0
M  V30 1642 C 154.666 -1.65797 2.9328 0
M  V30 1643 O 155.196 -2.75728 2.92125 0
M  V30 1644 N 153.402 -1.49041 2.4947 0
M  V30 1645 H 152.949 -0.59612 2.50608 0
M  V30 1646 H 152.907 -2.28911 2.15516 0
M  V30 1647 N 156.679 -1.44442 0.630414 0
M  V30 1648 C 157.919 -2.03934 0.137919 0
M  V30 1649 C 158.283 -1.48509 -1.21692 0
M  V30 1650 O 159.484 -1.99499 -1.80149 0
M  V30 1651 C 157.755 -3.57187 0.123373 0
M  V30 1652 S 159.314 -4.37741 -0.304604 0
M  V30 1653 H 156.132 -0.708401 0.0607353 0
M  V30 1654 H 158.734 -1.76835 0.833643 0
M  V30 1655 H 157.438 -3.95032 1.11256 0
M  V30 1656 H 156.969 -3.88895 -0.59362 0
M  V30 1657 H 158.984 -4.71403 -1.54897 0
M  V30 1658 N 158.157 -0.370918 -1.53173 0
M  V30 1659 C 159.385 0.217704 -2.05751 0
M  V30 1660 C 159.8 1.42018 -1.24404 0
M  V30 1661 O 159.157 1.80245 -0.286033 0
M  V30 1662 C 159.208 0.605954 -3.56385 0
M  V30 1663 O 158.929 -0.548734 -4.3465 0
M  V30 1664 C 160.43 1.2524 -4.25241 0
M  V30 1665 H 157.65 0.0371659 -0.66997 0
M  V30 1666 H 160.194 -0.530832 -1.9749 0
M  V30 1667 H 158.349 1.3044 -3.6478 0
M  V30 1668 H 158.763 -0.23376 -5.23979 0
M  V30 1669 H 160.237 1.47458 -5.3194 0
M  V30 1670 H 160.714 2.2143 -3.79296 0
M  V30 1671 H 161.32 0.595233 -4.21114 0
M  V30 1672 N 159.635 1.57281 -0.100228 0
M  V30 1673 C 160.567 2.11342 0.886972 0
M  V30 1674 C 161.58 1.05182 1.24261 0
M  V30 1675 O 162.769 1.32613 1.19483 0
M  V30 1676 C 159.869 2.5825 2.19454 0
M  V30 1677 C 159.042 3.88302 2.01346 0
M  V30 1678 C 158.101 4.21004 3.15661 0
M  V30 1679 O 157.127 4.9014 2.89398 0
M  V30 1680 N 158.329 3.76818 4.41575 0
M  V30 1681 H 161.094 2.96668 0.425216 0
M  V30 1682 H 158.655 1.61678 0.0847334 0
M  V30 1683 H 160.647 2.7717 2.94888 0
M  V30 1684 H 159.217 1.77907 2.57037 0
M  V30 1685 H 158.437 3.7848 1.10212 0
M  V30 1686 H 159.725 4.73375 1.8653 0
M  V30 1687 H 159.123 3.2102 4.65792 0
M  V30 1688 H 157.68 4.00882 5.13942 0
M  V30 1689 N 161.113 -0.173488 1.56642 0
M  V30 1690 C 162.39 -0.917617 1.7274 0
M  V30 1691 C 162.77 -2.00484 0.661027 0
M  V30 1692 O 162.118 -2.26184 -0.32453 0
M  V30 1693 C 162.328 -1.48433 3.15862 0
M  V30 1694 C 163.676 -1.95809 3.76754 0
M  V30 1695 O 164.7 -1.58231 3.19126 0
M  V30 1696 O 163.559 -2.65024 4.77938 0
M  V30 1697 H 160.653 -0.431772 0.705338 0
M  V30 1698 H 163.199 -0.161487 1.6893 0
M  V30 1699 H 161.971 -0.701715 3.84957 0
M  V30 1700 H 161.594 -2.30471 3.23989 0
M  V30 1701 N 162.591 -1.51276 -0.441967 0
M  V30 1702 C 163.839 -1.63392 -1.18943 0
M  V30 1703 C 164.16 -0.350159 -1.9183 0
M  V30 1704 O 163.43 0.633784 -1.85364 0
M  V30 1705 H 162.01 -0.602164 -0.442049 0
M  V30 1706 H 164.672 -1.88186 -0.507165 0
M  V30 1707 H 163.768 -2.45934 -1.92154 0
M  V30 1708 N 164.069 0.697108 -1.41344 0
M  V30 1709 C 165.315 1.45796 -1.41828 0
M  V30 1710 C 165.67 1.92382 -0.0261743 0
M  V30 1711 O 164.963 1.66522 0.947688 0
M  V30 1712 C 165.157 2.68553 -2.35826 0
M  V30 1713 C 164.986 2.33975 -3.84039 0
M  V30 1714 C 163.756 2.24414 -4.52732 0
M  V30 1715 C 165.954 1.97048 -4.75054 0
M  V30 1716 N 163.936 1.82705 -5.86082 0
M  V30 1717 C 165.307 1.66086 -5.9734 0
M  V30 1718 C 167.362 1.83845 -4.62715 0
M  V30 1719 C 166.065 1.23246 -7.08663 0
M  V30 1720 C 168.091 1.4241 -5.73998 0
M  V30 1721 C 167.453 1.12357 -6.95381 0
M  V30 1722 H 163.552 0.530859 -0.574206 0
M  V30 1723 H 166.136 0.806674 -1.77203 0
M  V30 1724 H 164.307 3.31404 -2.02549 0
M  V30 1725 H 166.039 3.35015 -2.2704 0
M  V30 1726 H 162.794 2.4276 -4.0665 0
M  V30 1727 H 163.218 1.64337 -6.56751 0
M  V30 1728 H 167.86 2.05734 -3.69369 0
M  V30 1729 H 165.578 1.00102 -8.01876 0
M  V30 1730 H 169.164 1.32746 -5.66454 0
M  V30 1731 H 168.044 0.807795 -7.80028 0
M  V30 1732 N 165.547 1.27147 0.931209 0
M  V30 1733 C 166.772 1.16191 1.71797 0
M  V30 1734 C 167.197 -0.278004 1.86034 0
M  V30 1735 O 166.555 -1.20137 1.35782 0
M  V30 1736 C 166.603 1.84673 3.09723 0
M  V30 1737 O 165.707 1.14231 3.96264 0
M  V30 1738 H 165.048 0.404303 0.526721 0
M  V30 1739 H 167.578 1.68152 1.1656 0
M  V30 1740 H 167.588 1.91893 3.60057 0
M  V30 1741 H 166.263 2.89421 2.98677 0
M  V30 1742 H 164.84 1.15056 3.54706 0
M  V30 1743 N 167.025 -1.13721 1.09112 0
M  V30 1744 C 167.935 -2.22638 0.73957 0
M  V30 1745 C 168.951 -1.72091 -0.257068 0
M  V30 1746 O 170.127 -2.01155 -0.0992154 0
M  V30 1747 C 167.192 -3.46322 0.16191 0
M  V30 1748 C 166.253 -4.11775 1.21408 0
M  V30 1749 C 165.486 -5.29555 0.663891 0
M  V30 1750 O 165.709 -5.68077 -0.514274 0
M  V30 1751 O 164.643 -5.84973 1.41738 0
M  V30 1752 H 168.469 -2.55074 1.64836 0
M  V30 1753 H 166.054 -1.21791 0.865289 0
M  V30 1754 H 167.936 -4.21107 -0.157073 0
M  V30 1755 H 166.611 -3.15593 -0.719932 0
M  V30 1756 H 165.518 -3.3883 1.58571 0
M  V30 1757 H 166.851 -4.46627 2.06845 0
M  V30 1758 N 168.503 -0.877838 -1.30888 0
M  V30 1759 C 169.731 -0.507414 -2.00581 0
M  V30 1760 C 170.146 0.902216 -1.65848 0
M  V30 1761 O 169.503 1.59225 -0.891831 0
M  V30 1762 C 169.554 -0.664162 -3.55347 0
M  V30 1763 O 169.275 -2.01829 -3.8884 0
M  V30 1764 C 170.776 -0.295787 -4.42312 0
M  V30 1765 H 167.996 -0.196866 -0.641471 0
M  V30 1766 H 170.54 -1.18117 -1.66939 0
M  V30 1767 H 168.695 -0.0378619 -3.87381 0
M  V30 1768 H 169.109 -2.03174 -4.8355 0
M  V30 1769 H 170.583 -0.456388 -5.5011 0
M  V30 1770 H 171.06 0.765663 -4.32475 0
M  V30 1771 H 171.666 -0.898113 -4.15709 0
M  V30 1772 N 169.982 1.44106 -0.638065 0
M  V30 1773 C 171.229 2.01978 -0.14533 0
M  V30 1774 C 171.557 1.50234 1.23532 0
M  V30 1775 O 170.812 0.679548 1.83523 0
M  V30 1776 C 171.111 3.5729 -0.0887327 0
M  V30 1777 C 170.777 4.28317 -1.40909 0
M  V30 1778 C 169.439 4.47437 -1.77069 0
M  V30 1779 C 171.791 4.6867 -2.28031 0
M  V30 1780 C 169.119 5.04171 -3.00047 0
M  V30 1781 C 171.471 5.26766 -3.50286 0
M  V30 1782 C 170.135 5.44104 -3.86661 0
M  V30 1783 H 169.405 0.739089 -0.0531801 0
M  V30 1784 H 172.052 1.72781 -0.825761 0
M  V30 1785 H 170.357 3.8594 0.675095 0
M  V30 1786 H 172.054 3.99807 0.309145 0
M  V30 1787 H 168.644 4.1377 -1.1177 0
M  V30 1788 H 172.828 4.53604 -2.01388 0
M  V30 1789 H 168.084 5.15782 -3.28298 0
M  V30 1790 H 172.258 5.56983 -4.18023 0
M  V30 1791 H 169.885 5.87832 -4.82034 0
M  V30 1792 N 171.46 0.379036 1.52974 0
M  V30 1793 C 172.871 -0.0972525 1.86447 0
M  V30 1794 C 173.222 -1.47027 1.29914 0
M  V30 1795 O 172.347 -2.07135 0.626433 0
M  V30 1796 C 172.942 -0.183248 3.38304 0
M  V30 1797 C 171.501 -0.603812 3.71525 0
M  V30 1798 C 170.648 0.240632 2.76254 0
M  V30 1799 H 173.599 0.597316 1.4703 0
M  V30 1800 H 173.62 -1.00432 3.67006 0
M  V30 1801 H 173.132 0.816191 3.79421 0
M  V30 1802 H 171.233 -1.61099 3.35973 0
M  V30 1803 H 171.346 -0.369086 4.77676 0
M  V30 1804 H 169.71 -0.292548 2.53014 0
M  V30 1805 H 170.493 1.23786 3.20206 0
M  V30 1806 N 172.938 -1.57226 0.108567 0
M  V30 1807 C 174.354 -1.5766 -0.248058 0
M  V30 1808 C 174.554 -1.12063 -1.67464 0
M  V30 1809 O 173.61 -0.803236 -2.39383 0
M  V30 1810 C 174.923 -3.0069 -0.0242287 0
M  V30 1811 C 176.471 -3.12868 -0.0909372 0
M  V30 1812 C 176.946 -4.57879 0.105067 0
M  V30 1813 N 178.437 -4.63172 0.0506846 0
M  V30 1814 C 179.172 -5.73126 0.177396 0
M  V30 1815 N 178.668 -6.91866 0.359696 0
M  V30 1816 N 180.461 -5.61977 0.117709 0
M  V30 1817 H 172.612 -1.85169 1.04049 0
M  V30 1818 H 174.875 -0.85529 0.40888 0
M  V30 1819 H 174.581 -3.38299 0.961604 0
M  V30 1820 H 174.455 -3.6945 -0.76068 0
M  V30 1821 H 176.842 -2.75124 -1.06729 0
M  V30 1822 H 176.923 -2.46672 0.677225 0
M  V30 1823 H 176.567 -4.96321 1.07834 0
M  V30 1824 H 176.497 -5.22153 -0.682954 0
M  V30 1825 H 178.988 -3.778 -0.0871266 0
M  V30 1826 H 179.301 -7.71503 0.447529 0
M  V30 1827 H 177.646 -6.93874 0.395536 0
M  V30 1828 H 180.837 -4.68094 -0.0236741 0
M  V30 1829 H 181.01 -6.47627 0.219905 0
M  V30 1830 N 174.416 0.165178 -1.56732 0
M  V30 1831 C 175.827 0.727046 -1.71962 0
M  V30 1832 C 176.178 1.82508 -0.720078 0
M  V30 1833 O 175.303 2.16082 0.117242 0
M  V30 1834 C 175.898 1.32559 -3.11791 0
M  V30 1835 C 174.457 1.83422 -3.28684 0
M  V30 1836 C 173.604 0.715567 -2.67908 0
M  V30 1837 H 176.555 -0.0602896 -1.58585 0
M  V30 1838 H 176.576 2.19533 -3.10782 0
M  V30 1839 H 176.088 0.526195 -3.84516 0
M  V30 1840 H 174.189 2.65986 -2.60926 0
M  V30 1841 H 174.302 1.97543 -4.36478 0
M  V30 1842 H 172.666 1.13758 -2.27884 0
M  V30 1843 H 173.449 -0.0720836 -3.43224 0
M  V30 1844 N 175.894 1.51508 0.433938 0
M  V30 1845 C 176.842 1.73646 1.54757 0
M  V30 1846 C 177.836 0.602854 1.5831 0
M  V30 1847 O 179.042 0.784318 1.62014 0
M  V30 1848 H 175.417 0.548718 0.51421 0
M  V30 1849 H 177.388 2.66991 1.33261 0
M  V30 1850 C 176.137 1.88172 2.92381 0
M  V30 1851 H 175.46 2.74808 2.90381 0
M  V30 1852 H 176.9 2.07672 3.6966 0
M  V30 1853 C 175.359 0.64239 3.30719 0
M  V30 1854 O 175.889 -0.201362 4.01195 0
M  V30 1855 N 174.095 0.485489 2.86516 0
M  V30 1856 H 173.642 1.17318 2.29334 0
M  V30 1857 H 173.6 -0.342482 3.12529 0
M  V30 1858 N 177.372 -0.689602 1.41712 0
M  V30 1859 C 178.302 -1.81577 1.46806 0
M  V30 1860 C 179.283 -1.66945 0.326105 0
M  V30 1861 O 180.468 -1.86588 0.538377 0
M  V30 1862 C 177.598 -3.19762 1.35535 0
M  V30 1863 C 176.552 -3.49107 2.47605 0
M  V30 1864 C 175.878 -4.86711 2.21397 0
M  V30 1865 C 177.178 -3.47483 3.89939 0
M  V30 1866 H 178.872 -1.7757 2.41058 0
M  V30 1867 H 176.418 -0.852887 1.16025 0
M  V30 1868 H 178.371 -3.98263 1.3771 0
M  V30 1869 H 177.095 -3.24409 0.377708 0
M  V30 1870 H 175.754 -2.72959 2.44722 0
M  V30 1871 H 175.402 -4.8799 1.21961 0
M  V30 1872 H 175.102 -5.0731 2.96497 0
M  V30 1873 H 176.626 -5.67515 2.25297 0
M  V30 1874 H 178.04 -4.1598 3.94505 0
M  V30 1875 H 176.437 -3.79615 4.64771 0
M  V30 1876 H 177.507 -2.46341 4.17665 0
M  V30 1877 N 178.85 -1.27639 -0.924453 0
M  V30 1878 C 179.813 -1.10681 -2.00705 0
M  V30 1879 C 180.813 -0.0497823 -1.60723 0
M  V30 1880 O 182.003 -0.294654 -1.7169 0
M  V30 1881 C 179.135 -0.687164 -3.33902 0
M  V30 1882 H 180.328 -2.06817 -2.17179 0
M  V30 1883 H 177.881 -1.10473 -1.10569 0
M  V30 1884 H 178.616 0.275439 -3.23128 0
M  V30 1885 H 178.401 -1.45061 -3.6428 0
M  V30 1886 H 179.891 -0.590853 -4.13399 0
M  V30 1887 N 180.328 1.1314 -1.09713 0
M  V30 1888 C 181.568 1.8613 -0.844683 0
M  V30 1889 C 181.932 1.81765 0.618491 0
M  V30 1890 O 183.133 2.50024 0.98699 0
M  V30 1891 C 181.404 3.30151 -1.36877 0
M  V30 1892 S 182.963 4.206 -1.25064 0
M  V30 1893 H 179.781 0.642056 -0.305427 0
M  V30 1894 H 182.383 1.36343 -1.4011 0
M  V30 1895 H 181.087 3.30883 -2.42786 0
M  V30 1896 H 180.618 3.85 -0.808614 0
M  V30 1897 H 182.633 4.95783 -0.203486 0
M  V30 1898 N 181.806 0.884767 1.30421 0
M  V30 1899 C 183.054 0.502112 1.95763 0
M  V30 1900 C 183.375 -0.951815 1.70192 0
M  V30 1901 O 182.645 -1.6692 1.0254 0
M  V30 1902 H 181.225 0.182694 0.724315 0
M  V30 1903 H 183.887 1.1278 1.58955 0
M  V30 1904 H 182.983 0.672188 3.04775 0
M  V30 1905 N 183.284 -1.43765 0.645699 0
M  V30 1906 C 184.53 -2.02197 0.156271 0
M  V30 1907 C 184.863 -1.50776 -1.22393 0
M  V30 1908 O 184.138 -0.697771 -1.81553 0
M  V30 1909 C 184.421 -3.59749 0.158872 0
M  V30 1910 C 184.274 -4.21419 1.57245 0
M  V30 1911 C 185.593 -4.37149 -0.50879 0
M  V30 1912 H 182.712 -0.734694 0.0582602 0
M  V30 1913 H 185.354 -1.71157 0.824951 0
M  V30 1914 H 183.504 -3.86325 -0.410525 0
M  V30 1915 H 185.176 -4.059 2.19186 0
M  V30 1916 H 183.419 -3.78356 2.122 0
M  V30 1917 H 184.09 -5.30482 1.52619 0
M  V30 1918 H 186.566 -4.16093 -0.024412 0
M  V30 1919 H 185.442 -5.4683 -0.476213 0
M  V30 1920 H 185.703 -4.12839 -1.58165 0
M  V30 1921 N 184.763 -0.387143 -1.52771 0
M  V30 1922 C 185.711 0.463953 -2.27926 0
M  V30 1923 C 186.705 1.06493 -1.31741 0
M  V30 1924 O 187.911 1.00565 -1.49287 0
M  V30 1925 H 184.286 0.16837 -0.732909 0
M  V30 1926 H 186.257 -0.19141 -2.97785 0
M  V30 1927 C 185.006 1.5803 -3.09713 0
M  V30 1928 H 184.329 1.12718 -3.83581 0
M  V30 1929 H 185.769 2.15008 -3.65442 0
M  V30 1930 C 184.228 2.53509 -2.2189 0
M  V30 1931 O 184.758 3.56863 -1.84422 0
M  V30 1932 N 182.964 2.23199 -1.86093 0
M  V30 1933 H 182.511 1.39185 -2.16761 0
M  V30 1934 H 182.469 2.87333 -1.27621 0
M  V30 1935 N 186.241 1.57166 -0.116904 0
M  V30 1936 C 187.487 1.95412 0.542405 0
M  V30 1937 C 187.82 1.00019 1.66463 0
M  V30 1938 O 187.095 0.0370346 1.94465 0
M  V30 1939 C 187.378 3.43615 1.07708 0
M  V30 1940 C 187.231 4.49781 -0.0415868 0
M  V30 1941 C 188.55 3.93616 1.96861 0
M  V30 1942 H 185.669 0.710543 0.195696 0
M  V30 1943 H 188.311 1.89027 -0.192038 0
M  V30 1944 H 186.461 3.49187 1.70296 0
M  V30 1945 H 188.133 4.56308 -0.676793 0
M  V30 1946 H 186.376 4.28033 -0.705019 0
M  V30 1947 H 187.047 5.50733 0.373717 0
M  V30 1948 H 189.523 3.90335 1.44146 0
M  V30 1949 H 188.399 4.97838 2.3119 0
M  V30 1950 H 188.66 3.34188 2.89432 0
M  V30 1951 N 187.719 -0.156864 1.56817 0
M  V30 1952 C 188.667 -1.21319 1.98455 0
M  V30 1953 C 189.661 -1.45025 0.875444 0
M  V30 1954 O 190.867 -1.45435 1.0606 0
M  V30 1955 H 187.242 -0.408142 0.631605 0
M  V30 1956 H 189.213 -0.835244 2.86472 0
M  V30 1957 C 187.962 -2.54148 2.37285 0
M  V30 1958 H 187.285 -2.36733 3.22176 0
M  V30 1959 H 188.725 -3.26712 2.70251 0
M  V30 1960 C 187.184 -3.13967 1.22173 0
M  V30 1961 O 187.714 -3.98357 0.517149 0
M  V30 1962 N 185.92 -2.7327 0.988536 0
M  V30 1963 H 185.467 -2.04744 1.56326 0
M  V30 1964 H 185.425 -3.13628 0.220209 0
M  V30 1965 N 189.197 -1.51736 -0.425897 0
M  V30 1966 C 190.474 -1.55519 -1.1863 0
M  V30 1967 C 190.854 -0.326219 -2.08564 0
M  V30 1968 O 190.202 0.688012 -2.17896 0
M  V30 1969 C 190.412 -2.87521 -1.9782 0
M  V30 1970 C 191.76 -3.39899 -2.54468 0
M  V30 1971 O 192.784 -2.89148 -2.08019 0
M  V30 1972 O 191.643 -4.2848 -3.39215 0
M  V30 1973 H 188.737 -0.625739 -0.540721 0
M  V30 1974 H 191.283 -1.64055 -0.434038 0
M  V30 1975 H 190.055 -3.68422 -1.31836 0
M  V30 1976 H 189.678 -2.822 -2.80088 0
M  V30 1977 N 190.675 0.682077 -1.42076 0
M  V30 1978 C 191.9 1.47558 -1.45744 0
M  V30 1979 C 192.325 1.87977 -0.0680981 0
M  V30 1980 O 191.683 1.55522 0.9318 0
M  V30 1981 C 191.731 2.70575 -2.38373 0
M  V30 1982 O 190.835 3.68573 -1.85007 0
M  V30 1983 H 190.176 0.443585 -0.494093 0
M  V30 1984 H 192.706 0.837238 -1.86686 0
M  V30 1985 H 192.716 3.18729 -2.54707 0
M  V30 1986 H 191.391 2.40495 -3.39315 0
M  V30 1987 H 189.968 3.2757 -1.78192 0
M  V30 1988 N 192.153 1.28127 0.917671 0
M  V30 1989 C 193.378 1.18007 1.70555 0
M  V30 1990 C 193.803 -0.258257 1.86319 0
M  V30 1991 O 193.161 -1.1869 1.37049 0
M  V30 1992 C 193.209 1.87948 3.07746 0
M  V30 1993 O 192.313 1.18427 3.9503 0
M  V30 1994 H 191.654 0.409867 0.522403 0
M  V30 1995 H 194.184 1.69379 1.1477 0
M  V30 1996 H 194.194 1.95701 3.58001 0
M  V30 1997 H 192.869 2.92573 2.95591 0
M  V30 1998 H 191.446 1.18811 3.53466 0
M  V30 1999 N 193.631 -1.12557 1.10312 0
M  V30 2000 C 194.579 -2.20325 0.745629 0
M  V30 2001 C 195.573 -1.67429 -0.25763 0
M  V30 2002 O 196.779 -1.79612 -0.118132 0
M  V30 2003 H 193.154 -0.718118 0.223182 0
M  V30 2004 H 195.125 -2.47733 1.66346 0
M  V30 2005 C 193.874 -3.47168 0.192262 0
M  V30 2006 H 193.197 -3.88215 0.955475 0
M  V30 2007 H 194.637 -4.23995 -0.0198274 0
M  V30 2008 C 193.096 -3.19298 -1.07472 0
M  V30 2009 O 193.626 -3.3891 -2.15645 0
M  V30 2010 N 191.832 -2.73113 -0.992847 0
M  V30 2011 H 191.379 -2.57354 -0.112474 0
M  V30 2012 H 191.337 -2.54842 -1.84127 0
M  V30 2013 N 195.109 -0.891671 -1.2995 0
M  V30 2014 C 196.019 -0.367691 -2.31701 0
M  V30 2015 C 197.035 0.533486 -1.6562 0
M  V30 2016 O 198.211 0.424997 -1.96865 0
M  V30 2017 C 195.276 0.403406 -3.44345 0
M  V30 2018 C 194.337 -0.528328 -4.26037 0
M  V30 2019 C 193.57 0.206063 -5.33302 0
M  V30 2020 O 193.793 1.43119 -5.52153 0
M  V30 2021 O 192.727 -0.447281 -6.00236 0
M  V30 2022 H 196.553 -1.21163 -2.78484 0
M  V30 2023 H 194.138 -0.655725 -1.34241 0
M  V30 2024 H 196.02 0.839753 -4.12948 0
M  V30 2025 H 194.695 1.22354 -2.99685 0
M  V30 2026 H 193.602 -1.01362 -3.60106 0
M  V30 2027 H 194.935 -1.31465 -4.74318 0
M  V30 2028 N 196.587 1.43421 -0.653314 0
M  V30 2029 C 197.534 2.30768 0.0382271 0
M  V30 2030 C 198.504 1.44755 0.814576 0
M  V30 2031 O 199.689 1.73624 0.791162 0
M  V30 2032 C 196.829 3.30336 0.998599 0
M  V30 2033 C 195.942 4.31448 0.218342 0
M  V30 2034 C 195.077 5.18098 1.17252 0
M  V30 2035 C 194.116 6.10902 0.382702 0
M  V30 2036 N 193.253 6.90176 1.28848 0
M  V30 2037 H 198.093 2.89357 -0.712511 0
M  V30 2038 H 195.63 1.42548 -0.363128 0
M  V30 2039 H 197.588 3.86572 1.56901 0
M  V30 2040 H 196.218 2.73397 1.71621 0
M  V30 2041 H 195.27 3.77506 -0.46836 0
M  V30 2042 H 196.582 4.97227 -0.395812 0
M  V30 2043 H 195.736 5.7896 1.81356 0
M  V30 2044 H 194.475 4.52444 1.82058 0
M  V30 2045 H 193.48 5.49128 -0.27169 0
M  V30 2046 H 194.705 6.78598 -0.260957 0
M  V30 2047 H 192.651 6.27171 1.92334 0
M  V30 2048 H 192.568 7.52478 0.728887 0
M  V30 2049 H 193.836 7.55543 1.91766 0
M  V30 2050 N 198.065 0.39524 1.52563 0
M  V30 2051 C 199.481 0.0454682 1.59535 0
M  V30 2052 C 199.681 -1.44056 1.4089 0
M  V30 2053 O 198.737 -2.20579 1.22888 0
M  V30 2054 C 200.05 0.527963 2.96029 0
M  V30 2055 C 201.598 0.484733 3.09224 0
M  V30 2056 C 202.073 0.943512 4.48176 0
M  V30 2057 N 203.564 0.899765 4.54377 0
M  V30 2058 C 204.299 1.22609 5.60138 0
M  V30 2059 N 203.795 1.62319 6.73516 0
M  V30 2060 N 205.588 1.14696 5.50274 0
M  V30 2061 H 197.739 1.36261 1.62931 0
M  V30 2062 H 200.002 0.558887 0.765735 0
M  V30 2063 H 199.708 1.56607 3.14908 0
M  V30 2064 H 199.582 -0.0698056 3.77135 0
M  V30 2065 H 201.969 -0.544298 2.90037 0
M  V30 2066 H 202.05 1.11838 2.30056 0
M  V30 2067 H 201.694 1.9708 4.68104 0
M  V30 2068 H 201.624 0.286817 5.25818 0
M  V30 2069 H 204.115 0.607632 3.72983 0
M  V30 2070 H 204.428 1.85567 7.5019 0
M  V30 2071 H 202.773 1.66211 6.74833 0
M  V30 2072 H 205.964 0.835701 4.6058 0
M  V30 2073 H 206.137 1.40459 6.32594 0
M  V30 2074 N 199.544 -1.57102 0.125237 0
M  V30 2075 C 200.494 -2.12202 -0.833936 0
M  V30 2076 C 201.478 -1.04433 -1.22403 0
M  V30 2077 O 202.67 -1.30655 -1.19408 0
M  V30 2078 C 199.799 -2.72994 -2.08157 0
M  V30 2079 C 198.885 -3.87852 -1.71556 0
M  V30 2080 N 199.276 -4.9464 -1.05662 0
M  V30 2081 C 197.574 -3.98153 -2.00973 0
M  V30 2082 C 198.275 -5.74953 -0.883376 0
M  V30 2083 N 197.251 -5.24985 -1.41036 0
M  V30 2084 H 201.053 -2.92141 -0.321035 0
M  V30 2085 H 198.567 -1.62217 -0.0770315 0
M  V30 2086 H 200.564 -3.10816 -2.77847 0
M  V30 2087 H 199.224 -1.9452 -2.59985 0
M  V30 2088 H 200.235 -5.12872 -0.719878 0
M  V30 2089 H 196.912 -3.30728 -2.54804 0
M  V30 2090 H 198.302 -6.70904 -0.365675 0
M  V30 2091 N 201.022 0.148545 -1.56898 0
M  V30 2092 C 202.247 0.880385 -1.87787 0
M  V30 2093 C 202.672 1.74018 -0.714093 0
M  V30 2094 O 202.03 1.78153 0.336343 0
M  V30 2095 C 202.078 1.71422 -3.17249 0
M  V30 2096 O 201.182 2.8183 -3.01074 0
M  V30 2097 H 200.523 0.245301 -0.617028 0
M  V30 2098 H 203.053 0.139826 -2.04122 0
M  V30 2099 H 203.063 2.10954 -3.49231 0
M  V30 2100 H 201.738 1.08284 -4.01556 0
M  V30 2101 H 200.315 2.45715 -2.80497 0
M  V30 2102 N 202.5 1.5196 0.417844 0
M  V30 2103 C 203.73 1.69181 1.18581 0
M  V30 2104 C 204.138 0.397104 1.84986 0
M  V30 2105 O 203.481 -0.636011 1.72339 0
M  V30 2106 C 203.543 2.76497 2.29759 0
M  V30 2107 C 203.207 4.18514 1.83563 0
M  V30 2108 C 204.204 5.02648 1.32821 0
M  V30 2109 C 201.889 4.64708 1.90661 0
M  V30 2110 C 203.883 6.31044 0.897894 0
M  V30 2111 C 201.57 5.93096 1.47241 0
M  V30 2112 C 202.568 6.76093 0.968891 0
M  V30 2113 O 202.256 8.02078 0.540924 0
M  V30 2114 H 201.988 0.570457 0.362705 0
M  V30 2115 H 204.542 1.99249 0.498885 0
M  V30 2116 H 202.772 2.41786 3.01789 0
M  V30 2117 H 204.461 2.82403 2.91553 0
M  V30 2118 H 205.227 4.68154 1.26716 0
M  V30 2119 H 201.106 4.00216 2.28797 0
M  V30 2120 H 204.65 6.95776 0.504192 0
M  V30 2121 H 200.547 6.271 1.53022 0
M  V30 2122 H 201.315 8.15794 0.66502 0
M  V30 2123 N 203.978 -0.674533 1.42435 0
M  V30 2124 C 204.908 -1.80009 1.48724 0
M  V30 2125 C 205.889 -1.6659 0.343793 0
M  V30 2126 O 207.074 -1.86007 0.558137 0
M  V30 2127 C 204.204 -3.18306 1.38919 0
M  V30 2128 C 203.158 -3.46461 2.51294 0
M  V30 2129 C 202.484 -4.84335 2.26547 0
M  V30 2130 C 203.784 -3.43328 3.93603 0
M  V30 2131 H 205.478 -1.75004 2.42928 0
M  V30 2132 H 203.024 -0.840533 1.16923 0
M  V30 2133 H 204.977 -3.9678 1.41927 0
M  V30 2134 H 203.701 -3.2399 0.412094 0
M  V30 2135 H 202.36 -2.70348 2.47604 0
M  V30 2136 H 202.008 -4.86669 1.2713 0
M  V30 2137 H 201.708 -5.04136 3.01861 0
M  V30 2138 H 203.232 -5.65094 2.31304 0
M  V30 2139 H 204.646 -4.11772 3.98894 0
M  V30 2140 H 203.043 -3.74664 4.68771 0
M  V30 2141 H 204.113 -2.41897 4.20255 0
M  V30 2142 N 205.456 -1.28612 -0.910864 0
M  V30 2143 C 206.386 -1.15326 -2.03032 0
M  V30 2144 C 207.367 -0.0502924 -1.70026 0
M  V30 2145 O 208.552 -0.227797 -1.92859 0
M  V30 2146 C 205.682 -0.817343 -3.37545 0
M  V30 2147 C 204.636 -1.8754 -3.84724 0
M  V30 2148 C 203.962 -1.39305 -5.16235 0
M  V30 2149 C 205.262 -3.28244 -4.06267 0
M  V30 2150 H 206.956 -2.08975 -2.14406 0
M  V30 2151 H 204.502 -1.00612 -1.03021 0
M  V30 2152 H 206.455 -0.711151 -4.15356 0
M  V30 2153 H 205.179 0.154846 -3.26233 0
M  V30 2154 H 203.838 -1.97079 -3.09121 0
M  V30 2155 H 203.486 -0.409846 -5.01328 0
M  V30 2156 H 203.186 -2.10057 -5.48771 0
M  V30 2157 H 204.71 -1.30014 -5.96598 0
M  V30 2158 H 206.124 -3.21611 -4.74594 0
M  V30 2159 H 204.521 -3.96855 -4.5014 0
M  V30 2160 H 205.591 -3.72048 -3.10979 0
M  V30 2161 N 206.934 1.1197 -1.10907 0
M  V30 2162 C 207.881 2.17846 -0.762345 0
M  V30 2163 C 208.851 1.63995 0.263599 0
M  V30 2164 O 210.036 1.90273 0.141773 0
M  V30 2165 C 207.176 3.44487 -0.205651 0
M  V30 2166 C 206.289 4.12369 -1.28748 0
M  V30 2167 C 205.424 5.26674 -0.691919 0
M  V30 2168 C 204.463 5.86431 -1.75399 0
M  V30 2169 N 203.6 6.92142 -1.17833 0
M  V30 2170 H 208.44 2.46851 -1.6694 0
M  V30 2171 H 205.977 1.21188 -0.833776 0
M  V30 2172 H 207.935 4.16981 0.135037 0
M  V30 2173 H 206.565 3.15884 0.664613 0
M  V30 2174 H 205.617 3.38003 -1.74522 0
M  V30 2175 H 206.929 4.52844 -2.09125 0
M  V30 2176 H 206.083 6.05953 -0.300963 0
M  V30 2177 H 204.822 4.8749 0.143232 0
M  V30 2178 H 203.827 5.05835 -2.15432 0
M  V30 2179 H 205.052 6.27685 -2.59208 0
M  V30 2180 H 202.998 6.54985 -0.364725 0
M  V30 2181 H 202.915 7.31242 -1.91887 0
M  V30 2182 H 204.183 7.75237 -0.81408 0
M  V30 2183 N 208.412 0.89855 1.29475 0
M  V30 2184 C 209.342 0.39201 2.30186 0
M  V30 2185 C 210.323 -0.532359 1.61555 0
M  V30 2186 O 211.508 -0.443331 1.89072 0
M  V30 2187 C 208.638 -0.382353 3.45189 0
M  V30 2188 C 207.592 0.451483 4.25612 0
M  V30 2189 C 206.918 -0.450307 5.328 0
M  V30 2190 C 208.218 1.70079 4.93832 0
M  V30 2191 H 209.912 1.23362 2.72804 0
M  V30 2192 H 207.458 0.594638 1.31149 0
M  V30 2193 H 209.411 -0.747451 4.14718 0
M  V30 2194 H 208.135 -1.25774 3.01411 0
M  V30 2195 H 206.794 0.798897 3.57789 0
M  V30 2196 H 206.442 -1.32379 4.85268 0
M  V30 2197 H 206.142 0.103902 5.87508 0
M  V30 2198 H 207.666 -0.811623 6.05182 0
M  V30 2199 H 209.08 1.40549 5.55805 0
M  V30 2200 H 207.477 2.19623 5.58467 0
M  V30 2201 H 208.547 2.43744 4.19186 0
M  V30 2202 N 209.89 -1.43072 0.660911 0
M  V30 2203 C 210.837 -2.30785 -0.0259884 0
M  V30 2204 C 211.807 -1.45184 -0.806888 0
M  V30 2205 O 212.992 -1.74041 -0.781943 0
M  V30 2206 C 210.132 -3.30861 -0.981067 0
M  V30 2207 C 209.245 -4.31558 -0.195458 0
M  V30 2208 C 208.38 -5.18712 -1.14503 0
M  V30 2209 C 207.419 -6.11097 -0.350299 0
M  V30 2210 N 206.556 -6.90849 -1.25186 0
M  V30 2211 H 211.396 -2.88975 0.727846 0
M  V30 2212 H 208.933 -1.42353 0.370682 0
M  V30 2213 H 210.891 -3.87399 -1.54849 0
M  V30 2214 H 209.521 -2.74304 -1.70169 0
M  V30 2215 H 208.573 -3.77252 0.488374 0
M  V30 2216 H 209.885 -4.9701 0.422176 0
M  V30 2217 H 209.039 -5.79914 -1.78284 0
M  V30 2218 H 207.778 -4.53404 -1.79656 0
M  V30 2219 H 206.783 -5.48976 0.300808 0
M  V30 2220 H 208.008 -6.7845 0.296941 0
M  V30 2221 H 205.954 -6.28182 -1.89005 0
M  V30 2222 H 205.871 -7.52854 -0.688971 0
M  V30 2223 H 207.139 -7.5655 -1.87757 0
M  V30 2224 N 211.368 -0.403325 -1.52352 0
M  V30 2225 C 212.614 0.174605 -2.02047 0
M  V30 2226 C 212.947 1.45282 -1.28867 0
M  V30 2227 O 212.222 1.90483 -0.393257 0
M  V30 2228 C 212.505 0.428238 -3.57545 0
M  V30 2229 C 212.358 -0.866248 -4.4138 0
M  V30 2230 C 213.677 1.21287 -4.23057 0
M  V30 2231 H 210.796 0.0619851 -0.734389 0
M  V30 2232 H 213.438 -0.53565 -1.82293 0
M  V30 2233 H 211.588 1.03327 -3.74507 0
M  V30 2234 H 213.26 -1.50265 -4.3614 0
M  V30 2235 H 211.503 -1.47851 -4.07827 0
M  V30 2236 H 212.174 -0.643249 -5.48239 0
M  V30 2237 H 214.65 0.700703 -4.10158 0
M  V30 2238 H 213.526 1.35909 -5.31808 0
M  V30 2239 H 213.787 2.23193 -3.81625 0
M  V30 2240 N 212.846 1.57033 -0.133567 0
M  V30 2241 C 213.779 2.11824 0.848872 0
M  V30 2242 C 214.757 1.03833 1.2513 0
M  V30 2243 O 215.941 1.31579 1.34978 0
M  V30 2244 C 213.068 2.62692 2.138 0
M  V30 2245 C 212.114 3.82705 1.88253 0
M  V30 2246 S 212.947 5.2438 1.08563 0
M  V30 2247 C 214.103 5.78627 2.38624 0
M  V30 2248 H 214.336 2.94824 0.38289 0
M  V30 2249 H 211.869 1.5419 0.0804796 0
M  V30 2250 H 213.827 2.92652 2.87863 0
M  V30 2251 H 212.488 1.79847 2.57515 0
M  V30 2252 H 211.681 4.16496 2.83809 0
M  V30 2253 H 211.283 3.53437 1.22305 0
M  V30 2254 H 213.575 5.8924 3.34369 0
M  V30 2255 H 214.518 6.76443 2.09358 0
M  V30 2256 H 214.926 5.06783 2.48658 0
M  V30 2257 N 214.325 -0.140222 1.56975 0
M  V30 2258 C 215.555 -0.865181 1.87612 0
M  V30 2259 C 215.963 -1.74942 0.72055 0
M  V30 2260 O 215.306 -1.80917 -0.318561 0
M  V30 2261 C 215.368 -1.76782 3.13031 0
M  V30 2262 C 215.032 -1.06005 4.44536 0
M  V30 2263 C 216.029 -0.410768 5.18275 0
M  V30 2264 C 213.714 -1.04754 4.91255 0
M  V30 2265 C 215.708 0.241572 6.36942 0
M  V30 2266 C 213.395 -0.391394 6.09845 0
M  V30 2267 C 214.393 0.252029 6.82535 0
M  V30 2268 O 214.081 0.897757 7.98871 0
M  V30 2269 H 213.813 -0.255188 0.625983 0
M  V30 2270 H 216.367 -0.135653 2.04952 0
M  V30 2271 H 214.597 -2.53846 2.91718 0
M  V30 2272 H 216.286 -2.36533 3.29859 0
M  V30 2273 H 217.052 -0.412195 4.83245 0
M  V30 2274 H 212.931 -1.53777 4.34596 0
M  V30 2275 H 216.475 0.744375 6.93617 0
M  V30 2276 H 212.372 -0.387656 6.44335 0
M  V30 2277 H 213.14 0.800102 8.1458 0
M  V30 2278 N 215.803 -1.52179 -0.40978 0
M  V30 2279 C 217.031 -1.70054 -1.17853 0
M  V30 2280 C 217.446 -0.409735 -1.843 0
M  V30 2281 O 216.803 0.614183 -1.71855 0
M  V30 2282 C 216.854 -2.83568 -2.24213 0
M  V30 2283 O 216.575 -4.0765 -1.60478 0
M  V30 2284 C 218.076 -3.12947 -3.13973 0
M  V30 2285 H 215.296 -0.569917 -0.354169 0
M  V30 2286 H 217.84 -1.98734 -0.482198 0
M  V30 2287 H 215.995 -2.57409 -2.89516 0
M  V30 2288 H 216.409 -4.70899 -2.30986 0
M  V30 2289 H 217.883 -3.95889 -3.84677 0
M  V30 2290 H 218.36 -2.26472 -3.76307 0
M  V30 2291 H 218.966 -3.40868 -2.5434 0
M  V30 2292 N 217.281 0.66697 -1.42791 0
M  V30 2293 C 218.527 1.4291 -1.43891 0
M  V30 2294 C 218.86 1.94114 -0.0578972 0
M  V30 2295 O 218.135 1.71414 0.91911 0
M  V30 2296 C 218.418 2.62049 -2.46987 0
M  V30 2297 C 218.271 2.16426 -3.94309 0
M  V30 2298 C 219.59 3.64266 -2.46978 0
M  V30 2299 H 216.709 0.518306 -0.523954 0
M  V30 2300 H 219.351 0.757321 -1.74255 0
M  V30 2301 H 217.501 3.19361 -2.21225 0
M  V30 2302 H 219.173 1.64221 -4.31079 0
M  V30 2303 H 217.416 1.47925 -4.078 0
M  V30 2304 H 218.087 3.02038 -4.62036 0
M  V30 2305 H 220.563 3.16686 -2.69906 0
M  V30 2306 H 219.439 4.45196 -3.21079 0
M  V30 2307 H 219.7 4.15927 -1.49857 0
M  V30 2308 N 218.759 1.29093 0.90403 0
M  V30 2309 C 220.007 1.16583 1.65085 0
M  V30 2310 C 220.328 -0.283933 1.92922 0
M  V30 2311 O 219.598 -1.19509 1.55224 0
M  V30 2312 H 218.178 0.428467 0.611903 0
M  V30 2313 H 220.84 1.61959 1.08422 0
M  V30 2314 H 219.936 1.71266 2.6091 0
M  V30 2315 N 220.237 -1.11381 1.11499 0
M  V30 2316 C 221.467 -1.86663 0.885464 0
M  V30 2317 C 221.875 -1.80464 -0.568281 0
M  V30 2318 O 221.218 -1.18445 -1.40415 0
M  V30 2319 C 221.28 -3.36337 1.26956 0
M  V30 2320 C 220.944 -3.66304 2.73259 0
M  V30 2321 C 221.941 -3.63733 3.71476 0
M  V30 2322 C 219.626 -3.9529 3.09921 0
M  V30 2323 C 221.62 -3.89725 5.04374 0
M  V30 2324 C 219.307 -4.20941 4.43004 0
M  V30 2325 C 220.305 -4.18147 5.40039 0
M  V30 2326 O 219.993 -4.43153 6.70724 0
M  V30 2327 H 219.725 -0.597114 0.316908 0
M  V30 2328 H 222.279 -1.41782 1.48617 0
M  V30 2329 H 220.509 -3.81826 0.611999 0
M  V30 2330 H 222.198 -3.92986 1.01573 0
M  V30 2331 H 222.964 -3.41389 3.44498 0
M  V30 2332 H 218.843 -3.966 2.35009 0
M  V30 2333 H 222.387 -3.8746 5.80104 0
M  V30 2334 H 218.284 -4.42761 4.69716 0
M  V30 2335 H 219.052 -4.60717 6.76522 0
M  V30 2336 N 221.715 -0.905404 -1.28997 0
M  V30 2337 C 222.94 -0.549175 -1.99997 0
M  V30 2338 C 223.365 0.860276 -1.67275 0
M  V30 2339 O 222.723 1.57355 -0.900502 0
M  V30 2340 C 222.771 -0.755185 -3.52604 0
M  V30 2341 O 221.875 0.189692 -4.11964 0
M  V30 2342 H 221.216 -0.213899 -0.628604 0
M  V30 2343 H 223.746 -1.21856 -1.64354 0
M  V30 2344 H 223.756 -0.662045 -4.02593 0
M  V30 2345 H 222.431 -1.78271 -3.75755 0
M  V30 2346 H 221.008 0.0485257 -3.72868 0
M  V30 2347 N 223.193 1.4272 -0.668489 0
M  V30 2348 C 224.418 2.06484 -0.194758 0
M  V30 2349 C 224.843 1.49862 1.13679 0
M  V30 2350 O 224.201 0.614582 1.70565 0
M  V30 2351 C 224.249 3.60353 -0.133546 0
M  V30 2352 O 223.353 4.02464 0.899806 0
M  V30 2353 H 222.694 0.656137 -0.10188 0
M  V30 2354 H 225.224 1.82964 -0.915722 0
M  V30 2355 H 225.234 4.07976 0.0447041 0
M  V30 2356 H 223.909 4.00938 -1.1055 0
M  V30 2357 H 222.486 3.66402 0.693109 0
M  V30 2358 N 224.671 0.411399 1.52136 0
M  V30 2359 C 225.896 -0.165538 2.06738 0
M  V30 2360 C 226.321 -1.379 1.27926 0
M  V30 2361 O 225.679 -1.78628 0.310114 0
M  V30 2362 C 225.727 -0.492124 3.57226 0
M  V30 2363 O 224.831 -1.58276 3.80818 0
M  V30 2364 H 224.172 -0.0132132 0.663869 0
M  V30 2365 H 226.702 0.585253 1.96051 0
M  V30 2366 H 226.712 -0.750104 4.01045 0
M  V30 2367 H 225.387 0.394922 4.14021 0
M  V30 2368 H 223.964 -1.31677 3.48877 0
M  V30 2369 N 226.149 -1.5696 0.141893 0
M  V30 2370 C 227.079 -2.19516 -0.795936 0
M  V30 2371 C 228.06 -1.14187 -1.26077 0
M  V30 2372 O 229.245 -1.42511 -1.31925 0
M  V30 2373 C 226.375 -2.81272 -2.03723 0
M  V30 2374 C 225.329 -3.92384 -1.70936 0
M  V30 2375 C 224.655 -4.41052 -3.02287 0
M  V30 2376 C 225.955 -5.13403 -0.959954 0
M  V30 2377 H 227.649 -2.98138 -0.274596 0
M  V30 2378 H 225.195 -1.43406 -0.130636 0
M  V30 2379 H 227.148 -3.237 -2.69808 0
M  V30 2380 H 225.872 -1.99973 -2.58221 0
M  V30 2381 H 224.531 -3.50566 -1.07232 0
M  V30 2382 H 224.179 -3.56582 -3.54765 0
M  V30 2383 H 223.879 -5.15993 -2.81114 0
M  V30 2384 H 225.403 -4.86146 -3.69451 0
M  V30 2385 H 226.817 -5.52706 -1.52279 0
M  V30 2386 H 225.214 -5.94073 -0.848357 0
M  V30 2387 H 226.284 -4.84875 0.0492434 0
M  V30 2388 N 227.627 0.131896 -1.57047 0
M  V30 2389 C 228.873 0.843179 -1.84441 0
M  V30 2390 C 229.206 1.80129 -0.725749 0
M  V30 2391 O 228.481 1.92624 0.269469 0
M  V30 2392 C 228.764 1.60442 -3.22382 0
M  V30 2393 C 228.617 0.666782 -4.4483 0
M  V30 2394 C 229.936 2.56354 -3.5773 0
M  V30 2395 H 227.055 0.305081 -0.670891 0
M  V30 2396 H 229.697 0.107839 -1.89694 0
M  V30 2397 H 227.847 2.23128 -3.18035 0
M  V30 2398 H 229.519 0.0497646 -4.61273 0
M  V30 2399 H 227.762 -0.022609 -4.33794 0
M  V30 2400 H 228.433 1.23579 -5.37989 0
M  V30 2401 H 230.909 2.0378 -3.62785 0
M  V30 2402 H 229.785 3.06657 -4.5525 0
M  V30 2403 H 230.046 3.38419 -2.84473 0
M  V30 2404 N 229.106 1.52395 0.401703 0
M  V30 2405 C 230.039 1.70999 1.51111 0
M  V30 2406 C 231.017 0.55765 1.52738 0
M  V30 2407 O 232.201 0.785912 1.71335 0
M  V30 2408 C 229.328 1.75607 2.8962 0
M  V30 2409 C 228.374 2.97227 3.05873 0
M  V30 2410 S 229.207 4.57439 2.78405 0
M  V30 2411 C 230.363 4.64844 4.19131 0
M  V30 2412 H 230.596 2.6483 1.35102 0
M  V30 2413 H 228.129 1.42527 0.593762 0
M  V30 2414 H 230.087 1.78947 3.69443 0
M  V30 2415 H 228.748 0.828914 3.02965 0
M  V30 2416 H 227.941 2.96955 4.07227 0
M  V30 2417 H 227.543 2.91813 2.33925 0
M  V30 2418 H 229.835 4.42677 5.12877 0
M  V30 2419 H 230.778 5.66807 4.24424 0
M  V30 2420 H 231.186 3.93804 4.04448 0
M  V30 2421 N 230.584 -0.659388 1.43143 0
M  V30 2422 C 231.514 -1.78422 1.50625 0
M  V30 2423 C 232.495 -1.66216 0.361443 0
M  V30 2424 O 233.68 -1.85404 0.577834 0
M  V30 2425 C 230.81 -3.16815 1.42287 0
M  V30 2426 C 229.764 -3.43777 2.54954 0
M  V30 2427 C 229.09 -4.81905 2.31671 0
M  V30 2428 C 230.39 -3.39134 3.97222 0
M  V30 2429 H 232.084 -1.72417 2.44771 0
M  V30 2430 H 229.63 -0.828084 1.17808 0
M  V30 2431 H 231.583 -3.95253 1.46127 0
M  V30 2432 H 230.307 -3.23534 0.446435 0
M  V30 2433 H 228.966 -2.67707 2.50457 0
M  V30 2434 H 228.614 -4.85294 1.32284 0
M  V30 2435 H 228.314 -5.00906 3.07192 0
M  V30 2436 H 229.838 -5.62609 2.37284 0
M  V30 2437 H 231.252 -4.07518 4.03239 0
M  V30 2438 H 229.649 -3.69671 4.72719 0
M  V30 2439 H 230.719 -2.37426 4.22797 0
M  V30 2440 N 232.062 -1.29571 -0.897171 0
M  V30 2441 C 232.992 -1.17473 -2.01798 0
M  V30 2442 C 233.973 -0.068323 -1.69963 0
M  V30 2443 O 235.158 -0.248239 -1.92607 0
M  V30 2444 C 232.288 -0.853099 -3.36659 0
M  V30 2445 C 231.242 -1.9161 -3.82713 0
M  V30 2446 C 230.568 -1.44773 -5.14728 0
M  V30 2447 C 231.868 -3.32535 -4.02763 0
M  V30 2448 H 233.562 -2.11237 -2.12177 0
M  V30 2449 H 231.108 -1.01699 -1.01948 0
M  V30 2450 H 233.061 -0.755165 -4.14578 0
M  V30 2451 H 231.785 0.120236 -3.26379 0
M  V30 2452 H 230.444 -2.00346 -3.07013 0
M  V30 2453 H 230.092 -0.462995 -5.00865 0
M  V30 2454 H 229.792 -2.15865 -5.46513 0
M  V30 2455 H 231.316 -1.36334 -5.95185 0
M  V30 2456 H 232.73 -3.26626 -4.71156 0
M  V30 2457 H 231.127 -4.01607 -4.45905 0
M  V30 2458 H 232.197 -3.75326 -3.07016 0
M  V30 2459 N 233.54 1.10788 -1.12088 0
M  V30 2460 C 234.786 1.82942 -0.875226 0
M  V30 2461 C 235.119 1.84779 0.597538 0
M  V30 2462 O 234.394 1.30578 1.44152 0
M  V30 2463 C 234.677 3.29789 -1.44606 0
M  V30 2464 C 234.53 3.36307 -2.98693 0
M  V30 2465 C 235.849 4.26064 -1.10261 0
M  V30 2466 H 232.968 0.664195 -0.319397 0
M  V30 2467 H 235.61 1.29867 -1.38689 0
M  V30 2468 H 233.76 3.75118 -1.01089 0
M  V30 2469 H 235.432 2.99487 -3.50864 0
M  V30 2470 H 233.675 2.76318 -3.34411 0
M  V30 2471 H 234.346 4.39694 -3.33726 0
M  V30 2472 H 236.822 3.88951 -1.4784 0
M  V30 2473 H 235.698 5.27183 -1.52869 0
M  V30 2474 H 235.959 4.42098 -0.0142953 0
M  V30 2475 N 235.018 0.912232 1.28515 0
M  V30 2476 C 235.981 0.404223 2.25607 0
M  V30 2477 C 236.981 -0.468602 1.53821 0
M  V30 2478 O 238.171 -0.271873 1.72065 0
M  V30 2479 C 235.303 -0.420653 3.38295 0
M  V30 2480 H 236.496 1.26188 2.7206 0
M  V30 2481 H 234.049 0.691495 1.40171 0
M  V30 2482 H 234.784 -1.29777 2.97201 0
M  V30 2483 H 234.569 0.204935 3.91564 0
M  V30 2484 H 236.059 -0.766971 4.10496 0
M  V30 2485 N 236.496 -1.42363 0.676048 0
M  V30 2486 C 237.426 -2.33497 0.0124832 0
M  V30 2487 C 238.407 -1.50748 -0.787981 0
M  V30 2488 O 239.592 -1.79346 -0.744884 0
M  V30 2489 C 236.722 -3.34377 -0.938582 0
M  V30 2490 C 235.676 -4.27289 -0.246622 0
M  V30 2491 C 235.002 -5.18386 -1.31071 0
M  V30 2492 C 236.302 -5.14916 0.875125 0
M  V30 2493 H 237.996 -2.89233 0.773593 0
M  V30 2494 H 235.542 -1.39073 0.37346 0
M  V30 2495 H 237.495 -3.97044 -1.41188 0
M  V30 2496 H 236.219 -2.76947 -1.73113 0
M  V30 2497 H 234.878 -3.66018 0.206456 0
M  V30 2498 H 234.526 -4.57282 -2.09528 0
M  V30 2499 H 234.226 -5.81378 -0.852839 0
M  V30 2500 H 235.75 -5.83929 -1.78492 0
M  V30 2501 H 237.164 -5.71262 0.482983 0
M  V30 2502 H 235.561 -5.86747 1.25887 0
M  V30 2503 H 236.631 -4.53242 1.72335 0
M  V30 2504 N 237.974 -0.419461 -1.51915 0
M  V30 2505 C 239.222 0.152637 -2.01523 0
M  V30 2506 C 239.543 1.44762 -1.30649 0
M  V30 2507 O 238.813 1.90997 -0.435535 0
M  V30 2508 H 237.393 0.0593966 -0.744635 0
M  V30 2509 H 240.055 -0.558073 -1.86739 0
M  V30 2510 H 239.151 0.341369 -3.10227 0
M  V30 2511 N 239.452 1.56882 -0.150215 0
M  V30 2512 C 240.701 1.95403 0.500071 0
M  V30 2513 C 241.014 1.03777 1.658 0
M  V30 2514 O 242.22 1.31889 2.37313 0
M  V30 2515 C 240.676 3.4738 0.941018 0
M  V30 2516 C 240.284 4.47596 -0.190158 0
M  V30 2517 C 242.028 3.9476 1.56091 0
M  V30 2518 C 239.935 5.90787 0.269237 0
M  V30 2519 H 238.865 0.729515 0.190588 0
M  V30 2520 H 241.516 1.81988 -0.235074 0
M  V30 2521 H 239.898 3.56138 1.73152 0
M  V30 2522 H 241.072 4.50536 -0.967157 0
M  V30 2523 H 239.387 4.10151 -0.718666 0
M  V30 2524 H 241.984 4.99181 1.9163 0
M  V30 2525 H 242.327 3.36494 2.45107 0
M  V30 2526 H 242.86 3.88932 0.835249 0
M  V30 2527 H 239.599 6.52879 -0.585621 0
M  V30 2528 H 239.119 5.912 1.01204 0
M  V30 2529 H 240.798 6.42979 0.720176 0
M  V30 2530 N 240.93 -0.123565 1.57115 0
M  V30 2531 C 241.86 -1.15309 2.03042 0
M  V30 2532 C 242.841 -1.43454 0.914061 0
M  V30 2533 O 244.026 -1.53973 1.18347 0
M  V30 2534 C 241.156 -2.48043 2.43089 0
M  V30 2535 C 240.11 -2.3437 3.58127 0
M  V30 2536 C 239.436 -3.72026 3.84059 0
M  V30 2537 C 240.736 -1.80804 4.90007 0
M  V30 2538 H 242.43 -0.771102 2.893 0
M  V30 2539 H 239.976 -0.369479 1.39179 0
M  V30 2540 H 241.929 -3.20311 2.73823 0
M  V30 2541 H 240.653 -2.88122 1.53796 0
M  V30 2542 H 239.312 -1.64551 3.27595 0
M  V30 2543 H 238.96 -4.09582 2.91979 0
M  V30 2544 H 238.66 -3.63732 4.6149 0
M  V30 2545 H 240.184 -4.45806 4.1724 0
M  V30 2546 H 241.598 -2.42886 5.19307 0
M  V30 2547 H 239.995 -1.83343 5.71407 0
M  V30 2548 H 241.065 -0.76528 4.78823 0
M  V30 2549 N 242.408 -1.52605 -0.393616 0
M  V30 2550 C 243.648 -1.6911 -1.1481 0
M  V30 2551 C 244.012 -0.41969 -1.87357 0
M  V30 2552 O 245.213 -0.461034 -2.64817 0
M  V30 2553 C 243.484 -2.88909 -2.10395 0
M  V30 2554 S 245.043 -3.25977 -2.93742 0
M  V30 2555 H 241.861 -0.595337 -0.38871 0
M  V30 2556 H 244.463 -1.90641 -0.433178 0
M  V30 2557 H 243.167 -3.79672 -1.55812 0
M  V30 2558 H 242.698 -2.69698 -2.86403 0
M  V30 2559 H 244.713 -2.75806 -4.12487 0
M  V30 2560 N 243.887 0.651787 -1.4349 0
M  V30 2561 C 244.85 1.74647 -1.48429 0
M  V30 2562 C 245.85 1.56513 -0.368817 0
M  V30 2563 O 247.04 1.62385 -0.630623 0
M  V30 2564 C 244.172 3.13533 -1.33827 0
M  V30 2565 H 245.365 1.71649 -2.4592 0
M  V30 2566 H 242.918 0.863573 -1.30277 0
M  V30 2567 H 243.653 3.22142 -0.37349 0
M  V30 2568 H 243.438 3.28101 -2.14691 0
M  V30 2569 H 244.928 3.93356 -1.40218 0
M  V30 2570 N 245.365 1.30045 0.890287 0
M  V30 2571 C 246.612 1.18561 1.64163 0
M  V30 2572 C 246.94 -0.260852 1.92743 0
M  V30 2573 O 246.195 -1.20376 1.54299 0
M  V30 2574 C 246.494 1.95409 2.99249 0
M  V30 2575 C 246.16 3.45066 2.90242 0
M  V30 2576 C 244.822 3.85878 2.87492 0
M  V30 2577 C 247.174 4.4039 2.78758 0
M  V30 2578 C 244.502 5.20314 2.7109 0
M  V30 2579 C 246.854 5.74928 2.63894 0
M  V30 2580 C 245.518 6.14986 2.59516 0
M  V30 2581 H 244.788 0.433846 0.600715 0
M  V30 2582 H 247.435 1.61088 1.03552 0
M  V30 2583 H 245.74 1.45501 3.63781 0
M  V30 2584 H 247.437 1.8392 3.56334 0
M  V30 2585 H 244.027 3.12631 2.93189 0
M  V30 2586 H 248.211 4.09806 2.79952 0
M  V30 2587 H 243.467 5.50449 2.66112 0
M  V30 2588 H 247.641 6.48434 2.53981 0
M  V30 2589 H 245.268 7.19104 2.46565 0
M  V30 2590 N 246.843 -1.10192 1.12674 0
M  V30 2591 C 248.259 -1.34235 0.863317 0
M  V30 2592 C 248.459 -1.95062 -0.505277 0
M  V30 2593 O 247.515 -2.19192 -1.25345 0
M  V30 2594 C 248.828 -2.2616 1.98172 0
M  V30 2595 C 250.376 -2.3969 2.0129 0
M  V30 2596 C 250.851 -3.34946 3.1237 0
M  V30 2597 N 252.342 -3.42515 3.11829 0
M  V30 2598 C 253.077 -4.16199 3.94419 0
M  V30 2599 N 252.573 -4.92747 4.87004 0
M  V30 2600 N 254.366 -4.11843 3.82547 0
M  V30 2601 H 246.517 -0.690798 2.00853 0
M  V30 2602 H 248.78 -0.366774 0.874174 0
M  V30 2603 H 248.486 -1.8868 2.96804 0
M  V30 2604 H 248.36 -3.26488 1.88906 0
M  V30 2605 H 250.747 -2.76438 1.03276 0
M  V30 2606 H 250.828 -1.39169 2.14629 0
M  V30 2607 H 250.472 -2.98923 4.10619 0
M  V30 2608 H 250.402 -4.35353 2.96269 0
M  V30 2609 H 252.893 -2.87926 2.44759 0
M  V30 2610 H 253.206 -5.46376 5.46528 0
M  V30 2611 H 251.551 -4.91862 4.91016 0
M  V30 2612 H 254.742 -3.51136 3.0955 0
M  V30 2613 H 254.915 -4.69007 4.47142 0
M  V30 2614 N 248.321 -0.919034 -1.28029 0
M  V30 2615 C 249.737 -0.617972 -1.4715 0
M  V30 2616 C 249.937 0.835242 -1.83374 0
M  V30 2617 O 248.993 1.61388 -1.94191 0
M  V30 2618 C 250.306 -1.56041 -2.57044 0
M  V30 2619 C 251.854 -1.56769 -2.7091 0
M  V30 2620 C 252.329 -2.49688 -3.83953 0
M  V30 2621 N 253.82 -2.47845 -3.91314 0
M  V30 2622 C 254.555 -3.16437 -4.78179 0
M  V30 2623 N 254.051 -3.94376 -5.69596 0
M  V30 2624 N 255.844 -3.05498 -4.71834 0
M  V30 2625 H 247.995 -1.85866 -1.02798 0
M  V30 2626 H 250.258 -0.797506 -0.512531 0
M  V30 2627 H 249.964 -2.59671 -2.372 0
M  V30 2628 H 249.838 -1.29551 -3.54255 0
M  V30 2629 H 252.225 -0.538745 -2.90141 0
M  V30 2630 H 252.306 -1.87305 -1.74214 0
M  V30 2631 H 251.95 -3.52688 -3.65477 0
M  V30 2632 H 251.88 -2.16453 -4.80058 0
M  V30 2633 H 254.371 -1.91234 -3.25941 0
M  V30 2634 H 254.684 -4.43721 -6.32718 0
M  V30 2635 H 253.029 -3.98481 -5.69419 0
M  V30 2636 H 256.22 -2.44108 -3.99411 0
M  V30 2637 H 256.393 -3.59225 -5.39316 0
M  V30 2638 N 249.799 1.42003 -0.683588 0
M  V30 2639 C 250.729 2.33487 -0.024866 0
M  V30 2640 C 251.71 1.51163 0.779975 0
M  V30 2641 O 252.895 1.79739 0.735362 0
M  V30 2642 C 250.025 3.3487 0.920836 0
M  V30 2643 C 248.979 4.27414 0.223958 0
M  V30 2644 C 248.305 5.19074 1.2832 0
M  V30 2645 C 249.605 5.14445 -0.90242 0
M  V30 2646 H 251.299 2.88819 -0.788921 0
M  V30 2647 H 248.845 1.38873 -0.38083 0
M  V30 2648 H 250.798 3.97787 1.39081 0
M  V30 2649 H 249.522 2.77861 1.71642 0
M  V30 2650 H 248.181 3.65904 -0.225864 0
M  V30 2651 H 247.829 4.58387 2.071 0
M  V30 2652 H 247.529 5.81822 0.821995 0
M  V30 2653 H 249.053 5.84867 1.75392 0
M  V30 2654 H 250.467 5.70998 -0.513272 0
M  V30 2655 H 248.864 5.86072 -1.28997 0
M  V30 2656 H 249.934 4.52322 -1.74737 0
M  V30 2657 N 251.277 0.427512 1.51691 0
M  V30 2658 C 252.227 -0.406604 2.24345 0
M  V30 2659 C 253.211 -0.998276 1.26187 0
M  V30 2660 O 254.403 -0.918045 1.51331 0
M  V30 2661 C 251.532 -1.51266 3.08177 0
M  V30 2662 C 250.618 -0.930868 4.13758 0
M  V30 2663 N 251.009 -0.0773552 5.05741 0
M  V30 2664 C 249.307 -1.19948 4.29568 0
M  V30 2665 C 250.008 0.248344 5.8117 0
M  V30 2666 N 248.984 -0.365535 5.4237 0
M  V30 2667 H 252.786 0.251581 2.92821 0
M  V30 2668 H 250.3 0.239003 1.60632 0
M  V30 2669 H 252.297 -2.123 3.58796 0
M  V30 2670 H 250.957 -2.17328 2.41244 0
M  V30 2671 H 251.968 0.288351 5.17097 0
M  V30 2672 H 248.645 -1.85832 3.73862 0
M  V30 2673 H 250.035 0.942286 6.6526 0
M  V30 2674 N 252.755 -1.56801 0.158532 0
M  V30 2675 C 253.995 -1.98383 -0.49229 0
M  V30 2676 C 254.359 -1.04184 -1.61275 0
M  V30 2677 O 255.56 -1.34856 -2.32524 0
M  V30 2678 C 253.831 -3.4385 -0.974766 0
M  V30 2679 S 255.39 -4.07459 -1.62857 0
M  V30 2680 H 252.208 -0.693041 -0.158794 0
M  V30 2681 H 254.81 -1.93856 0.252974 0
M  V30 2682 H 253.514 -4.10131 -0.148688 0
M  V30 2683 H 253.045 -3.52115 -1.75438 0
M  V30 2684 H 255.06 -4.01458 -2.91627 0
M  V30 2685 N 254.233 0.115231 -1.57178 0
M  V30 2686 C 255.461 0.836437 -1.89239 0
M  V30 2687 C 255.876 1.73256 -0.750175 0
M  V30 2688 O 255.233 1.80357 0.278832 0
M  V30 2689 C 255.284 1.66671 -3.20785 0
M  V30 2690 O 255.005 0.806652 -4.3061 0
M  V30 2691 C 256.506 2.49274 -3.66575 0
M  V30 2692 H 253.726 0.240253 -0.626514 0
M  V30 2693 H 256.27 0.0984932 -2.04263 0
M  V30 2694 H 254.425 2.35737 -3.0742 0
M  V30 2695 H 254.839 1.37969 -5.06028 0
M  V30 2696 H 256.313 3.03055 -4.6137 0
M  V30 2697 H 256.79 3.26807 -2.93417 0
M  V30 2698 H 257.396 1.85443 -3.82741 0
M  V30 2699 N 255.711 1.52812 0.385517 0
M  V30 2700 C 257.127 1.4214 0.725829 0
M  V30 2701 C 257.327 0.544589 1.94001 0
M  V30 2702 O 256.383 0.0193693 2.52493 0
M  V30 2703 C 257.696 2.85042 0.957668 0
M  V30 2704 C 259.244 2.94543 1.05892 0
M  V30 2705 C 259.719 4.38464 1.32337 0
M  V30 2706 N 261.21 4.41804 1.39151 0
M  V30 2707 C 261.945 5.5025 1.61285 0
M  V30 2708 N 261.441 6.68775 1.80866 0
M  V30 2709 N 263.234 5.37798 1.63492 0
M  V30 2710 H 255.385 2.08338 -0.413383 0
M  V30 2711 H 257.648 0.940016 -0.122775 0
M  V30 2712 H 257.354 3.51431 0.137568 0
M  V30 2713 H 257.228 3.27505 1.87137 0
M  V30 2714 H 259.615 2.28321 1.86959 0
M  V30 2715 H 259.696 2.55504 0.123057 0
M  V30 2716 H 259.34 5.05254 0.517793 0
M  V30 2717 H 259.27 4.75059 2.27214 0
M  V30 2718 H 261.761 3.56377 1.25713 0
M  V30 2719 H 262.074 7.47197 1.97271 0
M  V30 2720 H 260.419 6.71797 1.78083 0
M  V30 2721 H 263.61 4.44171 1.47749 0
M  V30 2722 H 263.783 6.22382 1.80402 0
M  V30 2723 N 257.189 -0.644168 1.43834 0
M  V30 2724 C 258.137 -1.77793 1.49974 0
M  V30 2725 C 259.131 -1.65253 0.372536 0
M  V30 2726 O 260.337 -1.7149 0.546924 0
M  V30 2727 H 256.712 -0.58675 0.47035 0
M  V30 2728 H 258.683 -1.69736 2.45423 0
M  V30 2729 C 257.432 -3.16087 1.4486 0
M  V30 2730 H 256.755 -3.26378 2.30905 0
M  V30 2731 H 258.195 -3.95349 1.53217 0
M  V30 2732 C 256.654 -3.36484 0.167463 0
M  V30 2733 O 257.184 -3.94298 -0.767609 0
M  V30 2734 N 255.39 -2.90504 0.0747556 0
M  V30 2735 H 254.937 -2.4364 0.836507 0
M  V30 2736 H 254.895 -3.04527 -0.781714 0
M  V30 2737 N 258.668 -1.30515 -0.883378 0
M  V30 2738 C 259.898 -1.22182 -1.66599 0
M  V30 2739 C 260.306 0.217507 -1.87946 0
M  V30 2740 O 259.649 1.1554 -1.42815 0
M  V30 2741 C 259.711 -1.88146 -3.06335 0
M  V30 2742 C 259.375 -3.37476 -3.08154 0
M  V30 2743 C 260.372 -4.33443 -2.87094 0
M  V30 2744 C 258.057 -3.7895 -3.29701 0
M  V30 2745 C 260.051 -5.68858 -2.8754 0
M  V30 2746 C 257.738 -5.14482 -3.29776 0
M  V30 2747 C 258.736 -6.09246 -3.0872 0
M  V30 2748 O 258.424 -7.42302 -3.08615 0
M  V30 2749 H 258.156 -0.423898 -0.52658 0
M  V30 2750 H 260.71 -1.72703 -1.11188 0
M  V30 2751 H 258.94 -1.32157 -3.63416 0
M  V30 2752 H 260.629 -1.7391 -3.66756 0
M  V30 2753 H 261.395 -4.02733 -2.70243 0
M  V30 2754 H 257.274 -3.05631 -3.45124 0
M  V30 2755 H 260.818 -6.428 -2.71024 0
M  V30 2756 H 256.715 -5.44832 -3.46163 0
M  V30 2757 H 257.483 -7.5131 -3.24769 0
M  V30 2758 N 260.146 1.09593 -1.13257 0
M  V30 2759 C 261.395 1.81105 -0.887917 0
M  V30 2760 C 261.708 1.86563 0.587672 0
M  V30 2761 O 262.914 2.54367 0.949204 0
M  V30 2762 C 261.37 3.25338 -1.53895 0
M  V30 2763 C 260.978 3.28151 -3.04994 0
M  V30 2764 C 262.722 4.01617 -1.37492 0
M  V30 2765 C 260.629 4.66897 -3.6299 0
M  V30 2766 H 259.559 0.678661 -0.328534 0
M  V30 2767 H 262.21 1.23183 -1.36008 0
M  V30 2768 H 260.592 3.8331 -0.994446 0
M  V30 2769 H 261.766 2.79953 -3.66009 0
M  V30 2770 H 260.081 2.65361 -3.20893 0
M  V30 2771 H 262.678 5.04119 -1.78235 0
M  V30 2772 H 263.021 4.15072 -0.31957 0
M  V30 2773 H 263.554 3.50082 -1.88912 0
M  V30 2774 H 260.293 4.58643 -4.68323 0
M  V30 2775 H 259.813 5.15426 -3.06752 0
M  V30 2776 H 261.492 5.3587 -3.62563 0
M  V30 2777 N 261.624 0.925811 1.2754 0
M  V30 2778 C 262.574 0.394488 2.24561 0
M  V30 2779 C 263.558 -0.500183 1.52928 0
M  V30 2780 O 264.75 -0.337936 1.73744 0
M  V30 2781 C 261.879 -0.353328 3.41477 0
M  V30 2782 C 260.965 0.557752 4.20416 0
M  V30 2783 N 261.356 1.67674 4.77199 0
M  V30 2784 C 259.654 0.360404 4.44541 0
M  V30 2785 C 260.355 2.24324 5.36706 0
M  V30 2786 N 259.331 1.53305 5.21535 0
M  V30 2787 H 263.133 1.2489 2.66045 0
M  V30 2788 H 260.647 0.779864 1.4245 0
M  V30 2789 H 262.644 -0.7509 4.10082 0
M  V30 2790 H 261.304 -1.20469 3.01525 0
M  V30 2791 H 262.315 2.05915 4.75204 0
M  V30 2792 H 258.992 -0.450454 4.15063 0
M  V30 2793 H 260.382 3.18521 5.91603 0
M  V30 2794 N 263.102 -1.41638 0.69111 0
M  V30 2795 C 264.035 -2.28183 -0.0274913 0
M  V30 2796 C 265.013 -1.41984 -0.792424 0
M  V30 2797 O 266.197 -1.71415 -0.784169 0
M  V30 2798 C 263.324 -3.22135 -1.04628 0
M  V30 2799 C 262.37 -4.24848 -0.375037 0
M  V30 2800 S 263.203 -5.28231 0.879321 0
M  V30 2801 C 264.359 -6.25748 -0.137983 0
M  V30 2802 H 264.592 -2.88782 0.706553 0
M  V30 2803 H 262.125 -1.46709 0.481222 0
M  V30 2804 H 264.083 -3.76797 -1.62894 0
M  V30 2805 H 262.744 -2.6064 -1.75287 0
M  V30 2806 H 261.937 -4.90837 -1.14433 0
M  V30 2807 H 261.539 -3.73758 0.134434 0
M  V30 2808 H 263.831 -6.70188 -0.992659 0
M  V30 2809 H 264.774 -7.06417 0.487867 0
M  V30 2810 H 265.182 -5.62363 -0.490762 0
M  V30 2811 N 264.58 -0.43555 -1.51462 0
M  V30 2812 C 265.53 0.394701 -2.24558 0
M  V30 2813 C 266.514 0.99157 -1.26715 0
M  V30 2814 O 267.706 0.910007 -1.51815 0
M  V30 2815 C 264.835 1.4963 -3.08975 0
M  V30 2816 C 263.921 0.908912 -4.14246 0
M  V30 2817 N 264.312 0.0505335 -5.05775 0
M  V30 2818 C 262.61 1.17668 -4.30198 0
M  V30 2819 C 263.311 -0.279161 -5.8103 0
M  V30 2820 N 262.287 0.336767 -5.42556 0
M  V30 2821 H 266.089 -0.267106 -2.92684 0
M  V30 2822 H 263.603 -0.247518 -1.60503 0
M  V30 2823 H 265.6 2.10394 -3.59917 0
M  V30 2824 H 264.26 2.16046 -2.42393 0
M  V30 2825 H 265.271 -0.31577 -5.16936 0
M  V30 2826 H 261.948 1.83847 -3.74842 0
M  V30 2827 H 263.338 -0.977553 -6.64751 0
M  V30 2828 N 266.058 1.56714 -0.166846 0
M  V30 2829 C 266.988 2.20754 0.760913 0
M  V30 2830 C 267.969 1.16178 1.24244 0
M  V30 2831 O 269.154 1.44592 1.29641 0
M  V30 2832 C 266.284 2.84478 1.99223 0
M  V30 2833 C 265.238 3.95053 1.64672 0
M  V30 2834 C 264.564 4.45805 2.95232 0
M  V30 2835 C 265.864 5.14865 0.878155 0
M  V30 2836 H 267.558 2.98537 0.22713 0
M  V30 2837 H 265.104 1.43596 0.107805 0
M  V30 2838 H 267.057 3.27951 2.64624 0
M  V30 2839 H 265.781 2.04056 2.55007 0
M  V30 2840 H 264.44 3.52228 1.01641 0
M  V30 2841 H 264.088 3.62181 3.49047 0
M  V30 2842 H 263.788 5.204 2.7287 0
M  V30 2843 H 265.312 4.91962 3.6167 0
M  V30 2844 H 266.726 5.55059 1.43466 0
M  V30 2845 H 265.123 5.95348 0.753738 0
M  V30 2846 H 266.193 4.84735 -0.126377 0
M  V30 2847 N 267.536 -0.106894 1.57237 0
M  V30 2848 C 268.783 -0.812526 1.85484 0
M  V30 2849 C 269.111 -1.79304 0.753687 0
M  V30 2850 O 268.366 -1.94047 -0.253853 0
M  V30 2851 C 268.665 -1.58628 3.20268 0
M  V30 2852 C 268.331 -0.748967 4.44636 0
M  V30 2853 C 266.993 -0.518104 4.78403 0
M  V30 2854 C 269.345 -0.166122 5.20935 0
M  V30 2855 C 266.673 0.305659 5.85903 0
M  V30 2856 C 269.025 0.644899 6.29304 0
M  V30 2857 C 267.689 0.885965 6.61594 0
M  V30 2858 H 266.959 -0.297324 0.678734 0
M  V30 2859 H 269.606 -0.0744332 1.91355 0
M  V30 2860 H 267.911 -2.39562 3.10028 0
M  V30 2861 H 269.608 -2.13643 3.39349 0
M  V30 2862 H 266.198 -0.939006 4.18187 0
M  V30 2863 H 270.382 -0.33167 4.95191 0
M  V30 2864 H 265.638 0.501528 6.0934 0
M  V30 2865 H 269.812 1.10345 6.87602 0
M  V30 2866 H 267.439 1.52609 7.44725 0
M  V30 2867 N 269.014 -1.53014 -0.377408 0
M  V30 2868 C 270.26 -1.68872 -1.12294 0
M  V30 2869 C 270.593 -0.433224 -1.89306 0
M  V30 2870 O 269.868 0.569258 -1.85983 0
M  V30 2871 C 270.151 -2.93115 -2.09179 0
M  V30 2872 C 270.004 -4.28794 -1.35853 0
M  V30 2873 C 271.323 -3.12928 -3.09458 0
M  V30 2874 H 268.442 -0.614518 -0.406862 0
M  V30 2875 H 271.084 -1.85633 -0.40503 0
M  V30 2876 H 269.234 -2.78956 -2.70399 0
M  V30 2877 H 270.906 -4.54742 -0.775082 0
M  V30 2878 H 269.149 -4.28744 -0.660364 0
M  V30 2879 H 269.82 -5.11837 -2.06706 0
M  V30 2880 H 272.296 -3.26194 -2.58334 0
M  V30 2881 H 271.172 -4.01316 -3.74482 0
M  V30 2882 H 271.433 -2.27669 -3.78971 0
M  V30 2883 N 270.492 0.636531 -1.44174 0
M  V30 2884 C 271.717 1.42847 -1.50364 0
M  V30 2885 C 272.142 1.87665 -0.127867 0
M  V30 2886 O 271.5 1.58408 0.88185 0
M  V30 2887 C 271.548 2.62854 -2.4686 0
M  V30 2888 O 270.652 3.62501 -1.9664 0
M  V30 2889 H 269.993 0.427642 -0.507955 0
M  V30 2890 H 272.523 0.777422 -1.89255 0
M  V30 2891 H 272.533 3.10465 -2.64718 0
M  V30 2892 H 271.208 2.29578 -3.46795 0
M  V30 2893 H 269.785 3.21735 -1.88523 0
M  V30 2894 N 271.97 1.30982 0.876444 0
M  V30 2895 C 273.217 1.20296 1.62896 0
M  V30 2896 C 273.545 -0.240395 1.93009 0
M  V30 2897 O 272.8 -1.18733 1.55567 0
M  V30 2898 C 273.099 1.98572 2.9716 0
M  V30 2899 C 272.765 3.48125 2.86566 0
M  V30 2900 C 271.427 3.88905 2.83383 0
M  V30 2901 C 273.779 4.43322 2.74071 0
M  V30 2902 C 271.107 5.2316 2.65556 0
M  V30 2903 C 273.459 5.77695 2.57781 0
M  V30 2904 C 272.123 6.17704 2.52979 0
M  V30 2905 H 271.393 0.440193 0.59608 0
M  V30 2906 H 274.04 1.62177 1.01837 0
M  V30 2907 H 272.345 1.49352 3.62217 0
M  V30 2908 H 274.042 1.8769 3.54364 0
M  V30 2909 H 270.632 3.15723 2.89856 0
M  V30 2910 H 274.816 4.12752 2.75589 0
M  V30 2911 H 270.072 5.53241 2.60259 0
M  V30 2912 H 274.246 6.51091 2.47089 0
M  V30 2913 H 271.873 7.21678 2.38924 0
M  V30 2914 N 273.449 -1.08991 1.13837 0
M  V30 2915 C 274.698 -1.80631 0.897509 0
M  V30 2916 C 275.011 -1.86872 -0.57777 0
M  V30 2917 O 276.217 -2.54866 -0.935701 0
M  V30 2918 C 274.673 -3.24517 1.55618 0
M  V30 2919 C 274.281 -3.26529 3.0673 0
M  V30 2920 C 276.025 -4.00882 1.3962 0
M  V30 2921 C 273.932 -4.64965 3.65461 0
M  V30 2922 H 272.862 -0.67691 0.332129 0
M  V30 2923 H 275.513 -1.2246 1.3666 0
M  V30 2924 H 273.895 -3.82778 1.01476 0
M  V30 2925 H 275.069 -2.78008 3.67489 0
M  V30 2926 H 273.384 -2.63656 3.22296 0
M  V30 2927 H 275.981 -5.03167 1.80906 0
M  V30 2928 H 276.324 -4.14896 0.341578 0
M  V30 2929 H 276.857 -3.49075 1.90766 0
M  V30 2930 H 273.596 -4.56153 4.70749 0
M  V30 2931 H 273.116 -5.13792 3.09481 0
M  V30 2932 H 274.795 -5.3394 3.654 0
M  V30 2933 N 274.927 -0.932562 -1.27047 0
M  V30 2934 C 275.857 -0.452902 -2.29066 0
M  V30 2935 C 276.838 0.489338 -1.62909 0
M  V30 2936 O 278.023 0.393046 -1.90181 0
M  V30 2937 C 275.153 0.290698 -3.46081 0
M  V30 2938 C 274.107 -0.564168 -4.24265 0
M  V30 2939 C 273.433 0.308886 -5.33807 0
M  V30 2940 C 274.733 -1.83112 -4.89149 0
M  V30 2941 H 276.427 -1.30552 -2.69437 0
M  V30 2942 H 273.973 -0.629201 -1.29526 0
M  V30 2943 H 275.926 0.637233 -4.16554 0
M  V30 2944 H 274.65 1.17738 -3.0464 0
M  V30 2945 H 273.309 -0.893477 -3.55545 0
M  V30 2946 H 272.957 1.19467 -4.88607 0
M  V30 2947 H 272.657 -0.259633 -5.87026 0
M  V30 2948 H 274.181 0.650884 -6.07121 0
M  V30 2949 H 275.595 -1.55236 -5.51883 0
M  V30 2950 H 273.992 -2.34353 -5.52448 0
M  V30 2951 H 275.062 -2.54772 -4.12576 0
M  V30 2952 N 276.405 1.4127 -0.698611 0
M  V30 2953 C 277.821 1.55241 -0.370462 0
M  V30 2954 C 278.021 1.67351 1.12231 0
M  V30 2955 O 277.077 1.65363 1.90818 0
M  V30 2956 C 278.39 2.78997 -1.12165 0
M  V30 2957 C 279.938 2.92797 -1.1063 0
M  V30 2958 C 280.413 4.19445 -1.8393 0
M  V30 2959 N 281.904 4.26409 -1.80914 0
M  V30 2960 C 282.639 5.23271 -2.34467 0
M  V30 2961 N 282.135 6.26145 -2.96504 0
M  V30 2962 N 283.928 5.15232 -2.24706 0
M  V30 2963 H 276.079 1.31654 -1.66676 0
M  V30 2964 H 278.342 0.635393 -0.703548 0
M  V30 2965 H 278.048 2.76268 -2.17644 0
M  V30 2966 H 277.922 3.70606 -0.702209 0
M  V30 2967 H 280.309 2.95039 -0.0597713 0
M  V30 2968 H 280.39 2.02353 -1.56483 0
M  V30 2969 H 280.034 4.17964 -2.88563 0
M  V30 2970 H 279.964 5.08866 -1.35509 0
M  V30 2971 H 282.455 3.527 -1.35687 0
M  V30 2972 H 282.768 6.96451 -3.34927 0
M  V30 2973 H 281.113 6.26638 -3.00583 0
M  V30 2974 H 284.304 4.33789 -1.7591 0
M  V30 2975 H 284.477 5.90552 -2.66745 0
M  V30 2976 N 277.883 0.443576 1.51229 0
M  V30 2977 C 278.846 -0.353132 2.26463 0
M  V30 2978 C 279.846 -0.944338 1.3015 0
M  V30 2979 O 281.036 -0.817813 1.5381 0
M  V30 2980 C 278.168 -1.50023 3.06114 0
M  V30 2981 H 279.361 0.3063 2.98332 0
M  V30 2982 H 276.914 0.196902 1.55055 0
M  V30 2983 H 277.649 -2.19553 2.38677 0
M  V30 2984 H 277.434 -1.08241 3.76864 0
M  V30 2985 H 278.924 -2.06296 3.63087 0
M  V30 2986 N 279.361 -1.56624 0.175154 0
M  V30 2987 C 280.291 -2.21155 -0.749195 0
M  V30 2988 C 281.272 -1.16836 -1.23626 0
M  V30 2989 O 282.457 -1.45277 -1.28873 0
M  V30 2990 C 279.587 -2.8553 -1.97711 0
M  V30 2991 C 278.541 -3.95921 -1.62575 0
M  V30 2992 C 277.867 -4.47365 -2.92864 0
M  V30 2993 C 279.167 -5.15323 -0.850838 0
M  V30 2994 H 280.861 -2.98653 -0.211295 0
M  V30 2995 H 278.407 -1.43651 -0.100188 0
M  V30 2996 H 280.36 -3.2935 -2.62881 0
M  V30 2997 H 279.084 -2.05406 -2.53921 0
M  V30 2998 H 277.743 -3.52762 -0.997719 0
M  V30 2999 H 277.391 -3.64027 -3.47122 0
M  V30 3000 H 277.091 -5.21839 -2.70106 0
M  V30 3001 H 278.615 -4.93873 -3.59056 0
M  V30 3002 H 280.029 -5.55812 -1.40521 0
M  V30 3003 H 278.426 -5.95739 -0.722154 0
M  V30 3004 H 279.496 -4.84661 0.152082 0
M  V30 3005 N 280.839 0.0985539 -1.57292 0
M  V30 3006 C 282.064 0.820196 -1.90493 0
M  V30 3007 C 282.489 1.71658 -0.769094 0
M  V30 3008 O 281.847 1.79133 0.279495 0
M  V30 3009 C 281.895 1.61242 -3.22542 0
M  V30 3010 O 280.999 2.72108 -3.09888 0
M  V30 3011 H 280.34 0.225547 -0.62452 0
M  V30 3012 H 282.87 0.0748159 -2.04463 0
M  V30 3013 H 282.88 1.99737 -3.55766 0
M  V30 3014 H 281.555 0.954535 -4.04798 0
M  V30 3015 H 280.132 2.36667 -2.88172 0
M  V30 3016 N 282.317 1.53212 0.369288 0
M  V30 3017 C 283.265 1.80054 1.47253 0
M  V30 3018 C 284.259 0.669456 1.55611 0
M  V30 3019 O 285.465 0.852328 1.58541 0
M  V30 3020 H 281.84 0.570034 0.490475 0
M  V30 3021 H 283.811 2.72403 1.21817 0
M  V30 3022 C 282.56 2.00403 2.84137 0
M  V30 3023 H 281.883 2.86876 2.78464 0
M  V30 3024 H 283.323 2.23164 3.60519 0
M  V30 3025 C 281.782 0.782081 3.27697 0
M  V30 3026 O 282.312 -0.0310205 4.01688 0
M  V30 3027 N 280.518 0.606573 2.84199 0
M  V30 3028 H 280.065 1.26939 2.24152 0
M  V30 3029 H 280.023 -0.20962 3.137 0
M  V30 3030 N 283.795 -0.628877 1.44509 0
M  V30 3031 C 285.042 -1.38839 1.47411 0
M  V30 3032 C 285.37 -1.94202 0.10757 0
M  V30 3033 O 284.625 -1.74243 -0.890947 0
M  V30 3034 C 284.924 -2.56995 2.48371 0
M  V30 3035 C 284.59 -2.19908 3.93639 0
M  V30 3036 C 283.252 -2.09506 4.33198 0
M  V30 3037 C 285.604 -1.9064 4.85083 0
M  V30 3038 C 282.932 -1.68028 5.62124 0
M  V30 3039 C 285.284 -1.50655 6.14399 0
M  V30 3040 C 283.948 -1.38796 6.5291 0
M  V30 3041 H 283.218 -0.508048 0.539414 0
M  V30 3042 H 285.865 -0.712913 1.77735 0
M  V30 3043 H 284.17 -3.29786 2.11538 0
M  V30 3044 H 285.867 -3.15223 2.47861 0
M  V30 3045 H 282.457 -2.28922 3.62343 0
M  V30 3046 H 286.641 -1.97585 4.55273 0
M  V30 3047 H 281.897 -1.57452 5.90778 0
M  V30 3048 H 286.071 -1.27048 6.84713 0
M  V30 3049 H 283.698 -1.06429 7.52713 0
M  V30 3050 N 285.273 -1.31445 -0.869486 0
M  V30 3051 C 286.522 -1.20517 -1.61736 0
M  V30 3052 C 286.835 0.235341 -1.94179 0
M  V30 3053 O 288.041 0.466312 -2.67465 0
M  V30 3054 C 286.497 -2.10982 -2.91573 0
M  V30 3055 C 286.105 -3.60032 -2.66611 0
M  V30 3056 C 287.849 -2.08856 -3.69567 0
M  V30 3057 C 285.756 -4.42503 -3.92358 0
M  V30 3058 H 284.686 -0.447493 -0.606849 0
M  V30 3059 H 287.337 -1.56303 -0.96133 0
M  V30 3060 H 285.719 -1.68095 -3.58553 0
M  V30 3061 H 286.893 -4.11167 -2.08035 0
M  V30 3062 H 285.208 -3.64139 -2.0197 0
M  V30 3063 H 287.805 -2.67716 -4.62852 0
M  V30 3064 H 288.148 -1.07582 -4.02159 0
M  V30 3065 H 288.681 -2.49945 -3.09471 0
M  V30 3066 H 285.42 -5.44533 -3.64916 0
M  V30 3067 H 284.94 -3.96125 -4.50383 0
M  V30 3068 H 286.619 -4.54741 -4.60238 0
M  V30 3069 N 286.751 1.08385 -1.14413 0
M  V30 3070 C 287.698 2.15311 -0.831265 0
M  V30 3071 C 288.668 1.64751 0.211292 0
M  V30 3072 O 289.853 1.90627 0.0811674 0
M  V30 3073 C 286.993 3.43658 -0.315143 0
M  V30 3074 C 286.106 4.08064 -1.41802 0
M  V30 3075 C 285.241 5.24207 -0.859126 0
M  V30 3076 C 284.28 5.80554 -1.93967 0
M  V30 3077 N 283.417 6.88042 -1.39793 0
M  V30 3078 H 288.257 2.41415 -1.74708 0
M  V30 3079 H 285.794 1.18474 -0.871909 0
M  V30 3080 H 287.752 4.172 0.00230884 0
M  V30 3081 H 286.382 3.17839 0.56378 0
M  V30 3082 H 285.434 3.3228 -1.85187 0
M  V30 3083 H 286.746 4.45962 -2.23427 0
M  V30 3084 H 285.9 6.04689 -0.49359 0
M  V30 3085 H 284.639 4.87699 -0.011932 0
M  V30 3086 H 283.644 4.98725 -2.31415 0
M  V30 3087 H 284.869 6.19121 -2.79046 0
M  V30 3088 H 282.815 6.53493 -0.572919 0
M  V30 3089 H 282.732 7.24767 -2.15054 0
M  V30 3090 H 284 7.72255 -1.0603 0
M  V30 3091 N 288.23 0.939286 1.26551 0
M  V30 3092 C 289.507 0.5038 1.89001 0
M  V30 3093 C 289.887 -1.01854 1.84903 0
M  V30 3094 O 289.235 -1.87773 1.30206 0
M  V30 3095 C 289.445 1.063 3.32417 0
M  V30 3096 C 290.793 1.13051 4.09273 0
M  V30 3097 O 291.817 1.01345 3.41479 0
M  V30 3098 O 290.676 1.31233 5.30509 0
M  V30 3099 H 287.77 0.163897 0.810597 0
M  V30 3100 H 290.316 1.03173 1.34735 0
M  V30 3101 H 289.088 2.10665 3.29752 0
M  V30 3102 H 288.711 0.517408 3.94219 0
M  V30 3103 N 289.708 -1.40897 0.706093 0
M  V30 3104 C 290.671 -2.29131 0.0562841 0
M  V30 3105 C 291.671 -1.44901 -0.697166 0
M  V30 3106 O 292.861 -1.65926 -0.530484 0
M  V30 3107 C 289.993 -3.27957 -0.93043 0
M  V30 3108 H 291.186 -2.88091 0.833284 0
M  V30 3109 H 288.739 -1.4906 0.470192 0
M  V30 3110 H 289.474 -2.73997 -1.73482 0
M  V30 3111 H 289.259 -3.90124 -0.393166 0
M  V30 3112 H 290.749 -3.94049 -1.38256 0
M  V30 3113 N 291.186 -0.45159 -1.50991 0
M  V30 3114 C 292.432 0.110237 -2.025 0
M  V30 3115 C 292.765 1.41109 -1.33424 0
M  V30 3116 O 292.04 1.89135 -0.453659 0
M  V30 3117 C 292.323 0.314271 -3.58726 0
M  V30 3118 C 292.176 -1.00623 -4.38401 0
M  V30 3119 C 293.495 1.07767 -4.26702 0
M  V30 3120 H 290.614 0.0385897 -0.735989 0
M  V30 3121 H 293.256 -0.593374 -1.80497 0
M  V30 3122 H 291.406 0.913601 -3.77605 0
M  V30 3123 H 293.078 -1.64064 -4.31139 0
M  V30 3124 H 291.321 -1.6075 -4.02917 0
M  V30 3125 H 291.992 -0.817341 -5.45915 0
M  V30 3126 H 294.468 0.56986 -4.12179 0
M  V30 3127 H 293.344 1.18921 -5.35863 0
M  V30 3128 H 293.605 2.10939 -3.88532 0
M  V30 3129 N 292.664 1.56529 -0.183458 0
M  V30 3130 C 293.594 2.21549 0.737456 0
M  V30 3131 C 294.575 1.17489 1.23005 0
M  V30 3132 O 295.76 1.45959 1.281 0
M  V30 3133 C 292.89 2.86575 1.96194 0
M  V30 3134 C 291.844 3.96778 1.60473 0
M  V30 3135 C 291.17 4.48911 2.90487 0
M  V30 3136 C 292.47 5.15767 0.823497 0
M  V30 3137 H 294.164 2.98761 0.195453 0
M  V30 3138 H 291.71 1.43702 0.0925686 0
M  V30 3139 H 293.663 3.30739 2.61131 0
M  V30 3140 H 292.387 2.06749 2.52828 0
M  V30 3141 H 291.046 3.53286 0.978997 0
M  V30 3142 H 290.694 3.65862 3.45186 0
M  V30 3143 H 290.394 5.23265 2.67335 0
M  V30 3144 H 291.918 4.95771 3.56432 0
M  V30 3145 H 293.332 5.56549 1.37571 0
M  V30 3146 H 291.729 5.96114 0.690551 0
M  V30 3147 H 292.799 4.84574 -0.177782 0
M  V30 3148 N 294.142 -0.090211 1.57342 0
M  V30 3149 C 295.389 -0.792807 1.86335 0
M  V30 3150 C 295.717 -1.78494 0.772662 0
M  V30 3151 O 294.972 -1.94305 -0.233258 0
M  V30 3152 C 295.271 -1.55222 3.21933 0
M  V30 3153 C 294.937 -0.701765 4.45406 0
M  V30 3154 C 293.599 -0.467334 4.78925 0
M  V30 3155 C 295.951 -0.11086 5.21082 0
M  V30 3156 C 293.279 0.367785 5.85546 0
M  V30 3157 C 295.631 0.711609 6.28585 0
M  V30 3158 C 294.295 0.956086 6.60617 0
M  V30 3159 H 293.565 -0.290109 0.681849 0
M  V30 3160 H 296.212 -0.0541332 1.91423 0
M  V30 3161 H 294.517 -2.3626 3.12551 0
M  V30 3162 H 296.214 -2.10032 3.41595 0
M  V30 3163 H 292.804 -0.894598 4.1916 0
M  V30 3164 H 296.988 -0.279129 4.95514 0
M  V30 3165 H 292.244 0.566128 6.08773 0
M  V30 3166 H 296.418 1.17632 6.86393 0
M  V30 3167 H 294.045 1.60499 7.43064 0
M  V30 3168 N 295.62 -1.53406 -0.361157 0
M  V30 3169 C 296.845 -1.74024 -1.12829 0
M  V30 3170 C 297.27 -0.470069 -1.82132 0
M  V30 3171 O 296.628 0.57619 -1.719 0
M  V30 3172 C 296.676 -2.90903 -2.13091 0
M  V30 3173 O 295.78 -2.59821 -3.20261 0
M  V30 3174 H 295.121 -0.577804 -0.327168 0
M  V30 3175 H 297.651 -2.00307 -0.41693 0
M  V30 3176 H 297.661 -3.17194 -2.56616 0
M  V30 3177 H 296.336 -3.83034 -1.62042 0
M  V30 3178 H 294.913 -2.44362 -2.81677 0
M  V30 3179 N 297.098 0.621204 -1.44841 0
M  V30 3180 C 298.323 1.41244 -1.51871 0
M  V30 3181 C 298.748 1.87519 -0.147764 0
M  V30 3182 O 298.106 1.59334 0.865 0
M  V30 3183 C 298.154 2.60221 -2.49634 0
M  V30 3184 O 297.258 3.60395 -2.00473 0
M  V30 3185 H 296.599 0.42223 -0.512463 0
M  V30 3186 H 299.129 0.757305 -1.90069 0
M  V30 3187 H 299.139 3.0764 -2.67996 0
M  V30 3188 H 297.814 2.25887 -3.4921 0
M  V30 3189 H 296.391 3.19717 -1.91925 0
M  V30 3190 N 298.576 1.31904 0.862503 0
M  V30 3191 C 299.853 1.12644 1.59908 0
M  V30 3192 C 300.233 -0.316104 2.0872 0
M  V30 3193 O 299.581 -1.31145 1.87118 0
M  V30 3194 C 299.791 2.1472 2.7513 0
M  V30 3195 C 301.139 2.47637 3.44907 0
M  V30 3196 O 302.163 2.13205 2.85346 0
M  V30 3197 O 301.022 3.06632 4.52371 0
M  V30 3198 H 298.116 0.43416 0.703871 0
M  V30 3199 H 300.662 1.43408 0.907314 0
M  V30 3200 H 299.434 3.1172 2.3653 0
M  V30 3201 H 299.057 1.84905 3.51989 0
M  V30 3202 N 300.054 -1.07777 1.14986 0
M  V30 3203 C 301.331 -1.7699 0.832695 0
M  V30 3204 C 301.711 -2.001 -0.672561 0
M  V30 3205 O 301.059 -1.61598 -1.6155 0
M  V30 3206 C 301.269 -3.08139 1.63863 0
M  V30 3207 C 302.617 -3.8256 1.84208 0
M  V30 3208 O 303.641 -3.17939 1.60603 0
M  V30 3209 O 302.5 -4.98612 2.23714 0
M  V30 3210 H 299.594 -0.768389 0.305791 0
M  V30 3211 H 302.14 -1.14182 1.25541 0
M  V30 3212 H 300.912 -2.86909 2.6608 0
M  V30 3213 H 300.535 -3.78678 1.21197 0
M  V30 3214 N 301.532 -0.945985 -1.26051 0
M  V30 3215 C 302.778 -0.597002 -1.93814 0
M  V30 3216 C 303.111 0.862484 -1.73997 0
M  V30 3217 O 302.386 1.61769 -1.07986 0
M  V30 3218 C 302.669 -0.945937 -3.47454 0
M  V30 3219 C 302.522 -2.46052 -3.76535 0
M  V30 3220 C 303.841 -0.464785 -4.37639 0
M  V30 3221 H 300.96 -0.218366 -0.703907 0
M  V30 3222 H 303.602 -1.18107 -1.48831 0
M  V30 3223 H 301.752 -0.448902 -3.85898 0
M  V30 3224 H 303.424 -3.03065 -3.47778 0
M  V30 3225 H 301.667 -2.90194 -3.22444 0
M  V30 3226 H 302.338 -2.65517 -4.83947 0
M  V30 3227 H 304.814 -0.891016 -4.06448 0
M  V30 3228 H 303.69 -0.737712 -5.4392 0
M  V30 3229 H 303.951 0.635274 -4.37512 0
M  V30 3230 N 303.011 1.40521 -0.713556 0
M  V30 3231 C 304.239 2.05237 -0.261775 0
M  V30 3232 C 304.654 1.53755 1.09567 0
M  V30 3233 O 304.011 0.693268 1.6882 0
M  V30 3234 C 304.062 3.60763 -0.230706 0
M  V30 3235 O 303.783 4.10345 -1.53455 0
M  V30 3236 C 305.284 4.42651 0.239874 0
M  V30 3237 H 302.504 0.660533 -0.118057 0
M  V30 3238 H 305.048 1.79967 -0.971192 0
M  V30 3239 H 303.203 3.8501 0.429661 0
M  V30 3240 H 303.617 5.04526 -1.43366 0
M  V30 3241 H 305.091 5.51599 0.210468 0
M  V30 3242 H 305.568 4.20082 1.28171 0
M  V30 3243 H 306.174 4.23507 -0.390142 0
M  V30 3244 N 304.489 0.459591 1.5075 0
M  V30 3245 C 305.719 -0.0972338 2.06371 0
M  V30 3246 C 306.127 -1.35074 1.32483 0
M  V30 3247 O 305.47 -1.79637 0.384226 0
M  V30 3248 C 305.532 -0.462759 3.56509 0
M  V30 3249 C 305.196 0.687084 4.51805 0
M  V30 3250 C 306.193 1.56578 4.95761 0
M  V30 3251 C 303.878 0.874144 4.94635 0
M  V30 3252 C 305.872 2.61604 5.81242 0
M  V30 3253 C 303.559 1.92765 5.79901 0
M  V30 3254 C 304.557 2.79697 6.23104 0
M  V30 3255 O 304.245 3.83235 7.06673 0
M  V30 3256 H 303.977 -0.00140687 0.675999 0
M  V30 3257 H 306.531 0.644011 1.95043 0
M  V30 3258 H 304.761 -1.25703 3.65699 0
M  V30 3259 H 306.45 -0.953323 3.94546 0
M  V30 3260 H 307.216 1.4329 4.6335 0
M  V30 3261 H 303.095 0.207006 4.60535 0
M  V30 3262 H 306.639 3.29489 6.14884 0
M  V30 3263 H 302.536 2.06064 6.11725 0
M  V30 3264 H 303.304 3.80084 7.24899 0
M  V30 3265 N 305.967 -1.56429 0.191757 0
M  V30 3266 C 307.207 -1.99383 -0.450099 0
M  V30 3267 C 307.571 -1.07581 -1.59029 0
M  V30 3268 O 308.772 -1.39758 -2.29611 0
M  V30 3269 C 307.043 -3.45841 -0.901611 0
M  V30 3270 S 308.602 -4.10822 -1.54177 0
M  V30 3271 H 305.42 -0.696253 -0.144057 0
M  V30 3272 H 308.022 -1.93276 0.294036 0
M  V30 3273 H 306.726 -4.10354 -0.0616596 0
M  V30 3274 H 306.257 -3.55757 -1.67929 0
M  V30 3275 H 308.272 -4.07553 -2.83046 0
M  V30 3276 N 307.445 0.0818655 -1.57387 0
M  V30 3277 C 308.722 0.815343 -1.77796 0
M  V30 3278 C 309.102 1.96289 -0.77679 0
M  V30 3279 O 308.45 2.27691 0.192106 0
M  V30 3280 C 308.66 1.29765 -3.23978 0
M  V30 3281 C 310.008 1.7351 -3.8753 0
M  V30 3282 O 311.032 1.39356 -3.27808 0
M  V30 3283 O 309.891 2.36708 -4.92576 0
M  V30 3284 H 306.985 0.389914 -0.729312 0
M  V30 3285 H 309.531 0.0627213 -1.69584 0
M  V30 3286 H 308.303 0.47608 -3.88393 0
M  V30 3287 H 307.926 2.11189 -3.36875 0
M  V30 3288 N 308.923 1.53595 0.353017 0
M  V30 3289 C 309.886 1.80232 1.41594 0
M  V30 3290 C 310.886 0.673081 1.46035 0
M  V30 3291 O 312.076 0.941335 1.46576 0
M  V30 3292 C 309.208 1.93578 2.80607 0
M  V30 3293 H 310.401 2.75174 1.19244 0
M  V30 3294 H 307.954 1.44864 0.586872 0
M  V30 3295 H 308.689 1.00746 3.08254 0
M  V30 3296 H 308.474 2.75724 2.78781 0
M  V30 3297 H 309.964 2.15735 3.57558 0
M  V30 3298 N 310.401 -0.613514 1.45168 0
M  V30 3299 C 311.351 -1.71871 1.49815 0
M  V30 3300 C 312.335 -1.56774 0.362021 0
M  V30 3301 O 313.527 -1.66212 0.608493 0
M  V30 3302 C 310.656 -3.1061 1.46207 0
M  V30 3303 C 309.742 -3.31114 2.64999 0
M  V30 3304 N 310.133 -3.21904 3.90143 0
M  V30 3305 C 308.431 -3.61966 2.6057 0
M  V30 3306 C 309.132 -3.43577 4.69393 0
M  V30 3307 N 308.108 -3.67287 4.00751 0
M  V30 3308 H 311.91 -1.63235 2.444 0
M  V30 3309 H 309.424 -0.816577 1.40377 0
M  V30 3310 H 311.421 -3.8989 1.4762 0
M  V30 3311 H 310.081 -3.20399 0.52673 0
M  V30 3312 H 311.092 -3.00436 4.21852 0
M  V30 3313 H 307.769 -3.78629 1.75916 0
M  V30 3314 H 309.159 -3.41901 5.78406 0
M  V30 3315 N 311.879 -1.3236 -0.855495 0
M  V30 3316 C 313.295 -1.11332 -1.14356 0
M  V30 3317 C 313.495 0.106751 -2.01217 0
M  V30 3318 O 312.551 0.791891 -2.39761 0
M  V30 3319 C 313.864 -2.39237 -1.82171 0
M  V30 3320 C 315.412 -2.44986 -1.9481 0
M  V30 3321 C 315.887 -3.7281 -2.66039 0
M  V30 3322 N 317.378 -3.73787 -2.73565 0
M  V30 3323 C 318.113 -4.69394 -3.29327 0
M  V30 3324 N 317.609 -5.75367 -3.85907 0
M  V30 3325 N 319.402 -4.56893 -3.27423 0
M  V30 3326 H 311.553 -2.10586 -0.277027 0
M  V30 3327 H 313.816 -0.929701 -0.185364 0
M  V30 3328 H 313.522 -3.28431 -1.25802 0
M  V30 3329 H 313.396 -2.50134 -2.82335 0
M  V30 3330 H 315.783 -1.56252 -2.50338 0
M  V30 3331 H 315.864 -2.38043 -0.936448 0
M  V30 3332 H 315.508 -4.61918 -2.11174 0
M  V30 3333 H 315.438 -3.77024 -3.67642 0
M  V30 3334 H 317.929 -2.97189 -2.33424 0
M  V30 3335 H 318.242 -6.44378 -4.26611 0
M  V30 3336 H 316.587 -5.79123 -3.84242 0
M  V30 3337 H 319.778 -3.73269 -2.82467 0
M  V30 3338 H 319.951 -5.31577 -3.7058 0
M  V30 3339 N 313.357 1.07166 -1.15556 0
M  V30 3340 C 314.32 2.12589 -0.856644 0
M  V30 3341 C 315.32 1.6015 0.14444 0
M  V30 3342 O 316.51 1.7399 -0.0854163 0
M  V30 3343 C 313.642 3.39753 -0.279405 0
M  V30 3344 H 314.835 2.40539 -1.79112 0
M  V30 3345 H 312.388 1.23086 -0.963298 0
M  V30 3346 H 313.123 3.17447 0.663174 0
M  V30 3347 H 312.908 3.79117 -1.00063 0
M  V30 3348 H 314.398 4.17507 -0.0879113 0
M  V30 3349 N 314.835 0.952656 1.25548 0
M  V30 3350 C 316.083 0.605176 1.92826 0
M  V30 3351 C 316.404 -0.860261 1.74999 0
M  V30 3352 O 315.674 -1.6125 1.11244 0
M  V30 3353 H 314.254 0.220832 0.713612 0
M  V30 3354 H 316.916 1.21047 1.52754 0
M  V30 3355 H 316.012 0.832798 3.00784 0
M  V30 3356 N 316.313 -1.40141 0.720998 0
M  V30 3357 C 317.553 -2.02644 0.267335 0
M  V30 3358 C 317.917 -1.55948 -1.12001 0
M  V30 3359 O 319.118 -2.10552 -1.67097 0
M  V30 3360 C 317.389 -3.55679 0.350281 0
M  V30 3361 S 318.948 -4.38793 -0.0256004 0
M  V30 3362 H 315.766 -0.703105 0.105664 0
M  V30 3363 H 318.368 -1.71175 0.944416 0
M  V30 3364 H 317.072 -3.87157 1.36153 0
M  V30 3365 H 316.603 -3.91883 -0.345096 0
M  V30 3366 H 318.618 -4.803 -1.24604 0
M  V30 3367 N 317.792 -0.46758 -1.50504 0
M  V30 3368 C 318.739 0.328413 -2.28452 0
M  V30 3369 C 319.709 0.990313 -1.33349 0
M  V30 3370 O 320.894 1.00343 -1.62284 0
M  V30 3371 C 318.034 1.40648 -3.15138 0
M  V30 3372 C 317.147 0.759709 -4.25267 0
M  V30 3373 C 316.282 1.81537 -4.99217 0
M  V30 3374 C 315.321 1.14866 -6.01226 0
M  V30 3375 N 314.458 2.14702 -6.68467 0
M  V30 3376 H 319.298 -0.342603 -2.96024 0
M  V30 3377 H 316.835 -0.180801 -1.45985 0
M  V30 3378 H 318.793 2.04315 -3.63746 0
M  V30 3379 H 317.423 2.04671 -2.49619 0
M  V30 3380 H 316.475 0.0105671 -3.80399 0
M  V30 3381 H 317.787 0.233243 -4.98254 0
M  V30 3382 H 316.941 2.52793 -5.51526 0
M  V30 3383 H 315.68 2.37564 -4.25928 0
M  V30 3384 H 314.685 0.42171 -5.4818 0
M  V30 3385 H 315.91 0.595334 -6.76485 0
M  V30 3386 H 313.856 2.69752 -5.97972 0
M  V30 3387 H 313.773 1.6703 -7.37317 0
M  V30 3388 H 315.041 2.85348 -7.25394 0
M  V30 3389 N 319.27 1.56325 -0.20005 0
M  V30 3390 C 320.2 2.22318 0.713916 0
M  V30 3391 C 321.181 1.18788 1.21752 0
M  V30 3392 O 322.366 1.47309 1.26545 0
M  V30 3393 C 319.496 2.88639 1.93144 0
M  V30 3394 C 318.45 3.98457 1.56255 0
M  V30 3395 C 317.776 4.51967 2.85709 0
M  V30 3396 C 319.076 5.16612 0.768747 0
M  V30 3397 H 320.77 2.98952 0.163755 0
M  V30 3398 H 318.316 1.43792 0.0773219 0
M  V30 3399 H 320.269 3.33491 2.57608 0
M  V30 3400 H 318.993 2.09419 2.50621 0
M  V30 3401 H 317.652 3.54305 0.941471 0
M  V30 3402 H 317.3 3.69503 3.41287 0
M  V30 3403 H 317 5.26071 2.6177 0
M  V30 3404 H 318.524 4.99523 3.51154 0
M  V30 3405 H 319.938 5.57977 1.3166 0
M  V30 3406 H 318.335 5.96812 0.627286 0
M  V30 3407 H 319.405 4.84358 -0.229168 0
M  V30 3408 N 320.748 -0.0735177 1.57428 0
M  V30 3409 C 321.994 -0.774145 1.87443 0
M  V30 3410 C 322.327 -1.77311 0.792103 0
M  V30 3411 O 321.602 -1.93492 -0.197793 0
M  V30 3412 C 321.885 -1.48367 3.28115 0
M  V30 3413 C 321.738 -0.501227 4.46999 0
M  V30 3414 C 323.057 -2.429 3.66998 0
M  V30 3415 H 320.176 -0.279971 0.681752 0
M  V30 3416 H 322.818 -0.0373616 1.89963 0
M  V30 3417 H 320.968 -2.11171 3.26097 0
M  V30 3418 H 322.64 0.121468 4.6114 0
M  V30 3419 H 320.883 0.183593 4.33411 0
M  V30 3420 H 321.554 -1.03526 5.42205 0
M  V30 3421 H 324.03 -1.90175 3.70098 0
M  V30 3422 H 322.906 -2.89549 4.66318 0
M  V30 3423 H 323.167 -3.27628 2.96837 0
M  V30 3424 N 322.226 -1.5378 -0.344866 0
M  V30 3425 C 323.159 -1.7649 -1.4466 0
M  V30 3426 C 324.137 -0.613954 -1.50563 0
M  V30 3427 O 325.321 -0.84896 -1.683 0
M  V30 3428 C 322.448 -1.86235 -2.82903 0
M  V30 3429 C 321.494 -3.08375 -2.94631 0
M  V30 3430 S 322.327 -4.67457 -2.61236 0
M  V30 3431 C 323.483 -4.80079 -4.0159 0
M  V30 3432 H 323.716 -2.69661 -1.2518 0
M  V30 3433 H 321.249 -1.44632 -0.540455 0
M  V30 3434 H 323.207 -1.92535 -3.62547 0
M  V30 3435 H 321.868 -0.940786 -2.9968 0
M  V30 3436 H 321.061 -3.11865 -3.95925 0
M  V30 3437 H 320.663 -3.00294 -2.22934 0
M  V30 3438 H 322.955 -4.61407 -4.96094 0
M  V30 3439 H 323.898 -5.82168 -4.03095 0
M  V30 3440 H 324.306 -4.08544 -3.89554 0
M  V30 3441 N 323.704 0.605807 -1.45491 0
M  V30 3442 C 324.95 1.36679 -1.49823 0
M  V30 3443 C 325.283 1.93693 -0.140175 0
M  V30 3444 O 324.558 1.75158 0.845581 0
M  V30 3445 C 324.841 2.51337 -2.57879 0
M  V30 3446 C 324.694 1.99508 -4.03134 0
M  V30 3447 C 326.013 3.53463 -2.62205 0
M  V30 3448 H 323.132 0.495617 -0.545466 0
M  V30 3449 H 325.774 0.682732 -1.7731 0
M  V30 3450 H 323.924 3.09691 -2.34571 0
M  V30 3451 H 325.596 1.45789 -4.37656 0
M  V30 3452 H 323.839 1.30496 -4.13707 0
M  V30 3453 H 324.51 2.82169 -4.74431 0
M  V30 3454 H 326.986 3.04953 -2.83095 0
M  V30 3455 H 325.862 4.31178 -3.39672 0
M  V30 3456 H 326.123 4.09197 -1.67363 0
M  V30 3457 N 325.182 1.32811 0.848464 0
M  V30 3458 C 326.112 1.24882 1.97299 0
M  V30 3459 C 327.093 0.131357 1.69592 0
M  V30 3460 O 328.278 0.319553 1.91553 0
M  V30 3461 C 325.408 0.97746 3.33261 0
M  V30 3462 C 324.362 2.05682 3.75338 0
M  V30 3463 C 323.688 1.63777 5.09 0
M  V30 3464 C 324.988 3.47254 3.90144 0
M  V30 3465 H 326.682 2.18966 2.04191 0
M  V30 3466 H 324.228 1.05413 0.981029 0
M  V30 3467 H 326.181 0.908513 4.1149 0
M  V30 3468 H 324.905 0.000980011 3.266 0
M  V30 3469 H 323.564 2.11603 2.99366 0
M  V30 3470 H 323.212 0.648569 4.98801 0
M  V30 3471 H 322.912 2.36 5.38124 0
M  V30 3472 H 324.436 1.5833 5.89715 0
M  V30 3473 H 325.85 3.43888 4.58709 0
M  V30 3474 H 324.247 4.1788 4.30693 0
M  V30 3475 H 325.317 3.86462 2.92874 0
M  V30 3476 N 326.66 -1.06551 1.16123 0
M  V30 3477 C 327.907 -1.79302 0.941126 0
M  V30 3478 C 328.235 -1.87105 -0.531235 0
M  V30 3479 O 327.49 -1.35692 -1.41018 0
M  V30 3480 C 327.789 -3.23911 1.51052 0
M  V30 3481 C 327.455 -3.36193 3.00475 0
M  V30 3482 C 326.117 -3.39252 3.41265 0
M  V30 3483 C 328.469 -3.38326 3.96465 0
M  V30 3484 C 325.797 -3.42057 4.76669 0
M  V30 3485 C 328.149 -3.4267 5.31752 0
M  V30 3486 C 326.813 -3.4401 5.72026 0
M  V30 3487 H 326.083 -0.656111 0.344382 0
M  V30 3488 H 328.73 -1.25325 1.44796 0
M  V30 3489 H 327.035 -3.80723 0.925063 0
M  V30 3490 H 328.732 -3.78793 1.31593 0
M  V30 3491 H 325.322 -3.34516 2.6795 0
M  V30 3492 H 329.506 -3.35176 3.6602 0
M  V30 3493 H 324.762 -3.41398 5.07206 0
M  V30 3494 H 328.936 -3.43268 6.05921 0
M  V30 3495 H 326.563 -3.45937 6.76928 0
M  V30 3496 N 328.138 -0.959301 -1.25041 0
M  V30 3497 C 329.07 -0.440543 -2.24926 0
M  V30 3498 C 330.083 0.446131 -1.56568 0
M  V30 3499 O 331.272 0.253657 -1.76689 0
M  V30 3500 C 328.372 0.38412 -3.36716 0
M  V30 3501 C 327.545 -0.490658 -4.34639 0
M  V30 3502 C 326.604 0.276587 -5.25473 0
M  V30 3503 O 325.63 -0.326614 -5.68262 0
M  V30 3504 N 326.832 1.56844 -5.5891 0
M  V30 3505 H 329.597 -1.29931 -2.70071 0
M  V30 3506 H 327.158 -0.830181 -1.38995 0
M  V30 3507 H 329.15 0.905228 -3.94446 0
M  V30 3508 H 327.72 1.14377 -2.90924 0
M  V30 3509 H 326.94 -1.19282 -3.7572 0
M  V30 3510 H 328.228 -1.08756 -4.97041 0
M  V30 3511 H 327.626 2.08036 -5.26059 0
M  V30 3512 H 326.183 2.03541 -6.19205 0
M  V30 3513 N 329.616 1.39756 -0.72842 0
M  V30 3514 C 330.846 2.04651 -0.283117 0
M  V30 3515 C 331.254 1.5502 1.08469 0
M  V30 3516 O 330.597 0.707343 1.69536 0
M  V30 3517 C 330.659 3.58947 -0.199309 0
M  V30 3518 C 330.323 4.31525 -1.5045 0
M  V30 3519 C 331.32 4.5861 -2.44894 0
M  V30 3520 C 329.005 4.70195 -1.76698 0
M  V30 3521 C 330.999 5.23366 -3.63822 0
M  V30 3522 C 328.686 5.3468 -2.95906 0
M  V30 3523 C 329.684 5.61198 -3.89289 0
M  V30 3524 O 329.372 6.24347 -5.06404 0
M  V30 3525 H 329.104 0.664777 -0.122666 0
M  V30 3526 H 331.658 1.79913 -0.990987 0
M  V30 3527 H 329.888 3.82556 0.56461 0
M  V30 3528 H 331.577 4.0534 0.213125 0
M  V30 3529 H 332.343 4.29187 -2.25883 0
M  V30 3530 H 328.222 4.48916 -1.04859 0
M  V30 3531 H 331.766 5.4398 -4.36728 0
M  V30 3532 H 327.663 5.63524 -3.14819 0
M  V30 3533 H 328.431 6.42842 -5.06652 0
M  V30 3534 N 331.094 0.475555 1.50254 0
M  V30 3535 C 332.334 -0.0765802 2.04256 0
M  V30 3536 C 332.698 -1.36587 1.34937 0
M  V30 3537 O 333.899 -2.00066 1.79519 0
M  V30 3538 C 332.17 -0.251668 3.56513 0
M  V30 3539 S 333.729 -0.761716 4.32138 0
M  V30 3540 H 330.547 -0.0138456 0.710865 0
M  V30 3541 H 333.149 0.643714 1.84598 0
M  V30 3542 H 331.853 0.692404 4.04517 0
M  V30 3543 H 331.384 -0.997946 3.80532 0
M  V30 3544 H 333.399 -2.03451 4.52573 0
M  V30 3545 N 332.573 -1.56217 0.208337 0
M  V30 3546 C 333.822 -1.97124 -0.427204 0
M  V30 3547 C 334.135 -1.09859 -1.61835 0
M  V30 3548 O 335.341 -1.40606 -2.32255 0
M  V30 3549 C 333.797 -3.50633 -0.811442 0
M  V30 3550 C 333.405 -4.46582 0.35615 0
M  V30 3551 C 335.149 -4.00282 -1.41332 0
M  V30 3552 C 333.056 -5.91379 -0.0497852 0
M  V30 3553 H 331.986 -0.736086 -0.163381 0
M  V30 3554 H 334.637 -1.8099 0.302456 0
M  V30 3555 H 333.019 -3.62319 -1.59815 0
M  V30 3556 H 334.193 -4.46636 1.1337 0
M  V30 3557 H 332.508 -4.07202 0.870396 0
M  V30 3558 H 335.105 -5.0595 -1.72972 0
M  V30 3559 H 335.448 -3.45359 -2.32449 0
M  V30 3560 H 335.981 -3.91764 -0.690323 0
M  V30 3561 H 332.72 -6.50255 0.827529 0
M  V30 3562 H 332.24 -5.94549 -0.791926 0
M  V30 3563 H 333.919 -6.45209 -0.481042 0
M  V30 3564 N 334.051 0.0651679 -1.57465 0
M  V30 3565 C 334.984 1.10876 -1.99453 0
M  V30 3566 C 335.962 1.37205 -0.872555 0
M  V30 3567 O 337.146 1.50468 -1.13542 0
M  V30 3568 C 334.273 2.45167 -2.3369 0
M  V30 3569 C 333.319 2.3493 -3.55964 0
M  V30 3570 S 334.152 1.73708 -5.06543 0
M  V30 3571 C 335.308 3.09563 -5.43987 0
M  V30 3572 H 335.541 0.750967 -2.87659 0
M  V30 3573 H 333.074 0.273933 -1.51951 0
M  V30 3574 H 335.032 3.22412 -2.54088 0
M  V30 3575 H 333.693 2.78105 -1.46001 0
M  V30 3576 H 332.886 3.3398 -3.77457 0
M  V30 3577 H 332.488 1.65823 -3.3523 0
M  V30 3578 H 334.78 4.05882 -5.42463 0
M  V30 3579 H 335.723 2.92843 -6.44708 0
M  V30 3580 H 336.131 3.10474 -4.71451 0
M  V30 3581 N 335.529 1.53961 0.336706 0
M  V30 3582 C 336.492 1.81724 1.39675 0
M  V30 3583 C 337.492 0.688532 1.45313 0
M  V30 3584 O 338.682 0.956829 1.45569 0
M  V30 3585 C 335.814 1.96543 2.78538 0
M  V30 3586 H 337.007 2.76424 1.16318 0
M  V30 3587 H 334.56 1.45478 0.571474 0
M  V30 3588 H 335.295 1.0401 3.07168 0
M  V30 3589 H 335.08 2.78665 2.75841 0
M  V30 3590 H 336.57 2.19516 3.5525 0
M  V30 3591 N 337.007 -0.598083 1.45811 0
M  V30 3592 C 337.955 -1.72932 1.55555 0
M  V30 3593 C 338.949 -1.63984 0.424921 0
M  V30 3594 O 340.155 -1.69663 0.601205 0
M  V30 3595 H 336.53 -0.571489 0.488779 0
M  V30 3596 H 338.501 -1.61842 2.50699 0
M  V30 3597 C 337.25 -3.11318 1.54843 0
M  V30 3598 H 336.573 -3.18867 2.41172 0
M  V30 3599 H 338.013 -3.90274 1.65717 0
M  V30 3600 C 336.472 -3.3578 0.274427 0
M  V30 3601 O 337.002 -3.9654 -0.641778 0
M  V30 3602 N 335.208 -2.90119 0.167139 0
M  V30 3603 H 334.755 -2.40855 0.913596 0
M  V30 3604 H 334.713 -3.0686 -0.684435 0
M  V30 3605 N 338.485 -1.33259 -0.841409 0
M  V30 3606 C 339.715 -1.2742 -1.62628 0
M  V30 3607 C 340.123 0.157604 -1.88542 0
M  V30 3608 O 339.466 1.10938 -1.46419 0
M  V30 3609 C 339.528 -1.97797 -3.00194 0
M  V30 3610 C 339.192 -3.47109 -2.97261 0
M  V30 3611 C 340.189 -4.42358 -2.73159 0
M  V30 3612 C 337.874 -3.89247 -3.17478 0
M  V30 3613 C 339.868 -5.77718 -2.69296 0
M  V30 3614 C 337.555 -5.24713 -3.13241 0
M  V30 3615 C 338.553 -6.1876 -2.89181 0
M  V30 3616 O 338.241 -7.51745 -2.84843 0
M  V30 3617 H 337.973 -0.440436 -0.512827 0
M  V30 3618 H 340.527 -1.76153 -1.05638 0
M  V30 3619 H 338.757 -1.43652 -3.59028 0
M  V30 3620 H 340.446 -1.8549 -3.61038 0
M  V30 3621 H 341.212 -4.11127 -2.57294 0
M  V30 3622 H 337.091 -3.16456 -3.35226 0
M  V30 3623 H 340.635 -6.51097 -2.50436 0
M  V30 3624 H 336.532 -5.55569 -3.28654 0
M  V30 3625 H 337.3 -7.61262 -3.00702 0
M  V30 3626 N 339.963 1.05934 -1.16686 0
M  V30 3627 C 341.188 1.83029 -0.975455 0
M  V30 3628 C 341.613 1.82096 0.471452 0
M  V30 3629 O 340.971 1.22443 1.33706 0
M  V30 3630 C 341.019 3.27372 -1.51195 0
M  V30 3631 O 340.123 4.06054 -0.720701 0
M  V30 3632 H 339.464 0.566194 -0.346872 0
M  V30 3633 H 341.994 1.33541 -1.55009 0
M  V30 3634 H 342.004 3.78186 -1.53099 0
M  V30 3635 H 340.679 3.27366 -2.56523 0
M  V30 3636 H 339.256 3.64812 -0.772458 0
M  V30 3637 N 341.441 0.965919 1.2453 0
M  V30 3638 C 342.687 0.637349 1.93156 0
M  V30 3639 C 343.042 -0.818261 1.74133 0
M  V30 3640 O 342.335 -1.58079 1.08266 0
M  V30 3641 C 342.529 0.945428 3.44669 0
M  V30 3642 C 342.358 2.42944 3.78429 0
M  V30 3643 C 341.128 3.08895 3.9989 0
M  V30 3644 C 343.326 3.40941 3.8505 0
M  V30 3645 N 341.308 4.47052 4.20735 0
M  V30 3646 C 342.679 4.64448 4.10717 0
M  V30 3647 C 344.734 3.35624 3.67779 0
M  V30 3648 C 343.437 5.83292 4.20907 0
M  V30 3649 C 345.463 4.53818 3.79214 0
M  V30 3650 C 344.825 5.76114 4.05304 0
M  V30 3651 H 340.924 0.284034 0.728594 0
M  V30 3652 H 343.508 1.24041 1.50073 0
M  V30 3653 H 341.679 0.371193 3.86622 0
M  V30 3654 H 343.411 0.575613 4.00586 0
M  V30 3655 H 340.166 2.59432 3.96222 0
M  V30 3656 H 340.59 5.18634 4.35141 0
M  V30 3657 H 345.232 2.4211 3.46616 0
M  V30 3658 H 342.95 6.77236 4.40883 0
M  V30 3659 H 346.536 4.51263 3.67224 0
M  V30 3660 H 345.416 6.66045 4.13949 0
M  V30 3661 N 342.919 -1.39368 0.735821 0
M  V30 3662 C 343.849 -2.33234 0.111506 0
M  V30 3663 C 344.83 -1.53954 -0.723334 0
M  V30 3664 O 346.015 -1.82344 -0.668147 0
M  V30 3665 C 343.145 -3.38057 -0.795917 0
M  V30 3666 C 342.099 -4.2795 -0.065172 0
M  V30 3667 C 341.425 -5.23479 -1.08967 0
M  V30 3668 C 342.725 -5.10741 1.09273 0
M  V30 3669 H 344.419 -2.85692 0.895571 0
M  V30 3670 H 341.965 -1.37364 0.432109 0
M  V30 3671 H 343.918 -4.02675 -1.24221 0
M  V30 3672 H 342.642 -2.8404 -1.61211 0
M  V30 3673 H 341.301 -3.64813 0.361511 0
M  V30 3674 H 340.949 -4.65758 -1.89944 0
M  V30 3675 H 340.649 -5.84472 -0.605489 0
M  V30 3676 H 342.173 -5.90974 -1.53565 0
M  V30 3677 H 343.587 -5.68699 0.724841 0
M  V30 3678 H 341.984 -5.8088 1.50659 0
M  V30 3679 H 343.054 -4.45525 1.91404 0
M  V30 3680 N 344.397 -0.483516 -1.5 0
M  V30 3681 C 345.327 0.293829 -2.31644 0
M  V30 3682 C 346.308 0.978864 -1.39112 0
M  V30 3683 O 347.493 0.973644 -1.68029 0
M  V30 3684 C 344.623 1.36897 -3.19181 0
M  V30 3685 C 343.577 0.804833 -4.20365 0
M  V30 3686 C 342.903 1.9792 -4.96721 0
M  V30 3687 C 344.203 -0.192313 -5.21946 0
M  V30 3688 H 345.897 -0.387616 -2.9688 0
M  V30 3689 H 343.443 -0.187856 -1.42769 0
M  V30 3690 H 345.396 1.92037 -3.751 0
M  V30 3691 H 344.12 2.07936 -2.51853 0
M  V30 3692 H 342.779 0.275319 -3.65565 0
M  V30 3693 H 342.427 2.67686 -4.25856 0
M  V30 3694 H 342.127 1.60789 -5.65173 0
M  V30 3695 H 343.651 2.53526 -5.55479 0
M  V30 3696 H 345.065 0.270333 -5.72662 0
M  V30 3697 H 343.462 -0.478543 -5.98189 0
M  V30 3698 H 344.532 -1.11409 -4.71928 0
M  V30 3699 N 345.875 1.56104 -0.216619 0
M  V30 3700 C 347.121 1.98466 0.417033 0
M  V30 3701 C 347.454 1.10403 1.59765 0
M  V30 3702 O 346.729 0.160632 1.93836 0
M  V30 3703 C 347.012 3.49769 0.85637 0
M  V30 3704 C 346.865 4.48606 -0.327546 0
M  V30 3705 C 348.184 4.05339 1.7143 0
M  V30 3706 H 345.303 0.721551 0.150112 0
M  V30 3707 H 347.945 1.87423 -0.311864 0
M  V30 3708 H 346.095 3.5931 1.47745 0
M  V30 3709 H 347.767 4.5108 -0.965618 0
M  V30 3710 H 346.01 4.22682 -0.975805 0
M  V30 3711 H 346.681 5.51995 0.0227149 0
M  V30 3712 H 349.157 3.98712 1.19031 0
M  V30 3713 H 348.033 5.11533 1.99061 0
M  V30 3714 H 348.294 3.51918 2.67593 0
M  V30 3715 N 347.353 -0.0568162 1.57498 0
M  V30 3716 C 348.263 -1.08346 2.08083 0
M  V30 3717 C 349.279 -1.41439 1.01346 0
M  V30 3718 O 350.455 -1.51316 1.32912 0
M  V30 3719 C 347.52 -2.37352 2.52715 0
M  V30 3720 C 346.581 -2.11093 3.73816 0
M  V30 3721 C 345.814 -3.33949 4.1631 0
M  V30 3722 O 346.037 -4.43622 3.58547 0
M  V30 3723 O 344.971 -3.21279 5.08983 0
M  V30 3724 H 348.797 -0.683667 2.95905 0
M  V30 3725 H 346.382 -0.271965 1.46904 0
M  V30 3726 H 348.264 -3.13246 2.81877 0
M  V30 3727 H 346.939 -2.76681 1.68016 0
M  V30 3728 H 345.846 -1.32856 3.49714 0
M  V30 3729 H 347.179 -1.76637 4.59413 0
M  V30 3730 N 348.832 -1.54138 -0.328536 0
M  V30 3731 C 350.08 -1.71765 -1.06496 0
M  V30 3732 C 350.401 -0.49149 -1.88704 0
M  V30 3733 O 349.671 0.494539 -1.89555 0
M  V30 3734 H 348.251 -0.633295 -0.396164 0
M  V30 3735 H 350.913 -1.91429 -0.366176 0
M  V30 3736 H 350.009 -2.5951 -1.73381 0
M  V30 3737 N 350.31 0.590341 -1.46126 0
M  V30 3738 C 351.24 1.71032 -1.58966 0
M  V30 3739 C 352.221 1.64302 -0.440335 0
M  V30 3740 O 353.406 1.82436 -0.665634 0
M  V30 3741 C 350.536 3.09665 -1.57241 0
M  V30 3742 C 349.49 3.31221 -2.71066 0
M  V30 3743 C 348.816 4.70303 -2.54399 0
M  V30 3744 C 350.116 3.19796 -4.1295 0
M  V30 3745 H 351.81 1.60543 -2.52718 0
M  V30 3746 H 349.356 0.770933 -1.21625 0
M  V30 3747 H 351.309 3.87831 -1.64819 0
M  V30 3748 H 350.033 3.21036 -0.600289 0
M  V30 3749 H 348.692 2.55452 -2.62944 0
M  V30 3750 H 348.34 4.78429 -1.55288 0
M  V30 3751 H 348.04 4.85679 -3.30741 0
M  V30 3752 H 349.564 5.50647 -2.63857 0
M  V30 3753 H 350.978 3.87815 -4.22223 0
M  V30 3754 H 349.375 3.46696 -4.89818 0
M  V30 3755 H 350.445 2.16983 -4.33643 0
M  V30 3756 N 351.788 1.33704 0.83433 0
M  V30 3757 C 353.018 1.28281 1.6195 0
M  V30 3758 C 353.426 -0.147603 1.88623 0
M  V30 3759 O 352.769 -1.1016 1.47005 0
M  V30 3760 C 352.831 1.99386 2.99141 0
M  V30 3761 C 352.495 3.48681 2.95416 0
M  V30 3762 C 353.492 4.438 2.70809 0
M  V30 3763 C 351.177 3.90925 3.15409 0
M  V30 3764 C 353.171 5.79138 2.66229 0
M  V30 3765 C 350.858 5.26366 3.10454 0
M  V30 3766 C 351.856 6.20284 2.85895 0
M  V30 3767 O 351.544 7.53245 2.80852 0
M  V30 3768 H 351.276 0.44315 0.510484 0
M  V30 3769 H 353.83 1.76711 1.04702 0
M  V30 3770 H 352.06 1.45554 3.58261 0
M  V30 3771 H 353.749 1.87403 3.60049 0
M  V30 3772 H 354.515 4.12485 2.5511 0
M  V30 3773 H 350.394 3.18229 3.33543 0
M  V30 3774 H 353.938 6.52416 2.4698 0
M  V30 3775 H 349.835 5.57304 3.25703 0
M  V30 3776 H 350.603 7.62846 2.96661 0
M  V30 3777 N 353.266 -1.05314 1.17247 0
M  V30 3778 C 354.196 -2.1498 0.911362 0
M  V30 3779 C 355.177 -1.69471 -0.146169 0
M  V30 3780 O 356.362 -1.942 0.003812 0
M  V30 3781 C 353.492 -3.4472 0.422528 0
M  V30 3782 C 352.446 -4.03789 1.4191 0
M  V30 3783 C 351.772 -5.28858 0.788274 0
M  V30 3784 C 353.072 -4.41418 2.7919 0
M  V30 3785 H 354.766 -2.3708 1.82848 0
M  V30 3786 H 352.312 -1.13938 0.880569 0
M  V30 3787 H 354.265 -4.20787 0.227289 0
M  V30 3788 H 352.989 -3.22269 -0.530123 0
M  V30 3789 H 351.648 -3.2979 1.60106 0
M  V30 3790 H 351.296 -5.02709 -0.171173 0
M  V30 3791 H 350.996 -5.69338 1.45353 0
M  V30 3792 H 352.52 -6.07612 0.603282 0
M  V30 3793 H 353.934 -5.08524 2.64719 0
M  V30 3794 H 352.331 -4.92913 3.42282 0
M  V30 3795 H 353.401 -3.51819 3.33693 0
M  V30 3796 N 354.744 -0.972509 -1.24016 0
M  V30 3797 C 355.694 -0.477561 -2.22942 0
M  V30 3798 C 356.678 0.44308 -1.54679 0
M  V30 3799 O 357.87 0.273219 -1.74879 0
M  V30 3800 C 354.999 0.226348 -3.42553 0
M  V30 3801 C 354.085 -0.713403 -4.18057 0
M  V30 3802 N 354.476 -1.8527 -4.70647 0
M  V30 3803 C 352.774 -0.525145 -4.42898 0
M  V30 3804 C 353.475 -2.44089 -5.28011 0
M  V30 3805 N 352.451 -1.72556 -5.15486 0
M  V30 3806 H 356.253 -1.34678 -2.61226 0
M  V30 3807 H 353.767 -0.832196 -1.39457 0
M  V30 3808 H 355.764 0.598184 -4.12586 0
M  V30 3809 H 354.424 1.09195 -3.05788 0
M  V30 3810 H 355.435 -2.2341 -4.67235 0
M  V30 3811 H 352.112 0.296096 -4.16449 0
M  V30 3812 H 353.502 -3.40259 -5.79374 0
M  V30 3813 N 356.222 1.38976 -0.743202 0
M  V30 3814 C 357.45 2.04636 -0.30525 0
M  V30 3815 C 357.865 1.56044 1.06281 0
M  V30 3816 O 357.222 0.728921 1.67311 0
M  V30 3817 C 357.273 3.60193 -0.307177 0
M  V30 3818 O 356.994 4.06998 -1.62124 0
M  V30 3819 C 358.495 4.4306 0.145928 0
M  V30 3820 H 355.715 0.65788 -0.132041 0
M  V30 3821 H 358.259 1.77866 -1.00915 0
M  V30 3822 H 356.414 3.85835 0.347898 0
M  V30 3823 H 356.828 5.01371 -1.54036 0
M  V30 3824 H 358.302 5.51921 0.0934183 0
M  V30 3825 H 358.779 4.22706 1.19231 0
M  V30 3826 H 359.385 4.22584 -0.479886 0
M  V30 3827 N 357.7 0.491464 1.49741 0
M  V30 3828 C 358.63 -0.28154 2.31796 0
M  V30 3829 C 359.611 -0.971473 1.3963 0
M  V30 3830 O 360.796 -0.964719 1.68543 0
M  V30 3831 C 357.926 -1.35203 3.19902 0
M  V30 3832 C 356.88 -0.782529 4.20786 0
M  V30 3833 C 356.206 -1.95283 4.97764 0
M  V30 3834 C 357.506 0.21999 5.21837 0
M  V30 3835 H 359.2 0.403355 2.96671 0
M  V30 3836 H 356.746 0.195425 1.42668 0
M  V30 3837 H 358.699 -1.90045 3.76113 0
M  V30 3838 H 357.423 -2.06598 2.52953 0
M  V30 3839 H 356.082 -0.255928 3.65706 0
M  V30 3840 H 355.73 -2.65423 4.2727 0
M  V30 3841 H 355.43 -1.57789 5.66018 0
M  V30 3842 H 356.954 -2.50577 5.56816 0
M  V30 3843 H 358.368 -0.23996 5.72798 0
M  V30 3844 H 356.765 0.51026 5.97927 0
M  V30 3845 H 357.835 1.13911 4.7133 0
M  V30 3846 N 359.178 -1.55987 0.224894 0
M  V30 3847 C 360.108 -2.23426 -0.678457 0
M  V30 3848 C 361.089 -1.20709 -1.19847 0
M  V30 3849 O 362.274 -1.49304 -1.24186 0
M  V30 3850 C 359.404 -2.91676 -1.88527 0
M  V30 3851 C 358.358 -4.00893 -1.49896 0
M  V30 3852 C 357.684 -4.56455 -2.78483 0
M  V30 3853 C 358.984 -5.17769 -0.686461 0
M  V30 3854 H 360.678 -2.99175 -0.116173 0
M  V30 3855 H 358.224 -1.43897 -0.054436 0
M  V30 3856 H 360.177 -3.37547 -2.5227 0
M  V30 3857 H 358.901 -2.1338 -2.47258 0
M  V30 3858 H 357.56 -3.55758 -0.884985 0
M  V30 3859 H 357.208 -3.74886 -3.35365 0
M  V30 3860 H 356.908 -5.30169 -2.53368 0
M  V30 3861 H 358.432 -5.05047 -3.43162 0
M  V30 3862 H 359.846 -5.60001 -1.22767 0
M  V30 3863 H 358.243 -5.97735 -0.532259 0
M  V30 3864 H 359.313 -4.83932 0.306196 0
M  V30 3865 N 360.656 0.0484629 -1.57525 0
M  V30 3866 C 361.619 1.03956 -2.04269 0
M  V30 3867 C 362.619 1.30211 -0.943496 0
M  V30 3868 O 363.809 1.25539 -1.20771 0
M  V30 3869 C 360.941 2.37742 -2.44319 0
M  V30 3870 H 362.134 0.636182 -2.93075 0
M  V30 3871 H 359.687 0.294811 -1.53494 0
M  V30 3872 H 360.422 2.82866 -1.5861 0
M  V30 3873 H 360.207 2.20021 -3.24551 0
M  V30 3874 H 361.697 3.08936 -2.80978 0
M  V30 3875 N 362.134 1.5431 0.320358 0
M  V30 3876 C 363.383 1.7188 1.05546 0
M  V30 3877 C 363.696 0.501143 1.89071 0
M  V30 3878 O 364.902 0.558258 2.65699 0
M  V30 3879 C 363.358 3.04025 1.92605 0
M  V30 3880 C 362.966 4.33207 1.14176 0
M  V30 3881 C 364.71 3.30959 2.65832 0
M  V30 3882 C 362.617 5.56412 2.00399 0
M  V30 3883 H 361.547 0.640547 0.397763 0
M  V30 3884 H 364.198 1.80802 0.313522 0
M  V30 3885 H 362.58 2.89019 2.7071 0
M  V30 3886 H 363.754 4.58989 0.40819 0
M  V30 3887 H 362.069 4.13062 0.526165 0
M  V30 3888 H 364.666 4.20203 3.30656 0
M  V30 3889 H 365.009 2.48979 3.33639 0
M  V30 3890 H 365.542 3.46847 1.94787 0
M  V30 3891 H 362.281 6.41004 1.37094 0
M  V30 3892 H 361.801 5.34844 2.7148 0
M  V30 3893 H 363.48 5.92938 2.58908 0
M  V30 3894 N 363.613 -0.582584 1.46437 0
M  V30 3895 C 364.838 -1.37168 1.55563 0
M  V30 3896 C 365.263 -1.87061 0.19743 0
M  V30 3897 O 364.621 -1.61572 -0.822451 0
M  V30 3898 C 364.669 -2.53511 2.56446 0
M  V30 3899 O 363.773 -3.54953 2.09958 0
M  V30 3900 H 363.114 -0.408494 0.523477 0
M  V30 3901 H 365.644 -0.706646 1.9201 0
M  V30 3902 H 365.654 -3.00426 2.76058 0
M  V30 3903 H 364.329 -2.16549 3.55076 0
M  V30 3904 H 362.906 -3.14516 2.00334 0
M  V30 3905 N 365.091 -1.34144 -0.827227 0
M  V30 3906 C 366.338 -1.26258 -1.58319 0
M  V30 3907 C 366.666 0.168595 -1.93768 0
M  V30 3908 O 365.921 1.12877 -1.59866 0
M  V30 3909 C 366.22 -2.09464 -2.89585 0
M  V30 3910 C 365.886 -3.58521 -2.73448 0
M  V30 3911 C 364.548 -3.99155 -2.68754 0
M  V30 3912 C 366.9 -4.53189 -2.57428 0
M  V30 3913 C 364.228 -5.32656 -2.45957 0
M  V30 3914 C 366.58 -5.86864 -2.36163 0
M  V30 3915 C 365.244 -6.26667 -2.29879 0
M  V30 3916 H 364.514 -0.462013 -0.579332 0
M  V30 3917 H 367.161 -1.65845 -0.95748 0
M  V30 3918 H 365.466 -1.62692 -3.56425 0
M  V30 3919 H 367.163 -2.00712 -3.47154 0
M  V30 3920 H 363.753 -3.26264 -2.77939 0
M  V30 3921 H 367.937 -4.22696 -2.60081 0
M  V30 3922 H 363.193 -5.62519 -2.39546 0
M  V30 3923 H 367.367 -6.59813 -2.22754 0
M  V30 3924 H 364.994 -7.30049 -2.11975 0
M  V30 3925 N 366.569 1.04691 -1.17803 0
M  V30 3926 C 367.816 1.77782 -0.969532 0
M  V30 3927 C 368.144 1.87926 0.501401 0
M  V30 3928 O 367.399 1.37918 1.38842 0
M  V30 3929 C 367.698 3.21467 -1.56186 0
M  V30 3930 C 367.364 3.3137 -3.05786 0
M  V30 3931 C 366.026 3.3378 -3.46619 0
M  V30 3932 C 368.378 3.31976 -4.01797 0
M  V30 3933 C 365.706 3.34431 -4.82051 0
M  V30 3934 C 368.058 3.34167 -5.37136 0
M  V30 3935 C 366.722 3.34866 -5.77426 0
M  V30 3936 H 365.992 0.650549 -0.354777 0
M  V30 3937 H 368.639 1.23006 -1.46772 0
M  V30 3938 H 366.944 3.79203 -0.985515 0
M  V30 3939 H 368.641 3.76652 -1.37602 0
M  V30 3940 H 365.231 3.3021 -2.73238 0
M  V30 3941 H 369.415 3.29311 -3.71306 0
M  V30 3942 H 364.671 3.33285 -5.12573 0
M  V30 3943 H 368.845 3.33585 -6.11305 0
M  V30 3944 H 366.472 3.35124 -6.82346 0
M  V30 3945 N 368.047 0.979072 1.23499 0
M  V30 3946 C 369.272 0.664845 1.96455 0
M  V30 3947 C 369.697 -0.761287 1.72006 0
M  V30 3948 O 369.055 -1.51837 0.990713 0
M  V30 3949 C 369.103 0.959479 3.47601 0
M  V30 3950 O 368.207 0.0508168 4.12369 0
M  V30 3951 H 367.548 0.250185 0.615064 0
M  V30 3952 H 370.078 1.31231 1.5697 0
M  V30 3953 H 370.088 0.895642 3.98048 0
M  V30 3954 H 368.763 1.99876 3.64723 0
M  V30 3955 H 367.34 0.16895 3.72517 0
M  V30 3956 N 369.525 -1.3858 0.750561 0
M  V30 3957 C 370.435 -2.34278 0.122825 0
M  V30 3958 C 371.451 -1.59116 -0.704131 0
M  V30 3959 O 372.627 -1.91326 -0.628987 0
M  V30 3960 C 369.692 -3.38221 -0.762086 0
M  V30 3961 C 368.753 -4.29227 0.078896 0
M  V30 3962 C 367.986 -5.28205 -0.763874 0
M  V30 3963 O 368.209 -5.34112 -2.00201 0
M  V30 3964 O 367.143 -6.01618 -0.18428 0
M  V30 3965 H 370.969 -2.89649 0.913088 0
M  V30 3966 H 368.554 -1.40374 0.511417 0
M  V30 3967 H 370.436 -4.01872 -1.26793 0
M  V30 3968 H 369.111 -2.85211 -1.5309 0
M  V30 3969 H 368.018 -3.68747 0.630621 0
M  V30 3970 H 369.351 -4.85484 0.810289 0
M  V30 3971 N 371.003 -0.499398 -1.49478 0
M  V30 3972 C 372.419 -0.155261 -1.58843 0
M  V30 3973 C 372.619 1.34008 -1.50479 0
M  V30 3974 O 371.675 2.11589 -1.37791 0
M  V30 3975 C 372.988 -0.730636 -2.91689 0
M  V30 3976 C 374.536 -0.696599 -3.0515 0
M  V30 3977 C 375.011 -1.25001 -4.40612 0
M  V30 3978 N 376.502 -1.21064 -4.47099 0
M  V30 3979 C 377.237 -1.60905 -5.50361 0
M  V30 3980 N 376.733 -2.08331 -6.60735 0
M  V30 3981 N 378.526 -1.52331 -5.41065 0
M  V30 3982 H 370.677 -1.47162 -1.53158 0
M  V30 3983 H 372.94 -0.610309 -0.725415 0
M  V30 3984 H 372.646 -1.77928 -3.03372 0
M  V30 3985 H 372.52 -0.190161 -3.7672 0
M  V30 3986 H 374.907 0.343204 -2.93097 0
M  V30 3987 H 374.988 -1.2742 -2.21806 0
M  V30 3988 H 374.632 -2.28859 -4.53416 0
M  V30 3989 H 374.562 -0.64836 -5.22593 0
M  V30 3990 H 377.053 -0.863128 -3.67911 0
M  V30 3991 H 377.366 -2.36805 -7.35624 0
M  V30 3992 H 375.711 -2.12304 -6.6178 0
M  V30 3993 H 378.902 -1.151 -4.53729 0
M  V30 3994 H 379.075 -1.83704 -6.21415 0
M  V30 3995 N 372.481 1.55866 -0.233164 0
M  V30 3996 C 373.428 2.20796 0.67215 0
M  V30 3997 C 374.398 1.16731 1.18166 0
M  V30 3998 O 375.583 1.45129 1.23864 0
M  V30 3999 C 372.723 2.90072 1.86955 0
M  V30 4000 C 371.836 4.08759 1.39786 0
M  V30 4001 C 370.971 4.65787 2.55374 0
M  V30 4002 C 370.01 5.76752 2.04998 0
M  V30 4003 N 369.147 6.28021 3.13901 0
M  V30 4004 H 373.987 2.9779 0.111749 0
M  V30 4005 H 371.524 1.47036 0.0434007 0
M  V30 4006 H 373.482 3.28428 2.57276 0
M  V30 4007 H 372.112 2.15575 2.40265 0
M  V30 4008 H 371.164 3.7581 0.589173 0
M  V30 4009 H 372.476 4.88906 0.98856 0
M  V30 4010 H 371.63 5.06646 3.33758 0
M  V30 4011 H 370.369 3.84828 2.99598 0
M  V30 4012 H 369.374 5.35383 1.25079 0
M  V30 4013 H 370.599 6.59553 1.61759 0
M  V30 4014 H 368.545 5.49971 3.57586 0
M  V30 4015 H 368.462 7.03323 2.7726 0
M  V30 4016 H 369.73 6.73538 3.92386 0
M  V30 4017 N 373.959 -0.0401083 1.57549 0
M  V30 4018 C 375.189 -0.744115 1.92734 0
M  V30 4019 C 375.597 -1.70005 0.830348 0
M  V30 4020 O 374.94 -1.82576 -0.20286 0
M  V30 4021 C 375.002 -1.56516 3.2364 0
M  V30 4022 C 374.666 -0.7752 4.50377 0
M  V30 4023 C 375.663 -0.0803326 5.19838 0
M  V30 4024 C 373.348 -0.733002 4.96923 0
M  V30 4025 C 375.342 0.646154 6.34116 0
M  V30 4026 C 373.029 -0.00276321 6.111 0
M  V30 4027 C 374.027 0.685585 6.7955 0
M  V30 4028 O 373.715 1.40399 7.91545 0
M  V30 4029 H 373.447 -0.214861 0.640945 0
M  V30 4030 H 376.001 -0.00503675 2.05399 0
M  V30 4031 H 374.231 -2.3478 3.07271 0
M  V30 4032 H 375.92 -2.15076 3.44234 0
M  V30 4033 H 376.686 -0.104035 4.84888 0
M  V30 4034 H 372.565 -1.25827 4.43496 0
M  V30 4035 H 376.109 1.18398 6.87479 0
M  V30 4036 H 372.006 0.0229012 6.45496 0
M  V30 4037 H 372.774 1.31653 8.07843 0
M  V30 4038 N 375.437 -1.54477 -0.31217 0
M  V30 4039 C 376.367 -1.87652 -1.38957 0
M  V30 4040 C 377.348 -0.734358 -1.53431 0
M  V30 4041 O 378.533 -0.98911 -1.67123 0
M  V30 4042 C 375.663 -2.11396 -2.75552 0
M  V30 4043 C 374.617 -3.27243 -2.75855 0
M  V30 4044 C 373.943 -3.36382 -4.15633 0
M  V30 4045 C 375.243 -4.64622 -2.38587 0
M  V30 4046 H 376.937 -2.77887 -1.11442 0
M  V30 4047 H 374.483 -1.33707 -0.534655 0
M  V30 4048 H 376.436 -2.33189 -3.51 0
M  V30 4049 H 375.16 -1.17921 -3.04569 0
M  V30 4050 H 373.819 -3.05356 -2.02863 0
M  V30 4051 H 373.467 -2.40445 -4.41809 0
M  V30 4052 H 373.167 -4.14249 -4.1674 0
M  V30 4053 H 374.691 -3.60422 -4.92877 0
M  V30 4054 H 376.105 -4.86219 -3.03749 0
M  V30 4055 H 374.502 -5.45121 -2.50925 0
M  V30 4056 H 375.572 -4.66097 -1.33723 0
M  V30 4057 N 376.915 0.57481 -1.46744 0
M  V30 4058 C 377.847 1.69804 -1.53946 0
M  V30 4059 C 378.86 1.57098 -0.427106 0
M  V30 4060 O 380.049 1.64378 -0.695863 0
M  V30 4061 C 377.149 3.08125 -1.4111 0
M  V30 4062 C 376.322 3.46757 -2.66605 0
M  V30 4063 C 375.381 4.6417 -2.47855 0
M  V30 4064 O 374.407 4.69634 -3.21609 0
M  V30 4065 N 375.609 5.59553 -1.54534 0
M  V30 4066 H 378.374 1.64077 -2.50796 0
M  V30 4067 H 375.935 0.761 -1.429 0
M  V30 4068 H 377.927 3.84478 -1.26328 0
M  V30 4069 H 376.497 3.08175 -0.524109 0
M  V30 4070 H 375.717 2.6003 -2.96274 0
M  V30 4071 H 377.005 3.69337 -3.49954 0
M  V30 4072 H 376.403 5.57881 -0.937304 0
M  V30 4073 H 374.96 6.35304 -1.45711 0
M  V30 4074 N 378.394 1.34581 0.820102 0
M  V30 4075 C 379.642 1.26845 1.57336 0
M  V30 4076 C 379.963 -0.160667 1.94337 0
M  V30 4077 O 379.233 -1.09396 1.6251 0
M  V30 4078 H 377.813 0.466514 0.583415 0
M  V30 4079 H 380.475 1.68526 0.979027 0
M  V30 4080 H 379.571 1.87513 2.4949 0
M  V30 4081 N 379.872 -1.04064 1.18357 0
M  V30 4082 C 381.119 -1.77265 0.978947 0
M  V30 4083 C 381.447 -1.88189 -0.491428 0
M  V30 4084 O 380.702 -1.38653 -1.38108 0
M  V30 4085 C 381.001 -3.20634 1.57888 0
M  V30 4086 C 380.667 -3.29743 3.07539 0
M  V30 4087 C 379.329 -3.31937 3.48384 0
M  V30 4088 C 381.681 -3.29841 4.03552 0
M  V30 4089 C 379.009 -3.3187 4.83818 0
M  V30 4090 C 381.361 -3.31313 5.38901 0
M  V30 4091 C 380.025 -3.31799 5.79194 0
M  V30 4092 H 379.295 -0.648659 0.358222 0
M  V30 4093 H 381.942 -1.22225 1.47422 0
M  V30 4094 H 380.247 -3.78675 1.00561 0
M  V30 4095 H 381.944 -3.75917 1.39598 0
M  V30 4096 H 378.534 -3.28757 2.74986 0
M  V30 4097 H 382.718 -3.27337 3.73047 0
M  V30 4098 H 377.974 -3.30562 5.14333 0
M  V30 4099 H 382.148 -3.30338 6.13066 0
M  V30 4100 H 379.775 -3.315 6.84114 0
M  V30 4101 N 381.35 -0.985608 -1.22978 0
M  V30 4102 C 382.596 -0.65836 -1.91816 0
M  V30 4103 C 382.929 0.806692 -1.76653 0
M  V30 4104 O 382.204 1.58252 -1.13078 0
M  V30 4105 C 382.487 -1.056 -3.44268 0
M  V30 4106 C 382.34 -2.57906 -3.68516 0
M  V30 4107 C 383.659 -0.603781 -4.35939 0
M  V30 4108 H 380.778 -0.24065 -0.696604 0
M  V30 4109 H 383.42 -1.22783 -1.44998 0
M  V30 4110 H 381.57 -0.571445 -3.84274 0
M  V30 4111 H 383.242 -3.13976 -3.3796 0
M  V30 4112 H 381.485 -3.00305 -3.13048 0
M  V30 4113 H 382.156 -2.80779 -4.75255 0
M  V30 4114 H 384.632 -1.01987 -4.03408 0
M  V30 4115 H 383.508 -0.910383 -5.41298 0
M  V30 4116 H 383.769 0.495761 -4.39312 0
M  V30 4117 N 382.828 1.3818 -0.7579 0
M  V30 4118 C 383.791 2.28764 -0.141286 0
M  V30 4119 C 384.791 1.47388 0.642907 0
M  V30 4120 O 385.981 1.67781 0.468536 0
M  V30 4121 C 383.113 3.31184 0.808069 0
M  V30 4122 H 384.306 2.848 -0.939633 0
M  V30 4123 H 381.859 1.47212 -0.525191 0
M  V30 4124 H 382.594 2.80247 1.63193 0
M  V30 4125 H 382.379 3.91314 0.248104 0
M  V30 4126 H 383.869 3.98909 1.23536 0
M  V30 4127 N 384.306 0.507319 1.49211 0
M  V30 4128 C 385.553 -0.0349529 2.0247 0
M  V30 4129 C 385.881 -1.36409 1.38647 0
M  V30 4130 O 385.136 -1.88841 0.513566 0
M  V30 4131 C 385.435 -0.229513 3.56662 0
M  V30 4132 C 385.101 1.02241 4.39156 0
M  V30 4133 C 383.763 1.36557 4.61417 0
M  V30 4134 C 386.115 1.85428 4.871 0
M  V30 4135 C 383.443 2.53999 5.28868 0
M  V30 4136 C 385.795 3.02028 5.55843 0
M  V30 4137 C 384.459 3.36717 5.76349 0
M  V30 4138 H 383.729 -0.0127902 0.74089 0
M  V30 4139 H 386.376 0.668756 1.79443 0
M  V30 4140 H 384.681 -1.0158 3.78403 0
M  V30 4141 H 386.378 -0.663641 3.9547 0
M  V30 4142 H 382.968 0.745124 4.22073 0
M  V30 4143 H 387.152 1.6023 4.69723 0
M  V30 4144 H 382.408 2.81105 5.42946 0
M  V30 4145 H 386.582 3.66808 5.91967 0
M  V30 4146 H 384.209 4.27821 6.28389 0
M  V30 4147 N 385.784 -1.5574 0.241426 0
M  V30 4148 C 387.032 -1.98417 -0.384075 0
M  V30 4149 C 387.353 -1.13078 -1.58866 0
M  V30 4150 O 386.623 -0.212312 -1.94746 0
M  V30 4151 H 385.203 -0.732813 -0.144894 0
M  V30 4152 H 387.865 -1.9193 0.338943 0
M  V30 4153 H 386.961 -3.04219 -0.696939 0
M  V30 4154 N 387.262 0.0317525 -1.57568 0
M  V30 4155 C 388.508 0.718712 -1.90279 0
M  V30 4156 C 388.863 1.73108 -0.839727 0
M  V30 4157 O 388.156 1.90997 0.15188 0
M  V30 4158 C 388.35 1.43167 -3.27472 0
M  V30 4159 C 388.179 0.489869 -4.47024 0
M  V30 4160 C 386.949 0.111909 -5.05176 0
M  V30 4161 C 389.147 -0.230592 -5.13783 0
M  V30 4162 N 387.129 -0.831427 -6.08244 0
M  V30 4163 C 388.5 -1.02968 -6.1139 0
M  V30 4164 C 390.555 -0.297821 -4.97008 0
M  V30 4165 C 389.258 -1.88982 -6.9403 0
M  V30 4166 C 391.284 -1.14507 -5.80209 0
M  V30 4167 C 390.646 -1.9321 -6.77384 0
M  V30 4168 H 386.745 0.237177 -0.745165 0
M  V30 4169 H 389.329 -0.0211267 -1.94689 0
M  V30 4170 H 387.5 2.14199 -3.23996 0
M  V30 4171 H 389.232 2.0708 -3.47707 0
M  V30 4172 H 385.987 0.473513 -4.71227 0
M  V30 4173 H 386.411 -1.29752 -6.6445 0
M  V30 4174 H 391.053 0.296346 -4.2176 0
M  V30 4175 H 388.771 -2.4948 -7.68626 0
M  V30 4176 H 392.357 -1.20059 -5.69278 0
M  V30 4177 H 391.237 -2.57711 -7.40645 0
M  V30 4178 N 388.74 1.54641 0.303973 0
M  V30 4179 C 389.988 1.73437 1.0375 0
M  V30 4180 C 390.309 0.521449 1.87899 0
M  V30 4181 O 389.579 -0.46432 1.90318 0
M  V30 4182 H 388.159 0.639518 0.386039 0
M  V30 4183 H 390.821 1.91988 0.335675 0
M  V30 4184 H 389.917 2.62235 1.69231 0
M  V30 4185 N 390.218 -0.567019 1.47046 0
M  V30 4186 C 391.443 -1.3551 1.57009 0
M  V30 4187 C 391.868 -1.86841 0.217259 0
M  V30 4188 O 391.226 -1.62435 -0.805268 0
M  V30 4189 C 391.274 -2.50777 2.5912 0
M  V30 4190 O 390.378 -3.52706 2.13711 0
M  V30 4191 H 389.719 -0.402919 0.52778 0
M  V30 4192 H 392.249 -0.686241 1.92748 0
M  V30 4193 H 392.259 -2.97481 2.79229 0
M  V30 4194 H 390.934 -2.12771 3.57353 0
M  V30 4195 H 389.511 -3.12374 2.03659 0
M  V30 4196 N 391.696 -1.35014 -0.812953 0
M  V30 4197 C 393.107 -1.25035 -1.38648 0
M  V30 4198 C 393.458 0.119967 -1.95833 0
M  V30 4199 O 392.583 1.02069 -1.90816 0
M  V30 4200 C 393.178 -2.26394 -2.52054 0
M  V30 4201 C 391.737 -2.20175 -3.05287 0
M  V30 4202 C 390.884 -2.12451 -1.78213 0
M  V30 4203 H 393.835 -1.46235 -0.616516 0
M  V30 4204 H 393.856 -1.88672 -3.30429 0
M  V30 4205 H 393.368 -3.26116 -2.10404 0
M  V30 4206 H 391.469 -1.23841 -3.51417 0
M  V30 4207 H 391.582 -3.11863 -3.63701 0
M  V30 4208 H 389.946 -1.58328 -1.9951 0
M  V30 4209 H 390.729 -3.14024 -1.38723 0
M  V30 4210 N 393.175 1.03435 -1.18907 0
M  V30 4211 C 394.138 2.09756 -0.923844 0
M  V30 4212 C 395.138 1.60528 0.093416 0
M  V30 4213 O 396.328 1.73631 -0.140727 0
M  V30 4214 C 393.46 3.38692 -0.387354 0
M  V30 4215 H 394.653 2.34719 -1.86674 0
M  V30 4216 H 392.206 1.19959 -1.00197 0
M  V30 4217 H 392.941 3.19396 0.561845 0
M  V30 4218 H 392.726 3.75742 -1.12074 0
M  V30 4219 H 394.216 4.17016 -0.220694 0
M  V30 4220 N 394.653 0.992116 1.22453 0
M  V30 4221 C 395.902 0.662992 1.90492 0
M  V30 4222 C 396.215 -0.808407 1.78113 0
M  V30 4223 O 397.421 -1.24908 2.41061 0
M  V30 4224 C 395.877 1.1353 3.41524 0
M  V30 4225 C 395.485 2.63187 3.62542 0
M  V30 4226 C 397.229 0.880465 4.15269 0
M  V30 4227 C 395.136 3.04024 5.0727 0
M  V30 4228 H 394.066 0.244278 0.713333 0
M  V30 4229 H 396.717 1.20157 1.38688 0
M  V30 4230 H 395.099 0.52485 3.92506 0
M  V30 4231 H 396.273 3.2957 3.22056 0
M  V30 4232 H 394.588 2.86543 3.02129 0
M  V30 4233 H 397.185 1.16128 5.21937 0
M  V30 4234 H 397.528 -0.183408 4.15896 0
M  V30 4235 H 398.061 1.45307 3.70312 0
M  V30 4236 H 394.8 4.09584 5.11782 0
M  V30 4237 H 394.32 2.42343 5.48662 0
M  V30 4238 H 395.999 2.95282 5.75689 0
M  V30 4239 N 396.131 -1.37776 0.765217 0
M  V30 4240 C 397.378 -1.99849 0.326588 0
M  V30 4241 C 397.706 -1.60746 -1.09504 0
M  V30 4242 O 396.961 -0.84202 -1.76659 0
M  V30 4243 C 397.26 -3.5504 0.410053 0
M  V30 4244 C 396.926 -4.13891 1.78899 0
M  V30 4245 C 395.588 -4.29678 2.16635 0
M  V30 4246 C 397.94 -4.46236 2.69301 0
M  V30 4247 C 395.268 -4.7511 3.44221 0
M  V30 4248 C 397.62 -4.93089 3.9629 0
M  V30 4249 C 396.284 -5.07082 4.34078 0
M  V30 4250 H 395.554 -0.7313 0.119507 0
M  V30 4251 H 398.201 -1.64645 0.977968 0
M  V30 4252 H 396.506 -3.90451 -0.324878 0
M  V30 4253 H 398.203 -4.00966 0.0520699 0
M  V30 4254 H 394.793 -4.02026 1.48569 0
M  V30 4255 H 398.977 -4.3363 2.41409 0
M  V30 4256 H 394.233 -4.84129 3.73402 0
M  V30 4257 H 398.407 -5.17084 4.66472 0
M  V30 4258 H 396.034 -5.42046 5.33001 0
M  V30 4259 N 397.609 -0.515225 -1.4894 0
M  V30 4260 C 398.855 0.0242508 -2.02785 0
M  V30 4261 C 399.188 1.35323 -1.39289 0
M  V30 4262 O 398.463 1.87041 -0.533469 0
M  V30 4263 C 398.746 0.16184 -3.59736 0
M  V30 4264 C 398.599 -1.19127 -4.33738 0
M  V30 4265 C 399.918 0.895719 -4.30888 0
M  V30 4266 H 397.037 0.00733914 -0.736963 0
M  V30 4267 H 399.679 -0.669395 -1.77818 0
M  V30 4268 H 397.829 0.752624 -3.8114 0
M  V30 4269 H 399.501 -1.82202 -4.23792 0
M  V30 4270 H 397.744 -1.77695 -3.95736 0
M  V30 4271 H 398.415 -1.04815 -5.41957 0
M  V30 4272 H 400.891 0.394528 -4.14225 0
M  V30 4273 H 399.767 0.960859 -5.40425 0
M  V30 4274 H 400.028 1.9427 -3.97129 0
M  V30 4275 N 399.087 1.5561 -0.249682 0
M  V30 4276 C 400.05 2.20217 0.635394 0
M  V30 4277 C 401.05 1.17227 1.10066 0
M  V30 4278 O 402.24 1.42292 1.00492 0
M  V30 4279 C 399.372 2.84794 1.87363 0
M  V30 4280 H 400.565 2.99814 0.0716752 0
M  V30 4281 H 398.118 1.563 -0.000153234 0
M  V30 4282 H 398.853 2.09142 2.47851 0
M  V30 4283 H 398.638 3.60241 1.5482 0
M  V30 4284 H 400.128 3.3423 2.5036 0
M  V30 4285 N 400.565 -0.0233959 1.57583 0
M  V30 4286 C 401.495 -1.02162 2.09965 0
M  V30 4287 C 402.476 -1.3735 1.00344 0
M  V30 4288 O 403.661 -1.46135 1.27899 0
M  V30 4289 C 400.791 -2.32081 2.58371 0
M  V30 4290 C 399.745 -2.1112 3.72307 0
M  V30 4291 C 399.071 -3.46848 4.06941 0
M  V30 4292 C 400.371 -1.49276 5.00514 0
M  V30 4293 H 402.065 -0.585557 2.93618 0
M  V30 4294 H 399.611 -0.280218 1.41247 0
M  V30 4295 H 401.564 -3.02249 2.93639 0
M  V30 4296 H 400.288 -2.77758 1.71808 0
M  V30 4297 H 398.947 -1.43384 3.37397 0
M  V30 4298 H 398.595 -3.90184 3.17436 0
M  V30 4299 H 398.295 -3.33646 4.83688 0
M  V30 4300 H 399.819 -4.18369 4.44747 0
M  V30 4301 H 401.233 -2.09368 5.33702 0
M  V30 4302 H 399.63 -1.46632 5.8191 0
M  V30 4303 H 400.7 -0.459217 4.82721 0
M  V30 4304 N 402.043 -1.548 -0.295768 0
M  V30 4305 C 403.289 -1.75517 -1.02789 0
M  V30 4306 C 403.644 -0.537266 -1.84746 0
M  V30 4307 O 402.937 0.470299 -1.85738 0
M  V30 4308 C 403.131 -2.98797 -1.961 0
M  V30 4309 C 402.96 -4.3246 -1.23321 0
M  V30 4310 C 401.73 -4.96131 -0.95822 0
M  V30 4311 C 403.928 -5.10365 -0.635024 0
M  V30 4312 N 401.91 -6.1357 -0.201257 0
M  V30 4313 C 403.281 -6.19999 -0.0110937 0
M  V30 4314 C 405.336 -4.94957 -0.540594 0
M  V30 4315 C 404.039 -7.15904 0.698136 0
M  V30 4316 C 406.065 -5.91197 0.154992 0
M  V30 4317 C 405.427 -7.00203 0.767752 0
M  V30 4318 H 401.526 -0.694786 -0.358882 0
M  V30 4319 H 404.11 -1.92281 -0.305943 0
M  V30 4320 H 402.281 -2.83448 -2.6554 0
M  V30 4321 H 404.013 -3.08017 -2.62502 0
M  V30 4322 H 400.768 -4.56595 -1.25771 0
M  V30 4323 H 401.192 -6.76802 0.16389 0
M  V30 4324 H 405.834 -4.10803 -1.00003 0
M  V30 4325 H 403.552 -7.99595 1.16933 0
M  V30 4326 H 407.138 -5.81353 0.228069 0
M  V30 4327 H 406.018 -7.73393 1.29743 0
M  V30 4328 N 403.521 0.559213 -1.47345 0
M  V30 4329 C 404.484 1.64854 -1.59235 0
M  V30 4330 C 405.484 1.53851 -0.467607 0
M  V30 4331 O 406.674 1.58045 -0.732617 0
M  V30 4332 C 403.806 3.04388 -1.53496 0
M  V30 4333 H 404.999 1.55662 -2.56339 0
M  V30 4334 H 402.552 0.778973 -1.35505 0
M  V30 4335 H 403.287 3.19115 -0.577604 0
M  V30 4336 H 403.072 3.13783 -2.35123 0
M  V30 4337 H 404.562 3.83642 -1.6495 0
M  V30 4338 N 404.999 1.35443 0.805782 0
M  V30 4339 C 406.248 1.28097 1.55801 0
M  V30 4340 C 406.561 -0.142428 1.95081 0
M  V30 4341 O 407.767 -0.33817 2.69386 0
M  V30 4342 C 406.223 2.24653 2.81174 0
M  V30 4343 C 405.831 3.72342 2.49129 0
M  V30 4344 C 407.575 2.2625 3.59181 0
M  V30 4345 C 405.482 4.60719 3.70799 0
M  V30 4346 H 404.412 0.475937 0.584808 0
M  V30 4347 H 407.063 1.60712 0.885661 0
M  V30 4348 H 405.445 1.85011 3.50124 0
M  V30 4349 H 406.619 4.20624 1.88181 0
M  V30 4350 H 404.934 3.73361 1.84366 0
M  V30 4351 H 407.531 2.89495 4.49552 0
M  V30 4352 H 407.874 1.26647 3.96568 0
M  V30 4353 H 408.407 2.64426 2.97193 0
M  V30 4354 H 405.146 5.61324 3.3852 0
M  V30 4355 H 404.666 4.17163 4.3097 0
M  V30 4356 H 406.345 4.76182 4.38018 0
M  V30 4357 N 406.477 -1.02803 1.19454 0
M  V30 4358 C 407.44 -2.09264 0.934955 0
M  V30 4359 C 408.44 -1.60576 -0.0849015 0
M  V30 4360 O 409.63 -1.73554 0.149933 0
M  V30 4361 C 406.762 -3.38482 0.40531 0
M  V30 4362 H 407.955 -2.33726 1.87916 0
M  V30 4363 H 405.508 -1.19426 1.00832 0
M  V30 4364 H 406.243 -3.19689 -0.544899 0
M  V30 4365 H 406.028 -3.75142 1.14065 0
M  V30 4366 H 407.518 -4.16894 0.242806 0
M  V30 4367 N 407.956 -0.998596 -1.21925 0
M  V30 4368 C 409.372 -0.710303 -1.42923 0
M  V30 4369 C 409.572 0.716933 -1.88314 0
M  V30 4370 O 408.628 1.48712 -2.04062 0
M  V30 4371 C 409.941 -1.72072 -2.466 0
M  V30 4372 C 411.489 -1.73681 -2.60392 0
M  V30 4373 C 411.964 -2.73601 -3.67296 0
M  V30 4374 N 413.455 -2.7223 -3.7476 0
M  V30 4375 C 414.19 -3.46206 -4.57087 0
M  V30 4376 N 413.686 -4.29802 -5.43362 0
M  V30 4377 N 415.479 -3.34886 -4.51451 0
M  V30 4378 H 407.63 -1.92028 -0.9077 0
M  V30 4379 H 409.893 -0.828487 -0.460775 0
M  V30 4380 H 409.599 -2.74231 -2.20206 0
M  V30 4381 H 409.473 -1.51818 -3.45299 0
M  V30 4382 H 411.86 -0.722173 -2.86127 0
M  V30 4383 H 411.941 -1.98005 -1.61949 0
M  V30 4384 H 411.585 -3.75217 -3.42307 0
M  V30 4385 H 411.515 -2.46545 -4.65321 0
M  V30 4386 H 414.006 -2.11576 -3.1312 0
M  V30 4387 H 414.319 -4.83061 -6.03218 0
M  V30 4388 H 412.664 -4.33887 -5.42925 0
M  V30 4389 H 415.855 -2.69015 -3.83078 0
M  V30 4390 H 416.028 -3.92796 -5.15379 0
M  V30 4391 N 409.434 1.37368 -0.772513 0
M  V30 4392 C 410.384 2.27613 -0.132823 0
M  V30 4393 C 411.368 1.46138 0.673247 0
M  V30 4394 O 412.56 1.68686 0.536095 0
M  V30 4395 C 409.689 3.35122 0.744864 0
M  V30 4396 C 408.775 4.24044 -0.0690771 0
M  V30 4397 N 409.166 4.93355 -1.1151 0
M  V30 4398 C 407.464 4.45731 0.154782 0
M  V30 4399 C 408.165 5.59 -1.60917 0
M  V30 4400 N 407.141 5.35737 -0.921222 0
M  V30 4401 H 410.943 2.78675 -0.933681 0
M  V30 4402 H 408.457 1.50494 -0.610342 0
M  V30 4403 H 410.454 3.98683 1.21892 0
M  V30 4404 H 409.114 2.85616 1.54446 0
M  V30 4405 H 410.125 4.95785 -1.49726 0
M  V30 4406 H 406.802 4.07096 0.926224 0
M  V30 4407 H 408.192 6.24395 -2.48153 0
M  V30 4408 N 410.912 0.523116 1.48665 0
M  V30 4409 C 412.159 -0.0134763 2.02496 0
M  V30 4410 C 412.487 -1.3493 1.40086 0
M  V30 4411 O 411.742 -1.88286 0.533567 0
M  V30 4412 C 412.041 -0.191671 3.56886 0
M  V30 4413 C 411.707 1.06893 4.38046 0
M  V30 4414 C 410.369 1.41443 4.59943 0
M  V30 4415 C 412.721 1.90584 4.85106 0
M  V30 4416 C 410.049 2.59594 5.26144 0
M  V30 4417 C 412.401 3.07907 5.52609 0
M  V30 4418 C 411.065 3.42811 5.72745 0
M  V30 4419 H 410.335 -0.00493133 0.740984 0
M  V30 4420 H 412.982 0.687751 1.78724 0
M  V30 4421 H 411.287 -0.97561 3.79459 0
M  V30 4422 H 412.984 -0.621659 3.96152 0
M  V30 4423 H 409.574 0.789848 4.21259 0
M  V30 4424 H 413.758 1.65203 4.67997 0
M  V30 4425 H 409.014 2.86847 5.39934 0
M  V30 4426 H 413.188 3.73066 5.88043 0
M  V30 4427 H 410.815 4.34462 6.23816 0
M  V30 4428 N 412.39 -1.55475 0.257931 0
M  V30 4429 C 413.32 -2.24815 -0.630912 0
M  V30 4430 C 414.301 -1.23224 -1.17259 0
M  V30 4431 O 415.486 -1.51904 -1.20991 0
M  V30 4432 C 412.616 -2.95609 -1.82298 0
M  V30 4433 C 411.57 -4.03982 -1.41359 0
M  V30 4434 C 410.896 -4.6226 -2.68738 0
M  V30 4435 C 412.196 -5.19109 -0.57648 0
M  V30 4436 H 413.89 -2.99354 -0.0526878 0
M  V30 4437 H 411.436 -1.4398 -0.023901 0
M  V30 4438 H 413.389 -3.42822 -2.45054 0
M  V30 4439 H 412.113 -2.18577 -2.42676 0
M  V30 4440 H 410.772 -3.57555 -0.809324 0
M  V30 4441 H 410.42 -3.81915 -3.27338 0
M  V30 4442 H 410.12 -5.35424 -2.42065 0
M  V30 4443 H 411.644 -5.12212 -3.32372 0
M  V30 4444 H 413.058 -5.62479 -1.10861 0
M  V30 4445 H 411.455 -5.98729 -0.405351 0
M  V30 4446 H 412.525 -4.83174 0.408776 0
M  V30 4447 N 413.868 0.0150385 -1.57593 0
M  V30 4448 C 414.778 1.02791 -2.10882 0
M  V30 4449 C 415.794 1.38702 -1.0506 0
M  V30 4450 O 416.97 1.47739 -1.36877 0
M  V30 4451 C 414.035 2.30568 -2.58919 0
M  V30 4452 C 413.096 2.01108 -3.79281 0
M  V30 4453 C 412.329 3.22794 -4.25018 0
M  V30 4454 O 412.552 4.33959 -3.70183 0
M  V30 4455 O 411.486 3.07672 -5.17322 0
M  V30 4456 H 415.312 0.604973 -2.97613 0
M  V30 4457 H 412.897 0.23292 -1.47573 0
M  V30 4458 H 414.779 3.05662 -2.90084 0
M  V30 4459 H 413.454 2.72129 -1.75293 0
M  V30 4460 H 412.361 1.23537 -3.53114 0
M  V30 4461 H 413.694 1.64394 -4.63935 0
M  V30 4462 N 415.346 1.54954 0.287554 0
M  V30 4463 C 416.623 1.65569 1.04146 0
M  V30 4464 C 417.003 0.512672 2.0478 0
M  V30 4465 O 416.351 -0.489038 2.23205 0
M  V30 4466 C 416.561 3.04163 1.71131 0
M  V30 4467 C 417.909 3.61429 2.22832 0
M  V30 4468 O 418.933 3.06702 1.81141 0
M  V30 4469 O 417.792 4.57281 2.9926 0
M  V30 4470 H 414.886 0.671881 0.482188 0
M  V30 4471 H 417.432 1.67297 0.28457 0
M  V30 4472 H 416.204 3.78796 0.981303 0
M  V30 4473 H 415.827 3.06271 2.53543 0
M  V30 4474 N 416.824 -0.551391 1.4764 0
M  V30 4475 C 418.07 -1.31024 1.54792 0
M  V30 4476 C 418.403 -1.9304 0.211967 0
M  V30 4477 O 417.678 -1.78175 -0.77999 0
M  V30 4478 C 417.961 -2.41593 2.67029 0
M  V30 4479 C 417.814 -1.84408 4.10261 0
M  V30 4480 C 419.133 -3.43488 2.75143 0
M  V30 4481 H 416.252 -0.475031 0.563485 0
M  V30 4482 H 418.894 -0.616454 1.79722 0
M  V30 4483 H 417.044 -3.00772 2.45904 0
M  V30 4484 H 418.716 -1.29445 4.42766 0
M  V30 4485 H 416.959 -1.15051 4.18265 0
M  V30 4486 H 417.63 -2.64367 4.84576 0
M  V30 4487 H 420.106 -2.94236 2.94218 0
M  V30 4488 H 418.982 -4.18274 3.55441 0
M  V30 4489 H 419.243 -4.02703 1.82435 0
M  V30 4490 N 418.302 -1.35869 -0.798587 0
M  V30 4491 C 419.55 -1.29332 -1.55298 0
M  V30 4492 C 419.871 0.129729 -1.94568 0
M  V30 4493 O 419.141 1.06796 -1.6423 0
M  V30 4494 H 417.721 -0.475737 -0.57592 0
M  V30 4495 H 420.383 -1.70062 -0.952093 0
M  V30 4496 H 419.479 -1.91458 -2.46476 0
M  V30 4497 N 419.78 1.02168 -1.19998 0
M  V30 4498 C 421.02 1.77232 -1.01825 0
M  V30 4499 C 421.384 1.86833 0.442428 0
M  V30 4500 O 422.585 2.58293 0.744189 0
M  V30 4501 C 420.856 3.15601 -1.67722 0
M  V30 4502 S 422.415 4.06765 -1.64584 0
M  V30 4503 H 419.233 0.610021 -0.365233 0
M  V30 4504 H 421.835 1.22368 -1.52467 0
M  V30 4505 H 420.539 3.06235 -2.73218 0
M  V30 4506 H 420.07 3.7554 -1.17189 0
M  V30 4507 H 422.085 4.91586 -0.67511 0
M  V30 4508 N 421.258 1.00505 1.21394 0
M  V30 4509 C 422.504 0.698477 1.91031 0
M  V30 4510 C 422.859 -0.762448 1.76648 0
M  V30 4511 O 422.152 -1.54554 1.13241 0
M  V30 4512 C 422.346 1.0546 3.41486 0
M  V30 4513 C 422.175 2.5486 3.70508 0
M  V30 4514 C 420.945 3.21461 3.8986 0
M  V30 4515 C 423.143 3.53019 3.74008 0
M  V30 4516 N 421.125 4.60211 4.06299 0
M  V30 4517 C 422.496 4.77279 3.95733 0
M  V30 4518 C 424.551 3.47154 3.56915 0
M  V30 4519 C 423.254 5.96388 4.02137 0
M  V30 4520 C 425.28 4.65652 3.64585 0
M  V30 4521 C 424.642 5.88717 3.86771 0
M  V30 4522 H 420.741 0.30707 0.719189 0
M  V30 4523 H 423.325 1.28753 1.46051 0
M  V30 4524 H 421.496 0.494007 3.85246 0
M  V30 4525 H 423.228 0.702765 3.98552 0
M  V30 4526 H 419.983 2.71906 3.87768 0
M  V30 4527 H 420.407 5.32216 4.1842 0
M  V30 4528 H 425.049 2.53015 3.38738 0
M  V30 4529 H 422.767 6.90919 4.19114 0
M  V30 4530 H 426.353 4.62717 3.52681 0
M  V30 4531 H 425.233 6.78877 3.92549 0
M  V30 4532 N 422.737 -1.36956 0.779787 0
M  V30 4533 C 424.014 -1.93697 0.272156 0
M  V30 4534 C 424.394 -1.71267 -1.23413 0
M  V30 4535 O 423.742 -1.06607 -2.02107 0
M  V30 4536 C 423.952 -3.42812 0.654291 0
M  V30 4537 C 425.3 -4.19921 0.628602 0
M  V30 4538 O 426.324 -3.51209 0.594172 0
M  V30 4539 O 425.183 -5.42465 0.662864 0
M  V30 4540 H 422.277 -0.824447 0.0649286 0
M  V30 4541 H 424.823 -1.46196 0.861682 0
M  V30 4542 H 423.595 -3.52754 1.69353 0
M  V30 4543 H 423.218 -3.97582 0.0381369 0
M  V30 4544 N 424.215 -0.530993 -1.48385 0
M  V30 4545 C 425.464 0.00474348 -2.01699 0
M  V30 4546 C 425.777 1.35227 -1.41325 0
M  V30 4547 O 426.983 1.97643 -1.86144 0
M  V30 4548 C 425.439 0.0588473 -3.59852 0
M  V30 4549 C 425.047 -1.28385 -4.2921 0
M  V30 4550 C 426.791 0.543358 -4.21008 0
M  V30 4551 C 424.698 -1.19028 -5.79298 0
M  V30 4552 H 423.628 0.00554317 -0.75398 0
M  V30 4553 H 426.279 -0.674924 -1.70637 0
M  V30 4554 H 424.661 0.803612 -3.8776 0
M  V30 4555 H 425.835 -2.04426 -4.12973 0
M  V30 4556 H 424.15 -1.70418 -3.7993 0
M  V30 4557 H 426.747 0.631351 -5.3096 0
M  V30 4558 H 427.09 1.54937 -3.86394 0
M  V30 4559 H 427.623 -0.145754 -3.97533 0
M  V30 4560 H 424.362 -2.17147 -6.18488 0
M  V30 4561 H 423.882 -0.471246 -5.97946 0
M  V30 4562 H 425.561 -0.881365 -6.40969 0
M  V30 4563 N 425.693 1.55336 -0.266172 0
M  V30 4564 C 426.641 2.23587 0.641228 0
M  V30 4565 C 427.635 1.22986 1.16494 0
M  V30 4566 O 428.841 1.40943 1.1196 0
M  V30 4567 H 425.216 0.717452 0.225315 0
M  V30 4568 H 427.187 2.9837 0.0426561 0
M  V30 4569 C 425.936 2.96369 1.81826 0
M  V30 4570 H 425.259 3.73563 1.42445 0
M  V30 4571 H 426.699 3.47459 2.42998 0
M  V30 4572 C 425.158 2.0133 2.70125 0
M  V30 4573 O 425.688 1.55875 3.70224 0
M  V30 4574 N 423.894 1.6802 2.37102 0
M  V30 4575 H 423.441 2.05181 1.55751 0
M  V30 4576 H 423.399 1.047 2.96454 0
M  V30 4577 N 427.171 -0.0066808 1.57599 0
M  V30 4578 C 428.134 -0.985035 2.06953 0
M  V30 4579 C 429.134 -1.27663 0.977687 0
M  V30 4580 O 430.324 -1.22293 1.24057 0
M  V30 4581 C 427.456 -2.3118 2.50536 0
M  V30 4582 H 428.649 -0.558255 2.94658 0
M  V30 4583 H 426.202 -0.254011 1.54222 0
M  V30 4584 H 426.937 -2.78561 1.66054 0
M  V30 4585 H 426.722 -2.11338 3.3027 0
M  V30 4586 H 428.212 -3.01377 2.8907 0
M  V30 4587 N 428.649 -1.55105 -0.279332 0
M  V30 4588 C 429.597 -1.88333 -1.36505 0
M  V30 4589 C 430.591 -0.759043 -1.51443 0
M  V30 4590 O 431.797 -0.943312 -1.53302 0
M  V30 4591 H 428.172 -0.59766 -0.456406 0
M  V30 4592 H 430.143 -2.79041 -1.05728 0
M  V30 4593 C 428.892 -2.16628 -2.7197 0
M  V30 4594 H 428.215 -3.02624 -2.61264 0
M  V30 4595 H 429.655 -2.43803 -3.46895 0
M  V30 4596 C 428.114 -0.971807 -3.22579 0
M  V30 4597 O 428.644 -0.203228 -4.01186 0
M  V30 4598 N 426.85 -0.771238 -2.80179 0
M  V30 4599 H 426.397 -1.39792 -2.1637 0
M  V30 4600 H 426.355 0.0263667 -3.14389 0
M  V30 4601 N 430.127 0.543554 -1.4793 0
M  V30 4602 C 431.09 1.63156 -1.60975 0
M  V30 4603 C 432.09 1.53346 -0.483899 0
M  V30 4604 O 433.28 1.5726 -0.749339 0
M  V30 4605 C 430.412 3.02743 -1.56716 0
M  V30 4606 H 431.605 1.52934 -2.57975 0
M  V30 4607 H 429.158 0.764557 -1.36324 0
M  V30 4608 H 429.893 3.18484 -0.611418 0
M  V30 4609 H 429.678 3.11272 -2.38438 0
M  V30 4610 H 431.168 3.81871 -1.6901 0
M  V30 4611 N 431.605 1.3629 0.791371 0
M  V30 4612 C 432.83 1.33726 1.58531 0
M  V30 4613 C 433.255 -0.0794933 1.87932 0
M  V30 4614 O 432.613 -1.05087 1.47738 0
M  V30 4615 C 432.661 2.16425 2.88431 0
M  V30 4616 O 431.765 1.5554 3.81944 0
M  V30 4617 H 431.106 0.457793 0.480959 0
M  V30 4618 H 433.636 1.79547 0.981031 0
M  V30 4619 H 433.646 2.28933 3.37718 0
M  V30 4620 H 432.321 3.19415 2.66359 0
M  V30 4621 H 430.898 1.51961 3.40532 0
M  V30 4622 N 433.083 -1.0153 1.20538 0
M  V30 4623 C 434.332 -1.74558 1.01057 0
M  V30 4624 C 434.645 -1.90168 -0.457756 0
M  V30 4625 O 435.851 -2.60301 -0.771722 0
M  V30 4626 C 434.307 -3.13963 1.75941 0
M  V30 4627 C 433.915 -3.06361 3.26875 0
M  V30 4628 C 435.659 -3.91191 1.64832 0
M  V30 4629 C 433.566 -4.40782 3.94291 0
M  V30 4630 H 432.496 -0.654417 0.374505 0
M  V30 4631 H 435.147 -1.13521 1.44171 0
M  V30 4632 H 433.529 -3.75549 1.25614 0
M  V30 4633 H 434.703 -2.54074 3.84425 0
M  V30 4634 H 433.018 -2.42625 3.38411 0
M  V30 4635 H 435.615 -4.90644 2.12539 0
M  V30 4636 H 435.958 -4.11884 0.604745 0
M  V30 4637 H 436.491 -3.36236 2.12579 0
M  V30 4638 H 433.23 -4.25292 4.98805 0
M  V30 4639 H 432.75 -4.9307 3.41529 0
M  V30 4640 H 434.429 -5.09621 3.98617 0
M  V30 4641 N 434.561 -1.01147 -1.20859 0
M  V30 4642 C 435.807 -0.708598 -1.90658 0
M  V30 4643 C 436.162 0.753069 -1.7705 0
M  V30 4644 O 435.455 1.53952 -1.14059 0
M  V30 4645 C 435.649 -1.0727 -3.40922 0
M  V30 4646 C 435.478 -2.56821 -3.69152 0
M  V30 4647 C 434.248 -3.23524 -3.8815 0
M  V30 4648 C 436.446 -3.54997 -3.72131 0
M  V30 4649 N 434.428 -4.62359 -4.03853 0
M  V30 4650 C 435.799 -4.79371 -3.93196 0
M  V30 4651 C 437.854 -3.49042 -3.55069 0
M  V30 4652 C 436.557 -5.98512 -3.98969 0
M  V30 4653 C 438.583 -4.67579 -3.6211 0
M  V30 4654 C 437.945 -5.9076 -3.83643 0
M  V30 4655 H 434.044 -0.31088 -0.71755 0
M  V30 4656 H 436.628 -1.29526 -1.45366 0
M  V30 4657 H 434.799 -0.51443 -3.84978 0
M  V30 4658 H 436.531 -0.723891 -3.98173 0
M  V30 4659 H 433.286 -2.73958 -3.86321 0
M  V30 4660 H 433.71 -5.34427 -4.15592 0
M  V30 4661 H 438.352 -2.54808 -3.37391 0
M  V30 4662 H 436.07 -6.93132 -4.15444 0
M  V30 4663 H 439.656 -4.64581 -3.50222 0
M  V30 4664 H 438.536 -6.8095 -3.88944 0
M  V30 4665 N 436.039 1.36541 -0.78704 0
M  V30 4666 C 437.285 2.00044 -0.367938 0
M  V30 4667 C 437.64 1.61345 1.04812 0
M  V30 4668 O 436.933 0.856936 1.71368 0
M  V30 4669 C 437.127 3.54343 -0.466485 0
M  V30 4670 C 436.956 4.08029 -1.89058 0
M  V30 4671 C 435.726 4.38284 -2.51466 0
M  V30 4672 C 437.924 4.27954 -2.85236 0
M  V30 4673 N 435.906 4.77778 -3.85488 0
M  V30 4674 C 437.277 4.70227 -4.04088 0
M  V30 4675 C 439.332 4.10119 -2.82324 0
M  V30 4676 C 438.035 4.96532 -5.20432 0
M  V30 4677 C 440.061 4.37569 -3.97854 0
M  V30 4678 C 439.423 4.80095 -5.15449 0
M  V30 4679 H 435.522 0.760525 -0.182004 0
M  V30 4680 H 438.106 1.65589 -1.02413 0
M  V30 4681 H 436.277 3.88072 0.159606 0
M  V30 4682 H 438.009 4.04693 -0.0238577 0
M  V30 4683 H 434.764 4.27905 -2.02965 0
M  V30 4684 H 435.188 5.01813 -4.54437 0
M  V30 4685 H 439.83 3.76399 -1.92571 0
M  V30 4686 H 437.548 5.29134 -6.10773 0
M  V30 4687 H 441.134 4.25341 -3.96958 0
M  V30 4688 H 440.014 5.00925 -6.0336 0
M  V30 4689 N 437.518 0.538854 1.48102 0
M  V30 4690 C 438.767 0.0059532 2.01699 0
M  V30 4691 C 439.08 -1.34476 1.42041 0
M  V30 4692 O 440.286 -1.96653 1.87189 0
M  V30 4693 C 438.742 -0.0397627 3.59878 0
M  V30 4694 C 438.35 1.30659 4.28523 0
M  V30 4695 C 440.094 -0.521024 4.2129 0
M  V30 4696 C 438.001 1.22098 5.78659 0
M  V30 4697 H 436.931 -0.00154456 0.753998 0
M  V30 4698 H 439.582 0.683963 1.70277 0
M  V30 4699 H 437.964 -0.783037 3.88181 0
M  V30 4700 H 439.138 2.06613 4.11883 0
M  V30 4701 H 437.453 1.7243 3.79021 0
M  V30 4702 H 440.05 -0.603184 5.31287 0
M  V30 4703 H 440.393 -1.52885 3.8721 0
M  V30 4704 H 440.926 0.166834 3.9745 0
M  V30 4705 H 437.665 2.20424 6.17328 0
M  V30 4706 H 437.185 0.50295 5.97688 0
M  V30 4707 H 438.864 0.915345 6.40492 0
M  V30 4708 N 438.996 -1.55193 0.274407 0
M  V30 4709 C 440.245 -1.98758 -0.343213 0
M  V30 4710 C 440.558 -1.16624 -1.5703 0
M  V30 4711 O 441.764 -1.5033 -2.26082 0
M  V30 4712 C 440.22 -3.53759 -0.661996 0
M  V30 4713 C 439.828 -4.4467 0.54524 0
M  V30 4714 C 441.572 -4.05916 -1.24228 0
M  V30 4715 C 439.479 -5.91058 0.201084 0
M  V30 4716 H 438.409 -0.742353 -0.132014 0
M  V30 4717 H 441.06 -1.79545 0.378948 0
M  V30 4718 H 439.442 -3.68772 -1.44304 0
M  V30 4719 H 440.616 -4.41426 1.32212 0
M  V30 4720 H 438.931 -4.03143 1.04232 0
M  V30 4721 H 441.528 -5.12831 -1.51357 0
M  V30 4722 H 441.871 -3.54908 -2.17592 0
M  V30 4723 H 442.404 -3.9434 -0.523542 0
M  V30 4724 H 439.143 -6.46161 1.10258 0
M  V30 4725 H 438.663 -5.97373 -0.539045 0
M  V30 4726 H 440.342 -6.46669 -0.206954 0
M  V30 4727 N 440.474 -0.00167713 -1.576 0
M  V30 4728 C 441.89 0.354422 -1.55615 0
M  V30 4729 C 442.09 1.74679 -1.00447 0
M  V30 4730 O 441.146 2.4428 -0.639022 0
M  V30 4731 C 442.459 0.22812 -2.99833 0
M  V30 4732 C 444.007 0.302934 -3.11531 0
M  V30 4733 C 444.482 0.205737 -4.57538 0
M  V30 4734 N 445.973 0.263584 -4.62449 0
M  V30 4735 C 446.708 0.211742 -5.73009 0
M  V30 4736 N 446.204 0.110399 -6.92712 0
M  V30 4737 N 447.997 0.263729 -5.61481 0
M  V30 4738 H 440.148 -0.912498 -1.918 0
M  V30 4739 H 442.411 -0.349928 -0.881053 0
M  V30 4740 H 442.117 -0.729934 -3.44042 0
M  V30 4741 H 441.991 1.00951 -3.6344 0
M  V30 4742 H 444.378 1.25143 -2.67251 0
M  V30 4743 H 444.459 -0.508357 -2.50698 0
M  V30 4744 H 444.103 -0.739225 -5.02492 0
M  V30 4745 H 444.033 1.03554 -5.16318 0
M  V30 4746 H 446.524 0.343173 -3.76339 0
M  V30 4747 H 446.837 0.0767828 -7.72762 0
M  V30 4748 H 445.182 0.0760025 -6.94958 0
M  V30 4749 H 448.373 0.34111 -4.66855 0
M  V30 4750 H 448.546 0.219862 -6.47627 0
M  V30 4751 N 441.952 1.55251 0.271103 0
M  V30 4752 C 443.2 1.75599 1.00047 0
M  V30 4753 C 443.521 0.561188 1.8675 0
M  V30 4754 O 442.791 -0.423846 1.9126 0
M  V30 4755 H 441.371 0.647562 0.372387 0
M  V30 4756 H 444.033 1.92656 0.294876 0
M  V30 4757 H 443.129 2.65766 1.6363 0
M  V30 4758 N 443.43 -0.535701 1.48216 0
M  V30 4759 C 444.841 -1.11769 1.49548 0
M  V30 4760 C 445.192 -1.94442 0.26207 0
M  V30 4761 O 444.317 -2.06987 -0.631287 0
M  V30 4762 C 444.912 -2.03367 2.70975 0
M  V30 4763 C 443.471 -2.56795 2.75196 0
M  V30 4764 C 442.618 -1.33631 2.42977 0
M  V30 4765 H 445.569 -0.321232 1.55415 0
M  V30 4766 H 445.59 -2.87569 2.49167 0
M  V30 4767 H 445.102 -1.43169 3.60727 0
M  V30 4768 H 443.203 -3.20731 1.89638 0
M  V30 4769 H 443.316 -2.9632 3.76472 0
M  V30 4770 H 441.68 -1.6502 1.94012 0
M  V30 4771 H 442.463 -0.75194 3.34964 0
M  V30 4772 N 444.908 -1.36708 -0.784132 0
M  V30 4773 C 446.154 -1.31426 -1.54451 0
M  V30 4774 C 446.487 0.10476 -1.93917 0
M  V30 4775 O 445.762 1.05934 -1.6312 0
M  V30 4776 C 446.045 -2.24189 -2.818 0
M  V30 4777 C 445.898 -3.74813 -2.48667 0
M  V30 4778 C 447.217 -2.15626 -3.83658 0
M  V30 4779 H 444.336 -0.478739 -0.560337 0
M  V30 4780 H 446.978 -1.67305 -0.900498 0
M  V30 4781 H 445.128 -1.93722 -3.36755 0
M  V30 4782 H 446.8 -4.15823 -1.99722 0
M  V30 4783 H 445.043 -3.93989 -1.81535 0
M  V30 4784 H 445.714 -4.35138 -3.39646 0
M  V30 4785 H 448.19 -2.42456 -3.38163 0
M  V30 4786 H 447.066 -2.82694 -4.70506 0
M  V30 4787 H 447.327 -1.14522 -4.27009 0
M  V30 4788 N 446.386 1.0089 -1.21074 0
M  V30 4789 C 447.635 1.74019 -1.01981 0
M  V30 4790 C 447.948 1.90408 0.447665 0
M  V30 4791 O 449.154 2.60707 0.757906 0
M  V30 4792 C 447.61 3.13026 -1.77603 0
M  V30 4793 C 447.218 3.04623 -3.28495 0
M  V30 4794 C 448.962 3.90312 -1.66904 0
M  V30 4795 C 446.869 4.38685 -3.96623 0
M  V30 4796 H 445.799 0.652422 -0.377971 0
M  V30 4797 H 448.45 1.12755 -1.44771 0
M  V30 4798 H 446.832 3.74878 -1.27604 0
M  V30 4799 H 448.006 2.52032 -3.85767 0
M  V30 4800 H 446.321 2.40827 -3.39693 0
M  V30 4801 H 448.918 4.8951 -2.15138 0
M  V30 4802 H 449.261 4.11558 -0.62658 0
M  V30 4803 H 449.794 3.35104 -2.14359 0
M  V30 4804 H 446.533 4.22641 -5.01054 0
M  V30 4805 H 446.053 4.91252 -3.4414 0
M  V30 4806 H 447.732 5.075 -4.01314 0
M  V30 4807 N 447.864 1.01787 1.20321 0
M  V30 4808 C 448.794 0.609625 2.25401 0
M  V30 4809 C 449.775 -0.375951 1.65893 0
M  V30 4810 O 450.96 -0.261101 1.92437 0
M  V30 4811 C 448.09 -0.0515995 3.47262 0
M  V30 4812 C 447.044 0.855095 4.19371 0
M  V30 4813 C 446.37 0.0595757 5.34667 0
M  V30 4814 C 447.67 2.16374 4.75373 0
M  V30 4815 H 449.364 1.48803 2.59804 0
M  V30 4816 H 446.91 0.716934 1.24884 0
M  V30 4817 H 448.863 -0.348764 4.19954 0
M  V30 4818 H 447.587 -0.964726 3.12027 0
M  V30 4819 H 446.246 1.13628 3.48546 0
M  V30 4820 H 445.894 -0.85524 4.95676 0
M  V30 4821 H 445.594 0.663406 5.83843 0
M  V30 4822 H 447.118 -0.231105 6.10162 0
M  V30 4823 H 448.532 1.92885 5.39878 0
M  V30 4824 H 446.929 2.71853 5.34991 0
M  V30 4825 H 447.999 2.82589 3.94045 0
M  V30 4826 N 449.342 -1.36122 0.79427 0
M  V30 4827 C 450.567 -2.03891 0.379871 0
M  V30 4828 C 450.992 -1.59488 -0.997251 0
M  V30 4829 O 450.35 -0.765652 -1.64339 0
M  V30 4830 C 450.398 -3.57687 0.457442 0
M  V30 4831 O 449.502 -4.08931 -0.5338 0
M  V30 4832 H 448.843 -0.6443 0.160541 0
M  V30 4833 H 451.373 -1.73976 1.07673 0
M  V30 4834 H 451.383 -4.06721 0.322792 0
M  V30 4835 H 450.058 -3.89357 1.46199 0
M  V30 4836 H 448.635 -3.71154 -0.360409 0
M  V30 4837 N 450.82 -0.546701 -1.47814 0
M  V30 4838 C 452.069 -0.0166497 -2.01693 0
M  V30 4839 C 452.382 1.33721 -1.42752 0
M  V30 4840 O 453.588 1.95658 -1.8823 0
M  V30 4841 C 452.044 0.0206769 -3.59894 0
M  V30 4842 C 451.652 -1.3293 -4.27824 0
M  V30 4843 C 453.396 0.498674 -4.21561 0
M  V30 4844 C 451.303 -1.25165 -5.78003 0
M  V30 4845 H 450.233 -0.0024541 -0.753996 0
M  V30 4846 H 452.884 -0.692984 -1.69912 0
M  V30 4847 H 451.266 0.76244 -3.88591 0
M  V30 4848 H 452.44 -2.08795 -4.10781 0
M  V30 4849 H 450.755 -1.74438 -3.78101 0
M  V30 4850 H 453.352 0.575 -5.31599 0
M  V30 4851 H 453.695 1.5083 -3.88016 0
M  V30 4852 H 454.228 -0.18791 -3.97356 0
M  V30 4853 H 450.967 -2.23695 -6.1615 0
M  V30 4854 H 450.487 -0.53464 -5.97412 0
M  V30 4855 H 452.166 -0.949299 -6.39998 0
M  V30 4856 N 452.299 1.55045 -0.282633 0
M  V30 4857 C 453.229 2.2579 0.595066 0
M  V30 4858 C 454.21 1.25074 1.15284 0
M  V30 4859 O 455.395 1.5381 1.18559 0
M  V30 4860 C 452.525 2.98472 1.77572 0
M  V30 4861 C 451.479 4.0618 1.34914 0
M  V30 4862 C 450.805 4.66477 2.6135 0
M  V30 4863 C 452.105 5.1996 0.493821 0
M  V30 4864 H 453.799 2.994 0.00505653 0
M  V30 4865 H 451.345 1.44 0.000992001 0
M  V30 4866 H 453.298 3.46677 2.39568 0
M  V30 4867 H 452.022 2.2241 2.39168 0
M  V30 4868 H 450.681 3.58797 0.752338 0
M  V30 4869 H 450.329 3.87074 3.2122 0
M  V30 4870 H 450.029 5.39207 2.33516 0
M  V30 4871 H 451.553 5.17435 3.24181 0
M  V30 4872 H 452.967 5.64172 1.01898 0
M  V30 4873 H 451.364 5.99299 0.310047 0
M  V30 4874 H 452.434 4.82462 -0.485593 0
M  V30 4875 N 453.777 0.010035 1.57597 0
M  V30 4876 C 455.026 -0.671945 1.90178 0
M  V30 4877 C 455.339 -1.74376 0.886131 0
M  V30 4878 O 456.545 -2.48107 1.10252 0
M  V30 4879 C 455.001 -1.24636 3.3763 0
M  V30 4880 C 454.609 -0.208838 4.47513 0
M  V30 4881 C 456.353 -1.90595 3.79307 0
M  V30 4882 C 454.26 -0.793814 5.86048 0
M  V30 4883 H 453.19 -0.25474 0.709665 0
M  V30 4884 H 455.841 0.0722206 1.83358 0
M  V30 4885 H 454.223 -2.04152 3.3932 0
M  V30 4886 H 455.397 0.562463 4.57354 0
M  V30 4887 H 453.712 0.350889 4.14919 0
M  V30 4888 H 456.309 -2.35284 4.80151 0
M  V30 4889 H 456.652 -2.74074 3.13352 0
M  V30 4890 H 457.185 -1.17798 3.79958 0
M  V30 4891 H 453.924 0.00240855 6.555 0
M  V30 4892 H 453.444 -1.53404 5.79851 0
M  V30 4893 H 455.123 -1.2894 6.34022 0
M  V30 4894 N 455.255 -1.55392 -0.262866 0
M  V30 4895 C 456.203 -1.8977 -1.345 0
M  V30 4896 C 457.197 -0.775063 -1.50629 0
M  V30 4897 O 458.403 -0.959519 -1.52293 0
M  V30 4898 H 454.778 -0.602467 -0.450041 0
M  V30 4899 H 456.749 -2.80147 -1.02762 0
M  V30 4900 C 455.498 -2.19501 -2.69657 0
M  V30 4901 H 454.821 -3.05378 -2.5804 0
M  V30 4902 H 456.261 -2.47469 -3.44289 0
M  V30 4903 C 454.72 -1.00597 -3.21531 0
M  V30 4904 O 455.25 -0.245768 -4.00947 0
M  V30 4905 N 453.456 -0.800911 -2.79345 0
M  V30 4906 H 453.003 -1.42079 -2.14875 0
M  V30 4907 H 452.961 -0.00697996 -3.14399 0
M  V30 4908 N 456.733 0.527833 -1.48498 0
M  V30 4909 C 457.98 1.28354 -1.56625 0
M  V30 4910 C 458.308 1.93 -0.241096 0
M  V30 4911 O 457.563 1.79967 0.768798 0
M  V30 4912 C 457.862 2.39275 -2.65485 0
M  V30 4913 C 457.528 1.92268 -4.07853 0
M  V30 4914 C 456.19 1.79166 -4.46602 0
M  V30 4915 C 458.542 1.56771 -4.97064 0
M  V30 4916 C 455.87 1.28905 -5.72364 0
M  V30 4917 C 458.222 1.07972 -6.23318 0
M  V30 4918 C 456.886 0.934887 -6.60921 0
M  V30 4919 H 456.156 0.469682 -0.573131 0
M  V30 4920 H 458.803 0.588781 -1.82224 0
M  V30 4921 H 457.108 3.1443 -2.33754 0
M  V30 4922 H 458.805 2.974 -2.68988 0
M  V30 4923 H 455.395 2.03417 -3.77252 0
M  V30 4924 H 459.579 1.65753 -4.67803 0
M  V30 4925 H 454.835 1.16381 -6.00221 0
M  V30 4926 H 459.009 0.795775 -6.91838 0
M  V30 4927 H 456.636 0.543231 -7.58257 0
M  V30 4928 N 458.211 1.37122 0.776871 0
M  V30 4929 C 459.46 1.31373 1.53049 0
M  V30 4930 C 459.773 -0.101016 1.95339 0
M  V30 4931 O 460.979 -0.280953 2.70042 0
M  V30 4932 C 459.435 2.30567 2.76346 0
M  V30 4933 C 459.043 3.77543 2.41175 0
M  V30 4934 C 460.787 2.33818 3.54301 0
M  V30 4935 C 458.694 4.68481 3.60943 0
M  V30 4936 H 457.624 0.488234 0.574581 0
M  V30 4937 H 460.275 1.62554 0.851372 0
M  V30 4938 H 458.657 1.92396 3.46121 0
M  V30 4939 H 459.831 4.24521 1.79216 0
M  V30 4940 H 458.146 3.77187 1.76405 0
M  V30 4941 H 460.743 2.98965 4.4331 0
M  V30 4942 H 461.086 1.3503 3.93793 0
M  V30 4943 H 461.619 2.7067 2.91518 0
M  V30 4944 H 458.358 5.68378 3.26537 0
M  V30 4945 H 457.878 4.2621 4.22025 0
M  V30 4946 H 459.557 4.85366 4.27819 0
M  V30 4947 N 459.689 -1.00246 1.21608 0
M  V30 4948 C 460.619 -2.10921 1.00172 0
M  V30 4949 C 461.6 -1.69938 -0.0741587 0
M  V30 4950 O 462.785 -1.94009 0.0861753 0
M  V30 4951 C 459.915 -3.42618 0.568355 0
M  V30 4952 C 458.869 -3.97407 1.58909 0
M  V30 4953 C 458.195 -5.25038 1.01187 0
M  V30 4954 C 459.495 -4.2918 2.97661 0
M  V30 4955 H 461.189 -2.29112 1.92739 0
M  V30 4956 H 458.735 -1.10101 0.928102 0
M  V30 4957 H 460.688 -4.19444 0.405555 0
M  V30 4958 H 459.412 -3.24227 -0.392961 0
M  V30 4959 H 458.071 -3.22703 1.73949 0
M  V30 4960 H 457.719 -5.02982 0.0421965 0
M  V30 4961 H 457.419 -5.62661 1.6937 0
M  V30 4962 H 458.943 -6.04507 0.860448 0
M  V30 4963 H 460.357 -4.96839 2.86049 0
M  V30 4964 H 458.754 -4.77952 3.6288 0
M  V30 4965 H 459.824 -3.3735 3.48315 0
M  V30 4966 N 461.167 -1.02423 -1.1978 0
M  V30 4967 C 462.414 -0.717988 -1.89344 0
M  V30 4968 C 462.742 0.753036 -1.79331 0
M  V30 4969 O 461.997 1.56355 -1.17692 0
M  V30 4970 C 462.296 -1.1088 -3.39765 0
M  V30 4971 C 461.962 -2.57731 -3.6998 0
M  V30 4972 C 460.624 -2.97854 -3.77937 0
M  V30 4973 C 462.976 -3.52763 -3.83677 0
M  V30 4974 C 460.304 -4.31931 -3.97054 0
M  V30 4975 C 462.656 -4.86538 -4.04306 0
M  V30 4976 C 461.32 -5.26356 -4.10494 0
M  V30 4977 H 460.59 -0.26273 -0.692859 0
M  V30 4978 H 463.237 -1.28623 -1.41875 0
M  V30 4979 H 461.542 -0.459094 -3.89101 0
M  V30 4980 H 463.239 -0.849432 -3.919 0
M  V30 4981 H 459.829 -2.25646 -3.64393 0
M  V30 4982 H 464.013 -3.2292 -3.76877 0
M  V30 4983 H 459.269 -4.62324 -4.00083 0
M  V30 4984 H 463.443 -5.60093 -4.13846 0
M  V30 4985 H 461.07 -6.3026 -4.2506 0
M  V30 4986 N 462.645 1.35699 -0.801477 0
M  V30 4987 C 463.894 1.98165 -0.375979 0
M  V30 4988 C 464.207 1.64306 1.06127 0
M  V30 4989 O 465.413 2.20097 1.58964 0
M  V30 4990 C 463.869 3.54497 -0.621305 0
M  V30 4991 C 463.477 3.9727 -2.07076 0
M  V30 4992 C 465.221 4.23697 -0.26091 0
M  V30 4993 C 463.128 5.46427 -2.26211 0
M  V30 4994 H 462.058 0.741478 -0.136844 0
M  V30 4995 H 464.709 1.54834 -0.984814 0
M  V30 4996 H 463.091 3.95958 0.0574112 0
M  V30 4997 H 464.265 3.66974 -2.78687 0
M  V30 4998 H 462.58 3.40943 -2.39054 0
M  V30 4999 H 465.177 5.33334 -0.381994 0
M  V30 5000 H 465.52 4.0869 0.792344 0
M  V30 5001 H 466.053 3.87639 -0.893339 0
M  V30 5002 H 462.792 5.66396 -3.29963 0
M  V30 5003 H 462.312 5.78309 -1.59119 0
M  V30 5004 H 463.991 6.12819 -2.07513 0
M  V30 5005 N 464.123 0.554532 1.47522 0
M  V30 5006 C 465.071 -0.207765 2.3167 0
M  V30 5007 C 466.065 -0.911914 1.4276 0
M  V30 5008 O 467.271 -0.833504 1.59539 0
M  V30 5009 H 463.646 -0.0858726 0.747081 0
M  V30 5010 H 465.617 0.521178 2.93813 0
M  V30 5011 C 464.366 -1.2263 3.25357 0
M  V30 5012 H 463.689 -0.693887 3.93732 0
M  V30 5013 H 465.129 -1.73062 3.87073 0
M  V30 5014 C 463.588 -2.27278 2.4869 0
M  V30 5015 O 464.118 -3.34156 2.22941 0
M  V30 5016 N 462.324 -2.01134 2.09746 0
M  V30 5017 H 461.871 -1.14232 2.30887 0
M  V30 5018 H 461.829 -2.71369 1.58765 0
M  V30 5019 N 465.601 -1.54893 0.290851 0
M  V30 5020 C 466.85 -1.99111 -0.322113 0
M  V30 5021 C 467.163 -1.18283 -1.55784 0
M  V30 5022 O 468.369 -1.5272 -2.24475 0
M  V30 5023 C 466.825 -3.54442 -0.624438 0
M  V30 5024 C 466.433 -4.44066 0.592373 0
M  V30 5025 C 468.177 -4.07211 -1.19916 0
M  V30 5026 C 466.084 -5.90812 0.263762 0
M  V30 5027 H 465.014 -0.743712 -0.124133 0
M  V30 5028 H 467.665 -1.79132 0.39797 0
M  V30 5029 H 466.047 -3.70281 -1.40384 0
M  V30 5030 H 467.221 -4.39999 1.36886 0
M  V30 5031 H 465.536 -4.02015 1.08502 0
M  V30 5032 H 468.133 -5.14407 -1.45909 0
M  V30 5033 H 468.476 -3.57196 -2.13815 0
M  V30 5034 H 469.009 -3.94873 -0.481687 0
M  V30 5035 H 465.748 -6.44955 1.17105 0
M  V30 5036 H 465.268 -5.97911 -0.475655 0
M  V30 5037 H 466.947 -6.46852 -0.138354 0
M  V30 5038 N 467.08 -0.0183926 -1.57589 0
M  V30 5039 C 468.01 0.965596 -2.12599 0
M  V30 5040 C 468.991 1.34641 -1.0395 0
M  V30 5041 O 470.176 1.42693 -1.31729 0
M  V30 5042 C 467.306 2.25149 -2.64434 0
M  V30 5043 C 466.26 2.01175 -3.77773 0
M  V30 5044 C 465.586 3.35937 -4.15994 0
M  V30 5045 C 466.886 1.35953 -5.04296 0
M  V30 5046 H 468.58 0.507504 -2.95067 0
M  V30 5047 H 466.126 0.242671 -1.41941 0
M  V30 5048 H 468.079 2.94357 -3.01549 0
M  V30 5049 H 466.803 2.73105 -1.79112 0
M  V30 5050 H 465.462 1.34388 -3.4108 0
M  V30 5051 H 465.11 3.81631 -3.27669 0
M  V30 5052 H 464.81 3.20705 -4.92364 0
M  V30 5053 H 466.334 4.0643 -4.55683 0
M  V30 5054 H 467.748 1.95144 -5.39065 0
M  V30 5055 H 466.145 1.31152 -5.85593 0
M  V30 5056 H 467.215 0.331071 -4.83768 0
M  V30 5057 N 468.558 1.5553 0.254621 0
M  V30 5058 C 469.974 1.4778 0.602753 0
M  V30 5059 C 470.174 0.707047 1.88688 0
M  V30 5060 O 469.23 0.233288 2.5142 0
M  V30 5061 C 470.543 2.92133 0.712648 0
M  V30 5062 C 472.091 3.02458 0.805488 0
M  V30 5063 C 472.566 4.48102 0.947009 0
M  V30 5064 N 474.057 4.52008 1.01207 0
M  V30 5065 C 474.792 5.61939 1.1407 0
M  V30 5066 N 474.288 6.81697 1.23536 0
M  V30 5067 N 476.081 5.49719 1.17325 0
M  V30 5068 H 468.232 2.04085 -0.588463 0
M  V30 5069 H 470.495 0.926229 -0.202001 0
M  V30 5070 H 470.201 3.51332 -0.160766 0
M  V30 5071 H 470.075 3.42187 1.58707 0
M  V30 5072 H 472.462 2.43344 1.66936 0
M  V30 5073 H 472.543 2.55627 -0.0939266 0
M  V30 5074 H 472.187 5.07824 0.087725 0
M  V30 5075 H 472.117 4.92607 1.86135 0
M  V30 5076 H 474.608 3.65749 0.950577 0
M  V30 5077 H 474.921 7.61228 1.33236 0
M  V30 5078 H 473.266 6.84473 1.20508 0
M  V30 5079 H 476.457 4.55095 1.09573 0
M  V30 5080 H 476.63 6.35432 1.27005 0
M  V30 5081 N 470.036 -0.519951 1.48776 0
M  V30 5082 C 471.285 -1.27175 1.56555 0
M  V30 5083 C 471.598 -1.9401 0.248869 0
M  V30 5084 O 472.804 -2.70725 0.205004 0
M  V30 5085 C 471.26 -2.30811 2.76142 0
M  V30 5086 C 470.868 -1.7 4.14493 0
M  V30 5087 C 472.612 -3.06937 2.9324 0
M  V30 5088 C 470.519 -2.71635 5.25327 0
M  V30 5089 H 469.449 -0.478329 0.582853 0
M  V30 5090 H 472.1 -0.547916 1.75129 0
M  V30 5091 H 470.482 -3.06274 2.51023 0
M  V30 5092 H 471.656 -1.00658 4.49672 0
M  V30 5093 H 469.971 -1.06331 4.02595 0
M  V30 5094 H 472.568 -3.82905 3.73213 0
M  V30 5095 H 472.911 -3.63409 2.03075 0
M  V30 5096 H 473.444 -2.38589 3.18308 0
M  V30 5097 H 470.183 -2.1997 6.1749 0
M  V30 5098 H 469.703 -3.39275 4.94624 0
M  V30 5099 H 471.382 -3.34429 5.53865 0
M  V30 5100 N 471.514 -1.37532 -0.769588 0
M  V30 5101 C 472.444 -1.36172 -1.89682 0
M  V30 5102 C 473.425 -0.23001 -1.68538 0
M  V30 5103 O 474.61 -0.43069 -1.89364 0
M  V30 5104 C 471.74 -1.1701 -3.26995 0
M  V30 5105 C 470.694 -2.27216 -3.62708 0
M  V30 5106 C 470.02 -1.93174 -4.98586 0
M  V30 5107 C 471.32 -3.6941 -3.69234 0
M  V30 5108 H 473.014 -2.30499 -1.91078 0
M  V30 5109 H 470.56 -1.10953 -0.917902 0
M  V30 5110 H 472.513 -1.14688 -4.05493 0
M  V30 5111 H 471.237 -0.191395 -3.26039 0
M  V30 5112 H 469.896 -2.28697 -2.86519 0
M  V30 5113 H 469.544 -0.938281 -4.94171 0
M  V30 5114 H 469.244 -2.66973 -5.23449 0
M  V30 5115 H 470.768 -1.92443 -5.79481 0
M  V30 5116 H 472.182 -3.70047 -4.37879 0
M  V30 5117 H 470.579 -4.4228 -4.05597 0
M  V30 5118 H 471.649 -4.0288 -2.69844 0
M  V30 5119 N 472.992 0.995999 -1.22138 0
M  V30 5120 C 473.925 2.08302 -0.931952 0
M  V30 5121 C 474.903 1.62127 0.123956 0
M  V30 5122 O 476.087 1.88499 -0.00696004 0
M  V30 5123 C 473.214 3.36317 -0.401068 0
M  V30 5124 C 472.26 4.01413 -1.44117 0
M  V30 5125 S 473.093 4.42664 -3.01345 0
M  V30 5126 C 474.249 5.73853 -2.49887 0
M  V30 5127 H 474.482 2.32532 -1.85246 0
M  V30 5128 H 472.015 1.13005 -1.0521 0
M  V30 5129 H 473.973 4.10375 -0.101352 0
M  V30 5130 H 472.634 3.10123 0.498272 0
M  V30 5131 H 471.827 4.9358 -1.01952 0
M  V30 5132 H 471.429 3.33668 -1.68943 0
M  V30 5133 H 473.721 6.50039 -1.90934 0
M  V30 5134 H 474.664 6.20841 -3.40532 0
M  V30 5135 H 475.072 5.31105 -1.9128 0
M  V30 5136 N 474.47 1.03057 1.19235 0
M  V30 5137 C 475.886 0.747947 1.40989 0
M  V30 5138 C 476.086 -0.666752 1.90149 0
M  V30 5139 O 475.142 -1.43249 2.07933 0
M  V30 5140 C 476.455 1.7855 2.41951 0
M  V30 5141 C 478.003 1.80524 2.55695 0
M  V30 5142 C 478.478 2.83243 3.59913 0
M  V30 5143 N 479.969 2.8207 3.67411 0
M  V30 5144 C 480.704 3.58204 4.47747 0
M  V30 5145 N 480.2 4.44057 5.31775 0
M  V30 5146 N 481.993 3.46738 4.42413 0
M  V30 5147 H 474.144 1.94367 0.856468 0
M  V30 5148 H 476.407 0.840412 0.438647 0
M  V30 5149 H 476.113 2.79973 2.12857 0
M  V30 5150 H 475.987 1.6092 3.41152 0
M  V30 5151 H 478.374 0.79778 2.84112 0
M  V30 5152 H 478.455 2.02229 1.56643 0
M  V30 5153 H 478.099 3.84161 3.32239 0
M  V30 5154 H 478.029 2.58795 4.5862 0
M  V30 5155 H 480.52 2.19803 3.074 0
M  V30 5156 H 480.833 4.98884 5.90199 0
M  V30 5157 H 479.178 4.48129 5.3123 0
M  V30 5158 H 482.369 2.79077 3.75811 0
M  V30 5159 H 482.542 4.06322 5.04783 0
M  V30 5160 N 475.948 -1.35272 0.808662 0
M  V30 5161 C 476.895 -2.29764 0.218482 0
M  V30 5162 C 477.865 -1.52911 -0.648652 0
M  V30 5163 O 479.05 -1.81341 -0.593297 0
M  V30 5164 C 476.19 -3.39388 -0.625282 0
M  V30 5165 C 475.303 -4.31202 0.262516 0
M  V30 5166 C 474.438 -5.27919 -0.589451 0
M  V30 5167 C 473.477 -6.11371 0.298617 0
M  V30 5168 N 472.614 -7.0022 -0.513443 0
M  V30 5169 H 477.454 -2.79645 1.02968 0
M  V30 5170 H 474.991 -1.37629 0.519303 0
M  V30 5171 H 476.949 -4.01615 -1.12966 0
M  V30 5172 H 475.579 -2.90777 -1.40173 0
M  V30 5173 H 474.631 -3.69962 0.885013 0
M  V30 5174 H 475.943 -4.89748 0.945971 0
M  V30 5175 H 475.097 -5.95529 -1.15888 0
M  V30 5176 H 473.836 -4.69875 -1.30647 0
M  V30 5177 H 472.841 -5.42707 0.880301 0
M  V30 5178 H 474.066 -6.71494 1.01352 0
M  V30 5179 H 472.012 -6.44662 -1.21439 0
M  V30 5180 H 471.929 -7.55917 0.111922 0
M  V30 5181 H 473.197 -7.72175 -1.06608 0
M  V30 5182 N 477.426 -0.562348 -1.47226 0
M  V30 5183 C 478.356 0.170627 -2.32876 0
M  V30 5184 C 479.337 0.903748 -1.44106 0
M  V30 5185 O 480.522 0.883206 -1.72954 0
M  V30 5186 C 477.652 1.19786 -3.25989 0
M  V30 5187 C 476.606 0.580875 -4.2404 0
M  V30 5188 C 475.932 1.71311 -5.06514 0
M  V30 5189 C 477.232 -0.468714 -5.20193 0
M  V30 5190 H 478.926 -0.544441 -2.94408 0
M  V30 5191 H 476.472 -0.263271 -1.41573 0
M  V30 5192 H 478.425 1.71884 -3.84752 0
M  V30 5193 H 477.149 1.94294 -2.62521 0
M  V30 5194 H 475.808 0.0811538 -3.6651 0
M  V30 5195 H 475.456 2.44736 -4.39447 0
M  V30 5196 H 475.156 1.30604 -5.72902 0
M  V30 5197 H 476.68 2.23725 -5.68137 0
M  V30 5198 H 478.094 -0.0336028 -5.7329 0
M  V30 5199 H 476.491 -0.794957 -5.94811 0
M  V30 5200 H 477.561 -1.36269 -4.65359 0
M  V30 5201 N 478.904 1.54736 -0.299062 0
M  V30 5202 C 480.32 1.59507 0.0543849 0
M  V30 5203 C 480.52 1.31606 1.52585 0
M  V30 5204 O 479.576 1.08853 2.27832 0
M  V30 5205 C 480.889 2.98751 -0.34181 0
M  V30 5206 C 482.437 3.1165 -0.290414 0
M  V30 5207 C 482.912 4.53199 -0.661402 0
M  V30 5208 N 484.403 4.59114 -0.613863 0
M  V30 5209 C 485.138 5.66709 -0.873417 0
M  V30 5210 N 484.634 6.82349 -1.19884 0
M  V30 5211 N 486.427 5.56369 -0.800608 0
M  V30 5212 H 478.578 1.71133 -1.25806 0
M  V30 5213 H 480.841 0.799186 -0.509908 0
M  V30 5214 H 480.547 3.24085 -1.36608 0
M  V30 5215 H 480.421 3.75961 0.305508 0
M  V30 5216 H 482.808 2.86066 0.724605 0
M  V30 5217 H 482.889 2.366 -0.972327 0
M  V30 5218 H 482.533 4.79513 -1.67422 0
M  V30 5219 H 482.463 5.26583 0.0425612 0
M  V30 5220 H 484.954 3.76053 -0.3732 0
M  V30 5221 H 485.267 7.60326 -1.38291 0
M  V30 5222 H 483.612 6.83906 -1.23685 0
M  V30 5223 H 486.803 4.64904 -0.546045 0
M  V30 5224 H 486.976 6.40139 -1.00626 0
M  V30 5225 N 480.382 0.0267497 1.57577 0
M  V30 5226 C 481.61 -0.662661 1.96001 0
M  V30 5227 C 482.025 -1.65799 0.903117 0
M  V30 5228 O 481.382 -1.82135 -0.115317 0
M  V30 5229 C 481.433 -1.37112 3.34488 0
M  V30 5230 O 481.154 -0.415683 4.36123 0
M  V30 5231 C 482.655 -2.15257 3.8753 0
M  V30 5232 H 479.875 -0.18287 0.6456 0
M  V30 5233 H 482.419 0.0858116 2.0432 0
M  V30 5234 H 480.574 -2.07101 3.27395 0
M  V30 5235 H 480.988 -0.918496 5.16395 0
M  V30 5236 H 482.462 -2.60285 4.86781 0
M  V30 5237 H 482.939 -2.99063 3.21649 0
M  V30 5238 H 483.545 -1.50231 3.97883 0
M  V30 5239 N 481.861 -1.55662 -0.24637 0
M  V30 5240 C 482.793 -1.86811 -1.32794 0
M  V30 5241 C 483.806 -0.754413 -1.44265 0
M  V30 5242 O 484.995 -1.03253 -1.45606 0
M  V30 5243 C 482.095 -2.0397 -2.70646 0
M  V30 5244 C 481.268 -3.34832 -2.81436 0
M  V30 5245 C 480.327 -3.41727 -4.00136 0
M  V30 5246 O 479.353 -4.14934 -3.89639 0
M  V30 5247 N 480.555 -2.71058 -5.1333 0
M  V30 5248 H 483.32 -2.80174 -1.06409 0
M  V30 5249 H 480.881 -1.55906 -0.43647 0
M  V30 5250 H 482.873 -2.05924 -3.48393 0
M  V30 5251 H 481.443 -1.1735 -2.89738 0
M  V30 5252 H 480.663 -3.4519 -1.90361 0
M  V30 5253 H 481.951 -4.21085 -2.85595 0
M  V30 5254 H 481.349 -2.11314 -5.2475 0
M  V30 5255 H 479.906 -2.78704 -5.89209 0
M  V30 5256 N 483.339 0.512053 -1.4905 0
M  V30 5257 C 484.249 1.64139 -1.67617 0
M  V30 5258 C 485.265 1.64786 -0.558701 0
M  V30 5259 O 486.441 1.8341 -0.832034 0
M  V30 5260 C 483.506 3.00548 -1.72835 0
M  V30 5261 C 482.567 3.10615 -2.96339 0
M  V30 5262 C 481.8 4.40517 -3.01298 0
M  V30 5263 O 482.023 5.28671 -2.14157 0
M  V30 5264 O 480.957 4.55325 -3.93653 0
M  V30 5265 H 484.783 1.51407 -2.63267 0
M  V30 5266 H 482.368 0.687131 -1.32661 0
M  V30 5267 H 484.25 3.81641 -1.78683 0
M  V30 5268 H 482.925 3.13566 -0.803616 0
M  V30 5269 H 481.832 2.2875 -2.96014 0
M  V30 5270 H 483.165 3.0252 -3.88256 0
M  V30 5271 N 484.817 1.37938 0.762283 0
M  V30 5272 C 486.045 1.36883 1.55147 0
M  V30 5273 C 486.46 -0.0435348 1.8875 0
M  V30 5274 O 485.817 -1.00786 1.52146 0
M  V30 5275 C 485.868 2.21624 2.85596 0
M  V30 5276 O 485.589 3.57358 2.5343 0
M  V30 5277 C 487.09 2.28653 3.7978 0
M  V30 5278 H 484.31 0.468521 0.480343 0
M  V30 5279 H 486.854 1.81404 0.944079 0
M  V30 5280 H 485.009 1.80588 3.42734 0
M  V30 5281 H 485.423 4.01883 3.37032 0
M  V30 5282 H 486.897 2.9225 4.68288 0
M  V30 5283 H 487.374 1.29767 4.19592 0
M  V30 5284 H 487.98 2.70043 3.28568 0
M  V30 5285 N 486.295 -0.989507 1.22664 0
M  V30 5286 C 487.711 -1.25395 0.987331 0
M  V30 5287 C 487.911 -1.9899 -0.317056 0
M  V30 5288 O 486.967 -2.30141 -1.03882 0
M  V30 5289 C 488.28 -2.06242 2.18826 0
M  V30 5290 C 489.828 -2.19413 2.23219 0
M  V30 5291 C 490.303 -3.03648 3.42873 0
M  V30 5292 N 491.794 -3.11234 3.43056 0
M  V30 5293 C 492.529 -3.7671 4.32293 0
M  V30 5294 N 492.025 -4.44085 5.31752 0
M  V30 5295 N 493.818 -3.73505 4.2006 0
M  V30 5296 H 485.969 -0.496212 2.06522 0
M  V30 5297 H 488.232 -0.281784 0.905153 0
M  V30 5298 H 487.938 -1.59531 3.13437 0
M  V30 5299 H 487.812 -3.06996 2.19165 0
M  V30 5300 H 490.199 -2.65336 1.29154 0
M  V30 5301 H 490.28 -1.18078 2.26917 0
M  V30 5302 H 489.924 -2.58424 4.37241 0
M  V30 5303 H 489.854 -4.05132 3.36416 0
M  V30 5304 H 492.345 -2.63287 2.71088 0
M  V30 5305 H 492.658 -4.91797 5.96117 0
M  V30 5306 H 491.003 -4.42822 5.35662 0
M  V30 5307 H 494.194 -3.20033 3.41609 0
M  V30 5308 H 494.367 -4.24253 4.8981 0
M  V30 5309 N 487.773 -1.03688 -1.18687 0
M  V30 5310 C 489.021 -0.736572 -1.88199 0
M  V30 5311 C 489.342 0.737665 -1.80509 0
M  V30 5312 O 488.612 1.53204 -1.22088 0
M  V30 5313 H 487.192 -0.269466 -0.696704 0
M  V30 5314 H 489.854 -1.31282 -1.44052 0
M  V30 5315 H 488.95 -1.03802 -2.94332 0
M  V30 5316 N 489.251 1.34841 -0.815825 0
M  V30 5317 C 490.199 2.31549 -0.220888 0
M  V30 5318 C 491.193 1.5707 0.634457 0
M  V30 5319 O 492.399 1.72125 0.526589 0
M  V30 5320 H 488.774 0.750153 -0.0526782 0
M  V30 5321 H 490.745 2.7926 -1.05149 0
M  V30 5322 C 489.494 3.42335 0.608427 0
M  V30 5323 H 488.817 3.9978 -0.0404121 0
M  V30 5324 H 490.257 4.12258 0.990931 0
M  V30 5325 C 488.716 2.86173 1.77782 0
M  V30 5326 O 489.246 2.80474 2.87571 0
M  V30 5327 N 487.452 2.43093 1.59229 0
M  V30 5328 H 486.999 2.47928 0.699237 0
M  V30 5329 H 486.957 2.05866 2.37627 0
M  V30 5330 N 490.729 0.570148 1.46925 0
M  V30 5331 C 491.639 -0.173061 2.33961 0
M  V30 5332 C 492.655 -0.898825 1.48987 0
M  V30 5333 O 493.831 -0.864825 1.81887 0
M  V30 5334 C 490.896 -1.18177 3.25937 0
M  V30 5335 C 489.957 -0.462041 4.26806 0
M  V30 5336 C 489.19 -1.4227 5.14388 0
M  V30 5337 O 489.413 -2.65842 5.04662 0
M  V30 5338 O 488.347 -0.940127 5.94513 0
M  V30 5339 H 492.173 0.541216 2.98839 0
M  V30 5340 H 489.758 0.330647 1.45695 0
M  V30 5341 H 491.64 -1.76372 3.82715 0
M  V30 5342 H 490.315 -1.87774 2.63671 0
M  V30 5343 H 489.222 0.161429 3.73752 0
M  V30 5344 H 490.555 0.192719 4.91823 0
M  V30 5345 N 492.207 -1.54576 0.307264 0
M  V30 5346 C 493.453 -2.0056 -0.300612 0
M  V30 5347 C 493.786 -1.1953 -1.53057 0
M  V30 5348 O 493.061 -0.27337 -1.92569 0
M  V30 5349 C 493.344 -3.54167 -0.650987 0
M  V30 5350 C 493.197 -4.45933 0.588539 0
M  V30 5351 C 494.516 -4.14645 -1.47506 0
M  V30 5352 H 491.635 -0.729075 -0.107788 0
M  V30 5353 H 494.277 -1.85286 0.420606 0
M  V30 5354 H 492.427 -3.67313 -1.26544 0
M  V30 5355 H 494.099 -4.44683 1.22697 0
M  V30 5356 H 492.342 -4.16274 1.22058 0
M  V30 5357 H 493.013 -5.51189 0.299153 0
M  V30 5358 H 495.489 -4.04973 -0.955821 0
M  V30 5359 H 494.365 -5.22269 -1.68899 0
M  V30 5360 H 494.626 -3.66921 -2.4662 0
M  V30 5361 N 493.685 -0.035106 -1.57561 0
M  V30 5362 C 494.91 0.655802 -1.96759 0
M  V30 5363 C 495.335 1.64523 -0.911809 0
M  V30 5364 O 494.693 1.80857 0.126673 0
M  V30 5365 C 494.741 1.33326 -3.35047 0
M  V30 5366 O 493.845 2.44866 -3.31835 0
M  V30 5367 H 493.186 0.171807 -0.641388 0
M  V30 5368 H 495.716 -0.0987369 -2.04362 0
M  V30 5369 H 495.726 1.68867 -3.71413 0
M  V30 5370 H 494.401 0.608033 -4.11431 0
M  V30 5371 H 492.978 2.11392 -3.07193 0
M  V30 5372 N 495.163 1.55791 0.238111 0
M  V30 5373 C 496.113 1.87444 1.29803 0
M  V30 5374 C 497.097 0.736043 1.43078 0
M  V30 5375 O 498.289 0.998146 1.46171 0
M  V30 5376 C 495.418 2.18028 2.65177 0
M  V30 5377 C 494.504 3.38217 2.55871 0
M  V30 5378 N 494.895 4.57264 2.16202 0
M  V30 5379 C 493.193 3.41502 2.86866 0
M  V30 5380 C 493.894 5.3941 2.17744 0
M  V30 5381 N 492.87 4.78695 2.57589 0
M  V30 5382 H 496.672 2.7701 0.981965 0
M  V30 5383 H 494.186 1.56135 0.44672 0
M  V30 5384 H 496.183 2.38873 3.4168 0
M  V30 5385 H 494.843 1.29765 2.97643 0
M  V30 5386 H 495.854 4.82727 1.87602 0
M  V30 5387 H 492.531 2.63536 3.23813 0
M  V30 5388 H 493.921 6.44671 1.89339 0
M  V30 5389 N 496.642 -0.504142 1.49319 0
M  V30 5390 C 497.872 -1.28071 1.62116 0
M  V30 5391 C 498.28 -1.86955 0.290566 0
M  V30 5392 O 497.623 -1.68415 -0.733616 0
M  V30 5393 C 497.685 -2.4521 2.62893 0
M  V30 5394 C 497.349 -2.07218 4.0732 0
M  V30 5395 C 498.346 -1.61375 4.94221 0
M  V30 5396 C 496.031 -2.16949 4.53033 0
M  V30 5397 C 498.025 -1.25763 6.2487 0
M  V30 5398 C 495.712 -1.80949 5.83696 0
M  V30 5399 C 496.71 -1.3543 6.69438 0
M  V30 5400 O 496.398 -0.99915 7.97667 0
M  V30 5401 H 496.13 -0.394763 0.54876 0
M  V30 5402 H 498.684 -0.612118 1.96067 0
M  V30 5403 H 496.914 -3.15134 2.24115 0
M  V30 5404 H 498.603 -3.0724 2.65252 0
M  V30 5405 H 499.369 -1.53306 4.60133 0
M  V30 5406 H 495.248 -2.5133 3.86463 0
M  V30 5407 H 498.792 -0.901631 6.91749 0
M  V30 5408 H 494.689 -1.88667 6.17313 0
M  V30 5409 H 495.457 -1.13089 8.1065 0
M  V30 5410 N 498.12 -1.38341 -0.754957 0
M  V30 5411 C 499.067 -1.3546 -1.86867 0
M  V30 5412 C 500.037 -0.217369 -1.64672 0
M  V30 5413 O 501.222 -0.409383 -1.86356 0
M  V30 5414 C 498.362 -1.18413 -3.24149 0
M  V30 5415 C 497.475 -2.41511 -3.58185 0
M  V30 5416 C 496.61 -2.17205 -4.84763 0
M  V30 5417 C 495.649 -3.36081 -5.11582 0
M  V30 5418 N 494.786 -3.11219 -6.29354 0
M  V30 5419 H 499.626 -2.30672 -1.88664 0
M  V30 5420 H 497.163 -1.14607 -0.922154 0
M  V30 5421 H 499.121 -1.06545 -4.03366 0
M  V30 5422 H 497.751 -0.268397 -3.21682 0
M  V30 5423 H 496.803 -2.64056 -2.73822 0
M  V30 5424 H 498.115 -3.30115 -3.73932 0
M  V30 5425 H 497.269 -2.02465 -5.7192 0
M  V30 5426 H 496.008 -1.25964 -4.71152 0
M  V30 5427 H 495.013 -3.51341 -4.22894 0
M  V30 5428 H 496.238 -4.28196 -5.27091 0
M  V30 5429 H 494.184 -2.22624 -6.17069 0
M  V30 5430 H 494.101 -3.93373 -6.45596 0
M  V30 5431 H 495.369 -3.00132 -7.19403 0
M  V30 5432 N 499.598 0.982988 -1.23187 0
M  V30 5433 C 501.014 1.2487 -0.993967 0
M  V30 5434 C 501.214 1.99155 0.306498 0
M  V30 5435 O 500.27 2.30688 1.0266 0
M  V30 5436 C 501.583 2.05078 -2.19917 0
M  V30 5437 C 503.131 2.18227 -2.2438 0
M  V30 5438 C 503.606 3.01825 -3.44479 0
M  V30 5439 N 505.097 3.09411 -3.44702 0
M  V30 5440 C 505.832 3.74412 -4.34285 0
M  V30 5441 N 505.328 4.41259 -5.341 0
M  V30 5442 N 507.121 3.71273 -4.22035 0
M  V30 5443 H 499.272 0.485253 -2.06783 0
M  V30 5444 H 501.535 0.276979 -0.906635 0
M  V30 5445 H 501.241 1.57867 -3.14279 0
M  V30 5446 H 501.115 3.05829 -2.2079 0
M  V30 5447 H 503.502 2.64648 -1.30559 0
M  V30 5448 H 503.583 1.16873 -2.2754 0
M  V30 5449 H 503.227 2.56102 -4.38605 0
M  V30 5450 H 503.157 4.03342 -3.38559 0
M  V30 5451 H 505.648 2.61845 -2.7248 0
M  V30 5452 H 505.961 4.88629 -5.98717 0
M  V30 5453 H 504.306 4.39975 -5.38002 0
M  V30 5454 H 507.497 3.18217 -3.43301 0
M  V30 5455 H 507.67 4.21649 -4.92053 0
M  V30 5456 N 501.076 1.04316 1.18135 0
M  V30 5457 C 502.006 0.657299 2.24058 0
M  V30 5458 C 502.987 -0.340678 1.66654 0
M  V30 5459 O 504.172 -0.220223 1.92947 0
M  V30 5460 C 501.302 0.0220715 3.47293 0
M  V30 5461 C 500.256 0.943857 4.17463 0
M  V30 5462 C 499.582 0.172973 5.3442 0
M  V30 5463 C 500.882 2.26409 4.70677 0
M  V30 5464 H 502.576 1.5428 2.56589 0
M  V30 5465 H 500.122 0.743263 1.23335 0
M  V30 5466 H 502.075 -0.259607 4.206 0
M  V30 5467 H 500.799 -0.898323 3.14003 0
M  V30 5468 H 499.458 1.20996 3.46057 0
M  V30 5469 H 499.106 -0.749907 4.97379 0
M  V30 5470 H 498.806 0.787098 5.82304 0
M  V30 5471 H 500.33 -0.101628 6.10515 0
M  V30 5472 H 501.744 2.04294 5.35665 0
M  V30 5473 H 500.141 2.8314 5.29105 0
M  V30 5474 H 501.211 2.90883 3.87962 0
M  V30 5475 N 502.554 -1.34406 0.822964 0
M  V30 5476 C 503.517 -2.2783 0.250271 0
M  V30 5477 C 504.517 -1.50288 -0.571854 0
M  V30 5478 O 505.707 -1.69825 -0.387952 0
M  V30 5479 C 502.839 -3.34663 -0.649137 0
M  V30 5480 H 504.032 -2.79992 1.07444 0
M  V30 5481 H 501.585 -1.44539 0.594829 0
M  V30 5482 H 502.32 -2.87714 -1.49637 0
M  V30 5483 H 502.105 -3.92052 -0.0611199 0
M  V30 5484 H 503.595 -4.04349 -1.04363 0
M  V30 5485 N 504.032 -0.577932 -1.46621 0
M  V30 5486 C 505.448 -0.239242 -1.57797 0
M  V30 5487 C 505.648 1.25843 -1.57371 0
M  V30 5488 O 504.704 2.03988 -1.48813 0
M  V30 5489 C 506.017 -0.884227 -2.87405 0
M  V30 5490 C 507.565 -0.857373 -3.01028 0
M  V30 5491 C 508.04 -1.48181 -4.33366 0
M  V30 5492 N 509.531 -1.44593 -4.40053 0
M  V30 5493 C 510.266 -1.89852 -5.41058 0
M  V30 5494 N 509.762 -2.43062 -6.48762 0
M  V30 5495 N 511.555 -1.80797 -5.3223 0
M  V30 5496 H 503.706 -1.55073 -1.45142 0
M  V30 5497 H 505.969 -0.647903 -0.692044 0
M  V30 5498 H 505.675 -1.93759 -2.93514 0
M  V30 5499 H 505.549 -0.389585 -3.75183 0
M  V30 5500 H 507.936 0.187357 -2.94505 0
M  V30 5501 H 508.017 -1.38999 -2.14739 0
M  V30 5502 H 507.661 -2.52572 -4.40647 0
M  V30 5503 H 507.591 -0.924464 -5.18422 0
M  V30 5504 H 510.082 -1.05694 -3.62819 0
M  V30 5505 H 510.395 -2.75466 -7.22038 0
M  V30 5506 H 508.74 -2.47085 -6.49595 0
M  V30 5507 H 511.931 -1.38989 -4.46989 0
M  V30 5508 H 512.104 -2.16385 -6.10804 0
M  V30 5509 N 505.51 1.54411 -0.315457 0
M  V30 5510 C 506.735 2.05299 0.294496 0
M  V30 5511 C 507.16 1.19052 1.4563 0
M  V30 5512 O 506.518 0.197804 1.80218 0
M  V30 5513 C 506.566 3.5345 0.714549 0
M  V30 5514 O 505.67 3.70175 1.81781 0
M  V30 5515 H 505.011 0.661743 0.0547019 0
M  V30 5516 H 507.541 1.99327 -0.461508 0
M  V30 5517 H 507.551 3.9557 0.999426 0
M  V30 5518 H 506.226 4.1568 -0.135244 0
M  V30 5519 H 504.803 3.3996 1.53236 0
M  V30 5520 N 506.988 0.0434614 1.5754 0
M  V30 5521 C 508.216 -0.641835 1.96693 0
M  V30 5522 C 508.631 -1.64832 0.920652 0
M  V30 5523 O 507.988 -1.82247 -0.095993 0
M  V30 5524 C 508.039 -1.33557 3.35924 0
M  V30 5525 O 507.76 -0.369403 4.3654 0
M  V30 5526 C 509.261 -2.11135 3.89791 0
M  V30 5527 H 506.481 -0.176013 0.647503 0
M  V30 5528 H 509.025 0.107478 2.04217 0
M  V30 5529 H 507.18 -2.03617 3.29574 0
M  V30 5530 H 507.594 -0.863674 5.1734 0
M  V30 5531 H 509.068 -2.55107 4.89514 0
M  V30 5532 H 509.545 -2.95634 3.24803 0
M  V30 5533 H 510.151 -1.46002 3.99454 0
M  V30 5534 N 508.466 -1.55915 -0.229846 0
M  V30 5535 C 509.396 -1.94754 -1.28815 0
M  V30 5536 C 510.377 -0.814657 -1.49323 0
M  V30 5537 O 511.562 -1.07631 -1.61645 0
M  V30 5538 C 508.692 -2.25705 -2.63959 0
M  V30 5539 C 507.646 -3.41406 -2.5812 0
M  V30 5540 C 506.972 -3.57941 -3.97218 0
M  V30 5541 C 508.272 -4.76616 -2.13623 0
M  V30 5542 H 509.966 -2.83404 -0.965547 0
M  V30 5543 H 507.512 -1.36353 -0.463028 0
M  V30 5544 H 509.465 -2.51467 -3.38146 0
M  V30 5545 H 508.189 -1.339 -2.9789 0
M  V30 5546 H 506.848 -3.1568 -1.86391 0
M  V30 5547 H 506.496 -2.63526 -4.28443 0
M  V30 5548 H 506.196 -4.35757 -3.94195 0
M  V30 5549 H 507.72 -3.86042 -4.73079 0
M  V30 5550 H 509.134 -5.01637 -2.77549 0
M  V30 5551 H 507.531 -5.57655 -2.21677 0
M  V30 5552 H 508.601 -4.7253 -1.08829 0
M  V30 5553 N 509.944 0.496216 -1.49584 0
M  V30 5554 C 510.874 1.60576 -1.69521 0
M  V30 5555 C 511.855 1.61169 -0.543933 0
M  V30 5556 O 513.04 1.77834 -0.78031 0
M  V30 5557 C 510.17 2.99038 -1.76616 0
M  V30 5558 C 509.124 3.13312 -2.91581 0
M  V30 5559 C 508.45 4.53172 -2.83794 0
M  V30 5560 C 509.75 2.92886 -4.32452 0
M  V30 5561 H 511.444 1.44146 -2.62416 0
M  V30 5562 H 508.99 0.692024 -1.26282 0
M  V30 5563 H 510.943 3.76564 -1.8915 0
M  V30 5564 H 509.667 3.16568 -0.80324 0
M  V30 5565 H 508.326 2.38213 -2.78658 0
M  V30 5566 H 507.974 4.67585 -1.854 0
M  V30 5567 H 507.674 4.63662 -3.60958 0
M  V30 5568 H 509.198 5.32752 -2.98342 0
M  V30 5569 H 510.612 3.60178 -4.46032 0
M  V30 5570 H 509.009 3.14844 -5.10875 0
M  V30 5571 H 510.079 1.88966 -4.46565 0
M  V30 5572 N 511.423 1.38739 0.74761 0
M  V30 5573 C 512.353 1.39173 1.87492 0
M  V30 5574 C 513.334 0.256794 1.6815 0
M  V30 5575 O 514.519 0.460762 1.88655 0
M  V30 5576 C 511.649 1.22197 3.25093 0
M  V30 5577 C 510.603 2.32957 3.59047 0
M  V30 5578 C 509.929 2.01082 4.95449 0
M  V30 5579 C 511.229 3.75237 3.6331 0
M  V30 5580 H 512.923 2.3351 1.87386 0
M  V30 5581 H 510.469 1.12399 0.900134 0
M  V30 5582 H 512.422 1.21124 4.03617 0
M  V30 5583 H 511.146 0.243241 3.25693 0
M  V30 5584 H 509.805 2.33226 2.82845 0
M  V30 5585 H 509.453 1.01678 4.92616 0
M  V30 5586 H 509.153 2.75267 5.19136 0
M  V30 5587 H 510.677 2.01638 5.76346 0
M  V30 5588 H 512.091 3.76966 4.31937 0
M  V30 5589 H 510.488 4.48677 3.98509 0
M  V30 5590 H 511.558 4.07122 2.634 0
M  V30 5591 N 512.901 -0.976442 1.23707 0
M  V30 5592 C 514.15 -1.71254 1.06559 0
M  V30 5593 C 514.463 -1.91528 -0.397024 0
M  V30 5594 O 515.669 -2.62625 -0.688518 0
M  V30 5595 C 514.125 -3.08207 1.8584 0
M  V30 5596 C 513.733 -2.95806 3.36456 0
M  V30 5597 C 515.477 -3.85749 1.77194 0
M  V30 5598 C 513.384 -4.28015 4.08114 0
M  V30 5599 H 512.314 -0.642171 0.395136 0
M  V30 5600 H 514.965 -1.08877 1.4771 0
M  V30 5601 H 513.347 -3.71363 1.37498 0
M  V30 5602 H 514.521 -2.41716 3.92314 0
M  V30 5603 H 512.836 -2.31736 3.45959 0
M  V30 5604 H 515.433 -4.83633 2.28041 0
M  V30 5605 H 515.776 -4.09752 0.735477 0
M  V30 5606 H 516.309 -3.29303 2.23169 0
M  V30 5607 H 513.048 -4.09208 5.12083 0
M  V30 5608 H 512.568 -4.81955 3.57043 0
M  V30 5609 H 514.247 -4.96681 4.14629 0
M  V30 5610 N 514.379 -1.04941 -1.1758 0
M  V30 5611 C 515.79 -0.784501 -1.69418 0
M  V30 5612 C 516.141 0.693625 -1.8353 0
M  V30 5613 O 515.266 1.53925 -1.52106 0
M  V30 5614 C 515.861 -1.41746 -3.07723 0
M  V30 5615 C 514.42 -1.20066 -3.56737 0
M  V30 5616 C 513.567 -1.5026 -2.33061 0
M  V30 5617 H 516.518 -1.21469 -1.02133 0
M  V30 5618 H 516.539 -0.825381 -3.7144 0
M  V30 5619 H 516.051 -2.49325 -2.9742 0
M  V30 5620 H 514.152 -0.144006 -3.72322 0
M  V30 5621 H 514.265 -1.90384 -4.39648 0
M  V30 5622 H 512.629 -0.922598 -2.37403 0
M  V30 5623 H 513.412 -2.58967 -2.25368 0
M  V30 5624 N 515.857 1.33968 -0.830081 0
M  V30 5625 C 516.787 2.31911 -0.271911 0
M  V30 5626 C 517.768 1.58571 0.61556 0
M  V30 5627 O 518.953 1.86514 0.540946 0
M  V30 5628 C 516.083 3.42737 0.561146 0
M  V30 5629 C 515.037 4.27383 -0.229789 0
M  V30 5630 C 514.363 5.29742 0.726463 0
M  V30 5631 C 515.663 5.02 -1.44197 0
M  V30 5632 H 517.357 2.78844 -1.09025 0
M  V30 5633 H 514.903 1.34061 -0.52571 0
M  V30 5634 H 516.856 4.10276 0.961867 0
M  V30 5635 H 515.58 2.94471 1.41261 0
M  V30 5636 H 514.239 3.61456 -0.611964 0
M  V30 5637 H 513.887 4.77736 1.57408 0
M  V30 5638 H 513.587 5.87255 0.20142 0
M  V30 5639 H 515.111 6.00149 1.12489 0
M  V30 5640 H 516.525 5.62355 -1.11488 0
M  V30 5641 H 514.922 5.69122 -1.90317 0
M  V30 5642 H 515.992 4.31281 -2.2164 0
M  V30 5643 N 517.335 0.585699 1.46312 0
M  V30 5644 C 518.582 0.0724211 2.0237 0
M  V30 5645 C 518.91 -1.28868 1.45683 0
M  V30 5646 O 518.165 -1.85853 0.612945 0
M  V30 5647 C 518.464 -0.0401312 3.57377 0
M  V30 5648 C 518.13 1.25376 4.33119 0
M  V30 5649 C 516.792 1.60824 4.5353 0
M  V30 5650 C 519.144 2.10987 4.76586 0
M  V30 5651 C 516.472 2.81676 5.14661 0
M  V30 5652 C 518.824 3.31068 5.39052 0
M  V30 5653 C 517.488 3.66794 5.5769 0
M  V30 5654 H 516.758 0.0265007 0.740526 0
M  V30 5655 H 519.405 0.762935 1.75646 0
M  V30 5656 H 517.71 -0.813791 3.83255 0
M  V30 5657 H 519.407 -0.453078 3.98432 0
M  V30 5658 H 515.997 0.967808 4.1753 0
M  V30 5659 H 520.181 1.84904 4.60569 0
M  V30 5660 H 515.437 3.0949 5.27282 0
M  V30 5661 H 519.611 3.97672 5.71691 0
M  V30 5662 H 517.238 4.60529 6.04828 0
M  V30 5663 N 518.813 -1.54241 0.323641 0
M  V30 5664 C 520.061 -2.00174 -0.278359 0
M  V30 5665 C 520.382 -1.2134 -1.52648 0
M  V30 5666 O 519.652 -0.315244 -1.93347 0
M  V30 5667 H 518.232 -0.739463 -0.105845 0
M  V30 5668 H 520.894 -1.89864 0.440204 0
M  V30 5669 H 519.99 -3.07486 -0.5347 0
M  V30 5670 N 520.291 -0.0518155 -1.57515 0
M  V30 5671 C 521.54 0.621286 -1.91893 0
M  V30 5672 C 521.853 1.71966 -0.932052 0
M  V30 5673 O 523.059 2.45096 -1.16791 0
M  V30 5674 C 521.515 1.15641 -3.40816 0
M  V30 5675 C 521.123 0.0901146 -4.47909 0
M  V30 5676 C 522.867 1.80472 -3.84227 0
M  V30 5677 C 520.774 0.638154 -5.87947 0
M  V30 5678 H 519.704 0.235835 -0.716169 0
M  V30 5679 H 522.355 -0.120809 -1.83102 0
M  V30 5680 H 520.737 1.95084 -3.44613 0
M  V30 5681 H 521.911 -0.683525 -4.55702 0
M  V30 5682 H 520.226 -0.460774 -4.13843 0
M  V30 5683 H 522.823 2.22471 -4.86221 0
M  V30 5684 H 523.166 2.65669 -3.20508 0
M  V30 5685 H 523.699 1.07683 -3.82948 0
M  V30 5686 H 520.438 -0.176202 -6.55263 0
M  V30 5687 H 519.958 1.37976 -5.83714 0
M  V30 5688 H 521.637 1.12085 -6.37217 0
M  V30 5689 N 521.769 1.56035 0.221574 0
M  V30 5690 C 522.719 1.8881 1.27807 0
M  V30 5691 C 523.703 0.751177 1.42289 0
M  V30 5692 O 524.895 1.01359 1.45104 0
M  V30 5693 C 522.024 2.20828 2.6285 0
M  V30 5694 C 521.11 3.40912 2.52269 0
M  V30 5695 N 521.501 4.59531 2.1134 0
M  V30 5696 C 519.799 3.44526 2.83228 0
M  V30 5697 C 520.5 5.41689 2.1201 0
M  V30 5698 N 519.476 4.814 2.52497 0
M  V30 5699 H 523.278 2.78036 0.952529 0
M  V30 5700 H 520.792 1.566 0.430134 0
M  V30 5701 H 522.789 2.42483 3.39127 0
M  V30 5702 H 521.449 1.32914 2.9625 0
M  V30 5703 H 522.46 4.8469 1.82472 0
M  V30 5704 H 519.137 2.66956 3.21 0
M  V30 5705 H 520.527 6.46643 1.82491 0
M  V30 5706 N 523.247 -0.488276 1.49845 0
M  V30 5707 C 524.477 -1.26344 1.63465 0
M  V30 5708 C 524.885 -1.86637 0.310379 0
M  V30 5709 O 524.228 -1.69184 -0.715712 0
M  V30 5710 C 524.29 -2.42407 2.65479 0
M  V30 5711 C 523.954 -2.02886 4.09495 0
M  V30 5712 C 524.951 -1.56124 4.95904 0
M  V30 5713 C 522.636 -2.12131 4.55308 0
M  V30 5714 C 524.63 -1.19129 6.26169 0
M  V30 5715 C 522.317 -1.74747 5.85582 0
M  V30 5716 C 523.315 -1.28322 6.70837 0
M  V30 5717 O 523.003 -0.914491 7.98682 0
M  V30 5718 H 522.735 -0.388921 0.552916 0
M  V30 5719 H 525.289 -0.591288 1.96705 0
M  V30 5720 H 523.519 -3.12739 2.27445 0
M  V30 5721 H 525.208 -3.04409 2.68495 0
M  V30 5722 H 525.974 -1.48417 4.61733 0
M  V30 5723 H 521.853 -2.47217 3.89107 0
M  V30 5724 H 525.397 -0.828211 6.92666 0
M  V30 5725 H 521.294 -1.82109 6.19279 0
M  V30 5726 H 522.062 -1.04485 8.11804 0
M  V30 5727 N 524.725 -1.39134 -0.740242 0
M  V30 5728 C 525.974 -1.35384 -1.49512 0
M  V30 5729 C 526.287 0.04919 -1.95538 0
M  V30 5730 O 527.493 0.209257 -2.70692 0
M  V30 5731 C 525.949 -2.37812 -2.70136 0
M  V30 5732 C 525.557 -3.83804 -2.31081 0
M  V30 5733 C 527.301 -2.4313 -3.47977 0
M  V30 5734 C 525.208 -4.77886 -3.48395 0
M  V30 5735 H 524.138 -0.503297 -0.561434 0
M  V30 5736 H 526.789 -1.64754 -0.807974 0
M  V30 5737 H 525.171 -2.01505 -3.40899 0
M  V30 5738 H 526.345 -4.29123 -1.67898 0
M  V30 5739 H 524.66 -3.81732 -1.66343 0
M  V30 5740 H 527.257 -3.10614 -4.35228 0
M  V30 5741 H 527.6 -1.45423 -3.90074 0
M  V30 5742 H 528.133 -2.78304 -2.84239 0
M  V30 5743 H 524.872 -5.76836 -3.11353 0
M  V30 5744 H 524.392 -4.3725 -4.10576 0
M  V30 5745 H 526.071 -4.96538 -4.148 0
M  V30 5746 N 526.204 0.969867 -1.24223 0
M  V30 5747 C 527.45 1.7151 -1.08223 0
M  V30 5748 C 527.783 1.90478 0.37838 0
M  V30 5749 O 527.058 1.4647 1.27971 0
M  V30 5750 C 527.341 3.10714 -1.82013 0
M  V30 5751 C 527.194 2.9925 -3.35811 0
M  V30 5752 C 528.513 4.10332 -1.59108 0
M  V30 5753 H 525.632 0.622499 -0.394543 0
M  V30 5754 H 528.274 1.1284 -1.52863 0
M  V30 5755 H 526.424 3.608 -1.44068 0
M  V30 5756 H 528.096 2.56608 -3.83341 0
M  V30 5757 H 526.339 2.35512 -3.64303 0
M  V30 5758 H 527.01 3.97857 -3.82641 0
M  V30 5759 H 529.486 3.69097 -1.92111 0
M  V30 5760 H 528.362 5.05804 -2.13198 0
M  V30 5761 H 528.623 4.38926 -0.528832 0
M  V30 5762 N 527.682 1.05563 1.17022 0
M  V30 5763 C 528.929 0.767937 1.87374 0
M  V30 5764 C 529.257 -0.705224 1.81265 0
M  V30 5765 O 528.512 -1.5318 1.21796 0
M  V30 5766 C 528.811 1.19849 3.36706 0
M  V30 5767 C 528.477 2.6745 3.63017 0
M  V30 5768 C 527.139 3.0777 3.69907 0
M  V30 5769 C 529.491 3.62811 3.74189 0
M  V30 5770 C 526.819 4.42307 3.85463 0
M  V30 5771 C 529.171 4.97087 3.91264 0
M  V30 5772 C 527.835 5.37055 3.96394 0
M  V30 5773 H 527.105 0.281008 0.68565 0
M  V30 5774 H 529.752 1.32339 1.38415 0
M  V30 5775 H 528.057 0.562096 3.87747 0
M  V30 5776 H 529.754 0.953038 3.8951 0
M  V30 5777 H 526.344 2.35228 3.58282 0
M  V30 5778 H 530.528 3.32798 3.68183 0
M  V30 5779 H 525.784 4.72769 3.87684 0
M  V30 5780 H 529.958 5.70869 3.9885 0
M  V30 5781 H 527.585 6.41308 4.082 0
M  V30 5782 N 529.16 -1.33526 0.837174 0
M  V30 5783 C 530.123 -2.27551 0.274421 0
M  V30 5784 C 531.123 -1.50886 -0.555881 0
M  V30 5785 O 532.313 -1.70227 -0.369918 0
M  V30 5786 C 529.445 -3.35332 -0.613605 0
M  V30 5787 H 530.638 -2.78837 1.10408 0
M  V30 5788 H 528.191 -1.439 0.610126 0
M  V30 5789 H 528.926 -2.89285 -1.46577 0
M  V30 5790 H 528.711 -3.92095 -0.0195341 0
M  V30 5791 H 530.201 -4.05433 -1.00068 0
M  V30 5792 N 530.638 -0.59345 -1.46 0
M  V30 5793 C 531.885 -0.0831523 -2.02329 0
M  V30 5794 C 532.213 1.28093 -1.46364 0
M  V30 5795 O 531.468 1.85526 -0.622793 0
M  V30 5796 C 531.767 0.021178 -3.57394 0
M  V30 5797 C 531.433 -1.27671 -4.32448 0
M  V30 5798 C 530.095 -1.63227 -4.5267 0
M  V30 5799 C 532.447 -2.13511 -4.7546 0
M  V30 5800 C 529.775 -2.84401 -5.1316 0
M  V30 5801 C 532.127 -3.33922 -5.37289 0
M  V30 5802 C 530.791 -3.69747 -5.55737 0
M  V30 5803 H 530.061 -0.0304276 -0.740375 0
M  V30 5804 H 532.708 -0.772239 -1.75239 0
M  V30 5805 H 531.013 0.793454 -3.83682 0
M  V30 5806 H 532.71 0.431942 -3.98667 0
M  V30 5807 H 529.3 -0.989937 -4.17011 0
M  V30 5808 H 533.484 -1.87344 -4.59582 0
M  V30 5809 H 528.74 -3.12282 -5.25633 0
M  V30 5810 H 532.914 -4.00698 -5.69574 0
M  V30 5811 H 530.541 -4.6373 -6.02377 0
M  V30 5812 N 532.116 1.54067 -0.331816 0
M  V30 5813 C 533.341 2.05599 0.272705 0
M  V30 5814 C 533.766 1.2059 1.44359 0
M  V30 5815 O 533.124 0.216907 1.79998 0
M  V30 5816 C 533.172 3.54188 0.677021 0
M  V30 5817 O 532.276 3.72082 1.77844 0
M  V30 5818 H 531.617 0.662286 0.0476801 0
M  V30 5819 H 534.147 1.98826 -0.482624 0
M  V30 5820 H 534.157 3.96608 0.957415 0
M  V30 5821 H 532.832 4.15513 -0.179325 0
M  V30 5822 H 531.409 3.41566 1.49622 0
M  V30 5823 N 533.594 0.0601682 1.57485 0
M  V30 5824 C 535.005 -0.474217 1.80577 0
M  V30 5825 C 535.356 -1.70365 0.973147 0
M  V30 5826 O 534.481 -2.15544 0.192306 0
M  V30 5827 C 535.076 -0.867102 3.27516 0
M  V30 5828 C 533.635 -1.34642 3.51495 0
M  V30 5829 C 532.782 -0.32594 2.75378 0
M  V30 5830 H 535.733 0.285973 1.56102 0
M  V30 5831 H 535.754 -1.72938 3.38929 0
M  V30 5832 H 535.266 0.0278927 3.8809 0
M  V30 5833 H 533.367 -2.2603 2.96212 0
M  V30 5834 H 533.48 -1.33237 4.60201 0
M  V30 5835 H 531.844 -0.800749 2.41785 0
M  V30 5836 H 532.627 0.561125 3.38683 0
M  V30 5837 N 535.072 -1.5615 -0.213296 0
M  V30 5838 C 535.982 -1.96265 -1.28519 0
M  V30 5839 C 536.998 -0.86765 -1.50824 0
M  V30 5840 O 538.174 -1.17191 -1.63793 0
M  V30 5841 C 535.239 -2.27836 -2.61327 0
M  V30 5842 C 534.3 -3.50949 -2.47252 0
M  V30 5843 C 533.533 -3.81004 -3.73727 0
M  V30 5844 O 533.756 -3.12612 -4.77106 0
M  V30 5845 O 532.69 -4.74477 -3.70344 0
M  V30 5846 H 536.516 -2.87631 -0.974795 0
M  V30 5847 H 534.101 -1.43467 -0.416832 0
M  V30 5848 H 535.983 -2.49299 -3.39747 0
M  V30 5849 H 534.658 -1.39643 -2.9203 0
M  V30 5850 H 533.565 -3.34754 -1.67004 0
M  V30 5851 H 534.898 -4.39551 -2.21486 0
M  V30 5852 N 536.55 0.480323 -1.50102 0
M  V30 5853 C 537.827 1.24159 -1.51142 0
M  V30 5854 C 538.207 2.09605 -0.250818 0
M  V30 5855 O 537.555 2.15274 0.766118 0
M  V30 5856 C 537.765 2.08057 -2.80202 0
M  V30 5857 C 539.113 2.66556 -3.30504 0
M  V30 5858 O 540.137 2.18308 -2.81461 0
M  V30 5859 O 538.996 3.54442 -4.15973 0
M  V30 5860 H 536.09 0.562928 -0.605839 0
M  V30 5861 H 538.636 0.492899 -1.62384 0
M  V30 5862 H 537.408 1.45032 -3.6343 0
M  V30 5863 H 537.031 2.90079 -2.71919 0
M  V30 5864 N 538.028 1.39524 0.732853 0
M  V30 5865 C 538.991 1.38189 1.82857 0
M  V30 5866 C 539.991 0.278624 1.58368 0
M  V30 5867 O 541.181 0.536639 1.65728 0
M  V30 5868 C 538.313 1.15661 3.2068 0
M  V30 5869 H 539.506 2.35692 1.85444 0
M  V30 5870 H 537.059 1.2512 0.936728 0
M  V30 5871 H 537.794 0.188482 3.23752 0
M  V30 5872 H 537.579 1.95559 3.39852 0
M  V30 5873 H 539.069 1.17472 4.00737 0
M  V30 5874 N 539.506 -0.963266 1.24736 0
M  V30 5875 C 540.439 -2.05758 0.986852 0
M  V30 5876 C 541.417 -1.62398 -0.0809272 0
M  V30 5877 O 542.601 -1.88414 0.0569347 0
M  V30 5878 C 539.728 -3.35135 0.490095 0
M  V30 5879 C 538.774 -3.97451 1.54709 0
M  V30 5880 S 539.607 -4.34519 3.12976 0
M  V30 5881 C 540.763 -5.67026 2.65014 0
M  V30 5882 H 540.996 -2.27539 1.91346 0
M  V30 5883 H 538.529 -1.10176 1.08169 0
M  V30 5884 H 540.487 -4.09962 0.21012 0
M  V30 5885 H 539.148 -3.11335 -0.415873 0
M  V30 5886 H 538.341 -4.90704 1.15003 0
M  V30 5887 H 537.943 -3.29071 1.77731 0
M  V30 5888 H 540.235 -6.44748 2.08102 0
M  V30 5889 H 541.178 -6.11594 3.56873 0
M  V30 5890 H 541.586 -5.25847 2.05294 0
M  V30 5891 N 540.985 -1.06182 -1.16461 0
M  V30 5892 C 541.895 -0.682671 -2.24448 0
M  V30 5893 C 542.911 0.30078 -1.71381 0
M  V30 5894 O 544.087 0.150376 -2.00838 0
M  V30 5895 C 541.152 -0.0737202 -3.46622 0
M  V30 5896 C 540.213 -1.10889 -4.14731 0
M  V30 5897 C 539.446 -0.528908 -5.31073 0
M  V30 5898 O 539.669 0.65868 -5.66584 0
M  V30 5899 O 538.603 -1.26805 -5.88391 0
M  V30 5900 H 542.429 -1.58291 -2.59187 0
M  V30 5901 H 540.014 -0.834013 -1.23954 0
M  V30 5902 H 541.896 0.264192 -4.20571 0
M  V30 5903 H 540.571 0.800015 -3.13658 0
M  V30 5904 H 539.478 -1.49896 -3.42756 0
M  V30 5905 H 540.811 -1.95412 -4.51747 0
M  V30 5906 N 542.463 1.3308 -0.844243 0
M  V30 5907 C 543.712 1.96868 -0.438833 0
M  V30 5908 C 544.025 1.67599 1.00846 0
M  V30 5909 O 545.231 2.25043 1.51881 0
M  V30 5910 C 543.687 3.5234 -0.73377 0
M  V30 5911 C 543.295 3.90481 -2.1961 0
M  V30 5912 C 545.039 4.22653 -0.395574 0
M  V30 5913 C 542.946 5.38954 -2.43481 0
M  V30 5914 H 541.876 0.736749 -0.160364 0
M  V30 5915 H 544.527 1.51623 -1.03358 0
M  V30 5916 H 542.909 3.95941 -0.068589 0
M  V30 5917 H 544.083 3.57922 -2.90221 0
M  V30 5918 H 542.398 3.33165 -2.4978 0
M  V30 5919 H 544.995 5.31848 -0.551477 0
M  V30 5920 H 545.338 4.11004 0.661921 0
M  V30 5921 H 545.871 3.84601 -1.01621 0
M  V30 5922 H 542.61 5.55612 -3.47816 0
M  V30 5923 H 542.13 5.72954 -1.77437 0
M  V30 5924 H 543.809 6.05907 -2.26905 0
M  V30 5925 N 543.941 0.601185 1.45683 0
M  V30 5926 C 544.873 -0.159446 2.28645 0
M  V30 5927 C 545.886 -0.837882 1.39583 0
M  V30 5928 O 547.075 -0.704344 1.64016 0
M  V30 5929 C 544.175 -1.24641 3.15147 0
M  V30 5930 C 543.348 -0.656334 4.32448 0
M  V30 5931 C 542.407 -1.63337 5.00208 0
M  V30 5932 O 541.433 -1.16217 5.57209 0
M  V30 5933 N 542.635 -2.96773 4.98905 0
M  V30 5934 H 545.4 0.5524 2.94565 0
M  V30 5935 H 542.961 0.440223 1.558 0
M  V30 5936 H 544.953 -1.8997 3.57342 0
M  V30 5937 H 543.523 -1.86087 2.51178 0
M  V30 5938 H 542.743 0.174879 3.93812 0
M  V30 5939 H 544.031 -0.242211 5.08223 0
M  V30 5940 H 543.429 -3.37662 4.53873 0
M  V30 5941 H 541.986 -3.57541 5.44984 0
M  V30 5942 N 545.419 -1.53889 0.339982 0
M  V30 5943 C 546.349 -2.27843 -0.510856 0
M  V30 5944 C 547.33 -1.29267 -1.10563 0
M  V30 5945 O 548.515 -1.58104 -1.12768 0
M  V30 5946 C 545.645 -3.04857 -1.66372 0
M  V30 5947 C 544.599 -4.10907 -1.19746 0
M  V30 5948 C 543.925 -4.75855 -2.43857 0
M  V30 5949 C 545.225 -5.21435 -0.300501 0
M  V30 5950 H 546.919 -2.99212 0.106067 0
M  V30 5951 H 544.465 -1.43904 0.0524533 0
M  V30 5952 H 546.418 -3.5533 -2.26537 0
M  V30 5953 H 545.142 -2.31133 -2.30749 0
M  V30 5954 H 543.801 -3.61342 -0.618654 0
M  V30 5955 H 543.449 -3.9873 -3.06633 0
M  V30 5956 H 543.149 -5.47502 -2.13343 0
M  V30 5957 H 544.673 -5.2911 -3.04754 0
M  V30 5958 H 546.087 -5.67565 -0.80889 0
M  V30 5959 H 544.484 -6.00036 -0.0874076 0
M  V30 5960 H 545.554 -4.80328 0.664321 0
M  V30 5961 N 546.897 -0.0685191 -1.57451 0
M  V30 5962 C 548.144 0.601348 -1.93365 0
M  V30 5963 C 548.472 1.69816 -0.948294 0
M  V30 5964 O 547.727 1.95666 0.0366199 0
M  V30 5965 C 548.026 1.22051 -3.35914 0
M  V30 5966 C 547.692 0.250165 -4.50205 0
M  V30 5967 C 546.354 -0.0167954 -4.81197 0
M  V30 5968 C 548.706 -0.413867 -5.19554 0
M  V30 5969 C 546.034 -0.95493 -5.78876 0
M  V30 5970 C 548.386 -1.3403 -6.18238 0
M  V30 5971 C 547.05 -1.61576 -6.47649 0
M  V30 5972 H 546.32 0.220049 -0.707573 0
M  V30 5973 H 548.967 -0.138697 -1.90997 0
M  V30 5974 H 547.272 2.03622 -3.34732 0
M  V30 5975 H 548.969 1.74605 -3.6099 0
M  V30 5976 H 545.559 0.468421 -4.26033 0
M  V30 5977 H 549.743 -0.220733 -4.95809 0
M  V30 5978 H 544.999 -1.17563 -5.99991 0
M  V30 5979 H 549.173 -1.86081 -6.71079 0
M  V30 5980 H 546.8 -2.34431 -7.2315 0
M  V30 5981 N 548.375 1.56261 0.205012 0
M  V30 5982 C 549.622 1.8004 0.926927 0
M  V30 5983 C 549.95 0.640086 1.83666 0
M  V30 5984 O 549.205 -0.374702 1.92079 0
M  V30 5985 C 549.504 3.09722 1.78345 0
M  V30 5986 C 549.17 4.39082 1.02555 0
M  V30 5987 C 547.832 4.74226 0.816256 0
M  V30 5988 C 550.184 5.18877 0.491559 0
M  V30 5989 C 547.512 5.86668 0.0613287 0
M  V30 5990 C 549.864 6.32105 -0.250107 0
M  V30 5991 C 548.528 6.6584 -0.470508 0
M  V30 5992 H 547.798 0.658812 0.339187 0
M  V30 5993 H 550.445 1.90515 0.19395 0
M  V30 5994 H 548.75 2.9444 2.5848 0
M  V30 5995 H 550.447 3.25324 2.34446 0
M  V30 5996 H 547.037 4.11497 1.19868 0
M  V30 5997 H 551.221 4.92147 0.640684 0
M  V30 5998 H 546.477 6.11283 -0.119501 0
M  V30 5999 H 550.651 6.93157 -0.671307 0
M  V30 6000 H 548.278 7.5281 -1.05739 0
M  V30 6001 N 549.853 -0.472356 1.50355 0
M  V30 6002 C 550.763 -1.59637 1.7191 0
M  V30 6003 C 551.779 -1.63247 0.602195 0
M  V30 6004 O 552.955 -1.81139 0.880369 0
M  V30 6005 C 550.02 -2.9586 1.80742 0
M  V30 6006 C 549.081 -3.02649 3.04471 0
M  V30 6007 C 548.314 -4.32374 3.12872 0
M  V30 6008 O 548.537 -5.22807 2.28099 0
M  V30 6009 O 547.471 -4.44728 4.05587 0
M  V30 6010 H 551.297 -1.44373 2.67189 0
M  V30 6011 H 548.882 -0.651717 1.34436 0
M  V30 6012 H 550.764 -3.7677 1.88739 0
M  V30 6013 H 549.439 -3.11325 0.88647 0
M  V30 6014 H 548.346 -2.20821 3.01975 0
M  V30 6015 H 549.679 -2.92119 3.9614 0
M  V30 6016 N 551.331 -1.39911 -0.725443 0
M  V30 6017 C 552.261 -1.42138 -1.85254 0
M  V30 6018 C 553.242 -0.283513 -1.67721 0
M  V30 6019 O 554.427 -0.490717 -1.87898 0
M  V30 6020 C 551.557 -1.27354 -3.23107 0
M  V30 6021 C 550.511 -2.3864 -3.55296 0
M  V30 6022 C 549.837 -2.08939 -4.92188 0
M  V30 6023 C 551.137 -3.8097 -3.57295 0
M  V30 6024 H 552.831 -2.36461 -1.83648 0
M  V30 6025 H 550.377 -1.13817 -0.882138 0
M  V30 6026 H 552.33 -1.2753 -4.01639 0
M  V30 6027 H 551.054 -0.295025 -3.25265 0
M  V30 6028 H 549.713 -2.37696 -2.79099 0
M  V30 6029 H 549.361 -1.09502 -4.90936 0
M  V30 6030 H 549.061 -2.83491 -5.14691 0
M  V30 6031 H 550.585 -2.10781 -5.73065 0
M  V30 6032 H 551.999 -3.8379 -4.25885 0
M  V30 6033 H 550.396 -4.5496 -3.9132 0
M  V30 6034 H 551.466 -4.11261 -2.5689 0
M  V30 6035 N 552.809 0.956637 -1.25245 0
M  V30 6036 C 553.772 2.03457 -1.05537 0
M  V30 6037 C 554.772 1.60798 -0.00886317 0
M  V30 6038 O 555.962 1.72384 -0.250865 0
M  V30 6039 C 553.094 3.35543 -0.601965 0
M  V30 6040 H 554.287 2.22372 -2.01223 0
M  V30 6041 H 551.84 1.13344 -1.07623 0
M  V30 6042 H 552.575 3.22323 0.357584 0
M  V30 6043 H 552.36 3.67854 -1.35743 0
M  V30 6044 H 553.85 4.14769 -0.485454 0
M  V30 6045 N 554.287 1.06798 1.15896 0
M  V30 6046 C 555.217 0.704677 2.22613 0
M  V30 6047 C 556.198 -0.305252 1.67339 0
M  V30 6048 O 557.383 -0.179247 1.93371 0
M  V30 6049 C 554.513 0.0957325 3.47168 0
M  V30 6050 C 553.467 1.0322 4.15367 0
M  V30 6051 C 552.793 0.286293 5.33933 0
M  V30 6052 C 554.093 2.36341 4.65768 0
M  V30 6053 H 555.787 1.59688 2.53259 0
M  V30 6054 H 553.333 0.769257 1.21731 0
M  V30 6055 H 555.286 -0.170333 4.21056 0
M  V30 6056 H 554.01 -0.831516 3.15838 0
M  V30 6057 H 552.669 1.28309 3.43413 0
M  V30 6058 H 552.317 -0.644237 4.98857 0
M  V30 6059 H 552.017 0.910436 5.80504 0
M  V30 6060 H 553.541 0.0278938 6.10594 0
M  V30 6061 H 554.955 2.1561 5.31211 0
M  V30 6062 H 553.352 2.94299 5.2298 0
M  V30 6063 H 554.422 2.99047 3.81705 0
M  V30 6064 N 555.766 -1.3263 0.851289 0
M  V30 6065 C 557.014 -1.96978 0.452128 0
M  V30 6066 C 557.335 -1.67715 -0.99482 0
M  V30 6067 O 556.605 -0.98259 -1.69476 0
M  V30 6068 H 555.185 -0.72873 0.164202 0
M  V30 6069 H 557.847 -1.61774 1.08698 0
M  V30 6070 H 556.943 -3.06387 0.594407 0
M  V30 6071 N 557.244 -0.608902 -1.45362 0
M  V30 6072 C 558.469 -0.10921 -2.07112 0
M  V30 6073 C 558.894 1.19779 -1.45033 0
M  V30 6074 O 558.252 1.72961 -0.543527 0
M  V30 6075 C 558.3 0.0155745 -3.60597 0
M  V30 6076 O 557.404 1.06546 -3.98399 0
M  V30 6077 H 556.745 -0.0746619 -0.659789 0
M  V30 6078 H 559.275 -0.839283 -1.86594 0
M  V30 6079 H 559.285 0.213364 -4.07442 0
M  V30 6080 H 557.96 -0.938765 -4.05167 0
M  V30 6081 H 556.537 0.844024 -3.63223 0
M  V30 6082 N 558.722 1.53707 -0.348139 0
M  V30 6083 C 559.969 2.00988 0.246966 0
M  V30 6084 C 560.297 1.23586 1.50189 0
M  V30 6085 O 559.552 0.312817 1.93184 0
M  V30 6086 C 559.851 3.52292 0.602061 0
M  V30 6087 C 559.517 4.47453 -0.556509 0
M  V30 6088 C 558.179 4.73188 -0.874446 0
M  V30 6089 C 560.531 5.03851 -1.33354 0
M  V30 6090 C 557.859 5.52577 -1.9717 0
M  V30 6091 C 560.211 5.84437 -2.42108 0
M  V30 6092 C 558.875 6.08465 -2.74456 0
M  V30 6093 H 558.145 0.735469 0.0903712 0
M  V30 6094 H 560.792 1.85464 -0.477001 0
M  V30 6095 H 559.097 3.65672 1.40681 0
M  V30 6096 H 560.794 3.86337 1.07447 0
M  V30 6097 H 557.384 4.27558 -0.298652 0
M  V30 6098 H 561.568 4.8393 -1.10117 0
M  V30 6099 H 556.824 5.69418 -2.22651 0
M  V30 6100 H 560.998 6.27151 -3.02745 0
M  V30 6101 H 558.625 6.69768 -3.59604 0
M  V30 6102 N 560.2 0.0768682 1.57412 0
M  V30 6103 C 561.132 -0.918248 2.10002 0
M  V30 6104 C 562.145 -1.25808 1.03325 0
M  V30 6105 O 563.334 -1.21438 1.30824 0
M  V30 6106 C 560.434 -2.23263 2.54964 0
M  V30 6107 C 559.607 -2.07088 3.8527 0
M  V30 6108 C 558.666 -3.21876 4.16272 0
M  V30 6109 O 557.692 -2.96643 4.8579 0
M  V30 6110 N 558.894 -4.4712 3.70221 0
M  V30 6111 H 561.659 -0.469209 2.96004 0
M  V30 6112 H 559.22 -0.108725 1.61535 0
M  V30 6113 H 561.212 -2.9897 2.72762 0
M  V30 6114 H 559.782 -2.59649 1.74072 0
M  V30 6115 H 559.002 -1.15818 3.76802 0
M  V30 6116 H 560.29 -1.93537 4.70554 0
M  V30 6117 H 559.688 -4.70506 3.1407 0
M  V30 6118 H 558.245 -5.19837 3.93209 0
M  V30 6119 N 561.678 -1.56367 -0.196722 0
M  V30 6120 C 562.926 -1.80172 -0.915554 0
M  V30 6121 C 563.247 -0.649649 -1.8386 0
M  V30 6122 O 562.517 0.332111 -1.93064 0
M  V30 6123 H 561.097 -0.664592 -0.341067 0
M  V30 6124 H 563.759 -1.93844 -0.202622 0
M  V30 6125 H 562.855 -2.7327 -1.50764 0
M  V30 6126 N 563.156 0.464375 -1.50603 0
M  V30 6127 C 564.086 1.56944 -1.72889 0
M  V30 6128 C 565.067 1.59979 -0.577997 0
M  V30 6129 O 566.252 1.76138 -0.817855 0
M  V30 6130 C 563.382 2.95225 -1.8292 0
M  V30 6131 C 562.336 3.07056 -2.98162 0
M  V30 6132 C 561.662 4.47051 -2.93343 0
M  V30 6133 C 562.962 2.83648 -4.38567 0
M  V30 6134 H 564.656 1.38547 -2.65415 0
M  V30 6135 H 562.202 0.665082 -1.27721 0
M  V30 6136 H 564.155 3.72467 -1.97095 0
M  V30 6137 H 562.879 3.14793 -0.870209 0
M  V30 6138 H 561.538 2.32248 -2.83648 0
M  V30 6139 H 561.186 4.63547 -1.95276 0
M  V30 6140 H 560.886 4.55902 -3.70712 0
M  V30 6141 H 562.41 5.26304 -3.09575 0
M  V30 6142 H 563.824 3.50636 -4.53572 0
M  V30 6143 H 562.221 3.03937 -5.17438 0
M  V30 6144 H 563.291 1.79451 -4.50472 0
M  V30 6145 N 564.634 1.40294 0.718013 0
M  V30 6146 C 565.88 1.38645 1.48005 0
M  V30 6147 C 566.213 -0.0121202 1.94196 0
M  V30 6148 O 565.488 -0.980309 1.67989 0
M  V30 6149 C 565.771 2.37379 2.70782 0
M  V30 6150 C 565.624 3.8625 2.30501 0
M  V30 6151 C 566.943 2.33685 3.72933 0
M  V30 6152 H 564.062 0.504928 0.536858 0
M  V30 6153 H 566.704 1.71411 0.819649 0
M  V30 6154 H 564.854 2.09568 3.27129 0
M  V30 6155 H 566.526 4.24879 1.79655 0
M  V30 6156 H 564.769 4.02202 1.6253 0
M  V30 6157 H 565.44 4.50847 3.18498 0
M  V30 6158 H 567.916 2.58314 3.2621 0
M  V30 6159 H 566.792 3.0482 4.56482 0
M  V30 6160 H 567.053 1.34765 4.21059 0
M  V30 6161 N 566.112 -0.949982 1.2575 0
M  V30 6162 C 567.358 -1.69766 1.10938 0
M  V30 6163 C 567.691 -1.91056 -0.348028 0
M  V30 6164 O 566.966 -1.48488 -1.25625 0
M  V30 6165 C 567.249 -3.07779 1.86933 0
M  V30 6166 C 567.102 -2.9387 3.4053 0
M  V30 6167 C 568.421 -4.07749 1.65616 0
M  V30 6168 H 565.54 -0.616144 0.404396 0
M  V30 6169 H 568.182 -1.10394 1.54639 0
M  V30 6170 H 566.332 -3.58462 1.4979 0
M  V30 6171 H 568.004 -2.50476 3.87375 0
M  V30 6172 H 566.247 -2.29686 3.68004 0
M  V30 6173 H 566.918 -3.91719 3.88922 0
M  V30 6174 H 569.394 -3.65994 1.97959 0
M  V30 6175 H 568.27 -5.02348 2.21218 0
M  V30 6176 H 568.531 -4.38029 0.598595 0
M  V30 6177 N 567.59 -1.07411 -1.15328 0
M  V30 6178 C 568.553 -0.698914 -2.18284 0
M  V30 6179 C 569.553 0.261149 -1.58665 0
M  V30 6180 O 570.743 0.0420277 -1.74149 0
M  V30 6181 C 567.875 -0.0302427 -3.40887 0
M  V30 6182 H 569.068 -1.61045 -2.52991 0
M  V30 6183 H 566.621 -0.870724 -1.298 0
M  V30 6184 H 567.356 0.893505 -3.11748 0
M  V30 6185 H 567.141 -0.720759 -3.85419 0
M  V30 6186 H 568.631 0.21759 -4.17033 0
M  V30 6187 N 569.068 1.32177 -0.85831 0
M  V30 6188 C 570.314 1.97417 -0.46417 0
M  V30 6189 C 570.647 1.67746 0.978514 0
M  V30 6190 O 569.922 0.967654 1.68721 0
M  V30 6191 C 570.205 3.53069 -0.708094 0
M  V30 6192 C 570.058 3.92357 -2.19946 0
M  V30 6193 C 571.377 4.39783 -0.166881 0
M  V30 6194 H 568.496 0.717097 -0.17012 0
M  V30 6195 H 571.138 1.56499 -1.07741 0
M  V30 6196 H 569.288 3.88054 -0.186128 0
M  V30 6197 H 570.96 3.67533 -2.78779 0
M  V30 6198 H 569.203 3.41384 -2.67656 0
M  V30 6199 H 569.874 5.00841 -2.32082 0
M  V30 6200 H 572.35 4.11556 -0.613285 0
M  V30 6201 H 571.226 5.47671 -0.367093 0
M  V30 6202 H 571.487 4.32196 0.930559 0
M  V30 6203 N 570.547 0.616602 1.45037 0
M  V30 6204 C 571.477 -0.0840787 2.33349 0
M  V30 6205 C 572.458 -0.849641 1.4736 0
M  V30 6206 O 573.643 -0.818407 1.76113 0
M  V30 6207 C 570.773 -1.07604 3.3021 0
M  V30 6208 C 569.727 -0.423096 4.25904 0
M  V30 6209 C 569.053 -1.52394 5.12523 0
M  V30 6210 C 570.353 0.661457 5.18095 0
M  V30 6211 H 572.047 0.653333 2.92185 0
M  V30 6212 H 569.593 0.315634 1.40498 0
M  V30 6213 H 571.546 -1.57485 3.90866 0
M  V30 6214 H 570.27 -1.84416 2.69552 0
M  V30 6215 H 568.929 0.05493 3.66559 0
M  V30 6216 H 568.577 -2.28257 4.48227 0
M  V30 6217 H 568.277 -1.09251 5.77354 0
M  V30 6218 H 569.801 -2.02485 5.76049 0
M  V30 6219 H 571.215 0.246353 5.7277 0
M  V30 6220 H 569.612 1.01517 5.91451 0
M  V30 6221 H 570.682 1.53446 4.59981 0
M  V30 6222 N 572.025 -1.5352 0.356285 0
M  V30 6223 C 573.255 -2.05236 -0.236983 0
M  V30 6224 C 573.663 -1.23016 -1.43749 0
M  V30 6225 O 573.006 -0.2615 -1.81829 0
M  V30 6226 C 573.068 -3.52549 -0.7035 0
M  V30 6227 C 572.732 -4.55425 0.379059 0
M  V30 6228 C 573.729 -5.0524 1.22592 0
M  V30 6229 C 571.414 -4.99425 0.536638 0
M  V30 6230 C 573.408 -5.97647 2.21578 0
M  V30 6231 C 571.095 -5.9164 1.52988 0
M  V30 6232 C 572.093 -6.4064 2.3679 0
M  V30 6233 O 571.781 -7.31039 3.34421 0
M  V30 6234 H 571.513 -0.674346 -0.047254 0
M  V30 6235 H 574.067 -1.98962 0.510238 0
M  V30 6236 H 572.297 -3.56331 -1.50217 0
M  V30 6237 H 573.986 -3.87171 -1.21873 0
M  V30 6238 H 574.752 -4.72002 1.11532 0
M  V30 6239 H 570.631 -4.60879 -0.105834 0
M  V30 6240 H 574.175 -6.35816 2.87025 0
M  V30 6241 H 570.072 -6.24293 1.64099 0
M  V30 6242 H 570.84 -7.49009 3.30041 0
M  V30 6243 N 573.503 -0.0852151 -1.57369 0
M  V30 6244 C 574.743 0.584297 -1.95871 0
M  V30 6245 C 575.107 1.6596 -0.965473 0
M  V30 6246 O 576.308 2.38561 -1.23862 0
M  V30 6247 C 574.579 1.13411 -3.38929 0
M  V30 6248 S 576.138 1.81687 -3.99419 0
M  V30 6249 H 572.956 0.19095 -0.684879 0
M  V30 6250 H 575.558 -0.162267 -1.94825 0
M  V30 6251 H 574.262 0.339845 -4.0899 0
M  V30 6252 H 573.793 1.91672 -3.43548 0
M  V30 6253 H 575.808 3.10037 -3.87417 0
M  V30 6254 N 574.981 1.5647 0.188427 0
M  V30 6255 C 576.228 1.81013 0.907779 0
M  V30 6256 C 576.556 0.65953 1.82977 0
M  V30 6257 O 575.811 -0.354308 1.92466 0
M  V30 6258 C 576.11 3.11596 1.7505 0
M  V30 6259 C 575.776 4.40145 0.978922 0
M  V30 6260 C 574.438 4.75066 0.765912 0
M  V30 6261 C 576.79 5.19369 0.436498 0
M  V30 6262 C 574.118 5.867 -0.00089868 0
M  V30 6263 C 576.47 6.31805 -0.317136 0
M  V30 6264 C 575.134 6.65303 -0.541103 0
M  V30 6265 H 574.404 0.662373 0.33218 0
M  V30 6266 H 577.051 1.9071 0.173732 0
M  V30 6267 H 575.356 2.97165 2.55343 0
M  V30 6268 H 577.053 3.27793 2.30983 0
M  V30 6269 H 573.643 4.12745 1.15497 0
M  V30 6270 H 577.827 4.92799 0.588449 0
M  V30 6271 H 573.083 6.11122 -0.184329 0
M  V30 6272 H 577.257 6.92406 -0.744788 0
M  V30 6273 H 574.884 7.51646 -1.13718 0
M  V30 6274 N 576.459 -0.456382 1.50847 0
M  V30 6275 C 577.389 -1.56025 1.73719 0
M  V30 6276 C 578.37 -1.5967 0.586473 0
M  V30 6277 O 579.555 -1.75702 0.827185 0
M  V30 6278 C 576.685 -2.94251 1.84483 0
M  V30 6279 C 575.639 -3.05471 2.99786 0
M  V30 6280 C 574.965 -4.45489 2.95709 0
M  V30 6281 C 576.265 -2.81318 4.40065 0
M  V30 6282 H 577.959 -1.37138 2.66146 0
M  V30 6283 H 575.505 -0.658299 1.28072 0
M  V30 6284 H 577.458 -3.71417 1.99067 0
M  V30 6285 H 576.182 -3.14328 0.886891 0
M  V30 6286 H 574.841 -2.30741 2.84876 0
M  V30 6287 H 574.489 -4.62505 1.97732 0
M  V30 6288 H 574.189 -4.53929 3.73125 0
M  V30 6289 H 575.713 -5.24655 3.12362 0
M  V30 6290 H 577.127 -3.48226 4.55425 0
M  V30 6291 H 575.524 -3.01188 5.19043 0
M  V30 6292 H 576.594 -1.7706 4.51418 0
M  V30 6293 N 577.937 -1.40673 -0.710563 0
M  V30 6294 C 578.885 -1.41517 -1.84596 0
M  V30 6295 C 579.879 -0.295043 -1.66811 0
M  V30 6296 O 581.085 -0.466331 -1.73854 0
M  V30 6297 H 577.46 -0.442467 -0.608052 0
M  V30 6298 H 579.431 -2.37238 -1.80999 0
M  V30 6299 C 578.18 -1.29957 -3.225 0
M  V30 6300 H 577.503 -2.15429 -3.36794 0
M  V30 6301 H 578.943 -1.34608 -4.02066 0
M  V30 6302 C 577.402 -0.0103164 -3.36898 0
M  V30 6303 O 577.932 0.950707 -3.90288 0
M  V30 6304 N 576.138 0.0608409 -2.90536 0
M  V30 6305 H 575.685 -0.721943 -2.47277 0
M  V30 6306 H 575.643 0.92292 -3.00549 0
M  V30 6307 N 579.415 0.9433 -1.26252 0
M  V30 6308 C 580.663 1.68592 -1.11451 0
M  V30 6309 C 580.984 1.91957 0.343123 0
M  V30 6310 O 580.254 1.51475 1.24226 0
M  V30 6311 H 578.834 0.624789 -0.409448 0
M  V30 6312 H 581.496 1.13351 -1.58548 0
M  V30 6313 H 580.592 2.66054 -1.63162 0
M  V30 6314 N 580.893 1.08022 1.14757 0
M  V30 6315 C 581.803 0.718292 2.23333 0
M  V30 6316 C 582.819 -0.273477 1.71837 0
M  V30 6317 O 583.995 -0.118406 2.01052 0
M  V30 6318 C 581.06 0.128855 3.4646 0
M  V30 6319 C 580.121 1.17473 4.12915 0
M  V30 6320 C 579.354 0.61333 5.30164 0
M  V30 6321 O 579.577 -0.568458 5.6756 0
M  V30 6322 O 578.511 1.3615 5.86299 0
M  V30 6323 H 582.337 1.62394 2.56636 0
M  V30 6324 H 579.922 0.853628 1.22611 0
M  V30 6325 H 581.804 -0.197249 4.20938 0
M  V30 6326 H 580.479 -0.750014 3.14891 0
M  V30 6327 H 579.386 1.5533 3.40328 0
M  V30 6328 H 580.719 2.02574 4.48581 0
M  V30 6329 N 582.371 -1.3172 0.865308 0
M  V30 6330 C 583.617 -1.97168 0.474633 0
M  V30 6331 C 583.95 -1.68263 -0.969604 0
M  V30 6332 O 583.225 -0.976588 -1.68205 0
M  V30 6333 C 583.508 -3.52689 0.726808 0
M  V30 6334 C 583.361 -3.91185 2.22024 0
M  V30 6335 C 584.68 -4.39689 0.190201 0
M  V30 6336 H 581.799 -0.716185 0.17392 0
M  V30 6337 H 584.441 -1.55925 1.08569 0
M  V30 6338 H 582.591 -3.8795 0.206705 0
M  V30 6339 H 584.263 -3.66049 2.80724 0
M  V30 6340 H 582.506 -3.3996 2.69462 0
M  V30 6341 H 583.177 -4.99604 2.34735 0
M  V30 6342 H 585.653 -4.11225 0.635103 0
M  V30 6343 H 584.529 -5.47469 0.396132 0
M  V30 6344 H 584.79 -4.32683 -0.907625 0
M  V30 6345 N 583.85 -0.624285 -1.44708 0
M  V30 6346 C 584.782 0.12305 -2.28869 0
M  V30 6347 C 585.795 0.81557 -1.40898 0
M  V30 6348 O 586.984 0.678162 -1.65116 0
M  V30 6349 C 584.084 1.19612 -3.1709 0
M  V30 6350 C 583.257 0.587452 -4.33437 0
M  V30 6351 C 582.316 1.55358 -5.02743 0
M  V30 6352 O 581.341 1.07338 -5.58988 0
M  V30 6353 N 582.543 2.88798 -5.03563 0
M  V30 6354 H 585.308 -0.599193 -2.93649 0
M  V30 6355 H 582.87 -0.464954 -1.5508 0
M  V30 6356 H 584.861 1.84261 -3.60319 0
M  V30 6357 H 583.432 1.82067 -2.54107 0
M  V30 6358 H 582.652 -0.237509 -3.93484 0
M  V30 6359 H 583.94 0.161326 -5.08544 0
M  V30 6360 H 583.338 3.30399 -4.59188 0
M  V30 6361 H 581.894 3.48826 -5.50603 0
M  V30 6362 N 585.328 1.53329 -0.364422 0
M  V30 6363 C 586.258 2.28627 0.474543 0
M  V30 6364 C 587.239 1.31009 1.08492 0
M  V30 6365 O 588.424 1.59878 1.10239 0
M  V30 6366 C 585.554 3.07465 1.61501 0
M  V30 6367 C 584.508 4.1276 1.13194 0
M  V30 6368 C 583.834 4.79674 2.36255 0
M  V30 6369 C 585.134 5.21847 0.217507 0
M  V30 6370 H 586.828 2.99005 -0.153656 0
M  V30 6371 H 584.374 1.43803 -0.0753406 0
M  V30 6372 H 586.327 3.58889 2.20855 0
M  V30 6373 H 585.051 2.34775 2.27042 0
M  V30 6374 H 583.71 3.62281 0.56109 0
M  V30 6375 H 583.358 4.03557 3.00251 0
M  V30 6376 H 583.058 5.50827 2.04606 0
M  V30 6377 H 584.582 5.33892 2.96297 0
M  V30 6378 H 585.996 5.6878 0.718493 0
M  V30 6379 H 584.393 6.00099 -0.00806408 0
M  V30 6380 H 585.463 4.7921 -0.740653 0
M  V30 6381 N 586.806 0.0935595 1.57322 0
M  V30 6382 C 587.716 -0.880192 2.17462 0
M  V30 6383 C 588.732 -1.31135 1.14366 0
M  V30 6384 O 589.908 -1.37958 1.46729 0
M  V30 6385 C 586.973 -2.12184 2.74188 0
M  V30 6386 C 586.034 -1.74503 3.92234 0
M  V30 6387 C 585.267 -2.92748 4.46245 0
M  V30 6388 O 585.49 -4.07427 3.99198 0
M  V30 6389 O 584.424 -2.71303 5.37288 0
M  V30 6390 H 588.25 -0.398516 3.01074 0
M  V30 6391 H 585.835 -0.130707 1.48827 0
M  V30 6392 H 587.717 -2.84953 3.10451 0
M  V30 6393 H 586.392 -2.59407 1.93623 0
M  V30 6394 H 585.299 -0.989186 3.60785 0
M  V30 6395 H 586.632 -1.32044 4.74157 0
M  V30 6396 N 588.284 -1.56567 -0.180126 0
M  V30 6397 C 589.53 -1.81761 -0.899497 0
M  V30 6398 C 589.863 -0.670015 -1.82276 0
M  V30 6399 O 589.138 0.328575 -1.91705 0
M  V30 6400 C 589.421 -3.17296 -1.7028 0
M  V30 6401 C 589.274 -4.4257 -0.803255 0
M  V30 6402 C 590.593 -3.49678 -2.67233 0
M  V30 6403 H 587.712 -0.661192 -0.325567 0
M  V30 6404 H 590.354 -1.89272 -0.16612 0
M  V30 6405 H 588.504 -3.11023 -2.32802 0
M  V30 6406 H 590.176 -4.60902 -0.191585 0
M  V30 6407 H 588.419 -4.33658 -0.110796 0
M  V30 6408 H 589.09 -5.33935 -1.40064 0
M  V30 6409 H 591.566 -3.56347 -2.14839 0
M  V30 6410 H 590.442 -4.45605 -3.20511 0
M  V30 6411 H 590.703 -2.73932 -3.47007 0
M  V30 6412 N 589.762 0.448376 -1.51087 0
M  V30 6413 C 590.694 1.56146 -1.67783 0
M  V30 6414 C 591.707 1.52913 -0.55871 0
M  V30 6415 O 592.896 1.57889 -0.83267 0
M  V30 6416 C 589.996 2.95057 -1.66716 0
M  V30 6417 C 589.169 3.22915 -2.95033 0
M  V30 6418 C 588.228 4.41495 -2.86302 0
M  V30 6419 O 587.254 4.40688 -3.60254 0
M  V30 6420 N 588.456 5.44443 -2.014 0
M  V30 6421 H 591.221 1.42232 -2.638 0
M  V30 6422 H 588.782 0.637153 -1.48835 0
M  V30 6423 H 590.774 3.72388 -1.58458 0
M  V30 6424 H 589.344 3.02624 -0.783403 0
M  V30 6425 H 588.564 2.33985 -3.17245 0
M  V30 6426 H 589.852 3.38349 -3.79996 0
M  V30 6427 H 589.25 5.4793 -1.40674 0
M  V30 6428 H 587.807 6.2067 -1.99029 0
M  V30 6429 N 591.24 1.41047 0.703093 0
M  V30 6430 C 592.187 1.42302 1.81711 0
M  V30 6431 C 593.157 0.278336 1.63751 0
M  V30 6432 O 594.342 0.478266 1.84709 0
M  V30 6433 C 591.482 1.30362 3.19531 0
M  V30 6434 C 590.595 2.54638 3.48975 0
M  V30 6435 C 589.73 2.35047 4.76368 0
M  V30 6436 C 588.769 3.54837 4.98756 0
M  V30 6437 N 587.906 3.34363 6.1737 0
M  V30 6438 H 592.746 2.37516 1.79973 0
M  V30 6439 H 590.283 1.1795 0.878983 0
M  V30 6440 H 592.241 1.21443 3.99134 0
M  V30 6441 H 590.871 0.387602 3.20464 0
M  V30 6442 H 589.923 2.74037 2.63833 0
M  V30 6443 H 591.235 3.43766 3.61423 0
M  V30 6444 H 590.389 2.23552 5.64012 0
M  V30 6445 H 589.128 1.43363 4.66153 0
M  V30 6446 H 588.133 3.66795 4.09563 0
M  V30 6447 H 589.358 4.47464 5.10835 0
M  V30 6448 H 587.304 2.45373 6.08382 0
M  V30 6449 H 587.221 4.17063 6.30551 0
M  V30 6450 H 588.489 3.26626 7.07768 0
M  V30 6451 N 592.718 -0.936591 1.26751 0
M  V30 6452 C 593.665 -2.03597 1.08706 0
M  V30 6453 C 594.635 -1.66097 -0.00926542 0
M  V30 6454 O 595.82 -1.90199 0.151377 0
M  V30 6455 C 592.96 -3.3727 0.73094 0
M  V30 6456 C 592.073 -3.87778 1.90399 0
M  V30 6457 C 591.208 -5.09859 1.49056 0
M  V30 6458 C 590.247 -5.5264 2.63164 0
M  V30 6459 N 589.384 -6.65921 2.22471 0
M  V30 6460 H 594.224 -2.18364 2.02784 0
M  V30 6461 H 591.761 -1.06985 1.00958 0
M  V30 6462 H 593.719 -4.14128 0.505328 0
M  V30 6463 H 592.349 -3.22337 -0.172868 0
M  V30 6464 H 591.401 -3.07279 2.2424 0
M  V30 6465 H 592.713 -4.15464 2.76028 0
M  V30 6466 H 591.867 -5.9419 1.22567 0
M  V30 6467 H 590.606 -4.8393 0.60524 0
M  V30 6468 H 589.611 -4.66863 2.90377 0
M  V30 6469 H 590.836 -5.80568 3.52303 0
M  V30 6470 H 588.782 -6.41667 1.36379 0
M  V30 6471 H 588.699 -6.93216 3.01641 0
M  V30 6472 H 589.967 -7.53616 1.99205 0
M  V30 6473 N 594.196 -1.08629 -1.14182 0
M  V30 6474 C 595.442 -0.828415 -1.85766 0
M  V30 6475 C 595.797 0.638947 -1.81481 0
M  V30 6476 O 595.09 1.46386 -1.23619 0
M  V30 6477 C 595.284 -1.28734 -3.3341 0
M  V30 6478 C 595.113 -2.79778 -3.52071 0
M  V30 6479 C 593.883 -3.47554 -3.66789 0
M  V30 6480 C 596.081 -3.77945 -3.48801 0
M  V30 6481 N 594.063 -4.87107 -3.73631 0
M  V30 6482 C 595.434 -5.03406 -3.61914 0
M  V30 6483 C 597.489 -3.70917 -3.32152 0
M  V30 6484 C 596.192 -6.22673 -3.60098 0
M  V30 6485 C 598.218 -4.89662 -3.31641 0
M  V30 6486 C 597.58 -6.13962 -3.45296 0
M  V30 6487 H 593.679 -0.355884 -0.696327 0
M  V30 6488 H 596.263 -1.38508 -1.36834 0
M  V30 6489 H 594.434 -0.75822 -3.80927 0
M  V30 6490 H 596.166 -0.975649 -3.92764 0
M  V30 6491 H 592.921 -2.97972 -3.68116 0
M  V30 6492 H 593.345 -5.59775 -3.80763 0
M  V30 6493 H 597.987 -2.75749 -3.20504 0
M  V30 6494 H 595.705 -7.1815 -3.70522 0
M  V30 6495 H 599.291 -4.85914 -3.19968 0
M  V30 6496 H 598.171 -7.04307 -3.44851 0
M  V30 6497 N 595.674 1.31259 -0.872281 0
M  V30 6498 C 596.606 2.27396 -0.28697 0
M  V30 6499 C 597.619 1.53181 0.551297 0
M  V30 6500 O 598.808 1.74561 0.372914 0
M  V30 6501 C 595.908 3.33335 0.611617 0
M  V30 6502 C 595.081 4.36966 -0.194729 0
M  V30 6503 C 594.14 5.22387 0.632358 0
M  V30 6504 O 593.166 5.69169 0.0595691 0
M  V30 6505 N 594.368 5.46985 1.94391 0
M  V30 6506 H 597.133 2.78261 -1.11314 0
M  V30 6507 H 594.694 1.44306 -0.733994 0
M  V30 6508 H 596.686 3.87398 1.17068 0
M  V30 6509 H 595.256 2.82496 1.33846 0
M  V30 6510 H 594.476 3.82945 -0.935241 0
M  V30 6511 H 595.764 5.03273 -0.747935 0
M  V30 6512 H 595.162 5.10737 2.43237 0
M  V30 6513 H 593.719 6.03973 2.45071 0
M  V30 6514 N 597.152 0.631951 1.44375 0
M  V30 6515 C 598.084 -0.110911 2.28931 0
M  V30 6516 C 599.097 -0.808086 1.41329 0
M  V30 6517 O 600.286 -0.669396 1.65473 0
M  V30 6518 C 597.386 -1.17928 3.1772 0
M  V30 6519 C 596.559 -0.564458 4.33743 0
M  V30 6520 C 595.618 -1.5269 5.0356 0
M  V30 6521 O 594.644 -1.04372 5.59549 0
M  V30 6522 N 595.846 -2.86123 5.05088 0
M  V30 6523 H 598.611 0.614758 2.93327 0
M  V30 6524 H 596.172 0.473171 1.54831 0
M  V30 6525 H 598.164 -1.82348 3.61291 0
M  V30 6526 H 596.734 -1.80717 2.55069 0
M  V30 6527 H 595.954 0.258373 3.93352 0
M  V30 6528 H 597.242 -0.134355 5.08623 0
M  V30 6529 H 596.64 -3.27959 4.60933 0
M  V30 6530 H 595.197 -3.45901 5.52445 0
M  V30 6531 N 598.631 -1.53133 0.372548 0
M  V30 6532 C 599.877 -2.02336 -0.207823 0
M  V30 6533 C 600.232 -1.25477 -1.45853 0
M  V30 6534 O 599.525 -0.341971 -1.88524 0
M  V30 6535 C 599.719 -3.53206 -0.545938 0
M  V30 6536 C 599.548 -4.44674 0.670454 0
M  V30 6537 C 598.318 -4.91217 1.18465 0
M  V30 6538 C 600.516 -4.90772 1.53777 0
M  V30 6539 N 598.498 -5.66711 2.36034 0
M  V30 6540 C 599.869 -5.64678 2.56004 0
M  V30 6541 C 601.924 -4.72836 1.55983 0
M  V30 6542 C 600.627 -6.22555 3.60303 0
M  V30 6543 C 602.653 -5.31583 2.59179 0
M  V30 6544 C 602.015 -6.05381 3.6013 0
M  V30 6545 H 598.114 -0.781048 -0.0385783 0
M  V30 6546 H 600.698 -1.87665 0.518664 0
M  V30 6547 H 598.869 -3.68024 -1.24149 0
M  V30 6548 H 600.601 -3.89123 -1.112 0
M  V30 6549 H 597.356 -4.67652 0.748205 0
M  V30 6550 H 597.78 -6.09117 2.95475 0
M  V30 6551 H 602.422 -4.15299 0.792877 0
M  V30 6552 H 600.14 -6.79183 4.37876 0
M  V30 6553 H 603.726 -5.19595 2.61749 0
M  V30 6554 H 602.606 -6.50028 4.38672 0
M  V30 6555 N 600.109 -0.101901 -1.5727 0
M  V30 6556 C 601.059 0.865346 -2.1094 0
M  V30 6557 C 602.043 1.2394 -1.02605 0
M  V30 6558 O 603.235 1.21334 -1.28868 0
M  V30 6559 C 600.364 2.12187 -2.69874 0
M  V30 6560 C 599.45 1.77295 -3.85263 0
M  V30 6561 N 599.841 1.12993 -4.93017 0
M  V30 6562 C 598.139 2.06862 -3.95126 0
M  V30 6563 C 598.84 0.968631 -5.73579 0
M  V30 6564 N 597.816 1.48814 -5.22834 0
M  V30 6565 H 601.618 0.364368 -2.91633 0
M  V30 6566 H 599.132 0.101104 -1.62085 0
M  V30 6567 H 601.129 2.82431 -3.06657 0
M  V30 6568 H 599.789 2.62844 -1.90639 0
M  V30 6569 H 600.8 0.795935 -5.11747 0
M  V30 6570 H 597.477 2.59686 -3.26909 0
M  V30 6571 H 598.867 0.465231 -6.70287 0
M  V30 6572 N 601.587 1.56661 0.17182 0
M  V30 6573 C 602.517 1.99401 1.21498 0
M  V30 6574 C 603.498 0.869516 1.46197 0
M  V30 6575 O 604.683 1.13556 1.57539 0
M  V30 6576 C 601.813 2.35346 2.55401 0
M  V30 6577 C 600.767 3.5075 2.45272 0
M  V30 6578 C 600.093 3.72437 3.8366 0
M  V30 6579 C 601.393 4.84216 1.95787 0
M  V30 6580 H 603.087 2.86792 0.859699 0
M  V30 6581 H 600.633 1.37977 0.412103 0
M  V30 6582 H 602.586 2.63843 3.2858 0
M  V30 6583 H 601.31 1.44864 2.92715 0
M  V30 6584 H 599.969 3.2238 1.74547 0
M  V30 6585 H 599.617 2.79246 4.18367 0
M  V30 6586 H 599.317 4.50087 3.77751 0
M  V30 6587 H 600.841 4.03334 4.58426 0
M  V30 6588 H 602.255 5.11592 2.5874 0
M  V30 6589 H 600.652 5.65498 2.00827 0
M  V30 6590 H 601.722 4.76243 0.912159 0
M  V30 6591 N 603.065 -0.440357 1.51323 0
M  V30 6592 C 604.481 -0.7766 1.39431 0
M  V30 6593 C 604.681 -1.95838 0.474296 0
M  V30 6594 O 603.737 -2.52398 -0.0716692 0
M  V30 6595 C 605.05 -1.05981 2.81405 0
M  V30 6596 C 606.598 -1.16442 2.90534 0
M  V30 6597 C 607.073 -1.48058 4.33408 0
M  V30 6598 N 608.564 -1.54988 4.36501 0
M  V30 6599 C 609.299 -1.81017 5.44078 0
M  V30 6600 N 608.795 -2.04858 6.61819 0
M  V30 6601 N 610.588 -1.82774 5.31554 0
M  V30 6602 H 602.739 0.338006 2.09693 0
M  V30 6603 H 605.002 0.0888072 0.943831 0
M  V30 6604 H 604.708 -0.264173 3.50706 0
M  V30 6605 H 604.582 -1.98822 3.20546 0
M  V30 6606 H 606.969 -1.95068 2.21432 0
M  V30 6607 H 607.05 -0.215088 2.54894 0
M  V30 6608 H 606.694 -0.699605 5.03059 0
M  V30 6609 H 606.624 -2.44192 4.66559 0
M  V30 6610 H 609.115 -1.38479 3.51613 0
M  V30 6611 H 609.428 -2.2408 7.396 0
M  V30 6612 H 607.773 -2.02187 6.6494 0
M  V30 6613 H 610.964 -1.63665 4.38556 0
M  V30 6614 H 611.137 -2.02722 6.15474 0
M  V30 6615 N 604.543 -1.41418 -0.695603 0
M  V30 6616 C 605.453 -1.45622 -1.83933 0
M  V30 6617 C 606.469 -0.346825 -1.70508 0
M  V30 6618 O 607.645 -0.59454 -1.92424 0
M  V30 6619 C 604.71 -1.33627 -3.19914 0
M  V30 6620 C 603.771 -2.54882 -3.45447 0
M  V30 6621 C 603.004 -2.43449 -4.7494 0
M  V30 6622 O 603.227 -1.45905 -5.51424 0
M  V30 6623 O 602.161 -3.33206 -5.01256 0
M  V30 6624 H 605.987 -2.42114 -1.83342 0
M  V30 6625 H 603.572 -1.22956 -0.848658 0
M  V30 6626 H 605.454 -1.29221 -4.01098 0
M  V30 6627 H 604.129 -0.402508 -3.21188 0
M  V30 6628 H 603.036 -2.64865 -2.64192 0
M  V30 6629 H 604.369 -3.47087 -3.48987 0
M  V30 6630 N 606.021 0.929856 -1.27246 0
M  V30 6631 C 607.268 1.67731 -1.13457 0
M  V30 6632 C 607.596 1.9185 0.319998 0
M  V30 6633 O 606.851 1.50524 1.25064 0
M  V30 6634 C 607.15 3.05116 -1.86115 0
M  V30 6635 C 606.816 3.00715 -3.35978 0
M  V30 6636 C 605.478 2.99222 -3.76855 0
M  V30 6637 C 607.83 2.92168 -4.3161 0
M  V30 6638 C 605.158 2.86962 -5.11732 0
M  V30 6639 C 607.51 2.81449 -5.66542 0
M  V30 6640 C 606.174 2.78305 -6.06715 0
M  V30 6641 H 605.444 0.613772 -0.415168 0
M  V30 6642 H 608.091 1.08456 -1.57827 0
M  V30 6643 H 606.396 3.68083 -1.34246 0
M  V30 6644 H 608.093 3.61822 -1.72876 0
M  V30 6645 H 604.683 3.02664 -3.03468 0
M  V30 6646 H 608.867 2.92421 -4.01003 0
M  V30 6647 H 604.123 2.82913 -5.42006 0
M  V30 6648 H 608.297 2.738 -6.40317 0
M  V30 6649 H 605.924 2.68561 -7.11181 0
M  V30 6650 N 607.499 1.09233 1.13605 0
M  V30 6651 C 608.91 0.846839 1.6639 0
M  V30 6652 C 609.261 -0.625031 1.85978 0
M  V30 6653 O 608.386 -1.48173 1.57714 0
M  V30 6654 C 608.981 1.5307 3.0225 0
M  V30 6655 C 607.54 1.33223 3.52035 0
M  V30 6656 C 606.687 1.58806 2.27323 0
M  V30 6657 H 609.638 1.25175 0.975541 0
M  V30 6658 H 609.659 0.96267 3.68121 0
M  V30 6659 H 609.171 2.60192 2.87961 0
M  V30 6660 H 607.272 0.282091 3.71531 0
M  V30 6661 H 607.385 2.0657 4.32279 0
M  V30 6662 H 605.749 1.01007 2.33815 0
M  V30 6663 H 606.532 2.67153 2.15602 0
M  V30 6664 N 608.977 -1.30795 0.87923 0
M  V30 6665 C 609.907 -2.30742 0.357796 0
M  V30 6666 C 610.888 -1.60747 -0.556283 0
M  V30 6667 O 612.073 -1.88393 -0.47135 0
M  V30 6668 C 609.203 -3.44583 -0.433555 0
M  V30 6669 C 608.157 -4.26235 0.388251 0
M  V30 6670 C 607.483 -5.32073 -0.529352 0
M  V30 6671 C 608.783 -4.96303 1.62729 0
M  V30 6672 H 610.477 -2.74605 1.19299 0
M  V30 6673 H 608.023 -1.32017 0.575104 0
M  V30 6674 H 609.976 -4.13563 -0.808934 0
M  V30 6675 H 608.7 -2.99511 -1.30234 0
M  V30 6676 H 607.359 -3.58936 0.745695 0
M  V30 6677 H 607.007 -4.83249 -1.39569 0
M  V30 6678 H 606.707 -5.87598 0.0166741 0
M  V30 6679 H 608.231 -6.0391 -0.901373 0
M  V30 6680 H 609.645 -5.5783 1.32283 0
M  V30 6681 H 608.042 -5.61666 2.11309 0
M  V30 6682 H 609.112 -4.22758 2.37494 0
M  V30 6683 N 610.455 -0.639598 -1.44038 0
M  V30 6684 C 611.405 0.0823038 -2.27851 0
M  V30 6685 C 612.389 0.807991 -1.39141 0
M  V30 6686 O 613.581 0.692702 -1.62882 0
M  V30 6687 C 610.71 1.05742 -3.26609 0
M  V30 6688 C 609.796 0.330911 -4.22807 0
M  V30 6689 N 610.187 -0.645126 -5.01669 0
M  V30 6690 C 608.485 0.574214 -4.42288 0
M  V30 6691 C 609.186 -1.07513 -5.71678 0
M  V30 6692 N 608.162 -0.412164 -5.42035 0
M  V30 6693 H 611.964 -0.666861 -2.86234 0
M  V30 6694 H 609.478 -0.465777 -1.55577 0
M  V30 6695 H 611.475 1.58927 -3.85419 0
M  V30 6696 H 610.135 1.80679 -2.69787 0
M  V30 6697 H 611.146 -1.02329 -5.0769 0
M  V30 6698 H 607.823 1.30581 -3.96554 0
M  V30 6699 H 609.213 -1.88196 -6.45005 0
M  V30 6700 N 611.933 1.52934 -0.380664 0
M  V30 6701 C 613.344 1.86457 0.0952684 0
M  V30 6702 C 613.695 1.3007 1.46889 0
M  V30 6703 O 612.82 0.628636 2.07068 0
M  V30 6704 C 613.415 3.38323 0.179648 0
M  V30 6705 C 611.974 3.71589 0.599858 0
M  V30 6706 C 611.121 2.76228 -0.243572 0
M  V30 6707 H 614.072 1.46966 -0.59888 0
M  V30 6708 H 614.093 3.67113 1.00042 0
M  V30 6709 H 613.605 3.79333 -0.820228 0
M  V30 6710 H 611.706 3.36144 1.60742 0
M  V30 6711 H 611.819 4.77715 0.364003 0
M  V30 6712 H 610.183 2.53045 0.289855 0
M  V30 6713 H 610.966 3.20074 -1.24127 0
M  V30 6714 N 613.412 0.11024 1.57214 0
M  V30 6715 C 614.658 -0.550684 1.9518 0
M  V30 6716 C 614.991 -1.66885 0.993122 0
M  V30 6717 O 614.266 -1.94479 0.0287907 0
M  V30 6718 C 614.549 -1.09163 3.43155 0
M  V30 6719 C 614.402 0.0225198 4.49794 0
M  V30 6720 C 615.721 -1.98527 3.92778 0
M  V30 6721 H 612.84 -0.198706 0.709708 0
M  V30 6722 H 615.482 0.184024 1.89107 0
M  V30 6723 H 613.632 -1.71775 3.48462 0
M  V30 6724 H 615.304 0.657443 4.56591 0
M  V30 6725 H 613.547 0.686868 4.28328 0
M  V30 6726 H 614.218 -0.39706 5.5057 0
M  V30 6727 H 616.694 -1.458 3.8972 0
M  V30 6728 H 615.57 -2.33298 4.96853 0
M  V30 6729 H 615.831 -2.90846 3.32958 0
M  V30 6730 N 614.89 -1.56749 -0.16351 0
M  V30 6731 C 615.853 -1.96121 -1.18613 0
M  V30 6732 C 616.853 -0.845765 -1.36761 0
M  V30 6733 O 618.043 -1.11268 -1.34033 0
M  V30 6734 C 615.175 -2.26282 -2.54969 0
M  V30 6735 H 616.368 -2.87639 -0.848764 0
M  V30 6736 H 613.921 -1.50928 -0.406251 0
M  V30 6737 H 614.656 -1.37504 -2.93706 0
M  V30 6738 H 614.441 -3.07595 -2.43162 0
M  V30 6739 H 615.931 -2.57638 -3.28653 0
M  V30 6740 N 616.368 0.432326 -1.51554 0
M  V30 6741 C 617.593 1.20824 -1.68571 0
M  V30 6742 C 618.018 1.84126 -0.384596 0
M  V30 6743 O 617.376 1.69025 0.655751 0
M  V30 6744 C 617.424 2.26429 -2.80646 0
M  V30 6745 O 616.528 3.32032 -2.44598 0
M  V30 6746 H 615.869 0.353765 -0.561913 0
M  V30 6747 H 618.399 0.509916 -1.98144 0
M  V30 6748 H 618.409 2.71133 -3.04878 0
M  V30 6749 H 617.084 1.79733 -3.75058 0
M  V30 6750 H 615.661 2.92769 -2.30956 0
M  V30 6751 N 617.846 1.41785 0.688094 0
M  V30 6752 C 619.093 1.41544 1.44816 0
M  V30 6753 C 619.421 0.0271746 1.94481 0
M  V30 6754 O 618.676 -0.962235 1.7041 0
M  V30 6755 C 618.975 2.37532 2.67046 0
M  V30 6756 C 618.641 3.84209 2.35996 0
M  V30 6757 C 617.303 4.24165 2.27239 0
M  V30 6758 C 619.655 4.76785 2.10536 0
M  V30 6759 C 616.983 5.54695 1.91128 0
M  V30 6760 C 619.335 6.07644 1.75931 0
M  V30 6761 C 617.999 6.46613 1.65675 0
M  V30 6762 H 617.269 0.517945 0.529919 0
M  V30 6763 H 619.916 1.74635 0.785797 0
M  V30 6764 H 618.221 1.9772 3.38251 0
M  V30 6765 H 619.918 2.34615 3.25203 0
M  V30 6766 H 616.508 3.52567 2.4371 0
M  V30 6767 H 620.692 4.46714 2.16242 0
M  V30 6768 H 615.948 5.83762 1.81746 0
M  V30 6769 H 620.122 6.78874 1.55252 0
M  V30 6770 H 617.749 7.47668 1.37463 0
M  V30 6771 N 619.324 -0.923095 1.27737 0
M  V30 6772 C 620.549 -1.71054 1.17283 0
M  V30 6773 C 620.974 -1.86208 -0.266153 0
M  V30 6774 O 620.332 -1.36545 -1.1927 0
M  V30 6775 C 620.38 -3.0854 1.86642 0
M  V30 6776 O 619.484 -3.95528 1.16752 0
M  V30 6777 H 618.825 -0.524136 0.407649 0
M  V30 6778 H 621.355 -1.15487 1.6889 0
M  V30 6779 H 621.365 -3.58828 1.94182 0
M  V30 6780 H 620.04 -2.96828 2.91317 0
M  V30 6781 H 618.617 -3.53967 1.17312 0
M  V30 6782 N 620.802 -1.09834 -1.13024 0
M  V30 6783 C 621.75 -0.736283 -2.20639 0
M  V30 6784 C 622.744 0.264725 -1.67319 0
M  V30 6785 O 623.95 0.125745 -1.7956 0
M  V30 6786 H 620.325 -0.220136 -0.719058 0
M  V30 6787 H 622.296 -1.65295 -2.48436 0
M  V30 6788 C 621.045 -0.177544 -3.47246 0
M  V30 6789 H 620.368 -0.939009 -3.88616 0
M  V30 6790 H 621.808 0.0378007 -4.23983 0
M  V30 6791 C 620.267 1.08824 -3.1884 0
M  V30 6792 O 620.797 2.1708 -3.37993 0
M  V30 6793 N 619.003 1.00442 -2.7269 0
M  V30 6794 H 618.55 0.123383 -2.57304 0
M  V30 6795 H 618.508 1.85206 -2.5406 0
M  V30 6796 N 622.28 1.30327 -0.886154 0
M  V30 6797 C 623.505 2.0079 -0.519425 0
M  V30 6798 C 623.93 1.65979 0.885013 0
M  V30 6799 O 623.288 0.877043 1.58675 0
M  V30 6800 C 623.336 3.53686 -0.702758 0
M  V30 6801 O 622.44 4.11637 0.250828 0
M  V30 6802 H 621.781 0.63171 -0.204544 0
M  V30 6803 H 624.311 1.66145 -1.19402 0
M  V30 6804 H 624.321 4.03531 -0.602207 0
M  V30 6805 H 622.996 3.78361 -1.72673 0
M  V30 6806 H 621.573 3.72755 0.103873 0
M  V30 6807 N 623.758 0.647228 1.43697 0
M  V30 6808 C 624.986 0.16575 2.06235 0
M  V30 6809 C 625.401 -1.1662 1.48476 0
M  V30 6810 O 624.758 -1.7187 0.613762 0
M  V30 6811 C 624.809 0.0621651 3.61447 0
M  V30 6812 O 624.53 1.34146 4.17057 0
M  V30 6813 C 626.031 -0.446102 4.4105 0
M  V30 6814 H 623.251 0.0871158 0.665321 0
M  V30 6815 H 625.795 0.886183 1.84301 0
M  V30 6816 H 623.95 -0.608794 3.82587 0
M  V30 6817 H 624.364 1.19675 5.10664 0
M  V30 6818 H 625.838 -0.46755 5.50016 0
M  V30 6819 H 626.315 -1.47627 4.13646 0
M  V30 6820 H 626.921 0.192159 4.24866 0
M  V30 6821 N 625.236 -1.5273 0.388769 0
M  V30 6822 C 626.183 -2.26437 -0.446639 0
M  V30 6823 C 627.153 -1.28025 -1.05824 0
M  V30 6824 O 628.338 -1.56852 -1.08637 0
M  V30 6825 C 625.478 -3.07407 -1.56828 0
M  V30 6826 C 624.591 -4.20747 -0.979589 0
M  V30 6827 C 623.726 -4.89113 -2.07224 0
M  V30 6828 C 622.765 -5.94447 -1.45942 0
M  V30 6829 N 621.902 -6.56411 -2.49135 0
M  V30 6830 H 626.742 -2.97404 0.18837 0
M  V30 6831 H 624.279 -1.46727 0.104725 0
M  V30 6832 H 626.237 -3.52642 -2.22934 0
M  V30 6833 H 624.867 -2.3865 -2.17361 0
M  V30 6834 H 623.919 -3.7983 -0.208151 0
M  V30 6835 H 625.231 -4.9637 -0.491747 0
M  V30 6836 H 624.385 -5.3765 -2.81101 0
M  V30 6837 H 623.124 -4.13013 -2.59368 0
M  V30 6838 H 622.129 -5.4525 -0.705894 0
M  V30 6839 H 623.354 -6.7248 -0.945932 0
M  V30 6840 H 621.3 -5.83152 -3.00449 0
M  V30 6841 H 621.217 -7.27645 -2.05105 0
M  V30 6842 H 622.485 -7.09592 -3.22644 0
M  V30 6843 N 626.714 -0.118576 -1.57153 0
M  V30 6844 C 627.677 0.817464 -2.14127 0
M  V30 6845 C 628.677 1.1949 -1.07604 0
M  V30 6846 O 629.867 1.12048 -1.33382 0
M  V30 6847 C 626.999 2.10541 -2.68115 0
M  V30 6848 H 628.192 0.322339 -2.98163 0
M  V30 6849 H 625.745 0.130655 -1.55753 0
M  V30 6850 H 626.48 2.64485 -1.87665 0
M  V30 6851 H 626.265 1.84425 -3.4602 0
M  V30 6852 H 627.755 2.77453 -3.12105 0
M  V30 6853 N 628.193 1.56834 0.155195 0
M  V30 6854 C 629.418 1.87412 0.888337 0
M  V30 6855 C 629.843 0.70671 1.74319 0
M  V30 6856 O 629.201 -0.343892 1.78009 0
M  V30 6857 C 629.249 3.1652 1.72765 0
M  V30 6858 O 628.353 2.99877 2.83103 0
M  V30 6859 H 627.694 0.615983 0.247914 0
M  V30 6860 H 630.224 2.04061 0.148478 0
M  V30 6861 H 630.234 3.48334 2.12433 0
M  V30 6862 H 628.909 4.01094 1.09985 0
M  V30 6863 H 627.486 2.79453 2.46902 0
M  V30 6864 N 629.671 -0.424282 1.51781 0
M  V30 6865 C 630.621 -1.51464 1.70419 0
M  V30 6866 C 631.605 -1.50911 0.558094 0
M  V30 6867 O 632.797 -1.57143 0.814552 0
M  V30 6868 C 629.926 -2.89539 1.84451 0
M  V30 6869 C 629.012 -2.94798 3.04886 0
M  V30 6870 N 629.403 -2.69778 4.27848 0
M  V30 6871 C 627.701 -3.25962 3.04408 0
M  V30 6872 C 628.402 -2.81216 5.09208 0
M  V30 6873 N 627.378 -3.13447 4.44131 0
M  V30 6874 H 631.18 -1.30892 2.63144 0
M  V30 6875 H 628.694 -0.631783 1.49607 0
M  V30 6876 H 630.691 -3.67998 1.95917 0
M  V30 6877 H 629.351 -3.11121 0.929168 0
M  V30 6878 H 630.362 -2.44458 4.56575 0
M  V30 6879 H 627.039 -3.53236 2.22555 0
M  V30 6880 H 628.429 -2.65715 6.17127 0
M  V30 6881 N 631.149 -1.42148 -0.680565 0
M  V30 6882 C 632.079 -1.4796 -1.80638 0
M  V30 6883 C 633.06 -0.336728 -1.66734 0
M  V30 6884 O 634.245 -0.550247 -1.86242 0
M  V30 6885 C 631.375 -1.37569 -3.18892 0
M  V30 6886 C 630.329 -2.49823 -3.47524 0
M  V30 6887 C 629.655 -2.24491 -4.85291 0
M  V30 6888 C 630.955 -3.92144 -3.44994 0
M  V30 6889 H 632.649 -2.42184 -1.76032 0
M  V30 6890 H 630.195 -1.16566 -0.845481 0
M  V30 6891 H 632.148 -1.40243 -3.97379 0
M  V30 6892 H 630.872 -0.398357 -3.24162 0
M  V30 6893 H 629.531 -2.46455 -2.71395 0
M  V30 6894 H 629.179 -1.25066 -4.87204 0
M  V30 6895 H 628.879 -2.99722 -5.05411 0
M  V30 6896 H 630.403 -2.28906 -5.66069 0
M  V30 6897 H 631.817 -3.97145 -4.13459 0
M  V30 6898 H 630.214 -4.67179 -3.76648 0
M  V30 6899 H 631.284 -4.19225 -2.43676 0
M  V30 6900 N 632.627 0.916307 -1.28225 0
M  V30 6901 C 633.537 2.05165 -1.13775 0
M  V30 6902 C 634.553 1.73879 -0.0649418 0
M  V30 6903 O 635.729 1.99531 -0.273722 0
M  V30 6904 C 632.794 3.37385 -0.798267 0
M  V30 6905 C 631.855 3.82296 -1.95316 0
M  V30 6906 C 631.088 5.08206 -1.62978 0
M  V30 6907 O 631.311 5.6781 -0.542948 0
M  V30 6908 O 630.245 5.48768 -2.47261 0
M  V30 6909 H 634.071 2.20273 -2.09078 0
M  V30 6910 H 631.656 1.0373 -1.07519 0
M  V30 6911 H 633.538 4.16773 -0.62278 0
M  V30 6912 H 632.213 3.23458 0.125139 0
M  V30 6913 H 631.12 3.03746 -2.18378 0
M  V30 6914 H 632.453 4.00782 -2.85718 0
M  V30 6915 N 634.105 1.10431 1.1244 0
M  V30 6916 C 635.037 0.710945 2.17895 0
M  V30 6917 C 636.05 -0.252315 1.60833 0
M  V30 6918 O 637.239 -0.03679 1.78462 0
M  V30 6919 C 634.339 0.0284262 3.38888 0
M  V30 6920 C 633.512 1.01585 4.2544 0
M  V30 6921 C 632.571 0.364826 5.24934 0
M  V30 6922 O 631.597 1.01561 5.60066 0
M  V30 6923 N 632.799 -0.87674 5.73841 0
M  V30 6924 H 635.564 1.61826 2.52255 0
M  V30 6925 H 633.125 0.993132 1.27861 0
M  V30 6926 H 635.117 -0.418568 4.0253 0
M  V30 6927 H 633.687 -0.781294 3.02679 0
M  V30 6928 H 632.907 1.64111 3.58415 0
M  V30 6929 H 634.195 1.68425 4.80115 0
M  V30 6930 H 633.593 -1.42483 5.47462 0
M  V30 6931 H 632.15 -1.26688 6.39369 0
M  V30 6932 N 635.583 -1.29855 0.893053 0
M  V30 6933 C 636.808 -2.00512 0.530066 0
M  V30 6934 C 637.233 -1.66446 -0.876199 0
M  V30 6935 O 636.591 -0.885446 -1.58207 0
M  V30 6936 C 636.639 -3.53308 0.721505 0
M  V30 6937 O 635.743 -4.11764 -0.228994 0
M  V30 6938 H 635.084 -0.630617 0.207891 0
M  V30 6939 H 637.614 -1.6551 1.20282 0
M  V30 6940 H 637.624 -4.03206 0.623599 0
M  V30 6941 H 636.299 -3.77439 1.74678 0
M  V30 6942 H 634.876 -3.72805 -0.0841034 0
M  V30 6943 N 637.061 -0.65484 -1.43351 0
M  V30 6944 C 637.993 0.0744757 -2.29079 0
M  V30 6945 C 639.006 0.7855 -1.42596 0
M  V30 6946 O 640.195 0.642986 -1.66517 0
M  V30 6947 C 637.295 1.12859 -3.19556 0
M  V30 6948 C 636.468 0.495381 -4.34586 0
M  V30 6949 C 635.527 1.44659 -5.05925 0
M  V30 6950 O 634.553 0.954567 -5.61139 0
M  V30 6951 N 635.755 2.78051 -5.09576 0
M  V30 6952 H 638.52 -0.661346 -2.92312 0
M  V30 6953 H 636.081 -0.497744 -1.54059 0
M  V30 6954 H 638.073 1.76577 -3.64147 0
M  V30 6955 H 636.643 1.76636 -2.57912 0
M  V30 6956 H 635.863 -0.32092 -3.92892 0
M  V30 6957 H 637.151 0.0534203 -5.08772 0
M  V30 6958 H 636.549 3.20584 -4.66093 0
M  V30 6959 H 635.106 3.37068 -5.57878 0
M  V30 6960 N 638.539 1.52521 -0.396863 0
M  V30 6961 C 639.787 2.01274 0.182536 0
M  V30 6962 C 640.108 1.28485 1.46685 0
M  V30 6963 O 639.378 0.407134 1.91623 0
M  V30 6964 H 637.958 0.743671 0.0704442 0
M  V30 6965 H 640.62 1.87547 -0.530289 0
M  V30 6966 H 639.716 3.09687 0.387385 0
M  V30 6967 N 640.017 0.126909 1.57088 0
M  V30 6968 C 641.245 -0.53667 1.99819 0
M  V30 6969 C 641.66 -1.5972 1.00673 0
M  V30 6970 O 641.017 -1.825 0.000747365 0
M  V30 6971 C 641.068 -1.15563 3.42531 0
M  V30 6972 O 640.789 -0.137483 4.37884 0
M  V30 6973 C 642.29 -1.90176 4.00435 0
M  V30 6974 H 639.51 -0.141443 0.655923 0
M  V30 6975 H 642.054 0.215578 2.03361 0
M  V30 6976 H 640.209 -1.85861 3.39904 0
M  V30 6977 H 640.623 -0.588229 5.21191 0
M  V30 6978 H 642.097 -2.28801 5.02349 0
M  V30 6979 H 642.574 -2.78002 3.40017 0
M  V30 6980 H 643.18 -1.24623 4.06632 0
M  V30 6981 N 641.495 -1.56914 -0.146875 0
M  V30 6982 C 642.735 -1.85163 -0.86568 0
M  V30 6983 C 643.099 -0.711215 -1.78342 0
M  V30 6984 O 644.3 -0.874754 -2.54168 0
M  V30 6985 C 642.571 -3.18593 -1.61967 0
M  V30 6986 S 644.13 -3.68397 -2.38388 0
M  V30 6987 H 640.948 -0.6494 -0.289483 0
M  V30 6988 H 643.55 -1.95096 -0.125679 0
M  V30 6989 H 642.254 -3.99562 -0.93694 0
M  V30 6990 H 641.785 -3.11666 -2.40058 0
M  V30 6991 H 643.8 -3.37672 -3.63582 0
M  V30 6992 N 642.974 0.416227 -1.52004 0
M  V30 6993 C 644.39 0.754319 -1.40649 0
M  V30 6994 C 644.59 1.95059 -0.505392 0
M  V30 6995 O 643.646 2.5248 0.0315057 0
M  V30 6996 C 644.959 1.0149 -2.83055 0
M  V30 6997 C 646.507 1.11805 -2.9235 0
M  V30 6998 C 646.982 1.41144 -4.35709 0
M  V30 6999 N 648.473 1.48024 -4.38911 0
M  V30 7000 C 649.208 1.72338 -5.46889 0
M  V30 7001 N 648.704 1.94303 -6.64995 0
M  V30 7002 N 650.497 1.74294 -5.34395 0
M  V30 7003 H 642.648 -0.371324 -2.09129 0
M  V30 7004 H 644.911 -0.103811 -0.942299 0
M  V30 7005 H 644.617 0.208345 -3.51082 0
M  V30 7006 H 644.491 1.93697 -3.23668 0
M  V30 7007 H 646.878 1.91521 -2.24508 0
M  V30 7008 H 646.959 0.17451 -2.55204 0
M  V30 7009 H 646.603 0.619484 -5.04108 0
M  V30 7010 H 646.533 2.36739 -4.70385 0
M  V30 7011 H 649.024 1.32868 -3.53772 0
M  V30 7012 H 649.337 2.12286 -7.43071 0
M  V30 7013 H 647.682 1.91582 -6.68073 0
M  V30 7014 H 650.873 1.56667 -4.41104 0
M  V30 7015 H 651.046 1.92904 -6.18621 0
M  V30 7016 N 644.452 1.42507 0.673017 0
M  V30 7017 C 645.68 1.46473 1.46128 0
M  V30 7018 C 646.095 0.0765912 1.88645 0
M  V30 7019 O 645.452 -0.909057 1.58248 0
M  V30 7020 C 645.503 2.39339 2.70923 0
M  V30 7021 O 645.224 3.72752 2.3019 0
M  V30 7022 C 646.725 2.52343 3.64469 0
M  V30 7023 H 643.945 0.49812 0.449575 0
M  V30 7024 H 646.489 1.87041 0.826802 0
M  V30 7025 H 644.644 2.02019 3.30556 0
M  V30 7026 H 645.058 4.22503 3.10791 0
M  V30 7027 H 646.532 3.2144 4.48754 0
M  V30 7028 H 647.009 1.56189 4.1049 0
M  V30 7029 H 647.615 2.90392 3.10729 0
M  V30 7030 N 645.93 -0.909495 1.28709 0
M  V30 7031 C 647.155 -1.69801 1.1909 0
M  V30 7032 C 647.58 -1.86479 -0.246388 0
M  V30 7033 O 646.938 -1.37802 -1.17815 0
M  V30 7034 C 646.986 -3.06543 1.89904 0
M  V30 7035 O 646.09 -3.94268 1.2094 0
M  V30 7036 H 645.431 -0.519783 0.413185 0
M  V30 7037 H 647.961 -1.13689 1.70106 0
M  V30 7038 H 647.971 -3.56748 1.97977 0
M  V30 7039 H 646.646 -2.93722 2.94449 0
M  V30 7040 H 645.223 -3.52702 1.2106 0
M  V30 7041 N 647.408 -1.11026 -1.11852 0
M  V30 7042 C 648.657 -0.851249 -1.82857 0
M  V30 7043 C 648.97 0.62514 -1.85341 0
M  V30 7044 O 650.176 1.00026 -2.52403 0
M  V30 7045 C 648.632 -1.47309 -3.28372 0
M  V30 7046 C 648.24 -2.9832 -3.34229 0
M  V30 7047 C 649.984 -1.29373 -4.04306 0
M  V30 7048 C 647.891 -3.53509 -4.74115 0
M  V30 7049 H 646.821 -0.314794 -0.685143 0
M  V30 7050 H 649.472 -1.33499 -1.25898 0
M  V30 7051 H 647.854 -0.917017 -3.85236 0
M  V30 7052 H 649.028 -3.60295 -2.87271 0
M  V30 7053 H 647.343 -3.15482 -2.71772 0
M  V30 7054 H 649.94 -1.68042 -5.07608 0
M  V30 7055 H 650.283 -0.235879 -4.15631 0
M  V30 7056 H 650.816 -1.8182 -3.53817 0
M  V30 7057 H 647.555 -4.58987 -4.67986 0
M  V30 7058 H 647.075 -2.96305 -5.21501 0
M  V30 7059 H 648.754 -3.51693 -5.43066 0
M  V30 7060 N 648.886 1.2938 -0.899927 0
M  V30 7061 C 650.135 1.9483 -0.521937 0
M  V30 7062 C 650.448 1.71725 0.936473 0
M  V30 7063 O 651.654 2.31282 1.42199 0
M  V30 7064 C 650.11 3.48911 -0.88255 0
M  V30 7065 C 649.718 3.80815 -2.35974 0
M  V30 7066 C 651.462 4.20595 -0.57448 0
M  V30 7067 C 649.369 5.28142 -2.66121 0
M  V30 7068 H 648.299 0.729285 -0.191468 0
M  V30 7069 H 650.95 1.47103 -1.09695 0
M  V30 7070 H 649.332 3.95293 -0.236459 0
M  V30 7071 H 650.506 3.45291 -3.05141 0
M  V30 7072 H 648.821 3.22271 -2.63686 0
M  V30 7073 H 651.418 5.29031 -0.776556 0
M  V30 7074 H 651.761 4.13442 0.487005 0
M  V30 7075 H 652.294 3.79945 -1.17842 0
M  V30 7076 H 649.033 5.4036 -3.71068 0
M  V30 7077 H 648.553 5.64913 -2.01578 0
M  V30 7078 H 650.232 5.95738 -2.52399 0
M  V30 7079 O 650.403 0.801822 1.40189 0
M  V30 7080 H 651.094 0.376359 1.90008 0
M  V30 END ATOM
M  V30 BEGIN BOND
M  V30 END BOND
M  V30 END CTAB
M  END
$$$$
