drugbank_target|P47898 5-hydroxytryptamine receptor 5A (DB00246; DB00408; DB01238; DB06216)
 OpenBabel12092120573D

  0  0  0     0  0            999 V3000
M  V30 BEGIN CTAB
M  V30 COUNTS 5720 5799 0 0 0
M  V30 BEGIN ATOM
M  V30 1 H -0.908 1.98254 -0.117106 0
M  V30 2 N 0 1.576 0 0
M  V30 3 C 0.933 2.03868 1.02534 0
M  V30 4 C 1.911 0.928543 1.3348 0
M  V30 5 O 3.095 1.19667 1.45644 0
M  V30 6 C 0.222 2.43627 2.35294 0
M  V30 7 C -0.732 3.65373 2.2001 0
M  V30 8 S 0.101 5.13292 1.52614 0
M  V30 9 C 1.257 5.56322 2.86805 0
M  V30 10 H 1.49 2.90518 0.631377 0
M  V30 11 H -0.977 1.52953 0.210867 0
M  V30 12 H 0.981 2.67203 3.11629 0
M  V30 13 H -0.358 1.57376 2.7183 0
M  V30 14 H -1.165 3.90944 3.18086 0
M  V30 15 H -1.563 3.418 1.51819 0
M  V30 16 H 0.729 5.58782 3.83104 0
M  V30 17 H 1.672 6.56266 2.65933 0
M  V30 18 H 2.08 4.83886 2.90714 0
M  V30 19 N 1.4781 -0.272755 1.55222 0
M  V30 20 C 2.7551 -1.02562 1.66555 0
M  V30 21 C 3.1351 -2.04282 0.532189 0
M  V30 22 O 2.4831 -2.23662 -0.467717 0
M  V30 23 C 2.6931 -1.6822 3.05782 0
M  V30 24 C 4.0411 -2.19373 3.63539 0
M  V30 25 O 5.0651 -1.78206 3.08417 0
M  V30 26 O 3.9241 -2.94883 4.60115 0
M  V30 27 H 1.0181 -0.475755 0.676451 0
M  V30 28 H 3.5641 -0.268593 1.67561 0
M  V30 29 H 2.3361 -0.945112 3.79715 0
M  V30 30 H 1.9591 -2.50609 3.08676 0
M  V30 31 N 2.9562 -1.48159 -0.537278 0
M  V30 32 C 3.8862 -1.65029 -1.6519 0
M  V30 33 C 4.8672 -0.499281 -1.62607 0
M  V30 34 O 6.0522 -0.730972 -1.79918 0
M  V30 35 C 3.1822 -1.68303 -3.03795 0
M  V30 36 C 2.1362 -2.8283 -3.21234 0
M  V30 37 C 1.4622 -2.71189 -4.60826 0
M  V30 38 C 2.7622 -4.24211 -3.04701 0
M  V30 39 H 4.4562 -2.58341 -1.51328 0
M  V30 40 H 2.0022 -1.24325 -0.726585 0
M  V30 41 H 3.9552 -1.78693 -3.81637 0
M  V30 42 H 2.6792 -0.715635 -3.18663 0
M  V30 43 H 1.3382 -2.71983 -2.45807 0
M  V30 44 H 0.9862 -1.72435 -4.7252 0
M  V30 45 H 0.6862 -3.48035 -4.7344 0
M  V30 46 H 2.2102 -2.83537 -5.40777 0
M  V30 47 H 3.6242 -4.3593 -3.72341 0
M  V30 48 H 2.0212 -5.01998 -3.28813 0
M  V30 49 H 3.0912 -4.41184 -2.01209 0
M  V30 50 N 4.4343 0.785586 -1.36625 0
M  V30 51 C 5.8453 1.36101 -1.27803 0
M  V30 52 C 6.1963 1.96035 0.0804875 0
M  V30 53 O 5.3213 1.92834 0.982042 0
M  V30 54 C 5.9163 2.47442 -2.31426 0
M  V30 55 C 4.4753 3.00789 -2.26281 0
M  V30 56 C 3.6223 1.73896 -2.15999 0
M  V30 57 H 6.5733 0.586928 -1.47448 0
M  V30 58 H 6.5943 3.2656 -1.95291 0
M  V30 59 H 6.1063 2.03791 -3.30289 0
M  V30 60 H 4.2073 3.48851 -1.30896 0
M  V30 61 H 4.3203 3.57343 -3.19128 0
M  V30 62 H 2.6843 1.9628 -1.62316 0
M  V30 63 H 3.4673 1.32368 -3.16755 0
M  V30 64 N 5.9124 1.20967 1.01018 0
M  V30 65 C 7.1584 1.02526 1.74975 0
M  V30 66 C 7.4914 -0.4408 1.89131 0
M  V30 67 O 6.7664 -1.32718 1.42184 0
M  V30 68 C 7.0494 1.71699 3.1653 0
M  V30 69 C 6.9024 3.25791 3.10129 0
M  V30 70 C 8.2214 1.45531 4.15342 0
M  V30 71 H 5.3404 0.373863 0.635134 0
M  V30 72 H 7.9824 1.49071 1.17805 0
M  V30 73 H 6.1324 1.32128 3.65341 0
M  V30 74 H 7.8044 3.74697 2.69072 0
M  V30 75 H 6.0474 3.56363 2.47362 0
M  V30 76 H 6.7184 3.69353 4.10222 0
M  V30 77 H 9.1944 1.79872 3.75213 0
M  V30 78 H 8.0704 1.96453 5.1254 0
M  V30 79 H 8.3314 0.384237 4.40427 0
M  V30 80 N 7.3905 -1.2043 1.01659 0
M  V30 81 C 8.3385 -2.25249 0.580143 0
M  V30 82 C 9.3325 -1.65057 -0.381115 0
M  V30 83 O 10.5385 -1.78241 -0.251039 0
M  V30 84 H 6.9135 -0.732695 0.169299 0
M  V30 85 H 8.8845 -2.59389 1.47512 0
M  V30 86 C 7.6335 -3.47638 -0.065788 0
M  V30 87 H 6.9565 -3.94233 0.664874 0
M  V30 88 H 8.3965 -4.2268 -0.334282 0
M  V30 89 C 6.8555 -3.10447 -1.3086 0
M  V30 90 O 7.3855 -3.21981 -2.4019 0
M  V30 91 N 5.5915 -2.64996 -1.1927 0
M  V30 92 H 5.1385 -2.55811 -0.303064 0
M  V30 93 H 5.0965 -2.40482 -2.02523 0
M  V30 94 N 8.8686 -0.792821 -1.36206 0
M  V30 95 C 9.7986 -0.207853 -2.32573 0
M  V30 96 C 10.7796 0.659055 -1.56813 0
M  V30 97 O 11.9646 0.592176 -1.84951 0
M  V30 98 C 9.0946 0.655449 -3.41059 0
M  V30 99 C 8.0486 -0.111842 -4.27854 0
M  V30 100 C 7.3746 0.872274 -5.27537 0
M  V30 101 C 8.6746 -1.30299 -5.05786 0
M  V30 102 H 10.3686 -1.01294 -2.81744 0
M  V30 103 H 7.9146 -0.48854 -1.3546 0
M  V30 104 H 9.8676 1.07464 -4.07467 0
M  V30 105 H 8.5916 1.49328 -2.90463 0
M  V30 106 H 7.2506 -0.512053 -3.63006 0
M  V30 107 H 6.8986 1.70523 -4.73214 0
M  V30 108 H 6.5986 0.363291 -5.86476 0
M  V30 109 H 8.1226 1.28996 -5.96818 0
M  V30 110 H 9.5366 -0.959379 -5.65216 0
M  V30 111 H 7.9336 -1.7455 -5.74154 0
M  V30 112 H 9.0036 -2.09663 -4.37229 0
M  V30 113 N 10.3467 1.47872 -0.545128 0
M  V30 114 C 11.5747 2.06889 -0.021084 0
M  V30 115 C 11.9897 1.39955 1.2672 0
M  V30 116 O 11.3467 0.492036 1.75742 0
M  V30 117 C 11.3977 3.60996 0.190817 0
M  V30 118 O 11.1187 4.25419 -1.04644 0
M  V30 119 C 12.6197 4.36849 0.753521 0
M  V30 120 H 9.8397 0.669785 -0.0403635 0
M  V30 121 H 12.3837 1.90049 -0.755095 0
M  V30 122 H 10.5387 3.77391 0.87492 0
M  V30 123 H 10.9527 5.17785 -0.836611 0
M  V30 124 H 12.4267 5.45399 0.851139 0
M  V30 125 H 12.9037 4.02306 1.762 0
M  V30 126 H 13.5097 4.25169 0.105503 0
M  V30 127 N 11.8248 0.280983 1.55075 0
M  V30 128 C 13.0498 -0.340154 2.04592 0
M  V30 129 C 13.4748 -1.48246 1.15779 0
M  V30 130 O 12.8328 -1.80614 0.15761 0
M  V30 131 C 12.8808 -0.793104 3.5177 0
M  V30 132 O 11.9848 -1.89981 3.66034 0
M  V30 133 H 11.3258 -0.0694289 0.66036 0
M  V30 134 H 13.8558 0.416993 2.00306 0
M  V30 135 H 13.8658 -1.08729 3.93245 0
M  V30 136 H 12.5408 0.0426163 4.15878 0
M  V30 137 H 11.1178 -1.60771 3.36463 0
M  V30 138 N 13.3029 -1.57598 0.00835791 0
M  V30 139 C 14.5499 -1.90928 -0.674732 0
M  V30 140 C 14.8779 -0.88277 -1.73313 0
M  V30 141 O 14.1329 0.111294 -1.95383 0
M  V30 142 C 14.4319 -3.3101 -1.34787 0
M  V30 143 C 14.0979 -4.48922 -0.421861 0
M  V30 144 C 12.7599 -4.8091 -0.166927 0
M  V30 145 C 15.1119 -5.20755 0.215211 0
M  V30 146 C 12.4399 -5.821 0.733232 0
M  V30 147 C 14.7919 -6.22905 1.1033 0
M  V30 148 C 13.4559 -6.53346 1.36733 0
M  V30 149 H 12.7259 -0.698656 -0.246902 0
M  V30 150 H 15.3729 -1.91387 0.0656779 0
M  V30 151 H 13.6779 -3.26714 -2.16253 0
M  V30 152 H 15.3749 -3.54061 -1.8826 0
M  V30 153 H 11.9649 -4.23934 -0.630729 0
M  V30 154 H 16.1489 -4.9629 0.0312829 0
M  V30 155 H 11.4049 -6.04042 0.945712 0
M  V30 156 H 15.5789 -6.77694 1.60325 0
M  V30 157 H 13.2059 -7.31573 2.06652 0
M  V30 158 N 14.781 0.264519 -1.55364 0
M  V30 159 C 16.006 1.01726 -1.80739 0
M  V30 160 C 16.431 1.78836 -0.583044 0
M  V30 161 O 15.789 1.75167 0.467566 0
M  V30 162 C 15.837 1.94482 -3.03659 0
M  V30 163 O 14.941 3.03386 -2.7934 0
M  V30 164 H 14.282 0.290395 -0.597132 0
M  V30 165 H 16.812 0.290854 -2.02522 0
M  V30 166 H 16.822 2.36278 -3.32621 0
M  V30 167 H 15.497 1.37772 -3.92418 0
M  V30 168 H 14.074 2.65844 -2.61498 0
M  V30 169 N 16.2591 1.48442 0.529413 0
M  V30 170 C 17.1891 1.65902 1.64313 0
M  V30 171 C 18.1701 0.507897 1.6234 0
M  V30 172 O 19.3551 0.740503 1.79528 0
M  V30 173 C 16.4851 1.69911 3.02898 0
M  V30 174 C 15.4391 2.8453 3.19729 0
M  V30 175 C 14.7651 2.73629 4.59381 0
M  V30 176 C 16.0651 4.25821 3.02447 0
M  V30 177 H 17.7591 2.5914 1.49955 0
M  V30 178 H 15.3051 1.24709 0.719982 0
M  V30 179 H 17.2581 1.80715 3.80684 0
M  V30 180 H 15.9821 0.732524 3.18279 0
M  V30 181 H 14.6411 2.73283 2.44361 0
M  V30 182 H 14.2891 1.74938 4.71599 0
M  V30 183 H 13.9891 3.50541 4.71588 0
M  V30 184 H 15.5131 2.86401 5.39265 0
M  V30 185 H 16.9271 4.37898 3.70024 0
M  V30 186 H 15.3241 5.03735 3.26146 0
M  V30 187 H 16.3941 4.42244 1.98867 0
M  V30 188 N 17.7372 -0.778329 1.37039 0
M  V30 189 C 18.9622 -1.57248 1.35233 0
M  V30 190 C 19.3872 -1.87999 -0.0615568 0
M  V30 191 O 18.7452 -1.48734 -1.03672 0
M  V30 192 C 18.7932 -2.86353 2.19167 0
M  V30 193 O 17.8972 -3.80442 1.59178 0
M  V30 194 H 17.2382 -0.476569 0.462362 0
M  V30 195 H 19.7682 -0.963853 1.80474 0
M  V30 196 H 19.7782 -3.35519 2.32145 0
M  V30 197 H 18.4532 -2.63299 3.21942 0
M  V30 198 H 17.0302 -3.39067 1.55203 0
M  V30 199 N 19.2153 -1.21501 -1.00376 0
M  V30 200 C 20.4433 -1.059 -1.77744 0
M  V30 201 C 20.8583 0.391125 -1.84704 0
M  V30 202 O 20.2153 1.27133 -1.30933 0
M  V30 203 C 20.2663 -1.65111 -3.21591 0
M  V30 204 O 19.9873 -3.0445 -3.15027 0
M  V30 205 C 21.4883 -1.54637 -4.15454 0
M  V30 206 H 18.7083 -0.371825 -0.558558 0
M  V30 207 H 21.2523 -1.60865 -1.26264 0
M  V30 208 H 19.4073 -1.14235 -3.70175 0
M  V30 209 H 19.8213 -3.3278 -4.0541 0
M  V30 210 H 21.2953 -2.00808 -5.14179 0
M  V30 211 H 21.7723 -0.501022 -4.36333 0
M  V30 212 H 22.3783 -2.04767 -3.72761 0
M  V30 213 N 20.6934 1.19889 -1.02296 0
M  V30 214 C 22.1044 1.71124 -0.746568 0
M  V30 215 C 22.4554 1.81939 0.734335 0
M  V30 216 O 21.5804 1.48639 1.57275 0
M  V30 217 C 22.1754 3.10804 -1.34857 0
M  V30 218 C 20.7344 3.59323 -1.1209 0
M  V30 219 C 19.8814 2.3635 -1.45031 0
M  V30 220 H 22.8324 1.04813 -1.19163 0
M  V30 221 H 22.8534 3.73186 -0.742437 0
M  V30 222 H 22.3654 3.029 -2.42638 0
M  V30 223 H 20.4664 3.7255 -0.0610337 0
M  V30 224 H 20.5794 4.4378 -1.80544 0
M  V30 225 H 18.9434 2.39399 -0.869487 0
M  V30 226 H 19.7264 2.31081 -2.53883 0
M  V30 227 N 22.1715 0.800033 1.35784 0
M  V30 228 C 23.3965 0.388511 2.03729 0
M  V30 229 C 23.8215 -0.990481 1.5991 0
M  V30 230 O 23.1795 -1.64013 0.772612 0
M  V30 231 C 23.2275 0.4726 3.5749 0
M  V30 232 O 22.3315 -0.51646 4.09153 0
M  V30 233 H 21.6725 0.163271 0.643614 0
M  V30 234 H 24.2025 1.0841 1.73518 0
M  V30 235 H 24.2125 0.34003 4.06581 0
M  V30 236 H 22.8875 1.47848 3.88734 0
M  V30 237 H 21.4645 -0.344673 3.71304 0
M  V30 238 N 23.6496 -1.47581 0.552962 0
M  V30 239 C 25.0606 -1.86324 0.118463 0
M  V30 240 C 25.4116 -1.46006 -1.3106 0
M  V30 241 O 24.5366 -0.861182 -1.98526 0
M  V30 242 C 25.1316 -3.3816 0.20821 0
M  V30 243 C 23.6906 -3.7601 -0.171226 0
M  V30 244 C 22.8376 -2.71634 0.557686 0
M  V30 245 H 25.7886 -1.39159 0.762928 0
M  V30 246 H 25.8096 -3.76141 -0.574278 0
M  V30 247 H 25.3216 -3.67473 1.24841 0
M  V30 248 H 23.4226 -3.52313 -1.21269 0
M  V30 249 H 23.5356 -4.78745 0.184379 0
M  V30 250 H 21.8996 -2.547 0.00125792 0
M  V30 251 H 22.6826 -3.0379 1.59896 0
M  V30 252 N 25.1277 -0.289203 -1.54924 0
M  V30 253 C 26.0577 0.58549 -2.2604 0
M  V30 254 C 27.0387 1.14753 -1.25562 0
M  V30 255 O 28.2237 1.17906 -1.54311 0
M  V30 256 C 25.3537 1.76305 -2.99222 0
M  V30 257 C 24.3077 1.33191 -4.06748 0
M  V30 258 C 23.6337 2.5937 -4.6758 0
M  V30 259 C 24.9337 0.471775 -5.20165 0
M  V30 260 H 26.6277 -0.00763532 -2.99399 0
M  V30 261 H 24.1737 -0.00511229 -1.43999 0
M  V30 262 H 26.1267 2.38097 -3.47689 0
M  V30 263 H 24.8507 2.38223 -2.23422 0
M  V30 264 H 23.5097 0.737121 -3.59113 0
M  V30 265 H 23.1577 3.19576 -3.88433 0
M  V30 266 H 22.8577 2.31228 -5.40192 0
M  V30 267 H 24.3817 3.21985 -5.18804 0
M  V30 268 H 25.7957 0.995056 -5.64599 0
M  V30 269 H 24.1927 0.284639 -5.99425 0
M  V30 270 H 25.2627 -0.506041 -4.82252 0
M  V30 271 N 26.6058 1.57591 -0.0167156 0
M  V30 272 C 27.5158 2.1291 0.98521 0
M  V30 273 C 28.5318 1.07834 1.36557 0
M  V30 274 O 29.7078 1.39826 1.44951 0
M  V30 275 C 26.7728 2.63512 2.25305 0
M  V30 276 C 25.8338 3.83256 1.93426 0
M  V30 277 C 25.0668 4.31435 3.14165 0
M  V30 278 O 25.2898 3.78851 4.26413 0
M  V30 279 O 24.2238 5.23416 2.97186 0
M  V30 280 H 28.0498 2.98772 0.544888 0
M  V30 281 H 25.6348 1.48012 0.203141 0
M  V30 282 H 27.5168 2.96183 2.99756 0
M  V30 283 H 26.1918 1.8074 2.68542 0
M  V30 284 H 25.0988 3.55531 1.16398 0
M  V30 285 H 26.4318 4.67153 1.55013 0
M  V30 286 N 28.0839 -0.256276 1.55502 0
M  V30 287 C 29.3119 -1.00342 1.8094 0
M  V30 288 C 29.7269 -1.79307 0.59114 0
M  V30 289 O 29.0839 -1.77114 -0.440081 0
M  V30 290 C 29.1349 -1.94875 3.04476 0
M  V30 291 O 28.8559 -1.19107 4.21598 0
M  V30 292 C 30.3569 -2.81266 3.42644 0
M  V30 293 H 27.5769 -0.295685 0.602338 0
M  V30 294 H 30.1209 -0.281998 2.02546 0
M  V30 295 H 28.2759 -2.62457 2.84947 0
M  V30 296 H 28.6899 -1.82969 4.91551 0
M  V30 297 H 30.1639 -3.43362 4.32211 0
M  V30 298 H 30.6409 -3.51897 2.62802 0
M  V30 299 H 31.2469 -2.1915 3.64491 0
M  V30 300 N 29.562 -1.4872 -0.521534 0
M  V30 301 C 30.51 -1.64328 -1.64618 0
M  V30 302 C 31.504 -0.50953 -1.61555 0
M  V30 303 O 32.71 -0.688525 -1.66311 0
M  V30 304 H 29.085 -0.517805 -0.545328 0
M  V30 305 H 31.056 -2.58767 -1.48601 0
M  V30 306 C 29.805 -1.70805 -3.02855 0
M  V30 307 H 29.128 -2.5741 -3.05909 0
M  V30 308 H 30.568 -1.85766 -3.81139 0
M  V30 309 C 29.027 -0.448479 -3.33902 0
M  V30 310 O 29.557 0.434928 -3.99339 0
M  V30 311 N 27.763 -0.317616 -2.88859 0
M  V30 312 H 27.31 -1.03748 -2.35784 0
M  V30 313 H 27.268 0.524113 -3.10001 0
M  V30 314 N 31.0401 0.771051 -1.3745 0
M  V30 315 C 31.9901 1.87456 -1.29785 0
M  V30 316 C 32.9741 1.59827 -0.185541 0
M  V30 317 O 34.1661 1.71945 -0.419997 0
M  V30 318 C 31.2951 3.24935 -1.1078 0
M  V30 319 C 30.3811 3.58514 -2.26558 0
M  V30 320 N 30.7721 3.6327 -3.5195 0
M  V30 321 C 29.0701 3.88683 -2.18727 0
M  V30 322 C 29.7711 3.93616 -4.283 0
M  V30 323 N 28.7471 4.09551 -3.57448 0
M  V30 324 H 32.5491 1.89386 -2.24745 0
M  V30 325 H 30.0631 0.967531 -1.30432 0
M  V30 326 H 32.0601 4.03881 -1.03374 0
M  V30 327 H 30.7201 3.24268 -0.16738 0
M  V30 328 H 31.7311 3.45458 -3.85848 0
M  V30 329 H 28.4081 3.95834 -1.32746 0
M  V30 330 H 29.7981 4.04066 -5.36824 0
M  V30 331 N 32.5182 1.22032 0.997298 0
M  V30 332 C 33.7432 1.06921 1.77715 0
M  V30 333 C 34.1682 -0.376226 1.84299 0
M  V30 334 O 33.5262 -1.27165 1.29223 0
M  V30 335 C 33.5742 1.67996 3.19076 0
M  V30 336 O 32.6782 0.930653 4.01762 0
M  V30 337 H 32.0192 0.375814 0.547412 0
M  V30 338 H 34.5492 1.61737 1.25309 0
M  V30 339 H 34.5592 1.72538 3.69723 0
M  V30 340 H 33.2342 2.73182 3.13599 0
M  V30 341 H 31.8112 0.960917 3.60307 0
M  V30 342 N 33.9963 -1.19345 1.0293 0
M  V30 343 C 34.9263 -2.2481 0.631105 0
M  V30 344 C 35.9073 -1.66245 -0.360104 0
M  V30 345 O 37.0923 -1.92677 -0.242726 0
M  V30 346 C 34.2223 -3.47295 -0.0184607 0
M  V30 347 C 33.1763 -4.18536 0.895073 0
M  V30 348 C 32.5023 -5.34586 0.110592 0
M  V30 349 C 33.8023 -4.73287 2.209 0
M  V30 350 H 35.4963 -2.58372 1.51275 0
M  V30 351 H 33.0423 -1.24194 0.728818 0
M  V30 352 H 34.9953 -4.20268 -0.308675 0
M  V30 353 H 33.7193 -3.12933 -0.934907 0
M  V30 354 H 32.3783 -3.47446 1.16949 0
M  V30 355 H 32.0263 -4.96469 -0.807902 0
M  V30 356 H 31.7263 -5.83183 0.719087 0
M  V30 357 H 33.2503 -6.10355 -0.172871 0
M  V30 358 H 34.6643 -5.38013 1.98028 0
M  V30 359 H 33.0613 -5.32373 2.76946 0
M  V30 360 H 34.1313 -3.91331 2.86336 0
M  V30 361 N 35.4744 -0.807222 -1.35358 0
M  V30 362 C 36.7224 -0.387122 -1.98358 0
M  V30 363 C 37.0434 1.04942 -1.64354 0
M  V30 364 O 36.3134 1.72615 -0.926339 0
M  V30 365 H 34.8934 -0.140154 -0.733734 0
M  V30 366 H 37.5554 -1.0332 -1.6526 0
M  V30 367 H 36.6514 -0.493352 -3.08176 0
M  V30 368 N 36.9525 1.47285 -0.560781 0
M  V30 369 C 37.8995 2.30058 0.18491 0
M  V30 370 C 38.8695 1.39281 0.904986 0
M  V30 371 O 40.0545 1.68241 0.899979 0
M  V30 372 C 37.1945 3.23317 1.20666 0
M  V30 373 C 36.3075 4.29186 0.492285 0
M  V30 374 C 35.4425 5.09592 1.49964 0
M  V30 375 C 34.4815 6.07232 0.770439 0
M  V30 376 N 33.6185 6.80584 1.72479 0
M  V30 377 H 38.4585 2.93302 -0.527048 0
M  V30 378 H 35.9955 1.44568 -0.271738 0
M  V30 379 H 37.9535 3.75811 1.81168 0
M  V30 380 H 36.5835 2.61929 1.88661 0
M  V30 381 H 35.6355 3.7972 -0.227333 0
M  V30 382 H 36.9475 4.98738 -0.0787929 0
M  V30 383 H 36.1015 5.66254 2.17809 0
M  V30 384 H 34.8405 4.3995 2.10464 0
M  V30 385 H 33.8455 5.49745 0.0780846 0
M  V30 386 H 35.0705 6.78884 0.171134 0
M  V30 387 H 33.0165 6.1367 2.3183 0
M  V30 388 H 32.9335 7.46319 1.20596 0
M  V30 389 H 34.2015 7.41818 2.39428 0
M  V30 390 N 38.4306 0.297415 1.54768 0
M  V30 391 C 39.7076 -0.365847 1.92148 0
M  V30 392 C 40.0876 -1.71975 1.22424 0
M  V30 393 O 39.4356 -2.25666 0.358739 0
M  V30 394 C 39.6456 -0.484056 3.45627 0
M  V30 395 C 40.9936 -0.756594 4.17805 0
M  V30 396 O 42.0176 -0.568007 3.51642 0
M  V30 397 O 40.8766 -1.11863 5.34929 0
M  V30 398 H 37.9706 -0.203919 0.801465 0
M  V30 399 H 40.5166 0.34521 1.66152 0
M  V30 400 H 39.2886 0.467865 3.88493 0
M  V30 401 H 38.9116 -1.24372 3.77647 0
M  V30 402 N 39.9087 -1.5758 0.0250728 0
M  V30 403 C 41.1857 -1.82917 -0.692873 0
M  V30 404 C 41.5657 -0.908137 -1.90568 0
M  V30 405 O 40.9137 0.0372298 -2.2847 0
M  V30 406 C 41.1237 -3.32034 -1.07492 0
M  V30 407 C 42.4717 -3.98406 -1.46826 0
M  V30 408 O 43.4957 -3.36505 -1.16801 0
M  V30 409 O 42.3547 -5.07497 -2.02754 0
M  V30 410 H 39.4487 -0.754079 -0.33955 0
M  V30 411 H 41.9947 -1.69619 0.0524456 0
M  V30 412 H 40.7667 -3.90728 -0.211552 0
M  V30 413 H 40.3897 -3.50424 -1.87854 0
M  V30 414 N 41.3868 0.248026 -1.55636 0
M  V30 415 C 42.3168 1.31079 -1.93237 0
M  V30 416 C 43.2978 1.50264 -0.797174 0
M  V30 417 O 44.4828 1.62891 -1.05737 0
M  V30 418 C 41.6128 2.66575 -2.22609 0
M  V30 419 C 40.5668 2.62087 -3.3837 0
M  V30 420 C 39.8928 4.01369 -3.53281 0
M  V30 421 C 41.1928 2.19171 -4.7409 0
M  V30 422 H 42.8868 0.998556 -2.82257 0
M  V30 423 H 40.4328 0.47891 -1.35803 0
M  V30 424 H 42.3858 3.41057 -2.47503 0
M  V30 425 H 41.1098 2.99432 -1.30414 0
M  V30 426 H 39.7688 1.90063 -3.13483 0
M  V30 427 H 39.4168 4.31489 -2.58508 0
M  V30 428 H 39.1168 3.99254 -4.31127 0
M  V30 429 H 40.6408 4.77552 -3.80495 0
M  V30 430 H 42.0548 2.83384 -4.98363 0
M  V30 431 H 40.4518 2.2817 -5.5503 0
M  V30 432 H 41.5218 1.14336 -4.71227 0
M  V30 433 N 42.8649 1.48995 0.513639 0
M  V30 434 C 44.2809 1.35478 0.843682 0
M  V30 435 C 44.4809 0.378213 1.97919 0
M  V30 436 O 43.5369 -0.194689 2.51748 0
M  V30 437 C 44.8499 2.75901 1.1958 0
M  V30 438 C 46.3979 2.84509 1.30474 0
M  V30 439 C 46.8729 4.25671 1.69021 0
M  V30 440 N 48.3639 4.28422 1.76094 0
M  V30 441 C 49.0989 5.34601 2.07338 0
M  V30 442 N 48.5949 6.5104 2.36894 0
M  V30 443 N 50.3879 5.22007 2.08483 0
M  V30 444 H 42.5389 2.11092 -0.235328 0
M  V30 445 H 44.8019 0.947039 -0.0426669 0
M  V30 446 H 44.5079 3.49001 0.434913 0
M  V30 447 H 44.3819 3.10467 2.1422 0
M  V30 448 H 46.7689 2.11655 2.05637 0
M  V30 449 H 46.8499 2.53542 0.339155 0
M  V30 450 H 46.4939 4.99048 0.944135 0
M  V30 451 H 46.4239 4.54094 2.66658 0
M  V30 452 H 48.9149 3.44441 1.55464 0
M  V30 453 H 49.2279 7.2779 2.59887 0
M  V30 454 H 47.5729 6.54287 2.34378 0
M  V30 455 H 50.7639 4.30051 1.84861 0
M  V30 456 H 50.9369 6.04854 2.325 0
M  V30 457 N 44.343 -0.763751 1.37857 0
M  V30 458 C 45.754 -1.3405 1.29952 0
M  V30 459 C 46.105 -1.96138 -0.0492898 0
M  V30 460 O 45.23 -1.94372 -0.951239 0
M  V30 461 C 45.825 -2.43729 2.35333 0
M  V30 462 C 44.384 -2.97151 2.31037 0
M  V30 463 C 43.531 -1.70438 2.18738 0
M  V30 464 H 46.482 -0.563396 1.48363 0
M  V30 465 H 46.503 -3.23412 2.00462 0
M  V30 466 H 46.015 -1.9851 3.33489 0
M  V30 467 H 44.116 -3.46724 1.3643 0
M  V30 468 H 44.229 -3.52221 3.24772 0
M  V30 469 H 42.593 -1.93673 1.65418 0
M  V30 470 H 43.376 -1.27312 3.18821 0
M  V30 471 N 45.8211 -1.22559 -0.990812 0
M  V30 472 C 47.0461 -1.07862 -1.77145 0
M  V30 473 C 47.4711 0.366447 -1.84496 0
M  V30 474 O 46.8291 1.26478 -1.29896 0
M  V30 475 C 46.8771 -1.69686 -3.18181 0
M  V30 476 O 45.9811 -0.951946 -4.01263 0
M  V30 477 H 45.3221 -0.378712 -0.545411 0
M  V30 478 H 47.8521 -1.62399 -1.2445 0
M  V30 479 H 47.8621 -1.74496 -3.68802 0
M  V30 480 H 46.5371 -2.74841 -3.12146 0
M  V30 481 H 45.1141 -0.980011 -3.59792 0
M  V30 482 N 47.2992 1.18797 -1.03562 0
M  V30 483 C 48.5242 1.9314 -0.755764 0
M  V30 484 C 48.9492 1.7537 0.68022 0
M  V30 485 O 48.3072 1.06046 1.47051 0
M  V30 486 C 48.3552 3.42747 -1.12058 0
M  V30 487 O 47.4592 4.11683 -0.243124 0
M  V30 488 H 46.8002 0.602724 -0.278604 0
M  V30 489 H 49.3302 1.50678 -1.3841 0
M  V30 490 H 49.3402 3.93437 -1.08035 0
M  V30 491 H 48.0152 3.55002 -2.16672 0
M  V30 492 H 46.5922 3.71323 -0.342539 0
M  V30 493 N 48.7773 0.814389 1.34928 0
M  V30 494 C 50.1883 0.458364 1.80986 0
M  V30 495 C 50.5393 -1.02042 1.67577 0
M  V30 496 O 49.6643 -1.79352 1.21086 0
M  V30 497 C 50.2593 0.825212 3.28597 0
M  V30 498 C 48.8183 0.521677 3.72767 0
M  V30 499 C 47.9653 1.04668 2.56788 0
M  V30 500 H 50.9163 1.00533 1.22795 0
M  V30 501 H 50.9373 0.12571 3.80292 0
M  V30 502 H 50.4493 1.90154 3.38324 0
M  V30 503 H 48.5503 -0.545589 3.68584 0
M  V30 504 H 48.6633 1.05977 4.67232 0
M  V30 505 H 47.0273 0.468622 2.50352 0
M  V30 506 H 47.8103 2.12927 2.6929 0
M  V30 507 N 50.2554 -1.46986 0.568584 0
M  V30 508 C 51.1854 -2.32946 -0.160753 0
M  V30 509 C 52.1664 -1.44487 -0.897631 0
M  V30 510 O 53.3514 -1.73327 -0.875867 0
M  V30 511 C 50.4814 -3.26494 -1.18403 0
M  V30 512 C 49.4354 -4.24282 -0.562895 0
M  V30 513 C 48.7614 -5.07236 -1.69163 0
M  V30 514 C 50.0614 -5.19989 0.490761 0
M  V30 515 H 51.7554 -2.94175 0.556916 0
M  V30 516 H 49.3014 -1.4146 0.26927 0
M  V30 517 H 51.2544 -3.85477 -1.70251 0
M  V30 518 H 49.9784 -2.63343 -1.93179 0
M  V30 519 H 48.6374 -3.66541 -0.0656164 0
M  V30 520 H 48.2854 -4.4048 -2.42871 0
M  V30 521 H 47.9854 -5.7345 -1.28174 0
M  V30 522 H 49.5094 -5.6908 -2.21314 0
M  V30 523 H 50.9234 -5.73271 0.0579047 0
M  V30 524 H 49.3204 -5.94469 0.820165 0
M  V30 525 H 50.3904 -4.64777 1.3824 0
M  V30 526 N 51.7335 -0.305618 -1.54608 0
M  V30 527 C 52.6635 0.561482 -2.26649 0
M  V30 528 C 53.6445 1.13415 -1.26772 0
M  V30 529 O 54.8295 1.16262 -1.55553 0
M  V30 530 C 51.9595 1.73122 -3.01075 0
M  V30 531 C 50.9135 1.2887 -4.08138 0
M  V30 532 C 50.2395 2.54396 -4.70305 0
M  V30 533 C 51.5395 0.416578 -5.20636 0
M  V30 534 H 53.2335 -0.0393902 -2.99374 0
M  V30 535 H 50.7795 -0.020385 -1.43986 0
M  V30 536 H 52.7325 2.34396 -3.50195 0
M  V30 537 H 51.4565 2.3584 -2.25936 0
M  V30 538 H 50.1155 0.698991 -3.59875 0
M  V30 539 H 49.7635 3.15439 -3.918 0
M  V30 540 H 49.4635 2.25486 -5.42614 0
M  V30 541 H 50.9875 3.16464 -5.2219 0
M  V30 542 H 52.4015 0.935116 -5.65622 0
M  V30 543 H 50.7985 0.221046 -5.99693 0
M  V30 544 H 51.8685 -0.557162 -4.81688 0
M  V30 545 N 53.2116 1.57565 -0.0334293 0
M  V30 546 C 54.4366 1.96689 0.657895 0
M  V30 547 C 54.8616 0.910057 1.64619 0
M  V30 548 O 54.2196 -0.128598 1.80843 0
M  V30 549 C 54.2676 3.34905 1.33683 0
M  V30 550 O 53.3716 3.31574 2.45219 0
M  V30 551 H 52.7126 0.641205 0.172489 0
M  V30 552 H 55.2426 2.04372 -0.0965621 0
M  V30 553 H 55.2526 3.71234 1.69262 0
M  V30 554 H 53.9276 4.11366 0.612411 0
M  V30 555 H 52.5046 3.06968 2.11719 0
M  V30 556 N 54.6897 -0.239769 1.55765 0
M  V30 557 C 55.9357 -0.968234 1.78194 0
M  V30 558 C 56.2687 -1.84701 0.599938 0
M  V30 559 O 55.5437 -1.9031 -0.401524 0
M  V30 560 C 55.8267 -1.8227 3.10564 0
M  V30 561 C 55.6797 -0.971633 4.3918 0
M  V30 562 C 56.9987 -2.80388 3.39221 0
M  V30 563 H 54.1177 -0.350572 0.648281 0
M  V30 564 H 56.7597 -0.238259 1.885 0
M  V30 565 H 54.9097 -2.44507 3.01908 0
M  V30 566 H 56.5817 -0.367408 4.59835 0
M  V30 567 H 54.8247 -0.276276 4.32919 0
M  V30 568 H 55.4957 -1.60346 5.28198 0
M  V30 569 H 57.9717 -2.28287 3.47885 0
M  V30 570 H 56.8477 -3.3729 4.33044 0
M  V30 571 H 57.1087 -3.57212 2.60484 0
M  V30 572 N 56.1678 -1.49265 -0.50573 0
M  V30 573 C 57.4148 -1.58513 -1.26015 0
M  V30 574 C 57.7428 -0.26972 -1.92621 0
M  V30 575 O 56.9978 0.741997 -1.81088 0
M  V30 576 C 57.2968 -2.69008 -2.35308 0
M  V30 577 C 56.9628 -4.10662 -1.86192 0
M  V30 578 C 55.6248 -4.49212 -1.72516 0
M  V30 579 C 57.9768 -4.99336 -1.49375 0
M  V30 580 C 55.3048 -5.74214 -1.20394 0
M  V30 581 C 57.6568 -6.24852 -0.987072 0
M  V30 582 C 56.3208 -6.62236 -0.836669 0
M  V30 583 H 55.5908 -0.580041 -0.461122 0
M  V30 584 H 58.2378 -1.83078 -0.561665 0
M  V30 585 H 56.5428 -2.38396 -3.10926 0
M  V30 586 H 58.2398 -2.73373 -2.93374 0
M  V30 587 H 54.8298 -3.8023 -1.97795 0
M  V30 588 H 59.0138 -4.70212 -1.5879 0
M  V30 589 H 54.2698 -6.01883 -1.07458 0
M  V30 590 H 58.4438 -6.92944 -0.692983 0
M  V30 591 H 56.0708 -7.58979 -0.430607 0
M  V30 592 N 57.6459 0.756429 -1.3826 0
M  V30 593 C 58.8939 1.51248 -1.34047 0
M  V30 594 C 59.2149 1.94875 0.0698372 0
M  V30 595 O 58.4849 1.67436 1.01696 0
M  V30 596 H 57.0649 0.561018 -0.493222 0
M  V30 597 H 59.7269 0.899347 -1.7291 0
M  V30 598 H 58.8229 2.40472 -1.98947 0
M  V30 599 N 59.124 1.23083 0.984299 0
M  V30 600 C 60.37 1.06214 1.72761 0
M  V30 601 C 60.703 -0.400584 1.90024 0
M  V30 602 O 59.978 -1.29672 1.44967 0
M  V30 603 C 60.261 1.78375 3.12817 0
M  V30 604 C 60.114 3.32296 3.03149 0
M  V30 605 C 61.433 1.54309 4.12161 0
M  V30 606 H 58.552 0.387251 0.627061 0
M  V30 607 H 61.194 1.51536 1.14616 0
M  V30 608 H 59.344 1.39848 3.62457 0
M  V30 609 H 61.016 3.8032 2.61064 0
M  V30 610 H 59.259 3.6153 2.39747 0
M  V30 611 H 59.93 3.77972 4.02295 0
M  V30 612 H 62.406 1.87791 3.71314 0
M  V30 613 H 61.282 2.07281 5.08258 0
M  V30 614 H 61.543 0.477572 4.39513 0
M  V30 615 N 60.6021 -1.18246 1.0419 0
M  V30 616 C 61.5321 -2.24127 0.654914 0
M  V30 617 C 62.5131 -1.66617 -0.342451 0
M  V30 618 O 63.6981 -1.92924 -0.222277 0
M  V30 619 C 60.8281 -3.47295 0.0183757 0
M  V30 620 C 59.7821 -4.17563 0.939414 0
M  V30 621 C 59.1081 -5.34438 0.167286 0
M  V30 622 C 60.4081 -4.70917 2.25908 0
M  V30 623 H 62.1021 -2.56753 1.54007 0
M  V30 624 H 59.6481 -1.23414 0.74195 0
M  V30 625 H 61.6011 -4.20572 -0.264082 0
M  V30 626 H 60.3251 -3.13907 -0.901664 0
M  V30 627 H 58.9841 -3.46186 1.20628 0
M  V30 628 H 58.6321 -4.97298 -0.7552 0
M  V30 629 H 58.3321 -5.82388 0.780901 0
M  V30 630 H 59.8561 -6.10504 -0.108125 0
M  V30 631 H 61.2701 -5.35882 2.03724 0
M  V30 632 H 59.6671 -5.29406 2.82577 0
M  V30 633 H 60.7371 -3.88272 2.9047 0
M  V30 634 N 62.0802 -0.821533 -1.34494 0
M  V30 635 C 63.3292 -0.405355 -1.97585 0
M  V30 636 C 63.6422 1.03677 -1.65863 0
M  V30 637 O 64.8482 1.55679 -2.22433 0
M  V30 638 C 63.3042 -0.673861 -3.53535 0
M  V30 639 C 62.9122 -2.12951 -3.94152 0
M  V30 640 C 64.6562 -0.32378 -4.23263 0
M  V30 641 C 62.5632 -2.34298 -5.43009 0
M  V30 642 H 61.4932 -0.147836 -0.739365 0
M  V30 643 H 64.1442 -1.00769 -1.53355 0
M  V30 644 H 62.5262 -0.00137554 -3.96 0
M  V30 645 H 63.7002 -2.84104 -3.62797 0
M  V30 646 H 62.0152 -2.44089 -3.37356 0
M  V30 647 H 64.6122 -0.461126 -5.32708 0
M  V30 648 H 64.9552 0.731586 -4.09821 0
M  V30 649 H 65.4882 -0.950786 -3.8627 0
M  V30 650 H 62.2272 -3.38335 -5.61435 0
M  V30 651 H 61.7472 -1.67687 -5.75883 0
M  V30 652 H 63.4262 -2.16588 -6.09671 0
M  V30 653 N 63.5583 1.46682 -0.576371 0
M  V30 654 C 64.4883 2.33028 0.148397 0
M  V30 655 C 65.4693 1.44961 0.889956 0
M  V30 656 O 66.6543 1.73789 0.866662 0
M  V30 657 C 63.7843 3.27117 1.1667 0
M  V30 658 C 62.7383 4.24575 0.540386 0
M  V30 659 C 62.0643 5.08126 1.6647 0
M  V30 660 C 63.3643 5.19722 -0.518331 0
M  V30 661 H 65.0583 2.93875 -0.572509 0
M  V30 662 H 62.6043 1.41315 -0.276768 0
M  V30 663 H 64.5573 3.86374 1.68204 0
M  V30 664 H 63.2813 2.64364 1.9178 0
M  V30 665 H 61.9403 3.66571 0.0461769 0
M  V30 666 H 61.5883 4.41762 2.40531 0
M  V30 667 H 61.2883 5.74122 1.25131 0
M  V30 668 H 62.8123 5.70246 2.18293 0
M  V30 669 H 64.2263 5.73232 -0.0883058 0
M  V30 670 H 62.6233 5.94026 -0.851679 0
M  V30 671 H 63.6933 4.64037 -1.40703 0
M  V30 672 N 65.0364 0.313813 1.54444 0
M  V30 673 C 66.2644 -0.293918 2.04802 0
M  V30 674 C 66.6794 -1.46537 1.19047 0
M  V30 675 O 66.0364 -1.81182 0.218939 0
M  V30 676 C 66.0874 -0.737806 3.53891 0
M  V30 677 O 65.8084 0.387038 4.36387 0
M  V30 678 C 67.3094 -1.40936 4.203 0
M  V30 679 H 64.5294 -0.0620057 0.668129 0
M  V30 680 H 67.0734 0.457169 1.99324 0
M  V30 681 H 65.2284 -1.43889 3.59687 0
M  V30 682 H 65.6424 0.0391274 5.24485 0
M  V30 683 H 67.1164 -1.67099 5.26101 0
M  V30 684 H 67.5934 -2.35355 3.70816 0
M  V30 685 H 68.1994 -0.751117 4.18615 0
M  V30 686 N 66.5145 -1.57545 0.0417849 0
M  V30 687 C 67.4445 -2.14009 -0.933929 0
M  V30 688 C 68.4255 -1.05938 -1.33083 0
M  V30 689 O 69.6105 -1.33833 -1.40721 0
M  V30 690 C 66.7405 -2.67747 -2.21199 0
M  V30 691 C 65.6945 -3.80718 -1.95544 0
M  V30 692 C 65.0205 -4.20935 -3.29724 0
M  V30 693 C 66.3205 -5.06258 -1.28452 0
M  V30 694 H 68.0145 -2.95788 -0.463645 0
M  V30 695 H 65.5605 -1.42285 -0.221573 0
M  V30 696 H 67.5135 -3.05886 -2.89848 0
M  V30 697 H 66.2375 -1.83147 -2.70416 0
M  V30 698 H 64.8965 -3.43037 -1.2931 0
M  V30 699 H 64.5445 -3.33298 -3.76724 0
M  V30 700 H 64.2445 -4.9707 -3.13361 0
M  V30 701 H 65.7685 -4.61666 -3.9962 0
M  V30 702 H 67.1825 -5.41903 -1.8712 0
M  V30 703 H 65.5795 -5.87475 -1.22445 0
M  V30 704 H 66.6495 -4.84207 -0.259219 0
M  V30 705 N 67.9926 0.231505 -1.5589 0
M  V30 706 C 68.9226 1.29022 -1.94617 0
M  V30 707 C 69.9036 1.4941 -0.813067 0
M  V30 708 O 71.0886 1.6176 -1.07459 0
M  V30 709 C 68.2186 2.64199 -2.25424 0
M  V30 710 C 67.1726 2.58484 -3.41131 0
M  V30 711 C 66.4986 3.97599 -3.57518 0
M  V30 712 C 67.7986 2.1413 -4.76388 0
M  V30 713 H 69.4926 0.968563 -2.83301 0
M  V30 714 H 67.0386 0.464479 -1.36303 0
M  V30 715 H 68.9916 3.38413 -2.51107 0
M  V30 716 H 67.7156 2.98032 -1.33583 0
M  V30 717 H 66.3746 1.86727 -3.15481 0
M  V30 718 H 66.0226 4.28723 -2.6307 0
M  V30 719 H 65.7226 3.94659 -4.35337 0
M  V30 720 H 67.2466 4.7349 -3.85538 0
M  V30 721 H 68.6606 2.78083 -5.01341 0
M  V30 722 H 67.0576 2.2227 -5.57419 0
M  V30 723 H 68.1276 1.09331 -4.72414 0
M  V30 724 N 69.4707 1.49531 0.497807 0
M  V30 725 C 70.7187 1.58865 1.24926 0
M  V30 726 C 71.0397 0.278721 1.92998 0
M  V30 727 O 70.3097 -0.702144 1.82885 0
M  V30 728 H 68.8897 0.585343 0.464094 0
M  V30 729 H 71.5517 1.86174 0.57666 0
M  V30 730 H 70.6477 2.38633 2.01149 0
M  V30 731 N 70.9488 -0.749086 1.3866 0
M  V30 732 C 72.1958 -1.50833 1.35114 0
M  V30 733 C 72.5238 -1.94415 -0.0574049 0
M  V30 734 O 71.7788 -1.66065 -1.03541 0
M  V30 735 C 72.0778 -2.7712 2.25697 0
M  V30 736 C 71.7438 -2.52477 3.73585 0
M  V30 737 C 70.4058 -2.45466 4.13884 0
M  V30 738 C 72.7578 -2.31066 4.67181 0
M  V30 739 C 70.0858 -2.15064 5.45861 0
M  V30 740 C 72.4378 -2.02183 5.9942 0
M  V30 741 C 71.1018 -1.93631 6.38798 0
M  V30 742 H 70.3718 -0.551936 0.494416 0
M  V30 743 H 73.0188 -0.860979 1.71054 0
M  V30 744 H 71.3238 -3.46528 1.82827 0
M  V30 745 H 73.0208 -3.35096 2.20254 0
M  V30 746 H 69.6108 -2.58807 3.41638 0
M  V30 747 H 73.7948 -2.35459 4.3689 0
M  V30 748 H 69.0508 -2.06954 5.75308 0
M  V30 749 H 73.2248 -1.8462 6.71482 0
M  V30 750 H 70.8518 -1.69839 7.40985 0
M  V30 751 N 72.4269 -1.23603 -0.977757 0
M  V30 752 C 73.3569 -1.04401 -2.0886 0
M  V30 753 C 74.3379 0.0399052 -1.70053 0
M  V30 754 O 75.5229 -0.125246 -1.93796 0
M  V30 755 C 72.6529 -0.637269 -3.41403 0
M  V30 756 C 71.6069 -1.66883 -3.94124 0
M  V30 757 C 70.9329 -1.11745 -5.22893 0
M  V30 758 C 72.2329 -3.06247 -4.23096 0
M  V30 759 H 73.9269 -1.97316 -2.25182 0
M  V30 760 H 71.4729 -0.950096 -1.08209 0
M  V30 761 H 73.4259 -0.48998 -4.18542 0
M  V30 762 H 72.1499 0.327557 -3.24953 0
M  V30 763 H 70.8089 -1.80416 -3.19133 0
M  V30 764 H 70.4569 -0.143527 -5.02795 0
M  V30 765 H 70.1569 -1.80672 -5.59134 0
M  V30 766 H 71.6809 -0.982067 -6.02651 0
M  V30 767 H 73.0949 -2.96001 -4.90975 0
M  V30 768 H 71.4919 -3.72436 -4.70544 0
M  V30 769 H 72.5619 -3.55041 -3.30263 0
M  V30 770 N 73.905 1.17692 -1.04816 0
M  V30 771 C 75.151 1.88137 -0.75711 0
M  V30 772 C 75.484 1.80604 0.713841 0
M  V30 773 O 74.759 1.21146 1.52164 0
M  V30 774 C 75.042 3.38318 -1.2334 0
M  V30 775 C 74.895 3.54622 -2.76701 0
M  V30 776 C 76.214 4.32214 -0.829415 0
M  V30 777 H 73.333 0.683163 -0.27651 0
M  V30 778 H 75.975 1.38424 -1.30149 0
M  V30 779 H 74.125 3.80787 -0.770286 0
M  V30 780 H 75.797 3.21194 -3.31107 0
M  V30 781 H 74.04 2.97026 -3.16161 0
M  V30 782 H 74.711 4.60028 -3.05088 0
M  V30 783 H 77.187 3.97565 -1.22805 0
M  V30 784 H 76.063 5.35838 -1.19033 0
M  V30 785 H 76.324 4.41294 0.266891 0
M  V30 786 N 75.3831 0.828654 1.34056 0
M  V30 787 C 76.3461 0.259927 2.27721 0
M  V30 788 C 77.3461 -0.565478 1.50529 0
M  V30 789 O 78.5361 -0.38075 1.69988 0
M  V30 790 C 75.6681 -0.634944 3.34935 0
M  V30 791 H 76.8611 1.0863 2.79534 0
M  V30 792 H 74.4141 0.600951 1.44285 0
M  V30 793 H 75.1491 -1.48416 2.88346 0
M  V30 794 H 74.9341 -0.0444999 3.92075 0
M  V30 795 H 76.4241 -1.02648 4.04788 0
M  V30 796 N 76.8612 -1.46375 0.584142 0
M  V30 797 C 77.8242 -2.28784 -0.138108 0
M  V30 798 C 78.8242 -1.38471 -0.817462 0
M  V30 799 O 80.0142 -1.60833 -0.669199 0
M  V30 800 C 77.1462 -3.18892 -1.20503 0
M  V30 801 H 78.3392 -2.94117 0.586127 0
M  V30 802 H 75.8922 -1.52509 0.342171 0
M  V30 803 H 76.6272 -2.58309 -1.96079 0
M  V30 804 H 76.4122 -3.85388 -0.722384 0
M  V30 805 H 77.9022 -3.80914 -1.71155 0
M  V30 806 N 78.3393 -0.321999 -1.54275 0
M  V30 807 C 79.5673 0.283052 -2.04955 0
M  V30 808 C 79.9823 1.45904 -1.19823 0
M  V30 809 O 79.3393 1.81063 -0.228545 0
M  V30 810 C 79.3903 0.719028 -3.54277 0
M  V30 811 O 79.1113 -0.410175 -4.36176 0
M  V30 812 C 80.6123 1.38705 -4.21041 0
M  V30 813 H 77.8323 0.0584616 -0.668448 0
M  V30 814 H 80.3763 -0.467734 -1.99079 0
M  V30 815 H 78.5313 1.41979 -3.60445 0
M  V30 816 H 78.9453 -0.0669416 -5.24457 0
M  V30 817 H 80.4193 1.64306 -5.2698 0
M  V30 818 H 80.8963 2.33385 -3.72059 0
M  V30 819 H 81.5023 0.728906 -4.19007 0
M  V30 820 N 79.8174 1.5752 -0.0501392 0
M  V30 821 C 81.0644 1.9265 0.623874 0
M  V30 822 C 81.3924 0.928411 1.70912 0
M  V30 823 O 80.6474 -0.0594525 1.9561 0
M  V30 824 C 80.9464 3.34467 1.25963 0
M  V30 825 C 80.6124 4.49883 0.302689 0
M  V30 826 C 79.2744 4.81184 0.0393636 0
M  V30 827 C 81.6264 5.20002 -0.353205 0
M  V30 828 C 78.9544 5.79951 -0.887308 0
M  V30 829 C 81.3064 6.1976 -1.26806 0
M  V30 830 C 79.9704 6.49491 -1.54007 0
M  V30 831 H 79.2404 0.704957 0.228292 0
M  V30 832 H 81.8874 1.91146 -0.116398 0
M  V30 833 H 80.1924 3.32333 2.07514 0
M  V30 834 H 81.8894 3.58928 1.78806 0
M  V30 835 H 78.4794 4.25457 0.518109 0
M  V30 836 H 82.6634 4.96033 -0.162854 0
M  V30 837 H 77.9194 6.01322 -1.10553 0
M  V30 838 H 82.0934 6.73205 -1.78236 0
M  V30 839 H 79.7204 7.25837 -2.25976 0
M  V30 840 N 81.2955 -0.223234 1.56011 0
M  V30 841 C 82.2585 -1.26014 1.9145 0
M  V30 842 C 83.2585 -1.3989 0.792937 0
M  V30 843 O 84.4485 -1.38184 1.0607 0
M  V30 844 C 81.5805 -2.63422 2.16383 0
M  V30 845 H 82.7735 -0.95796 2.84189 0
M  V30 846 H 80.3265 -0.463576 1.49267 0
M  V30 847 H 81.0615 -2.98741 1.2619 0
M  V30 848 H 80.8465 -2.54728 2.98088 0
M  V30 849 H 82.3365 -3.38249 2.44903 0
M  V30 850 N 82.7736 -1.49793 -0.48987 0
M  V30 851 C 84.0196 -1.61049 -1.24236 0
M  V30 852 C 84.3746 -0.298412 -1.90072 0
M  V30 853 O 83.6676 0.702262 -1.78266 0
M  V30 854 C 83.8616 -2.71488 -2.32441 0
M  V30 855 C 83.6906 -4.13308 -1.77218 0
M  V30 856 C 82.4606 -4.79955 -1.58023 0
M  V30 857 C 84.6586 -4.98176 -1.27772 0
M  V30 858 N 82.6406 -6.06052 -0.978465 0
M  V30 859 C 84.0116 -6.14843 -0.798 0
M  V30 860 C 86.0666 -4.84091 -1.16449 0
M  V30 861 C 84.7696 -7.18975 -0.216245 0
M  V30 862 C 86.7956 -5.88382 -0.596698 0
M  V30 863 C 86.1576 -7.04285 -0.127262 0
M  V30 864 H 82.2566 -0.643611 -0.444172 0
M  V30 865 H 84.8406 -1.86842 -0.54754 0
M  V30 866 H 83.0116 -2.47449 -2.99372 0
M  V30 867 H 84.7436 -2.72205 -2.99477 0
M  V30 868 H 81.4986 -4.36936 -1.82712 0
M  V30 869 H 81.9226 -6.73407 -0.696534 0
M  V30 870 H 86.5646 -3.94786 -1.5134 0
M  V30 871 H 84.2826 -8.0797 0.144903 0
M  V30 872 H 87.8686 -5.79545 -0.511716 0
M  V30 873 H 86.7486 -7.83606 0.30523 0
M  V30 874 N 84.2517 0.741722 -1.39055 0
M  V30 875 C 85.1997 1.87702 -1.3737 0
M  V30 876 C 86.1937 1.67427 -0.257812 0
M  V30 877 O 87.3997 1.7485 -0.427489 0
M  V30 878 H 83.7747 0.617757 -0.428812 0
M  V30 879 H 85.7457 1.86239 -2.33147 0
M  V30 880 C 84.4947 3.25315 -1.22741 0
M  V30 881 H 83.8177 3.41509 -2.07873 0
M  V30 882 H 85.2577 4.04964 -1.25618 0
M  V30 883 C 83.7167 3.36838 0.0647316 0
M  V30 884 O 84.2467 3.88073 1.03741 0
M  V30 885 N 82.4527 2.90329 0.125544 0
M  V30 886 H 81.9997 2.48823 -0.666682 0
M  V30 887 H 81.9577 2.98418 0.989639 0
M  V30 888 N 85.7298 1.2412 0.971189 0
M  V30 889 C 86.6598 1.05508 2.08304 0
M  V30 890 C 87.6408 -0.0308864 1.70072 0
M  V30 891 O 88.8258 0.135521 1.93727 0
M  V30 892 C 85.9558 0.655365 3.4106 0
M  V30 893 C 84.9098 1.68971 3.93234 0
M  V30 894 C 84.2358 1.14516 5.22293 0
M  V30 895 C 85.5358 3.08487 4.21465 0
M  V30 896 H 87.2298 1.98507 2.24132 0
M  V30 897 H 84.7758 0.955821 1.07704 0
M  V30 898 H 86.7288 0.51217 4.18276 0
M  V30 899 H 85.4528 -0.31032 3.25122 0
M  V30 900 H 84.1118 1.82106 3.18171 0
M  V30 901 H 83.7598 0.170189 5.02712 0
M  V30 902 H 83.4598 1.83635 5.58168 0
M  V30 903 H 84.9838 1.01401 6.02121 0
M  V30 904 H 86.3978 2.98601 4.89398 0
M  V30 905 H 84.7948 3.74926 4.68562 0
M  V30 906 H 85.8648 3.56787 3.28376 0
M  V30 907 N 87.2079 -1.17134 1.05439 0
M  V30 908 C 88.1379 -2.2342 0.678649 0
M  V30 909 C 89.1189 -1.66971 -0.32476 0
M  V30 910 O 90.3039 -1.93149 -0.201802 0
M  V30 911 C 87.4339 -3.47256 0.0552099 0
M  V30 912 C 86.3879 -4.16543 0.98365 0
M  V30 913 C 85.7139 -5.34231 0.223961 0
M  V30 914 C 87.0139 -4.68495 2.3089 0
M  V30 915 H 88.7079 -2.55105 1.56722 0
M  V30 916 H 86.2539 -1.2262 0.754998 0
M  V30 917 H 88.2069 -4.20828 -0.21946 0
M  V30 918 H 86.9309 -3.14846 -0.868319 0
M  V30 919 H 85.5899 -3.44887 1.24293 0
M  V30 920 H 85.2379 -4.98071 -0.702412 0
M  V30 921 H 84.9379 -5.81527 0.842627 0
M  V30 922 H 86.4619 -6.10585 -0.0433671 0
M  V30 923 H 87.8759 -5.33691 2.09396 0
M  V30 924 H 86.2729 -5.26379 2.88176 0
M  V30 925 H 87.3429 -3.85169 2.94572 0
M  V30 926 N 88.686 -0.835752 -1.33615 0
M  V30 927 C 89.932 -0.430596 -1.98176 0
M  V30 928 C 90.265 1.00684 -1.66061 0
M  V30 929 O 89.54 1.70339 -0.938877 0
M  V30 930 C 89.823 -0.648065 -3.5422 0
M  V30 931 C 89.676 -2.13255 -3.96033 0
M  V30 932 C 90.995 -0.0922113 -4.40003 0
M  V30 933 H 88.114 -0.157924 -0.719881 0
M  V30 934 H 90.756 -1.05069 -1.58305 0
M  V30 935 H 88.906 -0.120237 -3.88314 0
M  V30 936 H 90.578 -2.725 -3.72211 0
M  V30 937 H 88.821 -2.61823 -3.45878 0
M  V30 938 H 89.492 -2.23547 -5.04708 0
M  V30 939 H 91.968 -0.543343 -4.12537 0
M  V30 940 H 90.844 -0.274083 -5.48215 0
M  V30 941 H 91.105 1.00378 -4.30554 0
M  V30 942 N 90.1641 1.46063 -0.591896 0
M  V30 943 C 91.0941 2.33172 0.123673 0
M  V30 944 C 92.0751 1.45897 0.87453 0
M  V30 945 O 93.2601 1.74698 0.848181 0
M  V30 946 C 90.3901 3.28336 1.13194 0
M  V30 947 C 89.3441 4.25124 0.495324 0
M  V30 948 C 88.6701 5.09863 1.61071 0
M  V30 949 C 89.9701 5.19143 -0.573425 0
M  V30 950 H 91.6641 2.93252 -0.603646 0
M  V30 951 H 89.2101 1.41014 -0.291741 0
M  V30 952 H 91.1631 3.88137 1.64097 0
M  V30 953 H 89.8871 2.66383 1.88965 0
M  V30 954 H 88.5461 3.66599 0.00729452 0
M  V30 955 H 88.1941 4.44288 2.35832 0
M  V30 956 H 87.8941 5.75417 1.19035 0
M  V30 957 H 89.4181 5.72529 2.12233 0
M  V30 958 H 90.8321 5.73106 -0.1491 0
M  V30 959 H 89.2291 5.93089 -0.914636 0
M  V30 960 H 90.2991 4.62519 -1.45617 0
M  V30 961 N 91.6422 0.330177 1.54103 0
M  V30 962 C 92.6052 -0.520144 2.2322 0
M  V30 963 C 93.6052 -1.03828 1.22786 0
M  V30 964 O 94.7952 -0.929652 1.4732 0
M  V30 965 C 91.9272 -1.72317 2.94142 0
M  V30 966 H 93.1202 0.0841605 2.99782 0
M  V30 967 H 90.6732 0.0813433 1.56088 0
M  V30 968 H 91.4082 -2.36653 2.21734 0
M  V30 969 H 91.1932 -1.35898 3.67796 0
M  V30 970 H 92.6832 -2.3266 3.46784 0
M  V30 971 N 93.1203 -1.57491 0.0584922 0
M  V30 972 C 94.3483 -1.97296 -0.623037 0
M  V30 973 C 94.7633 -0.936338 -1.63946 0
M  V30 974 O 94.1203 0.0785981 -1.82331 0
M  V30 975 C 94.1713 -3.37183 -1.30345 0
M  V30 976 O 93.8923 -4.36872 -0.32773 0
M  V30 977 C 95.3933 -3.91788 -2.07406 0
M  V30 978 H 92.6133 -0.649153 -0.169826 0
M  V30 979 H 95.1573 -2.04106 0.12696 0
M  V30 980 H 93.3123 -3.31502 -2.00463 0
M  V30 981 H 93.7263 -5.18141 -0.814269 0
M  V30 982 H 95.2003 -4.91926 -2.50425 0
M  V30 983 H 95.6773 -3.27609 -2.92521 0
M  V30 984 H 96.2833 -4.00829 -1.42184 0
M  V30 985 N 94.5984 0.214957 -1.56127 0
M  V30 986 C 95.8474 0.936451 -1.78643 0
M  V30 987 C 96.1604 1.85237 -0.628229 0
M  V30 988 O 97.3664 2.613 -0.737186 0
M  V30 989 C 95.8224 1.7154 -3.16389 0
M  V30 990 C 95.4304 0.845299 -4.39953 0
M  V30 991 C 97.1744 2.42772 -3.48227 0
M  V30 992 C 95.0814 1.62198 -5.68723 0
M  V30 993 H 94.0114 0.353401 -0.666051 0
M  V30 994 H 96.6624 0.190169 -1.82512 0
M  V30 995 H 95.0444 2.50484 -3.06715 0
M  V30 996 H 96.2184 0.0959353 -4.607 0
M  V30 997 H 94.5334 0.244789 -4.1568 0
M  V30 998 H 97.1304 3.01394 -4.41663 0
M  V30 999 H 97.4734 3.15984 -2.71035 0
M  V30 1000 H 98.0064 1.70813 -3.5926 0
M  V30 1001 H 94.7454 0.933011 -6.48826 0
M  V30 1002 H 94.2654 2.34579 -5.52026 0
M  V30 1003 H 95.9444 2.18095 -6.09133 0
M  V30 1004 N 96.0765 1.50051 0.48192 0
M  V30 1005 C 97.0065 1.71046 1.58951 0
M  V30 1006 C 97.9875 0.559288 1.60642 0
M  V30 1007 O 99.1725 0.797243 1.77081 0
M  V30 1008 C 96.3025 1.79462 2.97339 0
M  V30 1009 C 95.2565 2.94558 3.10515 0
M  V30 1010 C 94.5825 2.88105 4.50444 0
M  V30 1011 C 95.8825 4.35227 2.88747 0
M  V30 1012 H 97.5765 2.6378 1.41635 0
M  V30 1013 H 95.1225 1.26936 0.679942 0
M  V30 1014 H 97.0755 1.92734 3.74742 0
M  V30 1015 H 95.7995 0.833412 3.15788 0
M  V30 1016 H 94.4585 2.80918 2.35543 0
M  V30 1017 H 94.1065 1.89853 4.65795 0
M  V30 1018 H 93.8065 3.65366 4.60197 0
M  V30 1019 H 95.3305 3.03412 5.29881 0
M  V30 1020 H 96.7445 4.49449 3.55905 0
M  V30 1021 H 95.1415 5.13856 3.09955 0
M  V30 1022 H 96.2115 4.48347 1.84696 0
M  V30 1023 N 97.5546 -0.734337 1.39446 0
M  V30 1024 C 98.9706 -1.03997 1.21065 0
M  V30 1025 C 99.1706 -2.01369 0.0727019 0
M  V30 1026 O 98.2266 -2.45856 -0.575426 0
M  V30 1027 C 99.5396 -1.60163 2.54496 0
M  V30 1028 C 101.088 -1.7224 2.61347 0
M  V30 1029 C 101.563 -2.31814 3.95002 0
M  V30 1030 N 103.054 -2.39223 3.96644 0
M  V30 1031 C 103.789 -2.86258 4.96834 0
M  V30 1032 N 103.285 -3.33184 6.07421 0
M  V30 1033 N 105.078 -2.85473 4.84213 0
M  V30 1034 H 97.2286 -0.0885624 2.12215 0
M  V30 1035 H 99.4916 -0.10191 0.942506 0
M  V30 1036 H 99.1976 -0.960811 3.38321 0
M  V30 1037 H 99.0716 -2.5896 2.74262 0
M  V30 1038 H 101.459 -2.35443 1.77906 0
M  V30 1039 H 101.54 -0.720939 2.4543 0
M  V30 1040 H 101.184 -1.69238 4.78875 0
M  V30 1041 H 101.114 -3.32638 4.08239 0
M  V30 1042 H 103.605 -2.06057 3.16779 0
M  V30 1043 H 103.918 -3.67586 6.7978 0
M  V30 1044 H 102.263 -3.31191 6.11013 0
M  V30 1045 H 105.454 -2.48136 3.96921 0
M  V30 1046 H 105.627 -3.21814 5.62441 0
M  V30 1047 N 99.0327 -1.24633 -0.964593 0
M  V30 1048 C 100.279 -1.08949 -1.71049 0
M  V30 1049 C 100.612 0.370302 -1.90637 0
M  V30 1050 O 99.8867 1.27349 -1.47011 0
M  V30 1051 C 100.17 -1.83329 -3.0994 0
M  V30 1052 C 100.023 -3.37077 -2.97824 0
M  V30 1053 C 101.342 -1.60846 -4.09654 0
M  V30 1054 H 98.4607 -0.397178 -0.620821 0
M  V30 1055 H 101.103 -1.5334 -1.12191 0
M  V30 1056 H 99.2527 -1.45597 -3.60186 0
M  V30 1057 H 100.925 -3.84425 -2.5498 0
M  V30 1058 H 99.1677 -3.65298 -2.33965 0
M  V30 1059 H 99.8387 -3.84324 -3.96231 0
M  V30 1060 H 102.315 -1.93674 -3.68279 0
M  V30 1061 H 101.191 -2.1534 -5.04896 0
M  V30 1062 H 101.452 -0.547434 -4.38698 0
M  V30 1063 N 100.511 1.16574 -1.06058 0
M  V30 1064 C 101.927 1.3904 -0.783585 0
M  V30 1065 C 102.127 1.91784 0.618145 0
M  V30 1066 O 101.183 2.11511 1.37911 0
M  V30 1067 C 102.496 2.37329 -1.84649 0
M  V30 1068 C 104.044 2.51018 -1.86973 0
M  V30 1069 C 104.519 3.52588 -2.92311 0
M  V30 1070 N 106.01 3.60113 -2.91329 0
M  V30 1071 C 106.745 4.38486 -3.69482 0
M  V30 1072 N 106.241 5.20302 -4.57447 0
M  V30 1073 N 108.034 4.33446 -3.57885 0
M  V30 1074 H 100.185 0.806725 -1.96483 0
M  V30 1075 H 102.448 0.417117 -0.851303 0
M  V30 1076 H 102.154 2.05663 -2.85299 0
M  V30 1077 H 102.028 3.36946 -1.6955 0
M  V30 1078 H 104.415 2.81989 -0.869827 0
M  V30 1079 H 104.496 1.51445 -2.0615 0
M  V30 1080 H 104.14 3.22354 -3.92492 0
M  V30 1081 H 104.07 4.51886 -2.70383 0
M  V30 1082 H 106.561 3.01707 -2.27555 0
M  V30 1083 H 106.874 5.77311 -5.13743 0
M  V30 1084 H 105.219 5.19653 -4.61503 0
M  V30 1085 H 108.41 3.68586 -2.88551 0
M  V30 1086 H 108.583 4.94279 -4.19037 0
M  V30 1087 N 101.989 0.842826 1.3317 0
M  V30 1088 C 103.217 0.454055 2.01856 0
M  V30 1089 C 103.632 -0.94587 1.63397 0
M  V30 1090 O 102.989 -1.61534 0.849302 0
M  V30 1091 C 103.04 0.569715 3.56982 0
M  V30 1092 O 102.761 1.91448 3.94055 0
M  V30 1093 C 104.262 0.178412 4.42941 0
M  V30 1094 H 101.482 0.17979 0.646465 0
M  V30 1095 H 104.026 1.1365 1.70012 0
M  V30 1096 H 102.181 -0.0648587 3.87346 0
M  V30 1097 H 102.595 1.90282 4.88767 0
M  V30 1098 H 104.069 0.310376 5.51127 0
M  V30 1099 H 104.546 -0.880056 4.30293 0
M  V30 1100 H 105.152 0.787579 4.17944 0
M  V30 1101 N 103.467 -1.45747 0.599634 0
M  V30 1102 C 104.714 -2.02292 0.0917284 0
M  V30 1103 C 105.042 -1.46906 -1.27472 0
M  V30 1104 O 104.297 -0.630652 -1.8526 0
M  V30 1105 C 104.596 -3.57399 -0.00602758 0
M  V30 1106 C 104.262 -4.31902 1.29503 0
M  V30 1107 C 102.924 -4.51974 1.65144 0
M  V30 1108 C 105.276 -4.74551 2.15525 0
M  V30 1109 C 102.604 -5.11949 2.86574 0
M  V30 1110 C 104.956 -5.35868 3.36196 0
M  V30 1111 C 103.62 -5.54165 3.72099 0
M  V30 1112 H 102.89 -0.740239 0.0335658 0
M  V30 1113 H 105.537 -1.7491 0.779661 0
M  V30 1114 H 103.842 -3.84014 -0.777183 0
M  V30 1115 H 105.539 -3.98846 -0.415038 0
M  V30 1116 H 102.129 -4.16588 1.00761 0
M  V30 1117 H 106.313 -4.58784 1.8929 0
M  V30 1118 H 101.569 -5.24305 3.14507 0
M  V30 1119 H 105.743 -5.6787 4.03109 0
M  V30 1120 H 103.37 -6.00406 4.6628 0
M  V30 1121 N 104.945 -0.338344 -1.53925 0
M  V30 1122 C 105.895 0.536712 -2.21593 0
M  V30 1123 C 106.879 1.07015 -1.20153 0
M  V30 1124 O 108.071 1.00471 -1.45721 0
M  V30 1125 C 105.2 1.68977 -2.98834 0
M  V30 1126 C 104.286 1.17052 -4.07627 0
M  V30 1127 N 104.677 0.372085 -5.0443 0
M  V30 1128 C 102.975 1.44789 -4.21844 0
M  V30 1129 C 103.676 0.0909171 -5.81629 0
M  V30 1130 N 102.652 0.681131 -5.39316 0
M  V30 1131 H 106.454 -0.0804298 -2.9379 0
M  V30 1132 H 103.968 -0.144943 -1.61752 0
M  V30 1133 H 105.965 2.32857 -3.45808 0
M  V30 1134 H 104.625 2.31024 -2.28162 0
M  V30 1135 H 105.636 0.0136217 -5.17898 0
M  V30 1136 H 102.313 2.07313 -3.62391 0
M  V30 1137 H 103.703 -0.552817 -6.69622 0
M  V30 1138 N 106.423 1.57458 -0.0668435 0
M  V30 1139 C 107.839 1.56947 0.289772 0
M  V30 1140 C 108.039 1.07584 1.70376 0
M  V30 1141 O 107.095 0.739486 2.41429 0
M  V30 1142 C 108.408 3.0052 0.103943 0
M  V30 1143 C 109.956 3.12517 0.173857 0
M  V30 1144 C 110.431 4.57997 0.0163682 0
M  V30 1145 N 111.922 4.63144 0.0721352 0
M  V30 1146 C 112.657 5.73394 -0.0253794 0
M  V30 1147 N 112.153 6.92576 -0.176133 0
M  V30 1148 N 113.946 5.62091 0.0313305 0
M  V30 1149 H 106.097 1.87863 -0.991027 0
M  V30 1150 H 108.36 0.86583 -0.38606 0
M  V30 1151 H 108.066 3.40729 -0.871572 0
M  V30 1152 H 107.94 3.67304 0.858366 0
M  V30 1153 H 110.327 2.72197 1.13985 0
M  V30 1154 H 110.408 2.48381 -0.611586 0
M  V30 1155 H 110.052 4.99005 -0.946374 0
M  V30 1156 H 109.982 5.20158 0.821153 0
M  V30 1157 H 112.473 3.77436 0.187263 0
M  V30 1158 H 112.786 7.72418 -0.242821 0
M  V30 1159 H 111.131 6.94678 -0.211429 0
M  V30 1160 H 114.322 4.67867 0.147773 0
M  V30 1161 H 114.495 6.47982 -0.048121 0
M  V30 1162 N 107.901 -0.206675 1.56239 0
M  V30 1163 C 109.147 -0.930218 1.80208 0
M  V30 1164 C 109.48 -1.83387 0.638981 0
M  V30 1165 O 108.755 -1.91119 -0.361066 0
M  V30 1166 C 109.038 -1.75641 3.1436 0
M  V30 1167 C 108.891 -0.878257 4.41142 0
M  V30 1168 C 110.21 -2.73129 3.45092 0
M  V30 1169 H 107.329 -0.336742 0.655571 0
M  V30 1170 H 109.971 -0.198222 1.88963 0
M  V30 1171 H 108.121 -2.38048 3.07027 0
M  V30 1172 H 109.793 -0.269787 4.6051 0
M  V30 1173 H 108.036 -0.184385 4.33408 0
M  V30 1174 H 108.707 -1.49106 5.3148 0
M  V30 1175 H 111.183 -2.20856 3.52649 0
M  V30 1176 H 110.059 -3.28028 4.40101 0
M  V30 1177 H 110.32 -3.51606 2.68003 0
M  V30 1178 N 109.379 -1.50304 -0.473955 0
M  V30 1179 C 110.79 -1.54042 -1.0549 0
M  V30 1180 C 111.141 -0.342248 -1.93192 0
M  V30 1181 O 110.266 0.545157 -2.09421 0
M  V30 1182 C 110.861 -2.79152 -1.91989 0
M  V30 1183 C 109.42 -2.8558 -2.45196 0
M  V30 1184 C 108.567 -2.48295 -1.2347 0
M  V30 1185 H 111.518 -1.5661 -0.256693 0
M  V30 1186 H 111.539 -2.60845 -2.7702 0
M  V30 1187 H 111.051 -3.66339 -1.28131 0
M  V30 1188 H 109.152 -2.02738 -3.12615 0
M  V30 1189 H 109.265 -3.88403 -2.80499 0
M  V30 1190 H 107.629 -2.00669 -1.56856 0
M  V30 1191 H 108.412 -3.37787 -0.612789 0
M  V30 1192 N 110.857 0.726932 -1.39834 0
M  V30 1193 C 111.807 1.83232 -1.35683 0
M  V30 1194 C 112.791 1.59155 -0.236295 0
M  V30 1195 O 113.983 1.70522 -0.474488 0
M  V30 1196 C 111.112 3.21246 -1.21062 0
M  V30 1197 C 110.198 3.51125 -2.37849 0
M  V30 1198 N 110.589 3.51889 -3.63329 0
M  V30 1199 C 108.887 3.81527 -2.30982 0
M  V30 1200 C 109.588 3.79791 -4.40606 0
M  V30 1201 N 108.564 3.97971 -3.70297 0
M  V30 1202 H 112.366 1.8214 -2.30656 0
M  V30 1203 H 109.88 0.925545 -1.33444 0
M  V30 1204 H 111.877 4.00387 -1.16171 0
M  V30 1205 H 110.537 3.23572 -0.270458 0
M  V30 1206 H 111.548 3.33008 -3.96643 0
M  V30 1207 H 108.225 3.91411 -1.45272 0
M  V30 1208 H 109.615 3.86783 -5.49408 0
M  V30 1209 N 112.336 1.25143 0.95797 0
M  V30 1210 C 113.284 1.05019 2.07542 0
M  V30 1211 C 114.278 -0.0178751 1.69391 0
M  V30 1212 O 115.484 0.137472 1.79474 0
M  V30 1213 H 111.859 0.32265 0.679265 0
M  V30 1214 H 113.83 1.99759 2.21673 0
M  V30 1215 C 112.579 0.682074 3.40944 0
M  V30 1216 H 111.902 1.49573 3.70767 0
M  V30 1217 H 113.342 0.580945 4.20001 0
M  V30 1218 C 111.801 -0.611608 3.31302 0
M  V30 1219 O 112.331 -1.65465 3.66038 0
M  V30 1220 N 110.537 -0.595982 2.84423 0
M  V30 1221 H 110.084 0.253192 2.56353 0
M  V30 1222 H 110.042 -1.46173 2.78354 0
M  V30 1223 N 113.814 -1.1601 1.06675 0
M  V30 1224 C 114.744 -2.22688 0.702307 0
M  V30 1225 C 115.725 -1.67306 -0.307032 0
M  V30 1226 O 116.91 -1.93352 -0.181305 0
M  V30 1227 C 114.04 -3.47178 0.092038 0
M  V30 1228 C 112.994 -4.15477 1.02777 0
M  V30 1229 C 112.32 -5.33963 0.28061 0
M  V30 1230 C 113.62 -4.66019 2.35846 0
M  V30 1231 H 115.314 -2.53429 1.59419 0
M  V30 1232 H 112.86 -1.21813 0.767961 0
M  V30 1233 H 114.813 -4.21037 -0.174814 0
M  V30 1234 H 113.537 -3.15749 -0.834877 0
M  V30 1235 H 112.196 -3.43549 1.27944 0
M  V30 1236 H 111.844 -4.98788 -0.649545 0
M  V30 1237 H 111.544 -5.806 0.904258 0
M  V30 1238 H 113.068 -6.10596 0.021396 0
M  V30 1239 H 114.482 -5.3144 2.15045 0
M  V30 1240 H 112.879 -5.23293 2.93743 0
M  V30 1241 H 113.949 -3.82023 2.98641 0
M  V30 1242 N 115.292 -0.849877 -1.32721 0
M  V30 1243 C 116.538 -0.451591 -1.97708 0
M  V30 1244 C 116.871 0.989175 -1.6712 0
M  V30 1245 O 116.146 1.69334 -0.956891 0
M  V30 1246 C 116.429 -0.685598 -3.53513 0
M  V30 1247 C 116.282 -2.17444 -3.93749 0
M  V30 1248 C 117.601 -0.138874 -4.39881 0
M  V30 1249 H 114.72 -0.16555 -0.718166 0
M  V30 1250 H 117.362 -1.06742 -1.57182 0
M  V30 1251 H 115.512 -0.161416 -3.88165 0
M  V30 1252 H 117.184 -2.76433 -3.693 0
M  V30 1253 H 115.427 -2.65476 -3.43081 0
M  V30 1254 H 116.098 -2.28888 -5.02309 0
M  V30 1255 H 118.574 -0.587068 -4.11938 0
M  V30 1256 H 117.45 -0.332213 -5.47894 0
M  V30 1257 H 117.711 0.95806 -4.31594 0
M  V30 1258 N 116.77 1.45427 -0.607355 0
M  V30 1259 C 117.733 2.28974 0.101693 0
M  V30 1260 C 118.733 1.39754 0.795329 0
M  V30 1261 O 119.923 1.61878 0.643527 0
M  V30 1262 C 117.055 3.20768 1.15414 0
M  V30 1263 H 118.248 2.93147 -0.632844 0
M  V30 1264 H 115.801 1.51945 -0.366391 0
M  V30 1265 H 116.536 2.61395 1.91945 0
M  V30 1266 H 116.321 3.86489 0.66098 0
M  V30 1267 H 117.811 3.83589 1.65073 0
M  V30 1268 N 118.248 0.346503 1.53744 0
M  V30 1269 C 119.473 -0.253074 2.0585 0
M  V30 1270 C 119.898 -1.43202 1.21962 0
M  V30 1271 O 119.256 -1.79783 0.234073 0
M  V30 1272 C 119.304 -0.643193 3.54817 0
M  V30 1273 O 118.408 -1.74286 3.73762 0
M  V30 1274 H 117.749 -0.0413583 0.662711 0
M  V30 1275 H 120.279 0.501574 1.98357 0
M  V30 1276 H 120.289 -0.919526 3.97503 0
M  V30 1277 H 118.964 0.218966 4.15323 0
M  V30 1278 H 117.541 -1.46356 3.42979 0
M  V30 1279 N 119.726 -1.57421 0.075193 0
M  V30 1280 C 120.659 -2.08528 -0.926904 0
M  V30 1281 C 121.637 -0.991171 -1.28898 0
M  V30 1282 O 122.821 -1.26479 -1.39769 0
M  V30 1283 C 119.948 -2.54576 -2.23402 0
M  V30 1284 C 118.994 -3.75454 -2.02327 0
M  V30 1285 S 119.827 -5.19989 -1.27951 0
M  V30 1286 C 120.983 -5.69372 -2.59935 0
M  V30 1287 H 121.216 -2.932 -0.492048 0
M  V30 1288 H 118.749 -1.53785 -0.137651 0
M  V30 1289 H 120.707 -2.81767 -2.98526 0
M  V30 1290 H 119.368 -1.70166 -2.64012 0
M  V30 1291 H 118.561 -4.05675 -2.99071 0
M  V30 1292 H 118.163 -3.48654 -1.35339 0
M  V30 1293 H 120.455 -5.76424 -3.56008 0
M  V30 1294 H 121.398 -6.68207 -2.34319 0
M  V30 1295 H 121.806 -4.97205 -2.67296 0
M  V30 1296 N 121.204 0.198386 -1.56346 0
M  V30 1297 C 122.167 1.22952 -1.93431 0
M  V30 1298 C 123.167 1.38611 -0.815092 0
M  V30 1299 O 124.357 1.36479 -1.08255 0
M  V30 1300 C 121.489 2.59946 -2.20546 0
M  V30 1301 H 122.682 0.912626 -2.85677 0
M  V30 1302 H 120.235 0.43977 -1.49986 0
M  V30 1303 H 120.97 2.96696 -1.30927 0
M  V30 1304 H 120.755 2.49953 -3.02102 0
M  V30 1305 H 122.245 3.3431 -2.50253 0
M  V30 1306 N 122.682 1.50554 0.465978 0
M  V30 1307 C 123.928 1.62038 1.21949 0
M  V30 1308 C 124.261 0.322116 1.9151 0
M  V30 1309 O 123.536 -0.676723 1.82348 0
M  V30 1310 C 123.819 2.80421 2.25912 0
M  V30 1311 C 123.672 4.20144 1.60622 0
M  V30 1312 C 124.991 2.94354 3.27176 0
M  V30 1313 H 122.11 0.589752 0.441998 0
M  V30 1314 H 124.752 1.82956 0.51257 0
M  V30 1315 H 122.902 2.62717 2.86203 0
M  V30 1316 H 124.574 4.49449 1.03889 0
M  V30 1317 H 122.817 4.24165 0.909211 0
M  V30 1318 H 123.488 4.98914 2.36196 0
M  V30 1319 H 125.964 3.10578 2.76913 0
M  V30 1320 H 124.84 3.788 3.97242 0
M  V30 1321 H 125.101 2.05186 3.916 0
M  V30 1322 N 124.16 -0.719506 1.40217 0
M  V30 1323 C 125.385 -1.51371 1.4178 0
M  V30 1324 C 125.81 -1.88091 0.0182355 0
M  V30 1325 O 125.168 -1.52997 -0.972707 0
M  V30 1326 C 125.216 -2.768 2.31115 0
M  V30 1327 O 124.32 -3.73349 1.7517 0
M  V30 1328 H 123.661 -0.456529 0.482159 0
M  V30 1329 H 126.191 -0.88644 1.844 0
M  V30 1330 H 126.201 -3.25371 2.46167 0
M  V30 1331 H 124.876 -2.49407 3.3282 0
M  V30 1332 H 123.453 -3.32179 1.69444 0
M  V30 1333 N 125.638 -1.25649 -0.95132 0
M  V30 1334 C 126.915 -1.01361 -1.67288 0
M  V30 1335 C 127.295 0.459135 -2.06046 0
M  V30 1336 O 126.643 1.43723 -1.7764 0
M  V30 1337 C 126.853 -1.95256 -2.89268 0
M  V30 1338 C 128.201 -2.23289 -3.61147 0
M  V30 1339 O 129.225 -1.93041 -2.99355 0
M  V30 1340 O 128.084 -2.74741 -4.72419 0
M  V30 1341 H 125.178 -0.38464 -0.732107 0
M  V30 1342 H 127.724 -1.36817 -1.00395 0
M  V30 1343 H 126.496 -2.94685 -2.57442 0
M  V30 1344 H 126.119 -1.60218 -3.6389 0
M  V30 1345 N 127.117 1.15442 -1.07289 0
M  V30 1346 C 128.363 1.86489 -0.796846 0
M  V30 1347 C 128.696 1.82078 0.675371 0
M  V30 1348 O 127.971 1.24346 1.4956 0
M  V30 1349 C 128.254 3.35626 -1.30489 0
M  V30 1350 C 128.107 3.48673 -2.84161 0
M  V30 1351 C 129.426 4.30357 -0.920907 0
M  V30 1352 H 126.545 0.677144 -0.290939 0
M  V30 1353 H 129.187 1.35633 -1.33056 0
M  V30 1354 H 127.337 3.79068 -0.850883 0
M  V30 1355 H 129.009 3.14099 -3.37846 0
M  V30 1356 H 127.252 2.90253 -3.22391 0
M  V30 1357 H 127.923 4.53453 -3.14777 0
M  V30 1358 H 130.399 3.94871 -1.3121 0
M  V30 1359 H 129.275 5.33193 -1.30372 0
M  V30 1360 H 129.536 4.4176 0.173226 0
M  V30 1361 N 128.595 0.856903 1.32268 0
M  V30 1362 C 129.525 0.31858 2.31316 0
M  V30 1363 C 130.506 -0.583487 1.59779 0
M  V30 1364 O 131.691 -0.503259 1.87566 0
M  V30 1365 C 128.821 -0.491979 3.43798 0
M  V30 1366 C 127.775 0.315849 4.26833 0
M  V30 1367 C 127.101 -0.619586 5.31098 0
M  V30 1368 C 128.401 1.54282 4.98993 0
M  V30 1369 H 130.095 1.14621 2.76591 0
M  V30 1370 H 127.641 0.552613 1.32974 0
M  V30 1371 H 129.594 -0.879012 4.1213 0
M  V30 1372 H 128.318 -1.35299 2.97257 0
M  V30 1373 H 126.977 0.684664 3.6015 0
M  V30 1374 H 126.625 -1.47751 4.8081 0
M  V30 1375 H 126.325 -0.0830621 5.87541 0
M  V30 1376 H 127.849 -1.00375 6.02293 0
M  V30 1377 H 129.263 1.22796 5.59995 0
M  V30 1378 H 127.66 2.01745 5.65172 0
M  V30 1379 H 128.73 2.30285 4.26728 0
M  V30 1380 N 130.073 -1.45103 0.615059 0
M  V30 1381 C 131.319 -2.02483 0.113347 0
M  V30 1382 C 131.652 -1.48146 -1.25564 0
M  V30 1383 O 130.927 -0.659104 -1.82992 0
M  V30 1384 C 131.21 -3.60005 0.0825278 0
M  V30 1385 C 131.063 -4.2466 1.48271 0
M  V30 1386 C 132.382 -4.35972 -0.601401 0
M  V30 1387 H 129.501 -0.735764 0.0426632 0
M  V30 1388 H 132.143 -1.72868 0.788461 0
M  V30 1389 H 130.293 -3.85367 -0.492378 0
M  V30 1390 H 131.965 -4.10458 2.10527 0
M  V30 1391 H 130.208 -3.82772 2.04127 0
M  V30 1392 H 130.879 -5.336 1.41332 0
M  V30 1393 H 133.355 -4.15947 -0.112666 0
M  V30 1394 H 132.231 -5.45697 -0.592097 0
M  V30 1395 H 132.492 -4.09391 -1.66887 0
M  V30 1396 N 131.551 -0.354651 -1.53558 0
M  V30 1397 C 132.514 0.484566 -2.24019 0
M  V30 1398 C 133.514 1.01861 -1.24422 0
M  V30 1399 O 134.704 0.906097 -1.4878 0
M  V30 1400 C 131.836 1.67615 -2.96847 0
M  V30 1401 H 133.029 -0.131843 -2.9961 0
M  V30 1402 H 130.582 -0.106165 -1.55939 0
M  V30 1403 H 131.317 2.33095 -2.25471 0
M  V30 1404 H 131.102 1.30029 -3.69912 0
M  V30 1405 H 132.592 2.27114 -3.50441 0
M  V30 1406 N 133.029 1.57378 -0.0835403 0
M  V30 1407 C 133.992 2.12252 0.864959 0
M  V30 1408 C 134.992 1.04916 1.21858 0
M  V30 1409 O 136.182 1.30853 1.14991 0
M  V30 1410 C 133.314 2.63358 2.16461 0
M  V30 1411 H 134.507 2.97371 0.388676 0
M  V30 1412 H 132.06 1.55423 0.165317 0
M  V30 1413 H 132.795 1.81727 2.686 0
M  V30 1414 H 132.58 3.41826 1.92087 0
M  V30 1415 H 134.07 3.05847 2.84337 0
M  V30 1416 N 134.507 -0.190092 1.56449 0
M  V30 1417 C 135.437 -1.23816 1.97969 0
M  V30 1418 C 136.418 -1.47201 0.852395 0
M  V30 1419 O 137.603 -1.58854 1.1171 0
M  V30 1420 C 134.733 -2.5813 2.3235 0
M  V30 1421 C 133.687 -2.49348 3.47864 0
M  V30 1422 C 133.013 -3.8798 3.67934 0
M  V30 1423 C 134.313 -2.01424 4.81898 0
M  V30 1424 H 136.007 -0.89311 2.85769 0
M  V30 1425 H 133.553 -0.428177 1.37487 0
M  V30 1426 H 135.506 -3.31637 2.59991 0
M  V30 1427 H 134.23 -2.94386 1.41438 0
M  V30 1428 H 132.889 -1.78297 3.20321 0
M  V30 1429 H 132.537 -4.21597 2.74344 0
M  V30 1430 H 132.237 -3.82978 4.45648 0
M  V30 1431 H 133.761 -4.63101 3.97957 0
M  V30 1432 H 135.175 -2.64693 5.08538 0
M  V30 1433 H 133.572 -2.07413 5.63116 0
M  V30 1434 H 134.642 -0.967677 4.75146 0
M  V30 1435 N 135.985 -1.50799 -0.457987 0
M  V30 1436 C 137.231 -1.62683 -1.21088 0
M  V30 1437 C 137.564 -0.332268 -1.91336 0
M  V30 1438 O 136.839 0.667043 -1.82704 0
M  V30 1439 C 137.122 -2.81615 -2.24422 0
M  V30 1440 C 136.975 -4.20989 -1.58392 0
M  V30 1441 C 138.294 -2.96085 -3.2561 0
M  V30 1442 H 135.413 -0.592087 -0.438864 0
M  V30 1443 H 138.055 -1.83225 -0.50286 0
M  V30 1444 H 136.205 -2.64231 -2.84806 0
M  V30 1445 H 137.877 -4.49994 -1.01504 0
M  V30 1446 H 136.12 -4.24641 -0.886704 0
M  V30 1447 H 136.791 -5.0016 -2.33547 0
M  V30 1448 H 139.267 -3.12042 -2.75262 0
M  V30 1449 H 138.143 -3.80902 -3.95228 0
M  V30 1450 H 138.404 -2.0726 -3.90507 0
M  V30 1451 N 137.463 0.71206 -1.40597 0
M  V30 1452 C 138.396 1.83582 -1.35546 0
M  V30 1453 C 139.374 1.61032 -0.225284 0
M  V30 1454 O 140.558 1.83998 -0.409519 0
M  V30 1455 C 137.685 3.19983 -1.11034 0
M  V30 1456 C 136.731 3.61355 -2.2655 0
M  V30 1457 S 137.564 3.68062 -3.88961 0
M  V30 1458 C 138.72 5.07216 -3.66719 0
M  V30 1459 H 138.953 1.87586 -2.30648 0
M  V30 1460 H 136.486 0.879182 -1.26924 0
M  V30 1461 H 138.444 3.98734 -0.975761 0
M  V30 1462 H 137.105 3.13608 -0.175798 0
M  V30 1463 H 136.298 4.60403 -2.0505 0
M  V30 1464 H 135.9 2.8987 -2.36329 0
M  V30 1465 H 138.192 5.94238 -3.25404 0
M  V30 1466 H 139.135 5.33753 -4.6531 0
M  V30 1467 H 139.543 4.77976 -3.00332 0
M  V30 1468 N 138.941 1.26152 0.944643 0
M  V30 1469 C 140.352 1.10454 1.50522 0
M  V30 1470 C 140.703 -0.31635 1.93633 0
M  V30 1471 O 139.828 -1.20746 1.79581 0
M  V30 1472 C 140.423 1.99891 2.73549 0
M  V30 1473 C 138.982 1.88348 3.25886 0
M  V30 1474 C 138.129 1.93447 1.9868 0
M  V30 1475 H 141.08 1.39292 0.760489 0
M  V30 1476 H 141.101 1.54477 3.47732 0
M  V30 1477 H 140.613 3.03297 2.42141 0
M  V30 1478 H 138.714 0.878636 3.62092 0
M  V30 1479 H 138.827 2.73696 3.93227 0
M  V30 1480 H 137.191 1.37456 2.14425 0
M  V30 1481 H 137.974 2.98476 1.69607 0
M  V30 1482 N 140.419 -1.14872 1.07899 0
M  V30 1483 C 141.349 -2.2193 0.725887 0
M  V30 1484 C 142.33 -1.67622 -0.28927 0
M  V30 1485 O 143.515 -1.93533 -0.160787 0
M  V30 1486 C 140.645 -3.47061 0.128856 0
M  V30 1487 C 139.599 -4.14363 1.07178 0
M  V30 1488 C 138.925 -5.33636 0.337229 0
M  V30 1489 C 140.225 -4.63492 2.40775 0
M  V30 1490 H 141.919 -2.51724 1.62097 0
M  V30 1491 H 139.465 -1.20991 0.780838 0
M  V30 1492 H 141.418 -4.21199 -0.130147 0
M  V30 1493 H 140.142 -3.16617 -0.80134 0
M  V30 1494 H 138.801 -3.42173 1.3158 0
M  V30 1495 H 138.449 -4.99449 -0.596606 0
M  V30 1496 H 138.149 -5.79609 0.965788 0
M  V30 1497 H 139.673 -6.10539 0.0861567 0
M  V30 1498 H 141.087 -5.2913 2.20669 0
M  V30 1499 H 139.484 -5.20148 2.99276 0
M  V30 1500 H 140.554 -3.78834 3.02676 0
M  V30 1501 N 141.898 -0.863906 -1.31812 0
M  V30 1502 C 143.123 -0.48527 -2.01643 0
M  V30 1503 C 143.548 0.913058 -1.64453 0
M  V30 1504 O 142.906 1.6014 -0.849985 0
M  V30 1505 C 142.954 -0.642625 -3.54828 0
M  V30 1506 O 142.058 0.320659 -4.11151 0
M  V30 1507 H 141.399 -0.193793 -0.635091 0
M  V30 1508 H 143.929 -1.16565 -1.68148 0
M  V30 1509 H 143.939 -0.533628 -4.04495 0
M  V30 1510 H 142.614 -1.66227 -3.81237 0
M  V30 1511 H 141.191 0.167126 -3.72525 0
M  V30 1512 N 143.376 1.44774 -0.622745 0
M  V30 1513 C 144.306 2.33382 0.0741861 0
M  V30 1514 C 145.287 1.47719 0.843387 0
M  V30 1515 O 146.472 1.76458 0.810934 0
M  V30 1516 C 143.602 3.30663 1.06204 0
M  V30 1517 C 142.556 4.26079 0.405037 0
M  V30 1518 C 141.882 5.13165 1.5022 0
M  V30 1519 C 143.182 5.1781 -0.683414 0
M  V30 1520 H 144.876 2.91905 -0.665713 0
M  V30 1521 H 142.422 1.40363 -0.321587 0
M  V30 1522 H 144.375 3.9153 1.55827 0
M  V30 1523 H 143.099 2.70331 1.83272 0
M  V30 1524 H 141.758 3.66532 -0.0704683 0
M  V30 1525 H 141.406 4.49191 2.26355 0
M  V30 1526 H 141.106 5.77812 1.06803 0
M  V30 1527 H 142.63 5.76902 2.00041 0
M  V30 1528 H 144.044 5.72661 -0.270631 0
M  V30 1529 H 142.441 5.91015 -1.04023 0
M  V30 1530 H 143.511 4.59326 -1.55395 0
M  V30 1531 N 144.854 0.36279 1.53368 0
M  V30 1532 C 146.1 -0.228113 2.01513 0
M  V30 1533 C 146.433 -1.48648 1.2497 0
M  V30 1534 O 145.708 -1.91459 0.342616 0
M  V30 1535 C 145.991 -0.522884 3.56284 0
M  V30 1536 C 145.844 0.74892 4.43521 0
M  V30 1537 C 147.163 -1.32461 4.19693 0
M  V30 1538 H 144.282 -0.0814343 0.732487 0
M  V30 1539 H 146.924 0.48713 1.83649 0
M  V30 1540 H 145.074 -1.1322 3.71636 0
M  V30 1541 H 146.746 1.38648 4.39971 0
M  V30 1542 H 144.989 1.36986 4.11603 0
M  V30 1543 H 145.66 0.497667 5.49752 0
M  V30 1544 H 148.136 -0.809203 4.08156 0
M  V30 1545 H 147.012 -1.49961 5.28018 0
M  V30 1546 H 147.273 -2.33232 3.75573 0
M  V30 1547 N 146.332 -1.57332 0.0918853 0
M  V30 1548 C 147.282 -2.10385 -0.87876 0
M  V30 1549 C 148.266 -1.01814 -1.24591 0
M  V30 1550 O 149.458 -1.28093 -1.22152 0
M  V30 1551 C 146.587 -2.68517 -2.13901 0
M  V30 1552 C 145.673 -3.84126 -1.79744 0
M  V30 1553 N 146.064 -4.92288 -1.1613 0
M  V30 1554 C 144.362 -3.93801 -2.09373 0
M  V30 1555 C 145.063 -5.7295 -1.00513 0
M  V30 1556 N 144.039 -5.21876 -1.5214 0
M  V30 1557 H 147.841 -2.91395 -0.38293 0
M  V30 1558 H 145.355 -1.62017 -0.111423 0
M  V30 1559 H 147.352 -3.04852 -2.84378 0
M  V30 1560 H 146.012 -1.88961 -2.64053 0
M  V30 1561 H 147.023 -5.1123 -0.828504 0
M  V30 1562 H 143.7 -3.25249 -2.61762 0
M  V30 1563 H 145.09 -6.69978 -0.507902 0
M  V30 1564 N 147.81 0.181792 -1.56548 0
M  V30 1565 C 148.72 1.24538 -1.98815 0
M  V30 1566 C 149.736 1.49045 -0.897861 0
M  V30 1567 O 150.912 1.61399 -1.20467 0
M  V30 1568 C 147.977 2.56683 -2.33055 0
M  V30 1569 C 147.038 2.40131 -3.55859 0
M  V30 1570 C 146.271 3.65975 -3.88456 0
M  V30 1571 O 146.494 4.70711 -3.22161 0
M  V30 1572 O 145.428 3.6071 -4.81842 0
M  V30 1573 H 149.254 0.916647 -2.89536 0
M  V30 1574 H 146.839 0.387842 -1.44278 0
M  V30 1575 H 148.721 3.34655 -2.56094 0
M  V30 1576 H 147.396 2.89157 -1.45498 0
M  V30 1577 H 146.303 1.60226 -3.38051 0
M  V30 1578 H 147.636 2.12585 -4.43924 0
M  V30 1579 N 149.288 1.51039 0.449983 0
M  V30 1580 C 150.218 1.74379 1.55288 0
M  V30 1581 C 151.199 0.593236 1.5942 0
M  V30 1582 O 152.384 0.834625 1.7535 0
M  V30 1583 C 149.514 1.85728 2.93466 0
M  V30 1584 C 148.468 3.01078 3.04197 0
M  V30 1585 C 147.794 2.97595 4.44231 0
M  V30 1586 C 149.094 4.41254 2.7945 0
M  V30 1587 H 150.788 2.66725 1.36008 0
M  V30 1588 H 148.334 1.2835 0.652864 0
M  V30 1589 H 150.287 2.0064 3.70569 0
M  V30 1590 H 149.011 0.900207 3.13949 0
M  V30 1591 H 147.67 2.85851 2.29531 0
M  V30 1592 H 147.318 1.99691 4.61663 0
M  V30 1593 H 147.018 3.75046 4.52343 0
M  V30 1594 H 148.542 3.14583 5.23326 0
M  V30 1595 H 149.956 4.56897 3.46292 0
M  V30 1596 H 148.353 5.20315 2.98985 0
M  V30 1597 H 149.423 4.52164 1.75144 0
M  V30 1598 N 150.766 -0.704594 1.40972 0
M  V30 1599 C 151.991 -1.49858 1.43378 0
M  V30 1600 C 152.416 -1.88061 0.038184 0
M  V30 1601 O 151.774 -1.5402 -0.956425 0
M  V30 1602 C 151.822 -2.74333 2.34038 0
M  V30 1603 O 150.926 -3.7147 1.7912 0
M  V30 1604 H 150.267 -0.45139 0.486974 0
M  V30 1605 H 152.797 -0.866832 1.8533 0
M  V30 1606 H 152.807 -3.22741 2.49604 0
M  V30 1607 H 151.482 -2.45863 3.35446 0
M  V30 1608 H 150.059 -3.30363 1.72958 0
M  V30 1609 N 152.244 -1.26651 -0.937939 0
M  V30 1610 C 153.492 -1.12165 -1.68118 0
M  V30 1611 C 153.813 0.334983 -1.92101 0
M  V30 1612 O 153.083 1.23583 -1.52 0
M  V30 1613 H 151.663 -0.412093 -0.623048 0
M  V30 1614 H 154.325 -1.59027 -1.12678 0
M  V30 1615 H 153.421 -1.64289 -2.6536 0
M  V30 1616 N 153.722 1.14298 -1.08507 0
M  V30 1617 C 155.138 1.37347 -0.812901 0
M  V30 1618 C 155.338 1.93052 0.577325 0
M  V30 1619 O 154.394 2.14389 1.33393 0
M  V30 1620 C 155.707 2.33359 -1.89642 0
M  V30 1621 C 157.255 2.46996 -1.92255 0
M  V30 1622 C 157.73 3.46309 -2.99724 0
M  V30 1623 N 159.221 3.53853 -2.98902 0
M  V30 1624 C 159.956 4.3055 -3.787 0
M  V30 1625 N 159.452 5.10482 -4.6838 0
M  V30 1626 N 161.245 4.25757 -3.66998 0
M  V30 1627 H 153.396 0.764867 -1.9815 0
M  V30 1628 H 155.659 0.398966 -0.859959 0
M  V30 1629 H 155.365 1.99565 -2.89597 0
M  V30 1630 H 155.239 3.33274 -1.76659 0
M  V30 1631 H 157.626 2.80081 -0.929445 0
M  V30 1632 H 157.707 1.47039 -2.09316 0
M  V30 1633 H 157.351 3.13957 -3.99241 0
M  V30 1634 H 157.281 4.46049 -2.79907 0
M  V30 1635 H 159.772 2.96812 -2.33904 0
M  V30 1636 H 160.085 5.66284 -5.25873 0
M  V30 1637 H 158.43 5.09747 -4.72422 0
M  V30 1638 H 161.621 3.62383 -2.96304 0
M  V30 1639 H 161.794 4.85279 -4.29427 0
M  V30 1640 N 155.201 0.870884 1.31352 0
M  V30 1641 C 156.617 0.562932 1.49343 0
M  V30 1642 C 156.817 -0.902725 1.80148 0
M  V30 1643 O 155.873 -1.68484 1.88067 0
M  V30 1644 C 157.186 1.46393 2.62659 0
M  V30 1645 C 158.734 1.46607 2.76542 0
M  V30 1646 C 159.209 2.35266 3.92955 0
M  V30 1647 N 160.7 2.33151 4.00243 0
M  V30 1648 C 161.435 2.98471 4.89594 0
M  V30 1649 N 160.931 3.72964 5.8384 0
M  V30 1650 N 162.724 2.87775 4.82848 0
M  V30 1651 H 154.875 1.81923 1.09626 0
M  V30 1652 H 157.138 0.777934 0.541777 0
M  V30 1653 H 156.844 2.50689 2.46674 0
M  V30 1654 H 156.718 1.16314 3.58819 0
M  V30 1655 H 159.105 0.43069 2.9194 0
M  V30 1656 H 159.186 1.8071 1.81046 0
M  V30 1657 H 158.83 3.38881 3.78315 0
M  V30 1658 H 158.76 1.98487 4.87761 0
M  V30 1659 H 161.251 1.79006 3.32814 0
M  V30 1660 H 161.564 4.19932 6.4875 0
M  V30 1661 H 159.909 3.77073 5.83816 0
M  V30 1662 H 163.1 2.29116 4.08195 0
M  V30 1663 H 163.273 3.38961 5.52277 0
M  V30 1664 N 156.679 -1.44442 0.630414 0
M  V30 1665 C 157.925 -2.02894 0.143332 0
M  V30 1666 C 158.28 -1.48697 -1.22094 0
M  V30 1667 O 157.573 -0.661171 -1.79831 0
M  V30 1668 C 157.767 -3.57332 0.0697835 0
M  V30 1669 C 157.596 -4.26512 1.42539 0
M  V30 1670 C 156.366 -4.63516 2.01198 0
M  V30 1671 C 158.564 -4.57004 2.35907 0
M  V30 1672 N 156.546 -5.17661 3.30001 0
M  V30 1673 C 157.917 -5.12223 3.49324 0
M  V30 1674 C 159.972 -4.38955 2.34995 0
M  V30 1675 C 158.675 -5.51295 4.62024 0
M  V30 1676 C 160.701 -4.79075 3.46758 0
M  V30 1677 C 160.063 -5.34407 4.58899 0
M  V30 1678 H 156.162 -0.776041 0.0963523 0
M  V30 1679 H 158.746 -1.75945 0.833752 0
M  V30 1680 H 156.917 -3.83894 -0.589915 0
M  V30 1681 H 158.649 -4.02451 -0.42606 0
M  V30 1682 H 155.404 -4.47811 1.54151 0
M  V30 1683 H 155.828 -5.4921 3.95851 0
M  V30 1684 H 160.47 -3.95469 1.49545 0
M  V30 1685 H 158.188 -5.93736 5.48182 0
M  V30 1686 H 161.774 -4.66824 3.47227 0
M  V30 1687 H 160.654 -5.64878 5.4395 0
M  V30 1688 N 158.157 -0.370918 -1.53173 0
M  V30 1689 C 159.089 0.507823 -2.23503 0
M  V30 1690 C 160.102 1.04182 -1.251 0
M  V30 1691 O 161.291 0.947286 -1.5129 0
M  V30 1692 C 158.391 1.71447 -2.92334 0
M  V30 1693 C 157.564 1.31105 -4.17289 0
M  V30 1694 C 156.623 2.38035 -4.69282 0
M  V30 1695 O 155.649 2.00204 -5.32829 0
M  V30 1696 N 156.851 3.69697 -4.47554 0
M  V30 1697 H 159.616 -0.0946382 -2.99551 0
M  V30 1698 H 157.177 -0.196358 -1.60705 0
M  V30 1699 H 159.169 2.42469 -3.24023 0
M  V30 1700 H 157.739 2.22368 -2.19707 0
M  V30 1701 H 156.959 0.430462 -3.91843 0
M  V30 1702 H 158.247 1.0179 -4.98514 0
M  V30 1703 H 157.645 4.03205 -3.9679 0
M  V30 1704 H 156.202 4.36807 -4.8378 0
M  V30 1705 N 159.635 1.57281 -0.100228 0
M  V30 1706 C 160.565 2.17328 0.853857 0
M  V30 1707 C 161.546 1.10804 1.2906 0
M  V30 1708 O 162.731 1.38963 1.35657 0
M  V30 1709 C 159.861 2.75772 2.11109 0
M  V30 1710 C 158.815 3.87713 1.81279 0
M  V30 1711 C 158.141 4.32882 3.13874 0
M  V30 1712 C 159.441 5.10677 1.09574 0
M  V30 1713 H 161.135 2.97305 0.353545 0
M  V30 1714 H 158.681 1.43009 0.168612 0
M  V30 1715 H 160.634 3.16433 2.78296 0
M  V30 1716 H 159.358 1.93057 2.63432 0
M  V30 1717 H 158.017 3.476 1.16489 0
M  V30 1718 H 157.665 3.47051 3.64095 0
M  V30 1719 H 157.365 5.08358 2.94696 0
M  V30 1720 H 158.889 4.7618 3.82211 0
M  V30 1721 H 160.303 5.48474 1.66879 0
M  V30 1722 H 158.7 5.91615 1.00557 0
M  V30 1723 H 159.77 4.84835 0.0793299 0
M  V30 1724 N 161.113 -0.173488 1.56642 0
M  V30 1725 C 162.361 -0.888706 1.81512 0
M  V30 1726 C 162.682 -1.82875 0.676872 0
M  V30 1727 O 161.952 -1.93536 -0.303414 0
M  V30 1728 H 160.532 -0.331164 0.669582 0
M  V30 1729 H 163.194 -0.173823 1.94123 0
M  V30 1730 H 162.29 -1.46691 2.75478 0
M  V30 1731 N 162.591 -1.51276 -0.441967 0
M  V30 1732 C 164.007 -1.39349 -0.778083 0
M  V30 1733 C 164.207 -0.472212 -1.95889 0
M  V30 1734 O 163.263 0.0743551 -2.5239 0
M  V30 1735 C 164.576 -2.81292 -1.0628 0
M  V30 1736 C 166.124 -2.9041 -1.16751 0
M  V30 1737 C 166.599 -4.33251 -1.48519 0
M  V30 1738 N 168.09 -4.36336 -1.55453 0
M  V30 1739 C 168.825 -5.43885 -1.81596 0
M  V30 1740 N 168.321 -6.61601 -2.05562 0
M  V30 1741 N 170.114 -5.3136 -1.8334 0
M  V30 1742 H 162.265 -2.09729 0.335774 0
M  V30 1743 H 164.528 -0.943925 0.0878028 0
M  V30 1744 H 164.234 -3.50678 -0.267905 0
M  V30 1745 H 164.108 -3.20334 -1.99163 0
M  V30 1746 H 166.495 -2.21225 -1.95304 0
M  V30 1747 H 166.576 -2.54871 -0.217801 0
M  V30 1748 H 166.22 -5.02984 -0.704958 0
M  V30 1749 H 166.15 -4.66299 -2.44689 0
M  V30 1750 H 168.641 -3.51466 -1.38853 0
M  V30 1751 H 168.954 -7.39361 -2.24867 0
M  V30 1752 H 167.299 -6.64725 -2.02894 0
M  V30 1753 H 170.49 -4.38382 -1.64132 0
M  V30 1754 H 170.663 -6.15258 -2.03377 0
M  V30 1755 N 164.069 0.697108 -1.41344 0
M  V30 1756 C 165.485 1.00751 -1.2378 0
M  V30 1757 C 165.685 2.01105 -0.126066 0
M  V30 1758 O 164.741 2.47295 0.51004 0
M  V30 1759 C 166.054 1.53359 -2.58653 0
M  V30 1760 C 167.602 1.6525 -2.65822 0
M  V30 1761 C 168.077 2.2126 -4.01009 0
M  V30 1762 N 169.568 2.28622 -4.02847 0
M  V30 1763 C 170.303 2.72984 -5.04249 0
M  V30 1764 N 169.799 3.16962 -6.16041 0
M  V30 1765 N 171.592 2.72534 -4.91611 0
M  V30 1766 H 163.743 0.0322662 -2.12375 0
M  V30 1767 H 166.006 0.0768853 -0.944877 0
M  V30 1768 H 165.712 0.870773 -3.4075 0
M  V30 1769 H 165.586 2.51597 -2.81032 0
M  V30 1770 H 167.973 2.30644 -1.84086 0
M  V30 1771 H 168.054 0.655614 -2.47256 0
M  V30 1772 H 167.698 1.56482 -4.83193 0
M  V30 1773 H 167.628 3.21698 -4.16915 0
M  V30 1774 H 170.119 1.97585 -3.22131 0
M  V30 1775 H 170.432 3.49434 -6.89287 0
M  V30 1776 H 168.777 3.14875 -6.1958 0
M  V30 1777 H 171.968 2.37525 -4.0336 0
M  V30 1778 H 172.141 3.06789 -5.70775 0
M  V30 1779 N 165.547 1.27147 0.931209 0
M  V30 1780 C 166.477 1.12081 2.04842 0
M  V30 1781 C 167.458 0.0232364 1.70084 0
M  V30 1782 O 168.643 0.197085 1.93197 0
M  V30 1783 C 165.773 0.76354 3.38803 0
M  V30 1784 C 164.727 1.81396 3.87659 0
M  V30 1785 C 164.053 1.31075 5.18385 0
M  V30 1786 C 165.353 3.21739 4.11438 0
M  V30 1787 H 167.047 2.05537 2.17703 0
M  V30 1788 H 164.593 0.989603 1.04608 0
M  V30 1789 H 166.546 0.644982 4.16435 0
M  V30 1790 H 165.27 -0.206727 3.25945 0
M  V30 1791 H 163.929 1.92136 3.12217 0
M  V30 1792 H 163.577 0.330037 5.01916 0
M  V30 1793 H 163.277 2.013 5.52044 0
M  V30 1794 H 164.801 1.20506 5.98591 0
M  V30 1795 H 166.215 3.14019 4.79651 0
M  V30 1796 H 164.612 3.89644 4.56397 0
M  V30 1797 H 165.682 3.67054 3.16859 0
M  V30 1798 N 167.025 -1.13721 1.09112 0
M  V30 1799 C 168.265 -1.86576 0.834801 0
M  V30 1800 C 168.629 -1.81435 -0.628122 0
M  V30 1801 O 169.83 -2.49497 -1.00024 0
M  V30 1802 C 168.101 -3.30872 1.35124 0
M  V30 1803 S 169.66 -4.21257 1.22832 0
M  V30 1804 H 166.478 -0.643666 0.302017 0
M  V30 1805 H 169.08 -1.37085 1.39385 0
M  V30 1806 H 167.784 -3.32166 2.41027 0
M  V30 1807 H 167.315 -3.85423 0.788185 0
M  V30 1808 H 169.33 -4.95884 0.177191 0
M  V30 1809 N 168.503 -0.877838 -1.30888 0
M  V30 1810 C 169.435 -0.296607 -2.27273 0
M  V30 1811 C 170.448 0.544799 -1.53414 0
M  V30 1812 O 171.637 0.365511 -1.74718 0
M  V30 1813 C 168.737 0.597481 -3.33592 0
M  V30 1814 C 167.91 -0.213251 -4.3688 0
M  V30 1815 C 166.969 0.610208 -5.2265 0
M  V30 1816 O 165.995 0.035441 -5.69189 0
M  V30 1817 N 167.197 1.92071 -5.47804 0
M  V30 1818 H 169.962 -1.12492 -2.77787 0
M  V30 1819 H 167.523 -0.740105 -1.43993 0
M  V30 1820 H 169.515 1.15425 -3.87891 0
M  V30 1821 H 168.085 1.32647 -2.83061 0
M  V30 1822 H 167.305 -0.951466 -3.82545 0
M  V30 1823 H 168.593 -0.769262 -5.02951 0
M  V30 1824 H 167.991 2.4107 -5.11763 0
M  V30 1825 H 166.548 2.42508 -6.05007 0
M  V30 1826 N 169.982 1.44106 -0.638065 0
M  V30 1827 C 170.912 2.33448 0.0494287 0
M  V30 1828 C 171.893 1.48606 0.827672 0
M  V30 1829 O 173.078 1.77308 0.792173 0
M  V30 1830 C 170.208 3.31771 1.02691 0
M  V30 1831 C 169.162 4.26485 0.359823 0
M  V30 1832 C 168.488 5.14729 1.44769 0
M  V30 1833 C 169.788 5.17056 -0.738296 0
M  V30 1834 H 171.482 2.91183 -0.696636 0
M  V30 1835 H 169.028 1.40014 -0.336456 0
M  V30 1836 H 170.981 3.93161 1.51666 0
M  V30 1837 H 169.705 2.7226 1.80395 0
M  V30 1838 H 168.364 3.66437 -0.10934 0
M  V30 1839 H 168.012 4.51566 2.21578 0
M  V30 1840 H 167.712 5.78913 1.00668 0
M  V30 1841 H 169.236 5.78991 1.93911 0
M  V30 1842 H 170.65 5.72342 -0.331354 0
M  V30 1843 H 169.047 5.89879 -1.10286 0
M  V30 1844 H 170.117 4.57652 -1.60258 0
M  V30 1845 N 171.46 0.379036 1.52974 0
M  V30 1846 C 172.706 -0.199244 2.02422 0
M  V30 1847 C 173.061 -1.4532 1.26095 0
M  V30 1848 O 172.354 -1.88377 0.34996 0
M  V30 1849 C 172.548 -0.53096 3.53434 0
M  V30 1850 C 172.377 0.689298 4.44386 0
M  V30 1851 C 171.147 1.20546 4.9071 0
M  V30 1852 C 173.345 1.55856 4.90116 0
M  V30 1853 N 171.327 2.38434 5.65705 0
M  V30 1854 C 172.698 2.58396 5.63588 0
M  V30 1855 C 174.753 1.57986 4.7217 0
M  V30 1856 C 173.456 3.62939 6.21022 0
M  V30 1857 C 175.482 2.6143 5.30479 0
M  V30 1858 C 174.844 3.62693 6.03849 0
M  V30 1859 H 170.943 -0.0352671 0.781204 0
M  V30 1860 H 173.527 0.526614 1.87443 0
M  V30 1861 H 171.698 -1.22588 3.68547 0
M  V30 1862 H 173.43 -1.0955 3.89591 0
M  V30 1863 H 170.185 0.768022 4.67331 0
M  V30 1864 H 170.609 2.98055 6.07859 0
M  V30 1865 H 175.251 0.810475 4.14959 0
M  V30 1866 H 172.969 4.40751 6.77321 0
M  V30 1867 H 176.555 2.63949 5.18481 0
M  V30 1868 H 175.435 4.41424 6.48163 0
M  V30 1869 N 172.938 -1.57226 0.108567 0
M  V30 1870 C 174.187 -1.94008 -0.551703 0
M  V30 1871 C 174.5 -0.993442 -1.68494 0
M  V30 1872 O 175.706 -1.25551 -2.40726 0
M  V30 1873 C 174.162 -3.44763 -1.03279 0
M  V30 1874 C 173.77 -4.47943 0.0714193 0
M  V30 1875 C 175.514 -3.90483 -1.66503 0
M  V30 1876 C 173.421 -5.89865 -0.425779 0
M  V30 1877 H 172.351 -0.724206 -0.209863 0
M  V30 1878 H 175.002 -1.82547 0.186741 0
M  V30 1879 H 173.384 -3.51422 -1.82533 0
M  V30 1880 H 174.558 -4.52942 0.847365 0
M  V30 1881 H 172.873 -4.11913 0.609669 0
M  V30 1882 H 175.47 -4.93925 -2.04798 0
M  V30 1883 H 175.813 -3.29877 -2.53942 0
M  V30 1884 H 176.346 -3.86581 -0.938074 0
M  V30 1885 H 173.085 -6.54202 0.412316 0
M  V30 1886 H 172.605 -5.88309 -1.16843 0
M  V30 1887 H 174.284 -6.40844 -0.890397 0
M  V30 1888 N 174.416 0.165178 -1.56732 0
M  V30 1889 C 175.379 1.18822 -1.95995 0
M  V30 1890 C 176.379 1.3685 -0.84431 0
M  V30 1891 O 177.569 1.34152 -1.11126 0
M  V30 1892 C 174.701 2.5521 -2.26011 0
M  V30 1893 H 175.894 0.851825 -2.87548 0
M  V30 1894 H 173.447 0.407857 -1.50885 0
M  V30 1895 H 174.182 2.93852 -1.37191 0
M  V30 1896 H 173.967 2.43489 -3.07336 0
M  V30 1897 H 175.457 3.28927 -2.57288 0
M  V30 1898 N 175.894 1.51508 0.433938 0
M  V30 1899 C 177.134 1.66006 1.19253 0
M  V30 1900 C 177.498 0.369868 1.88404 0
M  V30 1901 O 178.699 0.39066 2.65946 0
M  V30 1902 C 176.97 2.83229 2.17981 0
M  V30 1903 S 178.529 3.18075 3.02281 0
M  V30 1904 H 175.347 0.584821 0.404358 0
M  V30 1905 H 177.949 1.89425 0.48357 0
M  V30 1906 H 176.653 3.75407 1.65824 0
M  V30 1907 H 176.184 2.6201 2.93453 0
M  V30 1908 H 178.199 2.64772 4.19655 0
M  V30 1909 N 177.372 -0.689602 1.41712 0
M  V30 1910 C 178.649 -1.44457 1.31877 0
M  V30 1911 C 179.029 -2.11039 -0.0508537 0
M  V30 1912 O 178.377 -2.02138 -1.06547 0
M  V30 1913 C 178.587 -2.45913 2.47645 0
M  V30 1914 C 179.935 -3.10991 2.89084 0
M  V30 1915 O 180.959 -2.56238 2.47428 0
M  V30 1916 O 179.818 -4.10174 3.61137 0
M  V30 1917 H 176.912 -0.64362 0.519309 0
M  V30 1918 H 179.458 -0.719576 1.53689 0
M  V30 1919 H 178.23 -1.95409 3.39015 0
M  V30 1920 H 177.853 -3.25913 2.27742 0
M  V30 1921 N 178.85 -1.27639 -0.924453 0
M  V30 1922 C 180.096 -1.14336 -1.67497 0
M  V30 1923 C 180.429 0.309465 -1.91718 0
M  V30 1924 O 179.704 1.22608 -1.50989 0
M  V30 1925 C 179.987 -1.93096 -3.0395 0
M  V30 1926 C 179.84 -3.46381 -2.8695 0
M  V30 1927 C 181.159 -1.73798 -4.0433 0
M  V30 1928 H 178.278 -0.416728 -0.607871 0
M  V30 1929 H 180.92 -1.56832 -1.07256 0
M  V30 1930 H 179.07 -1.56982 -3.55372 0
M  V30 1931 H 180.742 -3.92343 -2.42621 0
M  V30 1932 H 178.985 -3.72557 -2.22225 0
M  V30 1933 H 179.656 -3.96735 -3.83804 0
M  V30 1934 H 182.132 -2.05293 -3.61931 0
M  V30 1935 H 181.008 -2.31294 -4.97789 0
M  V30 1936 H 181.269 -0.686725 -4.36734 0
M  V30 1937 N 180.328 1.1314 -1.09713 0
M  V30 1938 C 181.258 2.20748 -0.761102 0
M  V30 1939 C 182.239 1.68061 0.262566 0
M  V30 1940 O 183.424 1.93765 0.129977 0
M  V30 1941 C 180.554 3.46812 -0.184054 0
M  V30 1942 C 179.508 4.12606 -1.13757 0
M  V30 1943 C 178.834 5.33031 -0.422083 0
M  V30 1944 C 180.134 4.59603 -2.48118 0
M  V30 1945 H 181.828 2.49113 -1.66082 0
M  V30 1946 H 179.374 1.19734 -0.799987 0
M  V30 1947 H 181.327 4.21353 0.0631215 0
M  V30 1948 H 180.051 3.17851 0.750868 0
M  V30 1949 H 178.71 3.40036 -1.37007 0
M  V30 1950 H 178.358 5.00335 0.517072 0
M  V30 1951 H 178.058 5.77999 -1.05788 0
M  V30 1952 H 179.582 6.10325 -0.183277 0
M  V30 1953 H 180.996 5.25552 -2.29059 0
M  V30 1954 H 179.393 5.15321 -3.07514 0
M  V30 1955 H 180.463 3.73971 -3.08665 0
M  V30 1956 N 181.806 0.884767 1.30421 0
M  V30 1957 C 183.046 0.509806 1.9794 0
M  V30 1958 C 183.41 -0.923736 1.68319 0
M  V30 1959 O 184.611 -1.40481 2.29169 0
M  V30 1960 C 182.882 0.776732 3.48858 0
M  V30 1961 S 184.441 0.503843 4.35898 0
M  V30 1962 H 181.259 0.189699 0.685227 0
M  V30 1963 H 183.861 1.14399 1.58535 0
M  V30 1964 H 182.565 1.81857 3.67908 0
M  V30 1965 H 182.096 0.1301 3.93185 0
M  V30 1966 H 184.111 -0.657625 4.91823 0
M  V30 1967 N 183.284 -1.43765 0.645699 0
M  V30 1968 C 184.524 -2.03776 0.159542 0
M  V30 1969 C 184.888 -1.49792 -1.2011 0
M  V30 1970 O 186.089 -2.01398 -1.78023 0
M  V30 1971 C 184.36 -3.57036 0.161251 0
M  V30 1972 S 185.919 -4.3804 -0.258159 0
M  V30 1973 H 182.737 -0.707717 0.0682454 0
M  V30 1974 H 185.339 -1.75941 0.852352 0
M  V30 1975 H 184.043 -3.9383 1.15439 0
M  V30 1976 H 183.574 -3.89503 -0.552339 0
M  V30 1977 H 185.589 -4.7302 -1.49889 0
M  V30 1978 N 184.763 -0.387143 -1.52771 0
M  V30 1979 C 185.991 0.195869 -2.05971 0
M  V30 1980 C 186.406 1.40691 -1.25903 0
M  V30 1981 O 185.763 1.79931 -0.305134 0
M  V30 1982 C 185.814 0.56812 -3.57008 0
M  V30 1983 O 185.535 -0.594803 -4.34043 0
M  V30 1984 C 187.036 1.20723 -4.26545 0
M  V30 1985 H 184.256 0.0300578 -0.670326 0
M  V30 1986 H 186.8 -0.551749 -1.96916 0
M  V30 1987 H 184.955 1.26564 -3.66143 0
M  V30 1988 H 185.369 -0.289322 -5.23701 0
M  V30 1989 H 186.843 1.41807 -5.33474 0
M  V30 1990 H 187.32 2.17395 -3.81623 0
M  V30 1991 H 187.926 0.550535 -4.21722 0
M  V30 1992 N 186.241 1.57166 -0.116904 0
M  V30 1993 C 187.204 2.14039 0.819742 0
M  V30 1994 C 188.204 1.07477 1.19605 0
M  V30 1995 O 189.394 1.33263 1.1219 0
M  V30 1996 C 186.526 2.67891 2.10826 0
M  V30 1997 H 187.719 2.98128 0.325511 0
M  V30 1998 H 185.272 1.55739 0.132312 0
M  V30 1999 H 186.007 1.87384 2.64685 0
M  V30 2000 H 185.792 3.45823 1.84793 0
M  V30 2001 H 187.282 3.11809 2.77785 0
M  V30 2002 N 187.719 -0.156864 1.56817 0
M  V30 2003 C 188.944 -0.890331 1.87318 0
M  V30 2004 C 189.369 -1.74394 0.704855 0
M  V30 2005 O 188.727 -1.77972 -0.345786 0
M  V30 2006 C 188.775 -1.73102 3.16336 0
M  V30 2007 O 187.879 -2.83422 2.99576 0
M  V30 2008 H 187.22 -0.24857 0.615718 0
M  V30 2009 H 189.75 -0.150649 2.04045 0
M  V30 2010 H 189.76 -2.12803 3.48107 0
M  V30 2011 H 188.435 -1.10412 4.00976 0
M  V30 2012 H 187.012 -2.47199 2.7919 0
M  V30 2013 N 189.197 -1.51736 -0.425897 0
M  V30 2014 C 190.446 -1.64201 -1.17136 0
M  V30 2015 C 190.759 -0.369705 -1.92074 0
M  V30 2016 O 191.965 -0.373898 -2.68913 0
M  V30 2017 C 190.421 -2.90035 -2.13091 0
M  V30 2018 C 190.029 -4.24312 -1.43747 0
M  V30 2019 C 191.773 -3.1186 -2.87999 0
M  V30 2020 C 189.68 -5.41285 -2.38253 0
M  V30 2021 H 188.61 -0.611624 -0.440944 0
M  V30 2022 H 191.261 -1.78212 -0.437328 0
M  V30 2023 H 189.643 -2.69684 -2.89977 0
M  V30 2024 H 190.817 -4.55086 -0.723408 0
M  V30 2025 H 189.132 -4.08456 -0.809465 0
M  V30 2026 H 191.729 -3.96427 -3.58817 0
M  V30 2027 H 192.072 -2.25403 -3.49999 0
M  V30 2028 H 192.605 -3.32605 -2.18217 0
M  V30 2029 H 189.344 -6.30037 -1.80925 0
M  V30 2030 H 188.864 -5.14872 -3.0768 0
M  V30 2031 H 190.543 -5.73694 -2.99139 0
M  V30 2032 N 190.675 0.682077 -1.42076 0
M  V30 2033 C 191.921 1.44283 -1.43366 0
M  V30 2034 C 192.276 1.92344 -0.0465775 0
M  V30 2035 O 191.569 1.67517 0.929973 0
M  V30 2036 C 191.763 2.66036 -2.38662 0
M  V30 2037 C 191.592 2.29889 -3.86499 0
M  V30 2038 C 190.362 2.19599 -4.55087 0
M  V30 2039 C 192.56 1.91999 -4.77117 0
M  V30 2040 N 190.542 1.76478 -5.87987 0
M  V30 2041 C 191.913 1.59741 -5.99068 0
M  V30 2042 C 193.968 1.78927 -4.64639 0
M  V30 2043 C 192.671 1.15723 -7.0993 0
M  V30 2044 C 194.697 1.36314 -5.75476 0
M  V30 2045 C 194.059 1.04975 -6.96534 0
M  V30 2046 H 190.158 0.524739 -0.579805 0
M  V30 2047 H 192.742 0.787834 -1.78048 0
M  V30 2048 H 190.913 3.29237 -2.06053 0
M  V30 2049 H 192.645 3.32588 -2.30581 0
M  V30 2050 H 189.4 2.38433 -4.09202 0
M  V30 2051 H 189.824 1.57362 -6.58458 0
M  V30 2052 H 194.466 2.01805 -3.7153 0
M  V30 2053 H 192.184 0.91591 -8.02893 0
M  V30 2054 H 195.77 1.26731 -5.6783 0
M  V30 2055 H 194.65 0.725017 -7.80841 0
M  V30 2056 N 192.153 1.28127 0.917671 0
M  V30 2057 C 193.101 1.11569 2.04096 0
M  V30 2058 C 194.095 0.0360242 1.69362 0
M  V30 2059 O 195.301 0.194501 1.78946 0
M  V30 2060 H 191.676 0.344097 0.668656 0
M  V30 2061 H 193.647 2.06711 2.15205 0
M  V30 2062 C 192.396 0.790197 3.38602 0
M  V30 2063 H 191.719 1.61293 3.6582 0
M  V30 2064 H 193.159 0.714271 4.1794 0
M  V30 2065 C 191.618 -0.505897 3.3308 0
M  V30 2066 O 192.148 -1.53736 3.71117 0
M  V30 2067 N 190.354 -0.505193 2.86175 0
M  V30 2068 H 189.901 0.334621 2.55417 0
M  V30 2069 H 189.859 -1.37243 2.82863 0
M  V30 2070 N 193.631 -1.12557 1.10312 0
M  V30 2071 C 194.877 -1.84311 0.846011 0
M  V30 2072 C 195.21 -1.83805 -0.626859 0
M  V30 2073 O 194.485 -1.28268 -1.46211 0
M  V30 2074 C 194.768 -3.32048 1.39341 0
M  V30 2075 C 194.621 -3.41016 2.93305 0
M  V30 2076 C 195.94 -4.27764 1.03468 0
M  V30 2077 H 193.059 -0.669192 0.30879 0
M  V30 2078 H 195.701 -1.32057 1.36605 0
M  V30 2079 H 193.851 -3.76678 0.951087 0
M  V30 2080 H 195.523 -3.05031 3.46055 0
M  V30 2081 H 193.766 -2.81603 3.29973 0
M  V30 2082 H 194.437 -4.44948 3.26689 0
M  V30 2083 H 196.913 -3.91253 1.41633 0
M  V30 2084 H 195.789 -5.29549 1.44463 0
M  V30 2085 H 196.05 -4.42064 -0.0560404 0
M  V30 2086 N 195.109 -0.891671 -1.2995 0
M  V30 2087 C 196.337 -0.52866 -2.00032 0
M  V30 2088 C 196.752 0.884574 -1.66795 0
M  V30 2089 O 196.109 1.5827 -0.908669 0
M  V30 2090 C 196.16 -0.701814 -3.54622 0
M  V30 2091 O 195.881 -2.05942 -3.86678 0
M  V30 2092 C 197.382 -0.342683 -4.41973 0
M  V30 2093 H 194.602 -0.203659 -0.639347 0
M  V30 2094 H 197.146 -1.19881 -1.65677 0
M  V30 2095 H 195.301 -0.0789468 -3.8732 0
M  V30 2096 H 195.715 -2.08291 -4.81368 0
M  V30 2097 H 197.189 -0.514709 -5.49595 0
M  V30 2098 H 197.666 0.71975 -4.33262 0
M  V30 2099 H 198.272 -0.942154 -4.14733 0
M  V30 2100 N 196.587 1.43421 -0.653314 0
M  V30 2101 C 197.55 2.29182 0.0287951 0
M  V30 2102 C 198.55 1.42213 0.750465 0
M  V30 2103 O 199.74 1.63843 0.591701 0
M  V30 2104 C 196.872 3.24278 1.05151 0
M  V30 2105 H 198.065 2.90985 -0.725786 0
M  V30 2106 H 195.618 1.50702 -0.414545 0
M  V30 2107 H 196.353 2.6737 1.83532 0
M  V30 2108 H 196.138 3.88396 0.537687 0
M  V30 2109 H 197.628 3.88647 1.52786 0
M  V30 2110 N 198.065 0.39524 1.52563 0
M  V30 2111 C 199.314 -0.186321 2.00838 0
M  V30 2112 C 199.627 -1.47402 1.28577 0
M  V30 2113 O 200.833 -2.13599 1.67593 0
M  V30 2114 C 199.289 -0.382595 3.57861 0
M  V30 2115 C 198.897 0.892202 4.39026 0
M  V30 2116 C 200.641 -0.9202 4.14406 0
M  V30 2117 C 198.548 0.66388 5.87662 0
M  V30 2118 H 197.478 -0.0734041 0.750418 0
M  V30 2119 H 200.129 0.518552 1.76021 0
M  V30 2120 H 198.511 -1.14946 3.7895 0
M  V30 2121 H 199.685 1.66414 4.29701 0
M  V30 2122 H 198 1.35519 3.9373 0
M  V30 2123 H 200.597 -1.10683 5.23119 0
M  V30 2124 H 200.94 -1.89096 3.70875 0
M  V30 2125 H 201.473 -0.212751 3.97231 0
M  V30 2126 H 198.212 1.6058 6.35527 0
M  V30 2127 H 197.732 -0.0690193 5.9976 0
M  V30 2128 H 199.411 0.300699 6.46301 0
M  V30 2129 N 199.544 -1.57102 0.125237 0
M  V30 2130 C 200.507 -2.14471 -0.80838 0
M  V30 2131 C 201.507 -1.0811 -1.19033 0
M  V30 2132 O 202.697 -1.33856 -1.11482 0
M  V30 2133 C 199.829 -2.69005 -2.09402 0
M  V30 2134 H 201.022 -2.98297 -0.309696 0
M  V30 2135 H 198.575 -1.55807 -0.124051 0
M  V30 2136 H 199.31 -1.88785 -2.63687 0
M  V30 2137 H 199.095 -3.46799 -1.82957 0
M  V30 2138 H 200.585 -3.13278 -2.76128 0
M  V30 2139 N 201.022 0.148545 -1.56898 0
M  V30 2140 C 201.952 1.18524 -2.01182 0
M  V30 2141 C 202.933 1.4489 -0.891123 0
M  V30 2142 O 204.118 1.55836 -1.15882 0
M  V30 2143 C 201.248 2.51879 -2.39112 0
M  V30 2144 C 200.202 2.40038 -3.54353 0
M  V30 2145 C 199.528 3.78089 -3.78091 0
M  V30 2146 C 200.828 1.88577 -4.87069 0
M  V30 2147 H 202.522 0.817029 -2.88036 0
M  V30 2148 H 200.068 0.391575 -1.38574 0
M  V30 2149 H 202.021 3.24627 -2.68692 0
M  V30 2150 H 200.745 2.90532 -1.49193 0
M  V30 2151 H 199.404 1.69742 -3.24936 0
M  V30 2152 H 199.052 4.14175 -2.85426 0
M  V30 2153 H 198.752 3.71028 -4.55645 0
M  V30 2154 H 200.276 4.52387 -4.10095 0
M  V30 2155 H 201.69 2.51117 -5.15377 0
M  V30 2156 H 200.087 1.9241 -5.68417 0
M  V30 2157 H 201.157 0.84136 -4.77545 0
M  V30 2158 N 202.5 1.5196 0.417844 0
M  V30 2159 C 203.777 1.56146 1.17803 0
M  V30 2160 C 204.157 0.337275 2.08388 0
M  V30 2161 O 203.505 -0.676447 2.18258 0
M  V30 2162 C 203.715 2.88566 1.96293 0
M  V30 2163 C 205.063 3.41244 2.52662 0
M  V30 2164 O 206.087 2.90247 2.06483 0
M  V30 2165 O 204.946 4.30273 3.36938 0
M  V30 2166 H 202.04 0.628598 0.537395 0
M  V30 2167 H 204.586 1.64283 0.425331 0
M  V30 2168 H 203.358 3.69116 1.2988 0
M  V30 2169 H 202.981 2.83681 2.78587 0
M  V30 2170 N 203.978 -0.674533 1.42435 0
M  V30 2171 C 205.394 -0.98769 1.25367 0
M  V30 2172 C 205.594 -2.00879 0.158044 0
M  V30 2173 O 204.65 -2.48075 -0.470633 0
M  V30 2174 C 205.963 -1.49224 2.6106 0
M  V30 2175 C 207.511 -1.61 2.68417 0
M  V30 2176 C 207.986 -2.14852 4.04478 0
M  V30 2177 N 209.477 -2.22185 4.06434 0
M  V30 2178 C 210.212 -2.64928 5.08528 0
M  V30 2179 N 209.708 -3.07121 6.21006 0
M  V30 2180 N 211.501 -2.64679 4.95885 0
M  V30 2181 H 203.652 0.00152503 2.124 0
M  V30 2182 H 205.915 -0.0618434 0.945981 0
M  V30 2183 H 205.621 -0.816453 3.42092 0
M  V30 2184 H 205.495 -2.47094 2.84999 0
M  V30 2185 H 207.882 -2.27686 1.87732 0
M  V30 2186 H 207.963 -0.616195 2.48267 0
M  V30 2187 H 207.607 -1.48775 4.85622 0
M  V30 2188 H 207.537 -3.15024 4.2198 0
M  V30 2189 H 210.028 -1.92435 3.25234 0
M  V30 2190 H 210.341 -3.38423 6.94759 0
M  V30 2191 H 208.686 -3.04978 6.24511 0
M  V30 2192 H 211.877 -2.31078 4.07088 0
M  V30 2193 H 212.05 -2.9767 5.75584 0
M  V30 2194 N 205.456 -1.28612 -0.910864 0
M  V30 2195 C 206.686 -1.1862 -1.69153 0
M  V30 2196 C 207.094 0.257324 -1.87442 0
M  V30 2197 O 206.437 1.18543 -1.40332 0
M  V30 2198 C 206.499 -1.81606 -3.10257 0
M  V30 2199 C 206.163 -3.30864 -3.15243 0
M  V30 2200 C 207.16 -4.27256 -2.96223 0
M  V30 2201 C 204.845 -3.71871 -3.37664 0
M  V30 2202 C 206.839 -5.62631 -2.99541 0
M  V30 2203 C 204.526 -5.07371 -3.40614 0
M  V30 2204 C 205.524 -6.02561 -3.21573 0
M  V30 2205 O 205.212 -7.35589 -3.2429 0
M  V30 2206 H 204.944 -0.412633 -0.535453 0
M  V30 2207 H 207.498 -1.70306 -1.14827 0
M  V30 2208 H 205.728 -1.24418 -3.66138 0
M  V30 2209 H 207.417 -1.66092 -3.70362 0
M  V30 2210 H 208.183 -3.9691 -2.78725 0
M  V30 2211 H 204.062 -2.98241 -3.5153 0
M  V30 2212 H 207.606 -6.36907 -2.84597 0
M  V30 2213 H 203.503 -5.37366 -3.57642 0
M  V30 2214 H 204.271 -7.44252 -3.40633 0
M  V30 2215 N 206.934 1.1197 -1.10907 0
M  V30 2216 C 208.18 1.84059 -0.865674 0
M  V30 2217 C 208.535 1.82731 0.602254 0
M  V30 2218 O 207.828 1.26543 1.43866 0
M  V30 2219 C 208.022 3.30749 -1.35425 0
M  V30 2220 C 207.851 3.46363 -2.86815 0
M  V30 2221 C 206.621 3.59712 -3.54874 0
M  V30 2222 C 208.819 3.41116 -3.84895 0
M  V30 2223 N 206.801 3.63741 -4.94536 0
M  V30 2224 C 208.172 3.51698 -5.10596 0
M  V30 2225 C 210.227 3.24612 -3.77533 0
M  V30 2226 C 208.93 3.4748 -6.29802 0
M  V30 2227 C 210.956 3.21708 -4.96244 0
M  V30 2228 C 210.318 3.32856 -6.20795 0
M  V30 2229 H 206.417 0.689015 -0.369841 0
M  V30 2230 H 209.001 1.34016 -1.41237 0
M  V30 2231 H 207.172 3.79322 -0.834814 0
M  V30 2232 H 208.904 3.90718 -1.05458 0
M  V30 2233 H 205.659 3.62038 -3.05329 0
M  V30 2234 H 206.083 3.69408 -5.67333 0
M  V30 2235 H 210.725 3.14883 -2.8215 0
M  V30 2236 H 208.443 3.55978 -7.25469 0
M  V30 2237 H 212.029 3.10113 -4.92261 0
M  V30 2238 H 210.909 3.3059 -7.11112 0
M  V30 2239 N 208.412 0.89855 1.29475 0
M  V30 2240 C 209.637 0.538561 2.00285 0
M  V30 2241 C 210.062 -0.869135 1.66816 0
M  V30 2242 O 209.42 -1.57831 0.892145 0
M  V30 2243 C 209.468 0.736475 3.52999 0
M  V30 2244 O 208.572 -0.211537 4.11857 0
M  V30 2245 H 207.913 0.210563 0.62973 0
M  V30 2246 H 210.443 1.20982 1.64998 0
M  V30 2247 H 210.453 0.640685 4.02938 0
M  V30 2248 H 209.128 1.76276 3.76696 0
M  V30 2249 H 207.705 -0.0682991 3.72837 0
M  V30 2250 N 209.89 -1.43072 0.660911 0
M  V30 2251 C 211.139 -2.00942 0.174735 0
M  V30 2252 C 211.452 -1.52797 -1.22117 0
M  V30 2253 O 212.658 -2.02991 -1.80297 0
M  V30 2254 C 211.114 -3.58948 0.261559 0
M  V30 2255 C 210.722 -4.16085 1.66064 0
M  V30 2256 C 212.466 -4.24173 -0.166617 0
M  V30 2257 C 210.373 -5.6641 1.70098 0
M  V30 2258 H 209.303 -0.751483 0.0615631 0
M  V30 2259 H 211.954 -1.63955 0.824069 0
M  V30 2260 H 210.336 -3.93372 -0.455421 0
M  V30 2261 H 211.51 -3.93147 2.40359 0
M  V30 2262 H 209.825 -3.6326 2.03546 0
M  V30 2263 H 212.422 -5.34471 -0.156433 0
M  V30 2264 H 212.765 -3.98647 -1.19943 0
M  V30 2265 H 213.298 -3.94659 0.498875 0
M  V30 2266 H 210.037 -5.96715 2.71315 0
M  V30 2267 H 209.557 -5.91382 1.00139 0
M  V30 2268 H 211.236 -6.30585 1.44816 0
M  V30 2269 N 211.368 -0.403325 -1.52352 0
M  V30 2270 C 212.596 0.174012 -2.06167 0
M  V30 2271 C 213.011 1.39347 -1.27388 0
M  V30 2272 O 212.368 1.79597 -0.324201 0
M  V30 2273 C 212.419 0.530223 -3.5759 0
M  V30 2274 O 212.14 -0.640806 -4.33388 0
M  V30 2275 C 213.641 1.16192 -4.27802 0
M  V30 2276 H 210.861 0.0229464 -0.670608 0
M  V30 2277 H 213.405 -0.572604 -1.9632 0
M  V30 2278 H 211.56 1.22673 -3.67464 0
M  V30 2279 H 211.974 -0.344851 -5.23365 0
M  V30 2280 H 213.448 1.36141 -5.34948 0
M  V30 2281 H 213.925 2.13335 -3.83907 0
M  V30 2282 H 214.531 0.505775 -4.22282 0
M  V30 2283 N 212.846 1.57033 -0.133567 0
M  V30 2284 C 214.262 1.58035 0.222944 0
M  V30 2285 C 214.462 1.14713 1.6566 0
M  V30 2286 O 213.518 0.841218 2.38075 0
M  V30 2287 C 214.831 3.00691 -0.0236116 0
M  V30 2288 C 216.379 3.12973 0.0411512 0
M  V30 2289 C 216.854 4.57654 -0.177899 0
M  V30 2290 N 218.345 4.63033 -0.124365 0
M  V30 2291 C 219.08 5.72771 -0.268553 0
M  V30 2292 N 218.576 6.91206 -0.46972 0
M  V30 2293 N 220.369 5.61718 -0.2071 0
M  V30 2294 H 212.52 1.8349 -1.06981 0
M  V30 2295 H 214.783 0.848677 -0.422436 0
M  V30 2296 H 214.489 3.36726 -1.0153 0
M  V30 2297 H 214.363 3.70614 0.701808 0
M  V30 2298 H 216.75 2.76787 1.02338 0
M  V30 2299 H 216.831 2.45564 -0.716383 0
M  V30 2300 H 216.475 4.94542 -1.15717 0
M  V30 2301 H 216.405 5.23173 0.599797 0
M  V30 2302 H 218.896 3.7789 0.027011 0
M  V30 2303 H 219.209 7.70693 -0.570212 0
M  V30 2304 H 217.554 6.93156 -0.505876 0
M  V30 2305 H 220.745 4.68072 -0.0507986 0
M  V30 2306 H 220.918 6.47195 -0.322909 0
M  V30 2307 N 214.325 -0.140222 1.56975 0
M  V30 2308 C 215.275 -1.17827 1.95194 0
M  V30 2309 C 216.259 -1.38195 0.824075 0
M  V30 2310 O 217.451 -1.39643 1.0876 0
M  V30 2311 C 214.58 -2.51024 2.34184 0
M  V30 2312 C 213.666 -2.3422 3.53556 0
M  V30 2313 N 214.057 -1.87185 4.69889 0
M  V30 2314 C 212.355 -2.64949 3.58773 0
M  V30 2315 C 213.056 -1.83586 5.5197 0
M  V30 2316 N 212.032 -2.2715 4.93866 0
M  V30 2317 H 215.834 -0.806817 2.82609 0
M  V30 2318 H 213.348 -0.348208 1.58623 0
M  V30 2319 H 215.345 -3.26074 2.59772 0
M  V30 2320 H 214.005 -2.88945 1.48124 0
M  V30 2321 H 215.016 -1.57048 4.93514 0
M  V30 2322 H 211.693 -3.067 2.8327 0
M  V30 2323 H 213.083 -1.48655 6.55249 0
M  V30 2324 N 215.803 -1.52179 -0.40978 0
M  V30 2325 C 216.736 -1.70196 -1.52015 0
M  V30 2326 C 217.714 -0.549542 -1.53032 0
M  V30 2327 O 218.898 -0.776815 -1.71749 0
M  V30 2328 C 216.025 -1.74069 -2.90547 0
M  V30 2329 C 215.071 -2.95601 -3.07445 0
M  V30 2330 S 215.904 -4.55956 -2.80827 0
M  V30 2331 C 217.06 -4.62614 -4.21591 0
M  V30 2332 H 217.293 -2.64109 -1.36504 0
M  V30 2333 H 214.826 -1.4221 -0.601312 0
M  V30 2334 H 216.784 -1.76985 -3.70387 0
M  V30 2335 H 215.445 -0.812835 -3.034 0
M  V30 2336 H 214.638 -2.94791 -4.08796 0
M  V30 2337 H 214.24 -2.90569 -2.35469 0
M  V30 2338 H 216.532 -4.39951 -5.15218 0
M  V30 2339 H 217.475 -5.64548 -4.27424 0
M  V30 2340 H 217.883 -3.91654 -4.06531 0
M  V30 2341 N 217.281 0.66697 -1.42791 0
M  V30 2342 C 218.191 1.80962 -1.49299 0
M  V30 2343 C 219.207 1.69775 -0.381108 0
M  V30 2344 O 220.383 1.91188 -0.633188 0
M  V30 2345 C 217.448 3.17156 -1.40045 0
M  V30 2346 C 216.509 3.40242 -2.6179 0
M  V30 2347 C 215.742 4.69939 -2.52969 0
M  V30 2348 O 215.965 5.48372 -1.56985 0
M  V30 2349 O 214.899 4.94441 -3.43237 0
M  V30 2350 H 218.725 1.78427 -2.45759 0
M  V30 2351 H 216.31 0.823713 -1.24641 0
M  V30 2352 H 218.192 3.98413 -1.37276 0
M  V30 2353 H 216.867 3.20312 -0.467138 0
M  V30 2354 H 215.774 2.58802 -2.70134 0
M  V30 2355 H 217.107 3.41923 -3.54047 0
M  V30 2356 N 218.759 1.29093 0.90403 0
M  V30 2357 C 219.989 1.19516 1.68522 0
M  V30 2358 C 220.397 -0.24738 1.87576 0
M  V30 2359 O 219.74 -1.17798 1.40959 0
M  V30 2360 C 219.802 1.83249 3.0929 0
M  V30 2361 C 219.466 3.32531 3.13484 0
M  V30 2362 C 220.463 4.28821 2.93953 0
M  V30 2363 C 218.148 3.73656 3.35688 0
M  V30 2364 C 220.142 5.64212 2.96553 0
M  V30 2365 C 217.829 5.0917 3.37919 0
M  V30 2366 C 218.827 6.04258 3.18373 0
M  V30 2367 O 218.515 7.37298 3.20385 0
M  V30 2368 H 218.247 0.415467 0.533257 0
M  V30 2369 H 220.801 1.70912 1.13922 0
M  V30 2370 H 219.031 1.26358 3.65473 0
M  V30 2371 H 220.72 1.68054 3.69476 0
M  V30 2372 H 221.486 3.98382 2.76616 0
M  V30 2373 H 217.365 3.00101 3.49943 0
M  V30 2374 H 220.909 6.38407 2.81216 0
M  V30 2375 H 216.806 5.39256 3.54787 0
M  V30 2376 H 217.574 7.46048 3.36681 0
M  V30 2377 N 220.237 -1.11381 1.11499 0
M  V30 2378 C 221.465 -1.86934 0.88675 0
M  V30 2379 C 221.88 -1.80195 -0.563476 0
M  V30 2380 O 221.237 -1.18367 -1.38908 0
M  V30 2381 C 221.288 -3.35722 1.34064 0
M  V30 2382 O 221.009 -3.4232 2.73401 0
M  V30 2383 C 222.51 -4.2818 1.14791 0
M  V30 2384 H 219.73 -0.591117 0.317523 0
M  V30 2385 H 222.274 -1.40865 1.48248 0
M  V30 2386 H 220.429 -3.79294 0.788355 0
M  V30 2387 H 220.843 -4.34971 2.93087 0
M  V30 2388 H 222.317 -5.30817 1.5145 0
M  V30 2389 H 222.794 -4.39113 0.0875279 0
M  V30 2390 H 223.4 -3.90402 1.68721 0
M  V30 2391 N 221.715 -0.905404 -1.28997 0
M  V30 2392 C 222.645 -0.404212 -2.29975 0
M  V30 2393 C 223.626 0.523784 -1.61835 0
M  V30 2394 O 224.811 0.433298 -1.89304 0
M  V30 2395 C 221.941 0.364042 -3.45387 0
M  V30 2396 C 220.895 -0.474048 -4.25367 0
M  V30 2397 C 220.221 0.422045 -5.33032 0
M  V30 2398 C 221.521 -1.72696 -4.92923 0
M  V30 2399 H 223.215 -1.24807 -2.72146 0
M  V30 2400 H 220.761 -0.601585 -1.30832 0
M  V30 2401 H 222.714 0.725447 -4.15109 0
M  V30 2402 H 221.438 1.24174 -3.02074 0
M  V30 2403 H 220.097 -0.81786 -3.57361 0
M  V30 2404 H 219.745 1.29804 -4.85963 0
M  V30 2405 H 219.445 -0.135057 -5.87445 0
M  V30 2406 H 220.969 0.779517 -6.05604 0
M  V30 2407 H 222.383 -1.43495 -5.55051 0
M  V30 2408 H 220.78 -2.22582 -5.57295 0
M  V30 2409 H 221.85 -2.45964 -4.17887 0
M  V30 2410 N 223.193 1.4272 -0.668489 0
M  V30 2411 C 224.609 1.55992 -0.33745 0
M  V30 2412 C 224.809 1.64933 1.15756 0
M  V30 2413 O 223.865 1.61278 1.94282 0
M  V30 2414 C 225.178 2.81314 -1.06222 0
M  V30 2415 C 226.726 2.95078 -1.04394 0
M  V30 2416 C 227.201 4.23252 -1.74991 0
M  V30 2417 N 228.692 4.3015 -1.71829 0
M  V30 2418 C 229.427 5.28127 -2.23315 0
M  V30 2419 N 228.923 6.32293 -2.83156 0
M  V30 2420 N 230.716 5.19882 -2.13726 0
M  V30 2421 H 222.867 1.3516 -1.63846 0
M  V30 2422 H 225.13 0.650174 -0.689912 0
M  V30 2423 H 224.836 2.80823 -2.11734 0
M  V30 2424 H 224.71 3.72012 -0.62344 0
M  V30 2425 H 227.097 2.951 0.0028244 0
M  V30 2426 H 227.178 2.05627 -1.52155 0
M  V30 2427 H 226.822 4.2399 -2.79633 0
M  V30 2428 H 226.752 5.11626 -1.24685 0
M  V30 2429 H 229.243 3.55499 -1.28175 0
M  V30 2430 H 229.556 7.03398 -3.20079 0
M  V30 2431 H 227.901 6.32873 -2.87223 0
M  V30 2432 H 231.092 4.37423 -1.66669 0
M  V30 2433 H 231.265 5.96077 -2.54158 0
M  V30 2434 N 224.671 0.411399 1.52136 0
M  V30 2435 C 225.899 -0.163076 2.06256 0
M  V30 2436 C 226.314 -1.3867 1.28125 0
M  V30 2437 O 225.671 -1.79423 0.333721 0
M  V30 2438 C 225.722 -0.511252 3.57867 0
M  V30 2439 O 225.443 0.66378 4.33042 0
M  V30 2440 C 226.944 -1.13921 4.28412 0
M  V30 2441 H 224.164 -0.0193897 0.67072 0
M  V30 2442 H 226.708 0.583007 1.96013 0
M  V30 2443 H 224.863 -1.20723 3.6811 0
M  V30 2444 H 225.277 0.372601 5.23175 0
M  V30 2445 H 226.751 -1.33302 5.35663 0
M  V30 2446 H 227.228 -2.11296 3.85033 0
M  V30 2447 H 227.834 -0.483373 4.22544 0
M  V30 2448 N 226.149 -1.5696 0.141893 0
M  V30 2449 C 227.565 -1.58151 -0.21456 0
M  V30 2450 C 227.765 -1.1559 -1.65049 0
M  V30 2451 O 226.821 -0.853832 -2.37626 0
M  V30 2452 C 228.134 -3.00674 0.0395576 0
M  V30 2453 C 229.682 -3.1299 -0.0245529 0
M  V30 2454 C 230.157 -4.57554 0.202167 0
M  V30 2455 N 231.648 -4.62961 0.148919 0
M  V30 2456 C 232.383 -5.7262 0.298924 0
M  V30 2457 N 231.879 -6.90947 0.50637 0
M  V30 2458 N 233.672 -5.61601 0.236886 0
M  V30 2459 H 225.823 -1.8292 1.07953 0
M  V30 2460 H 228.086 -0.846425 0.42693 0
M  V30 2461 H 227.792 -3.36183 1.03315 0
M  V30 2462 H 227.666 -3.70981 -0.682143 0
M  V30 2463 H 230.053 -2.77326 -1.00869 0
M  V30 2464 H 230.134 -2.4518 0.729396 0
M  V30 2465 H 229.778 -4.93922 1.18338 0
M  V30 2466 H 229.708 -5.23484 -0.572044 0
M  V30 2467 H 232.199 -3.77899 -0.00697015 0
M  V30 2468 H 232.512 -7.7038 0.611076 0
M  V30 2469 H 230.857 -6.92878 0.542628 0
M  V30 2470 H 234.048 -4.68039 0.0756209 0
M  V30 2471 H 234.221 -6.47015 0.357227 0
M  V30 2472 N 227.627 0.131896 -1.57047 0
M  V30 2473 C 228.574 1.16236 -1.99393 0
M  V30 2474 C 229.544 1.41863 -0.863943 0
M  V30 2475 O 230.729 1.53946 -1.12718 0
M  V30 2476 C 227.869 2.48708 -2.39245 0
M  V30 2477 C 226.982 2.30127 -3.65603 0
M  V30 2478 C 226.117 3.55738 -3.94492 0
M  V30 2479 C 225.156 3.32259 -5.14073 0
M  V30 2480 N 224.293 4.50039 -5.38896 0
M  V30 2481 H 229.133 0.794251 -2.87221 0
M  V30 2482 H 226.67 0.380707 -1.42088 0
M  V30 2483 H 228.628 3.25969 -2.60384 0
M  V30 2484 H 227.258 2.83437 -1.54478 0
M  V30 2485 H 226.31 1.43845 -3.52154 0
M  V30 2486 H 227.622 2.08746 -4.5302 0
M  V30 2487 H 226.776 4.41423 -4.1621 0
M  V30 2488 H 225.515 3.80138 -3.05526 0
M  V30 2489 H 224.52 2.44963 -4.92212 0
M  V30 2490 H 225.745 3.09242 -6.04604 0
M  V30 2491 H 223.691 4.74584 -4.52886 0
M  V30 2492 H 223.608 4.31716 -6.2061 0
M  V30 2493 H 224.876 5.36895 -5.65123 0
M  V30 2494 N 229.106 1.52395 0.401703 0
M  V30 2495 C 230.346 1.68498 1.15705 0
M  V30 2496 C 230.71 0.409748 1.87577 0
M  V30 2497 O 231.911 0.446983 2.65058 0
M  V30 2498 C 230.182 2.87789 2.11924 0
M  V30 2499 S 231.741 3.24415 2.95466 0
M  V30 2500 H 228.559 0.593267 0.391862 0
M  V30 2501 H 231.161 1.90408 0.443282 0
M  V30 2502 H 229.865 3.7884 1.57824 0
M  V30 2503 H 229.396 2.68175 2.87829 0
M  V30 2504 H 231.411 2.73614 4.13944 0
M  V30 2505 N 230.584 -0.659388 1.43143 0
M  V30 2506 C 231.83 -1.42145 1.44647 0
M  V30 2507 C 232.163 -1.9408 0.0681907 0
M  V30 2508 O 231.438 -1.71899 -0.910007 0
M  V30 2509 C 231.721 -2.60735 2.48373 0
M  V30 2510 C 231.574 -2.14332 3.95451 0
M  V30 2511 C 232.893 -3.62951 2.48906 0
M  V30 2512 H 230.012 -0.51552 0.526696 0
M  V30 2513 H 232.654 -0.748069 1.74654 0
M  V30 2514 H 230.804 -3.18184 2.22916 0
M  V30 2515 H 232.476 -1.61932 4.31944 0
M  V30 2516 H 230.719 -1.4576 4.08578 0
M  V30 2517 H 231.39 -2.99583 4.63631 0
M  V30 2518 H 233.866 -3.1525 2.71582 0
M  V30 2519 H 232.742 -4.43487 3.23435 0
M  V30 2520 H 233.003 -4.15126 1.52061 0
M  V30 2521 N 232.062 -1.29571 -0.897171 0
M  V30 2522 C 233.287 -1.20705 -1.68656 0
M  V30 2523 C 233.712 0.228582 -1.86706 0
M  V30 2524 O 233.07 1.16494 -1.3892 0
M  V30 2525 C 233.118 -1.9282 -3.04717 0
M  V30 2526 O 232.222 -1.24697 -3.93096 0
M  V30 2527 H 231.563 -0.418126 -0.515816 0
M  V30 2528 H 234.093 -1.71183 -1.12061 0
M  V30 2529 H 234.103 -2.01372 -3.54843 0
M  V30 2530 H 232.778 -2.97239 -2.90899 0
M  V30 2531 H 231.355 -1.2442 -3.51531 0
M  V30 2532 N 233.54 1.10788 -1.12088 0
M  V30 2533 C 234.488 2.19111 -0.780587 0
M  V30 2534 C 235.482 1.67818 0.230961 0
M  V30 2535 O 236.688 1.79777 0.0895427 0
M  V30 2536 H 233.063 0.714477 -0.234578 0
M  V30 2537 H 235.034 2.45055 -1.70266 0
M  V30 2538 C 233.783 3.46818 -0.24747 0
M  V30 2539 H 233.106 3.86646 -1.01712 0
M  V30 2540 H 234.546 4.23973 -0.0476291 0
M  V30 2541 C 233.005 3.20968 1.02378 0
M  V30 2542 O 233.535 3.42298 2.10226 0
M  V30 2543 N 231.741 2.74658 0.949271 0
M  V30 2544 H 231.288 2.57501 0.0715173 0
M  V30 2545 H 231.246 2.57739 1.80049 0
M  V30 2546 N 235.018 0.912232 1.28515 0
M  V30 2547 C 236.264 0.545405 1.95328 0
M  V30 2548 C 236.597 -0.908313 1.71649 0
M  V30 2549 O 235.872 -1.64575 1.03659 0
M  V30 2550 C 236.155 0.853483 3.4984 0
M  V30 2551 C 236.008 2.35982 3.82926 0
M  V30 2552 C 237.327 0.348589 4.38717 0
M  V30 2553 H 234.446 0.199626 0.709449 0
M  V30 2554 H 237.088 1.1412 1.5191 0
M  V30 2555 H 235.238 0.34643 3.86952 0
M  V30 2556 H 236.91 2.93738 3.55691 0
M  V30 2557 H 235.153 2.81543 3.30024 0
M  V30 2558 H 235.824 2.52593 4.90816 0
M  V30 2559 H 238.3 0.78294 4.08668 0
M  V30 2560 H 237.176 0.593242 5.45685 0
M  V30 2561 H 237.437 -0.751049 4.35674 0
M  V30 2562 N 236.496 -1.42363 0.676048 0
M  V30 2563 C 237.429 -2.28141 -0.0516916 0
M  V30 2564 C 238.407 -1.41135 -0.807439 0
M  V30 2565 O 239.591 -1.70573 -0.802305 0
M  V30 2566 C 236.718 -3.21007 -1.08039 0
M  V30 2567 C 235.764 -4.24426 -0.420076 0
M  V30 2568 S 236.597 -5.29134 0.823246 0
M  V30 2569 C 237.753 -6.25566 -0.204344 0
M  V30 2570 H 237.986 -2.89515 0.675884 0
M  V30 2571 H 235.519 -1.47211 0.465635 0
M  V30 2572 H 237.477 -3.75048 -1.66881 0
M  V30 2573 H 236.138 -2.58766 -1.78042 0
M  V30 2574 H 235.331 -4.89596 -1.19633 0
M  V30 2575 H 234.933 -3.7388 0.0947845 0
M  V30 2576 H 237.225 -6.69098 -1.06369 0
M  V30 2577 H 238.168 -7.06895 0.412915 0
M  V30 2578 H 238.576 -5.61811 -0.55038 0
M  V30 2579 N 237.974 -0.419461 -1.51915 0
M  V30 2580 C 239.223 0.154346 -2.01109 0
M  V30 2581 C 239.536 1.45338 -1.30905 0
M  V30 2582 O 240.742 2.10906 -1.7097 0
M  V30 2583 C 239.198 0.325615 -3.58424 0
M  V30 2584 C 238.806 -0.961934 -4.37551 0
M  V30 2585 C 240.55 0.854155 -4.15818 0
M  V30 2586 C 238.457 -0.757287 -5.86531 0
M  V30 2587 H 237.387 0.0614563 -0.751491 0
M  V30 2588 H 240.038 -0.54649 -1.75173 0
M  V30 2589 H 238.42 1.08903 -3.80731 0
M  V30 2590 H 239.594 -1.7323 -4.26999 0
M  V30 2591 H 237.909 -1.41766 -3.91524 0
M  V30 2592 H 240.506 1.02346 -5.24814 0
M  V30 2593 H 240.849 1.83172 -3.73837 0
M  V30 2594 H 241.382 0.149528 -3.97519 0
M  V30 2595 H 238.121 -1.70671 -6.32892 0
M  V30 2596 H 237.641 -0.0264061 -5.99794 0
M  V30 2597 H 239.32 -0.403482 -6.45741 0
M  V30 2598 N 239.452 1.56882 -0.150215 0
M  V30 2599 C 240.415 2.1573 0.774157 0
M  V30 2600 C 241.415 1.0999 1.17298 0
M  V30 2601 O 242.605 1.35613 1.09338 0
M  V30 2602 C 239.737 2.72302 2.05096 0
M  V30 2603 H 240.93 2.98752 0.262201 0
M  V30 2604 H 238.483 1.55985 0.099248 0
M  V30 2605 H 239.218 1.92956 2.6065 0
M  V30 2606 H 239.003 3.49665 1.77416 0
M  V30 2607 H 240.493 3.17632 2.71109 0
M  V30 2608 N 240.93 -0.123565 1.57115 0
M  V30 2609 C 241.86 -1.15309 2.03042 0
M  V30 2610 C 242.841 -1.43454 0.914061 0
M  V30 2611 O 244.026 -1.53973 1.18347 0
M  V30 2612 C 241.156 -2.48043 2.43089 0
M  V30 2613 C 240.11 -2.3437 3.58127 0
M  V30 2614 C 239.436 -3.72026 3.84059 0
M  V30 2615 C 240.736 -1.80804 4.90007 0
M  V30 2616 H 242.43 -0.771102 2.893 0
M  V30 2617 H 239.976 -0.369479 1.39179 0
M  V30 2618 H 241.929 -3.20311 2.73823 0
M  V30 2619 H 240.653 -2.88122 1.53796 0
M  V30 2620 H 239.312 -1.64551 3.27595 0
M  V30 2621 H 238.96 -4.09582 2.91979 0
M  V30 2622 H 238.66 -3.63732 4.6149 0
M  V30 2623 H 240.184 -4.45806 4.1724 0
M  V30 2624 H 241.598 -2.42886 5.19307 0
M  V30 2625 H 239.995 -1.83343 5.71407 0
M  V30 2626 H 241.065 -0.76528 4.78823 0
M  V30 2627 N 242.408 -1.52605 -0.393616 0
M  V30 2628 C 243.636 -1.71294 -1.16043 0
M  V30 2629 C 244.051 -0.429259 -1.83855 0
M  V30 2630 O 243.408 0.595921 -1.72496 0
M  V30 2631 C 243.459 -2.8593 -2.21193 0
M  V30 2632 O 243.18 -4.09329 -1.56146 0
M  V30 2633 C 244.681 -3.16259 -3.10636 0
M  V30 2634 H 241.901 -0.573641 -0.348104 0
M  V30 2635 H 244.445 -1.99234 -0.461092 0
M  V30 2636 H 242.6 -2.60465 -2.86769 0
M  V30 2637 H 243.014 -4.73323 -2.25978 0
M  V30 2638 H 244.488 -3.99946 -3.80456 0
M  V30 2639 H 244.965 -2.3045 -3.73884 0
M  V30 2640 H 245.571 -3.43547 -2.50711 0
M  V30 2641 N 243.887 0.651787 -1.4349 0
M  V30 2642 C 245.133 1.4121 -1.46395 0
M  V30 2643 C 245.488 1.92202 -0.087366 0
M  V30 2644 O 244.781 1.69452 0.894231 0
M  V30 2645 C 244.975 2.60914 -2.44251 0
M  V30 2646 C 244.804 2.21639 -3.91288 0
M  V30 2647 C 243.574 2.09897 -4.59643 0
M  V30 2648 C 245.772 1.81835 -4.81083 0
M  V30 2649 N 243.754 1.63967 -5.91598 0
M  V30 2650 C 245.125 1.46998 -6.02322 0
M  V30 2651 C 247.18 1.69031 -4.6833 0
M  V30 2652 C 245.883 1.00638 -7.12225 0
M  V30 2653 C 247.909 1.24077 -5.78238 0
M  V30 2654 C 247.271 0.901772 -6.98604 0
M  V30 2655 H 243.37 0.512322 -0.590805 0
M  V30 2656 H 245.954 0.74989 -1.7968 0
M  V30 2657 H 244.125 3.24792 -2.1299 0
M  V30 2658 H 245.857 3.27622 -2.37584 0
M  V30 2659 H 242.612 2.297 -4.14168 0
M  V30 2660 H 243.036 1.43359 -6.61647 0
M  V30 2661 H 247.678 1.93878 -3.75727 0
M  V30 2662 H 245.396 0.745399 -8.04655 0
M  V30 2663 H 248.982 1.14657 -5.7039 0
M  V30 2664 H 247.862 0.559226 -7.82203 0
M  V30 2665 N 245.365 1.30045 0.890287 0
M  V30 2666 C 246.328 1.15963 1.977 0
M  V30 2667 C 247.328 0.0923777 1.60534 0
M  V30 2668 O 248.518 0.340071 1.70848 0
M  V30 2669 C 245.65 0.775451 3.31963 0
M  V30 2670 H 246.843 2.12502 2.11619 0
M  V30 2671 H 244.396 1.13366 1.07601 0
M  V30 2672 H 245.131 -0.189671 3.23745 0
M  V30 2673 H 244.916 1.54668 3.60306 0
M  V30 2674 H 246.406 0.700251 4.11687 0
M  V30 2675 N 246.843 -1.10192 1.12674 0
M  V30 2676 C 247.773 -2.18652 0.819362 0
M  V30 2677 C 248.754 -1.68698 -0.217915 0
M  V30 2678 O 249.939 -1.94041 -0.0785581 0
M  V30 2679 C 247.069 -3.46202 0.27594 0
M  V30 2680 C 246.023 -4.09444 1.24656 0
M  V30 2681 C 245.349 -5.31725 0.563258 0
M  V30 2682 C 246.649 -4.52863 2.60217 0
M  V30 2683 H 248.343 -2.44622 1.72628 0
M  V30 2684 H 245.889 -1.17571 0.831451 0
M  V30 2685 H 247.842 -4.21372 0.0486149 0
M  V30 2686 H 246.566 -3.1973 -0.666331 0
M  V30 2687 H 245.225 -3.36284 1.45974 0
M  V30 2688 H 244.873 -5.0153 -0.384235 0
M  V30 2689 H 244.573 -5.74991 1.21075 0
M  V30 2690 H 246.097 -6.09624 0.34503 0
M  V30 2691 H 247.511 -5.19294 2.42913 0
M  V30 2692 H 245.908 -5.06986 3.21068 0
M  V30 2693 H 246.978 -3.65656 3.18471 0
M  V30 2694 N 248.321 -0.919034 -1.28029 0
M  V30 2695 C 249.546 -0.570357 -1.99403 0
M  V30 2696 C 249.971 0.842486 -1.68178 0
M  V30 2697 O 249.329 1.56391 -0.917141 0
M  V30 2698 C 249.377 -0.792541 -3.51783 0
M  V30 2699 O 248.481 0.145988 -4.12142 0
M  V30 2700 H 247.822 -0.220555 -0.6263 0
M  V30 2701 H 250.352 -1.23592 -1.63053 0
M  V30 2702 H 250.362 -0.704708 -4.01868 0
M  V30 2703 H 249.037 -1.82247 -3.73844 0
M  V30 2704 H 247.614 0.00897528 -3.72899 0
M  V30 2705 N 249.799 1.42003 -0.683588 0
M  V30 2706 C 250.762 2.29191 -0.0198243 0
M  V30 2707 C 251.762 1.43773 0.72013 0
M  V30 2708 O 252.952 1.65061 0.556815 0
M  V30 2709 C 250.084 3.26435 0.982487 0
M  V30 2710 H 251.277 2.8938 -0.787345 0
M  V30 2711 H 248.83 1.49789 -0.446418 0
M  V30 2712 H 249.565 2.71203 1.77819 0
M  V30 2713 H 249.35 3.89449 0.455182 0
M  V30 2714 H 250.84 3.918 1.44508 0
M  V30 2715 N 251.277 0.427512 1.51691 0
M  V30 2716 C 252.523 -0.142439 2.02299 0
M  V30 2717 C 252.856 -1.43214 1.31162 0
M  V30 2718 O 252.131 -1.89833 0.423511 0
M  V30 2719 C 252.414 -0.371301 3.58181 0
M  V30 2720 C 252.267 0.936358 4.39946 0
M  V30 2721 C 253.586 -1.14542 4.24933 0
M  V30 2722 H 250.705 -0.0502937 0.735282 0
M  V30 2723 H 253.347 0.564584 1.81418 0
M  V30 2724 H 251.497 -0.973559 3.76104 0
M  V30 2725 H 253.169 1.57184 4.33694 0
M  V30 2726 H 251.412 1.5432 4.05423 0
M  V30 2727 H 252.083 0.730388 5.47147 0
M  V30 2728 H 254.559 -0.635362 4.11221 0
M  V30 2729 H 253.435 -1.27431 5.33903 0
M  V30 2730 H 253.696 -2.17093 3.85127 0
M  V30 2731 N 252.755 -1.56801 0.158532 0
M  V30 2732 C 254.004 -1.95665 -0.489702 0
M  V30 2733 C 254.317 -1.04654 -1.65248 0
M  V30 2734 O 255.523 -1.33146 -2.3661 0
M  V30 2735 C 253.979 -3.47874 -0.922582 0
M  V30 2736 C 253.587 -4.47489 0.213893 0
M  V30 2737 C 255.331 -3.95583 -1.53996 0
M  V30 2738 C 253.238 -5.90921 -0.237903 0
M  V30 2739 H 252.168 -0.730516 -0.186716 0
M  V30 2740 H 254.819 -1.81861 0.244722 0
M  V30 2741 H 253.201 -3.57051 -1.71261 0
M  V30 2742 H 254.375 -4.50017 0.991036 0
M  V30 2743 H 252.69 -4.09764 0.740407 0
M  V30 2744 H 255.287 -5.0019 -1.8898 0
M  V30 2745 H 255.63 -3.37789 -2.43319 0
M  V30 2746 H 256.163 -3.8937 -0.814611 0
M  V30 2747 H 252.902 -6.52559 0.620236 0
M  V30 2748 H 252.422 -5.91729 -0.980676 0
M  V30 2749 H 254.101 -6.43352 -0.686067 0
M  V30 2750 N 254.233 0.115231 -1.57178 0
M  V30 2751 C 255.458 0.840354 -1.89612 0
M  V30 2752 C 255.883 1.72464 -0.750845 0
M  V30 2753 O 255.241 1.78826 0.298478 0
M  V30 2754 C 255.289 1.64654 -3.20814 0
M  V30 2755 O 254.393 2.7538 -3.06985 0
M  V30 2756 H 253.734 0.232158 -0.622092 0
M  V30 2757 H 256.264 0.0964977 -2.04372 0
M  V30 2758 H 256.274 2.03499 -3.53627 0
M  V30 2759 H 254.949 0.997416 -4.03763 0
M  V30 2760 H 253.526 2.3971 -2.85646 0
M  V30 2761 N 255.711 1.52812 0.385517 0
M  V30 2762 C 256.641 1.80808 1.47752 0
M  V30 2763 C 257.622 0.660318 1.5676 0
M  V30 2764 O 258.807 0.908246 1.71652 0
M  V30 2765 C 255.937 1.98008 2.85324 0
M  V30 2766 C 254.891 3.13709 2.91154 0
M  V30 2767 C 254.217 3.16169 4.31209 0
M  V30 2768 C 255.517 4.52709 2.60483 0
M  V30 2769 H 257.211 2.72253 1.24573 0
M  V30 2770 H 254.757 1.31003 0.597839 0
M  V30 2771 H 256.71 2.16176 3.61726 0
M  V30 2772 H 255.434 1.03255 3.09848 0
M  V30 2773 H 254.093 2.95329 2.17201 0
M  V30 2774 H 253.741 2.19092 4.52778 0
M  V30 2775 H 253.441 3.93894 4.36029 0
M  V30 2776 H 254.965 3.36496 5.09512 0
M  V30 2777 H 256.379 4.71173 3.26602 0
M  V30 2778 H 254.776 5.32528 2.76648 0
M  V30 2779 H 255.846 4.59186 1.55809 0
M  V30 2780 N 257.189 -0.644168 1.43834 0
M  V30 2781 C 258.152 -1.73857 1.49353 0
M  V30 2782 C 259.152 -1.56315 0.377112 0
M  V30 2783 O 260.342 -1.62048 0.639226 0
M  V30 2784 C 257.474 -3.12819 1.35488 0
M  V30 2785 H 258.667 -1.70342 2.46827 0
M  V30 2786 H 256.22 -0.856652 1.30733 0
M  V30 2787 H 256.955 -3.2194 0.390569 0
M  V30 2788 H 256.74 -3.26958 2.16428 0
M  V30 2789 H 258.23 -3.92606 1.42302 0
M  V30 2790 N 258.668 -1.30515 -0.883378 0
M  V30 2791 C 260.079 -1.17509 -1.45081 0
M  V30 2792 C 260.43 0.223605 -1.94922 0
M  V30 2793 O 259.555 1.12041 -1.85137 0
M  V30 2794 C 260.15 -2.12715 -2.63701 0
M  V30 2795 C 258.709 -2.03682 -3.16529 0
M  V30 2796 C 257.856 -2.02706 -1.89224 0
M  V30 2797 H 260.807 -1.42762 -0.693165 0
M  V30 2798 H 260.828 -1.70891 -3.39965 0
M  V30 2799 H 260.34 -3.14505 -2.27395 0
M  V30 2800 H 258.441 -1.05039 -3.57488 0
M  V30 2801 H 258.554 -2.92146 -3.7972 0
M  V30 2802 H 256.918 -1.4753 -2.07622 0
M  V30 2803 H 257.701 -3.06229 -1.55174 0
M  V30 2804 N 260.146 1.09593 -1.13257 0
M  V30 2805 C 261.076 2.18214 -0.830946 0
M  V30 2806 C 262.057 1.68812 0.208966 0
M  V30 2807 O 263.242 1.9408 0.0682666 0
M  V30 2808 C 260.372 3.46051 -0.294296 0
M  V30 2809 C 259.326 4.08778 -1.26826 0
M  V30 2810 C 258.652 5.31419 -0.591449 0
M  V30 2811 C 259.952 4.51476 -2.62615 0
M  V30 2812 H 261.646 2.43703 -1.73923 0
M  V30 2813 H 259.192 1.17128 -0.837675 0
M  V30 2814 H 261.145 4.2134 -0.0709606 0
M  V30 2815 H 259.869 3.20079 0.649366 0
M  V30 2816 H 258.528 3.35505 -1.47756 0
M  V30 2817 H 258.176 5.01727 0.357633 0
M  V30 2818 H 257.876 5.74341 -1.24123 0
M  V30 2819 H 259.4 6.09433 -0.377355 0
M  V30 2820 H 260.814 5.17999 -2.45663 0
M  V30 2821 H 259.211 5.05277 -3.23752 0
M  V30 2822 H 260.281 3.63962 -3.20406 0
M  V30 2823 N 261.624 0.925811 1.2754 0
M  V30 2824 C 262.554 0.440748 2.29303 0
M  V30 2825 C 263.535 -0.497971 1.62648 0
M  V30 2826 O 264.72 -0.403126 1.8997 0
M  V30 2827 C 261.85 -0.309048 3.45922 0
M  V30 2828 C 260.804 0.54166 4.24559 0
M  V30 2829 C 260.13 -0.337191 5.33636 0
M  V30 2830 C 261.43 1.80516 4.90114 0
M  V30 2831 H 263.124 1.29121 2.70126 0
M  V30 2832 H 260.67 0.622323 1.29858 0
M  V30 2833 H 262.623 -0.659315 4.1621 0
M  V30 2834 H 261.347 -1.19352 3.04011 0
M  V30 2835 H 260.006 0.874609 3.56014 0
M  V30 2836 H 259.654 -1.22056 4.87966 0
M  V30 2837 H 259.354 0.228497 5.87156 0
M  V30 2838 H 260.878 -0.683072 6.06767 0
M  V30 2839 H 262.292 1.52307 5.52698 0
M  V30 2840 H 260.689 2.3142 5.53683 0
M  V30 2841 H 261.759 2.52581 4.13921 0
M  V30 2842 N 263.102 -1.41638 0.69111 0
M  V30 2843 C 264.349 -2.01299 0.220193 0
M  V30 2844 C 264.677 -1.54715 -1.17871 0
M  V30 2845 O 263.932 -0.747193 -1.80874 0
M  V30 2846 C 264.231 -3.56714 0.221277 0
M  V30 2847 C 263.897 -4.22792 1.56709 0
M  V30 2848 C 262.559 -4.40557 1.93554 0
M  V30 2849 C 264.911 -4.59883 2.45268 0
M  V30 2850 C 262.239 -4.92688 3.18552 0
M  V30 2851 C 264.591 -5.13403 3.69595 0
M  V30 2852 C 263.255 -5.29379 4.06589 0
M  V30 2853 H 262.525 -0.736606 0.0805743 0
M  V30 2854 H 265.172 -1.69598 0.889319 0
M  V30 2855 H 263.477 -3.8818 -0.531391 0
M  V30 2856 H 265.174 -4.00678 -0.160547 0
M  V30 2857 H 261.764 -4.09336 1.2705 0
M  V30 2858 H 265.948 -4.45817 2.18084 0
M  V30 2859 H 261.204 -5.03242 3.47214 0
M  V30 2860 H 265.378 -5.41084 4.38407 0
M  V30 2861 H 263.005 -5.69537 5.03519 0
M  V30 2862 N 264.58 -0.43555 -1.51462 0
M  V30 2863 C 265.828 0.131254 -2.01673 0
M  V30 2864 C 266.149 1.43368 -1.32177 0
M  V30 2865 O 265.419 1.90524 -0.455769 0
M  V30 2866 H 263.999 0.0514954 -0.745223 0
M  V30 2867 H 266.661 -0.577847 -1.86137 0
M  V30 2868 H 265.757 0.308446 -3.10572 0
M  V30 2869 N 266.058 1.56714 -0.166846 0
M  V30 2870 C 267.304 1.97813 0.473473 0
M  V30 2871 C 267.659 1.05095 1.61161 0
M  V30 2872 O 266.952 0.0897541 1.9139 0
M  V30 2873 C 267.146 3.42889 1.00806 0
M  V30 2874 C 266.975 4.49635 -0.0767392 0
M  V30 2875 C 265.745 5.02566 -0.524894 0
M  V30 2876 C 267.943 5.06793 -0.875504 0
M  V30 2877 N 265.925 5.9294 -1.59047 0
M  V30 2878 C 267.296 5.93565 -1.79111 0
M  V30 2879 C 269.351 4.89306 -0.921083 0
M  V30 2880 C 268.054 6.64721 -2.74843 0
M  V30 2881 C 270.08 5.61179 -1.86633 0
M  V30 2882 C 269.442 6.47675 -2.76942 0
M  V30 2883 H 265.541 0.769093 0.141489 0
M  V30 2884 H 268.125 1.92874 -0.266031 0
M  V30 2885 H 266.296 3.48382 1.7171 0
M  V30 2886 H 268.028 3.71008 1.61664 0
M  V30 2887 H 264.783 4.73439 -0.123432 0
M  V30 2888 H 265.207 6.42831 -2.12361 0
M  V30 2889 H 269.849 4.22136 -0.23692 0
M  V30 2890 H 267.567 7.31107 -3.44249 0
M  V30 2891 H 271.153 5.49636 -1.90764 0
M  V30 2892 H 270.033 7.02313 -3.48893 0
M  V30 2893 N 267.536 -0.106894 1.57237 0
M  V30 2894 C 268.784 -0.810921 1.85117 0
M  V30 2895 C 269.105 -1.7984 0.753827 0
M  V30 2896 O 268.375 -1.94649 -0.221056 0
M  V30 2897 H 266.955 -0.302466 0.683025 0
M  V30 2898 H 269.617 -0.0913324 1.94686 0
M  V30 2899 H 268.713 -1.34875 2.81452 0
M  V30 2900 N 269.014 -1.53014 -0.377408 0
M  V30 2901 C 269.924 -1.81557 -1.48574 0
M  V30 2902 C 270.94 -0.703102 -1.59162 0
M  V30 2903 O 272.116 -0.99192 -1.75279 0
M  V30 2904 C 269.181 -1.9889 -2.83978 0
M  V30 2905 C 268.242 -3.22801 -2.83016 0
M  V30 2906 C 267.475 -3.39298 -4.11962 0
M  V30 2907 O 267.698 -2.60345 -5.0752 0
M  V30 2908 O 266.632 -4.32604 -4.18494 0
M  V30 2909 H 270.458 -2.75695 -1.27382 0
M  V30 2910 H 268.043 -1.38248 -0.566373 0
M  V30 2911 H 269.925 -2.11931 -3.6423 0
M  V30 2912 H 268.6 -1.07942 -3.05172 0
M  V30 2913 H 267.507 -3.15193 -2.01505 0
M  V30 2914 H 268.84 -4.13632 -2.66775 0
M  V30 2915 N 270.492 0.636531 -1.44174 0
M  V30 2916 C 271.72 1.42353 -1.50144 0
M  V30 2917 C 272.135 1.88389 -0.124575 0
M  V30 2918 O 271.492 1.6051 0.868489 0
M  V30 2919 C 271.543 2.64744 -2.46156 0
M  V30 2920 O 271.264 2.20629 -3.7849 0
M  V30 2921 C 272.765 3.57929 -2.61537 0
M  V30 2922 H 269.985 0.436752 -0.5094 0
M  V30 2923 H 272.529 0.778933 -1.89084 0
M  V30 2924 H 270.684 3.25307 -2.10366 0
M  V30 2925 H 271.098 2.99938 -4.30276 0
M  V30 2926 H 272.572 4.40428 -3.32757 0
M  V30 2927 H 273.049 4.06382 -1.66585 0
M  V30 2928 H 273.655 3.03238 -2.98206 0
M  V30 2929 N 271.97 1.30982 0.876444 0
M  V30 2930 C 273.2 1.23063 1.65949 0
M  V30 2931 C 273.608 -0.207537 1.88058 0
M  V30 2932 O 272.951 -1.14781 1.43426 0
M  V30 2933 C 273.013 1.89768 3.05333 0
M  V30 2934 C 272.677 3.39106 3.0636 0
M  V30 2935 C 273.674 4.3496 2.84791 0
M  V30 2936 C 271.359 3.80693 3.27686 0
M  V30 2937 C 273.353 5.70375 2.84519 0
M  V30 2938 C 271.04 5.16223 3.27043 0
M  V30 2939 C 272.038 6.10875 3.05485 0
M  V30 2940 O 271.726 7.43928 3.04674 0
M  V30 2941 H 271.458 0.426685 0.524324 0
M  V30 2942 H 274.012 1.7329 1.10271 0
M  V30 2943 H 272.242 1.34082 3.6271 0
M  V30 2944 H 273.931 1.75853 3.65829 0
M  V30 2945 H 274.697 4.0416 2.68103 0
M  V30 2946 H 270.576 3.07457 3.43499 0
M  V30 2947 H 274.12 6.44228 2.67611 0
M  V30 2948 H 270.017 5.4666 3.43269 0
M  V30 2949 H 270.785 7.53022 3.2078 0
M  V30 2950 N 273.449 -1.08991 1.13837 0
M  V30 2951 C 274.674 -1.85551 0.926585 0
M  V30 2952 C 275.099 -1.80782 -0.519566 0
M  V30 2953 O 274.457 -1.18855 -1.36906 0
M  V30 2954 C 274.505 -3.31266 1.42462 0
M  V30 2955 O 273.609 -4.07822 0.612789 0
M  V30 2956 H 272.95 -0.575192 0.331738 0
M  V30 2957 H 275.48 -1.37604 1.51414 0
M  V30 2958 H 275.49 -3.82112 1.43019 0
M  V30 2959 H 274.165 -3.34052 2.47754 0
M  V30 2960 H 272.742 -3.66731 0.675463 0
M  V30 2961 N 274.927 -0.932562 -1.27047 0
M  V30 2962 C 275.837 -0.441219 -2.30414 0
M  V30 2963 C 276.853 0.480525 -1.67233 0
M  V30 2964 O 278.029 0.362151 -1.98117 0
M  V30 2965 C 275.094 0.293651 -3.45454 0
M  V30 2966 C 274.155 -0.663601 -4.2414 0
M  V30 2967 C 273.388 0.0362932 -5.33688 0
M  V30 2968 O 273.611 1.2548 -5.56427 0
M  V30 2969 O 272.545 -0.638015 -5.98509 0
M  V30 2970 H 276.371 -1.29962 -2.74488 0
M  V30 2971 H 273.956 -0.6981 -1.32087 0
M  V30 2972 H 275.838 0.707951 -4.15411 0
M  V30 2973 H 274.513 1.12758 -3.03426 0
M  V30 2974 H 273.42 -1.12768 -3.56699 0
M  V30 2975 H 274.753 -1.46489 -4.69896 0
M  V30 2976 N 276.405 1.4127 -0.698611 0
M  V30 2977 C 277.653 2.00782 -0.230409 0
M  V30 2978 C 277.974 1.5562 1.17505 0
M  V30 2979 O 277.244 0.78815 1.79346 0
M  V30 2980 H 275.824 0.742464 -0.0821944 0
M  V30 2981 H 278.486 1.72852 -0.90045 0
M  V30 2982 H 277.582 3.11095 -0.25021 0
M  V30 2983 N 277.883 0.443576 1.51229 0
M  V30 2984 C 279.108 -0.121648 2.07043 0
M  V30 2985 C 279.533 -1.35156 1.30823 0
M  V30 2986 O 278.891 -1.7793 0.347934 0
M  V30 2987 C 278.939 -0.41624 3.5819 0
M  V30 2988 O 278.043 -1.50163 3.8409 0
M  V30 2989 H 277.384 0.000871367 0.663999 0
M  V30 2990 H 279.914 0.626706 1.94765 0
M  V30 2991 H 279.924 -0.664867 4.02546 0
M  V30 2992 H 278.599 0.482653 4.1309 0
M  V30 2993 H 277.176 -1.24248 3.51592 0
M  V30 2994 N 279.361 -1.56624 0.175154 0
M  V30 2995 C 280.271 -2.21741 -0.766042 0
M  V30 2996 C 281.287 -1.21023 -1.25018 0
M  V30 2997 O 282.463 -1.53697 -1.3015 0
M  V30 2998 C 279.528 -2.84839 -1.97655 0
M  V30 2999 C 278.589 -4.00769 -1.53892 0
M  V30 3000 C 277.822 -4.60849 -2.69173 0
M  V30 3001 O 278.045 -4.19823 -3.86141 0
M  V30 3002 O 276.979 -5.50655 -2.43028 0
M  V30 3003 H 280.805 -3.02738 -0.241585 0
M  V30 3004 H 278.39 -1.49305 -0.053222 0
M  V30 3005 H 280.272 -3.24834 -2.68442 0
M  V30 3006 H 278.947 -2.06836 -2.48999 0
M  V30 3007 H 277.854 -3.65436 -0.80044 0
M  V30 3008 H 279.187 -4.80376 -1.07236 0
M  V30 3009 N 280.839 0.0985539 -1.57292 0
M  V30 3010 C 281.749 1.13824 -2.05137 0
M  V30 3011 C 282.765 1.44076 -0.975604 0
M  V30 3012 O 283.941 1.54786 -1.28853 0
M  V30 3013 C 281.006 2.43969 -2.46333 0
M  V30 3014 C 280.067 2.2093 -3.68087 0
M  V30 3015 C 279.3 3.44869 -4.0731 0
M  V30 3016 O 279.523 4.52972 -3.46659 0
M  V30 3017 O 278.457 3.34661 -5.00285 0
M  V30 3018 H 282.283 0.761881 -2.93988 0
M  V30 3019 H 279.868 0.310818 -1.46131 0
M  V30 3020 H 281.75 3.20609 -2.73473 0
M  V30 3021 H 280.425 2.81038 -1.60621 0
M  V30 3022 H 279.332 1.42081 -3.46069 0
M  V30 3023 H 280.665 1.88755 -4.54568 0
M  V30 3024 N 282.317 1.53212 0.369288 0
M  V30 3025 C 283.557 1.70915 1.12105 0
M  V30 3026 C 283.921 0.449444 1.86665 0
M  V30 3027 O 285.122 0.503105 2.6405 0
M  V30 3028 C 283.393 2.9222 2.05772 0
M  V30 3029 S 284.952 3.30609 2.88519 0
M  V30 3030 H 281.77 0.601445 0.379189 0
M  V30 3031 H 284.372 1.91306 0.402794 0
M  V30 3032 H 283.076 3.82103 1.49752 0
M  V30 3033 H 282.607 2.7422 2.82076 0
M  V30 3034 H 284.622 2.82333 4.08047 0
M  V30 3035 N 283.795 -0.628877 1.44509 0
M  V30 3036 C 284.727 -1.754 1.47538 0
M  V30 3037 C 285.74 -1.58575 0.368506 0
M  V30 3038 O 286.929 -1.66847 0.634376 0
M  V30 3039 C 284.029 -3.1315 1.29577 0
M  V30 3040 C 283.202 -3.56413 2.53551 0
M  V30 3041 C 282.261 -4.7305 2.30457 0
M  V30 3042 O 281.287 -4.81247 3.03957 0
M  V30 3043 N 282.489 -5.64903 1.3366 0
M  V30 3044 H 285.254 -1.73272 2.44534 0
M  V30 3045 H 282.815 -0.813512 1.39977 0
M  V30 3046 H 284.807 -3.88902 1.11971 0
M  V30 3047 H 283.377 -3.09908 0.409371 0
M  V30 3048 H 282.597 -2.70847 2.86419 0
M  V30 3049 H 283.885 -3.82071 3.36005 0
M  V30 3050 H 283.283 -5.60975 0.729604 0
M  V30 3051 H 281.84 -6.40275 1.22032 0
M  V30 3052 N 285.273 -1.31445 -0.869486 0
M  V30 3053 C 286.519 -1.21337 -1.62496 0
M  V30 3054 C 286.852 0.227872 -1.92858 0
M  V30 3055 O 286.127 1.16094 -1.56053 0
M  V30 3056 C 286.41 -2.05814 -2.95487 0
M  V30 3057 C 286.263 -3.5824 -2.72 0
M  V30 3058 C 287.582 -1.9079 -3.96594 0
M  V30 3059 H 284.701 -0.442135 -0.589649 0
M  V30 3060 H 287.343 -1.6124 -1.00507 0
M  V30 3061 H 285.493 -1.71913 -3.48394 0
M  V30 3062 H 287.165 -4.0228 -2.25762 0
M  V30 3063 H 285.408 -3.81647 -2.06224 0
M  V30 3064 H 286.079 -4.12657 -3.66631 0
M  V30 3065 H 288.555 -2.20459 -3.52898 0
M  V30 3066 H 287.431 -2.52199 -4.87531 0
M  V30 3067 H 287.692 -0.871341 -4.33428 0
M  V30 3068 N 286.751 1.08385 -1.14413 0
M  V30 3069 C 287.976 1.85057 -0.936413 0
M  V30 3070 C 288.401 1.81055 0.509971 0
M  V30 3071 O 287.759 1.1958 1.36273 0
M  V30 3072 C 287.807 3.30505 -1.44217 0
M  V30 3073 O 286.911 4.07491 -0.634409 0
M  V30 3074 H 286.252 0.573425 -0.334784 0
M  V30 3075 H 288.782 1.36799 -1.52142 0
M  V30 3076 H 288.792 3.81348 -1.45043 0
M  V30 3077 H 287.467 3.32734 -2.49522 0
M  V30 3078 H 286.044 3.66368 -0.694902 0
M  V30 3079 N 288.23 0.939286 1.26551 0
M  V30 3080 C 289.646 0.641304 1.46149 0
M  V30 3081 C 289.846 -0.805964 1.84679 0
M  V30 3082 O 288.902 -1.58278 1.96734 0
M  V30 3083 C 290.215 1.6011 2.54529 0
M  V30 3084 C 291.763 1.6106 2.68382 0
M  V30 3085 C 292.238 2.55765 3.79932 0
M  V30 3086 N 293.729 2.5404 3.87322 0
M  V30 3087 C 294.464 3.24004 4.73085 0
M  V30 3088 N 293.96 4.03388 5.63249 0
M  V30 3089 N 295.753 3.12965 4.66914 0
M  V30 3090 H 287.904 1.87478 0.998285 0
M  V30 3091 H 290.167 0.805559 0.499779 0
M  V30 3092 H 289.873 2.63412 2.33039 0
M  V30 3093 H 289.747 1.35171 3.52149 0
M  V30 3094 H 292.134 0.584835 2.89247 0
M  V30 3095 H 292.215 1.90053 1.71212 0
M  V30 3096 H 291.859 3.58458 3.5982 0
M  V30 3097 H 291.789 2.24063 4.76554 0
M  V30 3098 H 294.28 1.96396 3.22858 0
M  V30 3099 H 294.593 4.5373 6.25579 0
M  V30 3100 H 292.938 4.07489 5.63008 0
M  V30 3101 H 296.129 2.50432 3.95476 0
M  V30 3102 H 296.302 3.67759 5.33533 0
M  V30 3103 N 289.708 -1.40897 0.706093 0
M  V30 3104 C 290.618 -2.3455 0.0482286 0
M  V30 3105 C 291.634 -1.56796 -0.754396 0
M  V30 3106 O 292.81 -1.89228 -0.689538 0
M  V30 3107 C 289.875 -3.35625 -0.869303 0
M  V30 3108 C 288.936 -4.29261 -0.0576994 0
M  V30 3109 C 288.169 -5.25508 -0.931531 0
M  V30 3110 O 288.392 -5.27472 -2.17092 0
M  V30 3111 O 287.326 -6.00727 -0.375587 0
M  V30 3112 H 291.152 -2.92407 0.820476 0
M  V30 3113 H 288.737 -1.4193 0.4665 0
M  V30 3114 H 290.619 -3.97635 -1.39514 0
M  V30 3115 H 289.294 -2.80196 -1.62086 0
M  V30 3116 H 288.201 -3.70566 0.512988 0
M  V30 3117 H 289.534 -4.87817 0.655426 0
M  V30 3118 N 291.186 -0.45159 -1.50991 0
M  V30 3119 C 292.597 0.00818571 -1.86698 0
M  V30 3120 C 292.948 1.40661 -1.3678 0
M  V30 3121 O 292.073 2.0391 -0.724546 0
M  V30 3122 C 292.668 0.0216303 -3.38793 0
M  V30 3123 C 291.227 0.425865 -3.73983 0
M  V30 3124 C 290.374 -0.372163 -2.74791 0
M  V30 3125 H 293.325 -0.666785 -1.44013 0
M  V30 3126 H 293.346 0.828078 -3.7138 0
M  V30 3127 H 292.858 -0.996288 -3.75094 0
M  V30 3128 H 290.959 1.44886 -3.43277 0
M  V30 3129 H 291.072 0.140761 -4.78893 0
M  V30 3130 H 289.436 0.171498 -2.54122 0
M  V30 3131 H 290.219 -1.38922 -3.13935 0
M  V30 3132 N 292.664 1.56529 -0.183458 0
M  V30 3133 C 293.889 2.02064 0.467428 0
M  V30 3134 C 294.314 1.06282 1.55196 0
M  V30 3135 O 293.672 0.0443565 1.81246 0
M  V30 3136 C 293.72 3.46122 1.01153 0
M  V30 3137 O 292.824 3.53437 2.12499 0
M  V30 3138 H 292.165 0.654726 0.110588 0
M  V30 3139 H 294.695 2.02521 -0.290917 0
M  V30 3140 H 294.705 3.85676 1.33108 0
M  V30 3141 H 293.38 4.15331 0.217533 0
M  V30 3142 H 291.957 3.2575 1.81497 0
M  V30 3143 N 294.142 -0.090211 1.57342 0
M  V30 3144 C 295.372 -0.805055 1.90269 0
M  V30 3145 C 295.78 -1.72561 0.775842 0
M  V30 3146 O 295.123 -1.81839 -0.260843 0
M  V30 3147 C 295.185 -1.66734 3.18497 0
M  V30 3148 C 294.849 -0.918092 4.47683 0
M  V30 3149 C 295.846 -0.245674 5.19319 0
M  V30 3150 C 293.531 -0.890724 4.94339 0
M  V30 3151 C 295.525 0.444088 6.35851 0
M  V30 3152 C 293.212 -0.197179 6.10782 0
M  V30 3153 C 294.21 0.469044 6.81388 0
M  V30 3154 O 293.898 1.15146 7.95611 0
M  V30 3155 H 293.63 -0.235143 0.633785 0
M  V30 3156 H 296.184 -0.0703805 2.05279 0
M  V30 3157 H 294.414 -2.44437 2.99646 0
M  V30 3158 H 296.103 -2.25919 3.37217 0
M  V30 3159 H 296.869 -0.258246 4.84312 0
M  V30 3160 H 292.748 -1.39873 4.39268 0
M  V30 3161 H 296.292 0.964667 6.90898 0
M  V30 3162 H 292.189 -0.18247 6.45242 0
M  V30 3163 H 292.957 1.05885 8.11622 0
M  V30 3164 N 295.62 -1.53406 -0.361157 0
M  V30 3165 C 296.583 -1.79479 -1.42548 0
M  V30 3166 C 297.583 -0.665327 -1.4639 0
M  V30 3167 O 298.773 -0.933549 -1.47073 0
M  V30 3168 C 295.905 -1.92087 -2.8163 0
M  V30 3169 H 297.098 -2.74538 -1.20701 0
M  V30 3170 H 294.651 -1.4455 -0.594546 0
M  V30 3171 H 295.386 -0.991099 -3.08784 0
M  V30 3172 H 295.171 -2.74241 -2.80239 0
M  V30 3173 H 296.661 -2.13836 -3.58697 0
M  V30 3174 N 297.098 0.621204 -1.44841 0
M  V30 3175 C 298.344 1.3826 -1.48365 0
M  V30 3176 C 298.677 1.93831 -0.119624 0
M  V30 3177 O 297.952 1.74251 0.864111 0
M  V30 3178 C 298.235 2.54058 -2.55199 0
M  V30 3179 C 298.088 2.03772 -4.00995 0
M  V30 3180 C 299.407 3.56225 -2.58442 0
M  V30 3181 H 296.526 0.501374 -0.540179 0
M  V30 3182 H 299.168 0.7015 -1.76576 0
M  V30 3183 H 297.318 3.12162 -2.31274 0
M  V30 3184 H 298.99 1.50423 -4.36086 0
M  V30 3185 H 297.233 1.34876 -4.12299 0
M  V30 3186 H 297.904 2.87185 -4.71411 0
M  V30 3187 H 300.38 3.07939 -2.79844 0
M  V30 3188 H 299.256 4.34756 -3.3508 0
M  V30 3189 H 299.517 4.10949 -1.63013 0
M  V30 3190 N 298.576 1.31904 0.862503 0
M  V30 3191 C 299.823 1.22017 1.61611 0
M  V30 3192 C 300.151 -0.21991 1.93253 0
M  V30 3193 O 299.406 -1.17076 1.56817 0
M  V30 3194 C 299.705 2.01713 2.95037 0
M  V30 3195 C 299.371 3.51145 2.82857 0
M  V30 3196 C 298.033 3.91889 2.79243 0
M  V30 3197 C 300.385 4.46204 2.69353 0
M  V30 3198 C 297.713 5.25947 2.59993 0
M  V30 3199 C 300.065 5.80397 2.5164 0
M  V30 3200 C 298.729 6.20352 2.46413 0
M  V30 3201 H 297.999 0.44649 0.591378 0
M  V30 3202 H 300.646 1.63248 1.00111 0
M  V30 3203 H 298.951 1.53185 3.60613 0
M  V30 3204 H 300.648 1.91437 3.52353 0
M  V30 3205 H 297.238 3.1878 2.86491 0
M  V30 3206 H 301.422 4.15652 2.71196 0
M  V30 3207 H 296.678 5.5597 2.54376 0
M  V30 3208 H 300.852 6.53676 2.40169 0
M  V30 3209 H 298.479 7.24172 2.31256 0
M  V30 3210 N 300.054 -1.07777 1.14986 0
M  V30 3211 C 301.279 -1.84558 0.946213 0
M  V30 3212 C 301.704 -1.81323 -0.500362 0
M  V30 3213 O 301.062 -1.20301 -1.35637 0
M  V30 3214 C 301.11 -3.29736 1.45968 0
M  V30 3215 O 300.214 -4.07149 0.65601 0
M  V30 3216 H 299.555 -0.571641 0.33782 0
M  V30 3217 H 302.085 -1.35991 1.52865 0
M  V30 3218 H 302.095 -3.80574 1.47063 0
M  V30 3219 H 300.77 -3.31406 2.51283 0
M  V30 3220 H 299.347 -3.65994 0.714322 0
M  V30 3221 N 301.532 -0.945985 -1.26051 0
M  V30 3222 C 302.76 -0.613025 -1.9761 0
M  V30 3223 C 303.175 0.813035 -1.70397 0
M  V30 3224 O 302.532 1.54274 -0.974979 0
M  V30 3225 C 302.583 -0.85159 -3.51326 0
M  V30 3226 O 302.304 -2.22157 -3.77595 0
M  V30 3227 C 303.805 -0.529831 -4.40122 0
M  V30 3228 H 301.025 -0.230593 -0.630133 0
M  V30 3229 H 303.569 -1.268 -1.60443 0
M  V30 3230 H 301.724 -0.243151 -3.86636 0
M  V30 3231 H 302.138 -2.2852 -4.721 0
M  V30 3232 H 303.612 -0.747348 -5.46917 0
M  V30 3233 H 304.089 0.535341 -4.35925 0
M  V30 3234 H 304.695 -1.11721 -4.10364 0
M  V30 3235 N 303.011 1.40521 -0.713556 0
M  V30 3236 C 304.257 2.01221 -0.252564 0
M  V30 3237 C 304.59 1.56444 1.1506 0
M  V30 3238 O 303.865 0.783597 1.78017 0
M  V30 3239 C 304.148 3.58582 -0.330332 0
M  V30 3240 C 304.001 4.13437 -1.77173 0
M  V30 3241 C 305.32 4.39079 0.299641 0
M  V30 3242 H 302.439 0.731077 -0.0932471 0
M  V30 3243 H 305.081 1.67026 -0.905673 0
M  V30 3244 H 303.231 3.87844 0.225737 0
M  V30 3245 H 304.903 3.9498 -2.38303 0
M  V30 3246 H 303.146 3.67801 -2.3001 0
M  V30 3247 H 303.817 5.22597 -1.77755 0
M  V30 3248 H 306.293 4.15735 -0.174139 0
M  V30 3249 H 305.169 5.4848 0.214771 0
M  V30 3250 H 305.43 4.19915 1.38288 0
M  V30 3251 N 304.489 0.459591 1.5075 0
M  V30 3252 C 305.737 -0.0991532 2.01857 0
M  V30 3253 C 306.058 -1.41247 1.34441 0
M  V30 3254 O 305.328 -1.89775 0.486022 0
M  V30 3255 H 303.908 -0.039633 0.745948 0
M  V30 3256 H 306.57 0.607387 1.85194 0
M  V30 3257 H 305.666 -0.258998 3.11023 0
M  V30 3258 N 305.967 -1.56429 0.191757 0
M  V30 3259 C 306.93 -2.17707 -0.716688 0
M  V30 3260 C 307.93 -1.13061 -1.14341 0
M  V30 3261 O 309.12 -1.38464 -1.05704 0
M  V30 3262 C 306.252 -2.77644 -1.97804 0
M  V30 3263 H 307.445 -2.99342 -0.1829 0
M  V30 3264 H 304.998 -1.56193 -0.0578566 0
M  V30 3265 H 305.733 -1.99799 -2.55443 0
M  V30 3266 H 305.518 -3.54246 -1.68083 0
M  V30 3267 H 307.008 -3.24708 -2.62592 0
M  V30 3268 N 307.445 0.0818655 -1.57387 0
M  V30 3269 C 308.692 0.782914 -1.86753 0
M  V30 3270 C 309.02 1.78082 -0.782118 0
M  V30 3271 O 308.275 1.94426 0.22295 0
M  V30 3272 C 308.574 1.53513 -3.22752 0
M  V30 3273 C 308.24 0.678134 -4.45771 0
M  V30 3274 C 306.902 0.441929 -4.79166 0
M  V30 3275 C 309.254 0.0832243 -5.21134 0
M  V30 3276 C 306.582 -0.398833 -5.85343 0
M  V30 3277 C 308.934 -0.744935 -6.28199 0
M  V30 3278 C 307.598 -0.991107 -6.60101 0
M  V30 3279 H 306.868 0.286489 -0.683378 0
M  V30 3280 H 309.515 0.0439808 -1.91449 0
M  V30 3281 H 307.82 2.34599 -3.138 0
M  V30 3282 H 309.517 2.08218 -3.42705 0
M  V30 3283 H 306.107 0.872357 -4.19628 0
M  V30 3284 H 310.291 0.252847 -4.95655 0
M  V30 3285 H 305.547 -0.598405 -6.08465 0
M  V30 3286 H 309.721 -1.21271 -6.8576 0
M  V30 3287 H 307.348 -1.64437 -7.42202 0
M  V30 3288 N 308.923 1.53595 0.353017 0
M  V30 3289 C 310.153 1.74058 1.11299 0
M  V30 3290 C 310.561 0.475205 1.83135 0
M  V30 3291 O 309.904 -0.562344 1.74881 0
M  V30 3292 C 309.966 2.85994 2.17825 0
M  V30 3293 C 309.63 4.25923 1.65647 0
M  V30 3294 C 310.627 5.07829 1.11383 0
M  V30 3295 C 308.312 4.72377 1.7078 0
M  V30 3296 C 310.306 6.34285 0.629439 0
M  V30 3297 C 307.993 5.98808 1.21953 0
M  V30 3298 C 308.991 6.79594 0.681265 0
M  V30 3299 O 308.679 8.03651 0.200248 0
M  V30 3300 H 308.411 0.585327 0.338183 0
M  V30 3301 H 310.965 2.01186 0.413927 0
M  V30 3302 H 309.195 2.54368 2.91262 0
M  V30 3303 H 310.884 2.94515 2.79313 0
M  V30 3304 H 311.65 4.73107 1.06746 0
M  V30 3305 H 307.529 4.0956 2.11617 0
M  V30 3306 H 311.073 6.97288 0.208636 0
M  V30 3307 H 306.97 6.33026 1.26287 0
M  V30 3308 H 307.738 8.1788 0.318416 0
M  V30 3309 N 310.401 -0.613514 1.45168 0
M  V30 3310 C 311.331 -1.7354 1.56225 0
M  V30 3311 C 312.312 -1.64981 0.41414 0
M  V30 3312 O 313.497 -1.83472 0.636526 0
M  V30 3313 C 310.627 -3.12128 1.52295 0
M  V30 3314 C 309.581 -3.35491 2.65762 0
M  V30 3315 C 308.907 -4.74291 2.46885 0
M  V30 3316 C 310.207 -3.26325 4.0781 0
M  V30 3317 H 311.901 -1.64543 2.50132 0
M  V30 3318 H 309.447 -0.790185 1.20383 0
M  V30 3319 H 311.4 -3.90404 1.58628 0
M  V30 3320 H 310.124 -3.2195 0.549139 0
M  V30 3321 H 308.783 -2.59603 2.58847 0
M  V30 3322 H 308.431 -4.80839 1.47657 0
M  V30 3323 H 308.131 -4.9088 3.22972 0
M  V30 3324 H 309.655 -5.54775 2.55063 0
M  V30 3325 H 311.069 -3.94483 4.16 0
M  V30 3326 H 309.466 -3.54445 4.8424 0
M  V30 3327 H 310.536 -2.23855 4.30136 0
M  V30 3328 N 311.879 -1.3236 -0.855495 0
M  V30 3329 C 313.29 -1.2056 -1.42556 0
M  V30 3330 C 313.641 0.182209 -1.95352 0
M  V30 3331 O 312.766 1.08088 -1.87472 0
M  V30 3332 C 313.361 -2.1826 -2.59129 0
M  V30 3333 C 311.92 -2.10351 -3.12137 0
M  V30 3334 C 311.067 -2.06674 -1.84882 0
M  V30 3335 H 314.018 -1.442 -0.662727 0
M  V30 3336 H 314.039 -1.78064 -3.36264 0
M  V30 3337 H 313.551 -3.19257 -2.20673 0
M  V30 3338 H 311.652 -1.12599 -3.55179 0
M  V30 3339 H 311.765 -3.00135 -3.73438 0
M  V30 3340 H 310.129 -1.51901 -2.04446 0
M  V30 3341 H 310.912 -3.09451 -1.48643 0
M  V30 3342 N 313.357 1.07166 -1.15556 0
M  V30 3343 C 314.287 2.16403 -0.877046 0
M  V30 3344 C 315.268 1.69217 0.173111 0
M  V30 3345 O 316.453 1.94181 0.027084 0
M  V30 3346 C 313.583 3.45349 -0.367632 0
M  V30 3347 C 312.537 4.05995 -1.35468 0
M  V30 3348 C 311.863 5.30045 -0.704038 0
M  V30 3349 C 313.163 4.45804 -2.72132 0
M  V30 3350 H 314.857 2.39959 -1.79053 0
M  V30 3351 H 312.403 1.15325 -0.862331 0
M  V30 3352 H 314.356 4.21095 -0.160317 0
M  V30 3353 H 313.08 3.21385 0.581326 0
M  V30 3354 H 311.739 3.32296 -1.54839 0
M  V30 3355 H 311.387 5.02373 0.251128 0
M  V30 3356 H 311.087 5.71579 -1.36277 0
M  V30 3357 H 312.611 6.08495 -0.50654 0
M  V30 3358 H 314.025 5.12671 -2.56595 0
M  V30 3359 H 312.422 4.98296 -3.34397 0
M  V30 3360 H 313.492 3.57083 -3.28054 0
M  V30 3361 N 314.835 0.952656 1.25548 0
M  V30 3362 C 316.075 0.614013 1.9496 0
M  V30 3363 C 316.439 -0.833215 1.72978 0
M  V30 3364 O 317.64 -1.28135 2.36294 0
M  V30 3365 C 315.911 0.960562 3.4425 0
M  V30 3366 S 317.47 0.734195 4.32614 0
M  V30 3367 H 314.288 0.225754 0.674208 0
M  V30 3368 H 316.89 1.22641 1.52248 0
M  V30 3369 H 315.594 2.01103 3.57751 0
M  V30 3370 H 315.125 0.338336 3.91942 0
M  V30 3371 H 317.14 -0.395995 4.94617 0
M  V30 3372 N 316.313 -1.40141 0.720998 0
M  V30 3373 C 317.559 -2.01084 0.263231 0
M  V30 3374 C 317.892 -1.57052 -1.14229 0
M  V30 3375 O 317.167 -0.793027 -1.77599 0
M  V30 3376 C 317.45 -3.58401 0.349344 0
M  V30 3377 C 317.303 -4.12491 1.79363 0
M  V30 3378 C 318.622 -4.39231 -0.276351 0
M  V30 3379 H 315.741 -0.730572 0.0971228 0
M  V30 3380 H 318.383 -1.66543 0.914518 0
M  V30 3381 H 316.533 -3.87958 -0.205165 0
M  V30 3382 H 318.205 -3.93711 2.40394 0
M  V30 3383 H 316.448 -3.66576 2.31958 0
M  V30 3384 H 317.119 -5.21646 1.80524 0
M  V30 3385 H 319.595 -4.15637 0.196184 0
M  V30 3386 H 318.471 -5.48586 -0.185681 0
M  V30 3387 H 318.732 -4.20643 -1.36059 0
M  V30 3388 N 317.792 -0.46758 -1.50504 0
M  V30 3389 C 319.038 0.0887532 -2.02606 0
M  V30 3390 C 319.371 1.39686 -1.34913 0
M  V30 3391 O 318.646 1.88644 -0.473694 0
M  V30 3392 C 318.929 0.276206 -3.59039 0
M  V30 3393 C 318.782 -1.05267 -4.37309 0
M  V30 3394 C 320.101 1.03235 -4.27821 0
M  V30 3395 H 317.22 0.0307814 -0.736357 0
M  V30 3396 H 319.862 -0.612485 -1.79857 0
M  V30 3397 H 318.012 0.8735 -3.78553 0
M  V30 3398 H 319.684 -1.68628 -4.29374 0
M  V30 3399 H 317.927 -1.65015 -4.01189 0
M  V30 3400 H 318.598 -0.875197 -5.45018 0
M  V30 3401 H 321.074 0.526111 -4.12761 0
M  V30 3402 H 319.95 1.1323 -5.37094 0
M  V30 3403 H 320.211 2.06806 -3.90748 0
M  V30 3404 N 319.27 1.56325 -0.20005 0
M  V30 3405 C 320.2 2.22318 0.713916 0
M  V30 3406 C 321.181 1.18788 1.21752 0
M  V30 3407 O 322.366 1.47309 1.26545 0
M  V30 3408 C 319.496 2.88639 1.93144 0
M  V30 3409 C 318.45 3.98457 1.56255 0
M  V30 3410 C 317.776 4.51967 2.85709 0
M  V30 3411 C 319.076 5.16612 0.768747 0
M  V30 3412 H 320.77 2.98952 0.163755 0
M  V30 3413 H 318.316 1.43792 0.0773219 0
M  V30 3414 H 320.269 3.33491 2.57608 0
M  V30 3415 H 318.993 2.09419 2.50621 0
M  V30 3416 H 317.652 3.54305 0.941471 0
M  V30 3417 H 317.3 3.69503 3.41287 0
M  V30 3418 H 317 5.26071 2.6177 0
M  V30 3419 H 318.524 4.99523 3.51154 0
M  V30 3420 H 319.938 5.57977 1.3166 0
M  V30 3421 H 318.335 5.96812 0.627286 0
M  V30 3422 H 319.405 4.84358 -0.229168 0
M  V30 3423 N 320.748 -0.0735177 1.57428 0
M  V30 3424 C 321.995 -0.772999 1.87166 0
M  V30 3425 C 322.323 -1.77665 0.791551 0
M  V30 3426 O 321.578 -1.94541 -0.212636 0
M  V30 3427 C 321.877 -1.51799 3.23561 0
M  V30 3428 C 321.543 -0.654484 4.46125 0
M  V30 3429 C 320.205 -0.416511 4.79394 0
M  V30 3430 C 322.557 -0.0555862 5.2117 0
M  V30 3431 C 319.885 0.429869 5.85123 0
M  V30 3432 C 322.237 0.778239 6.27795 0
M  V30 3433 C 320.901 1.0261 6.59566 0
M  V30 3434 H 320.171 -0.282861 0.684888 0
M  V30 3435 H 322.818 -0.0338272 1.9147 0
M  V30 3436 H 321.123 -2.32932 3.1504 0
M  V30 3437 H 322.82 -2.06397 3.43804 0
M  V30 3438 H 319.41 -0.850091 4.20085 0
M  V30 3439 H 323.594 -0.226558 4.95783 0
M  V30 3440 H 318.85 0.630665 6.08139 0
M  V30 3441 H 323.024 1.24906 6.85107 0
M  V30 3442 H 320.651 1.68371 7.4132 0
M  V30 3443 N 322.226 -1.5378 -0.344866 0
M  V30 3444 C 323.472 -1.71216 -1.08687 0
M  V30 3445 C 323.805 -0.473281 -1.88345 0
M  V30 3446 O 323.08 0.52968 -1.87149 0
M  V30 3447 C 323.363 -2.97486 -2.02914 0
M  V30 3448 C 323.216 -4.31579 -1.26727 0
M  V30 3449 C 324.535 -3.19422 -3.0275 0
M  V30 3450 H 321.654 -0.62301 -0.393735 0
M  V30 3451 H 324.296 -1.8645 -0.365563 0
M  V30 3452 H 322.446 -2.84629 -2.64421 0
M  V30 3453 H 324.118 -4.56284 -0.67845 0
M  V30 3454 H 322.361 -4.30049 -0.569273 0
M  V30 3455 H 323.032 -5.16106 -1.95803 0
M  V30 3456 H 325.508 -3.316 -2.51357 0
M  V30 3457 H 324.384 -4.09169 -3.65885 0
M  V30 3458 H 324.645 -2.35656 -3.74057 0
M  V30 3459 N 323.704 0.605807 -1.45491 0
M  V30 3460 C 324.934 1.38934 -1.52908 0
M  V30 3461 C 325.342 1.88513 -0.161086 0
M  V30 3462 O 324.685 1.62962 0.847891 0
M  V30 3463 C 324.747 2.62737 -2.45376 0
M  V30 3464 C 324.411 2.34785 -3.92078 0
M  V30 3465 C 325.408 1.95038 -4.8193 0
M  V30 3466 C 323.093 2.47642 -4.37011 0
M  V30 3467 C 325.087 1.68511 -6.14722 0
M  V30 3468 C 322.774 2.20728 -5.69844 0
M  V30 3469 C 323.772 1.81225 -6.58519 0
M  V30 3470 O 323.46 1.54627 -7.88889 0
M  V30 3471 H 323.192 0.431629 -0.520262 0
M  V30 3472 H 325.746 0.74573 -1.91384 0
M  V30 3473 H 323.976 3.29824 -2.01874 0
M  V30 3474 H 325.665 3.24783 -2.43456 0
M  V30 3475 H 326.431 1.84639 -4.48479 0
M  V30 3476 H 322.31 2.77356 -3.68232 0
M  V30 3477 H 325.854 1.37602 -6.83894 0
M  V30 3478 H 321.751 2.30744 -6.02849 0
M  V30 3479 H 322.519 1.68665 -8.00933 0
M  V30 3480 N 325.182 1.32811 0.848464 0
M  V30 3481 C 326.428 1.24917 1.60522 0
M  V30 3482 C 326.783 -0.185761 1.91501 0
M  V30 3483 O 326.076 -1.12524 1.55077 0
M  V30 3484 C 326.27 2.04831 2.92881 0
M  V30 3485 C 326.099 3.55949 2.74828 0
M  V30 3486 C 324.869 4.25277 2.72887 0
M  V30 3487 C 327.067 4.50476 2.48145 0
M  V30 3488 N 325.049 5.62408 2.46111 0
M  V30 3489 C 326.42 5.75427 2.30832 0
M  V30 3490 C 328.475 4.39665 2.33664 0
M  V30 3491 C 327.178 6.90789 2.00508 0
M  V30 3492 C 329.204 5.54833 2.04731 0
M  V30 3493 C 328.566 6.78787 1.88223 0
M  V30 3494 H 324.665 0.512279 0.590842 0
M  V30 3495 H 327.249 1.67246 0.996839 0
M  V30 3496 H 325.42 1.64837 3.51686 0
M  V30 3497 H 327.152 1.88782 3.57971 0
M  V30 3498 H 323.907 3.77456 2.86049 0
M  V30 3499 H 324.331 6.3467 2.35634 0
M  V30 3500 H 328.973 3.44477 2.45144 0
M  V30 3501 H 326.691 7.85984 1.87765 0
M  V30 3502 H 330.277 5.48398 1.94295 0
M  V30 3503 H 329.157 7.66396 1.66155 0
M  V30 3504 N 326.66 -1.06551 1.16123 0
M  V30 3505 C 327.607 -2.13961 0.865414 0
M  V30 3506 C 328.577 -1.65066 -0.185055 0
M  V30 3507 O 329.762 -1.90732 -0.05083 0
M  V30 3508 C 326.902 -3.43113 0.369776 0
M  V30 3509 C 326.015 -4.05756 1.48276 0
M  V30 3510 C 325.15 -5.22773 0.942414 0
M  V30 3511 C 324.189 -5.77395 2.03179 0
M  V30 3512 N 323.326 -6.85731 1.50721 0
M  V30 3513 H 328.166 -2.38605 1.78527 0
M  V30 3514 H 325.703 -1.17072 0.890646 0
M  V30 3515 H 327.661 -4.17151 0.0640643 0
M  V30 3516 H 326.291 -3.18695 -0.513143 0
M  V30 3517 H 325.343 -3.29292 1.9045 0
M  V30 3518 H 326.655 -4.42351 2.30493 0
M  V30 3519 H 325.809 -6.03827 0.589729 0
M  V30 3520 H 324.548 -4.87618 0.0895191 0
M  V30 3521 H 323.553 -4.94981 2.3932 0
M  V30 3522 H 324.778 -6.14603 2.8886 0
M  V30 3523 H 322.724 -6.52499 0.676811 0
M  V30 3524 H 322.641 -7.21254 2.26557 0
M  V30 3525 H 323.909 -7.7047 1.18303 0
M  V30 3526 N 328.138 -0.959301 -1.25041 0
M  V30 3527 C 329.387 -0.612254 -1.92183 0
M  V30 3528 C 329.7 0.855347 -1.75907 0
M  V30 3529 O 330.906 1.31256 -2.37664 0
M  V30 3530 C 329.362 -1.04435 -3.44414 0
M  V30 3531 C 328.97 -2.53482 -3.69393 0
M  V30 3532 C 330.714 -0.770055 -4.17457 0
M  V30 3533 C 328.621 -2.90468 -5.15153 0
M  V30 3534 H 327.551 -0.225279 -0.719559 0
M  V30 3535 H 330.202 -1.16438 -1.41825 0
M  V30 3536 H 328.584 -0.4206 -3.9376 0
M  V30 3537 H 329.758 -3.20916 -3.30681 0
M  V30 3538 H 328.073 -2.78432 -3.0962 0
M  V30 3539 H 330.67 -1.02249 -5.24832 0
M  V30 3540 H 331.013 0.293611 -4.15263 0
M  V30 3541 H 331.546 -1.35437 -3.74034 0
M  V30 3542 H 328.285 -3.95871 -5.22462 0
M  V30 3543 H 327.805 -2.27711 -5.54894 0
M  V30 3544 H 329.484 -2.79914 -5.83315 0
M  V30 3545 N 329.616 1.39756 -0.72842 0
M  V30 3546 C 330.846 2.04651 -0.283117 0
M  V30 3547 C 331.254 1.5502 1.08469 0
M  V30 3548 O 330.597 0.707343 1.69536 0
M  V30 3549 C 330.659 3.58947 -0.199309 0
M  V30 3550 C 330.323 4.31525 -1.5045 0
M  V30 3551 C 331.32 4.5861 -2.44894 0
M  V30 3552 C 329.005 4.70195 -1.76698 0
M  V30 3553 C 330.999 5.23366 -3.63822 0
M  V30 3554 C 328.686 5.3468 -2.95906 0
M  V30 3555 C 329.684 5.61198 -3.89289 0
M  V30 3556 O 329.372 6.24347 -5.06404 0
M  V30 3557 H 329.104 0.664777 -0.122666 0
M  V30 3558 H 331.658 1.79913 -0.990987 0
M  V30 3559 H 329.888 3.82556 0.56461 0
M  V30 3560 H 331.577 4.0534 0.213125 0
M  V30 3561 H 332.343 4.29187 -2.25883 0
M  V30 3562 H 328.222 4.48916 -1.04859 0
M  V30 3563 H 331.766 5.4398 -4.36728 0
M  V30 3564 H 327.663 5.63524 -3.14819 0
M  V30 3565 H 328.431 6.42842 -5.06652 0
M  V30 3566 N 331.094 0.475555 1.50254 0
M  V30 3567 C 332.041 -0.316293 2.28622 0
M  V30 3568 C 333.011 -0.983227 1.33873 0
M  V30 3569 O 334.196 -0.994805 1.62814 0
M  V30 3570 C 331.336 -1.38975 3.1588 0
M  V30 3571 C 330.449 -0.737146 4.25664 0
M  V30 3572 C 329.584 -1.78887 5.00173 0
M  V30 3573 C 328.623 -1.11676 6.01826 0
M  V30 3574 N 327.76 -2.11154 6.69596 0
M  V30 3575 H 332.6 0.358297 2.95838 0
M  V30 3576 H 330.137 0.188541 1.45887 0
M  V30 3577 H 332.095 -2.02383 3.64825 0
M  V30 3578 H 330.725 -2.03344 2.50701 0
M  V30 3579 H 329.777 0.0096065 3.80399 0
M  V30 3580 H 331.089 -0.206816 4.98371 0
M  V30 3581 H 330.243 -2.49865 5.52859 0
M  V30 3582 H 328.982 -2.35302 4.27182 0
M  V30 3583 H 327.987 -0.392633 5.48396 0
M  V30 3584 H 329.212 -0.55945 6.76792 0
M  V30 3585 H 327.158 -2.66577 5.99394 0
M  V30 3586 H 327.075 -1.63118 7.38193 0
M  V30 3587 H 328.343 -2.81497 7.26897 0
M  V30 3588 N 332.573 -1.56217 0.208337 0
M  V30 3589 C 333.536 -2.18455 -0.693557 0
M  V30 3590 C 334.536 -1.14268 -1.13135 0
M  V30 3591 O 335.726 -1.39577 -1.0423 0
M  V30 3592 C 332.858 -2.79727 -1.94848 0
M  V30 3593 H 334.051 -2.99519 -0.15114 0
M  V30 3594 H 331.604 -1.56245 -0.041287 0
M  V30 3595 H 332.339 -2.02497 -2.53309 0
M  V30 3596 H 332.124 -3.56009 -1.64316 0
M  V30 3597 H 333.614 -3.27475 -2.59133 0
M  V30 3598 N 334.051 0.0651679 -1.57465 0
M  V30 3599 C 335.014 1.06117 -2.03155 0
M  V30 3600 C 336.014 1.31204 -0.929632 0
M  V30 3601 O 337.204 1.26813 -1.19432 0
M  V30 3602 C 334.336 2.4032 -2.41783 0
M  V30 3603 H 335.529 0.667231 -2.92383 0
M  V30 3604 H 333.082 0.311075 -1.53173 0
M  V30 3605 H 333.817 2.84532 -1.55601 0
M  V30 3606 H 333.602 2.23451 -3.22199 0
M  V30 3607 H 335.092 3.11898 -2.77685 0
M  V30 3608 N 335.529 1.53961 0.336706 0
M  V30 3609 C 336.476 1.82428 1.41381 0
M  V30 3610 C 337.446 0.670444 1.51968 0
M  V30 3611 O 338.631 0.915565 1.67398 0
M  V30 3612 C 335.771 2.04564 2.77934 0
M  V30 3613 C 334.884 3.32267 2.76084 0
M  V30 3614 C 334.019 3.44434 4.04399 0
M  V30 3615 C 333.058 4.66061 3.96804 0
M  V30 3616 N 332.195 4.75224 5.16823 0
M  V30 3617 H 337.035 2.74324 1.16405 0
M  V30 3618 H 334.572 1.35869 0.563752 0
M  V30 3619 H 336.53 2.15388 3.57301 0
M  V30 3620 H 335.16 1.15974 3.01247 0
M  V30 3621 H 334.212 3.3025 1.88784 0
M  V30 3622 H 335.524 4.21733 2.66351 0
M  V30 3623 H 334.678 3.54728 4.92192 0
M  V30 3624 H 333.417 2.53037 4.16921 0
M  V30 3625 H 332.422 4.55838 3.07396 0
M  V30 3626 H 333.647 5.58829 3.85858 0
M  V30 3627 H 331.593 3.86739 5.29876 0
M  V30 3628 H 331.51 5.58636 5.09374 0
M  V30 3629 H 332.778 4.89835 6.06367 0
M  V30 3630 N 337.007 -0.598083 1.45811 0
M  V30 3631 C 338.254 -1.35681 1.50323 0
M  V30 3632 C 338.582 -1.9393 0.148739 0
M  V30 3633 O 337.837 -1.76094 -0.853787 0
M  V30 3634 C 338.136 -2.51669 2.53766 0
M  V30 3635 C 337.802 -2.11508 3.98215 0
M  V30 3636 C 336.464 -2.0027 4.37545 0
M  V30 3637 C 338.816 -1.80308 4.89018 0
M  V30 3638 C 336.144 -1.56067 5.65562 0
M  V30 3639 C 338.496 -1.37589 6.17456 0
M  V30 3640 C 337.16 -1.24916 6.55708 0
M  V30 3641 H 336.43 -0.496492 0.550069 0
M  V30 3642 H 339.077 -0.675052 1.79207 0
M  V30 3643 H 337.382 -3.25225 2.18486 0
M  V30 3644 H 339.079 -3.09895 2.54492 0
M  V30 3645 H 335.669 -2.21185 3.67117 0
M  V30 3646 H 339.853 -1.87884 4.59362 0
M  V30 3647 H 335.109 -1.44886 5.93985 0
M  V30 3648 H 339.283 -1.12495 6.87254 0
M  V30 3649 H 336.91 -0.904386 7.54801 0
M  V30 3650 N 338.485 -1.33259 -0.841409 0
M  V30 3651 C 339.901 -1.12538 -1.13169 0
M  V30 3652 C 340.101 0.0854037 -2.01319 0
M  V30 3653 O 339.157 0.766417 -2.40587 0
M  V30 3654 C 340.47 -2.41156 -1.79623 0
M  V30 3655 C 342.018 -2.47038 -1.922 0
M  V30 3656 C 342.493 -3.7561 -2.6207 0
M  V30 3657 N 343.984 -3.76667 -2.69585 0
M  V30 3658 C 344.719 -4.72861 -3.2433 0
M  V30 3659 N 344.215 -5.79428 -3.79783 0
M  V30 3660 N 346.008 -4.6034 -3.22558 0
M  V30 3661 H 338.159 -2.10868 -0.254676 0
M  V30 3662 H 340.422 -0.931615 -0.175493 0
M  V30 3663 H 340.128 -3.29747 -1.22311 0
M  V30 3664 H 340.002 -2.53114 -2.79666 0
M  V30 3665 H 342.389 -1.58898 -2.48667 0
M  V30 3666 H 342.47 -2.39022 -0.911148 0
M  V30 3667 H 342.114 -4.64131 -2.06263 0
M  V30 3668 H 342.044 -3.80902 -3.63622 0
M  V30 3669 H 344.535 -2.99648 -2.30259 0
M  V30 3670 H 344.848 -6.48867 -4.19752 0
M  V30 3671 H 343.193 -5.83166 -3.78078 0
M  V30 3672 H 346.384 -3.76244 -2.78492 0
M  V30 3673 H 346.557 -5.35478 -3.64921 0
M  V30 3674 N 339.963 1.05934 -1.16686 0
M  V30 3675 C 341.209 1.79065 -0.95203 0
M  V30 3676 C 341.542 1.87147 0.518629 0
M  V30 3677 O 340.817 1.36574 1.38484 0
M  V30 3678 C 341.1 3.23359 -1.58464 0
M  V30 3679 C 340.953 3.23336 -3.12689 0
M  V30 3680 C 342.272 4.21004 -1.28232 0
M  V30 3681 H 339.391 0.65005 -0.34728 0
M  V30 3682 H 342.033 1.23868 -1.44072 0
M  V30 3683 H 340.183 3.70493 -1.16908 0
M  V30 3684 H 341.855 2.84336 -3.6325 0
M  V30 3685 H 340.098 2.61886 -3.4583 0
M  V30 3686 H 340.769 4.25144 -3.52075 0
M  V30 3687 H 343.245 3.8233 -1.64203 0
M  V30 3688 H 342.121 5.20225 -1.75092 0
M  V30 3689 H 342.382 4.41639 -0.201791 0
M  V30 3690 N 341.441 0.965919 1.2453 0
M  V30 3691 C 342.689 0.625593 1.92174 0
M  V30 3692 C 343.01 -0.841652 1.75901 0
M  V30 3693 O 342.28 -1.60061 1.12948 0
M  V30 3694 H 340.86 0.228388 0.71123 0
M  V30 3695 H 343.522 1.2266 1.51461 0
M  V30 3696 H 342.618 0.864653 2.99884 0
M  V30 3697 N 342.919 -1.39368 0.735821 0
M  V30 3698 C 344.144 -2.05319 0.293052 0
M  V30 3699 C 344.569 -1.55115 -1.064 0
M  V30 3700 O 343.927 -0.695261 -1.67439 0
M  V30 3701 C 343.975 -3.59305 0.305323 0
M  V30 3702 O 343.079 -4.06299 -0.706761 0
M  V30 3703 H 342.42 -0.650529 0.13307 0
M  V30 3704 H 344.95 -1.78386 1.00197 0
M  V30 3705 H 344.96 -4.07724 0.149997 0
M  V30 3706 H 343.635 -3.95207 1.29553 0
M  V30 3707 H 342.212 -3.69292 -0.517504 0
M  V30 3708 N 344.397 -0.483516 -1.5 0
M  V30 3709 C 345.813 -0.138404 -1.58999 0
M  V30 3710 C 346.013 1.35597 -1.4905 0
M  V30 3711 O 345.069 2.13039 -1.35539 0
M  V30 3712 C 346.382 -0.699658 -2.92447 0
M  V30 3713 C 347.93 -0.664195 -3.05872 0
M  V30 3714 C 348.405 -1.20321 -4.41913 0
M  V30 3715 N 349.896 -1.16315 -4.48358 0
M  V30 3716 C 350.631 -1.55058 -5.52037 0
M  V30 3717 N 350.127 -2.01311 -6.62907 0
M  V30 3718 N 351.92 -1.46584 -5.42651 0
M  V30 3719 H 344.071 -1.45529 -1.5471 0
M  V30 3720 H 346.334 -0.60258 -0.731848 0
M  V30 3721 H 346.04 -1.747 -3.05242 0
M  V30 3722 H 345.914 -0.150194 -3.76901 0
M  V30 3723 H 348.301 0.374272 -2.92717 0
M  V30 3724 H 348.382 -1.25061 -2.23144 0
M  V30 3725 H 348.026 -2.24037 -4.55818 0
M  V30 3726 H 347.956 -0.592896 -5.23252 0
M  V30 3727 H 350.447 -0.824058 -3.68806 0
M  V30 3728 H 350.76 -2.2899 -7.38095 0
M  V30 3729 H 349.105 -2.05273 -6.63994 0
M  V30 3730 H 352.296 -1.10281 -4.54924 0
M  V30 3731 H 352.469 -1.77103 -6.23329 0
M  V30 3732 N 345.875 1.56104 -0.216619 0
M  V30 3733 C 346.822 2.2007 0.695531 0
M  V30 3734 C 347.792 1.15471 1.19397 0
M  V30 3735 O 348.977 1.43807 1.25396 0
M  V30 3736 C 346.117 2.88073 1.90021 0
M  V30 3737 C 345.23 4.07253 1.44113 0
M  V30 3738 C 344.365 4.63052 2.603 0
M  V30 3739 C 343.404 5.74545 2.11103 0
M  V30 3740 N 342.541 6.24656 3.20545 0
M  V30 3741 H 347.381 2.97655 0.143327 0
M  V30 3742 H 344.918 1.46982 0.0589934 0
M  V30 3743 H 346.876 3.25681 2.60745 0
M  V30 3744 H 345.506 2.13015 2.42538 0
M  V30 3745 H 344.558 3.75164 0.628999 0
M  V30 3746 H 345.87 4.8783 1.04036 0
M  V30 3747 H 345.024 5.03078 3.39113 0
M  V30 3748 H 343.763 3.81628 3.03663 0
M  V30 3749 H 342.768 5.34027 1.3075 0
M  V30 3750 H 343.993 6.57801 1.68746 0
M  V30 3751 H 341.939 5.46148 3.63399 0
M  V30 3752 H 341.856 7.00343 2.84704 0
M  V30 3753 H 343.124 6.69338 3.99508 0
M  V30 3754 N 347.353 -0.0568162 1.57498 0
M  V30 3755 C 348.581 -0.765626 1.92213 0
M  V30 3756 C 348.996 -1.70353 0.813961 0
M  V30 3757 O 348.353 -1.81268 -0.211701 0
M  V30 3758 C 348.404 -1.5465 3.2675 0
M  V30 3759 O 348.125 -0.646278 4.33307 0
M  V30 3760 C 349.626 -2.35497 3.75574 0
M  V30 3761 H 346.846 -0.216835 0.634999 0
M  V30 3762 H 349.39 -0.0226146 2.04487 0
M  V30 3763 H 347.545 -2.24165 3.15957 0
M  V30 3764 H 347.959 -1.19093 5.108 0
M  V30 3765 H 349.433 -2.85722 4.72299 0
M  V30 3766 H 349.91 -3.15692 3.05344 0
M  V30 3767 H 350.516 -1.7111 3.8936 0
M  V30 3768 N 348.832 -1.54138 -0.328536 0
M  V30 3769 C 349.78 -1.83894 -1.42428 0
M  V30 3770 C 350.774 -0.710478 -1.53781 0
M  V30 3771 O 351.98 -0.894062 -1.56226 0
M  V30 3772 H 348.355 -0.582837 -0.475189 0
M  V30 3773 H 350.326 -2.75537 -1.14552 0
M  V30 3774 C 349.075 -2.07866 -2.78724 0
M  V30 3775 H 348.398 -2.94158 -2.7076 0
M  V30 3776 H 349.838 -2.32644 -3.54476 0
M  V30 3777 C 348.297 -0.868689 -3.25508 0
M  V30 3778 O 348.827 -0.0754908 -4.01629 0
M  V30 3779 N 347.033 -0.681711 -2.82491 0
M  V30 3780 H 346.58 -1.32838 -2.20708 0
M  V30 3781 H 346.538 0.126374 -3.14146 0
M  V30 3782 N 350.31 0.590341 -1.46126 0
M  V30 3783 C 351.535 1.37991 -1.54833 0
M  V30 3784 C 351.96 1.87163 -0.187506 0
M  V30 3785 O 351.318 1.61133 0.831008 0
M  V30 3786 C 351.366 2.54867 -2.55098 0
M  V30 3787 O 350.47 3.56061 -2.08073 0
M  V30 3788 H 349.811 0.411265 -0.521303 0
M  V30 3789 H 352.341 0.716819 -1.91632 0
M  V30 3790 H 352.351 3.01886 -2.74461 0
M  V30 3791 H 351.026 2.18429 -3.53923 0
M  V30 3792 H 349.603 3.15574 -1.98664 0
M  V30 3793 N 351.788 1.33704 0.83433 0
M  V30 3794 C 353.034 1.25603 1.59222 0
M  V30 3795 C 353.367 -0.176659 1.93395 0
M  V30 3796 O 352.642 -1.11915 1.59076 0
M  V30 3797 C 352.925 2.13576 2.89926 0
M  V30 3798 C 352.778 3.65326 2.62406 0
M  V30 3799 C 354.097 2.01238 3.91397 0
M  V30 3800 H 351.216 0.457613 0.577719 0
M  V30 3801 H 353.858 1.63848 0.961972 0
M  V30 3802 H 352.008 1.8109 3.43713 0
M  V30 3803 H 353.68 4.08124 2.15017 0
M  V30 3804 H 351.923 3.8698 1.96033 0
M  V30 3805 H 352.594 4.22232 3.55562 0
M  V30 3806 H 355.07 2.29738 3.46929 0
M  V30 3807 H 353.946 2.65036 4.80673 0
M  V30 3808 H 354.207 0.985951 4.30966 0
M  V30 3809 N 353.266 -1.05314 1.17247 0
M  V30 3810 C 354.491 -1.82509 0.985148 0
M  V30 3811 C 354.916 -1.82343 -0.461788 0
M  V30 3812 O 354.274 -1.23151 -1.33055 0
M  V30 3813 C 354.322 -3.26566 1.52929 0
M  V30 3814 O 353.426 -4.05666 0.742225 0
M  V30 3815 H 352.767 -0.564347 0.349869 0
M  V30 3816 H 355.297 -1.32718 1.55715 0
M  V30 3817 H 355.307 -3.77369 1.55103 0
M  V30 3818 H 353.982 -3.26001 2.58256 0
M  V30 3819 H 352.559 -3.64397 0.791794 0
M  V30 3820 N 354.744 -0.972509 -1.24016 0
M  V30 3821 C 356.155 -0.67517 -1.74064 0
M  V30 3822 C 356.506 0.808939 -1.78747 0
M  V30 3823 O 355.631 1.63286 -1.42009 0
M  V30 3824 C 356.226 -1.21889 -3.16115 0
M  V30 3825 C 354.785 -0.971358 -3.6365 0
M  V30 3826 C 353.932 -1.35134 -2.42145 0
M  V30 3827 H 356.883 -1.14727 -1.09651 0
M  V30 3828 H 356.904 -0.587489 -3.75937 0
M  V30 3829 H 356.416 -2.29906 -3.12674 0
M  V30 3830 H 354.517 0.0930686 -3.72484 0
M  V30 3831 H 354.63 -1.62039 -4.50866 0
M  V30 3832 H 352.994 -0.769751 -2.4279 0
M  V30 3833 H 353.777 -2.4411 -2.41381 0
M  V30 3834 N 356.222 1.38976 -0.743202 0
M  V30 3835 C 357.471 1.99581 -0.291592 0
M  V30 3836 C 357.784 1.59656 1.13001 0
M  V30 3837 O 358.99 2.13157 1.68156 0
M  V30 3838 C 357.446 3.56813 -0.470391 0
M  V30 3839 C 357.054 4.05695 -1.90041 0
M  V30 3840 C 358.798 4.24423 -0.0809709 0
M  V30 3841 C 356.705 5.5553 -2.02832 0
M  V30 3842 H 355.635 0.746615 -0.105272 0
M  V30 3843 H 358.286 1.58872 -0.918258 0
M  V30 3844 H 356.668 3.95359 0.225299 0
M  V30 3845 H 357.842 3.78464 -2.62872 0
M  V30 3846 H 356.157 3.50775 -2.24379 0
M  V30 3847 H 358.754 5.34474 -0.155445 0
M  V30 3848 H 359.097 4.04962 0.96497 0
M  V30 3849 H 359.63 3.9108 -0.728124 0
M  V30 3850 H 356.369 5.79881 -3.05643 0
M  V30 3851 H 355.889 5.84537 -1.34448 0
M  V30 3852 H 357.568 6.21069 -1.81335 0
M  V30 3853 N 357.7 0.491464 1.49741 0
M  V30 3854 C 358.925 -0.0557177 2.07325 0
M  V30 3855 C 359.35 -1.30925 1.35056 0
M  V30 3856 O 358.708 -1.76733 0.404365 0
M  V30 3857 C 358.756 -0.302074 3.59333 0
M  V30 3858 O 357.86 -1.37868 3.88672 0
M  V30 3859 H 357.201 0.0219956 0.663636 0
M  V30 3860 H 359.731 0.688352 1.92673 0
M  V30 3861 H 359.741 -0.536464 4.04458 0
M  V30 3862 H 358.416 0.61383 4.11345 0
M  V30 3863 H 356.993 -1.12999 3.55367 0
M  V30 3864 N 359.178 -1.55987 0.224894 0
M  V30 3865 C 360.088 -2.24066 -0.69511 0
M  V30 3866 C 361.104 -1.24939 -1.21104 0
M  V30 3867 O 362.28 -1.5776 -1.25195 0
M  V30 3868 C 359.345 -2.90983 -1.88493 0
M  V30 3869 C 358.406 -4.05462 -1.41064 0
M  V30 3870 C 357.639 -4.69179 -2.54375 0
M  V30 3871 O 357.862 -4.31895 -3.72589 0
M  V30 3872 O 356.796 -5.58108 -2.25386 0
M  V30 3873 H 360.622 -3.03353 -0.145149 0
M  V30 3874 H 358.207 -1.49399 -0.00569476 0
M  V30 3875 H 360.089 -3.33209 -2.57972 0
M  V30 3876 H 358.764 -2.14653 -2.42293 0
M  V30 3877 H 357.671 -3.67798 -0.683774 0
M  V30 3878 H 359.004 -4.83545 -0.918985 0
M  V30 3879 N 360.656 0.0484629 -1.57525 0
M  V30 3880 C 361.619 1.03956 -2.04269 0
M  V30 3881 C 362.619 1.30211 -0.943496 0
M  V30 3882 O 363.809 1.25539 -1.20771 0
M  V30 3883 C 360.941 2.37742 -2.44319 0
M  V30 3884 H 362.134 0.636182 -2.93075 0
M  V30 3885 H 359.687 0.294811 -1.53494 0
M  V30 3886 H 360.422 2.82866 -1.5861 0
M  V30 3887 H 360.207 2.20021 -3.24551 0
M  V30 3888 H 361.697 3.08936 -2.80978 0
M  V30 3889 N 362.134 1.5431 0.320358 0
M  V30 3890 C 363.38 1.72924 1.05949 0
M  V30 3891 C 363.713 0.503185 1.87568 0
M  V30 3892 O 362.988 -0.499839 1.87968 0
M  V30 3893 C 363.271 3.00676 1.98156 0
M  V30 3894 C 363.124 4.3354 1.19845 0
M  V30 3895 C 364.443 3.24198 2.9763 0
M  V30 3896 H 361.562 0.629195 0.383774 0
M  V30 3897 H 364.204 1.87008 0.335854 0
M  V30 3898 H 362.354 2.888 2.59859 0
M  V30 3899 H 364.026 4.57305 0.605773 0
M  V30 3900 H 362.269 4.309 0.500784 0
M  V30 3901 H 362.94 5.19156 1.87567 0
M  V30 3902 H 365.416 3.35557 2.4605 0
M  V30 3903 H 364.292 4.14938 3.59329 0
M  V30 3904 H 364.553 2.41577 3.7026 0
M  V30 3905 N 363.613 -0.582584 1.46437 0
M  V30 3906 C 364.523 -1.71949 1.59595 0
M  V30 3907 C 365.539 -1.67264 0.479443 0
M  V30 3908 O 366.715 -1.87171 0.743579 0
M  V30 3909 C 363.78 -3.08452 1.58298 0
M  V30 3910 C 362.841 -3.244 2.81182 0
M  V30 3911 C 362.074 -4.54391 2.79937 0
M  V30 3912 O 362.297 -5.38287 1.8869 0
M  V30 3913 O 361.231 -4.73588 3.71481 0
M  V30 3914 H 365.057 -1.63795 2.55744 0
M  V30 3915 H 362.642 -0.749643 1.29231 0
M  V30 3916 H 364.524 -3.89732 1.60271 0
M  V30 3917 H 363.199 -3.17043 0.653094 0
M  V30 3918 H 362.106 -2.42613 2.84763 0
M  V30 3919 H 363.439 -3.20699 3.7338 0
M  V30 3920 N 365.091 -1.34144 -0.827227 0
M  V30 3921 C 366.337 -1.26446 -1.58554 0
M  V30 3922 C 366.67 0.1664 -1.93486 0
M  V30 3923 O 365.945 1.1107 -1.59667 0
M  V30 3924 C 366.228 -2.15111 -2.8879 0
M  V30 3925 C 366.081 -3.66712 -2.60465 0
M  V30 3926 C 367.4 -2.03311 -3.90324 0
M  V30 3927 H 364.519 -0.46067 -0.575284 0
M  V30 3928 H 367.161 -1.64356 -0.953269 0
M  V30 3929 H 365.311 -1.8291 -3.42748 0
M  V30 3930 H 366.983 -4.09259 -2.1285 0
M  V30 3931 H 365.226 -3.88014 -1.93978 0
M  V30 3932 H 365.897 -4.24112 -3.53317 0
M  V30 3933 H 368.373 -2.31574 -3.45706 0
M  V30 3934 H 367.249 -2.67582 -4.79261 0
M  V30 3935 H 367.51 -1.00879 -4.30437 0
M  V30 3936 N 366.569 1.04691 -1.17803 0
M  V30 3937 C 367.516 2.12557 -0.899343 0
M  V30 3938 C 368.486 1.65339 0.158771 0
M  V30 3939 O 369.671 1.90789 0.0204797 0
M  V30 3940 C 366.811 3.42481 -0.424315 0
M  V30 3941 C 365.924 4.03346 -1.54713 0
M  V30 3942 C 365.059 5.21208 -1.02546 0
M  V30 3943 C 364.098 5.74089 -2.12339 0
M  V30 3944 N 363.235 6.83247 -1.61612 0
M  V30 3945 H 368.075 2.35734 -1.823 0
M  V30 3946 H 365.612 1.1564 -0.909159 0
M  V30 3947 H 367.57 4.16996 -0.130421 0
M  V30 3948 H 366.2 3.19471 0.462377 0
M  V30 3949 H 365.252 3.2622 -1.95664 0
M  V30 3950 H 366.564 4.38628 -2.37501 0
M  V30 3951 H 365.718 6.02812 -0.685718 0
M  V30 3952 H 364.457 4.87414 -0.167084 0
M  V30 3953 H 363.462 4.91111 -2.47165 0
M  V30 3954 H 364.687 6.0993 -2.98601 0
M  V30 3955 H 362.633 6.5134 -0.780533 0
M  V30 3956 H 362.55 7.17559 -2.38003 0
M  V30 3957 H 363.818 7.68491 -1.30545 0
M  V30 3958 N 368.047 0.979072 1.23499 0
M  V30 3959 C 369.324 0.563674 1.87302 0
M  V30 3960 C 369.704 -0.959199 1.88049 0
M  V30 3961 O 369.052 -1.83535 1.36114 0
M  V30 3962 C 369.262 1.16822 3.28867 0
M  V30 3963 C 370.61 1.26014 4.0547 0
M  V30 3964 O 371.634 1.12158 3.38082 0
M  V30 3965 O 370.493 1.48044 5.26066 0
M  V30 3966 H 367.587 0.189602 0.804972 0
M  V30 3967 H 370.133 1.07407 1.31384 0
M  V30 3968 H 368.905 2.21049 3.22883 0
M  V30 3969 H 368.528 0.642564 3.92373 0
M  V30 3970 N 369.525 -1.3858 0.750561 0
M  V30 3971 C 370.75 -2.04997 0.314812 0
M  V30 3972 C 371.175 -1.56235 -1.04749 0
M  V30 3973 O 370.533 -0.712981 -1.66692 0
M  V30 3974 C 370.581 -3.58961 0.343415 0
M  V30 3975 O 369.685 -4.07025 -0.663628 0
M  V30 3976 H 369.026 -0.649081 0.139962 0
M  V30 3977 H 371.556 -1.77313 1.02084 0
M  V30 3978 H 371.566 -4.07542 0.193233 0
M  V30 3979 H 370.241 -3.93811 1.33738 0
M  V30 3980 H 368.818 -3.6982 -0.478307 0
M  V30 3981 N 371.003 -0.499398 -1.49478 0
M  V30 3982 C 371.966 0.268838 -2.27618 0
M  V30 3983 C 372.966 0.895383 -1.33565 0
M  V30 3984 O 374.156 0.760164 -1.56739 0
M  V30 3985 C 371.288 1.38559 -3.11471 0
M  V30 3986 H 372.481 -0.416812 -2.96989 0
M  V30 3987 H 370.034 -0.254313 -1.54217 0
M  V30 3988 H 370.769 2.10544 -2.46661 0
M  V30 3989 H 370.554 0.941797 -3.80621 0
M  V30 3990 H 372.044 1.92678 -3.70493 0
M  V30 3991 N 372.481 1.55866 -0.233164 0
M  V30 3992 C 373.428 2.20796 0.67215 0
M  V30 3993 C 374.398 1.16731 1.18166 0
M  V30 3994 O 375.583 1.45129 1.23864 0
M  V30 3995 C 372.723 2.90072 1.86955 0
M  V30 3996 C 371.836 4.08759 1.39786 0
M  V30 3997 C 370.971 4.65787 2.55374 0
M  V30 3998 C 370.01 5.76752 2.04998 0
M  V30 3999 N 369.147 6.28021 3.13901 0
M  V30 4000 H 373.987 2.9779 0.111749 0
M  V30 4001 H 371.524 1.47036 0.0434007 0
M  V30 4002 H 373.482 3.28428 2.57276 0
M  V30 4003 H 372.112 2.15575 2.40265 0
M  V30 4004 H 371.164 3.7581 0.589173 0
M  V30 4005 H 372.476 4.88906 0.98856 0
M  V30 4006 H 371.63 5.06646 3.33758 0
M  V30 4007 H 370.369 3.84828 2.99598 0
M  V30 4008 H 369.374 5.35383 1.25079 0
M  V30 4009 H 370.599 6.59553 1.61759 0
M  V30 4010 H 368.545 5.49971 3.57586 0
M  V30 4011 H 368.462 7.03323 2.7726 0
M  V30 4012 H 369.73 6.73538 3.92386 0
M  V30 4013 N 373.959 -0.0401083 1.57549 0
M  V30 4014 C 374.891 -1.07149 2.02612 0
M  V30 4015 C 375.904 -1.33126 0.937085 0
M  V30 4016 O 377.093 -1.30808 1.21456 0
M  V30 4017 C 374.193 -2.41561 2.37701 0
M  V30 4018 C 373.366 -2.35096 3.68848 0
M  V30 4019 C 372.425 -3.51867 3.91249 0
M  V30 4020 O 371.451 -3.3186 4.62447 0
M  V30 4021 N 372.653 -4.73351 3.36035 0
M  V30 4022 H 375.418 -0.687485 2.91708 0
M  V30 4023 H 372.979 -0.228248 1.60283 0
M  V30 4024 H 374.971 -3.18379 2.49833 0
M  V30 4025 H 373.541 -2.71846 1.54332 0
M  V30 4026 H 372.761 -1.4345 3.67173 0
M  V30 4027 H 374.049 -2.27908 4.54901 0
M  V30 4028 H 373.447 -4.92507 2.78304 0
M  V30 4029 H 372.004 -5.47572 3.53565 0
M  V30 4030 N 375.437 -1.54477 -0.31217 0
M  V30 4031 C 376.848 -1.64344 -0.885891 0
M  V30 4032 C 377.199 -0.54485 -1.88483 0
M  V30 4033 O 376.324 0.320387 -2.14015 0
M  V30 4034 C 376.919 -2.97908 -1.61357 0
M  V30 4035 C 375.478 -3.09933 -2.13585 0
M  V30 4036 C 374.625 -2.59971 -0.964897 0
M  V30 4037 H 377.576 -1.58448 -0.0894528 0
M  V30 4038 H 377.597 -2.88706 -2.47848 0
M  V30 4039 H 377.109 -3.77845 -0.886277 0
M  V30 4040 H 375.21 -2.34694 -2.89395 0
M  V30 4041 H 375.323 -4.15916 -2.37804 0
M  V30 4042 H 373.687 -2.16147 -1.34731 0
M  V30 4043 H 374.47 -3.42376 -0.251742 0
M  V30 4044 N 376.915 0.57481 -1.46744 0
M  V30 4045 C 377.847 1.69804 -1.53946 0
M  V30 4046 C 378.86 1.57098 -0.427106 0
M  V30 4047 O 380.049 1.64378 -0.695863 0
M  V30 4048 C 377.149 3.08125 -1.4111 0
M  V30 4049 C 376.322 3.46757 -2.66605 0
M  V30 4050 C 375.381 4.6417 -2.47855 0
M  V30 4051 O 374.407 4.69634 -3.21609 0
M  V30 4052 N 375.609 5.59553 -1.54534 0
M  V30 4053 H 378.374 1.64077 -2.50796 0
M  V30 4054 H 375.935 0.761 -1.429 0
M  V30 4055 H 377.927 3.84478 -1.26328 0
M  V30 4056 H 376.497 3.08175 -0.524109 0
M  V30 4057 H 375.717 2.6003 -2.96274 0
M  V30 4058 H 377.005 3.69337 -3.49954 0
M  V30 4059 H 376.403 5.57881 -0.937304 0
M  V30 4060 H 374.96 6.35304 -1.45711 0
M  V30 4061 N 378.394 1.34581 0.820102 0
M  V30 4062 C 379.327 1.20735 1.93644 0
M  V30 4063 C 380.305 0.0983343 1.62302 0
M  V30 4064 O 381.489 0.263997 1.86642 0
M  V30 4065 C 378.616 0.856037 3.27704 0
M  V30 4066 C 377.662 1.97521 3.78005 0
M  V30 4067 S 378.495 3.58906 3.97425 0
M  V30 4068 C 379.651 3.25822 5.34407 0
M  V30 4069 H 379.884 2.15231 2.05093 0
M  V30 4070 H 377.417 1.1964 0.97599 0
M  V30 4071 H 379.375 0.660133 4.05157 0
M  V30 4072 H 378.036 -0.0706253 3.14021 0
M  V30 4073 H 377.229 1.68321 4.75062 0
M  V30 4074 H 376.831 2.12875 3.07507 0
M  V30 4075 H 379.123 2.77812 6.17922 0
M  V30 4076 H 380.066 4.22029 5.68592 0
M  V30 4077 H 380.474 2.61932 5.00052 0
M  V30 4078 N 379.872 -1.04064 1.18357 0
M  V30 4079 C 381.118 -1.77528 0.980397 0
M  V30 4080 C 381.451 -1.87948 -0.48879 0
M  V30 4081 O 380.726 -1.3876 -1.36293 0
M  V30 4082 C 381.009 -3.20797 1.63588 0
M  V30 4083 C 380.862 -3.1832 3.17793 0
M  V30 4084 C 382.181 -4.18911 1.34914 0
M  V30 4085 H 379.3 -0.644443 0.357578 0
M  V30 4086 H 381.942 -1.2156 1.46024 0
M  V30 4087 H 380.092 -3.68586 1.22788 0
M  V30 4088 H 381.764 -2.78521 3.67728 0
M  V30 4089 H 380.007 -2.56351 3.49952 0
M  V30 4090 H 380.678 -4.19489 3.58794 0
M  V30 4091 H 383.154 -3.7967 1.70265 0
M  V30 4092 H 382.03 -5.17374 1.83346 0
M  V30 4093 H 382.291 -4.41262 0.272027 0
M  V30 4094 N 381.35 -0.985608 -1.22978 0
M  V30 4095 C 382.597 -0.657386 -1.91532 0
M  V30 4096 C 382.925 0.809707 -1.76845 0
M  V30 4097 O 382.18 1.60021 -1.12658 0
M  V30 4098 C 382.479 -1.00014 -3.43121 0
M  V30 4099 C 382.145 -2.4583 -3.77993 0
M  V30 4100 C 380.807 -2.85679 -3.87222 0
M  V30 4101 C 383.159 -3.40378 -3.94705 0
M  V30 4102 C 380.487 -4.19081 -4.10595 0
M  V30 4103 C 382.839 -4.73429 -4.1958 0
M  V30 4104 C 381.503 -5.1303 -4.27032 0
M  V30 4105 H 380.773 -0.240555 -0.700867 0
M  V30 4106 H 383.42 -1.24044 -1.45895 0
M  V30 4107 H 381.725 -0.335072 -3.90365 0
M  V30 4108 H 383.422 -0.724322 -3.94404 0
M  V30 4109 H 380.012 -2.13939 -3.71387 0
M  V30 4110 H 384.196 -3.10766 -3.8696 0
M  V30 4111 H 379.452 -4.49362 -4.14589 0
M  V30 4112 H 383.626 -5.46644 -4.31455 0
M  V30 4113 H 381.253 -6.16418 -4.44896 0
M  V30 4114 N 382.828 1.3818 -0.7579 0
M  V30 4115 C 384.056 2.04301 -0.326937 0
M  V30 4116 C 384.471 1.57163 1.0462 0
M  V30 4117 O 383.828 0.746626 1.66529 0
M  V30 4118 C 383.879 3.59846 -0.345363 0
M  V30 4119 O 383.6 4.05256 -1.66432 0
M  V30 4120 C 385.101 4.4319 0.098927 0
M  V30 4121 H 382.321 0.656443 -0.139012 0
M  V30 4122 H 384.865 1.76786 -1.02796 0
M  V30 4123 H 383.02 3.86182 0.306955 0
M  V30 4124 H 383.434 4.99709 -1.59345 0
M  V30 4125 H 384.908 5.51989 0.0348745 0
M  V30 4126 H 385.385 4.23947 1.14741 0
M  V30 4127 H 385.991 4.22051 -0.52468 0
M  V30 4128 N 384.306 0.507319 1.49211 0
M  V30 4129 C 385.552 -0.0350047 2.0277 0
M  V30 4130 C 385.885 -1.3606 1.38569 0
M  V30 4131 O 385.16 -1.87321 0.523542 0
M  V30 4132 C 385.443 -0.180916 3.59645 0
M  V30 4133 C 385.296 1.16825 4.34364 0
M  V30 4134 C 386.615 -0.918558 4.30407 0
M  V30 4135 H 383.734 -0.0112473 0.736914 0
M  V30 4136 H 386.376 0.659956 1.7817 0
M  V30 4137 H 384.526 -0.772826 3.80736 0
M  V30 4138 H 386.198 1.79952 4.24753 0
M  V30 4139 H 384.441 1.75594 3.96673 0
M  V30 4140 H 385.112 1.01939 5.42506 0
M  V30 4141 H 387.588 -0.41649 4.1401 0
M  V30 4142 H 386.464 -0.989505 5.39907 0
M  V30 4143 H 386.725 -1.96373 3.96093 0
M  V30 4144 N 385.784 -1.5574 0.241426 0
M  V30 4145 C 387.2 -1.59196 -0.113548 0
M  V30 4146 C 387.4 -1.25852 -1.57364 0
M  V30 4147 O 386.456 -1.00322 -2.31715 0
M  V30 4148 C 387.769 -2.99814 0.230695 0
M  V30 4149 C 389.317 -3.12513 0.174547 0
M  V30 4150 C 389.792 -4.55342 0.492744 0
M  V30 4151 N 391.283 -4.61076 0.443043 0
M  V30 4152 C 392.018 -5.6956 0.662484 0
M  V30 4153 N 391.514 -6.86328 0.944761 0
M  V30 4154 N 393.307 -5.58957 0.593564 0
M  V30 4155 H 385.458 -1.75685 1.19368 0
M  V30 4156 H 387.721 -0.81756 0.479896 0
M  V30 4157 H 387.427 -3.28932 1.24485 0
M  V30 4158 H 387.301 -3.74568 -0.444833 0
M  V30 4159 H 389.688 -2.83179 -0.830277 0
M  V30 4160 H 389.769 -2.40045 0.883845 0
M  V30 4161 H 389.413 -4.85396 1.4951 0
M  V30 4162 H 389.343 -5.26062 -0.23797 0
M  V30 4163 H 391.834 -3.77179 0.233374 0
M  V30 4164 H 392.147 -7.64935 1.09977 0
M  V30 4165 H 390.492 -6.88025 0.982175 0
M  V30 4166 H 393.683 -4.66611 0.373123 0
M  V30 4167 H 393.856 -6.43433 0.767981 0
M  V30 4168 N 387.262 0.0317525 -1.57568 0
M  V30 4169 C 388.212 1.04101 -2.02847 0
M  V30 4170 C 389.196 1.3219 -0.917317 0
M  V30 4171 O 390.388 1.31819 -1.18121 0
M  V30 4172 C 387.517 2.34295 -2.5092 0
M  V30 4173 C 386.603 2.09308 -3.68851 0
M  V30 4174 N 386.994 1.5437 -4.81667 0
M  V30 4175 C 385.292 2.39604 -3.76172 0
M  V30 4176 C 385.993 1.45126 -5.63306 0
M  V30 4177 N 384.969 1.92589 -5.08341 0
M  V30 4178 H 388.771 0.610217 -2.87495 0
M  V30 4179 H 386.285 0.238108 -1.60645 0
M  V30 4180 H 388.282 3.07404 -2.81617 0
M  V30 4181 H 386.942 2.78055 -1.67677 0
M  V30 4182 H 387.953 1.22678 -5.03161 0
M  V30 4183 H 384.63 2.86457 -3.03724 0
M  V30 4184 H 386.02 1.03163 -6.63933 0
M  V30 4185 N 388.74 1.54641 0.303973 0
M  V30 4186 C 389.703 1.84646 1.35789 0
M  V30 4187 C 390.703 0.7192 1.4382 0
M  V30 4188 O 391.893 0.987491 1.43507 0
M  V30 4189 C 389.025 2.02407 2.74307 0
M  V30 4190 H 390.218 2.78829 1.10429 0
M  V30 4191 H 387.771 1.46658 0.540487 0
M  V30 4192 H 388.506 1.10502 3.04893 0
M  V30 4193 H 388.291 2.84453 2.69868 0
M  V30 4194 H 389.781 2.27002 3.50514 0
M  V30 4195 N 390.218 -0.567019 1.47046 0
M  V30 4196 C 391.446 -1.35027 1.56765 0
M  V30 4197 C 391.861 -1.8758 0.214316 0
M  V30 4198 O 391.218 -1.64471 -0.790919 0
M  V30 4199 C 391.269 -2.52698 2.58507 0
M  V30 4200 O 390.99 -2.0232 3.88585 0
M  V30 4201 C 392.491 -3.45043 2.78316 0
M  V30 4202 H 389.711 -0.41195 0.529658 0
M  V30 4203 H 392.255 -0.687832 1.92585 0
M  V30 4204 H 390.41 -3.149 2.25648 0
M  V30 4205 H 390.824 -2.79068 4.44096 0
M  V30 4206 H 392.298 -4.2405 3.53391 0
M  V30 4207 H 392.775 -3.97971 1.85784 0
M  V30 4208 H 393.381 -2.88665 3.12334 0
M  V30 4209 N 391.696 -1.35014 -0.812953 0
M  V30 4210 C 392.942 -1.2812 -1.57204 0
M  V30 4211 C 393.275 0.145869 -1.93651 0
M  V30 4212 O 392.55 1.0937 -1.60836 0
M  V30 4213 C 392.833 -2.18162 -2.86492 0
M  V30 4214 C 392.686 -3.69454 -2.56561 0
M  V30 4215 C 394.005 -2.07439 -3.88145 0
M  V30 4216 H 391.124 -0.466746 -0.570366 0
M  V30 4217 H 393.766 -1.65357 -0.935783 0
M  V30 4218 H 391.916 -1.86535 -3.40789 0
M  V30 4219 H 393.588 -4.11493 -2.08497 0
M  V30 4220 H 391.831 -3.9005 -1.89851 0
M  V30 4221 H 392.502 -4.27835 -3.48799 0
M  V30 4222 H 394.978 -2.35228 -3.4323 0
M  V30 4223 H 393.854 -2.7265 -4.76396 0
M  V30 4224 H 394.115 -1.05439 -4.29343 0
M  V30 4225 N 393.175 1.03435 -1.18907 0
M  V30 4226 C 394.403 1.80381 -1.01342 0
M  V30 4227 C 394.818 1.83649 0.438005 0
M  V30 4228 O 394.175 1.27655 1.30424 0
M  V30 4229 C 394.226 3.25689 -1.56873 0
M  V30 4230 O 393.947 3.22673 -2.96334 0
M  V30 4231 C 395.448 4.19255 -1.44014 0
M  V30 4232 H 392.668 0.56784 -0.35749 0
M  V30 4233 H 395.212 1.30317 -1.576 0
M  V30 4234 H 393.367 3.72962 -1.04777 0
M  V30 4235 H 393.781 4.13748 -3.22355 0
M  V30 4236 H 395.255 5.19123 -1.87657 0
M  V30 4237 H 395.732 4.37467 -0.389815 0
M  V30 4238 H 396.338 3.77851 -1.95214 0
M  V30 4239 N 394.653 0.992116 1.22453 0
M  V30 4240 C 395.9 0.667534 1.91181 0
M  V30 4241 C 396.228 -0.800317 1.77271 0
M  V30 4242 O 395.483 -1.59421 1.13505 0
M  V30 4243 C 395.782 1.01832 3.42586 0
M  V30 4244 C 395.448 2.47831 3.76684 0
M  V30 4245 C 394.11 2.87729 3.85701 0
M  V30 4246 C 396.462 3.42466 3.92895 0
M  V30 4247 C 393.79 4.21252 4.08367 0
M  V30 4248 C 396.142 4.75648 4.17064 0
M  V30 4249 C 394.806 5.15288 4.24305 0
M  V30 4250 H 394.076 0.244268 0.699581 0
M  V30 4251 H 396.723 1.24816 1.45235 0
M  V30 4252 H 395.028 0.355769 3.90181 0
M  V30 4253 H 396.725 0.745228 3.94014 0
M  V30 4254 H 393.315 2.15905 3.70247 0
M  V30 4255 H 397.499 3.12814 3.85307 0
M  V30 4256 H 392.755 4.51554 4.122 0
M  V30 4257 H 396.929 5.48924 4.2855 0
M  V30 4258 H 394.556 6.18769 4.41621 0
M  V30 4259 N 396.131 -1.37776 0.765217 0
M  V30 4260 C 397.063 -2.28958 0.105361 0
M  V30 4261 C 398.076 -1.48316 -0.67128 0
M  V30 4262 O 399.265 -1.71046 -0.51045 0
M  V30 4263 C 396.365 -3.27421 -0.874569 0
M  V30 4264 C 395.538 -4.37132 -0.153123 0
M  V30 4265 C 394.597 -5.1571 -1.04547 0
M  V30 4266 O 393.623 -5.66896 -0.511672 0
M  V30 4267 N 394.825 -5.29808 -2.37243 0
M  V30 4268 H 397.59 -2.86227 0.888495 0
M  V30 4269 H 395.151 -1.49682 0.617 0
M  V30 4270 H 397.143 -3.7687 -1.47483 0
M  V30 4271 H 395.713 -2.70967 -1.55871 0
M  V30 4272 H 394.933 -3.89166 0.627975 0
M  V30 4273 H 396.221 -5.07625 0.345643 0
M  V30 4274 H 395.619 -4.89793 -2.83054 0
M  V30 4275 H 394.176 -5.82589 -2.9229 0
M  V30 4276 N 397.609 -0.515225 -1.4894 0
M  V30 4277 C 399.02 -0.0710067 -1.86565 0
M  V30 4278 C 399.371 1.34733 -1.42623 0
M  V30 4279 O 398.496 2.00653 -0.810379 0
M  V30 4280 C 399.091 -0.122083 -3.3858 0
M  V30 4281 C 397.65 0.266863 -3.75453 0
M  V30 4282 C 396.797 -0.488376 -2.72966 0
M  V30 4283 H 399.748 -0.727266 -1.41055 0
M  V30 4284 H 399.769 0.669818 -3.74558 0
M  V30 4285 H 399.281 -1.15448 -3.70531 0
M  V30 4286 H 397.382 1.30196 -3.49113 0
M  V30 4287 H 397.495 -0.0624811 -4.79059 0
M  V30 4288 H 395.859 0.0635622 -2.54621 0
M  V30 4289 H 396.642 -1.52113 -3.07761 0
M  V30 4290 N 399.087 1.5561 -0.249682 0
M  V30 4291 C 399.997 2.25143 0.659375 0
M  V30 4292 C 401.013 1.2685 1.19101 0
M  V30 4293 O 402.189 1.59732 1.22669 0
M  V30 4294 C 399.254 2.93945 1.8384 0
M  V30 4295 C 398.315 4.07655 1.34596 0
M  V30 4296 C 397.548 4.73167 2.46878 0
M  V30 4297 O 397.771 4.37768 3.65671 0
M  V30 4298 O 396.705 5.61623 2.16478 0
M  V30 4299 H 400.531 3.03545 0.0968698 0
M  V30 4300 H 398.116 1.49389 -0.018074 0
M  V30 4301 H 399.998 3.37271 2.52638 0
M  V30 4302 H 398.673 2.18481 2.38847 0
M  V30 4303 H 397.58 3.68839 0.625174 0
M  V30 4304 H 398.913 4.84946 0.841941 0
M  V30 4305 N 400.565 -0.0233959 1.57583 0
M  V30 4306 C 401.813 -0.711654 1.89156 0
M  V30 4307 C 402.134 -1.75591 0.848096 0
M  V30 4308 O 401.404 -1.95547 -0.117566 0
M  V30 4309 H 399.984 -0.265835 0.698098 0
M  V30 4310 H 402.646 0.0119948 1.94896 0
M  V30 4311 H 401.742 -1.19766 2.88206 0
M  V30 4312 N 402.043 -1.548 -0.295768 0
M  V30 4313 C 403.32 -1.65014 -1.05023 0
M  V30 4314 C 403.7 -0.501805 -2.05049 0
M  V30 4315 O 403.048 0.500869 -2.22943 0
M  V30 4316 C 403.258 -3.03252 -1.72741 0
M  V30 4317 C 404.606 -3.60242 -2.24746 0
M  V30 4318 O 405.63 -3.05737 -1.82765 0
M  V30 4319 O 404.489 -4.55687 -3.01681 0
M  V30 4320 H 401.583 -0.669314 -0.485744 0
M  V30 4321 H 404.129 -1.67144 -0.293438 0
M  V30 4322 H 402.901 -3.7827 -1.00138 0
M  V30 4323 H 402.524 -3.04922 -2.55163 0
M  V30 4324 N 403.521 0.559213 -1.47345 0
M  V30 4325 C 404.749 1.34194 -1.57479 0
M  V30 4326 C 405.164 1.87463 -0.224261 0
M  V30 4327 O 404.521 1.64888 0.782185 0
M  V30 4328 C 404.572 2.51324 -2.59843 0
M  V30 4329 O 404.293 2.00256 -3.89653 0
M  V30 4330 C 405.794 3.43563 -2.80142 0
M  V30 4331 H 403.014 0.409136 -0.531835 0
M  V30 4332 H 405.558 0.677609 -1.92947 0
M  V30 4333 H 403.713 3.13699 -2.27314 0
M  V30 4334 H 404.127 2.76708 -4.4557 0
M  V30 4335 H 405.601 4.2217 -3.55635 0
M  V30 4336 H 406.078 3.9698 -1.87892 0
M  V30 4337 H 406.684 2.87005 -3.1386 0
M  V30 4338 N 404.999 1.35443 0.805782 0
M  V30 4339 C 406.245 1.2996 1.56467 0
M  V30 4340 C 406.6 -0.124742 1.91995 0
M  V30 4341 O 405.893 -1.07533 1.58579 0
M  V30 4342 C 406.087 2.14045 2.86216 0
M  V30 4343 C 405.916 3.64512 2.63365 0
M  V30 4344 C 404.686 4.33744 2.59219 0
M  V30 4345 C 406.884 4.58142 2.33688 0
M  V30 4346 N 404.866 5.69953 2.28094 0
M  V30 4347 C 406.237 5.8248 2.12408 0
M  V30 4348 C 408.292 4.46877 2.19558 0
M  V30 4349 C 406.995 6.96818 1.78429 0
M  V30 4350 C 409.021 5.61065 1.86976 0
M  V30 4351 C 408.383 6.84431 1.66532 0
M  V30 4352 H 404.482 0.530817 0.574245 0
M  V30 4353 H 407.066 1.70333 0.943126 0
M  V30 4354 H 405.237 1.75942 3.46264 0
M  V30 4355 H 406.969 2.00075 3.51784 0
M  V30 4356 H 403.724 3.86365 2.73896 0
M  V30 4357 H 404.148 6.41845 2.15323 0
M  V30 4358 H 408.79 3.52102 2.34061 0
M  V30 4359 H 406.508 7.91559 1.62664 0
M  V30 4360 H 410.094 5.54302 1.7675 0
M  V30 4361 H 408.974 7.71294 1.41688 0
M  V30 4362 N 406.477 -1.02803 1.19454 0
M  V30 4363 C 407.893 -1.28473 0.946937 0
M  V30 4364 C 408.093 -1.97881 -0.380202 0
M  V30 4365 O 407.149 -2.26719 -1.11151 0
M  V30 4366 C 408.462 -2.13099 2.12154 0
M  V30 4367 C 410.01 -2.26404 2.16126 0
M  V30 4368 C 410.485 -3.14402 3.33039 0
M  V30 4369 N 411.976 -3.21991 3.32981 0
M  V30 4370 C 412.711 -3.90272 4.20089 0
M  V30 4371 N 412.207 -4.60777 5.17355 0
M  V30 4372 N 414 -3.8668 4.07964 0
M  V30 4373 H 406.151 -0.561665 2.04839 0
M  V30 4374 H 408.414 -0.310438 0.89573 0
M  V30 4375 H 408.12 -1.69422 3.08203 0
M  V30 4376 H 407.994 -3.13813 2.09287 0
M  V30 4377 H 410.381 -2.69311 1.20647 0
M  V30 4378 H 410.462 -1.25237 2.23045 0
M  V30 4379 H 410.106 -2.72204 4.28798 0
M  V30 4380 H 410.036 -4.1563 3.23356 0
M  V30 4381 H 412.527 -2.71778 2.62574 0
M  V30 4382 H 412.84 -5.10513 5.80169 0
M  V30 4383 H 411.185 -4.5964 5.21302 0
M  V30 4384 H 414.376 -3.30739 3.31254 0
M  V30 4385 H 414.549 -4.39621 4.76064 0
M  V30 4386 N 407.956 -0.998596 -1.21925 0
M  V30 4387 C 408.866 -0.562736 -2.27751 0
M  V30 4388 C 409.882 0.391203 -1.69545 0
M  V30 4389 O 411.058 0.256625 -1.99758 0
M  V30 4390 C 408.123 0.11012 -3.46525 0
M  V30 4391 C 407.184 -0.887495 -4.20026 0
M  V30 4392 C 406.417 -0.246654 -5.3313 0
M  V30 4393 O 406.64 0.958088 -5.62296 0
M  V30 4394 O 405.574 -0.954374 -5.94286 0
M  V30 4395 H 409.4 -1.44329 -2.67213 0
M  V30 4396 H 406.985 -0.767135 -1.28201 0
M  V30 4397 H 408.867 0.486756 -4.18579 0
M  V30 4398 H 407.542 0.965154 -3.08976 0
M  V30 4399 H 406.449 -1.31517 -3.5022 0
M  V30 4400 H 407.782 -1.71191 -4.6147 0
M  V30 4401 N 409.434 1.37368 -0.772513 0
M  V30 4402 C 410.366 2.28899 -0.117502 0
M  V30 4403 C 411.379 1.4867 0.663405 0
M  V30 4404 O 412.568 1.71314 0.501372 0
M  V30 4405 C 409.668 3.2788 0.857192 0
M  V30 4406 C 408.841 4.37207 0.129938 0
M  V30 4407 C 407.9 5.16257 1.01811 0
M  V30 4408 O 406.926 5.67159 0.481601 0
M  V30 4409 N 408.128 5.31058 2.3443 0
M  V30 4410 H 410.893 2.85752 -0.903662 0
M  V30 4411 H 408.454 1.49353 -0.62493 0
M  V30 4412 H 410.446 3.77647 1.45482 0
M  V30 4413 H 409.016 2.7179 1.54432 0
M  V30 4414 H 408.236 3.88827 -0.648605 0
M  V30 4415 H 409.524 5.07434 -0.372559 0
M  V30 4416 H 408.922 4.91287 2.80452 0
M  V30 4417 H 407.479 5.84131 2.89197 0
M  V30 4418 N 410.912 0.523116 1.48665 0
M  V30 4419 C 411.859 -0.243398 2.29513 0
M  V30 4420 C 412.829 -0.940139 1.36933 0
M  V30 4421 O 414.014 -0.942503 1.65896 0
M  V30 4422 C 411.154 -1.28855 3.20141 0
M  V30 4423 C 410.267 -0.60135 4.27794 0
M  V30 4424 C 409.402 -1.62884 5.05611 0
M  V30 4425 C 408.441 -0.924726 6.05075 0
M  V30 4426 N 407.578 -1.89744 6.75975 0
M  V30 4427 H 412.418 0.452234 2.94549 0
M  V30 4428 H 409.955 0.234858 1.45213 0
M  V30 4429 H 411.913 -1.90674 3.71079 0
M  V30 4430 H 410.543 -1.95266 2.57043 0
M  V30 4431 H 409.595 0.130623 3.80176 0
M  V30 4432 H 410.907 -0.0481585 4.98777 0
M  V30 4433 H 410.061 -2.32149 5.60528 0
M  V30 4434 H 408.8 -2.21592 4.34452 0
M  V30 4435 H 407.805 -0.217966 5.49368 0
M  V30 4436 H 409.03 -0.343851 6.78229 0
M  V30 4437 H 406.976 -2.47373 6.07571 0
M  V30 4438 H 406.893 -1.3955 7.43009 0
M  V30 4439 H 408.161 -2.58229 7.35485 0
M  V30 4440 N 412.39 -1.55475 0.257931 0
M  V30 4441 C 413.3 -2.2549 -0.647425 0
M  V30 4442 C 414.316 -1.2748 -1.18427 0
M  V30 4443 O 415.492 -1.6038 -1.2182 0
M  V30 4444 C 412.557 -2.94916 -1.82278 0
M  V30 4445 C 411.618 -4.08363 -1.32432 0
M  V30 4446 C 410.851 -4.74469 -2.44366 0
M  V30 4447 O 411.074 -4.39701 -3.63344 0
M  V30 4448 O 410.008 -5.62763 -2.13497 0
M  V30 4449 H 413.834 -3.03593 -0.0807707 0
M  V30 4450 H 411.419 -1.49377 0.0259962 0
M  V30 4451 H 413.301 -3.38606 -2.50846 0
M  V30 4452 H 411.976 -2.19744 -2.37685 0
M  V30 4453 H 410.883 -3.69166 -0.605605 0
M  V30 4454 H 412.216 -4.85385 -0.816211 0
M  V30 4455 N 413.868 0.0150385 -1.57593 0
M  V30 4456 C 414.8 1.03912 -2.04291 0
M  V30 4457 C 415.813 1.31618 -0.958146 0
M  V30 4458 O 417.002 1.28859 -1.23522 0
M  V30 4459 C 414.102 2.37749 -2.41514 0
M  V30 4460 C 413.275 2.29198 -3.72541 0
M  V30 4461 C 412.334 3.45598 -3.96797 0
M  V30 4462 O 411.36 3.24461 -4.67668 0
M  V30 4463 N 412.562 4.67945 -3.43523 0
M  V30 4464 H 415.327 0.64099 -2.92765 0
M  V30 4465 H 412.888 0.20272 -1.60626 0
M  V30 4466 H 414.88 3.14364 -2.54867 0
M  V30 4467 H 413.45 2.69357 -1.58637 0
M  V30 4468 H 412.67 1.3759 -3.69408 0
M  V30 4469 H 413.958 2.20642 -4.5847 0
M  V30 4470 H 413.356 4.88017 -2.86104 0
M  V30 4471 H 411.913 5.41878 -3.62232 0
M  V30 4472 N 415.346 1.54954 0.287554 0
M  V30 4473 C 416.762 1.46469 0.633964 0
M  V30 4474 C 416.962 0.666865 1.90145 0
M  V30 4475 O 416.018 0.179906 2.51858 0
M  V30 4476 C 417.331 2.90556 0.774454 0
M  V30 4477 C 418.879 3.00681 0.869462 0
M  V30 4478 C 419.354 4.45993 1.04184 0
M  V30 4479 N 420.845 4.4976 1.10772 0
M  V30 4480 C 421.58 5.59393 1.25964 0
M  V30 4481 N 421.076 6.78923 1.37968 0
M  V30 4482 N 422.869 5.47107 1.28959 0
M  V30 4483 H 415.02 2.05288 -0.545041 0
M  V30 4484 H 417.283 0.930305 -0.182308 0
M  V30 4485 H 416.989 3.51594 -0.086207 0
M  V30 4486 H 416.863 3.38743 1.6593 0
M  V30 4487 H 419.25 2.39749 1.7206 0
M  V30 4488 H 419.331 2.55769 -0.0396831 0
M  V30 4489 H 418.975 5.07524 0.195422 0
M  V30 4490 H 418.905 4.88548 1.96542 0
M  V30 4491 H 421.396 3.63651 1.02794 0
M  V30 4492 H 421.709 7.58231 1.49353 0
M  V30 4493 H 420.054 6.81763 1.34999 0
M  V30 4494 H 423.245 4.52668 1.19202 0
M  V30 4495 H 423.418 6.32595 1.40455 0
M  V30 4496 N 416.824 -0.551391 1.4764 0
M  V30 4497 C 417.787 -1.64007 1.60107 0
M  V30 4498 C 418.787 -1.53601 0.47576 0
M  V30 4499 O 419.977 -1.57655 0.740988 0
M  V30 4500 C 417.109 -3.03569 1.55108 0
M  V30 4501 H 418.302 -1.543 2.57161 0
M  V30 4502 H 415.855 -0.771776 1.35917 0
M  V30 4503 H 416.59 -3.18804 0.594519 0
M  V30 4504 H 416.375 -3.12532 2.36783 0
M  V30 4505 H 417.865 -3.82762 1.66982 0
M  V30 4506 N 418.302 -1.35869 -0.798587 0
M  V30 4507 C 419.265 -1.29307 -1.89242 0
M  V30 4508 C 420.265 -0.202747 -1.59517 0
M  V30 4509 O 421.455 -0.456957 -1.681 0
M  V30 4510 C 418.587 -1.00229 -3.25833 0
M  V30 4511 H 419.78 -2.26576 -1.96478 0
M  V30 4512 H 417.333 -1.20509 -0.995358 0
M  V30 4513 H 418.068 -0.033801 -3.24282 0
M  V30 4514 H 417.853 -1.79121 -3.48795 0
M  V30 4515 H 419.343 -0.98219 -4.05885 0
M  V30 4516 N 419.78 1.02168 -1.19998 0
M  V30 4517 C 420.71 2.12488 -0.96804 0
M  V30 4518 C 421.691 1.69799 0.101185 0
M  V30 4519 O 422.876 1.94121 -0.0552993 0
M  V30 4520 C 420.006 3.43479 -0.513776 0
M  V30 4521 C 418.96 3.99884 -1.52566 0
M  V30 4522 C 418.286 5.26582 -0.928214 0
M  V30 4523 C 419.586 4.33861 -2.90795 0
M  V30 4524 H 421.28 2.32149 -1.89069 0
M  V30 4525 H 418.826 1.11564 -0.910468 0
M  V30 4526 H 420.779 4.20036 -0.338774 0
M  V30 4527 H 419.503 3.23561 0.444493 0
M  V30 4528 H 418.162 3.25429 -1.68794 0
M  V30 4529 H 417.81 5.02986 0.0378289 0
M  V30 4530 H 417.51 5.65284 -1.60397 0
M  V30 4531 H 419.034 6.05799 -0.764167 0
M  V30 4532 H 420.448 5.01327 -2.78109 0
M  V30 4533 H 418.845 4.83664 -3.55231 0
M  V30 4534 H 419.915 3.42848 -3.42904 0
M  V30 4535 N 421.258 1.00505 1.21394 0
M  V30 4536 C 422.191 0.51032 2.22421 0
M  V30 4537 C 423.169 -0.436 1.56645 0
M  V30 4538 O 424.353 -0.358709 1.85055 0
M  V30 4539 C 421.48 -0.258733 3.3771 0
M  V30 4540 C 420.526 0.635395 4.2174 0
M  V30 4541 S 421.359 2.09783 4.92698 0
M  V30 4542 C 422.515 1.33862 6.11418 0
M  V30 4543 H 422.748 1.36637 2.64041 0
M  V30 4544 H 420.281 0.812991 1.31262 0
M  V30 4545 H 422.239 -0.696372 4.0455 0
M  V30 4546 H 420.9 -1.0902 2.94573 0
M  V30 4547 H 420.093 0.0430189 5.03982 0
M  V30 4548 H 419.695 1.01031 3.60095 0
M  V30 4549 H 421.987 0.612541 6.74725 0
M  V30 4550 H 422.93 2.13675 6.75092 0
M  V30 4551 H 423.338 0.846568 5.58116 0
M  V30 4552 N 422.737 -1.36956 0.779787 0
M  V30 4553 C 423.983 -1.99787 0.348281 0
M  V30 4554 C 424.316 -1.61756 -1.07465 0
M  V30 4555 O 423.591 -0.867639 -1.74075 0
M  V30 4556 C 423.874 -3.56597 0.50104 0
M  V30 4557 C 423.727 -4.04513 1.96697 0
M  V30 4558 C 425.046 -4.40008 -0.0898097 0
M  V30 4559 H 422.165 -0.725796 0.128022 0
M  V30 4560 H 424.807 -1.62514 0.984331 0
M  V30 4561 H 422.957 -3.88479 -0.0404347 0
M  V30 4562 H 424.629 -3.83161 2.56876 0
M  V30 4563 H 422.872 -3.56408 2.47297 0
M  V30 4564 H 423.543 -5.1352 2.02486 0
M  V30 4565 H 426.019 -4.14431 0.372293 0
M  V30 4566 H 424.895 -5.4888 0.0471605 0
M  V30 4567 H 425.156 -4.26035 -1.18096 0
M  V30 4568 N 424.215 -0.530993 -1.48385 0
M  V30 4569 C 425.463 0.00273189 -2.021 0
M  V30 4570 C 425.784 1.34672 -1.41027 0
M  V30 4571 O 425.054 1.8724 -0.576012 0
M  V30 4572 H 423.634 0.00399774 -0.746989 0
M  V30 4573 H 426.296 -0.695054 -1.82085 0
M  V30 4574 H 425.392 0.11031 -3.11905 0
M  V30 4575 N 425.693 1.55336 -0.266172 0
M  V30 4576 C 426.942 1.98574 0.353749 0
M  V30 4577 C 427.255 1.15789 1.57646 0
M  V30 4578 O 428.461 1.49129 2.26876 0
M  V30 4579 C 426.917 3.53403 0.680747 0
M  V30 4580 C 426.525 4.44953 -0.52165 0
M  V30 4581 C 428.269 4.05251 1.26379 0
M  V30 4582 C 426.176 5.91156 -0.169736 0
M  V30 4583 H 425.106 0.741643 0.135949 0
M  V30 4584 H 427.757 1.79743 -0.369421 0
M  V30 4585 H 426.139 3.68001 1.46257 0
M  V30 4586 H 427.313 4.42121 -1.29869 0
M  V30 4587 H 425.628 4.03691 -1.02093 0
M  V30 4588 H 428.225 5.12021 1.54074 0
M  V30 4589 H 428.568 3.53749 2.19471 0
M  V30 4590 H 429.101 3.94057 0.544447 0
M  V30 4591 H 425.84 6.46736 -1.0683 0
M  V30 4592 H 425.36 5.97079 0.570717 0
M  V30 4593 H 427.039 6.4655 0.241245 0
M  V30 4594 N 427.171 -0.0066808 1.57599 0
M  V30 4595 C 428.101 -0.999296 2.11036 0
M  V30 4596 C 429.082 -1.36278 1.01795 0
M  V30 4597 O 430.267 -1.4477 1.29442 0
M  V30 4598 C 427.397 -2.29328 2.60818 0
M  V30 4599 C 426.351 -2.07159 3.74525 0
M  V30 4600 C 425.677 -3.42512 4.10596 0
M  V30 4601 C 426.977 -1.43959 5.02069 0
M  V30 4602 H 428.671 -0.554382 2.94223 0
M  V30 4603 H 426.217 -0.265221 1.41536 0
M  V30 4604 H 428.17 -2.99117 2.96828 0
M  V30 4605 H 426.894 -2.7592 1.74745 0
M  V30 4606 H 425.553 -1.39797 3.38899 0
M  V30 4607 H 425.201 -3.86795 3.21556 0
M  V30 4608 H 424.901 -3.28498 4.87199 0
M  V30 4609 H 426.425 -4.13628 4.4916 0
M  V30 4610 H 427.839 -2.03696 5.35893 0
M  V30 4611 H 426.236 -1.40452 5.83432 0
M  V30 4612 H 427.306 -0.407992 4.83181 0
M  V30 4613 N 428.649 -1.55105 -0.279332 0
M  V30 4614 C 429.898 -1.74618 -1.00952 0
M  V30 4615 C 430.211 -0.551096 -1.87676 0
M  V30 4616 O 431.417 -0.628507 -2.64125 0
M  V30 4617 C 429.873 -3.09025 -1.84476 0
M  V30 4618 C 429.481 -4.36081 -1.0265 0
M  V30 4619 C 431.225 -3.37891 -2.56963 0
M  V30 4620 C 429.132 -5.6153 -1.85576 0
M  V30 4621 H 428.062 -0.650868 -0.38064 0
M  V30 4622 H 430.713 -1.81569 -0.265475 0
M  V30 4623 H 429.095 -2.96095 -2.62952 0
M  V30 4624 H 430.269 -4.59909 -0.286354 0
M  V30 4625 H 428.584 -4.14312 -0.416464 0
M  V30 4626 H 431.181 -4.28822 -3.19399 0
M  V30 4627 H 431.524 -2.57737 -3.26921 0
M  V30 4628 H 432.057 -3.5189 -1.85522 0
M  V30 4629 H 428.796 -6.44413 -1.2005 0
M  V30 4630 H 428.316 -5.41854 -2.57204 0
M  V30 4631 H 429.995 -5.99594 -2.43096 0
M  V30 4632 N 430.127 0.543554 -1.4793 0
M  V30 4633 C 431.375 1.29752 -1.54948 0
M  V30 4634 C 431.696 1.93764 -0.219242 0
M  V30 4635 O 430.966 1.80639 0.75805 0
M  V30 4636 H 429.546 0.481874 -0.570795 0
M  V30 4637 H 432.208 0.633636 -1.84312 0
M  V30 4638 H 431.304 2.08392 -2.32334 0
M  V30 4639 N 431.605 1.3629 0.791371 0
M  V30 4640 C 432.851 1.30605 1.55146 0
M  V30 4641 C 433.184 -0.115042 1.93859 0
M  V30 4642 O 432.459 -1.06798 1.62556 0
M  V30 4643 C 432.742 2.22692 2.82985 0
M  V30 4644 C 432.595 3.73489 2.50651 0
M  V30 4645 C 433.914 2.13588 3.84796 0
M  V30 4646 H 431.033 0.475761 0.562868 0
M  V30 4647 H 433.675 1.66825 0.909358 0
M  V30 4648 H 431.825 1.91933 3.37778 0
M  V30 4649 H 433.497 4.14758 2.01924 0
M  V30 4650 H 431.74 3.93021 1.83622 0
M  V30 4651 H 432.411 4.3333 3.41949 0
M  V30 4652 H 434.887 2.40659 3.39445 0
M  V30 4653 H 433.763 2.80195 4.71998 0
M  V30 4654 H 434.024 1.12256 4.27611 0
M  V30 4655 N 433.083 -1.0153 1.20538 0
M  V30 4656 C 434.33 -1.75149 1.01633 0
M  V30 4657 C 434.658 -1.89189 -0.451399 0
M  V30 4658 O 433.913 -1.41551 -1.35136 0
M  V30 4659 C 434.212 -3.17213 1.64654 0
M  V30 4660 C 433.878 -3.23146 3.14464 0
M  V30 4661 C 432.54 -3.24472 3.55347 0
M  V30 4662 C 434.892 -3.21207 4.10458 0
M  V30 4663 C 432.22 -3.21532 4.90748 0
M  V30 4664 C 434.572 -3.19808 5.45807 0
M  V30 4665 C 433.236 -3.19439 5.86102 0
M  V30 4666 H 432.506 -0.640914 0.3719 0
M  V30 4667 H 435.153 -1.19071 1.49981 0
M  V30 4668 H 433.458 -3.76457 1.08571 0
M  V30 4669 H 435.155 -3.72871 1.4754 0
M  V30 4670 H 431.745 -3.2285 2.81897 0
M  V30 4671 H 435.929 -3.19351 3.79906 0
M  V30 4672 H 431.185 -3.19578 5.21229 0
M  V30 4673 H 435.359 -3.1726 6.19935 0
M  V30 4674 H 432.986 -3.16915 6.90991 0
M  V30 4675 N 434.561 -1.01147 -1.20859 0
M  V30 4676 C 435.807 -0.698899 -1.90377 0
M  V30 4677 C 436.14 0.76904 -1.78324 0
M  V30 4678 O 435.415 1.55817 -1.16409 0
M  V30 4679 C 435.698 -1.12878 -3.41951 0
M  V30 4680 C 435.551 -2.65665 -3.62963 0
M  V30 4681 C 436.87 -0.696114 -4.3456 0
M  V30 4682 H 433.989 -0.255372 -0.691342 0
M  V30 4683 H 436.631 -1.25831 -1.42361 0
M  V30 4684 H 434.781 -0.652827 -3.82976 0
M  V30 4685 H 436.453 -3.21074 -3.31224 0
M  V30 4686 H 434.696 -3.06878 -3.06608 0
M  V30 4687 H 435.367 -2.90797 -4.69192 0
M  V30 4688 H 437.843 -1.10521 -4.01154 0
M  V30 4689 H 436.719 -1.025 -5.39245 0
M  V30 4690 H 436.98 0.402465 -4.40264 0
M  V30 4691 N 436.039 1.36541 -0.78704 0
M  V30 4692 C 436.969 2.32659 -0.197992 0
M  V30 4693 C 437.95 1.56533 0.665697 0
M  V30 4694 O 439.135 1.84698 0.60001 0
M  V30 4695 C 436.265 3.40778 0.669901 0
M  V30 4696 C 435.219 4.27897 -0.0937039 0
M  V30 4697 C 434.545 5.27163 0.894629 0
M  V30 4698 C 435.845 5.06334 -1.28154 0
M  V30 4699 H 437.539 2.82171 -1.00099 0
M  V30 4700 H 435.085 1.35665 -0.482793 0
M  V30 4701 H 437.038 4.07008 1.09191 0
M  V30 4702 H 435.762 2.89827 1.50558 0
M  V30 4703 H 434.421 3.6322 -0.49666 0
M  V30 4704 H 434.069 4.72486 1.72527 0
M  V30 4705 H 433.769 5.86317 0.388149 0
M  V30 4706 H 435.293 5.96266 1.31525 0
M  V30 4707 H 436.707 5.65617 -0.93541 0
M  V30 4708 H 435.104 5.74888 -1.72115 0
M  V30 4709 H 436.174 4.38114 -2.07807 0
M  V30 4710 N 437.518 0.538854 1.48102 0
M  V30 4711 C 438.758 0.0101209 2.04397 0
M  V30 4712 C 439.122 -1.30741 1.40609 0
M  V30 4713 O 440.323 -1.92272 1.87843 0
M  V30 4714 C 438.594 -0.100232 3.57259 0
M  V30 4715 S 440.153 -0.577746 4.3498 0
M  V30 4716 H 436.971 0.0163171 0.710813 0
M  V30 4717 H 439.573 0.721429 1.81702 0
M  V30 4718 H 438.277 0.863351 4.01216 0
M  V30 4719 H 437.808 -0.835651 3.84422 0
M  V30 4720 H 439.823 -1.84073 4.60794 0
M  V30 4721 N 438.996 -1.55193 0.274407 0
M  V30 4722 C 440.242 -2.00604 -0.33608 0
M  V30 4723 C 440.597 -1.15948 -1.53538 0
M  V30 4724 O 439.89 -0.221385 -1.90317 0
M  V30 4725 C 440.084 -3.49019 -0.769458 0
M  V30 4726 C 439.913 -4.48038 0.386301 0
M  V30 4727 C 438.683 -4.97757 0.869854 0
M  V30 4728 C 440.881 -4.99558 1.22254 0
M  V30 4729 N 438.863 -5.80575 1.99515 0
M  V30 4730 C 440.234 -5.79816 2.19575 0
M  V30 4731 C 442.289 -4.81799 1.25597 0
M  V30 4732 C 440.992 -6.44208 3.19981 0
M  V30 4733 C 443.018 -5.46989 2.24848 0
M  V30 4734 C 442.38 -6.27058 3.20901 0
M  V30 4735 H 438.479 -0.777013 -0.088172 0
M  V30 4736 H 441.063 -1.90583 0.398266 0
M  V30 4737 H 439.234 -3.59383 -1.47303 0
M  V30 4738 H 440.966 -3.81263 -1.35722 0
M  V30 4739 H 437.721 -4.71464 0.449281 0
M  V30 4740 H 438.145 -6.26675 2.5614 0
M  V30 4741 H 442.787 -4.19501 0.527158 0
M  V30 4742 H 440.505 -7.05656 3.93796 0
M  V30 4743 H 444.091 -5.35189 2.28174 0
M  V30 4744 H 442.971 -6.7661 3.96445 0
M  V30 4745 N 440.474 -0.00167713 -1.576 0
M  V30 4746 C 441.723 0.682021 -1.89819 0
M  V30 4747 C 442.036 1.74844 -0.876871 0
M  V30 4748 O 443.242 2.48688 -1.08934 0
M  V30 4749 C 441.698 1.26425 -3.36964 0
M  V30 4750 C 441.306 0.232568 -4.47396 0
M  V30 4751 C 443.05 1.92604 -3.78291 0
M  V30 4752 C 440.957 0.824882 -5.85619 0
M  V30 4753 H 439.887 0.258499 -0.708304 0
M  V30 4754 H 442.538 -0.0624957 -1.83394 0
M  V30 4755 H 440.92 2.05949 -3.38232 0
M  V30 4756 H 442.094 -0.5382 -4.57646 0
M  V30 4757 H 440.409 -0.32888 -4.15099 0
M  V30 4758 H 443.006 2.37827 -4.78897 0
M  V30 4759 H 443.349 2.75732 -3.11894 0
M  V30 4760 H 443.882 1.19812 -3.79328 0
M  V30 4761 H 440.621 0.0323542 -6.55492 0
M  V30 4762 H 440.141 1.56477 -5.79029 0
M  V30 4763 H 441.82 1.32301 -6.33329 0
M  V30 4764 N 441.952 1.55251 0.271103 0
M  V30 4765 C 443.363 1.66635 0.842007 0
M  V30 4766 C 443.714 0.594631 1.86972 0
M  V30 4767 O 442.839 -0.263532 2.14789 0
M  V30 4768 C 443.434 3.02082 1.53401 0
M  V30 4769 C 441.993 3.15487 2.05293 0
M  V30 4770 C 441.14 2.62438 0.895631 0
M  V30 4771 H 444.091 1.58629 0.0474117 0
M  V30 4772 H 444.112 2.95176 2.40107 0
M  V30 4773 H 443.624 3.80062 0.785786 0
M  V30 4774 H 441.725 2.42284 2.83071 0
M  V30 4775 H 441.838 4.22075 2.26693 0
M  V30 4776 H 440.202 2.19644 1.28953 0
M  V30 4777 H 440.985 3.42923 0.160878 0
M  V30 4778 N 443.43 -0.535701 1.48216 0
M  V30 4779 C 444.677 -1.29183 1.55942 0
M  V30 4780 C 445.005 -1.93125 0.230857 0
M  V30 4781 O 444.26 -1.79556 -0.778331 0
M  V30 4782 C 444.559 -2.4068 2.64212 0
M  V30 4783 C 444.225 -1.94428 4.06827 0
M  V30 4784 C 442.887 -1.81532 4.45645 0
M  V30 4785 C 445.239 -1.59405 4.96225 0
M  V30 4786 C 442.567 -1.31939 5.71672 0
M  V30 4787 C 444.919 -1.11276 6.22736 0
M  V30 4788 C 443.583 -0.969924 6.60416 0
M  V30 4789 H 442.853 -0.472715 0.570632 0
M  V30 4790 H 445.5 -0.598437 1.81909 0
M  V30 4791 H 443.805 -3.15666 2.32083 0
M  V30 4792 H 445.502 -2.98822 2.67407 0
M  V30 4793 H 442.092 -2.05415 3.76168 0
M  V30 4794 H 446.276 -1.68231 4.66917 0
M  V30 4795 H 441.532 -1.19562 5.99596 0
M  V30 4796 H 445.706 -0.832453 6.91407 0
M  V30 4797 H 443.333 -0.583436 7.57958 0
M  V30 4798 N 444.908 -1.36708 -0.784132 0
M  V30 4799 C 446.155 -1.31231 -1.54222 0
M  V30 4800 C 446.483 0.106864 -1.94206 0
M  V30 4801 O 445.738 1.07734 -1.63376 0
M  V30 4802 C 446.037 -2.18571 -2.82774 0
M  V30 4803 C 445.703 -3.67039 -2.61903 0
M  V30 4804 C 444.365 -4.07503 -2.55919 0
M  V30 4805 C 446.717 -4.61149 -2.4288 0
M  V30 4806 C 444.045 -5.40211 -2.28886 0
M  V30 4807 C 446.397 -5.94081 -2.17373 0
M  V30 4808 C 445.061 -6.33664 -2.09825 0
M  V30 4809 H 444.331 -0.48021 -0.56434 0
M  V30 4810 H 446.978 -1.68807 -0.904233 0
M  V30 4811 H 445.283 -1.73949 -3.51068 0
M  V30 4812 H 446.98 -2.11655 -3.40592 0
M  V30 4813 H 443.57 -3.34941 -2.67418 0
M  V30 4814 H 447.754 -4.30756 -2.46501 0
M  V30 4815 H 443.01 -5.69855 -2.21529 0
M  V30 4816 H 447.184 -6.66566 -2.01649 0
M  V30 4817 H 444.811 -7.36423 -1.88641 0
M  V30 4818 N 446.386 1.0089 -1.21074 0
M  V30 4819 C 447.316 2.1145 -0.990523 0
M  V30 4820 C 448.297 1.69897 0.0831699 0
M  V30 4821 O 449.482 1.94052 -0.0758853 0
M  V30 4822 C 446.612 3.42914 -0.550177 0
M  V30 4823 C 445.566 3.98244 -1.56799 0
M  V30 4824 C 444.892 5.25568 -0.984013 0
M  V30 4825 C 446.192 4.30752 -2.95381 0
M  V30 4826 H 447.886 2.3013 -1.91521 0
M  V30 4827 H 445.432 1.10592 -0.92225 0
M  V30 4828 H 447.385 4.19653 -0.383305 0
M  V30 4829 H 446.109 3.24014 0.41015 0
M  V30 4830 H 444.768 3.23621 -1.72236 0
M  V30 4831 H 444.416 5.02998 -0.0155216 0
M  V30 4832 H 444.116 5.63551 -1.66384 0
M  V30 4833 H 445.64 6.04955 -0.828378 0
M  V30 4834 H 447.054 4.98349 -2.8341 0
M  V30 4835 H 445.451 4.79869 -3.60341 0
M  V30 4836 H 446.521 3.39192 -3.46521 0
M  V30 4837 N 447.864 1.01787 1.20321 0
M  V30 4838 C 449.092 0.727194 1.937 0
M  V30 4839 C 449.507 -0.712305 1.74848 0
M  V30 4840 O 448.864 -1.48327 1.06327 0
M  V30 4841 C 448.915 1.05497 3.45764 0
M  V30 4842 O 448.636 2.43794 3.64 0
M  V30 4843 C 450.137 0.785534 4.36285 0
M  V30 4844 H 447.357 0.266939 0.615617 0
M  V30 4845 H 449.901 1.35939 1.52777 0
M  V30 4846 H 448.056 0.468158 3.84561 0
M  V30 4847 H 448.47 2.55656 4.57974 0
M  V30 4848 H 449.944 1.06495 5.4163 0
M  V30 4849 H 450.421 -0.280273 4.38305 0
M  V30 4850 H 451.027 1.35456 4.03152 0
M  V30 4851 N 449.342 -1.36122 0.79427 0
M  V30 4852 C 450.252 -2.33769 0.197296 0
M  V30 4853 C 451.268 -1.61276 -0.653153 0
M  V30 4854 O 452.444 -1.9323 -0.5678 0
M  V30 4855 C 449.509 -3.40474 -0.654098 0
M  V30 4856 C 448.57 -4.28759 0.215411 0
M  V30 4857 C 447.803 -5.30368 -0.595443 0
M  V30 4858 O 448.026 -5.40211 -1.83107 0
M  V30 4859 O 446.96 -6.019 0.00721351 0
M  V30 4860 H 450.786 -2.86597 1.00478 0
M  V30 4861 H 448.371 -1.38676 0.555818 0
M  V30 4862 H 450.253 -4.05703 -1.13944 0
M  V30 4863 H 448.928 -2.89937 -1.43938 0
M  V30 4864 H 447.835 -3.66554 0.747615 0
M  V30 4865 H 449.168 -4.82661 0.964332 0
M  V30 4866 N 450.82 -0.546701 -1.47814 0
M  V30 4867 C 451.75 0.195317 -2.32682 0
M  V30 4868 C 452.731 0.918981 -1.43139 0
M  V30 4869 O 453.916 0.901501 -1.72008 0
M  V30 4870 C 451.046 1.23237 -3.247 0
M  V30 4871 C 450 0.625818 -4.234 0
M  V30 4872 C 449.326 1.76674 -5.04669 0
M  V30 4873 C 450.626 -0.413515 -5.2066 0
M  V30 4874 H 452.32 -0.513184 -2.94969 0
M  V30 4875 H 449.866 -0.248241 -1.41844 0
M  V30 4876 H 451.819 1.75955 -3.82907 0
M  V30 4877 H 450.543 1.97067 -2.60446 0
M  V30 4878 H 449.202 0.120023 -3.66403 0
M  V30 4879 H 448.85 2.49383 -4.36826 0
M  V30 4880 H 448.55 1.36673 -5.71484 0
M  V30 4881 H 450.074 2.29738 -5.65732 0
M  V30 4882 H 451.488 0.0272042 -5.73294 0
M  V30 4883 H 449.885 -0.731825 -5.95621 0
M  V30 4884 H 450.955 -1.31325 -4.66778 0
M  V30 4885 N 452.299 1.55045 -0.282633 0
M  V30 4886 C 453.548 1.98938 0.332667 0
M  V30 4887 C 453.861 1.17455 1.56409 0
M  V30 4888 O 455.067 1.51527 2.25282 0
M  V30 4889 C 453.523 3.54105 0.643226 0
M  V30 4890 C 453.131 4.44374 -0.568814 0
M  V30 4891 C 454.875 4.06569 1.22074 0
M  V30 4892 C 452.782 5.90943 -0.232426 0
M  V30 4893 H 451.712 0.743043 0.128075 0
M  V30 4894 H 454.363 1.79341 -0.388464 0
M  V30 4895 H 452.745 3.69532 1.42346 0
M  V30 4896 H 453.919 4.40718 -1.34551 0
M  V30 4897 H 452.234 4.02585 -1.06369 0
M  V30 4898 H 454.831 5.13626 1.48635 0
M  V30 4899 H 455.174 3.56057 2.15707 0
M  V30 4900 H 455.707 3.94612 0.502621 0
M  V30 4901 H 452.446 6.45567 -1.13683 0
M  V30 4902 H 451.966 5.9765 0.507357 0
M  V30 4903 H 453.645 6.4677 0.172657 0
M  V30 4904 N 453.777 0.010035 1.57597 0
M  V30 4905 C 455.002 -0.687021 1.95691 0
M  V30 4906 C 455.427 -1.65952 0.885519 0
M  V30 4907 O 454.785 -1.80633 -0.15543 0
M  V30 4908 C 454.833 -1.3864 3.32884 0
M  V30 4909 O 453.937 -2.50115 3.27897 0
M  V30 4910 H 453.278 -0.181989 0.638573 0
M  V30 4911 H 455.808 0.0662122 2.04493 0
M  V30 4912 H 455.818 -1.74754 3.6868 0
M  V30 4913 H 454.493 -0.673411 4.10412 0
M  V30 4914 H 453.07 -2.16253 3.03791 0
M  V30 4915 N 455.255 -1.55392 -0.262866 0
M  V30 4916 C 456.666 -1.67079 -0.833158 0
M  V30 4917 C 457.017 -0.604539 -1.86654 0
M  V30 4918 O 456.142 0.252138 -2.14926 0
M  V30 4919 C 456.737 -3.02891 -1.51797 0
M  V30 4920 C 455.296 -3.16571 -2.03617 0
M  V30 4921 C 454.443 -2.62909 -0.881701 0
M  V30 4922 H 457.394 -1.58652 -0.0389986 0
M  V30 4923 H 457.415 -2.96445 -2.38538 0
M  V30 4924 H 456.927 -3.80473 -0.765619 0
M  V30 4925 H 455.028 -2.43782 -2.81782 0
M  V30 4926 H 455.141 -4.23271 -2.24452 0
M  V30 4927 H 453.505 -2.20324 -1.27786 0
M  V30 4928 H 454.288 -3.43003 -0.14269 0
M  V30 4929 N 456.733 0.527833 -1.48498 0
M  V30 4930 C 457.663 1.64136 -1.66077 0
M  V30 4931 C 458.644 1.62286 -0.509625 0
M  V30 4932 O 459.829 1.79449 -0.742413 0
M  V30 4933 C 456.959 3.02717 -1.70234 0
M  V30 4934 C 455.913 3.19426 -2.8487 0
M  V30 4935 C 455.239 4.5909 -2.74118 0
M  V30 4936 C 456.539 3.01993 -4.26142 0
M  V30 4937 H 458.233 1.4968 -2.593 0
M  V30 4938 H 455.779 0.718654 -1.24785 0
M  V30 4939 H 457.732 3.80491 -1.8112 0
M  V30 4940 H 456.456 3.18201 -0.735911 0
M  V30 4941 H 455.115 2.4407 -2.73542 0
M  V30 4942 H 454.763 4.71413 -1.7544 0
M  V30 4943 H 454.463 4.71214 -3.51042 0
M  V30 4944 H 455.987 5.3896 -2.86974 0
M  V30 4945 H 457.401 3.69558 -4.38292 0
M  V30 4946 H 455.798 3.2561 -5.04082 0
M  V30 4947 H 456.868 1.98396 -4.42456 0
M  V30 4948 N 458.211 1.37122 0.776871 0
M  V30 4949 C 459.451 1.33441 1.54831 0
M  V30 4950 C 459.815 -0.0818963 1.91825 0
M  V30 4951 O 461.016 -0.24338 2.67696 0
M  V30 4952 C 459.287 2.24267 2.78279 0
M  V30 4953 S 460.846 2.38389 3.68397 0
M  V30 4954 H 457.664 0.473791 0.530135 0
M  V30 4955 H 460.266 1.7282 0.913968 0
M  V30 4956 H 458.97 3.261 2.49173 0
M  V30 4957 H 458.501 1.85953 3.46677 0
M  V30 4958 H 460.516 1.59068 4.70013 0
M  V30 4959 N 459.689 -1.00246 1.21608 0
M  V30 4960 C 460.914 -1.78167 1.06167 0
M  V30 4961 C 461.339 -1.84138 -0.384035 0
M  V30 4962 O 460.697 -1.28683 -1.27712 0
M  V30 4963 C 460.745 -3.19786 1.66642 0
M  V30 4964 O 459.849 -4.02153 0.913613 0
M  V30 4965 H 459.19 -0.549 0.37349 0
M  V30 4966 H 461.72 -1.25994 1.61204 0
M  V30 4967 H 461.73 -3.70451 1.70969 0
M  V30 4968 H 460.405 -3.14754 2.7185 0
M  V30 4969 H 458.982 -3.60711 0.945635 0
M  V30 4970 N 461.167 -1.02423 -1.1978 0
M  V30 4971 C 462.407 -0.726635 -1.91048 0
M  V30 4972 C 462.771 0.730947 -1.77542 0
M  V30 4973 O 463.972 1.14141 -2.43362 0
M  V30 4974 C 462.243 -1.15964 -3.38064 0
M  V30 4975 S 463.802 -0.985172 -4.27598 0
M  V30 4976 H 460.62 -0.264679 -0.659899 0
M  V30 4977 H 463.222 -1.31309 -1.44838 0
M  V30 4978 H 461.926 -2.21619 -3.45417 0
M  V30 4979 H 461.457 -0.566274 -3.89303 0
M  V30 4980 H 463.472 0.106946 -4.96085 0
M  V30 4981 N 462.645 1.35699 -0.801477 0
M  V30 4982 C 463.922 1.9324 -0.302937 0
M  V30 4983 C 464.302 1.73209 1.20672 0
M  V30 4984 O 463.65 1.09809 2.00385 0
M  V30 4985 C 463.86 3.41728 -0.708747 0
M  V30 4986 C 465.208 4.18868 -0.695328 0
M  V30 4987 O 466.232 3.5022 -0.649971 0
M  V30 4988 O 465.091 5.41342 -0.749081 0
M  V30 4989 H 462.185 0.82331 -0.0780367 0
M  V30 4990 H 464.731 1.44806 -0.884832 0
M  V30 4991 H 463.503 3.50015 -1.74944 0
M  V30 4992 H 463.126 3.97471 -0.101384 0
M  V30 4993 N 464.123 0.554532 1.47522 0
M  V30 4994 C 465.372 0.0273458 2.01681 0
M  V30 4995 C 465.685 -1.32962 1.43459 0
M  V30 4996 O 466.891 -1.94657 1.89265 0
M  V30 4997 C 465.347 -0.00159057 3.599 0
M  V30 4998 C 464.955 1.35197 4.27113 0
M  V30 4999 C 466.699 -0.476311 4.21819 0
M  V30 5000 C 464.606 1.28229 5.77331 0
M  V30 5001 H 463.536 0.00645269 0.753972 0
M  V30 5002 H 466.187 0.701985 1.69542 0
M  V30 5003 H 464.569 -0.741821 3.8899 0
M  V30 5004 H 465.743 2.1097 4.09668 0
M  V30 5005 H 464.058 1.76441 3.77171 0
M  V30 5006 H 466.655 -0.5468 5.31897 0
M  V30 5007 H 466.998 -1.4877 3.8881 0
M  V30 5008 H 467.531 0.20898 3.97251 0
M  V30 5009 H 464.27 2.26959 6.14955 0
M  V30 5010 H 463.79 0.566314 5.97121 0
M  V30 5011 H 465.469 0.983226 6.39485 0
M  V30 5012 N 465.601 -1.54893 0.290851 0
M  V30 5013 C 467.012 -1.85584 -0.203816 0
M  V30 5014 C 467.363 -1.21285 -1.54222 0
M  V30 5015 O 466.488 -0.506841 -2.10381 0
M  V30 5016 C 467.083 -3.367 -0.376595 0
M  V30 5017 C 465.642 -3.6746 -0.815485 0
M  V30 5018 C 464.789 -2.77178 0.0821087 0
M  V30 5019 H 467.74 -1.50208 0.512175 0
M  V30 5020 H 467.761 -3.60656 -1.21275 0
M  V30 5021 H 467.273 -3.8347 0.59767 0
M  V30 5022 H 465.374 -3.26201 -1.80066 0
M  V30 5023 H 465.487 -4.7478 -0.641905 0
M  V30 5024 H 463.851 -2.50925 -0.436895 0
M  V30 5025 H 464.634 -3.26767 1.05254 0
M  V30 5026 N 467.08 -0.0183926 -1.57589 0
M  V30 5027 C 468.043 0.951986 -2.08494 0
M  V30 5028 C 469.043 1.26092 -0.997874 0
M  V30 5029 O 470.233 1.20304 -1.25987 0
M  V30 5030 C 467.365 2.27165 -2.54182 0
M  V30 5031 H 468.558 0.511307 -2.95509 0
M  V30 5032 H 466.111 0.229444 -1.54607 0
M  V30 5033 H 466.846 2.75884 -1.70465 0
M  V30 5034 H 466.631 2.06057 -3.33591 0
M  V30 5035 H 468.121 2.9674 -2.93828 0
M  V30 5036 N 468.558 1.5553 0.254621 0
M  V30 5037 C 469.807 1.76202 0.981612 0
M  V30 5038 C 470.12 0.580883 1.86776 0
M  V30 5039 O 471.326 0.670448 2.63092 0
M  V30 5040 C 469.782 3.11921 1.79537 0
M  V30 5041 C 469.39 4.37659 0.956991 0
M  V30 5042 C 471.134 3.41936 2.51555 0
M  V30 5043 C 469.041 5.64411 1.76619 0
M  V30 5044 H 467.971 0.656841 0.370237 0
M  V30 5045 H 470.622 1.81969 0.236556 0
M  V30 5046 H 469.004 3.00241 2.58208 0
M  V30 5047 H 470.178 4.60307 0.21315 0
M  V30 5048 H 468.493 4.14922 0.350497 0
M  V30 5049 H 471.09 4.33849 3.12536 0
M  V30 5050 H 471.433 2.62905 3.22779 0
M  V30 5051 H 471.966 3.54797 1.799 0
M  V30 5052 H 468.705 6.46241 1.09783 0
M  V30 5053 H 468.225 5.45877 2.48551 0
M  V30 5054 H 469.904 6.03386 2.33527 0
M  V30 5055 N 470.036 -0.519951 1.48776 0
M  V30 5056 C 471.282 -1.27456 1.58514 0
M  V30 5057 C 471.637 -1.90634 0.260057 0
M  V30 5058 O 470.93 -1.76815 -0.738036 0
M  V30 5059 C 471.124 -2.37864 2.6675 0
M  V30 5060 C 470.953 -1.85509 4.09654 0
M  V30 5061 C 469.723 -1.67661 4.76674 0
M  V30 5062 C 471.921 -1.37783 4.955 0
M  V30 5063 N 469.903 -1.10037 6.03958 0
M  V30 5064 C 471.274 -0.921714 6.1311 0
M  V30 5065 C 473.329 -1.26179 4.81646 0
M  V30 5066 C 472.032 -0.361057 7.18393 0
M  V30 5067 C 474.058 -0.715121 5.8706 0
M  V30 5068 C 473.42 -0.269132 7.03886 0
M  V30 5069 H 469.519 -0.457049 0.634531 0
M  V30 5070 H 472.103 -0.585073 1.85701 0
M  V30 5071 H 470.274 -3.04296 2.41367 0
M  V30 5072 H 472.006 -3.04901 2.66116 0
M  V30 5073 H 468.761 -1.91478 4.33166 0
M  V30 5074 H 469.185 -0.832067 6.71867 0
M  V30 5075 H 473.827 -1.59263 3.91657 0
M  V30 5076 H 471.545 -0.0179127 8.08098 0
M  V30 5077 H 475.131 -0.628376 5.78397 0
M  V30 5078 H 474.011 0.14729 7.84062 0
M  V30 5079 N 471.514 -1.37532 -0.769588 0
M  V30 5080 C 472.461 -1.3347 -1.88293 0
M  V30 5081 C 473.431 -0.199891 -1.64893 0
M  V30 5082 O 474.616 -0.389594 -1.8678 0
M  V30 5083 C 471.756 -1.14968 -3.25387 0
M  V30 5084 C 470.869 -2.37698 -3.60727 0
M  V30 5085 C 470.004 -2.12051 -4.8704 0
M  V30 5086 C 469.043 -3.30636 -5.15117 0
M  V30 5087 N 468.18 -3.04527 -6.3262 0
M  V30 5088 H 473.02 -2.28658 -1.911 0
M  V30 5089 H 470.557 -1.13622 -0.934257 0
M  V30 5090 H 472.515 -1.02261 -4.04473 0
M  V30 5091 H 471.145 -0.234263 -3.21949 0
M  V30 5092 H 470.197 -2.61137 -2.76608 0
M  V30 5093 H 471.509 -3.26131 -3.77413 0
M  V30 5094 H 470.663 -1.96388 -5.74035 0
M  V30 5095 H 469.402 -1.20959 -4.72462 0
M  V30 5096 H 468.407 -3.46836 -4.26597 0
M  V30 5097 H 469.632 -4.22582 -5.31603 0
M  V30 5098 H 467.578 -2.16067 -6.19396 0
M  V30 5099 H 467.495 -3.86503 -6.49732 0
M  V30 5100 H 468.763 -2.92485 -7.22546 0
M  V30 5101 N 472.992 0.995999 -1.22138 0
M  V30 5102 C 474.217 1.77601 -1.0711 0
M  V30 5103 C 474.642 1.84339 0.374264 0
M  V30 5104 O 474 1.29359 1.27028 0
M  V30 5105 C 474.048 3.18897 -1.68336 0
M  V30 5106 O 473.152 4.01663 -0.934928 0
M  V30 5107 H 472.493 0.547011 -0.376397 0
M  V30 5108 H 475.023 1.25137 -1.6187 0
M  V30 5109 H 475.033 3.69539 -1.72931 0
M  V30 5110 H 473.708 3.13308 -2.73516 0
M  V30 5111 H 472.285 3.60204 -0.964751 0
M  V30 5112 N 474.47 1.03057 1.19235 0
M  V30 5113 C 475.719 0.72326 1.88287 0
M  V30 5114 C 476.032 -0.751333 1.80594 0
M  V30 5115 O 477.238 -1.17176 2.44912 0
M  V30 5116 C 475.694 1.24338 3.3774 0
M  V30 5117 C 475.302 2.74587 3.53986 0
M  V30 5118 C 477.046 1.01213 4.12257 0
M  V30 5119 C 474.953 3.20009 4.97341 0
M  V30 5120 H 473.883 0.266848 0.705201 0
M  V30 5121 H 476.534 1.24509 1.34795 0
M  V30 5122 H 474.916 0.649457 3.90638 0
M  V30 5123 H 476.09 3.39649 3.11408 0
M  V30 5124 H 474.405 2.9601 2.9286 0
M  V30 5125 H 477.002 1.32675 5.17978 0
M  V30 5126 H 477.345 -0.051001 4.16269 0
M  V30 5127 H 477.878 1.57014 3.65501 0
M  V30 5128 H 474.617 4.25659 4.98493 0
M  V30 5129 H 474.137 2.59676 5.40674 0
M  V30 5130 H 475.816 3.13447 5.66003 0
M  V30 5131 N 475.948 -1.35272 0.808662 0
M  V30 5132 C 477.195 -1.98709 0.390003 0
M  V30 5133 C 477.523 -1.64148 -1.04335 0
M  V30 5134 O 476.778 -0.897797 -1.73891 0
M  V30 5135 C 477.077 -3.53556 0.522798 0
M  V30 5136 C 476.743 -4.0799 1.91977 0
M  V30 5137 C 475.405 -4.22568 2.30195 0
M  V30 5138 C 477.757 -4.37442 2.83361 0
M  V30 5139 C 475.085 -4.63918 3.59162 0
M  V30 5140 C 477.437 -4.80232 4.11776 0
M  V30 5141 C 476.101 -4.93016 4.49991 0
M  V30 5142 H 475.371 -0.727127 0.142712 0
M  V30 5143 H 478.018 -1.6145 1.02985 0
M  V30 5144 H 476.323 -3.91287 -0.200494 0
M  V30 5145 H 478.02 -4.00598 0.179608 0
M  V30 5146 H 474.61 -3.97096 1.61284 0
M  V30 5147 H 478.794 -4.25731 2.55083 0
M  V30 5148 H 474.05 -4.72005 3.88615 0
M  V30 5149 H 478.224 -5.01982 4.82687 0
M  V30 5150 H 475.851 -5.24814 5.49976 0
M  V30 5151 N 477.426 -0.562348 -1.47226 0
M  V30 5152 C 478.356 0.170627 -2.32876 0
M  V30 5153 C 479.337 0.903748 -1.44106 0
M  V30 5154 O 480.522 0.883206 -1.72954 0
M  V30 5155 C 477.652 1.19786 -3.25989 0
M  V30 5156 C 476.606 0.580875 -4.2404 0
M  V30 5157 C 475.932 1.71311 -5.06514 0
M  V30 5158 C 477.232 -0.468714 -5.20193 0
M  V30 5159 H 478.926 -0.544441 -2.94408 0
M  V30 5160 H 476.472 -0.263271 -1.41573 0
M  V30 5161 H 478.425 1.71884 -3.84752 0
M  V30 5162 H 477.149 1.94294 -2.62521 0
M  V30 5163 H 475.808 0.0811538 -3.6651 0
M  V30 5164 H 475.456 2.44736 -4.39447 0
M  V30 5165 H 475.156 1.30604 -5.72902 0
M  V30 5166 H 476.68 2.23725 -5.68137 0
M  V30 5167 H 478.094 -0.0336028 -5.7329 0
M  V30 5168 H 476.491 -0.794957 -5.94811 0
M  V30 5169 H 477.561 -1.36269 -4.65359 0
M  V30 5170 N 478.904 1.54736 -0.299062 0
M  V30 5171 C 480.15 2.01114 0.304123 0
M  V30 5172 C 480.505 1.18376 1.51674 0
M  V30 5173 O 479.798 0.251635 1.8994 0
M  V30 5174 C 479.992 3.50199 0.713835 0
M  V30 5175 C 479.821 4.47366 -0.457531 0
M  V30 5176 C 478.591 4.9631 -0.948933 0
M  V30 5177 C 480.789 4.9755 -1.30186 0
M  V30 5178 N 478.771 5.77327 -2.08726 0
M  V30 5179 C 480.142 5.7625 -2.28771 0
M  V30 5180 C 482.197 4.79739 -1.33246 0
M  V30 5181 C 480.9 6.39036 -3.3019 0
M  V30 5182 C 482.926 5.43343 -2.33521 0
M  V30 5183 C 482.288 6.21874 -3.30836 0
M  V30 5184 H 478.387 0.778318 0.0757992 0
M  V30 5185 H 480.971 1.89925 -0.428536 0
M  V30 5186 H 479.142 3.61681 1.41567 0
M  V30 5187 H 480.874 3.83374 1.29639 0
M  V30 5188 H 477.629 4.7069 -0.52423 0
M  V30 5189 H 478.053 6.22521 -2.66077 0
M  V30 5190 H 482.695 4.18609 -0.59383 0
M  V30 5191 H 480.413 6.99302 -4.04973 0
M  V30 5192 H 483.999 5.31492 -2.3666 0
M  V30 5193 H 482.879 6.70217 -4.07159 0
M  V30 5194 N 480.382 0.0267497 1.57577 0
M  V30 5195 C 481.312 -0.954308 2.13108 0
M  V30 5196 C 482.293 -1.34088 1.04663 0
M  V30 5197 O 483.478 -1.41992 1.32484 0
M  V30 5198 C 480.608 -2.23744 2.65624 0
M  V30 5199 C 479.562 -1.99168 3.78835 0
M  V30 5200 C 478.888 -3.33726 4.17769 0
M  V30 5201 C 480.188 -1.33277 5.0501 0
M  V30 5202 H 481.882 -0.491848 2.95332 0
M  V30 5203 H 479.428 -0.23514 1.42067 0
M  V30 5204 H 481.381 -2.92754 3.03106 0
M  V30 5205 H 480.105 -2.72151 1.80558 0
M  V30 5206 H 478.764 -1.32577 3.41788 0
M  V30 5207 H 478.412 -3.79888 3.29688 0
M  V30 5208 H 478.112 -3.18089 4.94058 0
M  V30 5209 H 479.636 -4.04008 4.57832 0
M  V30 5210 H 481.05 -1.92283 5.40093 0
M  V30 5211 H 479.447 -1.28045 5.8628 0
M  V30 5212 H 480.517 -0.305411 4.83937 0
M  V30 5213 N 481.861 -1.55662 -0.24637 0
M  V30 5214 C 483.109 -1.77168 -0.972411 0
M  V30 5215 C 483.43 -0.590827 -1.85834 0
M  V30 5216 O 482.7 0.393365 -1.9191 0
M  V30 5217 H 481.28 -0.653405 -0.362038 0
M  V30 5218 H 483.942 -1.93101 -0.264189 0
M  V30 5219 H 483.038 -2.68335 -1.59382 0
M  V30 5220 N 483.339 0.512053 -1.4905 0
M  V30 5221 C 484.569 1.28928 -1.61434 0
M  V30 5222 C 484.977 1.87107 -0.280647 0
M  V30 5223 O 484.32 1.68024 0.742537 0
M  V30 5224 C 484.382 2.466 -2.61588 0
M  V30 5225 C 484.046 2.09375 -4.06216 0
M  V30 5226 C 485.043 1.63994 -4.93358 0
M  V30 5227 C 482.728 2.19348 -4.51876 0
M  V30 5228 C 484.722 1.29076 -6.24194 0
M  V30 5229 C 482.409 1.84041 -5.82728 0
M  V30 5230 C 483.407 1.38978 -6.68711 0
M  V30 5231 O 483.095 1.04144 -7.97126 0
M  V30 5232 H 482.827 0.397668 -0.546659 0
M  V30 5233 H 485.381 0.622507 -1.9574 0
M  V30 5234 H 483.611 3.16318 -2.22441 0
M  V30 5235 H 485.3 3.08642 -2.63619 0
M  V30 5236 H 486.066 1.55744 -4.59313 0
M  V30 5237 H 481.945 2.53376 -3.85125 0
M  V30 5238 H 485.489 0.938303 -6.91261 0
M  V30 5239 H 481.386 1.91938 -6.16304 0
M  V30 5240 H 482.154 1.17387 -8.10039 0
M  V30 5241 N 484.817 1.37938 0.762283 0
M  V30 5242 C 486.042 1.37059 1.55659 0
M  V30 5243 C 486.467 -0.0396123 1.88058 0
M  V30 5244 O 485.825 -1.01929 1.49934 0
M  V30 5245 C 485.873 2.22494 2.83776 0
M  V30 5246 O 484.977 1.63607 3.78559 0
M  V30 5247 H 484.318 0.467892 0.47114 0
M  V30 5248 H 486.848 1.81587 0.942725 0
M  V30 5249 H 486.858 2.36045 3.32786 0
M  V30 5250 H 485.533 3.24993 2.59524 0
M  V30 5251 H 484.11 1.5915 3.37233 0
M  V30 5252 N 486.295 -0.989507 1.22664 0
M  V30 5253 C 487.243 -2.10148 0.997035 0
M  V30 5254 C 488.237 -1.6929 -0.0609783 0
M  V30 5255 O 489.443 -1.79766 0.0917523 0
M  V30 5256 H 485.818 -0.687256 0.305259 0
M  V30 5257 H 487.789 -2.26685 1.94053 0
M  V30 5258 C 486.538 -3.4257 0.595085 0
M  V30 5259 H 485.861 -3.74453 1.40089 0
M  V30 5260 H 487.301 -4.21344 0.473869 0
M  V30 5261 C 485.76 -3.29638 -0.695725 0
M  V30 5262 O 486.29 -3.61709 -1.74727 0
M  V30 5263 N 484.496 -2.82814 -0.668173 0
M  V30 5264 H 484.043 -2.56914 0.18787 0
M  V30 5265 H 484.001 -2.74544 -1.5321 0
M  V30 5266 N 487.773 -1.03688 -1.18687 0
M  V30 5267 C 488.998 -0.757819 -1.93059 0
M  V30 5268 C 489.423 0.678353 -1.75442 0
M  V30 5269 O 488.781 1.46938 -1.06203 0
M  V30 5270 C 488.829 -1.12423 -3.42627 0
M  V30 5271 O 487.933 -0.247505 -4.11657 0
M  V30 5272 H 487.274 -0.279245 -0.602427 0
M  V30 5273 H 489.804 -1.3857 -1.5053 0
M  V30 5274 H 489.814 -1.08454 -3.93322 0
M  V30 5275 H 488.489 -2.17049 -3.54771 0
M  V30 5276 H 487.066 -0.34649 -3.71287 0
M  V30 5277 N 489.251 1.34841 -0.815825 0
M  V30 5278 C 490.498 1.98499 -0.400535 0
M  V30 5279 C 490.826 1.64699 1.03463 0
M  V30 5280 O 490.081 0.907006 1.73412 0
M  V30 5281 C 490.38 3.53273 -0.541541 0
M  V30 5282 C 490.046 4.06966 -1.94138 0
M  V30 5283 C 488.708 4.21341 -2.32433 0
M  V30 5284 C 491.06 4.35933 -2.85677 0
M  V30 5285 C 488.388 4.62007 -3.61617 0
M  V30 5286 C 490.74 4.78042 -4.14317 0
M  V30 5287 C 489.404 4.90622 -4.52599 0
M  V30 5288 H 488.674 0.72636 -0.146566 0
M  V30 5289 H 491.321 1.60902 -1.0384 0
M  V30 5290 H 489.626 3.91387 0.179741 0
M  V30 5291 H 491.323 4.00497 -0.20085 0
M  V30 5292 H 487.913 3.96235 -1.63388 0
M  V30 5293 H 492.097 4.24372 -2.57337 0
M  V30 5294 H 487.353 4.69937 -3.91113 0
M  V30 5295 H 491.527 4.99415 -4.85342 0
M  V30 5296 H 489.154 5.2189 -5.52752 0
M  V30 5297 N 490.729 0.570148 1.46925 0
M  V30 5298 C 491.976 0.0509529 2.02436 0
M  V30 5299 C 492.304 -1.30405 1.44308 0
M  V30 5300 O 491.559 -1.86493 0.593198 0
M  V30 5301 C 491.858 -0.0780336 3.57315 0
M  V30 5302 C 491.524 1.20775 4.34424 0
M  V30 5303 C 490.186 1.56004 4.5521 0
M  V30 5304 C 492.538 2.0592 4.78797 0
M  V30 5305 C 489.866 2.76201 5.17619 0
M  V30 5306 C 492.218 3.25332 5.42533 0
M  V30 5307 C 490.882 3.60859 5.61549 0
M  V30 5308 H 490.152 0.018645 0.740765 0
M  V30 5309 H 492.799 0.744262 1.76445 0
M  V30 5310 H 491.104 -0.854394 3.82371 0
M  V30 5311 H 492.801 -0.495312 3.97929 0
M  V30 5312 H 489.391 0.923469 4.18533 0
M  V30 5313 H 493.575 1.80008 4.62505 0
M  V30 5314 H 488.831 3.0388 5.30535 0
M  V30 5315 H 493.005 3.91586 5.75876 0
M  V30 5316 H 490.632 4.54088 6.09678 0
M  V30 5317 N 492.207 -1.54576 0.307264 0
M  V30 5318 C 493.155 -2.25208 -0.581723 0
M  V30 5319 C 494.149 -1.26031 -1.13192 0
M  V30 5320 O 495.355 -1.43862 -1.08184 0
M  V30 5321 H 491.73 -0.723173 -0.206214 0
M  V30 5322 H 493.701 -2.98378 0.0364663 0
M  V30 5323 C 492.45 -3.01086 -1.73904 0
M  V30 5324 H 491.773 -3.77208 -1.32491 0
M  V30 5325 H 493.213 -3.5378 -2.33701 0
M  V30 5326 C 491.672 -2.08422 -2.64692 0
M  V30 5327 O 492.202 -1.65636 -3.65961 0
M  V30 5328 N 490.408 -1.74247 -2.32564 0
M  V30 5329 H 489.955 -2.09238 -1.50257 0
M  V30 5330 H 489.913 -1.12524 -2.93574 0
M  V30 5331 N 493.685 -0.035106 -1.57561 0
M  V30 5332 C 495.096 0.502885 -1.798 0
M  V30 5333 C 495.447 1.71892 -0.945921 0
M  V30 5334 O 494.572 2.15822 -0.157991 0
M  V30 5335 C 495.167 0.919097 -3.26095 0
M  V30 5336 C 493.726 1.40216 -3.49308 0
M  V30 5337 C 492.873 0.369709 -2.74824 0
M  V30 5338 H 495.824 -0.261102 -1.56537 0
M  V30 5339 H 495.845 1.78308 -3.36135 0
M  V30 5340 H 495.357 0.0338526 -3.88085 0
M  V30 5341 H 493.458 2.30714 -2.92578 0
M  V30 5342 H 493.571 1.40541 -4.58023 0
M  V30 5343 H 491.935 0.839113 -2.40481 0
M  V30 5344 H 492.718 -0.507173 -3.39533 0
M  V30 5345 N 495.163 1.55791 0.238111 0
M  V30 5346 C 496.093 1.94068 1.29846 0
M  V30 5347 C 497.074 0.806726 1.49753 0
M  V30 5348 O 498.259 1.06772 1.62214 0
M  V30 5349 C 495.389 2.24302 2.65153 0
M  V30 5350 C 494.343 3.40032 2.59927 0
M  V30 5351 C 493.669 3.55829 3.99111 0
M  V30 5352 C 494.969 4.75476 2.16148 0
M  V30 5353 H 496.663 2.82887 0.980563 0
M  V30 5354 H 494.209 1.36105 0.470253 0
M  V30 5355 H 496.162 2.4967 3.39475 0
M  V30 5356 H 494.886 1.32318 2.98596 0
M  V30 5357 H 493.545 3.14687 1.88063 0
M  V30 5358 H 493.193 2.6125 4.29834 0
M  V30 5359 H 492.893 4.3366 3.96501 0
M  V30 5360 H 494.417 3.83528 4.7512 0
M  V30 5361 H 495.831 5.00158 2.80205 0
M  V30 5362 H 494.228 5.56472 2.24631 0
M  V30 5363 H 495.298 4.71946 1.11333 0
M  V30 5364 N 496.642 -0.504142 1.49319 0
M  V30 5365 C 497.891 -1.25507 1.57895 0
M  V30 5366 C 498.204 -1.93735 0.269433 0
M  V30 5367 O 499.41 -2.70492 0.233706 0
M  V30 5368 C 497.866 -2.27869 2.78574 0
M  V30 5369 C 497.474 -1.65594 4.16272 0
M  V30 5370 C 499.218 -3.0381 2.96479 0
M  V30 5371 C 497.125 -2.66048 5.28178 0
M  V30 5372 H 496.055 -0.47212 0.587894 0
M  V30 5373 H 498.706 -0.52931 1.757 0
M  V30 5374 H 497.088 -3.03594 2.54257 0
M  V30 5375 H 498.262 -0.958826 4.50714 0
M  V30 5376 H 496.577 -1.02055 4.037 0
M  V30 5377 H 499.174 -3.78925 3.77253 0
M  V30 5378 H 499.517 -3.61235 2.06918 0
M  V30 5379 H 500.05 -2.352 3.20821 0
M  V30 5380 H 496.789 -2.13408 6.19788 0
M  V30 5381 H 496.309 -3.34009 4.98195 0
M  V30 5382 H 497.988 -3.28536 5.57381 0
M  V30 5383 N 498.12 -1.38341 -0.754957 0
M  V30 5384 C 499.35 -1.37504 -1.54195 0
M  V30 5385 C 499.758 0.0373787 -1.89163 0
M  V30 5386 O 499.101 1.01402 -1.53178 0
M  V30 5387 C 499.163 -2.16488 -2.87008 0
M  V30 5388 C 498.827 -3.65311 -2.74585 0
M  V30 5389 C 499.824 -4.58834 -2.44474 0
M  V30 5390 C 497.509 -4.08649 -2.9208 0
M  V30 5391 C 499.503 -5.93675 -2.32011 0
M  V30 5392 C 497.19 -5.43571 -2.79237 0
M  V30 5393 C 498.188 -6.35898 -2.49245 0
M  V30 5394 O 497.876 -7.68338 -2.36458 0
M  V30 5395 H 497.608 -0.472159 -0.483779 0
M  V30 5396 H 500.162 -1.82515 -0.94221 0
M  V30 5397 H 498.392 -1.66194 -3.49166 0
M  V30 5398 H 500.081 -2.08076 -3.4851 0
M  V30 5399 H 500.847 -4.26657 -2.30627 0
M  V30 5400 H 496.726 -3.37134 -3.14422 0
M  V30 5401 H 500.27 -6.65706 -2.08522 0
M  V30 5402 H 496.167 -5.75345 -2.92657 0
M  V30 5403 H 496.935 -7.78845 -2.5168 0
M  V30 5404 N 499.598 0.982988 -1.23187 0
M  V30 5405 C 500.826 1.75921 -1.08901 0
M  V30 5406 C 501.241 1.85341 0.359719 0
M  V30 5407 O 500.598 1.33072 1.24892 0
M  V30 5408 C 500.649 3.18742 -1.70545 0
M  V30 5409 O 500.37 3.09814 -3.09753 0
M  V30 5410 C 501.871 4.1277 -1.61667 0
M  V30 5411 H 499.091 0.552166 -0.381252 0
M  V30 5412 H 501.635 1.23516 -1.62985 0
M  V30 5413 H 499.79 3.68182 -1.20501 0
M  V30 5414 H 500.204 3.99703 -3.39614 0
M  V30 5415 H 501.678 5.10697 -2.09506 0
M  V30 5416 H 502.155 4.3542 -0.575009 0
M  V30 5417 H 502.761 3.69232 -2.11064 0
M  V30 5418 N 501.076 1.04316 1.18135 0
M  V30 5419 C 502.039 0.640794 2.2006 0
M  V30 5420 C 503.039 -0.303124 1.57917 0
M  V30 5421 O 504.229 -0.0881855 1.73977 0
M  V30 5422 C 501.361 -0.060148 3.40847 0
M  V30 5423 H 502.554 1.54281 2.57172 0
M  V30 5424 H 500.107 0.836004 1.32063 0
M  V30 5425 H 500.842 -0.975845 3.0927 0
M  V30 5426 H 500.627 0.618319 3.87194 0
M  V30 5427 H 502.117 -0.328082 4.16309 0
M  V30 5428 N 502.554 -1.34406 0.822964 0
M  V30 5429 C 503.801 -1.98284 0.411057 0
M  V30 5430 C 504.129 -1.65245 -1.02588 0
M  V30 5431 O 503.384 -0.91619 -1.72929 0
M  V30 5432 C 503.683 -3.52981 0.560268 0
M  V30 5433 C 503.349 -4.05931 1.96293 0
M  V30 5434 C 502.011 -4.20103 2.34664 0
M  V30 5435 C 504.363 -4.34412 2.87985 0
M  V30 5436 C 501.691 -4.60082 3.64062 0
M  V30 5437 C 504.043 -4.75838 4.16847 0
M  V30 5438 C 502.707 -4.88215 4.55195 0
M  V30 5439 H 501.977 -0.725573 0.150416 0
M  V30 5440 H 504.624 -1.60349 1.04692 0
M  V30 5441 H 502.929 -3.91477 -0.158982 0
M  V30 5442 H 504.626 -4.00385 0.222087 0
M  V30 5443 H 501.216 -3.95363 1.65487 0
M  V30 5444 H 505.4 -4.23001 2.59584 0
M  V30 5445 H 500.656 -4.67856 3.93599 0
M  V30 5446 H 504.83 -4.96834 4.87984 0
M  V30 5447 H 502.457 -5.18952 5.55512 0
M  V30 5448 N 504.032 -0.577932 -1.46621 0
M  V30 5449 C 504.98 0.170882 -2.31971 0
M  V30 5450 C 505.974 0.889086 -1.44193 0
M  V30 5451 O 507.18 0.808017 -1.60845 0
M  V30 5452 H 503.555 0.0739763 -0.748353 0
M  V30 5453 H 505.526 -0.567856 -2.92947 0
M  V30 5454 C 504.275 1.17438 -3.27267 0
M  V30 5455 H 503.598 0.63116 -3.94787 0
M  V30 5456 H 505.038 1.66882 -3.89778 0
M  V30 5457 C 503.497 2.23292 -2.52274 0
M  V30 5458 O 504.027 3.30567 -2.28229 0
M  V30 5459 N 502.233 1.97772 -2.12919 0
M  V30 5460 H 501.78 1.10545 -2.32675 0
M  V30 5461 H 501.738 2.68809 -1.63062 0
M  V30 5462 N 505.51 1.54411 -0.315457 0
M  V30 5463 C 506.457 2.24048 0.554166 0
M  V30 5464 C 507.427 1.2283 1.11812 0
M  V30 5465 O 508.612 1.51491 1.15997 0
M  V30 5466 C 505.752 2.99574 1.71316 0
M  V30 5467 C 504.865 4.15594 1.17922 0
M  V30 5468 C 504 4.78669 2.30324 0
M  V30 5469 C 503.039 5.86807 1.74137 0
M  V30 5470 N 502.176 6.43777 2.8017 0
M  V30 5471 H 507.016 2.97964 -0.0462602 0
M  V30 5472 H 504.553 1.47059 -0.0346009 0
M  V30 5473 H 506.511 3.41604 2.39505 0
M  V30 5474 H 505.141 2.28008 2.285 0
M  V30 5475 H 504.193 3.78404 0.389136 0
M  V30 5476 H 505.505 4.93459 0.728012 0
M  V30 5477 H 504.659 5.23626 3.06433 0
M  V30 5478 H 503.398 4.00168 2.78778 0
M  V30 5479 H 502.403 5.41261 0.965236 0
M  V30 5480 H 503.628 6.67201 1.2657 0
M  V30 5481 H 501.574 5.68153 3.2793 0
M  V30 5482 H 501.491 7.17031 2.39588 0
M  V30 5483 H 502.759 6.9339 3.56132 0
M  V30 5484 N 506.988 0.0434614 1.5754 0
M  V30 5485 C 507.936 -0.951465 2.1225 0
M  V30 5486 C 508.93 -1.3274 1.05245 0
M  V30 5487 O 510.136 -1.30795 1.23663 0
M  V30 5488 H 506.511 -0.324667 0.678303 0
M  V30 5489 H 508.482 -0.464855 2.94757 0
M  V30 5490 C 507.231 -2.21972 2.67626 0
M  V30 5491 H 506.554 -1.93923 3.4962 0
M  V30 5492 H 507.994 -2.89765 3.09536 0
M  V30 5493 C 506.453 -2.95919 1.61038 0
M  V30 5494 O 506.983 -3.8857 1.01862 0
M  V30 5495 N 505.189 -2.58511 1.32741 0
M  V30 5496 H 504.736 -1.83244 1.81051 0
M  V30 5497 H 504.694 -3.08296 0.616531 0
M  V30 5498 N 508.466 -1.55915 -0.229846 0
M  V30 5499 C 509.696 -1.82352 -0.971152 0
M  V30 5500 C 510.104 -0.619231 -1.7878 0
M  V30 5501 O 509.447 0.421597 -1.78797 0
M  V30 5502 C 509.509 -3.02399 -1.9441 0
M  V30 5503 C 509.173 -4.37739 -1.31277 0
M  V30 5504 C 510.17 -5.15074 -0.706757 0
M  V30 5505 C 507.855 -4.84454 -1.32702 0
M  V30 5506 C 509.849 -6.37281 -0.123413 0
M  V30 5507 C 507.536 -6.06605 -0.739831 0
M  V30 5508 C 508.534 -6.82858 -0.139071 0
M  V30 5509 O 508.222 -8.027 0.439007 0
M  V30 5510 H 507.954 -0.61035 -0.290601 0
M  V30 5511 H 510.508 -2.03839 -0.252746 0
M  V30 5512 H 508.738 -2.76709 -2.70128 0
M  V30 5513 H 510.427 -3.15779 -2.55026 0
M  V30 5514 H 511.193 -4.80093 -0.688131 0
M  V30 5515 H 507.072 -4.25081 -1.78402 0
M  V30 5516 H 510.616 -6.96741 0.346124 0
M  V30 5517 H 506.513 -6.4106 -0.755841 0
M  V30 5518 H 507.281 -8.17824 0.332521 0
M  V30 5519 N 509.944 0.496216 -1.49584 0
M  V30 5520 C 510.892 1.61805 -1.67098 0
M  V30 5521 C 511.886 1.60667 -0.536877 0
M  V30 5522 O 513.092 1.65118 -0.716654 0
M  V30 5523 H 509.467 0.53646 -0.526986 0
M  V30 5524 H 511.438 1.44187 -2.61252 0
M  V30 5525 C 510.187 2.99912 -1.75921 0
M  V30 5526 H 509.51 3.01496 -2.62565 0
M  V30 5527 H 510.95 3.77931 -1.92209 0
M  V30 5528 C 509.409 3.33092 -0.505088 0
M  V30 5529 O 509.939 4.00019 0.367085 0
M  V30 5530 N 508.145 2.88278 -0.366599 0
M  V30 5531 H 507.692 2.33989 -1.07735 0
M  V30 5532 H 507.65 3.10846 0.47142 0
M  V30 5533 N 511.423 1.38739 0.74761 0
M  V30 5534 C 512.648 1.38702 1.54197 0
M  V30 5535 C 513.073 -0.019664 1.8809 0
M  V30 5536 O 512.431 -1.00333 1.51006 0
M  V30 5537 C 512.479 2.25492 2.814 0
M  V30 5538 O 511.583 1.67613 3.76802 0
M  V30 5539 H 510.924 0.472863 0.466151 0
M  V30 5540 H 513.454 1.82577 0.923413 0
M  V30 5541 H 513.464 2.39561 3.30264 0
M  V30 5542 H 512.139 3.27727 2.56062 0
M  V30 5543 H 510.716 1.62718 3.35526 0
M  V30 5544 N 512.901 -0.976442 1.23707 0
M  V30 5545 C 513.864 -2.0511 1.02287 0
M  V30 5546 C 514.864 -1.60791 -0.0167195 0
M  V30 5547 O 516.054 -1.72761 0.223408 0
M  V30 5548 C 513.186 -3.36458 0.548507 0
M  V30 5549 H 514.379 -2.25545 1.9766 0
M  V30 5550 H 511.932 -1.15042 1.05806 0
M  V30 5551 H 512.667 -3.21713 -0.408818 0
M  V30 5552 H 512.452 -3.69967 1.29874 0
M  V30 5553 H 513.942 -4.15489 0.419406 0
M  V30 5554 N 514.379 -1.04941 -1.1758 0
M  V30 5555 C 515.626 -0.757989 -1.87779 0
M  V30 5556 C 515.954 0.714827 -1.80888 0
M  V30 5557 O 515.209 1.53824 -1.20982 0
M  V30 5558 C 515.508 -1.18062 -3.37337 0
M  V30 5559 C 515.174 -2.65521 -3.6443 0
M  V30 5560 C 513.836 -3.05804 -3.71534 0
M  V30 5561 C 516.188 -3.60822 -3.76108 0
M  V30 5562 C 513.516 -4.40256 -3.87803 0
M  V30 5563 C 515.868 -4.95005 -3.93895 0
M  V30 5564 C 514.532 -5.34945 -3.99237 0
M  V30 5565 H 513.802 -0.277368 -0.68713 0
M  V30 5566 H 516.449 -1.31603 -1.39115 0
M  V30 5567 H 514.754 -0.541525 -3.8804 0
M  V30 5568 H 516.451 -0.932368 -3.9001 0
M  V30 5569 H 513.041 -2.33324 -3.59524 0
M  V30 5570 H 517.225 -3.30841 -3.69943 0
M  V30 5571 H 512.481 -4.70707 -3.90186 0
M  V30 5572 H 516.655 -5.68746 -4.01872 0
M  V30 5573 H 514.282 -6.39135 -4.11596 0
M  V30 5574 N 515.857 1.33968 -0.830081 0
M  V30 5575 C 516.804 2.29387 -0.255008 0
M  V30 5576 C 517.774 1.53923 0.624243 0
M  V30 5577 O 518.959 1.82262 0.564372 0
M  V30 5578 C 516.099 3.4034 0.571209 0
M  V30 5579 C 515.212 4.30729 -0.331083 0
M  V30 5580 C 514.347 5.2879 0.505389 0
M  V30 5581 C 513.386 6.10819 -0.395843 0
M  V30 5582 N 512.523 7.00948 0.401979 0
M  V30 5583 H 517.363 2.77972 -1.07404 0
M  V30 5584 H 514.9 1.36785 -0.541133 0
M  V30 5585 H 516.858 4.03361 1.06562 0
M  V30 5586 H 515.488 2.9297 1.35529 0
M  V30 5587 H 514.54 3.68507 -0.943759 0
M  V30 5588 H 515.852 4.88181 -1.02377 0
M  V30 5589 H 515.006 5.97297 1.06399 0
M  V30 5590 H 513.745 4.71894 1.23155 0
M  V30 5591 H 512.75 5.41238 -0.966529 0
M  V30 5592 H 513.975 6.69797 -1.12023 0
M  V30 5593 H 511.921 6.46512 1.11168 0
M  V30 5594 H 511.838 7.55643 -0.232167 0
M  V30 5595 H 513.106 7.73774 0.943102 0
M  V30 5596 N 517.335 0.585699 1.46312 0
M  V30 5597 C 518.283 -0.158577 2.32059 0
M  V30 5598 C 519.277 -0.881427 1.44662 0
M  V30 5599 O 520.483 -0.799476 1.61271 0
M  V30 5600 H 516.858 -0.0700066 0.748734 0
M  V30 5601 H 518.829 0.583383 2.92642 0
M  V30 5602 C 517.578 -1.15701 3.27885 0
M  V30 5603 H 516.901 -0.610215 3.95116 0
M  V30 5604 H 518.341 -1.64812 3.90657 0
M  V30 5605 C 516.8 -2.21951 2.53455 0
M  V30 5606 O 517.33 -3.29352 2.29978 0
M  V30 5607 N 515.536 -1.9664 2.13965 0
M  V30 5608 H 515.083 -1.09309 2.33258 0
M  V30 5609 H 515.041 -2.6794 1.64485 0
M  V30 5610 N 518.813 -1.54241 0.323641 0
M  V30 5611 C 520.06 -2.0057 -0.27891 0
M  V30 5612 C 520.388 -1.21181 -1.52136 0
M  V30 5613 O 519.643 -0.282043 -1.93657 0
M  V30 5614 C 519.942 -3.5129 -0.658031 0
M  V30 5615 C 519.608 -4.48281 0.485252 0
M  V30 5616 C 518.27 -4.74519 0.799055 0
M  V30 5617 C 520.622 -5.05909 1.25322 0
M  V30 5618 C 517.95 -5.55643 1.88354 0
M  V30 5619 C 520.302 -5.88215 2.32779 0
M  V30 5620 C 518.966 -6.12755 2.64741 0
M  V30 5621 H 518.236 -0.733938 -0.10206 0
M  V30 5622 H 520.883 -1.862 0.447435 0
M  V30 5623 H 519.188 -3.63388 -1.4648 0
M  V30 5624 H 520.885 -3.84578 -1.1358 0
M  V30 5625 H 517.475 -4.27979 0.230593 0
M  V30 5626 H 521.659 -4.8562 1.02404 0
M  V30 5627 H 516.915 -5.72888 2.13564 0
M  V30 5628 H 521.089 -6.31888 2.92729 0
M  V30 5629 H 518.716 -6.75404 3.48904 0
M  V30 5630 N 520.291 -0.0518155 -1.57515 0
M  V30 5631 C 521.538 0.621823 -1.92716 0
M  V30 5632 C 521.866 1.70813 -0.930229 0
M  V30 5633 O 521.121 1.95616 0.0573708 0
M  V30 5634 C 521.42 1.25607 -3.34601 0
M  V30 5635 C 521.086 0.297901 -4.49915 0
M  V30 5636 C 519.748 0.034243 -4.81188 0
M  V30 5637 C 522.1 -0.358738 -5.19964 0
M  V30 5638 C 519.428 -0.893479 -5.79857 0
M  V30 5639 C 521.78 -1.27466 -6.19625 0
M  V30 5640 C 520.444 -1.54698 -6.49326 0
M  V30 5641 H 519.714 0.227541 -0.705199 0
M  V30 5642 H 522.361 -0.118432 -1.91133 0
M  V30 5643 H 520.666 2.07161 -3.32553 0
M  V30 5644 H 522.363 1.78424 -3.59118 0
M  V30 5645 H 518.953 0.513581 -4.25512 0
M  V30 5646 H 523.137 -0.168133 -4.96015 0
M  V30 5647 H 518.393 -1.11193 -6.01204 0
M  V30 5648 H 522.567 -1.78953 -6.73015 0
M  V30 5649 H 520.194 -2.26748 -7.25596 0
M  V30 5650 N 521.769 1.56035 0.221574 0
M  V30 5651 C 522.994 1.83476 0.967026 0
M  V30 5652 C 523.419 0.632139 1.7716 0
M  V30 5653 O 522.777 -0.419082 1.7639 0
M  V30 5654 C 522.825 3.08907 1.86034 0
M  V30 5655 O 521.929 2.876 2.95567 0
M  V30 5656 H 521.27 0.604913 0.273817 0
M  V30 5657 H 523.8 2.03247 0.234893 0
M  V30 5658 H 523.81 3.3901 2.27016 0
M  V30 5659 H 522.485 3.96068 1.26898 0
M  V30 5660 H 521.062 2.6873 2.58532 0
M  V30 5661 N 523.247 -0.488276 1.49845 0
M  V30 5662 C 524.663 -0.820566 1.3689 0
M  V30 5663 C 524.863 -1.97248 0.411752 0
M  V30 5664 O 523.919 -2.52042 -0.151931 0
M  V30 5665 C 525.232 -1.1488 2.77891 0
M  V30 5666 C 526.78 -1.25626 2.86683 0
M  V30 5667 C 527.255 -1.61772 4.28479 0
M  V30 5668 N 528.746 -1.68797 4.31349 0
M  V30 5669 C 529.481 -1.98235 5.38043 0
M  V30 5670 N 528.977 -2.2581 6.54967 0
M  V30 5671 N 530.77 -1.99593 5.2547 0
M  V30 5672 H 522.921 0.271123 2.10662 0
M  V30 5673 H 525.184 0.058735 0.946179 0
M  V30 5674 H 524.89 -0.375614 3.49688 0
M  V30 5675 H 524.764 -2.08919 3.14058 0
M  V30 5676 H 527.151 -2.02014 2.15114 0
M  V30 5677 H 527.232 -0.296072 2.54081 0
M  V30 5678 H 526.876 -0.859295 5.00578 0
M  V30 5679 H 526.806 -2.58912 4.58554 0
M  V30 5680 H 529.297 -1.49595 3.4703 0
M  V30 5681 H 529.61 -2.47497 7.32096 0
M  V30 5682 H 527.955 -2.23239 6.58171 0
M  V30 5683 H 531.146 -1.77535 4.33127 0
M  V30 5684 H 531.319 -2.222 6.08713 0
M  V30 5685 N 524.725 -1.39134 -0.740242 0
M  V30 5686 C 525.657 -1.33332 -1.86428 0
M  V30 5687 C 526.67 -0.243042 -1.60976 0
M  V30 5688 O 527.859 -0.501608 -1.71307 0
M  V30 5689 C 524.959 -1.04626 -3.22346 0
M  V30 5690 C 524.132 -2.24826 -3.75196 0
M  V30 5691 C 523.191 -1.92659 -4.89662 0
M  V30 5692 O 522.217 -2.6529 -5.03597 0
M  V30 5693 N 523.419 -0.889575 -5.73643 0
M  V30 5694 H 526.184 -2.30196 -1.91911 0
M  V30 5695 H 523.745 -1.33168 -0.920756 0
M  V30 5696 H 525.737 -0.811347 -3.96484 0
M  V30 5697 H 524.307 -0.165129 -3.12164 0
M  V30 5698 H 523.527 -2.64301 -2.9247 0
M  V30 5699 H 524.815 -3.05015 -4.07239 0
M  V30 5700 H 524.213 -0.287529 -5.64969 0
M  V30 5701 H 522.77 -0.714557 -6.47871 0
M  V30 5702 N 526.204 0.969867 -1.24223 0
M  V30 5703 C 527.154 2.04913 -0.999732 0
M  V30 5704 C 528.138 1.60795 0.0580636 0
M  V30 5705 O 529.33 1.76317 -0.155392 0
M  V30 5706 C 526.459 3.37942 -0.604154 0
M  V30 5707 C 525.545 3.88628 -1.69791 0
M  V30 5708 N 525.936 4.12274 -2.93025 0
M  V30 5709 C 524.234 4.17268 -1.57492 0
M  V30 5710 C 524.935 4.53808 -3.63914 0
M  V30 5711 N 523.911 4.58855 -2.91468 0
M  V30 5712 H 527.713 2.21168 -1.93551 0
M  V30 5713 H 525.227 1.15349 -1.14317 0
M  V30 5714 H 527.224 4.14863 -0.411665 0
M  V30 5715 H 525.884 3.23075 0.324465 0
M  V30 5716 H 526.895 3.99789 -3.29225 0
M  V30 5717 H 523.572 4.11346 -0.714175 0
M  V30 5718 H 524.962 4.80534 -4.69614 0
M  V30 5719 O 527.721 1.18047 1.10214 0
M  V30 5720 H 528.412 0.921332 1.70385 0
M  V30 END ATOM
M  V30 BEGIN BOND
M  V30 END BOND
M  V30 END CTAB
M  END
$$$$
