drugbank_target|P47901 Vasopressin V1b receptor (DB00035; DB00067; DB02638; DB05452; DB05455; DB09059; DB14642)
 OpenBabel12092119393D

  0  0  0     0  0            999 V3000
M  V30 BEGIN CTAB
M  V30 COUNTS 6670 6757 0 0 0
M  V30 BEGIN ATOM
M  V30 1 H -0.908 1.98254 -0.117106 0
M  V30 2 N 0 1.576 0 0
M  V30 3 C 0.933 2.03868 1.02534 0
M  V30 4 C 1.911 0.928543 1.3348 0
M  V30 5 O 3.095 1.19667 1.45644 0
M  V30 6 C 0.222 2.43627 2.35294 0
M  V30 7 C -0.732 3.65373 2.2001 0
M  V30 8 S 0.101 5.13292 1.52614 0
M  V30 9 C 1.257 5.56322 2.86805 0
M  V30 10 H 1.49 2.90518 0.631377 0
M  V30 11 H -0.977 1.52953 0.210867 0
M  V30 12 H 0.981 2.67203 3.11629 0
M  V30 13 H -0.358 1.57376 2.7183 0
M  V30 14 H -1.165 3.90944 3.18086 0
M  V30 15 H -1.563 3.418 1.51819 0
M  V30 16 H 0.729 5.58782 3.83104 0
M  V30 17 H 1.672 6.56266 2.65933 0
M  V30 18 H 2.08 4.83886 2.90714 0
M  V30 19 N 1.4781 -0.272755 1.55222 0
M  V30 20 C 2.7551 -1.02562 1.66555 0
M  V30 21 C 3.1351 -2.04282 0.532189 0
M  V30 22 O 2.4831 -2.23662 -0.467717 0
M  V30 23 C 2.6931 -1.6822 3.05782 0
M  V30 24 C 4.0411 -2.19373 3.63539 0
M  V30 25 O 5.0651 -1.78206 3.08417 0
M  V30 26 O 3.9241 -2.94883 4.60115 0
M  V30 27 H 1.0181 -0.475755 0.676451 0
M  V30 28 H 3.5641 -0.268593 1.67561 0
M  V30 29 H 2.3361 -0.945112 3.79715 0
M  V30 30 H 1.9591 -2.50609 3.08676 0
M  V30 31 N 2.9562 -1.48159 -0.537278 0
M  V30 32 C 4.1812 -1.59707 -1.32319 0
M  V30 33 C 4.6062 -0.254859 -1.86365 0
M  V30 34 O 3.9642 0.772378 -1.64024 0
M  V30 35 C 4.0122 -2.6412 -2.45505 0
M  V30 36 O 3.1162 -2.20774 -3.48328 0
M  V30 37 H 2.4572 -0.535791 -0.392204 0
M  V30 38 H 4.9872 -1.94092 -0.647268 0
M  V30 39 H 4.9972 -2.85166 -2.91795 0
M  V30 40 H 3.6722 -3.61567 -2.05528 0
M  V30 41 H 2.2492 -2.09911 -3.08207 0
M  V30 42 N 4.4343 0.785586 -1.36625 0
M  V30 43 C 5.6823 1.54057 -1.30808 0
M  V30 44 C 6.0033 1.94683 0.111157 0
M  V30 45 O 5.2733 1.65241 1.05224 0
M  V30 46 H 3.8533 0.571354 -0.481211 0
M  V30 47 H 6.5153 0.935821 -1.70963 0
M  V30 48 H 5.6113 2.44637 -1.93801 0
M  V30 49 N 5.9124 1.20967 1.01018 0
M  V30 50 C 7.3234 1.02319 1.56165 0
M  V30 51 C 7.6744 -0.418546 1.91684 0
M  V30 52 O 6.7994 -1.30096 1.72928 0
M  V30 53 C 7.3944 1.85109 2.8376 0
M  V30 54 C 5.9534 1.70809 3.35412 0
M  V30 55 C 5.1004 1.82643 2.08655 0
M  V30 56 H 8.0514 1.35065 0.833255 0
M  V30 57 H 8.0724 1.35827 3.55431 0
M  V30 58 H 7.5844 2.90035 2.57878 0
M  V30 59 H 5.6854 0.685464 3.66241 0
M  V30 60 H 5.7984 2.52467 4.07182 0
M  V30 61 H 4.1624 1.25896 2.21409 0
M  V30 62 H 4.9454 2.89066 1.85191 0
M  V30 63 N 7.3905 -1.2043 1.01659 0
M  V30 64 C 8.3205 -2.25466 0.607226 0
M  V30 65 C 9.3015 -1.65853 -0.377716 0
M  V30 66 O 10.4865 -1.92409 -0.263149 0
M  V30 67 C 7.6165 -3.47256 -0.0552949 0
M  V30 68 C 6.5705 -4.19462 0.850632 0
M  V30 69 C 5.8965 -5.34673 0.0538859 0
M  V30 70 C 7.1965 -4.75603 2.15868 0
M  V30 71 H 8.8905 -2.59962 1.48526 0
M  V30 72 H 6.4365 -1.2496 0.715605 0
M  V30 73 H 8.3895 -4.19917 -0.353233 0
M  V30 74 H 7.1135 -3.11924 -0.968045 0
M  V30 75 H 5.7725 -3.48667 1.13257 0
M  V30 76 H 5.4205 -4.95585 -0.860514 0
M  V30 77 H 5.1205 -5.83913 0.657192 0
M  V30 78 H 6.6445 -6.10138 -0.237598 0
M  V30 79 H 8.0585 -5.40083 1.92311 0
M  V30 80 H 6.4555 -5.3528 2.71284 0
M  V30 81 H 7.5255 -3.94346 2.82169 0
M  V30 82 N 8.8686 -0.792821 -1.36206 0
M  V30 83 C 10.1146 -0.376415 -1.99887 0
M  V30 84 C 10.4696 1.04127 -1.61788 0
M  V30 85 O 9.7626 1.71004 -0.864193 0
M  V30 86 C 9.9566 -0.481501 -3.54142 0
M  V30 87 C 9.7856 -1.90786 -4.07223 0
M  V30 88 C 8.5556 -2.53322 -4.37214 0
M  V30 89 C 10.7536 -2.87048 -4.26741 0
M  V30 90 N 8.7356 -3.8751 -4.7614 0
M  V30 91 C 10.1066 -4.06077 -4.6851 0
M  V30 92 C 12.1616 -2.8406 -4.08918 0
M  V30 93 C 10.8646 -5.22532 -4.94321 0
M  V30 94 C 12.8906 -3.99705 -4.35878 0
M  V30 95 C 12.2526 -5.1748 -4.77906 0
M  V30 96 H 8.3516 -0.185226 -0.759747 0
M  V30 97 H 10.9356 -1.03114 -1.65153 0
M  V30 98 H 9.1066 0.143154 -3.88136 0
M  V30 99 H 10.8386 -0.0410128 -4.04679 0
M  V30 100 H 7.5936 -2.04777 -4.2704 0
M  V30 101 H 8.0176 -4.5656 -4.99882 0
M  V30 102 H 12.6596 -1.94165 -3.75579 0
M  V30 103 H 10.3776 -6.1301 -5.2654 0
M  V30 104 H 13.9636 -3.98758 -4.23655 0
M  V30 105 H 12.8436 -6.05478 -4.98363 0
M  V30 106 N 10.3467 1.47872 -0.545128 0
M  V30 107 C 11.6237 1.9554 0.0485222 0
M  V30 108 C 12.0037 1.4876 1.49779 0
M  V30 109 O 11.3517 0.720925 2.16829 0
M  V30 110 C 11.5617 3.48898 -0.084417 0
M  V30 111 C 12.9097 4.24547 0.0671239 0
M  V30 112 O 13.9337 3.56198 -0.0113649 0
M  V30 113 O 12.7927 5.45999 0.233882 0
M  V30 114 H 9.8867 0.823957 0.0708773 0
M  V30 115 H 12.4327 1.58327 -0.610798 0
M  V30 116 H 11.2047 3.75714 -1.09337 0
M  V30 117 H 10.8277 3.92845 0.613066 0
M  V30 118 N 11.8248 0.280983 1.55075 0
M  V30 119 C 12.7878 -0.590896 2.21452 0
M  V30 120 C 13.7878 -1.07682 1.19421 0
M  V30 121 O 14.9778 -0.97605 1.44288 0
M  V30 122 C 12.1098 -1.81587 2.88511 0
M  V30 123 H 13.3028 -0.0112554 2.99898 0
M  V30 124 H 10.8558 0.0316438 1.56268 0
M  V30 125 H 11.5908 -2.43587 2.14093 0
M  V30 126 H 11.3758 -1.4753 3.63287 0
M  V30 127 H 12.8658 -2.43575 3.39206 0
M  V30 128 N 13.3029 -1.57598 0.00835791 0
M  V30 129 C 14.2509 -2.10078 -0.998508 0
M  V30 130 C 15.2449 -1.02262 -1.35051 0
M  V30 131 O 16.4509 -1.20719 -1.33518 0
M  V30 132 H 12.8259 -0.670903 -0.339696 0
M  V30 133 H 14.7969 -2.93648 -0.530398 0
M  V30 134 C 13.5459 -2.62615 -2.27879 0
M  V30 135 H 12.8689 -3.45213 -2.01662 0
M  V30 136 H 14.3089 -3.03004 -2.96588 0
M  V30 137 C 12.7679 -1.54407 -2.99433 0
M  V30 138 O 13.2979 -0.931812 -3.90743 0
M  V30 139 N 11.5039 -1.2695 -2.61404 0
M  V30 140 H 11.0509 -1.76924 -1.87232 0
M  V30 141 H 11.0089 -0.547704 -3.09593 0
M  V30 142 N 14.781 0.264519 -1.55364 0
M  V30 143 C 16.192 0.834936 -1.6699 0
M  V30 144 C 16.543 1.86718 -0.602552 0
M  V30 145 O 15.668 2.14899 0.254425 0
M  V30 146 C 16.263 1.5212 -3.02729 0
M  V30 147 C 14.822 2.03954 -3.16354 0
M  V30 148 C 13.969 0.884498 -2.62815 0
M  V30 149 H 16.92 0.0406869 -1.58648 0
M  V30 150 H 16.941 2.38853 -2.96191 0
M  V30 151 H 16.453 0.769668 -3.80392 0
M  V30 152 H 14.554 2.82041 -2.43482 0
M  V30 153 H 14.667 2.24902 -4.23032 0
M  V30 154 H 13.031 1.2802 -2.20188 0
M  V30 155 H 13.814 0.14634 -3.42988 0
M  V30 156 N 16.2591 1.48442 0.529413 0
M  V30 157 C 17.4871 1.60151 1.30994 0
M  V30 158 C 17.9021 0.261985 1.86973 0
M  V30 159 O 17.2591 -0.748805 1.66431 0
M  V30 160 C 17.3101 2.64854 2.46038 0
M  V30 161 O 17.0311 3.93608 1.92365 0
M  V30 162 C 18.5321 2.87007 3.37849 0
M  V30 163 H 15.7521 0.539971 0.398338 0
M  V30 164 H 18.2961 1.94273 0.638597 0
M  V30 165 H 16.4511 2.33589 3.09055 0
M  V30 166 H 16.8651 4.51055 2.67675 0
M  V30 167 H 18.3391 3.64068 4.14919 0
M  V30 168 H 18.8161 1.95852 3.93114 0
M  V30 169 H 19.4221 3.19579 2.80623 0
M  V30 170 N 17.7372 -0.778329 1.37039 0
M  V30 171 C 19.1482 -1.35421 1.28523 0
M  V30 172 C 19.4992 -1.96075 -0.0700901 0
M  V30 173 O 18.6242 -1.93352 -0.971801 0
M  V30 174 C 19.2192 -2.46211 2.32735 0
M  V30 175 C 17.7782 -2.99585 2.27873 0
M  V30 176 C 16.9252 -1.72748 2.16918 0
M  V30 177 H 19.8762 -0.5791 1.47757 0
M  V30 178 H 19.8972 -3.2552 1.9702 0
M  V30 179 H 19.4092 -2.02036 3.31365 0
M  V30 180 H 17.5102 -3.48152 1.32745 0
M  V30 181 H 17.6232 -3.55646 3.21018 0
M  V30 182 H 15.9872 -1.95416 1.63354 0
M  V30 183 H 16.7702 -1.30686 3.17452 0
M  V30 184 N 19.2153 -1.21501 -1.00376 0
M  V30 185 C 20.6313 -0.972629 -1.26539 0
M  V30 186 C 20.8313 0.340257 -1.98606 0
M  V30 187 O 19.8873 1.06561 -2.28913 0
M  V30 188 C 21.2003 -2.16404 -2.08781 0
M  V30 189 C 22.7483 -2.20643 -2.22004 0
M  V30 190 C 23.2233 -3.39306 -3.07629 0
M  V30 191 N 24.7143 -3.39401 -3.15217 0
M  V30 192 C 25.4493 -4.27867 -3.81729 0
M  V30 193 N 24.9453 -5.26533 -4.5026 0
M  V30 194 N 26.7383 -4.15672 -3.78382 0
M  V30 195 H 18.8893 -2.05929 -0.520281 0
M  V30 196 H 21.1523 -0.901803 -0.292328 0
M  V30 197 H 20.8583 -3.11554 -1.63178 0
M  V30 198 H 20.7323 -2.15567 -3.09533 0
M  V30 199 H 23.1193 -1.26048 -2.66825 0
M  V30 200 H 23.2003 -2.25523 -1.20718 0
M  V30 201 H 22.8443 -4.34195 -2.63509 0
M  V30 202 H 22.7743 -3.31665 -4.09031 0
M  V30 203 H 25.2653 -2.67997 -2.66432 0
M  V30 204 H 25.5783 -5.90337 -4.98721 0
M  V30 205 H 23.9233 -5.30457 -4.49044 0
M  V30 206 H 27.1143 -3.3785 -3.23998 0
M  V30 207 H 27.2873 -4.84825 -4.2994 0
M  V30 208 N 20.6934 1.19889 -1.02296 0
M  V30 209 C 21.9414 1.89046 -0.714558 0
M  V30 210 C 22.2624 1.79636 0.758681 0
M  V30 211 O 21.5324 1.20292 1.54618 0
M  V30 212 H 20.1124 0.699802 -0.261317 0
M  V30 213 H 22.7744 1.45574 -1.29592 0
M  V30 214 H 21.8704 2.95524 -1.0036 0
M  V30 215 N 22.1715 0.800033 1.35784 0
M  V30 216 C 23.3995 0.389606 2.03199 0
M  V30 217 C 23.8145 -0.997375 1.60306 0
M  V30 218 O 23.1715 -1.64154 0.797481 0
M  V30 219 C 23.2225 0.455855 3.58614 0
M  V30 220 O 22.9435 1.78815 3.99946 0
M  V30 221 C 24.4445 0.0374032 4.43284 0
M  V30 222 H 21.6645 0.159132 0.651857 0
M  V30 223 H 24.2085 1.08183 1.73541 0
M  V30 224 H 22.3635 -0.188057 3.86943 0
M  V30 225 H 22.7775 1.74636 4.94573 0
M  V30 226 H 24.2515 0.134882 5.51835 0
M  V30 227 H 24.7285 -1.01651 4.27275 0
M  V30 228 H 25.3345 0.654215 4.20238 0
M  V30 229 N 23.6496 -1.47581 0.552962 0
M  V30 230 C 24.5796 -2.32762 -0.185451 0
M  V30 231 C 25.5606 -1.43527 -0.912905 0
M  V30 232 O 26.7456 -1.72388 -0.894201 0
M  V30 233 C 23.8756 -3.25219 -1.21859 0
M  V30 234 C 22.8296 -4.23661 -0.607864 0
M  V30 235 C 22.1556 -5.05413 -1.74533 0
M  V30 236 C 23.4556 -5.20481 0.435582 0
M  V30 237 H 25.1496 -2.94749 0.525684 0
M  V30 238 H 22.6956 -1.41738 0.254251 0
M  V30 239 H 24.6486 -3.8365 -1.7433 0
M  V30 240 H 23.3726 -2.61279 -1.95961 0
M  V30 241 H 22.0316 -3.66451 -0.104489 0
M  V30 242 H 21.6796 -4.3788 -2.47529 0
M  V30 243 H 21.3796 -5.72059 -1.34249 0
M  V30 244 H 22.9036 -5.66701 -2.27338 0
M  V30 245 H 24.3176 -5.733 -0.00290157 0
M  V30 246 H 22.7146 -5.95305 0.757067 0
M  V30 247 H 23.7846 -4.66217 1.33303 0
M  V30 248 N 25.1277 -0.289203 -1.54924 0
M  V30 249 C 26.3527 0.329299 -2.04769 0
M  V30 250 C 26.7777 1.4763 -1.16564 0
M  V30 251 O 26.1357 1.80527 -0.167186 0
M  V30 252 C 26.1837 0.774438 -3.52186 0
M  V30 253 O 25.2877 1.88038 -3.67036 0
M  V30 254 H 24.6287 0.0659259 -0.660719 0
M  V30 255 H 27.1587 -0.42761 -2.00082 0
M  V30 256 H 27.1687 1.06642 -3.93816 0
M  V30 257 H 25.8437 -0.0646707 -4.1585 0
M  V30 258 H 24.4207 1.58985 -3.3731 0
M  V30 259 N 26.6058 1.57591 -0.0167156 0
M  V30 260 C 27.5688 2.08393 0.954204 0
M  V30 261 C 28.5688 0.996531 1.26198 0
M  V30 262 O 29.7588 1.25858 1.20438 0
M  V30 263 C 26.8908 2.5394 2.27436 0
M  V30 264 H 28.0838 2.95455 0.514451 0
M  V30 265 H 25.6368 1.54582 0.231089 0
M  V30 266 H 26.3718 1.70171 2.76066 0
M  V30 267 H 26.1568 3.33371 2.06412 0
M  V30 268 H 27.6468 2.93512 2.97053 0
M  V30 269 N 28.0839 -0.256276 1.55502 0
M  V30 270 C 29.4949 -0.826068 1.67431 0
M  V30 271 C 29.8459 -1.86396 0.612446 0
M  V30 272 O 28.9709 -2.15031 -0.243025 0
M  V30 273 C 29.5659 -1.50512 3.03532 0
M  V30 274 C 28.1249 -2.02273 3.17431 0
M  V30 275 C 27.2719 -0.870548 2.63281 0
M  V30 276 H 30.2229 -0.0322728 1.58667 0
M  V30 277 H 30.2439 -2.37279 2.97454 0
M  V30 278 H 29.7559 -0.749484 3.80794 0
M  V30 279 H 27.8569 -2.80746 2.44974 0
M  V30 280 H 27.9699 -2.22655 4.24219 0
M  V30 281 H 26.3339 -1.26851 2.20864 0
M  V30 282 H 27.1169 -0.128149 3.43061 0
M  V30 283 N 29.562 -1.4872 -0.521534 0
M  V30 284 C 30.51 -1.64328 -1.64618 0
M  V30 285 C 31.504 -0.50953 -1.61555 0
M  V30 286 O 32.71 -0.688525 -1.66311 0
M  V30 287 H 29.085 -0.517805 -0.545328 0
M  V30 288 H 31.056 -2.58767 -1.48601 0
M  V30 289 C 29.805 -1.70805 -3.02855 0
M  V30 290 H 29.128 -2.5741 -3.05909 0
M  V30 291 H 30.568 -1.85766 -3.81139 0
M  V30 292 C 29.027 -0.448479 -3.33902 0
M  V30 293 O 29.557 0.434928 -3.99339 0
M  V30 294 N 27.763 -0.317616 -2.88859 0
M  V30 295 H 27.31 -1.03748 -2.35784 0
M  V30 296 H 27.268 0.524113 -3.10001 0
M  V30 297 N 31.0401 0.771051 -1.3745 0
M  V30 298 C 32.0031 1.86598 -1.33093 0
M  V30 299 C 33.0031 1.59076 -0.234845 0
M  V30 300 O 34.1931 1.67145 -0.490732 0
M  V30 301 C 31.3251 3.23747 -1.06773 0
M  V30 302 H 32.5181 1.91873 -2.30488 0
M  V30 303 H 30.0711 0.970876 -1.2249 0
M  V30 304 H 30.8061 3.24148 -0.099129 0
M  V30 305 H 30.5911 3.45115 -1.86112 0
M  V30 306 H 32.0811 4.03824 -1.06377 0
M  V30 307 N 32.5182 1.22032 0.997298 0
M  V30 308 C 33.7462 1.06841 1.7718 0
M  V30 309 C 34.1612 -0.381325 1.84909 0
M  V30 310 O 33.5182 -1.26437 1.31605 0
M  V30 311 C 33.5692 1.66814 3.20711 0
M  V30 312 O 33.2902 3.06116 3.13408 0
M  V30 313 C 34.7912 1.56838 4.14628 0
M  V30 314 H 32.0112 0.374782 0.556578 0
M  V30 315 H 34.5552 1.61532 1.2541 0
M  V30 316 H 32.7102 1.16196 3.69564 0
M  V30 317 H 33.1242 3.34926 4.0364 0
M  V30 318 H 34.5982 2.03532 5.13107 0
M  V30 319 H 35.0752 0.524155 4.36061 0
M  V30 320 H 35.6812 2.06741 3.7167 0
M  V30 321 N 33.9963 -1.19345 1.0293 0
M  V30 322 C 35.2243 -1.92997 0.745644 0
M  V30 323 C 35.6393 -1.75519 -0.695589 0
M  V30 324 O 34.9963 -1.07737 -1.47306 0
M  V30 325 C 35.0473 -3.44741 1.08792 0
M  V30 326 O 34.7683 -3.61658 2.47256 0
M  V30 327 C 36.2693 -4.35515 0.827129 0
M  V30 328 H 33.4893 -0.613042 0.272801 0
M  V30 329 H 36.0333 -1.51473 1.3739 0
M  V30 330 H 34.1883 -3.84097 0.504832 0
M  V30 331 H 34.6023 -4.55514 2.60015 0
M  V30 332 H 36.0763 -5.40589 1.11658 0
M  V30 333 H 36.5533 -4.38552 -0.238436 0
M  V30 334 H 37.1593 -4.01841 1.39297 0
M  V30 335 N 35.4744 -0.807222 -1.35358 0
M  V30 336 C 36.8854 -0.44876 -1.81226 0
M  V30 337 C 37.2364 1.02929 -1.67033 0
M  V30 338 O 36.3614 1.79991 -1.20133 0
M  V30 339 C 36.9564 -0.807774 -3.2903 0
M  V30 340 C 35.5154 -0.501901 -3.73039 0
M  V30 341 C 34.6624 -1.03304 -2.57339 0
M  V30 342 H 37.6134 -0.998808 -1.23327 0
M  V30 343 H 37.6344 -0.10554 -3.80354 0
M  V30 344 H 37.1464 -1.88357 -3.39328 0
M  V30 345 H 35.2474 0.565128 -3.68289 0
M  V30 346 H 35.3604 -1.03497 -4.67787 0
M  V30 347 H 33.7244 -0.455339 -2.50597 0
M  V30 348 H 34.5074 -2.11496 -2.70415 0
M  V30 349 N 36.9525 1.47285 -0.560781 0
M  V30 350 C 38.1985 2.03347 -0.0463654 0
M  V30 351 C 38.5535 1.42702 1.2905 0
M  V30 352 O 37.8465 0.574619 1.8278 0
M  V30 353 C 38.0405 3.57258 0.100784 0
M  V30 354 C 37.8695 4.32827 -1.22027 0
M  V30 355 C 36.6395 4.72588 -1.78854 0
M  V30 356 C 38.8375 4.67739 -2.13834 0
M  V30 357 N 36.8195 5.32816 -3.04927 0
M  V30 358 C 38.1905 5.28307 -3.24487 0
M  V30 359 C 40.2455 4.49667 -2.13784 0
M  V30 360 C 38.9485 5.72711 -4.35194 0
M  V30 361 C 40.9745 4.95073 -3.23506 0
M  V30 362 C 40.3365 5.55693 -4.32879 0
M  V30 363 H 36.4355 0.779755 -0.0592166 0
M  V30 364 H 39.0195 1.79723 -0.748857 0
M  V30 365 H 37.1905 3.80642 0.772404 0
M  V30 366 H 38.9225 3.9996 0.617589 0
M  V30 367 H 35.6775 4.54656 -1.32609 0
M  V30 368 H 36.1015 5.67471 -3.69197 0
M  V30 369 H 40.7435 4.02154 -1.30507 0
M  V30 370 H 38.4615 6.19214 -5.1923 0
M  V30 371 H 42.0475 4.82859 -3.24559 0
M  V30 372 H 40.9275 5.90188 -5.1638 0
M  V30 373 N 38.4306 0.297415 1.54768 0
M  V30 374 C 39.3606 -0.573494 2.26348 0
M  V30 375 C 40.3416 -1.14085 1.26169 0
M  V30 376 O 41.5266 -1.17086 1.54934 0
M  V30 377 C 38.6566 -1.74716 3.00153 0
M  V30 378 C 37.6106 -1.31032 4.07449 0
M  V30 379 C 36.9366 -2.56887 4.68949 0
M  V30 380 C 38.2366 -0.444183 5.20408 0
M  V30 381 H 39.9306 0.0235131 2.99391 0
M  V30 382 H 37.4766 0.0127488 1.43994 0
M  V30 383 H 39.4296 -2.3625 3.48947 0
M  V30 384 H 38.1536 -2.37035 2.24682 0
M  V30 385 H 36.8126 -0.718066 3.59499 0
M  V30 386 H 36.4606 -3.17512 3.90122 0
M  V30 387 H 36.1606 -2.2836 5.41411 0
M  V30 388 H 37.6846 -3.19229 5.20505 0
M  V30 389 H 39.0986 -0.9651 5.65118 0
M  V30 390 H 37.4956 -0.252846 5.99567 0
M  V30 391 H 38.5656 0.531609 4.81977 0
M  V30 392 N 39.9087 -1.5758 0.0250728 0
M  V30 393 C 41.1567 -1.91255 -0.653151 0
M  V30 394 C 41.4777 -0.901691 -1.729 0
M  V30 395 O 40.7477 0.0573785 -1.95816 0
M  V30 396 H 39.3277 -0.705942 -0.244243 0
M  V30 397 H 41.9897 -1.94767 0.0719209 0
M  V30 398 H 41.0857 -2.91752 -1.10847 0
M  V30 399 N 41.3868 0.248026 -1.55636 0
M  V30 400 C 42.8028 0.596483 -1.48035 0
M  V30 401 C 43.0028 1.88386 -0.715039 0
M  V30 402 O 42.0588 2.51319 -0.243944 0
M  V30 403 C 43.3718 0.700258 -2.92433 0
M  V30 404 C 44.9198 0.792659 -3.02797 0
M  V30 405 C 45.3948 0.928005 -4.485 0
M  V30 406 N 46.8858 0.992903 -4.52433 0
M  V30 407 C 47.6208 1.11687 -5.62418 0
M  V30 408 N 47.1168 1.20645 -6.82214 0
M  V30 409 N 48.9098 1.14994 -5.50212 0
M  V30 410 H 41.0608 -0.597109 -2.03834 0
M  V30 411 H 43.3238 -0.205925 -0.925364 0
M  V30 412 H 43.0298 -0.175658 -3.51261 0
M  V30 413 H 42.9038 1.57255 -3.42857 0
M  V30 414 H 45.2908 1.65903 -2.4405 0
M  V30 415 H 45.3718 -0.104762 -2.55585 0
M  V30 416 H 45.0158 0.0661971 -5.07857 0
M  V30 417 H 44.9458 1.84045 -4.93391 0
M  V30 418 H 47.4368 0.935064 -3.66149 0
M  V30 419 H 47.7498 1.30008 -7.61786 0
M  V30 420 H 46.0948 1.17605 -6.84977 0
M  V30 421 H 49.2858 1.07643 -4.55555 0
M  V30 422 H 49.4588 1.24311 -6.35965 0
M  V30 423 N 42.8649 1.48995 0.513639 0
M  V30 424 C 44.1419 1.48338 1.27495 0
M  V30 425 C 44.5219 0.204065 2.10111 0
M  V30 426 O 43.8699 -0.813881 2.13514 0
M  V30 427 C 44.0799 2.75498 2.14247 0
M  V30 428 C 45.4279 3.24484 2.73852 0
M  V30 429 O 46.4519 2.76528 2.24523 0
M  V30 430 O 45.3109 4.07974 3.6362 0
M  V30 431 H 42.4049 0.593149 0.576284 0
M  V30 432 H 44.9509 1.61246 0.528948 0
M  V30 433 H 43.7229 3.60109 1.53092 0
M  V30 434 H 43.3459 2.6539 2.96064 0
M  V30 435 N 44.343 -0.763751 1.37857 0
M  V30 436 C 45.253 -1.90817 1.36478 0
M  V30 437 C 46.269 -1.71997 0.263248 0
M  V30 438 O 47.445 -1.95095 0.499979 0
M  V30 439 C 44.51 -3.2605 1.17864 0
M  V30 440 C 43.571 -3.57467 2.3773 0
M  V30 441 C 42.804 -4.86249 2.19995 0
M  V30 442 O 43.027 -5.57884 1.18836 0
M  V30 443 O 41.961 -5.16911 3.08361 0
M  V30 444 H 45.787 -1.94933 2.32884 0
M  V30 445 H 43.372 -0.907619 1.1867 0
M  V30 446 H 45.254 -4.06924 1.09504 0
M  V30 447 H 43.929 -3.22769 0.245372 0
M  V30 448 H 42.836 -2.76796 2.51664 0
M  V30 449 H 44.169 -3.655 3.29652 0
M  V30 450 N 45.8211 -1.22559 -0.990812 0
M  V30 451 C 46.7311 -1.01394 -2.11557 0
M  V30 452 C 47.7471 0.0383962 -1.73958 0
M  V30 453 O 48.9231 -0.154787 -2.00804 0
M  V30 454 C 45.9881 -0.596569 -3.41529 0
M  V30 455 C 45.0491 -1.72276 -3.93217 0
M  V30 456 C 44.2821 -1.32521 -5.16985 0
M  V30 457 O 44.5051 -0.204909 -5.70032 0
M  V30 458 O 43.4391 -2.14247 -5.62478 0
M  V30 459 H 47.2651 -1.95633 -2.32296 0
M  V30 460 H 44.8501 -1.01172 -1.0993 0
M  V30 461 H 46.7321 -0.374263 -4.19735 0
M  V30 462 H 45.4071 0.316939 -3.22145 0
M  V30 463 H 44.3141 -1.99961 -3.16174 0
M  V30 464 H 45.6471 -2.61421 -4.17037 0
M  V30 465 N 47.2992 1.18797 -1.03562 0
M  V30 466 C 48.2292 2.24472 -0.643019 0
M  V30 467 C 49.2102 1.66433 0.351283 0
M  V30 468 O 50.3952 1.92803 0.232505 0
M  V30 469 C 47.5252 3.473 4.24935e-05 0
M  V30 470 C 46.4792 4.18055 -0.917257 0
M  V30 471 C 45.8052 5.34519 -0.138941 0
M  V30 472 C 47.1052 4.72109 -2.23407 0
M  V30 473 H 48.7992 2.57566 -1.52643 0
M  V30 474 H 46.3452 1.23806 -0.735394 0
M  V30 475 H 48.2982 4.20426 0.286383 0
M  V30 476 H 47.0222 3.13424 0.918299 0
M  V30 477 H 45.6812 3.46821 -1.1879 0
M  V30 478 H 45.3292 4.96891 0.781562 0
M  V30 479 H 45.0292 5.82794 -0.750005 0
M  V30 480 H 46.5532 6.10438 0.1405 0
M  V30 481 H 47.9672 5.36955 -2.00879 0
M  V30 482 H 46.3642 5.30897 -2.79765 0
M  V30 483 H 47.4342 3.89807 -2.88407 0
M  V30 484 N 48.7773 0.814389 1.34928 0
M  V30 485 C 49.7403 0.235759 2.27984 0
M  V30 486 C 50.7403 -0.581412 1.49921 0
M  V30 487 O 51.9303 -0.398758 1.69575 0
M  V30 488 C 49.0623 -0.670433 3.34242 0
M  V30 489 H 50.2553 1.05659 2.80671 0
M  V30 490 H 47.8083 0.585614 1.44915 0
M  V30 491 H 48.5433 -1.51466 2.86755 0
M  V30 492 H 48.3283 -0.0860822 3.92005 0
M  V30 493 H 49.8183 -1.06935 4.03676 0
M  V30 494 N 50.2554 -1.46986 0.568584 0
M  V30 495 C 51.2024 -2.30153 -0.172707 0
M  V30 496 C 52.1724 -1.39759 -0.897586 0
M  V30 497 O 53.3574 -1.68716 -0.891044 0
M  V30 498 C 50.4974 -3.23952 -1.1895 0
M  V30 499 C 49.6104 -4.29441 -0.469517 0
M  V30 500 C 48.7454 -5.1038 -1.47259 0
M  V30 501 C 47.7844 -6.07632 -0.738225 0
M  V30 502 N 46.9214 -6.8149 -1.68868 0
M  V30 503 H 51.7614 -2.93019 0.542596 0
M  V30 504 H 49.2984 -1.44422 0.279401 0
M  V30 505 H 51.2564 -3.76767 -1.79173 0
M  V30 506 H 49.8864 -2.62926 -1.87269 0
M  V30 507 H 48.9384 -3.79594 0.247467 0
M  V30 508 H 50.2504 -4.98689 0.105241 0
M  V30 509 H 49.4044 -5.67402 -2.14803 0
M  V30 510 H 48.1434 -4.4106 -2.08128 0
M  V30 511 H 47.1484 -5.49778 -0.0489293 0
M  V30 512 H 48.3734 -6.78966 -0.135129 0
M  V30 513 H 46.3194 -6.14891 -2.28573 0
M  V30 514 H 46.2364 -7.46948 -1.16636 0
M  V30 515 H 47.5044 -7.43078 -2.3549 0
M  V30 516 N 51.7335 -0.305618 -1.54608 0
M  V30 517 C 52.9795 0.302746 -2.00528 0
M  V30 518 C 53.3125 1.53184 -1.19367 0
M  V30 519 O 52.5875 1.92598 -0.271321 0
M  V30 520 C 52.8705 0.654756 -3.54097 0
M  V30 521 C 52.7235 -0.583793 -4.45995 0
M  V30 522 C 54.0425 1.47947 -4.14487 0
M  V30 523 H 51.1615 0.108564 -0.72896 0
M  V30 524 H 53.8035 -0.418634 -1.85331 0
M  V30 525 H 51.9535 1.26935 -3.67178 0
M  V30 526 H 53.6255 -1.22224 -4.44814 0
M  V30 527 H 51.8685 -1.21615 -4.16404 0
M  V30 528 H 52.5395 -0.293287 -5.5122 0
M  V30 529 H 55.0155 0.96013 -4.04871 0
M  V30 530 H 53.8915 1.69454 -5.22088 0
M  V30 531 H 54.1525 2.47011 -3.66658 0
M  V30 532 N 53.2116 1.57565 -0.0334293 0
M  V30 533 C 54.1216 2.13943 0.962572 0
M  V30 534 C 55.1376 1.09276 1.35406 0
M  V30 535 O 56.3136 1.41355 1.4346 0
M  V30 536 C 53.3786 2.65887 2.22497 0
M  V30 537 C 52.4396 3.85286 1.8935 0
M  V30 538 C 51.6726 4.34743 3.09571 0
M  V30 539 O 51.8956 3.83352 4.22371 0
M  V30 540 O 50.8296 5.26538 2.91618 0
M  V30 541 H 54.6556 2.99333 0.513169 0
M  V30 542 H 52.2406 1.4822 0.18743 0
M  V30 543 H 54.1226 2.99346 2.96598 0
M  V30 544 H 52.7976 1.83578 2.6661 0
M  V30 545 H 51.7046 3.56746 1.1262 0
M  V30 546 H 53.0376 4.68771 1.5005 0
M  V30 547 N 54.6897 -0.239769 1.55765 0
M  V30 548 C 55.9387 -0.964754 1.77131 0
M  V30 549 C 56.2517 -1.86213 0.59868 0
M  V30 550 O 57.4577 -2.6244 0.695522 0
M  V30 551 C 55.9137 -1.76552 3.1362 0
M  V30 552 C 55.5217 -0.915185 4.38553 0
M  V30 553 C 57.2657 -2.48281 3.44321 0
M  V30 554 C 55.1727 -1.71225 5.66071 0
M  V30 555 H 54.1027 -0.363953 0.660344 0
M  V30 556 H 56.7537 -0.219181 1.82186 0
M  V30 557 H 55.1357 -2.55331 3.02691 0
M  V30 558 H 56.3097 -0.169217 4.60489 0
M  V30 559 H 54.6247 -0.310889 4.15238 0
M  V30 560 H 57.2217 -3.08382 4.36812 0
M  V30 561 H 57.5647 -3.20256 2.65973 0
M  V30 562 H 58.0977 -1.76507 3.56497 0
M  V30 563 H 54.8367 -1.03612 6.4726 0
M  V30 564 H 54.3567 -2.43331 5.48224 0
M  V30 565 H 56.0357 -2.27758 6.05587 0
M  V30 566 N 56.1678 -1.49265 -0.50573 0
M  V30 567 C 57.4158 -1.582 -1.25766 0
M  V30 568 C 57.7368 -0.268482 -1.93143 0
M  V30 569 O 57.0068 0.711833 -1.8251 0
M  V30 570 H 55.5868 -0.582873 -0.467191 0
M  V30 571 H 58.2488 -1.85865 -0.586525 0
M  V30 572 H 57.3448 -2.37563 -2.02412 0
M  V30 573 N 57.6459 0.756429 -1.3826 0
M  V30 574 C 58.8919 1.51772 -1.34511 0
M  V30 575 C 59.2249 1.94089 0.0656691 0
M  V30 576 O 58.4999 1.65221 1.02626 0
M  V30 577 C 58.7829 2.77226 -2.29821 0
M  V30 578 C 58.6359 2.41065 -3.79747 0
M  V30 579 C 59.9549 3.79236 -2.23312 0
M  V30 580 H 57.0739 0.550578 -0.489931 0
M  V30 581 H 59.7159 0.866607 -1.69086 0
M  V30 582 H 57.8659 3.32784 -2.00467 0
M  V30 583 H 59.5379 1.91303 -4.19763 0
M  V30 584 H 57.7809 1.7356 -3.97567 0
M  V30 585 H 58.4519 3.3081 -4.41892 0
M  V30 586 H 60.9279 3.3321 -2.49219 0
M  V30 587 H 59.8039 4.64714 -2.92116 0
M  V30 588 H 60.0649 4.24615 -1.23102 0
M  V30 589 N 59.124 1.23083 0.984299 0
M  V30 590 C 60.054 1.03292 2.09411 0
M  V30 591 C 61.035 -0.048923 1.7003 0
M  V30 592 O 62.22 0.114967 1.93859 0
M  V30 593 C 59.35 0.619155 3.41736 0
M  V30 594 C 58.304 1.64791 3.95004 0
M  V30 595 C 57.63 1.0897 5.23478 0
M  V30 596 C 58.93 3.03999 4.24714 0
M  V30 597 H 60.624 1.96119 2.26225 0
M  V30 598 H 58.17 0.944344 1.08711 0
M  V30 599 H 60.123 0.467777 4.18796 0
M  V30 600 H 58.847 -0.344786 3.24775 0
M  V30 601 H 57.506 1.78721 3.20085 0
M  V30 602 H 57.154 0.11686 5.02864 0
M  V30 603 H 56.854 1.77704 5.60085 0
M  V30 604 H 58.378 0.950093 6.03163 0
M  V30 605 H 59.792 2.93393 4.92538 0
M  V30 606 H 58.189 3.69936 4.72512 0
M  V30 607 H 59.259 3.53285 3.32142 0
M  V30 608 N 60.6021 -1.18246 1.0419 0
M  V30 609 C 61.5651 -2.20128 0.638452 0
M  V30 610 C 62.5651 -1.57885 -0.304805 0
M  V30 611 O 63.7551 -1.73967 -0.0900369 0
M  V30 612 C 60.8871 -3.4084 -0.0637751 0
M  V30 613 H 62.0801 -2.57336 1.54007 0
M  V30 614 H 59.6331 -1.32152 0.834598 0
M  V30 615 H 60.3681 -3.09166 -0.979136 0
M  V30 616 H 60.1531 -3.8726 0.614198 0
M  V30 617 H 61.6431 -4.16274 -0.332512 0
M  V30 618 N 62.0802 -0.821533 -1.34494 0
M  V30 619 C 63.3082 -0.421884 -2.02553 0
M  V30 620 C 63.7232 0.971745 -1.61872 0
M  V30 621 O 63.0802 1.62864 -0.823496 0
M  V30 622 C 63.1312 -0.51285 -3.57844 0
M  V30 623 O 62.8522 -1.85155 -3.97051 0
M  V30 624 C 64.3532 -0.107921 -4.43169 0
M  V30 625 H 61.5732 -0.169482 -0.649243 0
M  V30 626 H 64.1172 -1.1093 -1.71798 0
M  V30 627 H 62.2722 0.126474 -3.87193 0
M  V30 628 H 62.6862 -1.82482 -4.91732 0
M  V30 629 H 64.1602 -0.222657 -5.51551 0
M  V30 630 H 64.6372 0.948401 -4.28838 0
M  V30 631 H 65.2432 -0.720989 -4.19144 0
M  V30 632 N 63.5583 1.46682 -0.576371 0
M  V30 633 C 64.8043 2.02712 -0.0596221 0
M  V30 634 C 65.1373 1.44765 1.29448 0
M  V30 635 O 64.4123 0.610355 1.84675 0
M  V30 636 C 64.6953 3.60098 0.0129503 0
M  V30 637 C 64.5483 4.28441 -1.3696 0
M  V30 638 C 65.8673 4.34224 0.71678 0
M  V30 639 H 62.9863 0.736637 -0.0231407 0
M  V30 640 H 65.6283 1.74898 -0.742351 0
M  V30 641 H 63.7783 3.83926 0.594378 0
M  V30 642 H 65.4503 4.15896 -1.9957 0
M  V30 643 H 63.6933 3.8805 -1.93907 0
M  V30 644 H 64.3643 5.3716 -1.27135 0
M  V30 645 H 66.8403 4.15503 0.222908 0
M  V30 646 H 65.7163 5.43936 0.73657 0
M  V30 647 H 65.9773 4.04823 1.77682 0
M  V30 648 N 65.0364 0.313813 1.54444 0
M  V30 649 C 65.9664 -0.549454 2.26943 0
M  V30 650 C 66.9474 -1.12741 1.27372 0
M  V30 651 O 68.1324 -1.15436 1.56167 0
M  V30 652 C 65.2624 -1.71523 3.01989 0
M  V30 653 C 64.2164 -1.26703 4.08816 0
M  V30 654 C 63.5424 -2.51898 4.71647 0
M  V30 655 C 64.8424 -0.388962 5.2085 0
M  V30 656 H 66.5364 0.0552661 2.99349 0
M  V30 657 H 64.0824 0.0280207 1.43973 0
M  V30 658 H 66.0354 -2.32535 3.51433 0
M  V30 659 H 64.7594 -2.34639 2.27183 0
M  V30 660 H 63.4184 -0.679896 3.6024 0
M  V30 661 H 63.0664 -3.13356 3.93468 0
M  V30 662 H 62.7664 -2.22605 5.43802 0
M  V30 663 H 64.2904 -3.1369 5.23861 0
M  V30 664 H 65.7044 -0.905107 5.6611 0
M  V30 665 H 64.1014 -0.18924 5.99802 0
M  V30 666 H 65.1714 0.582699 4.81386 0
M  V30 667 N 66.5145 -1.57545 0.0417849 0
M  V30 668 C 67.7605 -1.92601 -0.635021 0
M  V30 669 C 68.0935 -0.919627 -1.71045 0
M  V30 670 O 67.3685 0.0557892 -1.9442 0
M  V30 671 C 67.6515 -3.38085 -1.23979 0
M  V30 672 C 67.5045 -4.49467 -0.173057 0
M  V30 673 C 68.8235 -3.83776 -2.15416 0
M  V30 674 H 65.9425 -0.700397 -0.229374 0
M  V30 675 H 68.5845 -1.89728 0.101633 0
M  V30 676 H 66.7345 -3.40664 -1.86762 0
M  V30 677 H 68.4065 -4.59018 0.458312 0
M  V30 678 H 66.6495 -4.30909 0.499996 0
M  V30 679 H 67.3205 -5.48323 -0.636054 0
M  V30 680 H 69.7965 -3.83013 -1.62605 0
M  V30 681 H 68.6725 -4.8624 -2.54679 0
M  V30 682 H 68.9335 -3.19998 -3.05047 0
M  V30 683 N 67.9926 0.231505 -1.5589 0
M  V30 684 C 68.9226 1.29022 -1.94617 0
M  V30 685 C 69.9036 1.4941 -0.813067 0
M  V30 686 O 71.0886 1.6176 -1.07459 0
M  V30 687 C 68.2186 2.64199 -2.25424 0
M  V30 688 C 67.1726 2.58484 -3.41131 0
M  V30 689 C 66.4986 3.97599 -3.57518 0
M  V30 690 C 67.7986 2.1413 -4.76388 0
M  V30 691 H 69.4926 0.968563 -2.83301 0
M  V30 692 H 67.0386 0.464479 -1.36303 0
M  V30 693 H 68.9916 3.38413 -2.51107 0
M  V30 694 H 67.7156 2.98032 -1.33583 0
M  V30 695 H 66.3746 1.86727 -3.15481 0
M  V30 696 H 66.0226 4.28723 -2.6307 0
M  V30 697 H 65.7226 3.94659 -4.35337 0
M  V30 698 H 67.2466 4.7349 -3.85538 0
M  V30 699 H 68.6606 2.78083 -5.01341 0
M  V30 700 H 67.0576 2.2227 -5.57419 0
M  V30 701 H 68.1276 1.09331 -4.72414 0
M  V30 702 N 69.4707 1.49531 0.497807 0
M  V30 703 C 70.4337 1.65916 1.58128 0
M  V30 704 C 71.4337 0.530825 1.51786 0
M  V30 705 O 72.6237 0.797342 1.54881 0
M  V30 706 C 69.7557 1.65951 2.9778 0
M  V30 707 H 70.9487 2.62556 1.44929 0
M  V30 708 H 68.5017 1.38611 0.722275 0
M  V30 709 H 69.2367 0.709065 3.16453 0
M  V30 710 H 69.0217 2.47897 3.03792 0
M  V30 711 H 70.5117 1.80673 3.76493 0
M  V30 712 N 70.9488 -0.749086 1.3866 0
M  V30 713 C 72.1768 -1.53834 1.38358 0
M  V30 714 C 72.5918 -1.88783 -0.0255219 0
M  V30 715 O 71.9488 -1.53101 -0.993292 0
M  V30 716 C 71.9998 -2.83468 2.2434 0
M  V30 717 O 71.7208 -2.50008 3.5976 0
M  V30 718 C 73.2218 -3.7758 2.32267 0
M  V30 719 H 70.4418 -0.47585 0.473083 0
M  V30 720 H 72.9858 -0.926726 1.82297 0
M  V30 721 H 71.1408 -3.40995 1.83851 0
M  V30 722 H 71.5548 -3.33182 4.05081 0
M  V30 723 H 73.0288 -4.65478 2.96706 0
M  V30 724 H 73.5058 -4.18334 1.33765 0
M  V30 725 H 74.1118 -3.25976 2.73166 0
M  V30 726 N 72.4269 -1.23603 -0.977757 0
M  V30 727 C 73.6749 -1.06759 -1.71601 0
M  V30 728 C 73.9959 0.395929 -1.90938 0
M  V30 729 O 73.2659 1.28356 -1.47992 0
M  V30 730 H 71.8459 -0.392062 -0.635843 0
M  V30 731 H 74.5079 -1.55362 -1.1768 0
M  V30 732 H 73.6039 -1.55763 -2.70452 0
M  V30 733 N 73.905 1.17692 -1.04816 0
M  V30 734 C 75.153 1.87488 -0.754497 0
M  V30 735 C 75.474 1.81205 0.720407 0
M  V30 736 O 74.744 1.23544 1.52032 0
M  V30 737 H 73.324 0.694101 -0.276102 0
M  V30 738 H 75.986 1.42793 -1.32651 0
M  V30 739 H 75.082 2.93328 -1.06606 0
M  V30 740 N 75.3831 0.828654 1.34056 0
M  V30 741 C 76.3311 0.242973 2.31327 0
M  V30 742 C 77.3251 -0.61944 1.57668 0
M  V30 743 O 78.5311 -0.51014 1.7262 0
M  V30 744 H 74.9061 0.059834 0.749616 0
M  V30 745 H 76.8771 1.07809 2.78244 0
M  V30 746 C 75.6261 -0.575733 3.429 0
M  V30 747 H 74.9491 0.0785582 3.99723 0
M  V30 748 H 76.3891 -0.951547 4.13185 0
M  V30 749 C 74.8481 -1.75044 2.87856 0
M  V30 750 O 75.3781 -2.84882 2.83205 0
M  V30 751 N 73.5841 -1.56903 2.44602 0
M  V30 752 H 73.1311 -0.675547 2.48584 0
M  V30 753 H 73.0891 -2.35652 2.08124 0
M  V30 754 N 76.8612 -1.46375 0.584142 0
M  V30 755 C 77.7912 -2.33103 -0.136037 0
M  V30 756 C 78.7722 -1.45431 -0.882255 0
M  V30 757 O 79.9572 -1.74246 -0.857434 0
M  V30 758 C 77.0872 -3.27731 -1.14933 0
M  V30 759 C 76.0412 -4.24855 -0.517862 0
M  V30 760 C 75.3672 -5.09001 -1.63773 0
M  V30 761 C 76.6672 -5.19439 0.545886 0
M  V30 762 H 78.3612 -2.93568 0.588086 0
M  V30 763 H 75.9072 -1.41166 0.284259 0
M  V30 764 H 77.8602 -3.87261 -1.66153 0
M  V30 765 H 76.5842 -2.65377 -1.90375 0
M  V30 766 H 75.2432 -3.6659 -0.0267361 0
M  V30 767 H 74.8912 -4.43031 -2.38185 0
M  V30 768 H 74.5912 -5.74777 -1.22085 0
M  V30 769 H 76.1152 -5.71396 -2.15266 0
M  V30 770 H 77.5292 -5.73177 0.118704 0
M  V30 771 H 75.9262 -5.93566 0.88317 0
M  V30 772 H 76.9962 -4.63285 1.43162 0
M  V30 773 N 78.3393 -0.321999 -1.54275 0
M  V30 774 C 79.3023 0.531975 -2.22941 0
M  V30 775 C 80.3023 1.04478 -1.22234 0
M  V30 776 O 81.4923 0.937452 -1.46825 0
M  V30 777 C 78.6243 1.73874 -2.93224 0
M  V30 778 H 79.8173 -0.0682612 -2.99822 0
M  V30 779 H 77.3703 -0.0730644 -1.56129 0
M  V30 780 H 78.1053 2.37825 -2.20476 0
M  V30 781 H 77.8903 1.37847 -3.6707 0
M  V30 782 H 79.3803 2.34496 -3.45545 0
M  V30 783 N 79.8174 1.5752 -0.0501392 0
M  V30 784 C 81.0634 1.92936 0.624798 0
M  V30 785 C 81.3964 0.928685 1.70555 0
M  V30 786 O 80.6714 -0.0454779 1.94447 0
M  V30 787 C 80.9544 3.38737 1.22185 0
M  V30 788 C 80.8074 4.49552 0.149218 0
M  V30 789 C 82.1264 3.84913 2.13378 0
M  V30 790 H 79.2454 0.701604 0.225657 0
M  V30 791 H 81.8874 1.89671 -0.111693 0
M  V30 792 H 80.0374 3.4165 1.84953 0
M  V30 793 H 81.7094 4.58768 -0.482648 0
M  V30 794 H 79.9524 4.30638 -0.522841 0
M  V30 795 H 80.6234 5.48653 0.606966 0
M  V30 796 H 83.0994 3.8387 1.60572 0
M  V30 797 H 81.9754 4.87584 2.52097 0
M  V30 798 H 82.2364 3.21611 3.03346 0
M  V30 799 N 81.2955 -0.223234 1.56011 0
M  V30 800 C 82.2255 -1.27988 1.95298 0
M  V30 801 C 83.2065 -1.48976 0.820979 0
M  V30 802 O 84.3915 -1.61188 1.08315 0
M  V30 803 C 81.5215 -2.63 2.26822 0
M  V30 804 C 80.4755 -2.56671 3.42497 0
M  V30 805 C 79.8015 -3.95697 3.59622 0
M  V30 806 C 81.1015 -2.11601 4.77517 0
M  V30 807 H 82.7955 -0.953525 2.8381 0
M  V30 808 H 80.3415 -0.457244 1.36548 0
M  V30 809 H 82.2945 -3.37077 2.52898 0
M  V30 810 H 81.0185 -2.9732 1.35161 0
M  V30 811 H 79.6775 -1.85051 3.16467 0
M  V30 812 H 79.3255 -4.27322 2.6534 0
M  V30 813 H 79.0255 -3.92345 4.37424 0
M  V30 814 H 80.5495 -4.71438 3.88044 0
M  V30 815 H 81.9635 -2.7542 5.02809 0
M  V30 816 H 80.3605 -2.19311 5.5859 0
M  V30 817 H 81.4305 -1.06824 4.72987 0
M  V30 818 N 82.7736 -1.49793 -0.48987 0
M  V30 819 C 83.7036 -1.70201 -1.59856 0
M  V30 820 C 84.6846 -0.55076 -1.60937 0
M  V30 821 O 85.8696 -0.787841 -1.77501 0
M  V30 822 C 82.9996 -1.77882 -2.98287 0
M  V30 823 C 81.9536 -2.92907 -3.12073 0
M  V30 824 C 81.2796 -2.85712 -4.51965 0
M  V30 825 C 82.5796 -4.3369 -2.91051 0
M  V30 826 H 84.2736 -2.63025 -1.43032 0
M  V30 827 H 81.8196 -1.26574 -0.686664 0
M  V30 828 H 83.7726 -1.90744 -3.75759 0
M  V30 829 H 82.4966 -0.816653 -3.16225 0
M  V30 830 H 81.1556 -2.79665 -2.37029 0
M  V30 831 H 80.8036 -1.8738 -4.66795 0
M  V30 832 H 80.5036 -3.62921 -4.62128 0
M  V30 833 H 82.0276 -3.00598 -5.31482 0
M  V30 834 H 83.4416 -4.47555 -3.58284 0
M  V30 835 H 81.8386 -5.12205 -3.12675 0
M  V30 836 H 82.9086 -4.47362 -1.87071 0
M  V30 837 N 84.2517 0.741722 -1.39055 0
M  V30 838 C 85.4797 1.53098 -1.39171 0
M  V30 839 C 85.8947 1.88794 0.0155099 0
M  V30 840 O 85.2517 1.53626 0.985159 0
M  V30 841 C 85.3027 2.82274 -2.2584 0
M  V30 842 O 85.0237 2.48097 -3.61081 0
M  V30 843 C 86.5247 3.76343 -2.34266 0
M  V30 844 H 83.7447 0.473335 -0.4756 0
M  V30 845 H 86.2887 0.917045 -1.82785 0
M  V30 846 H 84.4437 3.40015 -1.85656 0
M  V30 847 H 84.8577 3.31029 -4.06842 0
M  V30 848 H 86.3317 4.63898 -2.9917 0
M  V30 849 H 86.8087 4.17619 -1.35982 0
M  V30 850 H 87.4147 3.24523 -2.74891 0
M  V30 851 N 85.7298 1.2412 0.971189 0
M  V30 852 C 86.6598 1.05508 2.08304 0
M  V30 853 C 87.6408 -0.0308864 1.70072 0
M  V30 854 O 88.8258 0.135521 1.93727 0
M  V30 855 C 85.9558 0.655365 3.4106 0
M  V30 856 C 84.9098 1.68971 3.93234 0
M  V30 857 C 84.2358 1.14516 5.22293 0
M  V30 858 C 85.5358 3.08487 4.21465 0
M  V30 859 H 87.2298 1.98507 2.24132 0
M  V30 860 H 84.7758 0.955821 1.07704 0
M  V30 861 H 86.7288 0.51217 4.18276 0
M  V30 862 H 85.4528 -0.31032 3.25122 0
M  V30 863 H 84.1118 1.82106 3.18171 0
M  V30 864 H 83.7598 0.170189 5.02712 0
M  V30 865 H 83.4598 1.83635 5.58168 0
M  V30 866 H 84.9838 1.01401 6.02121 0
M  V30 867 H 86.3978 2.98601 4.89398 0
M  V30 868 H 84.7948 3.74926 4.68562 0
M  V30 869 H 85.8648 3.56787 3.28376 0
M  V30 870 N 87.2079 -1.17134 1.05439 0
M  V30 871 C 88.4559 -1.87085 0.764429 0
M  V30 872 C 88.7769 -1.81584 -0.710787 0
M  V30 873 O 88.0469 -1.24349 -1.51374 0
M  V30 874 H 86.6269 -0.692627 0.279779 0
M  V30 875 H 89.2889 -1.42087 1.33406 0
M  V30 876 H 88.3849 -2.92759 1.0816 0
M  V30 877 N 88.686 -0.835752 -1.33615 0
M  V30 878 C 89.618 -0.224151 -2.28101 0
M  V30 879 C 90.631 0.593331 -1.51603 0
M  V30 880 O 91.82 0.420911 -1.73466 0
M  V30 881 C 88.92 0.703309 -3.31522 0
M  V30 882 C 88.093 -0.0741528 -4.37337 0
M  V30 883 C 87.152 0.776176 -5.20444 0
M  V30 884 O 86.178 0.216506 -5.68788 0
M  V30 885 N 87.38 2.09401 -5.41416 0
M  V30 886 H 90.145 -1.03598 -2.81225 0
M  V30 887 H 87.706 -0.69392 -1.46275 0
M  V30 888 H 89.698 1.27707 -3.84022 0
M  V30 889 H 88.268 1.41585 -2.78698 0
M  V30 890 H 87.488 -0.82928 -3.85378 0
M  V30 891 H 88.776 -0.608863 -5.05144 0
M  V30 892 H 88.174 2.57229 -5.03835 0
M  V30 893 H 86.731 2.61633 -5.96985 0
M  V30 894 N 90.1641 1.46063 -0.591896 0
M  V30 895 C 91.0941 2.33172 0.123673 0
M  V30 896 C 92.0751 1.45897 0.87453 0
M  V30 897 O 93.2601 1.74698 0.848181 0
M  V30 898 C 90.3901 3.28336 1.13194 0
M  V30 899 C 89.3441 4.25124 0.495324 0
M  V30 900 C 88.6701 5.09863 1.61071 0
M  V30 901 C 89.9701 5.19143 -0.573425 0
M  V30 902 H 91.6641 2.93252 -0.603646 0
M  V30 903 H 89.2101 1.41014 -0.291741 0
M  V30 904 H 91.1631 3.88137 1.64097 0
M  V30 905 H 89.8871 2.66383 1.88965 0
M  V30 906 H 88.5461 3.66599 0.00729452 0
M  V30 907 H 88.1941 4.44288 2.35832 0
M  V30 908 H 87.8941 5.75417 1.19035 0
M  V30 909 H 89.4181 5.72529 2.12233 0
M  V30 910 H 90.8321 5.73106 -0.1491 0
M  V30 911 H 89.2291 5.93089 -0.914636 0
M  V30 912 H 90.2991 4.62519 -1.45617 0
M  V30 913 N 91.6422 0.330177 1.54103 0
M  V30 914 C 92.8902 -0.269871 2.0029 0
M  V30 915 C 93.2112 -1.52133 1.21986 0
M  V30 916 O 92.4812 -1.93212 0.323438 0
M  V30 917 H 91.0612 -0.10271 0.739905 0
M  V30 918 H 93.7232 0.448249 1.89675 0
M  V30 919 H 92.8192 -0.52166 3.07709 0
M  V30 920 N 93.1203 -1.57491 0.0584922 0
M  V30 921 C 94.5363 -1.56792 -0.298091 0
M  V30 922 C 94.7363 -1.06679 -1.70944 0
M  V30 923 O 93.7923 -0.726672 -2.41818 0
M  V30 924 C 95.1053 -3.00461 -0.119879 0
M  V30 925 C 96.6533 -3.1242 -0.190428 0
M  V30 926 C 97.1283 -4.57982 -0.0406567 0
M  V30 927 N 98.6193 -4.63099 -0.0966958 0
M  V30 928 C 99.3543 -5.734 -0.00502943 0
M  V30 929 N 98.8503 -6.9266 0.139402 0
M  V30 930 N 100.643 -5.62067 -0.0611391 0
M  V30 931 H 92.7943 -1.88386 0.98105 0
M  V30 932 H 95.0573 -0.867865 0.381463 0
M  V30 933 H 94.7633 -3.41187 0.85349 0
M  V30 934 H 94.6373 -3.66843 -0.877833 0
M  V30 935 H 97.0243 -2.71589 -1.15427 0
M  V30 936 H 97.1053 -2.48702 0.598405 0
M  V30 937 H 96.7493 -4.995 0.919897 0
M  V30 938 H 96.6793 -5.19715 -0.848727 0
M  V30 939 H 99.1703 -3.77331 -0.207277 0
M  V30 940 H 99.4833 -7.72536 0.201855 0
M  V30 941 H 97.8283 -6.94781 0.174586 0
M  V30 942 H 101.019 -4.67782 -0.172583 0
M  V30 943 H 101.192 -6.47999 0.0137562 0
M  V30 944 N 94.5984 0.214957 -1.56127 0
M  V30 945 C 95.5454 1.26642 -1.92952 0
M  V30 946 C 96.5154 1.46244 -0.78753 0
M  V30 947 O 97.7004 1.59704 -1.04399 0
M  V30 948 C 94.8404 2.6104 -2.25726 0
M  V30 949 C 93.9534 2.49183 -3.52891 0
M  V30 950 C 93.0884 3.76149 -3.7508 0
M  V30 951 C 92.1274 3.59041 -4.95738 0
M  V30 952 N 91.2644 4.77972 -5.14283 0
M  V30 953 H 96.1044 0.945384 -2.82607 0
M  V30 954 H 93.6414 0.455489 -1.3987 0
M  V30 955 H 95.5994 3.39313 -2.42739 0
M  V30 956 H 94.2294 2.91227 -1.39236 0
M  V30 957 H 93.2814 1.6231 -3.44034 0
M  V30 958 H 94.5934 2.32466 -4.41318 0
M  V30 959 H 93.7474 4.62865 -3.92226 0
M  V30 960 H 92.4864 3.95799 -2.84947 0
M  V30 961 H 91.4914 2.7071 -4.78535 0
M  V30 962 H 92.7164 3.40856 -5.87362 0
M  V30 963 H 90.6624 4.97923 -4.27093 0
M  V30 964 H 90.5794 4.64006 -5.96853 0
M  V30 965 H 91.8474 5.66096 -5.35869 0
M  V30 966 N 96.0765 1.50051 0.48192 0
M  V30 967 C 97.4925 1.37237 0.814756 0
M  V30 968 C 97.6925 0.420109 1.97072 0
M  V30 969 O 96.7485 -0.141246 2.52105 0
M  V30 970 C 98.0615 2.78375 1.13701 0
M  V30 971 C 99.6095 2.87213 1.2441 0
M  V30 972 C 100.084 4.29161 1.59954 0
M  V30 973 N 101.575 4.32061 1.66967 0
M  V30 974 C 102.31 5.38879 1.95952 0
M  V30 975 N 101.806 6.55918 2.23031 0
M  V30 976 N 103.599 5.26312 1.97363 0
M  V30 977 H 95.7505 2.10546 -0.28005 0
M  V30 978 H 98.0135 0.945921 -0.0627454 0
M  V30 979 H 97.7195 3.49845 0.360787 0
M  V30 980 H 97.5935 3.14941 2.07586 0
M  V30 981 H 99.9805 2.15969 2.01101 0
M  V30 982 H 100.061 2.54204 0.285299 0
M  V30 983 H 99.7055 5.00938 0.838067 0
M  V30 984 H 99.6355 4.59648 2.56966 0
M  V30 985 H 102.126 3.47661 1.48123 0
M  V30 986 H 102.439 7.33139 2.44391 0
M  V30 987 H 100.784 6.59112 2.20447 0
M  V30 988 H 103.975 4.33876 1.75697 0
M  V30 989 H 104.148 6.09649 2.19618 0
M  V30 990 N 97.5546 -0.734337 1.39446 0
M  V30 991 C 98.7796 -1.52866 1.40167 0
M  V30 992 C 99.2046 -1.881 -0.00171513 0
M  V30 993 O 98.5626 -1.51957 -0.988879 0
M  V30 994 C 98.6106 -2.79235 2.28167 0
M  V30 995 O 97.7146 -3.75185 1.71201 0
M  V30 996 H 97.0556 -0.461618 0.477289 0
M  V30 997 H 99.5856 -0.905949 1.8345 0
M  V30 998 H 99.5956 -3.27963 2.42702 0
M  V30 999 H 98.2706 -2.52923 3.30156 0
M  V30 1000 H 96.8476 -3.33958 1.65912 0
M  V30 1001 N 99.0327 -1.24633 -0.964593 0
M  V30 1002 C 100.449 -1.01239 -1.2338 0
M  V30 1003 C 100.649 0.2769 -1.99588 0
M  V30 1004 O 99.7047 0.992241 -2.32187 0
M  V30 1005 C 101.018 -2.22937 -2.01791 0
M  V30 1006 C 102.566 -2.27594 -2.14872 0
M  V30 1007 C 103.041 -3.48921 -2.96678 0
M  V30 1008 N 104.532 -3.49257 -3.04259 0
M  V30 1009 C 105.267 -4.39795 -3.67924 0
M  V30 1010 N 104.763 -5.40591 -4.33281 0
M  V30 1011 N 106.556 -4.275 -3.64966 0
M  V30 1012 H 98.7067 -2.0748 -0.454502 0
M  V30 1013 H 100.97 -0.910647 -0.26349 0
M  V30 1014 H 100.676 -3.16587 -1.53184 0
M  V30 1015 H 100.55 -2.25306 -3.02518 0
M  V30 1016 H 102.937 -1.34473 -2.6268 0
M  V30 1017 H 103.018 -2.2925 -1.13482 0
M  V30 1018 H 102.662 -4.42359 -2.49562 0
M  V30 1019 H 102.592 -3.4451 -3.98272 0
M  V30 1020 H 105.083 -2.76337 -2.57771 0
M  V30 1021 H 105.396 -6.05904 -4.79687 0
M  V30 1022 H 103.741 -5.44475 -4.3194 0
M  V30 1023 H 106.932 -3.47987 -3.13086 0
M  V30 1024 H 107.105 -4.98258 -4.14298 0
M  V30 1025 N 100.511 1.16574 -1.06058 0
M  V30 1026 C 101.444 2.19798 -0.61352 0
M  V30 1027 C 102.422 1.58509 0.362453 0
M  V30 1028 O 103.606 1.86527 0.271994 0
M  V30 1029 C 100.733 3.3855 0.100915 0
M  V30 1030 C 99.7788 4.18317 -0.831438 0
M  V30 1031 S 100.612 4.82375 -2.32539 0
M  V30 1032 C 101.768 6.04508 -1.62238 0
M  V30 1033 H 102.001 2.5738 -1.48805 0
M  V30 1034 H 99.5338 1.27327 -0.873338 0
M  V30 1035 H 101.492 4.07358 0.506898 0
M  V30 1036 H 100.153 2.99338 0.951604 0
M  V30 1037 H 99.3458 5.03232 -0.278071 0
M  V30 1038 H 98.9478 3.5499 -1.17719 0
M  V30 1039 H 101.24 6.71133 -0.926622 0
M  V30 1040 H 102.183 6.64389 -2.44934 0
M  V30 1041 H 102.591 5.53559 -1.106 0
M  V30 1042 N 101.989 0.842826 1.3317 0
M  V30 1043 C 102.939 0.250877 2.26616 0
M  V30 1044 C 103.923 -0.596427 1.49437 0
M  V30 1045 O 105.115 -0.447747 1.71243 0
M  V30 1046 C 102.244 -0.569779 3.38539 0
M  V30 1047 C 101.33 0.289254 4.23112 0
M  V30 1048 N 101.721 1.36987 4.86897 0
M  V30 1049 C 100.019 0.0769631 4.45934 0
M  V30 1050 C 100.72 1.89737 5.49886 0
M  V30 1051 N 99.6959 1.19827 5.30229 0
M  V30 1052 H 103.498 1.07718 2.73448 0
M  V30 1053 H 101.012 0.687693 1.47121 0
M  V30 1054 H 103.009 -1.01018 4.04476 0
M  V30 1055 H 101.669 -1.39401 2.93253 0
M  V30 1056 H 102.68 1.75277 4.87338 0
M  V30 1057 H 99.3569 -0.713507 4.11358 0
M  V30 1058 H 100.747 2.80253 6.10662 0
M  V30 1059 N 103.467 -1.45747 0.599634 0
M  V30 1060 C 104.397 -2.33235 -0.111306 0
M  V30 1061 C 105.378 -1.46359 -0.866781 0
M  V30 1062 O 106.563 -1.75146 -0.838904 0
M  V30 1063 C 103.693 -3.28932 -1.11451 0
M  V30 1064 C 102.647 -4.25381 -0.472772 0
M  V30 1065 C 101.973 -5.1071 -1.58365 0
M  V30 1066 C 103.273 -5.18831 0.600948 0
M  V30 1067 H 104.967 -2.92927 0.61919 0
M  V30 1068 H 102.513 -1.40857 0.299215 0
M  V30 1069 H 104.466 -3.89002 -1.62036 0
M  V30 1070 H 103.19 -2.67381 -1.8755 0
M  V30 1071 H 101.849 -3.66598 0.0121472 0
M  V30 1072 H 101.497 -4.45533 -2.33473 0
M  V30 1073 H 101.197 -5.7604 -1.15982 0
M  V30 1074 H 102.721 -5.73647 -2.09194 0
M  V30 1075 H 104.135 -5.73019 0.179491 0
M  V30 1076 H 102.532 -5.92595 0.946076 0
M  V30 1077 H 103.602 -4.6174 1.48068 0
M  V30 1078 N 104.945 -0.338344 -1.53925 0
M  V30 1079 C 106.192 0.259758 -2.00827 0
M  V30 1080 C 106.52 1.50973 -1.22628 0
M  V30 1081 O 105.775 1.93379 -0.300509 0
M  V30 1082 C 106.074 0.62448 -3.51902 0
M  V30 1083 C 105.74 -0.528006 -4.47798 0
M  V30 1084 C 104.402 -0.844298 -4.73735 0
M  V30 1085 C 106.754 -1.30143 -5.0469 0
M  V30 1086 C 104.082 -1.93648 -5.53821 0
M  V30 1087 C 106.434 -2.38382 -5.85967 0
M  V30 1088 C 105.098 -2.70576 -6.10201 0
M  V30 1089 H 104.368 0.0950523 -0.734878 0
M  V30 1090 H 107.015 -0.465182 -1.85764 0
M  V30 1091 H 105.32 1.43006 -3.64769 0
M  V30 1092 H 107.017 1.09905 -3.85645 0
M  V30 1093 H 103.607 -0.271421 -4.2774 0
M  V30 1094 H 107.791 -1.07033 -4.84621 0
M  V30 1095 H 103.047 -2.19021 -5.70824 0
M  V30 1096 H 107.221 -2.98746 -6.29066 0
M  V30 1097 H 104.848 -3.55333 -6.72044 0
M  V30 1098 N 106.423 1.57458 -0.0668435 0
M  V30 1099 C 107.669 1.93587 0.6043 0
M  V30 1100 C 108.002 0.946722 1.69561 0
M  V30 1101 O 107.277 -0.0248516 1.94484 0
M  V30 1102 C 107.56 3.40014 1.18585 0
M  V30 1103 C 107.413 4.49685 0.101529 0
M  V30 1104 C 108.732 3.87154 2.09284 0
M  V30 1105 H 105.851 0.703958 0.218202 0
M  V30 1106 H 108.493 1.89542 -0.131804 0
M  V30 1107 H 106.643 3.43592 1.81319 0
M  V30 1108 H 108.315 4.5823 -0.531279 0
M  V30 1109 H 106.558 4.30059 -0.568487 0
M  V30 1110 H 107.229 5.49266 0.54874 0
M  V30 1111 H 109.705 3.85551 1.56491 0
M  V30 1112 H 108.581 4.90231 2.46911 0
M  V30 1113 H 108.842 3.2481 2.99918 0
M  V30 1114 N 107.901 -0.206675 1.56239 0
M  V30 1115 C 108.831 -1.25909 1.96645 0
M  V30 1116 C 109.812 -1.48097 0.836734 0
M  V30 1117 O 110.997 -1.6003 1.10019 0
M  V30 1118 C 108.127 -2.6058 2.29599 0
M  V30 1119 C 107.081 -2.53024 3.452 0
M  V30 1120 C 106.407 -3.91861 3.63798 0
M  V30 1121 C 107.707 -2.06524 4.79734 0
M  V30 1122 H 109.401 -0.923369 2.84806 0
M  V30 1123 H 106.947 -0.442735 1.37025 0
M  V30 1124 H 108.9 -3.34375 2.56459 0
M  V30 1125 H 107.624 -2.95869 1.38307 0
M  V30 1126 H 106.283 -1.81684 3.18412 0
M  V30 1127 H 105.931 -4.24483 2.69857 0
M  V30 1128 H 105.631 -3.87683 4.4156 0
M  V30 1129 H 107.155 -4.67296 3.93022 0
M  V30 1130 H 108.569 -2.70072 5.05702 0
M  V30 1131 H 106.966 -2.13374 5.60885 0
M  V30 1132 H 108.036 -1.01802 4.74093 0
M  V30 1133 N 109.379 -1.50304 -0.473955 0
M  V30 1134 C 110.329 -1.65347 -1.56985 0
M  V30 1135 C 111.313 -0.508176 -1.52664 0
M  V30 1136 O 112.505 -0.762446 -1.59737 0
M  V30 1137 C 109.634 -1.74832 -2.95447 0
M  V30 1138 C 108.72 -2.95028 -3.04662 0
M  V30 1139 N 109.111 -4.18747 -2.83698 0
M  V30 1140 C 107.409 -2.93527 -3.35795 0
M  V30 1141 C 108.11 -4.99687 -2.97805 0
M  V30 1142 N 107.086 -4.33585 -3.2788 0
M  V30 1143 H 110.888 -2.58698 -1.39472 0
M  V30 1144 H 108.402 -1.47449 -0.680629 0
M  V30 1145 H 110.399 -1.83712 -3.7424 0
M  V30 1146 H 109.059 -0.826376 -3.14008 0
M  V30 1147 H 110.07 -4.48291 -2.59337 0
M  V30 1148 H 106.747 -2.10821 -3.60362 0
M  V30 1149 H 108.137 -6.08057 -2.85861 0
M  V30 1150 N 110.857 0.726932 -1.39834 0
M  V30 1151 C 111.787 1.85405 -1.41941 0
M  V30 1152 C 112.768 1.67751 -0.281728 0
M  V30 1153 O 113.953 1.8795 -0.488717 0
M  V30 1154 C 111.083 3.23243 -1.2701 0
M  V30 1155 C 110.037 3.55549 -2.38262 0
M  V30 1156 C 109.363 4.9241 -2.08415 0
M  V30 1157 C 110.663 3.577 -3.80589 0
M  V30 1158 H 112.357 1.83899 -2.36266 0
M  V30 1159 H 109.903 0.883349 -1.13723 0
M  V30 1160 H 111.856 4.01775 -1.27103 0
M  V30 1161 H 110.58 3.25296 -0.291564 0
M  V30 1162 H 109.239 2.79351 -2.37399 0
M  V30 1163 H 108.887 4.91052 -1.0898 0
M  V30 1164 H 108.587 5.14992 -2.82943 0
M  V30 1165 H 110.111 5.73289 -2.10171 0
M  V30 1166 H 111.525 4.26293 -3.83337 0
M  V30 1167 H 109.922 3.91804 -4.54543 0
M  V30 1168 H 110.992 2.57328 -4.10987 0
M  V30 1169 N 112.336 1.25143 0.95797 0
M  V30 1170 C 113.299 1.05321 2.03569 0
M  V30 1171 C 114.299 0.007152 1.60798 0
M  V30 1172 O 115.489 0.24903 1.72411 0
M  V30 1173 C 112.621 0.598394 3.35607 0
M  V30 1174 H 113.814 2.00986 2.22586 0
M  V30 1175 H 111.367 1.07502 1.13459 0
M  V30 1176 H 112.102 -0.361014 3.22284 0
M  V30 1177 H 111.887 1.35351 3.67998 0
M  V30 1178 H 113.377 0.48104 4.1482 0
M  V30 1179 N 113.814 -1.1601 1.06675 0
M  V30 1180 C 114.744 -2.22688 0.702307 0
M  V30 1181 C 115.725 -1.67306 -0.307032 0
M  V30 1182 O 116.91 -1.93352 -0.181305 0
M  V30 1183 C 114.04 -3.47178 0.092038 0
M  V30 1184 C 112.994 -4.15477 1.02777 0
M  V30 1185 C 112.32 -5.33963 0.28061 0
M  V30 1186 C 113.62 -4.66019 2.35846 0
M  V30 1187 H 115.314 -2.53429 1.59419 0
M  V30 1188 H 112.86 -1.21813 0.767961 0
M  V30 1189 H 114.813 -4.21037 -0.174814 0
M  V30 1190 H 113.537 -3.15749 -0.834877 0
M  V30 1191 H 112.196 -3.43549 1.27944 0
M  V30 1192 H 111.844 -4.98788 -0.649545 0
M  V30 1193 H 111.544 -5.806 0.904258 0
M  V30 1194 H 113.068 -6.10596 0.021396 0
M  V30 1195 H 114.482 -5.3144 2.15045 0
M  V30 1196 H 112.879 -5.23293 2.93743 0
M  V30 1197 H 113.949 -3.82023 2.98641 0
M  V30 1198 N 115.292 -0.849877 -1.32721 0
M  V30 1199 C 116.52 -0.464754 -2.01613 0
M  V30 1200 C 116.935 0.937191 -1.63897 0
M  V30 1201 O 116.292 1.61081 -0.857856 0
M  V30 1202 C 116.343 -0.588638 -3.56675 0
M  V30 1203 O 116.064 -1.93535 -3.93034 0
M  V30 1204 C 117.565 -0.2019 -4.4284 0
M  V30 1205 H 114.785 -0.183215 -0.645502 0
M  V30 1206 H 117.329 -1.1455 -1.69407 0
M  V30 1207 H 115.484 0.0443159 -3.87375 0
M  V30 1208 H 115.898 -1.92871 -4.87751 0
M  V30 1209 H 117.372 -0.339599 -5.50954 0
M  V30 1210 H 117.849 0.857224 -4.30753 0
M  V30 1211 H 118.455 -0.809733 -4.17521 0
M  V30 1212 N 116.77 1.45427 -0.607355 0
M  V30 1213 C 118.047 1.9557 -0.0344566 0
M  V30 1214 C 118.427 1.54979 1.43334 0
M  V30 1215 O 117.775 0.812241 2.13576 0
M  V30 1216 C 117.985 3.48226 -0.232321 0
M  V30 1217 C 119.333 4.2445 -0.113001 0
M  V30 1218 O 120.357 3.55829 -0.162431 0
M  V30 1219 O 119.216 5.465 0.00209442 0
M  V30 1220 H 116.31 0.826222 0.0358667 0
M  V30 1221 H 118.856 1.55594 -0.6774 0
M  V30 1222 H 117.628 3.70739 -1.25174 0
M  V30 1223 H 117.251 3.95092 0.445896 0
M  V30 1224 N 118.248 0.346503 1.53744 0
M  V30 1225 C 119.178 -0.501193 2.28058 0
M  V30 1226 C 120.159 -1.10014 1.29734 0
M  V30 1227 O 121.344 -1.12097 1.58581 0
M  V30 1228 C 118.474 -1.65078 3.05559 0
M  V30 1229 C 117.428 -1.18003 4.11411 0
M  V30 1230 C 116.754 -2.41837 4.76884 0
M  V30 1231 C 118.054 -0.278394 5.21558 0
M  V30 1232 H 119.748 0.11875 2.99164 0
M  V30 1233 H 117.294 0.0585531 1.43881 0
M  V30 1234 H 119.247 -2.25028 3.56287 0
M  V30 1235 H 117.971 -2.29767 2.32109 0
M  V30 1236 H 116.63 -0.603331 3.61601 0
M  V30 1237 H 116.278 -3.0494 4.00026 0
M  V30 1238 H 115.978 -2.1102 5.48402 0
M  V30 1239 H 117.502 -3.02508 5.30397 0
M  V30 1240 H 118.916 -0.784823 5.67903 0
M  V30 1241 H 117.313 -0.0619707 6.00068 0
M  V30 1242 H 118.383 0.684677 4.80042 0
M  V30 1243 N 119.726 -1.57421 0.075193 0
M  V30 1244 C 120.689 -2.11791 -0.876203 0
M  V30 1245 C 121.689 -1.04268 -1.22412 0
M  V30 1246 O 122.879 -1.30242 -1.15684 0
M  V30 1247 C 120.011 -2.62207 -2.17854 0
M  V30 1248 H 121.204 -2.9716 -0.40444 0
M  V30 1249 H 118.757 -1.55333 -0.173557 0
M  V30 1250 H 119.492 -1.803 -2.6956 0
M  V30 1251 H 119.277 -3.40802 -1.93897 0
M  V30 1252 H 120.767 -3.04335 -2.85955 0
M  V30 1253 N 121.204 0.198386 -1.56346 0
M  V30 1254 C 122.45 0.920648 -1.80698 0
M  V30 1255 C 122.783 1.83045 -0.648697 0
M  V30 1256 O 122.058 1.91308 0.350925 0
M  V30 1257 C 122.341 1.73971 -3.15287 0
M  V30 1258 C 122.194 0.85485 -4.41602 0
M  V30 1259 C 123.513 2.71296 -3.46535 0
M  V30 1260 H 120.632 0.333261 -0.657348 0
M  V30 1261 H 123.274 0.188198 -1.89066 0
M  V30 1262 H 121.424 2.36416 -3.08285 0
M  V30 1263 H 123.096 0.245362 -4.60647 0
M  V30 1264 H 121.339 0.161398 -4.335 0
M  V30 1265 H 122.01 1.46286 -5.32264 0
M  V30 1266 H 124.486 2.18983 -3.53816 0
M  V30 1267 H 123.362 3.2569 -4.41834 0
M  V30 1268 H 123.623 3.5018 -2.69864 0
M  V30 1269 N 122.682 1.50554 0.465978 0
M  V30 1270 C 123.645 1.69233 1.54574 0
M  V30 1271 C 124.645 0.562901 1.50626 0
M  V30 1272 O 125.835 0.830016 1.53155 0
M  V30 1273 C 122.967 1.7223 2.94193 0
M  V30 1274 H 124.16 2.65571 1.39327 0
M  V30 1275 H 121.713 1.40111 0.692711 0
M  V30 1276 H 122.448 0.77603 3.14878 0
M  V30 1277 H 122.233 2.54285 2.98466 0
M  V30 1278 H 123.723 1.88618 3.72576 0
M  V30 1279 N 124.16 -0.719506 1.40217 0
M  V30 1280 C 125.09 -1.8465 1.42922 0
M  V30 1281 C 126.071 -1.67599 0.29062 0
M  V30 1282 O 127.256 -1.87688 0.498677 0
M  V30 1283 C 124.386 -3.22565 1.28722 0
M  V30 1284 C 123.34 -3.54281 2.40144 0
M  V30 1285 C 122.666 -4.91298 2.11023 0
M  V30 1286 C 123.966 -3.55676 3.82481 0
M  V30 1287 H 125.66 -1.82644 2.37237 0
M  V30 1288 H 123.206 -0.877305 1.1419 0
M  V30 1289 H 125.159 -4.01095 1.29232 0
M  V30 1290 H 123.883 -3.25137 0.308811 0
M  V30 1291 H 122.542 -2.78088 2.38877 0
M  V30 1292 H 122.19 -4.90468 1.11582 0
M  V30 1293 H 121.89 -5.13485 2.8567 0
M  V30 1294 H 123.414 -5.72166 2.13209 0
M  V30 1295 H 124.828 -4.24254 3.85592 0
M  V30 1296 H 123.225 -3.89388 4.56614 0
M  V30 1297 H 124.295 -2.55144 4.12346 0
M  V30 1298 N 125.638 -1.25649 -0.95132 0
M  V30 1299 C 126.885 -1.10594 -1.69633 0
M  V30 1300 C 127.213 0.352515 -1.91279 0
M  V30 1301 O 126.468 1.27601 -1.4838 0
M  V30 1302 C 126.767 -1.80909 -3.08231 0
M  V30 1303 C 126.433 -3.30825 -3.06375 0
M  V30 1304 C 125.095 -3.71722 -3.05576 0
M  V30 1305 C 127.447 -4.26589 -2.99452 0
M  V30 1306 C 124.775 -5.06788 -2.95606 0
M  V30 1307 C 127.127 -5.61683 -2.91024 0
M  V30 1308 C 125.791 -6.01904 -2.88562 0
M  V30 1309 H 125.061 -0.404691 -0.620731 0
M  V30 1310 H 127.708 -1.55964 -1.11119 0
M  V30 1311 H 126.013 -1.27979 -3.70309 0
M  V30 1312 H 127.71 -1.6671 -3.64704 0
M  V30 1313 H 124.3 -2.98287 -3.07771 0
M  V30 1314 H 128.484 -3.95982 -2.99185 0
M  V30 1315 H 123.74 -5.37126 -2.92071 0
M  V30 1316 H 127.914 -6.35578 -2.84629 0
M  V30 1317 H 125.541 -7.06521 -2.80593 0
M  V30 1318 N 127.117 1.15442 -1.07289 0
M  V30 1319 C 128.049 2.19773 -0.650585 0
M  V30 1320 C 129.062 1.60076 0.296572 0
M  V30 1321 O 130.251 1.78293 0.0859905 0
M  V30 1322 C 127.351 3.38838 0.0650398 0
M  V30 1323 C 126.524 4.2808 -0.898141 0
M  V30 1324 C 125.583 5.2574 -0.219926 0
M  V30 1325 O 124.609 5.62654 -0.860773 0
M  V30 1326 N 125.811 5.71205 1.03466 0
M  V30 1327 H 128.576 2.56622 -1.54808 0
M  V30 1328 H 126.137 1.30551 -0.957494 0
M  V30 1329 H 128.129 4.01222 0.529415 0
M  V30 1330 H 126.699 3.00409 0.864466 0
M  V30 1331 H 125.919 3.62804 -1.54165 0
M  V30 1332 H 127.207 4.84577 -1.5512 0
M  V30 1333 H 126.605 5.43325 1.57526 0
M  V30 1334 H 125.162 6.35633 1.44272 0
M  V30 1335 N 128.595 0.856903 1.32268 0
M  V30 1336 C 129.841 0.462069 1.97466 0
M  V30 1337 C 130.174 -0.980298 1.67642 0
M  V30 1338 O 129.449 -1.68824 0.965858 0
M  V30 1339 C 129.732 0.704336 3.53145 0
M  V30 1340 C 129.585 2.19529 3.9259 0
M  V30 1341 C 130.904 0.1622 4.39801 0
M  V30 1342 H 128.023 0.169357 0.717278 0
M  V30 1343 H 130.665 1.07574 1.56614 0
M  V30 1344 H 128.815 0.181999 3.88073 0
M  V30 1345 H 130.487 2.78387 3.67829 0
M  V30 1346 H 128.73 2.67292 3.41668 0
M  V30 1347 H 129.401 2.31549 5.01088 0
M  V30 1348 H 131.877 0.608905 4.11621 0
M  V30 1349 H 130.753 0.361265 5.4771 0
M  V30 1350 H 131.014 -0.935158 4.32096 0
M  V30 1351 N 130.073 -1.45103 0.615059 0
M  V30 1352 C 131.003 -2.33339 -0.0865619 0
M  V30 1353 C 131.984 -1.4727 -0.851209 0
M  V30 1354 O 133.169 -1.76026 -0.820281 0
M  V30 1355 C 130.299 -3.30095 -1.07956 0
M  V30 1356 C 129.253 -4.25858 -0.427628 0
M  V30 1357 C 128.579 -5.12361 -1.5294 0
M  V30 1358 C 129.879 -5.18165 0.655944 0
M  V30 1359 H 131.573 -2.92254 0.650224 0
M  V30 1360 H 129.119 -1.40532 0.314138 0
M  V30 1361 H 131.072 -3.90698 -1.57901 0
M  V30 1362 H 129.796 -2.69355 -1.84703 0
M  V30 1363 H 128.455 -3.66564 0.0510292 0
M  V30 1364 H 128.103 -4.47984 -2.28734 0
M  V30 1365 H 127.803 -5.77238 -1.09865 0
M  V30 1366 H 129.327 -5.75833 -2.03098 0
M  V30 1367 H 130.741 -5.72796 0.240257 0
M  V30 1368 H 129.138 -5.91559 1.00888 0
M  V30 1369 H 130.208 -4.60144 1.52957 0
M  V30 1370 N 131.551 -0.354651 -1.53558 0
M  V30 1371 C 132.962 0.126902 -1.86268 0
M  V30 1372 C 133.313 1.49075 -1.27558 0
M  V30 1373 O 132.438 2.08105 -0.5934 0
M  V30 1374 C 133.033 0.237046 -3.3797 0
M  V30 1375 C 131.592 0.662842 -3.70518 0
M  V30 1376 C 130.739 -0.196652 -2.76602 0
M  V30 1377 H 133.69 -0.573849 -1.47962 0
M  V30 1378 H 133.711 1.06259 -3.65362 0
M  V30 1379 H 133.223 -0.755725 -3.80671 0
M  V30 1380 H 131.324 1.66424 -3.33367 0
M  V30 1381 H 131.437 0.445034 -4.77029 0
M  V30 1382 H 129.801 0.332763 -2.52517 0
M  V30 1383 H 130.584 -1.18676 -3.22135 0
M  V30 1384 N 133.029 1.57378 -0.0835403 0
M  V30 1385 C 133.961 2.10389 0.909338 0
M  V30 1386 C 134.974 1.03858 1.25369 0
M  V30 1387 O 136.163 1.31338 1.20882 0
M  V30 1388 C 133.263 2.55908 2.2218 0
M  V30 1389 C 132.436 3.86145 2.05453 0
M  V30 1390 C 131.495 4.17633 3.20108 0
M  V30 1391 O 130.521 4.87043 2.94581 0
M  V30 1392 N 131.723 3.72113 4.45547 0
M  V30 1393 H 134.488 2.962 0.456657 0
M  V30 1394 H 132.049 1.61579 0.101877 0
M  V30 1395 H 134.041 2.74027 2.97811 0
M  V30 1396 H 132.611 1.75171 2.58909 0
M  V30 1397 H 131.831 3.7729 1.1422 0
M  V30 1398 H 133.119 4.7137 1.91541 0
M  V30 1399 H 132.517 3.16062 4.69171 0
M  V30 1400 H 131.074 3.95409 5.18165 0
M  V30 1401 N 134.507 -0.190092 1.56449 0
M  V30 1402 C 135.437 -1.23816 1.97969 0
M  V30 1403 C 136.418 -1.47201 0.852395 0
M  V30 1404 O 137.603 -1.58854 1.1171 0
M  V30 1405 C 134.733 -2.5813 2.3235 0
M  V30 1406 C 133.687 -2.49348 3.47864 0
M  V30 1407 C 133.013 -3.8798 3.67934 0
M  V30 1408 C 134.313 -2.01424 4.81898 0
M  V30 1409 H 136.007 -0.89311 2.85769 0
M  V30 1410 H 133.553 -0.428177 1.37487 0
M  V30 1411 H 135.506 -3.31637 2.59991 0
M  V30 1412 H 134.23 -2.94386 1.41438 0
M  V30 1413 H 132.889 -1.78297 3.20321 0
M  V30 1414 H 132.537 -4.21597 2.74344 0
M  V30 1415 H 132.237 -3.82978 4.45648 0
M  V30 1416 H 133.761 -4.63101 3.97957 0
M  V30 1417 H 135.175 -2.64693 5.08538 0
M  V30 1418 H 133.572 -2.07413 5.63116 0
M  V30 1419 H 134.642 -0.967677 4.75146 0
M  V30 1420 N 135.985 -1.50799 -0.457987 0
M  V30 1421 C 136.915 -1.73553 -1.5621 0
M  V30 1422 C 137.896 -0.584774 -1.59732 0
M  V30 1423 O 139.081 -0.825314 -1.7579 0
M  V30 1424 C 136.211 -1.84169 -2.94447 0
M  V30 1425 C 135.165 -2.99461 -3.0579 0
M  V30 1426 C 134.491 -2.95235 -4.45803 0
M  V30 1427 C 135.791 -4.39766 -2.81786 0
M  V30 1428 H 137.485 -2.66 -1.37421 0
M  V30 1429 H 135.031 -1.28002 -0.659662 0
M  V30 1430 H 136.984 -1.98672 -3.71628 0
M  V30 1431 H 135.708 -0.883545 -3.14422 0
M  V30 1432 H 134.367 -2.8463 -2.31044 0
M  V30 1433 H 134.015 -1.97239 -4.62715 0
M  V30 1434 H 133.715 -3.72642 -4.54326 0
M  V30 1435 H 135.239 -3.11803 -5.24987 0
M  V30 1436 H 136.653 -4.55054 -3.4871 0
M  V30 1437 H 135.05 -5.18722 -3.0174 0
M  V30 1438 H 136.12 -4.51229 -1.7754 0
M  V30 1439 N 137.463 0.71206 -1.40597 0
M  V30 1440 C 138.709 1.47292 -1.40274 0
M  V30 1441 C 139.064 1.92399 -0.00576812 0
M  V30 1442 O 138.357 1.65507 0.965297 0
M  V30 1443 C 138.551 2.71039 -2.32965 0
M  V30 1444 C 138.38 2.38035 -3.81536 0
M  V30 1445 C 137.15 2.29203 -4.50327 0
M  V30 1446 C 139.348 2.02076 -4.72938 0
M  V30 1447 N 137.33 1.88911 -5.84111 0
M  V30 1448 C 138.701 1.72412 -5.95545 0
M  V30 1449 C 140.756 1.88742 -4.60739 0
M  V30 1450 C 139.459 1.30756 -7.07316 0
M  V30 1451 C 141.485 1.4849 -5.72455 0
M  V30 1452 C 140.847 1.19726 -6.94151 0
M  V30 1453 H 136.946 0.536919 -0.568544 0
M  V30 1454 H 139.53 0.825424 -1.76337 0
M  V30 1455 H 137.701 3.33533 -1.99023 0
M  V30 1456 H 139.433 3.37404 -2.23474 0
M  V30 1457 H 136.188 2.47059 -4.04053 0
M  V30 1458 H 136.612 1.71293 -6.54972 0
M  V30 1459 H 141.254 2.0964 -3.67166 0
M  V30 1460 H 138.972 1.08601 -8.00769 0
M  V30 1461 H 142.558 1.38747 -5.65014 0
M  V30 1462 H 141.438 0.890482 -7.79128 0
M  V30 1463 N 138.941 1.26152 0.944643 0
M  V30 1464 C 140.218 1.02247 1.66748 0
M  V30 1465 C 140.598 -0.448202 2.06287 0
M  V30 1466 O 139.946 -1.42779 1.78399 0
M  V30 1467 C 140.156 1.96788 2.88228 0
M  V30 1468 C 141.504 2.25201 3.59958 0
M  V30 1469 O 142.528 1.94626 2.98327 0
M  V30 1470 O 141.387 2.77242 4.70956 0
M  V30 1471 H 138.481 0.388517 0.730057 0
M  V30 1472 H 141.027 1.37348 0.99668 0
M  V30 1473 H 139.799 2.96047 2.55875 0
M  V30 1474 H 139.422 1.62145 3.63035 0
M  V30 1475 N 140.419 -1.14872 1.07899 0
M  V30 1476 C 141.668 -1.85135 0.800499 0
M  V30 1477 C 141.981 -1.83547 -0.676014 0
M  V30 1478 O 143.187 -2.49548 -1.06948 0
M  V30 1479 C 141.643 -3.3231 1.38197 0
M  V30 1480 C 141.251 -3.42329 2.8899 0
M  V30 1481 C 142.995 -4.0772 1.18174 0
M  V30 1482 C 140.902 -4.83684 3.403 0
M  V30 1483 H 139.832 -0.693563 0.29578 0
M  V30 1484 H 142.483 -1.29532 1.29976 0
M  V30 1485 H 140.865 -3.87618 0.810431 0
M  V30 1486 H 142.039 -2.97097 3.52236 0
M  V30 1487 H 140.354 -2.80369 3.07867 0
M  V30 1488 H 142.951 -5.12049 1.5398 0
M  V30 1489 H 143.294 -4.16124 0.12117 0
M  V30 1490 H 143.827 -3.58696 1.71994 0
M  V30 1491 H 140.566 -4.80465 4.45907 0
M  V30 1492 H 140.086 -5.29474 2.81811 0
M  V30 1493 H 141.765 -5.52558 3.36584 0
M  V30 1494 N 141.898 -0.863906 -1.31812 0
M  V30 1495 C 143.126 -0.486111 -2.01108 0
M  V30 1496 C 143.541 0.919755 -1.64882 0
M  V30 1497 O 142.898 1.60162 -0.874893 0
M  V30 1498 C 142.949 -0.626435 -3.56031 0
M  V30 1499 O 142.67 -1.97693 -3.90959 0
M  V30 1500 C 144.171 -0.248857 -4.42601 0
M  V30 1501 H 141.391 -0.190052 -0.643523 0
M  V30 1502 H 143.935 -1.1634 -1.68182 0
M  V30 1503 H 142.09 0.00322717 -3.874 0
M  V30 1504 H 142.504 -1.98034 -4.85678 0
M  V30 1505 H 143.978 -0.398016 -5.50563 0
M  V30 1506 H 144.455 0.811489 -4.31638 0
M  V30 1507 H 145.061 -0.853971 -4.16638 0
M  V30 1508 N 143.376 1.44774 -0.622745 0
M  V30 1509 C 144.606 2.06187 -0.130532 0
M  V30 1510 C 145.014 1.46547 1.19669 0
M  V30 1511 O 144.357 0.579636 1.74316 0
M  V30 1512 C 144.419 3.59437 0.0674983 0
M  V30 1513 C 144.083 4.41496 -1.18026 0
M  V30 1514 C 145.08 4.75512 -2.102 0
M  V30 1515 C 142.765 4.82007 -1.41333 0
M  V30 1516 C 144.759 5.48912 -3.23998 0
M  V30 1517 C 142.446 5.55157 -2.55429 0
M  V30 1518 C 143.444 5.88528 -3.46589 0
M  V30 1519 O 143.132 6.60191 -4.58697 0
M  V30 1520 H 142.864 0.672045 -0.0730162 0
M  V30 1521 H 145.418 1.86768 -0.854802 0
M  V30 1522 H 143.648 3.77314 0.846825 0
M  V30 1523 H 145.337 4.02642 0.513209 0
M  V30 1524 H 146.103 4.4476 -1.93425 0
M  V30 1525 H 141.982 4.55457 -0.712709 0
M  V30 1526 H 145.526 5.74877 -3.95174 0
M  V30 1527 H 141.423 5.85324 -2.72151 0
M  V30 1528 H 142.191 6.78654 -4.57571 0
M  V30 1529 N 144.854 0.36279 1.53368 0
M  V30 1530 C 146.27 0.0116182 1.59596 0
M  V30 1531 C 146.47 -1.47012 1.37803 0
M  V30 1532 O 145.526 -2.23136 1.18181 0
M  V30 1533 C 146.839 0.465052 2.97082 0
M  V30 1534 C 148.387 0.419033 3.10182 0
M  V30 1535 C 148.862 0.848235 4.50077 0
M  V30 1536 N 150.353 0.803183 4.56183 0
M  V30 1537 C 151.088 1.107 5.62613 0
M  V30 1538 N 150.584 1.47996 6.76808 0
M  V30 1539 N 152.377 1.02998 5.52583 0
M  V30 1540 H 144.528 1.32775 1.65785 0
M  V30 1541 H 146.791 0.542518 0.777417 0
M  V30 1542 H 146.497 1.49892 3.18159 0
M  V30 1543 H 146.371 -0.149786 3.76902 0
M  V30 1544 H 148.758 -0.605696 2.88817 0
M  V30 1545 H 148.839 1.06933 2.32377 0
M  V30 1546 H 148.483 1.87107 4.7218 0
M  V30 1547 H 148.413 0.175218 5.26308 0
M  V30 1548 H 150.904 0.52838 3.74188 0
M  V30 1549 H 151.217 1.69613 7.53957 0
M  V30 1550 H 149.562 1.51859 6.78206 0
M  V30 1551 H 152.753 0.737817 4.62249 0
M  V30 1552 H 152.926 1.2701 6.35431 0
M  V30 1553 N 146.332 -1.57332 0.0918853 0
M  V30 1554 C 147.579 -1.94236 -0.572577 0
M  V30 1555 C 147.907 -0.973398 -1.6839 0
M  V30 1556 O 147.162 0.00756912 -1.95699 0
M  V30 1557 C 147.461 -3.37689 -1.17051 0
M  V30 1558 C 147.127 -4.50527 -0.183304 0
M  V30 1559 C 145.789 -4.81119 0.0882276 0
M  V30 1560 C 148.141 -5.18883 0.49095 0
M  V30 1561 C 145.469 -5.77395 1.04076 0
M  V30 1562 C 147.821 -6.1618 1.43193 0
M  V30 1563 C 146.485 -6.45179 1.71173 0
M  V30 1564 H 145.755 -0.710762 -0.209521 0
M  V30 1565 H 148.402 -1.9077 0.167036 0
M  V30 1566 H 146.707 -3.37718 -1.9863 0
M  V30 1567 H 148.404 -3.63543 -1.69227 0
M  V30 1568 H 144.994 -4.26681 -0.405124 0
M  V30 1569 H 149.178 -4.95427 0.294312 0
M  V30 1570 H 144.434 -5.98179 1.26457 0
M  V30 1571 H 148.608 -6.68243 1.96023 0
M  V30 1572 H 146.235 -7.1959 2.4514 0
M  V30 1573 N 147.81 0.181792 -1.56548 0
M  V30 1574 C 148.742 1.24956 -1.92142 0
M  V30 1575 C 149.755 1.41022 -0.813422 0
M  V30 1576 O 150.944 1.41212 -1.09186 0
M  V30 1577 C 148.044 2.61981 -2.14987 0
M  V30 1578 C 147.217 2.6735 -3.46183 0
M  V30 1579 C 146.276 3.85664 -3.5798 0
M  V30 1580 O 145.302 3.72148 -4.30691 0
M  V30 1581 N 146.504 5.01683 -2.92053 0
M  V30 1582 H 149.269 0.947329 -2.84334 0
M  V30 1583 H 146.83 0.371629 -1.57577 0
M  V30 1584 H 148.822 3.3958 -2.20154 0
M  V30 1585 H 147.392 2.84637 -1.2923 0
M  V30 1586 H 146.612 1.75925 -3.52766 0
M  V30 1587 H 147.9 2.67939 -4.32534 0
M  V30 1588 H 147.298 5.15564 -2.32832 0
M  V30 1589 H 145.855 5.77181 -3.0283 0
M  V30 1590 N 149.288 1.51039 0.449983 0
M  V30 1591 C 150.536 1.62759 1.19808 0
M  V30 1592 C 150.857 0.339981 1.92013 0
M  V30 1593 O 150.127 -0.643606 1.85026 0
M  V30 1594 H 148.707 0.599811 0.445237 0
M  V30 1595 H 151.369 1.87914 0.517138 0
M  V30 1596 H 150.465 2.44911 1.93455 0
M  V30 1597 N 150.766 -0.704594 1.40972 0
M  V30 1598 C 152.177 -1.28418 1.3552 0
M  V30 1599 C 152.528 -1.96171 0.0339434 0
M  V30 1600 O 151.653 -1.98231 -0.867944 0
M  V30 1601 C 152.248 -2.33528 2.45459 0
M  V30 1602 C 150.807 -2.87085 2.43433 0
M  V30 1603 C 149.954 -1.61007 2.2577 0
M  V30 1604 H 152.905 -0.499963 1.50619 0
M  V30 1605 H 152.926 -3.14619 2.13998 0
M  V30 1606 H 152.438 -1.84187 3.41609 0
M  V30 1607 H 150.539 -3.40626 1.51013 0
M  V30 1608 H 150.652 -3.3813 3.39419 0
M  V30 1609 H 149.016 -1.86482 1.73483 0
M  V30 1610 H 149.799 -1.13675 3.23933 0
M  V30 1611 N 152.244 -1.26651 -0.937939 0
M  V30 1612 C 153.521 -1.0313 -1.66204 0
M  V30 1613 C 153.901 0.437256 -2.06522 0
M  V30 1614 O 153.249 1.41831 -1.79154 0
M  V30 1615 C 153.459 -1.98314 -2.87181 0
M  V30 1616 C 154.807 -2.27107 -3.58758 0
M  V30 1617 O 155.831 -1.96205 -2.97291 0
M  V30 1618 O 154.69 -2.79736 -4.69479 0
M  V30 1619 H 151.784 -0.392384 -0.727986 0
M  V30 1620 H 154.33 -1.37874 -0.989382 0
M  V30 1621 H 153.102 -2.97399 -2.54302 0
M  V30 1622 H 152.725 -1.64068 -3.6217 0
M  V30 1623 N 153.722 1.14298 -1.08507 0
M  V30 1624 C 154.652 2.21542 -0.737646 0
M  V30 1625 C 155.633 1.67773 0.280377 0
M  V30 1626 O 156.818 1.93616 0.150521 0
M  V30 1627 C 153.948 3.46988 -0.147259 0
M  V30 1628 C 152.902 4.13789 -1.09374 0
M  V30 1629 C 152.228 5.33449 -0.365524 0
M  V30 1630 C 153.528 4.62208 -2.4323 0
M  V30 1631 H 155.222 2.5086 -1.6343 0
M  V30 1632 H 152.768 1.20576 -0.787243 0
M  V30 1633 H 154.721 4.21262 0.107808 0
M  V30 1634 H 153.445 3.17037 0.784538 0
M  V30 1635 H 152.104 3.4147 -1.33393 0
M  V30 1636 H 151.752 4.99759 0.57011 0
M  V30 1637 H 151.452 5.79088 -0.996512 0
M  V30 1638 H 152.976 6.10485 -0.118534 0
M  V30 1639 H 154.39 5.27952 -2.23472 0
M  V30 1640 H 152.787 5.18553 -3.02031 0
M  V30 1641 H 153.857 3.77224 -3.04681 0
M  V30 1642 N 155.201 0.870884 1.31352 0
M  V30 1643 C 156.131 0.343096 2.30966 0
M  V30 1644 C 157.112 -0.566507 1.60389 0
M  V30 1645 O 158.297 -0.483336 1.88089 0
M  V30 1646 C 155.427 -0.455487 3.443 0
M  V30 1647 C 154.381 0.361103 4.26474 0
M  V30 1648 C 153.707 -0.563221 5.31725 0
M  V30 1649 C 155.007 1.59566 4.97329 0
M  V30 1650 H 156.701 1.17548 2.75359 0
M  V30 1651 H 154.247 0.566686 1.32381 0
M  V30 1652 H 156.2 -0.83525 4.13039 0
M  V30 1653 H 154.924 -1.32139 2.98675 0
M  V30 1654 H 153.583 0.722825 3.59403 0
M  V30 1655 H 153.231 -1.42643 4.82351 0
M  V30 1656 H 152.931 -0.0207409 5.87596 0
M  V30 1657 H 154.455 -0.939808 6.03324 0
M  V30 1658 H 155.869 1.28728 5.58661 0
M  V30 1659 H 154.266 2.07728 5.63 0
M  V30 1660 H 155.336 2.34798 4.24262 0
M  V30 1661 N 156.679 -1.44442 0.630414 0
M  V30 1662 C 157.919 -2.03934 0.137919 0
M  V30 1663 C 158.283 -1.48509 -1.21692 0
M  V30 1664 O 159.484 -1.99499 -1.80149 0
M  V30 1665 C 157.755 -3.57187 0.123373 0
M  V30 1666 S 159.314 -4.37741 -0.304604 0
M  V30 1667 H 156.132 -0.708401 0.0607353 0
M  V30 1668 H 158.734 -1.76835 0.833643 0
M  V30 1669 H 157.438 -3.95032 1.11256 0
M  V30 1670 H 156.969 -3.88895 -0.59362 0
M  V30 1671 H 158.984 -4.71403 -1.54897 0
M  V30 1672 N 158.157 -0.370918 -1.53173 0
M  V30 1673 C 159.573 -0.0200818 -1.59587 0
M  V30 1674 C 159.773 1.46279 -1.38581 0
M  V30 1675 O 158.829 2.22506 -1.19363 0
M  V30 1676 C 160.142 -0.4808 -2.96831 0
M  V30 1677 C 161.69 -0.435477 -3.09956 0
M  V30 1678 C 162.165 -0.872092 -4.4962 0
M  V30 1679 N 163.656 -0.827364 -4.55751 0
M  V30 1680 C 164.391 -1.13683 -5.62018 0
M  V30 1681 N 163.887 -1.51584 -6.76014 0
M  V30 1682 N 165.68 -1.05927 -5.52029 0
M  V30 1683 H 157.831 -1.33652 -1.65079 0
M  V30 1684 H 160.094 -0.546634 -0.774529 0
M  V30 1685 H 159.8 -1.51577 -3.1736 0
M  V30 1686 H 159.674 0.129796 -3.76977 0
M  V30 1687 H 162.061 0.590371 -2.89134 0
M  V30 1688 H 162.142 -1.08164 -2.31806 0
M  V30 1689 H 161.786 -1.89608 -4.71181 0
M  V30 1690 H 161.716 -0.203127 -5.26208 0
M  V30 1691 H 164.207 -0.548216 -3.73902 0
M  V30 1692 H 164.52 -1.73609 -7.53047 0
M  V30 1693 H 162.865 -1.55454 -6.77391 0
M  V30 1694 H 166.056 -0.762321 -4.61851 0
M  V30 1695 H 166.229 -1.30378 -6.34749 0
M  V30 1696 N 159.635 1.57281 -0.100228 0
M  V30 1697 C 160.598 2.13158 0.842398 0
M  V30 1698 C 161.598 1.06202 1.20738 0
M  V30 1699 O 162.788 1.32066 1.13597 0
M  V30 1700 C 159.92 2.65639 2.13655 0
M  V30 1701 H 161.113 2.97766 0.357114 0
M  V30 1702 H 158.666 1.5559 0.148823 0
M  V30 1703 H 159.401 1.84566 2.66657 0
M  V30 1704 H 159.186 3.43844 1.88451 0
M  V30 1705 H 160.676 3.08846 2.81077 0
M  V30 1706 N 161.113 -0.173488 1.56642 0
M  V30 1707 C 162.359 -0.891784 1.8214 0
M  V30 1708 C 162.692 -1.8199 0.677736 0
M  V30 1709 O 161.967 -1.91842 -0.320446 0
M  V30 1710 C 162.25 -1.68933 3.18015 0
M  V30 1711 C 162.103 -0.784487 4.42906 0
M  V30 1712 C 163.422 -2.65748 3.50808 0
M  V30 1713 H 160.541 -0.322761 0.662567 0
M  V30 1714 H 163.183 -0.158095 1.89341 0
M  V30 1715 H 161.333 -2.31482 3.12007 0
M  V30 1716 H 163.005 -0.172046 4.60979 0
M  V30 1717 H 161.248 -0.0924117 4.33702 0
M  V30 1718 H 161.919 -1.37799 5.34524 0
M  V30 1719 H 164.395 -2.13327 3.57255 0
M  V30 1720 H 163.271 -3.18619 4.4696 0
M  V30 1721 H 163.532 -3.45842 2.75401 0
M  V30 1722 N 162.591 -1.51276 -0.441967 0
M  V30 1723 C 163.538 -1.72256 -1.53612 0
M  V30 1724 C 164.508 -0.564164 -1.56225 0
M  V30 1725 O 165.693 -0.798074 -1.73307 0
M  V30 1726 C 162.833 -1.84932 -2.91366 0
M  V30 1727 C 161.946 -3.12459 -2.98317 0
M  V30 1728 C 161.081 -3.15758 -4.27166 0
M  V30 1729 C 160.12 -4.37619 -4.27967 0
M  V30 1730 N 159.257 -4.38493 -5.48333 0
M  V30 1731 H 164.097 -2.65654 -1.35026 0
M  V30 1732 H 161.634 -1.31662 -0.656009 0
M  V30 1733 H 163.592 -1.90263 -3.7129 0
M  V30 1734 H 162.222 -0.949461 -3.08521 0
M  V30 1735 H 161.274 -3.1646 -2.11086 0
M  V30 1736 H 162.586 -4.02382 -2.94771 0
M  V30 1737 H 161.74 -3.19979 -5.15459 0
M  V30 1738 H 160.479 -2.23715 -4.33362 0
M  V30 1739 H 159.484 -4.33579 -3.38067 0
M  V30 1740 H 160.709 -5.30921 -4.23438 0
M  V30 1741 H 158.655 -3.49318 -5.55259 0
M  V30 1742 H 158.572 -5.22219 -5.46647 0
M  V30 1743 H 159.84 -4.469 -6.38671 0
M  V30 1744 N 164.069 0.697108 -1.41344 0
M  V30 1745 C 165.299 1.48377 -1.43763 0
M  V30 1746 C 165.707 1.89156 -0.0408726 0
M  V30 1747 O 165.05 1.57239 0.949812 0
M  V30 1748 C 165.112 2.7781 -2.2817 0
M  V30 1749 C 164.776 2.59244 -3.76353 0
M  V30 1750 C 165.773 2.25292 -4.68551 0
M  V30 1751 C 163.458 2.74933 -4.20378 0
M  V30 1752 C 165.452 2.07264 -6.02761 0
M  V30 1753 C 163.139 2.56521 -5.54653 0
M  V30 1754 C 164.137 2.22737 -6.4566 0
M  V30 1755 O 163.825 2.04485 -7.77458 0
M  V30 1756 H 163.557 0.463842 -0.491759 0
M  V30 1757 H 166.111 0.865934 -1.86255 0
M  V30 1758 H 164.341 3.41995 -1.8049 0
M  V30 1759 H 166.03 3.39608 -2.22309 0
M  V30 1760 H 166.796 2.12787 -4.35829 0
M  V30 1761 H 162.675 3.00213 -3.49848 0
M  V30 1762 H 166.219 1.80817 -6.73759 0
M  V30 1763 H 162.116 2.68616 -5.86955 0
M  V30 1764 H 162.884 2.1926 -7.88586 0
M  V30 1765 N 165.547 1.27147 0.931209 0
M  V30 1766 C 166.477 1.12081 2.04842 0
M  V30 1767 C 167.458 0.0232364 1.70084 0
M  V30 1768 O 168.643 0.197085 1.93197 0
M  V30 1769 C 165.773 0.76354 3.38803 0
M  V30 1770 C 164.727 1.81396 3.87659 0
M  V30 1771 C 164.053 1.31075 5.18385 0
M  V30 1772 C 165.353 3.21739 4.11438 0
M  V30 1773 H 167.047 2.05537 2.17703 0
M  V30 1774 H 164.593 0.989603 1.04608 0
M  V30 1775 H 166.546 0.644982 4.16435 0
M  V30 1776 H 165.27 -0.206727 3.25945 0
M  V30 1777 H 163.929 1.92136 3.12217 0
M  V30 1778 H 163.577 0.330037 5.01916 0
M  V30 1779 H 163.277 2.013 5.52044 0
M  V30 1780 H 164.801 1.20506 5.98591 0
M  V30 1781 H 166.215 3.14019 4.79651 0
M  V30 1782 H 164.612 3.89644 4.56397 0
M  V30 1783 H 165.682 3.67054 3.16859 0
M  V30 1784 N 167.025 -1.13721 1.09112 0
M  V30 1785 C 167.957 -2.1871 0.685467 0
M  V30 1786 C 168.97 -1.60527 -0.271068 0
M  V30 1787 O 170.159 -1.78407 -0.0576148 0
M  V30 1788 C 167.259 -3.38898 -0.0111255 0
M  V30 1789 C 166.432 -4.26597 0.966131 0
M  V30 1790 C 165.491 -5.25324 0.303539 0
M  V30 1791 O 164.517 -5.61213 0.950177 0
M  V30 1792 N 165.719 -5.72779 -0.943651 0
M  V30 1793 H 168.484 -2.54126 1.58871 0
M  V30 1794 H 166.045 -1.29012 0.978143 0
M  V30 1795 H 168.037 -4.02014 -0.465517 0
M  V30 1796 H 166.607 -3.01747 -0.816565 0
M  V30 1797 H 165.827 -3.60306 1.59917 0
M  V30 1798 H 167.115 -4.82048 1.6281 0
M  V30 1799 H 166.513 -5.45762 -1.48862 0
M  V30 1800 H 165.07 -6.37847 -1.34142 0
M  V30 1801 N 168.503 -0.877838 -1.30888 0
M  V30 1802 C 169.749 -0.493426 -1.96706 0
M  V30 1803 C 170.082 0.953504 -1.6918 0
M  V30 1804 O 169.357 1.67266 -0.992594 0
M  V30 1805 C 169.64 -0.760429 -3.51979 0
M  V30 1806 C 169.493 -2.25747 -3.89048 0
M  V30 1807 C 170.812 -0.232148 -4.39487 0
M  V30 1808 H 167.931 -0.180746 -0.714493 0
M  V30 1809 H 170.573 -1.10052 -1.54882 0
M  V30 1810 H 168.723 -0.243715 -3.87735 0
M  V30 1811 H 170.395 -2.84204 -3.63354 0
M  V30 1812 H 168.638 -2.72694 -3.37373 0
M  V30 1813 H 169.309 -2.39491 -4.97341 0
M  V30 1814 H 171.785 -0.674314 -4.106 0
M  V30 1815 H 170.661 -0.448355 -5.47066 0
M  V30 1816 H 170.922 0.866297 -4.33529 0
M  V30 1817 N 169.982 1.44106 -0.638065 0
M  V30 1818 C 170.912 2.33448 0.0494287 0
M  V30 1819 C 171.893 1.48606 0.827672 0
M  V30 1820 O 173.078 1.77308 0.792173 0
M  V30 1821 C 170.208 3.31771 1.02691 0
M  V30 1822 C 169.162 4.26485 0.359823 0
M  V30 1823 C 168.488 5.14729 1.44769 0
M  V30 1824 C 169.788 5.17056 -0.738296 0
M  V30 1825 H 171.482 2.91183 -0.696636 0
M  V30 1826 H 169.028 1.40014 -0.336456 0
M  V30 1827 H 170.981 3.93161 1.51666 0
M  V30 1828 H 169.705 2.7226 1.80395 0
M  V30 1829 H 168.364 3.66437 -0.10934 0
M  V30 1830 H 168.012 4.51566 2.21578 0
M  V30 1831 H 167.712 5.78913 1.00668 0
M  V30 1832 H 169.236 5.78991 1.93911 0
M  V30 1833 H 170.65 5.72342 -0.331354 0
M  V30 1834 H 169.047 5.89879 -1.10286 0
M  V30 1835 H 170.117 4.57652 -1.60258 0
M  V30 1836 N 171.46 0.379036 1.52974 0
M  V30 1837 C 172.685 -0.209353 2.06341 0
M  V30 1838 C 173.11 -1.40583 1.24972 0
M  V30 1839 O 172.468 -1.79246 0.272155 0
M  V30 1840 C 172.516 -0.567786 3.56102 0
M  V30 1841 O 171.62 -1.66318 3.77375 0
M  V30 1842 H 170.961 -0.0272919 0.663439 0
M  V30 1843 H 173.491 0.543536 1.97248 0
M  V30 1844 H 173.501 -0.835003 3.99364 0
M  V30 1845 H 172.176 0.307013 4.14765 0
M  V30 1846 H 170.753 -1.39048 3.46006 0
M  V30 1847 N 172.938 -1.57226 0.108567 0
M  V30 1848 C 173.871 -2.10447 -0.882464 0
M  V30 1849 C 174.849 -1.01829 -1.26766 0
M  V30 1850 O 176.033 -1.29415 -1.37054 0
M  V30 1851 C 173.16 -2.59258 -2.17952 0
M  V30 1852 C 172.206 -3.79662 -1.94318 0
M  V30 1853 S 173.039 -5.22586 -1.16892 0
M  V30 1854 C 174.195 -5.74758 -2.47799 0
M  V30 1855 H 174.428 -2.94178 -0.429745 0
M  V30 1856 H 171.961 -1.54043 -0.105 0
M  V30 1857 H 173.919 -2.88036 -2.92482 0
M  V30 1858 H 172.58 -1.75728 -2.60343 0
M  V30 1859 H 171.773 -4.11928 -2.90399 0
M  V30 1860 H 171.375 -3.51446 -1.27913 0
M  V30 1861 H 173.667 -5.83846 -3.43701 0
M  V30 1862 H 174.61 -6.73027 -2.20093 0
M  V30 1863 H 175.018 -5.02763 -2.56689 0
M  V30 1864 N 174.416 0.165178 -1.56732 0
M  V30 1865 C 175.663 0.880807 -1.8234 0
M  V30 1866 C 175.991 1.81977 -0.686621 0
M  V30 1867 O 175.246 1.92971 0.325697 0
M  V30 1868 C 175.545 1.70405 -3.1416 0
M  V30 1869 C 175.211 0.913475 -4.4155 0
M  V30 1870 C 173.873 0.695303 -4.7615 0
M  V30 1871 C 176.225 0.359349 -5.1996 0
M  V30 1872 C 173.553 -0.0879947 -5.86634 0
M  V30 1873 C 175.905 -0.410893 -6.31264 0
M  V30 1874 C 174.569 -0.639808 -6.64427 0
M  V30 1875 H 173.839 0.32231 -0.667231 0
M  V30 1876 H 176.486 0.145402 -1.90947 0
M  V30 1877 H 174.791 2.50903 -3.00923 0
M  V30 1878 H 176.488 2.26091 -3.31186 0
M  V30 1879 H 173.078 1.09357 -4.14414 0
M  V30 1880 H 177.262 0.515228 -4.93618 0
M  V30 1881 H 172.518 -0.27503 -6.10781 0
M  V30 1882 H 176.692 -0.847494 -6.91224 0
M  V30 1883 H 174.319 -1.24864 -7.49875 0
M  V30 1884 N 175.894 1.51508 0.433938 0
M  V30 1885 C 176.857 1.72473 1.50949 0
M  V30 1886 C 177.857 0.594725 1.49398 0
M  V30 1887 O 179.047 0.862315 1.5136 0
M  V30 1888 C 176.179 1.78431 2.90474 0
M  V30 1889 H 177.372 2.68467 1.33662 0
M  V30 1890 H 174.925 1.41549 0.662836 0
M  V30 1891 H 175.66 0.842645 3.13161 0
M  V30 1892 H 175.445 2.60558 2.93005 0
M  V30 1893 H 176.935 1.96479 3.68491 0
M  V30 1894 N 177.372 -0.689602 1.41712 0
M  V30 1895 C 178.597 -1.48329 1.44959 0
M  V30 1896 C 179.022 -1.8801 0.0581283 0
M  V30 1897 O 178.38 -1.55026 -0.940035 0
M  V30 1898 C 178.428 -2.71835 2.36935 0
M  V30 1899 O 177.532 -3.69549 1.8305 0
M  V30 1900 H 176.873 -0.446199 0.491734 0
M  V30 1901 H 179.403 -0.847127 1.86239 0
M  V30 1902 H 179.413 -3.20076 2.53013 0
M  V30 1903 H 178.088 -2.42291 3.38035 0
M  V30 1904 H 176.665 -3.2851 1.76452 0
M  V30 1905 N 178.85 -1.27639 -0.924453 0
M  V30 1906 C 180.078 -1.16989 -1.70649 0
M  V30 1907 C 180.493 0.272869 -1.86818 0
M  V30 1908 O 179.85 1.18549 -1.38753 0
M  V30 1909 C 179.901 -1.85229 -3.10439 0
M  V30 1910 O 179.622 -3.23868 -2.95028 0
M  V30 1911 C 181.123 -1.80746 -4.04779 0
M  V30 1912 H 178.343 -0.406595 -0.53378 0
M  V30 1913 H 180.887 -1.68569 -1.15778 0
M  V30 1914 H 179.042 -1.37545 -3.6216 0
M  V30 1915 H 179.456 -3.57889 -3.83426 0
M  V30 1916 H 180.93 -2.33101 -5.00368 0
M  V30 1917 H 181.407 -0.777499 -4.32263 0
M  V30 1918 H 182.013 -2.28059 -3.58984 0
M  V30 1919 N 180.328 1.1314 -1.09713 0
M  V30 1920 C 181.558 1.88048 -0.855656 0
M  V30 1921 C 181.966 1.79537 0.596919 0
M  V30 1922 O 181.309 1.16196 1.42282 0
M  V30 1923 C 181.371 3.38314 -1.21589 0
M  V30 1924 C 181.035 3.70605 -2.67397 0
M  V30 1925 C 182.032 3.69596 -3.65643 0
M  V30 1926 C 179.717 4.0017 -3.03593 0
M  V30 1927 C 181.711 3.977 -4.9811 0
M  V30 1928 C 179.398 4.27935 -4.36251 0
M  V30 1929 C 180.396 4.26685 -5.33318 0
M  V30 1930 O 180.084 4.53767 -6.63589 0
M  V30 1931 H 179.816 0.60208 -0.307368 0
M  V30 1932 H 182.37 1.44128 -1.46343 0
M  V30 1933 H 180.6 3.82752 -0.551177 0
M  V30 1934 H 182.289 3.94552 -0.953083 0
M  V30 1935 H 183.055 3.46826 -3.39023 0
M  V30 1936 H 178.934 4.00289 -2.2867 0
M  V30 1937 H 182.478 3.9664 -5.73866 0
M  V30 1938 H 178.375 4.50178 -4.62613 0
M  V30 1939 H 179.143 4.71422 -6.69107 0
M  V30 1940 N 181.806 0.884767 1.30421 0
M  V30 1941 C 182.739 0.295999 2.26272 0
M  V30 1942 C 183.717 -0.58332 1.51777 0
M  V30 1943 O 184.901 -0.53346 1.80794 0
M  V30 1944 C 182.028 -0.57944 3.33707 0
M  V30 1945 C 181.074 0.230525 4.25877 0
M  V30 1946 S 181.907 1.61867 5.1045 0
M  V30 1947 C 183.063 0.749756 6.21393 0
M  V30 1948 H 183.296 1.10848 2.75862 0
M  V30 1949 H 180.829 0.684178 1.38414 0
M  V30 1950 H 182.787 -1.07879 3.96071 0
M  V30 1951 H 181.448 -1.36601 2.82841 0
M  V30 1952 H 180.641 -0.437542 5.02097 0
M  V30 1953 H 180.243 0.662493 3.68086 0
M  V30 1954 H 182.535 -0.0333547 6.77492 0
M  V30 1955 H 183.478 1.48356 6.92384 0
M  V30 1956 H 183.886 0.310751 5.63644 0
M  V30 1957 N 183.284 -1.43765 0.645699 0
M  V30 1958 C 184.214 -2.33471 -0.0370477 0
M  V30 1959 C 185.195 -1.49042 -0.819779 0
M  V30 1960 O 186.38 -1.77726 -0.782758 0
M  V30 1961 C 183.51 -3.32311 -1.0093 0
M  V30 1962 C 182.464 -4.2667 -0.337201 0
M  V30 1963 C 181.79 -5.1549 -1.42037 0
M  V30 1964 C 183.09 -5.16657 0.765706 0
M  V30 1965 H 184.784 -2.90809 0.712069 0
M  V30 1966 H 182.33 -1.39834 0.343876 0
M  V30 1967 H 184.283 -3.9396 -1.49578 0
M  V30 1968 H 183.007 -2.73213 -1.78948 0
M  V30 1969 H 181.666 -3.66374 0.128771 0
M  V30 1970 H 181.314 -4.52735 -2.1918 0
M  V30 1971 H 181.014 -5.79438 -0.975966 0
M  V30 1972 H 182.538 -5.80012 -1.90838 0
M  V30 1973 H 183.952 -5.72158 0.361702 0
M  V30 1974 H 182.349 -5.89286 1.13413 0
M  V30 1975 H 183.419 -4.56796 1.62683 0
M  V30 1976 N 184.763 -0.387143 -1.52771 0
M  V30 1977 C 185.693 0.440551 -2.29306 0
M  V30 1978 C 186.674 1.06535 -1.32606 0
M  V30 1979 O 187.859 1.07853 -1.61497 0
M  V30 1980 C 184.989 1.56919 -3.09829 0
M  V30 1981 C 183.943 1.07054 -4.14395 0
M  V30 1982 C 183.269 2.29109 -4.83129 0
M  V30 1983 C 184.569 0.140015 -5.22112 0
M  V30 1984 H 186.263 -0.198026 -2.98744 0
M  V30 1985 H 183.809 -0.09668 -1.43675 0
M  V30 1986 H 185.762 2.15503 -3.62128 0
M  V30 1987 H 184.486 2.23532 -2.3812 0
M  V30 1988 H 183.145 0.507247 -3.63074 0
M  V30 1989 H 182.793 2.94227 -4.0797 0
M  V30 1990 H 182.493 1.96406 -5.53804 0
M  V30 1991 H 184.017 2.88339 -5.38231 0
M  V30 1992 H 185.431 0.633978 -5.69784 0
M  V30 1993 H 183.828 -0.0971485 -6.00021 0
M  V30 1994 H 184.898 -0.811711 -4.78058 0
M  V30 1995 N 186.241 1.57166 -0.116904 0
M  V30 1996 C 187.204 2.14039 0.819742 0
M  V30 1997 C 188.204 1.07477 1.19605 0
M  V30 1998 O 189.394 1.33263 1.1219 0
M  V30 1999 C 186.526 2.67891 2.10826 0
M  V30 2000 H 187.719 2.98128 0.325511 0
M  V30 2001 H 185.272 1.55739 0.132312 0
M  V30 2002 H 186.007 1.87384 2.64685 0
M  V30 2003 H 185.792 3.45823 1.84793 0
M  V30 2004 H 187.282 3.11809 2.77785 0
M  V30 2005 N 187.719 -0.156864 1.56817 0
M  V30 2006 C 188.652 -1.22316 1.9265 0
M  V30 2007 C 189.63 -1.42059 0.791076 0
M  V30 2008 O 190.814 -1.56831 1.04576 0
M  V30 2009 C 187.941 -2.58375 2.18998 0
M  V30 2010 C 186.987 -2.55284 3.41661 0
M  V30 2011 S 187.82 -2.02946 4.95553 0
M  V30 2012 C 188.976 -3.40753 5.25013 0
M  V30 2013 H 189.209 -0.917403 2.82791 0
M  V30 2014 H 186.742 -0.362059 1.50095 0
M  V30 2015 H 188.7 -3.36677 2.34859 0
M  V30 2016 H 187.361 -2.86145 1.29538 0
M  V30 2017 H 186.554 -3.55418 3.57343 0
M  V30 2018 H 186.156 -1.85086 3.24991 0
M  V30 2019 H 188.448 -4.36819 5.17876 0
M  V30 2020 H 189.391 -3.29933 6.26538 0
M  V30 2021 H 189.799 -3.37433 4.52548 0
M  V30 2022 N 189.197 -1.51736 -0.425897 0
M  V30 2023 C 190.425 -1.68794 -1.1965 0
M  V30 2024 C 190.84 -0.390164 -1.84725 0
M  V30 2025 O 190.197 0.632376 -1.71194 0
M  V30 2026 C 190.248 -2.81174 -2.27208 0
M  V30 2027 O 189.969 -4.05925 -1.64793 0
M  V30 2028 C 191.47 -3.09599 -3.17275 0
M  V30 2029 H 188.69 -0.566128 -0.360194 0
M  V30 2030 H 191.234 -1.98211 -0.503249 0
M  V30 2031 H 189.389 -2.54324 -2.9223 0
M  V30 2032 H 189.803 -4.68423 -2.35967 0
M  V30 2033 H 191.277 -3.91786 -3.88854 0
M  V30 2034 H 191.754 -2.22468 -3.78688 0
M  V30 2035 H 192.36 -3.38151 -2.57941 0
M  V30 2036 N 190.675 0.682077 -1.42076 0
M  V30 2037 C 191.605 1.80796 -1.47767 0
M  V30 2038 C 192.586 1.6677 -0.334954 0
M  V30 2039 O 193.771 1.863 -0.548264 0
M  V30 2040 C 190.901 3.19038 -1.37229 0
M  V30 2041 C 189.855 3.47789 -2.49453 0
M  V30 2042 C 189.181 4.8553 -2.23975 0
M  V30 2043 C 190.481 3.45411 -3.91776 0
M  V30 2044 H 192.175 1.7629 -2.41997 0
M  V30 2045 H 189.721 0.846721 -1.16476 0
M  V30 2046 H 191.674 3.97528 -1.39821 0
M  V30 2047 H 190.398 3.24204 -0.394907 0
M  V30 2048 H 189.057 2.71657 -2.46166 0
M  V30 2049 H 188.705 4.87337 -1.24547 0
M  V30 2050 H 188.405 5.0573 -2.99184 0
M  V30 2051 H 189.929 5.66312 -2.28304 0
M  V30 2052 H 191.343 4.13882 -3.96705 0
M  V30 2053 H 189.74 3.77145 -4.66778 0
M  V30 2054 H 190.81 2.44122 -4.18966 0
M  V30 2055 N 192.153 1.28127 0.917671 0
M  V30 2056 C 193.43 1.05761 1.64542 0
M  V30 2057 C 193.81 -0.404344 2.07191 0
M  V30 2058 O 193.158 -1.38963 1.81388 0
M  V30 2059 C 193.368 2.02857 2.83989 0
M  V30 2060 C 194.716 2.32786 3.551 0
M  V30 2061 O 195.74 2.0091 2.94132 0
M  V30 2062 O 194.599 2.87169 4.64969 0
M  V30 2063 H 191.693 0.403916 0.721652 0
M  V30 2064 H 194.239 1.39431 0.967322 0
M  V30 2065 H 193.011 3.01407 2.49538 0
M  V30 2066 H 192.634 1.69809 3.59514 0
M  V30 2067 N 193.631 -1.12557 1.10312 0
M  V30 2068 C 195.047 -1.36036 0.834649 0
M  V30 2069 C 195.247 -1.93946 -0.546539 0
M  V30 2070 O 194.303 -2.16484 -1.29966 0
M  V30 2071 C 195.616 -2.30312 1.9333 0
M  V30 2072 C 197.164 -2.43906 1.9616 0
M  V30 2073 C 197.639 -3.41496 3.05195 0
M  V30 2074 N 199.13 -3.49053 3.04494 0
M  V30 2075 C 199.865 -4.24471 3.85502 0
M  V30 2076 N 199.361 -5.02966 4.76442 0
M  V30 2077 N 201.154 -4.19864 3.73725 0
M  V30 2078 H 193.305 -0.733246 1.99342 0
M  V30 2079 H 195.568 -0.385234 0.866198 0
M  V30 2080 H 195.274 -1.94933 2.92735 0
M  V30 2081 H 195.148 -3.30421 1.81939 0
M  V30 2082 H 197.535 -2.78567 0.973886 0
M  V30 2083 H 197.616 -1.4369 2.11629 0
M  V30 2084 H 197.26 -3.07565 4.04186 0
M  V30 2085 H 197.19 -4.41539 2.86968 0
M  V30 2086 H 199.681 -2.93053 2.38596 0
M  V30 2087 H 199.994 -5.57846 5.34815 0
M  V30 2088 H 198.339 -5.02167 4.80472 0
M  V30 2089 H 201.53 -3.57623 3.02032 0
M  V30 2090 H 201.703 -4.78386 4.37093 0
M  V30 2091 N 195.109 -0.891671 -1.2995 0
M  V30 2092 C 196.339 -0.527893 -1.99742 0
M  V30 2093 C 196.747 0.88979 -1.66971 0
M  V30 2094 O 196.09 1.59766 -0.906667 0
M  V30 2095 C 196.152 -0.630804 -3.53922 0
M  V30 2096 C 195.816 -2.01401 -4.10228 0
M  V30 2097 C 196.813 -2.98422 -4.25724 0
M  V30 2098 C 194.498 -2.32121 -4.45449 0
M  V30 2099 C 196.492 -4.24293 -4.75662 0
M  V30 2100 C 194.179 -3.58237 -4.95086 0
M  V30 2101 C 195.177 -4.54137 -5.10146 0
M  V30 2102 O 194.865 -5.78014 -5.58708 0
M  V30 2103 H 194.597 -0.201953 -0.645129 0
M  V30 2104 H 197.151 -1.20076 -1.66646 0
M  V30 2105 H 195.381 0.0990616 -3.86573 0
M  V30 2106 H 197.07 -0.277338 -4.04951 0
M  V30 2107 H 197.836 -2.76001 -3.98809 0
M  V30 2108 H 193.715 -1.5824 -4.32991 0
M  V30 2109 H 197.259 -4.99153 -4.87332 0
M  V30 2110 H 193.156 -3.80491 -5.21437 0
M  V30 2111 H 193.924 -5.8049 -5.77039 0
M  V30 2112 N 196.587 1.43421 -0.653314 0
M  V30 2113 C 197.517 2.33487 0.0246656 0
M  V30 2114 C 198.498 1.49475 0.811863 0
M  V30 2115 O 199.683 1.78139 0.773322 0
M  V30 2116 C 196.813 3.32841 0.99166 0
M  V30 2117 C 195.767 4.26842 0.314568 0
M  V30 2118 C 195.093 5.16236 1.39302 0
M  V30 2119 C 196.393 5.16243 -0.793095 0
M  V30 2120 H 198.087 2.90427 -0.727481 0
M  V30 2121 H 195.633 1.39649 -0.351287 0
M  V30 2122 H 197.586 3.94747 1.47487 0
M  V30 2123 H 196.31 2.74158 1.77497 0
M  V30 2124 H 194.969 3.663 -0.148199 0
M  V30 2125 H 194.617 4.53891 2.16776 0
M  V30 2126 H 194.317 5.79948 0.945223 0
M  V30 2127 H 195.841 5.81015 1.87759 0
M  V30 2128 H 197.255 5.71958 -0.392039 0
M  V30 2129 H 195.652 5.88676 -1.16536 0
M  V30 2130 H 196.722 4.55927 -1.65103 0
M  V30 2131 N 198.065 0.39524 1.52563 0
M  V30 2132 C 199.028 -0.425001 2.25225 0
M  V30 2133 C 200.028 -0.985266 1.27079 0
M  V30 2134 O 201.218 -0.866332 1.5113 0
M  V30 2135 C 198.35 -1.59686 3.01186 0
M  V30 2136 H 199.543 0.211233 2.99155 0
M  V30 2137 H 197.096 0.147472 1.55603 0
M  V30 2138 H 197.831 -2.27035 2.31572 0
M  V30 2139 H 197.616 -1.20176 3.73229 0
M  V30 2140 H 199.106 -2.17743 3.5634 0
M  V30 2141 N 199.544 -1.57102 0.125237 0
M  V30 2142 C 200.79 -1.95697 -0.532035 0
M  V30 2143 C 201.123 -1.009 -1.6593 0
M  V30 2144 O 200.398 -0.047347 -1.94442 0
M  V30 2145 C 200.681 -3.44181 -1.05884 0
M  V30 2146 C 200.534 -4.49752 0.0654392 0
M  V30 2147 C 201.853 -3.94655 -1.9477 0
M  V30 2148 H 198.972 -0.711571 -0.191925 0
M  V30 2149 H 201.614 -1.88923 0.20206 0
M  V30 2150 H 199.764 -3.50085 -1.68442 0
M  V30 2151 H 201.436 -4.55943 0.700982 0
M  V30 2152 H 199.679 -4.27653 0.727709 0
M  V30 2153 H 200.35 -5.50924 -0.344505 0
M  V30 2154 H 202.826 -3.91094 -1.42074 0
M  V30 2155 H 201.702 -4.99057 -2.28546 0
M  V30 2156 H 201.963 -3.35718 -2.87656 0
M  V30 2157 N 201.022 0.148545 -1.56898 0
M  V30 2158 C 202.262 0.86765 -1.85071 0
M  V30 2159 C 202.626 1.78417 -0.709317 0
M  V30 2160 O 203.827 2.54261 -0.872049 0
M  V30 2161 C 202.098 1.62306 -3.1842 0
M  V30 2162 S 203.657 2.3878 -3.68143 0
M  V30 2163 H 200.475 0.290174 -0.649092 0
M  V30 2164 H 203.077 0.127755 -1.95082 0
M  V30 2165 H 201.781 0.941192 -3.99462 0
M  V30 2166 H 201.312 2.4039 -3.1141 0
M  V30 2167 H 203.327 3.63942 -3.37285 0
M  V30 2168 N 202.5 1.5196 0.417844 0
M  V30 2169 C 203.45 1.7106 1.5074 0
M  V30 2170 C 204.434 0.564487 1.50673 0
M  V30 2171 O 205.626 0.821206 1.56797 0
M  V30 2172 C 202.755 1.85677 2.88754 0
M  V30 2173 C 201.841 3.06133 2.93502 0
M  V30 2174 N 202.232 4.28987 2.67962 0
M  V30 2175 C 200.53 3.05787 3.24669 0
M  V30 2176 C 201.231 5.10395 2.79055 0
M  V30 2177 N 200.207 4.45455 3.11561 0
M  V30 2178 H 204.009 2.63696 1.29775 0
M  V30 2179 H 201.523 1.49873 0.625436 0
M  V30 2180 H 203.52 1.97475 3.67164 0
M  V30 2181 H 202.18 0.942348 3.10725 0
M  V30 2182 H 203.191 4.57607 2.4252 0
M  V30 2183 H 199.868 2.2405 3.52289 0
M  V30 2184 H 201.258 6.18247 2.63097 0
M  V30 2185 N 203.978 -0.674533 1.42435 0
M  V30 2186 C 205.389 -1.25514 1.38214 0
M  V30 2187 C 205.74 -1.96055 0.0755464 0
M  V30 2188 O 204.865 -2.00028 -0.8257 0
M  V30 2189 C 205.46 -2.28269 2.50357 0
M  V30 2190 C 204.019 -2.81856 2.49467 0
M  V30 2191 C 203.166 -1.56182 2.29134 0
M  V30 2192 H 206.117 -0.467902 1.51646 0
M  V30 2193 H 206.138 -3.10009 2.20624 0
M  V30 2194 H 205.65 -1.769 3.45439 0
M  V30 2195 H 203.751 -3.37346 1.58204 0
M  V30 2196 H 203.864 -3.30854 3.46515 0
M  V30 2197 H 202.228 -1.82761 1.774 0
M  V30 2198 H 203.011 -1.06778 3.26272 0
M  V30 2199 N 205.456 -1.28612 -0.910864 0
M  V30 2200 C 206.386 -1.15326 -2.03032 0
M  V30 2201 C 207.367 -0.0502924 -1.70026 0
M  V30 2202 O 208.552 -0.227797 -1.92859 0
M  V30 2203 C 205.682 -0.817343 -3.37545 0
M  V30 2204 C 204.636 -1.8754 -3.84724 0
M  V30 2205 C 203.962 -1.39305 -5.16235 0
M  V30 2206 C 205.262 -3.28244 -4.06267 0
M  V30 2207 H 206.956 -2.08975 -2.14406 0
M  V30 2208 H 204.502 -1.00612 -1.03021 0
M  V30 2209 H 206.455 -0.711151 -4.15356 0
M  V30 2210 H 205.179 0.154846 -3.26233 0
M  V30 2211 H 203.838 -1.97079 -3.09121 0
M  V30 2212 H 203.486 -0.409846 -5.01328 0
M  V30 2213 H 203.186 -2.10057 -5.48771 0
M  V30 2214 H 204.71 -1.30014 -5.96598 0
M  V30 2215 H 206.124 -3.21611 -4.74594 0
M  V30 2216 H 204.521 -3.96855 -4.5014 0
M  V30 2217 H 205.591 -3.72048 -3.10979 0
M  V30 2218 N 206.934 1.1197 -1.10907 0
M  V30 2219 C 208.35 1.35591 -0.841852 0
M  V30 2220 C 208.55 1.94233 0.536246 0
M  V30 2221 O 207.606 2.1717 1.28816 0
M  V30 2222 C 208.919 2.29284 -1.94549 0
M  V30 2223 C 210.467 2.42862 -1.97451 0
M  V30 2224 C 210.942 3.39873 -3.07002 0
M  V30 2225 N 212.433 3.47433 -3.06341 0
M  V30 2226 C 213.168 4.22421 -3.87748 0
M  V30 2227 N 212.664 5.00432 -4.79103 0
M  V30 2228 N 214.457 4.17876 -3.75946 0
M  V30 2229 H 206.608 0.722664 -1.99728 0
M  V30 2230 H 208.871 0.380635 -0.868229 0
M  V30 2231 H 208.577 1.93378 -2.93765 0
M  V30 2232 H 208.451 3.29452 -1.83688 0
M  V30 2233 H 210.838 2.78046 -0.988645 0
M  V30 2234 H 210.919 1.42566 -2.12388 0
M  V30 2235 H 210.563 3.05417 -4.05811 0
M  V30 2236 H 210.493 4.40011 -2.89306 0
M  V30 2237 H 212.984 2.91784 -2.40147 0
M  V30 2238 H 213.297 5.55002 -5.37766 0
M  V30 2239 H 211.642 4.99612 -4.83128 0
M  V30 2240 H 214.833 3.56016 -3.03924 0
M  V30 2241 H 215.006 4.76061 -4.39624 0
M  V30 2242 N 208.412 0.89855 1.29475 0
M  V30 2243 C 209.637 0.538561 2.00285 0
M  V30 2244 C 210.062 -0.869135 1.66816 0
M  V30 2245 O 209.42 -1.57831 0.892145 0
M  V30 2246 C 209.468 0.736475 3.52999 0
M  V30 2247 O 208.572 -0.211537 4.11857 0
M  V30 2248 H 207.913 0.210563 0.62973 0
M  V30 2249 H 210.443 1.20982 1.64998 0
M  V30 2250 H 210.453 0.640685 4.02938 0
M  V30 2251 H 209.128 1.76276 3.76696 0
M  V30 2252 H 207.705 -0.0682991 3.72837 0
M  V30 2253 N 209.89 -1.43072 0.660911 0
M  V30 2254 C 210.82 -2.33497 -0.0122829 0
M  V30 2255 C 211.801 -1.49903 -0.803925 0
M  V30 2256 O 212.986 -1.78546 -0.763864 0
M  V30 2257 C 210.116 -3.33363 -0.973994 0
M  V30 2258 C 209.07 -4.27003 -0.291928 0
M  V30 2259 C 208.396 -5.16967 -1.36562 0
M  V30 2260 C 209.696 -5.15816 0.820462 0
M  V30 2261 H 211.39 -2.90038 0.742873 0
M  V30 2262 H 208.936 -1.39461 0.358688 0
M  V30 2263 H 210.889 -3.95524 -1.45392 0
M  V30 2264 H 209.613 -2.75095 -1.7604 0
M  V30 2265 H 208.272 -3.66217 0.167623 0
M  V30 2266 H 207.92 -4.55034 -2.14366 0
M  V30 2267 H 207.62 -5.80441 -0.914454 0
M  V30 2268 H 209.144 -5.82003 -1.84675 0
M  V30 2269 H 210.558 -5.71742 0.422366 0
M  V30 2270 H 208.955 -5.8805 1.19656 0
M  V30 2271 H 210.025 -4.55045 1.67518 0
M  V30 2272 N 211.368 -0.403325 -1.52352 0
M  V30 2273 C 212.3 0.4603 -2.2453 0
M  V30 2274 C 213.313 1.01505 -1.27282 0
M  V30 2275 O 214.502 0.914982 -1.53266 0
M  V30 2276 C 211.602 1.65208 -2.95905 0
M  V30 2277 C 210.775 1.22224 -4.19976 0
M  V30 2278 C 209.834 2.28028 -4.74226 0
M  V30 2279 O 208.86 1.88857 -5.36956 0
M  V30 2280 N 210.062 3.6012 -4.55295 0
M  V30 2281 H 212.827 -0.158156 -2.99282 0
M  V30 2282 H 210.388 -0.230402 -1.60252 0
M  V30 2283 H 212.38 2.35541 -3.29093 0
M  V30 2284 H 210.95 2.17658 -2.24374 0
M  V30 2285 H 210.17 0.34725 -3.92668 0
M  V30 2286 H 211.458 0.911924 -5.00561 0
M  V30 2287 H 210.856 3.94698 -4.05253 0
M  V30 2288 H 209.413 4.26447 -4.92936 0
M  V30 2289 N 212.846 1.57033 -0.133567 0
M  V30 2290 C 213.778 2.13176 0.841944 0
M  V30 2291 C 214.791 1.07794 1.22001 0
M  V30 2292 O 215.98 1.35117 1.16643 0
M  V30 2293 C 213.08 2.62847 2.13926 0
M  V30 2294 C 212.253 3.92486 1.93064 0
M  V30 2295 C 211.312 4.27605 3.0666 0
M  V30 2296 O 210.338 4.96168 2.78937 0
M  V30 2297 N 211.54 3.861 4.33483 0
M  V30 2298 H 214.305 2.97503 0.362192 0
M  V30 2299 H 211.866 1.61821 0.05042 0
M  V30 2300 H 213.858 2.83363 2.88942 0
M  V30 2301 H 212.428 1.83319 2.53205 0
M  V30 2302 H 211.648 3.80732 1.02159 0
M  V30 2303 H 212.936 4.77225 1.76447 0
M  V30 2304 H 212.334 3.30828 4.58878 0
M  V30 2305 H 210.891 4.11694 5.05323 0
M  V30 2306 N 214.325 -0.140222 1.56975 0
M  V30 2307 C 215.736 -0.699596 1.73097 0
M  V30 2308 C 216.087 -1.8134 0.749022 0
M  V30 2309 O 215.212 -2.16241 -0.0828503 0
M  V30 2310 C 215.807 -1.27582 3.1386 0
M  V30 2311 C 214.366 -1.78169 3.31561 0
M  V30 2312 C 213.513 -0.672855 2.69013 0
M  V30 2313 H 216.464 0.0855115 1.58469 0
M  V30 2314 H 216.485 -2.14561 3.14235 0
M  V30 2315 H 215.997 -0.464955 3.85305 0
M  V30 2316 H 214.098 -2.61801 2.65124 0
M  V30 2317 H 214.211 -1.90574 4.39566 0
M  V30 2318 H 212.575 -1.10118 2.29665 0
M  V30 2319 H 213.358 0.126679 3.43066 0
M  V30 2320 N 215.803 -1.52179 -0.40978 0
M  V30 2321 C 217.051 -1.65878 -1.15451 0
M  V30 2322 C 217.372 -0.390771 -1.91044 0
M  V30 2323 O 216.642 0.594323 -1.86667 0
M  V30 2324 H 215.222 -0.611405 -0.429177 0
M  V30 2325 H 217.884 -1.89219 -0.467134 0
M  V30 2326 H 216.98 -2.49954 -1.86894 0
M  V30 2327 N 217.281 0.66697 -1.42791 0
M  V30 2328 C 218.213 1.7925 -1.42836 0
M  V30 2329 C 219.226 1.59496 -0.326333 0
M  V30 2330 O 220.415 1.6847 -0.589916 0
M  V30 2331 C 217.515 3.16476 -1.21229 0
M  V30 2332 C 216.688 3.63011 -2.44013 0
M  V30 2333 C 215.747 4.78993 -2.17834 0
M  V30 2334 O 214.773 4.89137 -2.91091 0
M  V30 2335 N 215.975 5.68248 -1.18635 0
M  V30 2336 H 218.74 1.79695 -2.39854 0
M  V30 2337 H 216.301 0.850338 -1.37771 0
M  V30 2338 H 218.293 3.91734 -1.01621 0
M  V30 2339 H 216.863 3.10884 -0.32706 0
M  V30 2340 H 216.083 2.78346 -2.79137 0
M  V30 2341 H 217.371 3.90845 -3.25757 0
M  V30 2342 H 216.769 5.62712 -0.580615 0
M  V30 2343 H 215.326 6.43285 -1.05013 0
M  V30 2344 N 218.759 1.29093 0.90403 0
M  V30 2345 C 219.984 1.19809 1.69294 0
M  V30 2346 C 220.409 -0.238481 1.86582 0
M  V30 2347 O 219.767 -1.1723 1.383 0
M  V30 2348 C 219.815 1.91202 3.05736 0
M  V30 2349 O 218.919 1.22611 3.93752 0
M  V30 2350 H 218.26 0.415385 0.518027 0
M  V30 2351 H 220.79 1.70586 1.12967 0
M  V30 2352 H 220.8 1.99487 3.55906 0
M  V30 2353 H 219.475 2.95692 2.92471 0
M  V30 2354 H 218.052 1.22554 3.52186 0
M  V30 2355 N 220.237 -1.11381 1.11499 0
M  V30 2356 C 221.465 -1.86934 0.88675 0
M  V30 2357 C 221.88 -1.80195 -0.563476 0
M  V30 2358 O 221.237 -1.18367 -1.38908 0
M  V30 2359 C 221.288 -3.35722 1.34064 0
M  V30 2360 O 221.009 -3.4232 2.73401 0
M  V30 2361 C 222.51 -4.2818 1.14791 0
M  V30 2362 H 219.73 -0.591117 0.317523 0
M  V30 2363 H 222.274 -1.40865 1.48248 0
M  V30 2364 H 220.429 -3.79294 0.788355 0
M  V30 2365 H 220.843 -4.34971 2.93087 0
M  V30 2366 H 222.317 -5.30817 1.5145 0
M  V30 2367 H 222.794 -4.39113 0.0875279 0
M  V30 2368 H 223.4 -3.90402 1.68721 0
M  V30 2369 N 221.715 -0.905404 -1.28997 0
M  V30 2370 C 222.945 -0.549049 -1.99171 0
M  V30 2371 C 223.353 0.87203 -1.67906 0
M  V30 2372 O 222.696 1.58796 -0.923561 0
M  V30 2373 C 222.758 -0.668306 -3.53234 0
M  V30 2374 C 222.422 -2.0574 -4.08069 0
M  V30 2375 C 223.419 -3.0292 -4.22534 0
M  V30 2376 C 221.104 -2.36833 -4.42962 0
M  V30 2377 C 223.098 -4.29314 -4.71135 0
M  V30 2378 C 220.785 -3.63467 -4.91258 0
M  V30 2379 C 221.783 -4.59522 -5.053 0
M  V30 2380 O 221.471 -5.83907 -5.52546 0
M  V30 2381 H 221.203 -0.208784 -0.64295 0
M  V30 2382 H 223.757 -1.21836 -1.65363 0
M  V30 2383 H 221.987 0.0580547 -3.86656 0
M  V30 2384 H 223.676 -0.320273 -4.04634 0
M  V30 2385 H 224.442 -2.80216 -3.95859 0
M  V30 2386 H 220.321 -1.62824 -4.31288 0
M  V30 2387 H 223.865 -5.04293 -4.8201 0
M  V30 2388 H 219.762 -3.86 -5.17372 0
M  V30 2389 H 220.53 -5.86578 -5.70849 0
M  V30 2390 N 223.193 1.4272 -0.668489 0
M  V30 2391 C 224.123 2.335 -0.000100175 0
M  V30 2392 C 225.104 1.50328 0.795964 0
M  V30 2393 O 226.289 1.78949 0.754385 0
M  V30 2394 C 223.419 3.33874 0.956302 0
M  V30 2395 C 222.373 4.27152 0.269278 0
M  V30 2396 C 221.699 5.17684 1.33818 0
M  V30 2397 C 222.999 5.15373 -0.847805 0
M  V30 2398 H 224.693 2.89639 -0.758244 0
M  V30 2399 H 222.239 1.39269 -0.366079 0
M  V30 2400 H 224.192 3.9629 1.43292 0
M  V30 2401 H 222.916 2.76025 1.74579 0
M  V30 2402 H 221.575 3.66123 -0.187042 0
M  V30 2403 H 221.223 4.56165 2.1195 0
M  V30 2404 H 220.923 5.80918 0.883659 0
M  V30 2405 H 222.447 5.82974 1.81586 0
M  V30 2406 H 223.861 5.7151 -0.452681 0
M  V30 2407 H 222.258 5.87407 -1.22773 0
M  V30 2408 H 223.328 4.5415 -1.69929 0
M  V30 2409 N 224.671 0.411399 1.52136 0
M  V30 2410 C 225.601 -0.404015 2.29978 0
M  V30 2411 C 226.582 -1.04412 1.34284 0
M  V30 2412 O 227.767 -1.0527 1.63192 0
M  V30 2413 C 224.897 -1.5197 3.12286 0
M  V30 2414 C 223.851 -1.00448 4.16046 0
M  V30 2415 C 223.177 -2.21393 4.86712 0
M  V30 2416 C 224.477 -0.0569336 5.22269 0
M  V30 2417 H 226.171 0.245529 2.98392 0
M  V30 2418 H 223.717 0.119525 1.43503 0
M  V30 2419 H 225.67 -2.09715 3.6551 0
M  V30 2420 H 224.394 -2.19716 2.41646 0
M  V30 2421 H 223.053 -0.449421 3.63835 0
M  V30 2422 H 222.701 -2.87699 4.12599 0
M  V30 2423 H 222.401 -1.87571 5.56858 0
M  V30 2424 H 223.925 -2.7974 5.4275 0
M  V30 2425 H 225.339 -0.54325 5.7072 0
M  V30 2426 H 223.736 0.192594 5.99791 0
M  V30 2427 H 224.806 0.887663 4.76706 0
M  V30 2428 N 226.149 -1.5696 0.141893 0
M  V30 2429 C 227.398 -1.95135 -0.510427 0
M  V30 2430 C 227.711 -1.02896 -1.66348 0
M  V30 2431 O 228.917 -1.30629 -2.38009 0
M  V30 2432 C 227.373 -3.46876 -0.959427 0
M  V30 2433 C 226.981 -4.47691 0.166419 0
M  V30 2434 C 228.725 -3.93927 -1.58183 0
M  V30 2435 C 226.632 -5.90636 -0.300565 0
M  V30 2436 H 225.562 -0.728494 -0.194454 0
M  V30 2437 H 228.213 -1.8211 0.22542 0
M  V30 2438 H 226.595 -3.55215 -1.75038 0
M  V30 2439 H 227.769 -4.51043 0.94325 0
M  V30 2440 H 226.084 -4.10527 0.696905 0
M  V30 2441 H 228.681 -4.98158 -1.94275 0
M  V30 2442 H 229.024 -3.3519 -2.46888 0
M  V30 2443 H 229.557 -3.88484 -0.855863 0
M  V30 2444 H 226.296 -6.5318 0.550989 0
M  V30 2445 H 225.816 -5.90655 -1.04338 0
M  V30 2446 H 227.495 -6.42588 -0.754265 0
M  V30 2447 N 227.627 0.131896 -1.57047 0
M  V30 2448 C 228.59 1.14638 -1.98471 0
M  V30 2449 C 229.59 1.35029 -0.873148 0
M  V30 2450 O 230.78 1.31764 -1.13946 0
M  V30 2451 C 227.912 2.50358 -2.31373 0
M  V30 2452 H 229.105 0.79064 -2.8929 0
M  V30 2453 H 226.658 0.375761 -1.51716 0
M  V30 2454 H 227.393 2.90876 -1.43393 0
M  V30 2455 H 227.178 2.36915 -3.12432 0
M  V30 2456 H 228.668 3.23395 -2.64207 0
M  V30 2457 N 229.106 1.52395 0.401703 0
M  V30 2458 C 230.069 1.75636 1.47257 0
M  V30 2459 C 231.069 0.62628 1.48103 0
M  V30 2460 O 232.259 0.894227 1.49497 0
M  V30 2461 C 229.391 1.84553 2.86624 0
M  V30 2462 H 230.584 2.71241 1.27938 0
M  V30 2463 H 228.137 1.42923 0.632662 0
M  V30 2464 H 228.872 0.908882 3.11303 0
M  V30 2465 H 228.657 2.66715 2.87412 0
M  V30 2466 H 230.147 2.04251 3.64241 0
M  V30 2467 N 230.584 -0.659388 1.43143 0
M  V30 2468 C 231.995 -1.24041 1.39537 0
M  V30 2469 C 232.346 -1.95963 0.0963364 0
M  V30 2470 O 231.471 -2.00892 -0.804438 0
M  V30 2471 C 232.066 -2.25601 2.52764 0
M  V30 2472 C 230.625 -2.79195 2.52443 0
M  V30 2473 C 229.772 -1.53743 2.30778 0
M  V30 2474 H 232.723 -0.451792 1.52133 0
M  V30 2475 H 232.744 -3.07651 2.23899 0
M  V30 2476 H 232.256 -1.73226 3.47296 0
M  V30 2477 H 230.357 -3.35649 1.61773 0
M  V30 2478 H 230.47 -3.2716 3.50004 0
M  V30 2479 H 228.834 -1.80869 1.79328 0
M  V30 2480 H 229.617 -1.03312 3.27386 0
M  V30 2481 N 232.062 -1.29571 -0.897171 0
M  V30 2482 C 233.308 -1.18873 -1.65048 0
M  V30 2483 C 233.663 0.256707 -1.9068 0
M  V30 2484 O 232.956 1.18202 -1.50794 0
M  V30 2485 C 233.15 -1.9382 -3.00281 0
M  V30 2486 C 232.979 -3.45503 -2.8785 0
M  V30 2487 C 231.749 -4.14856 -2.88483 0
M  V30 2488 C 233.947 -4.40956 -2.64693 0
M  V30 2489 N 231.929 -5.52886 -2.66815 0
M  V30 2490 C 233.3 -5.66464 -2.5203 0
M  V30 2491 C 235.355 -4.3069 -2.49821 0
M  V30 2492 C 234.058 -6.82871 -2.26008 0
M  V30 2493 C 236.084 -5.46852 -2.25182 0
M  V30 2494 C 235.446 -6.71333 -2.13286 0
M  V30 2495 H 231.545 -0.489998 -0.609447 0
M  V30 2496 H 234.129 -1.63431 -1.05822 0
M  V30 2497 H 232.3 -1.51671 -3.57562 0
M  V30 2498 H 234.032 -1.75366 -3.64731 0
M  V30 2499 H 230.787 -3.66579 -2.99861 0
M  V30 2500 H 231.211 -6.25487 -2.59027 0
M  V30 2501 H 235.853 -3.35141 -2.5776 0
M  V30 2502 H 233.571 -7.78473 -2.16806 0
M  V30 2503 H 237.157 -5.40809 -2.14515 0
M  V30 2504 H 236.037 -7.59701 -1.94485 0
M  V30 2505 N 233.54 1.10788 -1.12088 0
M  V30 2506 C 234.47 2.19083 -0.807755 0
M  V30 2507 C 235.451 1.6858 0.226859 0
M  V30 2508 O 236.636 1.93997 0.0888475 0
M  V30 2509 C 233.766 3.46344 -0.257576 0
M  V30 2510 C 232.72 4.101 -1.22483 0
M  V30 2511 C 232.046 5.32016 -0.535052 0
M  V30 2512 C 233.346 4.54236 -2.57811 0
M  V30 2513 H 235.04 2.45534 -1.71328 0
M  V30 2514 H 232.586 1.1801 -0.825205 0
M  V30 2515 H 234.539 4.21392 -0.0262679 0
M  V30 2516 H 233.263 3.19373 0.683278 0
M  V30 2517 H 231.922 3.37054 -1.44189 0
M  V30 2518 H 231.57 5.01319 0.410827 0
M  V30 2519 H 231.27 5.75625 -1.18024 0
M  V30 2520 H 232.794 6.09799 -0.312695 0
M  V30 2521 H 234.208 5.20575 -2.40155 0
M  V30 2522 H 232.605 5.08682 -3.18375 0
M  V30 2523 H 233.675 3.6734 -3.16528 0
M  V30 2524 N 235.018 0.912232 1.28515 0
M  V30 2525 C 235.948 0.416403 2.29757 0
M  V30 2526 C 236.929 -0.515194 1.6211 0
M  V30 2527 O 238.114 -0.423253 1.89532 0
M  V30 2528 C 235.244 -0.34572 3.45575 0
M  V30 2529 C 234.198 0.496599 4.25109 0
M  V30 2530 C 233.524 -0.393771 5.33248 0
M  V30 2531 C 234.824 1.75307 4.92001 0
M  V30 2532 H 236.518 1.26249 2.7148 0
M  V30 2533 H 234.064 0.608515 1.30511 0
M  V30 2534 H 236.017 -0.703422 4.15488 0
M  V30 2535 H 234.741 -1.2257 3.02728 0
M  V30 2536 H 233.4 0.8368 3.56922 0
M  V30 2537 H 233.048 -1.27225 4.86644 0
M  V30 2538 H 232.748 0.166209 5.87365 0
M  V30 2539 H 234.272 -0.747389 6.06009 0
M  V30 2540 H 235.686 1.46437 5.54283 0
M  V30 2541 H 234.083 2.25534 5.56106 0
M  V30 2542 H 235.153 2.48176 4.16577 0
M  V30 2543 N 236.496 -1.42363 0.676048 0
M  V30 2544 C 237.459 -2.29199 0.00766941 0
M  V30 2545 C 238.459 -1.43389 -0.727745 0
M  V30 2546 O 239.649 -1.64764 -0.56556 0
M  V30 2547 C 236.781 -3.2591 -0.999785 0
M  V30 2548 H 237.974 -2.89794 0.771988 0
M  V30 2549 H 235.527 -1.50024 0.438468 0
M  V30 2550 H 236.262 -2.70256 -1.79255 0
M  V30 2551 H 236.047 -3.89202 -0.475829 0
M  V30 2552 H 237.537 -3.91028 -1.46583 0
M  V30 2553 N 237.974 -0.419461 -1.51915 0
M  V30 2554 C 238.937 0.389116 -2.25873 0
M  V30 2555 C 239.937 0.964924 -1.28631 0
M  V30 2556 O 241.127 0.842179 -1.52489 0
M  V30 2557 C 238.259 1.54874 -3.03689 0
M  V30 2558 H 239.452 -0.258799 -2.98781 0
M  V30 2559 H 237.005 -0.172209 -1.55348 0
M  V30 2560 H 237.74 2.23323 -2.35154 0
M  V30 2561 H 237.525 1.14223 -3.75094 0
M  V30 2562 H 239.015 2.12046 -3.59759 0
M  V30 2563 N 239.452 1.56882 -0.150215 0
M  V30 2564 C 240.701 1.95403 0.500071 0
M  V30 2565 C 241.014 1.03777 1.658 0
M  V30 2566 O 242.22 1.31889 2.37313 0
M  V30 2567 C 240.676 3.4738 0.941018 0
M  V30 2568 C 240.284 4.47596 -0.190158 0
M  V30 2569 C 242.028 3.9476 1.56091 0
M  V30 2570 C 239.935 5.90787 0.269237 0
M  V30 2571 H 238.865 0.729515 0.190588 0
M  V30 2572 H 241.516 1.81988 -0.235074 0
M  V30 2573 H 239.898 3.56138 1.73152 0
M  V30 2574 H 241.072 4.50536 -0.967157 0
M  V30 2575 H 239.387 4.10151 -0.718666 0
M  V30 2576 H 241.984 4.99181 1.9163 0
M  V30 2577 H 242.327 3.36494 2.45107 0
M  V30 2578 H 242.86 3.88932 0.835249 0
M  V30 2579 H 239.599 6.52879 -0.585621 0
M  V30 2580 H 239.119 5.912 1.01204 0
M  V30 2581 H 240.798 6.42979 0.720176 0
M  V30 2582 N 240.93 -0.123565 1.57115 0
M  V30 2583 C 242.177 -0.832153 1.84612 0
M  V30 2584 C 242.505 -1.80093 0.734627 0
M  V30 2585 O 241.76 -1.93766 -0.27442 0
M  V30 2586 C 242.059 -1.62016 3.18568 0
M  V30 2587 C 241.725 -0.796084 4.43817 0
M  V30 2588 C 240.387 -0.568816 4.77826 0
M  V30 2589 C 242.739 -0.221364 5.2073 0
M  V30 2590 C 240.067 0.243499 5.86194 0
M  V30 2591 C 242.419 0.578117 6.29953 0
M  V30 2592 C 241.083 0.815744 6.62497 0
M  V30 2593 H 240.353 -0.304507 0.675542 0
M  V30 2594 H 243 -0.0947248 1.91266 0
M  V30 2595 H 241.305 -2.42837 3.0747 0
M  V30 2596 H 243.002 -2.17231 3.37064 0
M  V30 2597 H 239.592 -0.983307 4.17168 0
M  V30 2598 H 243.776 -0.384173 4.94811 0
M  V30 2599 H 239.032 0.436871 6.09837 0
M  V30 2600 H 243.206 1.03046 6.88734 0
M  V30 2601 H 240.833 1.44701 7.46301 0
M  V30 2602 N 242.408 -1.52605 -0.393616 0
M  V30 2603 C 243.633 -1.71592 -1.16495 0
M  V30 2604 C 244.058 -0.43133 -1.83088 0
M  V30 2605 O 243.416 0.612523 -1.7064 0
M  V30 2606 C 243.464 -2.86318 -2.19213 0
M  V30 2607 O 242.568 -2.52969 -3.257 0
M  V30 2608 H 241.909 -0.570734 -0.33935 0
M  V30 2609 H 244.439 -1.99377 -0.459324 0
M  V30 2610 H 244.449 -3.1168 -2.63286 0
M  V30 2611 H 243.124 -3.79511 -1.7013 0
M  V30 2612 H 241.701 -2.38332 -2.86797 0
M  V30 2613 N 243.887 0.651787 -1.4349 0
M  V30 2614 C 244.817 1.77621 -1.51569 0
M  V30 2615 C 245.798 1.66022 -0.370253 0
M  V30 2616 O 246.983 1.85095 -0.587658 0
M  V30 2617 C 244.113 3.16056 -1.43966 0
M  V30 2618 C 243.067 3.4242 -2.56774 0
M  V30 2619 C 242.393 4.8067 -2.34223 0
M  V30 2620 C 243.693 3.37023 -3.99015 0
M  V30 2621 H 245.387 1.71117 -2.45681 0
M  V30 2622 H 242.933 0.821825 -1.18246 0
M  V30 2623 H 244.886 3.94472 -1.48221 0
M  V30 2624 H 243.61 3.23293 -0.463586 0
M  V30 2625 H 242.269 2.66375 -2.51873 0
M  V30 2626 H 241.917 4.84585 -1.34856 0
M  V30 2627 H 241.617 4.9927 -3.09844 0
M  V30 2628 H 243.141 5.61342 -2.40265 0
M  V30 2629 H 244.555 4.05374 -4.05395 0
M  V30 2630 H 242.952 3.67159 -4.74673 0
M  V30 2631 H 244.022 2.3518 -4.2405 0
M  V30 2632 N 245.365 1.30045 0.890287 0
M  V30 2633 C 246.776 1.16738 1.45702 0
M  V30 2634 C 247.127 -0.233939 1.948 0
M  V30 2635 O 246.252 -1.13021 1.84541 0
M  V30 2636 C 246.847 2.11313 2.64825 0
M  V30 2637 C 245.406 2.02001 3.17604 0
M  V30 2638 C 244.553 2.01699 1.90296 0
M  V30 2639 H 247.504 1.42392 0.700726 0
M  V30 2640 H 247.525 1.69086 3.40867 0
M  V30 2641 H 247.037 3.13294 2.2906 0
M  V30 2642 H 245.138 1.03142 3.5804 0
M  V30 2643 H 245.251 2.90128 3.81264 0
M  V30 2644 H 243.615 1.46427 2.08402 0
M  V30 2645 H 244.398 3.05402 1.56795 0
M  V30 2646 N 246.843 -1.10192 1.12674 0
M  V30 2647 C 247.775 -2.16418 0.754701 0
M  V30 2648 C 248.788 -1.61309 -0.21986 0
M  V30 2649 O 249.977 -1.785 -0.000826841 0
M  V30 2650 C 247.077 -3.38762 0.096698 0
M  V30 2651 C 246.25 -4.23307 1.10136 0
M  V30 2652 C 245.309 -5.24092 0.470513 0
M  V30 2653 O 244.335 -5.57906 1.12824 0
M  V30 2654 N 245.537 -5.75491 -0.760948 0
M  V30 2655 H 248.302 -2.48943 1.66875 0
M  V30 2656 H 245.863 -1.25834 1.01869 0
M  V30 2657 H 247.855 -4.03291 -0.337384 0
M  V30 2658 H 246.425 -3.04192 -0.720153 0
M  V30 2659 H 245.645 -3.55036 1.71299 0
M  V30 2660 H 246.933 -4.76624 1.78064 0
M  V30 2661 H 246.331 -5.50222 -1.31424 0
M  V30 2662 H 244.888 -6.41792 -1.13781 0
M  V30 2663 N 248.321 -0.919034 -1.28029 0
M  V30 2664 C 249.567 -0.555757 -1.95036 0
M  V30 2665 C 249.9 0.899198 -1.72128 0
M  V30 2666 O 249.175 1.64023 -1.04531 0
M  V30 2667 C 249.458 -0.872024 -3.49382 0
M  V30 2668 C 249.311 -2.3801 -3.81669 0
M  V30 2669 C 250.63 -0.37185 -4.38526 0
M  V30 2670 H 247.749 -0.203386 -0.708381 0
M  V30 2671 H 250.391 -1.14924 -1.51303 0
M  V30 2672 H 248.541 -0.366946 -3.86763 0
M  V30 2673 H 250.213 -2.9562 -3.54128 0
M  V30 2674 H 248.456 -2.83289 -3.28526 0
M  V30 2675 H 249.127 -2.55192 -4.8947 0
M  V30 2676 H 251.603 -0.804602 -4.08247 0
M  V30 2677 H 250.479 -0.622173 -5.45362 0
M  V30 2678 H 250.74 0.727934 -4.36066 0
M  V30 2679 N 249.799 1.42003 -0.683588 0
M  V30 2680 C 251.046 2.01413 -0.209514 0
M  V30 2681 C 251.374 1.54088 1.1869 0
M  V30 2682 O 250.629 0.737591 1.81268 0
M  V30 2683 C 250.928 3.56827 -0.202357 0
M  V30 2684 C 250.594 4.23617 -1.54464 0
M  V30 2685 C 249.256 4.41577 -1.91215 0
M  V30 2686 C 251.608 4.61178 -2.42826 0
M  V30 2687 C 248.936 4.9437 -3.15935 0
M  V30 2688 C 251.288 5.15355 -3.66867 0
M  V30 2689 C 249.952 5.31528 -4.03776 0
M  V30 2690 H 249.222 0.737023 -0.0766668 0
M  V30 2691 H 251.869 1.70067 -0.880312 0
M  V30 2692 H 250.174 3.87892 0.551969 0
M  V30 2693 H 251.871 4.00588 0.181793 0
M  V30 2694 H 248.461 4.10004 -1.24877 0
M  V30 2695 H 252.645 4.46968 -2.15717 0
M  V30 2696 H 247.901 5.05076 -3.44541 0
M  V30 2697 H 252.075 5.43402 -4.35531 0
M  V30 2698 H 249.702 5.72199 -5.00492 0
M  V30 2699 N 251.277 0.427512 1.51691 0
M  V30 2700 C 252.526 -0.143679 2.01188 0
M  V30 2701 C 252.839 -1.44642 1.31674 0
M  V30 2702 O 254.045 -2.09997 1.72086 0
M  V30 2703 C 252.501 -0.306602 3.58592 0
M  V30 2704 C 252.109 0.985125 4.37035 0
M  V30 2705 C 253.853 -0.832091 4.16265 0
M  V30 2706 C 251.76 0.788382 5.86122 0
M  V30 2707 H 250.69 -0.0574701 0.751807 0
M  V30 2708 H 253.341 0.555772 1.74881 0
M  V30 2709 H 251.723 -1.06882 3.81303 0
M  V30 2710 H 252.897 1.75492 4.26074 0
M  V30 2711 H 251.212 1.4384 3.90767 0
M  V30 2712 H 253.809 -0.995617 5.25349 0
M  V30 2713 H 254.152 -1.81186 3.74803 0
M  V30 2714 H 254.685 -0.128444 3.97593 0
M  V30 2715 H 251.424 1.74025 6.31978 0
M  V30 2716 H 250.944 0.0582143 5.99772 0
M  V30 2717 H 252.623 0.437722 6.45518 0
M  V30 2718 N 252.755 -1.56801 0.158532 0
M  V30 2719 C 254.002 -1.9649 -0.489679 0
M  V30 2720 C 254.33 -1.04394 -1.6411 0
M  V30 2721 O 253.585 -0.0754401 -1.95555 0
M  V30 2722 C 253.884 -3.4235 -1.02623 0
M  V30 2723 C 253.55 -4.50899 0.00794526 0
M  V30 2724 C 252.212 -4.80312 0.292207 0
M  V30 2725 C 254.564 -5.16333 0.710584 0
M  V30 2726 C 251.892 -5.72461 1.28472 0
M  V30 2727 C 254.244 -6.09553 1.69199 0
M  V30 2728 C 252.908 -6.37339 1.98383 0
M  V30 2729 H 252.178 -0.719009 -0.179186 0
M  V30 2730 H 254.825 -1.8989 0.247798 0
M  V30 2731 H 253.13 -3.45838 -1.84128 0
M  V30 2732 H 254.827 -3.70393 -1.53656 0
M  V30 2733 H 251.417 -4.28015 -0.22379 0
M  V30 2734 H 255.601 -4.93732 0.504174 0
M  V30 2735 H 250.857 -5.92278 1.51714 0
M  V30 2736 H 255.031 -6.59327 2.24189 0
M  V30 2737 H 252.658 -7.08546 2.7544 0
M  V30 2738 N 254.233 0.115231 -1.57178 0
M  V30 2739 C 255.458 0.840354 -1.89612 0
M  V30 2740 C 255.883 1.72464 -0.750845 0
M  V30 2741 O 255.241 1.78826 0.298478 0
M  V30 2742 C 255.289 1.64654 -3.20814 0
M  V30 2743 O 254.393 2.7538 -3.06985 0
M  V30 2744 H 253.734 0.232158 -0.622092 0
M  V30 2745 H 256.264 0.0964977 -2.04372 0
M  V30 2746 H 256.274 2.03499 -3.53627 0
M  V30 2747 H 254.949 0.997416 -4.03763 0
M  V30 2748 H 253.526 2.3971 -2.85646 0
M  V30 2749 N 255.711 1.52812 0.385517 0
M  V30 2750 C 256.641 1.80808 1.47752 0
M  V30 2751 C 257.622 0.660318 1.5676 0
M  V30 2752 O 258.807 0.908246 1.71652 0
M  V30 2753 C 255.937 1.98008 2.85324 0
M  V30 2754 C 254.891 3.13709 2.91154 0
M  V30 2755 C 254.217 3.16169 4.31209 0
M  V30 2756 C 255.517 4.52709 2.60483 0
M  V30 2757 H 257.211 2.72253 1.24573 0
M  V30 2758 H 254.757 1.31003 0.597839 0
M  V30 2759 H 256.71 2.16176 3.61726 0
M  V30 2760 H 255.434 1.03255 3.09848 0
M  V30 2761 H 254.093 2.95329 2.17201 0
M  V30 2762 H 253.741 2.19092 4.52778 0
M  V30 2763 H 253.441 3.93894 4.36029 0
M  V30 2764 H 254.965 3.36496 5.09512 0
M  V30 2765 H 256.379 4.71173 3.26602 0
M  V30 2766 H 254.776 5.32528 2.76648 0
M  V30 2767 H 255.846 4.59186 1.55809 0
M  V30 2768 N 257.189 -0.644168 1.43834 0
M  V30 2769 C 258.605 -0.960875 1.27434 0
M  V30 2770 C 258.805 -2.00499 0.200618 0
M  V30 2771 O 257.861 -2.49018 -0.417906 0
M  V30 2772 C 259.174 -1.43653 2.64167 0
M  V30 2773 C 260.722 -1.55271 2.71772 0
M  V30 2774 C 261.197 -2.06224 4.08944 0
M  V30 2775 N 262.688 -2.13513 4.11055 0
M  V30 2776 C 263.423 -2.54081 5.14033 0
M  V30 2777 N 262.919 -2.9388 6.27381 0
M  V30 2778 N 264.712 -2.54101 5.01387 0
M  V30 2779 H 256.863 0.0465779 2.12349 0
M  V30 2780 H 259.126 -0.0417638 0.94708 0
M  V30 2781 H 258.832 -0.743706 3.43747 0
M  V30 2782 H 258.706 -2.40993 2.90176 0
M  V30 2783 H 261.093 -2.23653 1.92519 0
M  V30 2784 H 261.174 -0.563395 2.49519 0
M  V30 2785 H 260.818 -1.38441 4.88668 0
M  V30 2786 H 260.748 -3.06003 4.28567 0
M  V30 2787 H 263.239 -1.85493 3.29242 0
M  V30 2788 H 263.552 -3.2361 7.01781 0
M  V30 2789 H 261.897 -2.91663 6.30839 0
M  V30 2790 H 265.088 -2.22391 4.11898 0
M  V30 2791 H 265.261 -2.85394 5.81768 0
M  V30 2792 N 258.668 -1.30515 -0.883378 0
M  V30 2793 C 259.578 -1.18959 -2.02203 0
M  V30 2794 C 260.594 -0.109172 -1.73657 0
M  V30 2795 O 261.77 -0.324413 -1.9877 0
M  V30 2796 C 258.835 -0.883871 -3.35244 0
M  V30 2797 C 257.896 -2.04982 -3.77201 0
M  V30 2798 C 257.129 -1.75859 -5.03894 0
M  V30 2799 O 257.352 -0.687276 -5.66244 0
M  V30 2800 O 256.286 -2.61146 -5.42297 0
M  V30 2801 H 260.112 -2.14616 -2.1488 0
M  V30 2802 H 257.697 -1.10124 -1.0096 0
M  V30 2803 H 259.579 -0.728644 -4.15053 0
M  V30 2804 H 258.254 0.0427798 -3.23672 0
M  V30 2805 H 257.161 -2.26038 -2.9809 0
M  V30 2806 H 258.494 -2.95825 -3.93381 0
M  V30 2807 N 260.146 1.09593 -1.13257 0
M  V30 2808 C 261.392 1.82003 -0.89458 0
M  V30 2809 C 261.725 1.85402 0.577906 0
M  V30 2810 O 261 1.32099 1.42759 0
M  V30 2811 C 261.283 3.28237 -1.48096 0
M  V30 2812 C 261.136 3.3312 -3.02244 0
M  V30 2813 C 262.455 4.24871 -1.14774 0
M  V30 2814 H 259.574 0.66077 -0.326424 0
M  V30 2815 H 262.216 1.28389 -1.40058 0
M  V30 2816 H 260.366 3.74024 -1.05062 0
M  V30 2817 H 262.038 2.95748 -3.54021 0
M  V30 2818 H 260.281 2.72756 -3.37323 0
M  V30 2819 H 260.952 4.3613 -3.38371 0
M  V30 2820 H 263.428 3.87361 -1.51957 0
M  V30 2821 H 262.304 5.25532 -1.58452 0
M  V30 2822 H 262.565 4.42058 -0.0611849 0
M  V30 2823 N 261.624 0.925811 1.2754 0
M  V30 2824 C 262.873 0.561084 1.93739 0
M  V30 2825 C 263.186 -0.901685 1.73577 0
M  V30 2826 O 264.392 -1.37511 2.34101 0
M  V30 2827 C 262.848 0.952668 3.47062 0
M  V30 2828 C 262.456 2.43599 3.75983 0
M  V30 2829 C 264.2 0.659103 4.19352 0
M  V30 2830 C 262.107 2.76707 5.22673 0
M  V30 2831 H 261.037 0.206122 0.725279 0
M  V30 2832 H 263.688 1.12637 1.44863 0
M  V30 2833 H 262.07 0.316053 3.94737 0
M  V30 2834 H 263.244 3.12035 3.39073 0
M  V30 2835 H 261.559 2.70125 3.16893 0
M  V30 2836 H 264.156 0.882985 5.27359 0
M  V30 2837 H 264.499 -0.403607 4.14339 0
M  V30 2838 H 265.032 1.25473 3.77494 0
M  V30 2839 H 261.771 3.8188 5.32774 0
M  V30 2840 H 261.291 2.12919 5.60737 0
M  V30 2841 H 262.97 2.6435 5.90532 0
M  V30 2842 N 263.102 -1.41638 0.69111 0
M  V30 2843 C 264.034 -2.29194 -0.0161523 0
M  V30 2844 C 265.047 -1.44549 -0.748955 0
M  V30 2845 O 266.236 -1.681 -0.6004 0
M  V30 2846 C 263.336 -3.22325 -1.0469 0
M  V30 2847 C 262.509 -4.35706 -0.384621 0
M  V30 2848 C 261.568 -5.09443 -1.31737 0
M  V30 2849 O 260.594 -5.63386 -0.811451 0
M  V30 2850 N 261.796 -5.16487 -2.64993 0
M  V30 2851 H 264.561 -2.90534 0.735523 0
M  V30 2852 H 262.122 -1.52742 0.53679 0
M  V30 2853 H 264.114 -3.68522 -1.67252 0
M  V30 2854 H 262.684 -2.62323 -1.70015 0
M  V30 2855 H 261.904 -3.91948 0.420804 0
M  V30 2856 H 263.192 -5.08743 0.0760765 0
M  V30 2857 H 262.59 -4.741 -3.08619 0
M  V30 2858 H 261.147 -5.66276 -3.22761 0
M  V30 2859 N 264.58 -0.43555 -1.51462 0
M  V30 2860 C 265.828 0.131254 -2.01673 0
M  V30 2861 C 266.149 1.43368 -1.32177 0
M  V30 2862 O 265.419 1.90524 -0.455769 0
M  V30 2863 H 263.999 0.0514954 -0.745223 0
M  V30 2864 H 266.661 -0.577847 -1.86137 0
M  V30 2865 H 265.757 0.308446 -3.10572 0
M  V30 2866 N 266.058 1.56714 -0.166846 0
M  V30 2867 C 267.283 2.01557 0.488833 0
M  V30 2868 C 267.708 1.0463 1.56314 0
M  V30 2869 O 267.066 0.0251304 1.81283 0
M  V30 2870 C 267.114 3.4503 1.04818 0
M  V30 2871 O 266.218 3.51163 2.16236 0
M  V30 2872 H 265.559 0.653516 0.117526 0
M  V30 2873 H 268.089 2.02818 -0.269421 0
M  V30 2874 H 268.099 3.84243 1.37191 0
M  V30 2875 H 266.774 4.15077 0.261572 0
M  V30 2876 H 265.351 3.23807 1.84942 0
M  V30 2877 N 267.536 -0.106894 1.57237 0
M  V30 2878 C 268.784 -0.810921 1.85117 0
M  V30 2879 C 269.105 -1.7984 0.753827 0
M  V30 2880 O 268.375 -1.94649 -0.221056 0
M  V30 2881 H 266.955 -0.302466 0.683025 0
M  V30 2882 H 269.617 -0.0913324 1.94686 0
M  V30 2883 H 268.713 -1.34875 2.81452 0
M  V30 2884 N 269.014 -1.53014 -0.377408 0
M  V30 2885 C 270.26 -1.68872 -1.12294 0
M  V30 2886 C 270.593 -0.433224 -1.89306 0
M  V30 2887 O 269.868 0.569258 -1.85983 0
M  V30 2888 C 270.151 -2.93115 -2.09179 0
M  V30 2889 C 270.004 -4.28794 -1.35853 0
M  V30 2890 C 271.323 -3.12928 -3.09458 0
M  V30 2891 H 268.442 -0.614518 -0.406862 0
M  V30 2892 H 271.084 -1.85633 -0.40503 0
M  V30 2893 H 269.234 -2.78956 -2.70399 0
M  V30 2894 H 270.906 -4.54742 -0.775082 0
M  V30 2895 H 269.149 -4.28744 -0.660364 0
M  V30 2896 H 269.82 -5.11837 -2.06706 0
M  V30 2897 H 272.296 -3.26194 -2.58334 0
M  V30 2898 H 271.172 -4.01316 -3.74482 0
M  V30 2899 H 271.433 -2.27669 -3.78971 0
M  V30 2900 N 270.492 0.636531 -1.44174 0
M  V30 2901 C 271.422 1.76003 -1.53444 0
M  V30 2902 C 272.403 1.65619 -0.387841 0
M  V30 2903 O 273.588 1.84461 -0.607257 0
M  V30 2904 C 270.718 3.14511 -1.4731 0
M  V30 2905 C 269.672 3.39677 -2.60391 0
M  V30 2906 C 268.998 4.78159 -2.39308 0
M  V30 2907 C 270.298 3.32772 -4.02567 0
M  V30 2908 H 271.992 1.68501 -2.47483 0
M  V30 2909 H 269.538 0.809237 -1.19111 0
M  V30 2910 H 271.491 3.92878 -1.52397 0
M  V30 2911 H 270.215 3.22783 -0.49785 0
M  V30 2912 H 268.874 2.63688 -2.54684 0
M  V30 2913 H 268.522 4.83128 -1.39988 0
M  V30 2914 H 268.222 4.95956 -3.15122 0
M  V30 2915 H 269.746 5.58762 -2.46205 0
M  V30 2916 H 271.16 4.01051 -4.09672 0
M  V30 2917 H 269.557 3.62104 -4.7854 0
M  V30 2918 H 270.627 2.30669 -4.2652 0
M  V30 2919 N 271.97 1.30982 0.876444 0
M  V30 2920 C 273.247 1.10942 1.61094 0
M  V30 2921 C 273.627 -0.338223 2.08373 0
M  V30 2922 O 272.975 -1.33122 1.85717 0
M  V30 2923 C 273.185 2.11789 2.77392 0
M  V30 2924 C 274.533 2.43965 3.47514 0
M  V30 2925 O 275.557 2.10166 2.87591 0
M  V30 2926 O 274.416 3.01817 4.55597 0
M  V30 2927 H 271.51 0.42667 0.708436 0
M  V30 2928 H 274.056 1.42438 0.922474 0
M  V30 2929 H 272.828 3.09194 2.39823 0
M  V30 2930 H 272.451 1.81161 3.5393 0
M  V30 2931 N 273.449 -1.08991 1.13837 0
M  V30 2932 C 274.689 -1.82867 0.913183 0
M  V30 2933 C 275.053 -1.83936 -0.550604 0
M  V30 2934 O 276.254 -2.53515 -0.893515 0
M  V30 2935 C 274.525 -3.24843 1.49036 0
M  V30 2936 S 276.084 -4.15669 1.40588 0
M  V30 2937 H 272.902 -0.630278 0.329046 0
M  V30 2938 H 275.504 -1.31049 1.45073 0
M  V30 2939 H 274.208 -3.21644 2.54899 0
M  V30 2940 H 273.739 -3.81734 0.950947 0
M  V30 2941 H 275.754 -4.94686 0.387353 0
M  V30 2942 N 274.927 -0.932562 -1.27047 0
M  V30 2943 C 276.173 -0.585913 -1.94778 0
M  V30 2944 C 276.528 0.864142 -1.71902 0
M  V30 2945 O 275.821 1.60894 -1.04037 0
M  V30 2946 C 276.015 -0.853713 -3.47054 0
M  V30 2947 C 275.844 -2.32825 -3.84737 0
M  V30 2948 C 274.614 -2.98184 -4.07939 0
M  V30 2949 C 276.812 -3.30612 -3.93954 0
M  V30 2950 N 274.794 -4.3574 -4.3244 0
M  V30 2951 C 276.165 -4.53395 -4.22887 0
M  V30 2952 C 278.22 -3.25755 -3.76548 0
M  V30 2953 C 276.923 -5.71927 -4.36224 0
M  V30 2954 C 278.949 -4.43604 -3.91113 0
M  V30 2955 C 278.311 -5.65166 -4.20437 0
M  V30 2956 H 274.41 -0.264617 -0.735868 0
M  V30 2957 H 276.994 -1.20019 -1.53309 0
M  V30 2958 H 275.165 -0.268557 -3.8747 0
M  V30 2959 H 276.897 -0.469202 -4.01971 0
M  V30 2960 H 273.652 -2.48835 -4.02961 0
M  V30 2961 H 274.076 -5.06915 -4.48738 0
M  V30 2962 H 278.718 -2.32835 -3.52913 0
M  V30 2963 H 276.436 -6.65308 -4.58683 0
M  V30 2964 H 280.022 -4.41368 -3.79059 0
M  V30 2965 H 278.902 -6.54836 -4.31462 0
M  V30 2966 N 276.405 1.4127 -0.698611 0
M  V30 2967 C 277.368 2.29158 -0.044132 0
M  V30 2968 C 278.368 1.44529 0.704841 0
M  V30 2969 O 279.558 1.65643 0.539276 0
M  V30 2970 C 276.69 3.27459 0.947809 0
M  V30 2971 H 277.883 2.88529 -0.817994 0
M  V30 2972 H 275.436 1.49307 -0.46228 0
M  V30 2973 H 276.171 2.73073 1.74933 0
M  V30 2974 H 275.956 3.8991 0.41385 0
M  V30 2975 H 277.446 3.93311 1.40344 0
M  V30 2976 N 277.883 0.443576 1.51229 0
M  V30 2977 C 279.16 -0.181038 1.9476 0
M  V30 2978 C 279.54 -1.59523 1.38259 0
M  V30 2979 O 278.888 -2.2122 0.572198 0
M  V30 2980 C 279.098 -0.152422 3.48667 0
M  V30 2981 C 280.446 -0.354923 4.23114 0
M  V30 2982 O 281.47 -0.230257 3.55455 0
M  V30 2983 O 280.329 -0.603674 5.43156 0
M  V30 2984 H 277.423 -0.1266 0.817252 0
M  V30 2985 H 279.969 0.502004 1.62105 0
M  V30 2986 H 278.741 0.836022 3.82265 0
M  V30 2987 H 278.364 -0.878107 3.87782 0
M  V30 2988 N 279.361 -1.56624 0.175154 0
M  V30 2989 C 280.608 -1.96999 -0.468811 0
M  V30 2990 C 280.936 -1.06129 -1.62994 0
M  V30 2991 O 280.191 -0.0961771 -1.95464 0
M  V30 2992 C 280.49 -3.43419 -0.989864 0
M  V30 2993 C 280.156 -4.50866 0.0557687 0
M  V30 2994 C 278.818 -4.79975 0.343134 0
M  V30 2995 C 281.17 -5.15551 0.765308 0
M  V30 2996 C 278.498 -5.71066 1.34536 0
M  V30 2997 C 280.85 -6.07724 1.75654 0
M  V30 2998 C 279.514 -6.35199 2.05132 0
M  V30 2999 H 278.784 -0.720869 -0.17155 0
M  V30 3000 H 281.431 -1.89616 0.267924 0
M  V30 3001 H 279.736 -3.47772 -1.80449 0
M  V30 3002 H 281.433 -3.72002 -1.49719 0
M  V30 3003 H 278.023 -4.28229 -0.178381 0
M  V30 3004 H 282.207 -4.9317 0.556513 0
M  V30 3005 H 277.463 -5.90635 1.57988 0
M  V30 3006 H 281.637 -6.56912 2.31169 0
M  V30 3007 H 279.264 -7.05584 2.8294 0
M  V30 3008 N 280.839 0.0985539 -1.57292 0
M  V30 3009 C 282.087 0.801092 -1.85545 0
M  V30 3010 C 282.408 1.79438 -0.763353 0
M  V30 3011 O 281.678 1.94763 0.21073 0
M  V30 3012 H 280.258 0.29884 -0.684619 0
M  V30 3013 H 282.92 0.0810064 -1.94732 0
M  V30 3014 H 282.016 1.3338 -2.82163 0
M  V30 3015 N 282.317 1.53212 0.369288 0
M  V30 3016 C 283.564 1.69215 1.11232 0
M  V30 3017 C 283.892 0.442048 1.8941 0
M  V30 3018 O 283.147 -0.575944 1.87033 0
M  V30 3019 C 283.446 2.89101 2.10132 0
M  V30 3020 C 283.112 4.25758 1.48463 0
M  V30 3021 C 281.774 4.6292 1.31372 0
M  V30 3022 C 284.126 5.10757 1.03811 0
M  V30 3023 C 281.454 5.82722 0.68207 0
M  V30 3024 C 283.806 6.31201 0.420487 0
M  V30 3025 C 282.47 6.67079 0.237038 0
M  V30 3026 H 281.74 0.619201 0.407027 0
M  V30 3027 H 284.387 1.87391 0.394552 0
M  V30 3028 H 282.692 2.65421 2.88199 0
M  V30 3029 H 284.389 2.98676 2.6757 0
M  V30 3030 H 280.979 3.96494 1.62758 0
M  V30 3031 H 285.163 4.82599 1.1581 0
M  V30 3032 H 280.419 6.09113 0.528316 0
M  V30 3033 H 284.593 6.96368 0.0662874 0
M  V30 3034 H 282.22 7.59774 -0.254477 0
M  V30 3035 N 283.795 -0.628877 1.44509 0
M  V30 3036 C 285.206 -1.21054 1.42137 0
M  V30 3037 C 285.557 -1.95715 0.137881 0
M  V30 3038 O 284.682 -2.02554 -0.761645 0
M  V30 3039 C 285.277 -2.20189 2.57493 0
M  V30 3040 C 283.836 -2.73777 2.58308 0
M  V30 3041 C 282.983 -1.48813 2.33987 0
M  V30 3042 H 285.934 -0.41942 1.53057 0
M  V30 3043 H 285.955 -3.02833 2.30375 0
M  V30 3044 H 285.467 -1.6582 3.50892 0
M  V30 3045 H 283.568 -3.32142 1.68856 0
M  V30 3046 H 283.681 -3.19662 3.56865 0
M  V30 3047 H 282.045 -1.77024 1.83124 0
M  V30 3048 H 282.828 -0.963442 3.29504 0
M  V30 3049 N 285.273 -1.31445 -0.869486 0
M  V30 3050 C 286.519 -1.22347 -1.62489 0
M  V30 3051 C 286.874 0.216204 -1.91181 0
M  V30 3052 O 286.167 1.14977 -1.53268 0
M  V30 3053 C 286.361 -2.00145 -2.96102 0
M  V30 3054 C 286.19 -3.51531 -2.80456 0
M  V30 3055 C 284.96 -4.20882 -2.79618 0
M  V30 3056 C 287.158 -4.46471 -2.5528 0
M  V30 3057 N 285.14 -5.58421 -2.55027 0
M  V30 3058 C 286.511 -5.71682 -2.39957 0
M  V30 3059 C 288.566 -4.35892 -2.40629 0
M  V30 3060 C 287.269 -6.87511 -2.11472 0
M  V30 3061 C 289.295 -5.51505 -2.13532 0
M  V30 3062 C 288.657 -6.75707 -1.98998 0
M  V30 3063 H 284.756 -0.502815 -0.598917 0
M  V30 3064 H 287.34 -1.65639 -1.02332 0
M  V30 3065 H 285.511 -1.59221 -3.54264 0
M  V30 3066 H 287.243 -1.83063 -3.60929 0
M  V30 3067 H 283.998 -3.72857 -2.92018 0
M  V30 3068 H 284.422 -6.30841 -2.45701 0
M  V30 3069 H 289.064 -3.40533 -2.50593 0
M  V30 3070 H 286.782 -7.82897 -2.00245 0
M  V30 3071 H 290.368 -5.45238 -2.02995 0
M  V30 3072 H 289.248 -7.63655 -1.78326 0
M  V30 3073 N 286.751 1.08385 -1.14413 0
M  V30 3074 C 287.999 1.80419 -0.910679 0
M  V30 3075 C 288.32 1.86658 0.564243 0
M  V30 3076 O 287.59 1.35985 1.41014 0
M  V30 3077 H 286.17 0.668204 -0.333934 0
M  V30 3078 H 288.832 1.31037 -1.44275 0
M  V30 3079 H 287.928 2.83238 -1.31082 0
M  V30 3080 N 288.23 0.939286 1.26551 0
M  V30 3081 C 289.641 0.628782 1.75793 0
M  V30 3082 C 289.992 -0.856046 1.7654 0
M  V30 3083 O 289.117 -1.66994 1.3763 0
M  V30 3084 C 289.712 1.13465 3.19235 0
M  V30 3085 C 288.271 0.874601 3.66098 0
M  V30 3086 C 287.418 1.28667 2.45642 0
M  V30 3087 H 290.369 1.1178 1.12654 0
M  V30 3088 H 290.39 0.487609 3.77363 0
M  V30 3089 H 289.902 2.21535 3.1866 0
M  V30 3090 H 288.003 -0.191793 3.72106 0
M  V30 3091 H 288.116 1.50028 4.55004 0
M  V30 3092 H 286.48 0.705109 2.44745 0
M  V30 3093 H 287.263 2.37625 2.47769 0
M  V30 3094 N 289.708 -1.40897 0.706093 0
M  V30 3095 C 291.124 -1.55042 0.37869 0
M  V30 3096 C 291.324 -1.67944 -1.11342 0
M  V30 3097 O 290.38 -1.66372 -1.89938 0
M  V30 3098 C 291.693 -2.78398 1.13643 0
M  V30 3099 C 293.241 -2.92206 1.12181 0
M  V30 3100 C 293.716 -4.18463 1.86152 0
M  V30 3101 N 295.207 -4.25443 1.83173 0
M  V30 3102 C 295.942 -5.2202 2.37239 0
M  V30 3103 N 295.438 -6.24563 2.99821 0
M  V30 3104 N 297.231 -5.14033 2.27435 0
M  V30 3105 H 289.382 -1.30769 1.67372 0
M  V30 3106 H 291.645 -0.631653 0.706907 0
M  V30 3107 H 291.351 -2.7511 2.19106 0
M  V30 3108 H 291.225 -3.70228 0.721853 0
M  V30 3109 H 293.612 -2.95004 0.0754171 0
M  V30 3110 H 293.693 -2.01521 1.57554 0
M  V30 3111 H 293.337 -4.16427 2.90776 0
M  V30 3112 H 293.267 -5.08141 1.38206 0
M  V30 3113 H 295.758 -3.51976 1.37556 0
M  V30 3114 H 296.071 -6.94665 3.38616 0
M  V30 3115 H 294.416 -6.25035 3.03902 0
M  V30 3116 H 297.607 -4.3285 1.78208 0
M  V30 3117 H 297.78 -5.89129 2.69873 0
M  V30 3118 N 291.186 -0.45159 -1.50991 0
M  V30 3119 C 292.149 0.341117 -2.26647 0
M  V30 3120 C 293.149 0.937422 -1.30649 0
M  V30 3121 O 294.339 0.809644 -1.54241 0
M  V30 3122 C 291.471 1.48398 -3.06905 0
M  V30 3123 H 292.664 -0.322117 -2.98165 0
M  V30 3124 H 290.217 -0.205122 -1.54948 0
M  V30 3125 H 290.952 2.18284 -2.39838 0
M  V30 3126 H 290.737 1.06241 -3.77432 0
M  V30 3127 H 292.227 2.04367 -3.64176 0
M  V30 3128 N 292.664 1.56529 -0.183458 0
M  V30 3129 C 293.894 2.01331 0.463612 0
M  V30 3130 C 294.302 1.06278 1.5653 0
M  V30 3131 O 293.645 0.0577976 1.83609 0
M  V30 3132 C 293.707 3.42547 1.09096 0
M  V30 3133 C 293.371 4.56817 0.129442 0
M  V30 3134 C 294.368 5.15734 -0.656807 0
M  V30 3135 C 292.053 5.02295 0.02174 0
M  V30 3136 C 294.047 6.1857 -1.53784 0
M  V30 3137 C 291.734 6.04978 -0.862864 0
M  V30 3138 C 292.732 6.62988 -1.64123 0
M  V30 3139 O 292.42 7.63677 -2.51103 0
M  V30 3140 H 292.152 0.664917 0.121907 0
M  V30 3141 H 294.706 2.034 -0.285954 0
M  V30 3142 H 292.936 3.37428 1.88889 0
M  V30 3143 H 294.625 3.71228 1.64148 0
M  V30 3144 H 295.391 4.81473 -0.583839 0
M  V30 3145 H 291.27 4.56847 0.617392 0
M  V30 3146 H 294.814 6.63777 -2.14583 0
M  V30 3147 H 290.711 6.38663 -0.93699 0
M  V30 3148 H 291.479 7.81049 -2.44753 0
M  V30 3149 N 294.142 -0.090211 1.57342 0
M  V30 3150 C 295.072 -1.10976 2.05443 0
M  V30 3151 C 296.053 -1.41482 0.944284 0
M  V30 3152 O 297.238 -1.51428 1.21586 0
M  V30 3153 C 294.368 -2.42831 2.48295 0
M  V30 3154 C 293.322 -2.26721 3.63018 0
M  V30 3155 C 292.648 -3.63796 3.91863 0
M  V30 3156 C 293.948 -1.7037 4.93732 0
M  V30 3157 H 295.642 -0.709564 2.9087 0
M  V30 3158 H 293.188 -0.339874 1.39932 0
M  V30 3159 H 295.141 -3.14431 2.80555 0
M  V30 3160 H 293.865 -2.84795 1.59873 0
M  V30 3161 H 292.524 -1.57565 3.31012 0
M  V30 3162 H 292.172 -4.03297 3.00601 0
M  V30 3163 H 291.872 -3.53861 4.69101 0
M  V30 3164 H 293.396 -4.36855 4.26603 0
M  V30 3165 H 294.81 -2.31816 5.24342 0
M  V30 3166 H 293.207 -1.71181 5.75167 0
M  V30 3167 H 294.277 -0.663542 4.80339 0
M  V30 3168 N 295.62 -1.53406 -0.361157 0
M  V30 3169 C 296.848 -1.73717 -1.12383 0
M  V30 3170 C 297.263 -0.468161 -1.82904 0
M  V30 3171 O 296.62 0.559198 -1.73722 0
M  V30 3172 C 296.671 -2.90558 -2.15078 0
M  V30 3173 O 296.392 -4.12549 -1.47428 0
M  V30 3174 C 297.893 -3.22777 -3.03858 0
M  V30 3175 H 295.113 -0.580896 -0.335858 0
M  V30 3176 H 297.657 -2.00167 -0.418728 0
M  V30 3177 H 295.812 -2.66489 -2.8118 0
M  V30 3178 H 296.226 -4.78009 -2.15887 0
M  V30 3179 H 297.7 -4.07927 -3.71887 0
M  V30 3180 H 298.177 -2.38329 -3.68912 0
M  V30 3181 H 298.783 -3.48787 -2.43367 0
M  V30 3182 N 297.098 0.621204 -1.44841 0
M  V30 3183 C 298.344 1.38073 -1.49357 0
M  V30 3184 C 298.699 1.91973 -0.128115 0
M  V30 3185 O 297.992 1.71311 0.858087 0
M  V30 3186 C 298.186 2.55675 -2.4973 0
M  V30 3187 C 298.015 2.13289 -3.95901 0
M  V30 3188 C 296.785 2.001 -4.63991 0
M  V30 3189 C 298.983 1.7159 -4.84831 0
M  V30 3190 N 296.965 1.51381 -5.94943 0
M  V30 3191 C 298.336 1.34188 -6.05304 0
M  V30 3192 C 300.391 1.59059 -4.7181 0
M  V30 3193 C 299.094 0.855085 -7.14199 0
M  V30 3194 C 301.12 1.11784 -5.8074 0
M  V30 3195 C 300.482 0.753385 -7.0036 0
M  V30 3196 H 296.581 0.499675 -0.601539 0
M  V30 3197 H 299.165 0.711609 -1.8123 0
M  V30 3198 H 297.336 3.20201 -2.19832 0
M  V30 3199 H 299.068 3.22509 -2.4448 0
M  V30 3200 H 295.823 2.20863 -4.18947 0
M  V30 3201 H 296.247 1.29293 -6.64539 0
M  V30 3202 H 300.889 1.85865 -3.79755 0
M  V30 3203 H 298.607 0.574552 -8.06055 0
M  V30 3204 H 302.193 1.02533 -5.72694 0
M  V30 3205 H 301.073 0.393183 -7.83214 0
M  V30 3206 N 298.576 1.31904 0.862503 0
M  V30 3207 C 299.804 1.24998 1.64873 0
M  V30 3208 C 300.219 -0.183425 1.87907 0
M  V30 3209 O 299.576 -1.11794 1.44251 0
M  V30 3210 C 299.627 1.99829 3.01248 0
M  V30 3211 O 299.348 3.37575 2.79239 0
M  V30 3212 C 300.849 1.99852 3.95694 0
M  V30 3213 H 298.069 0.431599 0.513773 0
M  V30 3214 H 300.613 1.73901 1.07604 0
M  V30 3215 H 298.768 1.54668 3.55185 0
M  V30 3216 H 299.182 3.75776 3.65914 0
M  V30 3217 H 300.656 2.56709 4.88676 0
M  V30 3218 H 301.133 0.982852 4.28062 0
M  V30 3219 H 301.739 2.44926 3.47694 0
M  V30 3220 N 300.054 -1.07777 1.14986 0
M  V30 3221 C 301.282 -1.84018 0.945773 0
M  V30 3222 C 301.697 -1.81897 -0.505863 0
M  V30 3223 O 301.054 -1.22726 -1.35072 0
M  V30 3224 C 301.105 -3.31287 1.44677 0
M  V30 3225 O 300.826 -3.33449 2.84154 0
M  V30 3226 C 302.327 -4.24311 1.28355 0
M  V30 3227 H 299.547 -0.580716 0.336169 0
M  V30 3228 H 302.091 -1.36077 1.52654 0
M  V30 3229 H 300.246 -3.76594 0.908625 0
M  V30 3230 H 300.66 -4.25427 3.06777 0
M  V30 3231 H 302.134 -5.2573 1.68261 0
M  V30 3232 H 302.611 -4.38612 0.227184 0
M  V30 3233 H 303.217 -3.84836 1.81056 0
M  V30 3234 N 301.532 -0.945985 -1.26051 0
M  V30 3235 C 302.462 -0.477172 -2.28572 0
M  V30 3236 C 303.443 0.472032 -1.63419 0
M  V30 3237 O 304.628 0.372853 -1.90587 0
M  V30 3238 C 301.758 0.253975 -3.4637 0
M  V30 3239 C 300.712 -0.609135 -4.23643 0
M  V30 3240 C 300.038 0.252252 -5.34105 0
M  V30 3241 C 301.338 -1.8829 -4.8718 0
M  V30 3242 H 303.032 -1.33402 -2.68038 0
M  V30 3243 H 300.578 -0.642904 -1.28852 0
M  V30 3244 H 302.531 0.593016 -4.17207 0
M  V30 3245 H 301.255 1.145 -3.05871 0
M  V30 3246 H 299.914 -0.931138 -3.54578 0
M  V30 3247 H 299.562 1.14278 -4.89846 0
M  V30 3248 H 299.262 -0.32188 -5.86718 0
M  V30 3249 H 300.786 0.586454 -6.07777 0
M  V30 3250 H 302.2 -1.61081 -5.50205 0
M  V30 3251 H 300.597 -2.40199 -5.49931 0
M  V30 3252 H 301.667 -2.59134 -4.09851 0
M  V30 3253 N 303.011 1.40521 -0.713556 0
M  V30 3254 C 303.974 2.29098 -0.0684347 0
M  V30 3255 C 304.974 1.45268 0.689472 0
M  V30 3256 O 306.164 1.66205 0.521677 0
M  V30 3257 C 303.296 3.28446 0.913024 0
M  V30 3258 H 304.489 2.87645 -0.84855 0
M  V30 3259 H 302.042 1.48809 -0.47809 0
M  V30 3260 H 302.777 2.74913 1.72027 0
M  V30 3261 H 302.562 3.90327 0.372472 0
M  V30 3262 H 304.052 3.94777 1.36165 0
M  V30 3263 N 304.489 0.459591 1.5075 0
M  V30 3264 C 305.738 -0.100971 2.01447 0
M  V30 3265 C 306.051 -1.41816 1.34713 0
M  V30 3266 O 307.257 -2.06299 1.76502 0
M  V30 3267 C 305.713 -0.23047 3.59161 0
M  V30 3268 C 305.321 1.0776 4.34847 0
M  V30 3269 C 307.065 -0.743608 4.17936 0
M  V30 3270 C 304.972 0.91253 5.84317 0
M  V30 3271 H 303.902 -0.0415102 0.752856 0
M  V30 3272 H 306.553 0.592742 1.73663 0
M  V30 3273 H 304.935 -0.987703 3.83485 0
M  V30 3274 H 306.109 1.8449 4.22256 0
M  V30 3275 H 304.424 1.52097 3.87628 0
M  V30 3276 H 307.021 -0.883959 5.27343 0
M  V30 3277 H 307.364 -1.73196 3.78562 0
M  V30 3278 H 307.897 -0.04408 3.97776 0
M  V30 3279 H 304.636 1.87391 6.28144 0
M  V30 3280 H 304.156 0.185422 5.99513 0
M  V30 3281 H 305.835 0.574547 6.44444 0
M  V30 3282 N 305.967 -1.56429 0.191757 0
M  V30 3283 C 307.214 -1.97485 -0.447891 0
M  V30 3284 C 307.542 -1.07852 -1.61859 0
M  V30 3285 O 306.797 -0.116903 -1.95351 0
M  V30 3286 C 307.096 -3.44449 -0.953384 0
M  V30 3287 C 306.762 -4.50781 0.103586 0
M  V30 3288 C 305.424 -4.79584 0.394023 0
M  V30 3289 C 307.776 -5.1471 0.819946 0
M  V30 3290 C 305.104 -5.69607 1.40585 0
M  V30 3291 C 307.456 -6.05827 1.8209 0
M  V30 3292 C 306.12 -6.32987 2.11857 0
M  V30 3293 H 305.39 -0.722648 -0.163895 0
M  V30 3294 H 308.037 -1.89322 0.28802 0
M  V30 3295 H 306.342 -3.49666 -1.76751 0
M  V30 3296 H 308.039 -3.73569 -1.45765 0
M  V30 3297 H 304.629 -4.28394 -0.132951 0
M  V30 3298 H 308.813 -4.92552 0.608789 0
M  V30 3299 H 304.069 -5.88926 1.64243 0
M  V30 3300 H 308.243 -6.54424 2.38123 0
M  V30 3301 H 305.87 -7.02544 2.90407 0
M  V30 3302 N 307.445 0.0818655 -1.57387 0
M  V30 3303 C 308.691 0.784074 -1.8703 0
M  V30 3304 C 309.024 1.77729 -0.782689 0
M  V30 3305 O 308.299 1.93384 0.208051 0
M  V30 3306 C 308.582 1.50105 -3.27323 0
M  V30 3307 C 308.435 0.524925 -4.46727 0
M  V30 3308 C 309.754 2.44843 -3.65705 0
M  V30 3309 H 306.873 0.283582 -0.680257 0
M  V30 3310 H 309.515 0.0474352 -1.89941 0
M  V30 3311 H 307.665 2.12897 -3.24972 0
M  V30 3312 H 309.337 -0.0970111 -4.61198 0
M  V30 3313 H 307.58 -0.160606 -4.33503 0
M  V30 3314 H 308.251 1.064 -5.41648 0
M  V30 3315 H 310.727 1.92135 -3.69085 0
M  V30 3316 H 309.603 2.92018 -4.64776 0
M  V30 3317 H 309.864 3.29197 -2.95096 0
M  V30 3318 N 308.923 1.53595 0.353017 0
M  V30 3319 C 309.853 1.83902 1.43883 0
M  V30 3320 C 310.834 0.693421 1.55324 0
M  V30 3321 O 312.019 0.944452 1.69687 0
M  V30 3322 C 309.149 2.04016 2.8106 0
M  V30 3323 C 308.103 3.19814 2.84434 0
M  V30 3324 C 307.429 3.25244 4.24406 0
M  V30 3325 C 308.729 4.58133 2.50822 0
M  V30 3326 H 310.423 2.74835 1.1877 0
M  V30 3327 H 307.969 1.32242 0.569917 0
M  V30 3328 H 309.922 2.238 3.57059 0
M  V30 3329 H 308.646 1.09804 3.07588 0
M  V30 3330 H 307.305 2.9987 2.10887 0
M  V30 3331 H 306.953 2.28646 4.48029 0
M  V30 3332 H 306.653 4.03054 4.27576 0
M  V30 3333 H 308.177 3.47228 5.0226 0
M  V30 3334 H 309.591 4.77995 3.16534 0
M  V30 3335 H 307.988 5.38276 2.6529 0
M  V30 3336 H 309.058 4.62387 1.46034 0
M  V30 3337 N 310.401 -0.613514 1.45168 0
M  V30 3338 C 311.812 -1.19539 1.43413 0
M  V30 3339 C 312.163 -1.95558 0.158632 0
M  V30 3340 O 311.288 -2.0335 -0.740119 0
M  V30 3341 C 311.883 -2.17445 2.59813 0
M  V30 3342 C 310.442 -2.71022 2.61197 0
M  V30 3343 C 309.589 -1.46323 2.35552 0
M  V30 3344 H 312.54 -0.403163 1.53494 0
M  V30 3345 H 312.561 -3.00373 2.33574 0
M  V30 3346 H 312.073 -1.62089 3.52631 0
M  V30 3347 H 310.174 -3.30332 1.7237 0
M  V30 3348 H 310.287 -3.15859 3.60236 0
M  V30 3349 H 308.651 -1.75072 1.84992 0
M  V30 3350 H 309.434 -0.92844 3.30507 0
M  V30 3351 N 311.879 -1.3236 -0.855495 0
M  V30 3352 C 313.125 -1.23054 -1.612 0
M  V30 3353 C 313.458 0.207404 -1.93089 0
M  V30 3354 O 312.733 1.14432 -1.57275 0
M  V30 3355 C 313.016 -2.08937 -2.93287 0
M  V30 3356 C 312.869 -3.61105 -2.68185 0
M  V30 3357 C 314.188 -1.94986 -3.94549 0
M  V30 3358 H 311.307 -0.448364 -0.584926 0
M  V30 3359 H 313.949 -1.62297 -0.987917 0
M  V30 3360 H 312.099 -1.75599 -3.46551 0
M  V30 3361 H 313.771 -4.04652 -2.21483 0
M  V30 3362 H 312.014 -3.83813 -2.02164 0
M  V30 3363 H 312.685 -4.16522 -3.62234 0
M  V30 3364 H 315.161 -2.24189 -3.5054 0
M  V30 3365 H 314.037 -2.57356 -4.84829 0
M  V30 3366 H 314.298 -0.917263 -4.3248 0
M  V30 3367 N 313.357 1.07166 -1.15556 0
M  V30 3368 C 314.585 1.83514 -0.955519 0
M  V30 3369 C 315 1.82163 0.49621 0
M  V30 3370 O 314.357 1.23441 1.34419 0
M  V30 3371 C 314.408 3.30515 -1.46432 0
M  V30 3372 O 314.129 3.31937 -2.85918 0
M  V30 3373 C 315.63 4.23625 -1.30603 0
M  V30 3374 H 312.85 0.578926 -0.339244 0
M  V30 3375 H 315.394 1.35265 -1.53374 0
M  V30 3376 H 313.549 3.76106 -0.928584 0
M  V30 3377 H 313.963 4.23794 -3.09029 0
M  V30 3378 H 315.437 5.24831 -1.71047 0
M  V30 3379 H 315.914 4.38485 -0.250441 0
M  V30 3380 H 316.52 3.83871 -1.83094 0
M  V30 3381 N 314.835 0.952656 1.25548 0
M  V30 3382 C 315.768 0.415525 2.24385 0
M  V30 3383 C 316.746 -0.502046 1.54655 0
M  V30 3384 O 317.93 -0.436875 1.83368 0
M  V30 3385 C 315.057 -0.401734 3.36309 0
M  V30 3386 C 314.103 0.455949 4.24056 0
M  V30 3387 S 314.936 1.88698 5.01152 0
M  V30 3388 C 316.092 1.07809 6.16545 0
M  V30 3389 H 316.325 1.25315 2.69599 0
M  V30 3390 H 313.858 0.756587 1.34592 0
M  V30 3391 H 315.816 -0.867329 4.01233 0
M  V30 3392 H 314.477 -1.21416 2.89684 0
M  V30 3393 H 313.67 -0.170776 5.03711 0
M  V30 3394 H 313.272 0.856675 3.64056 0
M  V30 3395 H 315.564 0.325816 6.76716 0
M  V30 3396 H 316.507 1.84849 6.83547 0
M  V30 3397 H 316.915 0.60909 5.61204 0
M  V30 3398 N 316.313 -1.40141 0.720998 0
M  V30 3399 C 317.243 -2.33339 0.0867621 0
M  V30 3400 C 318.224 -1.53178 -0.739622 0
M  V30 3401 O 319.409 -1.81625 -0.687449 0
M  V30 3402 C 316.539 -3.37194 -0.831728 0
M  V30 3403 C 315.493 -4.27857 -0.110558 0
M  V30 3404 C 314.819 -5.22294 -1.14513 0
M  V30 3405 C 316.119 -5.11872 1.0385 0
M  V30 3406 H 317.813 -2.86626 0.865219 0
M  V30 3407 H 315.359 -1.37814 0.417516 0
M  V30 3408 H 317.312 -4.01335 -1.28485 0
M  V30 3409 H 316.036 -2.82314 -1.64214 0
M  V30 3410 H 314.695 -3.65176 0.322797 0
M  V30 3411 H 314.343 -4.63717 -1.94874 0
M  V30 3412 H 314.043 -5.83797 -0.667446 0
M  V30 3413 H 315.567 -5.89312 -1.59824 0
M  V30 3414 H 316.981 -5.69436 0.664482 0
M  V30 3415 H 315.378 -5.82445 1.4449 0
M  V30 3416 H 316.448 -4.4753 1.86668 0
M  V30 3417 N 317.792 -0.46758 -1.50504 0
M  V30 3418 C 319.02 0.0864133 -2.06719 0
M  V30 3419 C 319.435 1.33819 -1.33184 0
M  V30 3420 O 318.792 1.78061 -0.400083 0
M  V30 3421 C 318.843 0.378079 -3.59517 0
M  V30 3422 O 318.564 -0.824044 -4.3028 0
M  V30 3423 C 320.065 0.979426 -4.32345 0
M  V30 3424 H 317.285 -0.00551697 -0.670977 0
M  V30 3425 H 319.829 -0.655354 -1.93715 0
M  V30 3426 H 317.984 1.06977 -3.72337 0
M  V30 3427 H 318.398 -0.566518 -5.21432 0
M  V30 3428 H 319.872 1.1333 -5.40241 0
M  V30 3429 H 320.349 1.9686 -3.9261 0
M  V30 3430 H 320.955 0.326216 -4.24047 0
M  V30 3431 N 319.27 1.56325 -0.20005 0
M  V30 3432 C 320.233 2.18084 0.705132 0
M  V30 3433 C 321.233 1.13666 1.1374 0
M  V30 3434 O 322.423 1.39023 1.04968 0
M  V30 3435 C 319.555 2.78689 1.96329 0
M  V30 3436 H 320.748 2.99435 0.167023 0
M  V30 3437 H 318.301 1.56221 0.0495725 0
M  V30 3438 H 319.036 2.0115 2.5438 0
M  V30 3439 H 318.821 3.55133 1.66202 0
M  V30 3440 H 320.311 3.26096 2.60866 0
M  V30 3441 N 320.748 -0.0735177 1.57428 0
M  V30 3442 C 321.988 -0.778363 1.89 0
M  V30 3443 C 322.352 -1.7483 0.793634 0
M  V30 3444 O 323.553 -2.49811 0.992367 0
M  V30 3445 C 321.824 -1.46929 3.25802 0
M  V30 3446 S 323.383 -2.20943 3.79117 0
M  V30 3447 H 320.201 -0.258874 0.662197 0
M  V30 3448 H 322.803 -0.0345338 1.95469 0
M  V30 3449 H 321.507 -0.749532 4.03497 0
M  V30 3450 H 321.038 -2.25258 3.22525 0
M  V30 3451 H 323.053 -3.47435 3.54265 0
M  V30 3452 N 322.226 -1.5378 -0.344866 0
M  V30 3453 C 323.456 -1.74646 -1.10374 0
M  V30 3454 C 323.864 -0.48491 -1.8288 0
M  V30 3455 O 323.207 0.553062 -1.75177 0
M  V30 3456 C 323.269 -2.87145 -2.16306 0
M  V30 3457 C 322.933 -4.26795 -1.63386 0
M  V30 3458 C 323.93 -5.08412 -1.08688 0
M  V30 3459 C 321.615 -4.73276 -1.68272 0
M  V30 3460 C 323.609 -6.34609 -0.595792 0
M  V30 3461 C 321.296 -5.99446 -1.18776 0
M  V30 3462 C 322.294 -6.79946 -0.645215 0
M  V30 3463 O 321.982 -8.03745 -0.157626 0
M  V30 3464 H 321.714 -0.587112 -0.335075 0
M  V30 3465 H 324.268 -2.01403 -0.403252 0
M  V30 3466 H 322.498 -2.55909 -2.89909 0
M  V30 3467 H 324.187 -2.95992 -2.77747 0
M  V30 3468 H 324.953 -4.73666 -1.04236 0
M  V30 3469 H 320.832 -4.10677 -2.09442 0
M  V30 3470 H 324.376 -6.97389 -0.171654 0
M  V30 3471 H 320.273 -6.33687 -1.22928 0
M  V30 3472 H 321.041 -8.18038 -0.275037 0
M  V30 3473 N 323.704 0.605807 -1.45491 0
M  V30 3474 C 324.929 1.39625 -1.53361 0
M  V30 3475 C 325.354 1.87351 -0.167645 0
M  V30 3476 O 324.712 1.60243 0.848051 0
M  V30 3477 C 324.76 2.57559 -2.5238 0
M  V30 3478 O 323.864 3.58248 -2.04285 0
M  V30 3479 H 323.205 0.416771 -0.516912 0
M  V30 3480 H 325.735 0.737103 -1.90861 0
M  V30 3481 H 325.745 3.0478 -2.71244 0
M  V30 3482 H 324.42 2.22171 -3.51586 0
M  V30 3483 H 322.997 3.17664 -1.95305 0
M  V30 3484 N 325.182 1.32811 0.848464 0
M  V30 3485 C 326.112 1.24882 1.97299 0
M  V30 3486 C 327.093 0.131357 1.69592 0
M  V30 3487 O 328.278 0.319553 1.91553 0
M  V30 3488 C 325.408 0.97746 3.33261 0
M  V30 3489 C 324.362 2.05682 3.75338 0
M  V30 3490 C 323.688 1.63777 5.09 0
M  V30 3491 C 324.988 3.47254 3.90144 0
M  V30 3492 H 326.682 2.18966 2.04191 0
M  V30 3493 H 324.228 1.05413 0.981029 0
M  V30 3494 H 326.181 0.908513 4.1149 0
M  V30 3495 H 324.905 0.000980011 3.266 0
M  V30 3496 H 323.564 2.11603 2.99366 0
M  V30 3497 H 323.212 0.648569 4.98801 0
M  V30 3498 H 322.912 2.36 5.38124 0
M  V30 3499 H 324.436 1.5833 5.89715 0
M  V30 3500 H 325.85 3.43888 4.58709 0
M  V30 3501 H 324.247 4.1788 4.30693 0
M  V30 3502 H 325.317 3.86462 2.92874 0
M  V30 3503 N 326.66 -1.06551 1.16123 0
M  V30 3504 C 327.909 -1.78687 0.935622 0
M  V30 3505 C 328.222 -1.88056 -0.538001 0
M  V30 3506 O 329.428 -2.56794 -0.88143 0
M  V30 3507 C 327.884 -3.21143 1.62466 0
M  V30 3508 C 327.492 -3.19949 3.13587 0
M  V30 3509 C 329.236 -3.9783 1.48092 0
M  V30 3510 C 327.143 -4.57108 3.75241 0
M  V30 3511 H 326.073 -0.669712 0.346412 0
M  V30 3512 H 328.724 -1.19534 1.39226 0
M  V30 3513 H 327.106 -3.80539 1.09572 0
M  V30 3514 H 328.28 -2.70151 3.73303 0
M  V30 3515 H 326.595 -2.5676 3.27816 0
M  V30 3516 H 329.192 -4.99217 1.91538 0
M  V30 3517 H 329.535 -4.14078 0.429507 0
M  V30 3518 H 330.068 -3.4495 1.98127 0
M  V30 3519 H 326.807 -4.46065 4.80319 0
M  V30 3520 H 326.327 -5.07111 3.20309 0
M  V30 3521 H 328.006 -5.26069 3.76644 0
M  V30 3522 N 328.138 -0.959301 -1.25041 0
M  V30 3523 C 329.378 -0.624343 -1.94631 0
M  V30 3524 C 329.742 0.82403 -1.73418 0
M  V30 3525 O 330.943 1.26881 -2.3697 0
M  V30 3526 C 329.214 -0.978805 -3.43736 0
M  V30 3527 S 330.773 -0.757127 -4.32219 0
M  V30 3528 H 327.591 -0.229327 -0.673001 0
M  V30 3529 H 330.193 -1.23447 -1.51595 0
M  V30 3530 H 328.897 -2.02997 -3.56679 0
M  V30 3531 H 328.428 -0.359117 -3.91757 0
M  V30 3532 H 330.443 0.369759 -4.9482 0
M  V30 3533 N 329.616 1.39756 -0.72842 0
M  V30 3534 C 330.566 2.2792 -0.0603424 0
M  V30 3535 C 331.55 1.43922 0.719399 0
M  V30 3536 O 332.742 1.66895 0.589489 0
M  V30 3537 C 329.871 3.32582 0.851104 0
M  V30 3538 C 328.957 4.24049 0.0658641 0
M  V30 3539 N 329.348 4.96653 -0.957578 0
M  V30 3540 C 327.646 4.45013 0.296509 0
M  V30 3541 C 328.347 5.63836 -1.43052 0
M  V30 3542 N 327.323 5.38397 -0.750315 0
M  V30 3543 H 331.125 2.81504 -0.84455 0
M  V30 3544 H 328.639 1.5236 -0.562155 0
M  V30 3545 H 330.636 3.94603 1.34514 0
M  V30 3546 H 329.296 2.80558 1.63454 0
M  V30 3547 H 330.307 5.00297 -1.33877 0
M  V30 3548 H 326.984 4.03943 1.05527 0
M  V30 3549 H 328.374 6.31974 -2.28163 0
M  V30 3550 N 331.094 0.475555 1.50254 0
M  V30 3551 C 332.004 -0.321501 2.32387 0
M  V30 3552 C 333.02 -0.991755 1.42969 0
M  V30 3553 O 334.196 -0.978747 1.76018 0
M  V30 3554 C 331.261 -1.38667 3.17762 0
M  V30 3555 C 330.322 -0.732538 4.23004 0
M  V30 3556 C 329.555 -1.74695 5.04299 0
M  V30 3557 O 329.778 -2.97399 4.86734 0
M  V30 3558 O 328.712 -1.31631 5.8733 0
M  V30 3559 H 332.538 0.350071 3.01676 0
M  V30 3560 H 330.123 0.237321 1.47503 0
M  V30 3561 H 332.005 -2.00354 3.70724 0
M  V30 3562 H 330.68 -2.04163 2.51196 0
M  V30 3563 H 329.587 -0.0765902 3.74022 0
M  V30 3564 H 330.92 -0.120452 4.92053 0
M  V30 3565 N 332.573 -1.56217 0.208337 0
M  V30 3566 C 333.822 -1.97124 -0.427204 0
M  V30 3567 C 334.135 -1.09859 -1.61835 0
M  V30 3568 O 335.341 -1.40606 -2.32255 0
M  V30 3569 C 333.797 -3.50633 -0.811442 0
M  V30 3570 C 333.405 -4.46582 0.35615 0
M  V30 3571 C 335.149 -4.00282 -1.41332 0
M  V30 3572 C 333.056 -5.91379 -0.0497852 0
M  V30 3573 H 331.986 -0.736086 -0.163381 0
M  V30 3574 H 334.637 -1.8099 0.302456 0
M  V30 3575 H 333.019 -3.62319 -1.59815 0
M  V30 3576 H 334.193 -4.46636 1.1337 0
M  V30 3577 H 332.508 -4.07202 0.870396 0
M  V30 3578 H 335.105 -5.0595 -1.72972 0
M  V30 3579 H 335.448 -3.45359 -2.32449 0
M  V30 3580 H 335.981 -3.91764 -0.690323 0
M  V30 3581 H 332.72 -6.50255 0.827529 0
M  V30 3582 H 332.24 -5.94549 -0.791926 0
M  V30 3583 H 333.919 -6.45209 -0.481042 0
M  V30 3584 N 334.051 0.0651679 -1.57465 0
M  V30 3585 C 335.291 0.768329 -1.8941 0
M  V30 3586 C 335.655 1.74406 -0.802894 0
M  V30 3587 O 336.856 2.49281 -1.0056 0
M  V30 3588 C 335.127 1.45199 -3.26576 0
M  V30 3589 S 336.686 2.1893 -3.80283 0
M  V30 3590 H 333.504 0.255359 -0.663561 0
M  V30 3591 H 336.106 0.024167 -1.95485 0
M  V30 3592 H 334.81 0.728123 -4.03889 0
M  V30 3593 H 334.341 2.23545 -3.23715 0
M  V30 3594 H 336.356 3.45551 -3.56102 0
M  V30 3595 N 335.529 1.53961 0.336706 0
M  V30 3596 C 336.476 1.82428 1.41381 0
M  V30 3597 C 337.446 0.670444 1.51968 0
M  V30 3598 O 338.631 0.915565 1.67398 0
M  V30 3599 C 335.771 2.04564 2.77934 0
M  V30 3600 C 334.884 3.32267 2.76084 0
M  V30 3601 C 334.019 3.44434 4.04399 0
M  V30 3602 C 333.058 4.66061 3.96804 0
M  V30 3603 N 332.195 4.75224 5.16823 0
M  V30 3604 H 337.035 2.74324 1.16405 0
M  V30 3605 H 334.572 1.35869 0.563752 0
M  V30 3606 H 336.53 2.15388 3.57301 0
M  V30 3607 H 335.16 1.15974 3.01247 0
M  V30 3608 H 334.212 3.3025 1.88784 0
M  V30 3609 H 335.524 4.21733 2.66351 0
M  V30 3610 H 334.678 3.54728 4.92192 0
M  V30 3611 H 333.417 2.53037 4.16921 0
M  V30 3612 H 332.422 4.55838 3.07396 0
M  V30 3613 H 333.647 5.58829 3.85858 0
M  V30 3614 H 331.593 3.86739 5.29876 0
M  V30 3615 H 331.51 5.58636 5.09374 0
M  V30 3616 H 332.778 4.89835 6.06367 0
M  V30 3617 N 337.007 -0.598083 1.45811 0
M  V30 3618 C 337.955 -1.72932 1.55555 0
M  V30 3619 C 338.949 -1.63984 0.424921 0
M  V30 3620 O 340.155 -1.69663 0.601205 0
M  V30 3621 H 336.53 -0.571489 0.488779 0
M  V30 3622 H 338.501 -1.61842 2.50699 0
M  V30 3623 C 337.25 -3.11318 1.54843 0
M  V30 3624 H 336.573 -3.18867 2.41172 0
M  V30 3625 H 338.013 -3.90274 1.65717 0
M  V30 3626 C 336.472 -3.3578 0.274427 0
M  V30 3627 O 337.002 -3.9654 -0.641778 0
M  V30 3628 N 335.208 -2.90119 0.167139 0
M  V30 3629 H 334.755 -2.40855 0.913596 0
M  V30 3630 H 334.713 -3.0686 -0.684435 0
M  V30 3631 N 338.485 -1.33259 -0.841409 0
M  V30 3632 C 339.415 -1.25926 -1.96634 0
M  V30 3633 C 340.396 -0.140349 -1.6952 0
M  V30 3634 O 341.581 -0.329707 -1.91381 0
M  V30 3635 C 338.711 -0.99512 -3.32738 0
M  V30 3636 C 337.665 -2.0767 -3.74242 0
M  V30 3637 C 336.991 -1.66474 -5.08125 0
M  V30 3638 C 338.291 -3.49318 -3.88297 0
M  V30 3639 H 339.985 -2.20046 -2.03027 0
M  V30 3640 H 337.531 -1.05931 -0.975425 0
M  V30 3641 H 339.484 -0.930323 -4.11002 0
M  V30 3642 H 338.208 -0.0183004 -3.26595 0
M  V30 3643 H 336.867 -2.13187 -2.98239 0
M  V30 3644 H 336.515 -0.675012 -4.9845 0
M  V30 3645 H 336.215 -2.3885 -5.36865 0
M  V30 3646 H 337.739 -1.61455 -5.88867 0
M  V30 3647 H 339.153 -3.46316 -4.56879 0
M  V30 3648 H 337.55 -4.20158 -4.28471 0
M  V30 3649 H 338.62 -3.8801 -2.9082 0
M  V30 3650 N 339.963 1.05934 -1.16686 0
M  V30 3651 C 340.91 2.13499 -0.876748 0
M  V30 3652 C 341.88 1.65162 0.176299 0
M  V30 3653 O 343.065 1.90757 0.0407143 0
M  V30 3654 C 340.205 3.42912 -0.387967 0
M  V30 3655 C 339.318 4.04964 -1.50426 0
M  V30 3656 C 338.453 5.22266 -0.970125 0
M  V30 3657 C 337.492 5.76309 -2.06238 0
M  V30 3658 N 336.629 6.84922 -1.54356 0
M  V30 3659 H 341.469 2.37654 -1.7979 0
M  V30 3660 H 339.006 1.16598 -0.896843 0
M  V30 3661 H 340.964 4.17111 -0.086186 0
M  V30 3662 H 339.594 3.18963 0.496235 0
M  V30 3663 H 338.646 3.28277 -1.92193 0
M  V30 3664 H 339.958 4.41122 -2.32836 0
M  V30 3665 H 339.112 6.03506 -0.621743 0
M  V30 3666 H 337.851 4.87564 -0.115377 0
M  V30 3667 H 336.856 4.93704 -2.41942 0
M  V30 3668 H 338.081 6.13062 -2.92115 0
M  V30 3669 H 336.027 6.52131 -0.711406 0
M  V30 3670 H 335.944 7.20043 -2.30379 0
M  V30 3671 H 337.212 7.69832 -1.22387 0
M  V30 3672 N 341.441 0.965919 1.2453 0
M  V30 3673 C 342.687 0.62776 1.92839 0
M  V30 3674 C 343.02 -0.834694 1.75347 0
M  V30 3675 O 342.295 -1.60031 1.10546 0
M  V30 3676 C 342.578 1.00109 3.45905 0
M  V30 3677 C 342.431 2.52011 3.72573 0
M  V30 3678 C 343.75 0.53435 4.36844 0
M  V30 3679 H 340.869 0.229537 0.700344 0
M  V30 3680 H 343.511 1.2046 1.46933 0
M  V30 3681 H 341.661 0.510238 3.85135 0
M  V30 3682 H 343.333 3.08559 3.42912 0
M  V30 3683 H 341.576 2.95287 3.17786 0
M  V30 3684 H 342.247 2.73183 4.79661 0
M  V30 3685 H 344.723 0.955565 4.04979 0
M  V30 3686 H 343.599 0.824152 5.42678 0
M  V30 3687 H 343.86 -0.565589 4.38467 0
M  V30 3688 N 342.919 -1.39368 0.735821 0
M  V30 3689 C 343.866 -2.30599 0.0963825 0
M  V30 3690 C 344.836 -1.49257 -0.728794 0
M  V30 3691 O 346.021 -1.77941 -0.688588 0
M  V30 3692 C 343.161 -3.35596 -0.804305 0
M  V30 3693 C 342.274 -4.31987 0.0335761 0
M  V30 3694 C 341.409 -5.24053 -0.868461 0
M  V30 3695 C 340.448 -6.12095 -0.0258776 0
M  V30 3696 N 339.585 -6.96514 -0.883893 0
M  V30 3697 H 344.425 -2.8471 0.880002 0
M  V30 3698 H 341.962 -1.40188 0.445619 0
M  V30 3699 H 343.92 -3.95062 -1.34096 0
M  V30 3700 H 342.55 -2.82938 -1.55389 0
M  V30 3701 H 341.602 -3.74133 0.68766 0
M  V30 3702 H 342.914 -4.94074 0.685036 0
M  V30 3703 H 342.068 -5.88549 -1.47293 0
M  V30 3704 H 340.807 -4.62289 -1.5537 0
M  V30 3705 H 339.812 -5.4661 0.591386 0
M  V30 3706 H 341.037 -6.75923 0.656156 0
M  V30 3707 H 338.983 -6.37318 -1.55441 0
M  V30 3708 H 338.9 -7.55448 -0.288931 0
M  V30 3709 H 340.168 -7.65439 -1.4739 0
M  V30 3710 N 344.397 -0.483516 -1.5 0
M  V30 3711 C 345.625 0.0644831 -2.06799 0
M  V30 3712 C 346.04 1.32399 -1.34596 0
M  V30 3713 O 345.397 1.77626 -0.418946 0
M  V30 3714 C 345.448 0.339927 -3.59898 0
M  V30 3715 O 345.169 -0.869635 -4.29382 0
M  V30 3716 C 346.67 0.933515 -4.33359 0
M  V30 3717 H 343.89 -0.0126333 -0.670881 0
M  V30 3718 H 346.434 -0.675864 -1.93009 0
M  V30 3719 H 344.589 1.03022 -3.7345 0
M  V30 3720 H 345.003 -0.62179 -5.20801 0
M  V30 3721 H 346.477 1.07593 -5.41413 0
M  V30 3722 H 346.954 1.92685 -3.94676 0
M  V30 3723 H 347.56 0.281221 -4.24369 0
M  V30 3724 N 345.875 1.56104 -0.216619 0
M  V30 3725 C 346.807 2.17339 0.72776 0
M  V30 3726 C 347.82 1.14109 1.16116 0
M  V30 3727 O 349.009 1.4111 1.09317 0
M  V30 3728 C 346.109 2.73818 1.99693 0
M  V30 3729 C 345.282 4.02168 1.71988 0
M  V30 3730 C 344.341 4.43259 2.83562 0
M  V30 3731 O 343.367 5.10257 2.52244 0
M  V30 3732 N 344.569 4.08535 4.12407 0
M  V30 3733 H 347.334 2.99005 0.203983 0
M  V30 3734 H 344.895 1.61861 -0.0354289 0
M  V30 3735 H 346.887 2.9828 2.73516 0
M  V30 3736 H 345.457 1.96483 2.43132 0
M  V30 3737 H 344.677 3.85612 0.818337 0
M  V30 3738 H 345.965 4.85907 1.50903 0
M  V30 3739 H 345.363 3.54687 4.40696 0
M  V30 3740 H 343.92 4.37901 4.8279 0
M  V30 3741 N 347.353 -0.0568162 1.57498 0
M  V30 3742 C 348.316 -1.05038 2.03715 0
M  V30 3743 C 349.316 -1.30709 0.936577 0
M  V30 3744 O 350.506 -1.26178 1.20103 0
M  V30 3745 C 347.638 -2.39034 2.43055 0
M  V30 3746 H 348.831 -0.651715 2.92733 0
M  V30 3747 H 346.384 -0.302947 1.53336 0
M  V30 3748 H 347.119 -2.83703 1.57108 0
M  V30 3749 H 346.904 -2.21739 3.2338 0
M  V30 3750 H 348.394 -3.10421 2.79336 0
M  V30 3751 N 348.832 -1.54138 -0.328536 0
M  V30 3752 C 350.078 -1.73297 -1.06488 0
M  V30 3753 C 350.433 -0.497958 -1.85844 0
M  V30 3754 O 349.726 0.509591 -1.84699 0
M  V30 3755 C 349.92 -2.9457 -2.02393 0
M  V30 3756 C 349.749 -4.29747 -1.32467 0
M  V30 3757 C 348.519 -4.93987 -1.06324 0
M  V30 3758 C 350.717 -5.08903 -0.743137 0
M  V30 3759 N 348.699 -6.13005 -0.331359 0
M  V30 3760 C 350.07 -6.19836 -0.142602 0
M  V30 3761 C 352.125 -4.93699 -0.64546 0
M  V30 3762 C 350.828 -7.17224 0.546125 0
M  V30 3763 C 352.854 -5.91393 0.0295558 0
M  V30 3764 C 352.216 -7.01674 0.619056 0
M  V30 3765 H 348.315 -0.687017 -0.373539 0
M  V30 3766 H 350.899 -1.91589 -0.346659 0
M  V30 3767 H 349.07 -2.77752 -2.71493 0
M  V30 3768 H 350.802 -3.0238 -2.68977 0
M  V30 3769 H 347.557 -4.53824 -1.35428 0
M  V30 3770 H 347.981 -6.76997 0.0202939 0
M  V30 3771 H 352.623 -4.08589 -1.08695 0
M  V30 3772 H 350.341 -8.01896 0.999459 0
M  V30 3773 H 353.927 -5.81706 0.104705 0
M  V30 3774 H 352.807 -7.75971 1.13309 0
M  V30 3775 N 350.31 0.590341 -1.46126 0
M  V30 3776 C 351.726 0.912917 -1.30912 0
M  V30 3777 C 351.926 1.99616 -0.274893 0
M  V30 3778 O 350.982 2.50397 0.325197 0
M  V30 3779 C 352.295 1.3375 -2.69317 0
M  V30 3780 C 353.843 1.45077 -2.77348 0
M  V30 3781 C 354.318 1.90904 -4.16317 0
M  V30 3782 N 355.809 1.9811 -4.18696 0
M  V30 3783 C 356.544 2.34828 -5.23109 0
M  V30 3784 N 356.04 2.70393 -6.37856 0
M  V30 3785 N 357.833 2.35317 -5.10473 0
M  V30 3786 H 349.984 -0.125358 -2.1203 0
M  V30 3787 H 352.247 0.00658481 -0.947977 0
M  V30 3788 H 351.953 0.615614 -3.4627 0
M  V30 3789 H 351.827 2.30058 -2.9892 0
M  V30 3790 H 354.214 2.16353 -2.00687 0
M  V30 3791 H 354.295 0.4704 -2.51438 0
M  V30 3792 H 353.939 1.20209 -4.9347 0
M  V30 3793 H 353.869 2.89886 -4.39629 0
M  V30 3794 H 356.36 1.73146 -3.359 0
M  V30 3795 H 356.673 2.97341 -7.13308 0
M  V30 3796 H 355.018 2.68048 -6.41229 0
M  V30 3797 H 358.209 2.0695 -4.19868 0
M  V30 3798 H 358.382 2.63605 -5.9196 0
M  V30 3799 N 351.788 1.33704 0.83433 0
M  V30 3800 C 353.034 1.25603 1.59222 0
M  V30 3801 C 353.367 -0.176659 1.93395 0
M  V30 3802 O 352.642 -1.11915 1.59076 0
M  V30 3803 C 352.925 2.13576 2.89926 0
M  V30 3804 C 352.778 3.65326 2.62406 0
M  V30 3805 C 354.097 2.01238 3.91397 0
M  V30 3806 H 351.216 0.457613 0.577719 0
M  V30 3807 H 353.858 1.63848 0.961972 0
M  V30 3808 H 352.008 1.8109 3.43713 0
M  V30 3809 H 353.68 4.08124 2.15017 0
M  V30 3810 H 351.923 3.8698 1.96033 0
M  V30 3811 H 352.594 4.22232 3.55562 0
M  V30 3812 H 355.07 2.29738 3.46929 0
M  V30 3813 H 353.946 2.65036 4.80673 0
M  V30 3814 H 354.207 0.985951 4.30966 0
M  V30 3815 N 353.266 -1.05314 1.17247 0
M  V30 3816 C 354.514 -1.77941 0.958194 0
M  V30 3817 C 354.835 -1.88089 -0.514556 0
M  V30 3818 O 354.105 -1.39676 -1.37359 0
M  V30 3819 H 352.685 -0.659116 0.351533 0
M  V30 3820 H 355.347 -1.27166 1.47699 0
M  V30 3821 H 354.443 -2.79663 1.38546 0
M  V30 3822 N 354.744 -0.972509 -1.24016 0
M  V30 3823 C 355.992 -0.635776 -1.91839 0
M  V30 3824 C 356.313 0.832312 -1.76345 0
M  V30 3825 O 355.583 1.5946 -1.13795 0
M  V30 3826 H 354.163 -0.232157 -0.710009 0
M  V30 3827 H 356.825 -1.23462 -1.50809 0
M  V30 3828 H 355.921 -0.880545 -2.99421 0
M  V30 3829 N 356.222 1.38976 -0.743202 0
M  V30 3830 C 357.47 1.99948 -0.29417 0
M  V30 3831 C 357.791 1.59279 1.12495 0
M  V30 3832 O 357.061 0.844808 1.76748 0
M  V30 3833 H 355.641 0.739473 -0.105774 0
M  V30 3834 H 358.303 1.699 -0.954986 0
M  V30 3835 H 357.399 3.10142 -0.349056 0
M  V30 3836 N 357.7 0.491464 1.49741 0
M  V30 3837 C 358.948 -0.0563141 2.02022 0
M  V30 3838 C 359.269 -1.38363 1.37407 0
M  V30 3839 O 358.539 -1.88702 0.526166 0
M  V30 3840 H 357.119 -0.0238014 0.746621 0
M  V30 3841 H 359.781 0.646533 1.83864 0
M  V30 3842 H 358.877 -0.192967 3.11503 0
M  V30 3843 N 359.178 -1.55987 0.224894 0
M  V30 3844 C 360.424 -1.99433 -0.39973 0
M  V30 3845 C 360.779 -1.11004 -1.57149 0
M  V30 3846 O 360.072 -0.160725 -1.90925 0
M  V30 3847 C 360.266 -3.46394 -0.880106 0
M  V30 3848 C 360.095 -4.4904 0.243565 0
M  V30 3849 C 358.865 -5.00272 0.711056 0
M  V30 3850 C 361.063 -5.03195 1.06299 0
M  V30 3851 N 359.045 -5.86628 1.80944 0
M  V30 3852 C 360.416 -5.86508 2.01017 0
M  V30 3853 C 362.471 -4.8555 1.10205 0
M  V30 3854 C 361.174 -6.54062 2.99324 0
M  V30 3855 C 363.2 -5.53866 2.07332 0
M  V30 3856 C 362.562 -6.3695 3.00789 0
M  V30 3857 H 358.661 -0.773815 -0.112847 0
M  V30 3858 H 361.245 -1.91754 0.337432 0
M  V30 3859 H 359.416 -3.54515 -1.58662 0
M  V30 3860 H 361.148 -3.76752 -1.47783 0
M  V30 3861 H 357.903 -4.72655 0.29906 0
M  V30 3862 H 358.327 -6.34507 2.36073 0
M  V30 3863 H 362.969 -4.20966 0.39343 0
M  V30 3864 H 360.687 -7.17827 3.71147 0
M  V30 3865 H 364.273 -5.42178 2.11032 0
M  V30 3866 H 363.153 -6.8888 3.74718 0
M  V30 3867 N 360.656 0.0484629 -1.57525 0
M  V30 3868 C 362.072 0.40375 -1.54409 0
M  V30 3869 C 362.272 1.77786 -0.948384 0
M  V30 3870 O 361.328 2.46189 -0.560983 0
M  V30 3871 C 362.641 0.323394 -2.98956 0
M  V30 3872 C 364.189 0.401892 -3.10409 0
M  V30 3873 C 364.664 0.351195 -4.56652 0
M  V30 3874 N 366.155 0.410576 -4.61377 0
M  V30 3875 C 366.89 0.393933 -5.72045 0
M  V30 3876 N 366.386 0.330724 -6.9201 0
M  V30 3877 N 368.179 0.442227 -5.60358 0
M  V30 3878 H 360.33 -0.851016 -1.94606 0
M  V30 3879 H 362.593 -0.321721 -0.89174 0
M  V30 3880 H 362.299 -0.62011 -3.4619 0
M  V30 3881 H 362.173 1.12463 -3.60044 0
M  V30 3882 H 364.56 1.33582 -2.63134 0
M  V30 3883 H 364.641 -0.428342 -2.52188 0
M  V30 3884 H 364.285 -0.578987 -5.04589 0
M  V30 3885 H 364.215 1.19928 -5.12762 0
M  V30 3886 H 366.706 0.462729 -3.75056 0
M  V30 3887 H 367.019 0.322592 -7.72126 0
M  V30 3888 H 365.364 0.29706 -6.94365 0
M  V30 3889 H 368.555 0.489464 -4.65534 0
M  V30 3890 H 368.728 0.425788 -6.466 0
M  V30 3891 N 362.134 1.5431 0.320358 0
M  V30 3892 C 363.362 1.76636 1.07738 0
M  V30 3893 C 363.777 0.51649 1.81598 0
M  V30 3894 O 363.134 -0.512942 1.75143 0
M  V30 3895 C 363.185 2.96158 2.07299 0
M  V30 3896 O 362.906 4.16313 1.36438 0
M  V30 3897 C 364.407 3.3072 2.95193 0
M  V30 3898 H 361.627 0.589597 0.320339 0
M  V30 3899 H 364.171 2.01207 0.36551 0
M  V30 3900 H 362.326 2.73851 2.74016 0
M  V30 3901 H 362.74 4.83565 2.03138 0
M  V30 3902 H 364.214 4.17643 3.60941 0
M  V30 3903 H 364.691 2.48026 3.62463 0
M  V30 3904 H 365.297 3.55117 2.34034 0
M  V30 3905 N 363.613 -0.582584 1.46437 0
M  V30 3906 C 364.859 -1.34064 1.52965 0
M  V30 3907 C 365.214 -1.91566 0.178968 0
M  V30 3908 O 364.507 -1.73526 -0.812365 0
M  V30 3909 C 364.701 -2.48964 2.56421 0
M  V30 3910 C 364.53 -2.02717 4.01417 0
M  V30 3911 C 363.3 -1.87728 4.69134 0
M  V30 3912 C 365.498 -1.58675 4.8921 0
M  V30 3913 N 363.48 -1.35554 5.98747 0
M  V30 3914 C 364.851 -1.18093 6.08649 0
M  V30 3915 C 366.906 -1.46494 4.75861 0
M  V30 3916 C 365.609 -0.665427 7.16215 0
M  V30 3917 C 367.635 -0.96347 5.83499 0
M  V30 3918 C 366.997 -0.567432 7.02111 0
M  V30 3919 H 363.096 -0.483551 0.614575 0
M  V30 3920 H 365.68 -0.663309 1.83053 0
M  V30 3921 H 363.851 -3.1426 2.28244 0
M  V30 3922 H 365.583 -3.15913 2.52944 0
M  V30 3923 H 362.338 -2.09678 4.24655 0
M  V30 3924 H 362.762 -1.11628 6.67734 0
M  V30 3925 H 367.404 -1.75731 3.8455 0
M  V30 3926 H 365.122 -0.360639 8.07295 0
M  V30 3927 H 368.708 -0.873129 5.75211 0
M  V30 3928 H 367.588 -0.185389 7.83981 0
M  V30 3929 N 365.091 -1.34144 -0.827227 0
M  V30 3930 C 366.368 -1.16844 -1.56865 0
M  V30 3931 C 366.748 0.260654 -2.09485 0
M  V30 3932 O 366.096 1.26138 -1.9053 0
M  V30 3933 C 366.306 -2.21939 -2.6934 0
M  V30 3934 C 367.654 -2.56695 -3.3822 0
M  V30 3935 O 368.678 -2.20695 -2.79593 0
M  V30 3936 O 367.537 -3.18518 -4.44082 0
M  V30 3937 H 364.631 -0.452669 -0.692112 0
M  V30 3938 H 367.177 -1.45763 -0.868973 0
M  V30 3939 H 365.949 -3.17882 -2.28182 0
M  V30 3940 H 365.572 -1.94172 -3.46962 0
M  V30 3941 N 366.569 1.04691 -1.17803 0
M  V30 3942 C 367.985 1.29963 -0.926379 0
M  V30 3943 C 368.185 1.97251 0.411635 0
M  V30 3944 O 367.241 2.24922 1.14744 0
M  V30 3945 C 368.554 2.16447 -2.08737 0
M  V30 3946 C 370.102 2.29814 -2.12496 0
M  V30 3947 C 370.577 3.19661 -3.27995 0
M  V30 3948 N 372.068 3.27247 -3.27816 0
M  V30 3949 C 372.803 3.96906 -4.13827 0
M  V30 3950 N 372.299 4.6895 -5.09959 0
M  V30 3951 N 374.092 3.93122 -4.01761 0
M  V30 3952 H 366.243 0.594182 -2.0392 0
M  V30 3953 H 368.506 0.324649 -0.890678 0
M  V30 3954 H 368.212 1.74304 -3.05469 0
M  V30 3955 H 368.086 3.17103 -2.04268 0
M  V30 3956 H 370.473 2.71196 -1.16347 0
M  V30 3957 H 370.554 1.2877 -2.21025 0
M  V30 3958 H 370.198 2.78991 -4.24413 0
M  V30 3959 H 370.128 4.20722 -3.16703 0
M  V30 3960 H 372.619 2.75921 -2.58217 0
M  V30 3961 H 372.932 5.19679 -5.71974 0
M  V30 3962 H 371.277 4.67875 -5.13924 0
M  V30 3963 H 374.468 3.35967 -3.2595 0
M  V30 3964 H 374.641 4.47139 -4.6901 0
M  V30 3965 N 368.047 0.979072 1.23499 0
M  V30 3966 C 369.458 0.684391 1.73704 0
M  V30 3967 C 369.809 -0.799448 1.79174 0
M  V30 3968 O 368.934 -1.62531 1.42873 0
M  V30 3969 C 369.529 1.23564 3.15464 0
M  V30 3970 C 368.088 0.99063 3.6313 0
M  V30 3971 C 367.235 1.36416 2.41425 0
M  V30 3972 H 370.186 1.15307 1.09041 0
M  V30 3973 H 370.207 0.607417 3.7562 0
M  V30 3974 H 369.719 2.31561 3.1145 0
M  V30 3975 H 367.82 -0.0733136 3.72528 0
M  V30 3976 H 367.933 1.64427 4.5 0
M  V30 3977 H 366.297 0.782616 2.42378 0
M  V30 3978 H 367.08 2.45387 2.40083 0
M  V30 3979 N 369.525 -1.3858 0.750561 0
M  V30 3980 C 370.75 -2.04997 0.314812 0
M  V30 3981 C 371.175 -1.56235 -1.04749 0
M  V30 3982 O 370.533 -0.712981 -1.66692 0
M  V30 3983 C 370.581 -3.58961 0.343415 0
M  V30 3984 O 369.685 -4.07025 -0.663628 0
M  V30 3985 H 369.026 -0.649081 0.139962 0
M  V30 3986 H 371.556 -1.77313 1.02084 0
M  V30 3987 H 371.566 -4.07542 0.193233 0
M  V30 3988 H 370.241 -3.93811 1.33738 0
M  V30 3989 H 368.818 -3.6982 -0.478307 0
M  V30 3990 N 371.003 -0.499398 -1.49478 0
M  V30 3991 C 372.414 -0.051215 -1.8663 0
M  V30 3992 C 372.765 1.36238 -1.41186 0
M  V30 3993 O 371.89 2.01502 -0.789051 0
M  V30 3994 C 372.485 -0.0861651 -3.3869 0
M  V30 3995 C 371.044 0.30667 -3.75149 0
M  V30 3996 C 370.191 -0.459397 -2.73468 0
M  V30 3997 H 373.142 -0.712264 -1.41818 0
M  V30 3998 H 373.163 0.709507 -3.73826 0
M  V30 3999 H 372.675 -1.11512 -3.71735 0
M  V30 4000 H 370.776 1.33892 -3.47712 0
M  V30 4001 H 370.889 -0.0116669 -4.79099 0
M  V30 4002 H 369.253 0.0905645 -2.54539 0
M  V30 4003 H 370.036 -1.4884 -3.09357 0
M  V30 4004 N 372.481 1.55866 -0.233164 0
M  V30 4005 C 373.706 2.03449 0.402906 0
M  V30 4006 C 374.131 1.11166 1.51736 0
M  V30 4007 O 373.489 0.101996 1.81013 0
M  V30 4008 C 373.537 3.49165 0.9009 0
M  V30 4009 O 372.641 3.60019 2.01147 0
M  V30 4010 H 371.982 0.657913 0.0897025 0
M  V30 4011 H 374.512 2.01493 -0.355201 0
M  V30 4012 H 374.522 3.89716 1.2077 0
M  V30 4013 H 373.197 4.15813 0.0852889 0
M  V30 4014 H 371.774 3.3136 1.71042 0
M  V30 4015 N 373.959 -0.0401083 1.57549 0
M  V30 4016 C 375.187 -0.745196 1.93014 0
M  V30 4017 C 375.602 -1.6948 0.831984 0
M  V30 4018 O 374.959 -1.81482 -0.192463 0
M  V30 4019 C 375.01 -1.51176 3.28372 0
M  V30 4020 O 374.731 -0.600284 4.33968 0
M  V30 4021 C 376.232 -2.315 3.78051 0
M  V30 4022 H 373.452 -0.210088 0.637263 0
M  V30 4023 H 375.996 -0.000924689 2.045 0
M  V30 4024 H 374.151 -2.20801 3.18317 0
M  V30 4025 H 374.565 -1.13669 5.12035 0
M  V30 4026 H 376.039 -2.80697 4.75303 0
M  V30 4027 H 376.516 -3.12436 3.08675 0
M  V30 4028 H 377.122 -1.66971 3.91153 0
M  V30 4029 N 375.437 -1.54477 -0.31217 0
M  V30 4030 C 376.367 -1.87652 -1.38957 0
M  V30 4031 C 377.348 -0.734358 -1.53431 0
M  V30 4032 O 378.533 -0.98911 -1.67123 0
M  V30 4033 C 375.663 -2.11396 -2.75552 0
M  V30 4034 C 374.617 -3.27243 -2.75855 0
M  V30 4035 C 373.943 -3.36382 -4.15633 0
M  V30 4036 C 375.243 -4.64622 -2.38587 0
M  V30 4037 H 376.937 -2.77887 -1.11442 0
M  V30 4038 H 374.483 -1.33707 -0.534655 0
M  V30 4039 H 376.436 -2.33189 -3.51 0
M  V30 4040 H 375.16 -1.17921 -3.04569 0
M  V30 4041 H 373.819 -3.05356 -2.02863 0
M  V30 4042 H 373.467 -2.40445 -4.41809 0
M  V30 4043 H 373.167 -4.14249 -4.1674 0
M  V30 4044 H 374.691 -3.60422 -4.92877 0
M  V30 4045 H 376.105 -4.86219 -3.03749 0
M  V30 4046 H 374.502 -5.45121 -2.50925 0
M  V30 4047 H 375.572 -4.66097 -1.33723 0
M  V30 4048 N 376.915 0.57481 -1.46744 0
M  V30 4049 C 377.878 1.66533 -1.57478 0
M  V30 4050 C 378.878 1.54338 -0.451263 0
M  V30 4051 O 380.068 1.58814 -0.715813 0
M  V30 4052 C 377.2 3.05999 -1.50259 0
M  V30 4053 H 378.393 1.58372 -2.54673 0
M  V30 4054 H 375.946 0.793301 -1.34672 0
M  V30 4055 H 376.681 3.19709 -0.543725 0
M  V30 4056 H 376.466 3.16259 -2.31781 0
M  V30 4057 H 377.956 3.8537 -1.60872 0
M  V30 4058 N 378.394 1.34581 0.820102 0
M  V30 4059 C 379.357 1.2628 1.91275 0
M  V30 4060 C 380.357 0.177344 1.59819 0
M  V30 4061 O 381.547 0.430156 1.68806 0
M  V30 4062 C 378.679 0.950327 3.27386 0
M  V30 4063 H 379.872 2.23421 2.00057 0
M  V30 4064 H 377.425 1.1891 1.0144 0
M  V30 4065 H 378.16 -0.0177938 3.24295 0
M  V30 4066 H 377.945 1.73549 3.51601 0
M  V30 4067 H 379.435 0.917492 4.07396 0
M  V30 4068 N 379.872 -1.04064 1.18357 0
M  V30 4069 C 381.1 -1.80916 1.00384 0
M  V30 4070 C 381.515 -1.83414 -0.447738 0
M  V30 4071 O 380.872 -1.26962 -1.31099 0
M  V30 4072 C 380.923 -3.26516 1.55144 0
M  V30 4073 O 380.644 -3.2424 2.94618 0
M  V30 4074 C 382.145 -4.20013 1.41789 0
M  V30 4075 H 379.365 -0.569728 0.354474 0
M  V30 4076 H 381.909 -1.31151 1.56906 0
M  V30 4077 H 380.064 -3.73512 1.02798 0
M  V30 4078 H 380.478 -4.15452 3.20156 0
M  V30 4079 H 381.952 -5.20111 1.84901 0
M  V30 4080 H 382.429 -4.37667 0.36661 0
M  V30 4081 H 383.035 -3.78881 1.93207 0
M  V30 4082 N 381.35 -0.985608 -1.22978 0
M  V30 4083 C 382.578 -0.675582 -1.95559 0
M  V30 4084 C 382.993 0.758413 -1.72897 0
M  V30 4085 O 382.35 1.51094 -1.02357 0
M  V30 4086 C 382.401 -0.96293 -3.48439 0
M  V30 4087 O 382.122 -2.34057 -3.70336 0
M  V30 4088 C 383.623 -0.669585 -4.38214 0
M  V30 4089 H 380.843 -0.250523 -0.622478 0
M  V30 4090 H 383.387 -1.3184 -1.56328 0
M  V30 4091 H 381.542 -0.366033 -3.85667 0
M  V30 4092 H 381.956 -2.43424 -4.64591 0
M  V30 4093 H 383.43 -0.920967 -5.44263 0
M  V30 4094 H 383.907 0.396383 -4.37408 0
M  V30 4095 H 384.513 -1.2472 -4.06602 0
M  V30 4096 N 382.828 1.3818 -0.7579 0
M  V30 4097 C 384.244 1.5353 -0.435972 0
M  V30 4098 C 384.444 1.71961 1.05032 0
M  V30 4099 O 383.5 1.73307 1.83633 0
M  V30 4100 C 384.813 2.73989 -1.23898 0
M  V30 4101 C 386.361 2.87841 -1.22949 0
M  V30 4102 C 386.836 4.11266 -2.01554 0
M  V30 4103 N 388.327 4.18352 -1.98837 0
M  V30 4104 C 389.062 5.12856 -2.5645 0
M  V30 4105 N 388.558 6.13005 -3.22794 0
M  V30 4106 N 390.351 5.05238 -2.46356 0
M  V30 4107 H 382.502 1.24467 -1.7211 0
M  V30 4108 H 384.765 0.604982 -0.729864 0
M  V30 4109 H 384.471 2.66789 -2.29165 0
M  V30 4110 H 384.345 3.67294 -0.858764 0
M  V30 4111 H 386.732 2.9452 -0.184854 0
M  V30 4112 H 386.813 1.95534 -1.64924 0
M  V30 4113 H 386.457 4.05349 -3.06031 0
M  V30 4114 H 386.387 5.02661 -1.5697 0
M  V30 4115 H 388.878 3.46628 -1.50524 0
M  V30 4116 H 389.191 6.81619 -3.64165 0
M  V30 4117 H 387.536 6.13325 -3.2689 0
M  V30 4118 H 390.727 4.25938 -1.9415 0
M  V30 4119 H 390.9 5.78707 -2.91552 0
M  V30 4120 N 384.306 0.507319 1.49211 0
M  V30 4121 C 385.554 -0.0348839 2.0207 0
M  V30 4122 C 385.875 -1.36898 1.38866 0
M  V30 4123 O 385.145 -1.88133 0.546151 0
M  V30 4124 H 383.725 -0.0158812 0.746831 0
M  V30 4125 H 386.387 0.665998 1.83168 0
M  V30 4126 H 385.483 -0.159917 3.1169 0
M  V30 4127 N 385.784 -1.5574 0.241426 0
M  V30 4128 C 386.714 -2.24133 -0.654722 0
M  V30 4129 C 387.695 -1.21974 -1.1856 0
M  V30 4130 O 388.88 -1.50612 -1.22595 0
M  V30 4131 C 386.01 -2.93659 -1.85423 0
M  V30 4132 C 384.964 -4.0246 -1.45636 0
M  V30 4133 C 384.29 -4.59383 -2.73626 0
M  V30 4134 C 385.59 -5.18468 -0.631506 0
M  V30 4135 H 387.284 -2.99281 -0.0844353 0
M  V30 4136 H 384.83 -1.43947 -0.0391707 0
M  V30 4137 H 386.783 -3.40203 -2.48676 0
M  V30 4138 H 385.507 -2.15991 -2.44981 0
M  V30 4139 H 384.166 -3.56676 -0.847202 0
M  V30 4140 H 383.814 -3.78422 -3.3137 0
M  V30 4141 H 383.514 -5.32826 -2.4773 0
M  V30 4142 H 385.038 -5.08658 -3.37786 0
M  V30 4143 H 386.452 -5.61272 -1.1682 0
M  V30 4144 H 384.849 -5.98266 -0.468831 0
M  V30 4145 H 385.919 -4.8358 0.357506 0
M  V30 4146 N 387.262 0.0317525 -1.57568 0
M  V30 4147 C 388.673 0.578692 -1.77505 0
M  V30 4148 C 389.024 1.75749 -0.872164 0
M  V30 4149 O 388.149 2.16298 -0.0663106 0
M  V30 4150 C 388.744 1.05658 -3.21904 0
M  V30 4151 C 387.303 1.54906 -3.43047 0
M  V30 4152 C 386.45 0.485939 -2.73009 0
M  V30 4153 H 389.401 -0.194475 -1.57504 0
M  V30 4154 H 389.422 1.92404 -3.28269 0
M  V30 4155 H 388.934 0.198422 -3.87592 0
M  V30 4156 H 387.035 2.42915 -2.82529 0
M  V30 4157 H 387.148 1.59841 -4.5165 0
M  V30 4158 H 385.512 0.940354 -2.36705 0
M  V30 4159 H 386.295 -0.362709 -3.41379 0
M  V30 4160 N 388.74 1.54641 0.303973 0
M  V30 4161 C 389.965 1.78092 1.06292 0
M  V30 4162 C 390.39 0.537342 1.80262 0
M  V30 4163 O 389.748 -0.511993 1.7392 0
M  V30 4164 C 389.796 2.98612 2.02147 0
M  V30 4165 O 388.9 2.71528 3.10397 0
M  V30 4166 H 388.241 0.589548 0.305497 0
M  V30 4167 H 390.771 2.01716 0.3423 0
M  V30 4168 H 390.781 3.265 2.44667 0
M  V30 4169 H 389.456 3.88785 1.47714 0
M  V30 4170 H 388.033 2.54648 2.72413 0
M  V30 4171 N 390.218 -0.567019 1.47046 0
M  V30 4172 C 391.634 -0.891975 1.32348 0
M  V30 4173 C 391.834 -1.99154 0.306616 0
M  V30 4174 O 390.89 -2.50883 -0.28532 0
M  V30 4175 C 392.203 -1.29449 2.7141 0
M  V30 4176 C 393.751 -1.40646 2.79621 0
M  V30 4177 C 394.226 -1.84257 4.19301 0
M  V30 4178 N 395.717 -1.91424 4.21795 0
M  V30 4179 C 396.452 -2.26476 5.26779 0
M  V30 4180 N 395.948 -2.60211 6.42077 0
M  V30 4181 N 397.741 -2.27166 5.14152 0
M  V30 4182 H 389.892 0.159074 2.11803 0
M  V30 4183 H 392.155 0.00849752 0.947962 0
M  V30 4184 H 391.861 -0.560448 3.47206 0
M  V30 4185 H 391.735 -2.25273 3.02542 0
M  V30 4186 H 394.122 -2.13133 2.04104 0
M  V30 4187 H 394.203 -0.430339 2.52154 0
M  V30 4188 H 393.847 -1.12343 4.95319 0
M  V30 4189 H 393.777 -2.82855 4.44185 0
M  V30 4190 H 396.268 -1.6778 3.38612 0
M  V30 4191 H 396.581 -2.85956 7.17948 0
M  V30 4192 H 394.926 -2.57813 6.45413 0
M  V30 4193 H 398.117 -2.00244 4.23107 0
M  V30 4194 H 398.29 -2.54154 5.96079 0
M  V30 4195 N 391.696 -1.35014 -0.812953 0
M  V30 4196 C 392.942 -1.2812 -1.57204 0
M  V30 4197 C 393.275 0.145869 -1.93651 0
M  V30 4198 O 392.55 1.0937 -1.60836 0
M  V30 4199 C 392.833 -2.18162 -2.86492 0
M  V30 4200 C 392.686 -3.69454 -2.56561 0
M  V30 4201 C 394.005 -2.07439 -3.88145 0
M  V30 4202 H 391.124 -0.466746 -0.570366 0
M  V30 4203 H 393.766 -1.65357 -0.935783 0
M  V30 4204 H 391.916 -1.86535 -3.40789 0
M  V30 4205 H 393.588 -4.11493 -2.08497 0
M  V30 4206 H 391.831 -3.9005 -1.89851 0
M  V30 4207 H 392.502 -4.27835 -3.48799 0
M  V30 4208 H 394.978 -2.35228 -3.4323 0
M  V30 4209 H 393.854 -2.7265 -4.76396 0
M  V30 4210 H 394.115 -1.05439 -4.29343 0
M  V30 4211 N 393.175 1.03435 -1.18907 0
M  V30 4212 C 394.4 1.80919 -1.01406 0
M  V30 4213 C 394.825 1.83055 0.432721 0
M  V30 4214 O 394.183 1.25252 1.31079 0
M  V30 4215 C 394.231 3.24091 -1.58105 0
M  V30 4216 O 393.335 4.04434 -0.806669 0
M  V30 4217 H 392.676 0.558709 -0.358803 0
M  V30 4218 H 395.206 1.30223 -1.57807 0
M  V30 4219 H 395.216 3.74853 -1.61087 0
M  V30 4220 H 393.891 3.21851 -2.6341 0
M  V30 4221 H 392.468 3.63091 -0.849666 0
M  V30 4222 N 394.653 0.992116 1.22453 0
M  V30 4223 C 395.878 0.685644 1.95739 0
M  V30 4224 C 396.303 -0.743 1.72804 0
M  V30 4225 O 395.661 -1.50778 1.00676 0
M  V30 4226 C 395.709 0.996293 3.46564 0
M  V30 4227 O 394.813 0.0945512 4.12292 0
M  V30 4228 H 394.154 0.256694 0.612376 0
M  V30 4229 H 396.684 1.32888 1.5557 0
M  V30 4230 H 396.694 0.93781 3.97076 0
M  V30 4231 H 395.369 2.03733 3.62582 0
M  V30 4232 H 393.946 0.208451 3.72317 0
M  V30 4233 N 396.131 -1.37776 0.765217 0
M  V30 4234 C 397.38 -1.99092 0.323307 0
M  V30 4235 C 397.693 -1.61434 -1.10446 0
M  V30 4236 O 398.899 -2.15805 -1.64743 0
M  V30 4237 C 397.355 -3.56019 0.527098 0
M  V30 4238 C 396.963 -4.0262 1.96471 0
M  V30 4239 C 398.707 -4.2424 0.148483 0
M  V30 4240 C 396.614 -5.52233 2.11644 0
M  V30 4241 H 395.544 -0.744846 0.117137 0
M  V30 4242 H 398.195 -1.57391 0.943417 0
M  V30 4243 H 396.577 -3.95667 -0.162372 0
M  V30 4244 H 397.751 -3.74234 2.68859 0
M  V30 4245 H 396.066 -3.47161 2.29931 0
M  V30 4246 H 398.663 -5.34159 0.240456 0
M  V30 4247 H 399.006 -4.06446 -0.900422 0
M  V30 4248 H 399.539 -3.89872 0.79025 0
M  V30 4249 H 396.278 -5.74945 3.1483 0
M  V30 4250 H 395.798 -5.82324 1.4373 0
M  V30 4251 H 397.477 -6.18106 1.91193 0
M  V30 4252 N 397.609 -0.515225 -1.4894 0
M  V30 4253 C 398.557 0.269115 -2.31038 0
M  V30 4254 C 399.551 0.949443 -1.40292 0
M  V30 4255 O 400.757 0.87551 -1.57273 0
M  V30 4256 H 397.132 0.10565 -0.744542 0
M  V30 4257 H 399.103 -0.443096 -2.95092 0
M  V30 4258 C 397.852 1.31213 -3.21991 0
M  V30 4259 H 397.175 0.798034 -3.91754 0
M  V30 4260 H 398.615 1.83263 -3.82349 0
M  V30 4261 C 397.074 2.33791 -2.42576 0
M  V30 4262 O 397.604 3.3995 -2.14003 0
M  V30 4263 N 395.81 2.06625 -2.0434 0
M  V30 4264 H 395.357 1.20314 -2.27777 0
M  V30 4265 H 395.315 2.75483 -1.51514 0
M  V30 4266 N 399.087 1.5561 -0.249682 0
M  V30 4267 C 400.315 2.03411 0.378352 0
M  V30 4268 C 400.73 1.12886 1.51335 0
M  V30 4269 O 400.087 0.143833 1.81932 0
M  V30 4270 C 400.138 3.50537 0.88351 0
M  V30 4271 O 399.859 4.37614 -0.20626 0
M  V30 4272 C 401.36 4.14113 1.58195 0
M  V30 4273 H 398.58 0.664994 0.08958 0
M  V30 4274 H 401.124 2.01044 -0.374357 0
M  V30 4275 H 399.279 3.5343 1.58639 0
M  V30 4276 H 399.693 5.24199 0.177782 0
M  V30 4277 H 401.167 5.18741 1.8871 0
M  V30 4278 H 401.644 3.60767 2.50487 0
M  V30 4279 H 402.25 4.15151 0.923573 0
M  V30 4280 N 400.565 -0.0233959 1.57583 0
M  V30 4281 C 401.814 -0.712133 1.8871 0
M  V30 4282 C 402.127 -1.76217 0.848944 0
M  V30 4283 O 403.333 -2.50389 1.04964 0
M  V30 4284 C 401.789 -1.3177 3.3491 0
M  V30 4285 C 401.397 -0.303715 4.46969 0
M  V30 4286 C 403.141 -1.98598 3.75179 0
M  V30 4287 C 401.048 -0.917945 5.84233 0
M  V30 4288 H 399.978 -0.269735 0.704101 0
M  V30 4289 H 402.629 0.0333114 1.8347 0
M  V30 4290 H 401.011 -2.11304 3.34913 0
M  V30 4291 H 402.185 0.465325 4.58445 0
M  V30 4292 H 400.5 0.2628 4.1557 0
M  V30 4293 H 403.097 -2.45416 4.75053 0
M  V30 4294 H 403.44 -2.80659 3.07468 0
M  V30 4295 H 403.973 -1.25831 3.77374 0
M  V30 4296 H 400.712 -0.136633 6.55358 0
M  V30 4297 H 400.232 -1.65669 5.76467 0
M  V30 4298 H 401.911 -1.4236 6.31144 0
M  V30 4299 N 402.043 -1.548 -0.295768 0
M  V30 4300 C 403.268 -1.78653 -1.05346 0
M  V30 4301 C 403.693 -0.546894 -1.79974 0
M  V30 4302 O 403.051 0.502763 -1.7419 0
M  V30 4303 C 403.099 -2.99679 -2.00561 0
M  V30 4304 O 402.203 -2.7317 -3.08953 0
M  V30 4305 H 401.544 -0.59116 -0.302367 0
M  V30 4306 H 404.074 -2.01895 -0.331598 0
M  V30 4307 H 404.084 -3.27793 -2.42932 0
M  V30 4308 H 402.759 -3.89562 -1.4565 0
M  V30 4309 H 401.336 -2.56089 -2.71059 0
M  V30 4310 N 403.521 0.559213 -1.47345 0
M  V30 4311 C 404.937 0.884943 -1.32819 0
M  V30 4312 C 405.137 1.98988 -0.317173 0
M  V30 4313 O 404.193 2.51031 0.272011 0
M  V30 4314 C 405.506 1.28007 -2.72093 0
M  V30 4315 C 407.054 1.39161 -2.80363 0
M  V30 4316 C 407.529 1.82031 -4.20272 0
M  V30 4317 N 409.02 1.89185 -4.22804 0
M  V30 4318 C 409.755 2.2368 -5.27973 0
M  V30 4319 N 409.251 2.56802 -6.43447 0
M  V30 4320 N 411.044 2.24436 -5.15349 0
M  V30 4321 H 403.195 -0.170304 -2.11716 0
M  V30 4322 H 405.458 -0.0135247 -0.947904 0
M  V30 4323 H 405.164 0.542027 -3.47498 0
M  V30 4324 H 405.038 2.23665 -3.03733 0
M  V30 4325 H 407.425 2.12048 -2.05231 0
M  V30 4326 H 407.506 0.41696 -2.52379 0
M  V30 4327 H 407.15 1.09715 -4.95908 0
M  V30 4328 H 407.08 2.80495 -4.45679 0
M  V30 4329 H 409.571 1.65982 -3.39497 0
M  V30 4330 H 409.884 2.82144 -7.19454 0
M  V30 4331 H 408.229 2.54387 -6.46771 0
M  V30 4332 H 411.42 1.97998 -4.24163 0
M  V30 4333 H 411.593 2.50989 -5.97418 0
M  V30 4334 N 404.999 1.35443 0.805782 0
M  V30 4335 C 405.962 1.28301 1.89925 0
M  V30 4336 C 406.962 0.194285 1.59622 0
M  V30 4337 O 408.152 0.448036 1.6834 0
M  V30 4338 C 405.284 0.984997 3.2636 0
M  V30 4339 H 406.477 2.2553 1.97677 0
M  V30 4340 H 404.03 1.19979 1.00173 0
M  V30 4341 H 404.765 0.016603 3.24296 0
M  V30 4342 H 404.55 1.77269 3.4974 0
M  V30 4343 H 406.04 0.960651 4.064 0
M  V30 4344 N 406.477 -1.02803 1.19454 0
M  V30 4345 C 407.424 -2.11099 0.933046 0
M  V30 4346 C 408.394 -1.65571 -0.132447 0
M  V30 4347 O 409.579 -1.90797 0.00987576 0
M  V30 4348 C 406.719 -3.41763 0.478747 0
M  V30 4349 C 405.832 -4.00833 1.6111 0
M  V30 4350 C 404.967 -5.19511 1.10825 0
M  V30 4351 C 404.006 -5.70639 2.21445 0
M  V30 4352 N 403.143 -6.80589 1.72461 0
M  V30 4353 H 407.983 -2.32804 1.86028 0
M  V30 4354 H 405.52 -1.14179 0.927441 0
M  V30 4355 H 407.478 -4.16736 0.196745 0
M  V30 4356 H 406.108 -3.20166 -0.411493 0
M  V30 4357 H 405.16 -3.23066 2.00829 0
M  V30 4358 H 406.472 -4.34794 2.4445 0
M  V30 4359 H 405.626 -6.01645 0.781533 0
M  V30 4360 H 404.365 -4.87086 0.244606 0
M  V30 4361 H 403.37 -4.87116 2.54947 0
M  V30 4362 H 404.595 -6.05102 3.08267 0
M  V30 4363 H 402.541 -6.50016 0.884056 0
M  V30 4364 H 402.458 -7.13681 2.49389 0
M  V30 4365 H 403.726 -7.66317 1.42755 0
M  V30 4366 N 407.956 -0.998596 -1.21925 0
M  V30 4367 C 409.205 -0.673085 -1.90138 0
M  V30 4368 C 409.518 0.79895 -1.78539 0
M  V30 4369 O 410.724 1.23628 -2.4172 0
M  V30 4370 C 409.18 -1.15339 -3.40918 0
M  V30 4371 C 408.788 -2.65106 -3.61141 0
M  V30 4372 C 410.532 -0.902476 -4.14796 0
M  V30 4373 C 408.439 -3.0671 -5.05651 0
M  V30 4374 H 407.369 -0.248057 -0.712028 0
M  V30 4375 H 410.02 -1.20891 -1.38049 0
M  V30 4376 H 408.402 -0.545658 -3.92223 0
M  V30 4377 H 409.576 -3.31274 -3.20304 0
M  V30 4378 H 407.891 -2.88142 -3.00605 0
M  V30 4379 H 410.488 -1.18895 -5.21314 0
M  V30 4380 H 410.831 0.161349 -4.15987 0
M  V30 4381 H 411.364 -1.47269 -3.69536 0
M  V30 4382 H 408.103 -4.12292 -5.09603 0
M  V30 4383 H 407.623 -2.45249 -5.47369 0
M  V30 4384 H 409.302 -2.9833 -5.74115 0
M  V30 4385 N 409.434 1.37368 -0.772513 0
M  V30 4386 C 410.85 1.53059 -0.452231 0
M  V30 4387 C 411.05 1.73065 1.03203 0
M  V30 4388 O 410.106 1.75245 1.81784 0
M  V30 4389 C 411.419 2.72659 -1.26797 0
M  V30 4390 C 412.967 2.86521 -1.25995 0
M  V30 4391 C 413.442 4.09105 -2.05905 0
M  V30 4392 N 414.933 4.16219 -2.03263 0
M  V30 4393 C 415.668 5.10107 -2.61875 0
M  V30 4394 N 415.164 6.09547 -3.29278 0
M  V30 4395 N 416.957 5.02596 -2.51701 0
M  V30 4396 H 409.108 1.22634 -1.7342 0
M  V30 4397 H 411.371 0.597206 -0.736239 0
M  V30 4398 H 411.077 2.64343 -2.31982 0
M  V30 4399 H 410.951 3.66363 -0.897672 0
M  V30 4400 H 413.338 2.94308 -0.216081 0
M  V30 4401 H 413.419 1.93774 -1.66989 0
M  V30 4402 H 413.063 4.0208 -3.10313 0
M  V30 4403 H 412.993 5.00968 -1.62292 0
M  V30 4404 H 415.484 3.45012 -1.54192 0
M  V30 4405 H 415.797 6.77718 -3.71374 0
M  V30 4406 H 414.142 6.09824 -3.33377 0
M  V30 4407 H 417.333 4.23855 -1.98657 0
M  V30 4408 H 417.506 5.75582 -2.97673 0
M  V30 4409 N 410.912 0.523116 1.48665 0
M  V30 4410 C 412.14 -0.0096312 2.06898 0
M  V30 4411 C 412.555 -1.28784 1.38059 0
M  V30 4412 O 411.912 -1.76453 0.465893 0
M  V30 4413 C 411.963 -0.244386 3.60673 0
M  V30 4414 O 411.684 0.983172 4.26925 0
M  V30 4415 C 413.185 -0.818289 4.35682 0
M  V30 4416 H 410.405 0.0304161 0.67031 0
M  V30 4417 H 412.949 0.726799 1.91149 0
M  V30 4418 H 411.104 -0.930847 3.76051 0
M  V30 4419 H 411.518 0.759653 5.1897 0
M  V30 4420 H 412.992 -0.93201 5.44075 0
M  V30 4421 H 413.469 -1.82153 3.99646 0
M  V30 4422 H 414.075 -0.168609 4.24966 0
M  V30 4423 N 412.39 -1.55475 0.257931 0
M  V30 4424 C 413.636 -1.99502 -0.364266 0
M  V30 4425 C 413.969 -1.146 -1.56782 0
M  V30 4426 O 413.244 -0.211968 -1.93342 0
M  V30 4427 C 413.527 -3.51917 -0.763333 0
M  V30 4428 C 413.38 -4.4758 0.446371 0
M  V30 4429 C 414.699 -4.09742 -1.60623 0
M  V30 4430 H 411.818 -0.725277 -0.130929 0
M  V30 4431 H 414.46 -1.8653 0.361446 0
M  V30 4432 H 412.61 -3.63101 -1.38166 0
M  V30 4433 H 414.282 -4.48362 1.08487 0
M  V30 4434 H 412.525 -4.19947 1.08753 0
M  V30 4435 H 413.196 -5.51862 0.123645 0
M  V30 4436 H 415.672 -4.01727 -1.08418 0
M  V30 4437 H 414.548 -5.16631 -1.85429 0
M  V30 4438 H 414.809 -3.58889 -2.58169 0
M  V30 4439 N 413.868 0.0150385 -1.57593 0
M  V30 4440 C 414.815 1.01126 -2.07466 0
M  V30 4441 C 415.785 1.35064 -0.966794 0
M  V30 4442 O 416.97 1.4516 -1.23827 0
M  V30 4443 C 414.11 2.30276 -2.57035 0
M  V30 4444 C 413.223 2.02373 -3.81666 0
M  V30 4445 C 412.358 3.25496 -4.19793 0
M  V30 4446 C 411.397 2.93211 -5.37303 0
M  V30 4447 N 410.534 4.08826 -5.70794 0
M  V30 4448 H 415.374 0.57901 -2.92321 0
M  V30 4449 H 412.911 0.27426 -1.44521 0
M  V30 4450 H 414.869 3.05757 -2.83846 0
M  V30 4451 H 413.499 2.71197 -1.75077 0
M  V30 4452 H 412.551 1.17327 -3.61854 0
M  V30 4453 H 413.863 1.74567 -4.67256 0
M  V30 4454 H 413.017 4.09333 -4.47807 0
M  V30 4455 H 411.756 3.56428 -3.32882 0
M  V30 4456 H 410.761 2.07777 -5.09027 0
M  V30 4457 H 411.986 2.63542 -6.25877 0
M  V30 4458 H 409.932 4.39682 -4.86842 0
M  V30 4459 H 409.849 3.84491 -6.50924 0
M  V30 4460 H 411.117 4.93496 -6.03392 0
M  V30 4461 N 415.346 1.54954 0.287554 0
M  V30 4462 C 416.279 1.81737 1.3801 0
M  V30 4463 C 417.257 0.669412 1.48181 0
M  V30 4464 O 418.441 0.910839 1.65033 0
M  V30 4465 C 415.568 1.96606 2.75796 0
M  V30 4466 C 414.614 3.19098 2.82982 0
M  V30 4467 S 415.447 4.7683 2.43707 0
M  V30 4468 C 416.603 4.94653 3.83496 0
M  V30 4469 H 416.836 2.74122 1.15085 0
M  V30 4470 H 414.369 1.46538 0.486403 0
M  V30 4471 H 416.327 2.05858 3.55152 0
M  V30 4472 H 414.988 1.05136 2.95982 0
M  V30 4473 H 414.181 3.26344 3.84077 0
M  V30 4474 H 413.783 3.08361 2.11635 0
M  V30 4475 H 416.075 4.79502 4.78628 0
M  V30 4476 H 417.018 5.96728 3.8121 0
M  V30 4477 H 417.426 4.2272 3.74123 0
M  V30 4478 N 416.824 -0.551391 1.4764 0
M  V30 4479 C 418.052 -1.33357 1.58189 0
M  V30 4480 C 418.467 -1.87342 0.234199 0
M  V30 4481 O 417.824 -1.65301 -0.77343 0
M  V30 4482 C 417.875 -2.49942 2.61173 0
M  V30 4483 O 417.596 -1.98187 3.90709 0
M  V30 4484 C 419.097 -3.42072 2.8196 0
M  V30 4485 H 416.317 -0.40631 0.533998 0
M  V30 4486 H 418.861 -0.667367 1.93304 0
M  V30 4487 H 417.016 -3.12489 2.28975 0
M  V30 4488 H 417.43 -2.74342 4.47031 0
M  V30 4489 H 418.904 -4.20278 3.57869 0
M  V30 4490 H 419.381 -3.95978 1.89995 0
M  V30 4491 H 419.987 -2.85336 3.15378 0
M  V30 4492 N 418.302 -1.35869 -0.798587 0
M  V30 4493 C 419.549 -1.29588 -1.55606 0
M  V30 4494 C 419.877 0.127456 -1.94082 0
M  V30 4495 O 419.132 1.09461 -1.62225 0
M  V30 4496 C 419.431 -2.1556 -2.85077 0
M  V30 4497 C 419.097 -3.6424 -2.65781 0
M  V30 4498 C 417.759 -4.04766 -2.60227 0
M  V30 4499 C 420.111 -4.58547 -2.47758 0
M  V30 4500 C 417.439 -5.37753 -2.34603 0
M  V30 4501 C 419.791 -5.91742 -2.23662 0
M  V30 4502 C 418.455 -6.31402 -2.16534 0
M  V30 4503 H 417.725 -0.474197 -0.569402 0
M  V30 4504 H 420.372 -1.67839 -0.922086 0
M  V30 4505 H 418.677 -1.70216 -3.52893 0
M  V30 4506 H 420.374 -2.08031 -3.42818 0
M  V30 4507 H 416.964 -3.32086 -2.70956 0
M  V30 4508 H 421.148 -4.28117 -2.51056 0
M  V30 4509 H 416.404 -5.67474 -2.2756 0
M  V30 4510 H 420.578 -6.6439 -2.08708 0
M  V30 4511 H 418.205 -7.34381 -1.96441 0
M  V30 4512 N 419.78 1.02168 -1.19998 0
M  V30 4513 C 421.026 1.75945 -1.00852 0
M  V30 4514 C 421.359 1.88702 0.458828 0
M  V30 4515 O 420.634 1.40911 1.34069 0
M  V30 4516 C 420.917 3.18154 -1.68671 0
M  V30 4517 C 420.77 3.13224 -3.22817 0
M  V30 4518 C 422.089 4.16711 -1.41561 0
M  V30 4519 H 419.208 0.638673 -0.367785 0
M  V30 4520 H 421.85 1.19222 -1.4794 0
M  V30 4521 H 420 3.66586 -1.28636 0
M  V30 4522 H 421.672 2.72635 -3.72112 0
M  V30 4523 H 419.915 2.50751 -3.53986 0
M  V30 4524 H 420.586 4.13728 -3.65422 0
M  V30 4525 H 423.062 3.76913 -1.76284 0
M  V30 4526 H 421.938 5.14391 -1.91553 0
M  V30 4527 H 422.199 4.40774 -0.342193 0
M  V30 4528 N 421.258 1.00505 1.21394 0
M  V30 4529 C 422.507 0.683159 1.89778 0
M  V30 4530 C 422.82 -0.789471 1.7896 0
M  V30 4531 O 424.026 -1.22344 2.42372 0
M  V30 4532 C 422.482 1.17146 3.40301 0
M  V30 4533 C 422.09 2.67017 3.5973 0
M  V30 4534 C 423.834 0.924461 4.14311 0
M  V30 4535 C 421.741 3.09387 5.04017 0
M  V30 4536 H 420.671 0.25183 0.710702 0
M  V30 4537 H 423.322 1.21622 1.37406 0
M  V30 4538 H 421.704 0.566451 3.91928 0
M  V30 4539 H 422.878 3.32968 3.18542 0
M  V30 4540 H 421.193 2.89732 2.99073 0
M  V30 4541 H 423.79 1.21658 5.20676 0
M  V30 4542 H 424.133 -0.139286 4.16067 0
M  V30 4543 H 424.666 1.49226 3.6875 0
M  V30 4544 H 421.405 4.14989 5.07409 0
M  V30 4545 H 420.925 2.48149 5.46061 0
M  V30 4546 H 422.604 3.01371 5.72525 0
M  V30 4547 N 422.737 -1.36956 0.779787 0
M  V30 4548 C 423.983 -1.99787 0.348281 0
M  V30 4549 C 424.316 -1.61756 -1.07465 0
M  V30 4550 O 423.591 -0.867639 -1.74075 0
M  V30 4551 C 423.874 -3.56597 0.50104 0
M  V30 4552 C 423.727 -4.04513 1.96697 0
M  V30 4553 C 425.046 -4.40008 -0.0898097 0
M  V30 4554 H 422.165 -0.725796 0.128022 0
M  V30 4555 H 424.807 -1.62514 0.984331 0
M  V30 4556 H 422.957 -3.88479 -0.0404347 0
M  V30 4557 H 424.629 -3.83161 2.56876 0
M  V30 4558 H 422.872 -3.56408 2.47297 0
M  V30 4559 H 423.543 -5.1352 2.02486 0
M  V30 4560 H 426.019 -4.14431 0.372293 0
M  V30 4561 H 424.895 -5.4888 0.0471605 0
M  V30 4562 H 425.156 -4.26035 -1.18096 0
M  V30 4563 N 424.215 -0.530993 -1.48385 0
M  V30 4564 C 425.145 0.219985 -2.32461 0
M  V30 4565 C 426.126 0.934111 -1.42156 0
M  V30 4566 O 427.311 0.919694 -1.71042 0
M  V30 4567 C 424.441 1.26674 -3.23375 0
M  V30 4568 C 423.395 0.67069 -4.22712 0
M  V30 4569 C 422.721 1.82017 -5.02766 0
M  V30 4570 C 424.021 -0.358268 -5.2107 0
M  V30 4571 H 425.715 -0.48187 -2.95497 0
M  V30 4572 H 423.261 -0.233182 -1.42099 0
M  V30 4573 H 425.214 1.80006 -3.81019 0
M  V30 4574 H 423.938 1.99818 -2.58341 0
M  V30 4575 H 422.597 0.158878 -3.66256 0
M  V30 4576 H 422.245 2.54002 -4.34157 0
M  V30 4577 H 421.945 1.42727 -5.70003 0
M  V30 4578 H 423.469 2.35725 -5.63264 0
M  V30 4579 H 424.883 0.0880081 -5.73232 0
M  V30 4580 H 423.28 -0.66861 -5.96364 0
M  V30 4581 H 424.35 -1.26367 -4.68145 0
M  V30 4582 N 425.693 1.55336 -0.266172 0
M  V30 4583 C 426.656 2.20878 0.612001 0
M  V30 4584 C 427.656 1.18388 1.08816 0
M  V30 4585 O 428.846 1.4335 0.989774 0
M  V30 4586 C 425.978 2.86765 1.84332 0
M  V30 4587 H 427.171 2.99873 0.0398718 0
M  V30 4588 H 424.724 1.56291 -0.0167309 0
M  V30 4589 H 425.459 2.11759 2.45619 0
M  V30 4590 H 425.244 3.61862 1.5099 0
M  V30 4591 H 426.734 3.36867 2.46801 0
M  V30 4592 N 427.171 -0.0066808 1.57599 0
M  V30 4593 C 428.401 -0.703066 1.94269 0
M  V30 4594 C 428.809 -1.68206 0.866222 0
M  V30 4595 O 428.152 -1.82966 -0.164087 0
M  V30 4596 C 428.214 -1.49616 3.26887 0
M  V30 4597 C 427.878 -0.679494 4.5192 0
M  V30 4598 C 428.875 0.0299508 5.19891 0
M  V30 4599 C 426.56 -0.627433 4.98366 0
M  V30 4600 C 428.554 0.780514 6.32603 0
M  V30 4601 C 426.241 0.126861 6.10968 0
M  V30 4602 C 427.239 0.829574 6.77943 0
M  V30 4603 O 426.927 1.57157 7.88389 0
M  V30 4604 H 426.659 -0.201217 0.645359 0
M  V30 4605 H 429.213 0.0385326 2.05364 0
M  V30 4606 H 427.443 -2.28209 3.12182 0
M  V30 4607 H 429.132 -2.07726 3.48719 0
M  V30 4608 H 429.898 -0.00115963 4.85 0
M  V30 4609 H 425.777 -1.16392 4.46065 0
M  V30 4610 H 429.321 1.32954 6.84813 0
M  V30 4611 H 425.218 0.159815 6.45302 0
M  V30 4612 H 425.986 1.48758 8.04868 0
M  V30 4613 N 428.649 -1.55105 -0.279332 0
M  V30 4614 C 429.898 -1.74618 -1.00952 0
M  V30 4615 C 430.211 -0.551096 -1.87676 0
M  V30 4616 O 431.417 -0.628507 -2.64125 0
M  V30 4617 C 429.873 -3.09025 -1.84476 0
M  V30 4618 C 429.481 -4.36081 -1.0265 0
M  V30 4619 C 431.225 -3.37891 -2.56963 0
M  V30 4620 C 429.132 -5.6153 -1.85576 0
M  V30 4621 H 428.062 -0.650868 -0.38064 0
M  V30 4622 H 430.713 -1.81569 -0.265475 0
M  V30 4623 H 429.095 -2.96095 -2.62952 0
M  V30 4624 H 430.269 -4.59909 -0.286354 0
M  V30 4625 H 428.584 -4.14312 -0.416464 0
M  V30 4626 H 431.181 -4.28822 -3.19399 0
M  V30 4627 H 431.524 -2.57737 -3.26921 0
M  V30 4628 H 432.057 -3.5189 -1.85522 0
M  V30 4629 H 428.796 -6.44413 -1.2005 0
M  V30 4630 H 428.316 -5.41854 -2.57204 0
M  V30 4631 H 429.995 -5.99594 -2.43096 0
M  V30 4632 N 430.127 0.543554 -1.4793 0
M  V30 4633 C 431.09 1.63156 -1.60975 0
M  V30 4634 C 432.09 1.53346 -0.483899 0
M  V30 4635 O 433.28 1.5726 -0.749339 0
M  V30 4636 C 430.412 3.02743 -1.56716 0
M  V30 4637 H 431.605 1.52934 -2.57975 0
M  V30 4638 H 429.158 0.764557 -1.36324 0
M  V30 4639 H 429.893 3.18484 -0.611418 0
M  V30 4640 H 429.678 3.11272 -2.38438 0
M  V30 4641 H 431.168 3.81871 -1.6901 0
M  V30 4642 N 431.605 1.3629 0.791371 0
M  V30 4643 C 432.845 1.31792 1.56238 0
M  V30 4644 C 433.209 -0.102237 1.91728 0
M  V30 4645 O 434.41 -0.271759 2.67423 0
M  V30 4646 C 432.681 2.21303 2.80642 0
M  V30 4647 S 434.24 2.34468 3.70904 0
M  V30 4648 H 431.058 0.468141 0.535131 0
M  V30 4649 H 433.66 1.71841 0.932246 0
M  V30 4650 H 432.364 3.23439 2.52617 0
M  V30 4651 H 431.895 1.82266 3.4863 0
M  V30 4652 H 433.91 1.54074 4.71673 0
M  V30 4653 N 433.083 -1.0153 1.20538 0
M  V30 4654 C 434.329 -1.75517 1.02787 0
M  V30 4655 C 434.684 -1.87411 -0.435289 0
M  V30 4656 O 433.977 -1.38982 -1.31889 0
M  V30 4657 C 434.171 -3.17213 1.64654 0
M  V30 4658 C 434 -3.19134 3.16834 0
M  V30 4659 C 432.77 -3.26301 3.85818 0
M  V30 4660 C 434.968 -3.05077 4.14044 0
M  V30 4661 N 432.95 -3.17739 5.25276 0
M  V30 4662 C 434.321 -3.04299 5.40187 0
M  V30 4663 C 436.376 -2.89303 4.05226 0
M  V30 4664 C 435.079 -2.89365 6.58529 0
M  V30 4665 C 437.105 -2.75723 5.23193 0
M  V30 4666 C 436.467 -2.75612 6.48242 0
M  V30 4667 H 432.566 -0.652919 0.430373 0
M  V30 4668 H 435.15 -1.20755 1.52729 0
M  V30 4669 H 433.321 -3.70266 1.17294 0
M  V30 4670 H 435.053 -3.79637 1.40208 0
M  V30 4671 H 431.808 -3.33078 3.36684 0
M  V30 4672 H 432.232 -3.16829 5.98288 0
M  V30 4673 H 436.874 -2.88201 3.09354 0
M  V30 4674 H 434.592 -2.89216 7.54573 0
M  V30 4675 H 438.178 -2.64533 5.18183 0
M  V30 4676 H 437.058 -2.65224 7.37988 0
M  V30 4677 N 434.561 -1.01147 -1.20859 0
M  V30 4678 C 435.524 -0.582224 -2.21682 0
M  V30 4679 C 436.524 0.344887 -1.57058 0
M  V30 4680 O 437.714 0.134281 -1.73682 0
M  V30 4681 C 434.846 0.150496 -3.40568 0
M  V30 4682 H 436.039 -1.47408 -2.61172 0
M  V30 4683 H 433.592 -0.800695 -1.34233 0
M  V30 4684 H 434.327 1.0575 -3.06574 0
M  V30 4685 H 434.112 -0.515444 -3.88697 0
M  V30 4686 H 435.602 0.438344 -4.15293 0
M  V30 4687 N 436.039 1.36541 -0.78704 0
M  V30 4688 C 437.45 1.81873 -0.421807 0
M  V30 4689 C 437.801 1.65487 1.05397 0
M  V30 4690 O 436.926 1.17448 1.81755 0
M  V30 4691 C 437.521 3.30192 -0.758841 0
M  V30 4692 C 436.08 3.73743 -0.446468 0
M  V30 4693 C 435.227 2.58844 -0.994728 0
M  V30 4694 H 438.178 1.24796 -0.98039 0
M  V30 4695 H 438.199 3.80468 -0.0490648 0
M  V30 4696 H 437.711 3.42087 -1.83299 0
M  V30 4697 H 435.812 3.6741 0.619739 0
M  V30 4698 H 435.925 4.69272 -0.965415 0
M  V30 4699 H 434.289 2.51245 -0.418087 0
M  V30 4700 H 435.072 2.73525 -2.07458 0
M  V30 4701 N 437.518 0.538854 1.48102 0
M  V30 4702 C 438.765 0.0080018 2.02498 0
M  V30 4703 C 439.093 -1.33437 1.41509 0
M  V30 4704 O 438.348 -1.87709 0.553507 0
M  V30 4705 C 438.647 -0.153808 3.57069 0
M  V30 4706 C 438.313 1.11533 4.36888 0
M  V30 4707 C 436.975 1.46314 4.58417 0
M  V30 4708 C 439.327 1.95718 4.83057 0
M  V30 4709 C 436.655 2.6516 5.23361 0
M  V30 4710 C 439.007 3.13751 5.49312 0
M  V30 4711 C 437.671 3.48866 5.69077 0
M  V30 4712 H 436.941 0.00292807 0.740994 0
M  V30 4713 H 439.588 0.706668 1.77984 0
M  V30 4714 H 437.893 -0.935309 3.80472 0
M  V30 4715 H 439.59 -0.579607 3.96789 0
M  V30 4716 H 436.18 0.834484 4.20398 0
M  V30 4717 H 440.364 1.70158 4.66219 0
M  V30 4718 H 435.62 2.92558 5.36861 0
M  V30 4719 H 439.794 3.79282 5.84053 0
M  V30 4720 H 437.421 4.41054 6.19173 0
M  V30 4721 N 438.996 -1.55193 0.274407 0
M  V30 4722 C 440.243 -1.99581 -0.342579 0
M  V30 4723 C 440.571 -1.1628 -1.55914 0
M  V30 4724 O 439.826 -0.22029 -1.94456 0
M  V30 4725 C 440.125 -3.49019 -0.769458 0
M  V30 4726 C 439.791 -4.49598 0.342389 0
M  V30 4727 C 438.453 -4.76821 0.647686 0
M  V30 4728 C 440.805 -5.0964 1.09163 0
M  V30 4729 C 438.133 -5.61354 1.70581 0
M  V30 4730 C 440.485 -5.95323 2.13948 0
M  V30 4731 C 439.149 -6.20867 2.45113 0
M  V30 4732 H 438.419 -0.730319 -0.125358 0
M  V30 4733 H 441.066 -1.87529 0.387971 0
M  V30 4734 H 439.371 -3.58544 -1.57967 0
M  V30 4735 H 441.068 -3.8077 -1.25757 0
M  V30 4736 H 437.658 -4.28496 0.094318 0
M  V30 4737 H 441.842 -4.88632 0.869024 0
M  V30 4738 H 437.098 -5.79392 1.9523 0
M  V30 4739 H 441.272 -6.40881 2.72478 0
M  V30 4740 H 438.899 -6.86162 3.27239 0
M  V30 4741 N 440.474 -0.00167713 -1.576 0
M  V30 4742 C 441.699 0.69739 -1.95323 0
M  V30 4743 C 442.124 1.6642 -0.876706 0
M  V30 4744 O 441.482 1.80548 0.165007 0
M  V30 4745 C 441.53 1.40403 -3.32144 0
M  V30 4746 O 440.634 2.5185 -3.26566 0
M  V30 4747 H 439.975 0.185373 -0.637599 0
M  V30 4748 H 442.505 -0.0553665 -2.04525 0
M  V30 4749 H 442.515 1.76707 -3.67748 0
M  V30 4750 H 441.19 0.695167 -4.10049 0
M  V30 4751 H 439.767 2.17861 -3.0264 0
M  V30 4752 N 441.952 1.55251 0.271103 0
M  V30 4753 C 443.198 1.76207 1.00394 0
M  V30 4754 C 443.531 0.562604 1.85872 0
M  V30 4755 O 442.806 -0.439785 1.89463 0
M  V30 4756 C 443.089 3.06828 1.8849 0
M  V30 4757 C 442.942 4.37134 1.05992 0
M  V30 4758 C 444.261 3.33503 2.87165 0
M  V30 4759 H 441.38 0.641086 0.363562 0
M  V30 4760 H 444.022 1.87982 0.276189 0
M  V30 4761 H 442.172 2.96921 2.5054 0
M  V30 4762 H 443.844 4.59001 0.459978 0
M  V30 4763 H 442.087 4.32275 0.363443 0
M  V30 4764 H 442.758 5.2486 1.70955 0
M  V30 4765 H 445.234 3.43215 2.3525 0
M  V30 4766 H 444.11 4.2616 3.45946 0
M  V30 4767 H 444.371 2.53235 3.62387 0
M  V30 4768 N 443.43 -0.535701 1.48216 0
M  V30 4769 C 444.362 -1.65662 1.58394 0
M  V30 4770 C 445.375 -1.5591 0.468607 0
M  V30 4771 O 446.564 -1.62475 0.7392 0
M  V30 4772 C 443.664 -3.04276 1.4923 0
M  V30 4773 C 442.837 -3.39567 2.75705 0
M  V30 4774 C 441.896 -4.57436 2.60075 0
M  V30 4775 O 440.922 -4.60942 3.33948 0
M  V30 4776 N 442.124 -5.55259 1.69315 0
M  V30 4777 H 444.889 -1.5737 2.55058 0
M  V30 4778 H 442.45 -0.722845 1.44867 0
M  V30 4779 H 444.442 -3.80994 1.36477 0
M  V30 4780 H 443.012 -3.06677 0.605632 0
M  V30 4781 H 442.232 -2.52083 3.03064 0
M  V30 4782 H 443.52 -3.59929 3.59623 0
M  V30 4783 H 442.918 -5.552 1.08489 0
M  V30 4784 H 441.475 -6.31218 1.62504 0
M  V30 4785 N 444.908 -1.36708 -0.784132 0
M  V30 4786 C 445.841 -1.25827 -1.90375 0
M  V30 4787 C 446.819 -0.141331 -1.61985 0
M  V30 4788 O 448.003 -0.313389 -1.85877 0
M  V30 4789 C 445.13 -0.942621 -3.25319 0
M  V30 4790 C 444.176 -2.07474 -3.72635 0
M  V30 4791 S 445.009 -3.69317 -3.8777 0
M  V30 4792 C 446.165 -3.39876 -5.25581 0
M  V30 4793 H 446.398 -2.20593 -1.99314 0
M  V30 4794 H 443.931 -1.22186 -0.943926 0
M  V30 4795 H 445.889 -0.767321 -4.03265 0
M  V30 4796 H 444.55 -0.0126566 -3.14097 0
M  V30 4797 H 443.743 -1.80858 -4.70432 0
M  V30 4798 H 443.345 -2.20953 -3.01754 0
M  V30 4799 H 445.637 -2.94097 -6.10339 0
M  V30 4800 H 446.58 -4.36956 -5.57203 0
M  V30 4801 H 446.988 -2.75098 -4.92931 0
M  V30 4802 N 446.386 1.0089 -1.21074 0
M  V30 4803 C 447.632 1.7497 -1.03717 0
M  V30 4804 C 447.987 1.8764 0.425344 0
M  V30 4805 O 447.28 1.39679 1.3115 0
M  V30 4806 C 447.474 3.16335 -1.66334 0
M  V30 4807 C 447.303 3.17449 -3.18522 0
M  V30 4808 C 446.073 3.2425 -3.87543 0
M  V30 4809 C 448.271 3.02877 -4.15656 0
M  V30 4810 N 446.253 3.14949 -5.26954 0
M  V30 4811 C 447.624 3.0143 -5.41793 0
M  V30 4812 C 449.679 2.8715 -4.06755 0
M  V30 4813 C 448.382 2.85869 -6.60054 0
M  V30 4814 C 450.408 2.72944 -5.24648 0
M  V30 4815 C 449.77 2.72171 -6.49694 0
M  V30 4816 H 445.869 0.650627 -0.43383 0
M  V30 4817 H 448.453 1.19944 -1.53367 0
M  V30 4818 H 446.624 3.69638 -1.19256 0
M  V30 4819 H 448.356 3.78888 -1.42219 0
M  V30 4820 H 445.111 3.31288 -3.38446 0
M  V30 4821 H 445.535 3.13651 -5.9996 0
M  V30 4822 H 450.177 2.86557 -3.10878 0
M  V30 4823 H 447.895 2.8521 -7.56096 0
M  V30 4824 H 451.481 2.61782 -5.19578 0
M  V30 4825 H 450.361 2.61307 -7.39384 0
M  V30 4826 N 447.864 1.01787 1.20321 0
M  V30 4827 C 449.089 0.727009 1.9424 0
M  V30 4828 C 449.514 -0.706179 1.74341 0
M  V30 4829 O 448.872 -1.48609 1.03852 0
M  V30 4830 C 448.92 1.06958 3.44372 0
M  V30 4831 O 448.024 0.181983 4.11998 0
M  V30 4832 H 447.365 0.269626 0.606793 0
M  V30 4833 H 449.895 1.36158 1.52716 0
M  V30 4834 H 449.905 1.02182 3.94997 0
M  V30 4835 H 448.58 2.11378 3.58179 0
M  V30 4836 H 447.157 0.287378 3.71791 0
M  V30 4837 N 449.342 -1.36122 0.79427 0
M  V30 4838 C 450.588 -1.99406 0.369452 0
M  V30 4839 C 450.921 -1.62886 -1.05743 0
M  V30 4840 O 450.196 -0.886053 -1.73145 0
M  V30 4841 C 450.479 -3.56046 0.538833 0
M  V30 4842 C 450.332 -4.02404 2.00976 0
M  V30 4843 C 451.651 -4.40079 -0.0431359 0
M  V30 4844 H 448.77 -0.724397 0.135712 0
M  V30 4845 H 451.412 -1.61461 1.00151 0
M  V30 4846 H 449.562 -3.885 0.000771004 0
M  V30 4847 H 451.234 -3.80415 2.60926 0
M  V30 4848 H 449.477 -3.53765 2.51063 0
M  V30 4849 H 450.148 -5.11344 2.07922 0
M  V30 4850 H 452.624 -4.14013 0.416228 0
M  V30 4851 H 451.5 -5.48799 0.105374 0
M  V30 4852 H 451.761 -4.27264 -1.13571 0
M  V30 4853 N 450.82 -0.546701 -1.47814 0
M  V30 4854 C 452.066 -0.0269594 -2.03382 0
M  V30 4855 C 452.421 1.30406 -1.41464 0
M  V30 4856 O 451.714 1.8332 -0.557151 0
M  V30 4857 C 451.908 0.134869 -3.57145 0
M  V30 4858 C 451.737 -1.17891 -4.33972 0
M  V30 4859 C 450.507 -1.74336 -4.74273 0
M  V30 4860 C 452.705 -2.09361 -4.69758 0
M  V30 4861 N 450.687 -2.99829 -5.35701 0
M  V30 4862 C 452.058 -3.19431 -5.31379 0
M  V30 4863 C 454.113 -2.09484 -4.51687 0
M  V30 4864 C 452.816 -4.2971 -5.76838 0
M  V30 4865 C 454.842 -3.18767 -4.98138 0
M  V30 4866 C 454.204 -4.27557 -5.59799 0
M  V30 4867 H 450.303 -0.0517733 -0.780284 0
M  V30 4868 H 452.887 -0.731673 -1.80429 0
M  V30 4869 H 451.058 0.80869 -3.79888 0
M  V30 4870 H 452.79 0.655726 -3.99352 0
M  V30 4871 H 449.545 -1.28265 -4.559 0
M  V30 4872 H 449.969 -3.63765 -5.70968 0
M  V30 4873 H 454.611 -1.26663 -4.03381 0
M  V30 4874 H 452.329 -5.13297 -6.24141 0
M  V30 4875 H 455.915 -3.19937 -4.85934 0
M  V30 4876 H 454.795 -5.10725 -5.95088 0
M  V30 4877 N 452.299 1.55045 -0.282633 0
M  V30 4878 C 453.576 1.9179 0.384166 0
M  V30 4879 C 453.956 1.20778 1.73136 0
M  V30 4880 O 453.304 0.33719 2.25998 0
M  V30 4881 C 453.514 3.45149 0.517014 0
M  V30 4882 C 454.862 4.17064 0.796427 0
M  V30 4883 O 455.886 3.51084 0.601535 0
M  V30 4884 O 454.745 5.33837 1.16962 0
M  V30 4885 H 451.839 0.799483 0.211558 0
M  V30 4886 H 454.385 1.66474 -0.32934 0
M  V30 4887 H 453.157 3.88922 -0.430772 0
M  V30 4888 H 452.78 3.76443 1.2797 0
M  V30 4889 N 453.777 0.010035 1.57597 0
M  V30 4890 C 454.724 -0.978122 2.09049 0
M  V30 4891 C 455.694 -1.33509 0.988159 0
M  V30 4892 O 456.879 -1.43172 1.26121 0
M  V30 4893 C 454.019 -2.26158 2.60666 0
M  V30 4894 C 453.132 -1.96275 3.84838 0
M  V30 4895 C 452.267 -3.18776 4.24918 0
M  V30 4896 C 451.306 -2.84625 5.41899 0
M  V30 4897 N 450.443 -3.99693 5.77226 0
M  V30 4898 H 455.283 -0.532431 2.93205 0
M  V30 4899 H 452.82 -0.251234 1.44939 0
M  V30 4900 H 454.778 -3.01202 2.88675 0
M  V30 4901 H 453.408 -2.68378 1.79369 0
M  V30 4902 H 452.46 -1.11555 3.63675 0
M  V30 4903 H 453.772 -1.67111 4.69974 0
M  V30 4904 H 452.926 -4.02157 4.54262 0
M  V30 4905 H 451.665 -3.51087 3.38511 0
M  V30 4906 H 450.67 -1.99653 5.12268 0
M  V30 4907 H 451.895 -2.53551 6.29991 0
M  V30 4908 H 449.841 -4.31882 4.93776 0
M  V30 4909 H 449.758 -3.74087 6.56959 0
M  V30 4910 H 451.026 -4.83834 6.11167 0
M  V30 4911 N 455.255 -1.55392 -0.262866 0
M  V30 4912 C 456.203 -1.8977 -1.345 0
M  V30 4913 C 457.197 -0.775063 -1.50629 0
M  V30 4914 O 458.403 -0.959519 -1.52293 0
M  V30 4915 H 454.778 -0.602467 -0.450041 0
M  V30 4916 H 456.749 -2.80147 -1.02762 0
M  V30 4917 C 455.498 -2.19501 -2.69657 0
M  V30 4918 H 454.821 -3.05378 -2.5804 0
M  V30 4919 H 456.261 -2.47469 -3.44289 0
M  V30 4920 C 454.72 -1.00597 -3.21531 0
M  V30 4921 O 455.25 -0.245768 -4.00947 0
M  V30 4922 N 453.456 -0.800911 -2.79345 0
M  V30 4923 H 453.003 -1.42079 -2.14875 0
M  V30 4924 H 452.961 -0.00697996 -3.14399 0
M  V30 4925 N 456.733 0.527833 -1.48498 0
M  V30 4926 C 457.696 1.61439 -1.62696 0
M  V30 4927 C 458.696 1.52824 -0.500136 0
M  V30 4928 O 459.886 1.56456 -0.765976 0
M  V30 4929 C 457.018 3.01063 -1.59918 0
M  V30 4930 H 458.211 1.50189 -2.59583 0
M  V30 4931 H 455.764 0.750055 -1.37127 0
M  V30 4932 H 456.499 3.17818 -0.645163 0
M  V30 4933 H 456.284 3.08725 -2.41726 0
M  V30 4934 H 457.774 3.80057 -1.73051 0
M  V30 4935 N 458.211 1.37122 0.776871 0
M  V30 4936 C 459.622 1.28667 1.35284 0
M  V30 4937 C 459.973 -0.0680035 1.96082 0
M  V30 4938 O 459.098 -0.969743 1.93455 0
M  V30 4939 C 459.693 2.32997 2.45963 0
M  V30 4940 C 458.252 2.28191 2.99342 0
M  V30 4941 C 457.399 2.17101 1.72517 0
M  V30 4942 H 460.35 1.47819 0.577527 0
M  V30 4943 H 460.371 1.97366 3.2531 0
M  V30 4944 H 459.883 3.3158 2.01684 0
M  V30 4945 H 457.984 1.33115 3.4801 0
M  V30 4946 H 458.097 3.21397 3.55304 0
M  V30 4947 H 456.461 1.63562 1.95242 0
M  V30 4948 H 457.244 3.17591 1.30348 0
M  V30 4949 N 459.689 -1.00246 1.21608 0
M  V30 4950 C 460.966 -1.71336 0.943568 0
M  V30 4951 C 461.346 -2.03972 -0.543943 0
M  V30 4952 O 460.694 -1.71545 -1.50946 0
M  V30 4953 C 460.904 -2.97094 1.83128 0
M  V30 4954 C 462.252 -3.70071 2.08165 0
M  V30 4955 O 463.276 -3.07081 1.80498 0
M  V30 4956 O 462.135 -4.83376 2.54971 0
M  V30 4957 H 459.229 -0.747386 0.354039 0
M  V30 4958 H 461.775 -1.05967 1.32549 0
M  V30 4959 H 460.547 -2.69407 2.83788 0
M  V30 4960 H 460.17 -3.70204 1.45034 0
M  V30 4961 N 461.167 -1.02423 -1.1978 0
M  V30 4962 C 462.077 -0.610919 -2.26506 0
M  V30 4963 C 463.093 0.355152 -1.70337 0
M  V30 4964 O 464.269 0.214195 -2.00258 0
M  V30 4965 C 461.334 0.0365921 -3.46681 0
M  V30 4966 C 460.395 -0.976389 -4.18049 0
M  V30 4967 C 459.628 -0.359683 -5.32487 0
M  V30 4968 O 459.851 0.838601 -5.64202 0
M  V30 4969 O 458.785 -1.08022 -5.92127 0
M  V30 4970 H 462.611 -1.49965 -2.64091 0
M  V30 4971 H 460.196 -0.794156 -1.26545 0
M  V30 4972 H 462.078 0.39786 -4.19518 0
M  V30 4973 H 460.753 0.899398 -3.10954 0
M  V30 4974 H 459.66 -1.38916 -3.47352 0
M  V30 4975 H 460.993 -1.80941 -4.57735 0
M  V30 4976 N 462.645 1.35699 -0.801477 0
M  V30 4977 C 463.922 1.9324 -0.302937 0
M  V30 4978 C 464.302 1.73209 1.20672 0
M  V30 4979 O 463.65 1.09809 2.00385 0
M  V30 4980 C 463.86 3.41728 -0.708747 0
M  V30 4981 C 465.208 4.18868 -0.695328 0
M  V30 4982 O 466.232 3.5022 -0.649971 0
M  V30 4983 O 465.091 5.41342 -0.749081 0
M  V30 4984 H 462.185 0.82331 -0.0780367 0
M  V30 4985 H 464.731 1.44806 -0.884832 0
M  V30 4986 H 463.503 3.50015 -1.74944 0
M  V30 4987 H 463.126 3.97471 -0.101384 0
M  V30 4988 N 464.123 0.554532 1.47522 0
M  V30 4989 C 465.348 0.0322661 2.07375 0
M  V30 4990 C 465.773 -1.25079 1.40488 0
M  V30 4991 O 465.131 -1.74859 0.47896 0
M  V30 4992 C 465.179 -0.149397 3.6029 0
M  V30 4993 O 464.283 -1.21259 3.9417 0
M  V30 4994 H 463.624 0.0501228 0.662106 0
M  V30 4995 H 466.154 0.769452 1.8958 0
M  V30 4996 H 466.164 -0.364437 4.06369 0
M  V30 4997 H 464.839 0.787743 4.08372 0
M  V30 4998 H 463.416 -0.97825 3.5984 0
M  V30 4999 N 465.601 -1.54893 0.290851 0
M  V30 5000 C 466.829 -2.04343 -0.324288 0
M  V30 5001 C 467.244 -1.16859 -1.48289 0
M  V30 5002 O 466.601 -0.192018 -1.81487 0
M  V30 5003 C 466.652 -3.52756 -0.79026 0
M  V30 5004 O 466.373 -4.36913 0.322213 0
M  V30 5005 C 467.874 -4.18161 -1.4716 0
M  V30 5006 H 465.094 -0.667135 -0.0719173 0
M  V30 5007 H 467.638 -1.99981 0.427529 0
M  V30 5008 H 465.793 -3.57511 -1.49213 0
M  V30 5009 H 466.207 -5.24486 -0.0387372 0
M  V30 5010 H 467.681 -5.23562 -1.7489 0
M  V30 5011 H 468.158 -3.67282 -2.40834 0
M  V30 5012 H 468.764 -4.17454 -0.813178 0
M  V30 5013 N 467.08 -0.0183926 -1.57589 0
M  V30 5014 C 468.028 0.985111 -2.10709 0
M  V30 5015 C 469.022 1.34397 -1.0312 0
M  V30 5016 O 470.228 1.32746 -1.21567 0
M  V30 5017 H 466.603 0.335418 -0.673052 0
M  V30 5018 H 468.574 0.511689 -2.9398 0
M  V30 5019 C 467.323 2.26202 -2.64061 0
M  V30 5020 H 466.646 1.9946 -3.4649 0
M  V30 5021 H 468.086 2.94652 -3.04887 0
M  V30 5022 C 466.545 2.98444 -1.5631 0
M  V30 5023 O 467.075 3.90142 -0.956674 0
M  V30 5024 N 465.281 2.6059 -1.28612 0
M  V30 5025 H 464.828 1.86101 -1.78112 0
M  V30 5026 H 464.786 3.09238 -0.567406 0
M  V30 5027 N 468.558 1.5553 0.254621 0
M  V30 5028 C 469.804 1.77262 0.985193 0
M  V30 5029 C 470.137 0.582286 1.85265 0
M  V30 5030 O 469.412 -0.419666 1.89919 0
M  V30 5031 C 469.695 3.0881 1.85225 0
M  V30 5032 C 469.548 4.38233 1.0135 0
M  V30 5033 C 470.867 3.3653 2.83612 0
M  V30 5034 H 467.986 0.644906 0.356742 0
M  V30 5035 H 470.628 1.88264 0.256236 0
M  V30 5036 H 468.778 2.99562 2.47376 0
M  V30 5037 H 470.45 4.59463 0.411269 0
M  V30 5038 H 468.693 4.32636 0.317574 0
M  V30 5039 H 469.364 5.26644 1.65379 0
M  V30 5040 H 471.84 3.45691 2.31596 0
M  V30 5041 H 470.716 4.29805 3.41407 0
M  V30 5042 H 470.977 2.57064 3.59681 0
M  V30 5043 N 470.036 -0.519951 1.48776 0
M  V30 5044 C 470.999 -1.60574 1.6355 0
M  V30 5045 C 471.999 -1.52557 0.508234 0
M  V30 5046 O 473.189 -1.56047 0.774262 0
M  V30 5047 C 470.321 -3.00211 1.61512 0
M  V30 5048 H 471.514 -1.4881 2.60376 0
M  V30 5049 H 469.067 -0.742772 1.37523 0
M  V30 5050 H 469.802 -3.17471 0.662009 0
M  V30 5051 H 469.587 -3.07439 2.43359 0
M  V30 5052 H 471.077 -3.79134 1.75064 0
M  V30 5053 N 471.514 -1.37532 -0.769588 0
M  V30 5054 C 472.761 -1.3286 -1.52822 0
M  V30 5055 C 473.089 0.0862597 -1.94309 0
M  V30 5056 O 472.344 1.05995 -1.6451 0
M  V30 5057 C 472.643 -2.21558 -2.8044 0
M  V30 5058 C 472.309 -3.69796 -2.57996 0
M  V30 5059 C 470.971 -4.10194 -2.51583 0
M  V30 5060 C 473.323 -4.63699 -2.37976 0
M  V30 5061 C 470.651 -5.42608 -2.23144 0
M  V30 5062 C 473.003 -5.96353 -2.1106 0
M  V30 5063 C 471.667 -6.35853 -2.03093 0
M  V30 5064 H 470.937 -0.486168 -0.559215 0
M  V30 5065 H 473.584 -1.69757 -0.886277 0
M  V30 5066 H 471.889 -1.77663 -3.49204 0
M  V30 5067 H 473.586 -2.15256 -3.38328 0
M  V30 5068 H 470.176 -3.37759 -2.63851 0
M  V30 5069 H 474.36 -4.33346 -2.41919 0
M  V30 5070 H 469.616 -5.72173 -2.15472 0
M  V30 5071 H 473.79 -6.68667 -1.94568 0
M  V30 5072 H 471.417 -7.38382 -1.8082 0
M  V30 5073 N 472.992 0.995999 -1.22138 0
M  V30 5074 C 474.22 1.77066 -1.07029 0
M  V30 5075 C 474.635 1.8495 0.379357 0
M  V30 5076 O 473.992 1.3174 1.26297 0
M  V30 5077 C 474.043 3.20533 -1.67155 0
M  V30 5078 O 473.764 3.13082 -3.06449 0
M  V30 5079 C 475.265 4.14461 -1.5728 0
M  V30 5080 H 472.485 0.556179 -0.375374 0
M  V30 5081 H 475.029 1.25238 -1.61666 0
M  V30 5082 H 473.184 3.6944 -1.16589 0
M  V30 5083 H 473.598 4.03283 -3.35355 0
M  V30 5084 H 475.072 5.1289 -2.04078 0
M  V30 5085 H 475.549 4.36005 -0.528795 0
M  V30 5086 H 476.155 3.71449 -2.07136 0
M  V30 5087 N 474.47 1.03057 1.19235 0
M  V30 5088 C 475.719 0.72326 1.88287 0
M  V30 5089 C 476.032 -0.751333 1.80594 0
M  V30 5090 O 477.238 -1.17176 2.44912 0
M  V30 5091 C 475.694 1.24338 3.3774 0
M  V30 5092 C 475.302 2.74587 3.53986 0
M  V30 5093 C 477.046 1.01213 4.12257 0
M  V30 5094 C 474.953 3.20009 4.97341 0
M  V30 5095 H 473.883 0.266848 0.705201 0
M  V30 5096 H 476.534 1.24509 1.34795 0
M  V30 5097 H 474.916 0.649457 3.90638 0
M  V30 5098 H 476.09 3.39649 3.11408 0
M  V30 5099 H 474.405 2.9601 2.9286 0
M  V30 5100 H 477.002 1.32675 5.17978 0
M  V30 5101 H 477.345 -0.051001 4.16269 0
M  V30 5102 H 477.878 1.57014 3.65501 0
M  V30 5103 H 474.617 4.25659 4.98493 0
M  V30 5104 H 474.137 2.59676 5.40674 0
M  V30 5105 H 475.816 3.13447 5.66003 0
M  V30 5106 N 475.948 -1.35272 0.808662 0
M  V30 5107 C 477.173 -2.03477 0.401475 0
M  V30 5108 C 477.598 -1.60537 -0.980279 0
M  V30 5109 O 476.956 -0.78304 -1.63518 0
M  V30 5110 C 477.004 -3.57181 0.495354 0
M  V30 5111 O 476.108 -4.09474 -0.490397 0
M  V30 5112 H 475.449 -0.642561 0.167366 0
M  V30 5113 H 477.979 -1.72824 1.09512 0
M  V30 5114 H 477.989 -4.06356 0.365912 0
M  V30 5115 H 476.664 -3.87784 1.5032 0
M  V30 5116 H 475.241 -3.71516 -0.321023 0
M  V30 5117 N 477.426 -0.562348 -1.47226 0
M  V30 5118 C 478.359 0.230405 -2.27034 0
M  V30 5119 C 479.337 0.915609 -1.3437 0
M  V30 5120 O 480.521 0.933573 -1.63758 0
M  V30 5121 C 477.648 1.32874 -3.11548 0
M  V30 5122 C 476.694 0.751552 -4.19826 0
M  V30 5123 S 477.527 -0.405848 -5.3396 0
M  V30 5124 C 478.683 0.694186 -6.22038 0
M  V30 5125 H 478.916 -0.446811 -2.93923 0
M  V30 5126 H 476.449 -0.348781 -1.50409 0
M  V30 5127 H 478.407 1.95773 -3.60809 0
M  V30 5128 H 477.068 1.97782 -2.44011 0
M  V30 5129 H 476.261 1.57651 -4.78709 0
M  V30 5130 H 475.863 0.198645 -3.73472 0
M  V30 5131 H 478.155 1.58501 -6.58698 0
M  V30 5132 H 479.098 0.142592 -7.07956 0
M  V30 5133 H 479.506 0.989169 -5.55766 0
M  V30 5134 N 478.904 1.54736 -0.299062 0
M  V30 5135 C 479.834 2.26409 0.571085 0
M  V30 5136 C 480.815 1.2629 1.13951 0
M  V30 5137 O 482 1.55059 1.16921 0
M  V30 5138 C 479.13 3.00338 1.74396 0
M  V30 5139 C 478.084 4.07588 1.30599 0
M  V30 5140 C 477.41 4.69222 2.56387 0
M  V30 5141 C 478.71 5.20455 0.438645 0
M  V30 5142 H 480.404 2.99388 -0.0266991 0
M  V30 5143 H 477.95 1.43993 -0.0142812 0
M  V30 5144 H 479.903 3.49198 2.35878 0
M  V30 5145 H 478.627 2.24934 2.36796 0
M  V30 5146 H 477.286 3.59575 0.71424 0
M  V30 5147 H 476.934 3.9046 3.17097 0
M  V30 5148 H 476.634 5.41653 2.27784 0
M  V30 5149 H 478.158 5.20844 3.18675 0
M  V30 5150 H 479.572 5.65221 0.959085 0
M  V30 5151 H 477.969 5.99594 0.246466 0
M  V30 5152 H 479.039 4.8192 -0.536738 0
M  V30 5153 N 480.382 0.0267497 1.57577 0
M  V30 5154 C 481.312 -0.954308 2.13108 0
M  V30 5155 C 482.293 -1.34088 1.04663 0
M  V30 5156 O 483.478 -1.41992 1.32484 0
M  V30 5157 C 480.608 -2.23744 2.65624 0
M  V30 5158 C 479.562 -1.99168 3.78835 0
M  V30 5159 C 478.888 -3.33726 4.17769 0
M  V30 5160 C 480.188 -1.33277 5.0501 0
M  V30 5161 H 481.882 -0.491848 2.95332 0
M  V30 5162 H 479.428 -0.23514 1.42067 0
M  V30 5163 H 481.381 -2.92754 3.03106 0
M  V30 5164 H 480.105 -2.72151 1.80558 0
M  V30 5165 H 478.764 -1.32577 3.41788 0
M  V30 5166 H 478.412 -3.79888 3.29688 0
M  V30 5167 H 478.112 -3.18089 4.94058 0
M  V30 5168 H 479.636 -4.04008 4.57832 0
M  V30 5169 H 481.05 -1.92283 5.40093 0
M  V30 5170 H 479.447 -1.28045 5.8628 0
M  V30 5171 H 480.517 -0.305411 4.83937 0
M  V30 5172 N 481.861 -1.55662 -0.24637 0
M  V30 5173 C 483.109 -1.77168 -0.972411 0
M  V30 5174 C 483.43 -0.590827 -1.85834 0
M  V30 5175 O 482.7 0.393365 -1.9191 0
M  V30 5176 H 481.28 -0.653405 -0.362038 0
M  V30 5177 H 483.942 -1.93101 -0.264189 0
M  V30 5178 H 483.038 -2.68335 -1.59382 0
M  V30 5179 N 483.339 0.512053 -1.4905 0
M  V30 5180 C 484.287 1.63568 -1.65373 0
M  V30 5181 C 485.281 1.61228 -0.519806 0
M  V30 5182 O 486.487 1.65869 -0.699101 0
M  V30 5183 H 482.862 0.542019 -0.521267 0
M  V30 5184 H 484.833 1.4695 -2.59708 0
M  V30 5185 C 483.582 3.01761 -1.7273 0
M  V30 5186 H 482.905 3.04263 -2.59353 0
M  V30 5187 H 484.345 3.79948 -1.8819 0
M  V30 5188 C 482.804 3.33609 -0.46973 0
M  V30 5189 O 483.334 3.99607 0.409492 0
M  V30 5190 N 481.54 2.88651 -0.336003 0
M  V30 5191 H 481.087 2.35119 -1.05247 0
M  V30 5192 H 481.045 3.10328 0.504363 0
M  V30 5193 N 484.817 1.37938 0.762283 0
M  V30 5194 C 485.747 1.37176 1.88958 0
M  V30 5195 C 486.728 0.238945 1.68413 0
M  V30 5196 O 487.913 0.440726 1.89133 0
M  V30 5197 C 485.043 1.18742 3.2637 0
M  V30 5198 C 483.997 2.29136 3.61498 0
M  V30 5199 C 483.323 1.95816 4.97554 0
M  V30 5200 C 484.623 3.71363 3.6727 0
M  V30 5201 H 486.317 2.31509 1.89853 0
M  V30 5202 H 483.863 1.11438 0.912005 0
M  V30 5203 H 485.816 1.16837 4.04879 0
M  V30 5204 H 484.54 0.208683 3.25933 0
M  V30 5205 H 483.199 2.30213 2.85303 0
M  V30 5206 H 482.847 0.964475 4.93667 0
M  V30 5207 H 482.547 2.69745 5.22026 0
M  V30 5208 H 484.071 1.95513 5.78452 0
M  V30 5209 H 485.485 3.72364 4.35911 0
M  V30 5210 H 483.882 4.44425 4.03245 0
M  V30 5211 H 484.952 4.04305 2.67704 0
M  V30 5212 N 486.295 -0.989507 1.22664 0
M  V30 5213 C 487.243 -2.10148 0.997035 0
M  V30 5214 C 488.237 -1.6929 -0.0609783 0
M  V30 5215 O 489.443 -1.79766 0.0917523 0
M  V30 5216 H 485.818 -0.687256 0.305259 0
M  V30 5217 H 487.789 -2.26685 1.94053 0
M  V30 5218 C 486.538 -3.4257 0.595085 0
M  V30 5219 H 485.861 -3.74453 1.40089 0
M  V30 5220 H 487.301 -4.21344 0.473869 0
M  V30 5221 C 485.76 -3.29638 -0.695725 0
M  V30 5222 O 486.29 -3.61709 -1.74727 0
M  V30 5223 N 484.496 -2.82814 -0.668173 0
M  V30 5224 H 484.043 -2.56914 0.18787 0
M  V30 5225 H 484.001 -2.74544 -1.5321 0
M  V30 5226 N 487.773 -1.03688 -1.18687 0
M  V30 5227 C 488.998 -0.757819 -1.93059 0
M  V30 5228 C 489.423 0.678353 -1.75442 0
M  V30 5229 O 488.781 1.46938 -1.06203 0
M  V30 5230 C 488.829 -1.12423 -3.42627 0
M  V30 5231 O 487.933 -0.247505 -4.11657 0
M  V30 5232 H 487.274 -0.279245 -0.602427 0
M  V30 5233 H 489.804 -1.3857 -1.5053 0
M  V30 5234 H 489.814 -1.08454 -3.93322 0
M  V30 5235 H 488.489 -2.17049 -3.54771 0
M  V30 5236 H 487.066 -0.34649 -3.71287 0
M  V30 5237 N 489.251 1.34841 -0.815825 0
M  V30 5238 C 490.491 2.00321 -0.406297 0
M  V30 5239 C 490.855 1.63293 1.00992 0
M  V30 5240 O 492.056 2.21563 1.52195 0
M  V30 5241 C 490.327 3.52421 -0.594469 0
M  V30 5242 S 491.886 4.37926 -0.276735 0
M  V30 5243 H 488.704 0.694155 -0.153848 0
M  V30 5244 H 491.306 1.64263 -1.06009 0
M  V30 5245 H 490.01 3.76858 -1.625 0
M  V30 5246 H 489.541 3.9333 0.0743157 0
M  V30 5247 H 491.556 4.87743 0.912215 0
M  V30 5248 N 490.729 0.570148 1.46925 0
M  V30 5249 C 491.969 0.0534743 2.0433 0
M  V30 5250 C 492.333 -1.27729 1.4335 0
M  V30 5251 O 493.534 -1.88244 1.91879 0
M  V30 5252 C 491.805 -0.0244296 3.57392 0
M  V30 5253 S 493.364 -0.485351 4.36108 0
M  V30 5254 H 490.182 0.0313908 0.710307 0
M  V30 5255 H 492.784 0.759808 1.80131 0
M  V30 5256 H 491.488 0.948261 3.99295 0
M  V30 5257 H 491.019 -0.753922 3.86108 0
M  V30 5258 H 493.034 -1.74258 4.64595 0
M  V30 5259 N 492.207 -1.54576 0.307264 0
M  V30 5260 C 493.155 -2.25208 -0.581723 0
M  V30 5261 C 494.149 -1.26031 -1.13192 0
M  V30 5262 O 495.355 -1.43862 -1.08184 0
M  V30 5263 H 491.73 -0.723173 -0.206214 0
M  V30 5264 H 493.701 -2.98378 0.0364663 0
M  V30 5265 C 492.45 -3.01086 -1.73904 0
M  V30 5266 H 491.773 -3.77208 -1.32491 0
M  V30 5267 H 493.213 -3.5378 -2.33701 0
M  V30 5268 C 491.672 -2.08422 -2.64692 0
M  V30 5269 O 492.202 -1.65636 -3.65961 0
M  V30 5270 N 490.408 -1.74247 -2.32564 0
M  V30 5271 H 489.955 -2.09238 -1.50257 0
M  V30 5272 H 489.913 -1.12524 -2.93574 0
M  V30 5273 N 493.685 -0.035106 -1.57561 0
M  V30 5274 C 495.096 0.502885 -1.798 0
M  V30 5275 C 495.447 1.71892 -0.945921 0
M  V30 5276 O 494.572 2.15822 -0.157991 0
M  V30 5277 C 495.167 0.919097 -3.26095 0
M  V30 5278 C 493.726 1.40216 -3.49308 0
M  V30 5279 C 492.873 0.369709 -2.74824 0
M  V30 5280 H 495.824 -0.261102 -1.56537 0
M  V30 5281 H 495.845 1.78308 -3.36135 0
M  V30 5282 H 495.357 0.0338526 -3.88085 0
M  V30 5283 H 493.458 2.30714 -2.92578 0
M  V30 5284 H 493.571 1.40541 -4.58023 0
M  V30 5285 H 491.935 0.839113 -2.40481 0
M  V30 5286 H 492.718 -0.507173 -3.39533 0
M  V30 5287 N 495.163 1.55791 0.238111 0
M  V30 5288 C 496.409 1.79211 0.962035 0
M  V30 5289 C 496.764 0.605463 1.82625 0
M  V30 5290 O 496.057 -0.40104 1.87356 0
M  V30 5291 C 496.251 3.05869 1.84875 0
M  V30 5292 C 496.08 4.36739 1.07186 0
M  V30 5293 C 494.85 4.99346 0.773424 0
M  V30 5294 C 497.048 5.1237 0.445168 0
M  V30 5295 N 495.03 6.13894 -0.0266037 0
M  V30 5296 C 496.401 6.19613 -0.219023 0
M  V30 5297 C 498.456 4.96622 0.356522 0
M  V30 5298 C 497.159 7.1282 -0.963358 0
M  V30 5299 C 499.185 5.90214 -0.374304 0
M  V30 5300 C 498.547 6.96872 -1.0271 0
M  V30 5301 H 494.646 0.707627 0.332849 0
M  V30 5302 H 497.23 1.93284 0.234368 0
M  V30 5303 H 495.401 2.93108 2.54837 0
M  V30 5304 H 497.133 3.17547 2.5089 0
M  V30 5305 H 493.888 4.60948 1.08738 0
M  V30 5306 H 494.312 6.75727 -0.414968 0
M  V30 5307 H 498.954 4.14232 0.846878 0
M  V30 5308 H 496.672 7.94704 -1.46529 0
M  V30 5309 H 500.258 5.80106 -0.443678 0
M  V30 5310 H 499.138 7.68045 -1.58358 0
M  V30 5311 N 496.642 -0.504142 1.49319 0
M  V30 5312 C 497.891 -1.25507 1.57895 0
M  V30 5313 C 498.204 -1.93735 0.269433 0
M  V30 5314 O 499.41 -2.70492 0.233706 0
M  V30 5315 C 497.866 -2.27869 2.78574 0
M  V30 5316 C 497.474 -1.65594 4.16272 0
M  V30 5317 C 499.218 -3.0381 2.96479 0
M  V30 5318 C 497.125 -2.66048 5.28178 0
M  V30 5319 H 496.055 -0.47212 0.587894 0
M  V30 5320 H 498.706 -0.52931 1.757 0
M  V30 5321 H 497.088 -3.03594 2.54257 0
M  V30 5322 H 498.262 -0.958826 4.50714 0
M  V30 5323 H 496.577 -1.02055 4.037 0
M  V30 5324 H 499.174 -3.78925 3.77253 0
M  V30 5325 H 499.517 -3.61235 2.06918 0
M  V30 5326 H 500.05 -2.352 3.20821 0
M  V30 5327 H 496.789 -2.13408 6.19788 0
M  V30 5328 H 496.309 -3.34009 4.98195 0
M  V30 5329 H 497.988 -3.28536 5.57381 0
M  V30 5330 N 498.12 -1.38341 -0.754957 0
M  V30 5331 C 499.35 -1.37504 -1.54195 0
M  V30 5332 C 499.758 0.0373787 -1.89163 0
M  V30 5333 O 499.101 1.01402 -1.53178 0
M  V30 5334 C 499.163 -2.16488 -2.87008 0
M  V30 5335 C 498.827 -3.65311 -2.74585 0
M  V30 5336 C 499.824 -4.58834 -2.44474 0
M  V30 5337 C 497.509 -4.08649 -2.9208 0
M  V30 5338 C 499.503 -5.93675 -2.32011 0
M  V30 5339 C 497.19 -5.43571 -2.79237 0
M  V30 5340 C 498.188 -6.35898 -2.49245 0
M  V30 5341 O 497.876 -7.68338 -2.36458 0
M  V30 5342 H 497.608 -0.472159 -0.483779 0
M  V30 5343 H 500.162 -1.82515 -0.94221 0
M  V30 5344 H 498.392 -1.66194 -3.49166 0
M  V30 5345 H 500.081 -2.08076 -3.4851 0
M  V30 5346 H 500.847 -4.26657 -2.30627 0
M  V30 5347 H 496.726 -3.37134 -3.14422 0
M  V30 5348 H 500.27 -6.65706 -2.08522 0
M  V30 5349 H 496.167 -5.75345 -2.92657 0
M  V30 5350 H 496.935 -7.78845 -2.5168 0
M  V30 5351 N 499.598 0.982988 -1.23187 0
M  V30 5352 C 500.531 2.07302 -0.953993 0
M  V30 5353 C 501.509 1.62249 0.106753 0
M  V30 5354 O 502.693 1.88481 -0.0269525 0
M  V30 5355 C 499.82 3.35873 -0.436716 0
M  V30 5356 C 498.866 3.99862 -1.48367 0
M  V30 5357 S 499.699 4.39443 -3.06023 0
M  V30 5358 C 500.855 5.7117 -2.55959 0
M  V30 5359 H 501.088 2.30554 -1.87702 0
M  V30 5360 H 498.621 1.11883 -1.06403 0
M  V30 5361 H 500.579 4.10244 -0.144872 0
M  V30 5362 H 499.24 3.10634 0.465351 0
M  V30 5363 H 498.433 4.92471 -1.07182 0
M  V30 5364 H 498.035 3.31857 -1.72473 0
M  V30 5365 H 500.327 6.47977 -1.97818 0
M  V30 5366 H 501.27 6.17194 -3.47098 0
M  V30 5367 H 501.678 5.29046 -1.96902 0
M  V30 5368 N 501.076 1.04316 1.18135 0
M  V30 5369 C 502.324 0.746542 1.87806 0
M  V30 5370 C 502.645 -0.728082 1.80898 0
M  V30 5371 O 501.915 -1.52554 1.22899 0
M  V30 5372 H 500.495 0.273157 0.695265 0
M  V30 5373 H 503.157 1.32044 1.43354 0
M  V30 5374 H 502.253 1.05362 2.93778 0
M  V30 5375 N 502.554 -1.34406 0.822964 0
M  V30 5376 C 503.801 -1.98284 0.411057 0
M  V30 5377 C 504.129 -1.65245 -1.02588 0
M  V30 5378 O 503.384 -0.91619 -1.72929 0
M  V30 5379 C 503.683 -3.52981 0.560268 0
M  V30 5380 C 503.349 -4.05931 1.96293 0
M  V30 5381 C 502.011 -4.20103 2.34664 0
M  V30 5382 C 504.363 -4.34412 2.87985 0
M  V30 5383 C 501.691 -4.60082 3.64062 0
M  V30 5384 C 504.043 -4.75838 4.16847 0
M  V30 5385 C 502.707 -4.88215 4.55195 0
M  V30 5386 H 501.977 -0.725573 0.150416 0
M  V30 5387 H 504.624 -1.60349 1.04692 0
M  V30 5388 H 502.929 -3.91477 -0.158982 0
M  V30 5389 H 504.626 -4.00385 0.222087 0
M  V30 5390 H 501.216 -3.95363 1.65487 0
M  V30 5391 H 505.4 -4.23001 2.59584 0
M  V30 5392 H 500.656 -4.67856 3.93599 0
M  V30 5393 H 504.83 -4.96834 4.87984 0
M  V30 5394 H 502.457 -5.18952 5.55512 0
M  V30 5395 N 504.032 -0.577932 -1.46621 0
M  V30 5396 C 504.98 0.170882 -2.31971 0
M  V30 5397 C 505.974 0.889086 -1.44193 0
M  V30 5398 O 507.18 0.808017 -1.60845 0
M  V30 5399 H 503.555 0.0739763 -0.748353 0
M  V30 5400 H 505.526 -0.567856 -2.92947 0
M  V30 5401 C 504.275 1.17438 -3.27267 0
M  V30 5402 H 503.598 0.63116 -3.94787 0
M  V30 5403 H 505.038 1.66882 -3.89778 0
M  V30 5404 C 503.497 2.23292 -2.52274 0
M  V30 5405 O 504.027 3.30567 -2.28229 0
M  V30 5406 N 502.233 1.97772 -2.12919 0
M  V30 5407 H 501.78 1.10545 -2.32675 0
M  V30 5408 H 501.738 2.68809 -1.63062 0
M  V30 5409 N 505.51 1.54411 -0.315457 0
M  V30 5410 C 506.735 2.05299 0.294496 0
M  V30 5411 C 507.16 1.19052 1.4563 0
M  V30 5412 O 506.518 0.197804 1.80218 0
M  V30 5413 C 506.566 3.5345 0.714549 0
M  V30 5414 O 505.67 3.70175 1.81781 0
M  V30 5415 H 505.011 0.661743 0.0547019 0
M  V30 5416 H 507.541 1.99327 -0.461508 0
M  V30 5417 H 507.551 3.9557 0.999426 0
M  V30 5418 H 506.226 4.1568 -0.135244 0
M  V30 5419 H 504.803 3.3996 1.53236 0
M  V30 5420 N 506.988 0.0434614 1.5754 0
M  V30 5421 C 507.938 -0.943039 2.07583 0
M  V30 5422 C 508.922 -1.27662 0.979342 0
M  V30 5423 O 510.114 -1.26034 1.24276 0
M  V30 5424 C 507.243 -2.22056 2.61813 0
M  V30 5425 C 506.329 -1.91471 3.78417 0
M  V30 5426 N 506.72 -1.31214 4.88484 0
M  V30 5427 C 505.018 -2.21384 3.87176 0
M  V30 5428 C 505.719 -1.18084 5.69588 0
M  V30 5429 N 504.695 -1.68116 5.16951 0
M  V30 5430 H 508.497 -0.472354 2.90079 0
M  V30 5431 H 506.011 -0.161191 1.61598 0
M  V30 5432 H 508.008 -2.93618 2.95963 0
M  V30 5433 H 506.668 -2.69738 1.80752 0
M  V30 5434 H 507.679 -0.985318 5.08441 0
M  V30 5435 H 504.356 -2.7164 3.17046 0
M  V30 5436 H 505.746 -0.713684 6.68099 0
M  V30 5437 N 508.466 -1.55915 -0.229846 0
M  V30 5438 C 509.396 -1.94754 -1.28815 0
M  V30 5439 C 510.377 -0.814657 -1.49323 0
M  V30 5440 O 511.562 -1.07631 -1.61645 0
M  V30 5441 C 508.692 -2.25705 -2.63959 0
M  V30 5442 C 507.646 -3.41406 -2.5812 0
M  V30 5443 C 506.972 -3.57941 -3.97218 0
M  V30 5444 C 508.272 -4.76616 -2.13623 0
M  V30 5445 H 509.966 -2.83404 -0.965547 0
M  V30 5446 H 507.512 -1.36353 -0.463028 0
M  V30 5447 H 509.465 -2.51467 -3.38146 0
M  V30 5448 H 508.189 -1.339 -2.9789 0
M  V30 5449 H 506.848 -3.1568 -1.86391 0
M  V30 5450 H 506.496 -2.63526 -4.28443 0
M  V30 5451 H 506.196 -4.35757 -3.94195 0
M  V30 5452 H 507.72 -3.86042 -4.73079 0
M  V30 5453 H 509.134 -5.01637 -2.77549 0
M  V30 5454 H 507.531 -5.57655 -2.21677 0
M  V30 5455 H 508.601 -4.7253 -1.08829 0
M  V30 5456 N 509.944 0.496216 -1.49584 0
M  V30 5457 C 510.874 1.60576 -1.69521 0
M  V30 5458 C 511.855 1.61169 -0.543933 0
M  V30 5459 O 513.04 1.77834 -0.78031 0
M  V30 5460 C 510.17 2.99038 -1.76616 0
M  V30 5461 C 509.124 3.13312 -2.91581 0
M  V30 5462 C 508.45 4.53172 -2.83794 0
M  V30 5463 C 509.75 2.92886 -4.32452 0
M  V30 5464 H 511.444 1.44146 -2.62416 0
M  V30 5465 H 508.99 0.692024 -1.26282 0
M  V30 5466 H 510.943 3.76564 -1.8915 0
M  V30 5467 H 509.667 3.16568 -0.80324 0
M  V30 5468 H 508.326 2.38213 -2.78658 0
M  V30 5469 H 507.974 4.67585 -1.854 0
M  V30 5470 H 507.674 4.63662 -3.60958 0
M  V30 5471 H 509.198 5.32752 -2.98342 0
M  V30 5472 H 510.612 3.60178 -4.46032 0
M  V30 5473 H 509.009 3.14844 -5.10875 0
M  V30 5474 H 510.079 1.88966 -4.46565 0
M  V30 5475 N 511.423 1.38739 0.74761 0
M  V30 5476 C 512.834 1.31507 1.32524 0
M  V30 5477 C 513.185 -0.0263963 1.96182 0
M  V30 5478 O 512.31 -0.92849 1.95469 0
M  V30 5479 C 512.905 2.38162 2.40966 0
M  V30 5480 C 511.464 2.34489 2.94434 0
M  V30 5481 C 510.611 2.20712 1.67873 0
M  V30 5482 H 513.562 1.4901 0.546043 0
M  V30 5483 H 513.583 2.04222 3.21051 0
M  V30 5484 H 513.095 3.35783 1.94605 0
M  V30 5485 H 511.196 1.40467 3.45108 0
M  V30 5486 H 511.309 3.28861 3.48407 0
M  V30 5487 H 509.673 1.67667 1.91729 0
M  V30 5488 H 510.456 3.20285 1.23582 0
M  V30 5489 N 512.901 -0.976442 1.23707 0
M  V30 5490 C 514.317 -1.24341 1.00058 0
M  V30 5491 C 514.517 -1.99315 -0.295932 0
M  V30 5492 O 513.573 -2.3123 -1.01435 0
M  V30 5493 C 514.886 -2.03909 2.21001 0
M  V30 5494 C 516.434 -2.17034 2.25534 0
M  V30 5495 C 516.909 -2.99994 3.46075 0
M  V30 5496 N 518.4 -3.07578 3.46338 0
M  V30 5497 C 519.135 -3.72104 4.36264 0
M  V30 5498 N 518.631 -4.3842 5.36432 0
M  V30 5499 N 520.424 -3.69029 4.23998 0
M  V30 5500 H 512.575 -0.47428 2.07037 0
M  V30 5501 H 514.838 -0.272167 0.908091 0
M  V30 5502 H 514.544 -1.56198 3.15111 0
M  V30 5503 H 514.418 -3.04654 2.22409 0
M  V30 5504 H 516.805 -2.63951 1.31961 0
M  V30 5505 H 516.886 -1.15664 2.28156 0
M  V30 5506 H 516.53 -2.53772 4.39957 0
M  V30 5507 H 516.46 -4.01541 3.40694 0
M  V30 5508 H 518.951 -2.60397 2.73865 0
M  V30 5509 H 519.264 -4.85447 6.013 0
M  V30 5510 H 517.609 -4.37116 5.40328 0
M  V30 5511 H 520.8 -3.16392 3.44984 0
M  V30 5512 H 520.973 -4.19034 4.94282 0
M  V30 5513 N 514.379 -1.04941 -1.1758 0
M  V30 5514 C 515.79 -0.784501 -1.69418 0
M  V30 5515 C 516.141 0.693625 -1.8353 0
M  V30 5516 O 515.266 1.53925 -1.52106 0
M  V30 5517 C 515.861 -1.41746 -3.07723 0
M  V30 5518 C 514.42 -1.20066 -3.56737 0
M  V30 5519 C 513.567 -1.5026 -2.33061 0
M  V30 5520 H 516.518 -1.21469 -1.02133 0
M  V30 5521 H 516.539 -0.825381 -3.7144 0
M  V30 5522 H 516.051 -2.49325 -2.9742 0
M  V30 5523 H 514.152 -0.144006 -3.72322 0
M  V30 5524 H 514.265 -1.90384 -4.39648 0
M  V30 5525 H 512.629 -0.922598 -2.37403 0
M  V30 5526 H 513.412 -2.58967 -2.25368 0
M  V30 5527 N 515.857 1.33968 -0.830081 0
M  V30 5528 C 516.787 2.31911 -0.271911 0
M  V30 5529 C 517.768 1.58571 0.61556 0
M  V30 5530 O 518.953 1.86514 0.540946 0
M  V30 5531 C 516.083 3.42737 0.561146 0
M  V30 5532 C 515.037 4.27383 -0.229789 0
M  V30 5533 C 514.363 5.29742 0.726463 0
M  V30 5534 C 515.663 5.02 -1.44197 0
M  V30 5535 H 517.357 2.78844 -1.09025 0
M  V30 5536 H 514.903 1.34061 -0.52571 0
M  V30 5537 H 516.856 4.10276 0.961867 0
M  V30 5538 H 515.58 2.94471 1.41261 0
M  V30 5539 H 514.239 3.61456 -0.611964 0
M  V30 5540 H 513.887 4.77736 1.57408 0
M  V30 5541 H 513.587 5.87255 0.20142 0
M  V30 5542 H 515.111 6.00149 1.12489 0
M  V30 5543 H 516.525 5.62355 -1.11488 0
M  V30 5544 H 514.922 5.69122 -1.90317 0
M  V30 5545 H 515.992 4.31281 -2.2164 0
M  V30 5546 N 517.335 0.585699 1.46312 0
M  V30 5547 C 518.751 0.247607 1.57668 0
M  V30 5548 C 518.951 -1.25007 1.58037 0
M  V30 5549 O 518.007 -2.03196 1.49893 0
M  V30 5550 C 519.32 0.899456 2.86933 0
M  V30 5551 C 520.868 0.873326 3.00569 0
M  V30 5552 C 521.343 1.50477 4.32574 0
M  V30 5553 N 522.834 1.46925 4.3928 0
M  V30 5554 C 523.569 1.92719 5.40044 0
M  V30 5555 N 523.065 2.46499 6.47464 0
M  V30 5556 N 524.858 1.83617 5.31264 0
M  V30 5557 H 517.009 1.55841 1.44317 0
M  V30 5558 H 519.272 0.651564 0.688599 0
M  V30 5559 H 518.978 1.95313 2.92482 0
M  V30 5560 H 518.852 0.409476 3.74971 0
M  V30 5561 H 521.239 -0.171736 2.946 0
M  V30 5562 H 521.32 1.40136 2.13999 0
M  V30 5563 H 520.964 2.54905 4.39302 0
M  V30 5564 H 520.894 0.951944 5.17924 0
M  V30 5565 H 523.385 1.07616 3.62253 0
M  V30 5566 H 523.698 2.79291 7.20567 0
M  V30 5567 H 522.043 2.50526 6.48276 0
M  V30 5568 H 525.234 1.41358 4.46246 0
M  V30 5569 H 525.407 2.19622 6.09648 0
M  V30 5570 N 518.813 -1.54241 0.323641 0
M  V30 5571 C 519.763 -2.21071 -0.557833 0
M  V30 5572 C 520.747 -1.19126 -1.08157 0
M  V30 5573 O 521.939 -1.44755 -1.01857 0
M  V30 5574 C 519.068 -2.97208 -1.71821 0
M  V30 5575 C 518.154 -4.06491 -1.20936 0
M  V30 5576 N 518.545 -5.04052 -0.420202 0
M  V30 5577 C 516.843 -4.20443 -1.48808 0
M  V30 5578 C 517.544 -5.81516 -0.146413 0
M  V30 5579 N 516.52 -5.38641 -0.732562 0
M  V30 5580 H 520.322 -2.93853 0.0523921 0
M  V30 5581 H 517.836 -1.61883 0.129502 0
M  V30 5582 H 519.833 -3.4357 -2.36146 0
M  V30 5583 H 518.493 -2.25947 -2.33191 0
M  V30 5584 H 519.504 -5.17862 -0.0630401 0
M  V30 5585 H 516.181 -3.60396 -2.10762 0
M  V30 5586 H 517.571 -6.70119 0.488895 0
M  V30 5587 N 520.291 -0.0518155 -1.57515 0
M  V30 5588 C 521.221 0.920283 -2.146 0
M  V30 5589 C 522.202 1.32406 -1.06783 0
M  V30 5590 O 523.387 1.39866 -1.34726 0
M  V30 5591 C 520.517 2.1949 -2.6915 0
M  V30 5592 C 519.471 1.93116 -3.81956 0
M  V30 5593 C 518.797 3.27037 -4.23026 0
M  V30 5594 C 520.097 1.25225 -5.07066 0
M  V30 5595 H 521.791 0.444801 -2.96077 0
M  V30 5596 H 519.337 0.212508 -1.42423 0
M  V30 5597 H 521.29 2.87894 -3.07725 0
M  V30 5598 H 520.014 2.69244 -1.84865 0
M  V30 5599 H 518.673 1.27123 -3.43854 0
M  V30 5600 H 518.321 3.74595 -3.3569 0
M  V30 5601 H 518.021 3.10189 -4.99056 0
M  V30 5602 H 519.545 3.96673 -4.64202 0
M  V30 5603 H 520.959 1.83666 -5.43083 0
M  V30 5604 H 519.356 1.18702 -5.88243 0
M  V30 5605 H 520.426 0.228382 -4.84362 0
M  V30 5606 N 521.769 1.56035 0.221574 0
M  V30 5607 C 522.732 1.91584 1.2581 0
M  V30 5608 C 523.732 0.794425 1.39805 0
M  V30 5609 O 524.922 1.06217 1.38071 0
M  V30 5610 C 522.054 2.16663 2.63192 0
M  V30 5611 H 523.247 2.8429 0.954935 0
M  V30 5612 H 520.8 1.49316 0.461988 0
M  V30 5613 H 521.535 1.26508 2.98607 0
M  V30 5614 H 521.32 2.98358 2.5441 0
M  V30 5615 H 522.81 2.45262 3.37988 0
M  V30 5616 N 523.247 -0.488276 1.49845 0
M  V30 5617 C 524.487 -1.2516 1.61599 0
M  V30 5618 C 524.851 -1.89615 0.301706 0
M  V30 5619 O 526.052 -2.67182 0.29453 0
M  V30 5620 C 524.323 -2.2805 2.75187 0
M  V30 5621 S 525.882 -3.13552 3.0697 0
M  V30 5622 H 522.7 -0.425178 0.569864 0
M  V30 5623 H 525.302 -0.551545 1.87559 0
M  V30 5624 H 524.006 -1.7925 3.69185 0
M  V30 5625 H 523.537 -3.02708 2.5126 0
M  V30 5626 H 525.552 -4.28927 2.49471 0
M  V30 5627 N 524.725 -1.39134 -0.740242 0
M  V30 5628 C 525.965 -1.37499 -1.51239 0
M  V30 5629 C 526.329 0.0310084 -1.91975 0
M  V30 5630 O 527.53 0.172319 -2.68247 0
M  V30 5631 C 525.801 -2.31566 -2.72235 0
M  V30 5632 S 527.36 -2.48073 -3.61947 0
M  V30 5633 H 524.178 -0.48768 -0.517387 0
M  V30 5634 H 526.78 -1.75183 -0.867826 0
M  V30 5635 H 525.484 -3.32592 -2.40439 0
M  V30 5636 H 525.015 -1.9508 -3.41625 0
M  V30 5637 H 527.03 -1.71473 -4.6563 0
M  V30 5638 N 526.204 0.969867 -1.24223 0
M  V30 5639 C 527.452 1.70918 -1.0785 0
M  V30 5640 C 527.773 1.91186 0.383763 0
M  V30 5641 O 527.043 1.48806 1.27411 0
M  V30 5642 H 525.623 0.633334 -0.396103 0
M  V30 5643 H 528.285 1.16689 -1.56108 0
M  V30 5644 H 527.381 2.69455 -1.57482 0
M  V30 5645 N 527.682 1.05563 1.17022 0
M  V30 5646 C 528.93 0.76642 1.87004 0
M  V30 5647 C 529.251 -0.708854 1.8166 0
M  V30 5648 O 528.521 -1.51242 1.2451 0
M  V30 5649 H 527.101 0.280516 0.692329 0
M  V30 5650 H 529.763 1.33557 1.41945 0
M  V30 5651 H 528.859 1.08472 2.92644 0
M  V30 5652 N 529.16 -1.33526 0.837174 0
M  V30 5653 C 530.571 -1.80182 0.489017 0
M  V30 5654 C 530.922 -1.69285 -0.991826 0
M  V30 5655 O 530.047 -1.24113 -1.77271 0
M  V30 5656 C 530.642 -3.27149 0.880866 0
M  V30 5657 C 529.201 -3.71828 0.584872 0
M  V30 5658 C 528.348 -2.54974 1.09011 0
M  V30 5659 H 531.299 -1.21071 1.02603 0
M  V30 5660 H 531.32 -3.80024 0.190239 0
M  V30 5661 H 530.832 -3.35048 1.95869 0
M  V30 5662 H 528.933 -3.69457 -0.48295 0
M  V30 5663 H 529.046 -4.65366 1.13892 0
M  V30 5664 H 527.41 -2.4952 0.511047 0
M  V30 5665 H 528.193 -2.65637 2.17467 0
M  V30 5666 N 530.638 -0.59345 -1.46 0
M  V30 5667 C 531.57 0.171569 -2.28557 0
M  V30 5668 C 532.583 0.845273 -1.39137 0
M  V30 5669 O 533.772 0.713033 -1.6364 0
M  V30 5670 C 530.872 1.26311 -3.14482 0
M  V30 5671 C 530.045 0.679258 -4.32094 0
M  V30 5672 C 529.104 1.65987 -4.99334 0
M  V30 5673 O 528.13 1.19171 -5.56585 0
M  V30 5674 N 529.332 2.99414 -4.97324 0
M  V30 5675 H 532.097 -0.536771 -2.94854 0
M  V30 5676 H 529.658 -0.431954 -1.56031 0
M  V30 5677 H 531.65 1.91863 -3.5633 0
M  V30 5678 H 530.22 1.87416 -2.50188 0
M  V30 5679 H 529.44 -0.153992 -3.93899 0
M  V30 5680 H 530.728 0.26916 -5.08088 0
M  V30 5681 H 530.126 3.40064 -4.52076 0
M  V30 5682 H 528.683 3.60426 -5.4308 0
M  V30 5683 N 532.116 1.54067 -0.331816 0
M  V30 5684 C 533.527 1.86059 0.15454 0
M  V30 5685 C 533.878 1.25331 1.50952 0
M  V30 5686 O 533.003 0.562441 2.08963 0
M  V30 5687 C 533.598 3.37581 0.287192 0
M  V30 5688 C 532.157 3.69493 0.717773 0
M  V30 5689 C 531.304 2.76863 -0.155569 0
M  V30 5690 H 534.255 1.48797 -0.55182 0
M  V30 5691 H 534.276 3.63744 1.11671 0
M  V30 5692 H 533.788 3.81751 -0.699131 0
M  V30 5693 H 531.889 3.3086 1.71354 0
M  V30 5694 H 532.002 4.76315 0.5158 0
M  V30 5695 H 530.366 2.51995 0.370213 0
M  V30 5696 H 531.149 3.23861 -1.13881 0
M  V30 5697 N 533.594 0.0601682 1.57485 0
M  V30 5698 C 535.01 -0.296422 1.56823 0
M  V30 5699 C 535.21 -1.70831 1.0686 0
M  V30 5700 O 534.266 -2.4174 0.729245 0
M  V30 5701 C 535.579 -0.116681 3.00474 0
M  V30 5702 C 537.127 -0.187103 3.1244 0
M  V30 5703 C 537.602 -0.035783 4.57986 0
M  V30 5704 N 539.093 -0.0917676 4.63109 0
M  V30 5705 C 539.828 0.00107251 5.734 0
M  V30 5706 N 539.324 0.146773 6.92645 0
M  V30 5707 N 541.117 -0.0551577 5.62073 0
M  V30 5708 H 533.268 0.983055 1.88281 0
M  V30 5709 H 535.531 0.382386 0.867459 0
M  V30 5710 H 535.237 0.85712 3.41096 0
M  V30 5711 H 535.111 -0.873929 3.66936 0
M  V30 5712 H 537.498 -1.15138 2.71712 0
M  V30 5713 H 537.579 0.601052 2.48638 0
M  V30 5714 H 537.223 0.925212 4.99402 0
M  V30 5715 H 537.153 -0.843196 5.19806 0
M  V30 5716 H 539.644 -0.203261 3.77353 0
M  V30 5717 H 539.957 0.210076 7.72514 0
M  V30 5718 H 538.302 0.181979 6.94762 0
M  V30 5719 H 541.493 -0.167605 4.678 0
M  V30 5720 H 541.666 0.020652 6.47997 0
M  V30 5721 N 535.072 -1.5615 -0.213296 0
M  V30 5722 C 536.005 -1.88115 -1.29182 0
M  V30 5723 C 536.983 -0.739348 -1.44819 0
M  V30 5724 O 538.167 -0.988541 -1.605 0
M  V30 5725 C 535.294 -2.09541 -2.66102 0
M  V30 5726 C 534.34 -3.32236 -2.67436 0
M  V30 5727 S 535.173 -4.87915 -2.20679 0
M  V30 5728 C 536.329 -5.12387 -3.59458 0
M  V30 5729 H 536.562 -2.793 -1.01876 0
M  V30 5730 H 534.095 -1.48692 -0.415934 0
M  V30 5731 H 536.053 -2.22568 -3.44925 0
M  V30 5732 H 534.714 -1.19138 -2.90628 0
M  V30 5733 H 533.907 -3.44297 -3.6807 0
M  V30 5734 H 533.509 -3.18108 -1.96681 0
M  V30 5735 H 535.801 -5.01791 -4.55205 0
M  V30 5736 H 536.744 -6.14236 -3.52306 0
M  V30 5737 H 537.152 -4.40089 -3.53528 0
M  V30 5738 N 536.55 0.480323 -1.50102 0
M  V30 5739 C 537.966 0.813295 -1.37323 0
M  V30 5740 C 538.166 1.97027 -0.422206 0
M  V30 5741 O 537.222 2.5212 0.138563 0
M  V30 5742 C 538.535 1.13404 -2.78496 0
M  V30 5743 C 540.083 1.24104 -2.87345 0
M  V30 5744 C 540.558 1.59497 -4.29331 0
M  V30 5745 N 542.049 1.66507 -4.32238 0
M  V30 5746 C 542.784 1.95378 -5.39087 0
M  V30 5747 N 542.28 2.22333 -6.56155 0
M  V30 5748 N 544.073 1.96803 -5.26522 0
M  V30 5749 H 536.224 -0.282291 -2.10516 0
M  V30 5750 H 538.487 -0.063752 -0.945854 0
M  V30 5751 H 538.193 0.357064 -3.49883 0
M  V30 5752 H 538.067 2.07251 -3.15162 0
M  V30 5753 H 540.454 2.00871 -2.16183 0
M  V30 5754 H 540.535 0.282593 -2.54234 0
M  V30 5755 H 540.179 0.832736 -5.01027 0
M  V30 5756 H 540.109 2.56477 -4.59921 0
M  V30 5757 H 542.6 1.47753 -3.47818 0
M  V30 5758 H 542.913 2.43611 -7.33399 0
M  V30 5759 H 541.258 2.19745 -6.59346 0
M  V30 5760 H 544.449 1.75235 -4.34062 0
M  V30 5761 H 544.622 2.18969 -6.09883 0
M  V30 5762 N 538.028 1.39524 0.732853 0
M  V30 5763 C 539.444 1.21176 1.03868 0
M  V30 5764 C 539.644 0.0748448 2.01361 0
M  V30 5765 O 538.7 -0.57281 2.45917 0
M  V30 5766 C 540.013 2.54667 1.59892 0
M  V30 5767 C 541.561 2.6153 1.71962 0
M  V30 5768 C 542.036 3.95248 2.31394 0
M  V30 5769 N 543.527 3.96899 2.38801 0
M  V30 5770 C 544.262 4.97138 2.85729 0
M  V30 5771 N 543.758 6.07775 3.32537 0
M  V30 5772 N 545.551 4.84516 2.84957 0
M  V30 5773 H 537.702 2.12225 0.086304 0
M  V30 5774 H 539.965 0.942614 0.100907 0
M  V30 5775 H 539.671 3.38423 0.95721 0
M  V30 5776 H 539.545 2.74538 2.58668 0
M  V30 5777 H 541.932 1.78156 2.35254 0
M  V30 5778 H 542.013 2.45507 0.718327 0
M  V30 5779 H 541.657 4.79054 1.68729 0
M  V30 5780 H 541.587 4.08593 3.32204 0
M  V30 5781 H 544.078 3.16998 2.05719 0
M  V30 5782 H 544.391 6.8017 3.66862 0
M  V30 5783 H 542.736 6.11366 3.30541 0
M  V30 5784 H 545.927 3.97185 2.47713 0
M  V30 5785 H 546.1 5.62783 3.21215 0
M  V30 5786 N 539.506 -0.963266 1.24736 0
M  V30 5787 C 540.922 -1.23273 1.01371 0
M  V30 5788 C 541.122 -1.99618 -0.274776 0
M  V30 5789 O 540.178 -2.32293 -0.989769 0
M  V30 5790 C 541.491 -2.01554 2.23152 0
M  V30 5791 C 543.039 -2.14629 2.27823 0
M  V30 5792 C 543.514 -2.96307 3.49237 0
M  V30 5793 N 545.005 -3.03887 3.49581 0
M  V30 5794 C 545.74 -3.67456 4.40186 0
M  V30 5795 N 545.236 -4.32706 5.41052 0
M  V30 5796 N 547.029 -3.64511 4.27888 0
M  V30 5797 H 539.18 -0.452294 2.07528 0
M  V30 5798 H 541.443 -0.262521 0.910926 0
M  V30 5799 H 541.149 -1.52847 3.1675 0
M  V30 5800 H 541.023 -3.02278 2.25628 0
M  V30 5801 H 543.41 -2.62537 1.34753 0
M  V30 5802 H 543.491 -1.13238 2.2937 0
M  V30 5803 H 543.135 -2.49091 4.42624 0
M  V30 5804 H 543.065 -3.97905 3.44933 0
M  V30 5805 H 545.556 -2.57477 2.76611 0
M  V30 5806 H 545.869 -4.79042 6.06415 0
M  V30 5807 H 544.214 -4.31361 5.44934 0
M  V30 5808 H 547.405 -3.12715 3.4832 0
M  V30 5809 H 547.578 -4.13768 4.98698 0
M  V30 5810 N 540.985 -1.06182 -1.16461 0
M  V30 5811 C 541.915 -0.692861 -2.22984 0
M  V30 5812 C 542.896 0.314122 -1.67174 0
M  V30 5813 O 544.081 0.189499 -1.93273 0
M  V30 5814 C 541.211 -0.07732 -3.47214 0
M  V30 5815 C 540.165 -1.01015 -4.15909 0
M  V30 5816 C 539.491 -0.257973 -5.34077 0
M  V30 5817 C 540.791 -2.33868 -4.67015 0
M  V30 5818 H 542.485 -1.58343 -2.54102 0
M  V30 5819 H 540.031 -0.76279 -1.22137 0
M  V30 5820 H 541.984 0.19266 -4.20959 0
M  V30 5821 H 540.708 0.848254 -3.15392 0
M  V30 5822 H 539.367 -1.26486 -3.44088 0
M  V30 5823 H 539.015 0.670684 -4.98509 0
M  V30 5824 H 538.715 -0.879638 -5.80979 0
M  V30 5825 H 540.239 0.00448788 -6.106 0
M  V30 5826 H 541.653 -2.1279 -5.32347 0
M  V30 5827 H 540.05 -2.91522 -5.24533 0
M  V30 5828 H 541.12 -2.97019 -3.83286 0
M  V30 5829 N 542.463 1.3308 -0.844243 0
M  V30 5830 C 543.688 2.02341 -0.455282 0
M  V30 5831 C 544.113 1.6308 0.93737 0
M  V30 5832 O 543.471 0.826118 1.61385 0
M  V30 5833 C 543.519 3.55743 -0.58988 0
M  V30 5834 O 542.623 4.1063 0.38166 0
M  V30 5835 H 541.964 0.637898 -0.184343 0
M  V30 5836 H 544.494 1.6986 -1.14056 0
M  V30 5837 H 544.504 4.05243 -0.473522 0
M  V30 5838 H 543.179 3.83662 -1.60549 0
M  V30 5839 H 541.756 3.72236 0.22241 0
M  V30 5840 N 543.941 0.601185 1.45683 0
M  V30 5841 C 545.218 0.0261659 1.95582 0
M  V30 5842 C 545.598 -1.4399 1.5437 0
M  V30 5843 O 544.946 -2.13919 0.80318 0
M  V30 5844 C 545.156 0.217557 3.48321 0
M  V30 5845 C 546.504 0.0950076 4.24494 0
M  V30 5846 O 547.528 0.147345 3.55895 0
M  V30 5847 O 546.387 -0.025261 5.46494 0
M  V30 5848 H 543.481 -0.0393688 0.826062 0
M  V30 5849 H 546.027 0.670798 1.55879 0
M  V30 5850 H 544.799 1.23601 3.71266 0
M  V30 5851 H 544.422 -0.46264 3.94899 0
M  V30 5852 N 545.419 -1.53889 0.339982 0
M  V30 5853 C 546.667 -2.00458 -0.257112 0
M  V30 5854 C 546.988 -1.22953 -1.51353 0
M  V30 5855 O 546.258 -0.335734 -1.93002 0
M  V30 5856 H 544.838 -0.740544 -0.0979965 0
M  V30 5857 H 547.5 -1.89386 0.460317 0
M  V30 5858 H 546.596 -3.08035 -0.502057 0
M  V30 5859 N 546.897 -0.0685191 -1.57451 0
M  V30 5860 C 548.122 0.613919 -1.98106 0
M  V30 5861 C 548.547 1.62551 -0.946501 0
M  V30 5862 O 547.905 1.81085 0.0882824 0
M  V30 5863 C 547.953 1.26189 -3.378 0
M  V30 5864 O 547.057 2.37773 -3.36954 0
M  V30 5865 H 546.398 0.158163 -0.644888 0
M  V30 5866 H 548.928 -0.142063 -2.04106 0
M  V30 5867 H 548.938 1.60951 -3.74912 0
M  V30 5868 H 547.613 0.520625 -4.12629 0
M  V30 5869 H 546.19 2.04829 -3.11608 0
M  V30 5870 N 548.375 1.56261 0.205012 0
M  V30 5871 C 549.305 1.96779 1.257 0
M  V30 5872 C 550.286 0.838309 1.48008 0
M  V30 5873 O 551.471 1.10189 1.59913 0
M  V30 5874 C 548.601 2.29876 2.60335 0
M  V30 5875 C 547.555 3.45469 2.52656 0
M  V30 5876 C 546.881 3.64215 3.91473 0
M  V30 5877 C 548.181 4.79954 2.06014 0
M  V30 5878 H 549.875 2.84904 0.920338 0
M  V30 5879 H 547.421 1.37072 0.441277 0
M  V30 5880 H 549.374 2.56814 3.34102 0
M  V30 5881 H 548.098 1.38622 2.95722 0
M  V30 5882 H 546.757 3.18605 1.81345 0
M  V30 5883 H 546.405 2.70309 4.24196 0
M  V30 5884 H 546.105 4.41973 3.87213 0
M  V30 5885 H 547.629 3.93519 4.66878 0
M  V30 5886 H 549.043 5.05989 2.69533 0
M  V30 5887 H 547.44 5.61111 2.12777 0
M  V30 5888 H 548.51 4.74201 1.01297 0
M  V30 5889 N 549.853 -0.472356 1.50355 0
M  V30 5890 C 551.078 -1.25251 1.65309 0
M  V30 5891 C 551.503 -1.85081 0.335643 0
M  V30 5892 O 550.861 -1.67227 -0.700335 0
M  V30 5893 C 550.909 -2.3379 2.74544 0
M  V30 5894 O 550.013 -3.38401 2.35709 0
M  V30 5895 H 549.354 -0.368539 0.552336 0
M  V30 5896 H 551.884 -0.562271 1.96722 0
M  V30 5897 H 551.894 -2.79121 2.97583 0
M  V30 5898 H 550.569 -1.89614 3.70161 0
M  V30 5899 H 549.146 -2.9879 2.23112 0
M  V30 5900 N 551.331 -1.39911 -0.725443 0
M  V30 5901 C 552.556 -1.41137 -1.5197 0
M  V30 5902 C 552.981 -0.010262 -1.88097 0
M  V30 5903 O 552.339 0.979184 -1.52583 0
M  V30 5904 C 552.387 -2.2994 -2.77777 0
M  V30 5905 O 551.491 -1.73586 -3.74088 0
M  V30 5906 H 550.832 -0.480219 -0.458569 0
M  V30 5907 H 553.362 -1.84023 -0.894249 0
M  V30 5908 H 553.372 -2.44785 -3.26411 0
M  V30 5909 H 552.047 -3.31759 -2.50816 0
M  V30 5910 H 550.624 -1.68035 -3.32894 0
M  V30 5911 N 552.809 0.956637 -1.25245 0
M  V30 5912 C 554.225 1.22733 -1.02023 0
M  V30 5913 C 554.425 1.99761 0.264186 0
M  V30 5914 O 553.481 2.32814 0.977436 0
M  V30 5915 C 554.794 2.00367 -2.24217 0
M  V30 5916 C 556.342 2.13418 -2.28958 0
M  V30 5917 C 556.817 2.9445 -3.50803 0
M  V30 5918 N 558.308 3.02029 -3.51187 0
M  V30 5919 C 559.043 3.65116 -4.42129 0
M  V30 5920 N 558.539 4.2983 -5.43339 0
M  V30 5921 N 560.332 3.62237 -4.29815 0
M  V30 5922 H 552.483 0.441282 -2.07765 0
M  V30 5923 H 554.746 0.257686 -0.912306 0
M  V30 5924 H 554.452 1.51165 -3.17556 0
M  V30 5925 H 554.326 3.01077 -2.27228 0
M  V30 5926 H 556.713 2.61819 -1.36143 0
M  V30 5927 H 556.794 1.1202 -2.29968 0
M  V30 5928 H 556.438 2.46741 -4.43939 0
M  V30 5929 H 556.368 3.9607 -3.47039 0
M  V30 5930 H 558.859 2.56007 -2.77973 0
M  V30 5931 H 559.172 4.75819 -6.08947 0
M  V30 5932 H 557.517 4.28465 -5.47214 0
M  V30 5933 H 560.708 3.10863 -3.49974 0
M  V30 5934 H 560.881 4.11117 -5.00886 0
M  V30 5935 N 554.287 1.06798 1.15896 0
M  V30 5936 C 555.237 0.653213 2.18443 0
M  V30 5937 C 556.221 -0.318763 1.57711 0
M  V30 5938 O 557.413 -0.133388 1.76497 0
M  V30 5939 C 554.542 0.0465785 3.43268 0
M  V30 5940 C 553.628 1.04336 4.11066 0
M  V30 5941 N 554.019 2.22084 4.54436 0
M  V30 5942 C 552.317 0.875433 4.37324 0
M  V30 5943 C 553.018 2.85276 5.06944 0
M  V30 5944 N 551.994 2.12973 5.00143 0
M  V30 5945 H 555.796 1.55011 2.49698 0
M  V30 5946 H 553.31 0.940384 1.32403 0
M  V30 5947 H 555.307 -0.26843 4.16035 0
M  V30 5948 H 553.967 -0.845504 3.13499 0
M  V30 5949 H 554.978 2.59833 4.48004 0
M  V30 5950 H 551.655 0.0357721 4.17485 0
M  V30 5951 H 553.045 3.85223 5.50503 0
M  V30 5952 N 555.766 -1.3263 0.851289 0
M  V30 5953 C 556.994 -2.01563 0.466899 0
M  V30 5954 C 557.409 -1.63996 -0.935447 0
M  V30 5955 O 556.766 -0.85957 -1.6099 0
M  V30 5956 C 556.817 -3.56613 0.592433 0
M  V30 5957 O 556.538 -3.92828 1.93954 0
M  V30 5958 C 558.039 -4.42818 0.206612 0
M  V30 5959 H 555.259 -0.645307 0.183902 0
M  V30 5960 H 557.803 -1.69285 1.1473 0
M  V30 5961 H 555.958 -3.87379 -0.0401936 0
M  V30 5962 H 556.372 -4.87545 1.9339 0
M  V30 5963 H 557.846 -5.50918 0.345462 0
M  V30 5964 H 558.323 -4.30844 -0.85264 0
M  V30 5965 H 558.929 -4.17434 0.814176 0
M  V30 5966 N 557.244 -0.608902 -1.45362 0
M  V30 5967 C 558.472 -0.111013 -2.06602 0
M  V30 5968 C 558.887 1.20516 -1.45332 0
M  V30 5969 O 558.244 1.73437 -0.567978 0
M  V30 5970 C 558.295 0.033688 -3.61484 0
M  V30 5971 O 558.016 -1.23041 -4.20467 0
M  V30 5972 C 559.517 0.562882 -4.39712 0
M  V30 5973 H 556.737 -0.0694453 -0.667397 0
M  V30 5974 H 559.281 -0.837008 -1.86586 0
M  V30 5975 H 557.436 0.710016 -3.80838 0
M  V30 5976 H 557.85 -1.06094 -5.13658 0
M  V30 5977 H 559.324 0.613213 -5.48583 0
M  V30 5978 H 559.801 1.58543 -4.09586 0
M  V30 5979 H 560.407 -0.0794454 -4.25226 0
M  V30 5980 N 558.722 1.53707 -0.348139 0
M  V30 5981 C 559.652 2.28111 0.498766 0
M  V30 5982 C 560.633 1.29851 1.09876 0
M  V30 5983 O 561.818 1.587 1.11928 0
M  V30 5984 C 558.948 3.05735 1.64753 0
M  V30 5985 C 557.902 4.11537 1.17565 0
M  V30 5986 C 557.228 4.77142 2.4133 0
M  V30 5987 C 558.528 5.21587 0.272844 0
M  V30 5988 H 560.222 2.99152 -0.121934 0
M  V30 5989 H 557.768 1.43875 -0.0600842 0
M  V30 5990 H 559.721 3.56526 2.24649 0
M  V30 5991 H 558.445 2.32354 2.2952 0
M  V30 5992 H 557.104 3.61665 0.599483 0
M  V30 5993 H 556.752 4.0035 3.04514 0
M  V30 5994 H 556.452 5.48626 2.10436 0
M  V30 5995 H 557.976 5.30719 3.01943 0
M  V30 5996 H 559.39 5.67986 0.778779 0
M  V30 5997 H 557.787 6.00074 0.0555849 0
M  V30 5998 H 558.857 4.79969 -0.689785 0
M  V30 5999 N 560.2 0.0768682 1.57412 0
M  V30 6000 C 561.13 -0.886026 2.16037 0
M  V30 6001 C 562.111 -1.30691 1.08876 0
M  V30 6002 O 563.296 -1.37705 1.36934 0
M  V30 6003 C 560.426 -2.1518 2.72608 0
M  V30 6004 C 559.38 -1.87015 3.8498 0
M  V30 6005 C 558.706 -3.20266 4.28175 0
M  V30 6006 C 560.006 -1.17143 5.08994 0
M  V30 6007 H 561.7 -0.397642 2.96748 0
M  V30 6008 H 559.246 -0.189823 1.42743 0
M  V30 6009 H 561.199 -2.82962 3.12266 0
M  V30 6010 H 559.923 -2.66269 1.89125 0
M  V30 6011 H 558.582 -1.21636 3.45833 0
M  V30 6012 H 558.23 -3.69207 3.41607 0
M  V30 6013 H 557.93 -3.0221 5.03927 0
M  V30 6014 H 559.454 -3.89237 4.70454 0
M  V30 6015 H 560.868 -1.75003 5.45937 0
M  V30 6016 H 559.265 -1.09328 5.90057 0
M  V30 6017 H 560.335 -0.151295 4.84664 0
M  V30 6018 N 561.678 -1.56367 -0.196722 0
M  V30 6019 C 562.906 -1.84639 -0.933608 0
M  V30 6020 C 563.321 -0.659164 -1.76919 0
M  V30 6021 O 562.678 0.372142 -1.78665 0
M  V30 6022 C 562.729 -3.11694 -1.83109 0
M  V30 6023 O 562.45 -4.25838 -1.02924 0
M  V30 6024 C 563.951 -3.53132 -2.67979 0
M  V30 6025 H 561.171 -0.613188 -0.272473 0
M  V30 6026 H 563.715 -2.03475 -0.204465 0
M  V30 6027 H 561.87 -2.94759 -2.51387 0
M  V30 6028 H 562.284 -4.98178 -1.64069 0
M  V30 6029 H 563.758 -4.45005 -3.26611 0
M  V30 6030 H 564.235 -2.76045 -3.41608 0
M  V30 6031 H 564.841 -3.72592 -2.05074 0
M  V30 6032 N 563.156 0.464375 -1.50603 0
M  V30 6033 C 564.572 0.798684 -1.38178 0
M  V30 6034 C 564.772 1.96568 -0.44308 0
M  V30 6035 O 563.828 2.52252 0.111814 0
M  V30 6036 C 565.141 1.10444 -2.79683 0
M  V30 6037 C 566.689 1.2105 -2.88645 0
M  V30 6038 C 567.164 1.54934 -4.30998 0
M  V30 6039 N 568.655 1.61913 -4.3398 0
M  V30 6040 C 569.39 1.8965 -5.41129 0
M  V30 6041 N 568.886 2.15361 -6.58477 0
M  V30 6042 N 570.679 1.91207 -5.28579 0
M  V30 6043 H 562.83 -0.304603 -2.10204 0
M  V30 6044 H 565.093 -0.0737804 -0.945125 0
M  V30 6045 H 564.799 0.319934 -3.50242 0
M  V30 6046 H 564.673 2.03896 -3.17342 0
M  V30 6047 H 567.06 1.98567 -2.18301 0
M  V30 6048 H 567.141 0.255613 -2.5452 0
M  V30 6049 H 566.785 0.779549 -5.01882 0
M  V30 6050 H 566.715 2.51584 -4.62615 0
M  V30 6051 H 569.206 1.44055 -3.49366 0
M  V30 6052 H 569.519 2.35818 -7.35941 0
M  V30 6053 H 567.864 2.1274 -6.6164 0
M  V30 6054 H 571.055 1.70622 -4.35897 0
M  V30 6055 H 571.228 2.12488 -6.12171 0
M  V30 6056 N 564.634 1.40294 0.718013 0
M  V30 6057 C 565.859 1.41941 1.5122 0
M  V30 6058 C 566.284 0.0202371 1.88089 0
M  V30 6059 O 565.642 -0.971078 1.53101 0
M  V30 6060 C 565.69 2.3141 2.76554 0
M  V30 6061 O 564.794 1.75567 3.73162 0
M  V30 6062 H 564.135 0.482644 0.456016 0
M  V30 6063 H 566.665 1.84494 0.884478 0
M  V30 6064 H 566.675 2.46513 3.25108 0
M  V30 6065 H 565.35 3.33085 2.49053 0
M  V30 6066 H 563.927 1.69798 3.31999 0
M  V30 6067 N 566.112 -0.949982 1.2575 0
M  V30 6068 C 567.337 -1.73503 1.13628 0
M  V30 6069 C 567.762 -1.85601 -0.30559 0
M  V30 6070 O 567.12 -1.33984 -1.22139 0
M  V30 6071 C 567.168 -3.1243 1.80055 0
M  V30 6072 O 566.272 -3.97916 1.08336 0
M  V30 6073 H 565.613 -0.532665 0.396439 0
M  V30 6074 H 568.143 -1.19043 1.66403 0
M  V30 6075 H 568.153 -3.62866 1.86527 0
M  V30 6076 H 566.828 -3.02941 2.84956 0
M  V30 6077 H 565.405 -3.56375 1.09777 0
M  V30 6078 N 567.59 -1.07411 -1.15328 0
M  V30 6079 C 568.83 -0.807011 -1.87794 0
M  V30 6080 C 569.194 0.654987 -1.80482 0
M  V30 6081 O 570.395 1.03716 -2.47985 0
M  V30 6082 C 568.666 -1.30198 -3.32841 0
M  V30 6083 S 570.225 -1.16564 -4.23034 0
M  V30 6084 H 567.043 -0.292429 -0.648079 0
M  V30 6085 H 569.645 -1.37334 -1.39139 0
M  V30 6086 H 568.349 -2.3607 -3.35707 0
M  V30 6087 H 567.88 -0.730881 -3.86551 0
M  V30 6088 H 569.895 -0.103557 -4.96092 0
M  V30 6089 N 569.068 1.32177 -0.85831 0
M  V30 6090 C 570.479 1.79381 -0.517621 0
M  V30 6091 C 570.83 1.70841 0.964769 0
M  V30 6092 O 569.955 1.26917 1.75274 0
M  V30 6093 C 570.55 3.25706 -0.932801 0
M  V30 6094 C 569.109 3.70851 -0.643953 0
M  V30 6095 C 568.256 2.53208 -1.13054 0
M  V30 6096 H 571.207 1.19424 -1.04516 0
M  V30 6097 H 571.228 3.79673 -0.250674 0
M  V30 6098 H 570.74 3.31889 -2.01174 0
M  V30 6099 H 568.841 3.70178 0.424112 0
M  V30 6100 H 568.954 4.63495 -1.21281 0
M  V30 6101 H 567.318 2.48676 -0.550679 0
M  V30 6102 H 568.101 2.62143 -2.21666 0
M  V30 6103 N 570.547 0.616602 1.45037 0
M  V30 6104 C 571.51 -0.0871112 2.29034 0
M  V30 6105 C 572.51 -0.786414 1.40258 0
M  V30 6106 O 573.7 -0.633207 1.62284 0
M  V30 6107 C 570.832 -1.13369 3.21497 0
M  V30 6108 H 572.025 0.651497 2.92738 0
M  V30 6109 H 569.578 0.376058 1.51709 0
M  V30 6110 H 570.313 -1.90277 2.62612 0
M  V30 6111 H 570.098 -0.636358 3.86902 0
M  V30 6112 H 571.588 -1.62627 3.84633 0
M  V30 6113 N 572.025 -1.5352 0.356285 0
M  V30 6114 C 573.253 -2.05534 -0.237328 0
M  V30 6115 C 573.668 -1.23043 -1.43199 0
M  V30 6116 O 573.025 -0.268821 -1.80509 0
M  V30 6117 C 573.076 -3.55791 -0.639933 0
M  V30 6118 O 572.797 -4.35154 0.507233 0
M  V30 6119 C 574.298 -4.24027 -1.29292 0
M  V30 6120 H 571.518 -0.669585 -0.0435572 0
M  V30 6121 H 574.062 -1.97988 0.511963 0
M  V30 6122 H 572.217 -3.63518 -1.33915 0
M  V30 6123 H 572.631 -5.24178 0.18375 0
M  V30 6124 H 574.105 -5.30509 -1.52527 0
M  V30 6125 H 574.582 -3.77166 -2.25039 0
M  V30 6126 H 575.188 -4.20527 -0.63539 0
M  V30 6127 N 573.503 -0.0852151 -1.57369 0
M  V30 6128 C 574.433 0.874556 -2.16503 0
M  V30 6129 C 575.414 1.30111 -1.09568 0
M  V30 6130 O 576.599 1.36977 -1.37662 0
M  V30 6131 C 573.729 2.13731 -2.73745 0
M  V30 6132 C 572.683 1.84971 -3.85966 0
M  V30 6133 C 572.009 3.17991 -4.29867 0
M  V30 6134 C 573.309 1.14442 -5.09608 0
M  V30 6135 H 575.003 0.381899 -2.96954 0
M  V30 6136 H 572.549 0.18225 -1.42842 0
M  V30 6137 H 574.502 2.81302 -3.13763 0
M  V30 6138 H 573.226 2.65263 -1.90534 0
M  V30 6139 H 571.885 1.19801 -3.46473 0
M  V30 6140 H 571.533 3.6739 -3.4356 0
M  V30 6141 H 571.233 2.99534 -5.05523 0
M  V30 6142 H 572.757 3.86737 -4.72511 0
M  V30 6143 H 574.171 1.72105 -5.46857 0
M  V30 6144 H 572.568 1.06197 -5.90629 0
M  V30 6145 H 573.638 0.12559 -4.84737 0
M  V30 6146 N 574.981 1.5647 0.188427 0
M  V30 6147 C 576.206 1.85486 0.927891 0
M  V30 6148 C 576.631 0.669575 1.75779 0
M  V30 6149 O 575.989 -0.381573 1.77239 0
M  V30 6150 C 576.037 3.12784 1.7944 0
M  V30 6151 O 575.141 2.93805 2.894 0
M  V30 6152 H 574.482 0.610585 0.260925 0
M  V30 6153 H 577.012 2.037 0.191729 0
M  V30 6154 H 577.022 3.43749 2.19774 0
M  V30 6155 H 575.697 3.98671 1.18468 0
M  V30 6156 H 574.274 2.74153 2.52774 0
M  V30 6157 N 576.459 -0.456382 1.50847 0
M  V30 6158 C 577.389 -1.56025 1.73719 0
M  V30 6159 C 578.37 -1.5967 0.586473 0
M  V30 6160 O 579.555 -1.75702 0.827185 0
M  V30 6161 C 576.685 -2.94251 1.84483 0
M  V30 6162 C 575.639 -3.05471 2.99786 0
M  V30 6163 C 574.965 -4.45489 2.95709 0
M  V30 6164 C 576.265 -2.81318 4.40065 0
M  V30 6165 H 577.959 -1.37138 2.66146 0
M  V30 6166 H 575.505 -0.658299 1.28072 0
M  V30 6167 H 577.458 -3.71417 1.99067 0
M  V30 6168 H 576.182 -3.14328 0.886891 0
M  V30 6169 H 574.841 -2.30741 2.84876 0
M  V30 6170 H 574.489 -4.62505 1.97732 0
M  V30 6171 H 574.189 -4.53929 3.73125 0
M  V30 6172 H 575.713 -5.24655 3.12362 0
M  V30 6173 H 577.127 -3.48226 4.55425 0
M  V30 6174 H 575.524 -3.01188 5.19043 0
M  V30 6175 H 576.594 -1.7706 4.51418 0
M  V30 6176 N 577.937 -1.40673 -0.710563 0
M  V30 6177 C 579.162 -1.42741 -1.50465 0
M  V30 6178 C 579.587 -0.0302116 -1.88076 0
M  V30 6179 O 578.945 0.962945 -1.53613 0
M  V30 6180 C 578.993 -2.32873 -2.75322 0
M  V30 6181 O 578.097 -1.77544 -3.72226 0
M  V30 6182 H 577.438 -0.485056 -0.45345 0
M  V30 6183 H 579.968 -1.84961 -0.874681 0
M  V30 6184 H 579.978 -2.48233 -3.23797 0
M  V30 6185 H 578.653 -3.34401 -2.47283 0
M  V30 6186 H 577.23 -1.71556 -3.31093 0
M  V30 6187 N 579.415 0.9433 -1.26252 0
M  V30 6188 C 580.345 2.05902 -1.10122 0
M  V30 6189 C 581.326 1.70099 -0.00700552 0
M  V30 6190 O 582.511 1.93377 -0.178641 0
M  V30 6191 C 579.641 3.39516 -0.731175 0
M  V30 6192 C 578.595 3.89372 -1.77688 0
M  V30 6193 C 577.921 5.19613 -1.26122 0
M  V30 6194 C 579.221 4.14489 -3.17799 0
M  V30 6195 H 580.915 2.19655 -2.03451 0
M  V30 6196 H 578.461 1.05548 -0.979576 0
M  V30 6197 H 580.414 4.17031 -0.605215 0
M  V30 6198 H 579.138 3.25733 0.23782 0
M  V30 6199 H 577.797 3.14036 -1.89148 0
M  V30 6200 H 577.445 5.02208 -0.282128 0
M  V30 6201 H 577.145 5.53939 -1.96023 0
M  V30 6202 H 578.669 5.99713 -1.14789 0
M  V30 6203 H 580.083 4.82625 -3.09428 0
M  V30 6204 H 578.48 4.60094 -3.85271 0
M  V30 6205 H 579.55 3.20347 -3.64014 0
M  V30 6206 N 580.893 1.08022 1.14757 0
M  V30 6207 C 582.118 0.82895 1.90114 0
M  V30 6208 C 582.543 -0.612772 1.77839 0
M  V30 6209 O 581.901 -1.42895 1.11583 0
M  V30 6210 C 581.949 1.25062 3.38219 0
M  V30 6211 O 581.053 0.400119 4.10454 0
M  V30 6212 H 580.394 0.301412 0.591648 0
M  V30 6213 H 582.924 1.44062 1.45284 0
M  V30 6214 H 582.934 1.22977 3.89025 0
M  V30 6215 H 581.609 2.30067 3.46471 0
M  V30 6216 H 580.186 0.484052 3.69745 0
M  V30 6217 N 582.371 -1.3172 0.865308 0
M  V30 6218 C 583.301 -2.31109 0.333302 0
M  V30 6219 C 584.282 -1.60148 -0.573301 0
M  V30 6220 O 585.467 -1.87882 -0.491305 0
M  V30 6221 C 582.597 -3.44104 -0.470078 0
M  V30 6222 C 581.551 -4.26623 0.343021 0
M  V30 6223 C 580.877 -5.31482 -0.585756 0
M  V30 6224 C 582.177 -4.98001 1.57456 0
M  V30 6225 H 583.871 -2.75855 1.1638 0
M  V30 6226 H 581.417 -1.3262 0.561069 0
M  V30 6227 H 583.37 -4.12682 -0.852752 0
M  V30 6228 H 582.094 -2.98112 -1.33404 0
M  V30 6229 H 580.753 -3.59707 0.707583 0
M  V30 6230 H 580.401 -4.81741 -1.44686 0
M  V30 6231 H 580.101 -5.87582 -0.0456494 0
M  V30 6232 H 581.625 -6.0292 -0.965375 0
M  V30 6233 H 583.039 -5.59201 1.26359 0
M  V30 6234 H 581.436 -5.63876 2.05339 0
M  V30 6235 H 582.506 -4.25253 2.32997 0
M  V30 6236 N 583.85 -0.624285 -1.44708 0
M  V30 6237 C 585.077 -0.132919 -2.06473 0
M  V30 6238 C 585.493 1.18967 -1.46602 0
M  V30 6239 O 584.85 1.72824 -0.586341 0
M  V30 6240 C 584.901 -0.00465418 -3.615 0
M  V30 6241 O 584.622 -1.27494 -4.19138 0
M  V30 6242 C 586.123 0.516213 -4.40284 0
M  V30 6243 H 583.343 -0.0765201 -0.666623 0
M  V30 6244 H 585.887 -0.856751 -1.85688 0
M  V30 6245 H 584.042 0.669583 -3.8157 0
M  V30 6246 H 584.456 -1.11536 -5.12504 0
M  V30 6247 H 585.93 0.554994 -5.49203 0
M  V30 6248 H 586.407 1.5419 -4.11245 0
M  V30 6249 H 587.013 -0.124542 -4.25118 0
M  V30 6250 N 585.328 1.53329 -0.364422 0
M  V30 6251 C 586.258 2.28627 0.474543 0
M  V30 6252 C 587.239 1.31009 1.08492 0
M  V30 6253 O 588.424 1.59878 1.10239 0
M  V30 6254 C 585.554 3.07465 1.61501 0
M  V30 6255 C 584.508 4.1276 1.13194 0
M  V30 6256 C 583.834 4.79674 2.36255 0
M  V30 6257 C 585.134 5.21847 0.217507 0
M  V30 6258 H 586.828 2.99005 -0.153656 0
M  V30 6259 H 584.374 1.43803 -0.0753406 0
M  V30 6260 H 586.327 3.58889 2.20855 0
M  V30 6261 H 585.051 2.34775 2.27042 0
M  V30 6262 H 583.71 3.62281 0.56109 0
M  V30 6263 H 583.358 4.03557 3.00251 0
M  V30 6264 H 583.058 5.50827 2.04606 0
M  V30 6265 H 584.582 5.33892 2.96297 0
M  V30 6266 H 585.996 5.6878 0.718493 0
M  V30 6267 H 584.393 6.00099 -0.00806408 0
M  V30 6268 H 585.463 4.7921 -0.740653 0
M  V30 6269 N 586.806 0.0935595 1.57322 0
M  V30 6270 C 588.031 -0.582324 1.99057 0
M  V30 6271 C 588.456 -1.61025 0.972242 0
M  V30 6272 O 587.814 -1.81202 -0.0594622 0
M  V30 6273 C 587.862 -1.20799 3.39765 0
M  V30 6274 O 586.966 -2.32382 3.40694 0
M  V30 6275 H 586.307 -0.147884 0.647323 0
M  V30 6276 H 588.837 0.174516 2.03854 0
M  V30 6277 H 588.847 -1.54966 3.77425 0
M  V30 6278 H 587.522 -0.454914 4.13405 0
M  V30 6279 H 586.099 -1.99845 3.14827 0
M  V30 6280 N 588.284 -1.56567 -0.180126 0
M  V30 6281 C 589.532 -1.81133 -0.896392 0
M  V30 6282 C 589.853 -0.669114 -1.83161 0
M  V30 6283 O 589.123 0.311616 -1.93406 0
M  V30 6284 H 587.703 -0.668172 -0.333999 0
M  V30 6285 H 590.365 -1.94048 -0.182051 0
M  V30 6286 H 589.461 -2.74854 -1.47857 0
M  V30 6287 N 589.762 0.448376 -1.51087 0
M  V30 6288 C 591.178 0.783984 -1.39017 0
M  V30 6289 C 591.378 1.96087 -0.463904 0
M  V30 6290 O 590.434 2.52357 0.0850534 0
M  V30 6291 C 591.747 1.07471 -2.80839 0
M  V30 6292 C 593.295 1.17981 -2.89913 0
M  V30 6293 C 593.77 1.50354 -4.32617 0
M  V30 6294 N 595.261 1.57301 -4.35673 0
M  V30 6295 C 595.996 1.839 -5.4311 0
M  V30 6296 N 595.492 2.08365 -6.60724 0
M  V30 6297 N 597.285 1.8559 -5.30578 0
M  V30 6298 H 589.436 -0.326881 -2.0987 0
M  V30 6299 H 591.699 -0.0838006 -0.944289 0
M  V30 6300 H 591.405 0.282768 -3.50561 0
M  V30 6301 H 591.279 2.00519 -3.19487 0
M  V30 6302 H 593.666 1.9624 -2.20395 0
M  V30 6303 H 593.747 0.228603 -2.54776 0
M  V30 6304 H 593.391 0.726273 -5.0268 0
M  V30 6305 H 593.321 2.46663 -4.65258 0
M  V30 6306 H 595.812 1.40342 -3.50874 0
M  V30 6307 H 596.125 2.27999 -7.38401 0
M  V30 6308 H 594.47 2.0571 -6.63859 0
M  V30 6309 H 597.661 1.65989 -4.37682 0
M  V30 6310 H 597.834 2.05983 -6.1439 0
M  V30 6311 N 591.24 1.41047 0.703093 0
M  V30 6312 C 592.651 1.35657 1.28274 0
M  V30 6313 C 593.002 0.0360309 1.96167 0
M  V30 6314 O 592.127 -0.865833 1.98324 0
M  V30 6315 C 592.722 2.45707 2.33267 0
M  V30 6316 C 591.281 2.43738 2.86825 0
M  V30 6317 C 590.428 2.25941 1.60767 0
M  V30 6318 H 593.379 1.50672 0.49836 0
M  V30 6319 H 593.4 2.14333 3.14391 0
M  V30 6320 H 592.912 3.41805 1.83824 0
M  V30 6321 H 591.013 1.51375 3.40465 0
M  V30 6322 H 591.126 3.39779 3.37768 0
M  V30 6323 H 589.49 1.73681 1.86298 0
M  V30 6324 H 590.273 3.24054 1.1333 0
M  V30 6325 N 592.718 -0.936591 1.26751 0
M  V30 6326 C 594.134 -1.21095 1.03963 0
M  V30 6327 C 594.334 -2.00156 -0.232372 0
M  V30 6328 O 593.39 -2.3434 -0.940274 0
M  V30 6329 C 594.703 -1.96775 2.27377 0
M  V30 6330 C 596.251 -2.09749 2.32324 0
M  V30 6331 C 596.726 -2.88832 3.55443 0
M  V30 6332 N 598.217 -2.96404 3.55948 0
M  V30 6333 C 598.952 -3.58036 4.47881 0
M  V30 6334 N 598.448 -4.21132 5.50109 0
M  V30 6335 N 600.241 -3.55353 4.35523 0
M  V30 6336 H 592.392 -0.408173 2.08441 0
M  V30 6337 H 594.655 -0.243139 0.91629 0
M  V30 6338 H 594.361 -1.46094 3.19921 0
M  V30 6339 H 594.235 -2.97424 2.31989 0
M  V30 6340 H 596.622 -2.5962 1.40291 0
M  V30 6341 H 596.703 -1.08347 2.31721 0
M  V30 6342 H 596.347 -2.39647 4.47808 0
M  V30 6343 H 596.277 -3.90499 3.53296 0
M  V30 6344 H 598.768 -2.51552 2.82011 0
M  V30 6345 H 599.081 -4.66071 6.16439 0
M  V30 6346 H 597.426 -4.19705 5.53961 0
M  V30 6347 H 600.617 -3.05256 3.54875 0
M  V30 6348 H 600.79 -4.03097 5.07363 0
M  V30 6349 N 594.196 -1.08629 -1.14182 0
M  V30 6350 C 595.607 -0.838003 -1.66836 0
M  V30 6351 C 595.958 0.634885 -1.85644 0
M  V30 6352 O 595.083 1.49008 -1.56926 0
M  V30 6353 C 595.678 -1.51465 -3.03058 0
M  V30 6354 C 594.237 -1.31355 -3.52736 0
M  V30 6355 C 593.384 -1.57599 -2.28162 0
M  V30 6356 H 596.335 -1.24656 -0.982165 0
M  V30 6357 H 596.356 -0.943134 -3.68626 0
M  V30 6358 H 595.868 -2.58661 -2.89337 0
M  V30 6359 H 593.969 -0.262384 -3.71675 0
M  V30 6360 H 594.082 -2.04275 -4.33369 0
M  V30 6361 H 592.446 -0.997659 -2.34348 0
M  V30 6362 H 593.229 -2.66006 -2.17015 0
M  V30 6363 N 595.674 1.31259 -0.872281 0
M  V30 6364 C 596.584 2.32221 -0.333255 0
M  V30 6365 C 597.6 1.6481 0.558013 0
M  V30 6366 O 598.776 1.96212 0.454175 0
M  V30 6367 C 595.841 3.43708 0.454479 0
M  V30 6368 C 594.902 4.26774 -0.465024 0
M  V30 6369 C 594.135 5.32937 0.28521 0
M  V30 6370 O 594.358 5.49968 1.513 0
M  V30 6371 O 593.292 6.00834 -0.358126 0
M  V30 6372 H 597.118 2.80252 -1.17016 0
M  V30 6373 H 594.703 1.352 -0.635724 0
M  V30 6374 H 596.585 4.11656 0.900963 0
M  V30 6375 H 595.26 2.97836 1.26789 0
M  V30 6376 H 594.167 3.61571 -0.960055 0
M  V30 6377 H 595.5 4.76217 -1.2441 0
M  V30 6378 N 597.152 0.631951 1.44375 0
M  V30 6379 C 598.062 -0.073674 2.34484 0
M  V30 6380 C 599.078 -0.834825 1.52665 0
M  V30 6381 O 600.254 -0.786902 1.85391 0
M  V30 6382 C 597.319 -1.04247 3.30656 0
M  V30 6383 C 596.38 -0.280602 4.28382 0
M  V30 6384 C 595.613 -1.20325 5.19959 0
M  V30 6385 O 595.836 -2.44199 5.15484 0
M  V30 6386 O 594.77 -0.687128 5.97965 0
M  V30 6387 H 598.596 0.667477 2.96274 0
M  V30 6388 H 596.181 0.392144 1.44162 0
M  V30 6389 H 598.063 -1.59981 3.89851 0
M  V30 6390 H 596.738 -1.76422 2.71398 0
M  V30 6391 H 595.645 0.319804 3.72731 0
M  V30 6392 H 596.978 0.401144 4.90563 0
M  V30 6393 N 598.631 -1.53133 0.372548 0
M  V30 6394 C 599.856 -2.0625 -0.218098 0
M  V30 6395 C 600.281 -1.24375 -1.41111 0
M  V30 6396 O 599.639 -0.264554 -1.79359 0
M  V30 6397 C 599.687 -3.55858 -0.582876 0
M  V30 6398 O 598.791 -3.76667 -1.67917 0
M  V30 6399 H 598.132 -0.663317 -0.030104 0
M  V30 6400 H 600.662 -1.97477 0.535169 0
M  V30 6401 H 600.672 -3.99007 -0.851925 0
M  V30 6402 H 599.347 -4.14892 0.289428 0
M  V30 6403 H 597.924 -3.45413 -1.40513 0
M  V30 6404 N 600.109 -0.101901 -1.5727 0
M  V30 6405 C 601.52 0.426173 -1.81771 0
M  V30 6406 C 601.871 1.67725 -1.01797 0
M  V30 6407 O 600.996 2.14958 -0.249386 0
M  V30 6408 C 601.591 0.779962 -3.297 0
M  V30 6409 C 600.15 1.25275 -3.54941 0
M  V30 6410 C 599.297 0.252814 -2.76145 0
M  V30 6411 H 602.248 -0.32726 -1.55289 0
M  V30 6412 H 602.269 1.63891 -3.43395 0
M  V30 6413 H 601.781 -0.130778 -3.8788 0
M  V30 6414 H 599.882 2.18097 -3.021 0
M  V30 6415 H 599.995 1.20988 -4.63572 0
M  V30 6416 H 598.359 0.736362 -2.43823 0
M  V30 6417 H 599.142 -0.650724 -3.37076 0
M  V30 6418 N 601.587 1.56661 0.17182 0
M  V30 6419 C 603.003 1.50768 0.52357 0
M  V30 6420 C 603.203 0.806072 1.84675 0
M  V30 6421 O 602.259 0.366233 2.4983 0
M  V30 6422 C 603.572 2.955 0.556793 0
M  V30 6423 C 605.12 3.06303 0.644029 0
M  V30 6424 C 605.595 4.52492 0.708148 0
M  V30 6425 N 607.086 4.56737 0.771051 0
M  V30 6426 C 607.821 5.67196 0.841229 0
M  V30 6427 N 607.317 6.87287 0.872272 0
M  V30 6428 N 609.11 5.55165 0.88021 0
M  V30 6429 H 601.261 2.00679 -0.695817 0
M  V30 6430 H 603.524 0.914219 -0.250814 0
M  V30 6431 H 603.23 3.49986 -0.346774 0
M  V30 6432 H 603.104 3.50119 1.40346 0
M  V30 6433 H 605.491 2.51851 1.53802 0
M  V30 6434 H 605.572 2.5477 -0.229297 0
M  V30 6435 H 605.216 5.07575 -0.181585 0
M  V30 6436 H 605.146 5.01781 1.59761 0
M  V30 6437 H 607.637 3.70274 0.755364 0
M  V30 6438 H 607.95 7.6722 0.92698 0
M  V30 6439 H 606.295 6.89898 0.840557 0
M  V30 6440 H 609.486 4.60263 0.852956 0
M  V30 6441 H 609.659 6.41271 0.931439 0
M  V30 6442 N 603.065 -0.440357 1.51323 0
M  V30 6443 C 604.342 -1.20109 1.5438 0
M  V30 6444 C 604.722 -2.08866 0.306303 0
M  V30 6445 O 604.07 -2.1723 -0.708773 0
M  V30 6446 C 604.28 -2.00555 2.8562 0
M  V30 6447 C 605.628 -2.577 3.37455 0
M  V30 6448 O 606.652 -2.10769 2.8715 0
M  V30 6449 O 605.511 -3.43289 4.25224 0
M  V30 6450 H 602.605 -0.546668 0.620551 0
M  V30 6451 H 605.151 -0.449672 1.63634 0
M  V30 6452 H 603.923 -1.35346 3.67147 0
M  V30 6453 H 603.546 -2.82768 2.79514 0
M  V30 6454 N 604.543 -1.41418 -0.695603 0
M  V30 6455 C 605.473 -1.46035 -1.82197 0
M  V30 6456 C 606.454 -0.319025 -1.67082 0
M  V30 6457 O 607.639 -0.530462 -1.86815 0
M  V30 6458 C 604.769 -1.34179 -3.20333 0
M  V30 6459 C 603.723 -2.46123 -3.50154 0
M  V30 6460 C 603.049 -2.19332 -4.87645 0
M  V30 6461 C 604.349 -3.88463 -3.49133 0
M  V30 6462 H 606.043 -2.40303 -1.78591 0
M  V30 6463 H 603.589 -1.15663 -0.857797 0
M  V30 6464 H 605.542 -1.36021 -3.98844 0
M  V30 6465 H 604.266 -0.363952 -3.24566 0
M  V30 6466 H 602.925 -2.43563 -2.73994 0
M  V30 6467 H 602.573 -1.19891 -4.88503 0
M  V30 6468 H 602.273 -2.94344 -5.08562 0
M  V30 6469 H 603.797 -2.22889 -5.68465 0
M  V30 6470 H 605.211 -3.92738 -4.17648 0
M  V30 6471 H 603.608 -4.63158 -3.81582 0
M  V30 6472 H 604.678 -4.16617 -2.48109 0
M  V30 6473 N 606.021 0.929856 -1.27246 0
M  V30 6474 C 606.931 2.0636 -1.11592 0
M  V30 6475 C 607.947 1.73938 -0.046496 0
M  V30 6476 O 609.123 1.9981 -0.252544 0
M  V30 6477 C 606.188 3.38213 -0.762437 0
M  V30 6478 C 605.249 3.84346 -1.9125 0
M  V30 6479 C 604.482 5.09906 -1.57579 0
M  V30 6480 O 604.705 5.68354 -0.482694 0
M  V30 6481 O 603.639 5.51359 -2.41426 0
M  V30 6482 H 607.465 2.22478 -2.0673 0
M  V30 6483 H 605.05 1.04865 -1.06413 0
M  V30 6484 H 606.932 4.1741 -0.57854 0
M  V30 6485 H 605.607 3.23307 0.159439 0
M  V30 6486 H 604.514 3.06045 -2.15144 0
M  V30 6487 H 605.847 4.0379 -2.81451 0
M  V30 6488 N 607.499 1.09233 1.13605 0
M  V30 6489 C 608.429 0.751738 2.21068 0
M  V30 6490 C 609.41 -0.269688 1.67948 0
M  V30 6491 O 610.595 -0.13819 1.93708 0
M  V30 6492 C 607.725 0.16935 3.46887 0
M  V30 6493 C 606.679 1.12007 4.13084 0
M  V30 6494 C 606.005 0.399483 5.33206 0
M  V30 6495 C 607.305 2.46168 4.6065 0
M  V30 6496 H 608.999 1.65024 2.49815 0
M  V30 6497 H 606.545 0.794905 1.20072 0
M  V30 6498 H 608.498 -0.0809824 4.21322 0
M  V30 6499 H 607.222 -0.764335 3.1753 0
M  V30 6500 H 605.881 1.35564 3.40614 0
M  V30 6501 H 605.529 -0.538277 5.00112 0
M  V30 6502 H 605.229 1.03337 5.78442 0
M  V30 6503 H 606.753 0.157403 6.10397 0
M  V30 6504 H 608.167 2.26829 5.26518 0
M  V30 6505 H 606.564 3.05326 5.1662 0
M  V30 6506 H 607.634 3.07076 3.75276 0
M  V30 6507 N 608.977 -1.30795 0.87923 0
M  V30 6508 C 609.94 -2.26563 0.346676 0
M  V30 6509 C 610.94 -1.52578 -0.507597 0
M  V30 6510 O 612.13 -1.71318 -0.315575 0
M  V30 6511 C 609.262 -3.37115 -0.506611 0
M  V30 6512 H 610.455 -2.75183 1.19223 0
M  V30 6513 H 608.008 -1.41886 0.655598 0
M  V30 6514 H 608.743 -2.93802 -1.37299 0
M  V30 6515 H 608.528 -3.91959 0.105218 0
M  V30 6516 H 610.018 -4.08412 -0.871192 0
M  V30 6517 N 610.455 -0.639598 -1.44038 0
M  V30 6518 C 611.732 -0.078012 -1.95444 0
M  V30 6519 C 612.112 1.39847 -1.58133 0
M  V30 6520 O 611.46 2.11714 -0.859614 0
M  V30 6521 C 611.67 -0.309832 -3.47622 0
M  V30 6522 C 613.018 -0.207521 -4.24093 0
M  V30 6523 O 614.042 -0.241653 -3.55379 0
M  V30 6524 O 612.901 -0.119641 -5.46369 0
M  V30 6525 H 609.995 0.0174534 -0.826816 0
M  V30 6526 H 612.541 -0.711891 -1.54046 0
M  V30 6527 H 611.313 -1.33401 -3.67858 0
M  V30 6528 H 610.936 0.357777 -3.95987 0
M  V30 6529 N 611.933 1.52934 -0.380664 0
M  V30 6530 C 613.181 2.01069 0.203874 0
M  V30 6531 C 613.502 1.26922 1.4804 0
M  V30 6532 O 612.772 0.386787 1.92044 0
M  V30 6533 H 611.352 0.742882 0.0783279 0
M  V30 6534 H 614.014 1.88099 -0.510368 0
M  V30 6535 H 613.11 3.09258 0.42021 0
M  V30 6536 N 613.412 0.11024 1.57214 0
M  V30 6537 C 614.322 -0.857077 2.18383 0
M  V30 6538 C 615.338 -1.29915 1.1575 0
M  V30 6539 O 616.514 -1.36394 1.48184 0
M  V30 6540 C 613.579 -2.09264 2.76423 0
M  V30 6541 C 612.64 -1.70333 3.94063 0
M  V30 6542 C 611.873 -2.87999 4.49324 0
M  V30 6543 O 612.096 -4.0317 4.03497 0
M  V30 6544 O 611.03 -2.6559 5.40135 0
M  V30 6545 H 614.856 -0.366561 3.0148 0
M  V30 6546 H 612.441 -0.114914 1.48957 0
M  V30 6547 H 614.323 -2.81644 3.13456 0
M  V30 6548 H 612.998 -2.57339 1.96363 0
M  V30 6549 H 611.905 -0.950864 3.61814 0
M  V30 6550 H 613.238 -1.27007 4.75531 0
M  V30 6551 N 614.89 -1.56749 -0.16351 0
M  V30 6552 C 616.138 -1.82074 -0.87713 0
M  V30 6553 C 616.459 -0.688503 -1.82441 0
M  V30 6554 O 615.729 0.291085 -1.93725 0
M  V30 6555 H 614.309 -0.671677 -0.326893 0
M  V30 6556 H 616.971 -1.9423 -0.161459 0
M  V30 6557 H 616.067 -2.76407 -1.44934 0
M  V30 6558 N 616.368 0.432326 -1.51554 0
M  V30 6559 C 617.596 1.20364 -1.68286 0
M  V30 6560 C 618.011 1.84888 -0.38233 0
M  V30 6561 O 617.368 1.70924 0.639627 0
M  V30 6562 C 617.419 2.28398 -2.80208 0
M  V30 6563 O 617.14 1.66512 -4.05223 0
M  V30 6564 C 618.641 3.18584 -3.08251 0
M  V30 6565 H 615.861 0.36259 -0.564596 0
M  V30 6566 H 618.405 0.511647 -1.97996 0
M  V30 6567 H 616.56 2.93305 -2.53083 0
M  V30 6568 H 616.974 2.37951 -4.67418 0
M  V30 6569 H 618.448 3.90511 -3.90135 0
M  V30 6570 H 618.925 3.79628 -2.2086 0
M  V30 6571 H 619.531 2.59372 -3.37055 0
M  V30 6572 N 617.846 1.41785 0.688094 0
M  V30 6573 C 618.809 1.43936 1.78368 0
M  V30 6574 C 619.809 0.328866 1.57401 0
M  V30 6575 O 620.999 0.589093 1.63937 0
M  V30 6576 C 618.131 1.25804 3.16838 0
M  V30 6577 H 619.324 2.41472 1.77852 0
M  V30 6578 H 616.877 1.28037 0.896448 0
M  V30 6579 H 617.612 0.291386 3.22988 0
M  V30 6580 H 617.397 2.06272 3.33458 0
M  V30 6581 H 618.887 1.30162 3.96797 0
M  V30 6582 N 619.324 -0.923095 1.27737 0
M  V30 6583 C 620.234 -2.05765 1.12685 0
M  V30 6584 C 621.25 -1.73911 0.0557197 0
M  V30 6585 O 622.426 -1.99674 0.263137 0
M  V30 6586 C 619.491 -3.37804 0.780363 0
M  V30 6587 C 618.552 -3.83326 1.93286 0
M  V30 6588 C 617.785 -5.09064 1.60281 0
M  V30 6589 O 618.008 -5.6809 0.512828 0
M  V30 6590 O 616.942 -5.50071 2.44347 0
M  V30 6591 H 620.768 -2.21378 2.07907 0
M  V30 6592 H 618.353 -1.04299 1.06968 0
M  V30 6593 H 620.235 -4.17097 0.600668 0
M  V30 6594 H 618.91 -3.23387 -0.142291 0
M  V30 6595 H 617.817 -3.049 2.16764 0
M  V30 6596 H 619.15 -4.02292 2.83588 0
M  V30 6597 N 620.802 -1.09834 -1.13024 0
M  V30 6598 C 622.03 -0.858902 -1.8823 0
M  V30 6599 C 622.445 0.590164 -1.79339 0
M  V30 6600 O 621.802 1.4065 -1.16292 0
M  V30 6601 C 621.853 -1.29066 -3.37675 0
M  V30 6602 O 621.574 -2.6829 -3.46341 0
M  V30 6603 C 623.075 -1.08421 -4.29837 0
M  V30 6604 H 620.295 -0.308713 -0.595766 0
M  V30 6605 H 622.839 -1.4614 -1.4305 0
M  V30 6606 H 620.994 -0.731961 -3.80422 0
M  V30 6607 H 621.408 -2.86598 -4.39274 0
M  V30 6608 H 622.882 -1.43553 -5.33007 0
M  V30 6609 H 623.359 -0.0223315 -4.39194 0
M  V30 6610 H 623.965 -1.62907 -3.92863 0
M  V30 6611 N 622.28 1.30327 -0.886154 0
M  V30 6612 C 623.529 1.95373 -0.501243 0
M  V30 6613 C 623.842 1.70722 0.954634 0
M  V30 6614 O 625.048 2.29761 1.44644 0
M  V30 6615 C 623.504 3.49828 -0.845493 0
M  V30 6616 C 623.112 3.83296 -2.31922 0
M  V30 6617 C 624.856 4.2118 -0.529838 0
M  V30 6618 C 622.763 5.30935 -2.60504 0
M  V30 6619 H 621.693 0.731274 -0.183722 0
M  V30 6620 H 624.344 1.48258 -1.08129 0
M  V30 6621 H 622.726 3.95522 -0.19452 0
M  V30 6622 H 623.9 3.48508 -3.01461 0
M  V30 6623 H 622.215 3.2505 -2.60253 0
M  V30 6624 H 624.812 5.29825 -0.720401 0
M  V30 6625 H 625.155 4.12902 0.530828 0
M  V30 6626 H 625.688 3.81173 -1.13806 0
M  V30 6627 H 622.427 5.44265 -3.65316 0
M  V30 6628 H 621.947 5.67019 -1.95575 0
M  V30 6629 H 623.626 5.98381 -2.46066 0
M  V30 6630 N 623.758 0.647228 1.43697 0
M  V30 6631 C 625.007 0.155552 2.01099 0
M  V30 6632 C 625.32 -1.23569 1.51624 0
M  V30 6633 O 626.526 -1.82226 2.01261 0
M  V30 6634 C 624.982 0.227296 3.59182 0
M  V30 6635 C 624.59 1.62086 4.17651 0
M  V30 6636 C 626.334 -0.207085 4.23995 0
M  V30 6637 C 624.241 1.64685 5.68008 0
M  V30 6638 H 623.171 0.0543895 0.752036 0
M  V30 6639 H 625.822 0.808386 1.64734 0
M  V30 6640 H 624.204 -0.492937 3.9292 0
M  V30 6641 H 625.378 2.36597 3.95422 0
M  V30 6642 H 623.693 2.0007 3.65186 0
M  V30 6643 H 626.29 -0.207426 5.34298 0
M  V30 6644 H 626.633 -1.23742 3.97484 0
M  V30 6645 H 627.166 0.461193 3.95118 0
M  V30 6646 H 623.905 2.65608 5.99277 0
M  V30 6647 H 623.425 0.944914 5.9231 0
M  V30 6648 H 625.104 1.38792 6.31938 0
M  V30 6649 N 625.236 -1.5273 0.388769 0
M  V30 6650 C 626.483 -2.01573 -0.19359 0
M  V30 6651 C 626.811 -1.27525 -1.46859 0
M  V30 6652 O 626.066 -0.363926 -1.92286 0
M  V30 6653 C 626.365 -3.53765 -0.508445 0
M  V30 6654 C 626.031 -4.4582 0.674947 0
M  V30 6655 C 624.693 -4.70703 0.999596 0
M  V30 6656 C 627.045 -5.00138 1.46666 0
M  V30 6657 C 624.373 -5.47155 2.11751 0
M  V30 6658 C 626.725 -5.77812 2.57518 0
M  V30 6659 C 625.389 -6.00975 2.90492 0
M  V30 6660 H 624.659 -0.737606 -0.0708397 0
M  V30 6661 H 627.306 -1.84134 0.526006 0
M  V30 6662 H 625.611 -3.69274 -1.30936 0
M  V30 6663 H 627.308 -3.8905 -0.971664 0
M  V30 6664 H 623.898 -4.26616 0.411906 0
M  V30 6665 H 628.082 -4.8084 1.22909 0
M  V30 6666 H 623.338 -5.63314 2.3767 0
M  V30 6667 H 627.512 -6.18904 3.19267 0
M  V30 6668 H 625.139 -6.59998 3.77236 0
M  V30 6669 O 626.753 -0.258973 -1.5941 0
M  V30 6670 H 627.444 0.314239 -1.91134 0
M  V30 END ATOM
M  V30 BEGIN BOND
M  V30 END BOND
M  V30 END CTAB
M  END
$$$$
