drugbank_target|P47944 Metallothionein-4 (DB12965)
 OpenBabel12092121043D

846853  0  0  0  0  0  0  0  0999 V2000
   -0.9080    1.9825   -0.1171 H   0  0  0  0  0 15  0  0  0  0  0  0
    0.0000    1.5760    0.0000 N   0  0  0  0  0 15  0  0  0  0  0  0
    0.9330    2.0387    1.0253 C   0  0  0  0  0 15  0  0  0  0  0  0
    1.9110    0.9285    1.3348 C   0  0  0  0  0 15  0  0  0  0  0  0
    3.0950    1.1967    1.4564 O   0  0  0  0  0 15  0  0  0  0  0  0
    0.2220    2.4363    2.3529 C   0  0  0  0  0 15  0  0  0  0  0  0
   -0.7320    3.6537    2.2001 C   0  0  0  0  0 15  0  0  0  0  0  0
    0.1010    5.1329    1.5261 S   0  0  0  0  0 15  0  0  0  0  0  0
    1.2570    5.5632    2.8680 C   0  0  0  0  0 15  0  0  0  0  0  0
    1.4900    2.9052    0.6314 H   0  0  0  0  0 15  0  0  0  0  0  0
   -0.9770    1.5295    0.2109 H   0  0  0  0  0 15  0  0  0  0  0  0
    0.9810    2.6720    3.1163 H   0  0  0  0  0 15  0  0  0  0  0  0
   -0.3580    1.5738    2.7183 H   0  0  0  0  0 15  0  0  0  0  0  0
   -1.1650    3.9094    3.1809 H   0  0  0  0  0 15  0  0  0  0  0  0
   -1.5630    3.4180    1.5182 H   0  0  0  0  0 15  0  0  0  0  0  0
    0.7290    5.5878    3.8310 H   0  0  0  0  0 15  0  0  0  0  0  0
    1.6720    6.5627    2.6593 H   0  0  0  0  0 15  0  0  0  0  0  0
    2.0800    4.8389    2.9071 H   0  0  0  0  0 15  0  0  0  0  0  0
    1.4781   -0.2728    1.5522 N   0  0  0  0  0 15  0  0  0  0  0  0
    2.7551   -1.0256    1.6655 C   0  0  0  0  0 15  0  0  0  0  0  0
    3.1351   -2.0428    0.5322 C   0  0  0  0  0 15  0  0  0  0  0  0
    2.4831   -2.2366   -0.4677 O   0  0  0  0  0 15  0  0  0  0  0  0
    2.6931   -1.6822    3.0578 C   0  0  0  0  0 15  0  0  0  0  0  0
    4.0411   -2.1937    3.6354 C   0  0  0  0  0 15  0  0  0  0  0  0
    5.0651   -1.7821    3.0842 O   0  0  0  0  0 15  0  0  0  0  0  0
    3.9241   -2.9488    4.6012 O   0  0  0  0  0 15  0  0  0  0  0  0
    1.0181   -0.4758    0.6765 H   0  0  0  0  0 15  0  0  0  0  0  0
    3.5641   -0.2686    1.6756 H   0  0  0  0  0 15  0  0  0  0  0  0
    2.3361   -0.9451    3.7971 H   0  0  0  0  0 15  0  0  0  0  0  0
    1.9591   -2.5061    3.0868 H   0  0  0  0  0 15  0  0  0  0  0  0
    2.9562   -1.4816   -0.5373 N   0  0  0  0  0 15  0  0  0  0  0  0
    4.3672   -1.4943   -1.1193 C   0  0  0  0  0 15  0  0  0  0  0  0
    4.7182   -0.2600   -1.9447 C   0  0  0  0  0 15  0  0  0  0  0  0
    3.8432    0.6335   -2.0692 O   0  0  0  0  0 15  0  0  0  0  0  0
    4.4382   -2.7076   -2.0366 C   0  0  0  0  0 15  0  0  0  0  0  0
    2.9972   -2.7492   -2.5709 C   0  0  0  0  0 15  0  0  0  0  0  0
    2.1442   -2.4284   -1.3389 C   0  0  0  0  0 15  0  0  0  0  0  0
    5.0952   -1.5538   -0.3229 H   0  0  0  0  0 15  0  0  0  0  0  0
    5.1162   -2.4886   -2.8783 H   0  0  0  0  0 15  0  0  0  0  0  0
    4.6282   -3.6057   -1.4355 H   0  0  0  0  0 15  0  0  0  0  0  0
    2.7292   -1.8930   -3.2093 H   0  0  0  0  0 15  0  0  0  0  0  0
    2.8422   -3.7616   -2.9672 H   0  0  0  0  0 15  0  0  0  0  0  0
    1.2062   -1.9384   -1.6523 H   0  0  0  0  0 15  0  0  0  0  0  0
    1.9892   -3.3488   -0.7555 H   0  0  0  0  0 15  0  0  0  0  0  0
    4.4343    0.7856   -1.3662 N   0  0  0  0  0 15  0  0  0  0  0  0
    5.8503    1.0842   -1.1712 C   0  0  0  0  0 15  0  0  0  0  0  0
    6.0503    2.0150    0.0021 C   0  0  0  0  0 15  0  0  0  0  0  0
    5.1063    2.4355    0.6663 O   0  0  0  0  0 15  0  0  0  0  0  0
    6.4193    1.6950   -2.4838 C   0  0  0  0  0 15  0  0  0  0  0  0
    7.9673    1.8182   -2.5477 C   0  0  0  0  0 15  0  0  0  0  0  0
    8.4423    2.4631   -3.8613 C   0  0  0  0  0 15  0  0  0  0  0  0
    9.9333    2.5378   -3.8749 N   0  0  0  0  0 15  0  0  0  0  0  0
   10.6683    3.0450   -4.8587 C   0  0  0  0  0 15  0  0  0  0  0  0
   10.1643    3.5550   -5.9464 N   0  0  0  0  0 15  0  0  0  0  0  0
   11.9573    3.0325   -4.7328 N   0  0  0  0  0 15  0  0  0  0  0  0
    4.1083    0.1673   -2.1174 H   0  0  0  0  0 15  0  0  0  0  0  0
    6.3713    0.1368   -0.9381 H   0  0  0  0  0 15  0  0  0  0  0  0
    6.0773    1.0857   -3.3452 H   0  0  0  0  0 15  0  0  0  0  0  0
    5.9513    2.6896   -2.6446 H   0  0  0  0  0 15  0  0  0  0  0  0
    8.3383    2.4188   -1.6904 H   0  0  0  0  0 15  0  0  0  0  0  0
    8.4193    0.8115   -2.4259 H   0  0  0  0  0 15  0  0  0  0  0  0
    8.0633    1.8689   -4.7226 H   0  0  0  0  0 15  0  0  0  0  0  0
    7.9933    3.4756   -3.9561 H   0  0  0  0  0 15  0  0  0  0  0  0
   10.4843    2.1767   -3.0891 H   0  0  0  0  0 15  0  0  0  0  0  0
   10.7973    3.9256   -6.6567 H   0  0  0  0  0 15  0  0  0  0  0  0
    9.1423    3.5364   -5.9830 H   0  0  0  0  0 15  0  0  0  0  0  0
   12.3333    2.6270   -3.8744 H   0  0  0  0  0 15  0  0  0  0  0  0
   12.5063    3.4247   -5.5011 H   0  0  0  0  0 15  0  0  0  0  0  0
    5.9124    1.2097    1.0102 N   0  0  0  0  0 15  0  0  0  0  0  0
    6.8224    0.9802    2.1314 C   0  0  0  0  0 15  0  0  0  0  0  0
    7.8384   -0.0661    1.7387 C   0  0  0  0  0 15  0  0  0  0  0  0
    9.0144    0.1228    2.0103 O   0  0  0  0  0 15  0  0  0  0  0  0
    6.0794    0.5422    3.4243 C   0  0  0  0  0 15  0  0  0  0  0  0
    5.1404    1.6600    3.9591 C   0  0  0  0  0 15  0  0  0  0  0  0
    4.3734    1.2428    5.1903 C   0  0  0  0  0 15  0  0  0  0  0  0
    4.5964    0.1142    5.7029 O   0  0  0  0  0 15  0  0  0  0  0  0
    3.5304    2.0527    5.6582 O   0  0  0  0  0 15  0  0  0  0  0  0
    7.3564    1.9191    2.3538 H   0  0  0  0  0 15  0  0  0  0  0  0
    4.9414    0.9941    1.1153 H   0  0  0  0  0 15  0  0  0  0  0  0
    6.8234    0.3074    4.2028 H   0  0  0  0  0 15  0  0  0  0  0  0
    5.4984   -0.3681    3.2160 H   0  0  0  0  0 15  0  0  0  0  0  0
    4.4054    1.9491    3.1932 H   0  0  0  0  0 15  0  0  0  0  0  0
    5.7384    2.5475    4.2114 H   0  0  0  0  0 15  0  0  0  0  0  0
    7.3905   -1.2043    1.0166 N   0  0  0  0  0 15  0  0  0  0  0  0
    8.6305   -1.9151    0.7145 C   0  0  0  0  0 15  0  0  0  0  0  0
    8.9945   -1.7707   -0.7422 C   0  0  0  0  0 15  0  0  0  0  0  0
   10.1955   -2.4263   -1.1569 O   0  0  0  0  0 15  0  0  0  0  0  0
    8.4665   -3.3880    1.1381 C   0  0  0  0  0 15  0  0  0  0  0  0
   10.0255   -4.2822    0.9579 S   0  0  0  0  0 15  0  0  0  0  0  0
    6.8435   -0.6616    0.2605 H   0  0  0  0  0 15  0  0  0  0  0  0
    9.4455   -1.4567    1.3038 H   0  0  0  0  0 15  0  0  0  0  0  0
    8.1495   -3.4682    2.1941 H   0  0  0  0  0 15  0  0  0  0  0  0
    7.6805   -3.8966    0.5415 H   0  0  0  0  0 15  0  0  0  0  0  0
    9.6955   -4.9601   -0.1385 H   0  0  0  0  0 15  0  0  0  0  0  0
    8.8686   -0.7928   -1.3621 N   0  0  0  0  0 15  0  0  0  0  0  0
   10.1146   -0.3673   -1.9945 C   0  0  0  0  0 15  0  0  0  0  0  0
   10.4476    1.0592   -1.6277 C   0  0  0  0  0 15  0  0  0  0  0  0
    9.7226    1.7324   -0.8842 O   0  0  0  0  0 15  0  0  0  0  0  0
   10.0056   -0.5350   -3.5610 C   0  0  0  0  0 15  0  0  0  0  0  0
    9.8586   -2.0055   -4.0262 C   0  0  0  0  0 15  0  0  0  0  0  0
   11.1776    0.0478   -4.4007 C   0  0  0  0  0 15  0  0  0  0  0  0
    8.2966   -0.1349   -0.7245 H   0  0  0  0  0 15  0  0  0  0  0  0
   10.9386   -0.9998   -1.6157 H   0  0  0  0  0 15  0  0  0  0  0  0
    9.0886    0.0034   -3.8850 H   0  0  0  0  0 15  0  0  0  0  0  0
   10.7606   -2.6052   -3.8069 H   0  0  0  0  0 15  0  0  0  0  0  0
    9.0036   -2.5069   -3.5403 H   0  0  0  0  0 15  0  0  0  0  0  0
    9.6746   -2.0738   -5.1156 H   0  0  0  0  0 15  0  0  0  0  0  0
   12.1506   -0.4118   -4.1406 H   0  0  0  0  0 15  0  0  0  0  0  0
   11.0266   -0.0995   -5.4881 H   0  0  0  0  0 15  0  0  0  0  0  0
   11.2876    1.1403   -4.2714 H   0  0  0  0  0 15  0  0  0  0  0  0
   10.3467    1.4787   -0.5451 N   0  0  0  0  0 15  0  0  0  0  0  0
   11.5867    2.0439   -0.0188 C   0  0  0  0  0 15  0  0  0  0  0  0
   11.9507    1.4116    1.3014 C   0  0  0  0  0 15  0  0  0  0  0  0
   13.1517    1.8866    1.9147 O   0  0  0  0  0 15  0  0  0  0  0  0
   11.4227    3.5730    0.0851 C   0  0  0  0  0 15  0  0  0  0  0  0
   12.9817    4.3522    0.5593 S   0  0  0  0  0 15  0  0  0  0  0  0
    9.7997    0.7107   -0.0193 H   0  0  0  0  0 15  0  0  0  0  0  0
   12.4017    1.8139   -0.7291 H   0  0  0  0  0 15  0  0  0  0  0  0
   11.1057    4.0085   -0.8804 H   0  0  0  0  0 15  0  0  0  0  0  0
   10.6367    3.8477    0.8193 H   0  0  0  0  0 15  0  0  0  0  0  0
   12.6517    4.6157    1.8212 H   0  0  0  0  0 15  0  0  0  0  0  0
   11.8248    0.2810    1.5507 N   0  0  0  0  0 15  0  0  0  0  0  0
   12.7578   -0.6454    2.1888 C   0  0  0  0  0 15  0  0  0  0  0  0
   13.7358   -1.1479    1.1516 C   0  0  0  0  0 15  0  0  0  0  0  0
   14.9198   -1.2198    1.4372 O   0  0  0  0  0 15  0  0  0  0  0  0
   12.0468   -1.8809    2.8167 C   0  0  0  0  0 15  0  0  0  0  0  0
   11.0928   -1.5134    3.9874 C   0  0  0  0  0 15  0  0  0  0  0  0
   11.9258   -0.5865    5.3228 S   0  0  0  0  0 15  0  0  0  0  0  0
   13.0818   -1.8302    5.9854 C   0  0  0  0  0 15  0  0  0  0  0  0
   13.3148   -0.1033    2.9712 H   0  0  0  0  0 15  0  0  0  0  0  0
   10.8478    0.0652    1.5426 H   0  0  0  0  0 15  0  0  0  0  0  0
   12.8058   -2.5900    3.1848 H   0  0  0  0  0 15  0  0  0  0  0  0
   11.4668   -2.3942    2.0332 H   0  0  0  0  0 15  0  0  0  0  0  0
   10.6598   -2.4329    4.4139 H   0  0  0  0  0 15  0  0  0  0  0  0
   10.2618   -0.8845    3.6339 H   0  0  0  0  0 15  0  0  0  0  0  0
   12.5538   -2.7734    6.1813 H   0  0  0  0  0 15  0  0  0  0  0  0
   13.4968   -1.4467    6.9316 H   0  0  0  0  0 15  0  0  0  0  0  0
   13.9048   -1.9978    5.2796 H   0  0  0  0  0 15  0  0  0  0  0  0
   13.3029   -1.5760    0.0084 N   0  0  0  0  0 15  0  0  0  0  0  0
   14.5279   -1.9562   -0.6891 C   0  0  0  0  0 15  0  0  0  0  0  0
   14.9529   -0.8838   -1.6605 C   0  0  0  0  0 15  0  0  0  0  0  0
   14.3109    0.1574   -1.8062 O   0  0  0  0  0 15  0  0  0  0  0  0
   14.3589   -3.3274   -1.3899 C   0  0  0  0  0 15  0  0  0  0  0  0
   13.4629   -3.2763   -2.5046 O   0  0  0  0  0 15  0  0  0  0  0  0
   12.8039   -0.6384   -0.1827 H   0  0  0  0  0 15  0  0  0  0  0  0
   15.3339   -2.0450    0.0640 H   0  0  0  0  0 15  0  0  0  0  0  0
   15.3439   -3.6849   -1.7515 H   0  0  0  0  0 15  0  0  0  0  0  0
   14.0189   -4.1034   -0.6778 H   0  0  0  0  0 15  0  0  0  0  0  0
   12.5959   -3.0356   -2.1658 H   0  0  0  0  0 15  0  0  0  0  0  0
   14.7810    0.2645   -1.5536 N   0  0  0  0  0 15  0  0  0  0  0  0
   16.0290    0.9930   -1.7602 C   0  0  0  0  0 15  0  0  0  0  0  0
   16.3500    1.8651   -0.5691 C   0  0  0  0  0 15  0  0  0  0  0  0
   15.6200    1.9144    0.4157 O   0  0  0  0  0 15  0  0  0  0  0  0
   14.2000    0.3696   -0.6491 H   0  0  0  0  0 15  0  0  0  0  0  0
   16.8620    0.2867   -1.9278 H   0  0  0  0  0 15  0  0  0  0  0  0
   15.9580    1.6250   -2.6646 H   0  0  0  0  0 15  0  0  0  0  0  0
   16.2591    1.4844    0.5294 N   0  0  0  0  0 15  0  0  0  0  0  0
   17.5071    1.5618    1.2827 C   0  0  0  0  0 15  0  0  0  0  0  0
   17.8281    0.2377    1.9355 C   0  0  0  0  0 15  0  0  0  0  0  0
   17.0981   -0.7408    1.8135 O   0  0  0  0  0 15  0  0  0  0  0  0
   15.6781    0.5754    0.4764 H   0  0  0  0  0 15  0  0  0  0  0  0
   18.3401    1.8491    0.6160 H   0  0  0  0  0 15  0  0  0  0  0  0
   17.4361    2.3431    2.0617 H   0  0  0  0  0 15  0  0  0  0  0  0
   17.7372   -0.7783    1.3704 N   0  0  0  0  0 15  0  0  0  0  0  0
   18.9862   -1.5319    1.3121 C   0  0  0  0  0 15  0  0  0  0  0  0
   19.2992   -1.9533   -0.1031 C   0  0  0  0  0 15  0  0  0  0  0  0
   20.5052   -2.7001   -0.2838 O   0  0  0  0  0 15  0  0  0  0  0  0
   18.9612   -2.7659    2.3027 C   0  0  0  0  0 15  0  0  0  0  0  0
   18.5692   -2.4158    3.7729 C   0  0  0  0  0 15  0  0  0  0  0  0
   20.3132   -3.5455    2.3344 C   0  0  0  0  0 15  0  0  0  0  0  0
   18.2202   -3.6144    4.6810 C   0  0  0  0  0 15  0  0  0  0  0  0
   17.1502   -0.5751    0.4876 H   0  0  0  0  0 15  0  0  0  0  0  0
   19.8012   -0.8531    1.6246 H   0  0  0  0  0 15  0  0  0  0  0  0
   18.1832   -3.4633    1.9203 H   0  0  0  0  0 15  0  0  0  0  0  0
   19.3572   -1.7967    4.2433 H   0  0  0  0  0 15  0  0  0  0  0  0
   17.6722   -1.7681    3.7700 H   0  0  0  0  0 15  0  0  0  0  0  0
   20.2692   -4.4363    2.9849 H   0  0  0  0  0 15  0  0  0  0  0  0
   20.6122   -3.9394    1.3461 H   0  0  0  0  0 15  0  0  0  0  0  0
   21.1452   -2.9181    2.7036 H   0  0  0  0  0 15  0  0  0  0  0  0
   17.8842   -3.2714    5.6803 H   0  0  0  0  0 15  0  0  0  0  0  0
   17.4042   -4.2248    4.2576 H   0  0  0  0  0 15  0  0  0  0  0  0
   19.0832   -4.2834    4.8491 H   0  0  0  0  0 15  0  0  0  0  0  0
   19.2153   -1.2150   -1.0038 N   0  0  0  0  0 15  0  0  0  0  0  0
   20.4553   -1.0444   -1.7570 C   0  0  0  0  0 15  0  0  0  0  0  0
   20.8193    0.4146   -1.8747 C   0  0  0  0  0 15  0  0  0  0  0  0
   22.0203    0.7058   -2.5937 O   0  0  0  0  0 15  0  0  0  0  0  0
   20.2913   -1.7239   -3.1308 C   0  0  0  0  0 15  0  0  0  0  0  0
   21.8503   -1.7060   -4.0428 S   0  0  0  0  0 15  0  0  0  0  0  0
   18.6683   -0.3742   -0.6045 H   0  0  0  0  0 15  0  0  0  0  0  0
   21.2703   -1.5427   -1.2009 H   0  0  0  0  0 15  0  0  0  0  0  0
   19.9743   -2.7773   -3.0215 H   0  0  0  0  0 15  0  0  0  0  0  0
   19.5053   -1.2275   -3.7376 H   0  0  0  0  0 15  0  0  0  0  0  0
   21.5203   -0.7480   -4.9053 H   0  0  0  0  0 15  0  0  0  0  0  0
   20.6934    1.1989   -1.0230 N   0  0  0  0  0 15  0  0  0  0  0  0
   21.6264    2.2164   -0.5433 C   0  0  0  0  0 15  0  0  0  0  0  0
   22.6044    1.5728    0.4127 C   0  0  0  0  0 15  0  0  0  0  0  0
   23.7884    1.8557    0.3312 O   0  0  0  0  0 15  0  0  0  0  0  0
   20.9154    3.3806    0.2086 C   0  0  0  0  0 15  0  0  0  0  0  0
   19.9614    4.2075   -0.6979 C   0  0  0  0  0 15  0  0  0  0  0  0
   20.7944    4.8953   -2.1707 S   0  0  0  0  0 15  0  0  0  0  0  0
   21.9504    6.0936   -1.4292 C   0  0  0  0  0 15  0  0  0  0  0  0
   22.1834    2.6198   -1.4054 H   0  0  0  0  0 15  0  0  0  0  0  0
   19.7164    1.3004   -0.8324 H   0  0  0  0  0 15  0  0  0  0  0  0
   21.6744    4.0554    0.6362 H   0  0  0  0  0 15  0  0  0  0  0  0
   20.3354    2.9616    1.0464 H   0  0  0  0  0 15  0  0  0  0  0  0
   19.5284    5.0386   -0.1178 H   0  0  0  0  0 15  0  0  0  0  0  0
   19.1304    3.5856   -1.0637 H   0  0  0  0  0 15  0  0  0  0  0  0
   21.4224    6.7374   -0.7126 H   0  0  0  0  0 15  0  0  0  0  0  0
   22.3654    6.7185   -2.2367 H   0  0  0  0  0 15  0  0  0  0  0  0
   22.7734    5.5680   -0.9293 H   0  0  0  0  0 15  0  0  0  0  0  0
   22.1715    0.8000    1.3578 N   0  0  0  0  0 15  0  0  0  0  0  0
   23.4115    0.3829    2.0078 C   0  0  0  0  0 15  0  0  0  0  0  0
   23.7755   -1.0289    1.6210 C   0  0  0  0  0 15  0  0  0  0  0  0
   24.9765   -1.5477    2.1977 O   0  0  0  0  0 15  0  0  0  0  0  0
   23.2475    0.5533    3.5309 C   0  0  0  0  0 15  0  0  0  0  0  0
   24.8065    0.2256    4.3822 S   0  0  0  0  0 15  0  0  0  0  0  0
   21.6245    0.1457    0.6959 H   0  0  0  0  0 15  0  0  0  0  0  0
   24.2265    1.0408    1.6549 H   0  0  0  0  0 15  0  0  0  0  0  0
   22.9305    1.5809    3.7873 H   0  0  0  0  0 15  0  0  0  0  0  0
   22.4615   -0.1202    3.9322 H   0  0  0  0  0 15  0  0  0  0  0  0
   24.4765   -0.9691    4.8665 H   0  0  0  0  0 15  0  0  0  0  0  0
   23.6496   -1.4758    0.5530 N   0  0  0  0  0 15  0  0  0  0  0  0
   24.8976   -2.0208    0.0273 C   0  0  0  0  0 15  0  0  0  0  0  0
   25.2186   -1.4301   -1.3256 C   0  0  0  0  0 15  0  0  0  0  0  0
   24.4886   -0.6037   -1.8636 O   0  0  0  0  0 15  0  0  0  0  0  0
   23.0686   -0.7470    0.0071 H   0  0  0  0  0 15  0  0  0  0  0  0
   25.7306   -1.8103    0.7220 H   0  0  0  0  0 15  0  0  0  0  0  0
   24.8266   -3.1203   -0.0640 H   0  0  0  0  0 15  0  0  0  0  0  0
   25.1277   -0.2892   -1.5492 N   0  0  0  0  0 15  0  0  0  0  0  0
   26.4047    0.3760   -1.9195 C   0  0  0  0  0 15  0  0  0  0  0  0
   26.7847    1.7262   -1.2151 C   0  0  0  0  0 15  0  0  0  0  0  0
   26.1327    2.2585   -0.3468 O   0  0  0  0  0 15  0  0  0  0  0  0
   26.3427    0.5024   -3.4537 C   0  0  0  0  0 15  0  0  0  0  0  0
   27.6907    0.7787   -4.1740 C   0  0  0  0  0 15  0  0  0  0  0  0
   28.7147    0.5866   -3.5134 O   0  0  0  0  0 15  0  0  0  0  0  0
   27.5737    1.1470   -5.3433 O   0  0  0  0  0 15  0  0  0  0  0  0
   24.6677    0.2082   -0.8004 H   0  0  0  0  0 15  0  0  0  0  0  0
   27.2137   -0.3364   -1.6633 H   0  0  0  0  0 15  0  0  0  0  0  0
   25.9857   -0.4473   -3.8874 H   0  0  0  0  0 15  0  0  0  0  0  0
   25.6087    1.2637   -3.7698 H   0  0  0  0  0 15  0  0  0  0  0  0
   26.6058    1.5759   -0.0167 N   0  0  0  0  0 15  0  0  0  0  0  0
   27.5538    2.1060    0.9874 C   0  0  0  0  0 15  0  0  0  0  0  0
   28.5478    1.0298    1.3451 C   0  0  0  0  0 15  0  0  0  0  0  0
   29.7538    1.2143    1.3288 O   0  0  0  0  0 15  0  0  0  0  0  0
   26.1288    0.6727    0.3361 H   0  0  0  0  0 15  0  0  0  0  0  0
   28.0998    2.9393    0.5148 H   0  0  0  0  0 15  0  0  0  0  0  0
   26.8488    2.6382    2.2648 C   0  0  0  0  0 15  0  0  0  0  0  0
   26.1718    3.4628    1.9983 H   0  0  0  0  0 15  0  0  0  0  0  0
   27.6118    3.0457    2.9498 H   0  0  0  0  0 15  0  0  0  0  0  0
   26.0708    1.5599    2.9861 C   0  0  0  0  0 15  0  0  0  0  0  0
   26.6008    0.9525    3.9024 O   0  0  0  0  0 15  0  0  0  0  0  0
   24.8068    1.2833    2.6073 N   0  0  0  0  0 15  0  0  0  0  0  0
   24.3538    1.7791    1.8629 H   0  0  0  0  0 15  0  0  0  0  0  0
   24.3118    0.5641    3.0930 H   0  0  0  0  0 15  0  0  0  0  0  0
   28.0839   -0.2563    1.5550 N   0  0  0  0  0 15  0  0  0  0  0  0
   29.3239   -0.9931    1.7865 C   0  0  0  0  0 15  0  0  0  0  0  0
   29.6879   -1.8288    0.5847 C   0  0  0  0  0 15  0  0  0  0  0  0
   30.8889   -2.5966    0.6948 O   0  0  0  0  0 15  0  0  0  0  0  0
   29.1599   -1.8386    3.0648 C   0  0  0  0  0 15  0  0  0  0  0  0
   30.7189   -2.6357    3.5082 S   0  0  0  0  0 15  0  0  0  0  0  0
   27.5369   -0.3342    0.6276 H   0  0  0  0  0 15  0  0  0  0  0  0
   30.1389   -0.2618    1.9374 H   0  0  0  0  0 15  0  0  0  0  0  0
   28.8429   -1.2141    3.9203 H   0  0  0  0  0 15  0  0  0  0  0  0
   28.3739   -2.6127    2.9411 H   0  0  0  0  0 15  0  0  0  0  0  0
   30.3889   -3.8631    3.1141 H   0  0  0  0  0 15  0  0  0  0  0  0
   29.5620   -1.4872   -0.5215 N   0  0  0  0  0 15  0  0  0  0  0  0
   30.5090   -1.6387   -1.6253 C   0  0  0  0  0 15  0  0  0  0  0  0
   31.4790   -0.4806   -1.5900 C   0  0  0  0  0 15  0  0  0  0  0  0
   32.6640   -0.7051   -1.7729 O   0  0  0  0  0 15  0  0  0  0  0  0
   29.8040   -1.6923   -3.0076 C   0  0  0  0  0 15  0  0  0  0  0  0
   28.9170   -2.9621   -3.1446 C   0  0  0  0  0 15  0  0  0  0  0  0
   28.0520   -2.9267   -4.4330 C   0  0  0  0  0 15  0  0  0  0  0  0
   27.0910   -4.1432   -4.5056 C   0  0  0  0  0 15  0  0  0  0  0  0
   26.2280   -4.0881   -5.7081 N   0  0  0  0  0 15  0  0  0  0  0  0
   31.0680   -2.5812   -1.4892 H   0  0  0  0  0 15  0  0  0  0  0  0
   28.6050   -1.2800   -0.7249 H   0  0  0  0  0 15  0  0  0  0  0  0
   30.5630   -1.7031   -3.8085 H   0  0  0  0  0 15  0  0  0  0  0  0
   29.1930   -0.7846   -3.1312 H   0  0  0  0  0 15  0  0  0  0  0  0
   28.2450   -3.0483   -2.2756 H   0  0  0  0  0 15  0  0  0  0  0  0
   29.5570   -3.8619   -3.1569 H   0  0  0  0  0 15  0  0  0  0  0  0
   28.7110   -2.9221   -5.3170 H   0  0  0  0  0 15  0  0  0  0  0  0
   27.4500   -2.0043   -4.4461 H   0  0  0  0  0 15  0  0  0  0  0  0
   26.4550   -4.1505   -3.6058 H   0  0  0  0  0 15  0  0  0  0  0  0
   27.6800   -5.0773   -4.5099 H   0  0  0  0  0 15  0  0  0  0  0  0
   25.6260   -3.1939   -5.7300 H   0  0  0  0  0 15  0  0  0  0  0  0
   25.5430   -4.9251   -5.7356 H   0  0  0  0  0 15  0  0  0  0  0  0
   26.8110   -4.1242   -6.6146 H   0  0  0  0  0 15  0  0  0  0  0  0
   31.0401    0.7711   -1.3745 N   0  0  0  0  0 15  0  0  0  0  0  0
   32.2801    1.5426   -1.3410 C   0  0  0  0  0 15  0  0  0  0  0  0
   32.6441    1.9186    0.0738 C   0  0  0  0  0 15  0  0  0  0  0  0
   33.8451    2.6780    0.2320 O   0  0  0  0  0 15  0  0  0  0  0  0
   32.1161    2.7733   -2.2544 C   0  0  0  0  0 15  0  0  0  0  0  0
   33.6751    3.6738   -2.3995 S   0  0  0  0  0 15  0  0  0  0  0  0
   30.4931    0.5281   -0.4760 H   0  0  0  0  0 15  0  0  0  0  0  0
   33.0951    0.9066   -1.7321 H   0  0  0  0  0 15  0  0  0  0  0  0
   31.7991    2.4779   -3.2715 H   0  0  0  0  0 15  0  0  0  0  0  0
   31.3301    3.4589   -1.8742 H   0  0  0  0  0 15  0  0  0  0  0  0
   33.3451    4.6933   -1.6106 H   0  0  0  0  0 15  0  0  0  0  0  0
   32.5182    1.2203    0.9973 N   0  0  0  0  0 15  0  0  0  0  0  0
   33.7462    1.0684    1.7718 C   0  0  0  0  0 15  0  0  0  0  0  0
   34.1612   -0.3813    1.8491 C   0  0  0  0  0 15  0  0  0  0  0  0
   33.5182   -1.2644    1.3161 O   0  0  0  0  0 15  0  0  0  0  0  0
   33.5692    1.6681    3.2071 C   0  0  0  0  0 15  0  0  0  0  0  0
   33.2902    3.0612    3.1341 O   0  0  0  0  0 15  0  0  0  0  0  0
   34.7912    1.5684    4.1463 C   0  0  0  0  0 15  0  0  0  0  0  0
   32.0112    0.3748    0.5566 H   0  0  0  0  0 15  0  0  0  0  0  0
   34.5552    1.6153    1.2541 H   0  0  0  0  0 15  0  0  0  0  0  0
   32.7102    1.1620    3.6956 H   0  0  0  0  0 15  0  0  0  0  0  0
   33.1242    3.3493    4.0364 H   0  0  0  0  0 15  0  0  0  0  0  0
   34.5982    2.0353    5.1311 H   0  0  0  0  0 15  0  0  0  0  0  0
   35.0752    0.5242    4.3606 H   0  0  0  0  0 15  0  0  0  0  0  0
   35.6812    2.0674    3.7167 H   0  0  0  0  0 15  0  0  0  0  0  0
   33.9963   -1.1934    1.0293 N   0  0  0  0  0 15  0  0  0  0  0  0
   35.2243   -1.9300    0.7456 C   0  0  0  0  0 15  0  0  0  0  0  0
   35.6393   -1.7552   -0.6956 C   0  0  0  0  0 15  0  0  0  0  0  0
   34.9963   -1.0774   -1.4731 O   0  0  0  0  0 15  0  0  0  0  0  0
   35.0473   -3.4474    1.0879 C   0  0  0  0  0 15  0  0  0  0  0  0
   34.7683   -3.6166    2.4726 O   0  0  0  0  0 15  0  0  0  0  0  0
   36.2693   -4.3552    0.8271 C   0  0  0  0  0 15  0  0  0  0  0  0
   33.4893   -0.6130    0.2728 H   0  0  0  0  0 15  0  0  0  0  0  0
   36.0333   -1.5147    1.3739 H   0  0  0  0  0 15  0  0  0  0  0  0
   34.1883   -3.8410    0.5048 H   0  0  0  0  0 15  0  0  0  0  0  0
   34.6023   -4.5551    2.6001 H   0  0  0  0  0 15  0  0  0  0  0  0
   36.0763   -5.4059    1.1166 H   0  0  0  0  0 15  0  0  0  0  0  0
   36.5533   -4.3855   -0.2384 H   0  0  0  0  0 15  0  0  0  0  0  0
   37.1593   -4.0184    1.3930 H   0  0  0  0  0 15  0  0  0  0  0  0
   35.4744   -0.8072   -1.3536 N   0  0  0  0  0 15  0  0  0  0  0  0
   36.7144   -0.3935   -2.0058 C   0  0  0  0  0 15  0  0  0  0  0  0
   37.0784    1.0203   -1.6265 C   0  0  0  0  0 15  0  0  0  0  0  0
   38.2794    1.5360   -2.2059 O   0  0  0  0  0 15  0  0  0  0  0  0
   36.5504   -0.5720   -3.5279 C   0  0  0  0  0 15  0  0  0  0  0  0
   38.1094   -0.2488   -4.3809 S   0  0  0  0  0 15  0  0  0  0  0  0
   34.9274   -0.1494   -0.6951 H   0  0  0  0  0 15  0  0  0  0  0  0
   37.5294   -1.0496   -1.6493 H   0  0  0  0  0 15  0  0  0  0  0  0
   36.2334   -1.6010   -3.7788 H   0  0  0  0  0 15  0  0  0  0  0  0
   35.7644    0.0994   -3.9327 H   0  0  0  0  0 15  0  0  0  0  0  0
   37.7794    0.9433   -4.8715 H   0  0  0  0  0 15  0  0  0  0  0  0
   36.9525    1.4729   -0.5608 N   0  0  0  0  0 15  0  0  0  0  0  0
   37.9005    2.3176    0.1979 C   0  0  0  0  0 15  0  0  0  0  0  0
   38.8945    1.4315    0.9059 C   0  0  0  0  0 15  0  0  0  0  0  0
   40.1005    1.5989    0.8267 O   0  0  0  0  0 15  0  0  0  0  0  0
   36.4755    0.7474    0.0827 H   0  0  0  0  0 15  0  0  0  0  0  0
   38.4465    2.9359   -0.5336 H   0  0  0  0  0 15  0  0  0  0  0  0
   37.1955    3.2587    1.2125 C   0  0  0  0  0 15  0  0  0  0  0  0
   36.5185    3.9402    0.6772 H   0  0  0  0  0 15  0  0  0  0  0  0
   37.9585    3.8780    1.7142 H   0  0  0  0  0 15  0  0  0  0  0  0
   36.4175    2.4965    2.2622 C   0  0  0  0  0 15  0  0  0  0  0  0
   36.9475    2.2436    3.3321 O   0  0  0  0  0 15  0  0  0  0  0  0
   35.1535    2.1060    2.0024 N   0  0  0  0  0 15  0  0  0  0  0  0
   34.7005    2.3137    1.1325 H   0  0  0  0  0 15  0  0  0  0  0  0
   34.6585    1.5991    2.7069 H   0  0  0  0  0 15  0  0  0  0  0  0
   38.4306    0.2974    1.5477 N   0  0  0  0  0 15  0  0  0  0  0  0
   39.6706   -0.3138    2.0198 C   0  0  0  0  0 15  0  0  0  0  0  0
   40.0346   -1.5137    1.1812 C   0  0  0  0  0 15  0  0  0  0  0  0
   41.2356   -2.1960    1.5501 O   0  0  0  0  0 15  0  0  0  0  0  0
   39.5066   -0.6650    3.5116 C   0  0  0  0  0 15  0  0  0  0  0  0
   41.0656   -1.2596    4.2033 S   0  0  0  0  0 15  0  0  0  0  0  0
   37.8836   -0.0965    0.7044 H   0  0  0  0  0 15  0  0  0  0  0  0
   40.4856    0.4245    1.9084 H   0  0  0  0  0 15  0  0  0  0  0  0
   39.1896    0.2168    4.0983 H   0  0  0  0  0 15  0  0  0  0  0  0
   38.7206   -1.4341    3.6633 H   0  0  0  0  0 15  0  0  0  0  0  0
   40.7356   -2.5475    4.2581 H   0  0  0  0  0 15  0  0  0  0  0  0
   39.9087   -1.5758    0.0251 N   0  0  0  0  0 15  0  0  0  0  0  0
   40.8557   -2.0997   -0.9581 C   0  0  0  0  0 15  0  0  0  0  0  0
   41.8257   -1.0009   -1.3256 C   0  0  0  0  0 15  0  0  0  0  0  0
   43.0107   -1.2748   -1.4196 O   0  0  0  0  0 15  0  0  0  0  0  0
   40.1507   -2.6281   -2.2366 C   0  0  0  0  0 15  0  0  0  0  0  0
   39.2637   -3.8669   -1.9259 C   0  0  0  0  0 15  0  0  0  0  0  0
   38.3987   -4.2794   -3.1471 C   0  0  0  0  0 15  0  0  0  0  0  0
   37.4377   -5.4459   -2.7944 C   0  0  0  0  0 15  0  0  0  0  0  0
   36.5747   -5.8101   -3.9417 N   0  0  0  0  0 15  0  0  0  0  0  0
   41.4147   -2.9370   -0.5044 H   0  0  0  0  0 15  0  0  0  0  0  0
   38.9517   -1.4517   -0.2374 H   0  0  0  0  0 15  0  0  0  0  0  0
   40.9097   -2.9154   -2.9843 H   0  0  0  0  0 15  0  0  0  0  0  0
   39.5397   -1.8192   -2.6665 H   0  0  0  0  0 15  0  0  0  0  0  0
   38.5917   -3.6472   -1.0808 H   0  0  0  0  0 15  0  0  0  0  0  0
   39.9037   -4.7155   -1.6262 H   0  0  0  0  0 15  0  0  0  0  0  0
   39.0577   -4.5808   -3.9780 H   0  0  0  0  0 15  0  0  0  0  0  0
   37.7967   -3.4185   -3.4784 H   0  0  0  0  0 15  0  0  0  0  0  0
   36.8017   -5.1415   -1.9476 H   0  0  0  0  0 15  0  0  0  0  0  0
   38.0267   -6.3238   -2.4753 H   0  0  0  0  0 15  0  0  0  0  0  0
   35.9727   -4.9787   -4.2715 H   0  0  0  0  0 15  0  0  0  0  0  0
   35.8897   -6.6050   -3.6780 H   0  0  0  0  0 15  0  0  0  0  0  0
   37.1577   -6.1576   -4.7798 H   0  0  0  0  0 15  0  0  0  0  0  0
   41.3868    0.2480   -1.5564 N   0  0  0  0  0 15  0  0  0  0  0  0
   42.6148    0.9938   -1.8147 C   0  0  0  0  0 15  0  0  0  0  0  0
   43.0298    1.7899   -0.6006 C   0  0  0  0  0 15  0  0  0  0  0  0
   42.3868    1.7735    0.4307 O   0  0  0  0  0 15  0  0  0  0  0  0
   42.4378    1.9326   -3.0551 C   0  0  0  0  0 15  0  0  0  0  0  0
   42.1588    1.1687   -4.2222 O   0  0  0  0  0 15  0  0  0  0  0  0
   43.6598    2.7944   -3.4413 C   0  0  0  0  0 15  0  0  0  0  0  0
   40.8798    0.2925   -0.6039 H   0  0  0  0  0 15  0  0  0  0  0  0
   43.4238    0.2713   -2.0269 H   0  0  0  0  0 15  0  0  0  0  0  0
   41.5788    2.6094   -2.8633 H   0  0  0  0  0 15  0  0  0  0  0  0
   41.9928    1.8036   -4.9251 H   0  0  0  0  0 15  0  0  0  0  0  0
   43.4668    3.4107   -4.3403 H   0  0  0  0  0 15  0  0  0  0  0  0
   43.9438    3.5050   -2.6466 H   0  0  0  0  0 15  0  0  0  0  0  0
   44.5498    2.1721   -3.6565 H   0  0  0  0  0 15  0  0  0  0  0  0
   42.8649    1.4899    0.5136 N   0  0  0  0  0 15  0  0  0  0  0  0
   44.0949    1.6130    1.2910 C   0  0  0  0  0 15  0  0  0  0  0  0
   44.5029    0.2787    1.8714 C   0  0  0  0  0 15  0  0  0  0  0  0
   43.8459   -0.7443    1.6794 O   0  0  0  0  0 15  0  0  0  0  0  0
   43.9079    2.6133    2.4688 C   0  0  0  0  0 15  0  0  0  0  0  0
   43.5719    4.0599    2.0981 C   0  0  0  0  0 15  0  0  0  0  0  0
   44.5689    4.9318    1.6452 C   0  0  0  0  0 15  0  0  0  0  0  0
   42.2539    4.5164    2.1983 C   0  0  0  0  0 15  0  0  0  0  0  0
   44.2479    6.2406    1.2974 C   0  0  0  0  0 15  0  0  0  0  0  0
   41.9349    5.8253    1.8466 C   0  0  0  0  0 15  0  0  0  0  0  0
   42.9329    6.6856    1.3969 C   0  0  0  0  0 15  0  0  0  0  0  0
   42.6209    7.9701    1.0499 O   0  0  0  0  0 15  0  0  0  0  0  0
   42.3529    0.5462    0.3982 H   0  0  0  0  0 15  0  0  0  0  0  0
   44.9069    1.9567    0.6246 H   0  0  0  0  0 15  0  0  0  0  0  0
   43.1369    2.2210    3.1655 H   0  0  0  0  0 15  0  0  0  0  0  0
   44.8259    2.6329    3.0892 H   0  0  0  0  0 15  0  0  0  0  0  0
   45.5919    4.5915    1.5623 H   0  0  0  0  0 15  0  0  0  0  0  0
   41.4709    3.8486    2.5379 H   0  0  0  0  0 15  0  0  0  0  0  0
   45.0149    6.9116    0.9457 H   0  0  0  0  0 15  0  0  0  0  0  0
   40.9119    6.1610    1.9259 H   0  0  0  0  0 15  0  0  0  0  0  0
   41.6799    8.0991    1.1825 H   0  0  0  0  0 15  0  0  0  0  0  0
   44.3430   -0.7638    1.3786 N   0  0  0  0  0 15  0  0  0  0  0  0
   45.5890   -1.5240    1.3471 C   0  0  0  0  0 15  0  0  0  0  0  0
   45.9440   -1.9229   -0.0656 C   0  0  0  0  0 15  0  0  0  0  0  0
   45.2370   -1.6181   -1.0261 O   0  0  0  0  0 15  0  0  0  0  0  0
   45.4310   -2.7950    2.2274 C   0  0  0  0  0 15  0  0  0  0  0  0
   45.2600   -2.5203    3.7244 C   0  0  0  0  0 15  0  0  0  0  0  0
   44.0300   -2.4576    4.4151 C   0  0  0  0  0 15  0  0  0  0  0  0
   46.2280   -2.1949    4.6511 C   0  0  0  0  0 15  0  0  0  0  0  0
   44.2100   -2.1046    5.7670 N   0  0  0  0  0 15  0  0  0  0  0  0
   45.5810   -1.9440    5.8874 C   0  0  0  0  0 15  0  0  0  0  0  0
   47.6360   -2.0571    4.5342 C   0  0  0  0  0 15  0  0  0  0  0  0
   46.3390   -1.5692    7.0198 C   0  0  0  0  0 15  0  0  0  0  0  0
   48.3650   -1.6963    5.6655 C   0  0  0  0  0 15  0  0  0  0  0  0
   47.7270   -1.4541    6.8923 C   0  0  0  0  0 15  0  0  0  0  0  0
   43.8260   -0.5577    0.5482 H   0  0  0  0  0 15  0  0  0  0  0  0
   46.4100   -0.8903    1.7315 H   0  0  0  0  0 15  0  0  0  0  0  0
   44.5810   -3.4069    1.8651 H   0  0  0  0  0 15  0  0  0  0  0  0
   46.3130   -3.4547    2.1080 H   0  0  0  0  0 15  0  0  0  0  0  0
   43.0680   -2.6189    3.9460 H   0  0  0  0  0 15  0  0  0  0  0  0
   43.4920   -1.9548    6.4816 H   0  0  0  0  0 15  0  0  0  0  0  0
   48.1340   -2.2312    3.5913 H   0  0  0  0  0 15  0  0  0  0  0  0
   45.8520   -1.3825    7.9619 H   0  0  0  0  0 15  0  0  0  0  0  0
   49.4380   -1.5962    5.5948 H   0  0  0  0  0 15  0  0  0  0  0  0
   48.3180   -1.1790    7.7529 H   0  0  0  0  0 15  0  0  0  0  0  0
   45.8211   -1.2256   -0.9908 N   0  0  0  0  0 15  0  0  0  0  0  0
   46.7681   -0.9975   -2.0813 C   0  0  0  0  0 15  0  0  0  0  0  0
   47.7381    0.0815   -1.6590 C   0  0  0  0  0 15  0  0  0  0  0  0
   48.9231   -0.0685   -1.9068 O   0  0  0  0  0 15  0  0  0  0  0  0
   46.0631   -0.5836   -3.4013 C   0  0  0  0  0 15  0  0  0  0  0  0
   45.1761   -1.7336   -3.9569 C   0  0  0  0  0 15  0  0  0  0  0  0
   44.3111   -1.2675   -5.1586 C   0  0  0  0  0 15  0  0  0  0  0  0
   43.3501   -2.3889   -5.6356 C   0  0  0  0  0 15  0  0  0  0  0  0
   42.4871   -1.9331   -6.7496 N   0  0  0  0  0 15  0  0  0  0  0  0
   47.3271   -1.9310   -2.2697 H   0  0  0  0  0 15  0  0  0  0  0  0
   44.8641   -0.9621   -1.1127 H   0  0  0  0  0 15  0  0  0  0  0  0
   46.8221   -0.3248   -4.1593 H   0  0  0  0  0 15  0  0  0  0  0  0
   45.4521    0.3128   -3.2128 H   0  0  0  0  0 15  0  0  0  0  0  0
   44.5041   -2.1067   -3.1674 H   0  0  0  0  0 15  0  0  0  0  0  0
   45.8161   -2.5770   -4.2707 H   0  0  0  0  0 15  0  0  0  0  0  0
   44.9701   -0.9662   -5.9896 H   0  0  0  0  0 15  0  0  0  0  0  0
   43.7091   -0.3943   -4.8610 H   0  0  0  0  0 15  0  0  0  0  0  0
   42.7141   -2.6981   -4.7905 H   0  0  0  0  0 15  0  0  0  0  0  0
   43.9391   -3.2673   -5.9534 H   0  0  0  0  0 15  0  0  0  0  0  0
   41.8851   -1.0835   -6.4699 H   0  0  0  0  0 15  0  0  0  0  0  0
   41.8021   -2.7122   -7.0568 H   0  0  0  0  0 15  0  0  0  0  0  0
   43.0701   -1.6625   -7.6156 H   0  0  0  0  0 15  0  0  0  0  0  0
   47.2992    1.1880   -1.0356 N   0  0  0  0  0 15  0  0  0  0  0  0
   48.5242    1.9314   -0.7558 C   0  0  0  0  0 15  0  0  0  0  0  0
   48.9492    1.7537    0.6802 C   0  0  0  0  0 15  0  0  0  0  0  0
   48.3072    1.0605    1.4705 O   0  0  0  0  0 15  0  0  0  0  0  0
   48.3552    3.4275   -1.1206 C   0  0  0  0  0 15  0  0  0  0  0  0
   47.4592    4.1168   -0.2431 O   0  0  0  0  0 15  0  0  0  0  0  0
   46.8002    0.6027   -0.2786 H   0  0  0  0  0 15  0  0  0  0  0  0
   49.3302    1.5068   -1.3841 H   0  0  0  0  0 15  0  0  0  0  0  0
   49.3402    3.9344   -1.0803 H   0  0  0  0  0 15  0  0  0  0  0  0
   48.0152    3.5500   -2.1667 H   0  0  0  0  0 15  0  0  0  0  0  0
   46.5922    3.7132   -0.3425 H   0  0  0  0  0 15  0  0  0  0  0  0
   48.7773    0.8144    1.3493 N   0  0  0  0  0 15  0  0  0  0  0  0
   50.0173    0.4042    2.0036 C   0  0  0  0  0 15  0  0  0  0  0  0
   50.3813   -1.0117    1.6319 C   0  0  0  0  0 15  0  0  0  0  0  0
   51.5823   -1.5243    2.2140 O   0  0  0  0  0 15  0  0  0  0  0  0
   49.8533    0.5907    3.5248 C   0  0  0  0  0 15  0  0  0  0  0  0
   51.4123    0.2721    4.3796 S   0  0  0  0  0 15  0  0  0  0  0  0
   48.2303    0.1531    0.6943 H   0  0  0  0  0 15  0  0  0  0  0  0
   50.8323    1.0583    1.6438 H   0  0  0  0  0 15  0  0  0  0  0  0
   49.5363    1.6210    3.7703 H   0  0  0  0  0 15  0  0  0  0  0  0
   49.0673   -0.0785    3.9332 H   0  0  0  0  0 15  0  0  0  0  0  0
   51.0823   -0.9174    4.8765 H   0  0  0  0  0 15  0  0  0  0  0  0
   50.2554   -1.4699    0.5686 N   0  0  0  0  0 15  0  0  0  0  0  0
   51.4954   -2.0434    0.0513 C   0  0  0  0  0 15  0  0  0  0  0  0
   51.8594   -1.4321   -1.2788 C   0  0  0  0  0 15  0  0  0  0  0  0
   53.0604   -1.9168   -1.8845 O   0  0  0  0  0 15  0  0  0  0  0  0
   51.3314   -3.5739   -0.0282 C   0  0  0  0  0 15  0  0  0  0  0  0
   52.8904   -4.3606   -0.4900 S   0  0  0  0  0 15  0  0  0  0  0  0
   49.7084   -0.7103    0.0306 H   0  0  0  0  0 15  0  0  0  0  0  0
   52.3104   -1.8021    0.7579 H   0  0  0  0  0 15  0  0  0  0  0  0
   51.0144   -3.9940    0.9440 H   0  0  0  0  0 15  0  0  0  0  0  0
   50.5454   -3.8603   -0.7580 H   0  0  0  0  0 15  0  0  0  0  0  0
   52.5604   -4.6441   -1.7475 H   0  0  0  0  0 15  0  0  0  0  0  0
   51.7335   -0.3056   -1.5461 N   0  0  0  0  0 15  0  0  0  0  0  0
   53.1445    0.1861   -1.8577 C   0  0  0  0  0 15  0  0  0  0  0  0
   53.4955    1.5306   -1.2275 C   0  0  0  0  0 15  0  0  0  0  0  0
   52.6205    2.0989   -0.5269 O   0  0  0  0  0 15  0  0  0  0  0  0
   53.2155    0.3444   -3.3704 C   0  0  0  0  0 15  0  0  0  0  0  0
   51.7745    0.7804   -3.6822 C   0  0  0  0  0 15  0  0  0  0  0  0
   50.9215   -0.1086   -2.7709 C   0  0  0  0  0 15  0  0  0  0  0  0
   53.8725   -0.5265   -1.4971 H   0  0  0  0  0 15  0  0  0  0  0  0
   53.8935    1.1783   -3.6180 H   0  0  0  0  0 15  0  0  0  0  0  0
   53.4055   -0.6342   -3.8288 H   0  0  0  0  0 15  0  0  0  0  0  0
   51.5065    1.7695   -3.2790 H   0  0  0  0  0 15  0  0  0  0  0  0
   51.6195    0.5966   -4.7537 H   0  0  0  0  0 15  0  0  0  0  0  0
   49.9835    0.4129   -2.5133 H   0  0  0  0  0 15  0  0  0  0  0  0
   50.7665   -1.0837   -3.2575 H   0  0  0  0  0 15  0  0  0  0  0  0
   53.2116    1.5756   -0.0334 N   0  0  0  0  0 15  0  0  0  0  0  0
   54.4516    1.9384    0.6484 C   0  0  0  0  0 15  0  0  0  0  0  0
   54.8156    0.9104    1.6904 C   0  0  0  0  0 15  0  0  0  0  0  0
   56.0166    1.1595    2.4250 O   0  0  0  0  0 15  0  0  0  0  0  0
   54.2876    3.3502    1.2449 C   0  0  0  0  0 15  0  0  0  0  0  0
   55.8466    3.9323    1.9472 S   0  0  0  0  0 15  0  0  0  0  0  0
   52.6646    0.6782    0.2134 H   0  0  0  0  0 15  0  0  0  0  0  0
   55.2666    1.9525   -0.0981 H   0  0  0  0  0 15  0  0  0  0  0  0
   53.9706    4.0765    0.4741 H   0  0  0  0  0 15  0  0  0  0  0  0
   53.5016    3.3706    2.0286 H   0  0  0  0  0 15  0  0  0  0  0  0
   55.5166    3.7701    3.2261 H   0  0  0  0  0 15  0  0  0  0  0  0
   54.6897   -0.2398    1.5577 N   0  0  0  0  0 15  0  0  0  0  0  0
   55.9297   -0.9741    1.7970 C   0  0  0  0  0 15  0  0  0  0  0  0
   56.2937   -1.8225    0.6041 C   0  0  0  0  0 15  0  0  0  0  0  0
   57.4947   -2.5891    0.7223 O   0  0  0  0  0 15  0  0  0  0  0  0
   55.7657   -1.8059    3.0842 C   0  0  0  0  0 15  0  0  0  0  0  0
   57.3247   -2.5984    3.5360 S   0  0  0  0  0 15  0  0  0  0  0  0
   54.1427   -0.3275    0.6311 H   0  0  0  0  0 15  0  0  0  0  0  0
   56.7447   -0.2413    1.9401 H   0  0  0  0  0 15  0  0  0  0  0  0
   55.4487   -1.1725    3.9329 H   0  0  0  0  0 15  0  0  0  0  0  0
   54.9797   -2.5814    2.9687 H   0  0  0  0  0 15  0  0  0  0  0  0
   56.9947   -3.8299    3.1549 H   0  0  0  0  0 15  0  0  0  0  0  0
   56.1678   -1.4927   -0.5057 N   0  0  0  0  0 15  0  0  0  0  0  0
   57.5788   -1.5177   -1.0873 C   0  0  0  0  0 15  0  0  0  0  0  0
   57.9298   -0.3012   -1.9387 C   0  0  0  0  0 15  0  0  0  0  0  0
   57.0548    0.5895   -2.0822 O   0  0  0  0  0 15  0  0  0  0  0  0
   57.6498   -2.7502   -1.9787 C   0  0  0  0  0 15  0  0  0  0  0  0
   56.2088   -2.8031   -2.5120 C   0  0  0  0  0 15  0  0  0  0  0  0
   55.3558   -2.4562   -1.2871 C   0  0  0  0  0 15  0  0  0  0  0  0
   58.3068   -1.5603   -0.2899 H   0  0  0  0  0 15  0  0  0  0  0  0
   58.3278   -2.5491   -2.8249 H   0  0  0  0  0 15  0  0  0  0  0  0
   57.8398   -3.6354   -1.3587 H   0  0  0  0  0 15  0  0  0  0  0  0
   55.9408   -1.9606   -3.1685 H   0  0  0  0  0 15  0  0  0  0  0  0
   56.0538   -3.8237   -2.8867 H   0  0  0  0  0 15  0  0  0  0  0  0
   54.4178   -1.9730   -1.6108 H   0  0  0  0  0 15  0  0  0  0  0  0
   55.2008   -3.3641   -0.6843 H   0  0  0  0  0 15  0  0  0  0  0  0
   57.6459    0.7564   -1.3826 N   0  0  0  0  0 15  0  0  0  0  0  0
   59.0569    1.3336   -1.3066 C   0  0  0  0  0 15  0  0  0  0  0  0
   59.4079    1.9616    0.0389 C   0  0  0  0  0 15  0  0  0  0  0  0
   58.5329    1.9487    0.9409 O   0  0  0  0  0 15  0  0  0  0  0  0
   59.1279    2.4248   -2.3662 C   0  0  0  0  0 15  0  0  0  0  0  0
   57.6869    2.9592   -2.3261 C   0  0  0  0  0 15  0  0  0  0  0  0
   56.8339    1.6928   -2.1964 C   0  0  0  0  0 15  0  0  0  0  0  0
   59.7849    0.5555   -1.4866 H   0  0  0  0  0 15  0  0  0  0  0  0
   59.8059    3.2234   -2.0217 H   0  0  0  0  0 15  0  0  0  0  0  0
   59.3179    1.9674   -3.3454 H   0  0  0  0  0 15  0  0  0  0  0  0
   57.4189    3.4600   -1.3827 H   0  0  0  0  0 15  0  0  0  0  0  0
   57.5319    3.5049   -3.2664 H   0  0  0  0  0 15  0  0  0  0  0  0
   55.8959    1.9279   -1.6644 H   0  0  0  0  0 15  0  0  0  0  0  0
   56.6789    1.2562   -3.1949 H   0  0  0  0  0 15  0  0  0  0  0  0
   59.1240    1.2308    0.9843 N   0  0  0  0  0 15  0  0  0  0  0  0
   60.3720    1.0585    1.7216 C   0  0  0  0  0 15  0  0  0  0  0  0
   60.6930   -0.4060    1.9073 C   0  0  0  0  0 15  0  0  0  0  0  0
   59.9630   -1.2914    1.4731 O   0  0  0  0  0 15  0  0  0  0  0  0
   58.5430    0.3887    0.6379 H   0  0  0  0  0 15  0  0  0  0  0  0
   61.2050    1.5474    1.1850 H   0  0  0  0  0 15  0  0  0  0  0  0
   60.3010    1.5433    2.7127 H   0  0  0  0  0 15  0  0  0  0  0  0
   60.6021   -1.1825    1.0419 N   0  0  0  0  0 15  0  0  0  0  0  0
   61.8421   -1.8995    0.7549 C   0  0  0  0  0 15  0  0  0  0  0  0
   62.2061   -1.7861   -0.7045 C   0  0  0  0  0 15  0  0  0  0  0  0
   63.4071   -2.4503   -1.1052 O   0  0  0  0  0 15  0  0  0  0  0  0
   61.6781   -3.3631    1.2097 C   0  0  0  0  0 15  0  0  0  0  0  0
   63.2371   -4.2609    1.0485 S   0  0  0  0  0 15  0  0  0  0  0  0
   60.0551   -0.6559    0.2744 H   0  0  0  0  0 15  0  0  0  0  0  0
   62.6571   -1.4287    1.3344 H   0  0  0  0  0 15  0  0  0  0  0  0
   61.3611   -3.4209    2.2672 H   0  0  0  0  0 15  0  0  0  0  0  0
   60.8921   -3.8842    0.6240 H   0  0  0  0  0 15  0  0  0  0  0  0
   62.9071   -4.9619   -0.0333 H   0  0  0  0  0 15  0  0  0  0  0  0
   62.0802   -0.8215   -1.3449 N   0  0  0  0  0 15  0  0  0  0  0  0
   63.0432   -0.2478   -2.2786 C   0  0  0  0  0 15  0  0  0  0  0  0
   64.0432    0.5735   -1.5023 C   0  0  0  0  0 15  0  0  0  0  0  0
   65.2332    0.3898   -1.6978 O   0  0  0  0  0 15  0  0  0  0  0  0
   62.3652    0.6527   -3.3459 C   0  0  0  0  0 15  0  0  0  0  0  0
   63.5582   -1.0715   -2.8011 H   0  0  0  0  0 15  0  0  0  0  0  0
   61.1112   -0.5933   -1.4460 H   0  0  0  0  0 15  0  0  0  0  0  0
   61.8462    1.4994   -2.8755 H   0  0  0  0  0 15  0  0  0  0  0  0
   61.6312    0.0653   -3.9205 H   0  0  0  0  0 15  0  0  0  0  0  0
   63.1212    1.0479   -4.0424 H   0  0  0  0  0 15  0  0  0  0  0  0
   63.5583    1.4668   -0.5764 N   0  0  0  0  0 15  0  0  0  0  0  0
   64.5053    2.3024    0.1605 C   0  0  0  0  0 15  0  0  0  0  0  0
   65.4753    1.4023    0.8902 C   0  0  0  0  0 15  0  0  0  0  0  0
   66.6603    1.6919    0.8821 O   0  0  0  0  0 15  0  0  0  0  0  0
   63.8003    3.2458    1.1723 C   0  0  0  0  0 15  0  0  0  0  0  0
   62.9133    4.2968    0.4467 C   0  0  0  0  0 15  0  0  0  0  0  0
   62.0483    5.1115    1.4455 C   0  0  0  0  0 15  0  0  0  0  0  0
   61.0873    6.0801    0.7060 C   0  0  0  0  0 15  0  0  0  0  0  0
   60.2243    6.8238    1.6525 N   0  0  0  0  0 15  0  0  0  0  0  0
   65.0643    2.9273   -0.5581 H   0  0  0  0  0 15  0  0  0  0  0  0
   62.6013    1.4427   -0.2871 H   0  0  0  0  0 15  0  0  0  0  0  0
   64.5593    3.7771    1.7717 H   0  0  0  0  0 15  0  0  0  0  0  0
   63.1893    2.6392    1.8587 H   0  0  0  0  0 15  0  0  0  0  0  0
   62.2413    3.7946   -0.2676 H   0  0  0  0  0 15  0  0  0  0  0  0
   63.5533    4.9863   -0.1317 H   0  0  0  0  0 15  0  0  0  0  0  0
   62.7073    5.6853    2.1179 H   0  0  0  0  0 15  0  0  0  0  0  0
   61.4463    4.4216    2.0579 H   0  0  0  0  0 15  0  0  0  0  0  0
   60.4513    5.4980    0.0198 H   0  0  0  0  0 15  0  0  0  0  0  0
   61.6763    6.7903    0.0991 H   0  0  0  0  0 15  0  0  0  0  0  0
   59.6223    6.1609    2.2531 H   0  0  0  0  0 15  0  0  0  0  0  0
   59.5393    7.4756    1.1267 H   0  0  0  0  0 15  0  0  0  0  0  0
   60.8073    7.4432    2.3155 H   0  0  0  0  0 15  0  0  0  0  0  0
   65.0364    0.3138    1.5444 N   0  0  0  0  0 15  0  0  0  0  0  0
   66.2764   -0.2924    2.0230 C   0  0  0  0  0 15  0  0  0  0  0  0
   66.6404   -1.5010    1.1972 C   0  0  0  0  0 15  0  0  0  0  0  0
   67.8414   -2.1795    1.5733 O   0  0  0  0  0 15  0  0  0  0  0  0
   66.1124   -0.6277    3.5185 C   0  0  0  0  0 15  0  0  0  0  0  0
   67.6714   -1.2149    4.2165 S   0  0  0  0  0 15  0  0  0  0  0  0
   64.4894   -0.0890    0.7054 H   0  0  0  0  0 15  0  0  0  0  0  0
   67.0914    0.4447    1.9038 H   0  0  0  0  0 15  0  0  0  0  0  0
   65.7954    0.2603    4.0957 H   0  0  0  0  0 15  0  0  0  0  0  0
   65.3264   -1.3952    3.6783 H   0  0  0  0  0 15  0  0  0  0  0  0
   67.3414   -2.5022    4.2849 H   0  0  0  0  0 15  0  0  0  0  0  0
   66.5145   -1.5754    0.0418 N   0  0  0  0  0 15  0  0  0  0  0  0
   67.4775   -2.0988   -0.9209 C   0  0  0  0  0 15  0  0  0  0  0  0
   68.4775   -1.0165   -1.2460 C   0  0  0  0  0 15  0  0  0  0  0  0
   69.6675   -1.2776   -1.1842 O   0  0  0  0  0 15  0  0  0  0  0  0
   66.7995   -2.5753   -2.2337 C   0  0  0  0  0 15  0  0  0  0  0  0
   67.9925   -2.9624   -0.4674 H   0  0  0  0  0 15  0  0  0  0  0  0
   65.5455   -1.5493   -0.2065 H   0  0  0  0  0 15  0  0  0  0  0  0
   66.2805   -1.7454   -2.7332 H   0  0  0  0  0 15  0  0  0  0  0  0
   66.0655   -3.3661   -2.0108 H   0  0  0  0  0 15  0  0  0  0  0  0
   67.5555   -2.9820   -2.9235 H   0  0  0  0  0 15  0  0  0  0  0  0
   67.9926    0.2315   -1.5589 N   0  0  0  0  0 15  0  0  0  0  0  0
   69.4086    0.5807   -1.4866 C   0  0  0  0  0 15  0  0  0  0  0  0
   69.6086    1.8762   -0.7350 C   0  0  0  0  0 15  0  0  0  0  0  0
   68.6646    2.5105   -0.2706 O   0  0  0  0  0 15  0  0  0  0  0  0
   69.9776    0.6692   -2.9316 C   0  0  0  0  0 15  0  0  0  0  0  0
   71.5256    0.7605   -3.0362 C   0  0  0  0  0 15  0  0  0  0  0  0
   72.0006    0.8804   -4.4946 C   0  0  0  0  0 15  0  0  0  0  0  0
   73.4916    0.9449   -4.5346 N   0  0  0  0  0 15  0  0  0  0  0  0
   74.2266    1.0572   -5.6357 C   0  0  0  0  0 15  0  0  0  0  0  0
   73.7226    1.1340   -6.8346 N   0  0  0  0  0 15  0  0  0  0  0  0
   75.5156    1.0915   -5.5140 N   0  0  0  0  0 15  0  0  0  0  0  0
   67.6666   -0.6187   -2.0319 H   0  0  0  0  0 15  0  0  0  0  0  0
   69.9296   -0.2157   -0.9231 H   0  0  0  0  0 15  0  0  0  0  0  0
   69.6356   -0.2129   -3.5105 H   0  0  0  0  0 15  0  0  0  0  0  0
   69.5096    1.5361   -3.4451 H   0  0  0  0  0 15  0  0  0  0  0  0
   71.8966    1.6331   -2.4580 H   0  0  0  0  0 15  0  0  0  0  0  0
   71.9776   -0.1319   -2.5546 H   0  0  0  0  0 15  0  0  0  0  0  0
   71.6216    0.0123   -5.0790 H   0  0  0  0  0 15  0  0  0  0  0  0
   71.5516    1.7880   -4.9532 H   0  0  0  0  0 15  0  0  0  0  0  0
   74.0426    0.8962   -3.6712 H   0  0  0  0  0 15  0  0  0  0  0  0
   74.3556    1.2192   -7.6312 H   0  0  0  0  0 15  0  0  0  0  0  0
   72.7006    1.1033   -6.8619 H   0  0  0  0  0 15  0  0  0  0  0  0
   75.8916    1.0281   -4.5667 H   0  0  0  0  0 15  0  0  0  0  0  0
   76.0646    1.1756   -6.3725 H   0  0  0  0  0 15  0  0  0  0  0  0
   69.4707    1.4953    0.4978 N   0  0  0  0  0 15  0  0  0  0  0  0
   70.7187    1.5886    1.2493 C   0  0  0  0  0 15  0  0  0  0  0  0
   71.0397    0.2787    1.9300 C   0  0  0  0  0 15  0  0  0  0  0  0
   70.3097   -0.7021    1.8288 O   0  0  0  0  0 15  0  0  0  0  0  0
   68.8897    0.5853    0.4641 H   0  0  0  0  0 15  0  0  0  0  0  0
   71.5517    1.8617    0.5767 H   0  0  0  0  0 15  0  0  0  0  0  0
   70.6477    2.3863    2.0115 H   0  0  0  0  0 15  0  0  0  0  0  0
   70.9488   -0.7491    1.3866 N   0  0  0  0  0 15  0  0  0  0  0  0
   72.1888   -1.5211    1.3653 C   0  0  0  0  0 15  0  0  0  0  0  0
   72.5528   -1.9195   -0.0432 C   0  0  0  0  0 15  0  0  0  0  0  0
   73.7538   -2.6813   -0.1894 O   0  0  0  0  0 15  0  0  0  0  0  0
   72.0248   -2.7370    2.2983 C   0  0  0  0  0 15  0  0  0  0  0  0
   73.5838   -3.6352    2.4576 S   0  0  0  0  0 15  0  0  0  0  0  0
   70.4018   -0.5205    0.4844 H   0  0  0  0  0 15  0  0  0  0  0  0
   73.0038   -0.8790    1.7463 H   0  0  0  0  0 15  0  0  0  0  0  0
   71.7078   -2.4255    3.3105 H   0  0  0  0  0 15  0  0  0  0  0  0
   71.2388   -3.4286    1.9290 H   0  0  0  0  0 15  0  0  0  0  0  0
   73.2538   -4.6671    1.6850 H   0  0  0  0  0 15  0  0  0  0  0  0
   72.4269   -1.2360   -0.9778 N   0  0  0  0  0 15  0  0  0  0  0  0
   73.6759   -1.0638   -1.7137 C   0  0  0  0  0 15  0  0  0  0  0  0
   73.9889    0.3991   -1.9149 C   0  0  0  0  0 15  0  0  0  0  0  0
   75.1949    0.6913   -2.6255 O   0  0  0  0  0 15  0  0  0  0  0  0
   73.6509   -1.8551   -3.0840 C   0  0  0  0  0 15  0  0  0  0  0  0
   73.2589   -3.3614   -2.9616 C   0  0  0  0  0 15  0  0  0  0  0  0
   75.0029   -1.7678   -3.8594 C   0  0  0  0  0 15  0  0  0  0  0  0
   72.9099   -4.0766   -4.2845 C   0  0  0  0  0 15  0  0  0  0  0  0
   71.8399   -0.3945   -0.6426 H   0  0  0  0  0 15  0  0  0  0  0  0
   74.4909   -1.4759   -1.0903 H   0  0  0  0  0 15  0  0  0  0  0  0
   72.8729   -1.3710   -3.7151 H   0  0  0  0  0 15  0  0  0  0  0  0
   74.0469   -3.9206   -2.4213 H   0  0  0  0  0 15  0  0  0  0  0  0
   72.3619   -3.4571   -2.3210 H   0  0  0  0  0 15  0  0  0  0  0  0
   74.9589   -2.2753   -4.8388 H   0  0  0  0  0 15  0  0  0  0  0  0
   75.3019   -0.7311   -4.0983 H   0  0  0  0  0 15  0  0  0  0  0  0
   75.8349   -2.2282   -3.2954 H   0  0  0  0  0 15  0  0  0  0  0  0
   72.5739   -5.1165   -4.0975 H   0  0  0  0  0 15  0  0  0  0  0  0
   72.0939   -3.5653   -4.8233 H   0  0  0  0  0 15  0  0  0  0  0  0
   73.7729   -4.1410   -4.9712 H   0  0  0  0  0 15  0  0  0  0  0  0
   73.9050    1.1769   -1.0482 N   0  0  0  0  0 15  0  0  0  0  0  0
   75.1450    1.8955   -0.7650 C   0  0  0  0  0 15  0  0  0  0  0  0
   75.5090    1.7898    0.6950 C   0  0  0  0  0 15  0  0  0  0  0  0
   76.7100    2.4561    1.0921 O   0  0  0  0  0 15  0  0  0  0  0  0
   74.9810    3.3566   -1.2275 C   0  0  0  0  0 15  0  0  0  0  0  0
   76.5400    4.2553   -1.0711 S   0  0  0  0  0 15  0  0  0  0  0  0
   73.3580    0.6544   -0.2779 H   0  0  0  0  0 15  0  0  0  0  0  0
   75.9600    1.4216   -1.3420 H   0  0  0  0  0 15  0  0  0  0  0  0
   74.6640    3.4088   -2.2853 H   0  0  0  0  0 15  0  0  0  0  0  0
   74.1950    3.8808   -0.6446 H   0  0  0  0  0 15  0  0  0  0  0  0
   76.2100    4.9620    0.0070 H   0  0  0  0  0 15  0  0  0  0  0  0
   75.3831    0.8287    1.3406 N   0  0  0  0  0 15  0  0  0  0  0  0
   76.3301    0.2526    2.2941 C   0  0  0  0  0 15  0  0  0  0  0  0
   77.3001   -0.6259    1.5386 C   0  0  0  0  0 15  0  0  0  0  0  0
   78.4851   -0.5663    1.8220 O   0  0  0  0  0 15  0  0  0  0  0  0
   75.6251   -0.5748    3.4028 C   0  0  0  0  0 15  0  0  0  0  0  0
   74.7381    0.3265    4.3076 C   0  0  0  0  0 15  0  0  0  0  0  0
   73.8731   -0.5110    5.2874 C   0  0  0  0  0 15  0  0  0  0  0  0
   72.9121    0.3893    6.1086 C   0  0  0  0  0 15  0  0  0  0  0  0
   72.0491   -0.4094    7.0091 N   0  0  0  0  0 15  0  0  0  0  0  0
   76.8891    1.0711    2.7809 H   0  0  0  0  0 15  0  0  0  0  0  0
   74.4261    0.5397    1.3684 H   0  0  0  0  0 15  0  0  0  0  0  0
   76.3841   -1.0699    4.0325 H   0  0  0  0  0 15  0  0  0  0  0  0
   75.0141   -1.3584    2.9283 H   0  0  0  0  0 15  0  0  0  0  0  0
   74.0661    0.9398    3.6861 H   0  0  0  0  0 15  0  0  0  0  0  0
   75.3781    1.0186    4.8829 H   0  0  0  0  0 15  0  0  0  0  0  0
   74.5321   -1.0703    5.9718 H   0  0  0  0  0 15  0  0  0  0  0  0
   73.2711   -1.2366    4.7176 H   0  0  0  0  0 15  0  0  0  0  0  0
   72.2761    0.9608    5.4134 H   0  0  0  0  0 15  0  0  0  0  0  0
   73.5011    1.1131    6.6992 H   0  0  0  0  0 15  0  0  0  0  0  0
   71.4471   -1.1186    6.4639 H   0  0  0  0  0 15  0  0  0  0  0  0
   71.3641    0.2241    7.5567 H   0  0  0  0  0 15  0  0  0  0  0  0
   72.6321   -0.9513    7.7367 H   0  0  0  0  0 15  0  0  0  0  0  0
   76.8612   -1.4637    0.5841 N   0  0  0  0  0 15  0  0  0  0  0  0
   78.1092   -2.0198    0.0701 C   0  0  0  0  0 15  0  0  0  0  0  0
   78.4302   -1.4579   -1.2950 C   0  0  0  0  0 15  0  0  0  0  0  0
   77.7002   -0.6431   -1.8504 O   0  0  0  0  0 15  0  0  0  0  0  0
   76.2802   -0.7466    0.0229 H   0  0  0  0  0 15  0  0  0  0  0  0
   78.9422   -1.7946    0.7602 H   0  0  0  0  0 15  0  0  0  0  0  0
   78.0382   -3.1210    0.0022 H   0  0  0  0  0 15  0  0  0  0  0  0
   78.3393   -0.3220   -1.5428 N   0  0  0  0  0 15  0  0  0  0  0  0
   79.5873    0.2805   -2.0014 C   0  0  0  0  0 15  0  0  0  0  0  0
   79.9083    1.5278   -1.2118 C   0  0  0  0  0 15  0  0  0  0  0  0
   79.1783    1.9338   -0.3132 O   0  0  0  0  0 15  0  0  0  0  0  0
   77.7583    0.1066   -0.7394 H   0  0  0  0  0 15  0  0  0  0  0  0
   80.4203   -0.4382   -1.8991 H   0  0  0  0  0 15  0  0  0  0  0  0
   79.5163    0.5380   -3.0743 H   0  0  0  0  0 15  0  0  0  0  0  0
   79.8174    1.5752   -0.0501 N   0  0  0  0  0 15  0  0  0  0  0  0
   81.0424    1.9738    0.6370 C   0  0  0  0  0 15  0  0  0  0  0  0
   81.4674    0.9275    1.6364 C   0  0  0  0  0 15  0  0  0  0  0  0
   80.8254   -0.1094    1.8097 O   0  0  0  0  0 15  0  0  0  0  0  0
   80.8734    3.3630    1.3012 C   0  0  0  0  0 15  0  0  0  0  0  0
   79.9774    3.3416    2.4169 O   0  0  0  0  0 15  0  0  0  0  0  0
   79.3184    0.6430    0.1657 H   0  0  0  0  0 15  0  0  0  0  0  0
   81.8484    2.0426   -0.1182 H   0  0  0  0  0 15  0  0  0  0  0  0
   81.8584    3.7301    1.6532 H   0  0  0  0  0 15  0  0  0  0  0  0
   80.5334    4.1199    0.5687 H   0  0  0  0  0 15  0  0  0  0  0  0
   79.1104    3.0920    2.0845 H   0  0  0  0  0 15  0  0  0  0  0  0
   81.2955   -0.2232    1.5601 N   0  0  0  0  0 15  0  0  0  0  0  0
   82.5725   -0.9721    1.6973 C   0  0  0  0  0 15  0  0  0  0  0  0
   82.9525   -2.0249    0.5969 C   0  0  0  0  0 15  0  0  0  0  0  0
   82.3005   -2.2504   -0.3963 O   0  0  0  0  0 15  0  0  0  0  0  0
   82.5105   -1.5841    3.1098 C   0  0  0  0  0 15  0  0  0  0  0  0
   83.8585   -2.0770    3.7033 C   0  0  0  0  0 15  0  0  0  0  0  0
   84.8825   -1.6830    3.1393 O   0  0  0  0  0 15  0  0  0  0  0  0
   83.7415   -2.8010    4.6926 O   0  0  0  0  0 15  0  0  0  0  0  0
   80.8355   -0.4540    0.6912 H   0  0  0  0  0 15  0  0  0  0  0  0
   83.3815   -0.2151    1.6833 H   0  0  0  0  0 15  0  0  0  0  0  0
   82.1535   -0.8238    3.8253 H   0  0  0  0  0 15  0  0  0  0  0  0
   81.7765   -2.4066    3.1649 H   0  0  0  0  0 15  0  0  0  0  0  0
   82.7736   -1.4979   -0.4899 N   0  0  0  0  0 15  0  0  0  0  0  0
   83.7206   -1.6728   -1.5901 C   0  0  0  0  0 15  0  0  0  0  0  0
   84.6906   -0.5142   -1.5794 C   0  0  0  0  0 15  0  0  0  0  0  0
   85.8756   -0.7425   -1.7576 O   0  0  0  0  0 15  0  0  0  0  0  0
   83.0156   -1.7557   -2.9710 C   0  0  0  0  0 15  0  0  0  0  0  0
   82.1286   -3.0281   -3.0811 C   0  0  0  0  0 15  0  0  0  0  0  0
   81.2636   -3.0201   -4.3700 C   0  0  0  0  0 15  0  0  0  0  0  0
   80.3026   -4.2378   -4.4167 C   0  0  0  0  0 15  0  0  0  0  0  0
   79.4396   -4.2083   -5.6201 N   0  0  0  0  0 15  0  0  0  0  0  0
   84.2796   -2.6122   -1.4341 H   0  0  0  0  0 15  0  0  0  0  0  0
   81.8166   -1.2951   -0.6976 H   0  0  0  0  0 15  0  0  0  0  0  0
   83.7746   -1.7835   -3.7715 H   0  0  0  0  0 15  0  0  0  0  0  0
   82.4046   -0.8508   -3.1139 H   0  0  0  0  0 15  0  0  0  0  0  0
   81.4566   -3.0958   -2.2105 H   0  0  0  0  0 15  0  0  0  0  0  0
   82.7686   -3.9280   -3.0742 H   0  0  0  0  0 15  0  0  0  0  0  0
   81.9226   -3.0342   -5.2538 H   0  0  0  0  0 15  0  0  0  0  0  0
   80.6616   -2.0981   -4.4026 H   0  0  0  0  0 15  0  0  0  0  0  0
   79.6666   -4.2260   -3.5169 H   0  0  0  0  0 15  0  0  0  0  0  0
   80.8916   -5.1718   -4.4011 H   0  0  0  0  0 15  0  0  0  0  0  0
   78.8376   -3.3148   -5.6609 H   0  0  0  0  0 15  0  0  0  0  0  0
   78.7546   -5.0456   -5.6298 H   0  0  0  0  0 15  0  0  0  0  0  0
   80.0226   -4.2636   -6.5257 H   0  0  0  0  0 15  0  0  0  0  0  0
   84.2517    0.7417   -1.3905 N   0  0  0  0  0 15  0  0  0  0  0  0
   85.4917    1.5139   -1.3734 C   0  0  0  0  0 15  0  0  0  0  0  0
   85.8557    1.9197    0.0331 C   0  0  0  0  0 15  0  0  0  0  0  0
   87.0567    2.6823    0.1752 O   0  0  0  0  0 15  0  0  0  0  0  0
   85.3277    2.7248   -2.3128 C   0  0  0  0  0 15  0  0  0  0  0  0
   86.8867    3.6221   -2.4769 S   0  0  0  0  0 15  0  0  0  0  0  0
   83.7047    0.5179   -0.4871 H   0  0  0  0  0 15  0  0  0  0  0  0
   86.3067    0.8697   -1.7509 H   0  0  0  0  0 15  0  0  0  0  0  0
   85.0107    2.4079   -3.3234 H   0  0  0  0  0 15  0  0  0  0  0  0
   84.5417    3.4183   -1.9472 H   0  0  0  0  0 15  0  0  0  0  0  0
   86.5567    4.6581   -1.7098 H   0  0  0  0  0 15  0  0  0  0  0  0
   85.7298    1.2412    0.9712 N   0  0  0  0  0 15  0  0  0  0  0  0
   86.9548    1.1067    1.7541 C   0  0  0  0  0 15  0  0  0  0  0  0
   87.3798   -0.3370    1.8506 C   0  0  0  0  0 15  0  0  0  0  0  0
   86.7378   -1.2440    1.3189 O   0  0  0  0  0 15  0  0  0  0  0  0
   86.7858    1.7473    3.1544 C   0  0  0  0  0 15  0  0  0  0  0  0
   85.8898    1.0157    3.9970 O   0  0  0  0  0 15  0  0  0  0  0  0
   85.2308    0.3873    0.5393 H   0  0  0  0  0 15  0  0  0  0  0  0
   87.7608    1.6436    1.2185 H   0  0  0  0  0 15  0  0  0  0  0  0
   87.7708    1.8034    3.6598 H   0  0  0  0  0 15  0  0  0  0  0  0
   86.4458    2.7977    3.0773 H   0  0  0  0  0 15  0  0  0  0  0  0
   85.0228    1.0371    3.5819 H   0  0  0  0  0 15  0  0  0  0  0  0
   87.2079   -1.1713    1.0544 N   0  0  0  0  0 15  0  0  0  0  0  0
   88.4479   -1.8914    0.7750 C   0  0  0  0  0 15  0  0  0  0  0  0
   88.8119   -1.7934   -0.6855 C   0  0  0  0  0 15  0  0  0  0  0  0
   90.0129   -2.4619   -1.0791 O   0  0  0  0  0 15  0  0  0  0  0  0
   88.2839   -3.3500    1.2453 C   0  0  0  0  0 15  0  0  0  0  0  0
   89.8429   -4.2495    1.0937 S   0  0  0  0  0 15  0  0  0  0  0  0
   86.6609   -0.6529    0.2814 H   0  0  0  0  0 15  0  0  0  0  0  0
   89.2629   -1.4145    1.3495 H   0  0  0  0  0 15  0  0  0  0  0  0
   87.9669   -3.3967    2.3034 H   0  0  0  0  0 15  0  0  0  0  0  0
   87.4979   -3.8774    0.6652 H   0  0  0  0  0 15  0  0  0  0  0  0
   89.5129   -4.9620    0.0193 H   0  0  0  0  0 15  0  0  0  0  0  0
   88.6860   -0.8358   -1.3361 N   0  0  0  0  0 15  0  0  0  0  0  0
   89.9260   -0.4360   -1.9970 C   0  0  0  0  0 15  0  0  0  0  0  0
   90.2900    0.9856   -1.6477 C   0  0  0  0  0 15  0  0  0  0  0  0
   91.4910    1.4889   -2.2380 O   0  0  0  0  0 15  0  0  0  0  0  0
   89.7620   -0.6467   -3.5150 C   0  0  0  0  0 15  0  0  0  0  0  0
   91.3210   -0.3417   -4.3747 S   0  0  0  0  0 15  0  0  0  0  0  0
   88.1390   -0.1641   -0.6918 H   0  0  0  0  0 15  0  0  0  0  0  0
   90.7410   -1.0844   -1.6267 H   0  0  0  0  0 15  0  0  0  0  0  0
   89.4450   -1.6808   -3.7440 H   0  0  0  0  0 15  0  0  0  0  0  0
   88.9760    0.0159   -3.9340 H   0  0  0  0  0 15  0  0  0  0  0  0
   90.9910    0.8397   -4.8904 H   0  0  0  0  0 15  0  0  0  0  0  0
   90.1641    1.4606   -0.5919 N   0  0  0  0  0 15  0  0  0  0  0  0
   91.5751    1.8594   -0.1678 C   0  0  0  0  0 15  0  0  0  0  0  0
   91.9261    1.4943    1.2714 C   0  0  0  0  0 15  0  0  0  0  0  0
   91.0511    0.9135    1.9617 O   0  0  0  0  0 15  0  0  0  0  0  0
   91.6461    3.3749   -0.2978 C   0  0  0  0  0 15  0  0  0  0  0  0
   90.2051    3.7633    0.0715 C   0  0  0  0  0 15  0  0  0  0  0  0
   89.3521    2.7006   -0.6295 C   0  0  0  0  0 15  0  0  0  0  0  0
   92.3031    1.3709   -0.7996 H   0  0  0  0  0 15  0  0  0  0  0  0
   92.3241    3.7753    0.4743 H   0  0  0  0  0 15  0  0  0  0  0  0
   91.8361    3.6403   -1.3454 H   0  0  0  0  0 15  0  0  0  0  0  0
   89.9371    3.5540    1.1189 H   0  0  0  0  0 15  0  0  0  0  0  0
   90.0501    4.7809   -0.3112 H   0  0  0  0  0 15  0  0  0  0  0  0
   88.4141    2.5461   -0.0688 H   0  0  0  0  0 15  0  0  0  0  0  0
   89.1971    2.9944   -1.6789 H   0  0  0  0  0 15  0  0  0  0  0  0
   91.6811    0.4723    1.5444 O   0  0  0  0  0 15  0  0  0  0  0  0
   92.3721   -0.0527    1.9363 H   0  0  0  0  0 15  0  0  0  0  0  0
M  END
$$$$
