drugbank_target|P48050 Inward rectifier potassium channel 4 (DB00243; DB01110; DB04855)
 OpenBabel12092121013D

  0  0  0     0  0            999 V3000
M  V30 BEGIN CTAB
M  V30 COUNTS 6914 6996 0 0 0
M  V30 BEGIN ATOM
M  V30 1 H -0.908 1.98254 -0.117106 0
M  V30 2 N 0 1.576 0 0
M  V30 3 C 0.933 2.03868 1.02534 0
M  V30 4 C 1.911 0.928543 1.3348 0
M  V30 5 O 3.095 1.19667 1.45644 0
M  V30 6 C 0.222 2.43627 2.35294 0
M  V30 7 C -0.732 3.65373 2.2001 0
M  V30 8 S 0.101 5.13292 1.52614 0
M  V30 9 C 1.257 5.56322 2.86805 0
M  V30 10 H 1.49 2.90518 0.631377 0
M  V30 11 H -0.977 1.52953 0.210867 0
M  V30 12 H 0.981 2.67203 3.11629 0
M  V30 13 H -0.358 1.57376 2.7183 0
M  V30 14 H -1.165 3.90944 3.18086 0
M  V30 15 H -1.563 3.418 1.51819 0
M  V30 16 H 0.729 5.58782 3.83104 0
M  V30 17 H 1.672 6.56266 2.65933 0
M  V30 18 H 2.08 4.83886 2.90714 0
M  V30 19 N 1.4781 -0.272755 1.55222 0
M  V30 20 C 2.4281 -1.33946 1.84506 0
M  V30 21 C 3.4121 -1.44682 0.70399 0
M  V30 22 O 4.6041 -1.48358 0.965338 0
M  V30 23 C 1.7331 -2.69968 2.12067 0
M  V30 24 C 0.8191 -2.63341 3.32434 0
M  V30 25 N 1.2101 -2.26335 4.52334 0
M  V30 26 C -0.4919 -2.94402 3.35028 0
M  V30 27 C 0.2091 -2.29705 5.34425 0
M  V30 28 N -0.8149 -2.68188 4.72838 0
M  V30 29 H 2.9871 -1.04343 2.74754 0
M  V30 30 H 0.5011 -0.481389 1.55101 0
M  V30 31 H 2.4981 -3.46916 2.31202 0
M  V30 32 H 1.1581 -3.00459 1.23103 0
M  V30 33 H 2.1691 -1.98309 4.78429 0
M  V30 34 H -1.1539 -3.29603 2.56257 0
M  V30 35 H 0.2361 -2.03653 6.40293 0
M  V30 36 N 2.9562 -1.48159 -0.537278 0
M  V30 37 C 4.2042 -1.55497 -1.29094 0
M  V30 38 C 4.5252 -0.227454 -1.93669 0
M  V30 39 O 3.7952 0.750386 -1.80959 0
M  V30 40 H 2.3752 -0.572832 -0.47945 0
M  V30 41 H 5.0372 -1.84579 -0.625818 0
M  V30 42 H 4.1332 -2.33216 -2.07405 0
M  V30 43 N 4.4343 0.785586 -1.36625 0
M  V30 44 C 5.3843 1.88822 -1.27789 0
M  V30 45 C 6.3683 1.60014 -0.168579 0
M  V30 46 O 7.5603 1.72381 -0.401737 0
M  V30 47 C 4.6893 3.26092 -1.07327 0
M  V30 48 C 3.7753 3.60897 -2.22743 0
M  V30 49 N 4.1663 3.66982 -3.48077 0
M  V30 50 C 2.4643 3.90981 -2.14593 0
M  V30 51 C 3.1653 3.98137 -4.24101 0
M  V30 52 N 2.1413 4.13319 -3.53084 0
M  V30 53 H 5.9433 1.91759 -2.22723 0
M  V30 54 H 3.4573 0.981311 -1.29399 0
M  V30 55 H 5.4543 4.04954 -0.990842 0
M  V30 56 H 4.1143 3.24428 -0.132977 0
M  V30 57 H 5.1253 3.49531 -3.82163 0
M  V30 58 H 1.8023 3.9722 -1.2854 0
M  V30 59 H 3.1923 4.09737 -5.32509 0
M  V30 60 N 5.9124 1.20967 1.01018 0
M  V30 61 C 7.1374 1.0503 1.78839 0
M  V30 62 C 7.5624 -0.395752 1.8389 0
M  V30 63 O 6.9204 -1.28529 1.27867 0
M  V30 64 C 6.9684 1.64602 3.2084 0
M  V30 65 O 6.0724 0.887988 4.02726 0
M  V30 66 H 5.4134 0.369987 0.551367 0
M  V30 67 H 7.9434 1.60399 1.27018 0
M  V30 68 H 7.9534 1.68607 3.71532 0
M  V30 69 H 6.6284 2.69841 3.16479 0
M  V30 70 H 5.2054 0.922648 3.61305 0
M  V30 71 N 7.3905 -1.2043 1.01659 0
M  V30 72 C 8.8065 -1.41852 0.731442 0
M  V30 73 C 9.0065 -1.89358 -0.688898 0
M  V30 74 O 8.0625 -2.06247 -1.45666 0
M  V30 75 C 9.3755 -2.44019 1.75714 0
M  V30 76 C 10.9235 -2.57785 1.77527 0
M  V30 77 C 11.3985 -3.63194 2.79023 0
M  V30 78 N 12.8895 -3.70678 2.77763 0
M  V30 79 C 13.6245 -4.51897 3.52954 0
M  V30 80 N 13.1205 -5.36921 4.37821 0
M  V30 81 N 14.9135 -4.4643 3.41551 0
M  V30 82 H 7.0645 -0.879093 1.93354 0
M  V30 83 H 9.3275 -0.448425 0.835236 0
M  V30 84 H 9.0335 -2.1611 2.77469 0
M  V30 85 H 8.9075 -3.43007 1.56927 0
M  V30 86 H 11.2945 -2.85023 0.764569 0
M  V30 87 H 11.3755 -1.58992 2.00387 0
M  V30 88 H 11.0195 -3.36699 3.80258 0
M  V30 89 H 10.9495 -4.61609 2.53425 0
M  V30 90 H 13.4405 -3.09944 2.16201 0
M  V30 91 H 13.7535 -5.95981 4.91962 0
M  V30 92 H 12.0985 -5.36424 4.41899 0
M  V30 93 H 15.2895 -3.79042 2.74672 0
M  V30 94 H 15.4625 -5.09491 4.00404 0
M  V30 95 N 8.8686 -0.792821 -1.36206 0
M  V30 96 C 9.8166 -0.181555 -2.3189 0
M  V30 97 C 10.8106 0.661025 -1.55971 0
M  V30 98 O 12.0166 0.555728 -1.71206 0
M  V30 99 H 8.3916 -0.0399382 -0.750939 0
M  V30 100 H 10.3626 -1.00394 -2.81005 0
M  V30 101 C 9.1116 0.666444 -3.41253 0
M  V30 102 H 8.4346 0.0274489 -3.99791 0
M  V30 103 H 9.8746 1.06076 -4.10517 0
M  V30 104 C 8.3336 1.82614 -2.83114 0
M  V30 105 O 8.8636 2.9229 -2.75553 0
M  V30 106 N 7.0696 1.63333 -2.40356 0
M  V30 107 H 6.6166 0.741217 -2.46706 0
M  V30 108 H 6.5746 2.41087 -2.01803 0
M  V30 109 N 10.3467 1.47872 -0.545128 0
M  V30 110 C 11.5947 2.02093 -0.016553 0
M  V30 111 C 11.9157 1.42305 1.3332 0
M  V30 112 O 11.1857 0.593853 1.86682 0
M  V30 113 H 9.7657 0.746993 -0.00313038 0
M  V30 114 H 12.4277 1.81414 -0.712397 0
M  V30 115 H 11.5237 3.11996 0.0805422 0
M  V30 116 N 11.8248 0.280983 1.55075 0
M  V30 117 C 12.7568 -0.637268 2.20163 0
M  V30 118 C 13.7698 -1.11298 1.18813 0
M  V30 119 O 14.9588 -1.03388 1.4551 0
M  V30 120 C 12.0588 -1.88199 2.81841 0
M  V30 121 C 11.2318 -1.55211 4.08936 0
M  V30 122 C 10.2908 -2.64991 4.54606 0
M  V30 123 O 9.3168 -2.30929 5.2025 0
M  V30 124 N 10.5188 -3.95161 4.25238 0
M  V30 125 H 13.2838 -0.0801694 2.99593 0
M  V30 126 H 10.8448 0.102329 1.61576 0
M  V30 127 H 12.8368 -2.60948 3.09335 0
M  V30 128 H 11.4068 -2.34799 2.06369 0
M  V30 129 H 10.6268 -0.658185 3.88666 0
M  V30 130 H 11.9148 -1.30681 4.91732 0
M  V30 131 H 11.3128 -4.25653 3.72607 0
M  V30 132 H 9.8698 -4.6427 4.5749 0
M  V30 133 N 13.3029 -1.57598 0.00835791 0
M  V30 134 C 14.2659 -2.07884 -0.965242 0
M  V30 135 C 15.2659 -0.989825 -1.26725 0
M  V30 136 O 16.4559 -1.25218 -1.21104 0
M  V30 137 C 13.5879 -2.52731 -2.28779 0
M  V30 138 H 14.7809 -2.95178 -0.530112 0
M  V30 139 H 12.3339 -1.54458 -0.239283 0
M  V30 140 H 13.0689 -1.68705 -2.76964 0
M  V30 141 H 12.8539 -3.32272 -2.08177 0
M  V30 142 H 14.3439 -2.91933 -2.98605 0
M  V30 143 N 14.781 0.264519 -1.55364 0
M  V30 144 C 15.731 1.32966 -1.85214 0
M  V30 145 C 16.715 1.44306 -0.711653 0
M  V30 146 O 17.907 1.47844 -0.973192 0
M  V30 147 C 15.036 2.68839 -2.13495 0
M  V30 148 C 14.122 2.61575 -3.33825 0
M  V30 149 N 14.513 2.23933 -4.53528 0
M  V30 150 C 12.811 2.92621 -3.36584 0
M  V30 151 C 13.512 2.26868 -5.35636 0
M  V30 152 N 12.488 2.65677 -4.74254 0
M  V30 153 H 16.29 1.02884 -2.75304 0
M  V30 154 H 13.804 0.473157 -1.55354 0
M  V30 155 H 15.801 3.45685 -2.33039 0
M  V30 156 H 14.461 2.99802 -1.24694 0
M  V30 157 H 15.472 1.95769 -4.79474 0
M  V30 158 H 12.149 3.2824 -2.58002 0
M  V30 159 H 13.539 2.00254 -6.41364 0
M  V30 160 N 16.2591 1.48442 0.529413 0
M  V30 161 C 17.5051 1.5672 1.28711 0
M  V30 162 C 17.8381 0.2406 1.92704 0
M  V30 163 O 17.1131 -0.753454 1.79313 0
M  V30 164 C 17.3961 2.70587 2.37603 0
M  V30 165 C 17.2491 4.12953 1.78297 0
M  V30 166 C 18.5681 2.80212 3.39366 0
M  V30 167 H 15.6871 0.570474 0.466613 0
M  V30 168 H 18.3291 1.80617 0.589706 0
M  V30 169 H 16.4791 2.50342 2.97088 0
M  V30 170 H 18.1511 4.44639 1.22858 0
M  V30 171 H 16.3941 4.19927 1.0883 0
M  V30 172 H 17.0651 4.88448 2.57144 0
M  V30 173 H 19.5411 2.98553 2.89836 0
M  V30 174 H 18.4171 3.61611 4.12951 0
M  V30 175 H 18.6781 1.88393 3.99951 0
M  V30 176 N 17.7372 -0.778329 1.37039 0
M  V30 177 C 19.1482 -1.35421 1.28523 0
M  V30 178 C 19.4992 -1.96075 -0.0700901 0
M  V30 179 O 18.6242 -1.93352 -0.971801 0
M  V30 180 C 19.2192 -2.46211 2.32735 0
M  V30 181 C 17.7782 -2.99585 2.27873 0
M  V30 182 C 16.9252 -1.72748 2.16918 0
M  V30 183 H 19.8762 -0.5791 1.47757 0
M  V30 184 H 19.8972 -3.2552 1.9702 0
M  V30 185 H 19.4092 -2.02036 3.31365 0
M  V30 186 H 17.5102 -3.48152 1.32745 0
M  V30 187 H 17.6232 -3.55646 3.21018 0
M  V30 188 H 15.9872 -1.95416 1.63354 0
M  V30 189 H 16.7702 -1.30686 3.17452 0
M  V30 190 N 19.2153 -1.21501 -1.00376 0
M  V30 191 C 20.6313 -0.972629 -1.26539 0
M  V30 192 C 20.8313 0.340257 -1.98606 0
M  V30 193 O 19.8873 1.06561 -2.28913 0
M  V30 194 C 21.2003 -2.16404 -2.08781 0
M  V30 195 C 22.7483 -2.20643 -2.22004 0
M  V30 196 C 23.2233 -3.39306 -3.07629 0
M  V30 197 N 24.7143 -3.39401 -3.15217 0
M  V30 198 C 25.4493 -4.27867 -3.81729 0
M  V30 199 N 24.9453 -5.26533 -4.5026 0
M  V30 200 N 26.7383 -4.15672 -3.78382 0
M  V30 201 H 18.8893 -2.05929 -0.520281 0
M  V30 202 H 21.1523 -0.901803 -0.292328 0
M  V30 203 H 20.8583 -3.11554 -1.63178 0
M  V30 204 H 20.7323 -2.15567 -3.09533 0
M  V30 205 H 23.1193 -1.26048 -2.66825 0
M  V30 206 H 23.2003 -2.25523 -1.20718 0
M  V30 207 H 22.8443 -4.34195 -2.63509 0
M  V30 208 H 22.7743 -3.31665 -4.09031 0
M  V30 209 H 25.2653 -2.67997 -2.66432 0
M  V30 210 H 25.5783 -5.90337 -4.98721 0
M  V30 211 H 23.9233 -5.30457 -4.49044 0
M  V30 212 H 27.1143 -3.3785 -3.23998 0
M  V30 213 H 27.2873 -4.84825 -4.2994 0
M  V30 214 N 20.6934 1.19889 -1.02296 0
M  V30 215 C 22.1094 1.41462 -0.738954 0
M  V30 216 C 22.3094 1.89721 0.678846 0
M  V30 217 O 21.3654 2.07016 1.4457 0
M  V30 218 C 22.6784 2.43083 -1.77005 0
M  V30 219 C 24.2264 2.5684 -1.78892 0
M  V30 220 C 24.7014 3.61709 -2.80945 0
M  V30 221 N 26.1924 3.69199 -2.79725 0
M  V30 222 C 26.9274 4.50019 -3.55345 0
M  V30 223 N 26.4234 5.34592 -4.40662 0
M  V30 224 N 28.2164 4.44612 -3.43914 0
M  V30 225 H 20.3674 0.868827 -1.93817 0
M  V30 226 H 22.6304 0.44399 -0.837602 0
M  V30 227 H 22.3364 2.14636 -2.78612 0
M  V30 228 H 22.2104 3.4217 -1.58744 0
M  V30 229 H 24.5974 2.84614 -0.779674 0
M  V30 230 H 24.6784 1.57927 -2.01228 0
M  V30 231 H 24.3224 3.34678 -3.82038 0
M  V30 232 H 24.2524 4.60259 -2.5587 0
M  V30 233 H 26.7434 3.08794 -2.17842 0
M  V30 234 H 27.0564 5.93363 -4.95116 0
M  V30 235 H 25.4014 5.34073 -4.44737 0
M  V30 236 H 28.5924 3.7758 -2.76679 0
M  V30 237 H 28.7654 5.0736 -4.031 0
M  V30 238 N 22.1715 0.800033 1.35784 0
M  V30 239 C 23.1185 0.203848 2.29898 0
M  V30 240 C 24.0885 -0.658375 1.52495 0
M  V30 241 O 25.2735 -0.604832 1.8096 0
M  V30 242 C 22.4135 -0.64688 3.38983 0
M  V30 243 C 21.5265 0.235054 4.3136 0
M  V30 244 C 20.6615 -0.623054 5.27533 0
M  V30 245 C 19.7005 0.259682 6.11549 0
M  V30 246 N 18.8375 -0.558019 6.99879 0
M  V30 247 H 23.6775 1.01186 2.80295 0
M  V30 248 H 21.2145 0.51053 1.37957 0
M  V30 249 H 23.1725 -1.15521 4.00887 0
M  V30 250 H 21.8025 -1.42021 2.89879 0
M  V30 251 H 20.8545 0.861438 3.70518 0
M  V30 252 H 22.1665 0.914768 4.9034 0
M  V30 253 H 21.3205 -1.19678 5.94779 0
M  V30 254 H 20.0595 -1.33636 4.69034 0
M  V30 255 H 19.0645 0.845726 5.43256 0
M  V30 256 H 20.2895 0.970748 6.72126 0
M  V30 257 H 18.2355 -1.25542 6.43875 0
M  V30 258 H 18.1525 0.0637872 7.55973 0
M  V30 259 H 19.4205 -1.11523 7.71481 0
M  V30 260 N 23.6496 -1.47581 0.552962 0
M  V30 261 C 25.0656 -1.5818 0.212424 0
M  V30 262 C 25.2656 -1.55213 -1.28496 0
M  V30 263 O 24.3216 -1.45329 -2.06484 0
M  V30 264 C 25.6346 -2.88865 0.835318 0
M  V30 265 C 27.1826 -3.0244 0.806156 0
M  V30 266 C 27.6576 -4.35819 1.40804 0
M  V30 267 N 29.1486 -4.42444 1.37103 0
M  V30 268 C 29.8836 -5.44202 1.80641 0
M  V30 269 N 29.3796 -6.52795 2.32015 0
M  V30 270 N 31.1726 -5.35222 1.71738 0
M  V30 271 H 23.3236 -1.47753 1.52587 0
M  V30 272 H 25.5866 -0.702941 0.636064 0
M  V30 273 H 25.2926 -2.9676 1.88749 0
M  V30 274 H 25.1666 -3.7579 0.325848 0
M  V30 275 H 27.5536 -2.94144 -0.237317 0
M  V30 276 H 27.6346 -2.17068 1.35334 0
M  V30 277 H 27.2786 -4.44871 2.45056 0
M  V30 278 H 27.2086 -5.19916 0.836338 0
M  V30 279 H 29.6996 -3.6456 0.995202 0
M  V30 280 H 30.0126 -7.26609 2.63171 0
M  V30 281 H 28.3576 -6.53696 2.36023 0
M  V30 282 H 31.5486 -4.49284 1.31382 0
M  V30 283 H 31.7216 -6.14389 2.05987 0
M  V30 284 N 25.1277 -0.289203 -1.54924 0
M  V30 285 C 26.5437 0.0645403 -1.59469 0
M  V30 286 C 26.7437 1.53419 -1.30632 0
M  V30 287 O 25.7997 2.2852 -1.074 0
M  V30 288 C 27.1127 -0.32278 -2.98963 0
M  V30 289 C 28.6607 -0.270564 -3.11828 0
M  V30 290 C 29.1357 -0.632532 -4.53611 0
M  V30 291 N 30.6267 -0.584617 -4.59496 0
M  V30 292 C 31.3617 -0.837314 -5.67254 0
M  V30 293 N 30.8577 -1.15536 -6.83098 0
M  V30 294 N 32.6507 -0.765166 -5.56868 0
M  V30 295 H 24.8017 -1.24714 -1.71931 0
M  V30 296 H 27.0647 -0.504809 -0.802416 0
M  V30 297 H 26.7707 -1.34541 -3.24948 0
M  V30 298 H 26.6447 0.32944 -3.75759 0
M  V30 299 H 29.0317 0.742805 -2.85598 0
M  V30 300 H 29.1127 -0.957242 -2.37214 0
M  V30 301 H 28.7567 -1.64365 -4.80569 0
M  V30 302 H 28.6867 0.07609 -5.26545 0
M  V30 303 H 31.1777 -0.349248 -3.76283 0
M  V30 304 H 31.4907 -1.33447 -7.61191 0
M  V30 305 H 29.8357 -1.19328 -6.84679 0
M  V30 306 H 33.0267 -0.516432 -4.65243 0
M  V30 307 H 33.1997 -0.965477 -6.40767 0
M  V30 308 N 26.6058 1.57591 -0.0167156 0
M  V30 309 C 27.5538 2.10604 0.987353 0
M  V30 310 C 28.5478 1.02977 1.34507 0
M  V30 311 O 29.7538 1.21425 1.32875 0
M  V30 312 H 26.1288 0.672695 0.336134 0
M  V30 313 H 28.0998 2.93925 0.514817 0
M  V30 314 C 26.8488 2.6382 2.26483 0
M  V30 315 H 26.1718 3.46278 1.99829 0
M  V30 316 H 27.6118 3.04573 2.94977 0
M  V30 317 C 26.0708 1.55992 2.9861 0
M  V30 318 O 26.6008 0.952521 3.90243 0
M  V30 319 N 24.8068 1.28335 2.60727 0
M  V30 320 H 24.3538 1.77914 1.86291 0
M  V30 321 H 24.3118 0.564115 3.09298 0
M  V30 322 N 28.0839 -0.256276 1.55502 0
M  V30 323 C 29.4999 -0.604325 1.47716 0
M  V30 324 C 29.6999 -1.88763 0.705039 0
M  V30 325 O 28.7559 -2.51445 0.230613 0
M  V30 326 C 30.0689 -0.715756 2.92057 0
M  V30 327 C 31.6169 -0.808706 3.02372 0
M  V30 328 C 32.0919 -0.951777 4.48001 0
M  V30 329 N 33.5829 -1.01688 4.519 0
M  V30 330 C 34.3179 -1.14668 5.61817 0
M  V30 331 N 33.8139 -1.24261 6.81565 0
M  V30 332 N 35.6069 -1.1791 5.49594 0
M  V30 333 H 27.7579 0.586291 2.04148 0
M  V30 334 H 30.0209 0.201015 0.926443 0
M  V30 335 H 29.7269 0.157027 3.51349 0
M  V30 336 H 29.6009 -1.59071 3.42018 0
M  V30 337 H 31.9879 -1.67195 2.43166 0
M  V30 338 H 32.0689 0.0912063 2.55637 0
M  V30 339 H 31.7129 -0.0931291 5.07815 0
M  V30 340 H 31.6429 -1.86659 4.92408 0
M  V30 341 H 34.1339 -0.954468 3.65648 0
M  V30 342 H 34.4469 -1.34046 7.61086 0
M  V30 343 H 32.7919 -1.21236 6.84344 0
M  V30 344 H 35.9829 -1.10057 4.54978 0
M  V30 345 H 36.1559 -1.27681 6.35296 0
M  V30 346 N 29.562 -1.4872 -0.521534 0
M  V30 347 C 30.809 -1.57168 -1.27689 0
M  V30 348 C 31.137 -0.249275 -1.92896 0
M  V30 349 O 30.392 0.761162 -1.80291 0
M  V30 350 C 30.691 -2.66497 -2.38148 0
M  V30 351 C 30.357 -4.08664 -1.90538 0
M  V30 352 C 29.019 -4.47357 -1.77271 0
M  V30 353 C 31.371 -4.97724 -1.54663 0
M  V30 354 C 28.699 -5.72905 -1.26478 0
M  V30 355 C 31.051 -6.2377 -1.05329 0
M  V30 356 C 29.715 -6.61311 -0.906861 0
M  V30 357 H 28.985 -0.575117 -0.467249 0
M  V30 358 H 31.632 -1.82472 -0.581051 0
M  V30 359 H 29.937 -2.35085 -3.13437 0
M  V30 360 H 31.634 -2.70246 -2.96257 0
M  V30 361 H 28.224 -3.78111 -2.01816 0
M  V30 362 H 32.408 -4.68501 -1.63768 0
M  V30 363 H 27.664 -6.00709 -1.13835 0
M  V30 364 H 31.838 -6.9217 -0.76644 0
M  V30 365 H 29.465 -7.5848 -0.511083 0
M  V30 366 N 31.0401 0.771051 -1.3745 0
M  V30 367 C 32.2861 1.5319 -1.32894 0
M  V30 368 C 32.6191 1.94008 0.0862511 0
M  V30 369 O 31.8941 1.64124 1.04373 0
M  V30 370 C 32.1771 2.79648 -2.26868 0
M  V30 371 C 32.0301 2.45079 -3.77169 0
M  V30 372 C 33.3491 3.81583 -2.19277 0
M  V30 373 H 30.4681 0.555744 -0.484064 0
M  V30 374 H 33.1101 0.884492 -1.68157 0
M  V30 375 H 31.2601 3.34891 -1.96926 0
M  V30 376 H 32.9321 1.95745 -4.1771 0
M  V30 377 H 31.1751 1.77767 -3.95704 0
M  V30 378 H 31.8461 3.35478 -4.38359 0
M  V30 379 H 34.3221 3.35835 -2.45671 0
M  V30 380 H 33.1981 4.67787 -2.87171 0
M  V30 381 H 33.4591 4.25897 -1.18592 0
M  V30 382 N 32.5182 1.22032 0.997298 0
M  V30 383 C 33.4652 0.986467 2.08656 0
M  V30 384 C 34.4352 -0.0902671 1.65855 0
M  V30 385 O 35.6202 0.0584294 1.90711 0
M  V30 386 C 32.7602 0.565569 3.40434 0
M  V30 387 C 31.8732 1.71259 3.96604 0
M  V30 388 C 31.0082 1.24011 5.16522 0
M  V30 389 C 30.0472 2.35896 5.64818 0
M  V30 390 N 29.1842 1.89726 6.7598 0
M  V30 391 H 34.0242 1.91892 2.27994 0
M  V30 392 H 31.5612 0.956199 1.11782 0
M  V30 393 H 33.5192 0.302738 4.161 0
M  V30 394 H 32.1492 -0.329879 3.2111 0
M  V30 395 H 31.2012 2.08986 3.17851 0
M  V30 396 H 32.5132 2.55436 4.28432 0
M  V30 397 H 31.6672 0.934395 5.99461 0
M  V30 398 H 30.4062 0.368487 4.86306 0
M  V30 399 H 29.4112 2.67261 4.8047 0
M  V30 400 H 30.6362 3.23567 5.97061 0
M  V30 401 H 28.5822 1.0492 6.47555 0
M  V30 402 H 28.4992 2.67471 7.07103 0
M  V30 403 H 29.7672 1.62211 7.62435 0
M  V30 404 N 33.9963 -1.19345 1.0293 0
M  V30 405 C 34.9433 -2.2258 0.610464 0
M  V30 406 C 35.9133 -1.6179 -0.375946 0
M  V30 407 O 37.0983 -1.88844 -0.272511 0
M  V30 408 C 34.2383 -3.45085 -0.0321473 0
M  V30 409 C 33.3513 -4.20258 1.00035 0
M  V30 410 C 32.4863 -5.3019 0.32746 0
M  V30 411 C 31.5253 -5.97121 1.34584 0
M  V30 412 N 30.6623 -6.98615 0.698726 0
M  V30 413 H 35.5023 -2.57764 1.49538 0
M  V30 414 H 33.0393 -1.26644 0.748311 0
M  V30 415 H 34.9973 -4.15061 -0.421966 0
M  V30 416 H 33.6273 -3.10555 -0.88064 0
M  V30 417 H 32.6793 -3.49223 1.50823 0
M  V30 418 H 33.9913 -4.66175 1.77433 0
M  V30 419 H 33.1453 -6.06587 -0.11718 0
M  V30 420 H 31.8843 -4.85345 -0.478713 0
M  V30 421 H 30.8893 -5.19474 1.80074 0
M  V30 422 H 32.1143 -6.4405 2.15352 0
M  V30 423 H 30.0603 -6.55942 -0.0873471 0
M  V30 424 H 29.9773 -7.42724 1.41058 0
M  V30 425 H 31.2453 -7.79004 0.278102 0
M  V30 426 N 35.4744 -0.807222 -1.35358 0
M  V30 427 C 36.4224 -0.20614 -2.31685 0
M  V30 428 C 37.4164 0.644445 -1.56663 0
M  V30 429 O 38.6224 0.537538 -1.71786 0
M  V30 430 H 34.9974 -0.0479006 -0.750473 0
M  V30 431 H 36.9684 -1.03369 -2.79924 0
M  V30 432 C 35.7174 0.630212 -3.41941 0
M  V30 433 H 35.0404 -0.0149558 -3.99797 0
M  V30 434 H 36.4804 1.01716 -4.11619 0
M  V30 435 C 34.9394 1.79601 -2.85035 0
M  V30 436 O 35.4694 2.89351 -2.78637 0
M  V30 437 N 33.6754 1.60774 -2.42074 0
M  V30 438 H 33.2224 0.715009 -2.47478 0
M  V30 439 H 33.1804 2.38933 -2.04349 0
M  V30 440 N 36.9525 1.47285 -0.560781 0
M  V30 441 C 38.2005 2.02064 -0.0379868 0
M  V30 442 C 38.5215 1.43711 1.31803 0
M  V30 443 O 37.7915 0.61362 1.86042 0
M  V30 444 H 36.3715 0.746918 -0.0110531 0
M  V30 445 H 39.0335 1.80648 -0.731598 0
M  V30 446 H 38.1295 3.12064 0.0474463 0
M  V30 447 N 38.4306 0.297415 1.54768 0
M  V30 448 C 39.3626 -0.613881 2.20826 0
M  V30 449 C 40.3756 -1.10032 1.19987 0
M  V30 450 O 41.5646 -1.01839 1.46598 0
M  V30 451 C 38.6646 -1.852 2.83821 0
M  V30 452 C 37.8376 -1.50865 4.10559 0
M  V30 453 C 36.8966 -2.60154 4.57391 0
M  V30 454 O 35.9226 -2.25398 5.2267 0
M  V30 455 N 37.1246 -3.90629 4.29406 0
M  V30 456 H 39.8896 -0.048389 2.99661 0
M  V30 457 H 37.4506 0.11946 1.61459 0
M  V30 458 H 39.4426 -2.57652 3.12086 0
M  V30 459 H 38.0126 -2.32597 2.08847 0
M  V30 460 H 37.2326 -0.616925 3.89343 0
M  V30 461 H 38.5206 -1.25458 4.9309 0
M  V30 462 H 37.9186 -4.21677 3.77101 0
M  V30 463 H 36.4756 -4.59391 4.62388 0
M  V30 464 N 39.9087 -1.5758 0.0250728 0
M  V30 465 C 41.1487 -1.93497 -0.65865 0
M  V30 466 C 41.5127 -0.901409 -1.69525 0
M  V30 467 O 42.7137 -1.14664 -2.43116 0
M  V30 468 C 40.9847 -3.34352 -1.26267 0
M  V30 469 S 42.5437 -3.92191 -1.96803 0
M  V30 470 H 39.3617 -0.67709 -0.216958 0
M  V30 471 H 41.9637 -1.95303 0.0877692 0
M  V30 472 H 40.6677 -4.07395 -0.495741 0
M  V30 473 H 40.1987 -3.3598 -2.04648 0
M  V30 474 H 42.2137 -3.75298 -3.24601 0
M  V30 475 N 41.3868 0.248026 -1.55636 0
M  V30 476 C 42.3348 1.32683 -1.91045 0
M  V30 477 C 43.3288 1.49883 -0.789401 0
M  V30 478 O 44.5348 1.51371 -0.974007 0
M  V30 479 H 40.9098 0.444272 -0.606734 0
M  V30 480 H 42.8808 1.00085 -2.81115 0
M  V30 481 C 41.6298 2.6755 -2.22064 0
M  V30 482 H 40.9528 2.55114 -3.07826 0
M  V30 483 H 42.3928 3.41912 -2.50743 0
M  V30 484 C 40.8518 3.20556 -1.0366 0
M  V30 485 O 41.3818 4.00695 -0.284016 0
M  V30 486 N 39.5878 2.78568 -0.82753 0
M  V30 487 H 39.1348 2.1351 -1.44123 0
M  V30 488 H 39.0928 3.14378 -0.0369803 0
M  V30 489 N 42.8649 1.48995 0.513639 0
M  V30 490 C 44.1109 1.58076 1.27042 0
M  V30 491 C 44.4439 0.261026 1.92438 0
M  V30 492 O 43.7189 -0.734393 1.80103 0
M  V30 493 C 44.0019 2.73091 2.34719 0
M  V30 494 C 43.8549 4.14821 1.73907 0
M  V30 495 C 45.1739 2.83796 3.36375 0
M  V30 496 H 42.2929 0.575391 0.460536 0
M  V30 497 H 44.9349 1.81232 0.570516 0
M  V30 498 H 43.0849 2.53479 2.94416 0
M  V30 499 H 44.7569 4.45917 1.18135 0
M  V30 500 H 42.9999 4.21058 1.0437 0
M  V30 501 H 43.6709 4.91147 2.51949 0
M  V30 502 H 46.1469 3.01611 2.86653 0
M  V30 503 H 45.0229 3.65971 4.09093 0
M  V30 504 H 45.2839 1.92624 3.9793 0
M  V30 505 N 44.343 -0.763751 1.37857 0
M  V30 506 C 45.573 -1.55067 1.3652 0
M  V30 507 C 45.981 -1.89135 -0.0494227 0
M  V30 508 O 45.324 -1.52529 -1.02375 0
M  V30 509 C 45.386 -2.8838 2.14656 0
M  V30 510 C 45.05 -2.76905 3.63555 0
M  V30 511 C 46.047 -2.4739 4.57268 0
M  V30 512 C 43.732 -2.94676 4.06781 0
M  V30 513 C 45.726 -2.35786 5.92186 0
M  V30 514 C 43.413 -2.82692 5.41782 0
M  V30 515 C 44.411 -2.53289 6.34298 0
M  V30 516 O 44.099 -2.41345 7.66817 0
M  V30 517 H 43.831 -0.486776 0.469069 0
M  V30 518 H 46.385 -0.953812 1.81911 0
M  V30 519 H 44.615 -3.50217 1.63967 0
M  V30 520 H 46.304 -3.49828 2.05852 0
M  V30 521 H 47.07 -2.33339 4.2518 0
M  V30 522 H 42.949 -3.16563 3.35126 0
M  V30 523 H 46.493 -2.12757 6.64365 0
M  V30 524 H 42.39 -2.96314 5.7347 0
M  V30 525 H 43.158 -2.56634 7.77226 0
M  V30 526 N 45.8211 -1.22559 -0.990812 0
M  V30 527 C 47.0681 -1.05141 -1.73065 0
M  V30 528 C 47.3961 0.413191 -1.9006 0
M  V30 529 O 46.6511 1.32257 -1.44245 0
M  V30 530 C 46.9501 -1.71011 -3.13831 0
M  V30 531 C 46.6161 -3.20911 -3.16745 0
M  V30 532 C 45.2781 -3.61812 -3.17247 0
M  V30 533 C 47.6301 -4.16846 -3.12872 0
M  V30 534 C 44.9581 -4.97127 -3.1158 0
M  V30 535 C 47.3101 -5.5214 -3.08746 0
M  V30 536 C 45.9741 -5.92419 -3.07565 0
M  V30 537 H 45.2441 -0.384738 -0.633291 0
M  V30 538 H 47.8911 -1.5235 -1.16025 0
M  V30 539 H 46.1961 -1.16133 -3.74193 0
M  V30 540 H 47.8931 -1.55023 -3.69823 0
M  V30 541 H 44.4831 -2.88344 -3.17105 0
M  V30 542 H 48.6671 -3.86263 -3.11632 0
M  V30 543 H 43.9231 -5.27562 -3.09012 0
M  V30 544 H 48.0971 -6.26201 -3.04705 0
M  V30 545 H 45.7241 -6.97236 -3.02929 0
M  V30 546 N 47.2992 1.18797 -1.03562 0
M  V30 547 C 48.2622 2.20464 -0.626769 0
M  V30 548 C 49.2622 1.57721 0.313173 0
M  V30 549 O 50.4522 1.73917 0.0992615 0
M  V30 550 C 47.5842 3.40802 0.0818498 0
M  V30 551 H 48.7772 2.58149 -1.5264 0
M  V30 552 H 46.3302 1.32593 -0.827578 0
M  V30 553 H 47.0652 3.08642 0.995518 0
M  V30 554 H 46.8502 3.8758 -0.593652 0
M  V30 555 H 48.3402 4.16092 0.354584 0
M  V30 556 N 48.7773 0.814389 1.34928 0
M  V30 557 C 49.7253 0.218424 2.31572 0
M  V30 558 C 50.7193 -0.636128 1.57002 0
M  V30 559 O 51.9253 -0.52842 1.72069 0
M  V30 560 H 48.3003 0.0518799 0.750208 0
M  V30 561 H 50.2713 1.04852 2.79372 0
M  V30 562 C 49.0203 -0.61207 3.4227 0
M  V30 563 H 48.3433 0.0361578 3.99784 0
M  V30 564 H 49.7833 -0.995317 4.12152 0
M  V30 565 C 48.2423 -1.78087 2.85984 0
M  V30 566 O 48.7723 -2.8787 2.80168 0
M  V30 567 N 46.9783 -1.59488 2.42924 0
M  V30 568 H 46.5253 -0.701874 2.47854 0
M  V30 569 H 46.4833 -2.37846 2.05613 0
M  V30 570 N 50.2554 -1.46986 0.568584 0
M  V30 571 C 51.1854 -2.32946 -0.160753 0
M  V30 572 C 52.1664 -1.44487 -0.897631 0
M  V30 573 O 53.3514 -1.73327 -0.875867 0
M  V30 574 C 50.4814 -3.26494 -1.18403 0
M  V30 575 C 49.4354 -4.24282 -0.562895 0
M  V30 576 C 48.7614 -5.07236 -1.69163 0
M  V30 577 C 50.0614 -5.19989 0.490761 0
M  V30 578 H 51.7554 -2.94175 0.556916 0
M  V30 579 H 49.3014 -1.4146 0.26927 0
M  V30 580 H 51.2544 -3.85477 -1.70251 0
M  V30 581 H 49.9784 -2.63343 -1.93179 0
M  V30 582 H 48.6374 -3.66541 -0.0656164 0
M  V30 583 H 48.2854 -4.4048 -2.42871 0
M  V30 584 H 47.9854 -5.7345 -1.28174 0
M  V30 585 H 49.5094 -5.6908 -2.21314 0
M  V30 586 H 50.9234 -5.73271 0.0579047 0
M  V30 587 H 49.3204 -5.94469 0.820165 0
M  V30 588 H 50.3904 -4.64777 1.3824 0
M  V30 589 N 51.7335 -0.305618 -1.54608 0
M  V30 590 C 52.9585 0.307562 -2.05107 0
M  V30 591 C 53.3835 1.46385 -1.18123 0
M  V30 592 O 52.7415 1.8034 -0.186324 0
M  V30 593 C 52.7895 0.73704 -3.52987 0
M  V30 594 O 51.8935 1.84134 -3.6901 0
M  V30 595 H 51.2345 0.0589143 -0.661381 0
M  V30 596 H 53.7645 -0.448807 -1.99617 0
M  V30 597 H 53.7745 1.02459 -3.94925 0
M  V30 598 H 52.4495 -0.108773 -4.15758 0
M  V30 599 H 51.0265 1.55398 -3.38978 0
M  V30 600 N 53.2116 1.57565 -0.0334293 0
M  V30 601 C 54.1596 2.1164 0.96496 0
M  V30 602 C 55.1536 1.04398 1.33407 0
M  V30 603 O 56.3596 1.22828 1.3158 0
M  V30 604 H 52.7346 0.676222 0.32898 0
M  V30 605 H 54.7056 2.94455 0.483614 0
M  V30 606 C 53.4546 2.66207 2.23672 0
M  V30 607 H 52.7776 3.48378 1.96145 0
M  V30 608 H 54.2176 3.07685 2.9173 0
M  V30 609 C 52.6766 1.59151 2.96939 0
M  V30 610 O 53.2066 0.993858 3.89211 0
M  V30 611 N 51.4126 1.31093 2.59351 0
M  V30 612 H 50.9596 1.7988 1.84393 0
M  V30 613 H 50.9176 0.596889 3.08682 0
M  V30 614 N 54.6897 -0.239769 1.55765 0
M  V30 615 C 55.6367 -1.29696 1.90913 0
M  V30 616 C 56.6067 -1.47478 0.764164 0
M  V30 617 O 57.7917 -1.61345 1.01845 0
M  V30 618 C 54.9317 -2.64598 2.21544 0
M  V30 619 C 54.0447 -2.54765 3.48882 0
M  V30 620 C 53.1797 -3.82069 3.69049 0
M  V30 621 C 52.2187 -3.66883 4.89963 0
M  V30 622 N 51.3557 -4.86094 5.06614 0
M  V30 623 H 56.1957 -0.990224 2.81067 0
M  V30 624 H 53.7327 -0.477684 1.39128 0
M  V30 625 H 55.6907 -3.43132 2.3731 0
M  V30 626 H 54.3207 -2.93405 1.34585 0
M  V30 627 H 53.3727 -1.67763 3.41409 0
M  V30 628 H 54.6847 -2.39457 4.37563 0
M  V30 629 H 53.8387 -4.69046 3.84812 0
M  V30 630 H 52.5777 -4.00282 2.78614 0
M  V30 631 H 51.5827 -2.78289 4.74168 0
M  V30 632 H 52.8077 -3.50157 5.81865 0
M  V30 633 H 50.7537 -5.04655 4.19117 0
M  V30 634 H 50.6707 -4.73443 5.89396 0
M  V30 635 H 51.9387 -5.74549 5.26795 0
M  V30 636 N 56.1678 -1.49265 -0.50573 0
M  V30 637 C 57.3928 -1.62478 -1.28902 0
M  V30 638 C 57.8178 -0.294332 -1.85783 0
M  V30 639 O 57.1758 0.737412 -1.65626 0
M  V30 640 C 57.2238 -2.69268 -2.39848 0
M  V30 641 O 56.3278 -2.28113 -3.43567 0
M  V30 642 H 55.6688 -0.54399 -0.380751 0
M  V30 643 H 58.1988 -1.95421 -0.605952 0
M  V30 644 H 58.2088 -2.91291 -2.85681 0
M  V30 645 H 56.8838 -3.65846 -1.97812 0
M  V30 646 H 55.4608 -2.16401 -3.03685 0
M  V30 647 N 57.6459 0.756429 -1.3826 0
M  V30 648 C 58.5779 1.87971 -1.31147 0
M  V30 649 C 59.5909 1.61248 -0.224239 0
M  V30 650 O 60.7799 1.71881 -0.481581 0
M  V30 651 C 57.8799 3.23545 -1.00857 0
M  V30 652 C 57.0529 3.77794 -2.20432 0
M  V30 653 C 56.1119 4.91877 -1.86931 0
M  V30 654 O 55.1379 5.06659 -2.59395 0
M  V30 655 N 56.3399 5.74643 -0.822568 0
M  V30 656 H 59.1049 1.94585 -2.2794 0
M  V30 657 H 56.6659 0.936234 -1.32084 0
M  V30 658 H 58.6579 3.97403 -0.765021 0
M  V30 659 H 57.2279 3.12335 -0.128687 0
M  V30 660 H 56.4479 2.95534 -2.6087 0
M  V30 661 H 57.7359 4.10771 -3.00241 0
M  V30 662 H 57.1339 5.65266 -0.221575 0
M  V30 663 H 55.6909 6.48661 -0.638899 0
M  V30 664 N 59.124 1.23083 0.984299 0
M  V30 665 C 60.54 0.992637 1.24975 0
M  V30 666 C 60.74 -0.308618 1.99123 0
M  V30 667 O 59.796 -1.02905 2.30579 0
M  V30 668 C 61.109 2.19698 2.05312 0
M  V30 669 C 62.657 2.24147 2.18465 0
M  V30 670 C 63.132 3.44157 3.02192 0
M  V30 671 N 64.623 3.44372 3.09777 0
M  V30 672 C 65.358 4.33886 3.74874 0
M  V30 673 N 64.854 5.3363 4.41827 0
M  V30 674 N 66.647 4.21639 3.71721 0
M  V30 675 H 58.798 2.06731 0.487453 0
M  V30 676 H 61.061 0.906339 0.277944 0
M  V30 677 H 60.767 3.1411 1.58201 0
M  V30 678 H 60.641 2.20465 3.06064 0
M  V30 679 H 63.028 1.30277 2.64786 0
M  V30 680 H 63.109 2.27415 1.17115 0
M  V30 681 H 62.753 4.38332 2.56568 0
M  V30 682 H 62.683 3.3813 4.03702 0
M  V30 683 H 65.174 2.72201 2.62135 0
M  V30 684 H 65.487 5.98196 4.89266 0
M  V30 685 H 63.832 5.37534 4.40548 0
M  V30 686 H 67.023 3.42962 3.18582 0
M  V30 687 H 67.196 4.91604 4.22173 0
M  V30 688 N 60.6021 -1.18246 1.0419 0
M  V30 689 C 61.8321 -1.91916 0.764961 0
M  V30 690 C 62.2401 -1.76485 -0.681898 0
M  V30 691 O 61.5831 -1.09275 -1.47664 0
M  V30 692 C 61.6451 -3.4373 1.05309 0
M  V30 693 C 61.3091 -3.8294 2.4941 0
M  V30 694 C 62.3061 -3.86621 3.47592 0
M  V30 695 C 59.9911 -4.142 2.84155 0
M  V30 696 C 61.9851 -4.21013 4.78568 0
M  V30 697 C 59.6721 -4.48262 4.15337 0
M  V30 698 C 60.6701 -4.51645 5.12353 0
M  V30 699 O 60.3581 -4.84911 6.41183 0
M  V30 700 H 60.0901 -0.61606 0.278292 0
M  V30 701 H 62.6441 -1.50947 1.39299 0
M  V30 702 H 60.8741 -3.84946 0.367933 0
M  V30 703 H 62.5631 -3.9865 0.763752 0
M  V30 704 H 63.3291 -3.62607 3.22089 0
M  V30 705 H 59.2081 -4.10743 2.09311 0
M  V30 706 H 62.7521 -4.23568 5.54289 0
M  V30 707 H 58.6491 -4.71737 4.40607 0
M  V30 708 H 59.4171 -5.02809 6.45852 0
M  V30 709 N 62.0802 -0.821533 -1.34494 0
M  V30 710 C 63.0132 -0.187704 -2.27427 0
M  V30 711 C 63.9912 0.65507 -1.48821 0
M  V30 712 O 65.1752 0.619111 -1.78043 0
M  V30 713 C 62.3022 0.737996 -3.30562 0
M  V30 714 C 61.3482 -0.0270713 -4.26491 0
M  V30 715 S 62.1812 -1.37329 -5.17592 0
M  V30 716 C 63.3372 -0.452427 -6.24263 0
M  V30 717 H 63.5702 -0.975598 -2.80837 0
M  V30 718 H 61.1032 -0.61736 -1.4152 0
M  V30 719 H 63.0612 1.26654 -3.90473 0
M  V30 720 H 61.7222 1.4994 -2.76001 0
M  V30 721 H 60.9152 0.6766 -4.99438 0
M  V30 722 H 60.5172 -0.48612 -3.70827 0
M  V30 723 H 62.8092 0.356557 -6.76561 0
M  V30 724 H 63.7522 -1.15153 -6.98674 0
M  V30 725 H 64.1602 -0.0414755 -5.64485 0
M  V30 726 N 63.5583 1.46682 -0.576371 0
M  V30 727 C 64.5213 2.28707 0.150239 0
M  V30 728 C 65.5213 1.38035 0.824794 0
M  V30 729 O 66.7113 1.60476 0.677719 0
M  V30 730 C 63.8433 3.18248 1.22192 0
M  V30 731 H 65.0363 2.94423 -0.570521 0
M  V30 732 H 62.5893 1.52688 -0.334078 0
M  V30 733 H 63.3243 2.57265 1.97447 0
M  V30 734 H 63.1093 3.85 0.742812 0
M  V30 735 H 64.5993 3.80001 1.73172 0
M  V30 736 N 65.0364 0.313813 1.54444 0
M  V30 737 C 66.3134 -0.345447 1.92525 0
M  V30 738 C 66.6934 -1.70667 1.24242 0
M  V30 739 O 66.0414 -2.25273 0.382654 0
M  V30 740 C 66.2514 -0.44737 3.46121 0
M  V30 741 C 67.5994 -0.712238 4.18584 0
M  V30 742 O 68.6234 -0.530678 3.52225 0
M  V30 743 O 67.4824 -1.06183 5.36085 0
M  V30 744 H 64.5764 -0.195407 0.803583 0
M  V30 745 H 67.1224 0.362813 1.65776 0
M  V30 746 H 65.8944 0.509043 3.87975 0
M  V30 747 H 65.5174 -1.20359 3.78945 0
M  V30 748 N 66.5145 -1.57545 0.0417849 0
M  V30 749 C 67.7635 -1.91494 -0.633492 0
M  V30 750 C 68.0765 -0.921084 -1.72556 0
M  V30 751 O 69.2825 -1.15228 -2.45835 0
M  V30 752 C 67.7385 -3.40072 -1.17808 0
M  V30 753 C 67.3465 -4.47843 -0.118633 0
M  V30 754 C 69.0905 -3.8307 -1.82915 0
M  V30 755 C 66.9975 -5.87529 -0.675578 0
M  V30 756 H 65.9275 -0.714653 -0.24039 0
M  V30 757 H 68.5785 -1.83175 0.109148 0
M  V30 758 H 66.9605 -3.43364 -1.97274 0
M  V30 759 H 68.1345 -4.56128 0.654494 0
M  V30 760 H 66.4495 -4.14128 0.434414 0
M  V30 761 H 69.0465 -4.84794 -2.25563 0
M  V30 762 H 69.3895 -3.1881 -2.67705 0
M  V30 763 H 69.9225 -3.82255 -1.10119 0
M  V30 764 H 66.6615 -6.55362 0.134475 0
M  V30 765 H 66.1815 -5.82824 -1.4169 0
M  V30 766 H 67.8605 -6.36491 -1.1614 0
M  V30 767 N 67.9926 0.231505 -1.5589 0
M  V30 768 C 69.2396 0.957352 -1.78441 0
M  V30 769 C 69.5676 1.84726 -0.60882 0
M  V30 770 O 68.8226 1.91416 0.40725 0
M  V30 771 C 69.1216 1.83577 -3.0665 0
M  V30 772 C 68.7876 1.09993 -4.37278 0
M  V30 773 C 67.4496 0.896629 -4.72773 0
M  V30 774 C 69.8016 0.579558 -5.17968 0
M  V30 775 C 67.1296 0.160896 -5.86479 0
M  V30 776 C 69.4816 -0.142783 -6.32439 0
M  V30 777 C 68.1456 -0.357427 -6.66542 0
M  V30 778 H 67.4156 0.35032 -0.65296 0
M  V30 779 H 70.0626 0.226259 -1.90159 0
M  V30 780 H 68.3676 2.63441 -2.90011 0
M  V30 781 H 70.0646 2.39934 -3.21298 0
M  V30 782 H 66.6546 1.26835 -4.09403 0
M  V30 783 H 70.8386 0.724125 -4.90989 0
M  V30 784 H 66.0946 -0.0157293 -6.11398 0
M  V30 785 H 70.2686 -0.553559 -6.94196 0
M  V30 786 H 67.8956 -0.929466 -7.54497 0
M  V30 787 N 69.4707 1.49531 0.497807 0
M  V30 788 C 70.6987 1.62893 1.27567 0
M  V30 789 C 71.1137 0.301585 1.86376 0
M  V30 790 O 70.4707 -0.713335 1.67982 0
M  V30 791 C 70.5217 2.70013 2.40364 0
M  V30 792 O 70.2427 3.976 1.83972 0
M  V30 793 C 71.7437 2.94109 3.31685 0
M  V30 794 H 68.9637 0.548298 0.386794 0
M  V30 795 H 71.5077 1.95584 0.597245 0
M  V30 796 H 69.6627 2.40092 3.04031 0
M  V30 797 H 70.0767 4.56631 2.58047 0
M  V30 798 H 71.5507 3.72788 4.07104 0
M  V30 799 H 72.0277 2.04147 3.88871 0
M  V30 800 H 72.6337 3.2546 2.73781 0
M  V30 801 N 70.9488 -0.749086 1.3866 0
M  V30 802 C 72.1768 -1.53834 1.38358 0
M  V30 803 C 72.5918 -1.88783 -0.0255219 0
M  V30 804 O 71.9488 -1.53101 -0.993292 0
M  V30 805 C 71.9998 -2.83468 2.2434 0
M  V30 806 O 71.7208 -2.50008 3.5976 0
M  V30 807 C 73.2218 -3.7758 2.32267 0
M  V30 808 H 70.4418 -0.47585 0.473083 0
M  V30 809 H 72.9858 -0.926726 1.82297 0
M  V30 810 H 71.1408 -3.40995 1.83851 0
M  V30 811 H 71.5548 -3.33182 4.05081 0
M  V30 812 H 73.0288 -4.65478 2.96706 0
M  V30 813 H 73.5058 -4.18334 1.33765 0
M  V30 814 H 74.1118 -3.25976 2.73166 0
M  V30 815 N 72.4269 -1.23603 -0.977757 0
M  V30 816 C 73.6669 -1.08148 -1.73446 0
M  V30 817 C 74.0309 0.374785 -1.88307 0
M  V30 818 O 75.2319 0.650588 -2.60808 0
M  V30 819 C 73.5029 -1.78991 -3.0935 0
M  V30 820 S 75.0619 -1.79141 -4.00567 0
M  V30 821 H 71.8799 -0.386987 -0.596458 0
M  V30 822 H 74.4819 -1.5678 -1.16792 0
M  V30 823 H 73.1859 -2.8408 -2.96187 0
M  V30 824 H 72.7169 -1.30651 -3.71071 0
M  V30 825 H 74.7319 -0.851892 -4.88833 0
M  V30 826 N 73.905 1.17692 -1.04816 0
M  V30 827 C 75.151 1.88137 -0.75711 0
M  V30 828 C 75.484 1.80604 0.713841 0
M  V30 829 O 74.759 1.21146 1.52164 0
M  V30 830 C 75.042 3.38318 -1.2334 0
M  V30 831 C 74.895 3.54622 -2.76701 0
M  V30 832 C 76.214 4.32214 -0.829415 0
M  V30 833 H 73.333 0.683163 -0.27651 0
M  V30 834 H 75.975 1.38424 -1.30149 0
M  V30 835 H 74.125 3.80787 -0.770286 0
M  V30 836 H 75.797 3.21194 -3.31107 0
M  V30 837 H 74.04 2.97026 -3.16161 0
M  V30 838 H 74.711 4.60028 -3.05088 0
M  V30 839 H 77.187 3.97565 -1.22805 0
M  V30 840 H 76.063 5.35838 -1.19033 0
M  V30 841 H 76.324 4.41294 0.266891 0
M  V30 842 N 75.3831 0.828654 1.34056 0
M  V30 843 C 76.6601 0.341809 1.9259 0
M  V30 844 C 77.0401 -1.17158 1.75605 0
M  V30 845 O 76.3881 -1.98132 1.13824 0
M  V30 846 C 76.5981 0.777453 3.4023 0
M  V30 847 C 77.9461 0.779579 4.17382 0
M  V30 848 O 78.9701 0.7204 3.48839 0
M  V30 849 O 77.8291 0.857996 5.39723 0
M  V30 850 H 74.9231 0.0946085 0.821571 0
M  V30 851 H 77.4691 0.913827 1.42994 0
M  V30 852 H 76.2411 1.8196 3.46419 0
M  V30 853 H 75.8641 0.181444 3.97186 0
M  V30 854 N 76.8612 -1.46375 0.584142 0
M  V30 855 C 78.0892 -2.06761 0.0759296 0
M  V30 856 C 78.5042 -1.43266 -1.22965 0
M  V30 857 O 77.8612 -0.538458 -1.74376 0
M  V30 858 C 77.9122 -3.61375 -0.0950384 0
M  V30 859 O 77.6332 -4.22495 1.15887 0
M  V30 860 C 79.1342 -4.38693 -0.637434 0
M  V30 861 H 76.3542 -0.668479 0.0581075 0
M  V30 862 H 78.8982 -1.8798 0.805218 0
M  V30 863 H 77.0532 -3.79578 -0.774554 0
M  V30 864 H 77.4672 -5.15385 0.973598 0
M  V30 865 H 78.9412 -5.47464 -0.706237 0
M  V30 866 H 79.4182 -4.06836 -1.65472 0
M  V30 867 H 80.0242 -4.25299 0.00725967 0
M  V30 868 N 78.3393 -0.321999 -1.54275 0
M  V30 869 C 79.7553 0.0306999 -1.5957 0
M  V30 870 C 79.9553 1.50614 -1.33857 0
M  V30 871 O 79.0113 2.2619 -1.12223 0
M  V30 872 C 80.3243 -0.386122 -2.98211 0
M  V30 873 C 81.8723 -0.336647 -3.11184 0
M  V30 874 C 82.3473 -0.728607 -4.52167 0
M  V30 875 N 83.8383 -0.681952 -4.58152 0
M  V30 876 C 84.5733 -0.957449 -5.6535 0
M  V30 877 N 84.0693 -1.3 -6.80494 0
M  V30 878 N 85.8623 -0.883113 -5.55119 0
M  V30 879 H 78.0133 -1.28332 -1.69247 0
M  V30 880 H 80.2763 -0.521716 -0.791528 0
M  V30 881 H 79.9823 -1.41404 -3.22022 0
M  V30 882 H 79.8563 0.249662 -3.76373 0
M  V30 883 H 82.2433 0.682058 -2.8711 0
M  V30 884 H 82.3243 -1.00734 -2.3513 0
M  V30 885 H 81.9683 -1.74522 -4.76974 0
M  V30 886 H 81.8983 -0.0356152 -5.26588 0
M  V30 887 H 84.3893 -0.428985 -3.75457 0
M  V30 888 H 84.7023 -1.49563 -7.58189 0
M  V30 889 H 83.0473 -1.33824 -6.81994 0
M  V30 890 H 86.2383 -0.615001 -4.64042 0
M  V30 891 H 86.4113 -1.10118 -6.38575 0
M  V30 892 N 79.8174 1.5752 -0.0501392 0
M  V30 893 C 81.0634 1.93755 0.618901 0
M  V30 894 C 81.4184 0.928514 1.68512 0
M  V30 895 O 80.7114 -0.0524613 1.91528 0
M  V30 896 C 80.9054 3.34467 1.25963 0
M  V30 897 C 80.7344 4.48965 0.257 0
M  V30 898 C 79.5044 5.05075 -0.150656 0
M  V30 899 C 81.7024 5.11891 -0.497166 0
M  V30 900 N 79.6844 6.03104 -1.14626 0
M  V30 901 C 81.0554 6.05216 -1.34588 0
M  V30 902 C 83.1104 4.9479 -0.55559 0
M  V30 903 C 81.8134 6.83277 -2.24778 0
M  V30 904 C 83.8394 5.73477 -1.44492 0
M  V30 905 C 83.2014 6.66433 -2.28136 0
M  V30 906 H 79.3004 0.756479 0.198149 0
M  V30 907 H 81.8844 1.94316 -0.122229 0
M  V30 908 H 80.0554 3.34685 1.97079 0
M  V30 909 H 81.7874 3.57994 1.88739 0
M  V30 910 H 78.5424 4.7305 0.228094 0
M  V30 911 H 78.9664 6.56813 -1.64092 0
M  V30 912 H 83.6084 4.2273 0.0768625 0
M  V30 913 H 81.3264 7.54629 -2.89069 0
M  V30 914 H 84.9124 5.62273 -1.49468 0
M  V30 915 H 83.7924 7.26258 -2.95835 0
M  V30 916 N 81.2955 -0.223234 1.56011 0
M  V30 917 C 82.7115 -0.572856 1.48965 0
M  V30 918 C 82.9115 -1.87225 0.74492 0
M  V30 919 O 81.9675 -2.50899 0.283896 0
M  V30 920 C 83.2805 -0.653646 2.9351 0
M  V30 921 C 84.8285 -0.744386 3.0402 0
M  V30 922 C 85.3035 -0.856535 4.49919 0
M  V30 923 N 86.7945 -0.9208 4.53955 0
M  V30 924 C 87.5295 -1.02726 5.64123 0
M  V30 925 N 87.0255 -1.09777 6.84047 0
M  V30 926 N 88.8185 -1.06226 5.51971 0
M  V30 927 H 80.9695 0.629462 2.02858 0
M  V30 928 H 83.2325 0.220621 0.921971 0
M  V30 929 H 82.9385 0.231518 3.50937 0
M  V30 930 H 82.8125 -1.51781 3.45315 0
M  V30 931 H 85.1995 -1.61999 2.46658 0
M  V30 932 H 85.2805 0.14541 2.55386 0
M  V30 933 H 84.9245 0.0146069 5.07898 0
M  V30 934 H 84.8545 -1.76172 4.96257 0
M  V30 935 H 87.3455 -0.876694 3.6759 0
M  V30 936 H 87.6585 -1.17872 7.63758 0
M  V30 937 H 86.0035 -1.06693 6.86762 0
M  V30 938 H 89.1945 -1.00382 4.5721 0
M  V30 939 H 89.3675 -1.14177 6.37862 0
M  V30 940 N 82.7736 -1.49793 -0.48987 0
M  V30 941 C 84.0036 -1.6333 -1.26518 0
M  V30 942 C 84.4116 -0.308392 -1.8667 0
M  V30 943 O 83.7546 0.717512 -1.69108 0
M  V30 944 C 83.8166 -2.6522 -2.4269 0
M  V30 945 C 83.4806 -4.09279 -2.03321 0
M  V30 946 C 84.4776 -4.95738 -1.56652 0
M  V30 947 C 82.1626 -4.55082 -2.12616 0
M  V30 948 C 84.1566 -6.26041 -1.19795 0
M  V30 949 C 81.8436 -5.85396 -1.75371 0
M  V30 950 C 82.8416 -6.707 -1.29036 0
M  V30 951 O 82.5296 -7.98584 -0.92299 0
M  V30 952 H 82.2616 -0.552502 -0.389509 0
M  V30 953 H 84.8156 -1.96642 -0.593381 0
M  V30 954 H 83.0456 -2.27112 -3.12981 0
M  V30 955 H 84.7346 -2.68171 -3.04695 0
M  V30 956 H 85.5006 -4.61575 -1.48908 0
M  V30 957 H 81.3796 -3.88844 -2.47631 0
M  V30 958 H 84.9236 -6.92578 -0.835582 0
M  V30 959 H 80.8206 -6.19085 -1.82768 0
M  V30 960 H 81.5886 -8.11692 -1.05349 0
M  V30 961 N 84.2517 0.741722 -1.39055 0
M  V30 962 C 85.1847 1.86416 -1.31622 0
M  V30 963 C 86.1627 1.61473 -0.191076 0
M  V30 964 O 87.3467 1.84825 -0.370399 0
M  V30 965 C 84.4737 3.22266 -1.04221 0
M  V30 966 C 83.5197 3.66079 -2.18834 0
M  V30 967 S 84.3527 3.7623 -3.81066 0
M  V30 968 C 85.5087 5.14881 -3.55877 0
M  V30 969 H 85.7417 1.92437 -2.26617 0
M  V30 970 H 83.2747 0.905907 -1.25031 0
M  V30 971 H 85.2327 4.00714 -0.890964 0
M  V30 972 H 83.8937 3.1391 -0.109237 0
M  V30 973 H 83.0867 4.64648 -1.95238 0
M  V30 974 H 82.6887 2.94817 -2.30128 0
M  V30 975 H 84.9807 6.01006 -3.12726 0
M  V30 976 H 85.9237 5.43503 -4.53884 0
M  V30 977 H 86.3317 4.84239 -2.90126 0
M  V30 978 N 85.7298 1.2412 0.971189 0
M  V30 979 C 86.6598 1.05508 2.08304 0
M  V30 980 C 87.6408 -0.0308864 1.70072 0
M  V30 981 O 88.8258 0.135521 1.93727 0
M  V30 982 C 85.9558 0.655365 3.4106 0
M  V30 983 C 84.9098 1.68971 3.93234 0
M  V30 984 C 84.2358 1.14516 5.22293 0
M  V30 985 C 85.5358 3.08487 4.21465 0
M  V30 986 H 87.2298 1.98507 2.24132 0
M  V30 987 H 84.7758 0.955821 1.07704 0
M  V30 988 H 86.7288 0.51217 4.18276 0
M  V30 989 H 85.4528 -0.31032 3.25122 0
M  V30 990 H 84.1118 1.82106 3.18171 0
M  V30 991 H 83.7598 0.170189 5.02712 0
M  V30 992 H 83.4598 1.83635 5.58168 0
M  V30 993 H 84.9838 1.01401 6.02121 0
M  V30 994 H 86.3978 2.98601 4.89398 0
M  V30 995 H 84.7948 3.74926 4.68562 0
M  V30 996 H 85.8648 3.56787 3.28376 0
M  V30 997 N 87.2079 -1.17134 1.05439 0
M  V30 998 C 88.1409 -2.2012 0.601855 0
M  V30 999 C 89.1189 -1.58314 -0.370854 0
M  V30 1000 O 90.3029 -1.8638 -0.281882 0
M  V30 1001 C 87.4299 -3.38491 -0.118868 0
M  V30 1002 C 86.4759 -4.18752 0.809242 0
M  V30 1003 S 87.3089 -4.83602 2.29977 0
M  V30 1004 C 88.4649 -6.0536 1.59029 0
M  V30 1005 H 88.6979 -2.58165 1.47438 0
M  V30 1006 H 86.2309 -1.27788 0.866573 0
M  V30 1007 H 88.1889 -4.07084 -0.528495 0
M  V30 1008 H 86.8499 -2.98829 -0.967465 0
M  V30 1009 H 86.0429 -5.03373 0.251379 0
M  V30 1010 H 85.6449 -3.5561 1.15835 0
M  V30 1011 H 87.9369 -6.71615 0.891017 0
M  V30 1012 H 88.8799 -6.65679 2.41407 0
M  V30 1013 H 89.2879 -5.54138 1.07663 0
M  V30 1014 N 88.686 -0.835752 -1.33615 0
M  V30 1015 C 89.935 -0.426289 -1.97144 0
M  V30 1016 C 90.248 1.01912 -1.66953 0
M  V30 1017 O 91.454 1.53311 -2.24072 0
M  V30 1018 C 89.91 -0.711321 -3.52801 0
M  V30 1019 C 89.518 -2.1712 -3.91871 0
M  V30 1020 C 91.262 -0.368654 -4.22896 0
M  V30 1021 C 89.169 -2.40044 -5.40493 0
M  V30 1022 H 88.099 -0.15567 -0.737755 0
M  V30 1023 H 90.75 -1.0239 -1.52278 0
M  V30 1024 H 89.132 -0.0433766 -3.95976 0
M  V30 1025 H 90.306 -2.87936 -3.59763 0
M  V30 1026 H 88.621 -2.47654 -3.34749 0
M  V30 1027 H 91.218 -0.517601 -5.32189 0
M  V30 1028 H 91.561 0.688078 -4.10574 0
M  V30 1029 H 92.094 -0.991702 -3.8524 0
M  V30 1030 H 88.833 -3.44271 -5.57815 0
M  V30 1031 H 88.353 -1.73785 -5.74072 0
M  V30 1032 H 90.032 -2.23042 -6.0734 0
M  V30 1033 N 90.1641 1.46063 -0.591896 0
M  V30 1034 C 91.4111 2.02338 -0.0809991 0
M  V30 1035 C 91.7391 1.46228 1.28249 0
M  V30 1036 O 90.9941 0.620818 1.85592 0
M  V30 1037 C 91.2931 3.57391 0.0249813 0
M  V30 1038 C 90.9591 4.32583 -1.27211 0
M  V30 1039 C 89.6211 4.52844 -1.62745 0
M  V30 1040 C 91.9731 4.75687 -2.13005 0
M  V30 1041 C 89.3011 5.13462 -2.83855 0
M  V30 1042 C 91.6531 5.37644 -3.3335 0
M  V30 1043 C 90.3171 5.5613 -3.69155 0
M  V30 1044 H 89.5871 0.740407 -0.0296397 0
M  V30 1045 H 92.2341 1.75321 -0.770374 0
M  V30 1046 H 90.5391 3.83597 0.797537 0
M  V30 1047 H 92.2361 3.98621 0.436184 0
M  V30 1048 H 88.8261 4.17116 -0.985499 0
M  V30 1049 H 93.0101 4.59782 -1.86855 0
M  V30 1050 H 88.2661 5.25965 -3.11722 0
M  V30 1051 H 92.4401 5.7 -4.00092 0
M  V30 1052 H 90.0671 6.0287 -4.63089 0
M  V30 1053 N 91.6422 0.330177 1.54103 0
M  V30 1054 C 92.8672 -0.274893 2.0557 0
M  V30 1055 C 93.2922 -1.44487 1.20437 0
M  V30 1056 O 92.6502 -1.80021 0.214991 0
M  V30 1057 C 92.6982 -0.68079 3.54115 0
M  V30 1058 O 91.8022 -1.7824 3.71893 0
M  V30 1059 H 91.1432 -0.0483849 0.662235 0
M  V30 1060 H 93.6732 0.480508 1.98878 0
M  V30 1061 H 93.6832 -0.961635 3.96505 0
M  V30 1062 H 92.3582 0.174903 4.15532 0
M  V30 1063 H 90.9352 -1.49985 3.41407 0
M  V30 1064 N 93.1203 -1.57491 0.0584922 0
M  V30 1065 C 94.0833 -2.1085 -0.898617 0
M  V30 1066 C 95.0833 -1.02964 -1.23511 0
M  V30 1067 O 96.2733 -1.29007 -1.17059 0
M  V30 1068 C 93.4053 -2.59881 -2.20623 0
M  V30 1069 H 94.5983 -2.96715 -0.435936 0
M  V30 1070 H 92.1513 -1.55141 -0.190023 0
M  V30 1071 H 92.8863 -1.77431 -2.71457 0
M  V30 1072 H 92.6713 -3.38727 -1.97501 0
M  V30 1073 H 94.1613 -3.01285 -2.89166 0
M  V30 1074 N 94.5984 0.214957 -1.56127 0
M  V30 1075 C 95.5614 1.24997 -1.92116 0
M  V30 1076 C 96.5614 1.39467 -0.800344 0
M  V30 1077 O 97.7514 1.37619 -1.06802 0
M  V30 1078 C 94.8834 2.62271 -2.17777 0
M  V30 1079 H 96.0764 0.942875 -2.84693 0
M  V30 1080 H 93.6294 0.455654 -1.49511 0
M  V30 1081 H 94.3644 2.98068 -1.27773 0
M  V30 1082 H 94.1494 2.53143 -2.99434 0
M  V30 1083 H 95.6394 3.36946 -2.46693 0
M  V30 1084 N 96.0765 1.50051 0.48192 0
M  V30 1085 C 97.3235 1.60498 1.23477 0
M  V30 1086 C 97.6515 0.300331 1.92167 0
M  V30 1087 O 96.9065 -0.713094 1.82246 0
M  V30 1088 C 97.2055 2.72717 2.30998 0
M  V30 1089 C 96.8715 4.13572 1.79636 0
M  V30 1090 C 95.5335 4.519 1.65348 0
M  V30 1091 C 97.8855 5.01649 1.41412 0
M  V30 1092 C 95.2135 5.76057 1.11244 0
M  V30 1093 C 97.5655 6.26343 0.887538 0
M  V30 1094 C 96.2295 6.63483 0.731207 0
M  V30 1095 H 95.4995 0.587303 0.451836 0
M  V30 1096 H 98.1465 1.83948 0.532468 0
M  V30 1097 H 96.4515 2.43312 3.07094 0
M  V30 1098 H 98.1485 2.78006 2.88988 0
M  V30 1099 H 94.7385 3.83329 1.91721 0
M  V30 1100 H 98.9225 4.72679 1.51289 0
M  V30 1101 H 94.1785 6.03516 0.978686 0
M  V30 1102 H 98.3525 6.93958 0.582654 0
M  V30 1103 H 95.9795 7.59568 0.309806 0
M  V30 1104 N 97.5546 -0.734337 1.39446 0
M  V30 1105 C 98.4846 -1.86155 1.40955 0
M  V30 1106 C 99.4656 -1.67898 0.272827 0
M  V30 1107 O 100.651 -1.88207 0.478743 0
M  V30 1108 C 97.7806 -3.23912 1.25294 0
M  V30 1109 C 96.7346 -3.56808 2.36373 0
M  V30 1110 C 96.0606 -4.93508 2.058 0
M  V30 1111 C 97.3606 -3.59713 3.78687 0
M  V30 1112 H 99.0546 -1.8515 2.35287 0
M  V30 1113 H 96.6006 -0.889367 1.13253 0
M  V30 1114 H 98.5536 -4.02443 1.2497 0
M  V30 1115 H 97.2776 -3.25446 0.274308 0
M  V30 1116 H 95.9366 -2.80606 2.35914 0
M  V30 1117 H 95.5846 -4.91623 1.06374 0
M  V30 1118 H 95.2846 -5.16486 2.80208 0
M  V30 1119 H 96.8086 -5.74396 2.07128 0
M  V30 1120 H 98.2226 -4.2832 3.81071 0
M  V30 1121 H 96.6196 -3.94209 4.52459 0
M  V30 1122 H 97.6896 -2.59504 4.09617 0
M  V30 1123 N 99.0327 -1.24633 -0.964593 0
M  V30 1124 C 100.279 -1.08949 -1.71049 0
M  V30 1125 C 100.612 0.370302 -1.90637 0
M  V30 1126 O 99.8867 1.27349 -1.47011 0
M  V30 1127 C 100.17 -1.83329 -3.0994 0
M  V30 1128 C 100.023 -3.37077 -2.97824 0
M  V30 1129 C 101.342 -1.60846 -4.09654 0
M  V30 1130 H 98.4607 -0.397178 -0.620821 0
M  V30 1131 H 101.103 -1.5334 -1.12191 0
M  V30 1132 H 99.2527 -1.45597 -3.60186 0
M  V30 1133 H 100.925 -3.84425 -2.5498 0
M  V30 1134 H 99.1677 -3.65298 -2.33965 0
M  V30 1135 H 99.8387 -3.84324 -3.96231 0
M  V30 1136 H 102.315 -1.93674 -3.68279 0
M  V30 1137 H 101.191 -2.1534 -5.04896 0
M  V30 1138 H 101.452 -0.547434 -4.38698 0
M  V30 1139 N 100.511 1.16574 -1.06058 0
M  V30 1140 C 101.736 1.91493 -0.796562 0
M  V30 1141 C 102.161 1.76773 0.642868 0
M  V30 1142 O 101.519 1.09142 1.44768 0
M  V30 1143 C 101.567 3.40293 -1.19303 0
M  V30 1144 O 100.671 4.11074 -0.330394 0
M  V30 1145 H 100.012 0.596678 -0.291326 0
M  V30 1146 H 102.542 1.47708 -1.41575 0
M  V30 1147 H 102.552 3.91057 -1.16356 0
M  V30 1148 H 101.227 3.50326 -2.24153 0
M  V30 1149 H 99.8038 3.70513 -0.421225 0
M  V30 1150 N 101.989 0.842826 1.3317 0
M  V30 1151 C 103.235 0.450342 1.98352 0
M  V30 1152 C 103.59 -0.980508 1.65541 0
M  V30 1153 O 102.883 -1.67678 0.927065 0
M  V30 1154 C 103.077 0.612607 3.52111 0
M  V30 1155 C 102.906 2.05768 3.99862 0
M  V30 1156 C 101.676 2.69374 4.27511 0
M  V30 1157 C 103.874 3.02688 4.15794 0
M  V30 1158 N 101.856 4.04915 4.61429 0
M  V30 1159 C 103.227 4.23186 4.53115 0
M  V30 1160 C 105.282 2.99041 3.98094 0
M  V30 1161 C 103.985 5.40518 4.74587 0
M  V30 1162 C 106.011 4.15607 4.20743 0
M  V30 1163 C 105.373 5.3486 4.58371 0
M  V30 1164 H 101.472 0.213296 0.752349 0
M  V30 1165 H 104.056 1.09173 1.61212 0
M  V30 1166 H 102.227 0.000998822 3.884 0
M  V30 1167 H 103.959 0.191179 4.04248 0
M  V30 1168 H 100.714 2.20485 4.19146 0
M  V30 1169 H 101.138 4.74798 4.82593 0
M  V30 1170 H 105.78 2.0797 3.68114 0
M  V30 1171 H 103.498 6.3213 5.03425 0
M  V30 1172 H 107.084 4.14207 4.08563 0
M  V30 1173 H 105.964 6.23558 4.75547 0
M  V30 1174 N 103.467 -1.45747 0.599634 0
M  V30 1175 C 104.397 -2.33235 -0.111306 0
M  V30 1176 C 105.378 -1.46359 -0.866781 0
M  V30 1177 O 106.563 -1.75146 -0.838904 0
M  V30 1178 C 103.693 -3.28932 -1.11451 0
M  V30 1179 C 102.647 -4.25381 -0.472772 0
M  V30 1180 C 101.973 -5.1071 -1.58365 0
M  V30 1181 C 103.273 -5.18831 0.600948 0
M  V30 1182 H 104.967 -2.92927 0.61919 0
M  V30 1183 H 102.513 -1.40857 0.299215 0
M  V30 1184 H 104.466 -3.89002 -1.62036 0
M  V30 1185 H 103.19 -2.67381 -1.8755 0
M  V30 1186 H 101.849 -3.66598 0.0121472 0
M  V30 1187 H 101.497 -4.45533 -2.33473 0
M  V30 1188 H 101.197 -5.7604 -1.15982 0
M  V30 1189 H 102.721 -5.73647 -2.09194 0
M  V30 1190 H 104.135 -5.73019 0.179491 0
M  V30 1191 H 102.532 -5.92595 0.946076 0
M  V30 1192 H 103.602 -4.6174 1.48068 0
M  V30 1193 N 104.945 -0.338344 -1.53925 0
M  V30 1194 C 106.192 0.259758 -2.00827 0
M  V30 1195 C 106.52 1.50973 -1.22628 0
M  V30 1196 O 105.775 1.93379 -0.300509 0
M  V30 1197 C 106.074 0.62448 -3.51902 0
M  V30 1198 C 105.74 -0.528006 -4.47798 0
M  V30 1199 C 104.402 -0.844298 -4.73735 0
M  V30 1200 C 106.754 -1.30143 -5.0469 0
M  V30 1201 C 104.082 -1.93648 -5.53821 0
M  V30 1202 C 106.434 -2.38382 -5.85967 0
M  V30 1203 C 105.098 -2.70576 -6.10201 0
M  V30 1204 H 104.368 0.0950523 -0.734878 0
M  V30 1205 H 107.015 -0.465182 -1.85764 0
M  V30 1206 H 105.32 1.43006 -3.64769 0
M  V30 1207 H 107.017 1.09905 -3.85645 0
M  V30 1208 H 103.607 -0.271421 -4.2774 0
M  V30 1209 H 107.791 -1.07033 -4.84621 0
M  V30 1210 H 103.047 -2.19021 -5.70824 0
M  V30 1211 H 107.221 -2.98746 -6.29066 0
M  V30 1212 H 104.848 -3.55333 -6.72044 0
M  V30 1213 N 106.423 1.57458 -0.0668435 0
M  V30 1214 C 107.67 1.93301 0.603406 0
M  V30 1215 C 107.998 0.946486 1.69917 0
M  V30 1216 O 107.253 -0.0387021 1.95662 0
M  V30 1217 C 107.552 3.35784 1.22409 0
M  V30 1218 C 107.218 4.50179 0.254955 0
M  V30 1219 C 105.88 4.81199 -0.0116746 0
M  V30 1220 C 108.232 5.19598 -0.408338 0
M  V30 1221 C 105.56 5.78978 -0.94877 0
M  V30 1222 C 107.912 6.18381 -1.33372 0
M  V30 1223 C 106.576 6.47821 -1.60887 0
M  V30 1224 H 105.846 0.707338 0.220802 0
M  V30 1225 H 108.493 1.91012 -0.136665 0
M  V30 1226 H 106.798 3.34515 2.03978 0
M  V30 1227 H 108.495 3.60804 1.74989 0
M  V30 1228 H 105.085 4.25983 0.472954 0
M  V30 1229 H 109.269 4.95832 -0.215456 0
M  V30 1230 H 104.525 6.00115 -1.16925 0
M  V30 1231 H 108.699 6.71277 -1.85367 0
M  V30 1232 H 106.326 7.23399 -2.33661 0
M  V30 1233 N 107.901 -0.206675 1.56239 0
M  V30 1234 C 109.149 -0.927007 1.79586 0
M  V30 1235 C 109.47 -1.8427 0.637929 0
M  V30 1236 O 108.74 -1.92849 -0.344398 0
M  V30 1237 H 107.32 -0.345292 0.662407 0
M  V30 1238 H 109.982 -0.21496 1.93711 0
M  V30 1239 H 109.078 -1.52501 2.72305 0
M  V30 1240 N 109.379 -1.50304 -0.473955 0
M  V30 1241 C 110.309 -1.71886 -1.58042 0
M  V30 1242 C 111.29 -0.567799 -1.60344 0
M  V30 1243 O 112.475 -0.806623 -1.76656 0
M  V30 1244 C 109.605 -1.81036 -2.96384 0
M  V30 1245 C 108.559 -2.962 -3.08949 0
M  V30 1246 C 107.885 -2.9049 -4.48909 0
M  V30 1247 C 109.185 -4.36752 -2.86434 0
M  V30 1248 H 110.879 -2.64527 -1.40234 0
M  V30 1249 H 108.425 -1.27295 -0.673201 0
M  V30 1250 H 110.378 -1.94719 -3.73714 0
M  V30 1251 H 109.102 -0.850147 -3.15341 0
M  V30 1252 H 107.761 -2.82164 -2.3405 0
M  V30 1253 H 107.409 -1.92321 -4.64781 0
M  V30 1254 H 107.109 -3.67802 -4.58253 0
M  V30 1255 H 108.633 -3.06218 -5.28264 0
M  V30 1256 H 110.047 -4.5133 -3.53517 0
M  V30 1257 H 108.444 -5.15493 -3.07225 0
M  V30 1258 H 109.514 -4.49321 -1.82316 0
M  V30 1259 N 110.857 0.726932 -1.39834 0
M  V30 1260 C 111.787 1.85405 -1.41941 0
M  V30 1261 C 112.768 1.67751 -0.281728 0
M  V30 1262 O 113.953 1.8795 -0.488717 0
M  V30 1263 C 111.083 3.23243 -1.2701 0
M  V30 1264 C 110.037 3.55549 -2.38262 0
M  V30 1265 C 109.363 4.9241 -2.08415 0
M  V30 1266 C 110.663 3.577 -3.80589 0
M  V30 1267 H 112.357 1.83899 -2.36266 0
M  V30 1268 H 109.903 0.883349 -1.13723 0
M  V30 1269 H 111.856 4.01775 -1.27103 0
M  V30 1270 H 110.58 3.25296 -0.291564 0
M  V30 1271 H 109.239 2.79351 -2.37399 0
M  V30 1272 H 108.887 4.91052 -1.0898 0
M  V30 1273 H 108.587 5.14992 -2.82943 0
M  V30 1274 H 110.111 5.73289 -2.10171 0
M  V30 1275 H 111.525 4.26293 -3.83337 0
M  V30 1276 H 109.922 3.91804 -4.54543 0
M  V30 1277 H 110.992 2.57328 -4.10987 0
M  V30 1278 N 112.336 1.25143 0.95797 0
M  V30 1279 C 113.583 1.09692 1.70217 0
M  V30 1280 C 113.911 -0.362654 1.91089 0
M  V30 1281 O 113.166 -1.28386 1.47701 0
M  V30 1282 C 113.465 1.79272 3.09187 0
M  V30 1283 C 113.131 3.29196 3.08125 0
M  V30 1284 C 111.793 3.70096 3.07543 0
M  V30 1285 C 114.145 4.24995 3.0171 0
M  V30 1286 C 111.473 5.05213 2.9829 0
M  V30 1287 C 113.825 5.60132 2.93999 0
M  V30 1288 C 112.489 6.00365 2.9175 0
M  V30 1289 H 111.759 0.401393 0.622868 0
M  V30 1290 H 114.406 1.55372 1.11945 0
M  V30 1291 H 112.711 1.26014 3.70982 0
M  V30 1292 H 114.408 1.64773 3.65583 0
M  V30 1293 H 110.998 2.96651 3.09348 0
M  V30 1294 H 115.182 3.9439 3.01281 0
M  V30 1295 H 110.438 5.35569 2.94916 0
M  V30 1296 H 114.612 6.3406 2.87996 0
M  V30 1297 H 112.239 7.05023 2.84336 0
M  V30 1298 N 113.814 -1.1601 1.06675 0
M  V30 1299 C 115.06 -1.87145 0.796766 0
M  V30 1300 C 115.415 -1.8037 -0.669658 0
M  V30 1301 O 114.708 -1.21116 -1.48463 0
M  V30 1302 C 114.902 -3.35547 1.23057 0
M  V30 1303 C 114.731 -3.56769 2.73762 0
M  V30 1304 C 113.501 -3.72635 3.41279 0
M  V30 1305 C 115.699 -3.55166 3.7197 0
M  V30 1306 N 113.681 -3.81845 4.80695 0
M  V30 1307 C 115.052 -3.70406 4.97191 0
M  V30 1308 C 117.107 -3.384 3.65226 0
M  V30 1309 C 115.81 -3.70615 6.16471 0
M  V30 1310 C 117.836 -3.39904 4.83962 0
M  V30 1311 C 117.198 -3.55667 6.08013 0
M  V30 1312 H 113.297 -0.702267 0.344014 0
M  V30 1313 H 115.881 -1.39165 1.36166 0
M  V30 1314 H 114.052 -3.82159 0.693456 0
M  V30 1315 H 115.784 -3.94363 0.908844 0
M  V30 1316 H 112.539 -3.73121 2.91681 0
M  V30 1317 H 112.963 -3.90209 5.53232 0
M  V30 1318 H 117.605 -3.25138 2.70269 0
M  V30 1319 H 115.323 -3.82658 7.11757 0
M  V30 1320 H 118.909 -3.28169 4.80413 0
M  V30 1321 H 117.789 -3.56755 6.98352 0
M  V30 1322 N 115.292 -0.849877 -1.32721 0
M  V30 1323 C 116.532 -0.457146 -1.99222 0
M  V30 1324 C 116.896 0.968038 -1.6581 0
M  V30 1325 O 118.097 1.46507 -2.25364 0
M  V30 1326 C 116.368 -0.683966 -3.50794 0
M  V30 1327 S 117.927 -0.388095 -4.3708 0
M  V30 1328 H 114.745 -0.171464 -0.690015 0
M  V30 1329 H 117.347 -1.10155 -1.61512 0
M  V30 1330 H 116.051 -1.72038 -3.726 0
M  V30 1331 H 115.582 -0.0258086 -3.93392 0
M  V30 1332 H 117.597 0.787791 -4.89906 0
M  V30 1333 N 116.77 1.45427 -0.607355 0
M  V30 1334 C 118.019 2.01452 -0.100036 0
M  V30 1335 C 118.332 1.48159 1.27704 0
M  V30 1336 O 119.538 1.96159 1.87707 0
M  V30 1337 C 117.994 3.59672 -0.128158 0
M  V30 1338 C 117.602 4.21962 -1.50507 0
M  V30 1339 C 119.346 4.23262 0.323932 0
M  V30 1340 C 117.253 5.72333 -1.48959 0
M  V30 1341 H 116.183 0.75325 -0.0336299 0
M  V30 1342 H 118.834 1.66901 -0.76265 0
M  V30 1343 H 117.216 3.91411 0.601105 0
M  V30 1344 H 118.39 4.01796 -2.25602 0
M  V30 1345 H 116.705 3.70565 -1.89923 0
M  V30 1346 H 119.302 5.33522 0.354691 0
M  V30 1347 H 119.645 3.93921 1.34656 0
M  V30 1348 H 120.178 3.96239 -0.352056 0
M  V30 1349 H 116.917 6.06373 -2.48981 0
M  V30 1350 H 116.437 5.94691 -0.781214 0
M  V30 1351 H 118.116 6.35525 -1.21313 0
M  V30 1352 N 118.248 0.346503 1.53744 0
M  V30 1353 C 119.211 -0.496439 2.23759 0
M  V30 1354 C 120.211 -1.0252 1.2388 0
M  V30 1355 O 121.401 -0.913974 1.48297 0
M  V30 1356 C 118.533 -1.69187 2.95954 0
M  V30 1357 H 119.726 0.115952 2.99676 0
M  V30 1358 H 117.279 0.0978939 1.55993 0
M  V30 1359 H 118.014 -2.34288 2.24231 0
M  V30 1360 H 117.799 -1.31989 3.69217 0
M  V30 1361 H 119.289 -2.28969 3.49232 0
M  V30 1362 N 119.726 -1.57421 0.075193 0
M  V30 1363 C 120.973 -1.93618 -0.593146 0
M  V30 1364 C 121.301 -0.955484 -1.69413 0
M  V30 1365 O 120.556 0.0283251 -1.9568 0
M  V30 1366 C 120.855 -3.36428 -1.20626 0
M  V30 1367 C 120.521 -4.50307 -0.231078 0
M  V30 1368 C 119.183 -4.81186 0.0371936 0
M  V30 1369 C 121.535 -5.19374 0.435888 0
M  V30 1370 C 118.863 -5.78466 0.979461 0
M  V30 1371 C 121.215 -6.17665 1.3665 0
M  V30 1372 C 119.879 -6.46958 1.6432 0
M  V30 1373 H 119.149 -0.708499 -0.217047 0
M  V30 1374 H 121.796 -1.90937 0.146793 0
M  V30 1375 H 120.101 -3.35592 -2.02201 0
M  V30 1376 H 121.798 -3.61727 -1.73073 0
M  V30 1377 H 118.388 -4.26227 -0.450357 0
M  V30 1378 H 122.572 -4.95711 0.241748 0
M  V30 1379 H 117.828 -5.99487 1.20106 0
M  V30 1380 H 122.002 -6.70284 1.88924 0
M  V30 1381 H 119.629 -7.2215 2.37494 0
M  V30 1382 N 121.204 0.198386 -1.56346 0
M  V30 1383 C 122.451 0.919286 -1.80431 0
M  V30 1384 C 122.779 1.83393 -0.647866 0
M  V30 1385 O 122.034 1.92236 0.366556 0
M  V30 1386 C 122.333 1.77031 -3.10475 0
M  V30 1387 C 121.999 1.00693 -4.39513 0
M  V30 1388 C 120.661 0.796145 -4.74568 0
M  V30 1389 C 123.013 0.469559 -5.19081 0
M  V30 1390 C 120.341 0.0364588 -5.86689 0
M  V30 1391 C 122.693 -0.2769 -6.31994 0
M  V30 1392 C 121.357 -0.49873 -6.65634 0
M  V30 1393 H 120.627 0.336391 -0.660244 0
M  V30 1394 H 123.274 0.185872 -1.90596 0
M  V30 1395 H 121.579 2.5723 -2.95533 0
M  V30 1396 H 123.276 2.33065 -3.26315 0
M  V30 1397 H 119.866 1.18122 -4.12001 0
M  V30 1398 H 124.05 0.619816 -4.92414 0
M  V30 1399 H 119.306 -0.145412 -6.11227 0
M  V30 1400 H 123.48 -0.700684 -6.92866 0
M  V30 1401 H 121.107 -1.0893 -7.52355 0
M  V30 1402 N 122.682 1.50554 0.465978 0
M  V30 1403 C 123.632 1.66177 1.56106 0
M  V30 1404 C 124.616 0.516265 1.52393 0
M  V30 1405 O 125.808 0.770906 1.5933 0
M  V30 1406 C 122.937 1.76396 2.94515 0
M  V30 1407 C 122.023 2.9664 3.03093 0
M  V30 1408 N 122.414 4.20245 2.81474 0
M  V30 1409 C 120.712 2.95304 3.34233 0
M  V30 1410 C 121.413 5.01259 2.95151 0
M  V30 1411 N 120.389 4.35318 3.25576 0
M  V30 1412 H 124.191 2.59434 1.38099 0
M  V30 1413 H 121.705 1.47808 0.6728 0
M  V30 1414 H 123.702 1.85694 3.73261 0
M  V30 1415 H 122.362 0.843017 3.13565 0
M  V30 1416 H 123.373 4.4966 2.56956 0
M  V30 1417 H 120.05 2.12729 3.59239 0
M  V30 1418 H 121.44 6.09564 2.82632 0
M  V30 1419 N 124.16 -0.719506 1.40217 0
M  V30 1420 C 125.408 -1.47641 1.3801 0
M  V30 1421 C 125.729 -1.94992 -0.018145 0
M  V30 1422 O 124.999 -1.70073 -0.972207 0
M  V30 1423 H 123.579 -0.547744 0.507923 0
M  V30 1424 H 126.241 -0.853187 1.75233 0
M  V30 1425 H 125.337 -2.35112 2.05253 0
M  V30 1426 N 125.638 -1.25649 -0.95132 0
M  V30 1427 C 126.915 -1.01361 -1.67288 0
M  V30 1428 C 127.295 0.459135 -2.06046 0
M  V30 1429 O 126.643 1.43723 -1.7764 0
M  V30 1430 C 126.853 -1.95256 -2.89268 0
M  V30 1431 C 128.201 -2.23289 -3.61147 0
M  V30 1432 O 129.225 -1.93041 -2.99355 0
M  V30 1433 O 128.084 -2.74741 -4.72419 0
M  V30 1434 H 125.178 -0.38464 -0.732107 0
M  V30 1435 H 127.724 -1.36817 -1.00395 0
M  V30 1436 H 126.496 -2.94685 -2.57442 0
M  V30 1437 H 126.119 -1.60218 -3.6389 0
M  V30 1438 N 127.117 1.15442 -1.07289 0
M  V30 1439 C 128.047 2.22312 -0.714107 0
M  V30 1440 C 129.028 1.67467 0.298155 0
M  V30 1441 O 130.213 1.93445 0.171048 0
M  V30 1442 C 127.343 3.47124 -0.110448 0
M  V30 1443 C 126.297 4.14926 -1.04979 0
M  V30 1444 C 125.623 5.33807 -0.308924 0
M  V30 1445 C 126.923 4.64762 -2.38314 0
M  V30 1446 H 128.617 2.5258 -1.6076 0
M  V30 1447 H 126.163 1.21404 -0.77441 0
M  V30 1448 H 128.116 4.21124 0.152482 0
M  V30 1449 H 126.84 3.16187 0.81812 0
M  V30 1450 H 125.499 3.42866 -1.29764 0
M  V30 1451 H 125.147 4.99126 0.623084 0
M  V30 1452 H 124.847 5.80113 -0.935036 0
M  V30 1453 H 126.371 6.10576 -0.0537771 0
M  V30 1454 H 127.785 5.30292 -2.1786 0
M  V30 1455 H 126.182 5.21728 -2.96514 0
M  V30 1456 H 127.252 3.80434 -3.00663 0
M  V30 1457 N 128.595 0.856903 1.32268 0
M  V30 1458 C 129.505 0.306131 2.32594 0
M  V30 1459 C 130.521 -0.577209 1.64147 0
M  V30 1460 O 131.697 -0.477043 1.95669 0
M  V30 1461 C 128.762 -0.494561 3.43154 0
M  V30 1462 C 127.823 0.415186 4.27288 0
M  V30 1463 C 127.056 -0.347387 5.32568 0
M  V30 1464 O 127.279 -1.57708 5.48165 0
M  V30 1465 O 126.213 0.287982 6.01211 0
M  V30 1466 H 130.039 1.13737 2.81598 0
M  V30 1467 H 127.624 0.619902 1.35932 0
M  V30 1468 H 129.506 -0.948944 4.10576 0
M  V30 1469 H 128.181 -1.30257 2.96336 0
M  V30 1470 H 127.088 0.917793 3.62667 0
M  V30 1471 H 128.421 1.18844 4.77637 0
M  V30 1472 N 130.073 -1.45103 0.615059 0
M  V30 1473 C 131.036 -2.29025 -0.0895485 0
M  V30 1474 C 132.036 -1.40174 -0.787906 0
M  V30 1475 O 133.226 -1.62217 -0.634933 0
M  V30 1476 C 130.358 -3.21376 -1.13711 0
M  V30 1477 H 131.551 -2.92807 0.648382 0
M  V30 1478 H 129.104 -1.51749 0.374444 0
M  V30 1479 H 129.839 -2.6241 -1.90556 0
M  V30 1480 H 129.624 -3.86834 -0.640475 0
M  V30 1481 H 131.114 -3.84459 -1.63036 0
M  V30 1482 N 131.551 -0.354651 -1.53558 0
M  V30 1483 C 132.776 0.242153 -2.05981 0
M  V30 1484 C 133.201 1.42553 -1.2272 0
M  V30 1485 O 132.559 1.79656 -0.243604 0
M  V30 1486 C 132.607 0.624367 -3.55154 0
M  V30 1487 O 131.711 1.72301 -3.74681 0
M  V30 1488 H 131.052 0.0378432 -0.662921 0
M  V30 1489 H 133.582 -0.512087 -1.98088 0
M  V30 1490 H 133.592 0.898433 -3.97985 0
M  V30 1491 H 132.267 -0.240989 -4.15201 0
M  V30 1492 H 130.844 1.44535 -3.4375 0
M  V30 1493 N 133.029 1.57378 -0.0835403 0
M  V30 1494 C 134.44 1.81261 0.447358 0
M  V30 1495 C 134.791 0.998331 1.68902 0
M  V30 1496 O 133.916 0.224282 2.15235 0
M  V30 1497 C 134.511 3.28767 0.818386 0
M  V30 1498 C 133.07 3.53455 1.29409 0
M  V30 1499 C 132.217 2.75831 0.285024 0
M  V30 1500 H 135.168 1.5566 -0.309115 0
M  V30 1501 H 135.189 3.41459 1.67887 0
M  V30 1502 H 134.701 3.88006 -0.0855019 0
M  V30 1503 H 132.802 2.99534 2.21608 0
M  V30 1504 H 132.915 4.62128 1.2639 0
M  V30 1505 H 131.279 2.42947 0.764767 0
M  V30 1506 H 132.062 3.37813 -0.611341 0
M  V30 1507 N 134.507 -0.190092 1.56449 0
M  V30 1508 C 135.755 -0.907908 1.80559 0
M  V30 1509 C 136.076 -1.83583 0.657438 0
M  V30 1510 O 135.346 -1.93203 -0.323924 0
M  V30 1511 H 133.926 -0.338247 0.666032 0
M  V30 1512 H 136.588 -0.194403 1.93928 0
M  V30 1513 H 135.684 -1.49604 2.73907 0
M  V30 1514 N 135.985 -1.50799 -0.457987 0
M  V30 1515 C 137.231 -1.62683 -1.21088 0
M  V30 1516 C 137.564 -0.332268 -1.91336 0
M  V30 1517 O 136.839 0.667043 -1.82704 0
M  V30 1518 C 137.122 -2.81615 -2.24422 0
M  V30 1519 C 136.975 -4.20989 -1.58392 0
M  V30 1520 C 138.294 -2.96085 -3.2561 0
M  V30 1521 H 135.413 -0.592087 -0.438864 0
M  V30 1522 H 138.055 -1.83225 -0.50286 0
M  V30 1523 H 136.205 -2.64231 -2.84806 0
M  V30 1524 H 137.877 -4.49994 -1.01504 0
M  V30 1525 H 136.12 -4.24641 -0.886704 0
M  V30 1526 H 136.791 -5.0016 -2.33547 0
M  V30 1527 H 139.267 -3.12042 -2.75262 0
M  V30 1528 H 138.143 -3.80902 -3.95228 0
M  V30 1529 H 138.404 -2.0726 -3.90507 0
M  V30 1530 N 137.463 0.71206 -1.40597 0
M  V30 1531 C 138.874 1.29135 -1.34837 0
M  V30 1532 C 139.225 1.96186 -0.0235395 0
M  V30 1533 O 138.35 1.97768 0.878444 0
M  V30 1534 C 138.945 2.34827 -2.44217 0
M  V30 1535 C 137.504 2.88371 -2.41907 0
M  V30 1536 C 136.651 1.62202 -2.24913 0
M  V30 1537 H 139.602 0.507944 -1.50352 0
M  V30 1538 H 139.623 3.15749 -2.12327 0
M  V30 1539 H 139.135 1.85996 -3.40627 0
M  V30 1540 H 137.236 3.41422 -1.49204 0
M  V30 1541 H 137.349 3.39925 -3.37621 0
M  V30 1542 H 135.713 1.874 -1.72492 0
M  V30 1543 H 136.496 1.15391 -3.23326 0
M  V30 1544 N 138.941 1.26152 0.944643 0
M  V30 1545 C 139.904 1.07474 2.0244 0
M  V30 1546 C 140.904 0.0242064 1.60782 0
M  V30 1547 O 142.094 0.267302 1.72137 0
M  V30 1548 C 139.226 0.633956 3.34953 0
M  V30 1549 H 140.419 2.03336 2.20442 0
M  V30 1550 H 137.972 1.087 1.12312 0
M  V30 1551 H 138.707 -0.326811 3.22649 0
M  V30 1552 H 138.492 1.39247 3.66542 0
M  V30 1553 H 139.982 0.52501 4.14287 0
M  V30 1554 N 140.419 -1.14872 1.07899 0
M  V30 1555 C 141.382 -2.17986 0.708161 0
M  V30 1556 C 142.382 -1.58775 -0.25442 0
M  V30 1557 O 143.572 -1.74166 -0.034645 0
M  V30 1558 C 140.704 -3.40871 0.0446929 0
M  V30 1559 H 141.897 -2.52306 1.62116 0
M  V30 1560 H 139.45 -1.2943 0.876218 0
M  V30 1561 H 140.185 -3.12124 -0.880281 0
M  V30 1562 H 139.97 -3.8511 0.737091 0
M  V30 1563 H 141.46 -4.17121 -0.19991 0
M  V30 1564 N 141.898 -0.863906 -1.31812 0
M  V30 1565 C 143.146 -0.470904 -1.96537 0
M  V30 1566 C 143.467 0.978771 -1.68657 0
M  V30 1567 O 142.737 1.6853 -0.998717 0
M  V30 1568 H 141.317 -0.171148 -0.72713 0
M  V30 1569 H 143.979 -1.10236 -1.60729 0
M  V30 1570 H 143.075 -0.623616 -3.05806 0
M  V30 1571 N 143.376 1.44774 -0.622745 0
M  V30 1572 C 144.624 2.01721 -0.123655 0
M  V30 1573 C 144.945 1.49172 1.25589 0
M  V30 1574 O 144.215 0.691974 1.83272 0
M  V30 1575 H 142.795 0.745777 -0.0427225 0
M  V30 1576 H 145.457 1.77382 -0.807559 0
M  V30 1577 H 144.553 3.11984 -0.0849534 0
M  V30 1578 N 144.854 0.36279 1.53368 0
M  V30 1579 C 146.265 -0.117022 1.86333 0
M  V30 1580 C 146.616 -1.48397 1.28347 0
M  V30 1581 O 145.741 -2.07787 0.604428 0
M  V30 1582 C 146.336 -0.21912 3.38091 0
M  V30 1583 C 144.895 -0.643184 3.70864 0
M  V30 1584 C 144.042 0.211318 2.76494 0
M  V30 1585 H 146.993 0.581687 1.47655 0
M  V30 1586 H 147.014 -1.04319 3.6592 0
M  V30 1587 H 146.526 0.775902 3.80265 0
M  V30 1588 H 144.627 -1.64654 3.34245 0
M  V30 1589 H 144.74 -0.41973 4.77258 0
M  V30 1590 H 143.104 -0.319367 2.5269 0
M  V30 1591 H 143.887 1.20383 3.21501 0
M  V30 1592 N 146.332 -1.57332 0.0918853 0
M  V30 1593 C 147.295 -2.12708 -0.85369 0
M  V30 1594 C 148.295 -1.05561 -1.213 0
M  V30 1595 O 149.485 -1.31461 -1.14296 0
M  V30 1596 C 146.617 -2.64503 -2.15061 0
M  V30 1597 H 147.81 -2.97573 -0.3729 0
M  V30 1598 H 145.363 -1.55509 -0.157072 0
M  V30 1599 H 146.098 -1.83149 -2.67632 0
M  V30 1600 H 145.883 -3.4284 -1.90272 0
M  V30 1601 H 147.373 -3.07351 -2.82711 0
M  V30 1602 N 147.81 0.181792 -1.56548 0
M  V30 1603 C 148.773 1.20894 -1.94724 0
M  V30 1604 C 149.773 1.37738 -0.829747 0
M  V30 1605 O 150.963 1.35323 -1.09697 0
M  V30 1606 C 148.095 2.57593 -2.23291 0
M  V30 1607 H 149.288 0.882275 -2.86629 0
M  V30 1608 H 146.841 0.423838 -1.50444 0
M  V30 1609 H 147.576 2.95291 -1.34067 0
M  V30 1610 H 147.361 2.46735 -3.04736 0
M  V30 1611 H 148.851 3.31637 -2.53785 0
M  V30 1612 N 149.288 1.51039 0.449983 0
M  V30 1613 C 150.536 1.62759 1.19808 0
M  V30 1614 C 150.857 0.339981 1.92013 0
M  V30 1615 O 150.127 -0.643606 1.85026 0
M  V30 1616 H 148.707 0.599811 0.445237 0
M  V30 1617 H 151.369 1.87914 0.517138 0
M  V30 1618 H 150.465 2.44911 1.93455 0
M  V30 1619 N 150.766 -0.704594 1.40972 0
M  V30 1620 C 152.014 -1.46169 1.39568 0
M  V30 1621 C 152.335 -1.95 0.00253745 0
M  V30 1622 O 151.605 -1.71095 -0.954114 0
M  V30 1623 H 150.185 -0.542326 0.513704 0
M  V30 1624 H 152.847 -0.834553 1.76128 0
M  V30 1625 H 151.943 -2.32922 2.07735 0
M  V30 1626 N 152.244 -1.26651 -0.937939 0
M  V30 1627 C 153.492 -1.12165 -1.68118 0
M  V30 1628 C 153.813 0.334983 -1.92101 0
M  V30 1629 O 153.083 1.23583 -1.52 0
M  V30 1630 H 151.663 -0.412093 -0.623048 0
M  V30 1631 H 154.325 -1.59027 -1.12678 0
M  V30 1632 H 153.421 -1.64289 -2.6536 0
M  V30 1633 N 153.722 1.14298 -1.08507 0
M  V30 1634 C 154.97 1.84993 -0.813763 0
M  V30 1635 C 155.291 1.83405 0.662393 0
M  V30 1636 O 154.561 1.28319 1.48024 0
M  V30 1637 H 153.141 0.684966 -0.298045 0
M  V30 1638 H 155.803 1.385 -1.37126 0
M  V30 1639 H 154.899 2.89788 -1.15884 0
M  V30 1640 N 155.201 0.870884 1.31352 0
M  V30 1641 C 156.164 0.332243 2.26779 0
M  V30 1642 C 157.164 -0.517302 1.52252 0
M  V30 1643 O 158.354 -0.326477 1.71113 0
M  V30 1644 C 155.486 -0.528066 3.36785 0
M  V30 1645 H 156.679 1.17469 2.75937 0
M  V30 1646 H 154.232 0.64655 1.423 0
M  V30 1647 H 154.967 -1.39167 2.92922 0
M  V30 1648 H 154.752 0.0802582 3.92018 0
M  V30 1649 H 156.242 -0.897179 4.07849 0
M  V30 1650 N 156.679 -1.44442 0.630414 0
M  V30 1651 C 157.642 -2.29107 -0.0652523 0
M  V30 1652 C 158.642 -1.41002 -0.772995 0
M  V30 1653 O 159.832 -1.62881 -0.617692 0
M  V30 1654 C 156.964 -3.22564 -1.10296 0
M  V30 1655 H 158.157 -2.92103 0.679401 0
M  V30 1656 H 155.71 -1.51343 0.390517 0
M  V30 1657 H 156.445 -2.64416 -1.87762 0
M  V30 1658 H 156.23 -3.87491 -0.59941 0
M  V30 1659 H 157.72 -3.86167 -1.5895 0
M  V30 1660 N 158.157 -0.370918 -1.53173 0
M  V30 1661 C 159.568 0.107139 -1.86392 0
M  V30 1662 C 159.919 1.47714 -1.29132 0
M  V30 1663 O 159.044 2.07464 -0.615439 0
M  V30 1664 C 159.639 0.201187 -3.38202 0
M  V30 1665 C 158.198 0.623507 -3.712 0
M  V30 1666 C 157.345 -0.225978 -2.76378 0
M  V30 1667 H 160.296 -0.58951 -1.47345 0
M  V30 1668 H 160.317 1.02377 -3.66468 0
M  V30 1669 H 159.829 -0.796058 -3.79848 0
M  V30 1670 H 157.93 1.62879 -3.35114 0
M  V30 1671 H 158.043 0.394414 -4.77474 0
M  V30 1672 H 156.407 0.305962 -2.52856 0
M  V30 1673 H 157.19 -1.22086 -3.20858 0
M  V30 1674 N 159.635 1.57281 -0.100228 0
M  V30 1675 C 160.881 1.94826 0.563101 0
M  V30 1676 C 161.214 0.982475 1.67514 0
M  V30 1677 O 160.489 0.0164069 1.94493 0
M  V30 1678 C 160.772 3.42453 1.11346 0
M  V30 1679 C 160.625 4.498 0.00612081 0
M  V30 1680 C 161.944 3.91506 2.01024 0
M  V30 1681 H 159.063 0.708428 0.203221 0
M  V30 1682 H 161.705 1.8922 -0.171979 0
M  V30 1683 H 159.855 3.47361 1.7399 0
M  V30 1684 H 161.527 4.57 -0.628357 0
M  V30 1685 H 159.77 4.28756 -0.659581 0
M  V30 1686 H 160.441 5.50306 0.432109 0
M  V30 1687 H 162.917 3.88784 1.48278 0
M  V30 1688 H 161.793 4.95358 2.36457 0
M  V30 1689 H 162.054 3.31099 2.92961 0
M  V30 1690 N 161.113 -0.173488 1.56642 0
M  V30 1691 C 162.076 -1.19859 1.95362 0
M  V30 1692 C 163.076 -1.37296 0.83704 0
M  V30 1693 O 164.266 -1.34739 1.10413 0
M  V30 1694 C 161.398 -2.56405 2.24654 0
M  V30 1695 H 162.591 -0.867062 2.87092 0
M  V30 1696 H 160.144 -0.415853 1.50666 0
M  V30 1697 H 160.879 -2.94576 1.35631 0
M  V30 1698 H 160.664 -2.45115 3.06041 0
M  V30 1699 H 162.154 -3.30287 2.5554 0
M  V30 1700 N 162.591 -1.51276 -0.441967 0
M  V30 1701 C 164.002 -1.56244 -1.02199 0
M  V30 1702 C 164.353 -0.383149 -1.92422 0
M  V30 1703 O 163.478 0.500613 -2.1053 0
M  V30 1704 C 164.073 -2.83162 -1.86024 0
M  V30 1705 C 162.632 -2.90716 -2.39084 0
M  V30 1706 C 161.779 -2.50858 -1.18175 0
M  V30 1707 H 164.73 -1.5712 -0.223416 0
M  V30 1708 H 164.751 -2.66663 -2.71425 0
M  V30 1709 H 164.263 -3.68974 -1.20331 0
M  V30 1710 H 162.364 -2.09323 -3.08244 0
M  V30 1711 H 162.477 -3.94266 -2.72198 0
M  V30 1712 H 160.841 -2.03951 -1.52565 0
M  V30 1713 H 161.624 -3.3901 -0.541001 0
M  V30 1714 N 164.069 0.697108 -1.41344 0
M  V30 1715 C 165.016 1.81106 -1.43071 0
M  V30 1716 C 165.986 1.63632 -0.285275 0
M  V30 1717 O 167.171 1.84504 -0.486091 0
M  V30 1718 C 164.311 3.18975 -1.31715 0
M  V30 1719 C 163.424 3.47892 -2.56115 0
M  V30 1720 C 162.559 4.75367 -2.37064 0
M  V30 1721 C 161.598 4.97247 -3.56948 0
M  V30 1722 N 160.735 6.15947 -3.36977 0
M  V30 1723 H 165.575 1.78965 -2.38276 0
M  V30 1724 H 163.112 0.873975 -1.18322 0
M  V30 1725 H 165.07 3.98615 -1.23133 0
M  V30 1726 H 163.7 3.20297 -0.401183 0
M  V30 1727 H 162.752 2.62669 -2.75153 0
M  V30 1728 H 164.064 3.59962 -3.45295 0
M  V30 1729 H 163.218 5.63059 -2.25941 0
M  V30 1730 H 161.957 4.65541 -1.45338 0
M  V30 1731 H 160.962 4.08004 -3.68527 0
M  V30 1732 H 162.187 5.08934 -4.49626 0
M  V30 1733 H 160.133 6.07336 -2.47949 0
M  V30 1734 H 160.05 6.28777 -4.19732 0
M  V30 1735 H 161.318 7.06377 -3.29623 0
M  V30 1736 N 165.547 1.27147 0.931209 0
M  V30 1737 C 166.958 1.12044 1.49342 0
M  V30 1738 C 167.309 -0.295795 1.93957 0
M  V30 1739 O 166.434 -1.18835 1.80852 0
M  V30 1740 C 167.029 2.02781 2.71414 0
M  V30 1741 C 165.588 1.91794 3.2387 0
M  V30 1742 C 164.735 1.95543 1.96617 0
M  V30 1743 H 167.686 1.40091 0.745672 0
M  V30 1744 H 167.707 1.58156 3.46074 0
M  V30 1745 H 167.219 3.05848 2.38911 0
M  V30 1746 H 165.32 0.916992 3.6114 0
M  V30 1747 H 165.433 2.77852 3.90302 0
M  V30 1748 H 163.797 1.39722 2.12955 0
M  V30 1749 H 164.58 3.00259 1.66432 0
M  V30 1750 N 167.025 -1.13721 1.09112 0
M  V30 1751 C 168.265 -1.86576 0.834801 0
M  V30 1752 C 168.629 -1.81435 -0.628122 0
M  V30 1753 O 169.83 -2.49497 -1.00024 0
M  V30 1754 C 168.101 -3.30872 1.35124 0
M  V30 1755 S 169.66 -4.21257 1.22832 0
M  V30 1756 H 166.478 -0.643666 0.302017 0
M  V30 1757 H 169.08 -1.37085 1.39385 0
M  V30 1758 H 167.784 -3.32166 2.41027 0
M  V30 1759 H 167.315 -3.85423 0.788185 0
M  V30 1760 H 169.33 -4.95884 0.177191 0
M  V30 1761 N 168.503 -0.877838 -1.30888 0
M  V30 1762 C 169.752 -0.488793 -1.95688 0
M  V30 1763 C 170.065 0.965485 -1.70111 0
M  V30 1764 O 171.271 1.46104 -2.28836 0
M  V30 1765 C 169.727 -0.823201 -3.50359 0
M  V30 1766 C 169.335 -2.29477 -3.84765 0
M  V30 1767 C 171.079 -0.503009 -4.21509 0
M  V30 1768 C 168.986 -2.57118 -5.32583 0
M  V30 1769 H 167.916 -0.179062 -0.732429 0
M  V30 1770 H 170.567 -1.07183 -1.48943 0
M  V30 1771 H 168.949 -0.169331 -3.95638 0
M  V30 1772 H 170.123 -2.99236 -3.5042 0
M  V30 1773 H 168.438 -2.58178 -3.267 0
M  V30 1774 H 171.035 -0.68665 -5.30273 0
M  V30 1775 H 171.378 0.557109 -4.12555 0
M  V30 1776 H 171.911 -1.11376 -3.8189 0
M  V30 1777 H 168.65 -3.61843 -5.4658 0
M  V30 1778 H 168.17 -1.91961 -5.68253 0
M  V30 1779 H 169.849 -2.42251 -5.99936 0
M  V30 1780 N 169.982 1.44106 -0.638065 0
M  V30 1781 C 170.915 2.27924 0.112161 0
M  V30 1782 C 171.893 1.38945 0.844574 0
M  V30 1783 O 173.077 1.68386 0.847248 0
M  V30 1784 C 170.204 3.18029 1.16512 0
M  V30 1785 C 169.25 4.23163 0.532458 0
M  V30 1786 S 170.083 5.31131 -0.682666 0
M  V30 1787 C 171.239 6.24805 0.37013 0
M  V30 1788 H 171.472 2.91205 -0.598887 0
M  V30 1789 H 169.005 1.48394 -0.426441 0
M  V30 1790 H 170.963 3.70492 1.76766 0
M  V30 1791 H 169.624 2.53955 1.8484 0
M  V30 1792 H 168.817 4.86252 1.32571 0
M  V30 1793 H 168.419 3.74 0.00437644 0
M  V30 1794 H 170.711 6.66042 1.24071 0
M  V30 1795 H 171.654 7.07741 -0.225349 0
M  V30 1796 H 172.062 5.60154 0.699141 0
M  V30 1797 N 171.46 0.379036 1.52974 0
M  V30 1798 C 172.41 -0.477772 2.22938 0
M  V30 1799 C 173.394 -1.03792 1.22948 0
M  V30 1800 O 174.586 -0.965725 1.48333 0
M  V30 1801 C 171.715 -1.60994 3.03209 0
M  V30 1802 C 170.801 -1.06203 4.10587 0
M  V30 1803 N 171.192 -0.238214 5.05239 0
M  V30 1804 C 169.49 -1.33554 4.25534 0
M  V30 1805 C 170.191 0.0633235 5.81666 0
M  V30 1806 N 169.167 -0.537901 5.40932 0
M  V30 1807 H 172.969 0.158295 2.93473 0
M  V30 1808 H 170.483 0.187778 1.61311 0
M  V30 1809 H 172.48 -2.23607 3.5186 0
M  V30 1810 H 171.14 -2.24893 2.34207 0
M  V30 1811 H 172.151 0.123695 5.17752 0
M  V30 1812 H 168.828 -1.97632 3.6776 0
M  V30 1813 H 170.218 0.730161 6.67921 0
M  V30 1814 N 172.938 -1.57226 0.108567 0
M  V30 1815 C 174.184 -1.95121 -0.552761 0
M  V30 1816 C 174.517 -0.991345 -1.66991 0
M  V30 1817 O 173.792 -0.0267211 -1.94482 0
M  V30 1818 C 174.075 -3.43039 -1.09528 0
M  V30 1819 C 173.928 -4.49797 0.0177332 0
M  V30 1820 C 175.247 -3.92567 -1.98945 0
M  V30 1821 H 172.366 -0.709496 -0.199461 0
M  V30 1822 H 175.008 -1.89126 0.182011 0
M  V30 1823 H 173.158 -3.48279 -1.72146 0
M  V30 1824 H 174.83 -4.56661 0.652584 0
M  V30 1825 H 173.073 -4.284 0.682309 0
M  V30 1826 H 173.744 -5.50528 -0.402919 0
M  V30 1827 H 176.22 -3.89565 -1.46214 0
M  V30 1828 H 175.096 -4.96605 -2.33827 0
M  V30 1829 H 175.357 -3.32648 -2.91201 0
M  V30 1830 N 174.416 0.165178 -1.56732 0
M  V30 1831 C 175.364 1.22369 -1.97809 0
M  V30 1832 C 176.358 1.45488 -0.867741 0
M  V30 1833 O 177.564 1.45995 -1.05288 0
M  V30 1834 H 173.939 0.411486 -0.629431 0
M  V30 1835 H 175.91 0.850425 -2.86025 0
M  V30 1836 C 174.659 2.55403 -2.35934 0
M  V30 1837 H 173.982 2.38438 -3.20916 0
M  V30 1838 H 175.422 3.2814 -2.68514 0
M  V30 1839 C 173.881 3.14611 -1.20506 0
M  V30 1840 O 174.411 3.98626 -0.496016 0
M  V30 1841 N 172.617 2.7379 -0.97403 0
M  V30 1842 H 172.164 2.0557 -1.55238 0
M  V30 1843 H 172.122 3.1374 -0.203573 0
M  V30 1844 N 175.894 1.51508 0.433938 0
M  V30 1845 C 177.142 1.6402 1.18075 0
M  V30 1846 C 177.463 0.360328 1.91642 0
M  V30 1847 O 176.733 -0.623945 1.85698 0
M  V30 1848 H 175.313 0.6045 0.43885 0
M  V30 1849 H 177.975 1.88452 0.497178 0
M  V30 1850 H 177.071 2.46949 1.90847 0
M  V30 1851 N 177.372 -0.689602 1.41712 0
M  V30 1852 C 178.619 -1.44966 1.4139 0
M  V30 1853 C 178.947 -1.94484 0.025105 0
M  V30 1854 O 178.202 -1.70307 -0.964048 0
M  V30 1855 C 178.501 -2.67298 2.37247 0
M  V30 1856 C 178.167 -2.36405 3.83958 0
M  V30 1857 C 176.829 -2.27691 4.23923 0
M  V30 1858 C 179.181 -2.11043 4.76561 0
M  V30 1859 C 176.509 -1.91719 5.54492 0
M  V30 1860 C 178.861 -1.76578 6.07456 0
M  V30 1861 C 177.525 -1.66363 6.46436 0
M  V30 1862 H 176.795 -0.53047 0.517381 0
M  V30 1863 H 179.442 -0.787655 1.74552 0
M  V30 1864 H 177.747 -3.38461 1.9736 0
M  V30 1865 H 179.444 -3.25452 2.34269 0
M  V30 1866 H 176.034 -2.44085 3.52308 0
M  V30 1867 H 180.218 -2.16717 4.46483 0
M  V30 1868 H 175.474 -1.82367 5.83568 0
M  V30 1869 H 179.648 -1.55974 6.78708 0
M  V30 1870 H 177.275 -1.38258 7.47522 0
M  V30 1871 N 178.85 -1.27639 -0.924453 0
M  V30 1872 C 179.78 -1.13166 -2.04244 0
M  V30 1873 C 180.761 -0.032256 -1.70069 0
M  V30 1874 O 181.946 -0.207328 -1.9309 0
M  V30 1875 C 179.076 -0.781496 -3.38393 0
M  V30 1876 C 178.03 -1.83449 -3.86692 0
M  V30 1877 C 177.356 -1.33822 -5.17683 0
M  V30 1878 C 178.656 -3.23917 -4.09726 0
M  V30 1879 H 180.35 -2.06689 -2.1661 0
M  V30 1880 H 177.896 -0.995136 -1.04082 0
M  V30 1881 H 179.849 -0.667057 -4.16087 0
M  V30 1882 H 178.573 0.189439 -3.2605 0
M  V30 1883 H 177.232 -1.93789 -3.11193 0
M  V30 1884 H 176.88 -0.35665 -5.01734 0
M  V30 1885 H 176.58 -2.04224 -5.50968 0
M  V30 1886 H 178.104 -1.23679 -5.97943 0
M  V30 1887 H 179.518 -3.16559 -4.77978 0
M  V30 1888 H 177.915 -3.92059 -4.54324 0
M  V30 1889 H 178.985 -3.68729 -3.14908 0
M  V30 1890 N 180.328 1.1314 -1.09713 0
M  V30 1891 C 181.576 1.84119 -0.833338 0
M  V30 1892 C 181.897 1.84097 0.642904 0
M  V30 1893 O 181.167 1.29881 1.46655 0
M  V30 1894 H 179.747 0.681766 -0.305293 0
M  V30 1895 H 182.409 1.37038 -1.38588 0
M  V30 1896 H 181.505 2.88543 -1.18951 0
M  V30 1897 N 181.806 0.884767 1.30421 0
M  V30 1898 C 182.769 0.356277 2.26414 0
M  V30 1899 C 183.769 -0.501124 1.52792 0
M  V30 1900 O 184.959 -0.30831 1.7145 0
M  V30 1901 C 182.091 -0.492316 3.37326 0
M  V30 1902 H 183.284 1.20389 2.74675 0
M  V30 1903 H 180.837 0.661607 1.41607 0
M  V30 1904 H 181.572 -1.36052 2.94381 0
M  V30 1905 H 181.357 0.121832 3.91911 0
M  V30 1906 H 182.847 -0.853871 4.08777 0
M  V30 1907 N 183.284 -1.43765 0.645699 0
M  V30 1908 C 184.531 -2.01898 0.15604 0
M  V30 1909 C 184.859 -1.50887 -1.22733 0
M  V30 1910 O 184.114 -0.689271 -1.8316 0
M  V30 1911 C 184.413 -3.57238 0.107679 0
M  V30 1912 C 184.079 -4.27564 1.43178 0
M  V30 1913 C 182.741 -4.46492 1.7944 0
M  V30 1914 C 185.093 -4.67454 2.30513 0
M  V30 1915 C 182.421 -5.02573 3.02716 0
M  V30 1916 C 184.773 -5.24901 3.53074 0
M  V30 1917 C 183.437 -5.42046 3.89541 0
M  V30 1918 H 182.707 -0.738797 0.057099 0
M  V30 1919 H 185.354 -1.72341 0.834912 0
M  V30 1920 H 183.659 -3.86293 -0.654618 0
M  V30 1921 H 185.356 -3.99965 -0.287938 0
M  V30 1922 H 181.946 -4.13171 1.13963 0
M  V30 1923 H 186.13 -4.5253 2.0379 0
M  V30 1924 H 181.386 -5.14033 3.31028 0
M  V30 1925 H 185.56 -5.54758 4.20971 0
M  V30 1926 H 183.187 -5.85268 4.85145 0
M  V30 1927 N 184.763 -0.387143 -1.52771 0
M  V30 1928 C 185.693 0.440551 -2.29306 0
M  V30 1929 C 186.674 1.06535 -1.32606 0
M  V30 1930 O 187.859 1.07853 -1.61497 0
M  V30 1931 C 184.989 1.56919 -3.09829 0
M  V30 1932 C 183.943 1.07054 -4.14395 0
M  V30 1933 C 183.269 2.29109 -4.83129 0
M  V30 1934 C 184.569 0.140015 -5.22112 0
M  V30 1935 H 186.263 -0.198026 -2.98744 0
M  V30 1936 H 183.809 -0.09668 -1.43675 0
M  V30 1937 H 185.762 2.15503 -3.62128 0
M  V30 1938 H 184.486 2.23532 -2.3812 0
M  V30 1939 H 183.145 0.507247 -3.63074 0
M  V30 1940 H 182.793 2.94227 -4.0797 0
M  V30 1941 H 182.493 1.96406 -5.53804 0
M  V30 1942 H 184.017 2.88339 -5.38231 0
M  V30 1943 H 185.431 0.633978 -5.69784 0
M  V30 1944 H 183.828 -0.0971485 -6.00021 0
M  V30 1945 H 184.898 -0.811711 -4.78058 0
M  V30 1946 N 186.241 1.57166 -0.116904 0
M  V30 1947 C 187.488 1.95123 0.541603 0
M  V30 1948 C 187.816 1.00006 1.6682 0
M  V30 1949 O 187.071 0.0235658 1.95686 0
M  V30 1950 C 187.37 3.39508 1.11664 0
M  V30 1951 C 187.036 4.50762 0.111606 0
M  V30 1952 C 185.698 4.80918 -0.164758 0
M  V30 1953 C 188.05 5.18036 -0.573438 0
M  V30 1954 C 185.378 5.75666 -1.13249 0
M  V30 1955 C 187.73 6.13824 -1.52978 0
M  V30 1956 C 186.394 6.42374 -1.81415 0
M  V30 1957 H 185.664 0.714005 0.198187 0
M  V30 1958 H 188.311 1.9048 -0.197365 0
M  V30 1959 H 186.616 3.40835 1.93232 0
M  V30 1960 H 188.313 3.66189 1.63422 0
M  V30 1961 H 184.903 4.27272 0.337192 0
M  V30 1962 H 189.087 4.94896 -0.373092 0
M  V30 1963 H 184.343 5.96092 -1.35958 0
M  V30 1964 H 188.517 6.65039 -2.06629 0
M  V30 1965 H 186.144 7.15599 -2.56557 0
M  V30 1966 N 187.719 -0.156864 1.56817 0
M  V30 1967 C 188.944 -0.890331 1.87318 0
M  V30 1968 C 189.369 -1.74394 0.704855 0
M  V30 1969 O 188.727 -1.77972 -0.345786 0
M  V30 1970 C 188.775 -1.73102 3.16336 0
M  V30 1971 O 187.879 -2.83422 2.99576 0
M  V30 1972 H 187.22 -0.24857 0.615718 0
M  V30 1973 H 189.75 -0.150649 2.04045 0
M  V30 1974 H 189.76 -2.12803 3.48107 0
M  V30 1975 H 188.435 -1.10412 4.00976 0
M  V30 1976 H 187.012 -2.47199 2.7919 0
M  V30 1977 N 189.197 -1.51736 -0.425897 0
M  V30 1978 C 190.443 -1.65214 -1.1761 0
M  V30 1979 C 190.776 -0.372778 -1.90589 0
M  V30 1980 O 190.051 0.628139 -1.84078 0
M  V30 1981 C 190.334 -2.86312 -2.18398 0
M  V30 1982 C 190.187 -4.24254 -1.49426 0
M  V30 1983 C 191.506 -3.02925 -3.19256 0
M  V30 1984 H 188.625 -0.601263 -0.426206 0
M  V30 1985 H 191.267 -1.8425 -0.463882 0
M  V30 1986 H 189.417 -2.70213 -2.79137 0
M  V30 1987 H 191.089 -4.52046 -0.919362 0
M  V30 1988 H 189.332 -4.26426 -0.796432 0
M  V30 1989 H 190.003 -5.05001 -2.22885 0
M  V30 1990 H 192.479 -3.1781 -2.68581 0
M  V30 1991 H 191.355 -3.89199 -3.8706 0
M  V30 1992 H 191.616 -2.15497 -3.86023 0
M  V30 1993 N 190.675 0.682077 -1.42076 0
M  V30 1994 C 191.585 1.82535 -1.47371 0
M  V30 1995 C 192.601 1.7017 -0.363079 0
M  V30 1996 O 193.777 1.91848 -0.612875 0
M  V30 1997 C 190.842 3.18624 -1.36674 0
M  V30 1998 C 189.903 3.42999 -2.58167 0
M  V30 1999 C 189.136 4.72595 -2.4797 0
M  V30 2000 O 189.359 5.50006 -1.5116 0
M  V30 2001 O 188.293 4.98054 -3.37974 0
M  V30 2002 H 192.119 1.81023 -2.43853 0
M  V30 2003 H 189.704 0.836887 -1.2376 0
M  V30 2004 H 191.586 3.99847 -1.33043 0
M  V30 2005 H 190.261 3.20789 -0.433138 0
M  V30 2006 H 189.168 2.61653 -2.67373 0
M  V30 2007 H 190.501 3.45659 -3.50401 0
M  V30 2008 N 192.153 1.28127 0.917671 0
M  V30 2009 C 193.381 1.17892 1.70026 0
M  V30 2010 C 193.796 -0.262958 1.8696 0
M  V30 2011 O 193.153 -1.17811 1.3938 0
M  V30 2012 C 193.204 1.86872 3.09453 0
M  V30 2013 O 192.925 3.25428 2.93306 0
M  V30 2014 C 194.426 1.8289 4.03815 0
M  V30 2015 H 191.646 0.40942 0.531617 0
M  V30 2016 H 194.19 1.69181 1.14883 0
M  V30 2017 H 192.345 1.39464 3.61426 0
M  V30 2018 H 192.759 3.59918 3.81523 0
M  V30 2019 H 194.233 2.35751 4.99125 0
M  V30 2020 H 194.71 0.800412 4.31845 0
M  V30 2021 H 195.316 2.29959 3.57769 0
M  V30 2022 N 193.631 -1.12557 1.10312 0
M  V30 2023 C 194.563 -2.17971 0.708625 0
M  V30 2024 C 195.576 -1.60806 -0.254027 0
M  V30 2025 O 196.765 -1.78458 -0.0386891 0
M  V30 2026 C 193.865 -3.38891 0.0248198 0
M  V30 2027 C 193.038 -4.25548 1.01132 0
M  V30 2028 C 192.097 -5.24972 0.35924 0
M  V30 2029 O 191.123 -5.60174 1.00965 0
M  V30 2030 N 192.325 -5.73747 -0.882847 0
M  V30 2031 H 195.09 -2.52427 1.61557 0
M  V30 2032 H 192.651 -1.27967 0.991771 0
M  V30 2033 H 194.643 -4.02485 -0.422852 0
M  V30 2034 H 193.213 -3.02596 -0.784514 0
M  V30 2035 H 192.433 -3.58589 1.6373 0
M  V30 2036 H 193.721 -4.80294 1.67914 0
M  V30 2037 H 193.119 -5.4731 -1.43065 0
M  V30 2038 H 191.676 -6.39234 -1.27369 0
M  V30 2039 N 195.109 -0.891671 -1.2995 0
M  V30 2040 C 196.337 -0.52866 -2.00032 0
M  V30 2041 C 196.752 0.884574 -1.66795 0
M  V30 2042 O 196.109 1.5827 -0.908669 0
M  V30 2043 C 196.16 -0.701814 -3.54622 0
M  V30 2044 O 195.881 -2.05942 -3.86678 0
M  V30 2045 C 197.382 -0.342683 -4.41973 0
M  V30 2046 H 194.602 -0.203659 -0.639347 0
M  V30 2047 H 197.146 -1.19881 -1.65677 0
M  V30 2048 H 195.301 -0.0789468 -3.8732 0
M  V30 2049 H 195.715 -2.08291 -4.81368 0
M  V30 2050 H 197.189 -0.514709 -5.49595 0
M  V30 2051 H 197.666 0.71975 -4.33262 0
M  V30 2052 H 198.272 -0.942154 -4.14733 0
M  V30 2053 N 196.587 1.43421 -0.653314 0
M  V30 2054 C 197.815 2.06163 -0.174491 0
M  V30 2055 C 198.23 1.48969 1.1599 0
M  V30 2056 O 197.587 0.621042 1.71608 0
M  V30 2057 C 197.638 3.61417 -0.0774865 0
M  V30 2058 O 197.359 4.16485 -1.35912 0
M  V30 2059 C 198.86 4.41235 0.427402 0
M  V30 2060 H 196.08 0.664946 -0.0899353 0
M  V30 2061 H 198.624 1.83924 -0.893988 0
M  V30 2062 H 196.779 3.82841 0.59257 0
M  V30 2063 H 197.193 5.10153 -1.21839 0
M  V30 2064 H 198.667 5.5021 0.44423 0
M  V30 2065 H 199.144 4.14268 1.45873 0
M  V30 2066 H 199.75 4.2478 -0.210167 0
M  V30 2067 N 198.065 0.39524 1.52563 0
M  V30 2068 C 199.314 -0.186321 2.00838 0
M  V30 2069 C 199.627 -1.47402 1.28577 0
M  V30 2070 O 200.833 -2.13599 1.67593 0
M  V30 2071 C 199.289 -0.382595 3.57861 0
M  V30 2072 C 198.897 0.892202 4.39026 0
M  V30 2073 C 200.641 -0.9202 4.14406 0
M  V30 2074 C 198.548 0.66388 5.87662 0
M  V30 2075 H 197.478 -0.0734041 0.750418 0
M  V30 2076 H 200.129 0.518552 1.76021 0
M  V30 2077 H 198.511 -1.14946 3.7895 0
M  V30 2078 H 199.685 1.66414 4.29701 0
M  V30 2079 H 198 1.35519 3.9373 0
M  V30 2080 H 200.597 -1.10683 5.23119 0
M  V30 2081 H 200.94 -1.89096 3.70875 0
M  V30 2082 H 201.473 -0.212751 3.97231 0
M  V30 2083 H 198.212 1.6058 6.35527 0
M  V30 2084 H 197.732 -0.0690193 5.9976 0
M  V30 2085 H 199.411 0.300699 6.46301 0
M  V30 2086 N 199.544 -1.57102 0.125237 0
M  V30 2087 C 200.792 -1.95021 -0.530198 0
M  V30 2088 C 201.113 -1.00982 -1.66816 0
M  V30 2089 O 200.383 -0.0672693 -1.95784 0
M  V30 2090 H 198.963 -0.720046 -0.198853 0
M  V30 2091 H 201.625 -1.93916 0.19564 0
M  V30 2092 H 200.721 -2.98211 -0.920681 0
M  V30 2093 N 201.022 0.148545 -1.56898 0
M  V30 2094 C 202.252 0.875118 -1.8715 0
M  V30 2095 C 202.66 1.75322 -0.711262 0
M  V30 2096 O 202.003 1.80745 0.328151 0
M  V30 2097 C 202.065 1.7844 -3.12089 0
M  V30 2098 C 201.729 1.08361 -4.43967 0
M  V30 2099 C 202.726 0.438247 -5.1805 0
M  V30 2100 C 200.411 1.07358 -4.90693 0
M  V30 2101 C 202.405 -0.20779 -6.37061 0
M  V30 2102 C 200.092 0.42373 -6.09629 0
M  V30 2103 C 201.09 -0.215829 -6.82659 0
M  V30 2104 O 200.778 -0.855378 -7.99336 0
M  V30 2105 H 200.51 0.258504 -0.624621 0
M  V30 2106 H 203.064 0.14652 -2.04877 0
M  V30 2107 H 201.294 2.55389 -2.90367 0
M  V30 2108 H 202.983 2.38279 -3.286 0
M  V30 2109 H 203.749 0.437817 -4.8302 0
M  V30 2110 H 199.628 1.5608 -4.33774 0
M  V30 2111 H 203.172 -0.70758 -6.94002 0
M  V30 2112 H 199.069 0.421822 -6.4412 0
M  V30 2113 H 199.837 -0.756892 -8.14993 0
M  V30 2114 N 202.5 1.5196 0.417844 0
M  V30 2115 C 203.748 1.65263 1.16329 0
M  V30 2116 C 204.069 0.380634 1.91249 0
M  V30 2117 O 203.339 -0.604214 1.86349 0
M  V30 2118 H 201.919 0.60912 0.432414 0
M  V30 2119 H 204.581 1.88969 0.477162 0
M  V30 2120 H 203.677 2.4896 1.88217 0
M  V30 2121 N 203.978 -0.674533 1.42435 0
M  V30 2122 C 205.225 -1.43459 1.42919 0
M  V30 2123 C 205.553 -1.94446 0.0457312 0
M  V30 2124 O 204.808 -1.7132 -0.94593 0
M  V30 2125 C 205.107 -2.64767 2.40069 0
M  V30 2126 C 204.773 -2.3232 3.86443 0
M  V30 2127 C 203.435 -2.23182 4.26314 0
M  V30 2128 C 205.787 -2.05977 4.78773 0
M  V30 2129 C 203.115 -1.85827 5.56494 0
M  V30 2130 C 205.467 -1.70125 6.09295 0
M  V30 2131 C 204.131 -1.59498 6.48164 0
M  V30 2132 H 203.401 -0.524952 0.522978 0
M  V30 2133 H 206.048 -0.769097 1.75377 0
M  V30 2134 H 204.353 -3.36349 2.00939 0
M  V30 2135 H 206.05 -3.22949 2.37707 0
M  V30 2136 H 202.64 -2.40334 3.54877 0
M  V30 2137 H 206.824 -2.11969 4.48757 0
M  V30 2138 H 202.08 -1.76168 5.8547 0
M  V30 2139 H 206.254 -1.48767 6.80324 0
M  V30 2140 H 203.881 -1.30322 7.48946 0
M  V30 2141 N 205.456 -1.28612 -0.910864 0
M  V30 2142 C 206.872 -1.06381 -1.18976 0
M  V30 2143 C 207.072 0.191998 -2.00583 0
M  V30 2144 O 206.128 0.892869 -2.36187 0
M  V30 2145 C 207.441 -2.31295 -1.92154 0
M  V30 2146 C 208.989 -2.36503 -2.05025 0
M  V30 2147 C 209.464 -3.61191 -2.81612 0
M  V30 2148 N 210.955 -3.61847 -2.89172 0
M  V30 2149 C 211.69 -4.55004 -3.4894 0
M  V30 2150 N 211.186 -5.58482 -4.09963 0
M  V30 2151 N 212.979 -4.42594 -3.46506 0
M  V30 2152 H 205.13 -2.09221 -0.366094 0
M  V30 2153 H 207.393 -0.921003 -0.224629 0
M  V30 2154 H 207.099 -3.228 -1.39618 0
M  V30 2155 H 206.973 -2.37934 -2.9269 0
M  V30 2156 H 209.36 -1.45494 -2.5674 0
M  V30 2157 H 209.441 -2.33857 -1.03657 0
M  V30 2158 H 209.085 -4.52545 -2.30576 0
M  V30 2159 H 209.015 -3.61092 -3.83302 0
M  V30 2160 H 211.506 -2.87022 -2.45819 0
M  V30 2161 H 211.819 -6.25704 -4.53557 0
M  V30 2162 H 210.164 -5.62305 -4.08459 0
M  V30 2163 H 213.355 -3.60953 -2.98045 0
M  V30 2164 H 213.528 -5.15381 -3.92793 0
M  V30 2165 N 206.934 1.1197 -1.10907 0
M  V30 2166 C 208.174 1.85224 -0.864378 0
M  V30 2167 C 208.538 1.82411 0.599178 0
M  V30 2168 O 209.739 2.51057 0.960416 0
M  V30 2169 C 208.01 3.2868 -1.40371 0
M  V30 2170 S 209.569 4.1925 -1.29518 0
M  V30 2171 H 206.387 0.63878 -0.312219 0
M  V30 2172 H 208.989 1.3485 -1.41548 0
M  V30 2173 H 207.693 3.28289 -2.46281 0
M  V30 2174 H 207.224 3.84121 -0.849402 0
M  V30 2175 H 209.239 4.95539 -0.256059 0
M  V30 2176 N 208.412 0.89855 1.29475 0
M  V30 2177 C 209.658 0.524658 1.95896 0
M  V30 2178 C 209.991 -0.926468 1.70676 0
M  V30 2179 O 209.266 -1.65665 1.01908 0
M  V30 2180 C 209.549 0.81633 3.50725 0
M  V30 2181 C 209.402 2.31907 3.85408 0
M  V30 2182 C 210.721 0.302038 4.39062 0
M  V30 2183 H 207.84 0.19209 0.711527 0
M  V30 2184 H 210.482 1.12502 1.53112 0
M  V30 2185 H 208.632 0.305369 3.87298 0
M  V30 2186 H 210.304 2.89949 3.58786 0
M  V30 2187 H 208.547 2.78027 3.32992 0
M  V30 2188 H 209.218 2.47373 4.93468 0
M  V30 2189 H 211.694 0.739551 4.09475 0
M  V30 2190 H 210.57 0.535331 5.46283 0
M  V30 2191 H 210.831 -0.797216 4.34853 0
M  V30 2192 N 209.89 -1.43072 0.660911 0
M  V30 2193 C 211.118 -2.06067 0.185422 0
M  V30 2194 C 211.533 -1.49582 -1.15198 0
M  V30 2195 O 210.89 -0.630134 -1.71276 0
M  V30 2196 C 210.941 -3.61371 0.0966523 0
M  V30 2197 O 210.662 -4.15758 1.38119 0
M  V30 2198 C 212.163 -4.41455 -0.403996 0
M  V30 2199 H 209.383 -0.664459 0.0934604 0
M  V30 2200 H 211.927 -1.83447 0.90373 0
M  V30 2201 H 210.082 -3.8315 -0.572259 0
M  V30 2202 H 210.496 -5.09499 1.24542 0
M  V30 2203 H 211.97 -5.50437 -0.415045 0
M  V30 2204 H 212.447 -4.15036 -1.43674 0
M  V30 2205 H 213.053 -4.24663 0.232691 0
M  V30 2206 N 211.368 -0.403325 -1.52352 0
M  V30 2207 C 212.278 0.432009 -2.30588 0
M  V30 2208 C 213.294 1.05884 -1.38075 0
M  V30 2209 O 214.47 1.06161 -1.71148 0
M  V30 2210 C 211.535 1.53669 -3.10784 0
M  V30 2211 C 210.596 0.933525 -4.19027 0
M  V30 2212 C 209.829 1.98557 -4.9539 0
M  V30 2213 O 210.052 3.20283 -4.71991 0
M  V30 2214 O 208.986 1.59504 -5.80381 0
M  V30 2215 H 212.812 -0.205739 -3.03002 0
M  V30 2216 H 210.397 -0.166675 -1.48467 0
M  V30 2217 H 212.279 2.17814 -3.60742 0
M  V30 2218 H 210.954 2.15915 -2.41169 0
M  V30 2219 H 209.861 0.254954 -3.7323 0
M  V30 2220 H 211.194 0.35508 -4.90918 0
M  V30 2221 N 212.846 1.57033 -0.133567 0
M  V30 2222 C 213.756 2.19632 0.824564 0
M  V30 2223 C 214.772 1.17666 1.28182 0
M  V30 2224 O 215.948 1.50193 1.3418 0
M  V30 2225 C 213.013 2.79499 2.05137 0
M  V30 2226 C 212.074 3.96548 1.64464 0
M  V30 2227 C 211.307 4.5355 2.81297 0
M  V30 2228 O 211.53 4.09438 3.97136 0
M  V30 2229 O 210.464 5.44018 2.57542 0
M  V30 2230 H 214.29 3.01991 0.321766 0
M  V30 2231 H 211.875 1.49112 0.0927889 0
M  V30 2232 H 213.757 3.17602 2.7696 0
M  V30 2233 H 212.432 2.00162 2.54395 0
M  V30 2234 H 211.339 3.63186 0.897048 0
M  V30 2235 H 212.672 4.77364 1.19934 0
M  V30 2236 N 214.325 -0.140222 1.56975 0
M  V30 2237 C 215.565 -0.857823 1.85528 0
M  V30 2238 C 215.929 -1.78039 0.718768 0
M  V30 2239 O 217.13 -2.53795 0.885521 0
M  V30 2240 C 215.401 -1.60615 3.19277 0
M  V30 2241 S 216.96 -2.36824 3.69405 0
M  V30 2242 H 213.778 -0.286727 0.650622 0
M  V30 2243 H 216.38 -0.117408 1.95147 0
M  V30 2244 H 215.084 -0.919994 3.99955 0
M  V30 2245 H 214.615 -2.38735 3.12681 0
M  V30 2246 H 216.63 -3.62148 3.3921 0
M  V30 2247 N 215.803 -1.52179 -0.40978 0
M  V30 2248 C 217.214 -1.58377 -0.988615 0
M  V30 2249 C 217.565 -0.423879 -1.91566 0
M  V30 2250 O 216.69 0.455844 -2.11544 0
M  V30 2251 C 217.285 -2.87044 -1.79976 0
M  V30 2252 C 215.844 -2.95722 -2.32863 0
M  V30 2253 C 214.991 -2.53309 -1.12828 0
M  V30 2254 H 217.942 -1.57558 -0.190039 0
M  V30 2255 H 217.963 -2.7236 -2.65707 0
M  V30 2256 H 217.475 -3.71444 -1.12478 0
M  V30 2257 H 215.576 -2.15814 -3.03735 0
M  V30 2258 H 215.689 -3.99951 -2.63773 0
M  V30 2259 H 214.053 -2.07142 -1.48204 0
M  V30 2260 H 214.836 -3.40082 -0.46897 0
M  V30 2261 N 217.281 0.66697 -1.42791 0
M  V30 2262 C 218.211 1.79218 -1.49677 0
M  V30 2263 C 219.192 1.66405 -0.352623 0
M  V30 2264 O 220.377 1.85708 -0.567993 0
M  V30 2265 C 217.507 3.17565 -1.40605 0
M  V30 2266 C 216.461 3.45124 -2.53127 0
M  V30 2267 C 215.787 4.83127 -2.29112 0
M  V30 2268 C 217.087 3.41236 -3.95418 0
M  V30 2269 H 218.781 1.73713 -2.43853 0
M  V30 2270 H 216.327 0.83432 -1.17367 0
M  V30 2271 H 218.28 3.96022 -1.44029 0
M  V30 2272 H 217.004 3.23767 -0.429271 0
M  V30 2273 H 215.663 2.69031 -2.49034 0
M  V30 2274 H 215.311 4.85988 -1.29709 0
M  V30 2275 H 215.011 5.02528 -3.04531 0
M  V30 2276 H 216.535 5.63859 -2.34297 0
M  V30 2277 H 217.949 4.09651 -4.01073 0
M  V30 2278 H 216.346 3.72173 -4.70752 0
M  V30 2279 H 217.416 2.39665 -4.21532 0
M  V30 2280 N 218.759 1.29093 0.90403 0
M  V30 2281 C 219.722 1.1386 1.98919 0
M  V30 2282 C 220.722 0.0753457 1.60623 0
M  V30 2283 O 221.912 0.321931 1.71199 0
M  V30 2284 C 219.044 0.740198 3.32767 0
M  V30 2285 H 220.237 2.10246 2.13861 0
M  V30 2286 H 217.79 1.12218 1.08797 0
M  V30 2287 H 218.525 -0.223997 3.23525 0
M  V30 2288 H 218.31 1.50838 3.61926 0
M  V30 2289 H 219.8 0.656546 4.12407 0
M  V30 2290 N 220.237 -1.11381 1.11499 0
M  V30 2291 C 221.483 -1.83403 0.865512 0
M  V30 2292 C 221.816 -1.84459 -0.607329 0
M  V30 2293 O 221.091 -1.29811 -1.44842 0
M  V30 2294 C 221.374 -3.30552 1.42855 0
M  V30 2295 C 221.227 -3.37886 2.96906 0
M  V30 2296 C 222.546 -4.26643 1.08 0
M  V30 2297 H 219.665 -0.665879 0.31587 0
M  V30 2298 H 222.307 -1.30601 1.37998 0
M  V30 2299 H 220.457 -3.75648 0.990985 0
M  V30 2300 H 222.129 -3.01343 3.49271 0
M  V30 2301 H 220.372 -2.78088 3.32941 0
M  V30 2302 H 221.043 -4.41458 3.31389 0
M  V30 2303 H 223.519 -3.89729 1.45775 0
M  V30 2304 H 222.395 -5.27986 1.50072 0
M  V30 2305 H 222.656 -4.42099 -0.00915037 0
M  V30 2306 N 221.715 -0.905404 -1.28997 0
M  V30 2307 C 222.964 -0.530191 -1.94607 0
M  V30 2308 C 223.277 0.929185 -1.72121 0
M  V30 2309 O 224.483 1.41218 -2.31883 0
M  V30 2310 C 222.939 -0.897333 -3.48534 0
M  V30 2311 C 222.547 -2.37587 -3.79811 0
M  V30 2312 C 224.291 -0.592304 -4.20347 0
M  V30 2313 C 222.198 -2.68357 -5.27009 0
M  V30 2314 H 221.128 -0.194558 -0.728466 0
M  V30 2315 H 223.779 -1.10318 -1.46636 0
M  V30 2316 H 222.161 -0.253214 -3.9519 0
M  V30 2317 H 223.335 -3.06602 -3.43994 0
M  V30 2318 H 221.65 -2.6505 -3.2115 0
M  V30 2319 H 224.247 -0.798975 -5.28697 0
M  V30 2320 H 224.59 0.469474 -4.13644 0
M  V30 2321 H 225.123 -1.19452 -3.79442 0
M  V30 2322 H 221.862 -3.73355 -5.38782 0
M  V30 2323 H 221.382 -2.03971 -5.64053 0
M  V30 2324 H 223.061 -2.54922 -5.94663 0
M  V30 2325 N 223.193 1.4272 -0.668489 0
M  V30 2326 C 224.156 2.292 0.00448567 0
M  V30 2327 C 225.156 1.43001 0.735339 0
M  V30 2328 O 226.346 1.64461 0.57429 0
M  V30 2329 C 223.478 3.25375 1.01705 0
M  V30 2330 H 224.671 2.90199 -0.756608 0
M  V30 2331 H 222.224 1.50254 -0.430506 0
M  V30 2332 H 222.959 2.69301 1.80686 0
M  V30 2333 H 222.744 3.88944 0.496463 0
M  V30 2334 H 224.234 3.90245 1.48655 0
M  V30 2335 N 224.671 0.411399 1.52136 0
M  V30 2336 C 225.917 -0.163888 2.02137 0
M  V30 2337 C 226.25 -1.44597 1.29636 0
M  V30 2338 O 225.525 -1.90272 0.403353 0
M  V30 2339 C 225.808 -0.40927 3.57767 0
M  V30 2340 C 225.661 0.889643 4.40914 0
M  V30 2341 C 226.98 -1.19042 4.23694 0
M  V30 2342 H 224.099 -0.0580896 0.734707 0
M  V30 2343 H 226.741 0.54531 1.82007 0
M  V30 2344 H 224.891 -1.0134 3.7505 0
M  V30 2345 H 226.563 1.52575 4.35337 0
M  V30 2346 H 224.806 1.50011 4.07037 0
M  V30 2347 H 225.477 0.672314 5.4789 0
M  V30 2348 H 227.953 -0.678942 4.10524 0
M  V30 2349 H 226.829 -1.33086 5.32522 0
M  V30 2350 H 227.09 -2.21166 3.82803 0
M  V30 2351 N 226.149 -1.5696 0.141893 0
M  V30 2352 C 227.395 -1.9625 -0.511248 0
M  V30 2353 C 227.728 -1.02654 -1.64851 0
M  V30 2354 O 227.003 -0.0679676 -1.94381 0
M  V30 2355 C 227.286 -3.45285 -1.02227 0
M  V30 2356 C 227.139 -4.49658 0.113138 0
M  V30 2357 C 228.458 -3.96698 -1.90574 0
M  V30 2358 H 225.577 -0.713567 -0.184367 0
M  V30 2359 H 228.219 -1.88698 0.222087 0
M  V30 2360 H 226.369 -3.51852 -1.64719 0
M  V30 2361 H 228.041 -4.55174 0.749302 0
M  V30 2362 H 226.284 -4.26857 0.773026 0
M  V30 2363 H 226.955 -5.51258 -0.286053 0
M  V30 2364 H 229.431 -3.92578 -1.37918 0
M  V30 2365 H 228.307 -5.01453 -2.2324 0
M  V30 2366 H 228.568 -3.3875 -2.84079 0
M  V30 2367 N 227.627 0.131896 -1.57047 0
M  V30 2368 C 228.873 0.843179 -1.84441 0
M  V30 2369 C 229.206 1.80129 -0.725749 0
M  V30 2370 O 228.481 1.92624 0.269469 0
M  V30 2371 C 228.764 1.60442 -3.22382 0
M  V30 2372 C 228.617 0.666782 -4.4483 0
M  V30 2373 C 229.936 2.56354 -3.5773 0
M  V30 2374 H 227.055 0.305081 -0.670891 0
M  V30 2375 H 229.697 0.107839 -1.89694 0
M  V30 2376 H 227.847 2.23128 -3.18035 0
M  V30 2377 H 229.519 0.0497646 -4.61273 0
M  V30 2378 H 227.762 -0.022609 -4.33794 0
M  V30 2379 H 228.433 1.23579 -5.37989 0
M  V30 2380 H 230.909 2.0378 -3.62785 0
M  V30 2381 H 229.785 3.06657 -4.5525 0
M  V30 2382 H 230.046 3.38419 -2.84473 0
M  V30 2383 N 229.106 1.52395 0.401703 0
M  V30 2384 C 230.038 1.72505 1.50912 0
M  V30 2385 C 231.051 0.605468 1.51122 0
M  V30 2386 O 232.24 0.880828 1.55254 0
M  V30 2387 C 229.34 1.75711 2.89791 0
M  V30 2388 C 228.513 3.04824 3.1369 0
M  V30 2389 C 227.572 2.99743 4.32482 0
M  V30 2390 O 226.598 3.73635 4.29402 0
M  V30 2391 N 227.8 2.18047 5.37992 0
M  V30 2392 H 230.565 2.68049 1.34052 0
M  V30 2393 H 228.126 1.50724 0.591084 0
M  V30 2394 H 230.118 1.69834 3.6734 0
M  V30 2395 H 228.688 0.876092 3.00072 0
M  V30 2396 H 227.908 3.2429 2.24119 0
M  V30 2397 H 229.196 3.90221 3.26504 0
M  V30 2398 H 228.594 1.57456 5.43345 0
M  V30 2399 H 227.151 2.18021 6.14256 0
M  V30 2400 N 230.584 -0.659388 1.43143 0
M  V30 2401 C 231.809 -1.45221 1.48073 0
M  V30 2402 C 232.234 -1.87845 0.097995 0
M  V30 2403 O 231.592 -1.56985 -0.90694 0
M  V30 2404 C 231.64 -2.66748 2.42647 0
M  V30 2405 O 230.744 -3.65583 1.90848 0
M  V30 2406 H 230.085 -0.435669 0.501088 0
M  V30 2407 H 232.615 -0.807432 1.87994 0
M  V30 2408 H 232.625 -3.14637 2.59745 0
M  V30 2409 H 231.3 -2.35067 3.43098 0
M  V30 2410 H 229.877 -3.24693 1.83381 0
M  V30 2411 N 232.062 -1.29571 -0.897171 0
M  V30 2412 C 233.311 -1.1706 -1.64256 0
M  V30 2413 C 233.624 0.276476 -1.93636 0
M  V30 2414 O 234.83 0.52294 -2.66416 0
M  V30 2415 C 233.286 -2.0475 -2.95982 0
M  V30 2416 C 232.894 -3.54295 -2.74187 0
M  V30 2417 C 234.638 -2.0097 -3.73914 0
M  V30 2418 C 232.545 -4.34081 -4.01656 0
M  V30 2419 H 231.475 -0.43452 -0.616205 0
M  V30 2420 H 234.126 -1.54229 -0.994268 0
M  V30 2421 H 232.508 -1.60452 -3.62038 0
M  V30 2422 H 233.682 -4.06662 -2.1671 0
M  V30 2423 H 231.997 -3.59773 -2.09648 0
M  V30 2424 H 234.594 -2.57838 -4.68427 0
M  V30 2425 H 234.937 -0.990273 -4.0435 0
M  V30 2426 H 235.47 -2.43325 -3.14703 0
M  V30 2427 H 232.209 -5.36671 -3.76384 0
M  V30 2428 H 231.729 -3.86483 -4.58684 0
M  V30 2429 H 233.408 -4.44877 -4.69781 0
M  V30 2430 N 233.54 1.10788 -1.12088 0
M  V30 2431 C 234.786 1.82942 -0.875226 0
M  V30 2432 C 235.119 1.84779 0.597538 0
M  V30 2433 O 234.394 1.30578 1.44152 0
M  V30 2434 C 234.677 3.29789 -1.44606 0
M  V30 2435 C 234.53 3.36307 -2.98693 0
M  V30 2436 C 235.849 4.26064 -1.10261 0
M  V30 2437 H 232.968 0.664195 -0.319397 0
M  V30 2438 H 235.61 1.29867 -1.38689 0
M  V30 2439 H 233.76 3.75118 -1.01089 0
M  V30 2440 H 235.432 2.99487 -3.50864 0
M  V30 2441 H 233.675 2.76318 -3.34411 0
M  V30 2442 H 234.346 4.39694 -3.33726 0
M  V30 2443 H 236.822 3.88951 -1.4784 0
M  V30 2444 H 235.698 5.27183 -1.52869 0
M  V30 2445 H 235.959 4.42098 -0.0142953 0
M  V30 2446 N 235.018 0.912232 1.28515 0
M  V30 2447 C 236.266 0.543523 1.94654 0
M  V30 2448 C 236.587 -0.9155 1.72173 0
M  V30 2449 O 235.857 -1.64708 1.06058 0
M  V30 2450 H 234.437 0.198017 0.720277 0
M  V30 2451 H 237.099 1.16126 1.56527 0
M  V30 2452 H 236.195 0.736684 3.03281 0
M  V30 2453 N 236.496 -1.42363 0.676048 0
M  V30 2454 C 237.736 -2.03392 0.20273 0
M  V30 2455 C 238.1 -1.52306 -1.16906 0
M  V30 2456 O 239.301 -2.05129 -1.73711 0
M  V30 2457 C 237.572 -3.56614 0.236947 0
M  V30 2458 S 239.131 -4.38489 -0.165186 0
M  V30 2459 H 235.949 -0.70611 0.0832418 0
M  V30 2460 H 238.551 -1.74093 0.88948 0
M  V30 2461 H 237.255 -3.91293 1.23767 0
M  V30 2462 H 236.786 -3.90587 -0.469596 0
M  V30 2463 H 238.801 -4.76093 -1.39822 0
M  V30 2464 N 237.974 -0.419461 -1.51915 0
M  V30 2465 C 239.22 0.153166 -2.02221 0
M  V30 2466 C 239.553 1.43907 -1.30401 0
M  V30 2467 O 238.828 1.90055 -0.413438 0
M  V30 2468 C 239.111 0.390291 -3.57979 0
M  V30 2469 C 238.964 -0.913014 -4.40436 0
M  V30 2470 C 240.283 1.16794 -4.2432 0
M  V30 2471 H 237.402 0.0541924 -0.735005 0
M  V30 2472 H 240.044 -0.554955 -1.81715 0
M  V30 2473 H 238.194 0.993491 -3.75582 0
M  V30 2474 H 239.866 -1.54882 -4.34522 0
M  V30 2475 H 238.109 -1.52168 -4.06236 0
M  V30 2476 H 238.78 -0.701361 -5.47526 0
M  V30 2477 H 241.256 0.657161 -4.10878 0
M  V30 2478 H 240.132 1.3026 -5.3322 0
M  V30 2479 H 240.393 2.19132 -3.83971 0
M  V30 2480 N 239.452 1.56882 -0.150215 0
M  V30 2481 C 240.701 1.95403 0.500071 0
M  V30 2482 C 241.014 1.03777 1.658 0
M  V30 2483 O 242.22 1.31889 2.37313 0
M  V30 2484 C 240.676 3.4738 0.941018 0
M  V30 2485 C 240.284 4.47596 -0.190158 0
M  V30 2486 C 242.028 3.9476 1.56091 0
M  V30 2487 C 239.935 5.90787 0.269237 0
M  V30 2488 H 238.865 0.729515 0.190588 0
M  V30 2489 H 241.516 1.81988 -0.235074 0
M  V30 2490 H 239.898 3.56138 1.73152 0
M  V30 2491 H 241.072 4.50536 -0.967157 0
M  V30 2492 H 239.387 4.10151 -0.718666 0
M  V30 2493 H 241.984 4.99181 1.9163 0
M  V30 2494 H 242.327 3.36494 2.45107 0
M  V30 2495 H 242.86 3.88932 0.835249 0
M  V30 2496 H 239.599 6.52879 -0.585621 0
M  V30 2497 H 239.119 5.912 1.01204 0
M  V30 2498 H 240.798 6.42979 0.720176 0
M  V30 2499 N 240.93 -0.123565 1.57115 0
M  V30 2500 C 242.207 -0.862196 1.75572 0
M  V30 2501 C 242.587 -1.98279 0.724475 0
M  V30 2502 O 241.935 -2.27102 -0.252407 0
M  V30 2503 C 242.145 -1.38309 3.20424 0
M  V30 2504 C 243.493 -1.83724 3.82793 0
M  V30 2505 O 244.517 -1.47999 3.23998 0
M  V30 2506 O 243.376 -2.49685 4.86127 0
M  V30 2507 H 240.47 -0.409113 0.718718 0
M  V30 2508 H 243.016 -0.107661 1.69358 0
M  V30 2509 H 241.788 -0.578889 3.86994 0
M  V30 2510 H 241.411 -2.20046 3.31158 0
M  V30 2511 N 242.408 -1.52605 -0.393616 0
M  V30 2512 C 243.633 -1.71592 -1.16495 0
M  V30 2513 C 244.058 -0.43133 -1.83088 0
M  V30 2514 O 243.416 0.612523 -1.7064 0
M  V30 2515 C 243.464 -2.86318 -2.19213 0
M  V30 2516 O 242.568 -2.52969 -3.257 0
M  V30 2517 H 241.909 -0.570734 -0.33935 0
M  V30 2518 H 244.439 -1.99377 -0.459324 0
M  V30 2519 H 244.449 -3.1168 -2.63286 0
M  V30 2520 H 243.124 -3.79511 -1.7013 0
M  V30 2521 H 241.701 -2.38332 -2.86797 0
M  V30 2522 N 243.887 0.651787 -1.4349 0
M  V30 2523 C 245.134 1.41167 -1.45183 0
M  V30 2524 C 245.462 1.94349 -0.0766601 0
M  V30 2525 O 244.717 1.72804 0.918555 0
M  V30 2526 C 245.016 2.60914 -2.44251 0
M  V30 2527 C 244.682 2.26142 -3.9009 0
M  V30 2528 C 243.344 2.16371 -4.2981 0
M  V30 2529 C 245.696 1.98334 -4.81989 0
M  V30 2530 C 243.024 1.7695 -5.5938 0
M  V30 2531 C 245.376 1.6041 -6.11924 0
M  V30 2532 C 244.04 1.49166 -6.5062 0
M  V30 2533 H 243.31 0.516566 -0.531263 0
M  V30 2534 H 245.957 0.741099 -1.76579 0
M  V30 2535 H 244.262 3.3311 -2.06265 0
M  V30 2536 H 245.959 3.19127 -2.42815 0
M  V30 2537 H 242.549 2.34658 -3.58655 0
M  V30 2538 H 246.733 2.04803 -4.52072 0
M  V30 2539 H 241.989 1.66831 -5.88198 0
M  V30 2540 H 246.163 1.37925 -6.82605 0
M  V30 2541 H 243.79 1.1839 -7.50925 0
M  V30 2542 N 245.365 1.30045 0.890287 0
M  V30 2543 C 246.298 1.10301 1.99772 0
M  V30 2544 C 247.276 0.0121631 1.62595 0
M  V30 2545 O 248.46 0.16469 1.87779 0
M  V30 2546 C 245.587 0.681125 3.31781 0
M  V30 2547 C 244.633 1.77206 3.87944 0
M  V30 2548 S 245.466 3.37335 4.15891 0
M  V30 2549 C 246.622 2.97036 5.50927 0
M  V30 2550 H 246.855 2.04057 2.16213 0
M  V30 2551 H 244.388 1.14299 1.03804 0
M  V30 2552 H 246.346 0.444439 4.08087 0
M  V30 2553 H 245.007 -0.236981 3.13205 0
M  V30 2554 H 244.2 1.42903 4.83316 0
M  V30 2555 H 243.802 1.96275 3.18358 0
M  V30 2556 H 246.094 2.44666 6.31779 0
M  V30 2557 H 247.037 3.91296 5.90164 0
M  V30 2558 H 247.445 2.35057 5.13233 0
M  V30 2559 N 246.843 -1.10192 1.12674 0
M  V30 2560 C 248.092 -1.81573 0.8783 0
M  V30 2561 C 248.405 -1.86249 -0.597557 0
M  V30 2562 O 249.611 -2.5386 -0.962681 0
M  V30 2563 C 248.067 -3.26149 1.52167 0
M  V30 2564 C 247.675 -3.29763 3.03249 0
M  V30 2565 C 249.419 -4.0234 1.3536 0
M  V30 2566 C 247.326 -4.68815 3.60508 0
M  V30 2567 H 246.256 -0.680394 0.324931 0
M  V30 2568 H 248.907 -1.23902 1.35353 0
M  V30 2569 H 247.289 -3.83832 0.974104 0
M  V30 2570 H 248.463 -2.8189 3.6452 0
M  V30 2571 H 246.778 -2.67059 3.19481 0
M  V30 2572 H 249.375 -5.05058 1.75559 0
M  V30 2573 H 249.718 -4.15235 0.297554 0
M  V30 2574 H 250.251 -3.51079 1.87052 0
M  V30 2575 H 246.99 -4.61121 4.65884 0
M  V30 2576 H 246.51 -5.17045 3.04014 0
M  V30 2577 H 248.189 -5.37785 3.59717 0
M  V30 2578 N 248.321 -0.919034 -1.28029 0
M  V30 2579 C 249.569 -0.553838 -1.94363 0
M  V30 2580 C 249.89 0.906357 -1.72656 0
M  V30 2581 O 249.16 1.64143 -1.0693 0
M  V30 2582 H 247.74 -0.201834 -0.719216 0
M  V30 2583 H 250.402 -1.16954 -1.55909 0
M  V30 2584 H 249.498 -0.752758 -3.02886 0
M  V30 2585 N 249.799 1.42003 -0.683588 0
M  V30 2586 C 251.027 2.05746 -0.218182 0
M  V30 2587 C 251.442 1.51396 1.12804 0
M  V30 2588 O 250.799 0.657303 1.70252 0
M  V30 2589 C 250.85 3.61171 -0.154131 0
M  V30 2590 O 250.571 4.13508 -1.44716 0
M  V30 2591 C 252.072 4.42042 0.333713 0
M  V30 2592 H 249.292 0.662888 -0.10402 0
M  V30 2593 H 251.836 1.81987 -0.9328 0
M  V30 2594 H 249.991 3.84012 0.511231 0
M  V30 2595 H 250.405 5.07453 -1.32632 0
M  V30 2596 H 251.879 5.51028 0.327423 0
M  V30 2597 H 252.356 4.17269 1.37053 0
M  V30 2598 H 252.962 4.24239 -0.300222 0
M  V30 2599 N 251.277 0.427512 1.51691 0
M  V30 2600 C 252.526 -0.143679 2.01188 0
M  V30 2601 C 252.839 -1.44642 1.31674 0
M  V30 2602 O 254.045 -2.09997 1.72086 0
M  V30 2603 C 252.501 -0.306602 3.58592 0
M  V30 2604 C 252.109 0.985125 4.37035 0
M  V30 2605 C 253.853 -0.832091 4.16265 0
M  V30 2606 C 251.76 0.788382 5.86122 0
M  V30 2607 H 250.69 -0.0574701 0.751807 0
M  V30 2608 H 253.341 0.555772 1.74881 0
M  V30 2609 H 251.723 -1.06882 3.81303 0
M  V30 2610 H 252.897 1.75492 4.26074 0
M  V30 2611 H 251.212 1.4384 3.90767 0
M  V30 2612 H 253.809 -0.995617 5.25349 0
M  V30 2613 H 254.152 -1.81186 3.74803 0
M  V30 2614 H 254.685 -0.128444 3.97593 0
M  V30 2615 H 251.424 1.74025 6.31978 0
M  V30 2616 H 250.944 0.0582143 5.99772 0
M  V30 2617 H 252.623 0.437722 6.45518 0
M  V30 2618 N 252.755 -1.56801 0.158532 0
M  V30 2619 C 253.688 -2.13148 -0.815065 0
M  V30 2620 C 254.666 -1.0581 -1.23462 0
M  V30 2621 O 255.85 -1.3371 -1.32868 0
M  V30 2622 C 252.977 -2.6606 -2.09594 0
M  V30 2623 C 252.023 -3.85651 -1.82141 0
M  V30 2624 S 252.856 -5.26041 -1.00207 0
M  V30 2625 C 254.012 -5.8235 -2.29389 0
M  V30 2626 H 254.245 -2.95396 -0.335937 0
M  V30 2627 H 251.778 -1.54299 -0.0559391 0
M  V30 2628 H 253.736 -2.97195 -2.8317 0
M  V30 2629 H 252.397 -1.83921 -2.54621 0
M  V30 2630 H 251.59 -4.20958 -2.77147 0
M  V30 2631 H 251.192 -3.55338 -1.16667 0
M  V30 2632 H 253.484 -5.94485 -3.24952 0
M  V30 2633 H 254.427 -6.79688 -1.9857 0
M  V30 2634 H 254.835 -5.10675 -2.40564 0
M  V30 2635 N 254.233 0.115231 -1.57178 0
M  V30 2636 C 255.196 1.12526 -1.99676 0
M  V30 2637 C 256.196 1.34095 -0.88742 0
M  V30 2638 O 257.386 1.30548 -1.15337 0
M  V30 2639 C 254.518 2.4789 -2.34015 0
M  V30 2640 H 255.711 0.759912 -2.90113 0
M  V30 2641 H 253.264 0.359648 -1.52106 0
M  V30 2642 H 253.999 2.89339 -1.4647 0
M  V30 2643 H 253.784 2.33588 -3.14927 0
M  V30 2644 H 255.274 3.20575 -2.67622 0
M  V30 2645 N 255.711 1.52812 0.385517 0
M  V30 2646 C 256.658 1.77838 1.47113 0
M  V30 2647 C 257.628 0.621757 1.54024 0
M  V30 2648 O 258.813 0.861846 1.70226 0
M  V30 2649 C 255.953 1.95618 2.84302 0
M  V30 2650 C 255.066 3.23316 2.86515 0
M  V30 2651 C 254.201 3.31394 4.15152 0
M  V30 2652 C 253.24 4.53201 4.1143 0
M  V30 2653 N 252.377 4.58542 5.3168 0
M  V30 2654 H 257.217 2.70482 1.25073 0
M  V30 2655 H 254.754 1.34006 0.606692 0
M  V30 2656 H 256.712 2.03912 3.63972 0
M  V30 2657 H 255.342 1.06331 3.04784 0
M  V30 2658 H 254.394 3.24076 1.99195 0
M  V30 2659 H 255.706 4.13045 2.79634 0
M  V30 2660 H 254.86 3.3889 5.03228 0
M  V30 2661 H 253.599 2.39645 4.24761 0
M  V30 2662 H 252.604 4.45827 3.21742 0
M  V30 2663 H 253.829 5.46271 4.03442 0
M  V30 2664 H 251.775 3.69686 5.41912 0
M  V30 2665 H 251.692 5.42148 5.26889 0
M  V30 2666 H 252.96 4.70296 6.21644 0
M  V30 2667 N 257.189 -0.644168 1.43834 0
M  V30 2668 C 258.122 -1.76906 1.44151 0
M  V30 2669 C 259.1 -1.59774 0.301857 0
M  V30 2670 O 260.284 -1.81834 0.496841 0
M  V30 2671 C 257.411 -3.14321 1.26174 0
M  V30 2672 C 256.457 -3.50134 2.43533 0
M  V30 2673 S 257.29 -3.49085 4.06079 0
M  V30 2674 C 258.446 -4.89142 3.90501 0
M  V30 2675 H 258.679 -1.76368 2.39336 0
M  V30 2676 H 256.212 -0.817624 1.30974 0
M  V30 2677 H 258.17 -3.93625 1.16489 0
M  V30 2678 H 256.831 -3.12412 0.325224 0
M  V30 2679 H 256.024 -4.50095 2.26783 0
M  V30 2680 H 255.626 -2.78264 2.4989 0
M  V30 2681 H 257.918 -5.78036 3.53385 0
M  V30 2682 H 258.861 -5.10945 4.90246 0
M  V30 2683 H 259.269 -4.63102 3.22795 0
M  V30 2684 N 258.668 -1.30515 -0.883378 0
M  V30 2685 C 259.631 -1.1701 -1.97082 0
M  V30 2686 C 260.631 -0.10089 -1.60483 0
M  V30 2687 O 261.821 -0.349127 -1.70666 0
M  V30 2688 C 258.953 -0.793045 -3.31547 0
M  V30 2689 H 260.146 -2.13622 -2.10489 0
M  V30 2690 H 257.699 -1.13935 -1.06998 0
M  V30 2691 H 258.434 0.172499 -3.23841 0
M  V30 2692 H 258.219 -1.56576 -3.5948 0
M  V30 2693 H 259.709 -0.722073 -4.1131 0
M  V30 2694 N 260.146 1.09593 -1.13257 0
M  V30 2695 C 261.562 1.33775 -0.870423 0
M  V30 2696 C 261.762 1.95327 0.494926 0
M  V30 2697 O 260.818 2.19853 1.2418 0
M  V30 2698 C 262.131 2.25106 -1.99369 0
M  V30 2699 C 263.679 2.3862 -2.02558 0
M  V30 2700 C 264.154 3.33285 -3.14142 0
M  V30 2701 N 265.645 3.40857 -3.13641 0
M  V30 2702 C 266.38 4.14101 -3.96621 0
M  V30 2703 N 265.876 4.90157 -4.8961 0
M  V30 2704 N 267.669 4.09808 -3.84726 0
M  V30 2705 H 259.82 0.680136 -2.01216 0
M  V30 2706 H 262.083 0.362133 -0.876107 0
M  V30 2707 H 261.789 1.87103 -2.97801 0
M  V30 2708 H 261.663 3.25481 -1.90635 0
M  V30 2709 H 264.05 2.75887 -1.0474 0
M  V30 2710 H 264.131 1.38028 -2.15364 0
M  V30 2711 H 263.775 2.96741 -4.12198 0
M  V30 2712 H 263.705 4.33776 -2.98574 0
M  V30 2713 H 266.196 2.86624 -2.46282 0
M  V30 2714 H 266.509 5.4347 -5.49418 0
M  V30 2715 H 264.854 4.89251 -4.93617 0
M  V30 2716 H 268.045 3.4949 -3.11408 0
M  V30 2717 H 268.218 4.66629 -4.49623 0
M  V30 2718 N 261.624 0.925811 1.2754 0
M  V30 2719 C 263.035 0.610102 1.7645 0
M  V30 2720 C 263.386 -0.874723 1.75622 0
M  V30 2721 O 262.511 -1.68444 1.35851 0
M  V30 2722 C 263.106 1.10073 3.20421 0
M  V30 2723 C 261.665 0.835723 3.67005 0
M  V30 2724 C 260.812 1.26054 2.46993 0
M  V30 2725 H 263.763 1.10579 1.13833 0
M  V30 2726 H 263.784 0.447557 3.77859 0
M  V30 2727 H 263.296 2.18143 3.20991 0
M  V30 2728 H 261.397 -0.231249 3.71882 0
M  V30 2729 H 261.51 1.45193 4.56569 0
M  V30 2730 H 259.874 0.679111 2.45479 0
M  V30 2731 H 260.657 2.34984 2.50275 0
M  V30 2732 N 263.102 -1.41638 0.69111 0
M  V30 2733 C 264.049 -2.30789 0.0229705 0
M  V30 2734 C 265.019 -1.46863 -0.775911 0
M  V30 2735 O 266.204 -1.75661 -0.74485 0
M  V30 2736 C 263.344 -3.32868 -0.910666 0
M  V30 2737 C 262.457 -4.31875 -0.103874 0
M  V30 2738 C 261.592 -5.21024 -1.03475 0
M  V30 2739 C 260.631 -6.11702 -0.220598 0
M  V30 2740 N 259.768 -6.93349 -1.10504 0
M  V30 2741 H 264.608 -2.87366 0.788978 0
M  V30 2742 H 262.145 -1.41535 0.400794 0
M  V30 2743 H 264.103 -3.90596 -1.46597 0
M  V30 2744 H 262.733 -2.77851 -1.64312 0
M  V30 2745 H 261.785 -3.76131 0.568285 0
M  V30 2746 H 263.097 -4.96003 0.527504 0
M  V30 2747 H 262.251 -5.83565 -1.65943 0
M  V30 2748 H 260.99 -4.57112 -1.69999 0
M  V30 2749 H 259.995 -5.48215 0.417187 0
M  V30 2750 H 261.22 -6.77668 0.440784 0
M  V30 2751 H 259.166 -6.3205 -1.75638 0
M  V30 2752 H 259.083 -7.54146 -0.529125 0
M  V30 2753 H 260.351 -7.60362 -1.71667 0
M  V30 2754 N 264.58 -0.43555 -1.51462 0
M  V30 2755 C 265.527 0.376797 -2.27703 0
M  V30 2756 C 266.497 1.01838 -1.31219 0
M  V30 2757 O 267.682 1.03762 -1.60119 0
M  V30 2758 C 264.822 1.47301 -3.12084 0
M  V30 2759 C 263.935 0.849744 -4.2356 0
M  V30 2760 C 263.07 1.92086 -4.95254 0
M  V30 2761 C 262.109 1.27593 -5.98654 0
M  V30 2762 N 261.246 2.28833 -6.63762 0
M  V30 2763 H 266.086 -0.279734 -2.96684 0
M  V30 2764 H 263.623 -0.149795 -1.46335 0
M  V30 2765 H 265.581 2.11984 -3.59331 0
M  V30 2766 H 264.211 2.0992 -2.45221 0
M  V30 2767 H 263.263 0.0912529 -3.80291 0
M  V30 2768 H 264.575 0.338878 -4.97648 0
M  V30 2769 H 263.729 2.64435 -5.46039 0
M  V30 2770 H 262.468 2.46545 -4.20793 0
M  V30 2771 H 261.473 0.537893 -5.47162 0
M  V30 2772 H 262.698 0.738693 -6.7507 0
M  V30 2773 H 260.644 2.82375 -5.92115 0
M  V30 2774 H 260.561 1.82632 -7.33608 0
M  V30 2775 H 261.829 3.00671 -7.19178 0
M  V30 2776 N 266.058 1.56714 -0.166846 0
M  V30 2777 C 267.474 1.58473 0.189372 0
M  V30 2778 C 267.674 1.18201 1.63189 0
M  V30 2779 O 266.73 0.891528 2.36237 0
M  V30 2780 C 268.043 3.00573 -0.0873872 0
M  V30 2781 C 269.591 3.1299 -0.0252443 0
M  V30 2782 C 270.066 4.57174 -0.274934 0
M  V30 2783 N 271.557 4.62665 -0.222553 0
M  V30 2784 C 272.292 5.72072 -0.389985 0
M  V30 2785 N 271.788 6.90054 -0.616229 0
M  V30 2786 N 273.581 5.61153 -0.326202 0
M  V30 2787 H 265.732 1.8118 -1.10849 0
M  V30 2788 H 267.995 0.839525 -0.440342 0
M  V30 2789 H 267.701 3.34497 -1.0865 0
M  V30 2790 H 267.575 3.72019 0.623037 0
M  V30 2791 H 269.962 2.78895 0.96444 0
M  V30 2792 H 270.043 2.43989 -0.768309 0
M  V30 2793 H 269.687 4.91976 -1.26181 0
M  V30 2794 H 269.617 5.24328 0.48869 0
M  V30 2795 H 272.108 3.77863 -0.0531512 0
M  V30 2796 H 272.421 7.69311 -0.733559 0
M  V30 2797 H 270.766 6.91927 -0.652791 0
M  V30 2798 H 273.957 4.67859 -0.150072 0
M  V30 2799 H 274.13 6.46364 -0.460116 0
M  V30 2800 N 267.536 -0.106894 1.57237 0
M  V30 2801 C 268.499 -1.11466 2.0027 0
M  V30 2802 C 269.499 -1.33623 0.894519 0
M  V30 2803 O 270.689 -1.29935 1.16028 0
M  V30 2804 C 267.821 -2.46646 2.35327 0
M  V30 2805 H 269.014 -0.744516 2.90512 0
M  V30 2806 H 266.567 -0.351576 1.52295 0
M  V30 2807 H 267.302 -2.88558 1.48003 0
M  V30 2808 H 267.087 -2.31915 3.16161 0
M  V30 2809 H 268.577 -3.19151 2.69318 0
M  V30 2810 N 269.014 -1.53014 -0.377408 0
M  V30 2811 C 269.946 -1.74884 -1.48149 0
M  V30 2812 C 270.959 -0.629433 -1.5014 0
M  V30 2813 O 272.148 -0.905416 -1.53833 0
M  V30 2814 C 269.248 -1.80299 -2.86959 0
M  V30 2815 C 268.421 -3.09776 -3.08801 0
M  V30 2816 C 267.48 -3.06586 -4.27658 0
M  V30 2817 O 266.506 -3.80419 -4.23403 0
M  V30 2818 N 267.708 -2.26578 -5.34455 0
M  V30 2819 H 270.473 -2.70147 -1.29771 0
M  V30 2820 H 268.034 -1.51646 -0.56703 0
M  V30 2821 H 270.026 -1.75657 -3.64591 0
M  V30 2822 H 268.596 -0.92372 -2.98641 0
M  V30 2823 H 267.816 -3.27815 -2.18931 0
M  V30 2824 H 269.104 -3.95366 -3.20255 0
M  V30 2825 H 268.502 -1.66081 -5.40771 0
M  V30 2826 H 267.059 -2.27766 -6.10709 0
M  V30 2827 N 270.492 0.636531 -1.44174 0
M  V30 2828 C 271.72 1.42353 -1.50144 0
M  V30 2829 C 272.135 1.88389 -0.124575 0
M  V30 2830 O 271.492 1.6051 0.868489 0
M  V30 2831 C 271.543 2.64744 -2.46156 0
M  V30 2832 O 271.264 2.20629 -3.7849 0
M  V30 2833 C 272.765 3.57929 -2.61537 0
M  V30 2834 H 269.985 0.436752 -0.5094 0
M  V30 2835 H 272.529 0.778933 -1.89084 0
M  V30 2836 H 270.684 3.25307 -2.10366 0
M  V30 2837 H 271.098 2.99938 -4.30276 0
M  V30 2838 H 272.572 4.40428 -3.32757 0
M  V30 2839 H 273.049 4.06382 -1.66585 0
M  V30 2840 H 273.655 3.03238 -2.98206 0
M  V30 2841 N 271.97 1.30982 0.876444 0
M  V30 2842 C 272.9 1.20668 1.99903 0
M  V30 2843 C 273.881 0.095354 1.69833 0
M  V30 2844 O 275.066 0.27885 1.92188 0
M  V30 2845 C 272.196 0.90655 3.3526 0
M  V30 2846 C 271.15 1.97675 3.79617 0
M  V30 2847 C 270.476 1.52943 5.1236 0
M  V30 2848 C 271.776 3.389 3.97422 0
M  V30 2849 H 273.47 2.14586 2.0879 0
M  V30 2850 H 271.016 1.03308 1.00317 0
M  V30 2851 H 272.969 0.821025 4.13324 0
M  V30 2852 H 271.693 -0.0682969 3.26529 0
M  V30 2853 H 270.352 2.05205 3.03787 0
M  V30 2854 H 270 0.54262 5.00065 0
M  V30 2855 H 269.7 2.24532 5.43009 0
M  V30 2856 H 271.224 1.45786 5.92941 0
M  V30 2857 H 272.638 3.34081 4.659 0
M  V30 2858 H 271.035 4.0865 4.3946 0
M  V30 2859 H 272.105 3.80163 3.01006 0
M  V30 2860 N 273.449 -1.08991 1.13837 0
M  V30 2861 C 274.379 -2.17771 0.842507 0
M  V30 2862 C 275.36 -1.6892 -0.20001 0
M  V30 2863 O 276.545 -1.94113 -0.0579731 0
M  V30 2864 C 273.675 -3.4589 0.312644 0
M  V30 2865 C 272.629 -4.08099 1.28992 0
M  V30 2866 C 271.955 -5.31098 0.619623 0
M  V30 2867 C 273.255 -4.50077 2.65005 0
M  V30 2868 H 274.949 -2.42777 1.75213 0
M  V30 2869 H 272.495 -1.16682 0.843875 0
M  V30 2870 H 274.448 -4.21297 0.0933043 0
M  V30 2871 H 273.172 -3.20419 -0.632382 0
M  V30 2872 H 271.831 -3.34717 1.49533 0
M  V30 2873 H 271.479 -5.0191 -0.33102 0
M  V30 2874 H 271.179 -5.73674 1.27167 0
M  V30 2875 H 272.703 -6.09224 0.409669 0
M  V30 2876 H 274.117 -5.16688 2.48407 0
M  V30 2877 H 272.514 -5.03553 3.26427 0
M  V30 2878 H 273.584 -3.62257 3.22332 0
M  V30 2879 N 274.927 -0.932562 -1.27047 0
M  V30 2880 C 276.174 -0.575559 -1.94148 0
M  V30 2881 C 276.502 0.883984 -1.73251 0
M  V30 2882 O 275.757 1.64655 -1.0577 0
M  V30 2883 C 276.056 -0.853713 -3.47054 0
M  V30 2884 C 275.722 -2.29577 -3.88079 0
M  V30 2885 C 274.384 -2.68999 -3.9899 0
M  V30 2886 C 276.736 -3.23331 -4.08787 0
M  V30 2887 C 274.064 -4.01289 -4.28 0
M  V30 2888 C 276.416 -4.55207 -4.39282 0
M  V30 2889 C 275.08 -4.94457 -4.48407 0
M  V30 2890 H 274.35 -0.210612 -0.710439 0
M  V30 2891 H 276.997 -1.17744 -1.51025 0
M  V30 2892 H 275.302 -0.169204 -3.91434 0
M  V30 2893 H 276.999 -0.55639 -3.97121 0
M  V30 2894 H 273.589 -1.97994 -3.80127 0
M  V30 2895 H 277.773 -2.94074 -3.99793 0
M  V30 2896 H 273.029 -4.31374 -4.33275 0
M  V30 2897 H 277.203 -5.27852 -4.54252 0
M  V30 2898 H 274.83 -5.96994 -4.7064 0
M  V30 2899 N 276.405 1.4127 -0.698611 0
M  V30 2900 C 277.63 2.06024 -0.238512 0
M  V30 2901 C 278.055 1.5224 1.10475 0
M  V30 2902 O 277.413 0.650623 1.69223 0
M  V30 2903 C 277.461 3.59988 -0.209952 0
M  V30 2904 O 276.565 4.04282 0.814235 0
M  V30 2905 H 275.906 0.653829 -0.115775 0
M  V30 2906 H 278.436 1.8098 -0.954326 0
M  V30 2907 H 278.446 4.07979 -0.0418436 0
M  V30 2908 H 277.121 3.98503 -1.1903 0
M  V30 2909 H 275.698 3.6779 0.615234 0
M  V30 2910 N 277.883 0.443576 1.51229 0
M  V30 2911 C 278.833 -0.382787 2.24764 0
M  V30 2912 C 279.817 -0.984836 1.27239 0
M  V30 2913 O 281.009 -0.901943 1.52296 0
M  V30 2914 C 278.138 -1.47989 3.09765 0
M  V30 2915 C 277.224 -0.886931 4.14722 0
M  V30 2916 N 277.615 -0.0237103 5.05794 0
M  V30 2917 C 275.913 -1.15385 4.30816 0
M  V30 2918 C 276.614 0.309971 5.80874 0
M  V30 2919 N 275.59 -0.307989 5.42727 0
M  V30 2920 H 279.392 0.282624 2.92538 0
M  V30 2921 H 276.906 0.256027 1.60369 0
M  V30 2922 H 278.903 -2.08482 3.61027 0
M  V30 2923 H 277.563 -2.14758 2.43535 0
M  V30 2924 H 278.574 0.34318 5.16762 0
M  V30 2925 H 275.251 -1.81857 3.75812 0
M  V30 2926 H 276.641 1.01279 6.64223 0
M  V30 2927 N 279.361 -1.56624 0.175154 0
M  V30 2928 C 280.311 -2.14747 -0.766004 0
M  V30 2929 C 281.295 -1.08275 -1.19018 0
M  V30 2930 O 282.487 -1.34388 -1.15191 0
M  V30 2931 C 279.616 -2.79478 -1.99366 0
M  V30 2932 C 278.702 -3.93114 -1.5913 0
M  V30 2933 N 279.093 -4.97752 -0.89872 0
M  V30 2934 C 277.391 -4.04345 -1.88204 0
M  V30 2935 C 278.092 -5.77473 -0.700012 0
M  V30 2936 N 277.068 -5.29207 -1.24263 0
M  V30 2937 H 280.87 -2.93015 -0.22793 0
M  V30 2938 H 278.384 -1.6238 -0.0253843 0
M  V30 2939 H 280.381 -3.19498 -2.67818 0
M  V30 2940 H 279.041 -2.02692 -2.53665 0
M  V30 2941 H 280.052 -5.14903 -0.556347 0
M  V30 2942 H 276.729 -3.38667 -2.44153 0
M  V30 2943 H 278.119 -6.71728 -0.152047 0
M  V30 2944 N 280.839 0.0985539 -1.57292 0
M  V30 2945 C 281.802 1.10402 -2.00858 0
M  V30 2946 C 282.802 1.33146 -0.901593 0
M  V30 2947 O 283.992 1.29318 -1.16716 0
M  V30 2948 C 281.124 2.45394 -2.36632 0
M  V30 2949 H 282.317 0.729099 -2.90902 0
M  V30 2950 H 279.87 0.343495 -1.52479 0
M  V30 2951 H 280.605 2.87769 -1.49531 0
M  V30 2952 H 280.39 2.30235 -3.17387 0
M  V30 2953 H 281.88 3.17718 -2.71007 0
M  V30 2954 N 282.317 1.53212 0.369288 0
M  V30 2955 C 283.563 1.69466 1.11397 0
M  V30 2956 C 283.896 0.443257 1.89074 0
M  V30 2957 O 283.171 -0.559386 1.86282 0
M  V30 2958 C 283.454 2.9422 2.07621 0
M  V30 2959 C 283.307 4.29508 1.33577 0
M  V30 2960 C 284.626 3.14565 3.07794 0
M  V30 2961 H 281.745 0.616667 0.403597 0
M  V30 2962 H 284.387 1.85845 0.395179 0
M  V30 2963 H 282.537 2.80387 2.68916 0
M  V30 2964 H 284.209 4.55147 0.750955 0
M  V30 2965 H 282.452 4.29088 0.637618 0
M  V30 2966 H 283.123 5.12926 2.03989 0
M  V30 2967 H 285.599 3.2756 2.56601 0
M  V30 2968 H 284.475 4.03297 3.72348 0
M  V30 2969 H 284.736 2.29675 3.77759 0
M  V30 2970 N 283.795 -0.628877 1.44509 0
M  V30 2971 C 285.044 -1.38437 1.4669 0
M  V30 2972 C 285.357 -1.95322 0.104272 0
M  V30 2973 O 286.563 -2.715 0.00362163 0
M  V30 2974 C 285.019 -2.50659 2.5826 0
M  V30 2975 C 284.627 -2.00277 4.0074 0
M  V30 2976 C 286.371 -3.27844 2.69664 0
M  V30 2977 C 284.278 -3.09854 5.0373 0
M  V30 2978 H 283.208 -0.520245 0.545766 0
M  V30 2979 H 285.859 -0.676313 1.70582 0
M  V30 2980 H 284.241 -3.2405 2.27612 0
M  V30 2981 H 285.415 -1.33736 4.40966 0
M  V30 2982 H 283.73 -1.35901 3.93599 0
M  V30 2983 H 286.327 -4.09534 3.43781 0
M  V30 2984 H 286.67 -3.77471 1.75559 0
M  V30 2985 H 287.203 -2.61543 2.99733 0
M  V30 2986 H 283.942 -2.65168 5.99472 0
M  V30 2987 H 283.462 -3.7503 4.68095 0
M  V30 2988 H 285.141 -3.74592 5.27532 0
M  V30 2989 N 285.273 -1.31445 -0.869486 0
M  V30 2990 C 286.498 -1.24256 -1.66058 0
M  V30 2991 C 286.923 0.188928 -1.87149 0
M  V30 2992 O 286.281 1.13522 -1.4136 0
M  V30 2993 C 286.329 -1.9924 -3.00559 0
M  V30 2994 O 285.433 -1.33007 -3.90362 0
M  V30 2995 H 284.774 -0.428973 -0.506831 0
M  V30 2996 H 287.304 -1.73521 -1.08404 0
M  V30 2997 H 287.314 -2.08854 -3.50491 0
M  V30 2998 H 285.989 -3.03342 -2.84528 0
M  V30 2999 H 284.566 -1.31848 -3.48813 0
M  V30 3000 N 286.751 1.08385 -1.14413 0
M  V30 3001 C 287.997 1.81044 -0.913834 0
M  V30 3002 C 288.33 1.86004 0.558209 0
M  V30 3003 O 287.605 1.33606 1.4135 0
M  V30 3004 C 287.888 3.26648 -1.51569 0
M  V30 3005 C 287.741 3.29895 -3.0576 0
M  V30 3006 C 289.06 4.23629 -1.19273 0
M  V30 3007 H 286.179 0.65727 -0.333414 0
M  V30 3008 H 288.821 1.26896 -1.41412 0
M  V30 3009 H 286.971 3.72889 -1.09023 0
M  V30 3010 H 288.643 2.91977 -3.57137 0
M  V30 3011 H 286.886 2.69163 -3.40197 0
M  V30 3012 H 287.557 4.32516 -3.42977 0
M  V30 3013 H 290.033 3.85727 -1.56057 0
M  V30 3014 H 288.909 5.23822 -1.64017 0
M  V30 3015 H 289.17 4.41968 -0.108068 0
M  V30 3016 N 288.23 0.939286 1.26551 0
M  V30 3017 C 289.646 0.641304 1.46149 0
M  V30 3018 C 289.846 -0.805964 1.84679 0
M  V30 3019 O 288.902 -1.58278 1.96734 0
M  V30 3020 C 290.215 1.6011 2.54529 0
M  V30 3021 C 291.763 1.6106 2.68382 0
M  V30 3022 C 292.238 2.55765 3.79932 0
M  V30 3023 N 293.729 2.5404 3.87322 0
M  V30 3024 C 294.464 3.24004 4.73085 0
M  V30 3025 N 293.96 4.03388 5.63249 0
M  V30 3026 N 295.753 3.12965 4.66914 0
M  V30 3027 H 287.904 1.87478 0.998285 0
M  V30 3028 H 290.167 0.805559 0.499779 0
M  V30 3029 H 289.873 2.63412 2.33039 0
M  V30 3030 H 289.747 1.35171 3.52149 0
M  V30 3031 H 292.134 0.584835 2.89247 0
M  V30 3032 H 292.215 1.90053 1.71212 0
M  V30 3033 H 291.859 3.58458 3.5982 0
M  V30 3034 H 291.789 2.24063 4.76554 0
M  V30 3035 H 294.28 1.96396 3.22858 0
M  V30 3036 H 294.593 4.5373 6.25579 0
M  V30 3037 H 292.938 4.07489 5.63008 0
M  V30 3038 H 296.129 2.50432 3.95476 0
M  V30 3039 H 296.302 3.67759 5.33533 0
M  V30 3040 N 289.708 -1.40897 0.706093 0
M  V30 3041 C 290.985 -1.94868 0.169099 0
M  V30 3042 C 291.365 -1.64485 -1.32318 0
M  V30 3043 O 290.713 -0.95744 -2.07474 0
M  V30 3044 C 290.923 -3.45798 0.471654 0
M  V30 3045 C 292.271 -4.22663 0.405127 0
M  V30 3046 O 293.295 -3.53865 0.407168 0
M  V30 3047 O 292.154 -5.45216 0.374383 0
M  V30 3048 H 289.248 -0.82673 0.0211352 0
M  V30 3049 H 291.794 -1.50558 0.782976 0
M  V30 3050 H 290.566 -3.61235 1.50416 0
M  V30 3051 H 290.189 -3.97225 -0.172666 0
M  V30 3052 N 291.186 -0.45159 -1.50991 0
M  V30 3053 C 292.434 0.109857 -2.01801 0
M  V30 3054 C 292.755 1.41958 -1.3369 0
M  V30 3055 O 292.025 1.9003 -0.475951 0
M  V30 3056 H 290.605 0.0435884 -0.745727 0
M  V30 3057 H 293.267 -0.597557 -1.85514 0
M  V30 3058 H 292.363 0.275489 -3.10882 0
M  V30 3059 N 292.664 1.56529 -0.183458 0
M  V30 3060 C 293.611 2.18546 0.742055 0
M  V30 3061 C 294.581 1.12912 1.2182 0
M  V30 3062 O 295.766 1.41115 1.28418 0
M  V30 3063 C 292.906 2.83977 1.96089 0
M  V30 3064 C 292.019 4.04105 1.52719 0
M  V30 3065 C 291.154 4.57427 2.70063 0
M  V30 3066 C 290.193 5.69938 2.23243 0
M  V30 3067 N 289.33 6.17717 3.33722 0
M  V30 3068 H 294.17 2.97284 0.206432 0
M  V30 3069 H 291.707 1.46823 0.0901571 0
M  V30 3070 H 293.665 3.20077 2.67594 0
M  V30 3071 H 292.295 2.07822 2.47002 0
M  V30 3072 H 291.347 3.73745 0.708436 0
M  V30 3073 H 292.659 4.85513 1.1436 0
M  V30 3074 H 291.813 4.95772 3.49708 0
M  V30 3075 H 290.552 3.75101 3.11689 0
M  V30 3076 H 289.557 5.31133 1.42048 0
M  V30 3077 H 290.782 6.54073 1.82661 0
M  V30 3078 H 288.728 5.38317 3.74902 0
M  V30 3079 H 288.645 6.94146 2.99495 0
M  V30 3080 H 289.913 6.60713 4.13616 0
M  V30 3081 N 294.142 -0.090211 1.57342 0
M  V30 3082 C 295.072 -1.10976 2.05443 0
M  V30 3083 C 296.053 -1.41482 0.944284 0
M  V30 3084 O 297.238 -1.51428 1.21586 0
M  V30 3085 C 294.368 -2.42831 2.48295 0
M  V30 3086 C 293.322 -2.26721 3.63018 0
M  V30 3087 C 292.648 -3.63796 3.91863 0
M  V30 3088 C 293.948 -1.7037 4.93732 0
M  V30 3089 H 295.642 -0.709564 2.9087 0
M  V30 3090 H 293.188 -0.339874 1.39932 0
M  V30 3091 H 295.141 -3.14431 2.80555 0
M  V30 3092 H 293.865 -2.84795 1.59873 0
M  V30 3093 H 292.524 -1.57565 3.31012 0
M  V30 3094 H 292.172 -4.03297 3.00601 0
M  V30 3095 H 291.872 -3.53861 4.69101 0
M  V30 3096 H 293.396 -4.36855 4.26603 0
M  V30 3097 H 294.81 -2.31816 5.24342 0
M  V30 3098 H 293.207 -1.71181 5.75167 0
M  V30 3099 H 294.277 -0.663542 4.80339 0
M  V30 3100 N 295.62 -1.53406 -0.361157 0
M  V30 3101 C 296.86 -1.71507 -1.11197 0
M  V30 3102 C 297.224 -0.459337 -1.86425 0
M  V30 3103 O 298.425 -0.517102 -2.63779 0
M  V30 3104 C 296.696 -2.93307 -2.0422 0
M  V30 3105 S 298.255 -3.32135 -2.86761 0
M  V30 3106 H 295.073 -0.603448 -0.375995 0
M  V30 3107 H 297.675 -1.91516 -0.392642 0
M  V30 3108 H 296.379 -3.82891 -1.47724 0
M  V30 3109 H 295.91 -2.75712 -2.80618 0
M  V30 3110 H 297.925 -2.84493 -4.06544 0
M  V30 3111 N 297.098 0.621204 -1.44841 0
M  V30 3112 C 298.028 1.74366 -1.55303 0
M  V30 3113 C 299.009 1.65199 -0.405385 0
M  V30 3114 O 300.194 1.83807 -0.626787 0
M  V30 3115 C 297.324 3.12931 -1.50637 0
M  V30 3116 C 296.278 3.36896 -2.63979 0
M  V30 3117 C 295.604 4.75594 -2.44366 0
M  V30 3118 C 296.904 3.28483 -4.06074 0
M  V30 3119 H 298.598 1.65867 -2.49256 0
M  V30 3120 H 296.144 0.796558 -1.19962 0
M  V30 3121 H 298.097 3.9124 -1.56555 0
M  V30 3122 H 296.821 3.22237 -0.532057 0
M  V30 3123 H 295.48 2.60972 -2.57467 0
M  V30 3124 H 295.128 4.81616 -1.45105 0
M  V30 3125 H 294.828 4.92586 -3.20364 0
M  V30 3126 H 296.352 5.5612 -2.52117 0
M  V30 3127 H 297.766 3.96684 -4.13902 0
M  V30 3128 H 296.163 3.57008 -4.82354 0
M  V30 3129 H 297.233 2.26133 -4.28943 0
M  V30 3130 N 298.576 1.31904 0.862503 0
M  V30 3131 C 299.509 1.14514 1.97388 0
M  V30 3132 C 300.487 0.0466493 1.62533 0
M  V30 3133 O 301.671 0.204484 1.87388 0
M  V30 3134 C 298.798 0.751347 3.30261 0
M  V30 3135 C 297.844 1.85395 3.84098 0
M  V30 3136 S 298.677 3.46081 4.08642 0
M  V30 3137 C 299.833 3.08655 5.44502 0
M  V30 3138 H 300.066 2.08597 2.11836 0
M  V30 3139 H 297.599 1.16475 1.01356 0
M  V30 3140 H 299.557 0.530901 4.07052 0
M  V30 3141 H 298.218 -0.170493 3.13637 0
M  V30 3142 H 297.411 1.53122 4.80177 0
M  V30 3143 H 297.013 2.02984 3.14123 0
M  V30 3144 H 299.305 2.58012 6.26447 0
M  V30 3145 H 300.248 4.03726 5.81731 0
M  V30 3146 H 300.656 2.45891 5.08132 0
M  V30 3147 N 300.054 -1.07777 1.14986 0
M  V30 3148 C 301.3 -1.80719 0.93339 0
M  V30 3149 C 301.655 -1.8484 -0.534019 0
M  V30 3150 O 300.948 -1.31795 -1.3907 0
M  V30 3151 C 301.142 -3.25495 1.47608 0
M  V30 3152 C 300.971 -3.3548 2.99472 0
M  V30 3153 C 299.741 -3.46293 3.6798 0
M  V30 3154 C 301.939 -3.26596 3.97291 0
M  V30 3155 N 299.921 -3.45136 5.07695 0
M  V30 3156 C 301.292 -3.32506 5.23297 0
M  V30 3157 C 303.347 -3.10376 3.89321 0
M  V30 3158 C 302.05 -3.23866 6.42264 0
M  V30 3159 C 304.076 -3.03069 5.07842 0
M  V30 3160 C 303.438 -3.09587 6.32721 0
M  V30 3161 H 299.537 -0.674814 0.395158 0
M  V30 3162 H 302.121 -1.28681 1.46114 0
M  V30 3163 H 300.292 -3.75963 0.975022 0
M  V30 3164 H 302.024 -3.86535 1.19887 0
M  V30 3165 H 298.779 -3.50456 3.18555 0
M  V30 3166 H 299.203 -3.48097 5.80653 0
M  V30 3167 H 303.845 -3.04194 2.93642 0
M  V30 3168 H 301.563 -3.28807 7.38181 0
M  V30 3169 H 305.149 -2.91629 5.03432 0
M  V30 3170 H 304.029 -3.0397 7.22891 0
M  V30 3171 N 301.532 -0.945985 -1.26051 0
M  V30 3172 C 302.948 -0.649045 -1.45807 0
M  V30 3173 C 303.148 0.796158 -1.85104 0
M  V30 3174 O 302.204 1.57233 -1.97571 0
M  V30 3175 C 303.517 -1.61458 -2.53677 0
M  V30 3176 C 305.065 -1.62481 -2.67524 0
M  V30 3177 C 305.54 -2.57776 -3.7857 0
M  V30 3178 N 307.031 -2.5609 -3.85969 0
M  V30 3179 C 307.766 -3.26508 -4.7136 0
M  V30 3180 N 307.262 -4.0637 -5.61102 0
M  V30 3181 N 309.055 -3.15437 -4.65248 0
M  V30 3182 H 301.206 -1.88005 -0.988328 0
M  V30 3183 H 303.469 -0.808198 -0.4955 0
M  V30 3184 H 303.175 -2.64644 -2.31638 0
M  V30 3185 H 303.049 -1.37036 -3.51427 0
M  V30 3186 H 305.436 -0.600167 -2.88933 0
M  V30 3187 H 305.517 -1.90958 -1.70202 0
M  V30 3188 H 305.161 -3.60361 -3.57913 0
M  V30 3189 H 305.091 -2.26587 -4.75359 0
M  V30 3190 H 307.582 -1.98105 -3.21812 0
M  V30 3191 H 307.895 -4.57042 -6.23164 0
M  V30 3192 H 306.24 -4.10469 -5.60839 0
M  V30 3193 H 309.431 -2.52525 -3.94143 0
M  V30 3194 H 309.604 -3.70584 -5.31575 0
M  V30 3195 N 303.011 1.40521 -0.713556 0
M  V30 3196 C 304.257 2.01221 -0.252564 0
M  V30 3197 C 304.59 1.56444 1.1506 0
M  V30 3198 O 303.865 0.783597 1.78017 0
M  V30 3199 C 304.148 3.58582 -0.330332 0
M  V30 3200 C 304.001 4.13437 -1.77173 0
M  V30 3201 C 305.32 4.39079 0.299641 0
M  V30 3202 H 302.439 0.731077 -0.0932471 0
M  V30 3203 H 305.081 1.67026 -0.905673 0
M  V30 3204 H 303.231 3.87844 0.225737 0
M  V30 3205 H 304.903 3.9498 -2.38303 0
M  V30 3206 H 303.146 3.67801 -2.3001 0
M  V30 3207 H 303.817 5.22597 -1.77755 0
M  V30 3208 H 306.293 4.15735 -0.174139 0
M  V30 3209 H 305.169 5.4848 0.214771 0
M  V30 3210 H 305.43 4.19915 1.38288 0
M  V30 3211 N 304.489 0.459591 1.5075 0
M  V30 3212 C 305.737 -0.0991532 2.01857 0
M  V30 3213 C 306.058 -1.41247 1.34441 0
M  V30 3214 O 305.328 -1.89775 0.486022 0
M  V30 3215 H 303.908 -0.039633 0.745948 0
M  V30 3216 H 306.57 0.607387 1.85194 0
M  V30 3217 H 305.666 -0.258998 3.11023 0
M  V30 3218 N 305.967 -1.56429 0.191757 0
M  V30 3219 C 306.915 -2.20273 -0.747174 0
M  V30 3220 C 307.909 -1.17288 -1.22229 0
M  V30 3221 O 309.115 -1.35441 -1.18557 0
M  V30 3222 H 305.49 -0.705885 -0.259289 0
M  V30 3223 H 307.461 -2.97826 -0.184963 0
M  V30 3224 C 306.21 -2.87356 -1.95759 0
M  V30 3225 H 305.533 -3.66341 -1.60106 0
M  V30 3226 H 306.973 -3.3547 -2.59299 0
M  V30 3227 C 305.432 -1.88213 -2.79423 0
M  V30 3228 O 305.962 -1.38033 -3.7724 0
M  V30 3229 N 304.168 -1.56516 -2.44849 0
M  V30 3230 H 303.715 -1.97516 -1.65364 0
M  V30 3231 H 303.673 -0.904369 -3.01112 0
M  V30 3232 N 307.445 0.0818655 -1.57387 0
M  V30 3233 C 308.375 1.09885 -2.06028 0
M  V30 3234 C 309.356 1.4098 -0.951774 0
M  V30 3235 O 310.541 1.50781 -1.22387 0
M  V30 3236 C 307.671 2.4151 -2.4958 0
M  V30 3237 C 306.625 2.24792 -3.64215 0
M  V30 3238 C 305.951 3.61712 -3.93787 0
M  V30 3239 C 307.251 1.67749 -4.94629 0
M  V30 3240 H 308.945 0.694128 -2.91243 0
M  V30 3241 H 306.491 0.332448 -1.4011 0
M  V30 3242 H 308.444 3.12939 -2.82219 0
M  V30 3243 H 307.168 2.83943 -1.61381 0
M  V30 3244 H 305.827 1.55807 -3.31843 0
M  V30 3245 H 305.475 4.01697 -3.02735 0
M  V30 3246 H 305.175 3.51368 -4.70971 0
M  V30 3247 H 306.699 4.34587 -4.28913 0
M  V30 3248 H 308.113 2.29032 -5.25564 0
M  V30 3249 H 306.51 1.68128 -5.76067 0
M  V30 3250 H 307.58 0.638059 -4.80684 0
M  V30 3251 N 308.923 1.53595 0.353017 0
M  V30 3252 C 310.339 1.43648 0.695516 0
M  V30 3253 C 310.539 0.585617 1.92802 0
M  V30 3254 O 309.595 0.0729223 2.52395 0
M  V30 3255 C 310.908 2.8701 0.896991 0
M  V30 3256 C 312.456 2.96723 0.996209 0
M  V30 3257 C 312.931 4.41173 1.23007 0
M  V30 3258 N 314.422 4.44657 1.29749 0
M  V30 3259 C 315.157 5.53547 1.49577 0
M  V30 3260 N 314.653 6.72461 1.66639 0
M  V30 3261 N 316.446 5.41145 1.52048 0
M  V30 3262 H 308.597 2.07415 -0.457481 0
M  V30 3263 H 310.86 0.9372 -0.142687 0
M  V30 3264 H 310.566 3.51644 0.0629938 0
M  V30 3265 H 310.44 3.31401 1.80148 0
M  V30 3266 H 312.827 2.32235 1.82074 0
M  V30 3267 H 312.908 2.55707 0.0688331 0
M  V30 3268 H 312.552 5.06238 0.410505 0
M  V30 3269 H 312.482 4.79772 2.17086 0
M  V30 3270 H 314.973 3.58963 1.18126 0
M  V30 3271 H 315.286 7.51214 1.81378 0
M  V30 3272 H 313.631 6.75423 1.63794 0
M  V30 3273 H 316.822 4.47205 1.38294 0
M  V30 3274 H 316.995 6.26068 1.67159 0
M  V30 3275 N 310.401 -0.613514 1.45168 0
M  V30 3276 C 311.348 -1.72456 1.53387 0
M  V30 3277 C 312.318 -1.6169 0.380191 0
M  V30 3278 O 313.503 -1.81356 0.592836 0
M  V30 3279 C 310.643 -3.10753 1.50088 0
M  V30 3280 C 309.756 -3.32368 2.75963 0
M  V30 3281 C 308.891 -4.60737 2.64376 0
M  V30 3282 C 307.93 -4.7559 3.85332 0
M  V30 3283 N 307.067 -5.95253 3.72315 0
M  V30 3284 H 311.907 -1.64768 2.48305 0
M  V30 3285 H 309.444 -0.803503 1.23216 0
M  V30 3286 H 311.402 -3.90758 1.46164 0
M  V30 3287 H 310.032 -3.17413 0.587243 0
M  V30 3288 H 309.084 -2.4618 2.89999 0
M  V30 3289 H 310.396 -3.39218 3.65695 0
M  V30 3290 H 309.55 -5.48928 2.58385 0
M  V30 3291 H 308.289 -4.56275 1.72233 0
M  V30 3292 H 307.294 -3.85824 3.91688 0
M  V30 3293 H 308.519 -4.81854 4.78533 0
M  V30 3294 H 306.465 -5.91847 2.82937 0
M  V30 3295 H 306.382 -6.03236 4.55677 0
M  V30 3296 H 307.65 -6.85958 3.70246 0
M  V30 3297 N 311.879 -1.3236 -0.855495 0
M  V30 3298 C 313.104 -1.2601 -1.64731 0
M  V30 3299 C 313.529 0.169068 -1.87339 0
M  V30 3300 O 312.887 1.12016 -1.42556 0
M  V30 3301 C 312.935 -2.02417 -2.98429 0
M  V30 3302 O 312.039 -1.3714 -3.8893 0
M  V30 3303 H 311.38 -0.434325 -0.502253 0
M  V30 3304 H 313.91 -1.74661 -1.06558 0
M  V30 3305 H 313.92 -2.12559 -3.48257 0
M  V30 3306 H 312.595 -3.06343 -2.81295 0
M  V30 3307 H 311.172 -1.3554 -3.47395 0
M  V30 3308 N 313.357 1.07166 -1.15556 0
M  V30 3309 C 314.307 2.12649 -0.82247 0
M  V30 3310 C 315.291 1.59725 0.194129 0
M  V30 3311 O 316.483 1.76999 -0.00540402 0
M  V30 3312 C 313.612 3.41847 -0.315572 0
M  V30 3313 C 312.698 4.0162 -1.36244 0
M  V30 3314 N 313.089 4.35625 -2.5703 0
M  V30 3315 C 311.387 4.29114 -1.21562 0
M  V30 3316 C 312.088 4.83017 -3.24144 0
M  V30 3317 N 311.064 4.81906 -2.51531 0
M  V30 3318 H 314.866 2.36776 -1.74111 0
M  V30 3319 H 312.38 1.24622 -1.0413 0
M  V30 3320 H 314.377 4.16859 -0.0585855 0
M  V30 3321 H 313.037 3.19163 0.597105 0
M  V30 3322 H 314.048 4.26253 -2.94158 0
M  V30 3323 H 310.725 4.15919 -0.362988 0
M  V30 3324 H 312.115 5.18605 -4.27198 0
M  V30 3325 N 314.835 0.952656 1.25548 0
M  V30 3326 C 316.084 0.602053 1.92505 0
M  V30 3327 C 316.397 -0.864663 1.75451 0
M  V30 3328 O 317.603 -1.32514 2.36965 0
M  V30 3329 C 316.059 1.02607 3.44963 0
M  V30 3330 C 315.667 2.51519 3.70732 0
M  V30 3331 C 317.411 0.747905 4.1786 0
M  V30 3332 C 315.318 2.87732 5.16686 0
M  V30 3333 H 314.248 0.22146 0.720744 0
M  V30 3334 H 316.899 1.15684 1.42441 0
M  V30 3335 H 315.281 0.399712 3.93978 0
M  V30 3336 H 316.455 3.19157 3.32378 0
M  V30 3337 H 314.77 2.76786 3.11092 0
M  V30 3338 H 317.367 0.994647 5.25367 0
M  V30 3339 H 317.71 -0.315629 4.15102 0
M  V30 3340 H 318.243 1.33452 3.74747 0
M  V30 3341 H 314.982 3.93095 5.24554 0
M  V30 3342 H 314.502 2.24765 5.56094 0
M  V30 3343 H 316.181 2.76817 5.84792 0
M  V30 3344 N 316.313 -1.40141 0.720998 0
M  V30 3345 C 317.559 -2.01084 0.263231 0
M  V30 3346 C 317.892 -1.57052 -1.14229 0
M  V30 3347 O 317.167 -0.793027 -1.77599 0
M  V30 3348 C 317.45 -3.58401 0.349344 0
M  V30 3349 C 317.303 -4.12491 1.79363 0
M  V30 3350 C 318.622 -4.39231 -0.276351 0
M  V30 3351 H 315.741 -0.730572 0.0971228 0
M  V30 3352 H 318.383 -1.66543 0.914518 0
M  V30 3353 H 316.533 -3.87958 -0.205165 0
M  V30 3354 H 318.205 -3.93711 2.40394 0
M  V30 3355 H 316.448 -3.66576 2.31958 0
M  V30 3356 H 317.119 -5.21646 1.80524 0
M  V30 3357 H 319.595 -4.15637 0.196184 0
M  V30 3358 H 318.471 -5.48586 -0.185681 0
M  V30 3359 H 318.732 -4.20643 -1.36059 0
M  V30 3360 N 317.792 -0.46758 -1.50504 0
M  V30 3361 C 318.702 0.33382 -2.32213 0
M  V30 3362 C 319.718 0.999323 -1.42441 0
M  V30 3363 O 320.894 0.988068 -1.75497 0
M  V30 3364 C 317.959 1.4035 -3.17022 0
M  V30 3365 C 317.02 0.754961 -4.2261 0
M  V30 3366 C 316.253 1.77367 -5.03365 0
M  V30 3367 O 316.476 2.99976 -4.8515 0
M  V30 3368 O 315.41 1.34744 -5.86624 0
M  V30 3369 H 319.236 -0.334067 -3.01857 0
M  V30 3370 H 316.821 -0.229496 -1.47627 0
M  V30 3371 H 318.703 2.02318 -3.69656 0
M  V30 3372 H 317.378 2.05492 -2.5011 0
M  V30 3373 H 316.285 0.0964244 -3.73976 0
M  V30 3374 H 317.618 0.146545 -4.91982 0
M  V30 3375 N 319.27 1.56325 -0.20005 0
M  V30 3376 C 320.233 2.18084 0.705132 0
M  V30 3377 C 321.233 1.13666 1.1374 0
M  V30 3378 O 322.423 1.39023 1.04968 0
M  V30 3379 C 319.555 2.78689 1.96329 0
M  V30 3380 H 320.748 2.99435 0.167023 0
M  V30 3381 H 318.301 1.56221 0.0495725 0
M  V30 3382 H 319.036 2.0115 2.5438 0
M  V30 3383 H 318.821 3.55133 1.66202 0
M  V30 3384 H 320.311 3.26096 2.60866 0
M  V30 3385 N 320.748 -0.0735177 1.57428 0
M  V30 3386 C 321.698 -1.09442 2.00016 0
M  V30 3387 C 322.682 -1.34575 0.881947 0
M  V30 3388 O 323.874 -1.34905 1.14585 0
M  V30 3389 C 321.003 -2.40865 2.4462 0
M  V30 3390 C 320.089 -2.19014 3.63172 0
M  V30 3391 N 320.48 -1.67087 4.77405 0
M  V30 3392 C 318.778 -2.49494 3.69688 0
M  V30 3393 C 319.479 -1.6001 5.5926 0
M  V30 3394 N 318.455 -2.05999 5.03056 0
M  V30 3395 H 322.257 -0.686227 2.85776 0
M  V30 3396 H 319.771 -0.280617 1.59957 0
M  V30 3397 H 321.768 -3.14763 2.73368 0
M  V30 3398 H 320.428 -2.82403 1.60246 0
M  V30 3399 H 321.439 -1.35975 4.99731 0
M  V30 3400 H 318.116 -2.94409 2.96023 0
M  V30 3401 H 319.506 -1.2073 6.60964 0
M  V30 3402 N 322.226 -1.5378 -0.344866 0
M  V30 3403 C 323.472 -1.71216 -1.08687 0
M  V30 3404 C 323.805 -0.473281 -1.88345 0
M  V30 3405 O 323.08 0.52968 -1.87149 0
M  V30 3406 C 323.363 -2.97486 -2.02914 0
M  V30 3407 C 323.216 -4.31579 -1.26727 0
M  V30 3408 C 324.535 -3.19422 -3.0275 0
M  V30 3409 H 321.654 -0.62301 -0.393735 0
M  V30 3410 H 324.296 -1.8645 -0.365563 0
M  V30 3411 H 322.446 -2.84629 -2.64421 0
M  V30 3412 H 324.118 -4.56284 -0.67845 0
M  V30 3413 H 322.361 -4.30049 -0.569273 0
M  V30 3414 H 323.032 -5.16106 -1.95803 0
M  V30 3415 H 325.508 -3.316 -2.51357 0
M  V30 3416 H 324.384 -4.09169 -3.65885 0
M  V30 3417 H 324.645 -2.35656 -3.74057 0
M  V30 3418 N 323.704 0.605807 -1.45491 0
M  V30 3419 C 325.12 0.926751 -1.29936 0
M  V30 3420 C 325.32 1.99896 -0.253706 0
M  V30 3421 O 324.376 2.50038 0.351737 0
M  V30 3422 C 325.689 1.36599 -2.67883 0
M  V30 3423 C 327.237 1.4801 -2.75793 0
M  V30 3424 C 327.712 1.95309 -4.14268 0
M  V30 3425 N 329.203 2.0254 -4.16571 0
M  V30 3426 C 329.938 2.40363 -5.20589 0
M  V30 3427 N 329.434 2.77143 -6.34952 0
M  V30 3428 N 331.227 2.40718 -5.07948 0
M  V30 3429 H 323.378 -0.102862 -2.12151 0
M  V30 3430 H 325.641 0.016639 -0.947854 0
M  V30 3431 H 325.347 0.652306 -3.45598 0
M  V30 3432 H 325.221 2.33215 -2.96463 0
M  V30 3433 H 327.608 2.1847 -1.98381 0
M  V30 3434 H 327.689 0.497041 -2.50925 0
M  V30 3435 H 327.333 1.25436 -4.92167 0
M  V30 3436 H 327.263 2.94532 -4.3653 0
M  V30 3437 H 329.754 1.76699 -3.34045 0
M  V30 3438 H 330.067 3.0489 -7.10114 0
M  V30 3439 H 328.412 2.74834 -6.3835 0
M  V30 3440 H 331.603 2.11392 -4.1765 0
M  V30 3441 H 331.776 2.69869 -5.89131 0
M  V30 3442 N 325.182 1.32811 0.848464 0
M  V30 3443 C 326.145 1.22194 1.9391 0
M  V30 3444 C 327.145 0.143404 1.60159 0
M  V30 3445 O 328.335 0.394253 1.6968 0
M  V30 3446 C 325.467 0.88067 3.29328 0
M  V30 3447 H 326.66 2.19127 2.04752 0
M  V30 3448 H 324.213 1.16731 1.0394 0
M  V30 3449 H 324.948 -0.0865776 3.24184 0
M  V30 3450 H 324.733 1.66052 3.55203 0
M  V30 3451 H 326.223 0.830871 4.09251 0
M  V30 3452 N 326.66 -1.06551 1.16123 0
M  V30 3453 C 327.592 -2.13908 0.823171 0
M  V30 3454 C 328.605 -1.61926 -0.16843 0
M  V30 3455 O 329.794 -1.78412 0.055962 0
M  V30 3456 C 326.894 -3.38283 0.204424 0
M  V30 3457 C 326.067 -4.19589 1.23548 0
M  V30 3458 C 325.126 -5.2233 0.637011 0
M  V30 3459 O 324.152 -5.54034 1.30516 0
M  V30 3460 N 325.354 -5.77621 -0.577474 0
M  V30 3461 H 328.119 -2.43508 1.74711 0
M  V30 3462 H 325.68 -1.2253 1.05821 0
M  V30 3463 H 327.672 -4.0416 -0.208909 0
M  V30 3464 H 326.242 -3.06329 -0.623012 0
M  V30 3465 H 325.462 -3.49406 1.82507 0
M  V30 3466 H 326.75 -4.70718 1.93137 0
M  V30 3467 H 326.148 -5.54125 -1.13853 0
M  V30 3468 H 324.705 -6.45087 -0.933053 0
M  V30 3469 N 328.138 -0.959301 -1.25041 0
M  V30 3470 C 329.068 -0.501388 -2.28053 0
M  V30 3471 C 330.049 0.454673 -1.63911 0
M  V30 3472 O 331.234 0.352618 -1.90972 0
M  V30 3473 C 328.364 0.217224 -3.4662 0
M  V30 3474 C 327.318 -0.654034 -4.22973 0
M  V30 3475 C 326.644 0.195589 -5.34342 0
M  V30 3476 C 327.944 -1.93447 -4.85155 0
M  V30 3477 H 329.638 -1.36238 -2.66608 0
M  V30 3478 H 327.184 -0.656534 -1.28163 0
M  V30 3479 H 329.137 0.548732 -4.17812 0
M  V30 3480 H 327.861 1.1125 -3.07068 0
M  V30 3481 H 326.52 -0.968693 -3.5357 0
M  V30 3482 H 326.168 1.09076 -4.91031 0
M  V30 3483 H 325.868 -0.384091 -5.86343 0
M  V30 3484 H 327.392 0.521958 -6.08365 0
M  V30 3485 H 328.806 -1.66908 -5.48466 0
M  V30 3486 H 327.203 -2.46018 -5.47353 0
M  V30 3487 H 328.273 -2.63466 -4.07079 0
M  V30 3488 N 329.616 1.39756 -0.72842 0
M  V30 3489 C 330.865 1.99879 -0.270407 0
M  V30 3490 C 331.178 1.58449 1.14688 0
M  V30 3491 O 332.384 2.11362 1.70407 0
M  V30 3492 C 330.84 3.57292 -0.43252 0
M  V30 3493 C 330.448 4.07688 -1.85727 0
M  V30 3494 C 332.192 4.24485 -0.0359507 0
M  V30 3495 C 330.099 5.5765 -1.96928 0
M  V30 3496 H 329.029 0.747689 -0.0973472 0
M  V30 3497 H 331.68 1.59837 -0.901355 0
M  V30 3498 H 330.062 3.95097 0.267219 0
M  V30 3499 H 331.236 3.81231 -2.58843 0
M  V30 3500 H 329.551 3.53135 -2.20646 0
M  V30 3501 H 332.148 5.34609 -0.0987484 0
M  V30 3502 H 332.491 4.03915 1.00787 0
M  V30 3503 H 333.024 3.9183 -0.686604 0
M  V30 3504 H 329.763 5.8309 -2.99476 0
M  V30 3505 H 329.283 5.8593 -1.28241 0
M  V30 3506 H 330.962 6.22957 -1.74737 0
M  V30 3507 N 331.094 0.475555 1.50254 0
M  V30 3508 C 332.041 -0.316293 2.28622 0
M  V30 3509 C 333.011 -0.983227 1.33873 0
M  V30 3510 O 334.196 -0.994805 1.62814 0
M  V30 3511 C 331.336 -1.38975 3.1588 0
M  V30 3512 C 330.449 -0.737146 4.25664 0
M  V30 3513 C 329.584 -1.78887 5.00173 0
M  V30 3514 C 328.623 -1.11676 6.01826 0
M  V30 3515 N 327.76 -2.11154 6.69596 0
M  V30 3516 H 332.6 0.358297 2.95838 0
M  V30 3517 H 330.137 0.188541 1.45887 0
M  V30 3518 H 332.095 -2.02383 3.64825 0
M  V30 3519 H 330.725 -2.03344 2.50701 0
M  V30 3520 H 329.777 0.0096065 3.80399 0
M  V30 3521 H 331.089 -0.206816 4.98371 0
M  V30 3522 H 330.243 -2.49865 5.52859 0
M  V30 3523 H 328.982 -2.35302 4.27182 0
M  V30 3524 H 327.987 -0.392633 5.48396 0
M  V30 3525 H 329.212 -0.55945 6.76792 0
M  V30 3526 H 327.158 -2.66577 5.99394 0
M  V30 3527 H 327.075 -1.63118 7.38193 0
M  V30 3528 H 328.343 -2.81497 7.26897 0
M  V30 3529 N 332.573 -1.56217 0.208337 0
M  V30 3530 C 333.984 -1.84243 -0.301904 0
M  V30 3531 C 334.335 -1.12939 -1.60434 0
M  V30 3532 O 333.46 -0.39461 -2.12772 0
M  V30 3533 C 334.055 -3.34231 -0.554543 0
M  V30 3534 C 332.614 -3.62621 -1.00912 0
M  V30 3535 C 331.761 -2.77224 -0.064933 0
M  V30 3536 H 334.712 -1.52712 0.431833 0
M  V30 3537 H 334.733 -3.5372 -1.40223 0
M  V30 3538 H 334.245 -3.86099 0.393561 0
M  V30 3539 H 332.346 -3.16197 -1.97104 0
M  V30 3540 H 332.459 -4.7071 -0.892674 0
M  V30 3541 H 330.823 -2.48256 -0.56929 0
M  V30 3542 H 331.606 -3.31887 0.877851 0
M  V30 3543 N 334.051 0.0651679 -1.57465 0
M  V30 3544 C 335.281 0.774683 -1.91526 0
M  V30 3545 C 335.689 1.71305 -0.803196 0
M  V30 3546 O 335.032 1.82231 0.231881 0
M  V30 3547 C 335.094 1.61645 -3.21109 0
M  V30 3548 C 334.758 0.846753 -4.49087 0
M  V30 3549 C 335.755 0.163024 -5.19644 0
M  V30 3550 C 333.44 0.811966 -4.95694 0
M  V30 3551 C 335.434 -0.54519 -6.35064 0
M  V30 3552 C 333.121 0.0999836 -6.11018 0
M  V30 3553 C 334.119 -0.577388 -6.80555 0
M  V30 3554 O 333.807 -1.27789 -7.93678 0
M  V30 3555 H 333.539 0.225031 -0.637446 0
M  V30 3556 H 336.093 0.0377134 -2.05365 0
M  V30 3557 H 334.323 2.39638 -3.03497 0
M  V30 3558 H 336.012 2.20525 -3.40769 0
M  V30 3559 H 336.778 0.181163 -4.84662 0
M  V30 3560 H 332.657 1.32867 -4.41438 0
M  V30 3561 H 336.201 -1.07446 -6.89276 0
M  V30 3562 H 332.098 0.0797945 -6.45451 0
M  V30 3563 H 332.866 -1.18784 -8.09835 0
M  V30 3564 N 335.529 1.53961 0.336706 0
M  V30 3565 C 336.462 1.77255 1.43722 0
M  V30 3566 C 337.44 0.62193 1.50236 0
M  V30 3567 O 338.624 0.857874 1.67847 0
M  V30 3568 C 335.751 1.87733 2.81912 0
M  V30 3569 C 334.797 3.09933 2.92991 0
M  V30 3570 S 335.63 4.68836 2.58753 0
M  V30 3571 C 336.786 4.82202 3.99039 0
M  V30 3572 H 337.019 2.70322 1.23748 0
M  V30 3573 H 334.552 1.44917 0.532777 0
M  V30 3574 H 336.51 1.94455 3.61521 0
M  V30 3575 H 335.171 0.956666 2.99177 0
M  V30 3576 H 334.364 3.1396 3.94265 0
M  V30 3577 H 333.966 3.01472 2.21338 0
M  V30 3578 H 336.258 4.64032 4.9364 0
M  V30 3579 H 337.201 5.84298 4.00002 0
M  V30 3580 H 337.609 4.10604 3.87382 0
M  V30 3581 N 337.007 -0.598083 1.45811 0
M  V30 3582 C 338.235 -1.38322 1.53866 0
M  V30 3583 C 338.65 -1.87992 0.174479 0
M  V30 3584 O 338.007 -1.62756 -0.825627 0
M  V30 3585 C 338.058 -2.58125 2.53089 0
M  V30 3586 O 337.779 -2.10516 3.84206 0
M  V30 3587 C 339.28 -3.50869 2.70935 0
M  V30 3588 H 336.5 -0.423093 0.520801 0
M  V30 3589 H 339.044 -0.728527 1.91083 0
M  V30 3590 H 337.199 -3.19615 2.18917 0
M  V30 3591 H 337.613 -2.88425 4.38077 0
M  V30 3592 H 339.087 -4.31451 3.44317 0
M  V30 3593 H 339.564 -4.01822 1.77301 0
M  V30 3594 H 340.17 -2.95225 3.06141 0
M  V30 3595 N 338.485 -1.33259 -0.841409 0
M  V30 3596 C 339.417 -1.19136 -1.95804 0
M  V30 3597 C 340.43 -0.122965 -1.62335 0
M  V30 3598 O 341.619 -0.373154 -1.74556 0
M  V30 3599 C 338.719 -0.804268 -3.29218 0
M  V30 3600 C 337.892 -1.96376 -3.90839 0
M  V30 3601 C 336.951 -1.55806 -5.02604 0
M  V30 3602 O 335.977 -2.27203 -5.21888 0
M  V30 3603 N 337.179 -0.461609 -5.78662 0
M  V30 3604 H 339.944 -2.15326 -2.08458 0
M  V30 3605 H 337.505 -1.25971 -1.017 0
M  V30 3606 H 339.497 -0.51501 -4.0141 0
M  V30 3607 H 338.067 0.0668809 -3.12528 0
M  V30 3608 H 337.287 -2.41879 -3.11269 0
M  V30 3609 H 338.575 -2.73966 -4.28742 0
M  V30 3610 H 337.973 0.132343 -5.65545 0
M  V30 3611 H 336.53 -0.232013 -6.51387 0
M  V30 3612 N 339.963 1.05934 -1.16686 0
M  V30 3613 C 340.873 2.17014 -0.891183 0
M  V30 3614 C 341.889 1.73453 0.137907 0
M  V30 3615 O 343.065 2.01361 -0.039592 0
M  V30 3616 C 340.13 3.44384 -0.400099 0
M  V30 3617 C 339.191 4.02433 -1.49486 0
M  V30 3618 C 338.424 5.23723 -1.02711 0
M  V30 3619 O 338.647 5.7027 0.121716 0
M  V30 3620 O 337.581 5.7382 -1.81699 0
M  V30 3621 H 341.407 2.43113 -1.82015 0
M  V30 3622 H 338.992 1.15541 -0.947132 0
M  V30 3623 H 340.874 4.21189 -0.133392 0
M  V30 3624 H 339.549 3.19802 0.500817 0
M  V30 3625 H 338.456 3.27102 -1.81535 0
M  V30 3626 H 339.789 4.31317 -2.37121 0
M  V30 3627 N 341.441 0.965919 1.2453 0
M  V30 3628 C 342.689 0.625593 1.92174 0
M  V30 3629 C 343.01 -0.841652 1.75901 0
M  V30 3630 O 342.28 -1.60061 1.12948 0
M  V30 3631 H 340.86 0.228388 0.71123 0
M  V30 3632 H 343.522 1.2266 1.51461 0
M  V30 3633 H 342.618 0.864653 2.99884 0
M  V30 3634 N 342.919 -1.39368 0.735821 0
M  V30 3635 C 343.829 -2.34395 0.0979693 0
M  V30 3636 C 344.845 -1.58361 -0.720968 0
M  V30 3637 O 346.021 -1.90648 -0.649245 0
M  V30 3638 C 343.086 -3.37393 -0.797916 0
M  V30 3639 C 342.147 -4.29287 0.0333662 0
M  V30 3640 C 341.38 -5.27365 -0.819854 0
M  V30 3641 O 341.603 -5.31959 -2.05855 0
M  V30 3642 O 340.537 -6.01389 -0.248079 0
M  V30 3643 H 344.363 -2.90601 0.882315 0
M  V30 3644 H 341.948 -1.40909 0.4965 0
M  V30 3645 H 343.83 -4.00505 -1.31048 0
M  V30 3646 H 342.505 -2.83571 -1.56106 0
M  V30 3647 H 341.412 -3.69395 0.591475 0
M  V30 3648 H 342.745 -4.86317 0.758752 0
M  V30 3649 N 344.397 -0.483516 -1.5 0
M  V30 3650 C 345.627 0.0643896 -2.065 0
M  V30 3651 C 346.035 1.32949 -1.34615 0
M  V30 3652 O 345.378 1.79003 -0.412756 0
M  V30 3653 C 345.44 0.405983 -3.572 0
M  V30 3654 C 345.104 -0.758875 -4.50655 0
M  V30 3655 C 346.101 -1.64445 -4.93208 0
M  V30 3656 C 343.786 -0.952725 -4.93182 0
M  V30 3657 C 345.78 -2.70818 -5.77006 0
M  V30 3658 C 343.467 -2.01966 -5.76761 0
M  V30 3659 C 344.465 -2.89574 -6.18576 0
M  V30 3660 O 344.153 -3.94429 -7.00486 0
M  V30 3661 H 343.885 -0.00934786 -0.675935 0
M  V30 3662 H 346.439 -0.674959 -1.93993 0
M  V30 3663 H 344.669 1.19869 -3.67652 0
M  V30 3664 H 346.358 0.890433 -3.96013 0
M  V30 3665 H 347.124 -1.50643 -4.61012 0
M  V30 3666 H 343.003 -0.280247 -4.60147 0
M  V30 3667 H 346.547 -3.3923 -6.09565 0
M  V30 3668 H 342.444 -2.1577 -6.0837 0
M  V30 3669 H 343.212 -3.91568 -7.1876 0
M  V30 3670 N 345.875 1.56104 -0.216619 0
M  V30 3671 C 346.805 2.23063 0.690296 0
M  V30 3672 C 347.786 1.20072 1.20485 0
M  V30 3673 O 348.971 1.48643 1.24976 0
M  V30 3674 C 346.101 2.90672 1.90072 0
M  V30 3675 C 345.055 4.00092 1.5202 0
M  V30 3676 C 344.381 4.54972 2.80899 0
M  V30 3677 C 345.681 5.17398 0.71391 0
M  V30 3678 H 347.375 2.99109 0.132038 0
M  V30 3679 H 344.921 1.43866 0.0620664 0
M  V30 3680 H 346.874 3.36204 2.54057 0
M  V30 3681 H 345.598 2.12066 2.48386 0
M  V30 3682 H 344.257 3.55283 0.903839 0
M  V30 3683 H 343.905 3.73102 3.37348 0
M  V30 3684 H 343.605 5.28817 2.56176 0
M  V30 3685 H 345.129 5.0322 3.45836 0
M  V30 3686 H 346.543 5.59342 1.25735 0
M  V30 3687 H 344.94 5.97444 0.563951 0
M  V30 3688 H 346.01 4.84088 -0.280527 0
M  V30 3689 N 347.353 -0.0568162 1.57498 0
M  V30 3690 C 348.764 -0.606858 1.76562 0
M  V30 3691 C 349.115 -1.77114 0.844094 0
M  V30 3692 O 348.24 -2.16376 0.0318911 0
M  V30 3693 C 348.835 -1.10766 3.20182 0
M  V30 3694 C 347.394 -1.60344 3.40539 0
M  V30 3695 C 346.541 -0.529311 2.72201 0
M  V30 3696 H 349.492 0.169393 1.57793 0
M  V30 3697 H 349.513 -1.97602 3.25167 0
M  V30 3698 H 349.025 -0.26006 3.87228 0
M  V30 3699 H 347.126 -2.47379 2.78629 0
M  V30 3700 H 347.239 -1.67006 4.4905 0
M  V30 3701 H 345.603 -0.977893 2.35179 0
M  V30 3702 H 346.386 0.308352 3.41912 0
M  V30 3703 N 348.832 -1.54138 -0.328536 0
M  V30 3704 C 349.762 -1.86167 -1.40939 0
M  V30 3705 C 350.743 -0.718044 -1.54202 0
M  V30 3706 O 351.928 -0.971328 -1.68163 0
M  V30 3707 C 349.058 -2.08461 -2.77779 0
M  V30 3708 C 348.012 -3.24299 -2.7931 0
M  V30 3709 C 347.338 -3.31955 -4.19178 0
M  V30 3710 C 348.638 -4.62065 -2.43502 0
M  V30 3711 H 350.332 -2.76689 -1.14383 0
M  V30 3712 H 347.878 -1.33132 -0.548806 0
M  V30 3713 H 349.831 -2.29453 -3.53454 0
M  V30 3714 H 348.555 -1.14684 -3.05802 0
M  V30 3715 H 347.214 -3.03187 -2.0609 0
M  V30 3716 H 346.862 -2.35745 -4.44335 0
M  V30 3717 H 346.562 -4.09805 -4.2111 0
M  V30 3718 H 348.086 -3.55175 -4.96672 0
M  V30 3719 H 349.5 -4.8297 -3.08889 0
M  V30 3720 H 347.897 -5.42429 -2.56693 0
M  V30 3721 H 348.967 -4.64652 -1.38659 0
M  V30 3722 N 350.31 0.590341 -1.46126 0
M  V30 3723 C 351.587 1.35029 -1.41515 0
M  V30 3724 C 351.967 2.10888 -0.0946472 0
M  V30 3725 O 351.315 2.08998 0.923693 0
M  V30 3726 C 351.525 2.28269 -2.63997 0
M  V30 3727 C 352.873 2.90338 -3.09821 0
M  V30 3728 O 353.897 2.38585 -2.64492 0
M  V30 3729 O 352.756 3.84321 -3.88535 0
M  V30 3730 H 349.85 0.606317 -0.562413 0
M  V30 3731 H 352.396 0.611994 -1.58281 0
M  V30 3732 H 351.168 1.71591 -3.51671 0
M  V30 3733 H 350.791 3.0945 -2.49652 0
M  V30 3734 N 351.788 1.33704 0.83433 0
M  V30 3735 C 352.72 1.20172 1.9517 0
M  V30 3736 C 353.733 0.131572 1.62267 0
M  V30 3737 O 354.922 0.382406 1.74356 0
M  V30 3738 C 352.022 0.821716 3.28787 0
M  V30 3739 C 351.195 1.98446 3.89792 0
M  V30 3740 C 350.254 1.58469 5.01771 0
M  V30 3741 O 349.28 2.29968 5.20676 0
M  V30 3742 N 350.482 0.492291 5.78409 0
M  V30 3743 H 353.247 2.16429 2.07313 0
M  V30 3744 H 350.808 1.26509 1.0103 0
M  V30 3745 H 352.8 0.536291 4.01131 0
M  V30 3746 H 351.37 -0.0503058 3.1256 0
M  V30 3747 H 350.59 2.43526 3.09982 0
M  V30 3748 H 351.878 2.76236 4.27283 0
M  V30 3749 H 351.276 -0.102349 5.65607 0
M  V30 3750 H 349.833 0.266555 6.51255 0
M  V30 3751 N 353.266 -1.05314 1.17247 0
M  V30 3752 C 354.682 -1.30452 0.919473 0
M  V30 3753 C 354.882 -1.9703 -0.42209 0
M  V30 3754 O 353.938 -2.24311 -1.15935 0
M  V30 3755 C 355.251 -2.17551 2.07586 0
M  V30 3756 C 356.799 -2.30937 2.11275 0
M  V30 3757 C 357.274 -3.21396 3.26296 0
M  V30 3758 N 358.765 -3.28981 3.26076 0
M  V30 3759 C 359.5 -3.99095 4.11716 0
M  V30 3760 N 358.996 -4.71648 5.07465 0
M  V30 3761 N 360.789 -3.95247 3.9967 0
M  V30 3762 H 352.94 -0.604988 2.03602 0
M  V30 3763 H 355.203 -0.329368 0.888944 0
M  V30 3764 H 354.909 -1.75921 3.0454 0
M  V30 3765 H 354.783 -3.18182 2.02584 0
M  V30 3766 H 357.17 -2.71809 1.14907 0
M  V30 3767 H 357.251 -1.2994 2.20339 0
M  V30 3768 H 356.895 -2.81238 4.22927 0
M  V30 3769 H 356.825 -4.22395 3.14467 0
M  V30 3770 H 359.316 -2.77286 2.5675 0
M  V30 3771 H 359.629 -5.22705 5.6921 0
M  V30 3772 H 357.974 -4.70594 5.11435 0
M  V30 3773 H 361.165 -3.37691 3.24164 0
M  V30 3774 H 361.338 -4.4962 4.66632 0
M  V30 3775 N 354.744 -0.972509 -1.24016 0
M  V30 3776 C 356.021 -0.553733 -1.87598 0
M  V30 3777 C 356.401 0.969158 -1.87538 0
M  V30 3778 O 355.749 1.84255 -1.35139 0
M  V30 3779 C 355.959 -1.15076 -3.29482 0
M  V30 3780 C 357.307 -1.23862 -4.06132 0
M  V30 3781 O 358.331 -1.10363 -3.38672 0
M  V30 3782 O 357.19 -1.45252 -5.26844 0
M  V30 3783 H 354.284 -0.185331 -0.805966 0
M  V30 3784 H 356.83 -1.06709 -1.31952 0
M  V30 3785 H 355.602 -2.19333 -3.2405 0
M  V30 3786 H 355.225 -0.621746 -3.92709 0
M  V30 3787 N 356.222 1.38976 -0.743202 0
M  V30 3788 C 357.152 2.33171 -0.123873 0
M  V30 3789 C 358.133 1.54336 0.71516 0
M  V30 3790 O 359.318 1.82696 0.658467 0
M  V30 3791 C 356.448 3.38474 0.777978 0
M  V30 3792 C 355.402 4.27979 0.0424758 0
M  V30 3793 C 354.728 5.2405 1.06189 0
M  V30 3794 C 356.028 5.10155 -1.1198 0
M  V30 3795 H 357.722 2.85213 -0.910709 0
M  V30 3796 H 355.268 1.37133 -0.439388 0
M  V30 3797 H 357.221 4.03328 1.22084 0
M  V30 3798 H 355.945 2.84891 1.59702 0
M  V30 3799 H 354.604 3.64616 -0.380853 0
M  V30 3800 H 354.252 4.66758 1.87472 0
M  V30 3801 H 353.952 5.84785 0.574485 0
M  V30 3802 H 355.476 5.9178 1.50428 0
M  V30 3803 H 356.89 5.68307 -0.75499 0
M  V30 3804 H 355.287 5.80073 -1.53738 0
M  V30 3805 H 356.357 4.44504 -1.93764 0
M  V30 3806 N 357.7 0.491464 1.49741 0
M  V30 3807 C 358.648 -0.305837 2.30581 0
M  V30 3808 C 359.642 -0.971642 1.38764 0
M  V30 3809 O 360.848 -0.90042 1.5586 0
M  V30 3810 H 357.223 -0.117482 0.742767 0
M  V30 3811 H 359.194 0.396093 2.95759 0
M  V30 3812 C 357.943 -1.36319 3.19863 0
M  V30 3813 H 357.266 -0.860258 3.90435 0
M  V30 3814 H 358.706 -1.89323 3.79385 0
M  V30 3815 C 357.165 -2.37621 2.38826 0
M  V30 3816 O 357.695 -3.43311 2.08567 0
M  V30 3817 N 355.901 -2.09849 2.01026 0
M  V30 3818 H 355.448 -1.23922 2.25834 0
M  V30 3819 H 355.406 -2.77859 1.47112 0
M  V30 3820 N 359.178 -1.55987 0.224894 0
M  V30 3821 C 360.424 -1.98684 -0.406502 0
M  V30 3822 C 360.757 -1.11248 -1.59177 0
M  V30 3823 O 360.032 -0.170909 -1.93748 0
M  V30 3824 C 360.315 -3.50218 -0.837808 0
M  V30 3825 C 360.168 -4.48426 0.351332 0
M  V30 3826 C 361.487 -4.06243 -1.69278 0
M  V30 3827 H 358.606 -0.722337 -0.146283 0
M  V30 3828 H 361.248 -1.87255 0.321799 0
M  V30 3829 H 359.398 -3.60089 -1.45837 0
M  V30 3830 H 361.07 -4.50562 0.989526 0
M  V30 3831 H 359.313 -4.22159 0.998207 0
M  V30 3832 H 359.984 -5.52 0.00655905 0
M  V30 3833 H 362.46 -3.99337 -1.16914 0
M  V30 3834 H 361.336 -5.12581 -1.96346 0
M  V30 3835 H 361.597 -3.53332 -2.65723 0
M  V30 3836 N 360.656 0.0484629 -1.57525 0
M  V30 3837 C 361.904 0.741657 -1.88 0
M  V30 3838 C 362.225 1.76918 -0.820054 0
M  V30 3839 O 361.495 1.95335 0.148661 0
M  V30 3840 H 360.075 0.276908 -0.69378 0
M  V30 3841 H 362.737 0.019013 -1.94891 0
M  V30 3842 H 361.833 1.24336 -2.86264 0
M  V30 3843 N 362.134 1.5431 0.320358 0
M  V30 3844 C 363.364 1.7638 1.07582 0
M  V30 3845 C 363.772 0.513944 1.82086 0
M  V30 3846 O 363.115 -0.525123 1.76035 0
M  V30 3847 C 363.177 2.9055 2.1171 0
M  V30 3848 C 362.841 4.2934 1.56575 0
M  V30 3849 C 363.838 5.10077 1.00586 0
M  V30 3850 C 361.523 4.75893 1.60722 0
M  V30 3851 C 363.517 6.35477 0.494756 0
M  V30 3852 C 361.204 6.0126 1.09224 0
M  V30 3853 C 362.202 6.80886 0.53696 0
M  V30 3854 O 361.89 8.03894 0.0297371 0
M  V30 3855 H 361.622 0.592369 0.325692 0
M  V30 3856 H 364.176 2.02019 0.37116 0
M  V30 3857 H 362.406 2.60489 2.85801 0
M  V30 3858 H 364.095 3.00373 2.73003 0
M  V30 3859 H 364.861 4.75265 0.966869 0
M  V30 3860 H 360.74 4.13957 2.02882 0
M  V30 3861 H 364.284 6.97574 0.0606842 0
M  V30 3862 H 360.181 6.35562 1.12831 0
M  V30 3863 H 360.949 8.18372 0.14486 0
M  V30 3864 N 363.613 -0.582584 1.46437 0
M  V30 3865 C 364.89 -1.34276 1.4223 0
M  V30 3866 C 365.27 -2.10835 0.10583 0
M  V30 3867 O 364.618 -2.09485 -0.912596 0
M  V30 3868 C 364.828 -2.26865 2.65204 0
M  V30 3869 C 366.176 -2.88691 3.11356 0
M  V30 3870 O 367.2 -2.37178 2.65753 0
M  V30 3871 O 366.059 -3.82255 3.90568 0
M  V30 3872 H 363.153 -0.603326 0.565621 0
M  V30 3873 H 365.699 -0.603591 1.58603 0
M  V30 3874 H 364.471 -1.69724 3.52576 0
M  V30 3875 H 364.094 -3.08122 2.5129 0
M  V30 3876 N 365.091 -1.34144 -0.827227 0
M  V30 3877 C 366.34 -1.25602 -1.5782 0
M  V30 3878 C 366.653 0.173445 -1.94829 0
M  V30 3879 O 367.859 0.380984 -2.68814 0
M  V30 3880 C 366.315 -2.20151 -2.84713 0
M  V30 3881 C 365.923 -3.68331 -2.55021 0
M  V30 3882 C 367.667 -2.20508 -3.62735 0
M  V30 3883 C 365.574 -4.54762 -3.78082 0
M  V30 3884 H 364.504 -0.466573 -0.592306 0
M  V30 3885 H 367.155 -1.59283 -0.911116 0
M  V30 3886 H 365.537 -1.79417 -3.53023 0
M  V30 3887 H 366.711 -4.17577 -1.94849 0
M  V30 3888 H 365.026 -3.7038 -1.90283 0
M  V30 3889 H 367.623 -2.82306 -4.54101 0
M  V30 3890 H 367.966 -1.20322 -3.98533 0
M  V30 3891 H 368.499 -2.59664 -3.01362 0
M  V30 3892 H 365.238 -5.55867 -3.47407 0
M  V30 3893 H 364.758 -4.10254 -4.37552 0
M  V30 3894 H 366.437 -4.69153 -4.45538 0
M  V30 3895 N 366.569 1.04691 -1.17803 0
M  V30 3896 C 367.817 1.7743 -0.967617 0
M  V30 3897 C 368.138 1.88359 0.504574 0
M  V30 3898 O 367.408 1.40402 1.36617 0
M  V30 3899 H 365.988 0.657242 -0.355024 0
M  V30 3900 H 368.65 1.2638 -1.48371 0
M  V30 3901 H 367.746 2.78924 -1.40027 0
M  V30 3902 N 368.047 0.979072 1.23499 0
M  V30 3903 C 368.977 0.537606 2.27227 0
M  V30 3904 C 369.958 -0.428539 1.64613 0
M  V30 3905 O 371.143 -0.322191 1.91509 0
M  V30 3906 C 368.273 -0.162052 3.46922 0
M  V30 3907 C 367.227 0.721242 4.21879 0
M  V30 3908 C 366.553 -0.110555 5.34586 0
M  V30 3909 C 367.853 2.01141 4.82016 0
M  V30 3910 H 369.547 1.40462 2.64406 0
M  V30 3911 H 367.093 0.67684 1.27102 0
M  V30 3912 H 369.046 -0.482192 4.18632 0
M  V30 3913 H 367.77 -1.06351 3.08799 0
M  V30 3914 H 366.429 1.02482 3.51984 0
M  V30 3915 H 366.077 -1.0125 4.92704 0
M  V30 3916 H 365.777 0.477325 5.85658 0
M  V30 3917 H 367.301 -0.425107 6.09118 0
M  V30 3918 H 368.715 1.75612 5.45741 0
M  V30 3919 H 367.112 2.54695 5.43369 0
M  V30 3920 H 368.182 2.69909 4.02836 0
M  V30 3921 N 369.525 -1.3858 0.750561 0
M  V30 3922 C 370.802 -1.94231 0.231009 0
M  V30 3923 C 371.182 -1.68611 -1.27018 0
M  V30 3924 O 370.53 -1.02296 -2.04323 0
M  V30 3925 C 370.74 -3.44123 0.581428 0
M  V30 3926 C 372.088 -4.2116 0.539389 0
M  V30 3927 O 373.112 -3.52391 0.519541 0
M  V30 3928 O 371.971 -5.43749 0.54765 0
M  V30 3929 H 369.065 -0.825639 0.0474263 0
M  V30 3930 H 371.611 -1.4799 0.830478 0
M  V30 3931 H 370.383 -3.56267 1.61833 0
M  V30 3932 H 370.006 -3.97573 -0.0462047 0
M  V30 3933 N 371.003 -0.499398 -1.49478 0
M  V30 3934 C 372.419 -0.155261 -1.58843 0
M  V30 3935 C 372.619 1.34008 -1.50479 0
M  V30 3936 O 371.675 2.11589 -1.37791 0
M  V30 3937 C 372.988 -0.730636 -2.91689 0
M  V30 3938 C 374.536 -0.696599 -3.0515 0
M  V30 3939 C 375.011 -1.25001 -4.40612 0
M  V30 3940 N 376.502 -1.21064 -4.47099 0
M  V30 3941 C 377.237 -1.60905 -5.50361 0
M  V30 3942 N 376.733 -2.08331 -6.60735 0
M  V30 3943 N 378.526 -1.52331 -5.41065 0
M  V30 3944 H 370.677 -1.47162 -1.53158 0
M  V30 3945 H 372.94 -0.610309 -0.725415 0
M  V30 3946 H 372.646 -1.77928 -3.03372 0
M  V30 3947 H 372.52 -0.190161 -3.7672 0
M  V30 3948 H 374.907 0.343204 -2.93097 0
M  V30 3949 H 374.988 -1.2742 -2.21806 0
M  V30 3950 H 374.632 -2.28859 -4.53416 0
M  V30 3951 H 374.562 -0.64836 -5.22593 0
M  V30 3952 H 377.053 -0.863128 -3.67911 0
M  V30 3953 H 377.366 -2.36805 -7.35624 0
M  V30 3954 H 375.711 -2.12304 -6.6178 0
M  V30 3955 H 378.902 -1.151 -4.53729 0
M  V30 3956 H 379.075 -1.83704 -6.21415 0
M  V30 3957 N 372.481 1.55866 -0.233164 0
M  V30 3958 C 373.73 1.97779 0.39579 0
M  V30 3959 C 374.043 1.12419 1.60066 0
M  V30 3960 O 375.249 1.44283 2.29988 0
M  V30 3961 C 373.705 3.5188 0.755556 0
M  V30 3962 C 373.313 4.45959 -0.427152 0
M  V30 3963 C 375.057 4.02479 1.34946 0
M  V30 3964 C 372.964 5.91383 -0.0443043 0
M  V30 3965 H 371.894 0.738592 0.15165 0
M  V30 3966 H 374.545 1.80486 -0.331212 0
M  V30 3967 H 372.927 3.64816 1.5403 0
M  V30 3968 H 374.101 4.44776 -1.20462 0
M  V30 3969 H 372.416 4.05765 -0.935068 0
M  V30 3970 H 375.013 5.08637 1.649 0
M  V30 3971 H 375.356 3.49014 2.26925 0
M  V30 3972 H 375.889 3.92813 0.62791 0
M  V30 3973 H 372.628 6.48857 -0.930874 0
M  V30 3974 H 372.148 5.95734 0.697238 0
M  V30 3975 H 373.827 6.45893 0.378334 0
M  V30 3976 N 373.959 -0.0401083 1.57549 0
M  V30 3977 C 375.206 -0.733125 1.88763 0
M  V30 3978 C 375.534 -1.75946 0.829058 0
M  V30 3979 O 374.789 -1.94949 -0.171323 0
M  V30 3980 C 375.088 -1.44902 3.26708 0
M  V30 3981 C 374.754 -0.559707 4.47413 0
M  V30 3982 C 373.416 -0.314731 4.8017 0
M  V30 3983 C 375.768 0.0549743 5.21171 0
M  V30 3984 C 373.096 0.553886 5.8408 0
M  V30 3985 C 375.448 0.911229 6.26003 0
M  V30 3986 C 374.112 1.16577 6.57241 0
M  V30 3987 H 373.382 -0.268269 0.690733 0
M  V30 3988 H 376.029 0.00679408 1.91499 0
M  V30 3989 H 374.334 -2.26197 3.1991 0
M  V30 3990 H 376.031 -1.99058 3.48105 0
M  V30 3991 H 372.621 -0.760793 4.21794 0
M  V30 3992 H 376.805 -0.121344 4.96152 0
M  V30 3993 H 372.061 0.759518 6.06664 0
M  V30 3994 H 376.235 1.3941 6.82303 0
M  V30 3995 H 373.862 1.84058 7.37582 0
M  V30 3996 N 375.437 -1.54477 -0.31217 0
M  V30 3997 C 376.367 -1.87652 -1.38957 0
M  V30 3998 C 377.348 -0.734358 -1.53431 0
M  V30 3999 O 378.533 -0.98911 -1.67123 0
M  V30 4000 C 375.663 -2.11396 -2.75552 0
M  V30 4001 C 374.617 -3.27243 -2.75855 0
M  V30 4002 C 373.943 -3.36382 -4.15633 0
M  V30 4003 C 375.243 -4.64622 -2.38587 0
M  V30 4004 H 376.937 -2.77887 -1.11442 0
M  V30 4005 H 374.483 -1.33707 -0.534655 0
M  V30 4006 H 376.436 -2.33189 -3.51 0
M  V30 4007 H 375.16 -1.17921 -3.04569 0
M  V30 4008 H 373.819 -3.05356 -2.02863 0
M  V30 4009 H 373.467 -2.40445 -4.41809 0
M  V30 4010 H 373.167 -4.14249 -4.1674 0
M  V30 4011 H 374.691 -3.60422 -4.92877 0
M  V30 4012 H 376.105 -4.86219 -3.03749 0
M  V30 4013 H 374.502 -5.45121 -2.50925 0
M  V30 4014 H 375.572 -4.66097 -1.33723 0
M  V30 4015 N 376.915 0.57481 -1.46744 0
M  V30 4016 C 378.161 1.3347 -1.52688 0
M  V30 4017 C 378.494 1.93353 -0.181229 0
M  V30 4018 O 377.769 1.76912 0.808237 0
M  V30 4019 C 378.052 2.45811 -2.63152 0
M  V30 4020 C 377.905 1.90912 -4.07275 0
M  V30 4021 C 379.224 3.47822 -2.69644 0
M  V30 4022 H 376.343 0.483935 -0.555856 0
M  V30 4023 H 378.985 0.644968 -1.78718 0
M  V30 4024 H 377.135 3.04646 -2.41088 0
M  V30 4025 H 378.807 1.36473 -4.4065 0
M  V30 4026 H 377.05 1.21691 -4.16382 0
M  V30 4027 H 377.721 2.72042 -4.80309 0
M  V30 4028 H 380.197 2.9888 -2.895 0
M  V30 4029 H 379.073 4.23876 -3.48742 0
M  V30 4030 H 379.334 4.05555 -1.76005 0
M  V30 4031 N 378.394 1.34581 0.820102 0
M  V30 4032 C 379.619 1.30333 1.61332 0
M  V30 4033 C 380.044 -0.119339 1.87721 0
M  V30 4034 O 379.402 -1.08197 1.45475 0
M  V30 4035 C 379.45 2.10258 2.92957 0
M  V30 4036 O 378.554 1.47404 3.85157 0
M  V30 4037 H 377.895 0.447488 0.490561 0
M  V30 4038 H 380.425 1.77425 1.01889 0
M  V30 4039 H 380.435 2.21718 3.42498 0
M  V30 4040 H 379.11 3.13693 2.73074 0
M  V30 4041 H 377.687 1.44703 3.43679 0
M  V30 4042 N 379.872 -1.04064 1.18357 0
M  V30 4043 C 381.283 -1.58719 0.98312 0
M  V30 4044 C 381.634 -1.90556 -0.467193 0
M  V30 4045 O 380.759 -1.69561 -1.34454 0
M  V30 4046 C 381.354 -2.88379 1.77828 0
M  V30 4047 C 379.913 -3.3965 1.62218 0
M  V30 4048 C 379.06 -2.13235 1.77274 0
M  V30 4049 H 382.011 -0.867359 1.32901 0
M  V30 4050 H 382.032 -3.58773 1.26737 0
M  V30 4051 H 381.544 -2.65176 2.83379 0
M  V30 4052 H 379.645 -3.67866 0.592036 0
M  V30 4053 H 379.758 -4.13475 2.42023 0
M  V30 4054 H 378.122 -2.24542 1.20221 0
M  V30 4055 H 378.905 -1.92487 2.8426 0
M  V30 4056 N 381.35 -0.985608 -1.22978 0
M  V30 4057 C 382.599 -0.652881 -1.90841 0
M  V30 4058 C 382.912 0.817842 -1.77681 0
M  V30 4059 O 384.118 1.26185 -2.40395 0
M  V30 4060 C 382.574 -1.11717 -3.42122 0
M  V30 4061 C 382.182 -2.6126 -3.63933 0
M  V30 4062 C 383.926 -0.85843 -4.1573 0
M  V30 4063 C 381.833 -3.0133 -5.08876 0
M  V30 4064 H 380.763 -0.240491 -0.714619 0
M  V30 4065 H 383.414 -1.1942 -1.39324 0
M  V30 4066 H 381.796 -0.504027 -3.92779 0
M  V30 4067 H 382.97 -3.27858 -3.23799 0
M  V30 4068 H 381.285 -2.84937 -3.03644 0
M  V30 4069 H 383.882 -1.13359 -5.22546 0
M  V30 4070 H 384.225 0.205461 -4.15793 0
M  V30 4071 H 384.758 -1.43341 -3.71077 0
M  V30 4072 H 381.497 -4.06864 -5.13947 0
M  V30 4073 H 381.017 -2.3943 -5.49939 0
M  V30 4074 H 382.696 -2.92224 -5.77247 0
M  V30 4075 N 382.828 1.3818 -0.7579 0
M  V30 4076 C 384.077 1.99261 -0.312744 0
M  V30 4077 C 384.39 1.60846 1.11301 0
M  V30 4078 O 385.596 2.14929 1.65885 0
M  V30 4079 C 384.052 3.56294 -0.50821 0
M  V30 4080 C 383.66 4.03657 -1.94333 0
M  V30 4081 C 385.404 4.24313 -0.125982 0
M  V30 4082 C 383.311 5.53347 -2.08712 0
M  V30 4083 H 382.241 0.745456 -0.113185 0
M  V30 4084 H 384.892 1.57889 -0.935056 0
M  V30 4085 H 383.274 3.95575 0.183353 0
M  V30 4086 H 384.448 3.75655 -2.66871 0
M  V30 4087 H 382.763 3.48376 -2.28086 0
M  V30 4088 H 385.36 5.34279 -0.212125 0
M  V30 4089 H 385.703 4.05962 0.921964 0
M  V30 4090 H 386.236 3.90285 -0.769563 0
M  V30 4091 H 382.975 5.76607 -3.11777 0
M  V30 4092 H 382.495 5.83078 -1.4064 0
M  V30 4093 H 384.174 6.19111 -1.87912 0
M  V30 4094 N 384.306 0.507319 1.49211 0
M  V30 4095 C 385.555 -0.0368315 2.01666 0
M  V30 4096 C 385.868 -1.37459 1.39156 0
M  V30 4097 O 387.074 -2.00579 1.82976 0
M  V30 4098 C 385.53 -0.116089 3.59713 0
M  V30 4099 C 385.138 1.2154 4.31198 0
M  V30 4100 C 386.882 -0.610268 4.2009 0
M  V30 4101 C 384.789 1.09796 5.81119 0
M  V30 4102 H 383.719 -0.0175376 0.753796 0
M  V30 4103 H 386.37 0.647691 1.71689 0
M  V30 4104 H 384.752 -0.8652 3.86433 0
M  V30 4105 H 385.926 1.9783 4.16173 0
M  V30 4106 H 384.241 1.64352 3.82593 0
M  V30 4107 H 386.838 -0.715742 5.29888 0
M  V30 4108 H 387.181 -1.61064 3.8388 0
M  V30 4109 H 387.714 0.0824916 3.97714 0
M  V30 4110 H 384.453 2.0728 6.21864 0
M  V30 4111 H 383.973 0.376058 5.9862 0
M  V30 4112 H 385.652 0.779281 6.4229 0
M  V30 4113 N 385.784 -1.5574 0.241426 0
M  V30 4114 C 387.03 -1.99104 -0.385406 0
M  V30 4115 C 387.363 -1.1293 -1.57988 0
M  V30 4116 O 386.638 -0.191449 -1.93555 0
M  V30 4117 C 386.921 -3.51087 -0.800616 0
M  V30 4118 C 386.774 -4.48028 0.398874 0
M  V30 4119 C 388.093 -4.08015 -1.64959 0
M  V30 4120 H 385.212 -0.723848 -0.138614 0
M  V30 4121 H 387.854 -1.86903 0.341642 0
M  V30 4122 H 386.004 -3.61615 -1.4201 0
M  V30 4123 H 387.676 -4.49487 1.03726 0
M  V30 4124 H 385.919 -4.21077 1.04293 0
M  V30 4125 H 386.59 -5.51962 0.0651056 0
M  V30 4126 H 389.066 -4.00555 -1.12672 0
M  V30 4127 H 387.942 -5.14635 -1.90898 0
M  V30 4128 H 388.203 -3.56131 -2.61961 0
M  V30 4129 N 387.262 0.0317525 -1.57568 0
M  V30 4130 C 388.212 1.04101 -2.02847 0
M  V30 4131 C 389.196 1.3219 -0.917317 0
M  V30 4132 O 390.388 1.31819 -1.18121 0
M  V30 4133 C 387.517 2.34295 -2.5092 0
M  V30 4134 C 386.603 2.09308 -3.68851 0
M  V30 4135 N 386.994 1.5437 -4.81667 0
M  V30 4136 C 385.292 2.39604 -3.76172 0
M  V30 4137 C 385.993 1.45126 -5.63306 0
M  V30 4138 N 384.969 1.92589 -5.08341 0
M  V30 4139 H 388.771 0.610217 -2.87495 0
M  V30 4140 H 386.285 0.238108 -1.60645 0
M  V30 4141 H 388.282 3.07404 -2.81617 0
M  V30 4142 H 386.942 2.78055 -1.67677 0
M  V30 4143 H 387.953 1.22678 -5.03161 0
M  V30 4144 H 384.63 2.86457 -3.03724 0
M  V30 4145 H 386.02 1.03163 -6.63933 0
M  V30 4146 N 388.74 1.54641 0.303973 0
M  V30 4147 C 389.65 1.88439 1.39743 0
M  V30 4148 C 390.666 0.778239 1.55626 0
M  V30 4149 O 391.842 1.07442 1.70347 0
M  V30 4150 C 388.907 2.12212 2.74166 0
M  V30 4151 C 387.968 3.35936 2.67293 0
M  V30 4152 C 387.201 3.58566 3.95305 0
M  V30 4153 O 387.424 2.84263 4.9452 0
M  V30 4154 O 386.358 4.52078 3.97378 0
M  V30 4155 H 390.184 2.81458 1.14083 0
M  V30 4156 H 387.769 1.40793 0.499768 0
M  V30 4157 H 389.651 2.29067 3.53704 0
M  V30 4158 H 388.326 1.22379 2.99675 0
M  V30 4159 H 387.233 3.24448 1.86237 0
M  V30 4160 H 388.566 4.2589 2.46736 0
M  V30 4161 N 390.218 -0.567019 1.47046 0
M  V30 4162 C 391.467 -1.32091 1.5243 0
M  V30 4163 C 391.78 -1.94704 0.187021 0
M  V30 4164 O 392.986 -2.7124 0.118771 0
M  V30 4165 C 391.442 -2.39479 2.68659 0
M  V30 4166 C 391.05 -1.831 4.08874 0
M  V30 4167 C 392.794 -3.16111 2.83327 0
M  V30 4168 C 390.701 -2.8821 5.16419 0
M  V30 4169 H 389.631 -0.496629 0.56734 0
M  V30 4170 H 392.282 -0.603354 1.73297 0
M  V30 4171 H 390.664 -3.14105 2.41152 0
M  V30 4172 H 391.838 -1.14913 4.46242 0
M  V30 4173 H 390.153 -1.19085 3.99008 0
M  V30 4174 H 392.75 -3.94585 3.60842 0
M  V30 4175 H 393.093 -3.69686 1.91411 0
M  V30 4176 H 393.626 -2.48595 3.10556 0
M  V30 4177 H 390.365 -2.39504 6.10179 0
M  V30 4178 H 389.885 -3.54839 4.8358 0
M  V30 4179 H 391.564 -3.51881 5.42945 0
M  V30 4180 N 391.696 -1.35014 -0.812953 0
M  V30 4181 C 392.973 -1.18502 -1.55617 0
M  V30 4182 C 393.353 0.238421 -2.09749 0
M  V30 4183 O 392.701 1.2411 -1.91857 0
M  V30 4184 C 392.911 -2.24783 -2.66971 0
M  V30 4185 C 394.259 -2.60268 -3.35478 0
M  V30 4186 O 395.283 -2.23648 -2.77236 0
M  V30 4187 O 394.142 -3.2321 -4.40678 0
M  V30 4188 H 391.236 -0.459984 -0.687272 0
M  V30 4189 H 393.782 -1.46677 -0.853464 0
M  V30 4190 H 392.554 -3.20284 -2.24798 0
M  V30 4191 H 392.177 -1.97841 -3.44884 0
M  V30 4192 N 393.175 1.03435 -1.18907 0
M  V30 4193 C 394.085 2.15075 -0.937015 0
M  V30 4194 C 395.101 1.73706 0.101085 0
M  V30 4195 O 396.277 2.01232 -0.0822948 0
M  V30 4196 C 393.342 3.43458 -0.473057 0
M  V30 4197 C 392.403 3.99172 -1.57989 0
M  V30 4198 C 391.636 5.21427 -1.13797 0
M  V30 4199 O 391.859 5.704 0.000725941 0
M  V30 4200 O 390.793 5.69837 -1.9383 0
M  V30 4201 H 394.619 2.39198 -1.87131 0
M  V30 4202 H 392.204 1.13506 -0.971427 0
M  V30 4203 H 394.086 4.20811 -0.222702 0
M  V30 4204 H 392.761 3.20793 0.432869 0
M  V30 4205 H 391.668 3.23178 -1.88433 0
M  V30 4206 H 393.001 4.2619 -2.46217 0
M  V30 4207 N 394.653 0.992116 1.22453 0
M  V30 4208 C 395.93 0.583508 1.86694 0
M  V30 4209 C 396.31 -0.9392 1.89056 0
M  V30 4210 O 395.658 -1.82081 1.38053 0
M  V30 4211 C 395.868 1.20304 3.2761 0
M  V30 4212 C 397.216 1.30308 4.0411 0
M  V30 4213 O 398.24 1.15737 3.36873 0
M  V30 4214 O 397.099 1.53615 5.24466 0
M  V30 4215 H 394.193 0.198129 0.802916 0
M  V30 4216 H 396.739 1.08794 1.30238 0
M  V30 4217 H 395.511 2.24461 3.2052 0
M  V30 4218 H 395.134 0.684144 3.9167 0
M  V30 4219 N 396.131 -1.37776 0.765217 0
M  V30 4220 C 397.356 -2.04651 0.336537 0
M  V30 4221 C 397.781 -1.57337 -1.03086 0
M  V30 4222 O 397.139 -0.730621 -1.65927 0
M  V30 4223 C 397.187 -3.58577 0.381468 0
M  V30 4224 O 396.291 -4.07706 -0.62042 0
M  V30 4225 H 395.632 -0.64756 0.146838 0
M  V30 4226 H 398.162 -1.76221 1.03959 0
M  V30 4227 H 398.172 -4.07314 0.236448 0
M  V30 4228 H 396.847 -3.9237 1.37907 0
M  V30 4229 H 395.424 -3.70306 -0.439056 0
M  V30 4230 N 397.609 -0.515225 -1.4894 0
M  V30 4231 C 399.02 -0.0710067 -1.86565 0
M  V30 4232 C 399.371 1.34733 -1.42623 0
M  V30 4233 O 398.496 2.00653 -0.810379 0
M  V30 4234 C 399.091 -0.122083 -3.3858 0
M  V30 4235 C 397.65 0.266863 -3.75453 0
M  V30 4236 C 396.797 -0.488376 -2.72966 0
M  V30 4237 H 399.748 -0.727266 -1.41055 0
M  V30 4238 H 399.769 0.669818 -3.74558 0
M  V30 4239 H 399.281 -1.15448 -3.70531 0
M  V30 4240 H 397.382 1.30196 -3.49113 0
M  V30 4241 H 397.495 -0.0624811 -4.79059 0
M  V30 4242 H 395.859 0.0635622 -2.54621 0
M  V30 4243 H 396.642 -1.52113 -3.07761 0
M  V30 4244 N 399.087 1.5561 -0.249682 0
M  V30 4245 C 400.017 2.24477 0.642826 0
M  V30 4246 C 400.998 1.22601 1.17911 0
M  V30 4247 O 402.183 1.5126 1.21795 0
M  V30 4248 C 399.313 2.94638 1.83863 0
M  V30 4249 C 398.267 4.03227 1.435 0
M  V30 4250 C 397.593 4.60828 2.71186 0
M  V30 4251 C 398.893 5.18796 0.604002 0
M  V30 4252 H 400.587 2.99321 0.0685625 0
M  V30 4253 H 398.133 1.43965 0.0315363 0
M  V30 4254 H 400.086 3.41517 2.46868 0
M  V30 4255 H 398.81 2.17287 2.43832 0
M  V30 4256 H 397.469 3.57121 0.828275 0
M  V30 4257 H 397.117 3.80174 3.29358 0
M  V30 4258 H 396.817 5.34132 2.44901 0
M  V30 4259 H 398.341 5.10442 3.35084 0
M  V30 4260 H 399.755 5.61883 1.13842 0
M  V30 4261 H 398.152 5.98506 0.437097 0
M  V30 4262 H 399.222 4.83384 -0.383147 0
M  V30 4263 N 400.565 -0.0233959 1.57583 0
M  V30 4264 C 401.795 -0.723631 1.93513 0
M  V30 4265 C 402.203 -1.69115 0.848333 0
M  V30 4266 O 401.546 -1.82781 -0.183484 0
M  V30 4267 C 401.608 -1.53075 3.25282 0
M  V30 4268 C 401.272 -0.727388 4.51174 0
M  V30 4269 C 402.269 -0.0251924 5.19894 0
M  V30 4270 C 399.954 -0.680256 4.97672 0
M  V30 4271 C 401.948 0.713374 6.33395 0
M  V30 4272 C 399.635 0.0620523 6.11068 0
M  V30 4273 C 400.633 0.757622 6.78785 0
M  V30 4274 O 400.321 1.48787 7.90011 0
M  V30 4275 H 400.053 -0.208051 0.643188 0
M  V30 4276 H 402.607 0.0167489 2.05393 0
M  V30 4277 H 400.837 -2.31508 3.09744 0
M  V30 4278 H 402.526 -2.11413 3.46496 0
M  V30 4279 H 403.292 -0.0526003 4.84971 0
M  V30 4280 H 399.171 -1.21116 4.44805 0
M  V30 4281 H 402.715 1.25683 6.86185 0
M  V30 4282 H 398.612 0.0913634 6.45435 0
M  V30 4283 H 399.38 1.40213 8.06401 0
M  V30 4284 N 402.043 -1.548 -0.295768 0
M  V30 4285 C 403.291 -1.73985 -1.02828 0
M  V30 4286 C 403.612 -0.531406 -1.87619 0
M  V30 4287 O 402.882 0.454221 -1.90561 0
M  V30 4288 H 401.462 -0.641556 -0.382642 0
M  V30 4289 H 404.124 -1.92163 -0.325489 0
M  V30 4290 H 403.22 -2.63129 -1.67838 0
M  V30 4291 N 403.521 0.559213 -1.47345 0
M  V30 4292 C 404.454 1.68201 -1.5422 0
M  V30 4293 C 405.432 1.57742 -0.394497 0
M  V30 4294 O 406.616 1.78628 -0.60201 0
M  V30 4295 C 403.743 3.0643 -1.44285 0
M  V30 4296 C 402.789 3.3534 -2.63532 0
M  V30 4297 S 403.622 3.24816 -4.25741 0
M  V30 4298 C 404.778 4.65542 -4.18355 0
M  V30 4299 H 405.011 1.62114 -2.49211 0
M  V30 4300 H 402.544 0.739871 -1.35519 0
M  V30 4301 H 404.502 3.86164 -1.3924 0
M  V30 4302 H 403.163 3.09984 -0.506816 0
M  V30 4303 H 402.356 4.36107 -2.52639 0
M  V30 4304 H 401.958 2.63221 -2.65689 0
M  V30 4305 H 404.25 5.56449 -3.86485 0
M  V30 4306 H 405.193 4.81493 -5.19202 0
M  V30 4307 H 405.601 4.43495 -3.49246 0
M  V30 4308 N 404.999 1.35443 0.805782 0
M  V30 4309 C 406.247 1.28507 1.55982 0
M  V30 4310 C 406.568 -0.140046 1.94496 0
M  V30 4311 O 405.838 -1.07666 1.63661 0
M  V30 4312 H 404.418 0.472676 0.578434 0
M  V30 4313 H 407.08 1.69555 0.961098 0
M  V30 4314 H 406.176 1.90148 2.47488 0
M  V30 4315 N 406.477 -1.02803 1.19454 0
M  V30 4316 C 407.424 -2.11099 0.933046 0
M  V30 4317 C 408.394 -1.65571 -0.132447 0
M  V30 4318 O 409.579 -1.90797 0.00987576 0
M  V30 4319 C 406.719 -3.41763 0.478747 0
M  V30 4320 C 405.832 -4.00833 1.6111 0
M  V30 4321 C 404.967 -5.19511 1.10825 0
M  V30 4322 C 404.006 -5.70639 2.21445 0
M  V30 4323 N 403.143 -6.80589 1.72461 0
M  V30 4324 H 407.983 -2.32804 1.86028 0
M  V30 4325 H 405.52 -1.14179 0.927441 0
M  V30 4326 H 407.478 -4.16736 0.196745 0
M  V30 4327 H 406.108 -3.20166 -0.411493 0
M  V30 4328 H 405.16 -3.23066 2.00829 0
M  V30 4329 H 406.472 -4.34794 2.4445 0
M  V30 4330 H 405.626 -6.01645 0.781533 0
M  V30 4331 H 404.365 -4.87086 0.244606 0
M  V30 4332 H 403.37 -4.87116 2.54947 0
M  V30 4333 H 404.595 -6.05102 3.08267 0
M  V30 4334 H 402.541 -6.50016 0.884056 0
M  V30 4335 H 402.458 -7.13681 2.49389 0
M  V30 4336 H 403.726 -7.66317 1.42755 0
M  V30 4337 N 407.956 -0.998596 -1.21925 0
M  V30 4338 C 408.866 -0.562736 -2.27751 0
M  V30 4339 C 409.882 0.391203 -1.69545 0
M  V30 4340 O 411.058 0.256625 -1.99758 0
M  V30 4341 C 408.123 0.11012 -3.46525 0
M  V30 4342 C 407.184 -0.887495 -4.20026 0
M  V30 4343 C 406.417 -0.246654 -5.3313 0
M  V30 4344 O 406.64 0.958088 -5.62296 0
M  V30 4345 O 405.574 -0.954374 -5.94286 0
M  V30 4346 H 409.4 -1.44329 -2.67213 0
M  V30 4347 H 406.985 -0.767135 -1.28201 0
M  V30 4348 H 408.867 0.486756 -4.18579 0
M  V30 4349 H 407.542 0.965154 -3.08976 0
M  V30 4350 H 406.449 -1.31517 -3.5022 0
M  V30 4351 H 407.782 -1.71191 -4.6147 0
M  V30 4352 N 409.434 1.37368 -0.772513 0
M  V30 4353 C 410.344 2.34053 -0.160081 0
M  V30 4354 C 411.36 1.60216 0.678728 0
M  V30 4355 O 412.536 1.92303 0.59847 0
M  V30 4356 C 409.601 3.3939 0.708182 0
M  V30 4357 C 408.662 4.29048 -0.147172 0
M  V30 4358 C 407.895 5.29354 0.679744 0
M  V30 4359 O 408.118 5.3723 1.91678 0
M  V30 4360 O 407.052 6.01835 0.0885444 0
M  V30 4361 H 410.878 2.88159 -0.959053 0
M  V30 4362 H 408.463 1.39543 -0.533685 0
M  V30 4363 H 410.345 4.03839 1.20384 0
M  V30 4364 H 409.02 2.8761 1.48533 0
M  V30 4365 H 407.927 3.67697 -0.689205 0
M  V30 4366 H 409.26 4.84134 -0.887423 0
M  V30 4367 N 410.912 0.523116 1.48665 0
M  V30 4368 C 411.842 -0.23231 2.32342 0
M  V30 4369 C 412.823 -0.941637 1.41659 0
M  V30 4370 O 414.008 -0.928751 1.70552 0
M  V30 4371 C 411.138 -1.28387 3.22698 0
M  V30 4372 C 410.092 -0.693098 4.22351 0
M  V30 4373 C 409.418 -1.8468 5.01794 0
M  V30 4374 C 410.718 0.33063 5.21252 0
M  V30 4375 H 412.412 0.466192 2.95748 0
M  V30 4376 H 409.958 0.225643 1.42221 0
M  V30 4377 H 411.911 -1.82024 3.80059 0
M  V30 4378 H 410.635 -2.01186 2.57278 0
M  V30 4379 H 409.294 -0.178299 3.66166 0
M  V30 4380 H 408.942 -2.56301 4.32804 0
M  V30 4381 H 408.642 -1.45747 5.69238 0
M  V30 4382 H 410.166 -2.38709 5.62006 0
M  V30 4383 H 411.58 -0.118407 5.73178 0
M  V30 4384 H 409.977 0.636974 5.9671 0
M  V30 4385 H 411.047 1.23883 4.68808 0
M  V30 4386 N 412.39 -1.55475 0.257931 0
M  V30 4387 C 413.3 -2.2549 -0.647425 0
M  V30 4388 C 414.316 -1.2748 -1.18427 0
M  V30 4389 O 415.492 -1.6038 -1.2182 0
M  V30 4390 C 412.557 -2.94916 -1.82278 0
M  V30 4391 C 411.618 -4.08363 -1.32432 0
M  V30 4392 C 410.851 -4.74469 -2.44366 0
M  V30 4393 O 411.074 -4.39701 -3.63344 0
M  V30 4394 O 410.008 -5.62763 -2.13497 0
M  V30 4395 H 413.834 -3.03593 -0.0807707 0
M  V30 4396 H 411.419 -1.49377 0.0259962 0
M  V30 4397 H 413.301 -3.38606 -2.50846 0
M  V30 4398 H 411.976 -2.19744 -2.37685 0
M  V30 4399 H 410.883 -3.69166 -0.605605 0
M  V30 4400 H 412.216 -4.85385 -0.816211 0
M  V30 4401 N 413.868 0.0150385 -1.57593 0
M  V30 4402 C 415.093 0.718067 -1.94573 0
M  V30 4403 C 415.518 1.6734 -0.859005 0
M  V30 4404 O 414.876 1.80362 0.184147 0
M  V30 4405 C 414.924 1.43918 -3.30636 0
M  V30 4406 O 414.028 2.55299 -3.23876 0
M  V30 4407 H 413.369 0.192125 -0.635597 0
M  V30 4408 H 415.899 -0.0336708 -2.04572 0
M  V30 4409 H 415.909 1.80598 -3.65853 0
M  V30 4410 H 414.584 0.738619 -4.09289 0
M  V30 4411 H 413.161 2.21058 -3.00312 0
M  V30 4412 N 415.346 1.54954 0.287554 0
M  V30 4413 C 416.256 1.8991 1.37736 0
M  V30 4414 C 417.272 0.794701 1.54792 0
M  V30 4415 O 418.448 1.09243 1.69198 0
M  V30 4416 C 415.513 2.15108 2.71899 0
M  V30 4417 C 414.574 3.38752 2.63715 0
M  V30 4418 C 413.807 3.62739 3.91479 0
M  V30 4419 O 414.03 2.89492 4.91478 0
M  V30 4420 O 412.964 4.56267 3.92561 0
M  V30 4421 H 416.79 2.82652 1.11092 0
M  V30 4422 H 414.375 1.41315 0.484807 0
M  V30 4423 H 416.257 2.32806 3.51254 0
M  V30 4424 H 414.932 1.25551 2.9836 0
M  V30 4425 H 413.839 3.26405 1.82786 0
M  V30 4426 H 415.172 4.28483 2.42205 0
M  V30 4427 N 416.824 -0.551391 1.4764 0
M  V30 4428 C 418.101 -1.31229 1.45046 0
M  V30 4429 C 418.481 -2.10563 0.150527 0
M  V30 4430 O 417.829 -2.11374 -0.867956 0
M  V30 4431 C 418.039 -2.21189 2.69956 0
M  V30 4432 C 419.387 -2.82021 3.1741 0
M  V30 4433 O 420.411 -2.31488 2.70724 0
M  V30 4434 O 419.27 -3.73885 3.98588 0
M  V30 4435 H 416.364 -0.591193 0.578291 0
M  V30 4436 H 418.91 -0.569813 1.59847 0
M  V30 4437 H 417.682 -1.62207 3.56096 0
M  V30 4438 H 417.305 -3.02722 2.57769 0
M  V30 4439 N 418.302 -1.35869 -0.798587 0
M  V30 4440 C 419.549 -1.29588 -1.55606 0
M  V30 4441 C 419.877 0.127456 -1.94082 0
M  V30 4442 O 419.132 1.09461 -1.62225 0
M  V30 4443 C 419.431 -2.1556 -2.85077 0
M  V30 4444 C 419.097 -3.6424 -2.65781 0
M  V30 4445 C 417.759 -4.04766 -2.60227 0
M  V30 4446 C 420.111 -4.58547 -2.47758 0
M  V30 4447 C 417.439 -5.37753 -2.34603 0
M  V30 4448 C 419.791 -5.91742 -2.23662 0
M  V30 4449 C 418.455 -6.31402 -2.16534 0
M  V30 4450 H 417.725 -0.474197 -0.569402 0
M  V30 4451 H 420.372 -1.67839 -0.922086 0
M  V30 4452 H 418.677 -1.70216 -3.52893 0
M  V30 4453 H 420.374 -2.08031 -3.42818 0
M  V30 4454 H 416.964 -3.32086 -2.70956 0
M  V30 4455 H 421.148 -4.28117 -2.51056 0
M  V30 4456 H 416.404 -5.67474 -2.2756 0
M  V30 4457 H 420.578 -6.6439 -2.08708 0
M  V30 4458 H 418.205 -7.34381 -1.96441 0
M  V30 4459 N 419.78 1.02168 -1.19998 0
M  V30 4460 C 420.69 2.14069 -0.959774 0
M  V30 4461 C 421.706 1.73804 0.082655 0
M  V30 4462 O 422.882 2.01133 -0.103633 0
M  V30 4463 C 419.947 3.42936 -0.509459 0
M  V30 4464 C 419.008 3.97474 -1.62213 0
M  V30 4465 C 418.241 5.2019 -1.19321 0
M  V30 4466 O 418.464 5.70369 -0.0597726 0
M  V30 4467 O 417.398 5.67749 -1.99863 0
M  V30 4468 H 421.224 2.37199 -1.89658 0
M  V30 4469 H 418.809 1.12469 -0.983411 0
M  V30 4470 H 420.691 4.20551 -0.267322 0
M  V30 4471 H 419.366 3.21234 0.398821 0
M  V30 4472 H 418.273 3.21161 -1.9185 0
M  V30 4473 H 419.606 4.23555 -2.50723 0
M  V30 4474 N 421.258 1.00505 1.21394 0
M  V30 4475 C 422.507 0.683159 1.89778 0
M  V30 4476 C 422.82 -0.789471 1.7896 0
M  V30 4477 O 424.026 -1.22344 2.42372 0
M  V30 4478 C 422.482 1.17146 3.40301 0
M  V30 4479 C 422.09 2.67017 3.5973 0
M  V30 4480 C 423.834 0.924461 4.14311 0
M  V30 4481 C 421.741 3.09387 5.04017 0
M  V30 4482 H 420.671 0.25183 0.710702 0
M  V30 4483 H 423.322 1.21622 1.37406 0
M  V30 4484 H 421.704 0.566451 3.91928 0
M  V30 4485 H 422.878 3.32968 3.18542 0
M  V30 4486 H 421.193 2.89732 2.99073 0
M  V30 4487 H 423.79 1.21658 5.20676 0
M  V30 4488 H 424.133 -0.139286 4.16067 0
M  V30 4489 H 424.666 1.49226 3.6875 0
M  V30 4490 H 421.405 4.14989 5.07409 0
M  V30 4491 H 420.925 2.48149 5.46061 0
M  V30 4492 H 422.604 3.01371 5.72525 0
M  V30 4493 N 422.737 -1.36956 0.779787 0
M  V30 4494 C 423.983 -1.99787 0.348281 0
M  V30 4495 C 424.316 -1.61756 -1.07465 0
M  V30 4496 O 423.591 -0.867639 -1.74075 0
M  V30 4497 C 423.874 -3.56597 0.50104 0
M  V30 4498 C 423.727 -4.04513 1.96697 0
M  V30 4499 C 425.046 -4.40008 -0.0898097 0
M  V30 4500 H 422.165 -0.725796 0.128022 0
M  V30 4501 H 424.807 -1.62514 0.984331 0
M  V30 4502 H 422.957 -3.88479 -0.0404347 0
M  V30 4503 H 424.629 -3.83161 2.56876 0
M  V30 4504 H 422.872 -3.56408 2.47297 0
M  V30 4505 H 423.543 -5.1352 2.02486 0
M  V30 4506 H 426.019 -4.14431 0.372293 0
M  V30 4507 H 424.895 -5.4888 0.0471605 0
M  V30 4508 H 425.156 -4.26035 -1.18096 0
M  V30 4509 N 424.215 -0.530993 -1.48385 0
M  V30 4510 C 425.461 0.00274135 -2.028 0
M  V30 4511 C 425.794 1.33838 -1.40716 0
M  V30 4512 O 425.069 1.86465 -0.553277 0
M  V30 4513 C 425.352 0.123676 -3.59888 0
M  V30 4514 C 425.205 -1.2372 -4.3245 0
M  V30 4515 C 426.524 0.849967 -4.31814 0
M  V30 4516 H 423.643 -0.000477758 -0.737 0
M  V30 4517 H 426.285 -0.688217 -1.77098 0
M  V30 4518 H 424.435 0.712157 -3.81917 0
M  V30 4519 H 426.107 -1.86687 -4.21836 0
M  V30 4520 H 424.35 -1.81882 -3.93829 0
M  V30 4521 H 425.021 -1.10557 -5.40815 0
M  V30 4522 H 427.497 0.350572 -4.14621 0
M  V30 4523 H 426.373 0.903486 -5.41413 0
M  V30 4524 H 426.634 1.90047 -3.99167 0
M  V30 4525 N 425.693 1.55336 -0.266172 0
M  V30 4526 C 426.942 1.98574 0.353749 0
M  V30 4527 C 427.255 1.15789 1.57646 0
M  V30 4528 O 428.461 1.49129 2.26876 0
M  V30 4529 C 426.917 3.53403 0.680747 0
M  V30 4530 C 426.525 4.44953 -0.52165 0
M  V30 4531 C 428.269 4.05251 1.26379 0
M  V30 4532 C 426.176 5.91156 -0.169736 0
M  V30 4533 H 425.106 0.741643 0.135949 0
M  V30 4534 H 427.757 1.79743 -0.369421 0
M  V30 4535 H 426.139 3.68001 1.46257 0
M  V30 4536 H 427.313 4.42121 -1.29869 0
M  V30 4537 H 425.628 4.03691 -1.02093 0
M  V30 4538 H 428.225 5.12021 1.54074 0
M  V30 4539 H 428.568 3.53749 2.19471 0
M  V30 4540 H 429.101 3.94057 0.544447 0
M  V30 4541 H 425.84 6.46736 -1.0683 0
M  V30 4542 H 425.36 5.97079 0.570717 0
M  V30 4543 H 427.039 6.4655 0.241245 0
M  V30 4544 N 427.171 -0.0066808 1.57599 0
M  V30 4545 C 428.101 -0.999296 2.11036 0
M  V30 4546 C 429.082 -1.36278 1.01795 0
M  V30 4547 O 430.267 -1.4477 1.29442 0
M  V30 4548 C 427.397 -2.29328 2.60818 0
M  V30 4549 C 426.351 -2.07159 3.74525 0
M  V30 4550 C 425.677 -3.42512 4.10596 0
M  V30 4551 C 426.977 -1.43959 5.02069 0
M  V30 4552 H 428.671 -0.554382 2.94223 0
M  V30 4553 H 426.217 -0.265221 1.41536 0
M  V30 4554 H 428.17 -2.99117 2.96828 0
M  V30 4555 H 426.894 -2.7592 1.74745 0
M  V30 4556 H 425.553 -1.39797 3.38899 0
M  V30 4557 H 425.201 -3.86795 3.21556 0
M  V30 4558 H 424.901 -3.28498 4.87199 0
M  V30 4559 H 426.425 -4.13628 4.4916 0
M  V30 4560 H 427.839 -2.03696 5.35893 0
M  V30 4561 H 426.236 -1.40452 5.83432 0
M  V30 4562 H 427.306 -0.407992 4.83181 0
M  V30 4563 N 428.649 -1.55105 -0.279332 0
M  V30 4564 C 429.559 -1.90638 -1.36727 0
M  V30 4565 C 430.575 -0.802899 -1.54368 0
M  V30 4566 O 431.751 -1.10138 -1.68616 0
M  V30 4567 C 428.816 -2.16547 -2.70755 0
M  V30 4568 C 427.877 -3.40146 -2.61915 0
M  V30 4569 C 427.11 -3.6481 -3.8955 0
M  V30 4570 O 427.333 -2.92095 -4.89935 0
M  V30 4571 O 426.267 -4.58343 -3.90135 0
M  V30 4572 H 430.093 -2.83237 -1.09591 0
M  V30 4573 H 427.678 -1.4157 -0.477306 0
M  V30 4574 H 429.56 -2.34665 -3.50014 0
M  V30 4575 H 428.235 -1.27131 -2.9769 0
M  V30 4576 H 427.142 -3.2737 -1.81052 0
M  V30 4577 H 428.475 -4.29761 -2.3993 0
M  V30 4578 N 430.127 0.543554 -1.4793 0
M  V30 4579 C 431.375 1.29752 -1.54948 0
M  V30 4580 C 431.696 1.93764 -0.219242 0
M  V30 4581 O 430.966 1.80639 0.75805 0
M  V30 4582 H 429.546 0.481874 -0.570795 0
M  V30 4583 H 432.208 0.633636 -1.84312 0
M  V30 4584 H 431.304 2.08392 -2.32334 0
M  V30 4585 N 431.605 1.3629 0.791371 0
M  V30 4586 C 432.538 1.24816 1.9104 0
M  V30 4587 C 433.516 0.132739 1.62057 0
M  V30 4588 O 434.7 0.303527 1.8604 0
M  V30 4589 C 431.827 0.925355 3.25814 0
M  V30 4590 C 430.873 2.05495 3.7373 0
M  V30 4591 S 431.706 3.67255 3.89723 0
M  V30 4592 C 432.862 3.37084 5.27376 0
M  V30 4593 H 433.095 2.19533 2.00481 0
M  V30 4594 H 430.628 1.21684 0.950393 0
M  V30 4595 H 432.586 0.745924 4.03666 0
M  V30 4596 H 431.247 -0.00400098 3.141 0
M  V30 4597 H 430.44 1.7836 4.71385 0
M  V30 4598 H 430.042 2.1935 3.02922 0
M  V30 4599 H 432.334 2.90856 6.1189 0
M  V30 4600 H 433.277 4.33995 5.59512 0
M  V30 4601 H 433.685 2.7248 4.94383 0
M  V30 4602 N 433.083 -1.0153 1.20538 0
M  V30 4603 C 434.329 -1.75408 1.01783 0
M  V30 4604 C 434.662 -1.88943 -0.448814 0
M  V30 4605 O 433.937 -1.4162 -1.33319 0
M  V30 4606 C 434.22 -3.17255 1.70356 0
M  V30 4607 C 434.073 -3.11508 3.24473 0
M  V30 4608 C 435.392 -4.15955 1.43769 0
M  V30 4609 H 432.511 -0.636713 0.371167 0
M  V30 4610 H 435.153 -1.18436 1.4857 0
M  V30 4611 H 433.303 -3.65898 1.30578 0
M  V30 4612 H 434.975 -2.70658 3.73553 0
M  V30 4613 H 433.218 -2.4887 3.55311 0
M  V30 4614 H 433.889 -4.11784 3.67611 0
M  V30 4615 H 436.365 -3.75973 1.7828 0
M  V30 4616 H 435.241 -5.13368 1.94279 0
M  V30 4617 H 435.502 -4.40586 0.365564 0
M  V30 4618 N 434.561 -1.01147 -1.20859 0
M  V30 4619 C 435.471 -0.58686 -2.27141 0
M  V30 4620 C 436.487 0.373198 -1.69951 0
M  V30 4621 O 437.663 0.235423 -2.00019 0
M  V30 4622 C 434.728 0.0733602 -3.46622 0
M  V30 4623 C 433.789 -0.931995 -4.19061 0
M  V30 4624 C 433.022 -0.303186 -5.32838 0
M  V30 4625 O 433.245 0.898395 -5.63281 0
M  V30 4626 O 432.179 -1.01735 -5.9324 0
M  V30 4627 H 436.005 -1.47155 -2.65667 0
M  V30 4628 H 433.59 -0.780689 -1.2738 0
M  V30 4629 H 435.472 0.442333 -4.19072 0
M  V30 4630 H 434.147 0.932329 -3.09983 0
M  V30 4631 H 433.054 -1.35224 -3.48805 0
M  V30 4632 H 434.387 -1.76076 -4.59628 0
M  V30 4633 N 436.039 1.36541 -0.78704 0
M  V30 4634 C 437.002 2.28413 -0.189778 0
M  V30 4635 C 438.002 1.48719 0.611499 0
M  V30 4636 O 439.192 1.68737 0.432842 0
M  V30 4637 C 436.324 3.32824 0.737638 0
M  V30 4638 H 437.517 2.82743 -0.999831 0
M  V30 4639 H 435.07 1.46065 -0.556298 0
M  V30 4640 H 435.805 2.83646 1.57212 0
M  V30 4641 H 435.59 3.91752 0.165044 0
M  V30 4642 H 437.08 4.0144 1.15047 0
M  V30 4643 N 437.518 0.538854 1.48102 0
M  V30 4644 C 438.746 0.0123136 2.06896 0
M  V30 4645 C 439.161 -1.27312 1.39417 0
M  V30 4646 O 438.518 -1.75949 0.484582 0
M  V30 4647 C 438.569 -0.206118 3.60912 0
M  V30 4648 O 438.29 1.0284 4.25859 0
M  V30 4649 C 439.791 -0.772033 4.36526 0
M  V30 4650 H 437.011 0.0375239 0.66995 0
M  V30 4651 H 439.555 0.747032 1.90367 0
M  V30 4652 H 437.71 -0.89091 3.77017 0
M  V30 4653 H 438.124 0.814654 5.18135 0
M  V30 4654 H 439.598 -0.874251 5.45033 0
M  V30 4655 H 440.075 -1.77904 4.01555 0
M  V30 4656 H 440.681 -0.123526 4.25121 0
M  V30 4657 N 438.996 -1.55193 0.274407 0
M  V30 4658 C 439.959 -2.212 -0.600279 0
M  V30 4659 C 440.959 -1.18963 -1.08187 0
M  V30 4660 O 442.149 -1.43873 -0.982158 0
M  V30 4661 C 439.281 -2.87739 -1.82809 0
M  V30 4662 H 440.474 -2.9989 -0.0239682 0
M  V30 4663 H 438.027 -1.5628 0.0250192 0
M  V30 4664 H 438.762 -2.13058 -2.44493 0
M  V30 4665 H 438.547 -3.62658 -1.49069 0
M  V30 4666 H 440.037 -3.38171 -2.45011 0
M  V30 4667 N 440.474 -0.00167713 -1.576 0
M  V30 4668 C 441.407 1.02317 -2.03977 0
M  V30 4669 C 442.385 1.33381 -0.929963 0
M  V30 4670 O 443.569 1.45517 -1.19822 0
M  V30 4671 C 440.696 2.35035 -2.43878 0
M  V30 4672 C 439.742 2.19621 -3.65607 0
M  V30 4673 S 440.575 1.52068 -5.13455 0
M  V30 4674 C 441.731 2.86212 -5.56627 0
M  V30 4675 H 441.964 0.628285 -2.90585 0
M  V30 4676 H 439.497 0.209239 -1.52976 0
M  V30 4677 H 441.455 3.11345 -2.67534 0
M  V30 4678 H 440.116 2.71663 -1.57665 0
M  V30 4679 H 439.309 3.1767 -3.91282 0
M  V30 4680 H 438.911 1.51455 -3.41961 0
M  V30 4681 H 441.203 3.82509 -5.59189 0
M  V30 4682 H 442.146 2.65235 -6.56549 0
M  V30 4683 H 442.554 2.90199 -4.84195 0
M  V30 4684 N 441.952 1.55251 0.271103 0
M  V30 4685 C 443.18 1.79974 1.02064 0
M  V30 4686 C 443.595 0.574003 1.79863 0
M  V30 4687 O 442.952 -0.456962 1.76686 0
M  V30 4688 C 443.003 3.02603 1.97772 0
M  V30 4689 O 442.724 4.20443 1.23124 0
M  V30 4690 C 444.225 3.39944 2.84522 0
M  V30 4691 H 441.445 0.599489 0.301419 0
M  V30 4692 H 443.989 2.02268 0.301313 0
M  V30 4693 H 442.144 2.8243 2.65165 0
M  V30 4694 H 442.558 4.89783 1.87651 0
M  V30 4695 H 444.032 4.28915 3.47471 0
M  V30 4696 H 444.509 2.59432 3.54389 0
M  V30 4697 H 445.115 3.62383 2.22618 0
M  V30 4698 N 443.43 -0.535701 1.48216 0
M  V30 4699 C 444.658 -1.31671 1.59594 0
M  V30 4700 C 445.073 -1.87083 0.254056 0
M  V30 4701 O 444.43 -1.66112 -0.755854 0
M  V30 4702 C 444.481 -2.47158 2.63809 0
M  V30 4703 O 444.202 -1.94032 3.92789 0
M  V30 4704 C 445.703 -3.39062 2.85573 0
M  V30 4705 H 442.923 -0.400623 0.538277 0
M  V30 4706 H 445.467 -0.646827 1.94001 0
M  V30 4707 H 443.622 -3.10043 2.32276 0
M  V30 4708 H 444.036 -2.69585 4.49916 0
M  V30 4709 H 445.51 -4.16459 3.62306 0
M  V30 4710 H 445.987 -3.93941 1.94184 0
M  V30 4711 H 446.593 -2.81975 3.18387 0
M  V30 4712 N 444.908 -1.36708 -0.784132 0
M  V30 4713 C 445.84 -1.27333 -1.90575 0
M  V30 4714 C 446.853 -0.191706 -1.61667 0
M  V30 4715 O 448.042 -0.446854 -1.72816 0
M  V30 4716 C 445.142 -0.943177 -3.25511 0
M  V30 4717 C 444.315 -2.12776 -3.82158 0
M  V30 4718 C 443.374 -1.76983 -4.95544 0
M  V30 4719 O 442.4 -2.49134 -5.11782 0
M  V30 4720 N 443.602 -0.706624 -5.76183 0
M  V30 4721 H 446.367 -2.23974 -1.99138 0
M  V30 4722 H 443.928 -1.30171 -0.962656 0
M  V30 4723 H 445.92 -0.684799 -3.98864 0
M  V30 4724 H 444.49 -0.0657333 -3.12531 0
M  V30 4725 H 443.71 -2.54863 -3.0073 0
M  V30 4726 H 444.998 -2.91904 -4.16737 0
M  V30 4727 H 444.396 -0.107643 -5.65598 0
M  V30 4728 H 442.953 -0.50808 -6.49817 0
M  V30 4729 N 446.386 1.0089 -1.21074 0
M  V30 4730 C 447.349 2.0775 -0.968129 0
M  V30 4731 C 448.349 1.6069 0.0593445 0
M  V30 4732 O 449.539 1.73293 -0.177525 0
M  V30 4733 C 446.671 3.37794 -0.459108 0
M  V30 4734 H 447.864 2.30707 -1.9161 0
M  V30 4735 H 445.417 1.17807 -1.02719 0
M  V30 4736 H 446.152 3.20516 0.49397 0
M  V30 4737 H 445.937 3.7328 -1.20019 0
M  V30 4738 H 447.427 4.16454 -0.309099 0
M  V30 4739 N 447.864 1.01787 1.20321 0
M  V30 4740 C 449.28 0.732951 1.41774 0
M  V30 4741 C 449.48 -0.686883 1.89431 0
M  V30 4742 O 448.536 -1.45446 2.06402 0
M  V30 4743 C 449.849 1.75973 2.43832 0
M  V30 4744 C 451.397 1.77802 2.57596 0
M  V30 4745 C 451.872 2.7941 3.62897 0
M  V30 4746 N 453.363 2.78157 3.70382 0
M  V30 4747 C 454.098 3.53434 4.51521 0
M  V30 4748 N 453.594 4.38392 5.36455 0
M  V30 4749 N 455.387 3.42026 4.46066 0
M  V30 4750 H 447.538 1.93447 0.877035 0
M  V30 4751 H 449.801 0.835712 0.447536 0
M  V30 4752 H 449.507 2.77699 2.15815 0
M  V30 4753 H 449.381 1.57292 3.4284 0
M  V30 4754 H 451.768 0.767602 2.84942 0
M  V30 4755 H 451.849 2.00557 1.58779 0
M  V30 4756 H 451.493 3.80616 3.36295 0
M  V30 4757 H 451.423 2.53916 4.61339 0
M  V30 4758 H 453.914 2.16531 3.09714 0
M  V30 4759 H 454.227 4.92596 5.95457 0
M  V30 4760 H 452.572 4.4247 5.35953 0
M  V30 4761 H 455.763 2.75075 3.78749 0
M  V30 4762 H 455.936 4.00946 5.09064 0
M  V30 4763 N 449.342 -1.36122 0.79427 0
M  V30 4764 C 450.567 -2.03891 0.379871 0
M  V30 4765 C 450.992 -1.59488 -0.997251 0
M  V30 4766 O 450.35 -0.765652 -1.64339 0
M  V30 4767 C 450.398 -3.57687 0.457442 0
M  V30 4768 O 449.502 -4.08931 -0.5338 0
M  V30 4769 H 448.843 -0.6443 0.160541 0
M  V30 4770 H 451.373 -1.73976 1.07673 0
M  V30 4771 H 451.383 -4.06721 0.322792 0
M  V30 4772 H 450.058 -3.89357 1.46199 0
M  V30 4773 H 448.635 -3.71154 -0.360409 0
M  V30 4774 N 450.82 -0.546701 -1.47814 0
M  V30 4775 C 452.045 -0.021268 -2.07389 0
M  V30 4776 C 452.47 1.25822 -1.39822 0
M  V30 4777 O 451.828 1.75111 -0.46968 0
M  V30 4778 C 451.876 0.168502 -3.60206 0
M  V30 4779 O 450.98 1.23347 -3.93522 0
M  V30 4780 H 450.321 -0.0466108 -0.662362 0
M  V30 4781 H 452.851 -0.759387 -1.89985 0
M  V30 4782 H 452.861 0.385982 -4.0617 0
M  V30 4783 H 451.536 -0.766075 -4.08784 0
M  V30 4784 H 450.113 0.997319 -3.59316 0
M  V30 4785 N 452.299 1.55045 -0.282633 0
M  V30 4786 C 453.529 2.03872 0.334635 0
M  V30 4787 C 453.937 1.16018 1.49454 0
M  V30 4788 O 453.28 0.174449 1.8287 0
M  V30 4789 C 453.342 3.48791 0.870905 0
M  V30 4790 C 453.006 4.56715 -0.161338 0
M  V30 4791 C 454.003 5.10513 -0.983466 0
M  V30 4792 C 451.688 5.01417 -0.297745 0
M  V30 4793 C 453.682 6.07538 -1.92811 0
M  V30 4794 C 451.369 5.98265 -1.24586 0
M  V30 4795 C 452.367 6.51208 -2.05954 0
M  V30 4796 O 452.055 7.46162 -2.99162 0
M  V30 4797 H 451.787 0.671324 0.0793742 0
M  V30 4798 H 454.341 2.01169 -0.41473 0
M  V30 4799 H 452.571 3.48758 1.67047 0
M  V30 4800 H 454.26 3.80916 1.40207 0
M  V30 4801 H 455.026 4.76785 -0.888856 0
M  V30 4802 H 450.905 4.59849 0.325604 0
M  V30 4803 H 454.449 6.48787 -2.56363 0
M  V30 4804 H 450.346 6.31412 -1.34126 0
M  V30 4805 H 451.114 7.63903 -2.93929 0
M  V30 4806 N 453.777 0.010035 1.57597 0
M  V30 4807 C 454.707 -0.976857 2.12084 0
M  V30 4808 C 455.688 -1.35191 1.03235 0
M  V30 4809 O 456.873 -1.43389 1.3097 0
M  V30 4810 C 454.003 -2.26548 2.63236 0
M  V30 4811 C 452.957 -2.03175 3.76701 0
M  V30 4812 C 452.283 -3.38138 4.14206 0
M  V30 4813 C 453.583 -1.38625 5.03568 0
M  V30 4814 H 455.277 -0.523145 2.94794 0
M  V30 4815 H 452.823 -0.250195 1.4181 0
M  V30 4816 H 454.776 -2.95952 2.99984 0
M  V30 4817 H 453.5 -2.74051 1.77661 0
M  V30 4818 H 452.159 -1.36195 3.40362 0
M  V30 4819 H 451.807 -3.83363 3.25641 0
M  V30 4820 H 451.507 -3.23312 4.90656 0
M  V30 4821 H 453.031 -4.08841 4.53521 0
M  V30 4822 H 454.445 -1.98 5.38023 0
M  V30 4823 H 452.842 -1.34256 5.84889 0
M  V30 4824 H 453.912 -0.356722 4.83586 0
M  V30 4825 N 455.255 -1.55392 -0.262866 0
M  V30 4826 C 456.218 -1.88181 -1.30846 0
M  V30 4827 C 457.218 -0.757079 -1.41862 0
M  V30 4828 O 458.408 -1.02519 -1.40838 0
M  V30 4829 C 455.54 -2.09609 -2.68844 0
M  V30 4830 H 456.733 -2.81659 -1.02997 0
M  V30 4831 H 454.286 -1.48039 -0.501414 0
M  V30 4832 H 455.021 -1.18547 -3.01856 0
M  V30 4833 H 454.806 -2.91508 -2.62231 0
M  V30 4834 H 456.296 -2.36215 -3.44372 0
M  V30 4835 N 456.733 0.527833 -1.48498 0
M  V30 4836 C 457.958 1.313 -1.60546 0
M  V30 4837 C 458.383 1.86199 -0.26672 0
M  V30 4838 O 457.741 1.64513 0.761918 0
M  V30 4839 C 457.789 2.43818 -2.65678 0
M  V30 4840 O 456.893 3.46916 -2.22987 0
M  V30 4841 H 456.234 0.388784 -0.538277 0
M  V30 4842 H 458.764 0.634896 -1.945 0
M  V30 4843 H 458.774 2.89973 -2.87018 0
M  V30 4844 H 457.449 2.03222 -3.62869 0
M  V30 4845 H 456.026 3.06864 -2.11869 0
M  V30 4846 N 458.211 1.37122 0.776871 0
M  V30 4847 C 459.121 1.34651 1.9211 0
M  V30 4848 C 460.137 0.246824 1.7224 0
M  V30 4849 O 461.313 0.48134 1.95563 0
M  V30 4850 C 458.378 1.14748 3.2716 0
M  V30 4851 C 457.439 2.34308 3.5972 0
M  V30 4852 C 456.672 2.15345 4.88326 0
M  V30 4853 O 456.895 1.13507 5.58992 0
M  V30 4854 O 455.829 3.03414 5.1983 0
M  V30 4855 H 459.655 2.31013 1.97146 0
M  V30 4856 H 457.24 1.17799 0.918901 0
M  V30 4857 H 459.122 1.05616 4.0795 0
M  V30 4858 H 457.797 0.214562 3.22988 0
M  V30 4859 H 456.704 2.49011 2.79185 0
M  V30 4860 H 458.037 3.26149 3.68629 0
M  V30 4861 N 459.689 -1.00246 1.21608 0
M  V30 4862 C 460.938 -1.73476 1.02902 0
M  V30 4863 C 461.251 -1.90643 -0.437561 0
M  V30 4864 O 462.457 -2.61105 -0.74407 0
M  V30 4865 C 460.913 -3.12079 1.79261 0
M  V30 4866 C 460.521 -3.02877 3.30106 0
M  V30 4867 C 462.265 -3.89421 1.68972 0
M  V30 4868 C 460.172 -4.36575 3.98944 0
M  V30 4869 H 459.102 -0.650408 0.381425 0
M  V30 4870 H 461.753 -1.11985 1.45367 0
M  V30 4871 H 460.135 -3.74196 1.2959 0
M  V30 4872 H 461.309 -2.49983 3.87098 0
M  V30 4873 H 459.624 -2.39022 3.40965 0
M  V30 4874 H 462.221 -4.88362 2.17731 0
M  V30 4875 H 462.564 -4.1122 0.648397 0
M  V30 4876 H 463.097 -3.33963 2.16133 0
M  V30 4877 H 459.836 -4.19978 5.03288 0
M  V30 4878 H 459.356 -4.8942 3.4674 0
M  V30 4879 H 461.035 -5.05364 4.04 0
M  V30 4880 N 461.167 -1.02423 -1.1978 0
M  V30 4881 C 462.097 -0.62157 -2.25075 0
M  V30 4882 C 463.078 0.367148 -1.6609 0
M  V30 4883 O 464.263 0.250892 -1.92573 0
M  V30 4884 C 461.393 0.0331826 -3.47284 0
M  V30 4885 C 460.347 -0.877323 -4.18912 0
M  V30 4886 C 459.673 -0.0879296 -5.34628 0
M  V30 4887 C 460.973 -2.18892 -4.74219 0
M  V30 4888 H 462.667 -1.50179 -2.59011 0
M  V30 4889 H 460.213 -0.723547 -1.24502 0
M  V30 4890 H 462.166 0.326488 -4.20133 0
M  V30 4891 H 460.89 0.948164 -3.12534 0
M  V30 4892 H 459.549 -1.15475 -3.47938 0
M  V30 4893 H 459.197 0.828941 -4.96123 0
M  V30 4894 H 458.897 -0.694359 -5.83483 0
M  V30 4895 H 460.421 0.198743 -6.10276 0
M  V30 4896 H 461.835 -1.95746 -5.38847 0
M  V30 4897 H 460.232 -2.74686 -5.33542 0
M  V30 4898 H 461.302 -2.84674 -3.92541 0
M  V30 4899 N 462.645 1.35699 -0.801477 0
M  V30 4900 C 463.891 1.99643 -0.389135 0
M  V30 4901 C 464.246 1.62447 1.03095 0
M  V30 4902 O 463.539 0.875064 1.7045 0
M  V30 4903 C 463.733 3.53828 -0.504041 0
M  V30 4904 C 463.562 4.06 -1.93375 0
M  V30 4905 C 462.332 4.35592 -2.561 0
M  V30 4906 C 464.53 4.24905 -2.89759 0
M  V30 4907 N 462.512 4.73663 -3.90534 0
M  V30 4908 C 463.883 4.65914 -4.09052 0
M  V30 4909 C 465.938 4.07101 -2.86658 0
M  V30 4910 C 464.641 4.90984 -5.25669 0
M  V30 4911 C 466.667 4.33324 -4.02472 0
M  V30 4912 C 466.029 4.74601 -5.20512 0
M  V30 4913 H 462.128 0.758552 -0.19006 0
M  V30 4914 H 464.712 1.64493 -1.04164 0
M  V30 4915 H 462.883 3.88219 0.118437 0
M  V30 4916 H 464.615 4.04645 -0.0667794 0
M  V30 4917 H 461.37 4.25728 -2.07492 0
M  V30 4918 H 461.794 4.96965 -4.59734 0
M  V30 4919 H 466.436 3.74335 -1.96552 0
M  V30 4920 H 464.154 5.22626 -6.1635 0
M  V30 4921 H 467.74 4.21107 -4.01447 0
M  V30 4922 H 466.62 4.94497 -6.08639 0
M  V30 4923 N 464.123 0.554532 1.47522 0
M  V30 4924 C 465.371 0.0294208 2.02079 0
M  V30 4925 C 465.692 -1.32411 1.43151 0
M  V30 4926 O 464.962 -1.863 0.605728 0
M  V30 4927 H 463.542 0.00788672 0.746958 0
M  V30 4928 H 466.204 0.723934 1.80956 0
M  V30 4929 H 465.3 -0.0606745 3.12041 0
M  V30 4930 N 465.601 -1.54893 0.290851 0
M  V30 4931 C 466.551 -2.19838 -0.604599 0
M  V30 4932 C 467.535 -1.16805 -1.10659 0
M  V30 4933 O 468.727 -1.42562 -1.04905 0
M  V30 4934 C 465.856 -2.93497 -1.78086 0
M  V30 4935 C 464.942 -4.03835 -1.29531 0
M  V30 4936 N 465.333 -5.03047 -0.527024 0
M  V30 4937 C 463.631 -4.17192 -1.57693 0
M  V30 4938 C 464.332 -5.81074 -0.269728 0
M  V30 4939 N 463.308 -5.36966 -0.846651 0
M  V30 4940 H 467.11 -2.93898 -0.00995032 0
M  V30 4941 H 464.624 -1.62121 0.0951353 0
M  V30 4942 H 466.621 -3.38484 -2.43381 0
M  V30 4943 H 465.281 -2.2095 -2.37931 0
M  V30 4944 H 466.292 -5.17611 -0.172872 0
M  V30 4945 H 462.969 -3.55845 -2.18359 0
M  V30 4946 H 464.359 -6.71005 0.346643 0
M  V30 4947 N 467.08 -0.0183926 -1.57589 0
M  V30 4948 C 468.496 0.337897 -1.55982 0
M  V30 4949 C 468.696 1.73604 -1.02294 0
M  V30 4950 O 467.752 2.43589 -0.664895 0
M  V30 4951 C 469.065 0.196305 -3.00059 0
M  V30 4952 C 470.613 0.269875 -3.11834 0
M  V30 4953 C 471.088 0.157197 -4.5773 0
M  V30 4954 N 472.579 0.214521 -4.62703 0
M  V30 4955 C 473.314 0.150955 -5.73201 0
M  V30 4956 N 472.81 0.0369212 -6.9279 0
M  V30 4957 N 474.603 0.204162 -5.61729 0
M  V30 4958 H 466.754 -0.93279 -1.90821 0
M  V30 4959 H 469.017 -0.359253 -0.877292 0
M  V30 4960 H 468.723 -0.766383 -3.43248 0
M  V30 4961 H 468.597 0.970908 -3.6449 0
M  V30 4962 H 470.984 1.22302 -2.68563 0
M  V30 4963 H 471.065 -0.534918 -2.50144 0
M  V30 4964 H 470.709 -0.792479 -5.01679 0
M  V30 4965 H 470.639 0.980717 -5.17387 0
M  V30 4966 H 473.13 0.303238 -3.76681 0
M  V30 4967 H 473.443 -0.00518321 -7.728 0
M  V30 4968 H 471.788 0.0022886 -6.95 0
M  V30 4969 H 474.979 0.291575 -4.67191 0
M  V30 4970 H 475.152 0.15116 -6.47824 0
M  V30 4971 N 468.558 1.5553 0.254621 0
M  V30 4972 C 469.805 1.77 0.983736 0
M  V30 4973 C 470.133 0.58133 1.85609 0
M  V30 4974 O 469.388 -0.435621 1.9079 0
M  V30 4975 C 469.687 3.03891 1.88109 0
M  V30 4976 C 469.353 4.35597 1.16472 0
M  V30 4977 C 468.015 4.7139 0.966714 0
M  V30 4978 C 470.367 5.1705 0.656387 0
M  V30 4979 C 467.695 5.86176 0.247942 0
M  V30 4980 C 470.047 6.32581 -0.0488807 0
M  V30 4981 C 468.711 6.67 -0.258438 0
M  V30 4982 H 467.981 0.647688 0.359974 0
M  V30 4983 H 470.628 1.89802 0.254463 0
M  V30 4984 H 468.933 2.86068 2.67717 0
M  V30 4985 H 470.63 3.17701 2.44677 0
M  V30 4986 H 467.22 4.07475 1.32899 0
M  V30 4987 H 471.404 4.8986 0.796933 0
M  V30 4988 H 466.66 6.11354 0.075035 0
M  V30 4989 H 470.834 6.94942 -0.450444 0
M  V30 4990 H 468.461 7.55793 -0.817358 0
M  V30 4991 N 470.036 -0.519951 1.48776 0
M  V30 4992 C 470.946 -1.65025 1.66745 0
M  V30 4993 C 471.962 -1.6508 0.549954 0
M  V30 4994 O 473.138 -1.83848 0.822295 0
M  V30 4995 C 470.203 -3.0146 1.71238 0
M  V30 4996 C 469.264 -3.12182 2.94688 0
M  V30 4997 C 468.497 -4.42109 2.98958 0
M  V30 4998 O 468.72 -5.29799 2.1135 0
M  V30 4999 O 467.654 -4.57406 3.91233 0
M  V30 5000 H 471.48 -1.52801 2.62461 0
M  V30 5001 H 469.065 -0.694157 1.32294 0
M  V30 5002 H 470.947 -3.82584 1.76657 0
M  V30 5003 H 469.622 -3.13988 0.786975 0
M  V30 5004 H 468.529 -2.30316 2.94797 0
M  V30 5005 H 469.862 -3.04574 3.86646 0
M  V30 5006 N 471.514 -1.37532 -0.769588 0
M  V30 5007 C 472.925 -1.29382 -1.346 0
M  V30 5008 C 473.276 0.0576039 -1.96115 0
M  V30 5009 O 472.401 0.95947 -1.93967 0
M  V30 5010 C 472.996 -2.34298 -2.44724 0
M  V30 5011 C 471.555 -2.29776 -2.98128 0
M  V30 5012 C 470.702 -2.18013 -1.71364 0
M  V30 5013 H 473.653 -1.48123 -0.56968 0
M  V30 5014 H 473.674 -1.99089 -3.24259 0
M  V30 5015 H 473.186 -3.32645 -1.99922 0
M  V30 5016 H 471.287 -1.34959 -3.47299 0
M  V30 5017 H 471.4 -3.23276 -3.53595 0
M  V30 5018 H 469.764 -1.64595 -1.94372 0
M  V30 5019 H 470.547 -3.18278 -1.28662 0
M  V30 5020 N 472.992 0.995999 -1.22138 0
M  V30 5021 C 474.238 1.73767 -1.04561 0
M  V30 5022 C 474.571 1.89633 0.418698 0
M  V30 5023 O 473.846 1.43723 1.3105 0
M  V30 5024 C 474.129 3.14505 -1.75382 0
M  V30 5025 C 473.982 3.06306 -3.29388 0
M  V30 5026 C 475.301 4.13615 -1.50369 0
M  V30 5027 H 472.42 0.630728 -0.38125 0
M  V30 5028 H 475.062 1.16057 -1.50435 0
M  V30 5029 H 473.212 3.63775 -1.36383 0
M  V30 5030 H 474.884 2.64681 -3.77812 0
M  V30 5031 H 473.127 2.43186 -3.59226 0
M  V30 5032 H 473.798 4.05884 -3.74116 0
M  V30 5033 H 476.274 3.73089 -1.84239 0
M  V30 5034 H 475.15 5.10212 -2.02421 0
M  V30 5035 H 475.411 4.39949 -0.435611 0
M  V30 5036 N 474.47 1.03057 1.19235 0
M  V30 5037 C 475.716 0.729098 1.89241 0
M  V30 5038 C 476.049 -0.740573 1.79525 0
M  V30 5039 O 475.324 -1.53946 1.18874 0
M  V30 5040 C 475.607 1.18304 3.40112 0
M  V30 5041 C 475.46 2.71406 3.5869 0
M  V30 5042 C 476.779 0.765161 4.33397 0
M  V30 5043 H 473.898 0.266338 0.687192 0
M  V30 5044 H 476.54 1.28079 1.40341 0
M  V30 5045 H 474.69 0.713672 3.81889 0
M  V30 5046 H 476.362 3.26303 3.26074 0
M  V30 5047 H 474.605 3.11717 3.01687 0
M  V30 5048 H 475.276 2.98225 4.64506 0
M  V30 5049 H 477.752 1.16889 3.99345 0
M  V30 5050 H 476.628 1.11065 5.37546 0
M  V30 5051 H 476.889 -0.332372 4.40849 0
M  V30 5052 N 475.948 -1.35272 0.808662 0
M  V30 5053 C 477.195 -1.98709 0.390003 0
M  V30 5054 C 477.523 -1.64148 -1.04335 0
M  V30 5055 O 476.778 -0.897797 -1.73891 0
M  V30 5056 C 477.077 -3.53556 0.522798 0
M  V30 5057 C 476.743 -4.0799 1.91977 0
M  V30 5058 C 475.405 -4.22568 2.30195 0
M  V30 5059 C 477.757 -4.37442 2.83361 0
M  V30 5060 C 475.085 -4.63918 3.59162 0
M  V30 5061 C 477.437 -4.80232 4.11776 0
M  V30 5062 C 476.101 -4.93016 4.49991 0
M  V30 5063 H 475.371 -0.727127 0.142712 0
M  V30 5064 H 478.018 -1.6145 1.02985 0
M  V30 5065 H 476.323 -3.91287 -0.200494 0
M  V30 5066 H 478.02 -4.00598 0.179608 0
M  V30 5067 H 474.61 -3.97096 1.61284 0
M  V30 5068 H 478.794 -4.25731 2.55083 0
M  V30 5069 H 474.05 -4.72005 3.88615 0
M  V30 5070 H 478.224 -5.01982 4.82687 0
M  V30 5071 H 475.851 -5.24814 5.49976 0
M  V30 5072 N 477.426 -0.562348 -1.47226 0
M  V30 5073 C 478.336 0.185466 -2.33866 0
M  V30 5074 C 479.352 0.906713 -1.48508 0
M  V30 5075 O 480.528 0.874458 -1.81425 0
M  V30 5076 C 477.593 1.19904 -3.25306 0
M  V30 5077 C 476.654 0.484669 -4.26555 0
M  V30 5078 C 475.887 1.44996 -5.13626 0
M  V30 5079 O 476.11 2.68515 -5.03245 0
M  V30 5080 O 475.044 0.971642 -5.94006 0
M  V30 5081 H 478.87 -0.525361 -2.99121 0
M  V30 5082 H 476.455 -0.322916 -1.45868 0
M  V30 5083 H 478.337 1.78399 -3.81774 0
M  V30 5084 H 477.012 1.8917 -2.62672 0
M  V30 5085 H 475.919 -0.141605 -3.73832 0
M  V30 5086 H 477.252 -0.166634 -4.91918 0
M  V30 5087 N 478.904 1.54736 -0.299062 0
M  V30 5088 C 479.814 2.27127 0.587413 0
M  V30 5089 C 480.83 1.30575 1.15005 0
M  V30 5090 O 482.006 1.63554 1.17525 0
M  V30 5091 C 479.071 2.99645 1.74395 0
M  V30 5092 C 478.132 4.11731 1.21559 0
M  V30 5093 C 477.365 4.80781 2.317 0
M  V30 5094 O 477.588 4.4918 3.51558 0
M  V30 5095 O 476.522 5.68226 1.98501 0
M  V30 5096 H 480.348 3.037 0.000250109 0
M  V30 5097 H 477.933 1.49256 -0.0655919 0
M  V30 5098 H 479.815 3.45138 2.4178 0
M  V30 5099 H 478.49 2.25969 2.31775 0
M  V30 5100 H 477.397 3.70641 0.507514 0
M  V30 5101 H 478.73 4.87379 0.687233 0
M  V30 5102 N 480.382 0.0267497 1.57577 0
M  V30 5103 C 481.329 -0.955894 2.10075 0
M  V30 5104 C 482.299 -1.32453 1.00226 0
M  V30 5105 O 483.484 -1.41826 1.27632 0
M  V30 5106 C 480.624 -2.2338 2.6305 0
M  V30 5107 C 479.737 -1.92183 3.86898 0
M  V30 5108 C 478.872 -3.14251 4.28275 0
M  V30 5109 C 477.911 -2.78862 5.44888 0
M  V30 5110 N 477.048 -3.93548 5.81433 0
M  V30 5111 H 481.888 -0.501303 2.93753 0
M  V30 5112 H 479.425 -0.235847 1.45197 0
M  V30 5113 H 481.383 -2.98124 2.91853 0
M  V30 5114 H 480.013 -2.6646 1.82205 0
M  V30 5115 H 479.065 -1.07692 3.64838 0
M  V30 5116 H 480.377 -1.62117 4.7172 0
M  V30 5117 H 479.531 -3.97317 4.58502 0
M  V30 5118 H 478.27 -3.47476 3.42215 0
M  V30 5119 H 477.275 -1.94208 5.14357 0
M  V30 5120 H 478.5 -2.46855 6.32645 0
M  V30 5121 H 476.446 -4.2662 4.98328 0
M  V30 5122 H 476.363 -3.67098 6.6089 0
M  V30 5123 H 477.631 -4.77325 6.16264 0
M  V30 5124 N 481.861 -1.55662 -0.24637 0
M  V30 5125 C 483.086 -1.81914 -0.996093 0
M  V30 5126 C 483.511 -0.603875 -1.78143 0
M  V30 5127 O 482.869 0.447091 -1.75701 0
M  V30 5128 C 482.917 -3.05908 -1.90925 0
M  V30 5129 O 482.021 -2.82861 -3.00105 0
M  V30 5130 H 481.362 -0.600481 -0.283406 0
M  V30 5131 H 483.892 -2.02848 -0.267199 0
M  V30 5132 H 483.902 -3.35356 -2.3238 0
M  V30 5133 H 482.577 -3.93999 -1.33183 0
M  V30 5134 H 481.154 -2.64583 -2.62775 0
M  V30 5135 N 483.339 0.512053 -1.4905 0
M  V30 5136 C 484.289 1.61142 -1.61298 0
M  V30 5137 C 485.273 1.53908 -0.46916 0
M  V30 5138 O 486.465 1.61625 -0.721547 0
M  V30 5139 C 483.594 2.998 -1.67256 0
M  V30 5140 C 482.68 3.12072 -2.87179 0
M  V30 5141 N 483.071 2.94263 -4.11391 0
M  V30 5142 C 481.369 3.43156 -2.84886 0
M  V30 5143 C 482.07 3.10426 -4.91946 0
M  V30 5144 N 481.046 3.38808 -4.251 0
M  V30 5145 H 484.848 1.46011 -2.55065 0
M  V30 5146 H 482.362 0.717934 -1.45669 0
M  V30 5147 H 484.359 3.78794 -1.74128 0
M  V30 5148 H 483.019 3.1601 -0.746195 0
M  V30 5149 H 484.03 2.70661 -4.41546 0
M  V30 5150 H 480.707 3.65611 -2.01581 0
M  V30 5151 H 482.097 3.01243 -6.00585 0
M  V30 5152 N 484.817 1.37938 0.762283 0
M  V30 5153 C 486.047 1.36685 1.54922 0
M  V30 5154 C 486.455 -0.0474099 1.89141 0
M  V30 5155 O 485.798 -1.02213 1.52638 0
M  V30 5156 C 485.86 2.14963 2.88152 0
M  V30 5157 C 485.524 3.6385 2.76518 0
M  V30 5158 C 486.521 4.57531 2.46904 0
M  V30 5159 C 484.206 4.07095 2.94243 0
M  V30 5160 C 486.2 5.92436 2.35156 0
M  V30 5161 C 483.887 5.42083 2.82116 0
M  V30 5162 C 484.885 6.34567 2.52614 0
M  V30 5163 O 484.573 7.67073 2.40529 0
M  V30 5164 H 484.305 0.469586 0.486276 0
M  V30 5165 H 486.859 1.82012 0.951876 0
M  V30 5166 H 485.089 1.6434 3.50042 0
M  V30 5167 H 486.778 2.06224 3.49609 0
M  V30 5168 H 487.544 4.25428 2.32886 0
M  V30 5169 H 483.423 3.35462 3.16206 0
M  V30 5170 H 486.967 6.64591 2.12049 0
M  V30 5171 H 482.864 5.73785 2.95704 0
M  V30 5172 H 483.632 7.77499 2.55807 0
M  V30 5173 N 486.295 -0.989507 1.22664 0
M  V30 5174 C 487.242 -2.08024 0.999733 0
M  V30 5175 C 488.212 -1.65909 -0.0797047 0
M  V30 5176 O 489.397 -1.90669 0.0705715 0
M  V30 5177 C 486.537 -3.40067 0.587234 0
M  V30 5178 C 485.65 -3.95505 1.73781 0
M  V30 5179 C 484.785 -5.15722 1.27297 0
M  V30 5180 C 483.824 -5.63305 2.39488 0
M  V30 5181 N 482.961 -6.74758 1.94026 0
M  V30 5182 H 487.801 -2.26768 1.9334 0
M  V30 5183 H 485.338 -1.11171 0.963297 0
M  V30 5184 H 487.296 -4.15899 0.329227 0
M  V30 5185 H 485.926 -3.21314 -0.309426 0
M  V30 5186 H 484.978 -3.16513 2.11006 0
M  V30 5187 H 486.29 -4.26797 2.58158 0
M  V30 5188 H 485.444 -5.98854 0.972546 0
M  V30 5189 H 484.183 -4.86061 0.399445 0
M  V30 5190 H 483.188 -4.78759 2.70315 0
M  V30 5191 H 484.413 -5.94988 3.27362 0
M  V30 5192 H 482.359 -6.46874 1.09041 0
M  V30 5193 H 482.276 -7.05386 2.71968 0
M  V30 5194 H 483.544 -7.61387 1.67062 0
M  V30 5195 N 487.773 -1.03688 -1.18687 0
M  V30 5196 C 489.019 -0.739123 -1.88851 0
M  V30 5197 C 489.352 0.731042 -1.79915 0
M  V30 5198 O 488.627 1.53313 -1.19688 0
M  V30 5199 C 488.91 -1.20106 -3.3948 0
M  V30 5200 C 488.763 -2.73304 -3.57246 0
M  V30 5201 C 490.082 -0.788134 -4.32986 0
M  V30 5202 H 487.201 -0.269978 -0.68577 0
M  V30 5203 H 489.843 -1.28822 -1.3966 0
M  V30 5204 H 487.993 -0.733915 -3.81505 0
M  V30 5205 H 489.665 -3.28027 -3.24339 0
M  V30 5206 H 487.908 -3.13313 -3.00029 0
M  V30 5207 H 488.579 -3.00684 -4.62918 0
M  V30 5208 H 491.055 -1.19005 -3.98719 0
M  V30 5209 H 489.931 -1.13915 -5.36949 0
M  V30 5210 H 490.192 0.308988 -4.41019 0
M  V30 5211 N 489.251 1.34841 -0.815825 0
M  V30 5212 C 490.528 1.92908 -0.323416 0
M  V30 5213 C 490.908 1.74479 1.18828 0
M  V30 5214 O 490.256 1.11928 1.99209 0
M  V30 5215 C 490.466 3.40957 -0.744952 0
M  V30 5216 C 491.814 4.18107 -0.739716 0
M  V30 5217 O 492.838 3.49511 -0.68708 0
M  V30 5218 O 491.697 5.40517 -0.806456 0
M  V30 5219 H 488.791 0.822436 -0.0867646 0
M  V30 5220 H 491.337 1.4386 -0.90014 0
M  V30 5221 H 490.109 3.4814 -1.78646 0
M  V30 5222 H 489.732 3.97341 -0.143535 0
M  V30 5223 N 490.729 0.570148 1.46925 0
M  V30 5224 C 491.959 0.0561151 2.06524 0
M  V30 5225 C 492.367 -1.24874 1.42137 0
M  V30 5226 O 491.71 -1.76292 0.516417 0
M  V30 5227 C 491.772 -0.197035 3.5896 0
M  V30 5228 C 491.436 1.02033 4.45464 0
M  V30 5229 C 492.433 1.92921 4.82781 0
M  V30 5230 C 490.118 1.23864 4.86788 0
M  V30 5231 C 492.112 3.03999 5.60235 0
M  V30 5232 C 489.799 2.35249 5.64004 0
M  V30 5233 C 490.797 3.25146 6.0064 0
M  V30 5234 O 490.485 4.34598 6.76299 0
M  V30 5235 H 490.217 0.0487409 0.674241 0
M  V30 5236 H 492.771 0.786915 1.89728 0
M  V30 5237 H 491.001 -0.982299 3.74016 0
M  V30 5238 H 492.69 -0.658032 4.00531 0
M  V30 5239 H 493.456 1.77265 4.51444 0
M  V30 5240 H 489.335 0.54805 4.57731 0
M  V30 5241 H 492.879 3.74192 5.8875 0
M  V30 5242 H 488.776 2.50873 5.94755 0
M  V30 5243 H 489.544 4.32808 6.94708 0
M  V30 5244 N 492.207 -1.54576 0.307264 0
M  V30 5245 C 493.432 -2.05139 -0.305379 0
M  V30 5246 C 493.857 -1.18278 -1.46259 0
M  V30 5247 O 493.215 -0.188243 -1.8032 0
M  V30 5248 C 493.263 -3.53066 -0.733283 0
M  V30 5249 O 492.367 -3.69206 -1.83741 0
M  V30 5250 H 491.708 -0.661444 -0.0582105 0
M  V30 5251 H 494.238 -1.99569 0.450931 0
M  V30 5252 H 494.248 -3.95034 -1.02039 0
M  V30 5253 H 492.923 -4.15746 0.113198 0
M  V30 5254 H 491.5 -3.39143 -1.55037 0
M  V30 5255 N 493.685 -0.035106 -1.57561 0
M  V30 5256 C 495.101 0.321334 -1.56332 0
M  V30 5257 C 495.301 1.72509 -1.04129 0
M  V30 5258 O 494.357 2.4287 -0.690694 0
M  V30 5259 C 495.67 0.164469 -3.0025 0
M  V30 5260 C 497.218 0.236786 -3.12103 0
M  V30 5261 C 497.693 0.10864 -4.57871 0
M  V30 5262 N 499.184 0.165433 -4.62904 0
M  V30 5263 C 499.919 0.0901506 -5.73329 0
M  V30 5264 N 499.415 -0.0365606 -6.9279 0
M  V30 5265 N 501.208 0.144572 -5.61914 0
M  V30 5266 H 493.359 -0.952976 -1.89821 0
M  V30 5267 H 495.622 -0.368537 -0.873432 0
M  V30 5268 H 495.328 -0.802746 -3.42416 0
M  V30 5269 H 495.202 0.932194 -3.655 0
M  V30 5270 H 497.589 1.19446 -2.69845 0
M  V30 5271 H 497.67 -0.561419 -2.49563 0
M  V30 5272 H 497.314 -0.845644 -5.00811 0
M  V30 5273 H 497.244 0.925786 -5.18398 0
M  V30 5274 H 499.735 0.263269 -3.76982 0
M  V30 5275 H 500.048 -0.0871487 -7.72751 0
M  V30 5276 H 498.393 -0.0714256 -6.94963 0
M  V30 5277 H 501.584 0.242006 -4.67474 0
M  V30 5278 H 501.757 0.0824413 -6.47948 0
M  V30 5279 N 495.163 1.55791 0.238111 0
M  V30 5280 C 496.41 1.78033 0.964907 0
M  V30 5281 C 496.738 0.600984 1.84982 0
M  V30 5282 O 495.993 -0.41536 1.91241 0
M  V30 5283 C 496.292 3.05869 1.84875 0
M  V30 5284 C 495.958 4.36808 1.11846 0
M  V30 5285 C 494.62 4.72388 0.916662 0
M  V30 5286 C 496.972 5.17717 0.60151 0
M  V30 5287 C 494.3 5.86406 0.185756 0
M  V30 5288 C 496.652 6.32494 -0.115972 0
M  V30 5289 C 495.316 6.66688 -0.329168 0
M  V30 5290 H 494.586 0.651469 0.353085 0
M  V30 5291 H 497.233 1.90061 0.234318 0
M  V30 5292 H 495.538 2.88891 2.64668 0
M  V30 5293 H 497.235 3.20278 2.41294 0
M  V30 5294 H 493.825 4.08862 1.28569 0
M  V30 5295 H 498.009 4.90678 0.744932 0
M  V30 5296 H 493.265 6.11399 0.0101886 0
M  V30 5297 H 497.439 6.94425 -0.524127 0
M  V30 5298 H 495.066 7.54884 -0.897474 0
M  V30 5299 N 496.642 -0.504142 1.49319 0
M  V30 5300 C 497.592 -1.60284 1.62151 0
M  V30 5301 C 498.576 -1.53657 0.477315 0
M  V30 5302 O 499.768 -1.6124 0.730108 0
M  V30 5303 C 496.897 -2.98909 1.68844 0
M  V30 5304 C 495.983 -3.10544 2.8883 0
M  V30 5305 N 496.374 -2.92078 4.12946 0
M  V30 5306 C 494.672 -3.4164 2.86702 0
M  V30 5307 C 495.373 -3.07812 4.93585 0
M  V30 5308 N 494.349 -3.36549 4.26891 0
M  V30 5309 H 498.151 -1.44656 2.55835 0
M  V30 5310 H 495.665 -0.710198 1.46048 0
M  V30 5311 H 497.662 -3.77865 1.76134 0
M  V30 5312 H 496.322 -3.15609 0.762943 0
M  V30 5313 H 497.333 -2.68316 4.42975 0
M  V30 5314 H 494.01 -3.64537 2.03517 0
M  V30 5315 H 495.4 -2.98054 6.02174 0
M  V30 5316 N 498.12 -1.38341 -0.754957 0
M  V30 5317 C 499.067 -1.3546 -1.86867 0
M  V30 5318 C 500.037 -0.217369 -1.64672 0
M  V30 5319 O 501.222 -0.409383 -1.86356 0
M  V30 5320 C 498.362 -1.18413 -3.24149 0
M  V30 5321 C 497.475 -2.41511 -3.58185 0
M  V30 5322 C 496.61 -2.17205 -4.84763 0
M  V30 5323 C 495.649 -3.36081 -5.11582 0
M  V30 5324 N 494.786 -3.11219 -6.29354 0
M  V30 5325 H 499.626 -2.30672 -1.88664 0
M  V30 5326 H 497.163 -1.14607 -0.922154 0
M  V30 5327 H 499.121 -1.06545 -4.03366 0
M  V30 5328 H 497.751 -0.268397 -3.21682 0
M  V30 5329 H 496.803 -2.64056 -2.73822 0
M  V30 5330 H 498.115 -3.30115 -3.73932 0
M  V30 5331 H 497.269 -2.02465 -5.7192 0
M  V30 5332 H 496.008 -1.25964 -4.71152 0
M  V30 5333 H 495.013 -3.51341 -4.22894 0
M  V30 5334 H 496.238 -4.28196 -5.27091 0
M  V30 5335 H 494.184 -2.22624 -6.17069 0
M  V30 5336 H 494.101 -3.93373 -6.45596 0
M  V30 5337 H 495.369 -3.00132 -7.19403 0
M  V30 5338 N 499.598 0.982988 -1.23187 0
M  V30 5339 C 500.826 1.75921 -1.08901 0
M  V30 5340 C 501.241 1.85341 0.359719 0
M  V30 5341 O 500.598 1.33072 1.24892 0
M  V30 5342 C 500.649 3.18742 -1.70545 0
M  V30 5343 O 500.37 3.09814 -3.09753 0
M  V30 5344 C 501.871 4.1277 -1.61667 0
M  V30 5345 H 499.091 0.552166 -0.381252 0
M  V30 5346 H 501.635 1.23516 -1.62985 0
M  V30 5347 H 499.79 3.68182 -1.20501 0
M  V30 5348 H 500.204 3.99703 -3.39614 0
M  V30 5349 H 501.678 5.10697 -2.09506 0
M  V30 5350 H 502.155 4.3542 -0.575009 0
M  V30 5351 H 502.761 3.69232 -2.11064 0
M  V30 5352 N 501.076 1.04316 1.18135 0
M  V30 5353 C 502.306 0.767003 1.91835 0
M  V30 5354 C 502.714 -0.68002 1.76557 0
M  V30 5355 O 502.057 -1.47548 1.09432 0
M  V30 5356 C 502.119 1.05674 3.43618 0
M  V30 5357 C 501.783 2.49818 3.82675 0
M  V30 5358 C 502.78 3.48003 3.86251 0
M  V30 5359 C 500.465 2.84596 4.13897 0
M  V30 5360 C 502.459 4.79016 4.20503 0
M  V30 5361 C 500.146 4.15813 4.4782 0
M  V30 5362 C 501.144 5.12834 4.51099 0
M  V30 5363 O 500.832 6.41699 4.84229 0
M  V30 5364 H 500.564 0.278948 0.615763 0
M  V30 5365 H 503.118 1.3946 1.50798 0
M  V30 5366 H 501.348 0.372029 3.84906 0
M  V30 5367 H 503.037 0.767994 3.98568 0
M  V30 5368 H 503.803 3.22475 3.62264 0
M  V30 5369 H 499.682 2.09748 4.1052 0
M  V30 5370 H 503.226 5.54739 4.22978 0
M  V30 5371 H 499.123 4.41109 4.71268 0
M  V30 5372 H 499.891 6.46387 5.02121 0
M  V30 5373 N 502.554 -1.34406 0.822964 0
M  V30 5374 C 503.464 -2.33298 0.246838 0
M  V30 5375 C 504.48 -1.62625 -0.618797 0
M  V30 5376 O 505.656 -1.94391 -0.526685 0
M  V30 5377 C 502.721 -3.41785 -0.581731 0
M  V30 5378 C 501.782 -4.28206 0.306309 0
M  V30 5379 C 501.015 -5.31512 -0.48281 0
M  V30 5380 O 501.238 -5.43973 -1.71607 0
M  V30 5381 O 500.172 -6.01749 0.134884 0
M  V30 5382 H 503.998 -2.84401 1.06534 0
M  V30 5383 H 501.583 -1.37466 0.585108 0
M  V30 5384 H 503.465 -4.08028 -1.05313 0
M  V30 5385 H 502.14 -2.92925 -1.37756 0
M  V30 5386 H 501.047 -3.64885 0.825199 0
M  V30 5387 H 502.38 -4.80507 1.06649 0
M  V30 5388 N 504.032 -0.577932 -1.46621 0
M  V30 5389 C 505.278 -0.0617793 -2.02706 0
M  V30 5390 C 505.611 1.29294 -1.44903 0
M  V30 5391 O 504.886 1.8461 -0.61232 0
M  V30 5392 C 505.169 0.00911824 -3.60099 0
M  V30 5393 C 505.022 -1.37416 -4.28295 0
M  V30 5394 C 506.341 0.712159 -4.343 0
M  V30 5395 H 503.46 -0.0239246 -0.736612 0
M  V30 5396 H 506.102 -0.744211 -1.74818 0
M  V30 5397 H 504.252 0.590292 -3.83989 0
M  V30 5398 H 505.924 -2.00013 -4.15683 0
M  V30 5399 H 504.167 -1.94319 -3.87843 0
M  V30 5400 H 504.838 -1.27707 -5.37024 0
M  V30 5401 H 507.314 0.218486 -4.15526 0
M  V30 5402 H 506.19 0.730782 -5.44014 0
M  V30 5403 H 506.451 1.77251 -4.05012 0
M  V30 5404 N 505.51 1.54411 -0.315457 0
M  V30 5405 C 506.473 2.22713 0.54142 0
M  V30 5406 C 507.473 1.2179 1.04995 0
M  V30 5407 O 508.663 1.46426 0.943667 0
M  V30 5408 C 505.795 2.92485 1.75116 0
M  V30 5409 H 506.988 2.99849 -0.0555508 0
M  V30 5410 H 504.541 1.56159 -0.0664453 0
M  V30 5411 H 505.276 2.19466 2.38758 0
M  V30 5412 H 505.061 3.66483 1.39401 0
M  V30 5413 H 506.551 3.44548 2.35959 0
M  V30 5414 N 506.988 0.0434614 1.5754 0
M  V30 5415 C 508.236 -0.630786 1.92004 0
M  V30 5416 C 508.557 -1.71836 0.921807 0
M  V30 5417 O 507.827 -1.9587 -0.034522 0
M  V30 5418 H 506.407 -0.235988 0.708745 0
M  V30 5419 H 509.069 0.0946462 1.9467 0
M  V30 5420 H 508.165 -1.07434 2.93026 0
M  V30 5421 N 508.466 -1.55915 -0.229846 0
M  V30 5422 C 509.694 -1.82617 -0.972562 0
M  V30 5423 C 510.109 -0.621488 -1.78278 0
M  V30 5424 O 509.466 0.409956 -1.77836 0
M  V30 5425 C 509.517 -3.0774 -1.89679 0
M  V30 5426 O 509.238 -4.23559 -1.11934 0
M  V30 5427 C 510.739 -3.47368 -2.75409 0
M  V30 5428 H 507.959 -0.60727 -0.285419 0
M  V30 5429 H 510.503 -2.02996 -0.247579 0
M  V30 5430 H 508.658 -2.89361 -2.57583 0
M  V30 5431 H 509.072 -4.94586 -1.74599 0
M  V30 5432 H 510.546 -4.37977 -3.35977 0
M  V30 5433 H 511.023 -2.68737 -3.47386 0
M  V30 5434 H 511.629 -3.68158 -2.12931 0
M  V30 5435 N 509.944 0.496216 -1.49584 0
M  V30 5436 C 511.355 1.07765 -1.52459 0
M  V30 5437 C 511.706 1.93679 -0.31353 0
M  V30 5438 O 510.831 2.08588 0.576186 0
M  V30 5439 C 511.426 1.96111 -2.76271 0
M  V30 5440 C 509.985 2.49409 -2.81908 0
M  V30 5441 C 509.132 1.27142 -2.46435 0
M  V30 5442 H 512.083 0.279914 -1.56212 0
M  V30 5443 H 512.104 2.80862 -2.56704 0
M  V30 5444 H 511.616 1.33555 -3.64396 0
M  V30 5445 H 509.717 3.1559 -1.98074 0
M  V30 5446 H 509.83 2.86234 -3.84196 0
M  V30 5447 H 508.194 1.59818 -1.98319 0
M  V30 5448 H 508.977 0.662866 -3.3684 0
M  V30 5449 N 511.423 1.38739 0.74761 0
M  V30 5450 C 512.663 1.36695 1.51966 0
M  V30 5451 C 513.027 -0.0411889 1.91956 0
M  V30 5452 O 514.228 -0.186543 2.68152 0
M  V30 5453 C 512.499 2.30119 2.73459 0
M  V30 5454 S 514.058 2.4615 3.63257 0
M  V30 5455 H 510.876 0.484929 0.519966 0
M  V30 5456 H 513.478 1.7472 0.877104 0
M  V30 5457 H 512.182 3.31312 2.422 0
M  V30 5458 H 511.713 1.93265 3.42655 0
M  V30 5459 H 513.728 1.69001 4.66533 0
M  V30 5460 N 512.901 -0.976442 1.23707 0
M  V30 5461 C 514.141 -1.73331 1.08332 0
M  V30 5462 C 514.505 -1.88346 -0.372781 0
M  V30 5463 O 515.706 -2.60877 -0.647813 0
M  V30 5464 C 513.977 -3.09159 1.7932 0
M  V30 5465 S 515.536 -4.00376 1.79567 0
M  V30 5466 H 512.354 -0.596045 0.387622 0
M  V30 5467 H 514.956 -1.16625 1.56904 0
M  V30 5468 H 513.66 -2.95884 2.84395 0
M  V30 5469 H 513.191 -3.70932 1.31046 0
M  V30 5470 H 515.206 -4.88742 0.857094 0
M  V30 5471 N 514.379 -1.04941 -1.1758 0
M  V30 5472 C 515.604 -0.778253 -1.92245 0
M  V30 5473 C 516.029 0.659707 -1.76152 0
M  V30 5474 O 515.387 1.45803 -1.07755 0
M  V30 5475 C 515.435 -1.16051 -3.41416 0
M  V30 5476 O 514.539 -0.291153 -4.11371 0
M  V30 5477 H 513.88 -0.285619 -0.599431 0
M  V30 5478 H 516.41 -1.40159 -1.49052 0
M  V30 5479 H 516.42 -1.12619 -3.92149 0
M  V30 5480 H 515.095 -2.208 -3.52449 0
M  V30 5481 H 513.672 -0.385851 -3.70898 0
M  V30 5482 N 515.857 1.33968 -0.830081 0
M  V30 5483 C 516.82 2.27694 -0.26235 0
M  V30 5484 C 517.82 1.50589 0.563876 0
M  V30 5485 O 519.01 1.70028 0.378941 0
M  V30 5486 C 516.142 3.35002 0.63138 0
M  V30 5487 H 517.335 2.79419 -1.08928 0
M  V30 5488 H 514.888 1.44221 -0.602486 0
M  V30 5489 H 515.623 2.88504 1.48109 0
M  V30 5490 H 515.408 3.92079 0.0403276 0
M  V30 5491 H 516.898 4.04897 1.02217 0
M  V30 5492 N 517.335 0.585699 1.46312 0
M  V30 5493 C 518.751 0.247607 1.57668 0
M  V30 5494 C 518.951 -1.25007 1.58037 0
M  V30 5495 O 518.007 -2.03196 1.49893 0
M  V30 5496 C 519.32 0.899456 2.86933 0
M  V30 5497 C 520.868 0.873326 3.00569 0
M  V30 5498 C 521.343 1.50477 4.32574 0
M  V30 5499 N 522.834 1.46925 4.3928 0
M  V30 5500 C 523.569 1.92719 5.40044 0
M  V30 5501 N 523.065 2.46499 6.47464 0
M  V30 5502 N 524.858 1.83617 5.31264 0
M  V30 5503 H 517.009 1.55841 1.44317 0
M  V30 5504 H 519.272 0.651564 0.688599 0
M  V30 5505 H 518.978 1.95313 2.92482 0
M  V30 5506 H 518.852 0.409476 3.74971 0
M  V30 5507 H 521.239 -0.171736 2.946 0
M  V30 5508 H 521.32 1.40136 2.13999 0
M  V30 5509 H 520.964 2.54905 4.39302 0
M  V30 5510 H 520.894 0.951944 5.17924 0
M  V30 5511 H 523.385 1.07616 3.62253 0
M  V30 5512 H 523.698 2.79291 7.20567 0
M  V30 5513 H 522.043 2.50526 6.48276 0
M  V30 5514 H 525.234 1.41358 4.46246 0
M  V30 5515 H 525.407 2.19622 6.09648 0
M  V30 5516 N 518.813 -1.54241 0.323641 0
M  V30 5517 C 519.723 -2.28033 -0.551205 0
M  V30 5518 C 520.739 -1.32388 -1.12913 0
M  V30 5519 O 521.915 -1.65403 -1.14908 0
M  V30 5520 C 518.98 -3.02382 -1.69606 0
M  V30 5521 C 518.041 -4.13612 -1.14993 0
M  V30 5522 C 517.274 -4.84407 -2.24022 0
M  V30 5523 O 517.497 -4.54716 -3.44368 0
M  V30 5524 O 516.431 -5.71312 -1.89436 0
M  V30 5525 H 520.257 -3.03662 0.048066 0
M  V30 5526 H 517.842 -1.49133 0.0893289 0
M  V30 5527 H 519.724 -3.48941 -2.36259 0
M  V30 5528 H 518.399 -2.29628 -2.28151 0
M  V30 5529 H 517.306 -3.71402 -0.448484 0
M  V30 5530 H 518.639 -4.8841 -0.609608 0
M  V30 5531 N 520.291 -0.0518155 -1.57515 0
M  V30 5532 C 521.221 0.920283 -2.146 0
M  V30 5533 C 522.202 1.32406 -1.06783 0
M  V30 5534 O 523.387 1.39866 -1.34726 0
M  V30 5535 C 520.517 2.1949 -2.6915 0
M  V30 5536 C 519.471 1.93116 -3.81956 0
M  V30 5537 C 518.797 3.27037 -4.23026 0
M  V30 5538 C 520.097 1.25225 -5.07066 0
M  V30 5539 H 521.791 0.444801 -2.96077 0
M  V30 5540 H 519.337 0.212508 -1.42423 0
M  V30 5541 H 521.29 2.87894 -3.07725 0
M  V30 5542 H 520.014 2.69244 -1.84865 0
M  V30 5543 H 518.673 1.27123 -3.43854 0
M  V30 5544 H 518.321 3.74595 -3.3569 0
M  V30 5545 H 518.021 3.10189 -4.99056 0
M  V30 5546 H 519.545 3.96673 -4.64202 0
M  V30 5547 H 520.959 1.83666 -5.43083 0
M  V30 5548 H 519.356 1.18702 -5.88243 0
M  V30 5549 H 520.426 0.228382 -4.84362 0
M  V30 5550 N 521.769 1.56035 0.221574 0
M  V30 5551 C 522.701 1.889 1.29805 0
M  V30 5552 C 523.714 0.777269 1.43047 0
M  V30 5553 O 524.903 1.05557 1.43945 0
M  V30 5554 C 522.003 2.0825 2.67367 0
M  V30 5555 C 521.176 3.39267 2.76073 0
M  V30 5556 C 520.235 3.48049 3.94649 0
M  V30 5557 O 519.261 4.2108 3.82988 0
M  V30 5558 N 520.463 2.79191 5.08953 0
M  V30 5559 H 523.228 2.81831 1.01938 0
M  V30 5560 H 520.789 1.5658 0.411612 0
M  V30 5561 H 522.781 2.11441 3.45072 0
M  V30 5562 H 521.351 1.21944 2.87834 0
M  V30 5563 H 520.571 3.48175 1.84846 0
M  V30 5564 H 521.859 4.25575 2.7886 0
M  V30 5565 H 521.257 2.19635 5.21322 0
M  V30 5566 H 519.814 2.88043 5.84701 0
M  V30 5567 N 523.247 -0.488276 1.49845 0
M  V30 5568 C 524.157 -1.61451 1.70207 0
M  V30 5569 C 525.173 -1.63877 0.584846 0
M  V30 5570 O 526.349 -1.82063 0.861107 0
M  V30 5571 C 523.414 -2.9776 1.77594 0
M  V30 5572 C 522.475 -3.05861 3.01243 0
M  V30 5573 C 521.708 -4.35668 3.08268 0
M  V30 5574 O 521.931 -5.25197 2.22541 0
M  V30 5575 O 520.865 -4.49005 4.00847 0
M  V30 5576 H 524.691 -1.47199 2.65643 0
M  V30 5577 H 522.276 -0.665939 1.33737 0
M  V30 5578 H 524.158 -3.7875 1.84732 0
M  V30 5579 H 522.833 -3.12248 0.8534 0
M  V30 5580 H 521.74 -2.24012 2.99616 0
M  V30 5581 H 523.073 -2.96304 3.9302 0
M  V30 5582 N 524.725 -1.39134 -0.740242 0
M  V30 5583 C 525.95 -1.39518 -1.53459 0
M  V30 5584 C 526.375 0.00968883 -1.88098 0
M  V30 5585 O 525.733 0.995312 -1.51536 0
M  V30 5586 C 525.781 -2.26981 -2.802 0
M  V30 5587 O 524.885 -1.69609 -3.75908 0
M  V30 5588 H 524.226 -0.475328 -0.463637 0
M  V30 5589 H 526.756 -1.83064 -0.913717 0
M  V30 5590 H 526.766 -2.41309 -3.28989 0
M  V30 5591 H 525.441 -3.29081 -2.5432 0
M  V30 5592 H 524.018 -1.64495 -3.34658 0
M  V30 5593 N 526.204 0.969867 -1.24223 0
M  V30 5594 C 527.151 2.06407 -1.0327 0
M  V30 5595 C 528.121 1.66014 0.0533 0
M  V30 5596 O 529.306 1.90533 -0.100896 0
M  V30 5597 C 526.446 3.3909 -0.641262 0
M  V30 5598 C 525.559 3.9269 -1.80051 0
M  V30 5599 C 524.694 5.13631 -1.35486 0
M  V30 5600 C 523.733 5.59423 -2.48419 0
M  V30 5601 N 522.87 6.71586 -2.04737 0
M  V30 5602 H 527.71 2.23663 -1.96923 0
M  V30 5603 H 525.247 1.09624 -0.980862 0
M  V30 5604 H 527.205 4.15323 -0.395351 0
M  V30 5605 H 525.835 3.21765 0.258269 0
M  V30 5606 H 524.887 3.13116 -2.16014 0
M  V30 5607 H 526.199 4.22636 -2.64916 0
M  V30 5608 H 525.353 5.97231 -1.0677 0
M  V30 5609 H 524.092 4.85364 -0.476722 0
M  V30 5610 H 523.097 4.74398 -2.77897 0
M  V30 5611 H 524.322 5.89705 -3.36786 0
M  V30 5612 H 522.268 6.45058 -1.19318 0
M  V30 5613 H 522.185 7.0097 -2.83156 0
M  V30 5614 H 523.453 7.58633 -1.79154 0
M  V30 5615 N 527.682 1.05563 1.17022 0
M  V30 5616 C 528.931 0.763036 1.8671 0
M  V30 5617 C 529.244 -0.712857 1.82147 0
M  V30 5618 O 530.45 -1.11955 2.47343 0
M  V30 5619 C 528.906 1.31474 3.35026 0
M  V30 5620 C 528.514 2.82034 3.48081 0
M  V30 5621 C 530.258 1.09935 4.10018 0
M  V30 5622 C 528.165 3.30486 4.90442 0
M  V30 5623 H 527.095 0.281747 0.699382 0
M  V30 5624 H 529.746 1.2734 1.32124 0
M  V30 5625 H 528.128 0.732171 3.89173 0
M  V30 5626 H 529.302 3.46178 3.04133 0
M  V30 5627 H 527.617 3.02156 2.86515 0
M  V30 5628 H 530.214 1.43632 5.15048 0
M  V30 5629 H 530.557 0.0373072 4.16283 0
M  V30 5630 H 531.09 1.64732 3.62089 0
M  V30 5631 H 527.829 4.36137 4.89352 0
M  V30 5632 H 527.349 2.71086 5.35044 0
M  V30 5633 H 529.028 3.25382 5.59227 0
M  V30 5634 N 529.16 -1.33526 0.837174 0
M  V30 5635 C 530.388 -2.02047 0.445494 0
M  V30 5636 C 530.803 -1.62995 -0.952788 0
M  V30 5637 O 530.16 -0.842447 -1.61892 0
M  V30 5638 C 530.211 -3.57221 0.554577 0
M  V30 5639 O 529.932 -3.94863 1.89776 0
M  V30 5640 C 531.433 -4.43012 0.159634 0
M  V30 5641 H 528.653 -0.647221 0.177048 0
M  V30 5642 H 531.197 -1.70492 1.12928 0
M  V30 5643 H 529.352 -3.87315 -0.0812781 0
M  V30 5644 H 529.766 -4.89569 1.88208 0
M  V30 5645 H 531.24 -5.51253 0.28701 0
M  V30 5646 H 531.717 -4.29916 -0.898289 0
M  V30 5647 H 532.323 -4.18274 0.769855 0
M  V30 5648 N 530.638 -0.59345 -1.46 0
M  V30 5649 C 531.884 -0.0832754 -2.02629 0
M  V30 5650 C 532.217 1.27749 -1.46266 0
M  V30 5651 O 531.492 1.8395 -0.631866 0
M  V30 5652 C 531.775 -0.0290756 -3.60088 0
M  V30 5653 C 531.628 -1.41951 -4.26814 0
M  V30 5654 C 532.947 0.666055 -4.35031 0
M  V30 5655 H 530.066 -0.031736 -0.736316 0
M  V30 5656 H 532.708 -0.762711 -1.74019 0
M  V30 5657 H 530.858 0.549532 -3.84594 0
M  V30 5658 H 532.53 -2.04411 -4.13538 0
M  V30 5659 H 530.773 -1.98422 -3.8576 0
M  V30 5660 H 531.444 -1.33395 -5.3564 0
M  V30 5661 H 533.92 0.174401 -4.15734 0
M  V30 5662 H 532.796 0.673041 -5.44758 0
M  V30 5663 H 533.057 1.72946 -4.06869 0
M  V30 5664 N 532.116 1.54067 -0.331816 0
M  V30 5665 C 533.046 2.27569 0.522932 0
M  V30 5666 C 534.027 1.28679 1.11247 0
M  V30 5667 O 535.212 1.57504 1.13605 0
M  V30 5668 C 532.342 3.0397 1.67987 0
M  V30 5669 C 531.296 4.10267 1.21924 0
M  V30 5670 C 530.622 4.74555 2.46377 0
M  V30 5671 C 531.922 5.21268 0.32815 0
M  V30 5672 H 533.616 2.99264 -0.0901977 0
M  V30 5673 H 531.162 1.4393 -0.044821 0
M  V30 5674 H 533.115 3.54123 2.28418 0
M  V30 5675 H 531.839 2.29906 2.31971 0
M  V30 5676 H 530.498 3.61009 0.637809 0
M  V30 5677 H 530.146 3.97098 3.08743 0
M  V30 5678 H 529.846 5.46363 2.16243 0
M  V30 5679 H 531.37 5.27487 3.07555 0
M  V30 5680 H 532.784 5.67128 0.838978 0
M  V30 5681 H 531.181 5.99982 0.119228 0
M  V30 5682 H 532.251 4.80673 -0.638839 0
M  V30 5683 N 533.594 0.0601682 1.57485 0
M  V30 5684 C 535.005 -0.474217 1.80577 0
M  V30 5685 C 535.356 -1.70365 0.973147 0
M  V30 5686 O 534.481 -2.15544 0.192306 0
M  V30 5687 C 535.076 -0.867102 3.27516 0
M  V30 5688 C 533.635 -1.34642 3.51495 0
M  V30 5689 C 532.782 -0.32594 2.75378 0
M  V30 5690 H 535.733 0.285973 1.56102 0
M  V30 5691 H 535.754 -1.72938 3.38929 0
M  V30 5692 H 535.266 0.0278927 3.8809 0
M  V30 5693 H 533.367 -2.2603 2.96212 0
M  V30 5694 H 533.48 -1.33237 4.60201 0
M  V30 5695 H 531.844 -0.800749 2.41785 0
M  V30 5696 H 532.627 0.561125 3.38683 0
M  V30 5697 N 535.072 -1.5615 -0.213296 0
M  V30 5698 C 536.035 -1.92249 -1.24792 0
M  V30 5699 C 537.035 -0.801828 -1.39382 0
M  V30 5700 O 538.225 -1.06948 -1.37506 0
M  V30 5701 C 535.357 -2.18056 -2.62039 0
M  V30 5702 H 536.55 -2.84793 -0.939845 0
M  V30 5703 H 534.103 -1.49559 -0.454062 0
M  V30 5704 H 534.838 -1.2809 -2.97932 0
M  V30 5705 H 534.623 -2.99703 -2.52825 0
M  V30 5706 H 536.113 -2.47051 -3.36683 0
M  V30 5707 N 536.55 0.480323 -1.50102 0
M  V30 5708 C 537.961 1.06142 -1.53593 0
M  V30 5709 C 538.312 1.93335 -0.334055 0
M  V30 5710 O 537.437 2.09188 0.55403 0
M  V30 5711 C 538.032 1.9317 -2.78336 0
M  V30 5712 C 536.591 2.46405 -2.84538 0
M  V30 5713 C 535.738 1.24521 -2.4777 0
M  V30 5714 H 538.689 0.26333 -1.565 0
M  V30 5715 H 538.71 2.78123 -2.59669 0
M  V30 5716 H 538.222 1.29683 -3.65792 0
M  V30 5717 H 536.323 3.13472 -2.01411 0
M  V30 5718 H 536.436 2.82143 -3.87211 0
M  V30 5719 H 534.8 1.57706 -2.00003 0
M  V30 5720 H 535.583 0.627102 -3.37524 0
M  V30 5721 N 538.028 1.39524 0.732853 0
M  V30 5722 C 539.439 1.32905 1.31122 0
M  V30 5723 C 539.79 -0.00558708 1.96199 0
M  V30 5724 O 538.915 -0.907706 1.96443 0
M  V30 5725 C 539.51 2.40704 2.38426 0
M  V30 5726 C 538.069 2.37599 2.91931 0
M  V30 5727 C 537.216 2.2248 1.65523 0
M  V30 5728 H 540.167 1.49581 0.530207 0
M  V30 5729 H 540.188 2.07616 3.18867 0
M  V30 5730 H 539.7 3.37829 1.91033 0
M  V30 5731 H 537.801 1.44119 3.43599 0
M  V30 5732 H 537.914 3.32538 3.44899 0
M  V30 5733 H 536.278 1.69691 1.8994 0
M  V30 5734 H 537.061 3.21577 1.20178 0
M  V30 5735 N 539.506 -0.963266 1.24736 0
M  V30 5736 C 540.917 -1.52145 1.08207 0
M  V30 5737 C 541.268 -1.93142 -0.345061 0
M  V30 5738 O 540.393 -1.77769 -1.23399 0
M  V30 5739 C 540.988 -2.76486 1.95808 0
M  V30 5740 C 539.547 -3.28646 1.8349 0
M  V30 5741 C 538.694 -2.01529 1.90476 0
M  V30 5742 H 541.645 -0.781083 1.38148 0
M  V30 5743 H 541.666 -3.49986 1.49297 0
M  V30 5744 H 541.178 -2.46617 2.99669 0
M  V30 5745 H 539.279 -3.63357 0.824787 0
M  V30 5746 H 539.392 -3.97246 2.67829 0
M  V30 5747 H 537.756 -2.16442 1.34258 0
M  V30 5748 H 538.539 -1.7402 2.95926 0
M  V30 5749 N 540.985 -1.06182 -1.16461 0
M  V30 5750 C 542.396 -0.802426 -1.68576 0
M  V30 5751 C 542.747 0.67412 -1.84255 0
M  V30 5752 O 541.872 1.52303 -1.5373 0
M  V30 5753 C 542.467 -1.45002 -3.06202 0
M  V30 5754 C 541.026 -1.23843 -3.55443 0
M  V30 5755 C 540.173 -1.52724 -2.31454 0
M  V30 5756 H 543.124 -1.22545 -1.00839 0
M  V30 5757 H 543.145 -0.864731 -3.70544 0
M  V30 5758 H 542.657 -2.52466 -2.94759 0
M  V30 5759 H 540.758 -0.183487 -3.72148 0
M  V30 5760 H 540.871 -1.95036 -4.37604 0
M  V30 5761 H 539.235 -0.947726 -2.36411 0
M  V30 5762 H 540.018 -2.61343 -2.22609 0
M  V30 5763 N 542.463 1.3308 -0.844243 0
M  V30 5764 C 543.874 1.7992 -0.498566 0
M  V30 5765 C 544.225 1.69808 0.982834 0
M  V30 5766 O 543.35 1.25051 1.7661 0
M  V30 5767 C 543.945 3.26677 -0.898204 0
M  V30 5768 C 542.504 3.71513 -0.604583 0
M  V30 5769 C 541.651 2.54393 -1.10362 0
M  V30 5770 H 544.602 1.20526 -1.03244 0
M  V30 5771 H 544.623 3.79918 -0.21039 0
M  V30 5772 H 544.135 3.34004 -1.97643 0
M  V30 5773 H 542.236 3.69708 0.46335 0
M  V30 5774 H 542.349 4.64755 -1.16358 0
M  V30 5775 H 540.713 2.49246 -0.524273 0
M  V30 5776 H 541.496 2.6448 -2.18873 0
M  V30 5777 N 543.941 0.601185 1.45683 0
M  V30 5778 C 545.166 0.0982245 2.07167 0
M  V30 5779 C 545.591 -1.20546 1.44396 0
M  V30 5780 O 544.949 -1.73247 0.534347 0
M  V30 5781 C 544.997 -0.0346976 3.60583 0
M  V30 5782 O 544.101 -1.08657 3.97828 0
M  V30 5783 H 543.442 0.0711618 0.660176 0
M  V30 5784 H 545.972 0.829376 1.87036 0
M  V30 5785 H 545.982 -0.234969 4.07323 0
M  V30 5786 H 544.657 0.917265 4.05659 0
M  V30 5787 H 543.234 -0.863275 3.6277 0
M  V30 5788 N 545.419 -1.53889 0.339982 0
M  V30 5789 C 546.382 -2.23547 -0.50592 0
M  V30 5790 C 547.382 -1.23445 -1.03044 0
M  V30 5791 O 548.572 -1.47909 -0.920253 0
M  V30 5792 C 545.704 -2.95234 -1.7044 0
M  V30 5793 H 546.897 -2.99722 0.103247 0
M  V30 5794 H 544.45 -1.56033 0.0912804 0
M  V30 5795 H 545.185 -2.23236 -2.35236 0
M  V30 5796 H 544.97 -3.68654 -1.33553 0
M  V30 5797 H 546.46 -3.48258 -2.30447 0
M  V30 5798 N 546.897 -0.0685191 -1.57451 0
M  V30 5799 C 548.144 0.601348 -1.93365 0
M  V30 5800 C 548.472 1.69816 -0.948294 0
M  V30 5801 O 547.727 1.95666 0.0366199 0
M  V30 5802 C 548.026 1.22051 -3.35914 0
M  V30 5803 C 547.692 0.250165 -4.50205 0
M  V30 5804 C 546.354 -0.0167954 -4.81197 0
M  V30 5805 C 548.706 -0.413867 -5.19554 0
M  V30 5806 C 546.034 -0.95493 -5.78876 0
M  V30 5807 C 548.386 -1.3403 -6.18238 0
M  V30 5808 C 547.05 -1.61576 -6.47649 0
M  V30 5809 H 546.32 0.220049 -0.707573 0
M  V30 5810 H 548.967 -0.138697 -1.90997 0
M  V30 5811 H 547.272 2.03622 -3.34732 0
M  V30 5812 H 548.969 1.74605 -3.6099 0
M  V30 5813 H 545.559 0.468421 -4.26033 0
M  V30 5814 H 549.743 -0.220733 -4.95809 0
M  V30 5815 H 544.999 -1.17563 -5.99991 0
M  V30 5816 H 549.173 -1.86081 -6.71079 0
M  V30 5817 H 546.8 -2.34431 -7.2315 0
M  V30 5818 N 548.375 1.56261 0.205012 0
M  V30 5819 C 549.615 1.81823 0.933806 0
M  V30 5820 C 549.979 0.644534 1.80858 0
M  V30 5821 O 551.18 0.779819 2.5724 0
M  V30 5822 C 549.451 3.12362 1.7368 0
M  V30 5823 S 551.01 3.59296 2.51897 0
M  V30 5824 H 547.828 0.638209 0.313386 0
M  V30 5825 H 550.43 1.94495 0.198001 0
M  V30 5826 H 549.134 3.95809 1.08459 0
M  V30 5827 H 548.665 3.02542 2.5146 0
M  V30 5828 H 550.68 3.23945 3.75864 0
M  V30 5829 N 549.853 -0.472356 1.50355 0
M  V30 5830 C 551.083 -1.24603 1.64796 0
M  V30 5831 C 551.491 -1.86297 0.330156 0
M  V30 5832 O 550.834 -1.69934 -0.697728 0
M  V30 5833 C 550.896 -2.39578 2.68035 0
M  V30 5834 C 550.56 -1.98531 4.11624 0
M  V30 5835 C 551.557 -1.50856 4.97532 0
M  V30 5836 C 549.242 -2.0729 4.57532 0
M  V30 5837 C 551.236 -1.12481 6.27397 0
M  V30 5838 C 548.923 -1.68527 5.87403 0
M  V30 5839 C 549.921 -1.212 6.7216 0
M  V30 5840 O 549.609 -0.829728 7.99607 0
M  V30 5841 H 549.341 -0.383035 0.55701 0
M  V30 5842 H 551.895 -0.570392 1.97321 0
M  V30 5843 H 550.125 -3.10309 2.30749 0
M  V30 5844 H 551.814 -3.01544 2.71709 0
M  V30 5845 H 552.58 -1.43511 4.63281 0
M  V30 5846 H 548.459 -2.43076 3.91708 0
M  V30 5847 H 552.003 -0.754698 6.93506 0
M  V30 5848 H 547.9 -1.7553 6.21176 0
M  V30 5849 H 548.668 -0.958689 8.12866 0
M  V30 5850 N 551.331 -1.39911 -0.725443 0
M  V30 5851 C 552.241 -1.41688 -1.8698 0
M  V30 5852 C 553.257 -0.310579 -1.71206 0
M  V30 5853 O 554.433 -0.55359 -1.93642 0
M  V30 5854 C 551.498 -1.26811 -3.22676 0
M  V30 5855 C 550.559 -2.47497 -3.50776 0
M  V30 5856 C 549.792 -2.3332 -4.79997 0
M  V30 5857 O 550.015 -1.34175 -5.54394 0
M  V30 5858 O 548.949 -3.22498 -5.08211 0
M  V30 5859 H 552.775 -2.38171 -1.88436 0
M  V30 5860 H 550.36 -1.21128 -0.874548 0
M  V30 5861 H 552.242 -1.20684 -4.03749 0
M  V30 5862 H 550.917 -0.334289 -3.21969 0
M  V30 5863 H 549.824 -2.59201 -2.69751 0
M  V30 5864 H 551.157 -3.39606 -3.5627 0
M  V30 5865 N 552.809 0.956637 -1.25245 0
M  V30 5866 C 553.757 2.0743 -1.0524 0
M  V30 5867 C 554.751 1.69392 0.0160725 0
M  V30 5868 O 555.957 1.7946 -0.139382 0
M  V30 5869 H 552.332 0.678921 -0.323373 0
M  V30 5870 H 554.303 2.2146 -1.99995 0
M  V30 5871 C 553.052 3.40872 -0.685702 0
M  V30 5872 H 552.375 3.70607 -1.49968 0
M  V30 5873 H 553.815 4.19939 -0.585415 0
M  V30 5874 C 552.274 3.31367 0.608082 0
M  V30 5875 O 552.804 3.66214 1.65076 0
M  V30 5876 N 551.01 2.84486 0.592955 0
M  V30 5877 H 550.557 2.56326 -0.25592 0
M  V30 5878 H 550.515 2.78509 1.45877 0
M  V30 5879 N 554.287 1.06798 1.15896 0
M  V30 5880 C 555.197 0.694564 2.24083 0
M  V30 5881 C 556.213 -0.291687 1.71538 0
M  V30 5882 O 557.389 -0.139723 2.00915 0
M  V30 5883 C 554.454 0.0921014 3.46578 0
M  V30 5884 C 553.515 1.13087 4.14137 0
M  V30 5885 C 552.748 0.557064 5.30785 0
M  V30 5886 O 552.971 -0.628623 5.66925 0
M  V30 5887 O 551.905 1.29924 5.8771 0
M  V30 5888 H 555.731 1.59663 2.58344 0
M  V30 5889 H 553.316 0.840575 1.2351 0
M  V30 5890 H 555.198 -0.241884 4.20705 0
M  V30 5891 H 553.873 -0.78337 3.14078 0
M  V30 5892 H 552.78 1.51712 3.41957 0
M  V30 5893 H 554.113 1.97805 4.50704 0
M  V30 5894 N 555.766 -1.3263 0.851289 0
M  V30 5895 C 556.696 -2.31449 0.308771 0
M  V30 5896 C 557.677 -1.59531 -0.590255 0
M  V30 5897 O 558.862 -1.87351 -0.511205 0
M  V30 5898 C 555.992 -3.43586 -0.506548 0
M  V30 5899 C 554.946 -4.26963 0.297753 0
M  V30 5900 C 554.272 -5.30831 -0.642094 0
M  V30 5901 C 555.572 -4.99643 1.52166 0
M  V30 5902 H 557.266 -2.77074 1.13447 0
M  V30 5903 H 554.812 -1.33207 0.546971 0
M  V30 5904 H 556.765 -4.11754 -0.896474 0
M  V30 5905 H 555.489 -2.96681 -1.36558 0
M  V30 5906 H 554.148 -3.60437 0.669391 0
M  V30 5907 H 553.796 -4.8018 -1.49788 0
M  V30 5908 H 553.496 -5.87501 -0.107968 0
M  V30 5909 H 555.02 -6.01862 -1.02927 0
M  V30 5910 H 556.434 -5.6051 1.20421 0
M  V30 5911 H 554.831 -5.66022 1.99347 0
M  V30 5912 H 555.901 -4.27701 2.28474 0
M  V30 5913 N 557.244 -0.608902 -1.45362 0
M  V30 5914 C 558.207 0.0992563 -2.28985 0
M  V30 5915 C 559.207 0.793841 -1.39838 0
M  V30 5916 O 560.397 0.641804 -1.61946 0
M  V30 5917 C 557.529 1.15073 -3.20891 0
M  V30 5918 H 558.722 -0.635964 -2.93079 0
M  V30 5919 H 556.275 -0.368007 -1.51906 0
M  V30 5920 H 557.01 1.91667 -2.616 0
M  V30 5921 H 556.795 0.656867 -3.86559 0
M  V30 5922 H 558.285 1.64665 -3.83765 0
M  V30 5923 N 558.722 1.53707 -0.348139 0
M  V30 5924 C 559.652 2.28111 0.498766 0
M  V30 5925 C 560.633 1.29851 1.09876 0
M  V30 5926 O 561.818 1.587 1.11928 0
M  V30 5927 C 558.948 3.05735 1.64753 0
M  V30 5928 C 557.902 4.11537 1.17565 0
M  V30 5929 C 557.228 4.77142 2.4133 0
M  V30 5930 C 558.528 5.21587 0.272844 0
M  V30 5931 H 560.222 2.99152 -0.121934 0
M  V30 5932 H 557.768 1.43875 -0.0600842 0
M  V30 5933 H 559.721 3.56526 2.24649 0
M  V30 5934 H 558.445 2.32354 2.2952 0
M  V30 5935 H 557.104 3.61665 0.599483 0
M  V30 5936 H 556.752 4.0035 3.04514 0
M  V30 5937 H 556.452 5.48626 2.10436 0
M  V30 5938 H 557.976 5.30719 3.01943 0
M  V30 5939 H 559.39 5.67986 0.778779 0
M  V30 5940 H 557.787 6.00074 0.0555849 0
M  V30 5941 H 558.857 4.79969 -0.689785 0
M  V30 5942 N 560.2 0.0768682 1.57412 0
M  V30 5943 C 561.133 -0.924685 2.08626 0
M  V30 5944 C 562.111 -1.28792 0.992542 0
M  V30 5945 O 563.295 -1.39634 1.26628 0
M  V30 5946 C 560.422 -2.23131 2.54814 0
M  V30 5947 C 559.468 -2.01928 3.75669 0
M  V30 5948 S 560.301 -1.27397 5.20125 0
M  V30 5949 C 561.457 -2.59329 5.69648 0
M  V30 5950 H 561.69 -0.488928 2.93252 0
M  V30 5951 H 559.223 -0.136014 1.538 0
M  V30 5952 H 561.181 -2.98226 2.82084 0
M  V30 5953 H 559.842 -2.63831 1.70447 0
M  V30 5954 H 559.035 -2.98639 4.05993 0
M  V30 5955 H 558.637 -1.34967 3.48798 0
M  V30 5956 H 560.929 -3.55394 5.76803 0
M  V30 5957 H 561.872 -2.33608 6.68456 0
M  V30 5958 H 562.28 -2.66767 4.9749 0
M  V30 5959 N 561.678 -1.56367 -0.196722 0
M  V30 5960 C 562.903 -1.84991 -0.937714 0
M  V30 5961 C 563.328 -0.660244 -1.76132 0
M  V30 5962 O 562.686 0.390967 -1.77034 0
M  V30 5963 C 562.734 -3.11828 -1.81096 0
M  V30 5964 O 561.838 -2.92266 -2.90955 0
M  V30 5965 H 561.179 -0.609193 -0.264159 0
M  V30 5966 H 563.709 -2.03595 -0.202529 0
M  V30 5967 H 563.719 -3.42579 -2.21594 0
M  V30 5968 H 562.394 -3.98037 -1.2058 0
M  V30 5969 H 560.971 -2.72809 -2.54224 0
M  V30 5970 N 563.156 0.464375 -1.50603 0
M  V30 5971 C 564.088 1.57916 -1.66118 0
M  V30 5972 C 565.101 1.53497 -0.54246 0
M  V30 5973 O 566.29 1.58763 -0.815877 0
M  V30 5974 C 563.39 2.96809 -1.63577 0
M  V30 5975 C 562.563 3.26026 -2.91592 0
M  V30 5976 C 561.622 4.44506 -2.81604 0
M  V30 5977 O 560.648 4.44484 -3.55559 0
M  V30 5978 N 561.85 5.46549 -1.95614 0
M  V30 5979 H 564.615 1.45022 -2.62276 0
M  V30 5980 H 562.176 0.652903 -1.48151 0
M  V30 5981 H 564.168 3.74048 -1.54499 0
M  V30 5982 H 562.738 3.03438 -0.751262 0
M  V30 5983 H 561.958 2.37337 -3.14746 0
M  V30 5984 H 563.246 3.42361 -3.76386 0
M  V30 5985 H 562.644 5.49391 -1.34854 0
M  V30 5986 H 561.201 6.22746 -1.92435 0
M  V30 5987 N 564.634 1.40294 0.718013 0
M  V30 5988 C 565.544 1.42678 1.86226 0
M  V30 5989 C 566.56 0.319655 1.71039 0
M  V30 5990 O 567.736 0.563852 1.93346 0
M  V30 5991 C 564.801 1.2852 3.21999 0
M  V30 5992 C 563.862 2.49354 3.49458 0
M  V30 5993 C 563.095 2.35863 4.78753 0
M  V30 5994 O 563.318 1.37114 5.53675 0
M  V30 5995 O 562.252 3.25189 5.06494 0
M  V30 5996 H 566.078 2.39167 1.87171 0
M  V30 5997 H 563.663 1.2159 0.868112 0
M  V30 5998 H 565.545 1.22824 4.03103 0
M  V30 5999 H 564.22 0.351359 3.21787 0
M  V30 6000 H 563.127 2.60628 2.68373 0
M  V30 6001 H 564.46 3.41491 3.54464 0
M  V30 6002 N 566.112 -0.949982 1.2575 0
M  V30 6003 C 567.022 -2.08109 1.08295 0
M  V30 6004 C 568.038 -1.7399 0.0188181 0
M  V30 6005 O 569.214 -2.00187 0.220724 0
M  V30 6006 C 566.279 -3.39383 0.708534 0
M  V30 6007 C 565.34 -3.8734 1.85111 0
M  V30 6008 C 564.573 -5.12349 1.49447 0
M  V30 6009 O 564.796 -5.6905 0.392212 0
M  V30 6010 O 563.73 -5.5513 2.32624 0
M  V30 6011 H 567.556 -2.25738 2.03165 0
M  V30 6012 H 565.141 -1.06545 1.04731 0
M  V30 6013 H 567.023 -4.18277 0.512061 0
M  V30 6014 H 565.698 -3.23013 -0.210854 0
M  V30 6015 H 564.605 -3.09429 2.10248 0
M  V30 6016 H 565.938 -4.08216 2.74991 0
M  V30 6017 N 567.59 -1.07411 -1.15328 0
M  V30 6018 C 568.5 -0.706438 -2.23711 0
M  V30 6019 C 569.516 0.282586 -1.7169 0
M  V30 6020 O 570.692 0.129066 -2.00986 0
M  V30 6021 C 567.757 -0.11048 -3.46524 0
M  V30 6022 C 566.818 -1.15282 -4.13532 0
M  V30 6023 C 566.051 -0.585205 -5.30482 0
M  V30 6024 O 566.274 0.598549 -5.67251 0
M  V30 6025 O 565.208 -1.33039 -5.87013 0
M  V30 6026 H 569.034 -1.61031 -2.57493 0
M  V30 6027 H 566.619 -0.847113 -1.23062 0
M  V30 6028 H 568.501 0.21957 -4.20828 0
M  V30 6029 H 567.176 0.766703 -3.14489 0
M  V30 6030 H 566.083 -1.53523 -3.41147 0
M  V30 6031 H 567.416 -2.00192 -4.49649 0
M  V30 6032 N 569.068 1.32177 -0.85831 0
M  V30 6033 C 569.978 2.32561 -0.308606 0
M  V30 6034 C 570.994 1.64209 0.575462 0
M  V30 6035 O 572.17 1.95719 0.474961 0
M  V30 6036 C 569.235 3.43207 0.490909 0
M  V30 6037 C 568.296 4.27243 -0.419733 0
M  V30 6038 C 567.529 5.32605 0.341719 0
M  V30 6039 O 567.752 5.48332 1.57125 0
M  V30 6040 O 566.686 6.0118 -0.294379 0
M  V30 6041 H 570.512 2.81477 -1.14037 0
M  V30 6042 H 568.097 1.35866 -0.621349 0
M  V30 6043 H 569.979 4.10677 0.944574 0
M  V30 6044 H 568.654 2.96474 1.29941 0
M  V30 6045 H 567.561 3.62569 -0.921652 0
M  V30 6046 H 568.894 4.7751 -1.19352 0
M  V30 6047 N 570.547 0.616602 1.45037 0
M  V30 6048 C 571.48 -0.145984 2.27733 0
M  V30 6049 C 572.458 -0.865108 1.37676 0
M  V30 6050 O 573.642 -0.872152 1.6711 0
M  V30 6051 C 570.769 -1.2122 3.16265 0
M  V30 6052 C 569.815 -0.595218 4.22326 0
M  V30 6053 S 570.648 0.603744 5.32086 0
M  V30 6054 C 571.804 -0.462842 6.24186 0
M  V30 6055 H 572.037 0.555591 2.92062 0
M  V30 6056 H 569.57 0.404364 1.49011 0
M  V30 6057 H 571.528 -1.82247 3.67827 0
M  V30 6058 H 570.189 -1.88589 2.51183 0
M  V30 6059 H 569.382 -1.39775 4.8423 0
M  V30 6060 H 568.984 -0.0598965 3.73952 0
M  V30 6061 H 571.276 -1.33945 6.64127 0
M  V30 6062 H 572.219 0.120259 7.07998 0
M  V30 6063 H 572.627 -0.782219 5.59054 0
M  V30 6064 N 572.025 -1.5352 0.356285 0
M  V30 6065 C 572.935 -2.29151 -0.502712 0
M  V30 6066 C 573.951 -1.34753 -1.1008 0
M  V30 6067 O 575.127 -1.67803 -1.11374 0
M  V30 6068 C 572.192 -3.05911 -1.63154 0
M  V30 6069 C 571.253 -4.15958 -1.06194 0
M  V30 6070 C 570.486 -4.8905 -2.13696 0
M  V30 6071 O 570.709 -4.61919 -3.34645 0
M  V30 6072 O 569.643 -5.75202 -1.77275 0
M  V30 6073 H 573.469 -3.03492 0.112466 0
M  V30 6074 H 571.054 -1.4891 0.120942 0
M  V30 6075 H 572.936 -3.53874 -2.28804 0
M  V30 6076 H 571.611 -2.34415 -2.23229 0
M  V30 6077 H 570.518 -3.7227 -0.369603 0
M  V30 6078 H 571.851 -4.89593 -0.505872 0
M  V30 6079 N 573.503 -0.0852151 -1.57369 0
M  V30 6080 C 574.413 0.891712 -2.16992 0
M  V30 6081 C 575.429 1.3174 -1.13669 0
M  V30 6082 O 576.605 1.38735 -1.45995 0
M  V30 6083 C 573.67 2.13635 -2.73059 0
M  V30 6084 C 572.731 1.7658 -3.91303 0
M  V30 6085 C 571.964 2.95111 -4.44686 0
M  V30 6086 O 572.187 4.09539 -3.97032 0
M  V30 6087 O 571.121 2.74149 -5.35841 0
M  V30 6088 H 574.947 0.414477 -3.00858 0
M  V30 6089 H 572.532 0.138598 -1.48756 0
M  V30 6090 H 574.414 2.86595 -3.08935 0
M  V30 6091 H 573.089 2.6043 -1.92244 0
M  V30 6092 H 571.996 1.00831 -3.60255 0
M  V30 6093 H 573.329 1.34557 -4.7345 0
M  V30 6094 N 574.981 1.5647 0.188427 0
M  V30 6095 C 575.891 1.98285 1.2538 0
M  V30 6096 C 576.907 0.891535 1.49424 0
M  V30 6097 O 578.083 1.19782 1.61908 0
M  V30 6098 C 575.148 2.31965 2.57669 0
M  V30 6099 C 574.209 3.54838 2.41638 0
M  V30 6100 C 573.442 3.86901 3.67618 0
M  V30 6101 O 573.665 3.20163 4.72072 0
M  V30 6102 O 572.599 4.80309 3.62749 0
M  V30 6103 H 576.425 2.89145 0.928912 0
M  V30 6104 H 574.01 1.44112 0.393955 0
M  V30 6105 H 575.892 2.54673 3.35737 0
M  V30 6106 H 574.567 1.44271 2.89771 0
M  V30 6107 H 573.474 3.37369 1.61658 0
M  V30 6108 H 574.807 4.43019 2.14465 0
M  V30 6109 N 576.459 -0.456382 1.50847 0
M  V30 6110 C 577.422 -1.53493 1.70213 0
M  V30 6111 C 578.422 -1.50264 0.572481 0
M  V30 6112 O 579.612 -1.52623 0.839751 0
M  V30 6113 C 576.744 -2.93091 1.741 0
M  V30 6114 H 577.937 -1.37633 2.66453 0
M  V30 6115 H 575.49 -0.683776 1.4055 0
M  V30 6116 H 576.225 -3.14378 0.796063 0
M  V30 6117 H 576.01 -2.9684 2.5618 0
M  V30 6118 H 577.5 -3.71368 1.90987 0
M  V30 6119 N 577.937 -1.40673 -0.710563 0
M  V30 6120 C 578.9 -1.4108 -1.80635 0
M  V30 6121 C 579.9 -0.303783 -1.57904 0
M  V30 6122 O 581.09 -0.562937 -1.64853 0
M  V30 6123 C 578.222 -1.20748 -3.18799 0
M  V30 6124 H 579.415 -2.38612 -1.81671 0
M  V30 6125 H 576.968 -1.26595 -0.916704 0
M  V30 6126 H 577.703 -0.239964 -3.23411 0
M  V30 6127 H 577.488 -2.00941 -3.36698 0
M  V30 6128 H 578.978 -1.23833 -3.98817 0
M  V30 6129 N 579.415 0.9433 -1.26252 0
M  V30 6130 C 580.378 2.02326 -1.07689 0
M  V30 6131 C 581.378 1.60779 -0.0259174 0
M  V30 6132 O 582.568 1.72108 -0.269134 0
M  V30 6133 C 579.7 3.34886 -0.63752 0
M  V30 6134 H 580.893 2.20225 -2.0357 0
M  V30 6135 H 578.446 1.12197 -1.08819 0
M  V30 6136 H 579.181 3.22684 0.323377 0
M  V30 6137 H 578.966 3.66393 -1.39637 0
M  V30 6138 H 580.456 4.14231 -0.529418 0
M  V30 6139 N 580.893 1.08022 1.14757 0
M  V30 6140 C 581.856 0.71048 2.1791 0
M  V30 6141 C 582.856 -0.252731 1.58801 0
M  V30 6142 O 584.046 -0.0327915 1.74169 0
M  V30 6143 C 581.178 0.0483203 3.40866 0
M  V30 6144 H 582.371 1.62384 2.52134 0
M  V30 6145 H 579.924 0.877595 1.29337 0
M  V30 6146 H 580.659 -0.876959 3.12218 0
M  V30 6147 H 580.444 0.741189 3.85031 0
M  V30 6148 H 581.934 -0.195471 4.17142 0
M  V30 6149 N 582.371 -1.3172 0.865308 0
M  V30 6150 C 583.334 -2.26918 0.322627 0
M  V30 6151 C 584.334 -1.52031 -0.523751 0
M  V30 6152 O 585.524 -1.70973 -0.333727 0
M  V30 6153 C 582.656 -3.36558 -0.542338 0
M  V30 6154 H 583.849 -2.76432 1.16298 0
M  V30 6155 H 581.402 -1.42573 0.640512 0
M  V30 6156 H 582.137 -2.92329 -1.40407 0
M  V30 6157 H 581.922 -3.92048 0.0636395 0
M  V30 6158 H 583.412 -4.07465 -0.91446 0
M  V30 6159 N 583.85 -0.624285 -1.44708 0
M  V30 6160 C 584.812 0.0749638 -2.29077 0
M  V30 6161 C 585.812 0.778965 -1.40673 0
M  V30 6162 O 587.003 0.624591 -1.62618 0
M  V30 6163 C 584.135 1.11663 -3.22094 0
M  V30 6164 H 585.327 -0.667013 -2.92388 0
M  V30 6165 H 582.88 -0.384098 -1.51507 0
M  V30 6166 H 583.615 1.88881 -2.63618 0
M  V30 6167 H 583.401 0.61583 -3.87234 0
M  V30 6168 H 584.891 1.60585 -3.8549 0
M  V30 6169 N 585.328 1.53329 -0.364422 0
M  V30 6170 C 586.574 2.01537 0.225969 0
M  V30 6171 C 586.907 1.25128 1.48515 0
M  V30 6172 O 586.182 0.344653 1.91422 0
M  V30 6173 C 586.465 3.56339 0.519092 0
M  V30 6174 C 586.318 4.43441 -0.753639 0
M  V30 6175 C 587.637 4.19833 1.32015 0
M  V30 6176 H 584.756 0.732573 0.0806548 0
M  V30 6177 H 587.398 1.83597 -0.489084 0
M  V30 6178 H 585.548 3.71756 1.12825 0
M  V30 6179 H 587.22 4.39823 -1.39116 0
M  V30 6180 H 585.463 4.11457 -1.37424 0
M  V30 6181 H 586.134 5.49699 -0.503517 0
M  V30 6182 H 588.61 4.08242 0.804859 0
M  V30 6183 H 587.486 5.28177 1.49399 0
M  V30 6184 H 587.747 3.75821 2.32832 0
M  V30 6185 N 586.806 0.0935595 1.57322 0
M  V30 6186 C 587.769 -0.851426 2.12799 0
M  V30 6187 C 588.769 -1.21187 1.0569 0
M  V30 6188 O 589.959 -1.14156 1.31583 0
M  V30 6189 C 587.091 -2.14779 2.64731 0
M  V30 6190 H 588.284 -0.369733 2.97612 0
M  V30 6191 H 585.837 -0.155417 1.55525 0
M  V30 6192 H 586.572 -2.67437 1.83434 0
M  V30 6193 H 586.357 -1.89907 3.43042 0
M  V30 6194 H 587.847 -2.82383 3.07651 0
M  V30 6195 N 588.284 -1.56567 -0.180126 0
M  V30 6196 C 589.247 -1.94852 -1.20686 0
M  V30 6197 C 590.247 -0.831212 -1.3765 0
M  V30 6198 O 591.437 -1.09841 -1.35206 0
M  V30 6199 C 588.569 -2.23565 -2.57355 0
M  V30 6200 H 589.762 -2.86722 -0.879225 0
M  V30 6201 H 587.315 -1.50489 -0.422237 0
M  V30 6202 H 588.05 -1.34381 -2.95148 0
M  V30 6203 H 587.835 -3.04999 -2.46411 0
M  V30 6204 H 589.325 -2.54137 -3.31367 0
M  V30 6205 N 589.762 0.448376 -1.51087 0
M  V30 6206 C 591.01 1.19635 -1.62886 0
M  V30 6207 C 591.331 1.91977 -0.342024 0
M  V30 6208 O 590.601 1.85094 0.641636 0
M  V30 6209 H 589.181 0.444598 -0.600285 0
M  V30 6210 H 591.843 0.515138 -1.87969 0
M  V30 6211 H 590.939 1.93194 -2.45117 0
M  V30 6212 N 591.24 1.41047 0.703093 0
M  V30 6213 C 592.17 1.45067 1.82969 0
M  V30 6214 C 593.151 0.31016 1.67248 0
M  V30 6215 O 594.336 0.520548 1.87093 0
M  V30 6216 C 591.466 1.32478 3.2104 0
M  V30 6217 C 590.42 2.44262 3.51454 0
M  V30 6218 C 589.746 2.16742 4.88801 0
M  V30 6219 C 591.046 3.86606 3.51189 0
M  V30 6220 H 592.74 2.39353 1.79863 0
M  V30 6221 H 590.286 1.15206 0.863919 0
M  V30 6222 H 592.239 1.33904 3.99559 0
M  V30 6223 H 590.963 0.346735 3.24754 0
M  V30 6224 H 589.622 2.42107 2.75282 0
M  V30 6225 H 589.27 1.17299 4.89132 0
M  V30 6226 H 588.97 2.91643 5.10116 0
M  V30 6227 H 590.494 2.19872 5.69639 0
M  V30 6228 H 591.908 3.90517 4.19725 0
M  V30 6229 H 590.305 4.61128 3.84033 0
M  V30 6230 H 591.375 4.15296 2.50315 0
M  V30 6231 N 592.718 -0.936591 1.26751 0
M  V30 6232 C 593.966 -1.67998 1.12343 0
M  V30 6233 C 594.287 -1.92137 -0.332938 0
M  V30 6234 O 593.557 -1.52132 -1.23421 0
M  V30 6235 H 592.137 -0.622609 0.412756 0
M  V30 6236 H 594.799 -1.12509 1.59147 0
M  V30 6237 H 593.895 -2.65185 1.64571 0
M  V30 6238 N 594.196 -1.08629 -1.14182 0
M  V30 6239 C 595.126 -0.740003 -2.21464 0
M  V30 6240 C 596.107 0.278591 -1.67803 0
M  V30 6241 O 597.292 0.148461 -1.93632 0
M  V30 6242 C 594.422 -0.150952 -3.46972 0
M  V30 6243 C 593.376 -1.09815 -4.13672 0
M  V30 6244 C 592.702 -0.3712 -5.3341 0
M  V30 6245 C 594.002 -2.43722 -4.61949 0
M  V30 6246 H 595.696 -1.63697 -2.50686 0
M  V30 6247 H 593.242 -0.788526 -1.20492 0
M  V30 6248 H 595.195 0.103325 -4.21273 0
M  V30 6249 H 593.919 0.781164 -3.1712 0
M  V30 6250 H 592.578 -1.33756 -3.41328 0
M  V30 6251 H 592.226 0.564792 -4.99819 0
M  V30 6252 H 591.926 -1.00267 -5.78982 0
M  V30 6253 H 593.45 -0.12503 -6.10472 0
M  V30 6254 H 594.864 -2.24034 -5.27714 0
M  V30 6255 H 593.261 -3.02582 -5.18232 0
M  V30 6256 H 594.331 -3.05082 -3.76899 0
M  V30 6257 N 595.674 1.31259 -0.872281 0
M  V30 6258 C 596.584 2.32221 -0.333255 0
M  V30 6259 C 597.6 1.6481 0.558013 0
M  V30 6260 O 598.776 1.96212 0.454175 0
M  V30 6261 C 595.841 3.43708 0.454479 0
M  V30 6262 C 594.902 4.26774 -0.465024 0
M  V30 6263 C 594.135 5.32937 0.28521 0
M  V30 6264 O 594.358 5.49968 1.513 0
M  V30 6265 O 593.292 6.00834 -0.358126 0
M  V30 6266 H 597.118 2.80252 -1.17016 0
M  V30 6267 H 594.703 1.352 -0.635724 0
M  V30 6268 H 596.585 4.11656 0.900963 0
M  V30 6269 H 595.26 2.97836 1.26789 0
M  V30 6270 H 594.167 3.61571 -0.960055 0
M  V30 6271 H 595.5 4.76217 -1.2441 0
M  V30 6272 N 597.152 0.631951 1.44375 0
M  V30 6273 C 598.115 -0.0628142 2.29114 0
M  V30 6274 C 599.115 -0.771494 1.41084 0
M  V30 6275 O 600.305 -0.615959 1.62947 0
M  V30 6276 C 597.437 -1.09953 3.22681 0
M  V30 6277 H 598.63 0.682509 2.92031 0
M  V30 6278 H 596.183 0.392128 1.51301 0
M  V30 6279 H 596.918 -1.87481 2.64616 0
M  V30 6280 H 596.703 -0.595286 3.87555 0
M  V30 6281 H 598.193 -1.58538 3.86336 0
M  V30 6282 N 598.631 -1.53133 0.372548 0
M  V30 6283 C 599.879 -2.00958 -0.214534 0
M  V30 6284 C 600.2 -1.26135 -1.48711 0
M  V30 6285 O 599.47 -0.376597 -1.92246 0
M  V30 6286 H 598.05 -0.742456 -0.0822664 0
M  V30 6287 H 600.712 -1.88367 0.500385 0
M  V30 6288 H 599.808 -3.09031 -0.436605 0
M  V30 6289 N 600.109 -0.101901 -1.5727 0
M  V30 6290 C 601.334 0.571759 -1.99363 0
M  V30 6291 C 601.759 1.60507 -0.980768 0
M  V30 6292 O 601.117 1.81231 0.0498517 0
M  V30 6293 C 601.165 1.18996 -3.404 0
M  V30 6294 O 600.269 2.30572 -3.41922 0
M  V30 6295 H 599.61 0.144449 -0.648098 0
M  V30 6296 H 602.14 -0.185325 -2.03759 0
M  V30 6297 H 602.15 1.52962 -3.78241 0
M  V30 6298 H 600.825 0.432984 -4.1364 0
M  V30 6299 H 599.402 1.98173 -3.15883 0
M  V30 6300 N 601.587 1.56661 0.17182 0
M  V30 6301 C 602.534 1.96371 1.21273 0
M  V30 6302 C 603.504 0.82756 1.44016 0
M  V30 6303 O 604.689 1.08764 1.56764 0
M  V30 6304 C 601.829 2.32838 2.54716 0
M  V30 6305 C 600.942 3.59628 2.39356 0
M  V30 6306 C 600.077 3.85311 3.65662 0
M  V30 6307 C 599.116 5.0545 3.45234 0
M  V30 6308 N 598.253 5.27268 4.63608 0
M  V30 6309 H 603.093 2.85106 0.86709 0
M  V30 6310 H 600.63 1.41073 0.416744 0
M  V30 6311 H 602.588 2.52004 3.3249 0
M  V30 6312 H 601.218 1.47214 2.87277 0
M  V30 6313 H 600.27 3.4838 1.52761 0
M  V30 6314 H 601.582 4.4756 2.20207 0
M  V30 6315 H 600.736 4.04841 4.51872 0
M  V30 6316 H 599.475 2.95753 3.8779 0
M  V30 6317 H 598.48 4.85819 2.5741 0
M  V30 6318 H 599.705 5.96538 3.24529 0
M  V30 6319 H 597.651 4.40662 4.85956 0
M  V30 6320 H 597.568 6.09422 4.4737 0
M  V30 6321 H 598.836 5.51277 5.51103 0
M  V30 6322 N 603.065 -0.440357 1.51323 0
M  V30 6323 C 603.975 -1.55955 1.75258 0
M  V30 6324 C 604.991 -1.61933 0.636687 0
M  V30 6325 O 606.167 -1.79231 0.918593 0
M  V30 6326 C 603.232 -2.9196 1.86977 0
M  V30 6327 C 602.293 -2.96122 3.10822 0
M  V30 6328 C 601.526 -4.2564 3.21973 0
M  V30 6329 O 601.749 -5.17851 2.39137 0
M  V30 6330 O 600.683 -4.36025 4.14929 0
M  V30 6331 H 604.509 -1.38673 2.70191 0
M  V30 6332 H 602.094 -0.623055 1.35788 0
M  V30 6333 H 603.976 -3.72682 1.96688 0
M  V30 6334 H 602.651 -3.09375 0.952307 0
M  V30 6335 H 601.558 -2.14366 3.06591 0
M  V30 6336 H 602.891 -2.83651 4.02247 0
M  V30 6337 N 604.543 -1.41418 -0.695603 0
M  V30 6338 C 605.453 -1.45622 -1.83933 0
M  V30 6339 C 606.469 -0.346825 -1.70508 0
M  V30 6340 O 607.645 -0.59454 -1.92424 0
M  V30 6341 C 604.71 -1.33627 -3.19914 0
M  V30 6342 C 603.771 -2.54882 -3.45447 0
M  V30 6343 C 603.004 -2.43449 -4.7494 0
M  V30 6344 O 603.227 -1.45905 -5.51424 0
M  V30 6345 O 602.161 -3.33206 -5.01256 0
M  V30 6346 H 605.987 -2.42114 -1.83342 0
M  V30 6347 H 603.572 -1.22956 -0.848658 0
M  V30 6348 H 605.454 -1.29221 -4.01098 0
M  V30 6349 H 604.129 -0.402508 -3.21188 0
M  V30 6350 H 603.036 -2.64865 -2.64192 0
M  V30 6351 H 604.369 -3.47087 -3.48987 0
M  V30 6352 N 606.021 0.929856 -1.27246 0
M  V30 6353 C 606.984 2.01172 -1.09829 0
M  V30 6354 C 607.984 1.60743 -0.0429687 0
M  V30 6355 O 609.174 1.71813 -0.287373 0
M  V30 6356 C 606.306 3.34191 -0.673003 0
M  V30 6357 H 607.499 2.18054 -2.05895 0
M  V30 6358 H 605.052 1.11036 -1.10003 0
M  V30 6359 H 605.787 3.23009 0.289134 0
M  V30 6360 H 605.572 3.64892 -1.43515 0
M  V30 6361 H 607.062 4.13646 -0.573323 0
M  V30 6362 N 607.499 1.09233 1.13605 0
M  V30 6363 C 608.747 0.825525 1.84471 0
M  V30 6364 C 609.068 -0.650702 1.83823 0
M  V30 6365 O 608.338 -1.47204 1.29259 0
M  V30 6366 H 606.918 0.3024 0.683054 0
M  V30 6367 H 609.58 1.38006 1.37624 0
M  V30 6368 H 608.676 1.17727 2.89045 0
M  V30 6369 N 608.977 -1.30795 0.87923 0
M  V30 6370 C 610.226 -1.95636 0.490875 0
M  V30 6371 C 610.539 -1.70214 -0.963674 0
M  V30 6372 O 611.745 -2.28991 -1.45861 0
M  V30 6373 C 610.201 -3.50271 0.826929 0
M  V30 6374 C 609.809 -3.84521 2.29886 0
M  V30 6375 C 611.553 -4.21456 0.507494 0
M  V30 6376 C 609.46 -5.32309 2.57685 0
M  V30 6377 H 608.39 -0.732238 0.179841 0
M  V30 6378 H 611.041 -1.48829 1.07341 0
M  V30 6379 H 609.423 -3.9562 0.173542 0
M  V30 6380 H 610.597 -3.50102 2.99609 0
M  V30 6381 H 608.912 -3.26425 2.58526 0
M  V30 6382 H 611.509 -5.30199 0.692293 0
M  V30 6383 H 611.852 -4.12614 -0.552718 0
M  V30 6384 H 612.385 -3.81772 1.11782 0
M  V30 6385 H 609.124 -5.46195 3.62424 0
M  V30 6386 H 608.644 -5.68048 1.92566 0
M  V30 6387 H 610.323 -5.99678 2.42889 0
M  V30 6388 N 610.455 -0.639598 -1.44038 0
M  V30 6389 C 611.704 -0.144885 -2.01179 0
M  V30 6390 C 612.017 1.24372 -1.50967 0
M  V30 6391 O 613.223 1.83291 -2.00292 0
M  V30 6392 C 611.679 -0.208244 -3.59297 0
M  V30 6393 C 611.287 -1.59869 -4.18504 0
M  V30 6394 C 613.031 0.229568 -4.23879 0
M  V30 6395 C 610.938 -1.61671 -5.68873 0
M  V30 6396 H 609.868 -0.0504005 -0.752314 0
M  V30 6397 H 612.519 -0.799639 -1.65161 0
M  V30 6398 H 610.901 0.513767 -3.92653 0
M  V30 6399 H 612.075 -2.34496 -3.96671 0
M  V30 6400 H 610.39 -1.98131 -3.66242 0
M  V30 6401 H 612.987 0.235758 -5.3418 0
M  V30 6402 H 613.33 1.25848 -3.96822 0
M  V30 6403 H 613.863 -0.440233 -3.95357 0
M  V30 6404 H 610.602 -2.62427 -6.00677 0
M  V30 6405 H 610.122 -0.913489 -5.92803 0
M  V30 6406 H 611.801 -1.35439 -6.32665 0
M  V30 6407 N 611.933 1.52934 -0.380664 0
M  V30 6408 C 613.349 1.59571 -0.0302429 0
M  V30 6409 C 613.549 1.39509 1.45394 0
M  V30 6410 O 612.605 1.20777 2.21741 0
M  V30 6411 C 613.918 2.96519 -0.499691 0
M  V30 6412 C 615.466 3.09672 -0.455204 0
M  V30 6413 C 615.941 4.49056 -0.900703 0
M  V30 6414 N 617.432 4.55215 -0.856367 0
M  V30 6415 C 618.167 5.61282 -1.17259 0
M  V30 6416 N 617.663 6.75035 -1.55885 0
M  V30 6417 N 619.456 5.51343 -1.0944 0
M  V30 6418 H 611.607 1.64224 -1.347 0
M  V30 6419 H 613.87 0.771033 -0.551554 0
M  V30 6420 H 613.576 3.16388 -1.53595 0
M  V30 6421 H 613.45 3.77052 0.105789 0
M  V30 6422 H 615.837 2.89504 0.571949 0
M  V30 6423 H 615.918 2.31113 -1.09638 0
M  V30 6424 H 615.562 4.69964 -1.92604 0
M  V30 6425 H 615.492 5.26068 -0.236629 0
M  V30 6426 H 617.983 3.73546 -0.572013 0
M  V30 6427 H 618.296 7.51926 -1.784 0
M  V30 6428 H 616.641 6.76388 -1.59764 0
M  V30 6429 H 619.832 4.61356 -0.791713 0
M  V30 6430 H 620.005 6.33905 -1.34417 0
M  V30 6431 N 613.412 0.11024 1.57214 0
M  V30 6432 C 614.345 -0.880224 2.1054 0
M  V30 6433 C 615.323 -1.26658 1.01964 0
M  V30 6434 O 616.507 -1.36917 1.29561 0
M  V30 6435 C 613.634 -2.17676 2.59489 0
M  V30 6436 C 612.68 -1.93914 3.79868 0
M  V30 6437 S 613.513 -1.16336 5.2271 0
M  V30 6438 C 614.669 -2.47188 5.75021 0
M  V30 6439 H 614.902 -0.426614 2.94223 0
M  V30 6440 H 612.435 -0.10336 1.54054 0
M  V30 6441 H 614.393 -2.92175 2.88347 0
M  V30 6442 H 613.054 -2.60156 1.76005 0
M  V30 6443 H 612.247 -2.8996 4.12236 0
M  V30 6444 H 611.849 -1.27539 3.51582 0
M  V30 6445 H 614.141 -3.43079 5.84211 0
M  V30 6446 H 615.084 -2.19377 6.7326 0
M  V30 6447 H 615.492 -2.56154 5.03036 0
M  V30 6448 N 614.89 -1.56749 -0.16351 0
M  V30 6449 C 615.82 -2.00042 -1.20438 0
M  V30 6450 C 616.801 -0.877256 -1.45733 0
M  V30 6451 O 617.986 -1.1439 -1.56935 0
M  V30 6452 C 615.116 -2.36697 -2.54149 0
M  V30 6453 C 614.07 -3.52046 -2.43408 0
M  V30 6454 C 613.396 -3.74466 -3.81679 0
M  V30 6455 C 614.696 -4.85247 -1.93216 0
M  V30 6456 H 616.39 -2.87244 -0.844477 0
M  V30 6457 H 613.936 -1.38194 -0.40478 0
M  V30 6458 H 615.889 -2.65582 -3.27176 0
M  V30 6459 H 614.613 -1.46414 -2.91943 0
M  V30 6460 H 613.272 -3.23301 -1.72834 0
M  V30 6461 H 612.92 -2.81461 -4.1688 0
M  V30 6462 H 612.62 -4.52084 -3.75359 0
M  V30 6463 H 614.144 -4.0576 -4.5628 0
M  V30 6464 H 615.558 -5.12957 -2.56023 0
M  V30 6465 H 613.955 -5.66556 -1.97825 0
M  V30 6466 H 615.025 -4.7672 -0.88689 0
M  V30 6467 N 616.368 0.432326 -1.51554 0
M  V30 6468 C 617.278 1.55023 -1.76082 0
M  V30 6469 C 618.294 1.61593 -0.645265 0
M  V30 6470 O 619.47 1.78742 -0.928086 0
M  V30 6471 C 616.535 2.90964 -1.88523 0
M  V30 6472 C 615.596 2.9447 -3.12388 0
M  V30 6473 C 614.829 4.23926 -3.24225 0
M  V30 6474 O 615.052 5.16576 -2.4188 0
M  V30 6475 O 613.986 4.33818 -4.17235 0
M  V30 6476 H 617.812 1.37238 -2.70923 0
M  V30 6477 H 615.397 0.615845 -1.36117 0
M  V30 6478 H 617.279 3.71633 -1.98662 0
M  V30 6479 H 615.954 3.08865 -0.9687 0
M  V30 6480 H 614.861 2.12737 -3.07723 0
M  V30 6481 H 616.194 2.81514 -4.03746 0
M  V30 6482 N 617.846 1.41785 0.688094 0
M  V30 6483 C 619.093 1.41544 1.44816 0
M  V30 6484 C 619.421 0.0271746 1.94481 0
M  V30 6485 O 618.676 -0.962235 1.7041 0
M  V30 6486 C 618.975 2.37532 2.67046 0
M  V30 6487 C 618.641 3.84209 2.35996 0
M  V30 6488 C 617.303 4.24165 2.27239 0
M  V30 6489 C 619.655 4.76785 2.10536 0
M  V30 6490 C 616.983 5.54695 1.91128 0
M  V30 6491 C 619.335 6.07644 1.75931 0
M  V30 6492 C 617.999 6.46613 1.65675 0
M  V30 6493 H 617.269 0.517945 0.529919 0
M  V30 6494 H 619.916 1.74635 0.785797 0
M  V30 6495 H 618.221 1.9772 3.38251 0
M  V30 6496 H 619.918 2.34615 3.25203 0
M  V30 6497 H 616.508 3.52567 2.4371 0
M  V30 6498 H 620.692 4.46714 2.16242 0
M  V30 6499 H 615.948 5.83762 1.81746 0
M  V30 6500 H 620.122 6.78874 1.55252 0
M  V30 6501 H 617.749 7.47668 1.37463 0
M  V30 6502 N 619.324 -0.923095 1.27737 0
M  V30 6503 C 620.572 -1.66797 1.14119 0
M  V30 6504 C 620.893 -1.92479 -0.312541 0
M  V30 6505 O 620.163 -1.53432 -1.218 0
M  V30 6506 H 618.743 -0.618196 0.419336 0
M  V30 6507 H 621.405 -1.10815 1.60331 0
M  V30 6508 H 620.501 -2.63424 1.67374 0
M  V30 6509 N 620.802 -1.09834 -1.13024 0
M  V30 6510 C 622.027 -0.85909 -1.88771 0
M  V30 6511 C 622.452 0.584402 -1.78791 0
M  V30 6512 O 621.81 1.41101 -1.13842 0
M  V30 6513 C 621.858 -1.30427 -3.36186 0
M  V30 6514 O 620.962 -0.465368 -4.09766 0
M  V30 6515 H 620.303 -0.310786 -0.586778 0
M  V30 6516 H 622.833 -1.46355 -1.42973 0
M  V30 6517 H 622.843 -1.2915 -3.8702 0
M  V30 6518 H 621.518 -2.3555 -3.42767 0
M  V30 6519 H 620.095 -0.542814 -3.68928 0
M  V30 6520 N 622.28 1.30327 -0.886154 0
M  V30 6521 C 623.23 2.25668 -0.325248 0
M  V30 6522 C 624.214 1.51318 0.546972 0
M  V30 6523 O 625.406 1.72623 0.391203 0
M  V30 6524 C 622.535 3.40229 0.458167 0
M  V30 6525 C 621.621 4.21933 -0.428208 0
M  V30 6526 N 622.012 4.82129 -1.52921 0
M  V30 6527 C 620.31 4.45439 -0.223535 0
M  V30 6528 C 621.011 5.43351 -2.07714 0
M  V30 6529 N 619.987 5.26002 -1.37195 0
M  V30 6530 H 623.789 2.69759 -1.1665 0
M  V30 6531 H 621.303 1.4478 -0.735691 0
M  V30 6532 H 623.3 4.07579 0.876648 0
M  V30 6533 H 621.96 2.97678 1.29684 0
M  V30 6534 H 622.971 4.81312 -1.91205 0
M  V30 6535 H 619.648 4.13481 0.577875 0
M  V30 6536 H 621.038 6.01118 -3.00178 0
M  V30 6537 N 623.758 0.647228 1.43697 0
M  V30 6538 C 624.688 -0.0345631 2.33474 0
M  V30 6539 C 625.669 -0.818193 1.4913 0
M  V30 6540 O 626.854 -0.780867 1.77809 0
M  V30 6541 C 623.984 -1.00576 3.32418 0
M  V30 6542 C 622.938 -0.33266 4.26705 0
M  V30 6543 C 622.264 -1.41489 5.1564 0
M  V30 6544 C 623.564 0.771204 5.16575 0
M  V30 6545 H 625.258 0.715163 2.90733 0
M  V30 6546 H 622.804 0.345364 1.39797 0
M  V30 6547 H 624.757 -1.49159 3.94119 0
M  V30 6548 H 623.481 -1.78657 2.73403 0
M  V30 6549 H 622.14 0.13267 3.6636 0
M  V30 6550 H 621.788 -2.18698 4.52968 0
M  V30 6551 H 621.488 -0.969799 5.79542 0
M  V30 6552 H 623.012 -1.9022 5.80214 0
M  V30 6553 H 624.426 0.36779 5.72119 0
M  V30 6554 H 622.823 1.1404 5.89165 0
M  V30 6555 H 623.893 1.63169 4.56622 0
M  V30 6556 N 625.236 -1.5273 0.388769 0
M  V30 6557 C 626.513 -1.93981 -0.251133 0
M  V30 6558 C 626.893 -1.32418 -1.64404 0
M  V30 6559 O 626.241 -0.492074 -2.23139 0
M  V30 6560 C 626.451 -3.47891 -0.27802 0
M  V30 6561 C 627.799 -4.21559 -0.507229 0
M  V30 6562 O 628.823 -3.54394 -0.358252 0
M  V30 6563 O 627.682 -5.40626 -0.799094 0
M  V30 6564 H 624.776 -0.812157 -0.15598 0
M  V30 6565 H 627.322 -1.63809 0.443237 0
M  V30 6566 H 626.094 -3.8503 0.697669 0
M  V30 6567 H 625.717 -3.84364 -1.01733 0
M  V30 6568 N 626.714 -0.118576 -1.57153 0
M  V30 6569 C 627.644 0.828436 -2.1831 0
M  V30 6570 C 628.625 1.27758 -1.12303 0
M  V30 6571 O 629.81 1.34026 -1.40537 0
M  V30 6572 C 626.94 2.07876 -2.78217 0
M  V30 6573 C 625.894 1.76742 -3.89803 0
M  V30 6574 C 625.22 3.08801 -4.36516 0
M  V30 6575 C 626.52 1.03606 -5.11921 0
M  V30 6576 H 628.214 0.318824 -2.97698 0
M  V30 6577 H 625.76 0.151911 -1.43196 0
M  V30 6578 H 627.713 2.74584 -3.19659 0
M  V30 6579 H 626.437 2.61161 -1.96118 0
M  V30 6580 H 625.096 1.12424 -3.48936 0
M  V30 6581 H 624.744 3.6002 -3.51276 0
M  V30 6582 H 624.444 2.88743 -5.11763 0
M  V30 6583 H 625.968 3.76627 -4.80608 0
M  V30 6584 H 627.382 1.60467 -5.50385 0
M  V30 6585 H 625.779 0.936454 -5.92748 0
M  V30 6586 H 626.849 0.0227421 -4.84895 0
M  V30 6587 N 628.193 1.56834 0.155195 0
M  V30 6588 C 629.103 2.009 1.21146 0
M  V30 6589 C 630.119 0.923029 1.475 0
M  V30 6590 O 631.295 1.23189 1.59331 0
M  V30 6591 C 628.36 2.37378 2.52691 0
M  V30 6592 C 627.421 3.59883 2.34057 0
M  V30 6593 C 626.654 3.94612 3.59329 0
M  V30 6594 O 626.877 3.30104 4.65175 0
M  V30 6595 O 625.811 4.87895 3.52479 0
M  V30 6596 H 629.637 2.9105 0.867371 0
M  V30 6597 H 627.222 1.44916 0.363298 0
M  V30 6598 H 629.104 2.61737 3.3026 0
M  V30 6599 H 627.779 1.50385 2.86646 0
M  V30 6600 H 626.686 3.40722 1.54465 0
M  V30 6601 H 628.019 4.47468 2.0502 0
M  V30 6602 N 629.671 -0.424282 1.51781 0
M  V30 6603 C 631.087 -0.761768 1.40247 0
M  V30 6604 C 631.287 -1.95324 0.495041 0
M  V30 6605 O 630.343 -2.5246 -0.0448949 0
M  V30 6606 C 631.656 -1.0299 2.82513 0
M  V30 6607 C 633.204 -1.13354 2.91753 0
M  V30 6608 C 633.679 -1.43453 4.34954 0
M  V30 6609 N 635.17 -1.5035 4.3812 0
M  V30 6610 C 635.905 -1.75236 5.45967 0
M  V30 6611 N 635.401 -1.97827 6.63955 0
M  V30 6612 N 637.194 -1.77126 5.33463 0
M  V30 6613 H 629.345 0.360228 2.09323 0
M  V30 6614 H 631.608 0.0988128 0.942836 0
M  V30 6615 H 631.314 -0.226961 3.50967 0
M  V30 6616 H 631.188 -1.95411 3.22637 0
M  V30 6617 H 633.575 -1.92709 2.23489 0
M  V30 6618 H 633.656 -0.188041 2.55108 0
M  V30 6619 H 633.3 -0.646209 5.03772 0
M  V30 6620 H 633.23 -2.3923 4.69123 0
M  V30 6621 H 635.721 -1.34742 3.53062 0
M  V30 6622 H 636.034 -2.16223 7.41935 0
M  V30 6623 H 634.379 -1.95123 6.67047 0
M  V30 6624 H 637.57 -1.59005 4.40267 0
M  V30 6625 H 637.743 -1.96182 6.17589 0
M  V30 6626 N 631.149 -1.42148 -0.680565 0
M  V30 6627 C 632.082 -1.39602 -1.80517 0
M  V30 6628 C 633.06 -0.261098 -1.6049 0
M  V30 6629 O 634.244 -0.450404 -1.8304 0
M  V30 6630 C 631.371 -1.18134 -3.1743 0
M  V30 6631 C 630.417 -2.34543 -3.56219 0
M  V30 6632 S 631.25 -3.97063 -3.59306 0
M  V30 6633 C 632.406 -3.77926 -4.98921 0
M  V30 6634 H 632.639 -2.3477 -1.82402 0
M  V30 6635 H 630.172 -1.28851 -0.850691 0
M  V30 6636 H 632.13 -1.06434 -3.96462 0
M  V30 6637 H 630.791 -0.245611 -3.13138 0
M  V30 6638 H 629.984 -2.15255 -4.55721 0
M  V30 6639 H 629.586 -2.42728 -2.84533 0
M  V30 6640 H 631.878 -3.3856 -5.86842 0
M  V30 6641 H 632.821 -4.77084 -5.23256 0
M  V30 6642 H 633.229 -3.10904 -4.71167 0
M  V30 6643 N 632.627 0.916307 -1.28225 0
M  V30 6644 C 633.559 2.02303 -1.07732 0
M  V30 6645 C 634.572 1.62773 -0.0298421 0
M  V30 6646 O 635.761 1.76406 -0.272626 0
M  V30 6647 C 632.861 3.33282 -0.614504 0
M  V30 6648 C 632.034 4.01439 -1.73682 0
M  V30 6649 C 631.093 5.10698 -1.26781 0
M  V30 6650 O 630.119 5.34038 -1.96958 0
M  V30 6651 N 631.321 5.80355 -0.129624 0
M  V30 6652 H 634.086 2.20442 -2.03041 0
M  V30 6653 H 631.647 1.08744 -1.19943 0
M  V30 6654 H 633.639 4.03699 -0.284397 0
M  V30 6655 H 632.209 3.11633 0.245664 0
M  V30 6656 H 631.429 3.24604 -2.23665 0
M  V30 6657 H 632.717 4.43721 -2.48976 0
M  V30 6658 H 632.115 5.6386 0.455847 0
M  V30 6659 H 630.672 6.51647 0.141224 0
M  V30 6660 N 634.105 1.10431 1.1244 0
M  V30 6661 C 635.068 0.756542 2.16354 0
M  V30 6662 C 636.068 -0.21899 1.59302 0
M  V30 6663 O 637.258 0.00415969 1.742 0
M  V30 6664 C 634.39 0.120612 3.40687 0
M  V30 6665 H 635.583 1.67696 2.48632 0
M  V30 6666 H 633.136 0.904832 1.27446 0
M  V30 6667 H 633.871 -0.810536 3.14008 0
M  V30 6668 H 633.656 0.822693 3.83372 0
M  V30 6669 H 635.146 -0.106945 4.17463 0
M  V30 6670 N 635.583 -1.29855 0.893053 0
M  V30 6671 C 636.808 -2.00512 0.530066 0
M  V30 6672 C 637.233 -1.66446 -0.876199 0
M  V30 6673 O 636.591 -0.885446 -1.58207 0
M  V30 6674 C 636.639 -3.53308 0.721505 0
M  V30 6675 O 635.743 -4.11764 -0.228994 0
M  V30 6676 H 635.084 -0.630617 0.207891 0
M  V30 6677 H 637.614 -1.6551 1.20282 0
M  V30 6678 H 637.624 -4.03206 0.623599 0
M  V30 6679 H 636.299 -3.77439 1.74678 0
M  V30 6680 H 634.876 -3.72805 -0.0841034 0
M  V30 6681 N 637.061 -0.65484 -1.43351 0
M  V30 6682 C 637.991 0.0221809 -2.33489 0
M  V30 6683 C 638.972 0.810272 -1.49561 0
M  V30 6684 O 640.157 0.771426 -1.78221 0
M  V30 6685 C 637.287 0.988117 -3.32947 0
M  V30 6686 C 636.241 0.310026 -4.26876 0
M  V30 6687 C 635.567 1.38752 -5.16384 0
M  V30 6688 C 636.867 -0.798589 -5.16159 0
M  V30 6689 H 638.561 -0.730571 -2.9035 0
M  V30 6690 H 636.107 -0.352773 -1.39612 0
M  V30 6691 H 638.06 1.47067 -3.94904 0
M  V30 6692 H 636.784 1.77205 -2.74346 0
M  V30 6693 H 635.443 -0.152097 -3.66284 0
M  V30 6694 H 635.091 2.16293 -4.54121 0
M  V30 6695 H 634.791 0.939051 -5.80048 0
M  V30 6696 H 636.315 1.87141 -5.81215 0
M  V30 6697 H 637.729 -0.398126 -5.71916 0
M  V30 6698 H 636.126 -1.17163 -5.88552 0
M  V30 6699 H 637.196 -1.65588 -4.55751 0
M  V30 6700 N 638.539 1.52521 -0.396863 0
M  V30 6701 C 639.95 1.86547 0.0754868 0
M  V30 6702 C 640.301 1.31621 1.45501 0
M  V30 6703 O 639.426 0.650563 2.0639 0
M  V30 6704 C 640.021 3.38495 0.143754 0
M  V30 6705 C 638.58 3.72205 0.560413 0
M  V30 6706 C 637.727 2.75954 -0.272856 0
M  V30 6707 H 640.678 1.46323 -0.614434 0
M  V30 6708 H 640.699 3.68153 0.961425 0
M  V30 6709 H 640.211 3.78442 -0.860415 0
M  V30 6710 H 638.312 3.3783 1.57167 0
M  V30 6711 H 638.425 4.78074 0.313314 0
M  V30 6712 H 636.789 2.53339 0.263 0
M  V30 6713 H 637.572 3.1874 -1.27515 0
M  V30 6714 N 640.017 0.126909 1.57088 0
M  V30 6715 C 640.947 -0.816847 2.18746 0
M  V30 6716 C 641.928 -1.27161 1.12979 0
M  V30 6717 O 643.113 -1.33279 1.41246 0
M  V30 6718 C 640.243 -2.06398 2.79315 0
M  V30 6719 C 639.197 -1.74673 3.90735 0
M  V30 6720 C 638.523 -3.06482 4.38147 0
M  V30 6721 C 639.823 -1.0089 5.12463 0
M  V30 6722 H 641.517 -0.303032 2.97863 0
M  V30 6723 H 639.063 -0.144314 1.43275 0
M  V30 6724 H 641.016 -2.72885 3.2111 0
M  V30 6725 H 639.74 -2.60118 1.975 0
M  V30 6726 H 638.399 -1.10572 3.49527 0
M  V30 6727 H 638.047 -3.58152 3.5318 0
M  V30 6728 H 637.747 -2.86025 5.13287 0
M  V30 6729 H 639.271 -3.74073 4.82599 0
M  V30 6730 H 640.685 -1.57546 5.51228 0
M  V30 6731 H 639.082 -0.905006 5.93237 0
M  V30 6732 H 640.152 0.00297335 4.849 0
M  V30 6733 N 641.495 -1.56914 -0.146875 0
M  V30 6734 C 642.772 -1.74273 -0.888165 0
M  V30 6735 C 643.152 -0.69496 -1.99333 0
M  V30 6736 O 642.5 0.286093 -2.26702 0
M  V30 6737 C 642.71 -3.18336 -1.43051 0
M  V30 6738 C 644.058 -3.80024 -1.89387 0
M  V30 6739 O 645.082 -3.21765 -1.52792 0
M  V30 6740 O 643.941 -4.82367 -2.56874 0
M  V30 6741 H 641.035 -0.712565 -0.419738 0
M  V30 6742 H 643.581 -1.6918 -0.132791 0
M  V30 6743 H 642.353 -3.86092 -0.636274 0
M  V30 6744 H 641.976 -3.27854 -2.24938 0
M  V30 6745 N 642.974 0.416227 -1.52004 0
M  V30 6746 C 643.922 1.5272 -1.7544 0
M  V30 6747 C 644.916 1.57596 -0.621289 0
M  V30 6748 O 646.122 1.61087 -0.803172 0
M  V30 6749 H 642.497 0.507772 -0.554682 0
M  V30 6750 H 644.468 1.30136 -2.68528 0
M  V30 6751 C 643.217 2.90165 -1.91571 0
M  V30 6752 H 642.54 2.87154 -2.78178 0
M  V30 6753 H 643.98 3.67211 -2.11972 0
M  V30 6754 C 642.439 3.29947 -0.680942 0
M  V30 6755 O 642.969 4.01403 0.154527 0
M  V30 6756 N 641.175 2.8593 -0.518894 0
M  V30 6757 H 640.722 2.2795 -1.19986 0
M  V30 6758 H 640.68 3.12907 0.305985 0
M  V30 6759 N 644.452 1.42507 0.673017 0
M  V30 6760 C 645.701 1.42364 1.42883 0
M  V30 6761 C 646.014 0.0441598 1.9555 0
M  V30 6762 O 647.22 -0.0798679 2.71382 0
M  V30 6763 C 645.676 2.5043 2.58482 0
M  V30 6764 C 645.284 3.94392 2.12506 0
M  V30 6765 C 647.028 2.59455 3.35981 0
M  V30 6766 C 644.935 4.93964 3.25198 0
M  V30 6767 H 643.865 0.52951 0.536782 0
M  V30 6768 H 646.516 1.68422 0.728448 0
M  V30 6769 H 644.898 2.1754 3.30896 0
M  V30 6770 H 646.072 4.36645 1.47233 0
M  V30 6771 H 644.387 3.89233 1.4794 0
M  V30 6772 H 646.984 3.31025 4.19912 0
M  V30 6773 H 647.327 1.63869 3.82691 0
M  V30 6774 H 647.86 2.91549 2.70637 0
M  V30 6775 H 644.599 5.91034 2.83477 0
M  V30 6776 H 644.119 4.56341 3.89247 0
M  V30 6777 H 645.798 5.15763 3.90637 0
M  V30 6778 N 645.93 -0.909495 1.28709 0
M  V30 6779 C 647.155 -1.69801 1.1909 0
M  V30 6780 C 647.58 -1.86479 -0.246388 0
M  V30 6781 O 646.938 -1.37802 -1.17815 0
M  V30 6782 C 646.986 -3.06543 1.89904 0
M  V30 6783 O 646.09 -3.94268 1.2094 0
M  V30 6784 H 645.431 -0.519783 0.413185 0
M  V30 6785 H 647.961 -1.13689 1.70106 0
M  V30 6786 H 647.971 -3.56748 1.97977 0
M  V30 6787 H 646.646 -2.93722 2.94449 0
M  V30 6788 H 645.223 -3.52702 1.2106 0
M  V30 6789 N 647.408 -1.11026 -1.11852 0
M  V30 6790 C 648.638 -0.877544 -1.87037 0
M  V30 6791 C 649.046 0.575925 -1.80221 0
M  V30 6792 O 648.389 1.40916 -1.17849 0
M  V30 6793 C 648.451 -1.25529 -3.36872 0
M  V30 6794 C 648.115 -2.71704 -3.67459 0
M  V30 6795 C 649.112 -3.69931 -3.65304 0
M  V30 6796 C 646.797 -3.08243 -3.966 0
M  V30 6797 C 648.791 -5.02717 -3.9186 0
M  V30 6798 C 646.478 -4.41215 -4.22815 0
M  V30 6799 C 647.476 -5.38262 -4.20432 0
M  V30 6800 O 647.164 -6.68839 -4.45992 0
M  V30 6801 H 646.896 -0.314374 -0.598452 0
M  V30 6802 H 649.45 -1.48015 -1.42411 0
M  V30 6803 H 647.68 -0.595808 -3.82082 0
M  V30 6804 H 649.369 -0.999064 -3.93413 0
M  V30 6805 H 650.135 -3.43047 -3.42846 0
M  V30 6806 H 646.014 -2.33326 -3.97593 0
M  V30 6807 H 649.558 -5.78456 -3.89916 0
M  V30 6808 H 645.455 -4.67835 -4.44748 0
M  V30 6809 H 646.223 -6.74563 -4.63581 0
M  V30 6810 N 648.886 1.2938 -0.899927 0
M  V30 6811 C 650.302 1.48052 -0.596059 0
M  V30 6812 C 650.502 1.82114 0.862372 0
M  V30 6813 O 649.558 1.91774 1.64253 0
M  V30 6814 C 650.871 2.59332 -1.52208 0
M  V30 6815 C 652.419 2.73208 -1.5273 0
M  V30 6816 C 652.894 3.87617 -2.43961 0
M  V30 6817 N 654.385 3.9495 -2.42009 0
M  V30 6818 C 655.12 4.82824 -3.09303 0
M  V30 6819 N 654.616 5.75387 -3.85877 0
M  V30 6820 N 656.409 4.76317 -2.98459 0
M  V30 6821 H 648.56 1.05546 -1.8432 0
M  V30 6822 H 650.823 0.524314 -0.78981 0
M  V30 6823 H 650.529 2.41029 -2.56121 0
M  V30 6824 H 650.403 3.56139 -1.24278 0
M  V30 6825 H 652.79 2.90908 -0.495614 0
M  V30 6826 H 652.871 1.76975 -1.84698 0
M  V30 6827 H 652.515 3.70672 -3.47224 0
M  V30 6828 H 652.445 4.83218 -2.09303 0
M  V30 6829 H 654.936 3.28744 -1.86375 0
M  V30 6830 H 655.249 6.39235 -4.34279 0
M  V30 6831 H 653.594 5.75272 -3.89984 0
M  V30 6832 H 656.785 4.0299 -2.38152 0
M  V30 6833 H 656.958 5.44589 -3.51179 0
M  V30 6834 N 650.364 0.662433 1.43002 0
M  V30 6835 C 651.78 0.330835 1.56133 0
M  V30 6836 C 651.98 -1.16454 1.64441 0
M  V30 6837 O 651.036 -1.94964 1.60453 0
M  V30 6838 C 652.349 1.05029 2.81761 0
M  V30 6839 C 653.897 1.03142 2.95518 0
M  V30 6840 C 654.372 1.73196 4.2399 0
M  V30 6841 N 655.863 1.70004 4.30875 0
M  V30 6842 C 656.598 2.21074 5.29069 0
M  V30 6843 N 656.094 2.80473 6.33488 0
M  V30 6844 N 657.887 2.1152 5.20784 0
M  V30 6845 H 650.038 1.63272 1.35853 0
M  V30 6846 H 652.301 0.687149 0.653092 0
M  V30 6847 H 652.007 2.10542 2.81718 0
M  V30 6848 H 651.881 0.607664 3.72273 0
M  V30 6849 H 654.268 -0.0153339 2.95096 0
M  V30 6850 H 654.349 1.51282 2.0627 0
M  V30 6851 H 653.993 2.77833 4.25172 0
M  V30 6852 H 653.923 1.22515 5.1215 0
M  V30 6853 H 656.414 1.26667 3.56039 0
M  V30 6854 H 656.727 3.17094 7.04749 0
M  V30 6855 H 655.072 2.84538 6.34085 0
M  V30 6856 H 658.263 1.64814 4.38126 0
M  V30 6857 H 658.436 2.51629 5.97149 0
M  V30 6858 N 651.842 -1.52309 0.404946 0
M  V30 6859 C 652.752 -2.30634 -0.429555 0
M  V30 6860 C 653.768 -1.38187 -1.05737 0
M  V30 6861 O 654.944 -1.71261 -1.05979 0
M  V30 6862 C 652.009 -3.10947 -1.53339 0
M  V30 6863 C 651.07 -4.19126 -0.929065 0
M  V30 6864 C 650.303 -4.95601 -1.9803 0
M  V30 6865 O 650.526 -4.72331 -3.1978 0
M  V30 6866 O 649.46 -5.80551 -1.58886 0
M  V30 6867 H 653.286 -3.0298 0.208963 0
M  V30 6868 H 650.871 -1.4845 0.168255 0
M  V30 6869 H 652.753 -3.60974 -2.1743 0
M  V30 6870 H 651.428 -2.41399 -2.15658 0
M  V30 6871 H 650.335 -3.73257 -0.250982 0
M  V30 6872 H 651.668 -4.90955 -0.349855 0
M  V30 6873 N 653.32 -0.135238 -1.57019 0
M  V30 6874 C 654.545 0.529343 -2.00531 0
M  V30 6875 C 654.97 1.58391 -1.01459 0
M  V30 6876 O 654.328 1.81296 0.0113986 0
M  V30 6877 C 654.376 1.11748 -3.42848 0
M  V30 6878 O 653.48 2.23267 -3.46736 0
M  V30 6879 H 652.821 0.130669 -0.651016 0
M  V30 6880 H 655.351 -0.228503 -2.0332 0
M  V30 6881 H 655.361 1.44905 -3.81401 0
M  V30 6882 H 654.036 0.345147 -4.14465 0
M  V30 6883 H 652.613 1.91428 -3.20015 0
M  V30 6884 N 654.798 1.5699 0.138552 0
M  V30 6885 C 655.761 1.97984 1.15478 0
M  V30 6886 C 656.761 0.867416 1.35398 0
M  V30 6887 O 657.951 1.13387 1.32246 0
M  V30 6888 C 655.083 2.3031 2.51337 0
M  V30 6889 H 656.276 2.88953 0.802896 0
M  V30 6890 H 653.829 1.51555 0.382189 0
M  V30 6891 H 654.564 1.42159 2.91481 0
M  V30 6892 H 654.349 3.11425 2.38237 0
M  V30 6893 H 655.839 2.62834 3.24512 0
M  V30 6894 N 656.276 -0.40816 1.52223 0
M  V30 6895 C 657.525 -1.15212 1.65557 0
M  V30 6896 C 657.838 -1.9163 0.392096 0
M  V30 6897 O 659.044 -2.68458 0.405256 0
M  V30 6898 C 657.5 -2.09691 2.92502 0
M  V30 6899 C 657.108 -1.38785 4.25961 0
M  V30 6900 C 658.852 -2.8434 3.152 0
M  V30 6901 C 656.759 -2.31919 5.44029 0
M  V30 6902 H 655.689 -0.433776 0.616729 0
M  V30 6903 H 658.34 -0.4165 1.78711 0
M  V30 6904 H 656.722 -2.8681 2.7305 0
M  V30 6905 H 657.896 -0.670248 4.55899 0
M  V30 6906 H 656.211 -0.761741 4.09373 0
M  V30 6907 H 658.808 -3.54166 4.00587 0
M  V30 6908 H 659.151 -3.47344 2.29473 0
M  V30 6909 H 659.684 -2.14321 3.35129 0
M  V30 6910 H 656.423 -1.7356 6.32105 0
M  V30 6911 H 655.943 -3.0165 5.18428 0
M  V30 6912 H 657.622 -2.92424 5.77146 0
M  V30 6913 O 657.793 -1.51699 -0.554045 0
M  V30 6914 H 658.484 -1.51323 -1.20918 0
M  V30 END ATOM
M  V30 BEGIN BOND
M  V30 END BOND
M  V30 END CTAB
M  END
$$$$
