drugbank_target|P48047 ATP synthase subunit O, mitochondrial (DB11638)
 OpenBabel12092121083D

  0  0  0     0  0            999 V3000
M  V30 BEGIN CTAB
M  V30 COUNTS 3375 3395 0 0 0
M  V30 BEGIN ATOM
M  V30 1 H -0.908 1.98254 -0.117106 0
M  V30 2 N 0 1.576 0 0
M  V30 3 C 0.933 2.03868 1.02534 0
M  V30 4 C 1.911 0.928543 1.3348 0
M  V30 5 O 3.095 1.19667 1.45644 0
M  V30 6 C 0.222 2.43627 2.35294 0
M  V30 7 C -0.732 3.65373 2.2001 0
M  V30 8 S 0.101 5.13292 1.52614 0
M  V30 9 C 1.257 5.56322 2.86805 0
M  V30 10 H 1.49 2.90518 0.631377 0
M  V30 11 H -0.977 1.52953 0.210867 0
M  V30 12 H 0.981 2.67203 3.11629 0
M  V30 13 H -0.358 1.57376 2.7183 0
M  V30 14 H -1.165 3.90944 3.18086 0
M  V30 15 H -1.563 3.418 1.51819 0
M  V30 16 H 0.729 5.58782 3.83104 0
M  V30 17 H 1.672 6.56266 2.65933 0
M  V30 18 H 2.08 4.83886 2.90714 0
M  V30 19 N 1.4781 -0.272755 1.55222 0
M  V30 20 C 2.4411 -1.32041 1.87344 0
M  V30 21 C 3.4411 -1.42342 0.74803 0
M  V30 22 O 4.6311 -1.41488 1.0162 0
M  V30 23 C 1.7631 -2.70173 2.07893 0
M  V30 24 H 2.9561 -1.04789 2.80997 0
M  V30 25 H 0.5091 -0.51083 1.47717 0
M  V30 26 H 1.2441 -3.02605 1.16622 0
M  V30 27 H 1.0291 -2.64082 2.89833 0
M  V30 28 H 2.5191 -3.45869 2.34017 0
M  V30 29 N 2.9562 -1.48159 -0.537278 0
M  V30 30 C 3.9192 -1.61665 -1.62472 0
M  V30 31 C 4.9192 -0.490395 -1.5314 0
M  V30 32 O 6.1092 -0.755998 -1.5694 0
M  V30 33 C 3.2412 -1.57997 -3.02076 0
M  V30 34 H 4.4342 -2.58621 -1.51839 0
M  V30 35 H 1.9872 -1.36647 -0.758771 0
M  V30 36 H 2.7222 -0.624913 -3.18222 0
M  V30 37 H 2.5072 -2.39755 -3.10258 0
M  V30 38 H 3.9972 -1.70627 -3.81151 0
M  V30 39 N 4.4343 0.785586 -1.36625 0
M  V30 40 C 5.8453 1.36101 -1.27803 0
M  V30 41 C 6.1963 1.96035 0.0804875 0
M  V30 42 O 5.3213 1.92834 0.982042 0
M  V30 43 C 5.9163 2.47442 -2.31426 0
M  V30 44 C 4.4753 3.00789 -2.26281 0
M  V30 45 C 3.6223 1.73896 -2.15999 0
M  V30 46 H 6.5733 0.586928 -1.47448 0
M  V30 47 H 6.5943 3.2656 -1.95291 0
M  V30 48 H 6.1063 2.03791 -3.30289 0
M  V30 49 H 4.2073 3.48851 -1.30896 0
M  V30 50 H 4.3203 3.57343 -3.19128 0
M  V30 51 H 2.6843 1.9628 -1.62316 0
M  V30 52 H 3.4673 1.32368 -3.16755 0
M  V30 53 N 5.9124 1.20967 1.01018 0
M  V30 54 C 6.8754 0.965918 2.07853 0
M  V30 55 C 7.8754 -0.0610545 1.60684 0
M  V30 56 O 9.0654 0.175681 1.73312 0
M  V30 57 C 6.1974 0.455513 3.37843 0
M  V30 58 H 7.3904 1.91365 2.3091 0
M  V30 59 H 4.9434 1.02594 1.17916 0
M  V30 60 H 5.6784 -0.497381 3.20463 0
M  V30 61 H 5.4634 1.19622 3.73407 0
M  V30 62 H 6.9534 0.304667 4.16487 0
M  V30 63 N 7.3905 -1.2043 1.01659 0
M  V30 64 C 8.6365 -1.90079 0.706963 0
M  V30 65 C 8.9695 -1.78648 -0.761474 0
M  V30 66 O 8.2445 -1.17069 -1.55323 0
M  V30 67 C 8.5275 -3.41469 1.14327 0
M  V30 68 C 8.3805 -3.61833 2.67201 0
M  V30 69 C 9.6995 -4.34261 0.714529 0
M  V30 70 H 6.8185 -0.690254 0.2583 0
M  V30 71 H 9.4605 -1.41826 1.26433 0
M  V30 72 H 7.6105 -3.82696 0.669056 0
M  V30 73 H 9.2825 -3.2986 3.22475 0
M  V30 74 H 7.5255 -3.05304 3.08175 0
M  V30 75 H 8.1965 -4.67955 2.92783 0
M  V30 76 H 10.6725 -4.00682 1.12221 0
M  V30 77 H 9.5485 -5.38806 1.04784 0
M  V30 78 H 9.8095 -4.40431 -0.383799 0
M  V30 79 N 8.8686 -0.792821 -1.36206 0
M  V30 80 C 10.0936 -0.377701 -2.03932 0
M  V30 81 C 10.5186 0.998947 -1.59382 0
M  V30 82 O 9.8766 1.64421 -0.763903 0
M  V30 83 C 9.9246 -0.453635 -3.57735 0
M  V30 84 O 9.0286 0.538151 -4.08874 0
M  V30 85 H 8.3696 -0.159855 -0.644471 0
M  V30 86 H 10.8996 -1.07488 -1.7409 0
M  V30 87 H 10.9096 -0.318464 -4.06755 0
M  V30 88 H 9.5846 -1.45784 -3.89512 0
M  V30 89 H 8.1616 0.364359 -3.71116 0
M  V30 90 N 10.3467 1.47872 -0.545128 0
M  V30 91 C 11.5947 2.02093 -0.016553 0
M  V30 92 C 11.9157 1.42305 1.3332 0
M  V30 93 O 11.1857 0.593853 1.86682 0
M  V30 94 H 9.7657 0.746993 -0.00313038 0
M  V30 95 H 12.4277 1.81414 -0.712397 0
M  V30 96 H 11.5237 3.11996 0.0805422 0
M  V30 97 N 11.8248 0.280983 1.55075 0
M  V30 98 C 12.7548 -0.597469 2.25727 0
M  V30 99 C 13.7358 -1.15417 1.24952 0
M  V30 100 O 14.9208 -1.18722 1.53684 0
M  V30 101 C 12.0508 -1.7789 2.98283 0
M  V30 102 C 11.0048 -1.35347 4.06036 0
M  V30 103 C 10.3308 -2.61846 4.66198 0
M  V30 104 C 11.6308 -0.499354 5.19907 0
M  V30 105 H 13.3248 -0.00824265 2.99399 0
M  V30 106 H 10.8708 -0.0025244 1.44 0
M  V30 107 H 12.8238 -2.39937 3.46422 0
M  V30 108 H 11.5478 -2.39405 2.22155 0
M  V30 109 H 10.2068 -0.756156 3.58717 0
M  V30 110 H 9.8548 -3.21632 3.86732 0
M  V30 111 H 9.5548 -2.3409 5.38958 0
M  V30 112 H 11.0788 -3.24732 5.1709 0
M  V30 113 H 12.4928 -1.02498 5.64063 0
M  V30 114 H 10.8898 -0.316424 5.99265 0
M  V30 115 H 11.9598 0.480459 4.82514 0
M  V30 116 N 13.3029 -1.57598 0.00835791 0
M  V30 117 C 14.5279 -1.95617 -0.689103 0
M  V30 118 C 14.9529 -0.883753 -1.66046 0
M  V30 119 O 14.3109 0.157352 -1.80616 0
M  V30 120 C 14.3589 -3.32736 -1.38994 0
M  V30 121 O 13.4629 -3.27631 -2.50463 0
M  V30 122 H 12.8039 -0.638379 -0.182668 0
M  V30 123 H 15.3339 -2.045 0.064036 0
M  V30 124 H 15.3439 -3.68494 -1.75147 0
M  V30 125 H 14.0189 -4.1034 -0.677778 0
M  V30 126 H 12.5959 -3.03561 -2.16576 0
M  V30 127 N 14.781 0.264519 -1.55364 0
M  V30 128 C 16.197 0.61215 -1.47394 0
M  V30 129 C 16.397 1.89134 -0.695018 0
M  V30 130 O 15.453 2.51563 -0.217275 0
M  V30 131 C 16.766 0.731235 -2.91674 0
M  V30 132 C 18.314 0.82473 -3.01939 0
M  V30 133 C 18.789 0.975522 -4.4749 0
M  V30 134 N 20.28 1.04083 -4.51354 0
M  V30 135 C 21.015 1.17646 -5.61201 0
M  V30 136 N 20.511 1.27874 -6.80896 0
M  V30 137 N 22.304 1.20823 -5.48961 0
M  V30 138 H 14.455 -0.575456 -2.04456 0
M  V30 139 H 16.718 -0.196099 -0.927496 0
M  V30 140 H 16.424 -0.138392 -3.51428 0
M  V30 141 H 16.298 1.60883 -3.41169 0
M  V30 142 H 18.685 1.68482 -2.42276 0
M  V30 143 H 18.766 -0.0776479 -2.55682 0
M  V30 144 H 18.41 0.120058 -5.07758 0
M  V30 145 H 18.34 1.89268 -4.91412 0
M  V30 146 H 20.831 0.973846 -3.65136 0
M  V30 147 H 21.144 1.38081 -7.60364 0
M  V30 148 H 19.489 1.24863 -6.83692 0
M  V30 149 H 22.68 1.12469 -4.54388 0
M  V30 150 H 22.853 1.31049 -6.3461 0
M  V30 151 N 16.2591 1.48442 0.529413 0
M  V30 152 C 17.1911 1.59095 1.64989 0
M  V30 153 C 18.2041 0.475212 1.5571 0
M  V30 154 O 19.3931 0.746081 1.6216 0
M  V30 155 C 16.4931 1.50518 3.0364 0
M  V30 156 C 15.6661 2.77142 3.38395 0
M  V30 157 C 14.7251 2.62012 4.56329 0
M  V30 158 O 13.7511 3.35898 4.59522 0
M  V30 159 N 14.9531 1.71667 5.54536 0
M  V30 160 H 17.7181 2.55723 1.56287 0
M  V30 161 H 15.2791 1.45173 0.716697 0
M  V30 162 H 17.2711 1.38091 3.80412 0
M  V30 163 H 15.8411 0.618627 3.06418 0
M  V30 164 H 15.0611 3.0413 2.50796 0
M  V30 165 H 16.3491 3.61146 3.58401 0
M  V30 166 H 15.7471 1.10841 5.54735 0
M  V30 167 H 14.3041 1.65178 6.30523 0
M  V30 168 N 17.7372 -0.778329 1.37039 0
M  V30 169 C 18.9832 -1.53892 1.32079 0
M  V30 170 C 19.3162 -1.9396 -0.0965386 0
M  V30 171 O 18.5912 -1.63568 -1.05242 0
M  V30 172 C 18.8742 -2.80847 2.25382 0
M  V30 173 C 18.7272 -2.47076 3.75864 0
M  V30 174 C 20.0462 -3.82741 2.1725 0
M  V30 175 H 17.1652 -0.558303 0.48111 0
M  V30 176 H 19.8072 -0.893397 1.67685 0
M  V30 177 H 17.9572 -3.35931 1.95148 0
M  V30 178 H 19.6292 -1.97957 4.16666 0
M  V30 179 H 17.8722 -1.79863 3.94755 0
M  V30 180 H 18.5432 -3.37798 4.36574 0
M  V30 181 H 21.0192 -3.37133 2.43887 0
M  V30 182 H 19.8952 -4.69303 2.84686 0
M  V30 183 H 20.1562 -4.2652 1.16331 0
M  V30 184 N 19.2153 -1.21501 -1.00376 0
M  V30 185 C 20.6313 -0.972629 -1.26539 0
M  V30 186 C 20.8313 0.340257 -1.98606 0
M  V30 187 O 19.8873 1.06561 -2.28913 0
M  V30 188 C 21.2003 -2.16404 -2.08781 0
M  V30 189 C 22.7483 -2.20643 -2.22004 0
M  V30 190 C 23.2233 -3.39306 -3.07629 0
M  V30 191 N 24.7143 -3.39401 -3.15217 0
M  V30 192 C 25.4493 -4.27867 -3.81729 0
M  V30 193 N 24.9453 -5.26533 -4.5026 0
M  V30 194 N 26.7383 -4.15672 -3.78382 0
M  V30 195 H 18.8893 -2.05929 -0.520281 0
M  V30 196 H 21.1523 -0.901803 -0.292328 0
M  V30 197 H 20.8583 -3.11554 -1.63178 0
M  V30 198 H 20.7323 -2.15567 -3.09533 0
M  V30 199 H 23.1193 -1.26048 -2.66825 0
M  V30 200 H 23.2003 -2.25523 -1.20718 0
M  V30 201 H 22.8443 -4.34195 -2.63509 0
M  V30 202 H 22.7743 -3.31665 -4.09031 0
M  V30 203 H 25.2653 -2.67997 -2.66432 0
M  V30 204 H 25.5783 -5.90337 -4.98721 0
M  V30 205 H 23.9233 -5.30457 -4.49044 0
M  V30 206 H 27.1143 -3.3785 -3.23998 0
M  V30 207 H 27.2873 -4.84825 -4.2994 0
M  V30 208 N 20.6934 1.19889 -1.02296 0
M  V30 209 C 21.9334 1.91125 -0.724602 0
M  V30 210 C 22.2974 1.77464 0.732835 0
M  V30 211 O 23.4984 2.43241 1.144 0
M  V30 212 C 21.7694 3.38187 -1.15604 0
M  V30 213 S 23.3284 4.27702 -0.980621 0
M  V30 214 H 20.1464 0.66018 -0.263976 0
M  V30 215 H 22.7484 1.44978 -1.31155 0
M  V30 216 H 21.4524 3.45653 -2.21251 0
M  V30 217 H 20.9834 3.89363 -0.562131 0
M  V30 218 H 22.9984 4.96073 0.112225 0
M  V30 219 N 22.1715 0.800033 1.35784 0
M  V30 220 C 23.4185 0.377342 1.98953 0
M  V30 221 C 23.7465 -1.05378 1.6348 0
M  V30 222 O 23.0015 -1.74459 0.886707 0
M  V30 223 C 23.3005 0.500276 3.53881 0
M  V30 224 C 22.9665 1.89375 4.09204 0
M  V30 225 C 21.6285 2.27499 4.24025 0
M  V30 226 C 23.9805 2.8057 4.39238 0
M  V30 227 C 21.3085 3.562 4.66195 0
M  V30 228 C 23.6605 4.0871 4.82844 0
M  V30 229 C 22.3245 4.46843 4.95871 0
M  V30 230 H 21.5945 0.138079 0.728021 0
M  V30 231 H 24.2415 1.01955 1.62103 0
M  V30 232 H 22.5465 -0.225405 3.91151 0
M  V30 233 H 24.2435 0.154097 4.00704 0
M  V30 234 H 20.8335 1.58753 3.98115 0
M  V30 235 H 25.0175 2.52367 4.27346 0
M  V30 236 H 20.2735 3.85602 4.74469 0
M  V30 237 H 24.4475 4.79481 5.05046 0
M  V30 238 H 22.0745 5.46623 5.28306 0
M  V30 239 N 23.6496 -1.47581 0.552962 0
M  V30 240 C 24.8746 -2.07378 0.0300593 0
M  V30 241 C 25.2996 -1.40355 -1.25229 0
M  V30 242 O 24.6576 -0.477099 -1.7491 0
M  V30 243 C 24.7056 -3.60274 -0.153231 0
M  V30 244 O 23.8096 -3.94041 -1.21678 0
M  V30 245 H 23.1506 -0.662158 0.0494182 0
M  V30 246 H 25.6806 -1.89662 0.767434 0
M  V30 247 H 25.6906 -4.0633 -0.368761 0
M  V30 248 H 24.3656 -4.08455 0.783397 0
M  V30 249 H 22.9426 -3.59735 -0.982079 0
M  V30 250 N 25.1277 -0.289203 -1.54924 0
M  V30 251 C 26.3557 0.326463 -2.04308 0
M  V30 252 C 26.7707 1.48413 -1.16701 0
M  V30 253 O 26.1277 1.81507 -0.190087 0
M  V30 254 C 26.1787 0.794014 -3.52672 0
M  V30 255 O 25.8997 -0.317564 -4.36948 0
M  V30 256 C 27.4007 1.47605 -4.18004 0
M  V30 257 H 24.6207 0.0726272 -0.667058 0
M  V30 258 H 27.1647 -0.425401 -2.00026 0
M  V30 259 H 25.3197 1.49593 -3.57352 0
M  V30 260 H 25.7337 0.0443186 -5.24481 0
M  V30 261 H 27.2077 1.75447 -5.23376 0
M  V30 262 H 27.6847 2.41224 -3.67025 0
M  V30 263 H 28.2907 0.81762 -4.17367 0
M  V30 264 N 26.6058 1.57591 -0.0167156 0
M  V30 265 C 27.8308 1.9598 0.67872 0
M  V30 266 C 28.2558 0.892546 1.65575 0
M  V30 267 O 27.6138 -0.147772 1.80697 0
M  V30 268 C 27.6618 3.33468 1.37227 0
M  V30 269 O 26.7658 3.28954 2.48722 0
M  V30 270 H 26.1068 0.639339 0.17928 0
M  V30 271 H 28.6368 2.04463 -0.0748802 0
M  V30 272 H 28.6468 3.69417 1.7319 0
M  V30 273 H 27.3218 4.10694 0.656007 0
M  V30 274 H 25.8988 3.04705 2.14963 0
M  V30 275 N 28.0839 -0.256276 1.55502 0
M  V30 276 C 29.3299 -0.987079 1.77157 0
M  V30 277 C 29.6629 -1.85327 0.580315 0
M  V30 278 O 28.9379 -1.89874 -0.421686 0
M  V30 279 C 29.2209 -1.85553 3.08613 0
M  V30 280 C 29.0739 -1.01816 4.38125 0
M  V30 281 C 30.3929 -2.8397 3.36228 0
M  V30 282 H 27.5119 -0.357428 0.644526 0
M  V30 283 H 30.1539 -0.258239 1.88237 0
M  V30 284 H 28.3039 -2.47695 2.99298 0
M  V30 285 H 29.9759 -0.416159 4.59419 0
M  V30 286 H 28.2189 -0.322178 4.32602 0
M  V30 287 H 28.8899 -1.65939 5.26468 0
M  V30 288 H 31.3659 -2.31964 3.45445 0
M  V30 289 H 30.2419 -3.41864 4.29442 0
M  V30 290 H 30.5029 -3.59955 2.56681 0
M  V30 291 N 29.562 -1.4872 -0.521534 0
M  V30 292 C 30.808 -1.574 -1.27879 0
M  V30 293 C 31.141 -0.250817 -1.92573 0
M  V30 294 O 30.416 0.743934 -1.79711 0
M  V30 295 C 30.699 -2.71843 -2.36164 0
M  V30 296 C 30.552 -4.13893 -1.76105 0
M  V30 297 C 31.871 -2.82008 -3.37875 0
M  V30 298 H 28.99 -0.572941 -0.463581 0
M  V30 299 H 31.632 -1.80927 -0.580119 0
M  V30 300 H 29.782 -2.51914 -2.95756 0
M  V30 301 H 31.454 -4.45284 -1.20499 0
M  V30 302 H 29.697 -4.20498 -1.06601 0
M  V30 303 H 30.368 -4.89804 -2.5455 0
M  V30 304 H 32.844 -3.00086 -2.88249 0
M  V30 305 H 31.72 -3.63796 -4.11028 0
M  V30 306 H 31.981 -1.90511 -3.98946 0
M  V30 307 N 31.0401 0.771051 -1.3745 0
M  V30 308 C 32.4561 1.07171 -1.18265 0
M  V30 309 C 32.6561 2.01491 -0.019287 0
M  V30 310 O 31.7121 2.44244 0.640408 0
M  V30 311 C 33.0251 1.66854 -2.50161 0
M  V30 312 C 34.5731 1.79109 -2.56689 0
M  V30 313 C 35.0481 2.42205 -3.88717 0
M  V30 314 N 36.5391 2.49655 -3.90162 0
M  V30 315 C 37.2741 2.9933 -4.8907 0
M  V30 316 N 36.7701 3.49172 -5.98374 0
M  V30 317 N 38.5631 2.9821 -4.76474 0
M  V30 318 H 30.7141 0.144796 -2.11906 0
M  V30 319 H 32.9771 0.126863 -0.939473 0
M  V30 320 H 32.6831 1.05017 -3.35655 0
M  V30 321 H 32.5571 2.6614 -2.673 0
M  V30 322 H 34.9441 2.40077 -1.71601 0
M  V30 323 H 35.0251 0.785757 -2.43433 0
M  V30 324 H 34.6691 1.81875 -4.74219 0
M  V30 325 H 34.5991 3.43345 -3.99276 0
M  V30 326 H 37.0901 2.14383 -3.11205 0
M  V30 327 H 37.4031 3.8548 -6.69795 0
M  V30 328 H 35.7481 3.47275 -6.02018 0
M  V30 329 H 38.9391 2.58572 -3.90203 0
M  V30 330 H 39.1121 3.36613 -5.53711 0
M  V30 331 N 32.5182 1.22032 0.997298 0
M  V30 332 C 33.9292 1.0397 1.55071 0
M  V30 333 C 34.2802 -0.398192 1.92117 0
M  V30 334 O 33.4052 -1.28254 1.74298 0
M  V30 335 C 34.0002 1.88109 2.81781 0
M  V30 336 C 32.5592 1.74357 3.33581 0
M  V30 337 C 31.7062 1.84846 2.06706 0
M  V30 338 H 34.6572 1.35941 0.818883 0
M  V30 339 H 34.6782 1.39589 3.53971 0
M  V30 340 H 34.1902 2.92754 2.54787 0
M  V30 341 H 32.2912 0.72427 3.65493 0
M  V30 342 H 32.4042 2.56772 4.04481 0
M  V30 343 H 30.7682 1.28238 2.20062 0
M  V30 344 H 31.5512 2.91014 1.82114 0
M  V30 345 N 33.9963 -1.19345 1.0293 0
M  V30 346 C 35.2433 -1.89038 0.726008 0
M  V30 347 C 35.5713 -1.79649 -0.745427 0
M  V30 348 O 34.8263 -1.18354 -1.55855 0
M  V30 349 C 35.1253 -3.39292 1.12319 0
M  V30 350 C 34.7913 -3.68885 2.59297 0
M  V30 351 C 33.4533 -3.76671 2.99453 0
M  V30 352 C 35.8053 -3.82178 3.54386 0
M  V30 353 C 33.1333 -3.9522 4.33611 0
M  V30 354 C 35.4853 -4.0224 4.88248 0
M  V30 355 C 34.1493 -4.08259 5.28092 0
M  V30 356 H 33.4193 -0.691739 0.265665 0
M  V30 357 H 36.0663 -1.41328 1.29223 0
M  V30 358 H 34.3713 -3.88903 0.475584 0
M  V30 359 H 36.0683 -3.91536 0.866037 0
M  V30 360 H 32.6583 -3.63433 2.27189 0
M  V30 361 H 36.8423 -3.75505 3.24514 0
M  V30 362 H 32.0983 -3.98119 4.64016 0
M  V30 363 H 36.2723 -4.11468 5.61843 0
M  V30 364 H 33.8993 -4.22384 6.32057 0
M  V30 365 N 35.4744 -0.807222 -1.35358 0
M  V30 366 C 36.4374 -0.223665 -2.28106 0
M  V30 367 C 37.4374 0.589354 -1.4961 0
M  V30 368 O 38.6274 0.407745 -1.69361 0
M  V30 369 C 35.7594 0.688149 -3.33882 0
M  V30 370 H 36.9524 -1.04169 -2.81227 0
M  V30 371 H 34.5054 -0.577921 -1.45223 0
M  V30 372 H 35.2404 1.52984 -2.85948 0
M  V30 373 H 35.0254 0.10687 -3.91954 0
M  V30 374 H 36.5154 1.09075 -4.03104 0
M  V30 375 N 36.9525 1.47285 -0.560781 0
M  V30 376 C 37.8995 2.30058 0.18491 0
M  V30 377 C 38.8695 1.39281 0.904986 0
M  V30 378 O 40.0545 1.68241 0.899979 0
M  V30 379 C 37.1945 3.23317 1.20666 0
M  V30 380 C 36.3075 4.29186 0.492285 0
M  V30 381 C 35.4425 5.09592 1.49964 0
M  V30 382 C 34.4815 6.07232 0.770439 0
M  V30 383 N 33.6185 6.80584 1.72479 0
M  V30 384 H 38.4585 2.93302 -0.527048 0
M  V30 385 H 35.9955 1.44568 -0.271738 0
M  V30 386 H 37.9535 3.75811 1.81168 0
M  V30 387 H 36.5835 2.61929 1.88661 0
M  V30 388 H 35.6355 3.7972 -0.227333 0
M  V30 389 H 36.9475 4.98738 -0.0787929 0
M  V30 390 H 36.1015 5.66254 2.17809 0
M  V30 391 H 34.8405 4.3995 2.10464 0
M  V30 392 H 33.8455 5.49745 0.0780846 0
M  V30 393 H 35.0705 6.78884 0.171134 0
M  V30 394 H 33.0165 6.1367 2.3183 0
M  V30 395 H 32.9335 7.46319 1.20596 0
M  V30 396 H 34.2015 7.41818 2.39428 0
M  V30 397 N 38.4306 0.297415 1.54768 0
M  V30 398 C 39.3606 -0.573494 2.26348 0
M  V30 399 C 40.3416 -1.14085 1.26169 0
M  V30 400 O 41.5266 -1.17086 1.54934 0
M  V30 401 C 38.6566 -1.74716 3.00153 0
M  V30 402 C 37.6106 -1.31032 4.07449 0
M  V30 403 C 36.9366 -2.56887 4.68949 0
M  V30 404 C 38.2366 -0.444183 5.20408 0
M  V30 405 H 39.9306 0.0235131 2.99391 0
M  V30 406 H 37.4766 0.0127488 1.43994 0
M  V30 407 H 39.4296 -2.3625 3.48947 0
M  V30 408 H 38.1536 -2.37035 2.24682 0
M  V30 409 H 36.8126 -0.718066 3.59499 0
M  V30 410 H 36.4606 -3.17512 3.90122 0
M  V30 411 H 36.1606 -2.2836 5.41411 0
M  V30 412 H 37.6846 -3.19229 5.20505 0
M  V30 413 H 39.0986 -0.9651 5.65118 0
M  V30 414 H 37.4956 -0.252846 5.99567 0
M  V30 415 H 38.5656 0.531609 4.81977 0
M  V30 416 N 39.9087 -1.5758 0.0250728 0
M  V30 417 C 41.1547 -1.91917 -0.655413 0
M  V30 418 C 41.4877 -0.901433 -1.72011 0
M  V30 419 O 40.7627 0.0764069 -1.9435 0
M  V30 420 C 41.0457 -3.36751 -1.27558 0
M  V30 421 C 40.8987 -4.49258 -0.220719 0
M  V30 422 C 42.2177 -3.81469 -2.19475 0
M  V30 423 H 39.3367 -0.697925 -0.23679 0
M  V30 424 H 41.9787 -1.89825 0.0815036 0
M  V30 425 H 40.1287 -3.38664 -1.90365 0
M  V30 426 H 41.8007 -4.59478 0.409601 0
M  V30 427 H 40.0437 -4.31415 0.454264 0
M  V30 428 H 40.7147 -5.47618 -0.694175 0
M  V30 429 H 43.1907 -3.81266 -1.66659 0
M  V30 430 H 42.0667 -4.83512 -2.59822 0
M  V30 431 H 42.3277 -3.16744 -3.08424 0
M  V30 432 N 41.3868 0.248026 -1.55636 0
M  V30 433 C 42.8028 0.596483 -1.48035 0
M  V30 434 C 43.0028 1.88386 -0.715039 0
M  V30 435 O 42.0588 2.51319 -0.243944 0
M  V30 436 C 43.3718 0.700258 -2.92433 0
M  V30 437 C 44.9198 0.792659 -3.02797 0
M  V30 438 C 45.3948 0.928005 -4.485 0
M  V30 439 N 46.8858 0.992903 -4.52433 0
M  V30 440 C 47.6208 1.11687 -5.62418 0
M  V30 441 N 47.1168 1.20645 -6.82214 0
M  V30 442 N 48.9098 1.14994 -5.50212 0
M  V30 443 H 41.0608 -0.597109 -2.03834 0
M  V30 444 H 43.3238 -0.205925 -0.925364 0
M  V30 445 H 43.0298 -0.175658 -3.51261 0
M  V30 446 H 42.9038 1.57255 -3.42857 0
M  V30 447 H 45.2908 1.65903 -2.4405 0
M  V30 448 H 45.3718 -0.104762 -2.55585 0
M  V30 449 H 45.0158 0.0661971 -5.07857 0
M  V30 450 H 44.9458 1.84045 -4.93391 0
M  V30 451 H 47.4368 0.935064 -3.66149 0
M  V30 452 H 47.7498 1.30008 -7.61786 0
M  V30 453 H 46.0948 1.17605 -6.84977 0
M  V30 454 H 49.2858 1.07643 -4.55555 0
M  V30 455 H 49.4588 1.24311 -6.35965 0
M  V30 456 N 42.8649 1.48995 0.513639 0
M  V30 457 C 44.2759 1.5119 1.09537 0
M  V30 458 C 44.6269 0.290906 1.94031 0
M  V30 459 O 43.7519 -0.60049 2.07902 0
M  V30 460 C 44.3469 2.73964 1.99322 0
M  V30 461 C 42.9059 2.78978 2.52682 0
M  V30 462 C 42.0529 2.44934 1.30009 0
M  V30 463 H 45.0039 1.55875 0.298125 0
M  V30 464 H 45.0249 2.53409 2.83838 0
M  V30 465 H 44.5369 3.62813 1.37799 0
M  V30 466 H 42.6379 1.94378 3.1788 0
M  V30 467 H 42.7509 3.8083 2.90698 0
M  V30 468 H 41.1149 1.9644 1.62122 0
M  V30 469 H 41.8979 3.36043 0.702131 0
M  V30 470 N 44.343 -0.763751 1.37857 0
M  V30 471 C 45.754 -1.3405 1.29952 0
M  V30 472 C 46.105 -1.96138 -0.0492898 0
M  V30 473 O 45.23 -1.94372 -0.951239 0
M  V30 474 C 45.825 -2.43729 2.35333 0
M  V30 475 C 44.384 -2.97151 2.31037 0
M  V30 476 C 43.531 -1.70438 2.18738 0
M  V30 477 H 46.482 -0.563396 1.48363 0
M  V30 478 H 46.503 -3.23412 2.00462 0
M  V30 479 H 46.015 -1.9851 3.33489 0
M  V30 480 H 44.116 -3.46724 1.3643 0
M  V30 481 H 44.229 -3.52221 3.24772 0
M  V30 482 H 42.593 -1.93673 1.65418 0
M  V30 483 H 43.376 -1.27312 3.18821 0
M  V30 484 N 45.8211 -1.22559 -0.990812 0
M  V30 485 C 47.0671 -1.05297 -1.73322 0
M  V30 486 C 47.4001 0.410655 -1.89808 0
M  V30 487 O 46.6751 1.30439 -1.44277 0
M  V30 488 C 46.9581 -1.76713 -3.13759 0
M  V30 489 C 46.8111 -3.30684 -3.04907 0
M  V30 490 C 48.1301 -1.52121 -4.12974 0
M  V30 491 H 45.2491 -0.38392 -0.629106 0
M  V30 492 H 47.8911 -1.50926 -1.15418 0
M  V30 493 H 46.0411 -1.37924 -3.63193 0
M  V30 494 H 47.7131 -3.7893 -2.63077 0
M  V30 495 H 45.9561 -3.60253 -2.41661 0
M  V30 496 H 46.6271 -3.75833 -4.04294 0
M  V30 497 H 49.1031 -1.85819 -3.72304 0
M  V30 498 H 47.9791 -2.04582 -5.0935 0
M  V30 499 H 48.2401 -0.454257 -4.3976 0
M  V30 500 N 47.2992 1.18797 -1.03562 0
M  V30 501 C 48.2312 2.21731 -0.580337 0
M  V30 502 C 49.2442 1.59051 0.347349 0
M  V30 503 O 50.4332 1.77929 0.142669 0
M  V30 504 C 47.5332 3.38459 0.172805 0
M  V30 505 C 46.7062 4.3072 -0.761496 0
M  V30 506 C 45.7652 5.26174 -0.0525547 0
M  V30 507 O 44.7912 5.65108 -0.681333 0
M  V30 508 N 45.9932 5.67624 1.21586 0
M  V30 509 H 48.7582 2.61417 -1.46565 0
M  V30 510 H 46.3192 1.33531 -0.915476 0
M  V30 511 H 48.3112 3.99335 0.656793 0
M  V30 512 H 46.8812 2.97507 0.959602 0
M  V30 513 H 46.1012 3.67525 -1.42544 0
M  V30 514 H 47.3892 4.89267 -1.39626 0
M  V30 515 H 46.7872 5.38038 1.74732 0
M  V30 516 H 45.3442 6.30721 1.64421 0
M  V30 517 N 48.7773 0.814389 1.34928 0
M  V30 518 C 50.0233 0.399013 1.98836 0
M  V30 519 C 50.3563 -1.03314 1.64438 0
M  V30 520 O 49.6313 -1.71811 0.911659 0
M  V30 521 C 49.9143 0.591629 3.55207 0
M  V30 522 C 49.7673 2.06928 3.99376 0
M  V30 523 C 51.0863 0.022199 4.40094 0
M  V30 524 H 48.2053 0.146451 0.722303 0
M  V30 525 H 50.8473 1.02537 1.59957 0
M  V30 526 H 48.9973 0.0584441 3.88456 0
M  V30 527 H 50.6693 2.66544 3.76499 0
M  V30 528 H 48.9123 2.56287 3.49999 0
M  V30 529 H 49.5833 2.1549 5.08201 0
M  V30 530 H 52.0593 0.477643 4.13349 0
M  V30 531 H 50.9353 0.186832 5.48582 0
M  V30 532 H 51.1963 -1.07215 4.28902 0
M  V30 533 N 50.2554 -1.46986 0.568584 0
M  V30 534 C 51.4854 -2.0653 0.0539173 0
M  V30 535 C 51.8934 -1.42004 -1.25026 0
M  V30 536 O 51.2364 -0.514541 -1.76347 0
M  V30 537 C 51.2984 -3.58938 -0.200854 0
M  V30 538 C 50.9624 -4.45572 1.01559 0
M  V30 539 C 51.9594 -4.82986 1.92407 0
M  V30 540 C 49.6444 -4.8692 1.23346 0
M  V30 541 C 51.6384 -5.60559 3.03402 0
M  V30 542 C 49.3254 -5.64255 2.34649 0
M  V30 543 C 50.3234 -6.00986 3.24507 0
M  V30 544 O 50.0114 -6.76761 4.33878 0
M  V30 545 H 49.7434 -0.674292 0.0480234 0
M  V30 546 H 52.2974 -1.89812 0.784896 0
M  V30 547 H 50.5274 -3.73911 -0.986279 0
M  V30 548 H 52.2164 -4.0046 -0.662294 0
M  V30 549 H 52.9824 -4.51633 1.76785 0
M  V30 550 H 48.8614 -4.57789 0.543178 0
M  V30 551 H 52.4054 -5.89147 3.73565 0
M  V30 552 H 48.3024 -5.95021 2.5024 0
M  V30 553 H 49.0704 -6.95168 4.32068 0
M  V30 554 N 51.7335 -0.305618 -1.54608 0
M  V30 555 C 52.9815 0.301701 -1.99835 0
M  V30 556 C 53.3025 1.54054 -1.19551 0
M  V30 557 O 52.5725 1.93702 -0.292658 0
M  V30 558 H 51.1525 0.114468 -0.738178 0
M  V30 559 H 53.8145 -0.418016 -1.90364 0
M  V30 560 H 52.9105 0.570548 -3.06841 0
M  V30 561 N 53.2116 1.57565 -0.0334293 0
M  V30 562 C 54.4606 1.91155 0.643639 0
M  V30 563 C 54.7736 0.91192 1.73042 0
M  V30 564 O 55.9796 1.13923 2.46442 0
M  V30 565 C 54.4356 3.39443 1.1961 0
M  V30 566 C 54.0436 4.47774 0.142381 0
M  V30 567 C 55.7876 3.82094 1.84944 0
M  V30 568 C 53.6946 5.87162 0.706727 0
M  V30 569 H 52.6246 0.713368 0.244176 0
M  V30 570 H 55.2756 1.8323 -0.0994323 0
M  V30 571 H 53.6576 3.42313 1.99092 0
M  V30 572 H 54.8316 4.56469 -0.630296 0
M  V30 573 H 53.1466 4.14352 -0.412446 0
M  V30 574 H 55.7436 4.83591 2.2813 0
M  V30 575 H 56.0866 3.17386 2.69392 0
M  V30 576 H 56.6196 3.81665 1.12145 0
M  V30 577 H 53.3586 6.55424 -0.0997178 0
M  V30 578 H 52.8786 5.82064 1.44779 0
M  V30 579 H 54.5576 6.35866 1.19514 0
M  V30 580 N 54.6897 -0.239769 1.55765 0
M  V30 581 C 55.5997 -1.31831 1.94056 0
M  V30 582 C 56.6157 -1.52275 0.841925 0
M  V30 583 O 57.7917 -1.65759 1.14394 0
M  V30 584 C 54.8567 -2.65156 2.23368 0
M  V30 585 C 53.9177 -2.53173 3.46701 0
M  V30 586 C 53.1507 -3.8014 3.74606 0
M  V30 587 O 53.3737 -4.82343 3.04469 0
M  V30 588 O 52.3077 -3.78344 4.68123 0
M  V30 589 H 56.1337 -1.02347 2.85935 0
M  V30 590 H 53.7187 -0.441123 1.42739 0
M  V30 591 H 55.6007 -3.43929 2.43497 0
M  V30 592 H 54.2757 -2.94358 1.34666 0
M  V30 593 H 53.1827 -1.72662 3.31871 0
M  V30 594 H 54.5157 -2.28915 4.35728 0
M  V30 595 N 56.1678 -1.49265 -0.50573 0
M  V30 596 C 57.4158 -1.582 -1.25766 0
M  V30 597 C 57.7368 -0.268482 -1.93143 0
M  V30 598 O 57.0068 0.711833 -1.8251 0
M  V30 599 H 55.5868 -0.582873 -0.467191 0
M  V30 600 H 58.2488 -1.85865 -0.586525 0
M  V30 601 H 57.3448 -2.37563 -2.02412 0
M  V30 602 N 57.6459 0.756429 -1.3826 0
M  V30 603 C 59.0619 1.0591 -1.19395 0
M  V30 604 C 59.2619 2.01459 -0.0406567 0
M  V30 605 O 58.3179 2.44909 0.614467 0
M  V30 606 C 59.6309 1.64191 -2.51916 0
M  V30 607 C 61.1789 1.76376 -2.58574 0
M  V30 608 C 61.6539 2.38069 -3.91264 0
M  V30 609 N 63.1449 2.45503 -3.92788 0
M  V30 610 C 63.8799 2.94126 -4.92217 0
M  V30 611 N 63.3759 3.42805 -6.02043 0
M  V30 612 N 65.1689 2.9314 -4.7961 0
M  V30 613 H 57.3199 0.122313 -2.12048 0
M  V30 614 H 59.5829 0.116892 -0.940766 0
M  V30 615 H 59.2889 1.01451 -3.3675 0
M  V30 616 H 59.1629 2.6329 -2.70108 0
M  V30 617 H 61.5499 2.38244 -1.74137 0
M  V30 618 H 61.6309 0.759894 -2.44252 0
M  V30 619 H 61.2749 1.76835 -4.76121 0
M  V30 620 H 61.2049 3.39091 -4.02895 0
M  V30 621 H 63.6959 2.1107 -3.13461 0
M  V30 622 H 64.0089 3.78354 -6.73846 0
M  V30 623 H 62.3539 3.4087 -6.05667 0
M  V30 624 H 65.5449 2.54419 -3.92923 0
M  V30 625 H 65.7179 3.30721 -5.5725 0
M  V30 626 N 59.124 1.23083 0.984299 0
M  V30 627 C 60.354 1.08556 1.75781 0
M  V30 628 C 60.762 -0.366171 1.85623 0
M  V30 629 O 60.105 -1.26524 1.33182 0
M  V30 630 C 60.167 1.63208 3.20318 0
M  V30 631 C 59.831 3.11922 3.33997 0
M  V30 632 C 60.828 4.09259 3.2063 0
M  V30 633 C 58.513 3.51552 3.58771 0
M  V30 634 C 60.507 5.4421 3.31835 0
M  V30 635 C 58.194 4.86649 3.69616 0
M  V30 636 C 59.192 5.82787 3.56157 0
M  V30 637 O 58.88 7.15431 3.66626 0
M  V30 638 H 58.612 0.380713 0.5586 0
M  V30 639 H 61.166 1.63321 1.2456 0
M  V30 640 H 59.396 1.0286 3.72769 0
M  V30 641 H 61.085 1.44216 3.79416 0
M  V30 642 H 61.851 3.79984 3.01392 0
M  V30 643 H 57.73 2.77239 3.6832 0
M  V30 644 H 61.274 6.1923 3.21247 0
M  V30 645 H 57.171 5.15601 3.88363 0
M  V30 646 H 57.939 7.23127 3.83445 0
M  V30 647 N 60.6021 -1.18246 1.0419 0
M  V30 648 C 61.5651 -2.20128 0.638452 0
M  V30 649 C 62.5651 -1.57885 -0.304805 0
M  V30 650 O 63.7551 -1.73967 -0.0900369 0
M  V30 651 C 60.8871 -3.4084 -0.0637751 0
M  V30 652 H 62.0801 -2.57336 1.54007 0
M  V30 653 H 59.6331 -1.32152 0.834598 0
M  V30 654 H 60.3681 -3.09166 -0.979136 0
M  V30 655 H 60.1531 -3.8726 0.614198 0
M  V30 656 H 61.6431 -4.16274 -0.332512 0
M  V30 657 N 62.0802 -0.821533 -1.34494 0
M  V30 658 C 63.3082 -0.421884 -2.02553 0
M  V30 659 C 63.7232 0.971745 -1.61872 0
M  V30 660 O 63.0802 1.62864 -0.823496 0
M  V30 661 C 63.1312 -0.51285 -3.57844 0
M  V30 662 O 62.8522 -1.85155 -3.97051 0
M  V30 663 C 64.3532 -0.107921 -4.43169 0
M  V30 664 H 61.5732 -0.169482 -0.649243 0
M  V30 665 H 64.1172 -1.1093 -1.71798 0
M  V30 666 H 62.2722 0.126474 -3.87193 0
M  V30 667 H 62.6862 -1.82482 -4.91732 0
M  V30 668 H 64.1602 -0.222657 -5.51551 0
M  V30 669 H 64.6372 0.948401 -4.28838 0
M  V30 670 H 65.2432 -0.720989 -4.19144 0
M  V30 671 N 63.5583 1.46682 -0.576371 0
M  V30 672 C 64.5213 2.28707 0.150239 0
M  V30 673 C 65.5213 1.38035 0.824794 0
M  V30 674 O 66.7113 1.60476 0.677719 0
M  V30 675 C 63.8433 3.18248 1.22192 0
M  V30 676 H 65.0363 2.94423 -0.570521 0
M  V30 677 H 62.5893 1.52688 -0.334078 0
M  V30 678 H 63.3243 2.57265 1.97447 0
M  V30 679 H 63.1093 3.85 0.742812 0
M  V30 680 H 64.5993 3.80001 1.73172 0
M  V30 681 N 65.0364 0.313813 1.54444 0
M  V30 682 C 65.9664 -0.549454 2.26943 0
M  V30 683 C 66.9474 -1.12741 1.27372 0
M  V30 684 O 68.1324 -1.15436 1.56167 0
M  V30 685 C 65.2624 -1.71523 3.01989 0
M  V30 686 C 64.2164 -1.26703 4.08816 0
M  V30 687 C 63.5424 -2.51898 4.71647 0
M  V30 688 C 64.8424 -0.388962 5.2085 0
M  V30 689 H 66.5364 0.0552661 2.99349 0
M  V30 690 H 64.0824 0.0280207 1.43973 0
M  V30 691 H 66.0354 -2.32535 3.51433 0
M  V30 692 H 64.7594 -2.34639 2.27183 0
M  V30 693 H 63.4184 -0.679896 3.6024 0
M  V30 694 H 63.0664 -3.13356 3.93468 0
M  V30 695 H 62.7664 -2.22605 5.43802 0
M  V30 696 H 64.2904 -3.1369 5.23861 0
M  V30 697 H 65.7044 -0.905107 5.6611 0
M  V30 698 H 64.1014 -0.18924 5.99802 0
M  V30 699 H 65.1714 0.582699 4.81386 0
M  V30 700 N 66.5145 -1.57545 0.0417849 0
M  V30 701 C 67.7445 -1.96339 -0.642995 0
M  V30 702 C 68.1525 -0.917536 -1.65463 0
M  V30 703 O 67.4955 0.107747 -1.83384 0
M  V30 704 C 67.5575 -3.31333 -1.39494 0
M  V30 705 C 67.2215 -4.53796 -0.540204 0
M  V30 706 C 68.2185 -5.19553 0.189806 0
M  V30 707 C 65.9035 -5.0006 -0.473886 0
M  V30 708 C 67.8975 -6.29904 0.974674 0
M  V30 709 C 65.5845 -6.10289 0.314677 0
M  V30 710 C 66.5825 -6.75072 1.03765 0
M  V30 711 O 66.2705 -7.83183 1.81327 0
M  V30 712 H 66.0025 -0.651241 -0.181277 0
M  V30 713 H 68.5565 -2.05148 0.101665 0
M  V30 714 H 66.7865 -3.19052 -2.18502 0
M  V30 715 H 68.4755 -3.54942 -1.96904 0
M  V30 716 H 69.2415 -4.84774 0.147981 0
M  V30 717 H 65.1205 -4.49433 -1.0262 0
M  V30 718 H 68.6645 -6.80401 1.5395 0
M  V30 719 H 64.5615 -6.44506 0.358174 0
M  V30 720 H 65.3295 -7.99913 1.73438 0
M  V30 721 N 67.9926 0.231505 -1.5589 0
M  V30 722 C 69.2176 0.978689 -1.82856 0
M  V30 723 C 69.6426 1.77559 -0.620846 0
M  V30 724 O 69.0006 1.76119 0.430305 0
M  V30 725 C 69.0486 1.87997 -3.07716 0
M  V30 726 O 68.1526 2.97393 -2.85712 0
M  V30 727 H 67.4936 0.277663 -0.603158 0
M  V30 728 H 70.0236 0.24783 -2.03093 0
M  V30 729 H 70.0336 2.2917 -3.37558 0
M  V30 730 H 68.7086 1.29417 -3.95252 0
M  V30 731 H 67.2856 2.60238 -2.67078 0
M  V30 732 N 69.4707 1.49531 0.497807 0
M  V30 733 C 70.4337 1.65916 1.58128 0
M  V30 734 C 71.4337 0.530825 1.51786 0
M  V30 735 O 72.6237 0.797342 1.54881 0
M  V30 736 C 69.7557 1.65951 2.9778 0
M  V30 737 H 70.9487 2.62556 1.44929 0
M  V30 738 H 68.5017 1.38611 0.722275 0
M  V30 739 H 69.2367 0.709065 3.16453 0
M  V30 740 H 69.0217 2.47897 3.03792 0
M  V30 741 H 70.5117 1.80673 3.76493 0
M  V30 742 N 70.9488 -0.749086 1.3866 0
M  V30 743 C 71.9118 -1.84457 1.36045 0
M  V30 744 C 72.9118 -1.58682 0.260122 0
M  V30 745 O 74.1018 -1.66343 0.517261 0
M  V30 746 C 71.2338 -3.22008 1.11911 0
M  V30 747 H 72.4268 -1.88182 2.33512 0
M  V30 748 H 69.9798 -0.951266 1.24019 0
M  V30 749 H 70.7148 -3.2395 0.150686 0
M  V30 750 H 70.4998 -3.42111 1.91579 0
M  V30 751 H 71.9898 -4.0208 1.12788 0
M  V30 752 N 72.4269 -1.23603 -0.977757 0
M  V30 753 C 73.6519 -1.09735 -1.75991 0
M  V30 754 C 74.0769 0.346858 -1.84874 0
M  V30 755 O 73.4349 1.25093 -1.3123 0
M  V30 756 C 73.4829 -1.73051 -3.16363 0
M  V30 757 O 72.5869 -0.994452 -4.0023 0
M  V30 758 H 71.9279 -0.384476 -0.541364 0
M  V30 759 H 74.4579 -1.6371 -1.2272 0
M  V30 760 H 74.4679 -1.78398 -3.66931 0
M  V30 761 H 73.1429 -2.78137 -3.09213 0
M  V30 762 H 71.7199 -1.01812 -3.58732 0
M  V30 763 N 73.905 1.17692 -1.04816 0
M  V30 764 C 74.852 2.21581 -0.645797 0
M  V30 765 C 75.822 1.62367 0.350159 0
M  V30 766 O 77.007 1.89254 0.242433 0
M  V30 767 C 74.147 3.45092 -0.0227568 0
M  V30 768 C 73.26 4.18613 -1.06709 0
M  V30 769 C 72.395 5.29602 -0.411767 0
M  V30 770 C 71.434 5.94904 -1.44067 0
M  V30 771 N 70.571 6.97414 -0.809781 0
M  V30 772 H 75.411 2.55353 -1.5362 0
M  V30 773 H 72.948 1.25438 -0.768364 0
M  V30 774 H 74.906 4.15679 0.35588 0
M  V30 775 H 73.536 3.11917 0.831122 0
M  V30 776 H 72.588 3.46779 -1.5636 0
M  V30 777 H 73.9 4.63293 -1.84827 0
M  V30 778 H 73.054 6.06696 0.0206623 0
M  V30 779 H 71.793 4.86045 0.401438 0
M  V30 780 H 70.798 5.16544 -1.88316 0
M  V30 781 H 72.023 6.40542 -2.25571 0
M  V30 782 H 69.969 6.55998 -0.0170186 0
M  V30 783 H 69.886 7.40386 -1.52856 0
M  V30 784 H 71.154 7.78463 -0.401999 0
M  V30 785 N 75.3831 0.828654 1.34056 0
M  V30 786 C 76.3151 0.212052 2.28217 0
M  V30 787 C 77.3281 -0.601362 1.51286 0
M  V30 788 O 78.5171 -0.430104 1.73241 0
M  V30 789 C 75.6171 -0.72088 3.31144 0
M  V30 790 C 74.7901 0.0509587 4.3737 0
M  V30 791 C 73.8491 -0.803766 5.20025 0
M  V30 792 O 72.8751 -0.246667 5.68665 0
M  V30 793 N 74.0771 -2.1227 5.40298 0
M  V30 794 H 76.8421 1.02105 2.81771 0
M  V30 795 H 74.4031 0.686153 1.46641 0
M  V30 796 H 76.3951 -1.29742 3.8334 0
M  V30 797 H 74.9651 -1.43061 2.77943 0
M  V30 798 H 74.1851 0.808831 3.85813 0
M  V30 799 H 75.4731 0.582065 5.0546 0
M  V30 800 H 74.8711 -2.59898 5.02464 0
M  V30 801 H 73.4281 -2.64796 5.95589 0
M  V30 802 N 76.8612 -1.46375 0.584142 0
M  V30 803 C 77.8092 -2.32042 -0.161047 0
M  V30 804 C 78.8032 -1.44569 -0.882966 0
M  V30 805 O 80.0092 -1.61186 -0.801191 0
M  V30 806 H 76.3842 -0.748659 -0.0708033 0
M  V30 807 H 78.3552 -2.92704 0.580269 0
M  V30 808 C 77.1042 -3.27762 -1.1605 0
M  V30 809 H 76.4272 -3.95051 -0.614419 0
M  V30 810 H 77.8672 -3.90481 -1.65228 0
M  V30 811 C 76.3262 -2.53218 -2.22221 0
M  V30 812 O 76.8562 -2.29628 -3.29597 0
M  V30 813 N 75.0622 -2.13756 -1.96868 0
M  V30 814 H 74.6092 -2.33142 -1.09557 0
M  V30 815 H 74.5672 -1.642 -2.68115 0
M  V30 816 N 78.3393 -0.321999 -1.54275 0
M  V30 817 C 79.2863 0.544664 -2.24281 0
M  V30 818 C 80.2563 1.1129 -1.23303 0
M  V30 819 O 81.4413 1.15354 -1.51981 0
M  V30 820 C 78.5813 1.70045 -3.00298 0
M  V30 821 C 77.6943 1.16159 -4.1609 0
M  V30 822 C 76.8293 2.28293 -4.79641 0
M  V30 823 C 75.8683 1.71648 -5.8754 0
M  V30 824 N 75.0053 2.77438 -6.44959 0
M  V30 825 H 79.8453 -0.0588907 -2.97942 0
M  V30 826 H 77.3823 -0.0408345 -1.47043 0
M  V30 827 H 79.3403 2.38054 -3.42616 0
M  V30 828 H 77.9703 2.27531 -2.28975 0
M  V30 829 H 77.0223 0.373092 -3.78566 0
M  V30 830 H 78.3343 0.707087 -4.93763 0
M  V30 831 H 77.4883 3.0421 -5.2492 0
M  V30 832 H 76.2273 2.77079 -4.01346 0
M  V30 833 H 75.2323 0.942282 -5.41665 0
M  V30 834 H 76.4573 1.23741 -6.67731 0
M  V30 835 H 74.4033 3.25519 -5.69538 0
M  V30 836 H 74.3203 2.36547 -7.1804 0
M  V30 837 H 75.5883 3.53189 -6.94894 0
M  V30 838 N 79.8174 1.5752 -0.0501392 0
M  V30 839 C 80.7474 2.14502 0.922566 0
M  V30 840 C 81.7284 1.06642 1.3252 0
M  V30 841 O 82.9134 1.34577 1.4001 0
M  V30 842 C 80.0434 2.68916 2.19776 0
M  V30 843 C 78.9974 3.8175 1.93523 0
M  V30 844 C 78.3234 4.22677 3.27487 0
M  V30 845 C 79.6234 5.06932 1.25765 0
M  V30 846 H 81.3174 2.9603 0.447952 0
M  V30 847 H 78.8634 1.42401 0.214024 0
M  V30 848 H 80.8164 3.07419 2.88222 0
M  V30 849 H 79.5404 1.84578 2.69441 0
M  V30 850 H 78.1994 3.43718 1.27489 0
M  V30 851 H 77.8474 3.35291 3.74952 0
M  V30 852 H 77.5474 4.98725 3.1072 0
M  V30 853 H 79.0714 4.63779 3.97166 0
M  V30 854 H 80.4854 5.42888 1.84244 0
M  V30 855 H 78.8824 5.88116 1.19328 0
M  V30 856 H 79.9524 4.84337 0.233536 0
M  V30 857 N 81.2955 -0.223234 1.56011 0
M  V30 858 C 82.2055 -1.29766 1.95443 0
M  V30 859 C 83.2215 -1.51373 0.858028 0
M  V30 860 O 84.3975 -1.64536 1.16146 0
M  V30 861 C 81.4625 -2.62772 2.26167 0
M  V30 862 C 80.5235 -2.49482 3.49367 0
M  V30 863 C 79.7565 -3.76145 3.78616 0
M  V30 864 O 79.9795 -4.79087 3.09568 0
M  V30 865 O 78.9135 -3.73358 4.72109 0
M  V30 866 H 82.7395 -0.99309 2.87004 0
M  V30 867 H 80.3245 -0.425958 1.43199 0
M  V30 868 H 82.2065 -3.41327 2.47131 0
M  V30 869 H 80.8815 -2.92913 1.37781 0
M  V30 870 H 79.7885 -1.69133 3.33684 0
M  V30 871 H 81.1215 -2.2428 4.38131 0
M  V30 872 N 82.7736 -1.49793 -0.48987 0
M  V30 873 C 83.7056 -1.63413 -1.60713 0
M  V30 874 C 84.7186 -0.516329 -1.54395 0
M  V30 875 O 85.9076 -0.788812 -1.60125 0
M  V30 876 C 83.0076 -1.58516 -2.99543 0
M  V30 877 C 82.1806 -2.86016 -3.30928 0
M  V30 878 C 81.2396 -2.74018 -4.49222 0
M  V30 879 O 80.2656 -3.47964 -4.50455 0
M  V30 880 N 81.4676 -1.86309 -5.4979 0
M  V30 881 H 84.2326 -2.59777 -1.49452 0
M  V30 882 H 81.7936 -1.47022 -0.677955 0
M  V30 883 H 83.7856 -1.48128 -3.76617 0
M  V30 884 H 82.3556 -0.69965 -3.0467 0
M  V30 885 H 81.5756 -3.10672 -2.42645 0
M  V30 886 H 82.8636 -3.70521 -3.487 0
M  V30 887 H 82.2616 -1.2551 -5.51601 0
M  V30 888 H 80.8186 -1.81837 -6.25922 0
M  V30 889 N 84.2517 0.741722 -1.39055 0
M  V30 890 C 85.4977 1.50336 -1.36113 0
M  V30 891 C 85.8307 1.94148 0.0450796 0
M  V30 892 O 85.1057 1.66301 1.00868 0
M  V30 893 C 85.3887 2.74773 -2.32749 0
M  V30 894 C 85.2417 2.37023 -3.82283 0
M  V30 895 C 86.5607 3.76846 -2.27322 0
M  V30 896 H 83.6797 0.545351 -0.495743 0
M  V30 897 H 86.3217 0.848624 -1.69995 0
M  V30 898 H 84.4717 3.30639 -2.03986 0
M  V30 899 H 86.1437 1.8684 -4.21768 0
M  V30 900 H 84.3867 1.69334 -3.99385 0
M  V30 901 H 85.0577 3.26104 -4.45376 0
M  V30 902 H 87.5337 3.30548 -2.5274 0
M  V30 903 H 86.4097 4.6159 -2.97028 0
M  V30 904 H 86.6707 4.23286 -1.27599 0
M  V30 905 N 85.7298 1.2412 0.971189 0
M  V30 906 C 86.6398 1.04747 2.09917 0
M  V30 907 C 87.6558 -0.0107162 1.73997 0
M  V30 908 O 88.8318 0.186714 2.00533 0
M  V30 909 C 85.8968 0.650828 3.40537 0
M  V30 910 C 84.9578 1.7851 3.90426 0
M  V30 911 C 84.1908 1.40729 5.14812 0
M  V30 912 O 84.4138 0.29557 5.69634 0
M  V30 913 O 83.3478 2.23168 5.58999 0
M  V30 914 H 87.1738 1.99304 2.29154 0
M  V30 915 H 84.7588 1.02908 1.08307 0
M  V30 916 H 86.6408 0.440992 4.19086 0
M  V30 917 H 85.3158 -0.265649 3.22608 0
M  V30 918 H 84.2228 2.04966 3.12953 0
M  V30 919 H 85.5558 2.68023 4.12825 0
M  V30 920 N 87.2079 -1.17134 1.05439 0
M  V30 921 C 88.1549 -2.21235 0.657539 0
M  V30 922 C 89.1249 -1.62551 -0.341543 0
M  V30 923 O 90.3099 -1.89379 -0.232393 0
M  V30 924 C 87.4499 -3.45076 0.0410575 0
M  V30 925 C 86.5629 -4.18042 1.08927 0
M  V30 926 C 85.6979 -5.29376 0.439848 0
M  V30 927 C 84.7369 -5.94132 1.4722 0
M  V30 928 N 83.8739 -6.96975 0.846756 0
M  V30 929 H 88.7139 -2.54534 1.54972 0
M  V30 930 H 86.2509 -1.25028 0.775006 0
M  V30 931 H 88.2089 -4.15862 -0.33383 0
M  V30 932 H 86.8389 -3.12353 -0.814568 0
M  V30 933 H 85.8909 -3.45945 1.58196 0
M  V30 934 H 87.2029 -4.62306 1.87282 0
M  V30 935 H 86.3569 -6.06699 0.0115125 0
M  V30 936 H 85.0959 -4.86251 -0.375656 0
M  V30 937 H 84.1009 -5.15538 1.91052 0
M  V30 938 H 85.3259 -6.39337 2.28965 0
M  V30 939 H 83.2719 -6.5598 0.0518075 0
M  V30 940 H 83.1889 -7.39565 1.5678 0
M  V30 941 H 84.4569 -7.78239 0.443277 0
M  V30 942 N 88.686 -0.835752 -1.33615 0
M  V30 943 C 89.596 -0.269088 -2.33052 0
M  V30 944 C 90.612 0.603251 -1.63208 0
M  V30 945 O 91.788 0.508112 -1.94885 0
M  V30 946 C 88.853 0.549091 -3.42324 0
M  V30 947 C 87.914 -0.347156 -4.27894 0
M  V30 948 C 87.147 0.43207 -5.31948 0
M  V30 949 O 87.37 1.66409 -5.45586 0
M  V30 950 O 86.304 -0.192298 -6.01593 0
M  V30 951 H 90.13 -1.09243 -2.83372 0
M  V30 952 H 87.715 -0.598198 -1.36901 0
M  V30 953 H 89.597 1.01414 -4.09015 0
M  V30 954 H 88.272 1.34955 -2.94226 0
M  V30 955 H 87.179 -0.859979 -3.64081 0
M  V30 956 H 88.512 -1.1123 -4.79467 0
M  V30 957 N 90.1641 1.46063 -0.591896 0
M  V30 958 C 91.0941 2.33172 0.123673 0
M  V30 959 C 92.0751 1.45897 0.87453 0
M  V30 960 O 93.2601 1.74698 0.848181 0
M  V30 961 C 90.3901 3.28336 1.13194 0
M  V30 962 C 89.3441 4.25124 0.495324 0
M  V30 963 C 88.6701 5.09863 1.61071 0
M  V30 964 C 89.9701 5.19143 -0.573425 0
M  V30 965 H 91.6641 2.93252 -0.603646 0
M  V30 966 H 89.2101 1.41014 -0.291741 0
M  V30 967 H 91.1631 3.88137 1.64097 0
M  V30 968 H 89.8871 2.66383 1.88965 0
M  V30 969 H 88.5461 3.66599 0.00729452 0
M  V30 970 H 88.1941 4.44288 2.35832 0
M  V30 971 H 87.8941 5.75417 1.19035 0
M  V30 972 H 89.4181 5.72529 2.12233 0
M  V30 973 H 90.8321 5.73106 -0.1491 0
M  V30 974 H 89.2291 5.93089 -0.914636 0
M  V30 975 H 90.2991 4.62519 -1.45617 0
M  V30 976 N 91.6422 0.330177 1.54103 0
M  V30 977 C 92.5722 -0.525353 2.27513 0
M  V30 978 C 93.5532 -1.11383 1.2856 0
M  V30 979 O 94.7382 -1.13773 1.57383 0
M  V30 980 C 91.8682 -1.6831 3.03791 0
M  V30 981 C 90.8222 -1.2236 4.10137 0
M  V30 982 C 90.1482 -2.46882 4.74293 0
M  V30 983 C 91.4482 -0.333697 5.21233 0
M  V30 984 H 93.1422 0.087013 2.99274 0
M  V30 985 H 90.6882 0.0432893 1.43935 0
M  V30 986 H 92.6412 -2.28795 3.5388 0
M  V30 987 H 91.3652 -2.32216 2.29659 0
M  V30 988 H 90.0242 -0.64165 3.60941 0
M  V30 989 H 89.6722 -3.09165 3.96769 0
M  V30 990 H 89.3722 -2.16825 5.46133 0
M  V30 991 H 90.8962 -3.08117 5.27159 0
M  V30 992 H 92.3102 -0.845013 5.67038 0
M  V30 993 H 90.7072 -0.125612 5.99969 0
M  V30 994 H 91.7772 0.633724 4.80741 0
M  V30 995 N 93.1203 -1.57491 0.0584922 0
M  V30 996 C 94.5363 -1.56792 -0.298091 0
M  V30 997 C 94.7363 -1.06679 -1.70944 0
M  V30 998 O 93.7923 -0.726672 -2.41818 0
M  V30 999 C 95.1053 -3.00461 -0.119879 0
M  V30 1000 C 96.6533 -3.1242 -0.190428 0
M  V30 1001 C 97.1283 -4.57982 -0.0406567 0
M  V30 1002 N 98.6193 -4.63099 -0.0966958 0
M  V30 1003 C 99.3543 -5.734 -0.00502943 0
M  V30 1004 N 98.8503 -6.9266 0.139402 0
M  V30 1005 N 100.643 -5.62067 -0.0611391 0
M  V30 1006 H 92.7943 -1.88386 0.98105 0
M  V30 1007 H 95.0573 -0.867865 0.381463 0
M  V30 1008 H 94.7633 -3.41187 0.85349 0
M  V30 1009 H 94.6373 -3.66843 -0.877833 0
M  V30 1010 H 97.0243 -2.71589 -1.15427 0
M  V30 1011 H 97.1053 -2.48702 0.598405 0
M  V30 1012 H 96.7493 -4.995 0.919897 0
M  V30 1013 H 96.6793 -5.19715 -0.848727 0
M  V30 1014 H 99.1703 -3.77331 -0.207277 0
M  V30 1015 H 99.4833 -7.72536 0.201855 0
M  V30 1016 H 97.8283 -6.94781 0.174586 0
M  V30 1017 H 101.019 -4.67782 -0.172583 0
M  V30 1018 H 101.192 -6.47999 0.0137562 0
M  V30 1019 N 94.5984 0.214957 -1.56127 0
M  V30 1020 C 95.8444 0.939762 -1.79712 0
M  V30 1021 C 96.1774 1.83723 -0.629247 0
M  V30 1022 O 95.4524 1.90925 0.371197 0
M  V30 1023 C 95.7354 1.77306 -3.13424 0
M  V30 1024 C 95.5884 0.90164 -4.40671 0
M  V30 1025 C 96.9074 2.74956 -3.43638 0
M  V30 1026 H 94.0264 0.340214 -0.653776 0
M  V30 1027 H 96.6684 0.20824 -1.88855 0
M  V30 1028 H 94.8184 2.39673 -3.0576 0
M  V30 1029 H 96.4904 0.294206 -4.60361 0
M  V30 1030 H 94.7334 0.207368 -4.33304 0
M  V30 1031 H 95.4044 1.51923 -5.30682 0
M  V30 1032 H 97.8804 2.22724 -3.51473 0
M  V30 1033 H 96.7564 3.30358 -4.38355 0
M  V30 1034 H 97.0174 3.53023 -2.66134 0
M  V30 1035 N 96.0765 1.50051 0.48192 0
M  V30 1036 C 97.0395 1.67584 1.5636 0
M  V30 1037 C 98.0395 0.546894 1.51214 0
M  V30 1038 O 99.2295 0.813725 1.54026 0
M  V30 1039 C 96.3615 1.691 2.96003 0
M  V30 1040 H 97.5545 2.64078 1.42136 0
M  V30 1041 H 95.1075 1.39369 0.707533 0
M  V30 1042 H 95.8425 0.742589 3.15684 0
M  V30 1043 H 95.6275 2.51105 3.01146 0
M  V30 1044 H 97.1175 1.84656 3.74556 0
M  V30 1045 N 97.5546 -0.734337 1.39446 0
M  V30 1046 C 98.4866 -1.85861 1.34121 0
M  V30 1047 C 99.4996 -1.60871 0.249864 0
M  V30 1048 O 100.689 -1.71093 0.508865 0
M  V30 1049 C 97.7886 -3.21899 1.05991 0
M  V30 1050 C 96.9616 -3.74239 2.26415 0
M  V30 1051 C 96.0206 -4.88841 1.94733 0
M  V30 1052 O 95.0466 -5.02468 2.67422 0
M  V30 1053 N 96.2486 -5.73261 0.913884 0
M  V30 1054 H 99.0136 -1.90934 2.31007 0
M  V30 1055 H 96.5746 -0.915102 1.33557 0
M  V30 1056 H 98.5666 -3.96136 0.828147 0
M  V30 1057 H 97.1366 -3.12091 0.178361 0
M  V30 1058 H 96.3566 -2.91347 2.65539 0
M  V30 1059 H 97.6446 -4.05942 3.06738 0
M  V30 1060 H 97.0426 -5.64842 0.311476 0
M  V30 1061 H 95.5996 -6.47563 0.742015 0
M  V30 1062 N 99.0327 -1.24633 -0.964593 0
M  V30 1063 C 100.282 -1.08188 -1.7023 0
M  V30 1064 C 100.595 0.37873 -1.91898 0
M  V30 1065 O 101.801 0.663427 -2.6327 0
M  V30 1066 C 100.257 -1.88773 -3.06419 0
M  V30 1067 C 99.8647 -3.39263 -2.92582 0
M  V30 1068 C 101.609 -1.80867 -3.84041 0
M  V30 1069 C 99.5157 -4.1218 -4.24101 0
M  V30 1070 H 98.4457 -0.401245 -0.638372 0
M  V30 1071 H 101.097 -1.48742 -1.07462 0
M  V30 1072 H 99.4787 -1.41035 -3.70034 0
M  V30 1073 H 100.653 -3.94603 -2.37961 0
M  V30 1074 H 98.9677 -3.48154 -2.28424 0
M  V30 1075 H 101.565 -2.32646 -4.81435 0
M  V30 1076 H 101.908 -0.774543 -4.09031 0
M  V30 1077 H 102.441 -2.26301 -3.27159 0
M  V30 1078 H 99.1797 -5.15965 -4.04303 0
M  V30 1079 H 98.6997 -3.61626 -4.78526 0
M  V30 1080 H 100.379 -4.19349 -4.92702 0
M  V30 1081 N 100.511 1.16574 -1.06058 0
M  V30 1082 C 101.441 2.23057 -0.690488 0
M  V30 1083 C 102.422 1.67141 0.315901 0
M  V30 1084 O 103.607 1.93253 0.191556 0
M  V30 1085 C 100.737 3.47222 -0.073625 0
M  V30 1086 C 99.6908 4.16016 -1.00573 0
M  V30 1087 C 99.0168 5.34104 -0.252289 0
M  V30 1088 C 100.317 4.67264 -2.33371 0
M  V30 1089 H 102.011 2.54271 -1.58072 0
M  V30 1090 H 99.5568 1.22218 -0.76149 0
M  V30 1091 H 101.51 4.20939 0.19714 0
M  V30 1092 H 100.234 3.15302 0.85161 0
M  V30 1093 H 98.8928 3.44223 -1.2612 0
M  V30 1094 H 98.5408 4.98437 0.675988 0
M  V30 1095 H 98.2408 5.81072 -0.873455 0
M  V30 1096 H 99.7648 6.10599 0.0109857 0
M  V30 1097 H 101.179 5.32573 -2.12223 0
M  V30 1098 H 99.5758 5.24843 -2.90963 0
M  V30 1099 H 100.646 3.83602 -2.96611 0
M  V30 1100 N 101.989 0.842826 1.3317 0
M  V30 1101 C 102.936 0.276885 2.29133 0
M  V30 1102 C 103.906 -0.609527 1.54512 0
M  V30 1103 O 105.091 -0.546955 1.82792 0
M  V30 1104 C 102.231 -0.538707 3.40869 0
M  V30 1105 C 101.344 0.372169 4.30394 0
M  V30 1106 C 100.479 -0.454908 5.29249 0
M  V30 1107 C 99.5179 0.45411 6.10413 0
M  V30 1108 N 98.6549 -0.335075 7.013 0
M  V30 1109 H 103.495 1.10052 2.76934 0
M  V30 1110 H 101.032 0.554161 1.36262 0
M  V30 1111 H 102.99 -1.02709 4.0436 0
M  V30 1112 H 101.62 -1.32727 2.9425 0
M  V30 1113 H 100.672 0.97888 3.6759 0
M  V30 1114 H 101.984 1.0703 4.87182 0
M  V30 1115 H 101.138 -1.00695 5.98285 0
M  V30 1116 H 99.8769 -1.18646 4.73048 0
M  V30 1117 H 98.8819 1.01813 5.40291 0
M  V30 1118 H 100.107 1.18409 6.68697 0
M  V30 1119 H 98.0529 -1.04994 6.47543 0
M  V30 1120 H 97.9699 0.304262 7.55387 0
M  V30 1121 H 99.2379 -0.869224 7.74638 0
M  V30 1122 N 103.467 -1.45747 0.599634 0
M  V30 1123 C 104.377 -2.34262 -0.125888 0
M  V30 1124 C 105.393 -1.50768 -0.868625 0
M  V30 1125 O 106.569 -1.83592 -0.828003 0
M  V30 1126 C 103.634 -3.28252 -1.11587 0
M  V30 1127 C 102.695 -4.27651 -0.375956 0
M  V30 1128 C 101.928 -5.1715 -1.31877 0
M  V30 1129 O 102.151 -5.09916 -2.55621 0
M  V30 1130 O 101.085 -5.96286 -0.820157 0
M  V30 1131 H 104.911 -2.97688 0.601315 0
M  V30 1132 H 102.496 -1.44999 0.359934 0
M  V30 1133 H 104.378 -3.86191 -1.68626 0
M  V30 1134 H 103.053 -2.67401 -1.82424 0
M  V30 1135 H 101.96 -3.7335 0.236698 0
M  V30 1136 H 103.293 -4.91334 0.29177 0
M  V30 1137 N 104.945 -0.338344 -1.53925 0
M  V30 1138 C 106.356 0.146651 -1.86123 0
M  V30 1139 C 106.707 1.5042 -1.2597 0
M  V30 1140 O 105.832 2.08723 -0.571294 0
M  V30 1141 C 106.427 0.272879 -3.37699 0
M  V30 1142 C 104.986 0.702103 -3.69794 0
M  V30 1143 C 104.133 -0.167304 -2.76795 0
M  V30 1144 H 107.084 -0.558123 -1.48562 0
M  V30 1145 H 107.105 1.10128 -3.64214 0
M  V30 1146 H 106.617 -0.715307 -3.81451 0
M  V30 1147 H 104.718 1.6995 -3.31584 0
M  V30 1148 H 104.831 0.495604 -4.7653 0
M  V30 1149 H 103.195 0.359527 -2.5215 0
M  V30 1150 H 103.978 -1.15253 -3.23375 0
M  V30 1151 N 106.423 1.57458 -0.0668435 0
M  V30 1152 C 107.37 2.12439 0.902122 0
M  V30 1153 C 108.34 1.03565 1.2986 0
M  V30 1154 O 109.525 1.312 1.38532 0
M  V30 1155 C 106.665 2.6865 2.16614 0
M  V30 1156 C 105.778 3.91663 1.82274 0
M  V30 1157 C 104.913 4.36134 3.0325 0
M  V30 1158 C 103.952 5.51808 2.64904 0
M  V30 1159 N 103.089 5.9126 3.78624 0
M  V30 1160 H 107.929 2.94934 0.426382 0
M  V30 1161 H 105.466 1.4575 0.198819 0
M  V30 1162 H 107.424 2.99346 2.90599 0
M  V30 1163 H 106.054 1.88928 2.61737 0
M  V30 1164 H 105.106 3.6746 0.983719 0
M  V30 1165 H 106.418 4.75693 1.50059 0
M  V30 1166 H 105.572 4.68465 3.85519 0
M  V30 1167 H 104.311 3.50948 3.38655 0
M  V30 1168 H 103.316 5.19133 1.81055 0
M  V30 1169 H 104.541 6.38722 2.30675 0
M  V30 1170 H 102.487 5.09024 4.138 0
M  V30 1171 H 102.404 6.70018 3.5016 0
M  V30 1172 H 103.672 6.28212 4.61486 0
M  V30 1173 N 107.901 -0.206675 1.56239 0
M  V30 1174 C 109.147 -0.930218 1.80208 0
M  V30 1175 C 109.48 -1.83387 0.638981 0
M  V30 1176 O 108.755 -1.91119 -0.361066 0
M  V30 1177 C 109.038 -1.75641 3.1436 0
M  V30 1178 C 108.891 -0.878257 4.41142 0
M  V30 1179 C 110.21 -2.73129 3.45092 0
M  V30 1180 H 107.329 -0.336742 0.655571 0
M  V30 1181 H 109.971 -0.198222 1.88963 0
M  V30 1182 H 108.121 -2.38048 3.07027 0
M  V30 1183 H 109.793 -0.269787 4.6051 0
M  V30 1184 H 108.036 -0.184385 4.33408 0
M  V30 1185 H 108.707 -1.49106 5.3148 0
M  V30 1186 H 111.183 -2.20856 3.52649 0
M  V30 1187 H 110.059 -3.28028 4.40101 0
M  V30 1188 H 110.32 -3.51606 2.68003 0
M  V30 1189 N 109.379 -1.50304 -0.473955 0
M  V30 1190 C 110.342 -1.6841 -1.55469 0
M  V30 1191 C 111.342 -0.554905 -1.50922 0
M  V30 1192 O 112.532 -0.821882 -1.53593 0
M  V30 1193 C 109.664 -1.70667 -2.95102 0
M  V30 1194 H 110.857 -2.64828 -1.40733 0
M  V30 1195 H 108.41 -1.39742 -0.700132 0
M  V30 1196 H 109.145 -0.75932 -3.15285 0
M  V30 1197 H 108.93 -2.52698 -2.9981 0
M  V30 1198 H 110.42 -1.8664 -3.73571 0
M  V30 1199 N 110.857 0.726932 -1.39834 0
M  V30 1200 C 111.82 1.82269 -1.38962 0
M  V30 1201 C 112.82 1.58248 -0.285334 0
M  V30 1202 O 114.01 1.65499 -0.54366 0
M  V30 1203 C 111.142 3.20186 -1.17019 0
M  V30 1204 H 112.335 1.84443 -2.36476 0
M  V30 1205 H 109.888 0.931416 -1.25516 0
M  V30 1206 H 110.623 3.23669 -0.202204 0
M  V30 1207 H 110.408 3.3902 -1.96998 0
M  V30 1208 H 111.898 4.00235 -1.1917 0
M  V30 1209 N 112.336 1.25143 0.95797 0
M  V30 1210 C 113.561 1.12521 1.74223 0
M  V30 1211 C 113.986 -0.317402 1.85403 0
M  V30 1212 O 113.344 -1.2299 1.33204 0
M  V30 1213 C 113.392 1.78062 3.1357 0
M  V30 1214 O 112.496 1.058 3.98598 0
M  V30 1215 H 111.837 0.39304 0.535178 0
M  V30 1216 H 114.367 1.65641 1.201 0
M  V30 1217 H 114.377 1.84213 3.64046 0
M  V30 1218 H 113.052 2.83021 3.04749 0
M  V30 1219 H 111.629 1.07506 3.57067 0
M  V30 1220 N 113.814 -1.1601 1.06675 0
M  V30 1221 C 115.06 -1.86909 0.786945 0
M  V30 1222 C 115.393 -1.81717 -0.685018 0
M  V30 1223 O 114.668 -1.23551 -1.50218 0
M  V30 1224 C 114.951 -3.36313 1.28707 0
M  V30 1225 C 114.804 -3.50175 2.82308 0
M  V30 1226 C 116.123 -4.3084 0.898071 0
M  V30 1227 H 113.242 -0.678677 0.287343 0
M  V30 1228 H 115.884 -1.36336 1.32334 0
M  V30 1229 H 114.034 -3.79513 0.830768 0
M  V30 1230 H 115.706 -3.15886 3.36175 0
M  V30 1231 H 113.949 -2.91959 3.20847 0
M  V30 1232 H 114.62 -4.55116 3.12368 0
M  V30 1233 H 117.096 -3.95561 1.29114 0
M  V30 1234 H 115.972 -5.33876 1.27543 0
M  V30 1235 H 116.233 -4.41662 -0.196651 0
M  V30 1236 N 115.292 -0.849877 -1.32721 0
M  V30 1237 C 116.222 -0.306308 -2.31482 0
M  V30 1238 C 117.203 0.591952 -1.59468 0
M  V30 1239 O 118.388 0.513199 -1.87296 0
M  V30 1240 C 115.518 0.510204 -3.43532 0
M  V30 1241 C 114.472 -0.293209 -4.26994 0
M  V30 1242 C 113.798 0.647743 -5.30762 0
M  V30 1243 C 115.098 -1.51634 -4.99804 0
M  V30 1244 H 116.792 -1.13153 -2.77195 0
M  V30 1245 H 114.338 -0.545553 -1.33266 0
M  V30 1246 H 116.291 0.900856 -4.11658 0
M  V30 1247 H 115.015 1.36874 -2.96535 0
M  V30 1248 H 113.674 -0.665555 -3.60508 0
M  V30 1249 H 113.322 1.50299 -4.8002 0
M  V30 1250 H 113.022 0.11422 -5.87489 0
M  V30 1251 H 114.546 1.03567 -6.01753 0
M  V30 1252 H 115.96 -1.19824 -5.60638 0
M  V30 1253 H 114.357 -1.98745 -5.66234 0
M  V30 1254 H 115.427 -2.28018 -4.27943 0
M  V30 1255 N 116.77 1.45427 -0.607355 0
M  V30 1256 C 117.718 2.32269 0.12411 0
M  V30 1257 C 118.712 1.45955 0.859854 0
M  V30 1258 O 119.918 1.6244 0.775447 0
M  V30 1259 H 116.293 0.749691 0.0588839 0
M  V30 1260 H 118.264 2.91743 -0.626762 0
M  V30 1261 C 117.013 3.29567 1.1082 0
M  V30 1262 H 116.336 3.95978 0.551492 0
M  V30 1263 H 117.776 3.93061 1.58995 0
M  V30 1264 C 116.235 2.56722 2.18164 0
M  V30 1265 O 116.765 2.34842 3.25902 0
M  V30 1266 N 114.971 2.16861 1.93442 0
M  V30 1267 H 114.518 2.34855 1.05834 0
M  V30 1268 H 114.476 1.68444 2.65469 0
M  V30 1269 N 118.248 0.346503 1.53744 0
M  V30 1270 C 119.659 -0.136779 1.86198 0
M  V30 1271 C 120.01 -1.49749 1.26766 0
M  V30 1272 O 119.135 -2.08417 0.582355 0
M  V30 1273 C 119.73 -0.254966 3.37839 0
M  V30 1274 C 118.289 -0.682482 3.70161 0
M  V30 1275 C 117.436 0.181981 2.76702 0
M  V30 1276 H 120.387 0.565994 1.48264 0
M  V30 1277 H 120.408 -1.08195 3.64793 0
M  V30 1278 H 119.92 0.735526 3.81066 0
M  V30 1279 H 118.021 -1.68189 3.3248 0
M  V30 1280 H 118.134 -0.470326 4.76786 0
M  V30 1281 H 116.498 -0.34615 2.52337 0
M  V30 1282 H 117.281 1.16966 3.2276 0
M  V30 1283 N 119.726 -1.57421 0.075193 0
M  V30 1284 C 120.956 -1.97659 -0.601203 0
M  V30 1285 C 121.364 -0.952427 -1.63479 0
M  V30 1286 O 120.707 0.0688241 -1.83571 0
M  V30 1287 C 120.769 -3.34218 -1.32434 0
M  V30 1288 C 120.433 -4.5484 -0.443826 0
M  V30 1289 C 121.43 -5.19034 0.299969 0
M  V30 1290 C 119.115 -5.00952 -0.367709 0
M  V30 1291 C 121.109 -6.27695 1.10807 0
M  V30 1292 C 118.796 -6.09484 0.444058 0
M  V30 1293 C 119.794 -6.72719 1.18061 0
M  V30 1294 O 119.482 -7.79161 1.97898 0
M  V30 1295 H 119.214 -0.65494 -0.167422 0
M  V30 1296 H 121.768 -2.04886 0.145157 0
M  V30 1297 H 119.998 -3.23615 -2.11685 0
M  V30 1298 H 121.687 -3.59038 -1.89331 0
M  V30 1299 H 122.453 -4.84351 0.250776 0
M  V30 1300 H 118.332 -4.51509 -0.930638 0
M  V30 1301 H 121.876 -6.76982 1.68347 0
M  V30 1302 H 117.773 -6.43601 0.494803 0
M  V30 1303 H 118.541 -7.96055 1.90367 0
M  V30 1304 N 121.204 0.198386 -1.56346 0
M  V30 1305 C 122.45 0.920648 -1.80698 0
M  V30 1306 C 122.783 1.83045 -0.648697 0
M  V30 1307 O 122.058 1.91308 0.350925 0
M  V30 1308 C 122.341 1.73971 -3.15287 0
M  V30 1309 C 122.194 0.85485 -4.41602 0
M  V30 1310 C 123.513 2.71296 -3.46535 0
M  V30 1311 H 120.632 0.333261 -0.657348 0
M  V30 1312 H 123.274 0.188198 -1.89066 0
M  V30 1313 H 121.424 2.36416 -3.08285 0
M  V30 1314 H 123.096 0.245362 -4.60647 0
M  V30 1315 H 121.339 0.161398 -4.335 0
M  V30 1316 H 122.01 1.46286 -5.32264 0
M  V30 1317 H 124.486 2.18983 -3.53816 0
M  V30 1318 H 123.362 3.2569 -4.41834 0
M  V30 1319 H 123.623 3.5018 -2.69864 0
M  V30 1320 N 122.682 1.50554 0.465978 0
M  V30 1321 C 123.629 1.6979 1.56333 0
M  V30 1322 C 124.599 0.539239 1.57103 0
M  V30 1323 O 125.784 0.770401 1.74555 0
M  V30 1324 C 122.924 1.80273 2.94271 0
M  V30 1325 C 122.037 3.07674 3.0325 0
M  V30 1326 C 121.172 3.08922 4.32135 0
M  V30 1327 C 120.211 4.30755 4.34875 0
M  V30 1328 N 119.348 4.29714 5.55239 0
M  V30 1329 H 124.188 2.63472 1.39235 0
M  V30 1330 H 121.725 1.30602 0.676873 0
M  V30 1331 H 123.683 1.84332 3.74269 0
M  V30 1332 H 122.313 0.900258 3.09992 0
M  V30 1333 H 121.365 3.13062 2.16094 0
M  V30 1334 H 122.677 3.97642 3.01135 0
M  V30 1335 H 121.831 3.11738 5.20485 0
M  V30 1336 H 120.57 2.16792 4.36866 0
M  V30 1337 H 119.575 4.28146 3.44922 0
M  V30 1338 H 120.8 5.24117 4.31831 0
M  V30 1339 H 118.746 3.4044 5.60746 0
M  V30 1340 H 118.663 5.13456 5.54886 0
M  V30 1341 H 119.931 4.36683 6.457 0
M  V30 1342 N 124.16 -0.719506 1.40217 0
M  V30 1343 C 125.576 -1.02707 1.22161 0
M  V30 1344 C 125.776 -2.0128 0.0940557 0
M  V30 1345 O 124.832 -2.46452 -0.549318 0
M  V30 1346 C 126.145 -1.57454 2.56181 0
M  V30 1347 C 127.693 -1.69458 2.63159 0
M  V30 1348 C 128.168 -2.27611 3.97438 0
M  V30 1349 N 129.659 -2.35002 3.99159 0
M  V30 1350 C 130.394 -2.80972 4.99842 0
M  V30 1351 N 129.89 -3.26723 6.10921 0
M  V30 1352 N 131.683 -2.80321 4.87213 0
M  V30 1353 H 123.834 -0.0660492 2.12297 0
M  V30 1354 H 126.097 -0.0919077 0.943534 0
M  V30 1355 H 125.803 -0.924873 3.39321 0
M  V30 1356 H 125.677 -2.56036 2.76993 0
M  V30 1357 H 128.064 -2.33543 1.80393 0
M  V30 1358 H 128.145 -0.694867 2.46181 0
M  V30 1359 H 127.789 -1.6415 4.80643 0
M  V30 1360 H 127.719 -3.2829 4.11744 0
M  V30 1361 H 130.21 -2.02685 3.18947 0
M  V30 1362 H 130.523 -3.60355 6.8364 0
M  V30 1363 H 128.868 -3.24692 6.14492 0
M  V30 1364 H 132.059 -2.43912 3.9953 0
M  V30 1365 H 132.232 -3.15831 5.65822 0
M  V30 1366 N 125.638 -1.25649 -0.95132 0
M  V30 1367 C 126.863 -1.13443 -1.73624 0
M  V30 1368 C 127.288 0.307565 -1.85568 0
M  V30 1369 O 126.646 1.22282 -1.33854 0
M  V30 1370 C 126.694 -1.79723 -3.12621 0
M  V30 1371 O 125.798 -1.07912 -3.98031 0
M  V30 1372 H 125.139 -0.395872 -0.533086 0
M  V30 1373 H 127.669 -1.66276 -1.1922 0
M  V30 1374 H 127.679 -1.86141 -3.63064 0
M  V30 1375 H 126.354 -2.84633 -3.03244 0
M  V30 1376 H 124.931 -1.09398 -3.56492 0
M  V30 1377 N 127.117 1.15442 -1.07289 0
M  V30 1378 C 128.366 1.85557 -0.790669 0
M  V30 1379 C 128.679 1.83186 0.685739 0
M  V30 1380 O 129.885 2.48977 1.0827 0
M  V30 1381 C 128.341 3.33038 -1.36433 0
M  V30 1382 C 127.949 3.43856 -2.8717 0
M  V30 1383 C 129.693 4.0834 -1.1601 0
M  V30 1384 C 127.6 4.85482 -3.3773 0
M  V30 1385 H 126.53 0.695122 -0.292098 0
M  V30 1386 H 129.181 1.30219 -1.29287 0
M  V30 1387 H 127.563 3.88043 -0.789864 0
M  V30 1388 H 128.737 2.98961 -3.50655 0
M  V30 1389 H 127.052 2.81998 -3.06376 0
M  V30 1390 H 129.649 5.12859 -1.51262 0
M  V30 1391 H 129.992 4.16182 -0.0991007 0
M  V30 1392 H 130.525 3.59603 -1.70089 0
M  V30 1393 H 127.264 4.82823 -4.43353 0
M  V30 1394 H 126.784 5.30961 -2.78999 0
M  V30 1395 H 128.463 5.54335 -3.33648 0
M  V30 1396 N 128.595 0.856903 1.32268 0
M  V30 1397 C 129.542 0.301172 2.28827 0
M  V30 1398 C 130.512 -0.593104 1.5515 0
M  V30 1399 O 131.697 -0.527537 1.83362 0
M  V30 1400 C 128.837 -0.502523 3.41422 0
M  V30 1401 C 127.95 0.417797 4.29975 0
M  V30 1402 C 127.085 -0.398749 5.29701 0
M  V30 1403 C 126.124 0.518827 6.09897 0
M  V30 1404 N 125.261 -0.260674 7.01616 0
M  V30 1405 H 130.101 1.12983 2.75751 0
M  V30 1406 H 127.638 0.568582 1.35667 0
M  V30 1407 H 129.596 -0.984141 4.05426 0
M  V30 1408 H 128.226 -1.29599 2.95642 0
M  V30 1409 H 127.278 1.01781 3.66531 0
M  V30 1410 H 128.59 1.12191 4.86019 0
M  V30 1411 H 127.744 -0.943435 5.9932 0
M  V30 1412 H 126.483 -1.13622 4.7428 0
M  V30 1413 H 125.488 1.07538 5.39181 0
M  V30 1414 H 126.713 1.25495 6.67404 0
M  V30 1415 H 124.659 -0.981198 6.4862 0
M  V30 1416 H 124.576 0.384364 7.55022 0
M  V30 1417 H 125.844 -0.787014 7.75517 0
M  V30 1418 N 130.073 -1.45103 0.615059 0
M  V30 1419 C 131.319 -2.02483 0.113347 0
M  V30 1420 C 131.652 -1.48146 -1.25564 0
M  V30 1421 O 130.927 -0.659104 -1.82992 0
M  V30 1422 C 131.21 -3.60005 0.0825278 0
M  V30 1423 C 131.063 -4.2466 1.48271 0
M  V30 1424 C 132.382 -4.35972 -0.601401 0
M  V30 1425 H 129.501 -0.735764 0.0426632 0
M  V30 1426 H 132.143 -1.72868 0.788461 0
M  V30 1427 H 130.293 -3.85367 -0.492378 0
M  V30 1428 H 131.965 -4.10458 2.10527 0
M  V30 1429 H 130.208 -3.82772 2.04127 0
M  V30 1430 H 130.879 -5.336 1.41332 0
M  V30 1431 H 133.355 -4.15947 -0.112666 0
M  V30 1432 H 132.231 -5.45697 -0.592097 0
M  V30 1433 H 132.492 -4.09391 -1.66887 0
M  V30 1434 N 131.551 -0.354651 -1.53558 0
M  V30 1435 C 132.498 0.496968 -2.25386 0
M  V30 1436 C 133.468 1.0865 -1.25636 0
M  V30 1437 O 134.653 1.12104 -1.54394 0
M  V30 1438 C 131.793 1.63637 -3.03837 0
M  V30 1439 C 130.906 1.07307 -4.18461 0
M  V30 1440 C 130.041 2.18068 -4.84376 0
M  V30 1441 C 129.08 1.59147 -5.91049 0
M  V30 1442 N 128.217 2.63695 -6.50699 0
M  V30 1443 H 133.057 -0.122075 -2.9775 0
M  V30 1444 H 130.594 -0.0720154 -1.46924 0
M  V30 1445 H 132.552 2.30734 -3.47589 0
M  V30 1446 H 131.182 2.22623 -2.33749 0
M  V30 1447 H 130.234 0.292708 -3.79272 0
M  V30 1448 H 131.546 0.602193 -4.95152 0
M  V30 1449 H 130.7 2.93007 -5.31255 0
M  V30 1450 H 129.439 2.68504 -4.07133 0
M  V30 1451 H 128.444 0.827175 -5.43542 0
M  V30 1452 H 129.669 1.09549 -6.70206 0
M  V30 1453 H 127.615 3.13365 -5.76315 0
M  V30 1454 H 127.532 2.21263 -7.22896 0
M  V30 1455 H 128.8 3.3837 -7.02229 0
M  V30 1456 N 133.029 1.57378 -0.0835403 0
M  V30 1457 C 134.254 1.98682 0.594987 0
M  V30 1458 C 134.679 0.961969 1.61641 0
M  V30 1459 O 134.037 -0.0709989 1.81161 0
M  V30 1460 C 134.085 3.38988 1.2296 0
M  V30 1461 O 133.189 3.39208 2.34546 0
M  V30 1462 H 132.53 0.646368 0.152002 0
M  V30 1463 H 135.06 2.03961 -0.161533 0
M  V30 1464 H 135.07 3.76431 1.57366 0
M  V30 1465 H 133.745 4.13107 0.481228 0
M  V30 1466 H 132.322 3.13548 2.01846 0
M  V30 1467 N 134.507 -0.190092 1.56449 0
M  V30 1468 C 135.437 -1.23816 1.97969 0
M  V30 1469 C 136.418 -1.47201 0.852395 0
M  V30 1470 O 137.603 -1.58854 1.1171 0
M  V30 1471 C 134.733 -2.5813 2.3235 0
M  V30 1472 C 133.687 -2.49348 3.47864 0
M  V30 1473 C 133.013 -3.8798 3.67934 0
M  V30 1474 C 134.313 -2.01424 4.81898 0
M  V30 1475 H 136.007 -0.89311 2.85769 0
M  V30 1476 H 133.553 -0.428177 1.37487 0
M  V30 1477 H 135.506 -3.31637 2.59991 0
M  V30 1478 H 134.23 -2.94386 1.41438 0
M  V30 1479 H 132.889 -1.78297 3.20321 0
M  V30 1480 H 132.537 -4.21597 2.74344 0
M  V30 1481 H 132.237 -3.82978 4.45648 0
M  V30 1482 H 133.761 -4.63101 3.97957 0
M  V30 1483 H 135.175 -2.64693 5.08538 0
M  V30 1484 H 133.572 -2.07413 5.63116 0
M  V30 1485 H 134.642 -0.967677 4.75146 0
M  V30 1486 N 135.985 -1.50799 -0.457987 0
M  V30 1487 C 136.933 -1.71162 -1.575 0
M  V30 1488 C 137.927 -0.577592 -1.59249 0
M  V30 1489 O 139.133 -0.758443 -1.63241 0
M  V30 1490 H 135.508 -0.540468 -0.522875 0
M  V30 1491 H 137.479 -2.64837 -1.37492 0
M  V30 1492 C 136.228 -1.83496 -2.95338 0
M  V30 1493 H 135.551 -2.70153 -2.94716 0
M  V30 1494 H 136.991 -2.01765 -3.72917 0
M  V30 1495 C 135.45 -0.589694 -3.31699 0
M  V30 1496 O 135.98 0.265163 -4.00824 0
M  V30 1497 N 134.186 -0.439845 -2.87252 0
M  V30 1498 H 133.733 -1.13655 -2.31172 0
M  V30 1499 H 133.691 0.392159 -3.11945 0
M  V30 1500 N 137.463 0.71206 -1.40597 0
M  V30 1501 C 138.74 1.46536 -1.29563 0
M  V30 1502 C 139.12 2.10931 0.0844217 0
M  V30 1503 O 138.468 2.00418 1.0975 0
M  V30 1504 C 138.678 2.49821 -2.43701 0
M  V30 1505 C 140.026 3.15551 -2.841 0
M  V30 1506 O 141.05 2.60142 -2.4332 0
M  V30 1507 O 139.909 4.15867 -3.54566 0
M  V30 1508 H 137.003 0.651801 -0.509004 0
M  V30 1509 H 139.549 0.743935 -1.52524 0
M  V30 1510 H 138.321 2.00778 -3.35863 0
M  V30 1511 H 137.944 3.29495 -2.22528 0
M  V30 1512 N 138.941 1.26152 0.944643 0
M  V30 1513 C 140.19 1.10883 1.68487 0
M  V30 1514 C 140.503 -0.348153 1.92477 0
M  V30 1515 O 141.709 -0.621459 2.64292 0
M  V30 1516 C 140.165 1.93624 3.03377 0
M  V30 1517 C 139.773 3.43875 2.87148 0
M  V30 1518 C 141.517 1.86954 3.81115 0
M  V30 1519 C 139.424 4.18875 4.1749 0
M  V30 1520 H 138.354 0.41135 0.631907 0
M  V30 1521 H 141.005 1.50433 1.05082 0
M  V30 1522 H 139.387 1.46904 3.67743 0
M  V30 1523 H 140.561 3.98338 2.31653 0
M  V30 1524 H 138.876 3.51744 2.22856 0
M  V30 1525 H 141.473 2.40275 4.77673 0
M  V30 1526 H 141.816 0.839518 4.07747 0
M  V30 1527 H 142.349 2.31477 3.23517 0
M  V30 1528 H 139.088 5.22332 3.96043 0
M  V30 1529 H 138.608 3.69193 4.72712 0
M  V30 1530 H 140.287 4.27134 4.85968 0
M  V30 1531 N 140.419 -1.14872 1.07899 0
M  V30 1532 C 141.647 -1.89661 0.82683 0
M  V30 1533 C 142.062 -1.78312 -0.620519 0
M  V30 1534 O 141.419 -1.13888 -1.42604 0
M  V30 1535 C 141.47 -3.39817 1.23316 0
M  V30 1536 O 141.191 -3.50845 2.62372 0
M  V30 1537 C 142.692 -4.31615 1.0111 0
M  V30 1538 H 139.912 -0.60092 0.298557 0
M  V30 1539 H 142.456 -1.4551 1.43691 0
M  V30 1540 H 140.611 -3.8161 0.667286 0
M  V30 1541 H 141.025 -4.44076 2.79101 0
M  V30 1542 H 142.499 -5.35367 1.34486 0
M  V30 1543 H 142.976 -4.39169 -0.0522168 0
M  V30 1544 H 143.582 -3.95572 1.56215 0
M  V30 1545 N 141.898 -0.863906 -1.31812 0
M  V30 1546 C 142.861 -0.320212 -2.26952 0
M  V30 1547 C 143.861 0.525369 -1.51975 0
M  V30 1548 O 145.051 0.335547 -1.70938 0
M  V30 1549 C 142.183 0.545919 -3.365 0
M  V30 1550 H 143.376 -1.16004 -2.76556 0
M  V30 1551 H 140.929 -0.638995 -1.42641 0
M  V30 1552 H 141.664 1.40718 -2.92179 0
M  V30 1553 H 141.449 -0.0594674 -3.92055 0
M  V30 1554 H 142.939 0.918796 -4.07367 0
M  V30 1555 N 143.376 1.44774 -0.622745 0
M  V30 1556 C 144.323 2.30635 0.0871679 0
M  V30 1557 C 145.293 1.42994 0.845097 0
M  V30 1558 O 146.478 1.71907 0.827812 0
M  V30 1559 C 143.618 3.28144 1.06844 0
M  V30 1560 C 142.731 4.30888 0.309809 0
M  V30 1561 C 141.866 5.15494 1.28215 0
M  V30 1562 C 140.905 6.09953 0.512198 0
M  V30 1563 N 140.042 6.87287 1.43458 0
M  V30 1564 H 144.882 2.90803 -0.650974 0
M  V30 1565 H 142.419 1.43286 -0.33281 0
M  V30 1566 H 144.377 3.83157 1.65066 0
M  V30 1567 H 143.007 2.69695 1.77382 0
M  V30 1568 H 142.059 3.78414 -0.388181 0
M  V30 1569 H 143.371 4.97955 -0.290254 0
M  V30 1570 H 142.525 5.74983 1.93596 0
M  V30 1571 H 141.264 4.48481 1.91614 0
M  V30 1572 H 140.269 5.49581 -0.155151 0
M  V30 1573 H 141.494 6.78999 -0.116958 0
M  V30 1574 H 139.44 6.2295 2.05594 0
M  V30 1575 H 139.357 7.50763 0.888335 0
M  V30 1576 H 140.625 7.51306 2.07749 0
M  V30 1577 N 144.854 0.36279 1.53368 0
M  V30 1578 C 145.764 -0.492994 2.29362 0
M  V30 1579 C 146.78 -1.09507 1.35219 0
M  V30 1580 O 147.956 -1.10662 1.68273 0
M  V30 1581 C 145.021 -1.61855 3.066 0
M  V30 1582 C 144.082 -1.04429 4.16405 0
M  V30 1583 C 143.315 -2.11621 4.89951 0
M  V30 1584 O 143.538 -3.32684 4.63333 0
M  V30 1585 O 142.472 -1.74835 5.75948 0
M  V30 1586 H 146.298 0.125331 3.03441 0
M  V30 1587 H 143.883 0.127253 1.48857 0
M  V30 1588 H 145.765 -2.27302 3.54841 0
M  V30 1589 H 144.44 -2.22233 2.3536 0
M  V30 1590 H 143.347 -0.353819 3.72423 0
M  V30 1591 H 144.68 -0.485113 4.89804 0
M  V30 1592 N 146.332 -1.57332 0.0918853 0
M  V30 1593 C 147.748 -1.57389 -0.264766 0
M  V30 1594 C 147.948 -1.10281 -1.68643 0
M  V30 1595 O 147.004 -0.777801 -2.40222 0
M  V30 1596 C 148.317 -3.00648 -0.0561195 0
M  V30 1597 C 149.865 -3.12754 -0.124116 0
M  V30 1598 C 150.34 -4.57965 0.0564972 0
M  V30 1599 N 151.831 -4.632 0.00155611 0
M  V30 1600 C 152.566 -5.73281 0.116598 0
M  V30 1601 N 152.062 -6.92208 0.286294 0
M  V30 1602 N 153.855 -5.6207 0.0580973 0
M  V30 1603 H 146.006 -1.86262 1.02079 0
M  V30 1604 H 148.269 -0.859579 0.399786 0
M  V30 1605 H 147.975 -3.393 0.925669 0
M  V30 1606 H 147.849 -3.68623 -0.799823 0
M  V30 1607 H 150.236 -2.73976 -1.09641 0
M  V30 1608 H 150.317 -2.47377 0.651024 0
M  V30 1609 H 149.961 -4.97436 1.02564 0
M  V30 1610 H 149.891 -5.21399 -0.738297 0
M  V30 1611 H 152.382 -3.77686 -0.127192 0
M  V30 1612 H 152.695 -7.71934 0.365676 0
M  V30 1613 H 151.04 -6.94254 0.32192 0
M  V30 1614 H 154.231 -4.68043 -0.0733204 0
M  V30 1615 H 154.404 -6.47824 0.151203 0
M  V30 1616 N 147.81 0.181792 -1.56548 0
M  V30 1617 C 149.057 0.900097 -1.81396 0
M  V30 1618 C 149.385 1.82695 -0.667281 0
M  V30 1619 O 148.64 1.92614 0.346146 0
M  V30 1620 C 148.939 1.73728 -3.12335 0
M  V30 1621 C 148.605 0.960255 -4.40556 0
M  V30 1622 C 147.267 0.745766 -4.75386 0
M  V30 1623 C 149.619 0.414477 -5.19549 0
M  V30 1624 C 146.947 -0.0257694 -5.86694 0
M  V30 1625 C 149.299 -0.343916 -6.31664 0
M  V30 1626 C 147.963 -0.569301 -6.65068 0
M  V30 1627 H 147.233 0.329369 -0.663775 0
M  V30 1628 H 149.88 0.165647 -1.90782 0
M  V30 1629 H 148.185 2.54081 -2.98245 0
M  V30 1630 H 149.882 2.29591 -3.28769 0
M  V30 1631 H 146.472 1.13746 -4.13231 0
M  V30 1632 H 150.656 0.567554 -4.93044 0
M  V30 1633 H 145.912 -0.210233 -6.11038 0
M  V30 1634 H 150.086 -0.774133 -6.92084 0
M  V30 1635 H 147.713 -1.16903 -7.51158 0
M  V30 1636 N 149.288 1.51039 0.449983 0
M  V30 1637 C 150.513 1.6715 1.22783 0
M  V30 1638 C 150.938 0.363081 1.84563 0
M  V30 1639 O 150.296 -0.675433 1.68249 0
M  V30 1640 C 150.344 2.77985 2.29689 0
M  V30 1641 O 149.448 2.40707 3.34864 0
M  V30 1642 H 148.789 0.557746 0.360299 0
M  V30 1643 H 151.319 1.97535 0.533005 0
M  V30 1644 H 151.329 3.01693 2.74673 0
M  V30 1645 H 150.004 3.72935 1.84098 0
M  V30 1646 H 148.581 2.27523 2.95445 0
M  V30 1647 N 150.766 -0.704594 1.40972 0
M  V30 1648 C 152.177 -1.28418 1.3552 0
M  V30 1649 C 152.528 -1.96171 0.0339434 0
M  V30 1650 O 151.653 -1.98231 -0.867944 0
M  V30 1651 C 152.248 -2.33528 2.45459 0
M  V30 1652 C 150.807 -2.87085 2.43433 0
M  V30 1653 C 149.954 -1.61007 2.2577 0
M  V30 1654 H 152.905 -0.499963 1.50619 0
M  V30 1655 H 152.926 -3.14619 2.13998 0
M  V30 1656 H 152.438 -1.84187 3.41609 0
M  V30 1657 H 150.539 -3.40626 1.51013 0
M  V30 1658 H 150.652 -3.3813 3.39419 0
M  V30 1659 H 149.016 -1.86482 1.73483 0
M  V30 1660 H 149.799 -1.13675 3.23933 0
M  V30 1661 N 152.244 -1.26651 -0.937939 0
M  V30 1662 C 153.174 -1.10993 -2.05433 0
M  V30 1663 C 154.155 -0.0142161 -1.70094 0
M  V30 1664 O 155.34 -0.186837 -1.93299 0
M  V30 1665 C 152.47 -0.745561 -3.39203 0
M  V30 1666 C 151.424 -1.79337 -3.88616 0
M  V30 1667 C 150.75 -1.28324 -5.19073 0
M  V30 1668 C 152.05 -3.19553 -4.13138 0
M  V30 1669 H 153.744 -2.0438 -2.1879 0
M  V30 1670 H 151.29 -0.984041 -1.05131 0
M  V30 1671 H 153.243 -0.622888 -4.16771 0
M  V30 1672 H 151.967 0.22401 -3.25831 0
M  V30 1673 H 150.626 -1.90477 -3.13231 0
M  V30 1674 H 150.274 -0.303414 -5.02084 0
M  V30 1675 H 149.974 -1.98369 -5.53103 0
M  V30 1676 H 151.498 -1.1733 -5.99221 0
M  V30 1677 H 152.912 -3.11471 -4.81309 0
M  V30 1678 H 151.309 -3.87218 -4.58457 0
M  V30 1679 H 152.379 -3.65368 -3.18801 0
M  V30 1680 N 153.722 1.14298 -1.08507 0
M  V30 1681 C 154.95 1.89219 -0.836876 0
M  V30 1682 C 155.365 1.78638 0.611054 0
M  V30 1683 O 154.722 1.14643 1.41998 0
M  V30 1684 C 154.773 3.39158 -1.25116 0
M  V30 1685 O 154.494 3.49449 -2.64229 0
M  V30 1686 C 155.995 4.31073 -1.03398 0
M  V30 1687 H 153.215 0.599328 -0.301739 0
M  V30 1688 H 155.759 1.44746 -1.44461 0
M  V30 1689 H 153.914 3.81251 -0.687514 0
M  V30 1690 H 154.328 4.42589 -2.81452 0
M  V30 1691 H 155.802 5.34646 -1.37323 0
M  V30 1692 H 156.279 4.3919 0.0289259 0
M  V30 1693 H 156.885 3.94738 -1.58311 0
M  V30 1694 N 155.201 0.870884 1.31352 0
M  V30 1695 C 156.429 0.49677 2.00848 0
M  V30 1696 C 156.844 -0.910998 1.65367 0
M  V30 1697 O 156.201 -1.59696 0.883374 0
M  V30 1698 C 156.252 0.645308 3.55694 0
M  V30 1699 O 155.973 1.99764 3.89905 0
M  V30 1700 C 157.474 0.272326 4.42463 0
M  V30 1701 H 154.694 0.193462 0.642506 0
M  V30 1702 H 157.238 1.1723 1.67563 0
M  V30 1703 H 155.393 0.0173176 3.87396 0
M  V30 1704 H 155.807 2.00607 4.84621 0
M  V30 1705 H 157.281 0.427208 5.50344 0
M  V30 1706 H 157.758 -0.788587 4.32062 0
M  V30 1707 H 158.364 0.876054 4.1618 0
M  V30 1708 N 156.679 -1.44442 0.630414 0
M  V30 1709 C 157.627 -2.32437 -0.0871428 0
M  V30 1710 C 158.621 -1.47304 -0.836525 0
M  V30 1711 O 159.827 -1.63653 -0.749506 0
M  V30 1712 H 156.202 -0.750533 -0.0469495 0
M  V30 1713 H 158.173 -2.90709 0.673096 0
M  V30 1714 C 156.922 -3.31288 -1.05563 0
M  V30 1715 H 156.245 -3.96805 -0.488426 0
M  V30 1716 H 157.685 -3.9554 -1.52721 0
M  V30 1717 C 156.144 -2.6016 -2.14052 0
M  V30 1718 O 156.674 -2.39997 -3.22124 0
M  V30 1719 N 154.88 -2.19911 -1.89967 0
M  V30 1720 H 154.427 -2.36509 -1.02085 0
M  V30 1721 H 154.385 -1.72646 -2.62756 0
M  V30 1722 N 158.157 -0.370918 -1.53173 0
M  V30 1723 C 159.087 0.464847 -2.28826 0
M  V30 1724 C 160.068 1.07936 -1.31468 0
M  V30 1725 O 161.253 1.0956 -1.60344 0
M  V30 1726 C 158.383 1.60196 -3.08147 0
M  V30 1727 C 157.337 1.11443 -4.13237 0
M  V30 1728 C 156.663 2.3422 -4.80672 0
M  V30 1729 C 157.963 0.195384 -5.21934 0
M  V30 1730 H 159.657 -0.166329 -2.98938 0
M  V30 1731 H 157.203 -0.0814359 -1.4377 0
M  V30 1732 H 159.156 2.19332 -3.59822 0
M  V30 1733 H 157.88 2.26045 -2.35735 0
M  V30 1734 H 156.539 0.545727 -3.62515 0
M  V30 1735 H 156.187 2.98537 -4.04827 0
M  V30 1736 H 155.887 2.02269 -5.51689 0
M  V30 1737 H 157.411 2.94032 -5.35143 0
M  V30 1738 H 158.825 0.694375 -5.69079 0
M  V30 1739 H 157.222 -0.0335027 -6.00091 0
M  V30 1740 H 158.292 -0.760961 -4.78892 0
M  V30 1741 N 159.635 1.57281 -0.100228 0
M  V30 1742 C 160.884 1.93713 0.561984 0
M  V30 1743 C 161.197 0.984492 1.69018 0
M  V30 1744 O 162.403 1.24273 2.41389 0
M  V30 1745 C 160.859 3.4421 1.05106 0
M  V30 1746 C 160.467 4.47975 -0.0476628 0
M  V30 1747 C 162.211 3.89595 1.68571 0
M  V30 1748 C 160.118 5.89631 0.457055 0
M  V30 1749 H 159.048 0.723082 0.2137 0
M  V30 1750 H 161.699 1.82644 -0.177057 0
M  V30 1751 H 160.081 3.50449 1.84395 0
M  V30 1752 H 161.255 4.53385 -0.823333 0
M  V30 1753 H 159.57 4.1223 -0.587816 0
M  V30 1754 H 162.167 4.92832 2.07414 0
M  V30 1755 H 162.51 3.28526 2.55688 0
M  V30 1756 H 163.043 3.86078 0.958562 0
M  V30 1757 H 159.782 6.54411 -0.377616 0
M  V30 1758 H 159.302 5.87681 1.19962 0
M  V30 1759 H 160.981 6.40363 0.92437 0
M  V30 1760 N 161.113 -0.173488 1.56642 0
M  V30 1761 C 162.061 -1.23417 1.97157 0
M  V30 1762 C 163.055 -1.45946 0.860013 0
M  V30 1763 O 164.261 -1.46551 1.04512 0
M  V30 1764 H 160.636 -0.414818 0.62724 0
M  V30 1765 H 162.607 -0.865582 2.8557 0
M  V30 1766 C 161.356 -2.5665 2.34576 0
M  V30 1767 H 160.679 -2.40137 3.19647 0
M  V30 1768 H 162.119 -3.2956 2.6677 0
M  V30 1769 C 160.578 -3.15245 1.18836 0
M  V30 1770 O 161.108 -3.98883 0.474869 0
M  V30 1771 N 159.314 -2.74303 0.959497 0
M  V30 1772 H 158.861 -2.0639 1.54146 0
M  V30 1773 H 158.819 -3.13844 0.186932 0
M  V30 1774 N 162.591 -1.51276 -0.441967 0
M  V30 1775 C 163.521 -1.752 -1.54361 0
M  V30 1776 C 164.502 -0.601682 -1.59103 0
M  V30 1777 O 165.687 -0.843913 -1.74905 0
M  V30 1778 C 162.817 -1.87282 -2.92477 0
M  V30 1779 C 161.771 -3.02687 -3.02596 0
M  V30 1780 C 161.097 -2.99947 -4.42647 0
M  V30 1781 C 162.397 -4.4273 -2.77106 0
M  V30 1782 H 164.091 -2.67442 -1.34592 0
M  V30 1783 H 161.637 -1.28694 -0.646048 0
M  V30 1784 H 163.59 -2.02602 -3.695 0
M  V30 1785 H 162.314 -0.916844 -3.13467 0
M  V30 1786 H 160.973 -2.87065 -2.28012 0
M  V30 1787 H 160.621 -2.02136 -4.60597 0
M  V30 1788 H 160.321 -3.77439 -4.50348 0
M  V30 1789 H 161.845 -3.17354 -5.2165 0
M  V30 1790 H 163.259 -4.58727 -3.43864 0
M  V30 1791 H 161.656 -5.21893 -2.96222 0
M  V30 1792 H 162.726 -4.53087 -1.72744 0
M  V30 1793 N 164.069 0.697108 -1.41344 0
M  V30 1794 C 164.999 1.82353 -1.45841 0
M  V30 1795 C 165.98 1.67115 -0.317247 0
M  V30 1796 O 167.165 1.86871 -0.528474 0
M  V30 1797 C 164.295 3.20476 -1.33838 0
M  V30 1798 C 163.249 3.50415 -2.4575 0
M  V30 1799 C 162.575 4.87878 -2.18813 0
M  V30 1800 C 163.875 3.49546 -3.88091 0
M  V30 1801 H 165.569 1.78846 -2.40113 0
M  V30 1802 H 163.115 0.859028 -1.15571 0
M  V30 1803 H 165.068 3.98988 -1.35596 0
M  V30 1804 H 163.792 3.24604 -0.360498 0
M  V30 1805 H 162.451 2.74253 -2.43271 0
M  V30 1806 H 162.099 4.8863 -1.19371 0
M  V30 1807 H 161.799 5.08875 -2.93803 0
M  V30 1808 H 163.323 5.68702 -2.22284 0
M  V30 1809 H 164.737 4.18066 -3.92293 0
M  V30 1810 H 163.134 3.82075 -4.62751 0
M  V30 1811 H 164.204 2.48552 -4.16353 0
M  V30 1812 N 165.547 1.27147 0.931209 0
M  V30 1813 C 166.51 1.09615 2.01289 0
M  V30 1814 C 167.51 0.0412581 1.60747 0
M  V30 1815 O 168.7 0.285545 1.71844 0
M  V30 1816 C 165.832 0.669447 3.34262 0
M  V30 1817 H 167.025 2.05662 2.18273 0
M  V30 1818 H 164.578 1.09885 1.11153 0
M  V30 1819 H 165.313 -0.292572 3.22978 0
M  V30 1820 H 165.098 1.43127 3.65044 0
M  V30 1821 H 166.588 0.568921 4.13706 0
M  V30 1822 N 167.025 -1.13721 1.09112 0
M  V30 1823 C 167.935 -2.22638 0.73957 0
M  V30 1824 C 168.951 -1.72091 -0.257068 0
M  V30 1825 O 170.127 -2.01155 -0.0992154 0
M  V30 1826 C 167.192 -3.46322 0.16191 0
M  V30 1827 C 166.253 -4.11775 1.21408 0
M  V30 1828 C 165.486 -5.29555 0.663891 0
M  V30 1829 O 165.709 -5.68077 -0.514274 0
M  V30 1830 O 164.643 -5.84973 1.41738 0
M  V30 1831 H 168.469 -2.55074 1.64836 0
M  V30 1832 H 166.054 -1.21791 0.865289 0
M  V30 1833 H 167.936 -4.21107 -0.157073 0
M  V30 1834 H 166.611 -3.15593 -0.719932 0
M  V30 1835 H 165.518 -3.3883 1.58571 0
M  V30 1836 H 166.851 -4.46627 2.06845 0
M  V30 1837 N 168.503 -0.877838 -1.30888 0
M  V30 1838 C 169.451 -0.328662 -2.30266 0
M  V30 1839 C 170.445 0.560496 -1.59859 0
M  V30 1840 O 171.651 0.445722 -1.74394 0
M  V30 1841 H 168.026 -0.0876142 -0.746879 0
M  V30 1842 H 169.997 -1.18061 -2.74051 0
M  V30 1843 C 168.746 0.448071 -3.44801 0
M  V30 1844 H 168.069 -0.226859 -3.99156 0
M  V30 1845 H 169.509 0.797541 -4.16432 0
M  V30 1846 C 167.968 1.64239 -2.94155 0
M  V30 1847 O 168.498 2.74175 -2.93583 0
M  V30 1848 N 166.704 1.47716 -2.50256 0
M  V30 1849 H 166.251 0.582821 -2.5092 0
M  V30 1850 H 166.209 2.27765 -2.16727 0
M  V30 1851 N 169.982 1.44106 -0.638065 0
M  V30 1852 C 171.23 2.01579 -0.145043 0
M  V30 1853 C 171.551 1.50496 1.24 0
M  V30 1854 O 170.821 0.711374 1.82527 0
M  V30 1855 H 169.401 0.745282 -0.05063 0
M  V30 1856 H 172.063 1.76516 -0.826327 0
M  V30 1857 H 171.159 3.11877 -0.118039 0
M  V30 1858 N 171.46 0.379036 1.52974 0
M  V30 1859 C 172.876 0.0285448 1.59574 0
M  V30 1860 C 173.076 -1.45542 1.39355 0
M  V30 1861 O 172.132 -2.2187 1.20541 0
M  V30 1862 C 173.445 0.496535 2.96572 0
M  V30 1863 C 174.993 0.451909 3.0972 0
M  V30 1864 C 175.468 0.895924 4.49152 0
M  V30 1865 N 176.959 0.851522 4.55306 0
M  V30 1866 C 177.694 1.16661 5.61407 0
M  V30 1867 N 177.19 1.55166 6.752 0
M  V30 1868 N 178.983 1.08853 5.51459 0
M  V30 1869 H 171.134 1.34525 1.64367 0
M  V30 1870 H 173.397 0.550733 0.771619 0
M  V30 1871 H 173.103 1.53258 3.16552 0
M  V30 1872 H 172.977 -0.109802 3.7704 0
M  V30 1873 H 175.364 -0.575029 2.89443 0
M  V30 1874 H 175.445 1.09392 2.3123 0
M  V30 1875 H 175.089 1.92104 4.70168 0
M  V30 1876 H 175.019 0.23103 5.26093 0
M  V30 1877 H 177.51 0.568038 3.73606 0
M  V30 1878 H 177.823 1.776 7.52116 0
M  V30 1879 H 176.168 1.59044 6.76557 0
M  V30 1880 H 179.359 0.786803 4.6144 0
M  V30 1881 H 179.532 1.33742 6.34048 0
M  V30 1882 N 172.938 -1.57226 0.108567 0
M  V30 1883 C 173.868 -2.17778 -0.84232 0
M  V30 1884 C 174.849 -1.11487 -1.2847 0
M  V30 1885 O 176.034 -1.39681 -1.34918 0
M  V30 1886 C 173.164 -2.76888 -2.09644 0
M  V30 1887 C 172.118 -3.88669 -1.79221 0
M  V30 1888 C 171.444 -4.34541 -3.11574 0
M  V30 1889 C 172.744 -5.11251 -1.06864 0
M  V30 1890 H 174.438 -2.97489 -0.337774 0
M  V30 1891 H 171.984 -1.43097 -0.161025 0
M  V30 1892 H 173.937 -3.17904 -2.76614 0
M  V30 1893 H 172.661 -1.94451 -2.62405 0
M  V30 1894 H 171.32 -3.48213 -1.14644 0
M  V30 1895 H 170.968 -3.48977 -3.62249 0
M  V30 1896 H 170.668 -5.09914 -2.91996 0
M  V30 1897 H 172.192 -4.782 -3.7968 0
M  V30 1898 H 173.606 -5.49352 -1.63968 0
M  V30 1899 H 172.003 -5.9214 -0.974178 0
M  V30 1900 H 173.073 -4.8487 -0.0536168 0
M  V30 1901 N 174.416 0.165178 -1.56732 0
M  V30 1902 C 175.641 0.900253 -1.86843 0
M  V30 1903 C 176.066 1.74766 -0.695596 0
M  V30 1904 O 175.424 1.77786 0.35522 0
M  V30 1905 C 175.472 1.74777 -3.15413 0
M  V30 1906 O 174.576 2.85007 -2.98068 0
M  V30 1907 H 173.917 0.251832 -0.614391 0
M  V30 1908 H 176.447 0.161468 -2.03962 0
M  V30 1909 H 176.457 2.14646 -3.46974 0
M  V30 1910 H 175.132 1.12537 -4.00385 0
M  V30 1911 H 173.709 2.48676 -2.77875 0
M  V30 1912 N 175.894 1.51508 0.433938 0
M  V30 1913 C 176.842 1.73646 1.54757 0
M  V30 1914 C 177.836 0.602854 1.5831 0
M  V30 1915 O 179.042 0.784318 1.62014 0
M  V30 1916 H 175.417 0.548718 0.51421 0
M  V30 1917 H 177.388 2.66991 1.33261 0
M  V30 1918 C 176.137 1.88172 2.92381 0
M  V30 1919 H 175.46 2.74808 2.90381 0
M  V30 1920 H 176.9 2.07672 3.6966 0
M  V30 1921 C 175.359 0.64239 3.30719 0
M  V30 1922 O 175.889 -0.201362 4.01195 0
M  V30 1923 N 174.095 0.485489 2.86516 0
M  V30 1924 H 173.642 1.17318 2.29334 0
M  V30 1925 H 173.6 -0.342482 3.12529 0
M  V30 1926 N 177.372 -0.689602 1.41712 0
M  V30 1927 C 178.6 -1.47827 1.44758 0
M  V30 1928 C 179.015 -1.88721 0.0545703 0
M  V30 1929 O 178.372 -1.57176 -0.927463 0
M  V30 1930 C 178.423 -2.73698 2.3616 0
M  V30 1931 O 178.144 -2.34524 3.7004 0
M  V30 1932 C 179.645 -3.67389 2.48072 0
M  V30 1933 H 176.865 -0.455357 0.49284 0
M  V30 1934 H 179.409 -0.848574 1.86063 0
M  V30 1935 H 177.564 -3.32891 1.98148 0
M  V30 1936 H 177.978 -3.15701 4.18847 0
M  V30 1937 H 179.452 -4.52475 3.16181 0
M  V30 1938 H 179.929 -4.12284 1.51388 0
M  V30 1939 H 180.535 -3.14097 2.86746 0
M  V30 1940 N 178.85 -1.27639 -0.924453 0
M  V30 1941 C 179.782 -1.06442 -2.02985 0
M  V30 1942 C 180.795 -0.0194771 -1.62788 0
M  V30 1943 O 181.984 -0.261388 -1.76576 0
M  V30 1944 C 179.084 -0.59327 -3.33667 0
M  V30 1945 C 178.257 -1.71123 -4.02537 0
M  V30 1946 C 177.316 -1.23527 -5.11495 0
M  V30 1947 O 176.342 -1.93553 -5.35281 0
M  V30 1948 N 177.544 -0.0926678 -5.80426 0
M  V30 1949 H 180.309 -2.01633 -2.2173 0
M  V30 1950 H 177.87 -1.19248 -1.09505 0
M  V30 1951 H 179.862 -0.258686 -4.03872 0
M  V30 1952 H 178.432 0.265502 -3.1147 0
M  V30 1953 H 177.652 -2.21593 -3.26022 0
M  V30 1954 H 178.94 -2.46145 -4.45298 0
M  V30 1955 H 178.338 0.491741 -5.63559 0
M  V30 1956 H 176.895 0.182714 -6.51544 0
M  V30 1957 N 180.328 1.1314 -1.09713 0
M  V30 1958 C 181.576 1.84119 -0.833338 0
M  V30 1959 C 181.897 1.84097 0.642904 0
M  V30 1960 O 181.167 1.29881 1.46655 0
M  V30 1961 H 179.747 0.681766 -0.305293 0
M  V30 1962 H 182.409 1.37038 -1.38588 0
M  V30 1963 H 181.505 2.88543 -1.18951 0
M  V30 1964 N 181.806 0.884767 1.30421 0
M  V30 1965 C 183.052 0.503851 1.96441 0
M  V30 1966 C 183.385 -0.944518 1.69684 0
M  V30 1967 O 182.66 -1.66737 1.00145 0
M  V30 1968 C 182.943 0.779085 3.51571 0
M  V30 1969 C 182.796 2.27807 3.87846 0
M  V30 1970 C 184.115 0.255452 4.39358 0
M  V30 1971 H 181.234 0.184533 0.713524 0
M  V30 1972 H 183.876 1.10872 1.54297 0
M  V30 1973 H 182.026 0.264274 3.876 0
M  V30 1974 H 183.698 2.86127 3.61841 0
M  V30 1975 H 181.941 2.74479 3.35922 0
M  V30 1976 H 182.612 2.42125 4.96064 0
M  V30 1977 H 185.088 0.696079 4.10236 0
M  V30 1978 H 183.964 0.477361 5.4682 0
M  V30 1979 H 184.225 -0.843293 4.33983 0
M  V30 1980 N 183.284 -1.43765 0.645699 0
M  V30 1981 C 184.53 -2.02197 0.156271 0
M  V30 1982 C 184.863 -1.50776 -1.22393 0
M  V30 1983 O 184.138 -0.697771 -1.81553 0
M  V30 1984 C 184.421 -3.59749 0.158872 0
M  V30 1985 C 184.274 -4.21419 1.57245 0
M  V30 1986 C 185.593 -4.37149 -0.50879 0
M  V30 1987 H 182.712 -0.734694 0.0582602 0
M  V30 1988 H 185.354 -1.71157 0.824951 0
M  V30 1989 H 183.504 -3.86325 -0.410525 0
M  V30 1990 H 185.176 -4.059 2.19186 0
M  V30 1991 H 183.419 -3.78356 2.122 0
M  V30 1992 H 184.09 -5.30482 1.52619 0
M  V30 1993 H 186.566 -4.16093 -0.024412 0
M  V30 1994 H 185.442 -5.4683 -0.476213 0
M  V30 1995 H 185.703 -4.12839 -1.58165 0
M  V30 1996 N 184.763 -0.387143 -1.52771 0
M  V30 1997 C 185.988 0.198407 -2.06449 0
M  V30 1998 C 186.413 1.39918 -1.25716 0
M  V30 1999 O 185.771 1.79099 -0.281657 0
M  V30 2000 C 185.819 0.548893 -3.56398 0
M  V30 2001 O 184.923 1.64315 -3.78252 0
M  V30 2002 H 184.264 0.0237731 -0.663574 0
M  V30 2003 H 186.794 -0.553989 -1.96957 0
M  V30 2004 H 186.804 0.813812 -3.99801 0
M  V30 2005 H 185.479 -0.329005 -4.14597 0
M  V30 2006 H 184.056 1.37211 -3.46738 0
M  V30 2007 N 186.241 1.57166 -0.116904 0
M  V30 2008 C 187.204 2.14039 0.819742 0
M  V30 2009 C 188.204 1.07477 1.19605 0
M  V30 2010 O 189.394 1.33263 1.1219 0
M  V30 2011 C 186.526 2.67891 2.10826 0
M  V30 2012 H 187.719 2.98128 0.325511 0
M  V30 2013 H 185.272 1.55739 0.132312 0
M  V30 2014 H 186.007 1.87384 2.64685 0
M  V30 2015 H 185.792 3.45823 1.84793 0
M  V30 2016 H 187.282 3.11809 2.77785 0
M  V30 2017 N 187.719 -0.156864 1.56817 0
M  V30 2018 C 188.966 -0.871125 1.82805 0
M  V30 2019 C 189.294 -1.81611 0.696262 0
M  V30 2020 O 188.549 -1.93141 -0.315459 0
M  V30 2021 C 188.848 -1.68737 3.1506 0
M  V30 2022 C 188.514 -0.890045 4.42028 0
M  V30 2023 C 187.176 -0.670042 4.76512 0
M  V30 2024 C 189.528 -0.331769 5.20143 0
M  V30 2025 C 186.856 0.119104 5.86579 0
M  V30 2026 C 189.208 0.444365 6.31037 0
M  V30 2027 C 187.872 0.675035 6.64078 0
M  V30 2028 H 187.142 -0.318767 0.668931 0
M  V30 2029 H 189.789 -0.135274 1.91022 0
M  V30 2030 H 188.094 -2.49304 3.0225 0
M  V30 2031 H 189.791 -2.24331 3.3238 0
M  V30 2032 H 186.381 -1.07157 4.14988 0
M  V30 2033 H 190.565 -0.489043 4.93885 0
M  V30 2034 H 185.821 0.307417 6.10627 0
M  V30 2035 H 189.995 0.884139 6.90765 0
M  V30 2036 H 187.622 1.28839 7.49203 0
M  V30 2037 N 189.197 -1.51736 -0.425897 0
M  V30 2038 C 190.422 -1.69082 -1.20108 0
M  V30 2039 C 190.847 -0.392398 -1.83962 0
M  V30 2040 O 190.205 0.64858 -1.69302 0
M  V30 2041 C 190.253 -2.81604 -2.25237 0
M  V30 2042 O 189.357 -2.46004 -3.30992 0
M  V30 2043 H 188.698 -0.563408 -0.35138 0
M  V30 2044 H 191.228 -1.98358 -0.501512 0
M  V30 2045 H 191.238 -3.06025 -2.69838 0
M  V30 2046 H 189.913 -3.75817 -1.78142 0
M  V30 2047 H 188.49 -2.32195 -2.91787 0
M  V30 2048 N 190.675 0.682077 -1.42076 0
M  V30 2049 C 191.903 1.47057 -1.4554 0
M  V30 2050 C 192.318 1.8869 -0.0645779 0
M  V30 2051 O 191.675 1.57666 0.919115 0
M  V30 2052 C 191.726 2.72442 -2.37609 0
M  V30 2053 O 191.447 2.32559 -3.71279 0
M  V30 2054 C 192.948 3.66069 -2.50017 0
M  V30 2055 H 190.168 0.452737 -0.495248 0
M  V30 2056 H 192.712 0.838695 -1.8651 0
M  V30 2057 H 190.867 3.31835 -1.9991 0
M  V30 2058 H 191.281 3.13475 -4.20516 0
M  V30 2059 H 192.755 4.50792 -3.18576 0
M  V30 2060 H 193.232 4.11476 -1.53572 0
M  V30 2061 H 193.838 3.12572 -2.88407 0
M  V30 2062 N 192.153 1.28127 0.917671 0
M  V30 2063 C 193.086 1.06039 2.02067 0
M  V30 2064 C 194.064 -0.0223285 1.62585 0
M  V30 2065 O 195.248 0.124823 1.88086 0
M  V30 2066 C 192.375 0.610596 3.33151 0
M  V30 2067 C 191.421 1.68937 3.91615 0
M  V30 2068 S 192.254 3.28437 4.22953 0
M  V30 2069 C 193.41 2.85283 5.57103 0
M  V30 2070 H 193.643 1.99425 2.20493 0
M  V30 2071 H 191.176 1.12071 1.06205 0
M  V30 2072 H 193.134 0.357778 4.08938 0
M  V30 2073 H 191.795 -0.303364 3.12632 0
M  V30 2074 H 190.988 1.32619 4.86239 0
M  V30 2075 H 190.59 1.89478 3.2245 0
M  V30 2076 H 192.882 2.3121 6.36827 0
M  V30 2077 H 193.825 3.7869 5.98331 0
M  V30 2078 H 194.233 2.24118 5.18104 0
M  V30 2079 N 193.631 -1.12557 1.10312 0
M  V30 2080 C 194.564 -2.1737 0.694674 0
M  V30 2081 C 195.542 -1.59745 -0.303373 0
M  V30 2082 O 196.726 -1.87408 -0.202578 0
M  V30 2083 C 193.853 -3.38691 0.0248052 0
M  V30 2084 C 192.899 -4.14943 0.986121 0
M  V30 2085 S 193.732 -4.73413 2.50281 0
M  V30 2086 C 194.888 -5.9807 1.84562 0
M  V30 2087 H 195.121 -2.5168 1.58255 0
M  V30 2088 H 192.654 -1.23998 0.919992 0
M  V30 2089 H 194.612 -4.08959 -0.355361 0
M  V30 2090 H 193.273 -3.02664 -0.839851 0
M  V30 2091 H 192.466 -5.01854 0.464651 0
M  V30 2092 H 192.068 -3.50377 1.30813 0
M  V30 2093 H 194.36 -6.67232 1.17507 0
M  V30 2094 H 195.303 -6.54841 2.69423 0
M  V30 2095 H 195.711 -5.49073 1.31069 0
M  V30 2096 N 195.109 -0.891671 -1.2995 0
M  V30 2097 C 196.334 -0.527932 -2.00568 0
M  V30 2098 C 196.759 0.877969 -1.66353 0
M  V30 2099 O 196.117 1.58301 -0.883762 0
M  V30 2100 C 196.165 -0.717745 -3.53385 0
M  V30 2101 O 195.269 0.233376 -4.11739 0
M  V30 2102 H 194.61 -0.20722 -0.630837 0
M  V30 2103 H 197.14 -1.20105 -1.65638 0
M  V30 2104 H 197.15 -0.619307 -4.03272 0
M  V30 2105 H 195.825 -1.74276 -3.77625 0
M  V30 2106 H 194.402 0.0880706 -3.72796 0
M  V30 2107 N 196.587 1.43421 -0.653314 0
M  V30 2108 C 197.833 2.02111 -0.166992 0
M  V30 2109 C 198.166 1.51423 1.21592 0
M  V30 2110 O 197.441 0.707389 1.8118 0
M  V30 2111 C 197.724 3.5966 -0.177948 0
M  V30 2112 C 197.577 4.20579 -1.59478 0
M  V30 2113 C 198.896 4.37413 0.4856 0
M  V30 2114 H 196.015 0.734374 -0.0621557 0
M  V30 2115 H 198.657 1.70717 -0.834016 0
M  V30 2116 H 196.807 3.86537 0.390032 0
M  V30 2117 H 198.479 4.04732 -2.21336 0
M  V30 2118 H 196.722 3.77226 -2.14204 0
M  V30 2119 H 197.393 5.29665 -1.5543 0
M  V30 2120 H 199.869 4.161 0.00234528 0
M  V30 2121 H 198.745 5.47075 0.447207 0
M  V30 2122 H 199.006 4.13672 1.55974 0
M  V30 2123 N 198.065 0.39524 1.52563 0
M  V30 2124 C 199.015 -0.4541 2.23432 0
M  V30 2125 C 199.999 -1.02482 1.24042 0
M  V30 2126 O 201.191 -0.949938 1.49349 0
M  V30 2127 C 198.32 -1.57769 3.049 0
M  V30 2128 C 197.406 -1.01842 4.1169 0
M  V30 2129 N 197.797 -0.184613 5.05463 0
M  V30 2130 C 196.095 -1.29033 4.26927 0
M  V30 2131 C 196.796 0.125013 5.81566 0
M  V30 2132 N 195.772 -0.480498 5.41472 0
M  V30 2133 H 199.574 0.189413 2.93289 0
M  V30 2134 H 197.088 0.204877 1.61102 0
M  V30 2135 H 199.085 -2.19862 3.54212 0
M  V30 2136 H 197.745 -2.22397 2.36579 0
M  V30 2137 H 198.756 0.178602 5.17592 0
M  V30 2138 H 195.433 -1.93721 3.69836 0
M  V30 2139 H 196.823 0.800962 6.67109 0
M  V30 2140 N 199.544 -1.57102 0.125237 0
M  V30 2141 C 200.96 -1.57915 -0.231322 0
M  V30 2142 C 201.16 -1.13833 -1.66266 0
M  V30 2143 O 200.216 -0.828581 -2.38518 0
M  V30 2144 C 201.529 -3.00699 0.00766489 0
M  V30 2145 C 203.077 -3.12947 -0.0577483 0
M  V30 2146 C 203.552 -4.57742 0.153626 0
M  V30 2147 N 205.043 -4.63092 0.0998073 0
M  V30 2148 C 205.778 -5.72905 0.238174 0
M  V30 2149 N 205.274 -6.91445 0.433057 0
M  V30 2150 N 207.067 -5.6182 0.177308 0
M  V30 2151 H 199.218 -1.84055 1.06007 0
M  V30 2152 H 201.481 -0.850905 0.417929 0
M  V30 2153 H 201.187 -3.3726 0.997431 0
M  V30 2154 H 201.061 -3.70236 -0.721452 0
M  V30 2155 H 203.448 -2.7624 -1.03804 0
M  V30 2156 H 203.529 -2.4594 0.70335 0
M  V30 2157 H 203.173 -4.95149 1.13092 0
M  V30 2158 H 203.103 -5.22848 -0.627534 0
M  V30 2159 H 205.594 -3.77871 -0.047051 0
M  V30 2160 H 205.907 -7.70985 0.529332 0
M  V30 2161 H 204.252 -6.93415 0.469109 0
M  V30 2162 H 207.443 -4.68093 0.0259748 0
M  V30 2163 H 207.616 -6.47357 0.288582 0
M  V30 2164 N 201.022 0.148545 -1.56898 0
M  V30 2165 C 202.27 0.859717 -1.82902 0
M  V30 2166 C 202.591 1.81775 -0.70588 0
M  V30 2167 O 201.861 1.93994 0.272586 0
M  V30 2168 H 200.441 0.320469 -0.674766 0
M  V30 2169 H 203.103 0.142918 -1.94375 0
M  V30 2170 H 202.199 1.4229 -2.77777 0
M  V30 2171 N 202.5 1.5196 0.417844 0
M  V30 2172 C 203.41 1.77554 1.53336 0
M  V30 2173 C 204.426 0.660655 1.6097 0
M  V30 2174 O 205.602 0.945099 1.77848 0
M  V30 2175 C 202.667 1.91291 2.89152 0
M  V30 2176 C 201.728 3.15183 2.91475 0
M  V30 2177 C 200.961 3.28256 4.20813 0
M  V30 2178 O 201.184 2.46798 5.14244 0
M  V30 2179 O 200.118 4.21356 4.29817 0
M  V30 2180 H 203.944 2.7222 1.34647 0
M  V30 2181 H 201.529 1.36698 0.602828 0
M  V30 2182 H 203.411 2.02199 3.69721 0
M  V30 2183 H 202.086 0.998129 3.07927 0
M  V30 2184 H 200.993 3.09739 2.09791 0
M  V30 2185 H 202.326 4.06414 2.77648 0
M  V30 2186 N 203.978 -0.674533 1.42435 0
M  V30 2187 C 205.224 -1.43671 1.43131 0
M  V30 2188 C 205.557 -1.94142 0.0476021 0
M  V30 2189 O 204.832 -1.70924 -0.928188 0
M  V30 2190 C 205.115 -2.63355 2.45594 0
M  V30 2191 C 204.968 -2.18514 3.93156 0
M  V30 2192 C 206.287 -3.65571 2.45043 0
M  V30 2193 H 203.406 -0.521077 0.521198 0
M  V30 2194 H 206.048 -0.766551 1.7385 0
M  V30 2195 H 204.198 -3.2053 2.19528 0
M  V30 2196 H 205.87 -1.66504 4.30202 0
M  V30 2197 H 204.113 -1.50086 4.07009 0
M  V30 2198 H 204.784 -3.04484 4.60428 0
M  V30 2199 H 207.26 -3.18113 2.68223 0
M  V30 2200 H 206.136 -4.46893 3.18713 0
M  V30 2201 H 206.397 -4.16716 1.47649 0
M  V30 2202 N 205.456 -1.28612 -0.910864 0
M  V30 2203 C 206.867 -1.14406 -1.47541 0
M  V30 2204 C 207.218 0.264901 -1.94403 0
M  V30 2205 O 206.343 1.15942 -1.82719 0
M  V30 2206 C 206.938 -2.07073 -2.68153 0
M  V30 2207 C 205.497 -1.96923 -3.20778 0
M  V30 2208 C 204.644 -1.98646 -1.93481 0
M  V30 2209 H 207.595 -1.41259 -0.723291 0
M  V30 2210 H 207.616 -1.63642 -3.43514 0
M  V30 2211 H 207.128 -3.09611 -2.34015 0
M  V30 2212 H 205.229 -0.97433 -3.59635 0
M  V30 2213 H 205.342 -2.84026 -3.85832 0
M  V30 2214 H 203.706 -1.43093 -2.10705 0
M  V30 2215 H 204.489 -3.02868 -1.61634 0
M  V30 2216 N 206.934 1.1197 -1.10907 0
M  V30 2217 C 208.174 1.85224 -0.864378 0
M  V30 2218 C 208.538 1.82411 0.599178 0
M  V30 2219 O 209.739 2.51057 0.960416 0
M  V30 2220 C 208.01 3.2868 -1.40371 0
M  V30 2221 S 209.569 4.1925 -1.29518 0
M  V30 2222 H 206.387 0.63878 -0.312219 0
M  V30 2223 H 208.989 1.3485 -1.41548 0
M  V30 2224 H 207.693 3.28289 -2.46281 0
M  V30 2225 H 207.224 3.84121 -0.849402 0
M  V30 2226 H 209.239 4.95539 -0.256059 0
M  V30 2227 N 208.412 0.89855 1.29475 0
M  V30 2228 C 209.64 0.539261 1.99749 0
M  V30 2229 C 210.055 -0.875716 1.67262 0
M  V30 2230 O 209.412 -1.57786 0.917049 0
M  V30 2231 C 209.463 0.72061 3.54245 0
M  V30 2232 O 209.184 2.07989 3.8558 0
M  V30 2233 C 210.685 0.366118 4.41786 0
M  V30 2234 H 207.905 0.207047 0.638258 0
M  V30 2235 H 210.449 1.20758 1.65039 0
M  V30 2236 H 208.604 0.0994862 3.87272 0
M  V30 2237 H 209.018 2.10841 4.80257 0
M  V30 2238 H 210.492 0.543848 5.49314 0
M  V30 2239 H 210.969 -0.696763 4.33638 0
M  V30 2240 H 211.575 0.964135 4.14228 0
M  V30 2241 N 209.89 -1.43072 0.660911 0
M  V30 2242 C 211.136 -2.0202 0.177708 0
M  V30 2243 C 211.469 -1.52066 -1.20787 0
M  V30 2244 O 210.744 -0.716987 -1.80802 0
M  V30 2245 C 211.027 -3.59561 0.197019 0
M  V30 2246 C 210.88 -4.19727 1.61706 0
M  V30 2247 C 212.199 -4.37664 -0.462396 0
M  V30 2248 H 209.318 -0.734034 0.0660494 0
M  V30 2249 H 211.96 -1.70272 0.843058 0
M  V30 2250 H 210.11 -3.86739 -0.369527 0
M  V30 2251 H 211.782 -4.03553 2.23479 0
M  V30 2252 H 210.025 -3.76084 2.16201 0
M  V30 2253 H 210.696 -5.28834 1.58237 0
M  V30 2254 H 213.172 -4.16095 0.0197215 0
M  V30 2255 H 212.048 -5.47305 -0.418188 0
M  V30 2256 H 212.309 -4.14493 -1.53778 0
M  V30 2257 N 211.368 -0.403325 -1.52352 0
M  V30 2258 C 212.596 0.174012 -2.06167 0
M  V30 2259 C 213.011 1.39347 -1.27388 0
M  V30 2260 O 212.368 1.79597 -0.324201 0
M  V30 2261 C 212.419 0.530223 -3.5759 0
M  V30 2262 O 212.14 -0.640806 -4.33388 0
M  V30 2263 C 213.641 1.16192 -4.27802 0
M  V30 2264 H 210.861 0.0229464 -0.670608 0
M  V30 2265 H 213.405 -0.572604 -1.9632 0
M  V30 2266 H 211.56 1.22673 -3.67464 0
M  V30 2267 H 211.974 -0.344851 -5.23365 0
M  V30 2268 H 213.448 1.36141 -5.34948 0
M  V30 2269 H 213.925 2.13335 -3.83907 0
M  V30 2270 H 214.531 0.505775 -4.22282 0
M  V30 2271 N 212.846 1.57033 -0.133567 0
M  V30 2272 C 214.071 2.00475 0.531477 0
M  V30 2273 C 214.496 1.01291 1.58499 0
M  V30 2274 O 213.854 -0.0133279 1.81295 0
M  V30 2275 C 213.902 3.42729 1.12113 0
M  V30 2276 O 213.006 3.46498 2.23636 0
M  V30 2277 H 212.347 0.650876 0.131362 0
M  V30 2278 H 214.877 2.03344 -0.22634 0
M  V30 2279 H 214.887 3.81246 1.4531 0
M  V30 2280 H 213.562 4.14428 0.349557 0
M  V30 2281 H 212.139 3.19811 1.91769 0
M  V30 2282 N 214.325 -0.140222 1.56975 0
M  V30 2283 C 215.288 -1.15689 1.97861 0
M  V30 2284 C 216.288 -1.3549 0.865974 0
M  V30 2285 O 217.478 -1.32367 1.13246 0
M  V30 2286 C 214.61 -2.51582 2.30042 0
M  V30 2287 H 215.803 -0.805971 2.88867 0
M  V30 2288 H 213.356 -0.383801 1.51515 0
M  V30 2289 H 214.091 -2.91632 1.41849 0
M  V30 2290 H 213.876 -2.38569 3.11171 0
M  V30 2291 H 215.366 -3.24792 2.62488 0
M  V30 2292 N 215.803 -1.52179 -0.40978 0
M  V30 2293 C 217.028 -1.70347 -1.18308 0
M  V30 2294 C 217.453 -0.411887 -1.83535 0
M  V30 2295 O 216.811 0.630587 -1.6998 0
M  V30 2296 C 216.859 -2.83977 -2.22238 0
M  V30 2297 O 215.963 -2.495 -3.28365 0
M  V30 2298 H 215.304 -0.567103 -0.345384 0
M  V30 2299 H 217.834 -1.98879 -0.480445 0
M  V30 2300 H 217.844 -3.0887 -2.66577 0
M  V30 2301 H 216.519 -3.77685 -1.74146 0
M  V30 2302 H 215.096 -2.35277 -2.89308 0
M  V30 2303 N 217.281 0.66697 -1.42791 0
M  V30 2304 C 218.692 1.2478 -1.38877 0
M  V30 2305 C 219.043 1.96012 -0.0859426 0
M  V30 2306 O 218.168 2.00463 0.815081 0
M  V30 2307 C 218.763 2.26938 -2.51564 0
M  V30 2308 C 217.322 2.80529 -2.50959 0
M  V30 2309 C 216.469 1.54965 -2.29959 0
M  V30 2310 H 219.42 0.459853 -1.51892 0
M  V30 2311 H 219.441 3.08834 -2.22265 0
M  V30 2312 H 218.953 1.75065 -3.46372 0
M  V30 2313 H 217.054 3.36502 -1.59991 0
M  V30 2314 H 217.167 3.29012 -3.48265 0
M  V30 2315 H 215.531 1.81817 -1.78366 0
M  V30 2316 H 216.314 1.05047 -3.26833 0
M  V30 2317 N 218.759 1.29093 0.90403 0
M  V30 2318 C 219.689 1.16401 2.02418 0
M  V30 2319 C 220.67 0.0593085 1.69997 0
M  V30 2320 O 221.855 0.238021 1.92736 0
M  V30 2321 C 218.985 0.835233 3.37107 0
M  V30 2322 C 217.939 1.89578 3.83724 0
M  V30 2323 C 217.265 1.42041 5.15489 0
M  V30 2324 C 218.565 3.30394 4.04521 0
M  V30 2325 H 220.259 2.10109 2.13295 0
M  V30 2326 H 217.805 1.01157 1.02486 0
M  V30 2327 H 219.758 0.733169 4.14973 0
M  V30 2328 H 218.482 -0.137543 3.2631 0
M  V30 2329 H 217.141 1.98715 3.08071 0
M  V30 2330 H 216.789 0.436426 5.01103 0
M  V30 2331 H 216.489 2.12964 5.4765 0
M  V30 2332 H 218.013 1.33176 5.959 0
M  V30 2333 H 219.427 3.24123 4.72882 0
M  V30 2334 H 217.824 3.99237 4.48029 0
M  V30 2335 H 218.894 3.73692 3.09002 0
M  V30 2336 N 220.237 -1.11381 1.11499 0
M  V30 2337 C 221.147 -2.21019 0.786628 0
M  V30 2338 C 222.163 -1.72597 -0.220507 0
M  V30 2339 O 223.339 -2.01321 -0.0565251 0
M  V30 2340 C 220.404 -3.459 0.235333 0
M  V30 2341 C 219.465 -4.09107 1.30115 0
M  V30 2342 C 218.698 -5.28027 0.776068 0
M  V30 2343 O 218.921 -5.6904 -0.393661 0
M  V30 2344 O 217.855 -5.81835 1.54114 0
M  V30 2345 H 221.681 -2.51521 1.70209 0
M  V30 2346 H 219.266 -1.19928 0.890928 0
M  V30 2347 H 221.148 -4.21346 -0.067715 0
M  V30 2348 H 219.823 -3.17049 -0.652828 0
M  V30 2349 H 218.73 -3.35391 1.65722 0
M  V30 2350 H 220.063 -4.42139 2.16273 0
M  V30 2351 N 221.715 -0.905404 -1.28997 0
M  V30 2352 C 222.625 -0.392246 -2.31298 0
M  V30 2353 C 223.641 0.515889 -1.66176 0
M  V30 2354 O 224.817 0.404093 -1.97304 0
M  V30 2355 C 221.882 0.36686 -3.44754 0
M  V30 2356 C 220.943 -0.573485 -4.25452 0
M  V30 2357 C 220.176 0.149488 -5.33491 0
M  V30 2358 O 220.399 1.37255 -5.5364 0
M  V30 2359 O 219.333 -0.510919 -5.99728 0
M  V30 2360 H 223.159 -1.2411 -2.77183 0
M  V30 2361 H 220.744 -0.669926 -1.33538 0
M  V30 2362 H 222.626 0.795907 -4.13816 0
M  V30 2363 H 221.301 1.19169 -3.00966 0
M  V30 2364 H 220.208 -1.05176 -3.59011 0
M  V30 2365 H 221.541 -1.36489 -4.72897 0
M  V30 2366 N 223.193 1.4272 -0.668489 0
M  V30 2367 C 224.156 2.292 0.00448567 0
M  V30 2368 C 225.156 1.43001 0.735339 0
M  V30 2369 O 226.346 1.64461 0.57429 0
M  V30 2370 C 223.478 3.25375 1.01705 0
M  V30 2371 H 224.671 2.90199 -0.756608 0
M  V30 2372 H 222.224 1.50254 -0.430506 0
M  V30 2373 H 222.959 2.69301 1.80686 0
M  V30 2374 H 222.744 3.88944 0.496463 0
M  V30 2375 H 224.234 3.90245 1.48655 0
M  V30 2376 N 224.671 0.411399 1.52136 0
M  V30 2377 C 225.899 -0.163076 2.06256 0
M  V30 2378 C 226.314 -1.3867 1.28125 0
M  V30 2379 O 225.671 -1.79423 0.333721 0
M  V30 2380 C 225.722 -0.511252 3.57867 0
M  V30 2381 O 225.443 0.66378 4.33042 0
M  V30 2382 C 226.944 -1.13921 4.28412 0
M  V30 2383 H 224.164 -0.0193897 0.67072 0
M  V30 2384 H 226.708 0.583007 1.96013 0
M  V30 2385 H 224.863 -1.20723 3.6811 0
M  V30 2386 H 225.277 0.372601 5.23175 0
M  V30 2387 H 226.751 -1.33302 5.35663 0
M  V30 2388 H 227.228 -2.11296 3.85033 0
M  V30 2389 H 227.834 -0.483373 4.22544 0
M  V30 2390 N 226.149 -1.5696 0.141893 0
M  V30 2391 C 227.079 -2.19516 -0.795936 0
M  V30 2392 C 228.06 -1.14187 -1.26077 0
M  V30 2393 O 229.245 -1.42511 -1.31925 0
M  V30 2394 C 226.375 -2.81272 -2.03723 0
M  V30 2395 C 225.329 -3.92384 -1.70936 0
M  V30 2396 C 224.655 -4.41052 -3.02287 0
M  V30 2397 C 225.955 -5.13403 -0.959954 0
M  V30 2398 H 227.649 -2.98138 -0.274596 0
M  V30 2399 H 225.195 -1.43406 -0.130636 0
M  V30 2400 H 227.148 -3.237 -2.69808 0
M  V30 2401 H 225.872 -1.99973 -2.58221 0
M  V30 2402 H 224.531 -3.50566 -1.07232 0
M  V30 2403 H 224.179 -3.56582 -3.54765 0
M  V30 2404 H 223.879 -5.15993 -2.81114 0
M  V30 2405 H 225.403 -4.86146 -3.69451 0
M  V30 2406 H 226.817 -5.52706 -1.52279 0
M  V30 2407 H 225.214 -5.94073 -0.848357 0
M  V30 2408 H 226.284 -4.84875 0.0492434 0
M  V30 2409 N 227.627 0.131896 -1.57047 0
M  V30 2410 C 228.852 0.860418 -1.8871 0
M  V30 2411 C 229.277 1.73251 -0.73251 0
M  V30 2412 O 228.635 1.785 0.317429 0
M  V30 2413 C 228.683 1.68047 -3.19049 0
M  V30 2414 O 227.787 2.7862 -3.04047 0
M  V30 2415 H 227.128 0.238743 -0.619595 0
M  V30 2416 H 229.658 0.118169 -2.04258 0
M  V30 2417 H 229.668 2.07238 -3.51449 0
M  V30 2418 H 228.343 1.04018 -4.02682 0
M  V30 2419 H 226.92 2.42726 -2.83088 0
M  V30 2420 N 229.106 1.52395 0.401703 0
M  V30 2421 C 230.016 1.7917 1.51444 0
M  V30 2422 C 231.032 0.677691 1.6026 0
M  V30 2423 O 232.208 0.963909 1.76835 0
M  V30 2424 C 229.273 1.94347 2.87107 0
M  V30 2425 C 228.334 3.18257 2.88116 0
M  V30 2426 C 227.567 3.32701 4.17308 0
M  V30 2427 O 227.79 2.52238 5.11598 0
M  V30 2428 O 226.724 4.25891 4.25324 0
M  V30 2429 H 230.55 2.73633 1.31752 0
M  V30 2430 H 228.135 1.3733 0.588296 0
M  V30 2431 H 230.017 2.06109 3.67555 0
M  V30 2432 H 228.692 1.03073 3.06851 0
M  V30 2433 H 227.599 3.11947 2.06494 0
M  V30 2434 H 228.932 4.09336 2.73322 0
M  V30 2435 N 230.584 -0.659388 1.43143 0
M  V30 2436 C 231.514 -1.78422 1.50625 0
M  V30 2437 C 232.495 -1.66216 0.361443 0
M  V30 2438 O 233.68 -1.85404 0.577834 0
M  V30 2439 C 230.81 -3.16815 1.42287 0
M  V30 2440 C 229.764 -3.43777 2.54954 0
M  V30 2441 C 229.09 -4.81905 2.31671 0
M  V30 2442 C 230.39 -3.39134 3.97222 0
M  V30 2443 H 232.084 -1.72417 2.44771 0
M  V30 2444 H 229.63 -0.828084 1.17808 0
M  V30 2445 H 231.583 -3.95253 1.46127 0
M  V30 2446 H 230.307 -3.23534 0.446435 0
M  V30 2447 H 228.966 -2.67707 2.50457 0
M  V30 2448 H 228.614 -4.85294 1.32284 0
M  V30 2449 H 228.314 -5.00906 3.07192 0
M  V30 2450 H 229.838 -5.62609 2.37284 0
M  V30 2451 H 231.252 -4.07518 4.03239 0
M  V30 2452 H 229.649 -3.69671 4.72719 0
M  V30 2453 H 230.719 -2.37426 4.22797 0
M  V30 2454 N 232.062 -1.29571 -0.897171 0
M  V30 2455 C 233.009 -1.14916 -2.00158 0
M  V30 2456 C 233.979 -0.0418149 -1.66047 0
M  V30 2457 O 235.164 -0.209793 -1.89643 0
M  V30 2458 C 232.304 -0.834307 -3.34863 0
M  V30 2459 C 231.417 -2.02234 -3.8174 0
M  V30 2460 C 230.552 -1.64664 -5.05034 0
M  V30 2461 C 229.591 -2.80033 -5.44286 0
M  V30 2462 N 228.728 -2.42843 -6.58765 0
M  V30 2463 H 233.568 -2.09403 -2.12025 0
M  V30 2464 H 231.105 -1.042 -1.0383 0
M  V30 2465 H 233.063 -0.632436 -4.12379 0
M  V30 2466 H 231.693 0.0736656 -3.22716 0
M  V30 2467 H 230.745 -2.33583 -3.00238 0
M  V30 2468 H 232.057 -2.88673 -4.06779 0
M  V30 2469 H 231.211 -1.4078 -5.9014 0
M  V30 2470 H 229.95 -0.753766 -4.8184 0
M  V30 2471 H 228.955 -3.04596 -4.57713 0
M  V30 2472 H 230.18 -3.69989 -5.6946 0
M  V30 2473 H 228.126 -1.56046 -6.3717 0
M  V30 2474 H 228.043 -3.22815 -6.83613 0
M  V30 2475 H 229.311 -2.22285 -7.47134 0
M  V30 2476 N 233.54 1.10788 -1.12088 0
M  V30 2477 C 234.768 1.86461 -0.896651 0
M  V30 2478 C 235.183 1.80492 0.553912 0
M  V30 2479 O 234.54 1.19102 1.38278 0
M  V30 2480 C 234.591 3.35006 -1.35843 0
M  V30 2481 O 234.312 3.40866 -2.75213 0
M  V30 2482 C 235.813 4.27565 -1.1706 0
M  V30 2483 H 233.033 0.589425 -0.320654 0
M  V30 2484 H 235.577 1.40076 -1.48993 0
M  V30 2485 H 233.732 3.7887 -0.808458 0
M  V30 2486 H 234.146 4.33411 -2.9539 0
M  V30 2487 H 235.62 5.30007 -1.54263 0
M  V30 2488 H 236.097 4.3906 -0.110814 0
M  V30 2489 H 236.703 3.89501 -1.70789 0
M  V30 2490 N 235.018 0.912232 1.28515 0
M  V30 2491 C 236.264 0.545405 1.95328 0
M  V30 2492 C 236.597 -0.908313 1.71649 0
M  V30 2493 O 235.872 -1.64575 1.03659 0
M  V30 2494 C 236.155 0.853483 3.4984 0
M  V30 2495 C 236.008 2.35982 3.82926 0
M  V30 2496 C 237.327 0.348589 4.38717 0
M  V30 2497 H 234.446 0.199626 0.709449 0
M  V30 2498 H 237.088 1.1412 1.5191 0
M  V30 2499 H 235.238 0.34643 3.86952 0
M  V30 2500 H 236.91 2.93738 3.55691 0
M  V30 2501 H 235.153 2.81543 3.30024 0
M  V30 2502 H 235.824 2.52593 4.90816 0
M  V30 2503 H 238.3 0.78294 4.08668 0
M  V30 2504 H 237.176 0.593242 5.45685 0
M  V30 2505 H 237.437 -0.751049 4.35674 0
M  V30 2506 N 236.496 -1.42363 0.676048 0
M  V30 2507 C 237.426 -2.33497 0.0124832 0
M  V30 2508 C 238.407 -1.50748 -0.787981 0
M  V30 2509 O 239.592 -1.79346 -0.744884 0
M  V30 2510 C 236.722 -3.34377 -0.938582 0
M  V30 2511 C 235.676 -4.27289 -0.246622 0
M  V30 2512 C 235.002 -5.18386 -1.31071 0
M  V30 2513 C 236.302 -5.14916 0.875125 0
M  V30 2514 H 237.996 -2.89233 0.773593 0
M  V30 2515 H 235.542 -1.39073 0.37346 0
M  V30 2516 H 237.495 -3.97044 -1.41188 0
M  V30 2517 H 236.219 -2.76947 -1.73113 0
M  V30 2518 H 234.878 -3.66018 0.206456 0
M  V30 2519 H 234.526 -4.57282 -2.09528 0
M  V30 2520 H 234.226 -5.81378 -0.852839 0
M  V30 2521 H 235.75 -5.83929 -1.78492 0
M  V30 2522 H 237.164 -5.71262 0.482983 0
M  V30 2523 H 235.561 -5.86747 1.25887 0
M  V30 2524 H 236.631 -4.53242 1.72335 0
M  V30 2525 N 237.974 -0.419461 -1.51915 0
M  V30 2526 C 238.921 0.400927 -2.27291 0
M  V30 2527 C 239.891 1.03224 -1.30131 0
M  V30 2528 O 241.076 1.05455 -1.59009 0
M  V30 2529 C 238.216 1.50603 -3.10504 0
M  V30 2530 C 237.329 0.89462 -4.22635 0
M  V30 2531 C 236.464 1.97328 -4.93189 0
M  V30 2532 C 235.503 1.33935 -5.97267 0
M  V30 2533 N 234.64 2.3586 -6.61298 0
M  V30 2534 H 239.48 -0.248251 -2.96964 0
M  V30 2535 H 237.017 -0.134266 -1.46486 0
M  V30 2536 H 238.975 2.15783 -3.57062 0
M  V30 2537 H 237.605 2.12509 -2.42981 0
M  V30 2538 H 236.657 0.131583 -3.80172 0
M  V30 2539 H 237.969 0.391641 -4.9726 0
M  V30 2540 H 237.123 2.70211 -5.43204 0
M  V30 2541 H 235.862 2.50994 -4.18155 0
M  V30 2542 H 234.867 0.595896 -5.46561 0
M  V30 2543 H 236.092 0.810252 -6.74249 0
M  V30 2544 H 234.038 2.88639 -5.89087 0
M  V30 2545 H 233.955 1.90403 -7.3163 0
M  V30 2546 H 235.223 3.08282 -7.15949 0
M  V30 2547 N 239.452 1.56882 -0.150215 0
M  V30 2548 C 240.677 2.01027 0.510184 0
M  V30 2549 C 241.102 1.02966 1.57415 0
M  V30 2550 O 240.46 0.00590158 1.81299 0
M  V30 2551 C 240.508 3.43899 1.08472 0
M  V30 2552 O 239.612 3.4885 2.19948 0
M  V30 2553 H 238.953 0.652233 0.124451 0
M  V30 2554 H 241.483 2.03093 -0.247894 0
M  V30 2555 H 241.493 3.82766 1.41259 0
M  V30 2556 H 240.168 4.14776 0.305582 0
M  V30 2557 H 238.745 3.21827 1.88366 0
M  V30 2558 N 240.93 -0.123565 1.57115 0
M  V30 2559 C 242.177 -0.832153 1.84612 0
M  V30 2560 C 242.505 -1.80093 0.734627 0
M  V30 2561 O 241.76 -1.93766 -0.27442 0
M  V30 2562 C 242.059 -1.62016 3.18568 0
M  V30 2563 C 241.725 -0.796084 4.43817 0
M  V30 2564 C 240.387 -0.568816 4.77826 0
M  V30 2565 C 242.739 -0.221364 5.2073 0
M  V30 2566 C 240.067 0.243499 5.86194 0
M  V30 2567 C 242.419 0.578117 6.29953 0
M  V30 2568 C 241.083 0.815744 6.62497 0
M  V30 2569 H 240.353 -0.304507 0.675542 0
M  V30 2570 H 243 -0.0947248 1.91266 0
M  V30 2571 H 241.305 -2.42837 3.0747 0
M  V30 2572 H 243.002 -2.17231 3.37064 0
M  V30 2573 H 239.592 -0.983307 4.17168 0
M  V30 2574 H 243.776 -0.384173 4.94811 0
M  V30 2575 H 239.032 0.436871 6.09837 0
M  V30 2576 H 243.206 1.03046 6.88734 0
M  V30 2577 H 240.833 1.44701 7.46301 0
M  V30 2578 N 242.408 -1.52605 -0.393616 0
M  V30 2579 C 243.338 -1.80022 -1.48709 0
M  V30 2580 C 244.319 -0.651995 -1.57108 0
M  V30 2581 O 245.504 -0.89913 -1.72132 0
M  V30 2582 C 242.634 -1.96492 -2.86371 0
M  V30 2583 C 241.588 -3.12161 -2.92813 0
M  V30 2584 C 240.914 -3.13877 -4.3288 0
M  V30 2585 C 242.214 -4.51322 -2.6288 0
M  V30 2586 H 243.908 -2.71589 -1.26015 0
M  V30 2587 H 241.454 -1.30684 -0.604778 0
M  V30 2588 H 243.407 -2.14255 -3.62867 0
M  V30 2589 H 242.131 -1.01611 -3.10391 0
M  V30 2590 H 240.79 -2.94173 -2.18764 0
M  V30 2591 H 240.438 -2.16687 -4.53933 0
M  V30 2592 H 240.138 -3.91576 -4.38112 0
M  V30 2593 H 241.662 -3.33789 -5.1129 0
M  V30 2594 H 243.076 -4.69435 -3.29096 0
M  V30 2595 H 241.473 -5.31053 -2.79468 0
M  V30 2596 H 242.543 -4.58353 -1.58242 0
M  V30 2597 N 243.887 0.651787 -1.4349 0
M  V30 2598 C 245.112 1.44434 -1.48841 0
M  V30 2599 C 245.537 1.8779 -0.107955 0
M  V30 2600 O 244.895 1.57464 0.898602 0
M  V30 2601 C 244.943 2.65458 -2.44059 0
M  V30 2602 O 244.047 3.64566 -1.92784 0
M  V30 2603 H 243.388 0.433005 -0.503391 0
M  V30 2604 H 245.918 0.797451 -1.88419 0
M  V30 2605 H 245.928 3.13255 -2.6141 0
M  V30 2606 H 244.603 2.33244 -3.4434 0
M  V30 2607 H 243.18 3.23716 -1.851 0
M  V30 2608 N 245.365 1.30045 0.890287 0
M  V30 2609 C 246.297 1.11786 2.00091 0
M  V30 2610 C 247.31 0.0626307 1.62679 0
M  V30 2611 O 248.499 0.308112 1.75821 0
M  V30 2612 C 245.599 0.681527 3.31977 0
M  V30 2613 C 244.772 1.81735 3.97858 0
M  V30 2614 C 243.831 1.37045 5.08041 0
M  V30 2615 O 242.857 2.07677 5.29961 0
M  V30 2616 N 244.059 0.246525 5.79976 0
M  V30 2617 H 246.824 2.07441 2.16306 0
M  V30 2618 H 244.385 1.2211 1.06305 0
M  V30 2619 H 246.377 0.365675 4.03045 0
M  V30 2620 H 244.947 -0.182828 3.12065 0
M  V30 2621 H 244.167 2.30159 3.20032 0
M  V30 2622 H 245.455 2.57865 4.38615 0
M  V30 2623 H 244.853 -0.34215 5.64664 0
M  V30 2624 H 243.41 -0.00990438 6.51799 0
M  V30 2625 N 246.843 -1.10192 1.12674 0
M  V30 2626 C 248.091 -1.81845 0.881861 0
M  V30 2627 C 248.412 -1.85737 -0.593867 0
M  V30 2628 O 247.682 -1.33724 -1.4316 0
M  V30 2629 H 246.262 -0.673432 0.323261 0
M  V30 2630 H 248.924 -1.33316 1.42172 0
M  V30 2631 H 248.02 -2.85288 1.2656 0
M  V30 2632 N 248.321 -0.919034 -1.28029 0
M  V30 2633 C 249.253 -0.368762 -2.26214 0
M  V30 2634 C 250.266 0.495716 -1.55069 0
M  V30 2635 O 251.455 0.30974 -1.75792 0
M  V30 2636 C 248.555 0.491049 -3.35324 0
M  V30 2637 C 247.728 -0.352133 -4.3598 0
M  V30 2638 C 246.787 0.443622 -5.24327 0
M  V30 2639 O 245.813 -0.14566 -5.69014 0
M  V30 2640 N 247.015 1.74545 -5.53637 0
M  V30 2641 H 249.78 -1.21273 -2.74068 0
M  V30 2642 H 247.341 -0.785541 -1.41566 0
M  V30 2643 H 249.333 1.03026 -3.91366 0
M  V30 2644 H 247.903 1.23574 -2.87138 0
M  V30 2645 H 247.123 -1.07269 -3.79324 0
M  V30 2646 H 248.411 -0.928883 -5.00249 0
M  V30 2647 H 247.809 2.24666 -5.19174 0
M  V30 2648 H 246.366 2.23138 -6.12416 0
M  V30 2649 N 249.799 1.42003 -0.683588 0
M  V30 2650 C 251.045 2.01712 -0.209825 0
M  V30 2651 C 251.378 1.53968 1.18353 0
M  V30 2652 O 250.653 0.745661 1.79639 0
M  V30 2653 C 250.936 3.59202 -0.254197 0
M  V30 2654 C 250.789 4.17102 -1.68363 0
M  V30 2655 C 252.108 4.38344 0.392709 0
M  V30 2656 H 249.227 0.732891 -0.0777189 0
M  V30 2657 H 251.869 1.68909 -0.87004 0
M  V30 2658 H 250.019 3.87278 0.307954 0
M  V30 2659 H 251.691 3.99946 -2.29871 0
M  V30 2660 H 249.934 3.72597 -2.22157 0
M  V30 2661 H 250.605 5.26249 -1.6663 0
M  V30 2662 H 253.081 4.16011 -0.0859162 0
M  V30 2663 H 251.957 5.47901 0.331063 0
M  V30 2664 H 252.218 4.16887 1.47164 0
M  V30 2665 N 251.277 0.427512 1.51691 0
M  V30 2666 C 252.207 -0.3796 2.30394 0
M  V30 2667 C 253.188 -1.02982 1.35384 0
M  V30 2668 O 254.373 -1.03534 1.643 0
M  V30 2669 C 251.503 -1.48649 3.1388 0
M  V30 2670 C 250.457 -0.960294 4.17088 0
M  V30 2671 C 249.783 -2.16219 4.89033 0
M  V30 2672 C 251.083 -0.00153679 5.223 0
M  V30 2673 H 252.777 0.277164 2.98114 0
M  V30 2674 H 250.323 0.134739 1.43368 0
M  V30 2675 H 252.276 -2.05826 3.67714 0
M  V30 2676 H 251 -2.1714 2.43962 0
M  V30 2677 H 249.659 -0.410806 3.64291 0
M  V30 2678 H 249.307 -2.83307 4.15628 0
M  V30 2679 H 249.007 -1.81654 5.58816 0
M  V30 2680 H 250.531 -2.73968 5.45687 0
M  V30 2681 H 251.945 -0.482687 5.71264 0
M  V30 2682 H 250.342 0.256199 5.99553 0
M  V30 2683 H 251.412 0.938174 4.75738 0
M  V30 2684 N 252.755 -1.56801 0.158532 0
M  V30 2685 C 253.702 -2.17337 -0.776729 0
M  V30 2686 C 254.672 -1.1096 -1.23601 0
M  V30 2687 O 255.857 -1.39054 -1.30647 0
M  V30 2688 C 252.997 -2.80822 -2.00582 0
M  V30 2689 C 252.11 -4.01624 -1.59129 0
M  V30 2690 C 251.245 -4.53072 -2.77306 0
M  V30 2691 C 250.284 -5.66314 -2.32282 0
M  V30 2692 N 249.421 -6.12329 -3.43508 0
M  V30 2693 H 254.261 -2.96918 -0.253701 0
M  V30 2694 H 251.798 -1.46661 -0.113504 0
M  V30 2695 H 253.756 -3.15779 -2.72652 0
M  V30 2696 H 252.386 -2.03866 -2.50277 0
M  V30 2697 H 251.438 -3.72571 -0.767806 0
M  V30 2698 H 252.75 -4.83633 -1.2207 0
M  V30 2699 H 251.904 -4.90145 -3.57551 0
M  V30 2700 H 250.643 -3.70095 -3.17617 0
M  V30 2701 H 249.648 -5.28806 -1.5048 0
M  V30 2702 H 250.873 -6.51085 -1.93043 0
M  V30 2703 H 248.819 -5.32284 -3.83418 0
M  V30 2704 H 248.736 -6.89293 -3.105 0
M  V30 2705 H 250.004 -6.5405 -4.24075 0
M  V30 2706 N 254.233 0.115231 -1.57178 0
M  V30 2707 C 255.163 1.1423 -2.03651 0
M  V30 2708 C 256.144 1.42967 -0.921655 0
M  V30 2709 O 257.329 1.53343 -1.19162 0
M  V30 2710 C 254.459 2.4675 -2.44401 0
M  V30 2711 C 253.413 2.32467 -3.59365 0
M  V30 2712 C 252.739 3.69984 -3.86026 0
M  V30 2713 C 254.039 1.78203 -4.90959 0
M  V30 2714 H 255.733 0.755749 -2.89705 0
M  V30 2715 H 253.279 0.362093 -1.39373 0
M  V30 2716 H 255.232 3.18854 -2.75517 0
M  V30 2717 H 253.956 2.87302 -1.55322 0
M  V30 2718 H 252.615 1.62811 -3.28463 0
M  V30 2719 H 252.263 4.08028 -2.94147 0
M  V30 2720 H 251.963 3.61279 -4.63412 0
M  V30 2721 H 253.487 4.43587 -4.19599 0
M  V30 2722 H 254.901 2.40128 -5.20587 0
M  V30 2723 H 253.298 1.8031 -5.72371 0
M  V30 2724 H 254.368 0.739876 -4.79222 0
M  V30 2725 N 255.711 1.52812 0.385517 0
M  V30 2726 C 256.621 1.80766 1.49535 0
M  V30 2727 C 257.637 0.694651 1.59532 0
M  V30 2728 O 258.813 0.982611 1.75803 0
M  V30 2729 C 255.878 1.97381 2.85029 0
M  V30 2730 C 254.939 3.21295 2.84724 0
M  V30 2731 C 254.172 3.37108 4.13756 0
M  V30 2732 O 254.395 2.5765 5.08893 0
M  V30 2733 O 253.329 4.30378 4.20783 0
M  V30 2734 H 257.155 2.75015 1.28842 0
M  V30 2735 H 254.74 1.37946 0.573697 0
M  V30 2736 H 256.622 2.09996 3.65349 0
M  V30 2737 H 255.297 1.06322 3.05741 0
M  V30 2738 H 254.204 3.1412 2.03174 0
M  V30 2739 H 255.537 4.12212 2.68965 0
M  V30 2740 N 257.189 -0.644168 1.43834 0
M  V30 2741 C 258.152 -1.73857 1.49353 0
M  V30 2742 C 259.152 -1.56315 0.377112 0
M  V30 2743 O 260.342 -1.62048 0.639226 0
M  V30 2744 C 257.474 -3.12819 1.35488 0
M  V30 2745 H 258.667 -1.70342 2.46827 0
M  V30 2746 H 256.22 -0.856652 1.30733 0
M  V30 2747 H 256.955 -3.2194 0.390569 0
M  V30 2748 H 256.74 -3.26958 2.16428 0
M  V30 2749 H 258.23 -3.92606 1.42302 0
M  V30 2750 N 258.668 -1.30515 -0.883378 0
M  V30 2751 C 259.615 -1.17032 -1.98927 0
M  V30 2752 C 260.585 -0.0594241 -1.65994 0
M  V30 2753 O 261.77 -0.229895 -1.8941 0
M  V30 2754 C 258.91 -0.869777 -3.33959 0
M  V30 2755 C 258.023 -2.06271 -3.79574 0
M  V30 2756 C 257.158 -1.70011 -5.03259 0
M  V30 2757 C 256.197 -2.8579 -5.41286 0
M  V30 2758 N 255.334 -2.49816 -6.56153 0
M  V30 2759 H 260.174 -2.1164 -2.09792 0
M  V30 2760 H 257.711 -1.05296 -1.02719 0
M  V30 2761 H 259.669 -0.676138 -4.11685 0
M  V30 2762 H 258.299 0.0394332 -3.22776 0
M  V30 2763 H 257.351 -2.36755 -2.97744 0
M  V30 2764 H 258.663 -2.92971 -4.03694 0
M  V30 2765 H 257.817 -1.47032 -5.88614 0
M  V30 2766 H 256.556 -0.804829 -4.81013 0
M  V30 2767 H 255.561 -3.09434 -4.54456 0
M  V30 2768 H 256.786 -3.76008 -5.65504 0
M  V30 2769 H 254.732 -1.62795 -6.35479 0
M  V30 2770 H 254.649 -3.30048 -6.8015 0
M  V30 2771 H 255.917 -2.30197 -7.44735 0
M  V30 2772 N 260.146 1.09593 -1.13257 0
M  V30 2773 C 261.374 1.855 -0.916378 0
M  V30 2774 C 261.789 1.81069 0.534738 0
M  V30 2775 O 261.146 1.20562 1.37007 0
M  V30 2776 C 261.197 3.33546 -1.39388 0
M  V30 2777 O 260.918 3.37927 -2.78813 0
M  V30 2778 C 262.419 4.26299 -1.21588 0
M  V30 2779 H 259.639 0.585991 -0.326887 0
M  V30 2780 H 262.183 1.38488 -1.5047 0
M  V30 2781 H 260.338 3.77992 -0.848597 0
M  V30 2782 H 260.752 4.30254 -2.9997 0
M  V30 2783 H 262.226 5.28341 -1.59876 0
M  V30 2784 H 262.703 4.38918 -0.157376 0
M  V30 2785 H 263.309 3.87668 -1.7491 0
M  V30 2786 N 261.624 0.925811 1.2754 0
M  V30 2787 C 262.901 0.483726 1.89524 0
M  V30 2788 C 263.281 -1.03809 1.83812 0
M  V30 2789 O 262.629 -1.89143 1.28207 0
M  V30 2790 C 262.839 1.02769 3.33526 0
M  V30 2791 C 264.187 1.08703 4.10449 0
M  V30 2792 O 265.211 0.977175 3.42534 0
M  V30 2793 O 264.07 1.25599 5.31871 0
M  V30 2794 H 261.164 0.15529 0.812289 0
M  V30 2795 H 263.71 1.01738 1.35822 0
M  V30 2796 H 262.482 2.07155 3.31967 0
M  V30 2797 H 262.105 0.475567 3.94746 0
M  V30 2798 N 263.102 -1.41638 0.69111 0
M  V30 2799 C 264.513 -1.84346 0.295517 0
M  V30 2800 C 264.864 -1.57833 -1.16547 0
M  V30 2801 O 263.989 -1.04648 -1.89414 0
M  V30 2802 C 264.584 -3.34636 0.529575 0
M  V30 2803 C 263.143 -3.7593 0.187944 0
M  V30 2804 C 262.29 -2.65082 0.814052 0
M  V30 2805 H 265.241 -1.31253 0.892092 0
M  V30 2806 H 265.262 -3.79903 -0.213148 0
M  V30 2807 H 264.774 -3.53901 1.59297 0
M  V30 2808 H 262.875 -3.62268 -0.871367 0
M  V30 2809 H 262.988 -4.74808 0.63985 0
M  V30 2810 H 261.352 -2.53528 0.244017 0
M  V30 2811 H 262.135 -2.87167 1.88123 0
M  V30 2812 N 264.58 -0.43555 -1.51462 0
M  V30 2813 C 265.805 0.132627 -2.06976 0
M  V30 2814 C 266.23 1.35848 -1.30104 0
M  V30 2815 O 265.588 1.78112 -0.338493 0
M  V30 2816 C 265.636 0.43523 -3.57964 0
M  V30 2817 O 264.74 1.52198 -3.83288 0
M  V30 2818 H 264.081 0.00265 -0.663995 0
M  V30 2819 H 266.611 -0.616369 -1.95095 0
M  V30 2820 H 266.621 0.686206 -4.02188 0
M  V30 2821 H 265.296 -0.460739 -4.1334 0
M  V30 2822 H 263.873 1.2611 -3.50928 0
M  V30 2823 N 266.058 1.56714 -0.166846 0
M  V30 2824 C 267.307 1.95922 0.479318 0
M  V30 2825 C 267.62 1.05529 1.6469 0
M  V30 2826 O 268.826 1.34399 2.35901 0
M  V30 2827 C 267.282 3.48359 0.90412 0
M  V30 2828 C 266.89 4.47369 -0.237621 0
M  V30 2829 C 268.634 3.96394 1.51896 0
M  V30 2830 C 266.541 5.91039 0.206561 0
M  V30 2831 H 265.471 0.731495 0.18284 0
M  V30 2832 H 268.122 1.81728 -0.254363 0
M  V30 2833 H 266.504 3.57955 1.69365 0
M  V30 2834 H 267.678 4.49485 -1.01489 0
M  V30 2835 H 265.993 4.09366 -0.762128 0
M  V30 2836 H 268.59 5.01186 1.86325 0
M  V30 2837 H 268.933 3.39075 2.41524 0
M  V30 2838 H 269.466 3.89796 0.79395 0
M  V30 2839 H 266.205 6.52221 -0.654834 0
M  V30 2840 H 265.725 5.9224 0.949282 0
M  V30 2841 H 267.404 6.43707 0.651939 0
M  V30 2842 N 267.536 -0.106894 1.57237 0
M  V30 2843 C 268.466 -1.13148 2.04254 0
M  V30 2844 C 269.447 -1.42476 0.929224 0
M  V30 2845 O 270.632 -1.52709 1.19973 0
M  V30 2846 C 267.762 -2.4545 2.45706 0
M  V30 2847 C 266.716 -2.30558 3.60592 0
M  V30 2848 C 266.042 -3.67931 3.87983 0
M  V30 2849 C 267.342 -1.75597 4.91897 0
M  V30 2850 H 269.036 -0.740374 2.90101 0
M  V30 2851 H 266.582 -0.354696 1.39563 0
M  V30 2852 H 268.535 -3.17389 2.77205 0
M  V30 2853 H 267.259 -2.86475 1.56843 0
M  V30 2854 H 265.918 -1.61067 3.29322 0
M  V30 2855 H 265.566 -4.06462 2.96306 0
M  V30 2856 H 265.266 -3.58817 4.65322 0
M  V30 2857 H 266.79 -4.41356 4.21945 0
M  V30 2858 H 268.204 -2.37364 5.21854 0
M  V30 2859 H 266.601 -1.77272 5.73319 0
M  V30 2860 H 267.671 -0.714451 4.79608 0
M  V30 2861 N 269.014 -1.53014 -0.377408 0
M  V30 2862 C 270.262 -1.6829 -1.11906 0
M  V30 2863 C 270.583 -0.431206 -1.90173 0
M  V30 2864 O 269.853 0.554595 -1.87886 0
M  V30 2865 H 268.433 -0.620371 -0.416112 0
M  V30 2866 H 271.095 -1.90167 -0.426893 0
M  V30 2867 H 270.191 -2.53862 -1.8155 0
M  V30 2868 N 270.492 0.636531 -1.44174 0
M  V30 2869 C 271.74 1.39343 -1.46383 0
M  V30 2870 C 272.061 1.94766 -0.0955715 0
M  V30 2871 O 271.331 1.75452 0.871395 0
M  V30 2872 H 269.911 0.517199 -0.538994 0
M  V30 2873 H 272.573 0.74957 -1.7991 0
M  V30 2874 H 271.669 2.22746 -2.18611 0
M  V30 2875 N 271.97 1.30982 0.876444 0
M  V30 2876 C 272.903 1.12414 1.98591 0
M  V30 2877 C 273.881 0.0294078 1.62573 0
M  V30 2878 O 275.065 0.184598 1.87594 0
M  V30 2879 C 272.192 0.716276 3.3104 0
M  V30 2880 C 271.238 1.81311 3.86042 0
M  V30 2881 S 272.071 3.41727 4.1229 0
M  V30 2882 C 273.227 3.02863 5.47745 0
M  V30 2883 H 273.46 2.06338 2.14037 0
M  V30 2884 H 270.993 1.15393 1.02586 0
M  V30 2885 H 272.951 0.487697 4.07593 0
M  V30 2886 H 271.612 -0.203749 3.13438 0
M  V30 2887 H 270.805 1.48021 4.81774 0
M  V30 2888 H 270.407 1.99641 3.16259 0
M  V30 2889 H 272.699 2.51353 6.29148 0
M  V30 2890 H 273.642 3.97533 5.8598 0
M  V30 2891 H 274.05 2.40487 5.10711 0
M  V30 2892 N 273.449 -1.08991 1.13837 0
M  V30 2893 C 274.698 -1.80631 0.897509 0
M  V30 2894 C 275.011 -1.86872 -0.57777 0
M  V30 2895 O 276.217 -2.54866 -0.935701 0
M  V30 2896 C 274.673 -3.24517 1.55618 0
M  V30 2897 C 274.281 -3.26529 3.0673 0
M  V30 2898 C 276.025 -4.00882 1.3962 0
M  V30 2899 C 273.932 -4.64965 3.65461 0
M  V30 2900 H 272.862 -0.67691 0.332129 0
M  V30 2901 H 275.513 -1.2246 1.3666 0
M  V30 2902 H 273.895 -3.82778 1.01476 0
M  V30 2903 H 275.069 -2.78008 3.67489 0
M  V30 2904 H 273.384 -2.63656 3.22296 0
M  V30 2905 H 275.981 -5.03167 1.80906 0
M  V30 2906 H 276.324 -4.14896 0.341578 0
M  V30 2907 H 276.857 -3.49075 1.90766 0
M  V30 2908 H 273.596 -4.56153 4.70749 0
M  V30 2909 H 273.116 -5.13792 3.09481 0
M  V30 2910 H 274.795 -5.3394 3.654 0
M  V30 2911 N 274.927 -0.932562 -1.27047 0
M  V30 2912 C 276.173 -0.576412 -1.94436 0
M  V30 2913 C 276.506 0.880891 -1.73072 0
M  V30 2914 O 275.781 1.62905 -1.06264 0
M  V30 2915 C 276.064 -0.909031 -3.48437 0
M  V30 2916 C 275.917 -2.42044 -3.79123 0
M  V30 2917 C 277.236 -0.418341 -4.38107 0
M  V30 2918 H 274.355 -0.210888 -0.706184 0
M  V30 2919 H 276.997 -1.16522 -1.50075 0
M  V30 2920 H 275.147 -0.407947 -3.86352 0
M  V30 2921 H 276.819 -2.99359 -3.50973 0
M  V30 2922 H 275.062 -2.86758 -3.25503 0
M  V30 2923 H 275.733 -2.6037 -4.86736 0
M  V30 2924 H 278.209 -0.847856 -4.0737 0
M  V30 2925 H 277.085 -0.679981 -5.44672 0
M  V30 2926 H 277.346 0.681642 -4.36814 0
M  V30 2927 N 276.405 1.4127 -0.698611 0
M  V30 2928 C 277.821 1.55241 -0.370462 0
M  V30 2929 C 278.021 1.67351 1.12231 0
M  V30 2930 O 277.077 1.65363 1.90818 0
M  V30 2931 C 278.39 2.78997 -1.12165 0
M  V30 2932 C 279.938 2.92797 -1.1063 0
M  V30 2933 C 280.413 4.19445 -1.8393 0
M  V30 2934 N 281.904 4.26409 -1.80914 0
M  V30 2935 C 282.639 5.23271 -2.34467 0
M  V30 2936 N 282.135 6.26145 -2.96504 0
M  V30 2937 N 283.928 5.15232 -2.24706 0
M  V30 2938 H 276.079 1.31654 -1.66676 0
M  V30 2939 H 278.342 0.635393 -0.703548 0
M  V30 2940 H 278.048 2.76268 -2.17644 0
M  V30 2941 H 277.922 3.70606 -0.702209 0
M  V30 2942 H 280.309 2.95039 -0.0597713 0
M  V30 2943 H 280.39 2.02353 -1.56483 0
M  V30 2944 H 280.034 4.17964 -2.88563 0
M  V30 2945 H 279.964 5.08866 -1.35509 0
M  V30 2946 H 282.455 3.527 -1.35687 0
M  V30 2947 H 282.768 6.96451 -3.34927 0
M  V30 2948 H 281.113 6.26638 -3.00583 0
M  V30 2949 H 284.304 4.33789 -1.7591 0
M  V30 2950 H 284.477 5.90552 -2.66745 0
M  V30 2951 N 277.883 0.443576 1.51229 0
M  V30 2952 C 279.132 -0.122332 2.01329 0
M  V30 2953 C 279.445 -1.43237 1.33201 0
M  V30 2954 O 280.651 -2.0816 1.74304 0
M  V30 2955 C 279.107 -0.268551 3.58897 0
M  V30 2956 C 278.715 1.03142 4.35965 0
M  V30 2957 C 280.459 -0.787894 4.17124 0
M  V30 2958 C 278.366 0.850504 5.85252 0
M  V30 2959 H 277.296 -0.0494929 0.752374 0
M  V30 2960 H 279.947 0.574289 1.74282 0
M  V30 2961 H 278.329 -1.02832 3.82415 0
M  V30 2962 H 279.503 1.80001 4.24189 0
M  V30 2963 H 277.818 1.47977 3.89219 0
M  V30 2964 H 280.415 -0.939841 5.26375 0
M  V30 2965 H 280.758 -1.77201 3.76703 0
M  V30 2966 H 281.291 -0.0862669 3.97706 0
M  V30 2967 H 278.03 1.80718 6.30096 0
M  V30 2968 H 277.55 0.121825 5.99676 0
M  V30 2969 H 279.229 0.506163 6.45017 0
M  V30 2970 N 279.361 -1.56624 0.175154 0
M  V30 2971 C 280.609 -1.96609 -0.467885 0
M  V30 2972 C 280.93 -1.06238 -1.63519 0
M  V30 2973 O 280.2 -0.129523 -1.95471 0
M  V30 2974 H 278.78 -0.726008 -0.175845 0
M  V30 2975 H 281.442 -1.93195 0.257234 0
M  V30 2976 H 280.538 -3.00989 -0.825342 0
M  V30 2977 N 280.839 0.0985539 -1.57292 0
M  V30 2978 C 281.749 1.13824 -2.05137 0
M  V30 2979 C 282.765 1.44076 -0.975604 0
M  V30 2980 O 283.941 1.54786 -1.28853 0
M  V30 2981 C 281.006 2.43969 -2.46333 0
M  V30 2982 C 280.067 2.2093 -3.68087 0
M  V30 2983 C 279.3 3.44869 -4.0731 0
M  V30 2984 O 279.523 4.52972 -3.46659 0
M  V30 2985 O 278.457 3.34661 -5.00285 0
M  V30 2986 H 282.283 0.761881 -2.93988 0
M  V30 2987 H 279.868 0.310818 -1.46131 0
M  V30 2988 H 281.75 3.20609 -2.73473 0
M  V30 2989 H 280.425 2.81038 -1.60621 0
M  V30 2990 H 279.332 1.42081 -3.46069 0
M  V30 2991 H 280.665 1.88755 -4.54568 0
M  V30 2992 N 282.317 1.53212 0.369288 0
M  V30 2993 C 283.264 1.79388 1.45219 0
M  V30 2994 C 284.234 0.638059 1.53356 0
M  V30 2995 O 285.419 0.879852 1.69302 0
M  V30 2996 C 282.559 1.98623 2.82211 0
M  V30 2997 C 281.672 3.26337 2.8307 0
M  V30 2998 C 280.807 3.35779 4.11614 0
M  V30 2999 C 279.846 4.5754 4.06601 0
M  V30 3000 N 278.983 4.64155 5.26787 0
M  V30 3001 H 283.823 2.71794 1.22198 0
M  V30 3002 H 281.36 1.34642 0.592444 0
M  V30 3003 H 283.318 2.07761 3.61789 0
M  V30 3004 H 281.948 1.09558 3.03639 0
M  V30 3005 H 281 3.26171 1.95747 0
M  V30 3006 H 282.312 4.15988 2.75237 0
M  V30 3007 H 281.466 3.44208 4.99606 0
M  V30 3008 H 280.205 2.44137 4.22195 0
M  V30 3009 H 279.21 4.49215 3.16996 0
M  V30 3010 H 280.435 5.50519 3.97625 0
M  V30 3011 H 278.381 3.75413 5.3796 0
M  V30 3012 H 278.298 5.47706 5.21109 0
M  V30 3013 H 279.566 4.76863 6.16621 0
M  V30 3014 N 283.795 -0.628877 1.44509 0
M  V30 3015 C 285.025 -1.41349 1.50678 0
M  V30 3016 C 285.433 -1.88745 0.131075 0
M  V30 3017 O 284.776 -1.61592 -0.87371 0
M  V30 3018 C 284.838 -2.66608 2.41165 0
M  V30 3019 C 284.502 -2.40993 3.88293 0
M  V30 3020 C 285.499 -2.0268 4.78766 0
M  V30 3021 C 283.184 -2.54563 4.33016 0
M  V30 3022 C 285.178 -1.78269 6.11963 0
M  V30 3023 C 282.865 -2.29766 5.6626 0
M  V30 3024 C 283.863 -1.91678 6.55552 0
M  V30 3025 O 283.551 -1.67158 7.86329 0
M  V30 3026 H 283.283 -0.439851 0.51333 0
M  V30 3027 H 285.837 -0.776084 1.90174 0
M  V30 3028 H 284.067 -3.32994 1.96601 0
M  V30 3029 H 285.756 -3.28615 2.38259 0
M  V30 3030 H 286.522 -1.91751 4.45485 0
M  V30 3031 H 282.401 -2.83179 3.63773 0
M  V30 3032 H 285.945 -1.48465 6.81619 0
M  V30 3033 H 281.842 -2.40306 5.99102 0
M  V30 3034 H 282.61 -1.81386 7.98149 0
M  V30 3035 N 285.273 -1.31445 -0.869486 0
M  V30 3036 C 286.519 -1.21337 -1.62496 0
M  V30 3037 C 286.852 0.227872 -1.92858 0
M  V30 3038 O 286.127 1.16094 -1.56053 0
M  V30 3039 C 286.41 -2.05814 -2.95487 0
M  V30 3040 C 286.263 -3.5824 -2.72 0
M  V30 3041 C 287.582 -1.9079 -3.96594 0
M  V30 3042 H 284.701 -0.442135 -0.589649 0
M  V30 3043 H 287.343 -1.6124 -1.00507 0
M  V30 3044 H 285.493 -1.71913 -3.48394 0
M  V30 3045 H 287.165 -4.0228 -2.25762 0
M  V30 3046 H 285.408 -3.81647 -2.06224 0
M  V30 3047 H 286.079 -4.12657 -3.66631 0
M  V30 3048 H 288.555 -2.20459 -3.52898 0
M  V30 3049 H 287.431 -2.52199 -4.87531 0
M  V30 3050 H 287.692 -0.871341 -4.33428 0
M  V30 3051 N 286.751 1.08385 -1.14413 0
M  V30 3052 C 288.028 1.77429 -0.823297 0
M  V30 3053 C 288.408 1.9974 0.683163 0
M  V30 3054 O 287.756 1.60739 1.62405 0
M  V30 3055 C 287.966 3.09004 -1.62227 0
M  V30 3056 C 289.314 3.83532 -1.82177 0
M  V30 3057 O 290.338 3.18786 -1.58915 0
M  V30 3058 O 289.197 4.99792 -2.21067 0
M  V30 3059 H 286.291 0.769999 -0.301712 0
M  V30 3060 H 288.837 1.14846 -1.24934 0
M  V30 3061 H 287.609 2.88316 -2.64555 0
M  V30 3062 H 287.232 3.79316 -1.19187 0
M  V30 3063 N 288.23 0.939286 1.26551 0
M  V30 3064 C 289.163 0.391702 2.24813 0
M  V30 3065 C 290.141 -0.518421 1.54114 0
M  V30 3066 O 291.325 -0.456299 1.82894 0
M  V30 3067 C 288.452 -0.437382 3.35864 0
M  V30 3068 C 287.498 0.410946 4.24516 0
M  V30 3069 S 288.331 1.83372 5.03125 0
M  V30 3070 C 289.487 1.01264 6.17654 0
M  V30 3071 H 289.72 1.22448 2.70913 0
M  V30 3072 H 287.253 0.742269 1.35387 0
M  V30 3073 H 289.211 -0.909837 4.0029 0
M  V30 3074 H 287.872 -1.24482 2.8838 0
M  V30 3075 H 287.065 -0.224191 5.03501 0
M  V30 3076 H 286.667 0.818014 3.64945 0
M  V30 3077 H 288.959 0.254023 6.77024 0
M  V30 3078 H 289.902 1.77589 6.85469 0
M  V30 3079 H 290.31 0.549532 5.61819 0
M  V30 3080 N 289.708 -1.40897 0.706093 0
M  V30 3081 C 290.933 -2.05895 0.249435 0
M  V30 3082 C 291.358 -1.52823 -1.09666 0
M  V30 3083 O 290.716 -0.659589 -1.68876 0
M  V30 3084 C 290.764 -3.59872 0.22904 0
M  V30 3085 O 289.868 -4.04708 -0.792784 0
M  V30 3086 H 289.209 -0.653206 0.119241 0
M  V30 3087 H 291.739 -1.80471 0.96391 0
M  V30 3088 H 291.749 -4.07951 0.0634791 0
M  V30 3089 H 290.424 -3.97866 1.21141 0
M  V30 3090 H 289.001 -3.68111 -0.59572 0
M  V30 3091 N 291.186 -0.45159 -1.50991 0
M  V30 3092 C 292.432 0.110237 -2.025 0
M  V30 3093 C 292.765 1.41109 -1.33424 0
M  V30 3094 O 292.04 1.89135 -0.453659 0
M  V30 3095 C 292.323 0.314271 -3.58726 0
M  V30 3096 C 292.176 -1.00623 -4.38401 0
M  V30 3097 C 293.495 1.07767 -4.26702 0
M  V30 3098 H 290.614 0.0385897 -0.735989 0
M  V30 3099 H 293.256 -0.593374 -1.80497 0
M  V30 3100 H 291.406 0.913601 -3.77605 0
M  V30 3101 H 293.078 -1.64064 -4.31139 0
M  V30 3102 H 291.321 -1.6075 -4.02917 0
M  V30 3103 H 291.992 -0.817341 -5.45915 0
M  V30 3104 H 294.468 0.56986 -4.12179 0
M  V30 3105 H 293.344 1.18921 -5.35863 0
M  V30 3106 H 293.605 2.10939 -3.88532 0
M  V30 3107 N 292.664 1.56529 -0.183458 0
M  V30 3108 C 293.611 2.18546 0.742055 0
M  V30 3109 C 294.581 1.12912 1.2182 0
M  V30 3110 O 295.766 1.41115 1.28418 0
M  V30 3111 C 292.906 2.83977 1.96089 0
M  V30 3112 C 292.019 4.04105 1.52719 0
M  V30 3113 C 291.154 4.57427 2.70063 0
M  V30 3114 C 290.193 5.69938 2.23243 0
M  V30 3115 N 289.33 6.17717 3.33722 0
M  V30 3116 H 294.17 2.97284 0.206432 0
M  V30 3117 H 291.707 1.46823 0.0901571 0
M  V30 3118 H 293.665 3.20077 2.67594 0
M  V30 3119 H 292.295 2.07822 2.47002 0
M  V30 3120 H 291.347 3.73745 0.708436 0
M  V30 3121 H 292.659 4.85513 1.1436 0
M  V30 3122 H 291.813 4.95772 3.49708 0
M  V30 3123 H 290.552 3.75101 3.11689 0
M  V30 3124 H 289.557 5.31133 1.42048 0
M  V30 3125 H 290.782 6.54073 1.82661 0
M  V30 3126 H 288.728 5.38317 3.74902 0
M  V30 3127 H 288.645 6.94146 2.99495 0
M  V30 3128 H 289.913 6.60713 4.13616 0
M  V30 3129 N 294.142 -0.090211 1.57342 0
M  V30 3130 C 295.37 -0.806224 1.90546 0
M  V30 3131 C 295.785 -1.72041 0.777644 0
M  V30 3132 O 295.142 -1.80778 -0.250103 0
M  V30 3133 C 295.193 -1.61546 3.23396 0
M  V30 3134 O 294.914 -0.738043 4.31839 0
M  V30 3135 C 296.415 -2.4341 3.70495 0
M  V30 3136 H 293.635 -0.230256 0.630257 0
M  V30 3137 H 296.179 -0.0659843 2.04394 0
M  V30 3138 H 294.334 -2.30816 3.11131 0
M  V30 3139 H 294.748 -1.29901 5.08159 0
M  V30 3140 H 296.222 -2.95676 4.66133 0
M  V30 3141 H 296.699 -3.22098 2.98579 0
M  V30 3142 H 297.305 -1.79331 3.85643 0
M  V30 3143 N 295.62 -1.53406 -0.361157 0
M  V30 3144 C 296.567 -1.80156 -1.44265 0
M  V30 3145 C 297.537 -0.646183 -1.53015 0
M  V30 3146 O 298.722 -0.888818 -1.68833 0
M  V30 3147 C 295.862 -2.00116 -2.81154 0
M  V30 3148 C 294.975 -3.27833 -2.81335 0
M  V30 3149 C 294.11 -3.37957 -4.09828 0
M  V30 3150 C 293.149 -4.59689 -4.04168 0
M  V30 3151 N 292.286 -4.66942 -5.24318 0
M  V30 3152 H 297.126 -2.72438 -1.20754 0
M  V30 3153 H 294.663 -1.34954 -0.585296 0
M  V30 3154 H 296.621 -2.09677 -3.60682 0
M  V30 3155 H 295.251 -1.11167 -3.03054 0
M  V30 3156 H 294.303 -3.27204 -1.94014 0
M  V30 3157 H 295.615 -4.17442 -2.73027 0
M  V30 3158 H 294.769 -3.46853 -4.97773 0
M  V30 3159 H 293.508 -2.46372 -4.20894 0
M  V30 3160 H 292.513 -4.50889 -3.14609 0
M  V30 3161 H 293.738 -5.5262 -3.947 0
M  V30 3162 H 291.684 -3.7826 -5.35962 0
M  V30 3163 H 291.601 -5.50462 -5.18197 0
M  V30 3164 H 292.869 -4.80127 -6.14084 0
M  V30 3165 N 297.098 0.621204 -1.44841 0
M  V30 3166 C 298.347 1.37658 -1.47422 0
M  V30 3167 C 298.66 1.95264 -0.114629 0
M  V30 3168 O 299.866 2.71494 -0.0180199 0
M  V30 3169 C 298.322 2.49285 -2.59586 0
M  V30 3170 C 297.93 1.98149 -4.01797 0
M  V30 3171 C 299.674 3.26409 -2.71399 0
M  V30 3172 C 297.581 3.07178 -5.05367 0
M  V30 3173 H 296.511 0.517344 -0.548517 0
M  V30 3174 H 299.162 0.667257 -1.70938 0
M  V30 3175 H 297.544 3.22839 -2.29328 0
M  V30 3176 H 298.718 1.31395 -4.41669 0
M  V30 3177 H 297.033 1.33812 -3.94314 0
M  V30 3178 H 299.63 4.07706 -3.45948 0
M  V30 3179 H 299.973 3.76535 -1.77559 0
M  V30 3180 H 300.506 2.5995 -3.01116 0
M  V30 3181 H 297.245 2.61985 -6.00869 0
M  V30 3182 H 296.765 3.72542 -4.70077 0
M  V30 3183 H 298.444 3.71789 -5.29511 0
M  V30 3184 N 298.576 1.31904 0.862503 0
M  V30 3185 C 299.508 1.16005 1.97675 0
M  V30 3186 C 300.521 0.0971234 1.6251 0
M  V30 3187 O 301.71 0.345337 1.75128 0
M  V30 3188 C 298.81 0.751791 3.30456 0
M  V30 3189 C 297.983 1.90133 3.93914 0
M  V30 3190 C 297.042 1.4779 5.05019 0
M  V30 3191 O 296.068 2.18872 5.25437 0
M  V30 3192 N 297.27 0.369491 5.79323 0
M  V30 3193 H 300.035 2.11982 2.11857 0
M  V30 3194 H 297.596 1.24337 1.03691 0
M  V30 3195 H 299.588 0.451084 4.02178 0
M  V30 3196 H 298.158 -0.116593 3.12382 0
M  V30 3197 H 297.378 2.36896 3.15078 0
M  V30 3198 H 298.666 2.67111 4.33047 0
M  V30 3199 H 298.064 -0.222299 5.65263 0
M  V30 3200 H 296.621 0.128354 6.51674 0
M  V30 3201 N 300.054 -1.07777 1.14986 0
M  V30 3202 C 301.001 -2.14867 0.842672 0
M  V30 3203 C 301.971 -1.6486 -0.202552 0
M  V30 3204 O 303.156 -1.90668 -0.0710568 0
M  V30 3205 C 300.296 -3.43486 0.333363 0
M  V30 3206 C 299.409 -4.07306 1.43965 0
M  V30 3207 C 298.544 -5.23744 0.886914 0
M  V30 3208 C 297.583 -5.79517 1.97043 0
M  V30 3209 N 296.72 -6.87291 1.4344 0
M  V30 3210 H 301.56 -2.40485 1.75986 0
M  V30 3211 H 299.097 -1.1801 0.878179 0
M  V30 3212 H 301.055 -4.17195 0.0198163 0
M  V30 3213 H 299.685 -3.18133 -0.546916 0
M  V30 3214 H 298.737 -3.31293 1.86946 0
M  V30 3215 H 300.049 -4.44771 2.25788 0
M  V30 3216 H 299.203 -6.04419 0.525651 0
M  V30 3217 H 297.942 -4.87685 0.0377957 0
M  V30 3218 H 296.947 -4.97491 2.34057 0
M  V30 3219 H 298.172 -6.17632 2.82325 0
M  V30 3220 H 296.118 -6.5318 0.607567 0
M  V30 3221 H 296.035 -7.23617 2.18895 0
M  V30 3222 H 297.303 -7.71682 1.10124 0
M  V30 3223 N 301.532 -0.945985 -1.26051 0
M  V30 3224 C 302.462 -0.477172 -2.28572 0
M  V30 3225 C 303.443 0.472032 -1.63419 0
M  V30 3226 O 304.628 0.372853 -1.90587 0
M  V30 3227 C 301.758 0.253975 -3.4637 0
M  V30 3228 C 300.712 -0.609135 -4.23643 0
M  V30 3229 C 300.038 0.252252 -5.34105 0
M  V30 3230 C 301.338 -1.8829 -4.8718 0
M  V30 3231 H 303.032 -1.33402 -2.68038 0
M  V30 3232 H 300.578 -0.642904 -1.28852 0
M  V30 3233 H 302.531 0.593016 -4.17207 0
M  V30 3234 H 301.255 1.145 -3.05871 0
M  V30 3235 H 299.914 -0.931138 -3.54578 0
M  V30 3236 H 299.562 1.14278 -4.89846 0
M  V30 3237 H 299.262 -0.32188 -5.86718 0
M  V30 3238 H 300.786 0.586454 -6.07777 0
M  V30 3239 H 302.2 -1.61081 -5.50205 0
M  V30 3240 H 300.597 -2.40199 -5.49931 0
M  V30 3241 H 301.667 -2.59134 -4.09851 0
M  V30 3242 N 303.011 1.40521 -0.713556 0
M  V30 3243 C 304.259 2.00527 -0.251692 0
M  V30 3244 C 304.58 1.56857 1.15848 0
M  V30 3245 O 303.85 0.807127 1.785 0
M  V30 3246 H 302.43 0.741551 -0.0900646 0
M  V30 3247 H 305.092 1.71887 -0.918733 0
M  V30 3248 H 304.188 3.10813 -0.283192 0
M  V30 3249 N 304.489 0.459591 1.5075 0
M  V30 3250 C 305.905 0.113092 1.59199 0
M  V30 3251 C 306.105 -1.37951 1.46874 0
M  V30 3252 O 305.161 -2.15168 1.32132 0
M  V30 3253 C 306.474 0.653043 2.93523 0
M  V30 3254 C 308.022 0.615449 3.0689 0
M  V30 3255 C 308.497 1.13275 4.43771 0
M  V30 3256 N 309.988 1.09167 4.50152 0
M  V30 3257 C 310.723 1.46256 5.54434 0
M  V30 3258 N 310.219 1.90739 6.66026 0
M  V30 3259 N 312.012 1.37932 5.44914 0
M  V30 3260 H 304.163 1.43049 1.57005 0
M  V30 3261 H 306.426 0.590861 0.741341 0
M  V30 3262 H 306.132 1.69822 3.07983 0
M  V30 3263 H 306.006 0.0902132 3.77092 0
M  V30 3264 H 308.393 -0.420793 2.92084 0
M  V30 3265 H 308.474 1.21495 2.25106 0
M  V30 3266 H 308.118 2.16757 4.59324 0
M  V30 3267 H 308.048 0.509576 5.24129 0
M  V30 3268 H 310.539 0.76528 3.7007 0
M  V30 3269 H 310.852 2.17218 7.41644 0
M  V30 3270 H 309.197 1.94683 6.67176 0
M  V30 3271 H 312.388 1.0303 4.56621 0
M  V30 3272 H 312.561 1.67164 6.26067 0
M  V30 3273 N 305.967 -1.56429 0.191757 0
M  V30 3274 C 306.93 -2.17707 -0.716688 0
M  V30 3275 C 307.93 -1.13061 -1.14341 0
M  V30 3276 O 309.12 -1.38464 -1.05704 0
M  V30 3277 C 306.252 -2.77644 -1.97804 0
M  V30 3278 H 307.445 -2.99342 -0.1829 0
M  V30 3279 H 304.998 -1.56193 -0.0578566 0
M  V30 3280 H 305.733 -1.99799 -2.55443 0
M  V30 3281 H 305.518 -3.54246 -1.68083 0
M  V30 3282 H 307.008 -3.24708 -2.62592 0
M  V30 3283 N 307.445 0.0818655 -1.57387 0
M  V30 3284 C 308.378 1.12986 -1.98266 0
M  V30 3285 C 309.356 1.38123 -0.857954 0
M  V30 3286 O 310.54 1.51663 -1.1194 0
M  V30 3287 C 307.667 2.47632 -2.31076 0
M  V30 3288 C 306.713 2.38693 -3.53452 0
M  V30 3289 S 307.546 1.79071 -5.04672 0
M  V30 3290 C 308.702 3.15316 -5.40673 0
M  V30 3291 H 308.935 0.781435 -2.86846 0
M  V30 3292 H 306.468 0.290034 -1.51651 0
M  V30 3293 H 308.426 3.25089 -2.50654 0
M  V30 3294 H 307.087 2.79638 -1.43043 0
M  V30 3295 H 306.28 3.37964 -3.73893 0
M  V30 3296 H 305.882 1.69369 -3.33452 0
M  V30 3297 H 308.174 4.11613 -5.38127 0
M  V30 3298 H 309.117 2.99664 -6.41566 0
M  V30 3299 H 309.525 3.15457 -4.68132 0
M  V30 3300 N 308.923 1.53595 0.353017 0
M  V30 3301 C 310.339 1.43648 0.695516 0
M  V30 3302 C 310.539 0.585617 1.92802 0
M  V30 3303 O 309.595 0.0729223 2.52395 0
M  V30 3304 C 310.908 2.8701 0.896991 0
M  V30 3305 C 312.456 2.96723 0.996209 0
M  V30 3306 C 312.931 4.41173 1.23007 0
M  V30 3307 N 314.422 4.44657 1.29749 0
M  V30 3308 C 315.157 5.53547 1.49577 0
M  V30 3309 N 314.653 6.72461 1.66639 0
M  V30 3310 N 316.446 5.41145 1.52048 0
M  V30 3311 H 308.597 2.07415 -0.457481 0
M  V30 3312 H 310.86 0.9372 -0.142687 0
M  V30 3313 H 310.566 3.51644 0.0629938 0
M  V30 3314 H 310.44 3.31401 1.80148 0
M  V30 3315 H 312.827 2.32235 1.82074 0
M  V30 3316 H 312.908 2.55707 0.0688331 0
M  V30 3317 H 312.552 5.06238 0.410505 0
M  V30 3318 H 312.482 4.79772 2.17086 0
M  V30 3319 H 314.973 3.58963 1.18126 0
M  V30 3320 H 315.286 7.51214 1.81378 0
M  V30 3321 H 313.631 6.75423 1.63794 0
M  V30 3322 H 316.822 4.47205 1.38294 0
M  V30 3323 H 316.995 6.26068 1.67159 0
M  V30 3324 N 310.401 -0.613514 1.45168 0
M  V30 3325 C 311.311 -1.75296 1.55912 0
M  V30 3326 C 312.327 -1.68244 0.443856 0
M  V30 3327 O 313.503 -1.88706 0.70371 0
M  V30 3328 C 310.568 -3.1174 1.5172 0
M  V30 3329 C 309.629 -3.30291 2.74238 0
M  V30 3330 C 308.862 -4.60226 2.70236 0
M  V30 3331 O 309.085 -5.42168 1.77229 0
M  V30 3332 O 308.019 -4.81361 3.61352 0
M  V30 3333 H 311.845 -1.69183 2.52212 0
M  V30 3334 H 309.43 -0.776886 1.27612 0
M  V30 3335 H 311.312 -3.93044 1.51968 0
M  V30 3336 H 309.987 -3.18357 0.585697 0
M  V30 3337 H 308.894 -2.48598 2.79553 0
M  V30 3338 H 310.227 -3.28547 3.66494 0
M  V30 3339 N 311.879 -1.3236 -0.855495 0
M  V30 3340 C 313.128 -1.22226 -1.60448 0
M  V30 3341 C 313.441 0.214733 -1.94418 0
M  V30 3342 O 314.647 0.437917 -2.67945 0
M  V30 3343 C 313.103 -2.14063 -2.89318 0
M  V30 3344 C 312.711 -3.62839 -2.62777 0
M  V30 3345 C 314.455 -2.12764 -3.67331 0
M  V30 3346 C 312.362 -4.4664 -3.87643 0
M  V30 3347 H 311.292 -0.453904 -0.602069 0
M  V30 3348 H 313.943 -1.57314 -0.944698 0
M  V30 3349 H 312.325 -1.71889 -3.5675 0
M  V30 3350 H 313.499 -4.1335 -2.03662 0
M  V30 3351 H 311.814 -3.66261 -1.98096 0
M  V30 3352 H 314.411 -2.72611 -4.59987 0
M  V30 3353 H 314.754 -1.11841 -4.00995 0
M  V30 3354 H 315.287 -2.53214 -3.06802 0
M  V30 3355 H 312.026 -5.48373 -3.5912 0
M  V30 3356 H 311.546 -4.0088 -4.46156 0
M  V30 3357 H 313.225 -4.59597 -4.55389 0
M  V30 3358 N 313.357 1.07166 -1.15556 0
M  V30 3359 C 314.603 1.80065 -0.932984 0
M  V30 3360 C 314.936 1.86586 0.53845 0
M  V30 3361 O 314.211 1.35098 1.39924 0
M  V30 3362 C 314.494 3.25022 -1.55025 0
M  V30 3363 C 314.347 3.26634 -3.09242 0
M  V30 3364 C 315.666 4.22341 -1.2376 0
M  V30 3365 H 312.785 0.653697 -0.340366 0
M  V30 3366 H 315.427 1.25389 -1.4275 0
M  V30 3367 H 313.577 3.71712 -1.12972 0
M  V30 3368 H 315.249 2.88173 -3.60214 0
M  V30 3369 H 313.492 2.65539 -3.43033 0
M  V30 3370 H 314.163 4.28854 -3.47546 0
M  V30 3371 H 316.639 3.8405 -1.60139 0
M  V30 3372 H 315.515 5.22053 -1.69564 0
M  V30 3373 H 315.776 4.41828 -0.154938 0
M  V30 3374 O 314.874 1.08282 1.19822 0
M  V30 3375 H 315.565 0.773615 1.77581 0
M  V30 END ATOM
M  V30 BEGIN BOND
M  V30 END BOND
M  V30 END CTAB
M  END
$$$$
