drugbank_target|P48060 Glioma pathogenesis-related protein 1 (DB05337)
 OpenBabel12092120213D

  0  0  0     0  0            999 V3000
M  V30 BEGIN CTAB
M  V30 COUNTS 10562 11329 0 0 0
M  V30 BEGIN ATOM
M  V30 1 H -1.547 9.37743 -1.21644 0
M  V30 2 O -1.44 8.89599 -0.40059 0
M  V30 3 P 0 8.91 0 0
M  V30 4 O 0.22 10.1746 0.733838 0
M  V30 5 O 0.79 8.73346 -1.23964 0
M  V30 6 O 0.25 7.66872 0.971405 0
M  V30 7 C -0.69 7.42405 2.04668 0
M  V30 8 C 0.04 6.86059 3.24661 0
M  V30 9 O 0.25 5.42934 3.03695 0
M  V30 10 C 1.44 7.41287 3.50796 0
M  V30 11 O 1.83 7.27073 4.86816 0
M  V30 12 C 2.32 6.5273 2.63741 0
M  V30 13 C 1.61 5.1842 2.73198 0
M  V30 14 N 1.66 4.38762 1.4784 0
M  V30 15 H -1.178 8.36899 2.3252 0
M  V30 16 H -1.45 6.70391 1.71179 0
M  V30 17 H -0.582 7.03638 4.13219 0
M  V30 18 H 2.073 4.59931 3.54016 0
M  V30 19 H 2.353 6.88995 1.59871 0
M  V30 20 H 3.344 6.4684 3.0373 0
M  V30 21 H 1.51 8.47002 3.20749 0
M  V30 22 P 3.37998 7.20834 5.23717 0
M  V30 23 O 3.59998 7.79853 6.57286 0
M  V30 24 O 4.16998 7.79239 4.12957 0
M  V30 25 O 3.62998 5.63315 5.29344 0
M  V30 26 C 2.68998 4.80255 6.01876 0
M  V30 27 C 3.41998 3.64202 6.65911 0
M  V30 28 O 3.62998 2.60694 5.64732 0
M  V30 29 C 4.81998 3.93473 7.1943 0
M  V30 30 O 5.20998 3.02071 8.21205 0
M  V30 31 C 5.69998 3.73047 5.97036 0
M  V30 32 C 4.98998 2.58828 5.25741 0
M  V30 33 N 5.03998 2.68068 3.77503 0
M  V30 34 C 4.95998 3.79715 2.96723 0
M  V30 35 N 5.03998 3.5377 1.68852 0
M  V30 36 C 5.17998 2.15054 1.63254 0
M  V30 37 C 5.30998 1.28964 0.518571 0
M  V30 38 N 5.42998 -0.0538097 0.918425 0
M  V30 39 C 5.42998 -0.494275 2.22578 0
M  V30 40 N 5.55998 -1.81086 2.40434 0
M  V30 41 N 5.29998 0.313645 3.27502 0
M  V30 42 C 5.17998 1.61829 2.91033 0
M  V30 43 H 2.20098 5.40332 6.79951 0
M  V30 44 H 1.93098 4.41613 5.32378 0
M  V30 45 H 2.79798 3.26331 7.47797 0
M  V30 46 P 6.75996 2.75334 8.47391 0
M  V30 47 O 6.97996 2.44571 9.90142 0
M  V30 48 O 7.54996 3.87688 7.92115 0
M  V30 49 O 7.00996 1.4459 7.59357 0
M  V30 50 C 6.06996 0.347608 7.69215 0
M  V30 51 C 6.79996 -0.96767 7.52806 0
M  V30 52 O 7.00996 -1.21036 6.1011 0
M  V30 53 C 8.19996 -1.04544 8.13308 0
M  V30 54 O 8.58996 -2.38311 8.41922 0
M  V30 55 C 9.07996 -0.491279 7.02284 0
M  V30 56 C 8.36996 -0.996264 5.77469 0
M  V30 57 N 8.41996 -0.0501916 4.62973 0
M  V30 58 H 5.58096 0.374722 8.67691 0
M  V30 59 H 5.31096 0.443485 6.90277 0
M  V30 60 H 6.17796 -1.75537 7.96793 0
M  V30 61 P 10.1399 -2.75334 8.47391 0
M  V30 62 O 10.3599 -3.84166 9.4489 0
M  V30 63 O 10.9299 -1.51964 8.6881 0
M  V30 64 O 10.3899 -3.29363 6.99321 0
M  V30 65 C 9.44994 -4.23956 6.42656 0
M  V30 66 C 10.1799 -5.20775 5.52155 0
M  V30 67 O 10.3899 -4.56534 4.22446 0
M  V30 68 C 11.5799 -5.62629 5.96531 0
M  V30 69 O 11.9699 -6.87667 5.41053 0
M  V30 70 C 12.4599 -4.52537 5.39283 0
M  V30 71 C 11.7499 -4.20027 4.08623 0
M  V30 72 N 11.7999 -2.7613 3.71522 0
M  V30 73 C 11.9499 -2.45612 2.37989 0
M  V30 74 O 12.0399 -3.30919 1.51621 0
M  V30 75 N 11.9899 -1.10684 2.08435 0
M  V30 76 C 11.8999 -0.0690084 2.9792 0
M  V30 77 O 11.9499 1.10553 2.59426 0
M  V30 78 C 11.7499 -0.481522 4.35345 0
M  V30 79 C 11.6399 0.618778 5.36443 0
M  V30 80 C 11.6999 -1.78906 4.67968 0
M  V30 81 H 8.95994 -4.797 7.24003 0
M  V30 82 H 8.69094 -3.69802 5.84429 0
M  V30 83 H 9.55794 -6.10356 5.41441 0
M  V30 84 H 12.2129 -4.78651 3.27911 0
M  V30 85 H 12.4919 -3.64957 6.05871 0
M  V30 86 H 13.4839 -4.8868 5.2125 0
M  V30 87 H 11.6499 -5.66726 7.06352 0
M  V30 88 H 11.5789 -2.07737 5.72367 0
M  V30 89 H 12.6089 0.754375 5.86871 0
M  V30 90 H 10.8719 0.359721 6.10641 0
M  V30 91 H 11.3599 1.55533 4.8581 0
M  V30 92 H 12.0959 -0.862651 1.12037 0
M  V30 93 P 13.5199 -7.20834 5.23717 0
M  V30 94 O 13.7399 -8.66104 5.38572 0
M  V30 95 O 14.3099 -6.33544 6.1349 0
M  V30 96 O 13.7699 -6.7751 3.72168 0
M  V30 97 C 12.8299 -7.20825 2.7076 0
M  V30 98 C 13.5599 -7.45864 1.40599 0
M  V30 99 O 13.7699 -6.17651 0.734225 0
M  V30 100 C 14.9599 -8.05808 1.51899 0
M  V30 101 O 15.3499 -8.74358 0.335205 0
M  V30 102 C 15.8399 -6.83093 1.70294 0
M  V30 103 C 15.1299 -5.79992 0.836974 0
M  V30 104 N 15.1799 -4.41864 1.38293 0
M  V30 105 H 12.3409 -8.13644 3.0377 0
M  V30 106 H 12.0709 -6.42788 2.55485 0
M  V30 107 H 12.9379 -8.12039 0.792769 0
M  V30 108 P 16.8999 -8.91 1.09116e-15 0
M  V30 109 O 17.1199 -10.1746 -0.733838 0
M  V30 110 O 17.6899 -8.73346 1.23964 0
M  V30 111 O 17.1499 -7.66872 -0.971405 0
M  V30 112 C 16.2099 -7.42405 -2.04668 0
M  V30 113 C 16.9399 -6.86059 -3.24661 0
M  V30 114 O 17.1499 -5.42934 -3.03695 0
M  V30 115 C 18.3399 -7.41287 -3.50796 0
M  V30 116 O 18.7299 -7.27073 -4.86816 0
M  V30 117 C 19.2199 -6.5273 -2.63741 0
M  V30 118 C 18.5099 -5.1842 -2.73198 0
M  V30 119 N 18.5599 -4.38762 -1.4784 0
M  V30 120 C 18.4799 -4.83651 -0.183876 0
M  V30 121 N 18.5499 -3.88759 0.699393 0
M  V30 122 C 18.6999 -2.7404 -0.0575568 0
M  V30 123 C 18.8299 -1.37902 0.293928 0
M  V30 124 N 18.8399 -0.938021 1.54797 0
M  V30 125 N 18.9499 -0.491817 -0.70549 0
M  V30 126 C 18.9399 -0.931735 -1.95979 0
M  V30 127 N 18.8199 -2.16017 -2.41481 0
M  V30 128 C 18.6999 -3.02547 -1.39121 0
M  V30 129 H 15.7219 -8.36899 -2.3252 0
M  V30 130 H 15.4499 -6.70391 -1.71179 0
M  V30 131 H 16.3179 -7.03638 -4.13219 0
M  V30 132 H 18.9729 -4.59931 -3.54016 0
M  V30 133 H 19.2529 -6.88995 -1.59871 0
M  V30 134 H 20.2439 -6.4684 -3.0373 0
M  V30 135 H 18.4099 -8.47002 -3.20749 0
M  V30 136 H 18.3689 -5.8885 0.0765548 0
M  V30 137 H 18.7499 -1.60276 2.32875 0
M  V30 138 H 18.9389 0.0699355 1.73859 0
M  V30 139 H 19.0469 -0.165507 -2.71897 0
M  V30 140 P 20.2799 -7.20834 -5.23717 0
M  V30 141 O 20.4999 -7.7993 -6.57351 0
M  V30 142 O 21.0699 -7.79328 -4.13004 0
M  V30 143 O 20.5299 -5.63315 -5.29344 0
M  V30 144 C 19.5899 -4.80193 -6.01798 0
M  V30 145 C 20.3199 -3.64202 -6.65911 0
M  V30 146 O 20.5299 -2.60694 -5.64732 0
M  V30 147 C 21.7199 -3.93473 -7.1943 0
M  V30 148 O 22.1099 -3.02071 -8.21205 0
M  V30 149 C 22.5999 -3.73047 -5.97036 0
M  V30 150 C 21.8899 -2.58828 -5.25741 0
M  V30 151 N 21.9399 -2.6801 -3.77422 0
M  V30 152 C 22.0899 -1.50443 -3.07133 0
M  V30 153 O 22.1799 -0.419406 -3.61576 0
M  V30 154 N 22.1299 -1.6403 -1.69677 0
M  V30 155 C 22.0399 -2.81206 -0.986255 0
M  V30 156 O 22.0899 -2.80892 0.249754 0
M  V30 157 C 21.8899 -3.99158 -1.80325 0
M  V30 158 C 21.7799 -5.29309 -1.06921 0
M  V30 159 C 21.8399 -3.89779 -3.1476 0
M  V30 160 H 19.0999 -5.40332 -6.79951 0
M  V30 161 H 18.8309 -4.41549 -5.32301 0
M  V30 162 H 19.6979 -3.26331 -7.47797 0
M  V30 163 H 22.3529 -1.6395 -5.56554 0
M  V30 164 H 22.6319 -4.63439 -5.3432 0
M  V30 165 H 23.6239 -3.44728 -6.25838 0
M  V30 166 H 21.7899 -4.96652 -7.57263 0
M  V30 167 H 21.7189 -4.80159 -3.74441 0
M  V30 168 H 22.7489 -5.81459 -1.09608 0
M  V30 169 H 21.0119 -5.9187 -1.54487 0
M  V30 170 H 21.4999 -5.10095 -0.0220288 0
M  V30 171 H 22.2359 -0.798962 -1.16664 0
M  V30 172 P 23.6599 -2.75334 -8.47391 0
M  V30 173 O 23.8799 -2.44571 -9.90142 0
M  V30 174 O 24.4499 -3.87688 -7.92115 0
M  V30 175 O 23.9099 -1.4459 -7.59357 0
M  V30 176 C 22.9699 -0.347608 -7.69215 0
M  V30 177 C 23.6999 0.96767 -7.52806 0
M  V30 178 O 23.9099 1.21036 -6.1011 0
M  V30 179 C 25.0999 1.04544 -8.13308 0
M  V30 180 O 25.4899 2.38311 -8.41922 0
M  V30 181 C 25.9799 0.491279 -7.02284 0
M  V30 182 C 25.2699 0.996264 -5.77469 0
M  V30 183 N 25.3199 0.0501916 -4.62973 0
M  V30 184 H 22.4809 -0.374722 -8.67691 0
M  V30 185 H 22.2109 -0.443485 -6.90277 0
M  V30 186 H 23.0779 1.75537 -7.96793 0
M  V30 187 P 27.0398 2.75334 -8.47391 0
M  V30 188 O 27.2598 3.84204 -9.44982 0
M  V30 189 O 27.8298 1.51982 -8.68909 0
M  V30 190 O 27.2898 3.29363 -6.99321 0
M  V30 191 C 26.3498 4.24066 -6.42823 0
M  V30 192 C 27.0798 5.20775 -5.52155 0
M  V30 193 O 27.2898 4.56607 -4.22514 0
M  V30 194 C 28.4798 5.62697 -5.96604 0
M  V30 195 O 28.8698 6.87667 -5.41053 0
M  V30 196 C 29.3598 4.52537 -5.39283 0
M  V30 197 C 28.6498 4.20027 -4.08623 0
M  V30 198 N 28.6998 2.76189 -3.71603 0
M  V30 199 C 28.6198 1.66944 -4.54297 0
M  V30 200 N 28.6898 0.536169 -3.91344 0
M  V30 201 C 28.8398 0.901569 -2.58849 0
M  V30 202 C 28.9698 0.146599 -1.40236 0
M  V30 203 N 28.9798 -1.18234 -1.37046 0
M  V30 204 N 29.0898 0.822941 -0.249738 0
M  V30 205 C 29.0798 2.15179 -0.280525 0
M  V30 206 N 28.9598 2.96414 -1.30822 0
M  V30 207 C 28.8398 2.25804 -2.44748 0
M  V30 208 H 25.8618 4.79756 -7.24086 0
M  V30 209 H 25.5898 3.69963 -5.84682 0
M  V30 210 H 26.4578 6.10431 -5.41508 0
M  V30 211 H 29.1128 4.78816 -3.28024 0
M  V30 212 H 29.3928 3.64957 -6.05871 0
M  V30 213 H 30.3838 4.88748 -5.21323 0
M  V30 214 H 28.5498 5.66789 -7.0643 0
M  V30 215 H 28.5088 1.74684 -5.62396 0
M  V30 216 H 28.8898 -1.71949 -2.24394 0
M  V30 217 H 29.0788 -1.67511 -0.470742 0
M  V30 218 H 29.1868 2.63704 0.6828 0
M  V30 219 P 30.4198 7.20834 -5.23717 0
M  V30 220 O 30.6398 8.66274 -5.38678 0
M  V30 221 O 31.2098 6.33687 -6.13629 0
M  V30 222 O 30.6698 6.7751 -3.72168 0
M  V30 223 C 29.7298 7.20919 -2.70795 0
M  V30 224 C 30.4598 7.45864 -1.40599 0
M  V30 225 O 30.6698 6.17751 -0.734343 0
M  V30 226 C 31.8598 8.05906 -1.51917 0
M  V30 227 O 32.2498 8.74358 -0.335205 0
M  V30 228 C 32.7398 6.83093 -1.70294 0
M  V30 229 C 32.0298 5.79992 -0.836974 0
M  V30 230 N 32.0798 4.41864 -1.38293 0
M  V30 231 H 29.2418 8.13738 -3.03804 0
M  V30 232 H 28.9698 6.42974 -2.55559 0
M  V30 233 H 29.8378 8.12139 -0.792866 0
M  V30 234 H 32.4928 5.80178 0.160643 0
M  V30 235 H 32.7728 6.51379 -2.75643 0
M  V30 236 H 33.7638 7.01832 -1.3448 0
M  V30 237 H 31.9298 8.73771 -2.38364 0
M  V30 238 P 33.7998 8.91 -2.18232e-15 0
M  V30 239 O 34.0198 10.1746 0.733838 0
M  V30 240 O 34.5898 8.73346 -1.23964 0
M  V30 241 O 34.0498 7.66872 0.971405 0
M  V30 242 C 33.1098 7.42405 2.04668 0
M  V30 243 C 33.8398 6.86059 3.24661 0
M  V30 244 O 34.0498 5.42934 3.03695 0
M  V30 245 C 35.2398 7.41287 3.50796 0
M  V30 246 O 35.6298 7.27073 4.86816 0
M  V30 247 C 36.1198 6.5273 2.63741 0
M  V30 248 C 35.4098 5.1842 2.73198 0
M  V30 249 N 35.4598 4.38762 1.4784 0
M  V30 250 H 32.6218 8.36899 2.3252 0
M  V30 251 H 32.3498 6.70391 1.71179 0
M  V30 252 H 33.2178 7.03638 4.13219 0
M  V30 253 H 35.8728 4.59931 3.54016 0
M  V30 254 H 36.1528 6.88995 1.59871 0
M  V30 255 H 37.1438 6.4684 3.0373 0
M  V30 256 H 35.3098 8.47002 3.20749 0
M  V30 257 P 37.1798 7.20834 5.23717 0
M  V30 258 O 37.3998 7.79853 6.57286 0
M  V30 259 O 37.9698 7.79239 4.12957 0
M  V30 260 O 37.4298 5.63315 5.29344 0
M  V30 261 C 36.4898 4.80255 6.01876 0
M  V30 262 C 37.2198 3.64202 6.65911 0
M  V30 263 O 37.4298 2.60694 5.64732 0
M  V30 264 C 38.6198 3.93473 7.1943 0
M  V30 265 O 39.0098 3.02071 8.21205 0
M  V30 266 C 39.4998 3.73047 5.97036 0
M  V30 267 C 38.7898 2.58828 5.25741 0
M  V30 268 N 38.8398 2.68068 3.77503 0
M  V30 269 H 36.0008 5.40332 6.79951 0
M  V30 270 H 35.7308 4.41613 5.32378 0
M  V30 271 H 36.5978 3.26331 7.47797 0
M  V30 272 P 40.5598 2.75334 8.47391 0
M  V30 273 O 40.7798 2.44571 9.90142 0
M  V30 274 O 41.3498 3.87688 7.92115 0
M  V30 275 O 40.8098 1.4459 7.59357 0
M  V30 276 C 39.8698 0.347608 7.69215 0
M  V30 277 C 40.5998 -0.96767 7.52806 0
M  V30 278 O 40.8098 -1.21036 6.1011 0
M  V30 279 C 41.9998 -1.04544 8.13308 0
M  V30 280 O 42.3898 -2.38311 8.41922 0
M  V30 281 C 42.8798 -0.491279 7.02284 0
M  V30 282 C 42.1698 -0.996264 5.77469 0
M  V30 283 N 42.2198 -0.0501916 4.62973 0
M  V30 284 H 39.3808 0.374722 8.67691 0
M  V30 285 H 39.1108 0.443485 6.90277 0
M  V30 286 H 39.9778 -1.75537 7.96793 0
M  V30 287 P 43.9397 -2.75334 8.47391 0
M  V30 288 O 44.1597 -3.84128 9.44797 0
M  V30 289 O 44.7297 -1.51947 8.68712 0
M  V30 290 O 44.1897 -3.29363 6.99321 0
M  V30 291 C 43.2497 -4.24011 6.4274 0
M  V30 292 C 43.9797 -5.20775 5.52155 0
M  V30 293 O 44.1897 -4.56534 4.22446 0
M  V30 294 C 45.3797 -5.62629 5.96531 0
M  V30 295 O 45.7697 -6.87667 5.41053 0
M  V30 296 C 46.2597 -4.52537 5.39283 0
M  V30 297 C 45.5497 -4.20027 4.08623 0
M  V30 298 N 45.5997 -2.76189 3.71603 0
M  V30 299 H 42.7607 -4.797 7.24003 0
M  V30 300 H 42.4907 -3.69856 5.84513 0
M  V30 301 H 43.3577 -6.10356 5.41441 0
M  V30 302 P 47.3197 -7.20834 5.23717 0
M  V30 303 O 47.5397 -8.66104 5.38572 0
M  V30 304 O 48.1097 -6.33544 6.1349 0
M  V30 305 O 47.5697 -6.7751 3.72168 0
M  V30 306 C 46.6297 -7.20825 2.7076 0
M  V30 307 C 47.3597 -7.45864 1.40599 0
M  V30 308 O 47.5697 -6.17651 0.734225 0
M  V30 309 C 48.7597 -8.05808 1.51899 0
M  V30 310 O 49.1497 -8.74358 0.335205 0
M  V30 311 C 49.6397 -6.83093 1.70294 0
M  V30 312 C 48.9297 -5.79992 0.836974 0
M  V30 313 N 48.9797 -4.41864 1.38293 0
M  V30 314 H 46.1407 -8.13644 3.0377 0
M  V30 315 H 45.8707 -6.42788 2.55485 0
M  V30 316 H 46.7377 -8.12039 0.792769 0
M  V30 317 P 50.6997 -8.91 3.27348e-15 0
M  V30 318 O 50.9197 -10.1726 -0.733694 0
M  V30 319 O 51.4897 -8.73148 1.23936 0
M  V30 320 O 50.9497 -7.66872 -0.971405 0
M  V30 321 C 50.0097 -7.42309 -2.04641 0
M  V30 322 C 50.7397 -6.86059 -3.24661 0
M  V30 323 O 50.9497 -5.42847 -3.03646 0
M  V30 324 C 52.1397 -7.41196 -3.50753 0
M  V30 325 O 52.5297 -7.27073 -4.86816 0
M  V30 326 C 53.0197 -6.5273 -2.63741 0
M  V30 327 C 52.3097 -5.1842 -2.73198 0
M  V30 328 N 52.3597 -4.38762 -1.4784 0
M  V30 329 H 49.5207 -8.36803 -2.32493 0
M  V30 330 H 49.2507 -6.70197 -1.71129 0
M  V30 331 H 50.1177 -7.03551 -4.13168 0
M  V30 332 P 54.0797 -7.20834 -5.23717 0
M  V30 333 O 54.2997 -7.79853 -6.57286 0
M  V30 334 O 54.8697 -7.79239 -4.12957 0
M  V30 335 O 54.3297 -5.63315 -5.29344 0
M  V30 336 C 53.3897 -4.80255 -6.01876 0
M  V30 337 C 54.1197 -3.64202 -6.65911 0
M  V30 338 O 54.3297 -2.60694 -5.64732 0
M  V30 339 C 55.5197 -3.93473 -7.1943 0
M  V30 340 O 55.9097 -3.02071 -8.21205 0
M  V30 341 C 56.3997 -3.73047 -5.97036 0
M  V30 342 C 55.6897 -2.58828 -5.25741 0
M  V30 343 N 55.7397 -2.68068 -3.77503 0
M  V30 344 H 52.9007 -5.40332 -6.79951 0
M  V30 345 H 52.6307 -4.41613 -5.32378 0
M  V30 346 H 53.4977 -3.26331 -7.47797 0
M  V30 347 P 57.4597 -2.75334 -8.47391 0
M  V30 348 O 57.6797 -2.44595 -9.90239 0
M  V30 349 O 58.2497 -3.87732 -7.92204 0
M  V30 350 O 57.7097 -1.4459 -7.59357 0
M  V30 351 C 56.7697 -0.347563 -7.69115 0
M  V30 352 C 57.4997 0.96767 -7.52806 0
M  V30 353 O 57.7097 1.21036 -6.1011 0
M  V30 354 C 58.8997 1.04544 -8.13308 0
M  V30 355 O 59.2897 2.38311 -8.41922 0
M  V30 356 C 59.7797 0.491279 -7.02284 0
M  V30 357 C 59.0697 0.996264 -5.77469 0
M  V30 358 N 59.1197 0.0501808 -4.62873 0
M  V30 359 C 59.2697 0.588177 -3.36904 0
M  V30 360 O 59.3597 1.78598 -3.17173 0
M  V30 361 N 59.3097 -0.329694 -2.33686 0
M  V30 362 C 59.2197 -1.6953 -2.45079 0
M  V30 363 C 59.0697 -2.16933 -3.80505 0
M  V30 364 C 59.0197 -1.30326 -4.83752 0
M  V30 365 H 56.2797 -0.374722 -8.67691 0
M  V30 366 H 56.0107 -0.443421 -6.90177 0
M  V30 367 H 56.8777 1.75537 -7.96793 0
M  V30 368 H 59.5327 1.94496 -5.46629 0
M  V30 369 H 59.8117 -0.608651 -7.04676 0
M  V30 370 H 60.8037 0.889672 -7.08939 0
M  V30 371 H 58.9697 0.43308 -9.04564 0
M  V30 372 H 58.8987 -1.68366 -5.8516 0
M  V30 373 P 60.8396 2.75334 -8.47391 0
M  V30 374 O 61.0596 3.84128 -9.44797 0
M  V30 375 O 61.6296 1.51947 -8.68712 0
M  V30 376 O 61.0896 3.29363 -6.99321 0
M  V30 377 C 60.1496 4.24011 -6.4274 0
M  V30 378 C 60.8796 5.20775 -5.52155 0
M  V30 379 O 61.0896 4.56534 -4.22446 0
M  V30 380 C 62.2796 5.62629 -5.96531 0
M  V30 381 O 62.6696 6.87667 -5.41053 0
M  V30 382 C 63.1596 4.52537 -5.39283 0
M  V30 383 C 62.4496 4.20027 -4.08623 0
M  V30 384 N 62.4996 2.76189 -3.71603 0
M  V30 385 H 59.6606 4.797 -7.24003 0
M  V30 386 H 59.3906 3.69856 -5.84513 0
M  V30 387 H 60.2576 6.10356 -5.41441 0
M  V30 388 P 64.2196 7.20834 -5.23717 0
M  V30 389 O 64.4396 8.66274 -5.38678 0
M  V30 390 O 65.0096 6.33687 -6.13629 0
M  V30 391 O 64.4696 6.7751 -3.72168 0
M  V30 392 C 63.5296 7.20919 -2.70795 0
M  V30 393 C 64.2596 7.45864 -1.40599 0
M  V30 394 O 64.4696 6.17751 -0.734343 0
M  V30 395 C 65.6596 8.05906 -1.51917 0
M  V30 396 O 66.0496 8.74358 -0.335205 0
M  V30 397 C 66.5396 6.83093 -1.70294 0
M  V30 398 C 65.8296 5.79992 -0.836974 0
M  V30 399 N 65.8796 4.41864 -1.38293 0
M  V30 400 H 63.0416 8.13738 -3.03804 0
M  V30 401 H 62.7696 6.42974 -2.55559 0
M  V30 402 H 63.6376 8.12139 -0.792866 0
M  V30 403 H 66.2926 5.80178 0.160643 0
M  V30 404 H 66.5726 6.51379 -2.75643 0
M  V30 405 H 67.5636 7.01832 -1.3448 0
M  V30 406 H 65.7296 8.73771 -2.38364 0
M  V30 407 P 67.5996 8.91 -4.36464e-15 0
M  V30 408 O 67.8196 10.1736 0.733766 0
M  V30 409 O 68.3896 8.73247 -1.2395 0
M  V30 410 O 67.8496 7.66872 0.971405 0
M  V30 411 C 66.9096 7.42212 2.04614 0
M  V30 412 C 67.6396 6.86059 3.24661 0
M  V30 413 O 67.8496 5.42847 3.03646 0
M  V30 414 C 69.0396 7.41196 3.50753 0
M  V30 415 O 69.4296 7.27073 4.86816 0
M  V30 416 C 69.9196 6.5273 2.63741 0
M  V30 417 C 69.2096 5.1842 2.73198 0
M  V30 418 N 69.2596 4.38668 1.47808 0
M  V30 419 C 69.4096 3.02239 1.60048 0
M  V30 420 O 69.4996 2.46459 2.67869 0
M  V30 421 N 69.4496 2.32436 0.408571 0
M  V30 422 C 69.3596 2.85471 -0.854993 0
M  V30 423 O 69.4096 2.12566 -1.8531 0
M  V30 424 C 69.2096 4.28918 -0.887335 0
M  V30 425 C 69.0996 4.91066 -2.24619 0
M  V30 426 C 69.1596 5.00349 0.255399 0
M  V30 427 H 66.4196 8.36803 2.32493 0
M  V30 428 H 66.1506 6.701 1.71105 0
M  V30 429 H 67.0176 7.03551 4.13168 0
M  V30 430 H 69.6726 4.59773 3.53894 0
M  V30 431 H 69.9516 6.88995 1.59871 0
M  V30 432 H 70.9436 6.46749 3.03687 0
M  V30 433 H 69.1096 8.46908 3.20714 0
M  V30 434 H 69.0386 6.08548 0.206986 0
M  V30 435 H 70.0686 5.34836 -2.53099 0
M  V30 436 H 68.3316 5.69638 -2.2291 0
M  V30 437 H 68.8196 4.13971 -2.98044 0
M  V30 438 H 69.5556 1.33211 0.474216 0
M  V30 439 P 70.9796 7.20834 5.23717 0
M  V30 440 O 71.1996 7.80006 6.57415 0
M  V30 441 O 71.7696 7.79416 4.13051 0
M  V30 442 O 71.2296 5.63315 5.29344 0
M  V30 443 C 70.2896 4.80318 6.01954 0
M  V30 444 C 71.0196 3.64202 6.65911 0
M  V30 445 O 71.2296 2.60736 5.64823 0
M  V30 446 C 72.4196 3.93521 7.19518 0
M  V30 447 O 72.8096 3.02071 8.21205 0
M  V30 448 C 73.2996 3.73047 5.97036 0
M  V30 449 C 72.5896 2.58828 5.25741 0
M  V30 450 N 72.6396 2.68068 3.77503 0
M  V30 451 C 72.5596 3.80474 2.99159 0
M  V30 452 N 72.6296 3.55622 1.71925 0
M  V30 453 C 72.7796 2.1832 1.65733 0
M  V30 454 C 72.9096 1.28842 0.572777 0
M  V30 455 N 72.9196 1.66875 -0.70098 0
M  V30 456 N 73.0296 -0.016788 0.859836 0
M  V30 457 C 73.0196 -0.398145 2.13316 0
M  V30 458 N 72.8996 0.328224 3.22333 0
M  V30 459 C 72.7796 1.62992 2.90383 0
M  V30 460 H 69.8016 5.40394 6.8003 0
M  V30 461 H 69.5296 4.41741 5.32532 0
M  V30 462 H 70.3976 3.26371 7.47889 0
M  V30 463 H 73.0526 1.64007 5.56746 0
M  V30 464 H 73.3326 4.63439 5.3432 0
M  V30 465 H 74.3236 3.44776 6.25925 0
M  V30 466 H 72.4896 4.96707 7.57347 0
M  V30 467 H 72.4486 4.8089 3.39924 0
M  V30 468 H 72.8296 2.66547 -0.941919 0
M  V30 469 H 73.0186 0.965341 -1.44766 0
M  V30 470 H 73.1266 -1.46427 2.29697 0
M  V30 471 P 74.3596 2.75334 8.47391 0
M  V30 472 O 74.5796 2.44571 9.90142 0
M  V30 473 O 75.1496 3.87688 7.92115 0
M  V30 474 O 74.6096 1.4459 7.59357 0
M  V30 475 C 73.6696 0.347608 7.69215 0
M  V30 476 C 74.3996 -0.96767 7.52806 0
M  V30 477 O 74.6096 -1.21036 6.1011 0
M  V30 478 C 75.7996 -1.04544 8.13308 0
M  V30 479 O 76.1896 -2.38311 8.41922 0
M  V30 480 C 76.6796 -0.491279 7.02284 0
M  V30 481 C 75.9696 -0.996264 5.77469 0
M  V30 482 N 76.0196 -0.0501916 4.62973 0
M  V30 483 H 73.1806 0.374722 8.67691 0
M  V30 484 H 72.9106 0.443485 6.90277 0
M  V30 485 H 73.7776 -1.75537 7.96793 0
M  V30 486 P 77.7395 -2.75334 8.47391 0
M  V30 487 O 77.9595 -3.84128 9.44797 0
M  V30 488 O 78.5295 -1.51947 8.68712 0
M  V30 489 O 77.9895 -3.29363 6.99321 0
M  V30 490 C 77.0495 -4.24011 6.4274 0
M  V30 491 C 77.7795 -5.20775 5.52155 0
M  V30 492 O 77.9895 -4.56534 4.22446 0
M  V30 493 C 79.1795 -5.62629 5.96531 0
M  V30 494 O 79.5695 -6.87667 5.41053 0
M  V30 495 C 80.0595 -4.52537 5.39283 0
M  V30 496 C 79.3495 -4.20027 4.08623 0
M  V30 497 N 79.3995 -2.76189 3.71603 0
M  V30 498 H 76.5605 -4.797 7.24003 0
M  V30 499 H 76.2905 -3.69856 5.84513 0
M  V30 500 H 77.1575 -6.10356 5.41441 0
M  V30 501 P 81.1195 -7.20834 5.23717 0
M  V30 502 O 81.3395 -8.66104 5.38572 0
M  V30 503 O 81.9095 -6.33544 6.1349 0
M  V30 504 O 81.3695 -6.7751 3.72168 0
M  V30 505 C 80.4295 -7.20825 2.7076 0
M  V30 506 C 81.1595 -7.45864 1.40599 0
M  V30 507 O 81.3695 -6.17651 0.734225 0
M  V30 508 C 82.5595 -8.05808 1.51899 0
M  V30 509 O 82.9495 -8.74358 0.335205 0
M  V30 510 C 83.4395 -6.83093 1.70294 0
M  V30 511 C 82.7295 -5.79992 0.836974 0
M  V30 512 N 82.7795 -4.41864 1.38293 0
M  V30 513 H 79.9405 -8.13644 3.0377 0
M  V30 514 H 79.6705 -6.42788 2.55485 0
M  V30 515 H 80.5375 -8.12039 0.792769 0
M  V30 516 P 84.4995 -8.91 5.4558e-15 0
M  V30 517 O 84.7195 -10.1726 -0.733694 0
M  V30 518 O 85.2895 -8.73148 1.23936 0
M  V30 519 O 84.7495 -7.66872 -0.971405 0
M  V30 520 C 83.8095 -7.42309 -2.04641 0
M  V30 521 C 84.5395 -6.86059 -3.24661 0
M  V30 522 O 84.7495 -5.42847 -3.03646 0
M  V30 523 C 85.9395 -7.41196 -3.50753 0
M  V30 524 O 86.3295 -7.27073 -4.86816 0
M  V30 525 C 86.8195 -6.5273 -2.63741 0
M  V30 526 C 86.1095 -5.1842 -2.73198 0
M  V30 527 N 86.1595 -4.38762 -1.4784 0
M  V30 528 H 83.3205 -8.36803 -2.32493 0
M  V30 529 H 83.0505 -6.70197 -1.71129 0
M  V30 530 H 83.9175 -7.03551 -4.13168 0
M  V30 531 P 87.8795 -7.20834 -5.23717 0
M  V30 532 O 88.0995 -7.79853 -6.57286 0
M  V30 533 O 88.6695 -7.79239 -4.12957 0
M  V30 534 O 88.1295 -5.63315 -5.29344 0
M  V30 535 C 87.1895 -4.80255 -6.01876 0
M  V30 536 C 87.9195 -3.64202 -6.65911 0
M  V30 537 O 88.1295 -2.60694 -5.64732 0
M  V30 538 C 89.3195 -3.93473 -7.1943 0
M  V30 539 O 89.7095 -3.02071 -8.21205 0
M  V30 540 C 90.1995 -3.73047 -5.97036 0
M  V30 541 C 89.4895 -2.58828 -5.25741 0
M  V30 542 N 89.5395 -2.68068 -3.77503 0
M  V30 543 H 86.7005 -5.40332 -6.79951 0
M  V30 544 H 86.4305 -4.41613 -5.32378 0
M  V30 545 H 87.2975 -3.26331 -7.47797 0
M  V30 546 P 91.2595 -2.75334 -8.47391 0
M  V30 547 O 91.4795 -2.44571 -9.90142 0
M  V30 548 O 92.0495 -3.87688 -7.92115 0
M  V30 549 O 91.5095 -1.4459 -7.59357 0
M  V30 550 C 90.5695 -0.347608 -7.69215 0
M  V30 551 C 91.2995 0.96767 -7.52806 0
M  V30 552 O 91.5095 1.21036 -6.1011 0
M  V30 553 C 92.6995 1.04544 -8.13308 0
M  V30 554 O 93.0895 2.38311 -8.41922 0
M  V30 555 C 93.5795 0.491279 -7.02284 0
M  V30 556 C 92.8695 0.996264 -5.77469 0
M  V30 557 N 92.9195 0.0501916 -4.62973 0
M  V30 558 H 90.0805 -0.374722 -8.67691 0
M  V30 559 H 89.8105 -0.443485 -6.90277 0
M  V30 560 H 90.6775 1.75537 -7.96793 0
M  V30 561 P 94.6394 2.75334 -8.47391 0
M  V30 562 O 94.8594 3.84128 -9.44797 0
M  V30 563 O 95.4294 1.51947 -8.68712 0
M  V30 564 O 94.8894 3.29363 -6.99321 0
M  V30 565 C 93.9494 4.24011 -6.4274 0
M  V30 566 C 94.6794 5.20775 -5.52155 0
M  V30 567 O 94.8894 4.56534 -4.22446 0
M  V30 568 C 96.0794 5.62629 -5.96531 0
M  V30 569 O 96.4694 6.87667 -5.41053 0
M  V30 570 C 96.9594 4.52537 -5.39283 0
M  V30 571 C 96.2494 4.20027 -4.08623 0
M  V30 572 N 96.2994 2.76189 -3.71603 0
M  V30 573 H 93.4604 4.797 -7.24003 0
M  V30 574 H 93.1904 3.69856 -5.84513 0
M  V30 575 H 94.0574 6.10356 -5.41441 0
M  V30 576 P 98.0194 7.20834 -5.23717 0
M  V30 577 O 98.2394 8.66104 -5.38572 0
M  V30 578 O 98.8094 6.33544 -6.1349 0
M  V30 579 O 98.2694 6.7751 -3.72168 0
M  V30 580 C 97.3294 7.20825 -2.7076 0
M  V30 581 C 98.0594 7.45864 -1.40599 0
M  V30 582 O 98.2694 6.17651 -0.734225 0
M  V30 583 C 99.4594 8.05808 -1.51899 0
M  V30 584 O 99.8494 8.74358 -0.335205 0
M  V30 585 C 100.339 6.83093 -1.70294 0
M  V30 586 C 99.6294 5.79992 -0.836974 0
M  V30 587 N 99.6794 4.41864 -1.38293 0
M  V30 588 H 96.8404 8.13644 -3.0377 0
M  V30 589 H 96.5704 6.42788 -2.55485 0
M  V30 590 H 97.4374 8.12039 -0.792769 0
M  V30 591 P 101.399 8.91 -6.54696e-15 0
M  V30 592 O 101.619 10.1726 0.733694 0
M  V30 593 O 102.189 8.73148 -1.23936 0
M  V30 594 O 101.649 7.66872 0.971405 0
M  V30 595 C 100.709 7.42309 2.04641 0
M  V30 596 C 101.439 6.86059 3.24661 0
M  V30 597 O 101.649 5.42847 3.03646 0
M  V30 598 C 102.839 7.41196 3.50753 0
M  V30 599 O 103.229 7.27073 4.86816 0
M  V30 600 C 103.719 6.5273 2.63741 0
M  V30 601 C 103.009 5.1842 2.73198 0
M  V30 602 N 103.059 4.38762 1.4784 0
M  V30 603 H 100.22 8.36803 2.32493 0
M  V30 604 H 99.9504 6.70197 1.71129 0
M  V30 605 H 100.817 7.03551 4.13168 0
M  V30 606 P 104.779 7.20834 5.23717 0
M  V30 607 O 104.999 7.79853 6.57286 0
M  V30 608 O 105.569 7.79239 4.12957 0
M  V30 609 O 105.029 5.63315 5.29344 0
M  V30 610 C 104.089 4.80255 6.01876 0
M  V30 611 C 104.819 3.64202 6.65911 0
M  V30 612 O 105.029 2.60694 5.64732 0
M  V30 613 C 106.219 3.93473 7.1943 0
M  V30 614 O 106.609 3.02071 8.21205 0
M  V30 615 C 107.099 3.73047 5.97036 0
M  V30 616 C 106.389 2.58828 5.25741 0
M  V30 617 N 106.439 2.68068 3.77503 0
M  V30 618 H 103.6 5.40332 6.79951 0
M  V30 619 H 103.33 4.41613 5.32378 0
M  V30 620 H 104.197 3.26331 7.47797 0
M  V30 621 P 108.159 2.75334 8.47391 0
M  V30 622 O 108.379 2.44571 9.90142 0
M  V30 623 O 108.949 3.87688 7.92115 0
M  V30 624 O 108.409 1.4459 7.59357 0
M  V30 625 C 107.469 0.347608 7.69215 0
M  V30 626 C 108.199 -0.96767 7.52806 0
M  V30 627 O 108.409 -1.21036 6.1011 0
M  V30 628 C 109.599 -1.04544 8.13308 0
M  V30 629 O 109.989 -2.38311 8.41922 0
M  V30 630 C 110.479 -0.491279 7.02284 0
M  V30 631 C 109.769 -0.996264 5.77469 0
M  V30 632 N 109.819 -0.0501916 4.62973 0
M  V30 633 H 106.98 0.374722 8.67691 0
M  V30 634 H 106.71 0.443485 6.90277 0
M  V30 635 H 107.577 -1.75537 7.96793 0
M  V30 636 P 111.539 -2.75334 8.47391 0
M  V30 637 O 111.759 -3.84128 9.44797 0
M  V30 638 O 112.329 -1.51947 8.68712 0
M  V30 639 O 111.789 -3.29363 6.99321 0
M  V30 640 C 110.849 -4.24011 6.4274 0
M  V30 641 C 111.579 -5.20775 5.52155 0
M  V30 642 O 111.789 -4.56534 4.22446 0
M  V30 643 C 112.979 -5.62629 5.96531 0
M  V30 644 O 113.369 -6.87667 5.41053 0
M  V30 645 C 113.859 -4.52537 5.39283 0
M  V30 646 C 113.149 -4.20027 4.08623 0
M  V30 647 N 113.199 -2.76189 3.71603 0
M  V30 648 H 110.36 -4.797 7.24003 0
M  V30 649 H 110.09 -3.69856 5.84513 0
M  V30 650 H 110.957 -6.10356 5.41441 0
M  V30 651 P 114.919 -7.20834 5.23717 0
M  V30 652 O 115.139 -8.66104 5.38572 0
M  V30 653 O 115.709 -6.33544 6.1349 0
M  V30 654 O 115.169 -6.7751 3.72168 0
M  V30 655 C 114.229 -7.20825 2.7076 0
M  V30 656 C 114.959 -7.45864 1.40599 0
M  V30 657 O 115.169 -6.17651 0.734225 0
M  V30 658 C 116.359 -8.05808 1.51899 0
M  V30 659 O 116.749 -8.74358 0.335205 0
M  V30 660 C 117.239 -6.83093 1.70294 0
M  V30 661 C 116.529 -5.79992 0.836974 0
M  V30 662 N 116.579 -4.41864 1.38293 0
M  V30 663 H 113.74 -8.13644 3.0377 0
M  V30 664 H 113.47 -6.42788 2.55485 0
M  V30 665 H 114.337 -8.12039 0.792769 0
M  V30 666 P 118.299 -8.91 7.63812e-15 0
M  V30 667 O 118.519 -10.1726 -0.733694 0
M  V30 668 O 119.089 -8.73148 1.23936 0
M  V30 669 O 118.549 -7.66872 -0.971405 0
M  V30 670 C 117.609 -7.42309 -2.04641 0
M  V30 671 C 118.339 -6.86059 -3.24661 0
M  V30 672 O 118.549 -5.42847 -3.03646 0
M  V30 673 C 119.739 -7.41196 -3.50753 0
M  V30 674 O 120.129 -7.27073 -4.86816 0
M  V30 675 C 120.619 -6.5273 -2.63741 0
M  V30 676 C 119.909 -5.1842 -2.73198 0
M  V30 677 N 119.959 -4.38762 -1.4784 0
M  V30 678 H 117.12 -8.36803 -2.32493 0
M  V30 679 H 116.85 -6.70197 -1.71129 0
M  V30 680 H 117.717 -7.03551 -4.13168 0
M  V30 681 P 121.679 -7.20834 -5.23717 0
M  V30 682 O 121.899 -7.7993 -6.57351 0
M  V30 683 O 122.469 -7.79328 -4.13004 0
M  V30 684 O 121.929 -5.63315 -5.29344 0
M  V30 685 C 120.989 -4.80255 -6.01876 0
M  V30 686 C 121.719 -3.64202 -6.65911 0
M  V30 687 O 121.929 -2.60694 -5.64732 0
M  V30 688 C 123.119 -3.93473 -7.1943 0
M  V30 689 O 123.509 -3.02071 -8.21205 0
M  V30 690 C 123.999 -3.73047 -5.97036 0
M  V30 691 C 123.289 -2.58828 -5.25741 0
M  V30 692 N 123.339 -2.6801 -3.77422 0
M  V30 693 C 123.489 -1.50173 -3.05038 0
M  V30 694 O 123.579 -0.428832 -3.665 0
M  V30 695 N 123.539 -1.70922 -1.55541 0
M  V30 696 C 123.439 -2.7407 -1.06402 0
M  V30 697 N 123.489 -2.74764 0.260931 0
M  V30 698 C 123.289 -3.96781 -1.78296 0
M  V30 699 C 123.239 -3.87909 -3.13891 0
M  V30 700 H 120.499 -5.4027 -6.79873 0
M  V30 701 H 120.23 -4.41549 -5.32301 0
M  V30 702 H 121.097 -3.26371 -7.47889 0
M  V30 703 H 123.752 -1.63978 -5.5665 0
M  V30 704 H 124.031 -4.63439 -5.3432 0
M  V30 705 H 125.023 -3.44728 -6.25838 0
M  V30 706 H 123.189 -4.96652 -7.57263 0
M  V30 707 H 123.117 -4.78425 -3.73088 0
M  V30 708 H 123.219 -4.92593 -1.26997 0
M  V30 709 H 123.607 -1.86285 0.77595 0
M  V30 710 H 123.41 -3.63657 0.773896 0
M  V30 711 P 125.059 -2.75334 -8.47391 0
M  V30 712 O 125.279 -2.44571 -9.90142 0
M  V30 713 O 125.849 -3.87688 -7.92115 0
M  V30 714 O 125.309 -1.4459 -7.59357 0
M  V30 715 C 124.369 -0.347608 -7.69215 0
M  V30 716 C 125.099 0.96767 -7.52806 0
M  V30 717 O 125.309 1.21036 -6.1011 0
M  V30 718 C 126.499 1.04544 -8.13308 0
M  V30 719 O 126.889 2.38311 -8.41922 0
M  V30 720 C 127.379 0.491279 -7.02284 0
M  V30 721 C 126.669 0.996264 -5.77469 0
M  V30 722 N 126.719 0.0501916 -4.62973 0
M  V30 723 H 123.88 -0.374722 -8.67691 0
M  V30 724 H 123.61 -0.443485 -6.90277 0
M  V30 725 H 124.477 1.75537 -7.96793 0
M  V30 726 P 128.439 2.75334 -8.47391 0
M  V30 727 O 128.659 3.84128 -9.44797 0
M  V30 728 O 129.229 1.51947 -8.68712 0
M  V30 729 O 128.689 3.29363 -6.99321 0
M  V30 730 C 127.749 4.24011 -6.4274 0
M  V30 731 C 128.479 5.20775 -5.52155 0
M  V30 732 O 128.689 4.56534 -4.22446 0
M  V30 733 C 129.879 5.62629 -5.96531 0
M  V30 734 O 130.269 6.87667 -5.41053 0
M  V30 735 C 130.759 4.52537 -5.39283 0
M  V30 736 C 130.049 4.20027 -4.08623 0
M  V30 737 N 130.099 2.76189 -3.71603 0
M  V30 738 C 130.019 1.64862 -4.52822 0
M  V30 739 N 130.099 0.512671 -3.88633 0
M  V30 740 C 130.239 0.888083 -2.54977 0
M  V30 741 C 130.369 0.094668 -1.38677 0
M  V30 742 N 130.489 0.890102 -0.232633 0
M  V30 743 C 130.489 2.26958 -0.21772 0
M  V30 744 N 130.619 2.84626 0.97925 0
M  V30 745 N 130.359 3.0178 -1.31033 0
M  V30 746 C 130.239 2.26781 -2.43843 0
M  V30 747 H 127.26 4.797 -7.24003 0
M  V30 748 H 126.99 3.69856 -5.84513 0
M  V30 749 H 127.857 6.10356 -5.41441 0
M  V30 750 P 131.819 7.20834 -5.23717 0
M  V30 751 O 132.039 8.66104 -5.38572 0
M  V30 752 O 132.609 6.33544 -6.1349 0
M  V30 753 O 132.069 6.7751 -3.72168 0
M  V30 754 C 131.129 7.20825 -2.7076 0
M  V30 755 C 131.859 7.45864 -1.40599 0
M  V30 756 O 132.069 6.17651 -0.734225 0
M  V30 757 C 133.259 8.05808 -1.51899 0
M  V30 758 O 133.649 8.74358 -0.335205 0
M  V30 759 C 134.139 6.83093 -1.70294 0
M  V30 760 C 133.429 5.79992 -0.836974 0
M  V30 761 N 133.479 4.41864 -1.38293 0
M  V30 762 H 130.64 8.13644 -3.0377 0
M  V30 763 H 130.37 6.42788 -2.55485 0
M  V30 764 H 131.237 8.12039 -0.792769 0
M  V30 765 P 135.199 8.91 -8.72928e-15 0
M  V30 766 O 135.419 10.1746 0.733838 0
M  V30 767 O 135.989 8.73346 -1.23964 0
M  V30 768 O 135.449 7.66872 0.971405 0
M  V30 769 C 134.509 7.42405 2.04668 0
M  V30 770 C 135.239 6.86059 3.24661 0
M  V30 771 O 135.449 5.42934 3.03695 0
M  V30 772 C 136.639 7.41287 3.50796 0
M  V30 773 O 137.029 7.27073 4.86816 0
M  V30 774 C 137.519 6.5273 2.63741 0
M  V30 775 C 136.809 5.1842 2.73198 0
M  V30 776 N 136.859 4.38762 1.4784 0
M  V30 777 H 134.021 8.36899 2.3252 0
M  V30 778 H 133.749 6.70391 1.71179 0
M  V30 779 H 134.617 7.03638 4.13219 0
M  V30 780 H 137.272 4.59931 3.54016 0
M  V30 781 H 137.552 6.88995 1.59871 0
M  V30 782 H 138.543 6.4684 3.0373 0
M  V30 783 H 136.709 8.47002 3.20749 0
M  V30 784 P 138.579 7.20834 5.23717 0
M  V30 785 O 138.799 7.79853 6.57286 0
M  V30 786 O 139.369 7.79239 4.12957 0
M  V30 787 O 138.829 5.63315 5.29344 0
M  V30 788 C 137.889 4.80255 6.01876 0
M  V30 789 C 138.619 3.64202 6.65911 0
M  V30 790 O 138.829 2.60694 5.64732 0
M  V30 791 C 140.019 3.93473 7.1943 0
M  V30 792 O 140.409 3.02071 8.21205 0
M  V30 793 C 140.899 3.73047 5.97036 0
M  V30 794 C 140.189 2.58828 5.25741 0
M  V30 795 N 140.239 2.68068 3.77503 0
M  V30 796 H 137.4 5.40332 6.79951 0
M  V30 797 H 137.13 4.41613 5.32378 0
M  V30 798 H 137.997 3.26331 7.47797 0
M  V30 799 P 141.959 2.75334 8.47391 0
M  V30 800 O 142.179 2.44571 9.90142 0
M  V30 801 O 142.749 3.87688 7.92115 0
M  V30 802 O 142.209 1.4459 7.59357 0
M  V30 803 C 141.269 0.347608 7.69215 0
M  V30 804 C 141.999 -0.96767 7.52806 0
M  V30 805 O 142.209 -1.21036 6.1011 0
M  V30 806 C 143.399 -1.04544 8.13308 0
M  V30 807 O 143.789 -2.38311 8.41922 0
M  V30 808 C 144.279 -0.491279 7.02284 0
M  V30 809 C 143.569 -0.996264 5.77469 0
M  V30 810 N 143.619 -0.0501916 4.62973 0
M  V30 811 H 140.78 0.374722 8.67691 0
M  V30 812 H 140.51 0.443485 6.90277 0
M  V30 813 H 141.377 -1.75537 7.96793 0
M  V30 814 P 145.339 -2.75334 8.47391 0
M  V30 815 O 145.559 -3.84128 9.44797 0
M  V30 816 O 146.129 -1.51947 8.68712 0
M  V30 817 O 145.589 -3.29363 6.99321 0
M  V30 818 C 144.649 -4.24011 6.4274 0
M  V30 819 C 145.379 -5.20775 5.52155 0
M  V30 820 O 145.589 -4.56534 4.22446 0
M  V30 821 C 146.779 -5.62629 5.96531 0
M  V30 822 O 147.169 -6.87667 5.41053 0
M  V30 823 C 147.659 -4.52537 5.39283 0
M  V30 824 C 146.949 -4.20027 4.08623 0
M  V30 825 N 146.999 -2.76189 3.71603 0
M  V30 826 H 144.16 -4.797 7.24003 0
M  V30 827 H 143.89 -3.69856 5.84513 0
M  V30 828 H 144.757 -6.10356 5.41441 0
M  V30 829 P 148.719 -7.20834 5.23717 0
M  V30 830 O 148.939 -8.66104 5.38572 0
M  V30 831 O 149.509 -6.33544 6.1349 0
M  V30 832 O 148.969 -6.7751 3.72168 0
M  V30 833 C 148.029 -7.20825 2.7076 0
M  V30 834 C 148.759 -7.45864 1.40599 0
M  V30 835 O 148.969 -6.17651 0.734225 0
M  V30 836 C 150.159 -8.05808 1.51899 0
M  V30 837 O 150.549 -8.74358 0.335205 0
M  V30 838 C 151.039 -6.83093 1.70294 0
M  V30 839 C 150.329 -5.79992 0.836974 0
M  V30 840 N 150.379 -4.41864 1.38293 0
M  V30 841 C 150.299 -3.99538 2.69438 0
M  V30 842 N 150.379 -2.69909 2.84277 0
M  V30 843 C 150.519 -2.21719 1.5408 0
M  V30 844 C 150.649 -0.891712 1.06628 0
M  V30 845 N 150.769 -0.856846 -0.334985 0
M  V30 846 C 150.769 -1.9641 -1.15789 0
M  V30 847 N 150.899 -1.72708 -2.46522 0
M  V30 848 N 150.639 -3.21165 -0.713741 0
M  V30 849 C 150.519 -3.26797 0.639748 0
M  V30 850 H 147.54 -8.13644 3.0377 0
M  V30 851 H 147.27 -6.42788 2.55485 0
M  V30 852 H 148.137 -8.12039 0.792769 0
M  V30 853 P 152.099 -8.91 9.82044e-15 0
M  V30 854 O 152.319 -10.1726 -0.733694 0
M  V30 855 O 152.889 -8.73148 1.23936 0
M  V30 856 O 152.349 -7.66872 -0.971405 0
M  V30 857 C 151.409 -7.42309 -2.04641 0
M  V30 858 C 152.139 -6.86059 -3.24661 0
M  V30 859 O 152.349 -5.42847 -3.03646 0
M  V30 860 C 153.539 -7.41196 -3.50753 0
M  V30 861 O 153.929 -7.27073 -4.86816 0
M  V30 862 C 154.419 -6.5273 -2.63741 0
M  V30 863 C 153.709 -5.1842 -2.73198 0
M  V30 864 N 153.759 -4.38762 -1.4784 0
M  V30 865 H 150.92 -8.36803 -2.32493 0
M  V30 866 H 150.65 -6.70197 -1.71129 0
M  V30 867 H 151.517 -7.03551 -4.13168 0
M  V30 868 P 155.479 -7.20834 -5.23717 0
M  V30 869 O 155.699 -7.79853 -6.57286 0
M  V30 870 O 156.269 -7.79239 -4.12957 0
M  V30 871 O 155.729 -5.63315 -5.29344 0
M  V30 872 C 154.789 -4.80255 -6.01876 0
M  V30 873 C 155.519 -3.64202 -6.65911 0
M  V30 874 O 155.729 -2.60694 -5.64732 0
M  V30 875 C 156.919 -3.93473 -7.1943 0
M  V30 876 O 157.309 -3.02071 -8.21205 0
M  V30 877 C 157.799 -3.73047 -5.97036 0
M  V30 878 C 157.089 -2.58828 -5.25741 0
M  V30 879 N 157.139 -2.68068 -3.77503 0
M  V30 880 H 154.3 -5.40332 -6.79951 0
M  V30 881 H 154.03 -4.41613 -5.32378 0
M  V30 882 H 154.897 -3.26331 -7.47797 0
M  V30 883 P 158.859 -2.75334 -8.47391 0
M  V30 884 O 159.079 -2.44571 -9.90142 0
M  V30 885 O 159.649 -3.87688 -7.92115 0
M  V30 886 O 159.109 -1.4459 -7.59357 0
M  V30 887 C 158.169 -0.347608 -7.69215 0
M  V30 888 C 158.899 0.96767 -7.52806 0
M  V30 889 O 159.109 1.21036 -6.1011 0
M  V30 890 C 160.299 1.04544 -8.13308 0
M  V30 891 O 160.689 2.38311 -8.41922 0
M  V30 892 C 161.179 0.491279 -7.02284 0
M  V30 893 C 160.469 0.996264 -5.77469 0
M  V30 894 N 160.519 0.0501916 -4.62973 0
M  V30 895 H 157.68 -0.374722 -8.67691 0
M  V30 896 H 157.41 -0.443485 -6.90277 0
M  V30 897 H 158.277 1.75537 -7.96793 0
M  V30 898 P 162.239 2.75334 -8.47391 0
M  V30 899 O 162.459 3.84128 -9.44797 0
M  V30 900 O 163.029 1.51947 -8.68712 0
M  V30 901 O 162.489 3.29363 -6.99321 0
M  V30 902 C 161.549 4.24011 -6.4274 0
M  V30 903 C 162.279 5.20775 -5.52155 0
M  V30 904 O 162.489 4.56534 -4.22446 0
M  V30 905 C 163.679 5.62629 -5.96531 0
M  V30 906 O 164.069 6.87667 -5.41053 0
M  V30 907 C 164.559 4.52537 -5.39283 0
M  V30 908 C 163.849 4.20027 -4.08623 0
M  V30 909 N 163.899 2.76189 -3.71603 0
M  V30 910 H 161.06 4.797 -7.24003 0
M  V30 911 H 160.79 3.69856 -5.84513 0
M  V30 912 H 161.657 6.10356 -5.41441 0
M  V30 913 P 165.619 7.20834 -5.23717 0
M  V30 914 O 165.839 8.66104 -5.38572 0
M  V30 915 O 166.409 6.33544 -6.1349 0
M  V30 916 O 165.869 6.7751 -3.72168 0
M  V30 917 C 164.929 7.20825 -2.7076 0
M  V30 918 C 165.659 7.45864 -1.40599 0
M  V30 919 O 165.869 6.17651 -0.734225 0
M  V30 920 C 167.059 8.05808 -1.51899 0
M  V30 921 O 167.449 8.74358 -0.335205 0
M  V30 922 C 167.939 6.83093 -1.70294 0
M  V30 923 C 167.229 5.79992 -0.836974 0
M  V30 924 N 167.279 4.41864 -1.38293 0
M  V30 925 H 164.44 8.13644 -3.0377 0
M  V30 926 H 164.17 6.42788 -2.55485 0
M  V30 927 H 165.037 8.12039 -0.792769 0
M  V30 928 P 168.999 8.91 -1.09116e-14 0
M  V30 929 O 169.219 10.1736 0.733766 0
M  V30 930 O 169.789 8.73247 -1.2395 0
M  V30 931 O 169.249 7.66872 0.971405 0
M  V30 932 C 168.309 7.42212 2.04614 0
M  V30 933 C 169.039 6.86059 3.24661 0
M  V30 934 O 169.249 5.42847 3.03646 0
M  V30 935 C 170.439 7.41196 3.50753 0
M  V30 936 O 170.829 7.27073 4.86816 0
M  V30 937 C 171.319 6.5273 2.63741 0
M  V30 938 C 170.609 5.1842 2.73198 0
M  V30 939 N 170.659 4.38668 1.47808 0
M  V30 940 C 170.809 3.02239 1.60048 0
M  V30 941 O 170.899 2.46459 2.67869 0
M  V30 942 N 170.849 2.32436 0.408571 0
M  V30 943 C 170.759 2.85471 -0.854993 0
M  V30 944 O 170.809 2.12566 -1.8531 0
M  V30 945 C 170.609 4.28918 -0.887335 0
M  V30 946 C 170.499 4.91066 -2.24619 0
M  V30 947 C 170.559 5.00349 0.255399 0
M  V30 948 H 167.819 8.36803 2.32493 0
M  V30 949 H 167.55 6.701 1.71105 0
M  V30 950 H 168.417 7.03551 4.13168 0
M  V30 951 H 171.072 4.59773 3.53894 0
M  V30 952 H 171.351 6.88995 1.59871 0
M  V30 953 H 172.343 6.46749 3.03687 0
M  V30 954 H 170.509 8.46908 3.20714 0
M  V30 955 H 170.438 6.08548 0.206986 0
M  V30 956 H 171.468 5.34836 -2.53099 0
M  V30 957 H 169.731 5.69638 -2.2291 0
M  V30 958 H 170.219 4.13971 -2.98044 0
M  V30 959 H 170.955 1.33211 0.474216 0
M  V30 960 P 172.379 7.20834 5.23717 0
M  V30 961 O 172.599 7.80006 6.57415 0
M  V30 962 O 173.169 7.79416 4.13051 0
M  V30 963 O 172.629 5.63315 5.29344 0
M  V30 964 C 171.689 4.80318 6.01954 0
M  V30 965 C 172.419 3.64202 6.65911 0
M  V30 966 O 172.629 2.60736 5.64823 0
M  V30 967 C 173.819 3.93521 7.19518 0
M  V30 968 O 174.209 3.02071 8.21205 0
M  V30 969 C 174.699 3.73047 5.97036 0
M  V30 970 C 173.989 2.58828 5.25741 0
M  V30 971 N 174.039 2.68068 3.77503 0
M  V30 972 C 173.959 3.80474 2.99159 0
M  V30 973 N 174.029 3.55622 1.71925 0
M  V30 974 C 174.179 2.1832 1.65733 0
M  V30 975 C 174.309 1.28842 0.572777 0
M  V30 976 N 174.319 1.66875 -0.70098 0
M  V30 977 N 174.429 -0.016788 0.859836 0
M  V30 978 C 174.419 -0.398145 2.13316 0
M  V30 979 N 174.299 0.328224 3.22333 0
M  V30 980 C 174.179 1.62992 2.90383 0
M  V30 981 H 171.201 5.40394 6.8003 0
M  V30 982 H 170.929 4.41741 5.32532 0
M  V30 983 H 171.797 3.26371 7.47889 0
M  V30 984 H 174.452 1.64007 5.56746 0
M  V30 985 H 174.732 4.63439 5.3432 0
M  V30 986 H 175.723 3.44776 6.25925 0
M  V30 987 H 173.889 4.96707 7.57347 0
M  V30 988 H 173.848 4.8089 3.39924 0
M  V30 989 H 174.229 2.66547 -0.941919 0
M  V30 990 H 174.418 0.965341 -1.44766 0
M  V30 991 H 174.526 -1.46427 2.29697 0
M  V30 992 P 175.759 2.75334 8.47391 0
M  V30 993 O 175.979 2.44571 9.90142 0
M  V30 994 O 176.549 3.87688 7.92115 0
M  V30 995 O 176.009 1.4459 7.59357 0
M  V30 996 C 175.069 0.347608 7.69215 0
M  V30 997 C 175.799 -0.96767 7.52806 0
M  V30 998 O 176.009 -1.21036 6.1011 0
M  V30 999 C 177.199 -1.04544 8.13308 0
M  V30 1000 O 177.589 -2.38311 8.41922 0
M  V30 1001 C 178.079 -0.491279 7.02284 0
M  V30 1002 C 177.369 -0.996264 5.77469 0
M  V30 1003 N 177.419 -0.0501916 4.62973 0
M  V30 1004 H 174.58 0.374722 8.67691 0
M  V30 1005 H 174.31 0.443485 6.90277 0
M  V30 1006 H 175.177 -1.75537 7.96793 0
M  V30 1007 P 179.139 -2.75334 8.47391 0
M  V30 1008 O 179.359 -3.84128 9.44797 0
M  V30 1009 O 179.929 -1.51947 8.68712 0
M  V30 1010 O 179.389 -3.29363 6.99321 0
M  V30 1011 C 178.449 -4.24011 6.4274 0
M  V30 1012 C 179.179 -5.20775 5.52155 0
M  V30 1013 O 179.389 -4.56534 4.22446 0
M  V30 1014 C 180.579 -5.62629 5.96531 0
M  V30 1015 O 180.969 -6.87667 5.41053 0
M  V30 1016 C 181.459 -4.52537 5.39283 0
M  V30 1017 C 180.749 -4.20027 4.08623 0
M  V30 1018 N 180.799 -2.76189 3.71603 0
M  V30 1019 H 177.96 -4.797 7.24003 0
M  V30 1020 H 177.69 -3.69856 5.84513 0
M  V30 1021 H 178.557 -6.10356 5.41441 0
M  V30 1022 P 182.519 -7.20834 5.23717 0
M  V30 1023 O 182.739 -8.66274 5.38678 0
M  V30 1024 O 183.309 -6.33687 6.13629 0
M  V30 1025 O 182.769 -6.7751 3.72168 0
M  V30 1026 C 181.829 -7.20919 2.70795 0
M  V30 1027 C 182.559 -7.45864 1.40599 0
M  V30 1028 O 182.769 -6.17751 0.734343 0
M  V30 1029 C 183.959 -8.05906 1.51917 0
M  V30 1030 O 184.349 -8.74358 0.335205 0
M  V30 1031 C 184.839 -6.83093 1.70294 0
M  V30 1032 C 184.129 -5.79992 0.836974 0
M  V30 1033 N 184.179 -4.41864 1.38293 0
M  V30 1034 H 181.341 -8.13738 3.03804 0
M  V30 1035 H 181.069 -6.42974 2.55559 0
M  V30 1036 H 181.937 -8.12139 0.792866 0
M  V30 1037 H 184.592 -5.80178 -0.160643 0
M  V30 1038 H 184.872 -6.51379 2.75643 0
M  V30 1039 H 185.863 -7.01832 1.3448 0
M  V30 1040 H 184.029 -8.73771 2.38364 0
M  V30 1041 P 185.899 -8.91 -8.29613e-14 0
M  V30 1042 O 186.119 -10.1726 -0.733694 0
M  V30 1043 O 186.689 -8.73148 1.23936 0
M  V30 1044 O 186.149 -7.66872 -0.971405 0
M  V30 1045 C 185.209 -7.42309 -2.04641 0
M  V30 1046 C 185.939 -6.86059 -3.24661 0
M  V30 1047 O 186.149 -5.42847 -3.03646 0
M  V30 1048 C 187.339 -7.41196 -3.50753 0
M  V30 1049 O 187.729 -7.27073 -4.86816 0
M  V30 1050 C 188.219 -6.5273 -2.63741 0
M  V30 1051 C 187.509 -5.1842 -2.73198 0
M  V30 1052 N 187.559 -4.38762 -1.4784 0
M  V30 1053 H 184.72 -8.36803 -2.32493 0
M  V30 1054 H 184.45 -6.70197 -1.71129 0
M  V30 1055 H 185.317 -7.03551 -4.13168 0
M  V30 1056 P 189.279 -7.20834 -5.23717 0
M  V30 1057 O 189.499 -7.7993 -6.57351 0
M  V30 1058 O 190.069 -7.79328 -4.13004 0
M  V30 1059 O 189.529 -5.63315 -5.29344 0
M  V30 1060 C 188.589 -4.80193 -6.01798 0
M  V30 1061 C 189.319 -3.64202 -6.65911 0
M  V30 1062 O 189.529 -2.60694 -5.64732 0
M  V30 1063 C 190.719 -3.93473 -7.1943 0
M  V30 1064 O 191.109 -3.02071 -8.21205 0
M  V30 1065 C 191.599 -3.73047 -5.97036 0
M  V30 1066 C 190.889 -2.58828 -5.25741 0
M  V30 1067 N 190.939 -2.6801 -3.77422 0
M  V30 1068 C 191.089 -1.50443 -3.07133 0
M  V30 1069 O 191.179 -0.419406 -3.61576 0
M  V30 1070 N 191.129 -1.6403 -1.69677 0
M  V30 1071 C 191.039 -2.81206 -0.986255 0
M  V30 1072 C 190.889 -3.99158 -1.80325 0
M  V30 1073 C 190.839 -3.89779 -3.1476 0
M  V30 1074 H 188.099 -5.40332 -6.79951 0
M  V30 1075 H 187.83 -4.41549 -5.32301 0
M  V30 1076 H 188.697 -3.26331 -7.47797 0
M  V30 1077 H 191.352 -1.6395 -5.56554 0
M  V30 1078 H 191.631 -4.63439 -5.3432 0
M  V30 1079 H 192.623 -3.44728 -6.25838 0
M  V30 1080 H 190.789 -4.96652 -7.57263 0
M  V30 1081 H 190.718 -4.80159 -3.74441 0
M  V30 1082 P 192.659 -2.75334 -8.47391 0
M  V30 1083 O 192.879 -2.44619 -9.90336 0
M  V30 1084 O 193.449 -3.87776 -7.92294 0
M  V30 1085 O 192.909 -1.4459 -7.59357 0
M  V30 1086 C 191.969 -0.347653 -7.69315 0
M  V30 1087 C 192.699 0.96767 -7.52806 0
M  V30 1088 O 192.909 1.21055 -6.10208 0
M  V30 1089 C 194.099 1.04557 -8.13408 0
M  V30 1090 O 194.489 2.38311 -8.41922 0
M  V30 1091 C 194.979 0.491279 -7.02284 0
M  V30 1092 C 194.269 0.996264 -5.77469 0
M  V30 1093 N 194.319 0.0501916 -4.62973 0
M  V30 1094 H 191.481 -0.374765 -8.67791 0
M  V30 1095 H 191.209 -0.443613 -6.90476 0
M  V30 1096 H 192.077 1.75559 -7.96891 0
M  V30 1097 H 194.732 1.94563 -5.46818 0
M  V30 1098 H 195.012 -0.608651 -7.04676 0
M  V30 1099 H 196.003 0.889796 -7.09039 0
M  V30 1100 H 194.169 0.433128 -9.04664 0
M  V30 1101 P 196.039 2.75334 -8.47391 0
M  V30 1102 O 196.259 3.84166 -9.4489 0
M  V30 1103 O 196.829 1.51964 -8.6881 0
M  V30 1104 O 196.289 3.29363 -6.99321 0
M  V30 1105 C 195.349 4.23956 -6.42656 0
M  V30 1106 C 196.079 5.20775 -5.52155 0
M  V30 1107 O 196.289 4.56534 -4.22446 0
M  V30 1108 C 197.479 5.62629 -5.96531 0
M  V30 1109 O 197.869 6.87667 -5.41053 0
M  V30 1110 C 198.359 4.52537 -5.39283 0
M  V30 1111 C 197.649 4.20027 -4.08623 0
M  V30 1112 N 197.699 2.7613 -3.71522 0
M  V30 1113 C 197.849 2.45612 -2.37989 0
M  V30 1114 O 197.939 3.30919 -1.51621 0
M  V30 1115 N 197.889 1.10684 -2.08435 0
M  V30 1116 C 197.799 0.0690084 -2.9792 0
M  V30 1117 O 197.849 -1.10553 -2.59426 0
M  V30 1118 C 197.649 0.481522 -4.35345 0
M  V30 1119 C 197.539 -0.618778 -5.36443 0
M  V30 1120 C 197.599 1.78906 -4.67968 0
M  V30 1121 H 194.859 4.797 -7.24003 0
M  V30 1122 H 194.59 3.69802 -5.84429 0
M  V30 1123 H 195.457 6.10356 -5.41441 0
M  V30 1124 H 198.112 4.78651 -3.27911 0
M  V30 1125 H 198.391 3.64957 -6.05871 0
M  V30 1126 H 199.383 4.8868 -5.2125 0
M  V30 1127 H 197.549 5.66726 -7.06352 0
M  V30 1128 H 197.478 2.07737 -5.72367 0
M  V30 1129 H 198.508 -0.754375 -5.86871 0
M  V30 1130 H 196.771 -0.359721 -6.10641 0
M  V30 1131 H 197.259 -1.55533 -4.8581 0
M  V30 1132 H 197.995 0.862651 -1.12037 0
M  V30 1133 P 199.419 7.20834 -5.23717 0
M  V30 1134 O 199.639 8.66274 -5.38678 0
M  V30 1135 O 200.209 6.33687 -6.13629 0
M  V30 1136 O 199.669 6.7751 -3.72168 0
M  V30 1137 C 198.729 7.20919 -2.70795 0
M  V30 1138 C 199.459 7.45864 -1.40599 0
M  V30 1139 O 199.669 6.17751 -0.734343 0
M  V30 1140 C 200.859 8.05906 -1.51917 0
M  V30 1141 O 201.249 8.74358 -0.335205 0
M  V30 1142 C 201.739 6.83093 -1.70294 0
M  V30 1143 C 201.029 5.79992 -0.836974 0
M  V30 1144 N 201.079 4.41864 -1.38293 0
M  V30 1145 H 198.241 8.13738 -3.03804 0
M  V30 1146 H 197.969 6.42974 -2.55559 0
M  V30 1147 H 198.837 8.12139 -0.792866 0
M  V30 1148 H 201.492 5.80178 0.160643 0
M  V30 1149 H 201.772 6.51379 -2.75643 0
M  V30 1150 H 202.763 7.01832 -1.3448 0
M  V30 1151 H 200.929 8.73771 -2.38364 0
M  V30 1152 P 202.799 8.91 2.40144e-13 0
M  V30 1153 O 203.019 10.1726 0.733694 0
M  V30 1154 O 203.589 8.73148 -1.23936 0
M  V30 1155 O 203.049 7.66872 0.971405 0
M  V30 1156 C 202.109 7.42309 2.04641 0
M  V30 1157 C 202.839 6.86059 3.24661 0
M  V30 1158 O 203.049 5.42847 3.03646 0
M  V30 1159 C 204.239 7.41196 3.50753 0
M  V30 1160 O 204.629 7.27073 4.86816 0
M  V30 1161 C 205.119 6.5273 2.63741 0
M  V30 1162 C 204.409 5.1842 2.73198 0
M  V30 1163 N 204.459 4.38762 1.4784 0
M  V30 1164 H 201.62 8.36803 2.32493 0
M  V30 1165 H 201.35 6.70197 1.71129 0
M  V30 1166 H 202.217 7.03551 4.13168 0
M  V30 1167 P 206.179 7.20834 5.23717 0
M  V30 1168 O 206.399 7.79853 6.57286 0
M  V30 1169 O 206.969 7.79239 4.12957 0
M  V30 1170 O 206.429 5.63315 5.29344 0
M  V30 1171 C 205.489 4.80255 6.01876 0
M  V30 1172 C 206.219 3.64202 6.65911 0
M  V30 1173 O 206.429 2.60694 5.64732 0
M  V30 1174 C 207.619 3.93473 7.1943 0
M  V30 1175 O 208.009 3.02071 8.21205 0
M  V30 1176 C 208.499 3.73047 5.97036 0
M  V30 1177 C 207.789 2.58828 5.25741 0
M  V30 1178 N 207.839 2.68068 3.77503 0
M  V30 1179 H 205 5.40332 6.79951 0
M  V30 1180 H 204.73 4.41613 5.32378 0
M  V30 1181 H 205.597 3.26331 7.47797 0
M  V30 1182 P 209.559 2.75334 8.47391 0
M  V30 1183 O 209.779 2.44619 9.90336 0
M  V30 1184 O 210.349 3.87776 7.92294 0
M  V30 1185 O 209.809 1.4459 7.59357 0
M  V30 1186 C 208.869 0.347653 7.69315 0
M  V30 1187 C 209.599 -0.96767 7.52806 0
M  V30 1188 O 209.809 -1.21055 6.10208 0
M  V30 1189 C 210.999 -1.04557 8.13408 0
M  V30 1190 O 211.389 -2.38311 8.41922 0
M  V30 1191 C 211.879 -0.491279 7.02284 0
M  V30 1192 C 211.169 -0.996264 5.77469 0
M  V30 1193 N 211.219 -0.0501916 4.62973 0
M  V30 1194 C 211.139 1.31969 4.65661 0
M  V30 1195 N 211.209 1.86649 3.48119 0
M  V30 1196 C 211.359 0.792089 2.62406 0
M  V30 1197 C 211.489 0.705684 1.2207 0
M  V30 1198 N 211.499 1.76207 0.413762 0
M  V30 1199 N 211.609 -0.518981 0.685754 0
M  V30 1200 C 211.599 -1.57595 1.49174 0
M  V30 1201 N 211.479 -1.62909 2.80066 0
M  V30 1202 C 211.359 -0.388195 3.3073 0
M  V30 1203 H 208.381 0.374765 8.67791 0
M  V30 1204 H 208.109 0.443613 6.90476 0
M  V30 1205 H 208.977 -1.75559 7.96891 0
M  V30 1206 H 211.632 -1.94563 5.46818 0
M  V30 1207 H 211.912 0.608651 7.04676 0
M  V30 1208 H 212.903 -0.889796 7.09039 0
M  V30 1209 H 211.069 -0.433128 9.04664 0
M  V30 1210 H 211.028 1.89246 5.57664 0
M  V30 1211 H 211.409 2.71005 0.804694 0
M  V30 1212 H 211.598 1.63189 -0.603768 0
M  V30 1213 H 211.706 -2.53475 0.997614 0
M  V30 1214 P 212.939 -2.75334 8.47391 0
M  V30 1215 O 213.159 -3.84128 9.44797 0
M  V30 1216 O 213.729 -1.51947 8.68712 0
M  V30 1217 O 213.189 -3.29363 6.99321 0
M  V30 1218 C 212.249 -4.24011 6.4274 0
M  V30 1219 C 212.979 -5.20775 5.52155 0
M  V30 1220 O 213.189 -4.56534 4.22446 0
M  V30 1221 C 214.379 -5.62629 5.96531 0
M  V30 1222 O 214.769 -6.87667 5.41053 0
M  V30 1223 C 215.259 -4.52537 5.39283 0
M  V30 1224 C 214.549 -4.20027 4.08623 0
M  V30 1225 N 214.599 -2.76189 3.71603 0
M  V30 1226 H 211.76 -4.797 7.24003 0
M  V30 1227 H 211.49 -3.69856 5.84513 0
M  V30 1228 H 212.357 -6.10356 5.41441 0
M  V30 1229 P 216.319 -7.20834 5.23717 0
M  V30 1230 O 216.539 -8.66274 5.38678 0
M  V30 1231 O 217.109 -6.33687 6.13629 0
M  V30 1232 O 216.569 -6.7751 3.72168 0
M  V30 1233 C 215.629 -7.20919 2.70795 0
M  V30 1234 C 216.359 -7.45864 1.40599 0
M  V30 1235 O 216.569 -6.17751 0.734343 0
M  V30 1236 C 217.759 -8.05906 1.51917 0
M  V30 1237 O 218.149 -8.74358 0.335205 0
M  V30 1238 C 218.639 -6.83093 1.70294 0
M  V30 1239 C 217.929 -5.79992 0.836974 0
M  V30 1240 N 217.979 -4.41864 1.38293 0
M  V30 1241 C 217.899 -4.02089 2.69407 0
M  V30 1242 N 217.969 -2.73403 2.85089 0
M  V30 1243 C 218.119 -2.25086 1.5642 0
M  V30 1244 C 218.249 -0.942887 1.04836 0
M  V30 1245 N 218.259 0.150999 1.80369 0
M  V30 1246 N 218.369 -0.812565 -0.28167 0
M  V30 1247 C 218.359 -1.90572 -1.03784 0
M  V30 1248 N 218.239 -3.167 -0.683905 0
M  V30 1249 C 218.119 -3.26538 0.652815 0
M  V30 1250 H 215.141 -8.13738 3.03804 0
M  V30 1251 H 214.869 -6.42974 2.55559 0
M  V30 1252 H 215.737 -8.12139 0.792866 0
M  V30 1253 H 218.392 -5.80178 -0.160643 0
M  V30 1254 H 218.672 -6.51379 2.75643 0
M  V30 1255 H 219.663 -7.01832 1.3448 0
M  V30 1256 H 217.829 -8.73771 2.38364 0
M  V30 1257 H 217.788 -4.7189 3.52311 0
M  V30 1258 H 218.169 0.0721434 2.82608 0
M  V30 1259 H 218.358 1.0785 1.36544 0
M  V30 1260 H 218.466 -1.73207 -2.10241 0
M  V30 1261 P 219.699 -8.91 -3.97326e-13 0
M  V30 1262 O 219.919 -10.1726 -0.733694 0
M  V30 1263 O 220.489 -8.73148 1.23936 0
M  V30 1264 O 219.949 -7.66872 -0.971405 0
M  V30 1265 C 219.009 -7.42309 -2.04641 0
M  V30 1266 C 219.739 -6.86059 -3.24661 0
M  V30 1267 O 219.949 -5.42847 -3.03646 0
M  V30 1268 C 221.139 -7.41196 -3.50753 0
M  V30 1269 O 221.529 -7.27073 -4.86816 0
M  V30 1270 C 222.019 -6.5273 -2.63741 0
M  V30 1271 C 221.309 -5.1842 -2.73198 0
M  V30 1272 N 221.359 -4.38762 -1.4784 0
M  V30 1273 H 218.52 -8.36803 -2.32493 0
M  V30 1274 H 218.25 -6.70197 -1.71129 0
M  V30 1275 H 219.117 -7.03551 -4.13168 0
M  V30 1276 P 223.079 -7.20834 -5.23717 0
M  V30 1277 O 223.299 -7.79853 -6.57286 0
M  V30 1278 O 223.869 -7.79239 -4.12957 0
M  V30 1279 O 223.329 -5.63315 -5.29344 0
M  V30 1280 C 222.389 -4.80255 -6.01876 0
M  V30 1281 C 223.119 -3.64202 -6.65911 0
M  V30 1282 O 223.329 -2.60694 -5.64732 0
M  V30 1283 C 224.519 -3.93473 -7.1943 0
M  V30 1284 O 224.909 -3.02071 -8.21205 0
M  V30 1285 C 225.399 -3.73047 -5.97036 0
M  V30 1286 C 224.689 -2.58828 -5.25741 0
M  V30 1287 N 224.739 -2.68068 -3.77503 0
M  V30 1288 H 221.9 -5.40332 -6.79951 0
M  V30 1289 H 221.63 -4.41613 -5.32378 0
M  V30 1290 H 222.497 -3.26331 -7.47797 0
M  V30 1291 P 226.459 -2.75334 -8.47391 0
M  V30 1292 O 226.679 -2.44619 -9.90336 0
M  V30 1293 O 227.249 -3.87776 -7.92294 0
M  V30 1294 O 226.709 -1.4459 -7.59357 0
M  V30 1295 C 225.769 -0.347653 -7.69315 0
M  V30 1296 C 226.499 0.96767 -7.52806 0
M  V30 1297 O 226.709 1.21055 -6.10208 0
M  V30 1298 C 227.899 1.04557 -8.13408 0
M  V30 1299 O 228.289 2.38311 -8.41922 0
M  V30 1300 C 228.779 0.491279 -7.02284 0
M  V30 1301 C 228.069 0.996264 -5.77469 0
M  V30 1302 N 228.119 0.0501916 -4.62973 0
M  V30 1303 C 228.039 -1.31969 -4.65661 0
M  V30 1304 N 228.109 -1.86649 -3.48119 0
M  V30 1305 C 228.259 -0.792089 -2.62406 0
M  V30 1306 C 228.389 -0.705684 -1.2207 0
M  V30 1307 N 228.399 -1.76207 -0.413762 0
M  V30 1308 N 228.509 0.518981 -0.685754 0
M  V30 1309 C 228.499 1.57595 -1.49174 0
M  V30 1310 N 228.379 1.62909 -2.80066 0
M  V30 1311 C 228.259 0.388195 -3.3073 0
M  V30 1312 H 225.281 -0.374765 -8.67791 0
M  V30 1313 H 225.009 -0.443613 -6.90476 0
M  V30 1314 H 225.877 1.75559 -7.96891 0
M  V30 1315 H 228.532 1.94563 -5.46818 0
M  V30 1316 H 228.812 -0.608651 -7.04676 0
M  V30 1317 H 229.803 0.889796 -7.09039 0
M  V30 1318 H 227.969 0.433128 -9.04664 0
M  V30 1319 H 227.928 -1.89246 -5.57664 0
M  V30 1320 H 228.309 -2.71005 -0.804694 0
M  V30 1321 H 228.498 -1.63189 0.603768 0
M  V30 1322 H 228.606 2.53475 -0.997614 0
M  V30 1323 P 229.839 2.75334 -8.47391 0
M  V30 1324 O 230.059 3.84128 -9.44797 0
M  V30 1325 O 230.629 1.51947 -8.68712 0
M  V30 1326 O 230.089 3.29363 -6.99321 0
M  V30 1327 C 229.149 4.24011 -6.4274 0
M  V30 1328 C 229.879 5.20775 -5.52155 0
M  V30 1329 O 230.089 4.56534 -4.22446 0
M  V30 1330 C 231.279 5.62629 -5.96531 0
M  V30 1331 O 231.669 6.87667 -5.41053 0
M  V30 1332 C 232.159 4.52537 -5.39283 0
M  V30 1333 C 231.449 4.20027 -4.08623 0
M  V30 1334 N 231.499 2.76189 -3.71603 0
M  V30 1335 H 228.66 4.797 -7.24003 0
M  V30 1336 H 228.39 3.69856 -5.84513 0
M  V30 1337 H 229.257 6.10356 -5.41441 0
M  V30 1338 P 233.219 7.20834 -5.23717 0
M  V30 1339 O 233.439 8.66274 -5.38678 0
M  V30 1340 O 234.009 6.33687 -6.13629 0
M  V30 1341 O 233.469 6.7751 -3.72168 0
M  V30 1342 C 232.529 7.20919 -2.70795 0
M  V30 1343 C 233.259 7.45864 -1.40599 0
M  V30 1344 O 233.469 6.17751 -0.734343 0
M  V30 1345 C 234.659 8.05906 -1.51917 0
M  V30 1346 O 235.049 8.74358 -0.335205 0
M  V30 1347 C 235.539 6.83093 -1.70294 0
M  V30 1348 C 234.829 5.79992 -0.836974 0
M  V30 1349 N 234.879 4.41864 -1.38293 0
M  V30 1350 C 234.799 4.02089 -2.69407 0
M  V30 1351 N 234.869 2.73403 -2.85089 0
M  V30 1352 C 235.019 2.25086 -1.5642 0
M  V30 1353 C 235.149 0.942887 -1.04836 0
M  V30 1354 N 235.159 -0.150999 -1.80369 0
M  V30 1355 N 235.269 0.812565 0.28167 0
M  V30 1356 C 235.259 1.90572 1.03784 0
M  V30 1357 N 235.139 3.167 0.683905 0
M  V30 1358 C 235.019 3.26538 -0.652815 0
M  V30 1359 H 232.041 8.13738 -3.03804 0
M  V30 1360 H 231.769 6.42974 -2.55559 0
M  V30 1361 H 232.637 8.12139 -0.792866 0
M  V30 1362 H 235.292 5.80178 0.160643 0
M  V30 1363 H 235.572 6.51379 -2.75643 0
M  V30 1364 H 236.563 7.01832 -1.3448 0
M  V30 1365 H 234.729 8.73771 -2.38364 0
M  V30 1366 H 234.688 4.7189 -3.52311 0
M  V30 1367 H 235.069 -0.0721434 -2.82608 0
M  V30 1368 H 235.258 -1.0785 -1.36544 0
M  V30 1369 H 235.366 1.73207 2.10241 0
M  V30 1370 P 236.599 8.91 5.54508e-13 0
M  V30 1371 O 236.819 10.1746 0.733838 0
M  V30 1372 O 237.389 8.73346 -1.23964 0
M  V30 1373 O 236.849 7.66872 0.971405 0
M  V30 1374 C 235.909 7.42405 2.04668 0
M  V30 1375 C 236.639 6.86059 3.24661 0
M  V30 1376 O 236.849 5.42934 3.03695 0
M  V30 1377 C 238.039 7.41287 3.50796 0
M  V30 1378 O 238.429 7.27073 4.86816 0
M  V30 1379 C 238.919 6.5273 2.63741 0
M  V30 1380 C 238.209 5.1842 2.73198 0
M  V30 1381 N 238.259 4.38762 1.4784 0
M  V30 1382 H 235.421 8.36899 2.3252 0
M  V30 1383 H 235.149 6.70391 1.71179 0
M  V30 1384 H 236.017 7.03638 4.13219 0
M  V30 1385 H 238.672 4.59931 3.54016 0
M  V30 1386 H 238.952 6.88995 1.59871 0
M  V30 1387 H 239.943 6.4684 3.0373 0
M  V30 1388 H 238.109 8.47002 3.20749 0
M  V30 1389 P 239.979 7.20834 5.23717 0
M  V30 1390 O 240.199 7.80006 6.57415 0
M  V30 1391 O 240.769 7.79416 4.13051 0
M  V30 1392 O 240.229 5.63315 5.29344 0
M  V30 1393 C 239.289 4.80318 6.01954 0
M  V30 1394 C 240.019 3.64202 6.65911 0
M  V30 1395 O 240.229 2.60736 5.64823 0
M  V30 1396 C 241.419 3.93521 7.19518 0
M  V30 1397 O 241.809 3.02071 8.21205 0
M  V30 1398 C 242.299 3.73047 5.97036 0
M  V30 1399 C 241.589 2.58828 5.25741 0
M  V30 1400 N 241.639 2.68068 3.77503 0
M  V30 1401 C 241.559 3.80474 2.99159 0
M  V30 1402 N 241.629 3.55622 1.71925 0
M  V30 1403 C 241.779 2.1832 1.65733 0
M  V30 1404 C 241.909 1.28842 0.572777 0
M  V30 1405 N 241.919 1.66875 -0.70098 0
M  V30 1406 N 242.029 -0.016788 0.859836 0
M  V30 1407 C 242.019 -0.398145 2.13316 0
M  V30 1408 N 241.899 0.328224 3.22333 0
M  V30 1409 C 241.779 1.62992 2.90383 0
M  V30 1410 H 238.801 5.40394 6.8003 0
M  V30 1411 H 238.529 4.41741 5.32532 0
M  V30 1412 H 239.397 3.26371 7.47889 0
M  V30 1413 H 242.052 1.64007 5.56746 0
M  V30 1414 H 242.332 4.63439 5.3432 0
M  V30 1415 H 243.323 3.44776 6.25925 0
M  V30 1416 H 241.489 4.96707 7.57347 0
M  V30 1417 H 241.448 4.8089 3.39924 0
M  V30 1418 H 241.829 2.66547 -0.941919 0
M  V30 1419 H 242.018 0.965341 -1.44766 0
M  V30 1420 H 242.126 -1.46427 2.29697 0
M  V30 1421 P 243.359 2.75334 8.47391 0
M  V30 1422 O 243.579 2.44571 9.90142 0
M  V30 1423 O 244.149 3.87688 7.92115 0
M  V30 1424 O 243.609 1.4459 7.59357 0
M  V30 1425 C 242.669 0.347608 7.69215 0
M  V30 1426 C 243.399 -0.96767 7.52806 0
M  V30 1427 O 243.609 -1.21036 6.1011 0
M  V30 1428 C 244.799 -1.04544 8.13308 0
M  V30 1429 O 245.189 -2.38311 8.41922 0
M  V30 1430 C 245.679 -0.491279 7.02284 0
M  V30 1431 C 244.969 -0.996264 5.77469 0
M  V30 1432 N 245.019 -0.0501916 4.62973 0
M  V30 1433 H 242.18 0.374722 8.67691 0
M  V30 1434 H 241.91 0.443485 6.90277 0
M  V30 1435 H 242.777 -1.75537 7.96793 0
M  V30 1436 P 246.739 -2.75334 8.47391 0
M  V30 1437 O 246.959 -3.84128 9.44797 0
M  V30 1438 O 247.529 -1.51947 8.68712 0
M  V30 1439 O 246.989 -3.29363 6.99321 0
M  V30 1440 C 246.049 -4.24011 6.4274 0
M  V30 1441 C 246.779 -5.20775 5.52155 0
M  V30 1442 O 246.989 -4.56534 4.22446 0
M  V30 1443 C 248.179 -5.62629 5.96531 0
M  V30 1444 O 248.569 -6.87667 5.41053 0
M  V30 1445 C 249.059 -4.52537 5.39283 0
M  V30 1446 C 248.349 -4.20027 4.08623 0
M  V30 1447 N 248.399 -2.76189 3.71603 0
M  V30 1448 H 245.56 -4.797 7.24003 0
M  V30 1449 H 245.29 -3.69856 5.84513 0
M  V30 1450 H 246.157 -6.10356 5.41441 0
M  V30 1451 P 250.119 -7.20834 5.23717 0
M  V30 1452 O 250.339 -8.66189 5.38625 0
M  V30 1453 O 250.909 -6.33615 6.1356 0
M  V30 1454 O 250.369 -6.7751 3.72168 0
M  V30 1455 C 249.429 -7.20825 2.7076 0
M  V30 1456 C 250.159 -7.45864 1.40599 0
M  V30 1457 O 250.369 -6.17651 0.734225 0
M  V30 1458 C 251.559 -8.05808 1.51899 0
M  V30 1459 O 251.949 -8.74358 0.335205 0
M  V30 1460 C 252.439 -6.83093 1.70294 0
M  V30 1461 C 251.729 -5.79992 0.836974 0
M  V30 1462 N 251.779 -4.41769 1.38263 0
M  V30 1463 C 251.929 -3.36514 0.485617 0
M  V30 1464 O 252.019 -3.61814 -0.724703 0
M  V30 1465 N 251.979 -2.00746 1.14492 0
M  V30 1466 C 251.879 -1.85887 2.27776 0
M  V30 1467 N 251.929 -0.600907 2.69379 0
M  V30 1468 C 251.729 -2.92182 3.22265 0
M  V30 1469 C 251.679 -4.18399 2.71925 0
M  V30 1470 H 248.939 -8.1355 3.03735 0
M  V30 1471 H 248.67 -6.42695 2.55448 0
M  V30 1472 H 249.537 -8.12139 0.792866 0
M  V30 1473 H 252.192 -5.80078 -0.160615 0
M  V30 1474 H 252.471 -6.51379 2.75643 0
M  V30 1475 H 253.463 -7.01734 1.34462 0
M  V30 1476 H 251.629 -8.73674 2.38337 0
M  V30 1477 H 251.557 -5.02669 3.39718 0
M  V30 1478 H 251.659 -2.73001 4.29239 0
M  V30 1479 H 252.047 0.162318 2.01146 0
M  V30 1480 H 251.85 -0.387742 3.69773 0
M  V30 1481 P 253.498 -8.91 -7.1169e-13 0
M  V30 1482 O 253.718 -10.1726 -0.733694 0
M  V30 1483 O 254.288 -8.73148 1.23936 0
M  V30 1484 O 253.748 -7.66872 -0.971405 0
M  V30 1485 C 252.808 -7.42309 -2.04641 0
M  V30 1486 C 253.538 -6.86059 -3.24661 0
M  V30 1487 O 253.748 -5.42847 -3.03646 0
M  V30 1488 C 254.938 -7.41196 -3.50753 0
M  V30 1489 O 255.328 -7.27073 -4.86816 0
M  V30 1490 C 255.818 -6.5273 -2.63741 0
M  V30 1491 C 255.108 -5.1842 -2.73198 0
M  V30 1492 N 255.158 -4.38762 -1.4784 0
M  V30 1493 H 252.319 -8.36803 -2.32493 0
M  V30 1494 H 252.049 -6.70197 -1.71129 0
M  V30 1495 H 252.916 -7.03551 -4.13168 0
M  V30 1496 P 256.878 -7.20834 -5.23717 0
M  V30 1497 O 257.098 -7.79853 -6.57286 0
M  V30 1498 O 257.668 -7.79239 -4.12957 0
M  V30 1499 O 257.128 -5.63315 -5.29344 0
M  V30 1500 C 256.188 -4.80255 -6.01876 0
M  V30 1501 C 256.918 -3.64202 -6.65911 0
M  V30 1502 O 257.128 -2.60694 -5.64732 0
M  V30 1503 C 258.318 -3.93473 -7.1943 0
M  V30 1504 O 258.708 -3.02071 -8.21205 0
M  V30 1505 C 259.198 -3.73047 -5.97036 0
M  V30 1506 C 258.488 -2.58828 -5.25741 0
M  V30 1507 N 258.538 -2.68068 -3.77503 0
M  V30 1508 H 255.699 -5.40332 -6.79951 0
M  V30 1509 H 255.429 -4.41613 -5.32378 0
M  V30 1510 H 256.296 -3.26331 -7.47797 0
M  V30 1511 P 260.258 -2.75334 -8.47391 0
M  V30 1512 O 260.478 -2.44571 -9.90142 0
M  V30 1513 O 261.048 -3.87688 -7.92115 0
M  V30 1514 O 260.508 -1.4459 -7.59357 0
M  V30 1515 C 259.568 -0.347608 -7.69215 0
M  V30 1516 C 260.298 0.96767 -7.52806 0
M  V30 1517 O 260.508 1.21036 -6.1011 0
M  V30 1518 C 261.698 1.04544 -8.13308 0
M  V30 1519 O 262.088 2.38311 -8.41922 0
M  V30 1520 C 262.578 0.491279 -7.02284 0
M  V30 1521 C 261.868 0.996264 -5.77469 0
M  V30 1522 N 261.918 0.0501916 -4.62973 0
M  V30 1523 H 259.079 -0.374722 -8.67691 0
M  V30 1524 H 258.809 -0.443485 -6.90277 0
M  V30 1525 H 259.676 1.75537 -7.96793 0
M  V30 1526 P 263.638 2.75334 -8.47391 0
M  V30 1527 O 263.858 3.84204 -9.44982 0
M  V30 1528 O 264.428 1.51982 -8.68909 0
M  V30 1529 O 263.888 3.29363 -6.99321 0
M  V30 1530 C 262.948 4.24066 -6.42823 0
M  V30 1531 C 263.678 5.20775 -5.52155 0
M  V30 1532 O 263.888 4.56607 -4.22514 0
M  V30 1533 C 265.078 5.62697 -5.96604 0
M  V30 1534 O 265.468 6.87667 -5.41053 0
M  V30 1535 C 265.958 4.52537 -5.39283 0
M  V30 1536 C 265.248 4.20027 -4.08623 0
M  V30 1537 N 265.298 2.76189 -3.71603 0
M  V30 1538 H 262.46 4.79756 -7.24086 0
M  V30 1539 H 262.188 3.69963 -5.84682 0
M  V30 1540 H 263.056 6.10431 -5.41508 0
M  V30 1541 H 265.711 4.78816 -3.28024 0
M  V30 1542 H 265.991 3.64957 -6.05871 0
M  V30 1543 H 266.982 4.88748 -5.21323 0
M  V30 1544 H 265.148 5.66789 -7.0643 0
M  V30 1545 P 267.018 7.20834 -5.23717 0
M  V30 1546 O 267.238 8.66104 -5.38572 0
M  V30 1547 O 267.808 6.33544 -6.1349 0
M  V30 1548 O 267.268 6.7751 -3.72168 0
M  V30 1549 C 266.328 7.20825 -2.7076 0
M  V30 1550 C 267.058 7.45864 -1.40599 0
M  V30 1551 O 267.268 6.17651 -0.734225 0
M  V30 1552 C 268.458 8.05808 -1.51899 0
M  V30 1553 O 268.848 8.74358 -0.335205 0
M  V30 1554 C 269.338 6.83093 -1.70294 0
M  V30 1555 C 268.628 5.79992 -0.836974 0
M  V30 1556 N 268.678 4.41864 -1.38293 0
M  V30 1557 H 265.839 8.13644 -3.0377 0
M  V30 1558 H 265.569 6.42788 -2.55485 0
M  V30 1559 H 266.436 8.12039 -0.792769 0
M  V30 1560 P 270.398 8.91 8.68872e-13 0
M  V30 1561 O 270.618 10.1736 0.733766 0
M  V30 1562 O 271.188 8.73247 -1.2395 0
M  V30 1563 O 270.648 7.66872 0.971405 0
M  V30 1564 C 269.708 7.42212 2.04614 0
M  V30 1565 C 270.438 6.86059 3.24661 0
M  V30 1566 O 270.648 5.42847 3.03646 0
M  V30 1567 C 271.838 7.41196 3.50753 0
M  V30 1568 O 272.228 7.27073 4.86816 0
M  V30 1569 C 272.718 6.5273 2.63741 0
M  V30 1570 C 272.008 5.1842 2.73198 0
M  V30 1571 N 272.058 4.38668 1.47808 0
M  V30 1572 C 272.208 3.02239 1.60048 0
M  V30 1573 O 272.298 2.46459 2.67869 0
M  V30 1574 N 272.248 2.32436 0.408571 0
M  V30 1575 C 272.158 2.85471 -0.854993 0
M  V30 1576 O 272.208 2.12566 -1.8531 0
M  V30 1577 C 272.008 4.28918 -0.887335 0
M  V30 1578 C 271.898 4.91066 -2.24619 0
M  V30 1579 C 271.958 5.00349 0.255399 0
M  V30 1580 H 269.218 8.36803 2.32493 0
M  V30 1581 H 268.949 6.701 1.71105 0
M  V30 1582 H 269.816 7.03551 4.13168 0
M  V30 1583 H 272.471 4.59773 3.53894 0
M  V30 1584 H 272.75 6.88995 1.59871 0
M  V30 1585 H 273.742 6.46749 3.03687 0
M  V30 1586 H 271.908 8.46908 3.20714 0
M  V30 1587 H 271.837 6.08548 0.206986 0
M  V30 1588 H 272.867 5.34836 -2.53099 0
M  V30 1589 H 271.13 5.69638 -2.2291 0
M  V30 1590 H 271.618 4.13971 -2.98044 0
M  V30 1591 H 272.354 1.33211 0.474216 0
M  V30 1592 P 273.778 7.20834 5.23717 0
M  V30 1593 O 273.998 7.79853 6.57286 0
M  V30 1594 O 274.568 7.79239 4.12957 0
M  V30 1595 O 274.028 5.63315 5.29344 0
M  V30 1596 C 273.088 4.80255 6.01876 0
M  V30 1597 C 273.818 3.64202 6.65911 0
M  V30 1598 O 274.028 2.60694 5.64732 0
M  V30 1599 C 275.218 3.93473 7.1943 0
M  V30 1600 O 275.608 3.02071 8.21205 0
M  V30 1601 C 276.098 3.73047 5.97036 0
M  V30 1602 C 275.388 2.58828 5.25741 0
M  V30 1603 N 275.438 2.68068 3.77503 0
M  V30 1604 C 275.358 3.79715 2.96723 0
M  V30 1605 N 275.438 3.5377 1.68852 0
M  V30 1606 C 275.578 2.15054 1.63254 0
M  V30 1607 C 275.708 1.28964 0.518571 0
M  V30 1608 N 275.828 -0.0538097 0.918425 0
M  V30 1609 C 275.828 -0.494275 2.22578 0
M  V30 1610 N 275.958 -1.81086 2.40434 0
M  V30 1611 N 275.698 0.313645 3.27502 0
M  V30 1612 C 275.578 1.61829 2.91033 0
M  V30 1613 H 272.599 5.40332 6.79951 0
M  V30 1614 H 272.329 4.41613 5.32378 0
M  V30 1615 H 273.196 3.26331 7.47797 0
M  V30 1616 P 277.158 2.75334 8.47391 0
M  V30 1617 O 277.378 2.44571 9.90142 0
M  V30 1618 O 277.948 3.87688 7.92115 0
M  V30 1619 O 277.408 1.4459 7.59357 0
M  V30 1620 C 276.468 0.347608 7.69215 0
M  V30 1621 C 277.198 -0.96767 7.52806 0
M  V30 1622 O 277.408 -1.21036 6.1011 0
M  V30 1623 C 278.598 -1.04544 8.13308 0
M  V30 1624 O 278.988 -2.38311 8.41922 0
M  V30 1625 C 279.478 -0.491279 7.02284 0
M  V30 1626 C 278.768 -0.996264 5.77469 0
M  V30 1627 N 278.818 -0.0501916 4.62973 0
M  V30 1628 H 275.979 0.374722 8.67691 0
M  V30 1629 H 275.709 0.443485 6.90277 0
M  V30 1630 H 276.576 -1.75537 7.96793 0
M  V30 1631 P 280.538 -2.75334 8.47391 0
M  V30 1632 O 280.758 -3.84128 9.44797 0
M  V30 1633 O 281.328 -1.51947 8.68712 0
M  V30 1634 O 280.788 -3.29363 6.99321 0
M  V30 1635 C 279.848 -4.24011 6.4274 0
M  V30 1636 C 280.578 -5.20775 5.52155 0
M  V30 1637 O 280.788 -4.56534 4.22446 0
M  V30 1638 C 281.978 -5.62629 5.96531 0
M  V30 1639 O 282.368 -6.87667 5.41053 0
M  V30 1640 C 282.858 -4.52537 5.39283 0
M  V30 1641 C 282.148 -4.20027 4.08623 0
M  V30 1642 N 282.198 -2.76189 3.71603 0
M  V30 1643 H 279.359 -4.797 7.24003 0
M  V30 1644 H 279.089 -3.69856 5.84513 0
M  V30 1645 H 279.956 -6.10356 5.41441 0
M  V30 1646 P 283.918 -7.20834 5.23717 0
M  V30 1647 O 284.138 -8.66104 5.38572 0
M  V30 1648 O 284.708 -6.33544 6.1349 0
M  V30 1649 O 284.168 -6.7751 3.72168 0
M  V30 1650 C 283.228 -7.20825 2.7076 0
M  V30 1651 C 283.958 -7.45864 1.40599 0
M  V30 1652 O 284.168 -6.17651 0.734225 0
M  V30 1653 C 285.358 -8.05808 1.51899 0
M  V30 1654 O 285.748 -8.74358 0.335205 0
M  V30 1655 C 286.238 -6.83093 1.70294 0
M  V30 1656 C 285.528 -5.79992 0.836974 0
M  V30 1657 N 285.578 -4.41864 1.38293 0
M  V30 1658 H 282.739 -8.13644 3.0377 0
M  V30 1659 H 282.469 -6.42788 2.55485 0
M  V30 1660 H 283.336 -8.12039 0.792769 0
M  V30 1661 P 287.298 -8.91 -1.02605e-12 0
M  V30 1662 O 287.518 -10.1726 -0.733694 0
M  V30 1663 O 288.088 -8.73148 1.23936 0
M  V30 1664 O 287.548 -7.66872 -0.971405 0
M  V30 1665 C 286.608 -7.42309 -2.04641 0
M  V30 1666 C 287.338 -6.86059 -3.24661 0
M  V30 1667 O 287.548 -5.42847 -3.03646 0
M  V30 1668 C 288.738 -7.41196 -3.50753 0
M  V30 1669 O 289.128 -7.27073 -4.86816 0
M  V30 1670 C 289.618 -6.5273 -2.63741 0
M  V30 1671 C 288.908 -5.1842 -2.73198 0
M  V30 1672 N 288.958 -4.38762 -1.4784 0
M  V30 1673 H 286.119 -8.36803 -2.32493 0
M  V30 1674 H 285.849 -6.70197 -1.71129 0
M  V30 1675 H 286.716 -7.03551 -4.13168 0
M  V30 1676 P 290.678 -7.20834 -5.23717 0
M  V30 1677 O 290.898 -7.80006 -6.57415 0
M  V30 1678 O 291.468 -7.79416 -4.13051 0
M  V30 1679 O 290.928 -5.63315 -5.29344 0
M  V30 1680 C 289.988 -4.80318 -6.01954 0
M  V30 1681 C 290.718 -3.64202 -6.65911 0
M  V30 1682 O 290.928 -2.60736 -5.64823 0
M  V30 1683 C 292.118 -3.93521 -7.19518 0
M  V30 1684 O 292.508 -3.02071 -8.21205 0
M  V30 1685 C 292.998 -3.73047 -5.97036 0
M  V30 1686 C 292.288 -2.58828 -5.25741 0
M  V30 1687 N 292.338 -2.68068 -3.77503 0
M  V30 1688 H 289.5 -5.40394 -6.8003 0
M  V30 1689 H 289.228 -4.41741 -5.32532 0
M  V30 1690 H 290.096 -3.26371 -7.47889 0
M  V30 1691 H 292.751 -1.64007 -5.56746 0
M  V30 1692 H 293.031 -4.63439 -5.3432 0
M  V30 1693 H 294.022 -3.44776 -6.25925 0
M  V30 1694 H 292.188 -4.96707 -7.57347 0
M  V30 1695 P 294.058 -2.75334 -8.47391 0
M  V30 1696 O 294.278 -2.44571 -9.90142 0
M  V30 1697 O 294.848 -3.87688 -7.92115 0
M  V30 1698 O 294.308 -1.4459 -7.59357 0
M  V30 1699 C 293.368 -0.347608 -7.69215 0
M  V30 1700 C 294.098 0.96767 -7.52806 0
M  V30 1701 O 294.308 1.21036 -6.1011 0
M  V30 1702 C 295.498 1.04544 -8.13308 0
M  V30 1703 O 295.888 2.38311 -8.41922 0
M  V30 1704 C 296.378 0.491279 -7.02284 0
M  V30 1705 C 295.668 0.996264 -5.77469 0
M  V30 1706 N 295.718 0.0501916 -4.62973 0
M  V30 1707 H 292.879 -0.374722 -8.67691 0
M  V30 1708 H 292.609 -0.443485 -6.90277 0
M  V30 1709 H 293.476 1.75537 -7.96793 0
M  V30 1710 P 297.438 2.75334 -8.47391 0
M  V30 1711 O 297.658 3.84128 -9.44797 0
M  V30 1712 O 298.228 1.51947 -8.68712 0
M  V30 1713 O 297.688 3.29363 -6.99321 0
M  V30 1714 C 296.748 4.24011 -6.4274 0
M  V30 1715 C 297.478 5.20775 -5.52155 0
M  V30 1716 O 297.688 4.56534 -4.22446 0
M  V30 1717 C 298.878 5.62629 -5.96531 0
M  V30 1718 O 299.268 6.87667 -5.41053 0
M  V30 1719 C 299.758 4.52537 -5.39283 0
M  V30 1720 C 299.048 4.20027 -4.08623 0
M  V30 1721 N 299.098 2.76189 -3.71603 0
M  V30 1722 H 296.259 4.797 -7.24003 0
M  V30 1723 H 295.989 3.69856 -5.84513 0
M  V30 1724 H 296.856 6.10356 -5.41441 0
M  V30 1725 P 300.818 7.20834 -5.23717 0
M  V30 1726 O 301.038 8.66274 -5.38678 0
M  V30 1727 O 301.608 6.33687 -6.13629 0
M  V30 1728 O 301.068 6.7751 -3.72168 0
M  V30 1729 C 300.128 7.20919 -2.70795 0
M  V30 1730 C 300.858 7.45864 -1.40599 0
M  V30 1731 O 301.068 6.17751 -0.734343 0
M  V30 1732 C 302.258 8.05906 -1.51917 0
M  V30 1733 O 302.648 8.74358 -0.335205 0
M  V30 1734 C 303.138 6.83093 -1.70294 0
M  V30 1735 C 302.428 5.79992 -0.836974 0
M  V30 1736 N 302.478 4.41864 -1.38293 0
M  V30 1737 H 299.64 8.13738 -3.03804 0
M  V30 1738 H 299.368 6.42974 -2.55559 0
M  V30 1739 H 300.236 8.12139 -0.792866 0
M  V30 1740 H 302.891 5.80178 0.160643 0
M  V30 1741 H 303.171 6.51379 -2.75643 0
M  V30 1742 H 304.162 7.01832 -1.3448 0
M  V30 1743 H 302.328 8.73771 -2.38364 0
M  V30 1744 P 304.198 8.91 1.18324e-12 0
M  V30 1745 O 304.418 10.1726 0.733694 0
M  V30 1746 O 304.988 8.73148 -1.23936 0
M  V30 1747 O 304.448 7.66872 0.971405 0
M  V30 1748 C 303.508 7.42309 2.04641 0
M  V30 1749 C 304.238 6.86059 3.24661 0
M  V30 1750 O 304.448 5.42847 3.03646 0
M  V30 1751 C 305.638 7.41196 3.50753 0
M  V30 1752 O 306.028 7.27073 4.86816 0
M  V30 1753 C 306.518 6.5273 2.63741 0
M  V30 1754 C 305.808 5.1842 2.73198 0
M  V30 1755 N 305.858 4.38762 1.4784 0
M  V30 1756 H 303.019 8.36803 2.32493 0
M  V30 1757 H 302.749 6.70197 1.71129 0
M  V30 1758 H 303.616 7.03551 4.13168 0
M  V30 1759 P 307.578 7.20834 5.23717 0
M  V30 1760 O 307.798 7.79853 6.57286 0
M  V30 1761 O 308.368 7.79239 4.12957 0
M  V30 1762 O 307.828 5.63315 5.29344 0
M  V30 1763 C 306.888 4.80255 6.01876 0
M  V30 1764 C 307.618 3.64202 6.65911 0
M  V30 1765 O 307.828 2.60694 5.64732 0
M  V30 1766 C 309.018 3.93473 7.1943 0
M  V30 1767 O 309.408 3.02071 8.21205 0
M  V30 1768 C 309.898 3.73047 5.97036 0
M  V30 1769 C 309.188 2.58828 5.25741 0
M  V30 1770 N 309.238 2.68068 3.77503 0
M  V30 1771 H 306.399 5.40332 6.79951 0
M  V30 1772 H 306.129 4.41613 5.32378 0
M  V30 1773 H 306.996 3.26331 7.47797 0
M  V30 1774 P 310.958 2.75334 8.47391 0
M  V30 1775 O 311.178 2.44571 9.90142 0
M  V30 1776 O 311.748 3.87688 7.92115 0
M  V30 1777 O 311.208 1.4459 7.59357 0
M  V30 1778 C 310.268 0.347608 7.69215 0
M  V30 1779 C 310.998 -0.96767 7.52806 0
M  V30 1780 O 311.208 -1.21036 6.1011 0
M  V30 1781 C 312.398 -1.04544 8.13308 0
M  V30 1782 O 312.788 -2.38311 8.41922 0
M  V30 1783 C 313.278 -0.491279 7.02284 0
M  V30 1784 C 312.568 -0.996264 5.77469 0
M  V30 1785 N 312.618 -0.0501916 4.62973 0
M  V30 1786 H 309.779 0.374722 8.67691 0
M  V30 1787 H 309.509 0.443485 6.90277 0
M  V30 1788 H 310.376 -1.75537 7.96793 0
M  V30 1789 P 314.338 -2.75334 8.47391 0
M  V30 1790 O 314.558 -3.84166 9.4489 0
M  V30 1791 O 315.128 -1.51964 8.6881 0
M  V30 1792 O 314.588 -3.29363 6.99321 0
M  V30 1793 C 313.648 -4.23956 6.42656 0
M  V30 1794 C 314.378 -5.20775 5.52155 0
M  V30 1795 O 314.588 -4.56534 4.22446 0
M  V30 1796 C 315.778 -5.62629 5.96531 0
M  V30 1797 O 316.168 -6.87667 5.41053 0
M  V30 1798 C 316.658 -4.52537 5.39283 0
M  V30 1799 C 315.948 -4.20027 4.08623 0
M  V30 1800 N 315.998 -2.7613 3.71522 0
M  V30 1801 C 316.148 -2.45612 2.37989 0
M  V30 1802 O 316.238 -3.30919 1.51621 0
M  V30 1803 N 316.188 -1.10684 2.08435 0
M  V30 1804 C 316.098 -0.0690084 2.9792 0
M  V30 1805 O 316.148 1.10553 2.59426 0
M  V30 1806 C 315.948 -0.481522 4.35345 0
M  V30 1807 C 315.838 0.618778 5.36443 0
M  V30 1808 C 315.898 -1.78906 4.67968 0
M  V30 1809 H 313.158 -4.797 7.24003 0
M  V30 1810 H 312.889 -3.69802 5.84429 0
M  V30 1811 H 313.756 -6.10356 5.41441 0
M  V30 1812 H 316.411 -4.78651 3.27911 0
M  V30 1813 H 316.69 -3.64957 6.05871 0
M  V30 1814 H 317.682 -4.8868 5.2125 0
M  V30 1815 H 315.848 -5.66726 7.06352 0
M  V30 1816 H 315.777 -2.07737 5.72367 0
M  V30 1817 H 316.807 0.754375 5.86871 0
M  V30 1818 H 315.07 0.359721 6.10641 0
M  V30 1819 H 315.558 1.55533 4.8581 0
M  V30 1820 H 316.294 -0.862651 1.12037 0
M  V30 1821 P 317.718 -7.20834 5.23717 0
M  V30 1822 O 317.938 -8.66104 5.38572 0
M  V30 1823 O 318.508 -6.33544 6.1349 0
M  V30 1824 O 317.968 -6.7751 3.72168 0
M  V30 1825 C 317.028 -7.20825 2.7076 0
M  V30 1826 C 317.758 -7.45864 1.40599 0
M  V30 1827 O 317.968 -6.17651 0.734225 0
M  V30 1828 C 319.158 -8.05808 1.51899 0
M  V30 1829 O 319.548 -8.74358 0.335205 0
M  V30 1830 C 320.038 -6.83093 1.70294 0
M  V30 1831 C 319.328 -5.79992 0.836974 0
M  V30 1832 N 319.378 -4.41864 1.38293 0
M  V30 1833 H 316.539 -8.13644 3.0377 0
M  V30 1834 H 316.269 -6.42788 2.55485 0
M  V30 1835 H 317.136 -8.12039 0.792769 0
M  V30 1836 P 321.098 -8.91 -1.34042e-12 0
M  V30 1837 O 321.318 -10.1726 -0.733694 0
M  V30 1838 O 321.888 -8.73148 1.23936 0
M  V30 1839 O 321.348 -7.66872 -0.971405 0
M  V30 1840 C 320.408 -7.42309 -2.04641 0
M  V30 1841 C 321.138 -6.86059 -3.24661 0
M  V30 1842 O 321.348 -5.42847 -3.03646 0
M  V30 1843 C 322.538 -7.41196 -3.50753 0
M  V30 1844 O 322.928 -7.27073 -4.86816 0
M  V30 1845 C 323.418 -6.5273 -2.63741 0
M  V30 1846 C 322.708 -5.1842 -2.73198 0
M  V30 1847 N 322.758 -4.38762 -1.4784 0
M  V30 1848 H 319.919 -8.36803 -2.32493 0
M  V30 1849 H 319.649 -6.70197 -1.71129 0
M  V30 1850 H 320.516 -7.03551 -4.13168 0
M  V30 1851 P 324.478 -7.20834 -5.23717 0
M  V30 1852 O 324.698 -7.79853 -6.57286 0
M  V30 1853 O 325.268 -7.79239 -4.12957 0
M  V30 1854 O 324.728 -5.63315 -5.29344 0
M  V30 1855 C 323.788 -4.80255 -6.01876 0
M  V30 1856 C 324.518 -3.64202 -6.65911 0
M  V30 1857 O 324.728 -2.60694 -5.64732 0
M  V30 1858 C 325.918 -3.93473 -7.1943 0
M  V30 1859 O 326.308 -3.02071 -8.21205 0
M  V30 1860 C 326.798 -3.73047 -5.97036 0
M  V30 1861 C 326.088 -2.58828 -5.25741 0
M  V30 1862 N 326.138 -2.68068 -3.77503 0
M  V30 1863 C 326.058 -3.79715 -2.96723 0
M  V30 1864 N 326.138 -3.5377 -1.68852 0
M  V30 1865 C 326.278 -2.15054 -1.63254 0
M  V30 1866 C 326.408 -1.28964 -0.518571 0
M  V30 1867 O 326.428 -1.56826 0.679156 0
M  V30 1868 N 326.528 0.0538097 -0.918425 0
M  V30 1869 C 326.528 0.494275 -2.22578 0
M  V30 1870 N 326.658 1.81086 -2.40434 0
M  V30 1871 N 326.398 -0.313645 -3.27502 0
M  V30 1872 C 326.278 -1.61829 -2.91033 0
M  V30 1873 H 323.299 -5.40332 -6.79951 0
M  V30 1874 H 323.029 -4.41613 -5.32378 0
M  V30 1875 H 323.896 -3.26331 -7.47797 0
M  V30 1876 H 326.551 -1.63422 -5.56814 0
M  V30 1877 H 326.83 -4.63374 -5.34244 0
M  V30 1878 H 327.822 -3.44728 -6.25838 0
M  V30 1879 H 325.988 -4.96652 -7.57263 0
M  V30 1880 H 325.939 -4.80617 -3.3614 0
M  V30 1881 H 326.621 0.742702 -0.199384 0
M  V30 1882 H 326.658 2.20598 -3.35588 0
M  V30 1883 H 326.759 2.43518 -1.58945 0
M  V30 1884 P 327.858 -2.75334 -8.47391 0
M  V30 1885 O 328.078 -2.44571 -9.90142 0
M  V30 1886 O 328.648 -3.87688 -7.92115 0
M  V30 1887 O 328.108 -1.4459 -7.59357 0
M  V30 1888 C 327.168 -0.347608 -7.69215 0
M  V30 1889 C 327.898 0.96767 -7.52806 0
M  V30 1890 O 328.108 1.21036 -6.1011 0
M  V30 1891 C 329.298 1.04544 -8.13308 0
M  V30 1892 O 329.688 2.38311 -8.41922 0
M  V30 1893 C 330.178 0.491279 -7.02284 0
M  V30 1894 C 329.468 0.996264 -5.77469 0
M  V30 1895 N 329.518 0.0501916 -4.62973 0
M  V30 1896 H 326.679 -0.374722 -8.67691 0
M  V30 1897 H 326.409 -0.443485 -6.90277 0
M  V30 1898 H 327.276 1.75537 -7.96793 0
M  V30 1899 P 331.238 2.75334 -8.47391 0
M  V30 1900 O 331.458 3.84128 -9.44797 0
M  V30 1901 O 332.028 1.51947 -8.68712 0
M  V30 1902 O 331.488 3.29363 -6.99321 0
M  V30 1903 C 330.548 4.24011 -6.4274 0
M  V30 1904 C 331.278 5.20775 -5.52155 0
M  V30 1905 O 331.488 4.56534 -4.22446 0
M  V30 1906 C 332.678 5.62629 -5.96531 0
M  V30 1907 O 333.068 6.87667 -5.41053 0
M  V30 1908 C 333.558 4.52537 -5.39283 0
M  V30 1909 C 332.848 4.20027 -4.08623 0
M  V30 1910 N 332.898 2.76189 -3.71603 0
M  V30 1911 H 330.059 4.797 -7.24003 0
M  V30 1912 H 329.789 3.69856 -5.84513 0
M  V30 1913 H 330.656 6.10356 -5.41441 0
M  V30 1914 P 334.618 7.20834 -5.23717 0
M  V30 1915 O 334.838 8.66104 -5.38572 0
M  V30 1916 O 335.408 6.33544 -6.1349 0
M  V30 1917 O 334.868 6.7751 -3.72168 0
M  V30 1918 C 333.928 7.20825 -2.7076 0
M  V30 1919 C 334.658 7.45864 -1.40599 0
M  V30 1920 O 334.868 6.17651 -0.734225 0
M  V30 1921 C 336.058 8.05808 -1.51899 0
M  V30 1922 O 336.448 8.74358 -0.335205 0
M  V30 1923 C 336.938 6.83093 -1.70294 0
M  V30 1924 C 336.228 5.79992 -0.836974 0
M  V30 1925 N 336.278 4.41864 -1.38293 0
M  V30 1926 H 333.439 8.13644 -3.0377 0
M  V30 1927 H 333.169 6.42788 -2.55485 0
M  V30 1928 H 334.036 8.12039 -0.792769 0
M  V30 1929 P 337.998 8.91 1.4976e-12 0
M  V30 1930 O 338.218 10.1746 0.733838 0
M  V30 1931 O 338.788 8.73346 -1.23964 0
M  V30 1932 O 338.248 7.66872 0.971405 0
M  V30 1933 C 337.308 7.42405 2.04668 0
M  V30 1934 C 338.038 6.86059 3.24661 0
M  V30 1935 O 338.248 5.42934 3.03695 0
M  V30 1936 C 339.438 7.41287 3.50796 0
M  V30 1937 O 339.828 7.27073 4.86816 0
M  V30 1938 C 340.318 6.5273 2.63741 0
M  V30 1939 C 339.608 5.1842 2.73198 0
M  V30 1940 N 339.658 4.38762 1.4784 0
M  V30 1941 H 336.82 8.36899 2.3252 0
M  V30 1942 H 336.548 6.70391 1.71179 0
M  V30 1943 H 337.416 7.03638 4.13219 0
M  V30 1944 H 340.071 4.59931 3.54016 0
M  V30 1945 H 340.351 6.88995 1.59871 0
M  V30 1946 H 341.342 6.4684 3.0373 0
M  V30 1947 H 339.508 8.47002 3.20749 0
M  V30 1948 P 341.378 7.20834 5.23717 0
M  V30 1949 O 341.598 7.7993 6.57351 0
M  V30 1950 O 342.168 7.79328 4.13004 0
M  V30 1951 O 341.628 5.63315 5.29344 0
M  V30 1952 C 340.688 4.80193 6.01798 0
M  V30 1953 C 341.418 3.64202 6.65911 0
M  V30 1954 O 341.628 2.60694 5.64732 0
M  V30 1955 C 342.818 3.93473 7.1943 0
M  V30 1956 O 343.208 3.02071 8.21205 0
M  V30 1957 C 343.698 3.73047 5.97036 0
M  V30 1958 C 342.988 2.58828 5.25741 0
M  V30 1959 N 343.038 2.6801 3.77422 0
M  V30 1960 C 343.188 1.50443 3.07133 0
M  V30 1961 O 343.278 0.419406 3.61576 0
M  V30 1962 N 343.228 1.6403 1.69677 0
M  V30 1963 C 343.138 2.81206 0.986255 0
M  V30 1964 O 343.188 2.80892 -0.249754 0
M  V30 1965 C 342.988 3.99158 1.80325 0
M  V30 1966 C 342.878 5.29309 1.06921 0
M  V30 1967 C 342.938 3.89779 3.1476 0
M  V30 1968 H 340.198 5.40332 6.79951 0
M  V30 1969 H 339.929 4.41549 5.32301 0
M  V30 1970 H 340.796 3.26331 7.47797 0
M  V30 1971 H 343.451 1.6395 5.56554 0
M  V30 1972 H 343.73 4.63439 5.3432 0
M  V30 1973 H 344.722 3.44728 6.25838 0
M  V30 1974 H 342.888 4.96652 7.57263 0
M  V30 1975 H 342.817 4.80159 3.74441 0
M  V30 1976 H 343.847 5.81459 1.09608 0
M  V30 1977 H 342.11 5.9187 1.54487 0
M  V30 1978 H 342.598 5.10095 0.0220288 0
M  V30 1979 H 343.334 0.798962 1.16664 0
M  V30 1980 P 344.758 2.75334 8.47391 0
M  V30 1981 O 344.978 2.44571 9.90142 0
M  V30 1982 O 345.548 3.87688 7.92115 0
M  V30 1983 O 345.008 1.4459 7.59357 0
M  V30 1984 C 344.068 0.347608 7.69215 0
M  V30 1985 C 344.798 -0.96767 7.52806 0
M  V30 1986 O 345.008 -1.21036 6.1011 0
M  V30 1987 C 346.198 -1.04544 8.13308 0
M  V30 1988 O 346.588 -2.38311 8.41922 0
M  V30 1989 C 347.078 -0.491279 7.02284 0
M  V30 1990 C 346.368 -0.996264 5.77469 0
M  V30 1991 N 346.418 -0.0501916 4.62973 0
M  V30 1992 C 346.338 1.32786 4.63244 0
M  V30 1993 N 346.418 1.86957 3.44545 0
M  V30 1994 C 346.558 0.780241 2.58481 0
M  V30 1995 C 346.688 0.738536 1.17757 0
M  V30 1996 O 346.708 1.66794 0.372349 0
M  V30 1997 N 346.808 -0.58337 0.711393 0
M  V30 1998 C 346.808 -1.70816 1.51017 0
M  V30 1999 N 346.938 -2.87826 0.880757 0
M  V30 2000 N 346.678 -1.67126 2.8339 0
M  V30 2001 C 346.558 -0.401421 3.30572 0
M  V30 2002 H 343.579 0.374722 8.67691 0
M  V30 2003 H 343.309 0.443485 6.90277 0
M  V30 2004 H 344.176 -1.75537 7.96793 0
M  V30 2005 H 346.831 -1.95076 5.46529 0
M  V30 2006 H 347.11 0.608565 7.04577 0
M  V30 2007 H 348.102 -0.889672 7.08939 0
M  V30 2008 H 346.268 -0.43308 9.04564 0
M  V30 2009 H 346.219 1.91249 5.54442 0
M  V30 2010 H 346.901 -0.718054 -0.275244 0
M  V30 2011 H 346.938 -3.75721 1.41832 0
M  V30 2012 H 347.039 -2.90436 -0.145468 0
M  V30 2013 P 348.138 -2.75334 8.47391 0
M  V30 2014 O 348.358 -3.84128 9.44797 0
M  V30 2015 O 348.928 -1.51947 8.68712 0
M  V30 2016 O 348.388 -3.29363 6.99321 0
M  V30 2017 C 347.448 -4.24011 6.4274 0
M  V30 2018 C 348.178 -5.20775 5.52155 0
M  V30 2019 O 348.388 -4.56534 4.22446 0
M  V30 2020 C 349.578 -5.62629 5.96531 0
M  V30 2021 O 349.968 -6.87667 5.41053 0
M  V30 2022 C 350.458 -4.52537 5.39283 0
M  V30 2023 C 349.748 -4.20027 4.08623 0
M  V30 2024 N 349.798 -2.76189 3.71603 0
M  V30 2025 H 346.959 -4.797 7.24003 0
M  V30 2026 H 346.689 -3.69856 5.84513 0
M  V30 2027 H 347.556 -6.10356 5.41441 0
M  V30 2028 P 351.518 -7.20834 5.23717 0
M  V30 2029 O 351.738 -8.66104 5.38572 0
M  V30 2030 O 352.308 -6.33544 6.1349 0
M  V30 2031 O 351.768 -6.7751 3.72168 0
M  V30 2032 C 350.828 -7.20825 2.7076 0
M  V30 2033 C 351.558 -7.45864 1.40599 0
M  V30 2034 O 351.768 -6.17651 0.734225 0
M  V30 2035 C 352.958 -8.05808 1.51899 0
M  V30 2036 O 353.348 -8.74358 0.335205 0
M  V30 2037 C 353.838 -6.83093 1.70294 0
M  V30 2038 C 353.128 -5.79992 0.836974 0
M  V30 2039 N 353.178 -4.41864 1.38293 0
M  V30 2040 H 350.339 -8.13644 3.0377 0
M  V30 2041 H 350.069 -6.42788 2.55485 0
M  V30 2042 H 350.936 -8.12039 0.792769 0
M  V30 2043 P 354.898 -8.91 -1.65478e-12 0
M  V30 2044 O 355.118 -10.1726 -0.733694 0
M  V30 2045 O 355.688 -8.73148 1.23936 0
M  V30 2046 O 355.148 -7.66872 -0.971405 0
M  V30 2047 C 354.208 -7.42309 -2.04641 0
M  V30 2048 C 354.938 -6.86059 -3.24661 0
M  V30 2049 O 355.148 -5.42847 -3.03646 0
M  V30 2050 C 356.338 -7.41196 -3.50753 0
M  V30 2051 O 356.728 -7.27073 -4.86816 0
M  V30 2052 C 357.218 -6.5273 -2.63741 0
M  V30 2053 C 356.508 -5.1842 -2.73198 0
M  V30 2054 N 356.558 -4.38762 -1.4784 0
M  V30 2055 H 353.719 -8.36803 -2.32493 0
M  V30 2056 H 353.449 -6.70197 -1.71129 0
M  V30 2057 H 354.316 -7.03551 -4.13168 0
M  V30 2058 P 358.278 -7.20834 -5.23717 0
M  V30 2059 O 358.498 -7.79853 -6.57286 0
M  V30 2060 O 359.068 -7.79239 -4.12957 0
M  V30 2061 O 358.528 -5.63315 -5.29344 0
M  V30 2062 C 357.588 -4.80255 -6.01876 0
M  V30 2063 C 358.318 -3.64202 -6.65911 0
M  V30 2064 O 358.528 -2.60694 -5.64732 0
M  V30 2065 C 359.718 -3.93473 -7.1943 0
M  V30 2066 O 360.108 -3.02071 -8.21205 0
M  V30 2067 C 360.598 -3.73047 -5.97036 0
M  V30 2068 C 359.888 -2.58828 -5.25741 0
M  V30 2069 N 359.938 -2.68068 -3.77503 0
M  V30 2070 H 357.099 -5.40332 -6.79951 0
M  V30 2071 H 356.829 -4.41613 -5.32378 0
M  V30 2072 H 357.696 -3.26331 -7.47797 0
M  V30 2073 P 361.658 -2.75334 -8.47391 0
M  V30 2074 O 361.878 -2.44571 -9.90142 0
M  V30 2075 O 362.448 -3.87688 -7.92115 0
M  V30 2076 O 361.908 -1.4459 -7.59357 0
M  V30 2077 C 360.968 -0.347608 -7.69215 0
M  V30 2078 C 361.698 0.96767 -7.52806 0
M  V30 2079 O 361.908 1.21036 -6.1011 0
M  V30 2080 C 363.098 1.04544 -8.13308 0
M  V30 2081 O 363.488 2.38311 -8.41922 0
M  V30 2082 C 363.978 0.491279 -7.02284 0
M  V30 2083 C 363.268 0.996264 -5.77469 0
M  V30 2084 N 363.318 0.0501916 -4.62973 0
M  V30 2085 H 360.479 -0.374722 -8.67691 0
M  V30 2086 H 360.209 -0.443485 -6.90277 0
M  V30 2087 H 361.076 1.75537 -7.96793 0
M  V30 2088 P 365.038 2.75334 -8.47391 0
M  V30 2089 O 365.258 3.84128 -9.44797 0
M  V30 2090 O 365.828 1.51947 -8.68712 0
M  V30 2091 O 365.288 3.29363 -6.99321 0
M  V30 2092 C 364.348 4.24011 -6.4274 0
M  V30 2093 C 365.078 5.20775 -5.52155 0
M  V30 2094 O 365.288 4.56534 -4.22446 0
M  V30 2095 C 366.478 5.62629 -5.96531 0
M  V30 2096 O 366.868 6.87667 -5.41053 0
M  V30 2097 C 367.358 4.52537 -5.39283 0
M  V30 2098 C 366.648 4.20027 -4.08623 0
M  V30 2099 N 366.698 2.76189 -3.71603 0
M  V30 2100 H 363.859 4.797 -7.24003 0
M  V30 2101 H 363.589 3.69856 -5.84513 0
M  V30 2102 H 364.456 6.10356 -5.41441 0
M  V30 2103 P 368.418 7.20834 -5.23717 0
M  V30 2104 O 368.638 8.66104 -5.38572 0
M  V30 2105 O 369.208 6.33544 -6.1349 0
M  V30 2106 O 368.668 6.7751 -3.72168 0
M  V30 2107 C 367.728 7.20825 -2.7076 0
M  V30 2108 C 368.458 7.45864 -1.40599 0
M  V30 2109 O 368.668 6.17651 -0.734225 0
M  V30 2110 C 369.858 8.05808 -1.51899 0
M  V30 2111 O 370.248 8.74358 -0.335205 0
M  V30 2112 C 370.738 6.83093 -1.70294 0
M  V30 2113 C 370.028 5.79992 -0.836974 0
M  V30 2114 N 370.078 4.41864 -1.38293 0
M  V30 2115 H 367.239 8.13644 -3.0377 0
M  V30 2116 H 366.969 6.42788 -2.55485 0
M  V30 2117 H 367.836 8.12039 -0.792769 0
M  V30 2118 P 371.798 8.91 1.81197e-12 0
M  V30 2119 O 372.018 10.1726 0.733694 0
M  V30 2120 O 372.588 8.73148 -1.23936 0
M  V30 2121 O 372.048 7.66872 0.971405 0
M  V30 2122 C 371.108 7.42309 2.04641 0
M  V30 2123 C 371.838 6.86059 3.24661 0
M  V30 2124 O 372.048 5.42847 3.03646 0
M  V30 2125 C 373.238 7.41196 3.50753 0
M  V30 2126 O 373.628 7.27073 4.86816 0
M  V30 2127 C 374.118 6.5273 2.63741 0
M  V30 2128 C 373.408 5.1842 2.73198 0
M  V30 2129 N 373.458 4.38762 1.4784 0
M  V30 2130 H 370.619 8.36803 2.32493 0
M  V30 2131 H 370.349 6.70197 1.71129 0
M  V30 2132 H 371.216 7.03551 4.13168 0
M  V30 2133 P 375.178 7.20834 5.23717 0
M  V30 2134 O 375.398 7.79853 6.57286 0
M  V30 2135 O 375.968 7.79239 4.12957 0
M  V30 2136 O 375.428 5.63315 5.29344 0
M  V30 2137 C 374.488 4.80255 6.01876 0
M  V30 2138 C 375.218 3.64202 6.65911 0
M  V30 2139 O 375.428 2.60694 5.64732 0
M  V30 2140 C 376.618 3.93473 7.1943 0
M  V30 2141 O 377.008 3.02071 8.21205 0
M  V30 2142 C 377.498 3.73047 5.97036 0
M  V30 2143 C 376.788 2.58828 5.25741 0
M  V30 2144 N 376.838 2.68068 3.77503 0
M  V30 2145 H 373.999 5.40332 6.79951 0
M  V30 2146 H 373.729 4.41613 5.32378 0
M  V30 2147 H 374.596 3.26331 7.47797 0
M  V30 2148 P 378.558 2.75334 8.47391 0
M  V30 2149 O 378.778 2.44619 9.90336 0
M  V30 2150 O 379.348 3.87776 7.92294 0
M  V30 2151 O 378.808 1.4459 7.59357 0
M  V30 2152 C 377.868 0.347653 7.69315 0
M  V30 2153 C 378.598 -0.96767 7.52806 0
M  V30 2154 O 378.808 -1.21055 6.10208 0
M  V30 2155 C 379.998 -1.04557 8.13408 0
M  V30 2156 O 380.388 -2.38311 8.41922 0
M  V30 2157 C 380.878 -0.491279 7.02284 0
M  V30 2158 C 380.168 -0.996264 5.77469 0
M  V30 2159 N 380.218 -0.0501916 4.62973 0
M  V30 2160 C 380.138 1.31969 4.65661 0
M  V30 2161 N 380.208 1.86649 3.48119 0
M  V30 2162 C 380.358 0.792089 2.62406 0
M  V30 2163 C 380.488 0.705684 1.2207 0
M  V30 2164 N 380.498 1.76207 0.413762 0
M  V30 2165 N 380.608 -0.518981 0.685754 0
M  V30 2166 C 380.598 -1.57595 1.49174 0
M  V30 2167 N 380.478 -1.62909 2.80066 0
M  V30 2168 C 380.358 -0.388195 3.3073 0
M  V30 2169 H 377.38 0.374765 8.67791 0
M  V30 2170 H 377.108 0.443613 6.90476 0
M  V30 2171 H 377.976 -1.75559 7.96891 0
M  V30 2172 H 380.631 -1.94563 5.46818 0
M  V30 2173 H 380.911 0.608651 7.04676 0
M  V30 2174 H 381.902 -0.889796 7.09039 0
M  V30 2175 H 380.068 -0.433128 9.04664 0
M  V30 2176 H 380.027 1.89246 5.57664 0
M  V30 2177 H 380.408 2.71005 0.804694 0
M  V30 2178 H 380.597 1.63189 -0.603768 0
M  V30 2179 H 380.705 -2.53475 0.997614 0
M  V30 2180 P 381.938 -2.75334 8.47391 0
M  V30 2181 O 382.158 -3.84128 9.44797 0
M  V30 2182 O 382.728 -1.51947 8.68712 0
M  V30 2183 O 382.188 -3.29363 6.99321 0
M  V30 2184 C 381.248 -4.24011 6.4274 0
M  V30 2185 C 381.978 -5.20775 5.52155 0
M  V30 2186 O 382.188 -4.56534 4.22446 0
M  V30 2187 C 383.378 -5.62629 5.96531 0
M  V30 2188 O 383.768 -6.87667 5.41053 0
M  V30 2189 C 384.258 -4.52537 5.39283 0
M  V30 2190 C 383.548 -4.20027 4.08623 0
M  V30 2191 N 383.598 -2.76189 3.71603 0
M  V30 2192 H 380.759 -4.797 7.24003 0
M  V30 2193 H 380.489 -3.69856 5.84513 0
M  V30 2194 H 381.356 -6.10356 5.41441 0
M  V30 2195 P 385.318 -7.20834 5.23717 0
M  V30 2196 O 385.538 -8.66189 5.38625 0
M  V30 2197 O 386.108 -6.33615 6.1356 0
M  V30 2198 O 385.568 -6.7751 3.72168 0
M  V30 2199 C 384.628 -7.20732 2.70725 0
M  V30 2200 C 385.358 -7.45864 1.40599 0
M  V30 2201 O 385.568 -6.17651 0.734225 0
M  V30 2202 C 386.758 -8.05808 1.51899 0
M  V30 2203 O 387.148 -8.74358 0.335205 0
M  V30 2204 C 387.638 -6.83093 1.70294 0
M  V30 2205 C 386.928 -5.79992 0.836974 0
M  V30 2206 N 386.978 -4.41769 1.38263 0
M  V30 2207 C 387.128 -3.38591 0.481702 0
M  V30 2208 O 387.218 -3.56839 -0.718452 0
M  V30 2209 N 387.168 -2.1206 1.03569 0
M  V30 2210 C 387.078 -1.80696 2.36966 0
M  V30 2211 O 387.128 -0.630473 2.74862 0
M  V30 2212 C 386.928 -2.94845 3.23898 0
M  V30 2213 C 386.818 -2.65253 4.70362 0
M  V30 2214 C 386.878 -4.19803 2.73435 0
M  V30 2215 H 384.138 -8.13644 3.0377 0
M  V30 2216 H 383.869 -6.42695 2.55448 0
M  V30 2217 H 384.736 -8.12039 0.792769 0
M  V30 2218 H 387.391 -5.79978 -0.160587 0
M  V30 2219 H 387.67 -6.51379 2.75643 0
M  V30 2220 H 388.662 -7.01734 1.34462 0
M  V30 2221 H 386.828 -8.73674 2.38337 0
M  V30 2222 H 386.757 -5.04492 3.4095 0
M  V30 2223 H 387.787 -2.83924 5.1913 0
M  V30 2224 H 386.05 -3.29824 5.15163 0
M  V30 2225 H 386.538 -1.59723 4.84449 0
M  V30 2226 H 387.274 -1.35644 0.399345 0
M  V30 2227 P 388.698 -8.91 -1.96915e-12 0
M  V30 2228 O 388.918 -10.1726 -0.733694 0
M  V30 2229 O 389.488 -8.73148 1.23936 0
M  V30 2230 O 388.948 -7.66872 -0.971405 0
M  V30 2231 C 388.008 -7.42309 -2.04641 0
M  V30 2232 C 388.738 -6.86059 -3.24661 0
M  V30 2233 O 388.948 -5.42847 -3.03646 0
M  V30 2234 C 390.138 -7.41196 -3.50753 0
M  V30 2235 O 390.528 -7.27073 -4.86816 0
M  V30 2236 C 391.018 -6.5273 -2.63741 0
M  V30 2237 C 390.308 -5.1842 -2.73198 0
M  V30 2238 N 390.358 -4.38762 -1.4784 0
M  V30 2239 H 387.519 -8.36803 -2.32493 0
M  V30 2240 H 387.249 -6.70197 -1.71129 0
M  V30 2241 H 388.116 -7.03551 -4.13168 0
M  V30 2242 P 392.078 -7.20834 -5.23717 0
M  V30 2243 O 392.298 -7.80006 -6.57415 0
M  V30 2244 O 392.868 -7.79416 -4.13051 0
M  V30 2245 O 392.328 -5.63315 -5.29344 0
M  V30 2246 C 391.388 -4.80318 -6.01954 0
M  V30 2247 C 392.118 -3.64202 -6.65911 0
M  V30 2248 O 392.328 -2.60736 -5.64823 0
M  V30 2249 C 393.518 -3.93521 -7.19518 0
M  V30 2250 O 393.908 -3.02071 -8.21205 0
M  V30 2251 C 394.398 -3.73047 -5.97036 0
M  V30 2252 C 393.688 -2.58828 -5.25741 0
M  V30 2253 N 393.738 -2.68068 -3.77503 0
M  V30 2254 H 390.9 -5.40394 -6.8003 0
M  V30 2255 H 390.628 -4.41741 -5.32532 0
M  V30 2256 H 391.496 -3.26371 -7.47889 0
M  V30 2257 H 394.151 -1.64007 -5.56746 0
M  V30 2258 H 394.431 -4.63439 -5.3432 0
M  V30 2259 H 395.422 -3.44776 -6.25925 0
M  V30 2260 H 393.588 -4.96707 -7.57347 0
M  V30 2261 P 395.458 -2.75334 -8.47391 0
M  V30 2262 O 395.678 -2.44595 -9.90239 0
M  V30 2263 O 396.248 -3.87732 -7.92204 0
M  V30 2264 O 395.708 -1.4459 -7.59357 0
M  V30 2265 C 394.768 -0.347563 -7.69115 0
M  V30 2266 C 395.498 0.96767 -7.52806 0
M  V30 2267 O 395.708 1.21036 -6.1011 0
M  V30 2268 C 396.898 1.04544 -8.13308 0
M  V30 2269 O 397.288 2.38311 -8.41922 0
M  V30 2270 C 397.778 0.491279 -7.02284 0
M  V30 2271 C 397.068 0.996264 -5.77469 0
M  V30 2272 N 397.118 0.0501808 -4.62873 0
M  V30 2273 C 397.268 0.588177 -3.36904 0
M  V30 2274 O 397.358 1.78598 -3.17173 0
M  V30 2275 N 397.308 -0.329694 -2.33686 0
M  V30 2276 C 397.218 -1.6953 -2.45079 0
M  V30 2277 C 397.068 -2.16933 -3.80505 0
M  V30 2278 C 397.018 -1.30326 -4.83752 0
M  V30 2279 H 394.278 -0.374722 -8.67691 0
M  V30 2280 H 394.009 -0.443421 -6.90177 0
M  V30 2281 H 394.876 1.75537 -7.96793 0
M  V30 2282 H 397.531 1.94496 -5.46629 0
M  V30 2283 H 397.81 -0.608651 -7.04676 0
M  V30 2284 H 398.802 0.889672 -7.08939 0
M  V30 2285 H 396.968 0.43308 -9.04564 0
M  V30 2286 H 396.897 -1.68366 -5.8516 0
M  V30 2287 P 398.838 2.75334 -8.47391 0
M  V30 2288 O 399.058 3.84128 -9.44797 0
M  V30 2289 O 399.628 1.51947 -8.68712 0
M  V30 2290 O 399.088 3.29363 -6.99321 0
M  V30 2291 C 398.148 4.24011 -6.4274 0
M  V30 2292 C 398.878 5.20775 -5.52155 0
M  V30 2293 O 399.088 4.56534 -4.22446 0
M  V30 2294 C 400.278 5.62629 -5.96531 0
M  V30 2295 O 400.668 6.87667 -5.41053 0
M  V30 2296 C 401.158 4.52537 -5.39283 0
M  V30 2297 C 400.448 4.20027 -4.08623 0
M  V30 2298 N 400.498 2.76189 -3.71603 0
M  V30 2299 H 397.659 4.797 -7.24003 0
M  V30 2300 H 397.389 3.69856 -5.84513 0
M  V30 2301 H 398.256 6.10356 -5.41441 0
M  V30 2302 P 402.218 7.20834 -5.23717 0
M  V30 2303 O 402.438 8.66104 -5.38572 0
M  V30 2304 O 403.008 6.33544 -6.1349 0
M  V30 2305 O 402.468 6.7751 -3.72168 0
M  V30 2306 C 401.528 7.20825 -2.7076 0
M  V30 2307 C 402.258 7.45864 -1.40599 0
M  V30 2308 O 402.468 6.17651 -0.734225 0
M  V30 2309 C 403.658 8.05808 -1.51899 0
M  V30 2310 O 404.048 8.74358 -0.335205 0
M  V30 2311 C 404.538 6.83093 -1.70294 0
M  V30 2312 C 403.828 5.79992 -0.836974 0
M  V30 2313 N 403.878 4.41864 -1.38293 0
M  V30 2314 H 401.039 8.13644 -3.0377 0
M  V30 2315 H 400.769 6.42788 -2.55485 0
M  V30 2316 H 401.636 8.12039 -0.792769 0
M  V30 2317 P 405.598 8.91 2.12633e-12 0
M  V30 2318 O 405.818 10.1726 0.733694 0
M  V30 2319 O 406.388 8.73148 -1.23936 0
M  V30 2320 O 405.848 7.66872 0.971405 0
M  V30 2321 C 404.908 7.42309 2.04641 0
M  V30 2322 C 405.638 6.86059 3.24661 0
M  V30 2323 O 405.848 5.42847 3.03646 0
M  V30 2324 C 407.038 7.41196 3.50753 0
M  V30 2325 O 407.428 7.27073 4.86816 0
M  V30 2326 C 407.918 6.5273 2.63741 0
M  V30 2327 C 407.208 5.1842 2.73198 0
M  V30 2328 N 407.258 4.38762 1.4784 0
M  V30 2329 H 404.419 8.36803 2.32493 0
M  V30 2330 H 404.149 6.70197 1.71129 0
M  V30 2331 H 405.016 7.03551 4.13168 0
M  V30 2332 P 408.978 7.20834 5.23717 0
M  V30 2333 O 409.198 7.79853 6.57286 0
M  V30 2334 O 409.768 7.79239 4.12957 0
M  V30 2335 O 409.228 5.63315 5.29344 0
M  V30 2336 C 408.288 4.80255 6.01876 0
M  V30 2337 C 409.018 3.64202 6.65911 0
M  V30 2338 O 409.228 2.60694 5.64732 0
M  V30 2339 C 410.418 3.93473 7.1943 0
M  V30 2340 O 410.808 3.02071 8.21205 0
M  V30 2341 C 411.298 3.73047 5.97036 0
M  V30 2342 C 410.588 2.58828 5.25741 0
M  V30 2343 N 410.638 2.68068 3.77503 0
M  V30 2344 H 407.799 5.40332 6.79951 0
M  V30 2345 H 407.529 4.41613 5.32378 0
M  V30 2346 H 408.396 3.26331 7.47797 0
M  V30 2347 P 412.358 2.75334 8.47391 0
M  V30 2348 O 412.578 2.44571 9.90142 0
M  V30 2349 O 413.148 3.87688 7.92115 0
M  V30 2350 O 412.608 1.4459 7.59357 0
M  V30 2351 C 411.668 0.347608 7.69215 0
M  V30 2352 C 412.398 -0.96767 7.52806 0
M  V30 2353 O 412.608 -1.21036 6.1011 0
M  V30 2354 C 413.798 -1.04544 8.13308 0
M  V30 2355 O 414.188 -2.38311 8.41922 0
M  V30 2356 C 414.678 -0.491279 7.02284 0
M  V30 2357 C 413.968 -0.996264 5.77469 0
M  V30 2358 N 414.018 -0.0501916 4.62973 0
M  V30 2359 H 411.179 0.374722 8.67691 0
M  V30 2360 H 410.909 0.443485 6.90277 0
M  V30 2361 H 411.776 -1.75537 7.96793 0
M  V30 2362 P 415.738 -2.75334 8.47391 0
M  V30 2363 O 415.958 -3.84166 9.4489 0
M  V30 2364 O 416.528 -1.51964 8.6881 0
M  V30 2365 O 415.988 -3.29363 6.99321 0
M  V30 2366 C 415.048 -4.23956 6.42656 0
M  V30 2367 C 415.778 -5.20775 5.52155 0
M  V30 2368 O 415.988 -4.56534 4.22446 0
M  V30 2369 C 417.178 -5.62629 5.96531 0
M  V30 2370 O 417.568 -6.87667 5.41053 0
M  V30 2371 C 418.058 -4.52537 5.39283 0
M  V30 2372 C 417.348 -4.20027 4.08623 0
M  V30 2373 N 417.398 -2.7613 3.71522 0
M  V30 2374 C 417.548 -2.45612 2.37989 0
M  V30 2375 O 417.638 -3.30919 1.51621 0
M  V30 2376 N 417.588 -1.10684 2.08435 0
M  V30 2377 C 417.498 -0.0690084 2.9792 0
M  V30 2378 C 417.348 -0.481522 4.35345 0
M  V30 2379 C 417.298 -1.78906 4.67968 0
M  V30 2380 H 414.558 -4.797 7.24003 0
M  V30 2381 H 414.289 -3.69802 5.84429 0
M  V30 2382 H 415.156 -6.10356 5.41441 0
M  V30 2383 H 417.811 -4.78651 3.27911 0
M  V30 2384 H 418.09 -3.64957 6.05871 0
M  V30 2385 H 419.082 -4.8868 5.2125 0
M  V30 2386 H 417.248 -5.66726 7.06352 0
M  V30 2387 H 417.177 -2.07737 5.72367 0
M  V30 2388 P 419.118 -7.20834 5.23717 0
M  V30 2389 O 419.338 -8.66104 5.38572 0
M  V30 2390 O 419.908 -6.33544 6.1349 0
M  V30 2391 O 419.368 -6.7751 3.72168 0
M  V30 2392 C 418.428 -7.20825 2.7076 0
M  V30 2393 C 419.158 -7.45864 1.40599 0
M  V30 2394 O 419.368 -6.17651 0.734225 0
M  V30 2395 C 420.558 -8.05808 1.51899 0
M  V30 2396 O 420.948 -8.74358 0.335205 0
M  V30 2397 C 421.438 -6.83093 1.70294 0
M  V30 2398 C 420.728 -5.79992 0.836974 0
M  V30 2399 N 420.778 -4.41864 1.38293 0
M  V30 2400 H 417.939 -8.13644 3.0377 0
M  V30 2401 H 417.669 -6.42788 2.55485 0
M  V30 2402 H 418.536 -8.12039 0.792769 0
M  V30 2403 P 422.497 -8.91 -2.28351e-12 0
M  V30 2404 O 422.717 -10.1726 -0.733694 0
M  V30 2405 O 423.287 -8.73148 1.23936 0
M  V30 2406 O 422.747 -7.66872 -0.971405 0
M  V30 2407 C 421.807 -7.42309 -2.04641 0
M  V30 2408 C 422.537 -6.86059 -3.24661 0
M  V30 2409 O 422.747 -5.42847 -3.03646 0
M  V30 2410 C 423.937 -7.41196 -3.50753 0
M  V30 2411 O 424.327 -7.27073 -4.86816 0
M  V30 2412 C 424.817 -6.5273 -2.63741 0
M  V30 2413 C 424.107 -5.1842 -2.73198 0
M  V30 2414 N 424.157 -4.38762 -1.4784 0
M  V30 2415 H 421.318 -8.36803 -2.32493 0
M  V30 2416 H 421.048 -6.70197 -1.71129 0
M  V30 2417 H 421.915 -7.03551 -4.13168 0
M  V30 2418 P 425.877 -7.20834 -5.23717 0
M  V30 2419 O 426.097 -7.79853 -6.57286 0
M  V30 2420 O 426.667 -7.79239 -4.12957 0
M  V30 2421 O 426.127 -5.63315 -5.29344 0
M  V30 2422 C 425.187 -4.80255 -6.01876 0
M  V30 2423 C 425.917 -3.64202 -6.65911 0
M  V30 2424 O 426.127 -2.60694 -5.64732 0
M  V30 2425 C 427.317 -3.93473 -7.1943 0
M  V30 2426 O 427.707 -3.02071 -8.21205 0
M  V30 2427 C 428.197 -3.73047 -5.97036 0
M  V30 2428 C 427.487 -2.58828 -5.25741 0
M  V30 2429 N 427.537 -2.68068 -3.77503 0
M  V30 2430 H 424.698 -5.40332 -6.79951 0
M  V30 2431 H 424.428 -4.41613 -5.32378 0
M  V30 2432 H 425.295 -3.26331 -7.47797 0
M  V30 2433 P 429.257 -2.75334 -8.47391 0
M  V30 2434 O 429.477 -2.44595 -9.90239 0
M  V30 2435 O 430.047 -3.87732 -7.92204 0
M  V30 2436 O 429.507 -1.4459 -7.59357 0
M  V30 2437 C 428.567 -0.347563 -7.69115 0
M  V30 2438 C 429.297 0.96767 -7.52806 0
M  V30 2439 O 429.507 1.21036 -6.1011 0
M  V30 2440 C 430.697 1.04544 -8.13308 0
M  V30 2441 O 431.087 2.38311 -8.41922 0
M  V30 2442 C 431.577 0.491279 -7.02284 0
M  V30 2443 C 430.867 0.996264 -5.77469 0
M  V30 2444 N 430.917 0.0501808 -4.62873 0
M  V30 2445 C 431.067 0.588177 -3.36904 0
M  V30 2446 O 431.157 1.78598 -3.17173 0
M  V30 2447 N 431.107 -0.329694 -2.33686 0
M  V30 2448 C 431.017 -1.6953 -2.45079 0
M  V30 2449 O 431.067 -2.41926 -1.44899 0
M  V30 2450 C 430.867 -2.16933 -3.80505 0
M  V30 2451 C 430.757 -3.65373 -3.97621 0
M  V30 2452 C 430.817 -1.30326 -4.83752 0
M  V30 2453 H 428.077 -0.374722 -8.67691 0
M  V30 2454 H 427.808 -0.443421 -6.90177 0
M  V30 2455 H 428.675 1.75537 -7.96793 0
M  V30 2456 H 431.33 1.94496 -5.46629 0
M  V30 2457 H 431.609 -0.608651 -7.04676 0
M  V30 2458 H 432.601 0.889672 -7.08939 0
M  V30 2459 H 430.767 0.43308 -9.04564 0
M  V30 2460 H 430.696 -1.68366 -5.8516 0
M  V30 2461 H 431.726 -4.05985 -4.30448 0
M  V30 2462 H 429.989 -3.88028 -4.72875 0
M  V30 2463 H 430.477 -4.11381 -3.01609 0
M  V30 2464 H 431.213 0.0393617 -1.41345 0
M  V30 2465 P 432.637 2.75334 -8.47391 0
M  V30 2466 O 432.857 3.84128 -9.44797 0
M  V30 2467 O 433.427 1.51947 -8.68712 0
M  V30 2468 O 432.887 3.29363 -6.99321 0
M  V30 2469 C 431.947 4.24011 -6.4274 0
M  V30 2470 C 432.677 5.20775 -5.52155 0
M  V30 2471 O 432.887 4.56534 -4.22446 0
M  V30 2472 C 434.077 5.62629 -5.96531 0
M  V30 2473 O 434.467 6.87667 -5.41053 0
M  V30 2474 C 434.957 4.52537 -5.39283 0
M  V30 2475 C 434.247 4.20027 -4.08623 0
M  V30 2476 N 434.297 2.76189 -3.71603 0
M  V30 2477 C 434.217 1.64862 -4.52822 0
M  V30 2478 N 434.297 0.512671 -3.88633 0
M  V30 2479 C 434.437 0.888083 -2.54977 0
M  V30 2480 C 434.567 0.094668 -1.38677 0
M  V30 2481 N 434.687 0.890102 -0.232633 0
M  V30 2482 C 434.687 2.26958 -0.21772 0
M  V30 2483 N 434.817 2.84626 0.97925 0
M  V30 2484 N 434.557 3.0178 -1.31033 0
M  V30 2485 C 434.437 2.26781 -2.43843 0
M  V30 2486 H 431.458 4.797 -7.24003 0
M  V30 2487 H 431.188 3.69856 -5.84513 0
M  V30 2488 H 432.055 6.10356 -5.41441 0
M  V30 2489 P 436.017 7.20834 -5.23717 0
M  V30 2490 O 436.237 8.66104 -5.38572 0
M  V30 2491 O 436.807 6.33544 -6.1349 0
M  V30 2492 O 436.267 6.7751 -3.72168 0
M  V30 2493 C 435.327 7.20825 -2.7076 0
M  V30 2494 C 436.057 7.45864 -1.40599 0
M  V30 2495 O 436.267 6.17651 -0.734225 0
M  V30 2496 C 437.457 8.05808 -1.51899 0
M  V30 2497 O 437.847 8.74358 -0.335205 0
M  V30 2498 C 438.337 6.83093 -1.70294 0
M  V30 2499 C 437.627 5.79992 -0.836974 0
M  V30 2500 N 437.677 4.41864 -1.38293 0
M  V30 2501 H 434.838 8.13644 -3.0377 0
M  V30 2502 H 434.568 6.42788 -2.55485 0
M  V30 2503 H 435.435 8.12039 -0.792769 0
M  V30 2504 P 439.397 8.91 2.44069e-12 0
M  V30 2505 O 439.617 10.1736 0.733766 0
M  V30 2506 O 440.187 8.73247 -1.2395 0
M  V30 2507 O 439.647 7.66872 0.971405 0
M  V30 2508 C 438.707 7.42309 2.04641 0
M  V30 2509 C 439.437 6.86059 3.24661 0
M  V30 2510 O 439.647 5.42847 3.03646 0
M  V30 2511 C 440.837 7.41196 3.50753 0
M  V30 2512 O 441.227 7.27073 4.86816 0
M  V30 2513 C 441.717 6.5273 2.63741 0
M  V30 2514 C 441.007 5.1842 2.73198 0
M  V30 2515 N 441.057 4.38668 1.47808 0
M  V30 2516 C 441.207 3.00789 1.58511 0
M  V30 2517 O 441.297 2.50116 2.71298 0
M  V30 2518 N 441.257 2.29703 0.253698 0
M  V30 2519 C 441.157 2.84269 -0.750133 0
M  V30 2520 N 441.207 2.06951 -1.82612 0
M  V30 2521 C 441.007 4.25803 -0.889776 0
M  V30 2522 C 440.957 4.98326 0.259363 0
M  V30 2523 H 438.217 8.36707 2.32466 0
M  V30 2524 H 437.948 6.701 1.71105 0
M  V30 2525 H 438.815 7.03638 4.13219 0
M  V30 2526 H 441.47 4.59852 3.53955 0
M  V30 2527 H 441.749 6.88995 1.59871 0
M  V30 2528 H 442.741 6.46749 3.03687 0
M  V30 2529 H 440.907 8.46908 3.20714 0
M  V30 2530 H 440.835 6.06349 0.206238 0
M  V30 2531 H 440.937 4.73163 -1.86796 0
M  V30 2532 H 441.325 1.05099 -1.72271 0
M  V30 2533 H 441.128 2.48716 -2.76361 0
M  V30 2534 P 442.777 7.20834 5.23717 0
M  V30 2535 O 442.997 7.79853 6.57286 0
M  V30 2536 O 443.567 7.79239 4.12957 0
M  V30 2537 O 443.027 5.63315 5.29344 0
M  V30 2538 C 442.087 4.80255 6.01876 0
M  V30 2539 C 442.817 3.64202 6.65911 0
M  V30 2540 O 443.027 2.60694 5.64732 0
M  V30 2541 C 444.217 3.93473 7.1943 0
M  V30 2542 O 444.607 3.02071 8.21205 0
M  V30 2543 C 445.097 3.73047 5.97036 0
M  V30 2544 C 444.387 2.58828 5.25741 0
M  V30 2545 N 444.437 2.68068 3.77503 0
M  V30 2546 H 441.598 5.40332 6.79951 0
M  V30 2547 H 441.328 4.41613 5.32378 0
M  V30 2548 H 442.195 3.26331 7.47797 0
M  V30 2549 P 446.157 2.75334 8.47391 0
M  V30 2550 O 446.377 2.44571 9.90142 0
M  V30 2551 O 446.947 3.87688 7.92115 0
M  V30 2552 O 446.407 1.4459 7.59357 0
M  V30 2553 C 445.467 0.347608 7.69215 0
M  V30 2554 C 446.197 -0.96767 7.52806 0
M  V30 2555 O 446.407 -1.21036 6.1011 0
M  V30 2556 C 447.597 -1.04544 8.13308 0
M  V30 2557 O 447.987 -2.38311 8.41922 0
M  V30 2558 C 448.477 -0.491279 7.02284 0
M  V30 2559 C 447.767 -0.996264 5.77469 0
M  V30 2560 N 447.817 -0.0501916 4.62973 0
M  V30 2561 H 444.978 0.374722 8.67691 0
M  V30 2562 H 444.708 0.443485 6.90277 0
M  V30 2563 H 445.575 -1.75537 7.96793 0
M  V30 2564 P 449.537 -2.75334 8.47391 0
M  V30 2565 O 449.757 -3.84128 9.44797 0
M  V30 2566 O 450.327 -1.51947 8.68712 0
M  V30 2567 O 449.787 -3.29363 6.99321 0
M  V30 2568 C 448.847 -4.24011 6.4274 0
M  V30 2569 C 449.577 -5.20775 5.52155 0
M  V30 2570 O 449.787 -4.56534 4.22446 0
M  V30 2571 C 450.977 -5.62629 5.96531 0
M  V30 2572 O 451.367 -6.87667 5.41053 0
M  V30 2573 C 451.857 -4.52537 5.39283 0
M  V30 2574 C 451.147 -4.20027 4.08623 0
M  V30 2575 N 451.197 -2.76189 3.71603 0
M  V30 2576 H 448.358 -4.797 7.24003 0
M  V30 2577 H 448.088 -3.69856 5.84513 0
M  V30 2578 H 448.955 -6.10356 5.41441 0
M  V30 2579 P 452.917 -7.20834 5.23717 0
M  V30 2580 O 453.137 -8.66189 5.38625 0
M  V30 2581 O 453.707 -6.33615 6.1356 0
M  V30 2582 O 453.167 -6.7751 3.72168 0
M  V30 2583 C 452.227 -7.20825 2.7076 0
M  V30 2584 C 452.957 -7.45864 1.40599 0
M  V30 2585 O 453.167 -6.17651 0.734225 0
M  V30 2586 C 454.357 -8.05808 1.51899 0
M  V30 2587 O 454.747 -8.74358 0.335205 0
M  V30 2588 C 455.237 -6.83093 1.70294 0
M  V30 2589 C 454.527 -5.79992 0.836974 0
M  V30 2590 N 454.577 -4.41769 1.38263 0
M  V30 2591 C 454.727 -3.36514 0.485617 0
M  V30 2592 O 454.817 -3.61814 -0.724703 0
M  V30 2593 N 454.777 -2.00746 1.14492 0
M  V30 2594 C 454.677 -1.85887 2.27776 0
M  V30 2595 N 454.727 -0.600907 2.69379 0
M  V30 2596 C 454.527 -2.92182 3.22265 0
M  V30 2597 C 454.477 -4.18399 2.71925 0
M  V30 2598 H 451.737 -8.1355 3.03735 0
M  V30 2599 H 451.468 -6.42695 2.55448 0
M  V30 2600 H 452.335 -8.12139 0.792866 0
M  V30 2601 H 454.99 -5.80078 -0.160615 0
M  V30 2602 H 455.269 -6.51379 2.75643 0
M  V30 2603 H 456.261 -7.01734 1.34462 0
M  V30 2604 H 454.427 -8.73674 2.38337 0
M  V30 2605 H 454.355 -5.02669 3.39718 0
M  V30 2606 H 454.457 -2.73001 4.29239 0
M  V30 2607 H 454.845 0.162318 2.01146 0
M  V30 2608 H 454.648 -0.387742 3.69773 0
M  V30 2609 P 456.297 -8.91 -2.59788e-12 0
M  V30 2610 O 456.517 -10.1726 -0.733694 0
M  V30 2611 O 457.087 -8.73148 1.23936 0
M  V30 2612 O 456.547 -7.66872 -0.971405 0
M  V30 2613 C 455.607 -7.42309 -2.04641 0
M  V30 2614 C 456.337 -6.86059 -3.24661 0
M  V30 2615 O 456.547 -5.42847 -3.03646 0
M  V30 2616 C 457.737 -7.41196 -3.50753 0
M  V30 2617 O 458.127 -7.27073 -4.86816 0
M  V30 2618 C 458.617 -6.5273 -2.63741 0
M  V30 2619 C 457.907 -5.1842 -2.73198 0
M  V30 2620 N 457.957 -4.38762 -1.4784 0
M  V30 2621 C 457.877 -4.81605 -0.168631 0
M  V30 2622 N 457.957 -3.85454 0.713363 0
M  V30 2623 C 458.097 -2.6994 -0.0566958 0
M  V30 2624 C 458.227 -1.34815 0.338502 0
M  V30 2625 O 458.247 -0.869548 1.47125 0
M  V30 2626 N 458.347 -0.496304 -0.77465 0
M  V30 2627 C 458.347 -0.908403 -2.09122 0
M  V30 2628 N 458.477 0.0517805 -3.00955 0
M  V30 2629 N 458.217 -2.17875 -2.46519 0
M  V30 2630 C 458.097 -3.01988 -1.4033 0
M  V30 2631 H 455.118 -8.36803 -2.32493 0
M  V30 2632 H 454.848 -6.70197 -1.71129 0
M  V30 2633 H 455.715 -7.03551 -4.13168 0
M  V30 2634 H 458.37 -4.59498 -3.54415 0
M  V30 2635 H 458.649 -6.88898 -1.59848 0
M  V30 2636 H 459.641 -6.46749 -3.03687 0
M  V30 2637 H 457.807 -8.46908 -3.20714 0
M  V30 2638 H 457.758 -5.86405 0.105564 0
M  V30 2639 H 458.44 0.483664 -0.597855 0
M  V30 2640 H 458.477 -0.187865 -4.0116 0
M  V30 2641 H 458.578 1.03585 -2.71726 0
M  V30 2642 P 459.677 -7.20834 -5.23717 0
M  V30 2643 O 459.897 -7.80006 -6.57415 0
M  V30 2644 O 460.467 -7.79416 -4.13051 0
M  V30 2645 O 459.927 -5.63315 -5.29344 0
M  V30 2646 C 458.987 -4.80318 -6.01954 0
M  V30 2647 C 459.717 -3.64202 -6.65911 0
M  V30 2648 O 459.927 -2.60736 -5.64823 0
M  V30 2649 C 461.117 -3.93521 -7.19518 0
M  V30 2650 O 461.507 -3.02071 -8.21205 0
M  V30 2651 C 461.997 -3.73047 -5.97036 0
M  V30 2652 C 461.287 -2.58828 -5.25741 0
M  V30 2653 N 461.337 -2.68068 -3.77503 0
M  V30 2654 H 458.499 -5.40394 -6.8003 0
M  V30 2655 H 458.227 -4.41741 -5.32532 0
M  V30 2656 H 459.095 -3.26371 -7.47889 0
M  V30 2657 H 461.75 -1.64007 -5.56746 0
M  V30 2658 H 462.03 -4.63439 -5.3432 0
M  V30 2659 H 463.021 -3.44776 -6.25925 0
M  V30 2660 H 461.187 -4.96707 -7.57347 0
M  V30 2661 P 463.057 -2.75334 -8.47391 0
M  V30 2662 O 463.277 -2.44595 -9.90239 0
M  V30 2663 O 463.847 -3.87732 -7.92204 0
M  V30 2664 O 463.307 -1.4459 -7.59357 0
M  V30 2665 C 462.367 -0.347563 -7.69115 0
M  V30 2666 C 463.097 0.96767 -7.52806 0
M  V30 2667 O 463.307 1.21036 -6.1011 0
M  V30 2668 C 464.497 1.04544 -8.13308 0
M  V30 2669 O 464.887 2.38311 -8.41922 0
M  V30 2670 C 465.377 0.491279 -7.02284 0
M  V30 2671 C 464.667 0.996264 -5.77469 0
M  V30 2672 N 464.717 0.0501808 -4.62873 0
M  V30 2673 C 464.867 0.588177 -3.36904 0
M  V30 2674 O 464.957 1.78598 -3.17173 0
M  V30 2675 N 464.907 -0.329694 -2.33686 0
M  V30 2676 C 464.817 -1.6953 -2.45079 0
M  V30 2677 C 464.667 -2.16933 -3.80505 0
M  V30 2678 C 464.617 -1.30326 -4.83752 0
M  V30 2679 H 461.877 -0.374722 -8.67691 0
M  V30 2680 H 461.608 -0.443421 -6.90177 0
M  V30 2681 H 462.475 1.75537 -7.96793 0
M  V30 2682 H 465.13 1.94496 -5.46629 0
M  V30 2683 H 465.409 -0.608651 -7.04676 0
M  V30 2684 H 466.401 0.889672 -7.08939 0
M  V30 2685 H 464.567 0.43308 -9.04564 0
M  V30 2686 H 464.496 -1.68366 -5.8516 0
M  V30 2687 P 466.437 2.75334 -8.47391 0
M  V30 2688 O 466.657 3.84166 -9.4489 0
M  V30 2689 O 467.227 1.51964 -8.6881 0
M  V30 2690 O 466.687 3.29363 -6.99321 0
M  V30 2691 C 465.747 4.23956 -6.42656 0
M  V30 2692 C 466.477 5.20775 -5.52155 0
M  V30 2693 O 466.687 4.56534 -4.22446 0
M  V30 2694 C 467.877 5.62629 -5.96531 0
M  V30 2695 O 468.267 6.87667 -5.41053 0
M  V30 2696 C 468.757 4.52537 -5.39283 0
M  V30 2697 C 468.047 4.20027 -4.08623 0
M  V30 2698 N 468.097 2.7613 -3.71522 0
M  V30 2699 C 468.247 2.45612 -2.37989 0
M  V30 2700 O 468.337 3.30919 -1.51621 0
M  V30 2701 N 468.287 1.10684 -2.08435 0
M  V30 2702 C 468.197 0.0690084 -2.9792 0
M  V30 2703 O 468.247 -1.10553 -2.59426 0
M  V30 2704 C 468.047 0.481522 -4.35345 0
M  V30 2705 C 467.937 -0.618778 -5.36443 0
M  V30 2706 C 467.997 1.78906 -4.67968 0
M  V30 2707 H 465.257 4.797 -7.24003 0
M  V30 2708 H 464.988 3.69802 -5.84429 0
M  V30 2709 H 465.855 6.10356 -5.41441 0
M  V30 2710 H 468.51 4.78651 -3.27911 0
M  V30 2711 H 468.789 3.64957 -6.05871 0
M  V30 2712 H 469.781 4.8868 -5.2125 0
M  V30 2713 H 467.947 5.66726 -7.06352 0
M  V30 2714 H 467.876 2.07737 -5.72367 0
M  V30 2715 H 468.906 -0.754375 -5.86871 0
M  V30 2716 H 467.169 -0.359721 -6.10641 0
M  V30 2717 H 467.657 -1.55533 -4.8581 0
M  V30 2718 H 468.393 0.862651 -1.12037 0
M  V30 2719 P 469.817 7.20834 -5.23717 0
M  V30 2720 O 470.037 8.66104 -5.38572 0
M  V30 2721 O 470.607 6.33544 -6.1349 0
M  V30 2722 O 470.067 6.7751 -3.72168 0
M  V30 2723 C 469.127 7.20825 -2.7076 0
M  V30 2724 C 469.857 7.45864 -1.40599 0
M  V30 2725 O 470.067 6.17651 -0.734225 0
M  V30 2726 C 471.257 8.05808 -1.51899 0
M  V30 2727 O 471.647 8.74358 -0.335205 0
M  V30 2728 C 472.137 6.83093 -1.70294 0
M  V30 2729 C 471.427 5.79992 -0.836974 0
M  V30 2730 N 471.477 4.41864 -1.38293 0
M  V30 2731 H 468.638 8.13644 -3.0377 0
M  V30 2732 H 468.368 6.42788 -2.55485 0
M  V30 2733 H 469.235 8.12039 -0.792769 0
M  V30 2734 P 473.197 8.91 2.75506e-12 0
M  V30 2735 O 473.417 10.1726 0.733694 0
M  V30 2736 O 473.987 8.73148 -1.23936 0
M  V30 2737 O 473.447 7.66872 0.971405 0
M  V30 2738 C 472.507 7.42309 2.04641 0
M  V30 2739 C 473.237 6.86059 3.24661 0
M  V30 2740 O 473.447 5.42847 3.03646 0
M  V30 2741 C 474.637 7.41196 3.50753 0
M  V30 2742 O 475.027 7.27073 4.86816 0
M  V30 2743 C 475.517 6.5273 2.63741 0
M  V30 2744 C 474.807 5.1842 2.73198 0
M  V30 2745 N 474.857 4.38762 1.4784 0
M  V30 2746 H 472.018 8.36803 2.32493 0
M  V30 2747 H 471.748 6.70197 1.71129 0
M  V30 2748 H 472.615 7.03551 4.13168 0
M  V30 2749 P 476.577 7.20834 5.23717 0
M  V30 2750 O 476.797 7.79853 6.57286 0
M  V30 2751 O 477.367 7.79239 4.12957 0
M  V30 2752 O 476.827 5.63315 5.29344 0
M  V30 2753 C 475.887 4.80255 6.01876 0
M  V30 2754 C 476.617 3.64202 6.65911 0
M  V30 2755 O 476.827 2.60694 5.64732 0
M  V30 2756 C 478.017 3.93473 7.1943 0
M  V30 2757 O 478.407 3.02071 8.21205 0
M  V30 2758 C 478.897 3.73047 5.97036 0
M  V30 2759 C 478.187 2.58828 5.25741 0
M  V30 2760 N 478.237 2.68068 3.77503 0
M  V30 2761 H 475.398 5.40332 6.79951 0
M  V30 2762 H 475.128 4.41613 5.32378 0
M  V30 2763 H 475.995 3.26331 7.47797 0
M  V30 2764 P 479.957 2.75334 8.47391 0
M  V30 2765 O 480.177 2.44619 9.90336 0
M  V30 2766 O 480.747 3.87776 7.92294 0
M  V30 2767 O 480.207 1.4459 7.59357 0
M  V30 2768 C 479.267 0.347653 7.69315 0
M  V30 2769 C 479.997 -0.96767 7.52806 0
M  V30 2770 O 480.207 -1.21055 6.10208 0
M  V30 2771 C 481.397 -1.04557 8.13408 0
M  V30 2772 O 481.787 -2.38311 8.41922 0
M  V30 2773 C 482.277 -0.491279 7.02284 0
M  V30 2774 C 481.567 -0.996264 5.77469 0
M  V30 2775 N 481.617 -0.0501916 4.62973 0
M  V30 2776 H 478.779 0.374765 8.67791 0
M  V30 2777 H 478.507 0.443613 6.90476 0
M  V30 2778 H 479.375 -1.75559 7.96891 0
M  V30 2779 H 482.03 -1.94563 5.46818 0
M  V30 2780 H 482.31 0.608651 7.04676 0
M  V30 2781 H 483.301 -0.889796 7.09039 0
M  V30 2782 H 481.467 -0.433128 9.04664 0
M  V30 2783 P 483.337 -2.75334 8.47391 0
M  V30 2784 O 483.557 -3.84204 9.44982 0
M  V30 2785 O 484.127 -1.51982 8.68909 0
M  V30 2786 O 483.587 -3.29363 6.99321 0
M  V30 2787 C 482.647 -4.24066 6.42823 0
M  V30 2788 C 483.377 -5.20775 5.52155 0
M  V30 2789 O 483.587 -4.56607 4.22514 0
M  V30 2790 C 484.777 -5.62697 5.96604 0
M  V30 2791 O 485.167 -6.87667 5.41053 0
M  V30 2792 C 485.657 -4.52537 5.39283 0
M  V30 2793 C 484.947 -4.20027 4.08623 0
M  V30 2794 N 484.997 -2.76189 3.71603 0
M  V30 2795 C 484.917 -1.66944 4.54297 0
M  V30 2796 N 484.987 -0.536169 3.91344 0
M  V30 2797 C 485.137 -0.901569 2.58849 0
M  V30 2798 C 485.267 -0.146599 1.40236 0
M  V30 2799 N 485.277 1.18234 1.37046 0
M  V30 2800 N 485.387 -0.822941 0.249738 0
M  V30 2801 C 485.377 -2.15179 0.280525 0
M  V30 2802 N 485.257 -2.96414 1.30822 0
M  V30 2803 C 485.137 -2.25804 2.44748 0
M  V30 2804 H 482.159 -4.79756 7.24086 0
M  V30 2805 H 481.887 -3.69963 5.84682 0
M  V30 2806 H 482.755 -6.10431 5.41508 0
M  V30 2807 H 485.41 -4.78816 3.28024 0
M  V30 2808 H 485.69 -3.64957 6.05871 0
M  V30 2809 H 486.681 -4.88748 5.21323 0
M  V30 2810 H 484.847 -5.66789 7.0643 0
M  V30 2811 H 484.806 -1.74684 5.62396 0
M  V30 2812 H 485.187 1.71949 2.24394 0
M  V30 2813 H 485.376 1.67511 0.470742 0
M  V30 2814 H 485.484 -2.63704 -0.6828 0
M  V30 2815 P 486.717 -7.20834 5.23717 0
M  V30 2816 O 486.937 -8.66104 5.38572 0
M  V30 2817 O 487.507 -6.33544 6.1349 0
M  V30 2818 O 486.967 -6.7751 3.72168 0
M  V30 2819 C 486.027 -7.20825 2.7076 0
M  V30 2820 C 486.757 -7.45864 1.40599 0
M  V30 2821 O 486.967 -6.17651 0.734225 0
M  V30 2822 C 488.157 -8.05808 1.51899 0
M  V30 2823 O 488.547 -8.74358 0.335205 0
M  V30 2824 C 489.037 -6.83093 1.70294 0
M  V30 2825 C 488.327 -5.79992 0.836974 0
M  V30 2826 N 488.377 -4.41864 1.38293 0
M  V30 2827 H 485.538 -8.13644 3.0377 0
M  V30 2828 H 485.268 -6.42788 2.55485 0
M  V30 2829 H 486.135 -8.12039 0.792769 0
M  V30 2830 P 490.097 -8.91 -2.91224e-12 0
M  V30 2831 O 490.317 -10.1726 -0.733694 0
M  V30 2832 O 490.887 -8.73148 1.23936 0
M  V30 2833 O 490.347 -7.66872 -0.971405 0
M  V30 2834 C 489.407 -7.42309 -2.04641 0
M  V30 2835 C 490.137 -6.86059 -3.24661 0
M  V30 2836 O 490.347 -5.42847 -3.03646 0
M  V30 2837 C 491.537 -7.41196 -3.50753 0
M  V30 2838 O 491.927 -7.27073 -4.86816 0
M  V30 2839 C 492.417 -6.5273 -2.63741 0
M  V30 2840 C 491.707 -5.1842 -2.73198 0
M  V30 2841 N 491.757 -4.38762 -1.4784 0
M  V30 2842 H 488.918 -8.36803 -2.32493 0
M  V30 2843 H 488.648 -6.70197 -1.71129 0
M  V30 2844 H 489.515 -7.03551 -4.13168 0
M  V30 2845 P 493.477 -7.20834 -5.23717 0
M  V30 2846 O 493.697 -7.7993 -6.57351 0
M  V30 2847 O 494.267 -7.79328 -4.13004 0
M  V30 2848 O 493.727 -5.63315 -5.29344 0
M  V30 2849 C 492.787 -4.80193 -6.01798 0
M  V30 2850 C 493.517 -3.64202 -6.65911 0
M  V30 2851 O 493.727 -2.60694 -5.64732 0
M  V30 2852 C 494.917 -3.93473 -7.1943 0
M  V30 2853 O 495.307 -3.02071 -8.21205 0
M  V30 2854 C 495.797 -3.73047 -5.97036 0
M  V30 2855 C 495.087 -2.58828 -5.25741 0
M  V30 2856 N 495.137 -2.6801 -3.77422 0
M  V30 2857 C 495.287 -1.50443 -3.07133 0
M  V30 2858 O 495.377 -0.419406 -3.61576 0
M  V30 2859 N 495.327 -1.6403 -1.69677 0
M  V30 2860 C 495.237 -2.81206 -0.986255 0
M  V30 2861 C 495.087 -3.99158 -1.80325 0
M  V30 2862 C 495.037 -3.89779 -3.1476 0
M  V30 2863 H 492.297 -5.40332 -6.79951 0
M  V30 2864 H 492.028 -4.41549 -5.32301 0
M  V30 2865 H 492.895 -3.26331 -7.47797 0
M  V30 2866 H 495.55 -1.6395 -5.56554 0
M  V30 2867 H 495.829 -4.63439 -5.3432 0
M  V30 2868 H 496.821 -3.44728 -6.25838 0
M  V30 2869 H 494.987 -4.96652 -7.57263 0
M  V30 2870 H 494.916 -4.80159 -3.74441 0
M  V30 2871 P 496.857 -2.75334 -8.47391 0
M  V30 2872 O 497.077 -2.44571 -9.90142 0
M  V30 2873 O 497.647 -3.87688 -7.92115 0
M  V30 2874 O 497.107 -1.4459 -7.59357 0
M  V30 2875 C 496.167 -0.347608 -7.69215 0
M  V30 2876 C 496.897 0.96767 -7.52806 0
M  V30 2877 O 497.107 1.21036 -6.1011 0
M  V30 2878 C 498.297 1.04544 -8.13308 0
M  V30 2879 O 498.687 2.38311 -8.41922 0
M  V30 2880 C 499.177 0.491279 -7.02284 0
M  V30 2881 C 498.467 0.996264 -5.77469 0
M  V30 2882 N 498.517 0.0501916 -4.62973 0
M  V30 2883 H 495.678 -0.374722 -8.67691 0
M  V30 2884 H 495.408 -0.443485 -6.90277 0
M  V30 2885 H 496.275 1.75537 -7.96793 0
M  V30 2886 P 500.237 2.75334 -8.47391 0
M  V30 2887 O 500.457 3.84128 -9.44797 0
M  V30 2888 O 501.027 1.51947 -8.68712 0
M  V30 2889 O 500.487 3.29363 -6.99321 0
M  V30 2890 C 499.547 4.24011 -6.4274 0
M  V30 2891 C 500.277 5.20775 -5.52155 0
M  V30 2892 O 500.487 4.56534 -4.22446 0
M  V30 2893 C 501.677 5.62629 -5.96531 0
M  V30 2894 O 502.067 6.87667 -5.41053 0
M  V30 2895 C 502.557 4.52537 -5.39283 0
M  V30 2896 C 501.847 4.20027 -4.08623 0
M  V30 2897 N 501.897 2.76189 -3.71603 0
M  V30 2898 H 499.058 4.797 -7.24003 0
M  V30 2899 H 498.788 3.69856 -5.84513 0
M  V30 2900 H 499.655 6.10356 -5.41441 0
M  V30 2901 P 503.617 7.20834 -5.23717 0
M  V30 2902 O 503.837 8.66104 -5.38572 0
M  V30 2903 O 504.407 6.33544 -6.1349 0
M  V30 2904 O 503.867 6.7751 -3.72168 0
M  V30 2905 C 502.927 7.20825 -2.7076 0
M  V30 2906 C 503.657 7.45864 -1.40599 0
M  V30 2907 O 503.867 6.17651 -0.734225 0
M  V30 2908 C 505.057 8.05808 -1.51899 0
M  V30 2909 O 505.447 8.74358 -0.335205 0
M  V30 2910 C 505.937 6.83093 -1.70294 0
M  V30 2911 C 505.227 5.79992 -0.836974 0
M  V30 2912 N 505.277 4.41864 -1.38293 0
M  V30 2913 C 505.197 3.99538 -2.69438 0
M  V30 2914 N 505.277 2.69909 -2.84277 0
M  V30 2915 C 505.417 2.21719 -1.5408 0
M  V30 2916 C 505.547 0.891712 -1.06628 0
M  V30 2917 O 505.567 -0.161298 -1.70137 0
M  V30 2918 N 505.667 0.856846 0.334985 0
M  V30 2919 C 505.667 1.9641 1.15789 0
M  V30 2920 N 505.797 1.72708 2.46522 0
M  V30 2921 N 505.537 3.21165 0.713741 0
M  V30 2922 C 505.417 3.26797 -0.639748 0
M  V30 2923 H 502.438 8.13644 -3.0377 0
M  V30 2924 H 502.168 6.42788 -2.55485 0
M  V30 2925 H 503.035 8.12039 -0.792769 0
M  V30 2926 H 505.69 5.80061 0.166416 0
M  V30 2927 H 505.969 6.51287 -2.75604 0
M  V30 2928 H 506.961 7.01734 -1.34462 0
M  V30 2929 H 505.127 8.73674 -2.38337 0
M  V30 2930 H 505.078 4.68207 -3.53221 0
M  V30 2931 H 505.76 -0.0398818 0.767965 0
M  V30 2932 H 505.797 2.50995 3.13503 0
M  V30 2933 H 505.898 0.759148 2.80716 0
M  V30 2934 P 506.997 8.91 3.06942e-12 0
M  V30 2935 O 507.217 10.1736 0.733766 0
M  V30 2936 O 507.787 8.73247 -1.2395 0
M  V30 2937 O 507.247 7.66872 0.971405 0
M  V30 2938 C 506.307 7.42309 2.04641 0
M  V30 2939 C 507.037 6.86059 3.24661 0
M  V30 2940 O 507.247 5.42847 3.03646 0
M  V30 2941 C 508.437 7.41196 3.50753 0
M  V30 2942 O 508.827 7.27073 4.86816 0
M  V30 2943 C 509.317 6.5273 2.63741 0
M  V30 2944 C 508.607 5.1842 2.73198 0
M  V30 2945 N 508.657 4.38668 1.47808 0
M  V30 2946 C 508.807 3.00789 1.58511 0
M  V30 2947 O 508.897 2.50116 2.71298 0
M  V30 2948 N 508.857 2.29703 0.253698 0
M  V30 2949 C 508.757 2.84269 -0.750133 0
M  V30 2950 N 508.807 2.06951 -1.82612 0
M  V30 2951 C 508.607 4.25803 -0.889776 0
M  V30 2952 C 508.557 4.98326 0.259363 0
M  V30 2953 H 505.817 8.36707 2.32466 0
M  V30 2954 H 505.548 6.701 1.71105 0
M  V30 2955 H 506.415 7.03638 4.13219 0
M  V30 2956 H 509.07 4.59852 3.53955 0
M  V30 2957 H 509.349 6.88995 1.59871 0
M  V30 2958 H 510.341 6.46749 3.03687 0
M  V30 2959 H 508.507 8.46908 3.20714 0
M  V30 2960 H 508.435 6.06349 0.206238 0
M  V30 2961 H 508.537 4.73163 -1.86796 0
M  V30 2962 H 508.925 1.05099 -1.72271 0
M  V30 2963 H 508.728 2.48716 -2.76361 0
M  V30 2964 P 510.377 7.20834 5.23717 0
M  V30 2965 O 510.597 7.80006 6.57415 0
M  V30 2966 O 511.167 7.79416 4.13051 0
M  V30 2967 O 510.627 5.63315 5.29344 0
M  V30 2968 C 509.687 4.80318 6.01954 0
M  V30 2969 C 510.417 3.64202 6.65911 0
M  V30 2970 O 510.627 2.60736 5.64823 0
M  V30 2971 C 511.817 3.93521 7.19518 0
M  V30 2972 O 512.207 3.02071 8.21205 0
M  V30 2973 C 512.697 3.73047 5.97036 0
M  V30 2974 C 511.987 2.58828 5.25741 0
M  V30 2975 N 512.037 2.68068 3.77503 0
M  V30 2976 C 511.957 3.80474 2.99159 0
M  V30 2977 N 512.027 3.55622 1.71925 0
M  V30 2978 C 512.177 2.1832 1.65733 0
M  V30 2979 C 512.307 1.28842 0.572777 0
M  V30 2980 N 512.317 1.66875 -0.70098 0
M  V30 2981 N 512.427 -0.016788 0.859836 0
M  V30 2982 C 512.417 -0.398145 2.13316 0
M  V30 2983 N 512.297 0.328224 3.22333 0
M  V30 2984 C 512.177 1.62992 2.90383 0
M  V30 2985 H 509.199 5.40394 6.8003 0
M  V30 2986 H 508.927 4.41741 5.32532 0
M  V30 2987 H 509.795 3.26371 7.47889 0
M  V30 2988 H 512.45 1.64007 5.56746 0
M  V30 2989 H 512.73 4.63439 5.3432 0
M  V30 2990 H 513.721 3.44776 6.25925 0
M  V30 2991 H 511.887 4.96707 7.57347 0
M  V30 2992 H 511.846 4.8089 3.39924 0
M  V30 2993 H 512.227 2.66547 -0.941919 0
M  V30 2994 H 512.416 0.965341 -1.44766 0
M  V30 2995 H 512.524 -1.46427 2.29697 0
M  V30 2996 P 513.757 2.75334 8.47391 0
M  V30 2997 O 513.977 2.44571 9.90142 0
M  V30 2998 O 514.547 3.87688 7.92115 0
M  V30 2999 O 514.007 1.4459 7.59357 0
M  V30 3000 C 513.067 0.347608 7.69215 0
M  V30 3001 C 513.797 -0.96767 7.52806 0
M  V30 3002 O 514.007 -1.21036 6.1011 0
M  V30 3003 C 515.197 -1.04544 8.13308 0
M  V30 3004 O 515.587 -2.38311 8.41922 0
M  V30 3005 C 516.077 -0.491279 7.02284 0
M  V30 3006 C 515.367 -0.996264 5.77469 0
M  V30 3007 N 515.417 -0.0501916 4.62973 0
M  V30 3008 H 512.578 0.374722 8.67691 0
M  V30 3009 H 512.308 0.443485 6.90277 0
M  V30 3010 H 513.175 -1.75537 7.96793 0
M  V30 3011 P 517.137 -2.75334 8.47391 0
M  V30 3012 O 517.357 -3.84128 9.44797 0
M  V30 3013 O 517.927 -1.51947 8.68712 0
M  V30 3014 O 517.387 -3.29363 6.99321 0
M  V30 3015 C 516.447 -4.24011 6.4274 0
M  V30 3016 C 517.177 -5.20775 5.52155 0
M  V30 3017 O 517.387 -4.56534 4.22446 0
M  V30 3018 C 518.577 -5.62629 5.96531 0
M  V30 3019 O 518.967 -6.87667 5.41053 0
M  V30 3020 C 519.457 -4.52537 5.39283 0
M  V30 3021 C 518.747 -4.20027 4.08623 0
M  V30 3022 N 518.797 -2.76189 3.71603 0
M  V30 3023 H 515.958 -4.797 7.24003 0
M  V30 3024 H 515.688 -3.69856 5.84513 0
M  V30 3025 H 516.555 -6.10356 5.41441 0
M  V30 3026 P 520.517 -7.20834 5.23717 0
M  V30 3027 O 520.737 -8.66104 5.38572 0
M  V30 3028 O 521.307 -6.33544 6.1349 0
M  V30 3029 O 520.767 -6.7751 3.72168 0
M  V30 3030 C 519.827 -7.20825 2.7076 0
M  V30 3031 C 520.557 -7.45864 1.40599 0
M  V30 3032 O 520.767 -6.17651 0.734225 0
M  V30 3033 C 521.957 -8.05808 1.51899 0
M  V30 3034 O 522.347 -8.74358 0.335205 0
M  V30 3035 C 522.837 -6.83093 1.70294 0
M  V30 3036 C 522.127 -5.79992 0.836974 0
M  V30 3037 N 522.177 -4.41864 1.38293 0
M  V30 3038 H 519.338 -8.13644 3.0377 0
M  V30 3039 H 519.068 -6.42788 2.55485 0
M  V30 3040 H 519.935 -8.12039 0.792769 0
M  V30 3041 P 523.897 -8.91 -3.22661e-12 0
M  V30 3042 O 524.117 -10.1736 -0.733766 0
M  V30 3043 O 524.687 -8.73247 1.2395 0
M  V30 3044 O 524.147 -7.66872 -0.971405 0
M  V30 3045 C 523.207 -7.42309 -2.04641 0
M  V30 3046 C 523.937 -6.86059 -3.24661 0
M  V30 3047 O 524.147 -5.42847 -3.03646 0
M  V30 3048 C 525.337 -7.41196 -3.50753 0
M  V30 3049 O 525.727 -7.27073 -4.86816 0
M  V30 3050 C 526.217 -6.5273 -2.63741 0
M  V30 3051 C 525.507 -5.1842 -2.73198 0
M  V30 3052 N 525.557 -4.38668 -1.47808 0
M  V30 3053 C 525.707 -3.00789 -1.58511 0
M  V30 3054 O 525.797 -2.50116 -2.71298 0
M  V30 3055 N 525.757 -2.29703 -0.253698 0
M  V30 3056 C 525.657 -2.84269 0.750133 0
M  V30 3057 N 525.707 -2.06951 1.82612 0
M  V30 3058 C 525.507 -4.25803 0.889776 0
M  V30 3059 C 525.457 -4.98326 -0.259363 0
M  V30 3060 H 522.717 -8.36707 -2.32466 0
M  V30 3061 H 522.448 -6.701 -1.71105 0
M  V30 3062 H 523.315 -7.03638 -4.13219 0
M  V30 3063 H 525.97 -4.59852 -3.53955 0
M  V30 3064 H 526.249 -6.88995 -1.59871 0
M  V30 3065 H 527.241 -6.46749 -3.03687 0
M  V30 3066 H 525.407 -8.46908 -3.20714 0
M  V30 3067 H 525.335 -6.06349 -0.206238 0
M  V30 3068 H 525.437 -4.73163 1.86796 0
M  V30 3069 H 525.825 -1.05099 1.72271 0
M  V30 3070 H 525.628 -2.48716 2.76361 0
M  V30 3071 P 527.277 -7.20834 -5.23717 0
M  V30 3072 O 527.497 -7.79853 -6.57286 0
M  V30 3073 O 528.067 -7.79239 -4.12957 0
M  V30 3074 O 527.527 -5.63315 -5.29344 0
M  V30 3075 C 526.587 -4.80255 -6.01876 0
M  V30 3076 C 527.317 -3.64202 -6.65911 0
M  V30 3077 O 527.527 -2.60694 -5.64732 0
M  V30 3078 C 528.717 -3.93473 -7.1943 0
M  V30 3079 O 529.107 -3.02071 -8.21205 0
M  V30 3080 C 529.597 -3.73047 -5.97036 0
M  V30 3081 C 528.887 -2.58828 -5.25741 0
M  V30 3082 N 528.937 -2.68068 -3.77503 0
M  V30 3083 H 526.098 -5.40332 -6.79951 0
M  V30 3084 H 525.828 -4.41613 -5.32378 0
M  V30 3085 H 526.695 -3.26331 -7.47797 0
M  V30 3086 P 530.657 -2.75334 -8.47391 0
M  V30 3087 O 530.877 -2.44571 -9.90142 0
M  V30 3088 O 531.447 -3.87688 -7.92115 0
M  V30 3089 O 530.907 -1.4459 -7.59357 0
M  V30 3090 C 529.967 -0.347608 -7.69215 0
M  V30 3091 C 530.697 0.96767 -7.52806 0
M  V30 3092 O 530.907 1.21036 -6.1011 0
M  V30 3093 C 532.097 1.04544 -8.13308 0
M  V30 3094 O 532.487 2.38311 -8.41922 0
M  V30 3095 C 532.977 0.491279 -7.02284 0
M  V30 3096 C 532.267 0.996264 -5.77469 0
M  V30 3097 N 532.317 0.0501916 -4.62973 0
M  V30 3098 H 529.478 -0.374722 -8.67691 0
M  V30 3099 H 529.208 -0.443485 -6.90277 0
M  V30 3100 H 530.075 1.75537 -7.96793 0
M  V30 3101 P 534.037 2.75334 -8.47391 0
M  V30 3102 O 534.257 3.84128 -9.44797 0
M  V30 3103 O 534.827 1.51947 -8.68712 0
M  V30 3104 O 534.287 3.29363 -6.99321 0
M  V30 3105 C 533.347 4.24011 -6.4274 0
M  V30 3106 C 534.077 5.20775 -5.52155 0
M  V30 3107 O 534.287 4.56534 -4.22446 0
M  V30 3108 C 535.477 5.62629 -5.96531 0
M  V30 3109 O 535.867 6.87667 -5.41053 0
M  V30 3110 C 536.357 4.52537 -5.39283 0
M  V30 3111 C 535.647 4.20027 -4.08623 0
M  V30 3112 N 535.697 2.76189 -3.71603 0
M  V30 3113 H 532.858 4.797 -7.24003 0
M  V30 3114 H 532.588 3.69856 -5.84513 0
M  V30 3115 H 533.455 6.10356 -5.41441 0
M  V30 3116 P 537.417 7.20834 -5.23717 0
M  V30 3117 O 537.637 8.66104 -5.38572 0
M  V30 3118 O 538.207 6.33544 -6.1349 0
M  V30 3119 O 537.667 6.7751 -3.72168 0
M  V30 3120 C 536.727 7.20825 -2.7076 0
M  V30 3121 C 537.457 7.45864 -1.40599 0
M  V30 3122 O 537.667 6.17651 -0.734225 0
M  V30 3123 C 538.857 8.05808 -1.51899 0
M  V30 3124 O 539.247 8.74358 -0.335205 0
M  V30 3125 C 539.737 6.83093 -1.70294 0
M  V30 3126 C 539.027 5.79992 -0.836974 0
M  V30 3127 N 539.077 4.41864 -1.38293 0
M  V30 3128 H 536.238 8.13644 -3.0377 0
M  V30 3129 H 535.968 6.42788 -2.55485 0
M  V30 3130 H 536.835 8.12039 -0.792769 0
M  V30 3131 P 540.797 8.91 3.38379e-12 0
M  V30 3132 O 541.017 10.1726 0.733694 0
M  V30 3133 O 541.587 8.73148 -1.23936 0
M  V30 3134 O 541.047 7.66872 0.971405 0
M  V30 3135 C 540.107 7.42309 2.04641 0
M  V30 3136 C 540.837 6.86059 3.24661 0
M  V30 3137 O 541.047 5.42847 3.03646 0
M  V30 3138 C 542.237 7.41196 3.50753 0
M  V30 3139 O 542.627 7.27073 4.86816 0
M  V30 3140 C 543.117 6.5273 2.63741 0
M  V30 3141 C 542.407 5.1842 2.73198 0
M  V30 3142 N 542.457 4.38762 1.4784 0
M  V30 3143 C 542.377 4.81605 0.168631 0
M  V30 3144 N 542.457 3.85454 -0.713363 0
M  V30 3145 C 542.597 2.6994 0.0566958 0
M  V30 3146 C 542.727 1.34815 -0.338502 0
M  V30 3147 O 542.747 0.869548 -1.47125 0
M  V30 3148 N 542.847 0.496304 0.77465 0
M  V30 3149 C 542.847 0.908403 2.09122 0
M  V30 3150 N 542.977 -0.0517805 3.00955 0
M  V30 3151 N 542.717 2.17875 2.46519 0
M  V30 3152 C 542.597 3.01988 1.4033 0
M  V30 3153 H 539.618 8.36803 2.32493 0
M  V30 3154 H 539.348 6.70197 1.71129 0
M  V30 3155 H 540.215 7.03551 4.13168 0
M  V30 3156 H 542.87 4.59498 3.54415 0
M  V30 3157 H 543.149 6.88898 1.59848 0
M  V30 3158 H 544.141 6.46749 3.03687 0
M  V30 3159 H 542.307 8.46908 3.20714 0
M  V30 3160 H 542.258 5.86405 -0.105564 0
M  V30 3161 H 542.94 -0.483664 0.597855 0
M  V30 3162 H 542.977 0.187865 4.0116 0
M  V30 3163 H 543.078 -1.03585 2.71726 0
M  V30 3164 P 544.177 7.20834 5.23717 0
M  V30 3165 O 544.397 7.79853 6.57286 0
M  V30 3166 O 544.967 7.79239 4.12957 0
M  V30 3167 O 544.427 5.63315 5.29344 0
M  V30 3168 C 543.487 4.80255 6.01876 0
M  V30 3169 C 544.217 3.64202 6.65911 0
M  V30 3170 O 544.427 2.60694 5.64732 0
M  V30 3171 C 545.617 3.93473 7.1943 0
M  V30 3172 O 546.007 3.02071 8.21205 0
M  V30 3173 C 546.497 3.73047 5.97036 0
M  V30 3174 C 545.787 2.58828 5.25741 0
M  V30 3175 N 545.837 2.68068 3.77503 0
M  V30 3176 H 542.998 5.40332 6.79951 0
M  V30 3177 H 542.728 4.41613 5.32378 0
M  V30 3178 H 543.595 3.26331 7.47797 0
M  V30 3179 P 547.557 2.75334 8.47391 0
M  V30 3180 O 547.777 2.44571 9.90142 0
M  V30 3181 O 548.347 3.87688 7.92115 0
M  V30 3182 O 547.807 1.4459 7.59357 0
M  V30 3183 C 546.867 0.347608 7.69215 0
M  V30 3184 C 547.597 -0.96767 7.52806 0
M  V30 3185 O 547.807 -1.21036 6.1011 0
M  V30 3186 C 548.997 -1.04544 8.13308 0
M  V30 3187 O 549.387 -2.38311 8.41922 0
M  V30 3188 C 549.877 -0.491279 7.02284 0
M  V30 3189 C 549.167 -0.996264 5.77469 0
M  V30 3190 N 549.217 -0.0501916 4.62973 0
M  V30 3191 H 546.378 0.374722 8.67691 0
M  V30 3192 H 546.108 0.443485 6.90277 0
M  V30 3193 H 546.975 -1.75537 7.96793 0
M  V30 3194 P 550.937 -2.75334 8.47391 0
M  V30 3195 O 551.157 -3.84204 9.44982 0
M  V30 3196 O 551.727 -1.51982 8.68909 0
M  V30 3197 O 551.187 -3.29363 6.99321 0
M  V30 3198 C 550.247 -4.24066 6.42823 0
M  V30 3199 C 550.977 -5.20775 5.52155 0
M  V30 3200 O 551.187 -4.56607 4.22514 0
M  V30 3201 C 552.377 -5.62697 5.96604 0
M  V30 3202 O 552.767 -6.87667 5.41053 0
M  V30 3203 C 553.257 -4.52537 5.39283 0
M  V30 3204 C 552.547 -4.20027 4.08623 0
M  V30 3205 N 552.597 -2.76189 3.71603 0
M  V30 3206 C 552.517 -1.66944 4.54297 0
M  V30 3207 N 552.587 -0.536169 3.91344 0
M  V30 3208 C 552.737 -0.901569 2.58849 0
M  V30 3209 C 552.867 -0.146599 1.40236 0
M  V30 3210 N 552.877 1.18234 1.37046 0
M  V30 3211 N 552.987 -0.822941 0.249738 0
M  V30 3212 C 552.977 -2.15179 0.280525 0
M  V30 3213 N 552.857 -2.96414 1.30822 0
M  V30 3214 C 552.737 -2.25804 2.44748 0
M  V30 3215 H 549.759 -4.79756 7.24086 0
M  V30 3216 H 549.487 -3.69963 5.84682 0
M  V30 3217 H 550.355 -6.10431 5.41508 0
M  V30 3218 H 553.01 -4.78816 3.28024 0
M  V30 3219 H 553.29 -3.64957 6.05871 0
M  V30 3220 H 554.281 -4.88748 5.21323 0
M  V30 3221 H 552.447 -5.66789 7.0643 0
M  V30 3222 H 552.406 -1.74684 5.62396 0
M  V30 3223 H 552.787 1.71949 2.24394 0
M  V30 3224 H 552.976 1.67511 0.470742 0
M  V30 3225 H 553.084 -2.63704 -0.6828 0
M  V30 3226 P 554.317 -7.20834 5.23717 0
M  V30 3227 O 554.537 -8.66104 5.38572 0
M  V30 3228 O 555.107 -6.33544 6.1349 0
M  V30 3229 O 554.567 -6.7751 3.72168 0
M  V30 3230 C 553.627 -7.20825 2.7076 0
M  V30 3231 C 554.357 -7.45864 1.40599 0
M  V30 3232 O 554.567 -6.17651 0.734225 0
M  V30 3233 C 555.757 -8.05808 1.51899 0
M  V30 3234 O 556.147 -8.74358 0.335205 0
M  V30 3235 C 556.637 -6.83093 1.70294 0
M  V30 3236 C 555.927 -5.79992 0.836974 0
M  V30 3237 N 555.977 -4.41864 1.38293 0
M  V30 3238 H 553.138 -8.13644 3.0377 0
M  V30 3239 H 552.868 -6.42788 2.55485 0
M  V30 3240 H 553.735 -8.12039 0.792769 0
M  V30 3241 P 557.697 -8.91 -3.54097e-12 0
M  V30 3242 O 557.917 -10.1726 -0.733694 0
M  V30 3243 O 558.487 -8.73148 1.23936 0
M  V30 3244 O 557.947 -7.66872 -0.971405 0
M  V30 3245 C 557.007 -7.42309 -2.04641 0
M  V30 3246 C 557.737 -6.86059 -3.24661 0
M  V30 3247 O 557.947 -5.42847 -3.03646 0
M  V30 3248 C 559.137 -7.41196 -3.50753 0
M  V30 3249 O 559.527 -7.27073 -4.86816 0
M  V30 3250 C 560.017 -6.5273 -2.63741 0
M  V30 3251 C 559.307 -5.1842 -2.73198 0
M  V30 3252 N 559.357 -4.38762 -1.4784 0
M  V30 3253 H 556.518 -8.36803 -2.32493 0
M  V30 3254 H 556.248 -6.70197 -1.71129 0
M  V30 3255 H 557.115 -7.03551 -4.13168 0
M  V30 3256 P 561.077 -7.20834 -5.23717 0
M  V30 3257 O 561.297 -7.79853 -6.57286 0
M  V30 3258 O 561.867 -7.79239 -4.12957 0
M  V30 3259 O 561.327 -5.63315 -5.29344 0
M  V30 3260 C 560.387 -4.80255 -6.01876 0
M  V30 3261 C 561.117 -3.64202 -6.65911 0
M  V30 3262 O 561.327 -2.60694 -5.64732 0
M  V30 3263 C 562.517 -3.93473 -7.1943 0
M  V30 3264 O 562.907 -3.02071 -8.21205 0
M  V30 3265 C 563.397 -3.73047 -5.97036 0
M  V30 3266 C 562.687 -2.58828 -5.25741 0
M  V30 3267 N 562.737 -2.68068 -3.77503 0
M  V30 3268 H 559.898 -5.40332 -6.79951 0
M  V30 3269 H 559.628 -4.41613 -5.32378 0
M  V30 3270 H 560.495 -3.26331 -7.47797 0
M  V30 3271 P 564.457 -2.75334 -8.47391 0
M  V30 3272 O 564.677 -2.44571 -9.90142 0
M  V30 3273 O 565.247 -3.87688 -7.92115 0
M  V30 3274 O 564.707 -1.4459 -7.59357 0
M  V30 3275 C 563.767 -0.347608 -7.69215 0
M  V30 3276 C 564.497 0.96767 -7.52806 0
M  V30 3277 O 564.707 1.21036 -6.1011 0
M  V30 3278 C 565.897 1.04544 -8.13308 0
M  V30 3279 O 566.287 2.38311 -8.41922 0
M  V30 3280 C 566.777 0.491279 -7.02284 0
M  V30 3281 C 566.067 0.996264 -5.77469 0
M  V30 3282 N 566.117 0.0501916 -4.62973 0
M  V30 3283 C 566.037 -1.32786 -4.63244 0
M  V30 3284 N 566.117 -1.86957 -3.44545 0
M  V30 3285 C 566.257 -0.780241 -2.58481 0
M  V30 3286 C 566.387 -0.738536 -1.17757 0
M  V30 3287 O 566.407 -1.66794 -0.372349 0
M  V30 3288 N 566.507 0.58337 -0.711393 0
M  V30 3289 C 566.507 1.70816 -1.51017 0
M  V30 3290 N 566.637 2.87826 -0.880757 0
M  V30 3291 N 566.377 1.67126 -2.8339 0
M  V30 3292 C 566.257 0.401421 -3.30572 0
M  V30 3293 H 563.278 -0.374722 -8.67691 0
M  V30 3294 H 563.008 -0.443485 -6.90277 0
M  V30 3295 H 563.875 1.75537 -7.96793 0
M  V30 3296 H 566.53 1.95076 -5.46529 0
M  V30 3297 H 566.809 -0.608565 -7.04577 0
M  V30 3298 H 567.801 0.889672 -7.08939 0
M  V30 3299 H 565.967 0.43308 -9.04564 0
M  V30 3300 H 565.918 -1.91249 -5.54442 0
M  V30 3301 H 566.6 0.718054 0.275244 0
M  V30 3302 H 566.637 3.75721 -1.41832 0
M  V30 3303 H 566.738 2.90436 0.145468 0
M  V30 3304 P 567.837 2.75334 -8.47391 0
M  V30 3305 O 568.057 3.84204 -9.44982 0
M  V30 3306 O 568.627 1.51982 -8.68909 0
M  V30 3307 O 568.087 3.29363 -6.99321 0
M  V30 3308 C 567.147 4.24066 -6.42823 0
M  V30 3309 C 567.877 5.20775 -5.52155 0
M  V30 3310 O 568.087 4.56607 -4.22514 0
M  V30 3311 C 569.277 5.62697 -5.96604 0
M  V30 3312 O 569.667 6.87667 -5.41053 0
M  V30 3313 C 570.157 4.52537 -5.39283 0
M  V30 3314 C 569.447 4.20027 -4.08623 0
M  V30 3315 N 569.497 2.76189 -3.71603 0
M  V30 3316 C 569.417 1.66944 -4.54297 0
M  V30 3317 N 569.487 0.536169 -3.91344 0
M  V30 3318 C 569.637 0.901569 -2.58849 0
M  V30 3319 C 569.767 0.146599 -1.40236 0
M  V30 3320 N 569.777 -1.18234 -1.37046 0
M  V30 3321 N 569.887 0.822941 -0.249738 0
M  V30 3322 C 569.877 2.15179 -0.280525 0
M  V30 3323 N 569.757 2.96414 -1.30822 0
M  V30 3324 C 569.637 2.25804 -2.44748 0
M  V30 3325 H 566.659 4.79756 -7.24086 0
M  V30 3326 H 566.387 3.69963 -5.84682 0
M  V30 3327 H 567.255 6.10431 -5.41508 0
M  V30 3328 H 569.91 4.78816 -3.28024 0
M  V30 3329 H 570.19 3.64957 -6.05871 0
M  V30 3330 H 571.181 4.88748 -5.21323 0
M  V30 3331 H 569.347 5.66789 -7.0643 0
M  V30 3332 H 569.306 1.74684 -5.62396 0
M  V30 3333 H 569.687 -1.71949 -2.24394 0
M  V30 3334 H 569.876 -1.67511 -0.470742 0
M  V30 3335 H 569.984 2.63704 0.6828 0
M  V30 3336 P 571.217 7.20834 -5.23717 0
M  V30 3337 O 571.437 8.66274 -5.38678 0
M  V30 3338 O 572.007 6.33687 -6.13629 0
M  V30 3339 O 571.467 6.7751 -3.72168 0
M  V30 3340 C 570.527 7.20919 -2.70795 0
M  V30 3341 C 571.257 7.45864 -1.40599 0
M  V30 3342 O 571.467 6.17751 -0.734343 0
M  V30 3343 C 572.657 8.05906 -1.51917 0
M  V30 3344 O 573.047 8.74358 -0.335205 0
M  V30 3345 C 573.537 6.83093 -1.70294 0
M  V30 3346 C 572.827 5.79992 -0.836974 0
M  V30 3347 N 572.877 4.41864 -1.38293 0
M  V30 3348 H 570.039 8.13738 -3.03804 0
M  V30 3349 H 569.767 6.42974 -2.55559 0
M  V30 3350 H 570.635 8.12139 -0.792866 0
M  V30 3351 H 573.29 5.80178 0.160643 0
M  V30 3352 H 573.57 6.51379 -2.75643 0
M  V30 3353 H 574.561 7.01832 -1.3448 0
M  V30 3354 H 572.727 8.73771 -2.38364 0
M  V30 3355 P 574.597 8.91 3.69815e-12 0
M  V30 3356 O 574.817 10.1726 0.733694 0
M  V30 3357 O 575.387 8.73148 -1.23936 0
M  V30 3358 O 574.847 7.66872 0.971405 0
M  V30 3359 C 573.907 7.42309 2.04641 0
M  V30 3360 C 574.637 6.86059 3.24661 0
M  V30 3361 O 574.847 5.42847 3.03646 0
M  V30 3362 C 576.037 7.41196 3.50753 0
M  V30 3363 O 576.427 7.27073 4.86816 0
M  V30 3364 C 576.917 6.5273 2.63741 0
M  V30 3365 C 576.207 5.1842 2.73198 0
M  V30 3366 N 576.257 4.38762 1.4784 0
M  V30 3367 H 573.418 8.36803 2.32493 0
M  V30 3368 H 573.148 6.70197 1.71129 0
M  V30 3369 H 574.015 7.03551 4.13168 0
M  V30 3370 P 577.977 7.20834 5.23717 0
M  V30 3371 O 578.197 7.79853 6.57286 0
M  V30 3372 O 578.767 7.79239 4.12957 0
M  V30 3373 O 578.227 5.63315 5.29344 0
M  V30 3374 C 577.287 4.80255 6.01876 0
M  V30 3375 C 578.017 3.64202 6.65911 0
M  V30 3376 O 578.227 2.60694 5.64732 0
M  V30 3377 C 579.417 3.93473 7.1943 0
M  V30 3378 O 579.807 3.02071 8.21205 0
M  V30 3379 C 580.297 3.73047 5.97036 0
M  V30 3380 C 579.587 2.58828 5.25741 0
M  V30 3381 N 579.637 2.68068 3.77503 0
M  V30 3382 H 576.798 5.40332 6.79951 0
M  V30 3383 H 576.528 4.41613 5.32378 0
M  V30 3384 H 577.395 3.26331 7.47797 0
M  V30 3385 P 581.357 2.75334 8.47391 0
M  V30 3386 O 581.577 2.44595 9.90239 0
M  V30 3387 O 582.147 3.87732 7.92204 0
M  V30 3388 O 581.607 1.4459 7.59357 0
M  V30 3389 C 580.667 0.347608 7.69215 0
M  V30 3390 C 581.397 -0.96767 7.52806 0
M  V30 3391 O 581.607 -1.21036 6.1011 0
M  V30 3392 C 582.797 -1.04544 8.13308 0
M  V30 3393 O 583.187 -2.38311 8.41922 0
M  V30 3394 C 583.677 -0.491279 7.02284 0
M  V30 3395 C 582.967 -0.996264 5.77469 0
M  V30 3396 N 583.017 -0.0501808 4.62873 0
M  V30 3397 C 583.167 -0.578037 3.3505 0
M  V30 3398 O 583.257 -1.8073 3.21711 0
M  V30 3399 N 583.217 0.468541 2.263 0
M  V30 3400 C 583.117 1.59186 2.47176 0
M  V30 3401 N 583.167 2.37626 1.40392 0
M  V30 3402 C 582.967 2.16203 3.77467 0
M  V30 3403 C 582.917 1.29324 4.8195 0
M  V30 3404 H 580.177 0.374679 8.67591 0
M  V30 3405 H 579.908 0.443421 6.90177 0
M  V30 3406 H 580.775 -1.75559 7.96891 0
M  V30 3407 H 583.43 -1.94529 5.46723 0
M  V30 3408 H 583.709 0.608651 7.04676 0
M  V30 3409 H 584.701 -0.889672 7.08939 0
M  V30 3410 H 582.867 -0.43308 9.04564 0
M  V30 3411 H 582.795 1.67758 5.83046 0
M  V30 3412 H 582.897 3.23869 3.92281 0
M  V30 3413 H 583.285 1.96317 0.467202 0
M  V30 3414 H 583.088 3.39693 1.51142 0
M  V30 3415 P 584.737 -2.75334 8.47391 0
M  V30 3416 O 584.957 -3.84128 9.44797 0
M  V30 3417 O 585.527 -1.51947 8.68712 0
M  V30 3418 O 584.987 -3.29363 6.99321 0
M  V30 3419 C 584.047 -4.24011 6.4274 0
M  V30 3420 C 584.777 -5.20775 5.52155 0
M  V30 3421 O 584.987 -4.56534 4.22446 0
M  V30 3422 C 586.177 -5.62629 5.96531 0
M  V30 3423 O 586.567 -6.87667 5.41053 0
M  V30 3424 C 587.057 -4.52537 5.39283 0
M  V30 3425 C 586.347 -4.20027 4.08623 0
M  V30 3426 N 586.397 -2.76189 3.71603 0
M  V30 3427 H 583.558 -4.797 7.24003 0
M  V30 3428 H 583.288 -3.69856 5.84513 0
M  V30 3429 H 584.155 -6.10356 5.41441 0
M  V30 3430 P 588.117 -7.20834 5.23717 0
M  V30 3431 O 588.337 -8.66189 5.38625 0
M  V30 3432 O 588.907 -6.33615 6.1356 0
M  V30 3433 O 588.367 -6.7751 3.72168 0
M  V30 3434 C 587.427 -7.20732 2.70725 0
M  V30 3435 C 588.157 -7.45864 1.40599 0
M  V30 3436 O 588.367 -6.17651 0.734225 0
M  V30 3437 C 589.557 -8.05808 1.51899 0
M  V30 3438 O 589.947 -8.74358 0.335205 0
M  V30 3439 C 590.437 -6.83093 1.70294 0
M  V30 3440 C 589.727 -5.79992 0.836974 0
M  V30 3441 N 589.777 -4.41769 1.38263 0
M  V30 3442 C 589.927 -3.38591 0.481702 0
M  V30 3443 O 590.017 -3.56839 -0.718452 0
M  V30 3444 N 589.967 -2.1206 1.03569 0
M  V30 3445 C 589.877 -1.80696 2.36966 0
M  V30 3446 C 589.727 -2.94845 3.23898 0
M  V30 3447 C 589.677 -4.19803 2.73435 0
M  V30 3448 H 586.937 -8.13644 3.0377 0
M  V30 3449 H 586.668 -6.42695 2.55448 0
M  V30 3450 H 587.535 -8.12039 0.792769 0
M  V30 3451 H 590.19 -5.79978 -0.160587 0
M  V30 3452 H 590.469 -6.51379 2.75643 0
M  V30 3453 H 591.461 -7.01734 1.34462 0
M  V30 3454 H 589.627 -8.73674 2.38337 0
M  V30 3455 H 589.556 -5.04492 3.4095 0
M  V30 3456 P 591.496 -8.91 -3.85533e-12 0
M  V30 3457 O 591.716 -10.1726 -0.733694 0
M  V30 3458 O 592.286 -8.73148 1.23936 0
M  V30 3459 O 591.746 -7.66872 -0.971405 0
M  V30 3460 C 590.806 -7.42309 -2.04641 0
M  V30 3461 C 591.536 -6.86059 -3.24661 0
M  V30 3462 O 591.746 -5.42847 -3.03646 0
M  V30 3463 C 592.937 -7.41196 -3.50753 0
M  V30 3464 O 593.327 -7.27073 -4.86816 0
M  V30 3465 C 593.817 -6.5273 -2.63741 0
M  V30 3466 C 593.106 -5.1842 -2.73198 0
M  V30 3467 N 593.156 -4.38762 -1.4784 0
M  V30 3468 C 593.077 -4.81605 -0.168631 0
M  V30 3469 N 593.156 -3.85454 0.713363 0
M  V30 3470 C 593.296 -2.6994 -0.0566958 0
M  V30 3471 C 593.426 -1.34815 0.338502 0
M  V30 3472 O 593.447 -0.869548 1.47125 0
M  V30 3473 N 593.546 -0.496304 -0.77465 0
M  V30 3474 C 593.546 -0.908403 -2.09122 0
M  V30 3475 N 593.676 0.0517805 -3.00955 0
M  V30 3476 N 593.416 -2.17875 -2.46519 0
M  V30 3477 C 593.296 -3.01988 -1.4033 0
M  V30 3478 H 590.317 -8.36803 -2.32493 0
M  V30 3479 H 590.048 -6.70197 -1.71129 0
M  V30 3480 H 590.914 -7.03551 -4.13168 0
M  V30 3481 H 593.569 -4.59498 -3.54415 0
M  V30 3482 H 593.848 -6.88898 -1.59848 0
M  V30 3483 H 594.841 -6.46749 -3.03687 0
M  V30 3484 H 593.006 -8.46908 -3.20714 0
M  V30 3485 H 592.957 -5.86405 0.105564 0
M  V30 3486 H 593.639 0.483664 -0.597855 0
M  V30 3487 H 593.676 -0.187865 -4.0116 0
M  V30 3488 H 593.777 1.03585 -2.71726 0
M  V30 3489 P 594.876 -7.20834 -5.23717 0
M  V30 3490 O 595.096 -7.79853 -6.57286 0
M  V30 3491 O 595.666 -7.79239 -4.12957 0
M  V30 3492 O 595.126 -5.63315 -5.29344 0
M  V30 3493 C 594.186 -4.80255 -6.01876 0
M  V30 3494 C 594.916 -3.64202 -6.65911 0
M  V30 3495 O 595.126 -2.60694 -5.64732 0
M  V30 3496 C 596.316 -3.93473 -7.1943 0
M  V30 3497 O 596.706 -3.02071 -8.21205 0
M  V30 3498 C 597.196 -3.73047 -5.97036 0
M  V30 3499 C 596.486 -2.58828 -5.25741 0
M  V30 3500 N 596.536 -2.68068 -3.77503 0
M  V30 3501 H 593.697 -5.40332 -6.79951 0
M  V30 3502 H 593.427 -4.41613 -5.32378 0
M  V30 3503 H 594.294 -3.26331 -7.47797 0
M  V30 3504 P 598.256 -2.75334 -8.47391 0
M  V30 3505 O 598.476 -2.44571 -9.90142 0
M  V30 3506 O 599.046 -3.87688 -7.92115 0
M  V30 3507 O 598.506 -1.4459 -7.59357 0
M  V30 3508 C 597.566 -0.347608 -7.69215 0
M  V30 3509 C 598.296 0.96767 -7.52806 0
M  V30 3510 O 598.506 1.21036 -6.1011 0
M  V30 3511 C 599.696 1.04544 -8.13308 0
M  V30 3512 O 600.086 2.38311 -8.41922 0
M  V30 3513 C 600.576 0.491279 -7.02284 0
M  V30 3514 C 599.866 0.996264 -5.77469 0
M  V30 3515 N 599.916 0.0501916 -4.62973 0
M  V30 3516 C 599.836 -1.32786 -4.63244 0
M  V30 3517 N 599.916 -1.86957 -3.44545 0
M  V30 3518 C 600.056 -0.780241 -2.58481 0
M  V30 3519 C 600.186 -0.738536 -1.17757 0
M  V30 3520 O 600.206 -1.66794 -0.372349 0
M  V30 3521 N 600.306 0.58337 -0.711393 0
M  V30 3522 C 600.306 1.70816 -1.51017 0
M  V30 3523 N 600.436 2.87826 -0.880757 0
M  V30 3524 N 600.176 1.67126 -2.8339 0
M  V30 3525 C 600.056 0.401421 -3.30572 0
M  V30 3526 H 597.077 -0.374722 -8.67691 0
M  V30 3527 H 596.807 -0.443485 -6.90277 0
M  V30 3528 H 597.674 1.75537 -7.96793 0
M  V30 3529 H 600.329 1.95076 -5.46529 0
M  V30 3530 H 600.608 -0.608565 -7.04577 0
M  V30 3531 H 601.6 0.889672 -7.08939 0
M  V30 3532 H 599.766 0.43308 -9.04564 0
M  V30 3533 H 599.717 -1.91249 -5.54442 0
M  V30 3534 H 600.399 0.718054 0.275244 0
M  V30 3535 H 600.436 3.75721 -1.41832 0
M  V30 3536 H 600.537 2.90436 0.145468 0
M  V30 3537 P 601.636 2.75334 -8.47391 0
M  V30 3538 O 601.856 3.84128 -9.44797 0
M  V30 3539 O 602.426 1.51947 -8.68712 0
M  V30 3540 O 601.886 3.29363 -6.99321 0
M  V30 3541 C 600.946 4.24011 -6.4274 0
M  V30 3542 C 601.676 5.20775 -5.52155 0
M  V30 3543 O 601.886 4.56534 -4.22446 0
M  V30 3544 C 603.076 5.62629 -5.96531 0
M  V30 3545 O 603.466 6.87667 -5.41053 0
M  V30 3546 C 603.956 4.52537 -5.39283 0
M  V30 3547 C 603.246 4.20027 -4.08623 0
M  V30 3548 N 603.296 2.76189 -3.71603 0
M  V30 3549 C 603.216 1.64862 -4.52822 0
M  V30 3550 N 603.296 0.512671 -3.88633 0
M  V30 3551 C 603.436 0.888083 -2.54977 0
M  V30 3552 C 603.566 0.094668 -1.38677 0
M  V30 3553 O 603.586 -1.13053 -1.28163 0
M  V30 3554 N 603.686 0.890102 -0.232633 0
M  V30 3555 C 603.686 2.26958 -0.21772 0
M  V30 3556 N 603.816 2.84626 0.97925 0
M  V30 3557 N 603.556 3.0178 -1.31033 0
M  V30 3558 C 603.436 2.26781 -2.43843 0
M  V30 3559 H 600.457 4.797 -7.24003 0
M  V30 3560 H 600.187 3.69856 -5.84513 0
M  V30 3561 H 601.054 6.10356 -5.41441 0
M  V30 3562 H 603.709 4.79061 -3.27488 0
M  V30 3563 H 603.988 3.64906 -6.05785 0
M  V30 3564 H 604.98 4.8868 -5.2125 0
M  V30 3565 H 603.146 5.66726 -7.06352 0
M  V30 3566 H 603.097 1.71169 -5.60966 0
M  V30 3567 H 603.779 0.419134 0.644739 0
M  V30 3568 H 603.816 3.87332 1.06098 0
M  V30 3569 H 603.917 2.26417 1.82483 0
M  V30 3570 P 605.016 7.20834 -5.23717 0
M  V30 3571 O 605.236 8.66104 -5.38572 0
M  V30 3572 O 605.806 6.33544 -6.1349 0
M  V30 3573 O 605.266 6.7751 -3.72168 0
M  V30 3574 C 604.326 7.20825 -2.7076 0
M  V30 3575 C 605.056 7.45864 -1.40599 0
M  V30 3576 O 605.266 6.17651 -0.734225 0
M  V30 3577 C 606.456 8.05808 -1.51899 0
M  V30 3578 O 606.846 8.74358 -0.335205 0
M  V30 3579 C 607.336 6.83093 -1.70294 0
M  V30 3580 C 606.626 5.79992 -0.836974 0
M  V30 3581 N 606.676 4.41864 -1.38293 0
M  V30 3582 H 603.837 8.13644 -3.0377 0
M  V30 3583 H 603.567 6.42788 -2.55485 0
M  V30 3584 H 604.434 8.12039 -0.792769 0
M  V30 3585 P 608.396 8.91 4.01252e-12 0
M  V30 3586 O 608.616 10.1736 0.733766 0
M  V30 3587 O 609.186 8.73247 -1.2395 0
M  V30 3588 O 608.646 7.66872 0.971405 0
M  V30 3589 C 607.706 7.42212 2.04614 0
M  V30 3590 C 608.436 6.86059 3.24661 0
M  V30 3591 O 608.646 5.42847 3.03646 0
M  V30 3592 C 609.836 7.41196 3.50753 0
M  V30 3593 O 610.226 7.27073 4.86816 0
M  V30 3594 C 610.716 6.5273 2.63741 0
M  V30 3595 C 610.006 5.1842 2.73198 0
M  V30 3596 N 610.056 4.38668 1.47808 0
M  V30 3597 C 610.206 3.02239 1.60048 0
M  V30 3598 O 610.296 2.46459 2.67869 0
M  V30 3599 N 610.246 2.32436 0.408571 0
M  V30 3600 C 610.156 2.85471 -0.854993 0
M  V30 3601 C 610.006 4.28918 -0.887335 0
M  V30 3602 C 609.956 5.00349 0.255399 0
M  V30 3603 H 607.216 8.36803 2.32493 0
M  V30 3604 H 606.947 6.701 1.71105 0
M  V30 3605 H 607.814 7.03551 4.13168 0
M  V30 3606 H 610.469 4.59773 3.53894 0
M  V30 3607 H 610.748 6.88995 1.59871 0
M  V30 3608 H 611.74 6.46749 3.03687 0
M  V30 3609 H 609.906 8.46908 3.20714 0
M  V30 3610 H 609.835 6.08548 0.206986 0
M  V30 3611 P 611.776 7.20834 5.23717 0
M  V30 3612 O 611.996 7.79853 6.57286 0
M  V30 3613 O 612.566 7.79239 4.12957 0
M  V30 3614 O 612.026 5.63315 5.29344 0
M  V30 3615 C 611.086 4.80255 6.01876 0
M  V30 3616 C 611.816 3.64202 6.65911 0
M  V30 3617 O 612.026 2.60694 5.64732 0
M  V30 3618 C 613.216 3.93473 7.1943 0
M  V30 3619 O 613.606 3.02071 8.21205 0
M  V30 3620 C 614.096 3.73047 5.97036 0
M  V30 3621 C 613.386 2.58828 5.25741 0
M  V30 3622 N 613.436 2.68068 3.77503 0
M  V30 3623 H 610.597 5.40332 6.79951 0
M  V30 3624 H 610.327 4.41613 5.32378 0
M  V30 3625 H 611.194 3.26331 7.47797 0
M  V30 3626 P 615.156 2.75334 8.47391 0
M  V30 3627 O 615.376 2.44595 9.90239 0
M  V30 3628 O 615.946 3.87732 7.92204 0
M  V30 3629 O 615.406 1.4459 7.59357 0
M  V30 3630 C 614.466 0.347563 7.69115 0
M  V30 3631 C 615.196 -0.96767 7.52806 0
M  V30 3632 O 615.406 -1.21036 6.1011 0
M  V30 3633 C 616.596 -1.04544 8.13308 0
M  V30 3634 O 616.986 -2.38311 8.41922 0
M  V30 3635 C 617.476 -0.491279 7.02284 0
M  V30 3636 C 616.766 -0.996264 5.77469 0
M  V30 3637 N 616.816 -0.0501808 4.62873 0
M  V30 3638 C 616.966 -0.588177 3.36904 0
M  V30 3639 O 617.056 -1.78598 3.17173 0
M  V30 3640 N 617.006 0.329694 2.33686 0
M  V30 3641 C 616.916 1.6953 2.45079 0
M  V30 3642 O 616.966 2.41926 1.44899 0
M  V30 3643 C 616.766 2.16933 3.80505 0
M  V30 3644 C 616.656 3.65373 3.97621 0
M  V30 3645 C 616.716 1.30326 4.83752 0
M  V30 3646 H 613.976 0.374722 8.67691 0
M  V30 3647 H 613.707 0.443421 6.90177 0
M  V30 3648 H 614.574 -1.75537 7.96793 0
M  V30 3649 H 617.229 -1.94496 5.46629 0
M  V30 3650 H 617.508 0.608651 7.04676 0
M  V30 3651 H 618.5 -0.889672 7.08939 0
M  V30 3652 H 616.666 -0.43308 9.04564 0
M  V30 3653 H 616.595 1.68366 5.8516 0
M  V30 3654 H 617.625 4.05985 4.30448 0
M  V30 3655 H 615.888 3.88028 4.72875 0
M  V30 3656 H 616.376 4.11381 3.01609 0
M  V30 3657 H 617.112 -0.0393617 1.41345 0
M  V30 3658 P 618.536 -2.75334 8.47391 0
M  V30 3659 O 618.756 -3.84204 9.44982 0
M  V30 3660 O 619.326 -1.51982 8.68909 0
M  V30 3661 O 618.786 -3.29363 6.99321 0
M  V30 3662 C 617.846 -4.24066 6.42823 0
M  V30 3663 C 618.576 -5.20775 5.52155 0
M  V30 3664 O 618.786 -4.56607 4.22514 0
M  V30 3665 C 619.976 -5.62697 5.96604 0
M  V30 3666 O 620.366 -6.87667 5.41053 0
M  V30 3667 C 620.856 -4.52537 5.39283 0
M  V30 3668 C 620.146 -4.20027 4.08623 0
M  V30 3669 N 620.196 -2.76189 3.71603 0
M  V30 3670 H 617.358 -4.79756 7.24086 0
M  V30 3671 H 617.086 -3.69963 5.84682 0
M  V30 3672 H 617.954 -6.10431 5.41508 0
M  V30 3673 H 620.609 -4.78816 3.28024 0
M  V30 3674 H 620.889 -3.64957 6.05871 0
M  V30 3675 H 621.88 -4.88748 5.21323 0
M  V30 3676 H 620.046 -5.66789 7.0643 0
M  V30 3677 P 621.916 -7.20834 5.23717 0
M  V30 3678 O 622.136 -8.66104 5.38572 0
M  V30 3679 O 622.706 -6.33544 6.1349 0
M  V30 3680 O 622.166 -6.7751 3.72168 0
M  V30 3681 C 621.226 -7.20825 2.7076 0
M  V30 3682 C 621.956 -7.45864 1.40599 0
M  V30 3683 O 622.166 -6.17651 0.734225 0
M  V30 3684 C 623.356 -8.05808 1.51899 0
M  V30 3685 O 623.746 -8.74358 0.335205 0
M  V30 3686 C 624.236 -6.83093 1.70294 0
M  V30 3687 C 623.526 -5.79992 0.836974 0
M  V30 3688 N 623.576 -4.41864 1.38293 0
M  V30 3689 H 620.737 -8.13644 3.0377 0
M  V30 3690 H 620.467 -6.42788 2.55485 0
M  V30 3691 H 621.334 -8.12039 0.792769 0
M  V30 3692 P 625.296 -8.91 -4.1697e-12 0
M  V30 3693 O 625.516 -10.1736 -0.733766 0
M  V30 3694 O 626.086 -8.73247 1.2395 0
M  V30 3695 O 625.546 -7.66872 -0.971405 0
M  V30 3696 C 624.606 -7.42212 -2.04614 0
M  V30 3697 C 625.336 -6.86059 -3.24661 0
M  V30 3698 O 625.546 -5.42847 -3.03646 0
M  V30 3699 C 626.736 -7.41196 -3.50753 0
M  V30 3700 O 627.126 -7.27073 -4.86816 0
M  V30 3701 C 627.616 -6.5273 -2.63741 0
M  V30 3702 C 626.906 -5.1842 -2.73198 0
M  V30 3703 N 626.956 -4.38668 -1.47808 0
M  V30 3704 C 627.106 -3.02239 -1.60048 0
M  V30 3705 O 627.196 -2.46459 -2.67869 0
M  V30 3706 N 627.146 -2.32436 -0.408571 0
M  V30 3707 C 627.056 -2.85471 0.854993 0
M  V30 3708 C 626.906 -4.28918 0.887335 0
M  V30 3709 C 626.856 -5.00349 -0.255399 0
M  V30 3710 H 624.116 -8.36803 -2.32493 0
M  V30 3711 H 623.847 -6.701 -1.71105 0
M  V30 3712 H 624.714 -7.03551 -4.13168 0
M  V30 3713 H 627.369 -4.59773 -3.53894 0
M  V30 3714 H 627.648 -6.88995 -1.59871 0
M  V30 3715 H 628.64 -6.46749 -3.03687 0
M  V30 3716 H 626.806 -8.46908 -3.20714 0
M  V30 3717 H 626.735 -6.08548 -0.206986 0
M  V30 3718 P 628.676 -7.20834 -5.23717 0
M  V30 3719 O 628.896 -7.79853 -6.57286 0
M  V30 3720 O 629.466 -7.79239 -4.12957 0
M  V30 3721 O 628.926 -5.63315 -5.29344 0
M  V30 3722 C 627.986 -4.80255 -6.01876 0
M  V30 3723 C 628.716 -3.64202 -6.65911 0
M  V30 3724 O 628.926 -2.60694 -5.64732 0
M  V30 3725 C 630.116 -3.93473 -7.1943 0
M  V30 3726 O 630.506 -3.02071 -8.21205 0
M  V30 3727 C 630.996 -3.73047 -5.97036 0
M  V30 3728 C 630.286 -2.58828 -5.25741 0
M  V30 3729 N 630.336 -2.68068 -3.77503 0
M  V30 3730 H 627.497 -5.40332 -6.79951 0
M  V30 3731 H 627.227 -4.41613 -5.32378 0
M  V30 3732 H 628.094 -3.26331 -7.47797 0
M  V30 3733 P 632.056 -2.75334 -8.47391 0
M  V30 3734 O 632.276 -2.44571 -9.90142 0
M  V30 3735 O 632.846 -3.87688 -7.92115 0
M  V30 3736 O 632.306 -1.4459 -7.59357 0
M  V30 3737 C 631.366 -0.347608 -7.69215 0
M  V30 3738 C 632.096 0.96767 -7.52806 0
M  V30 3739 O 632.306 1.21036 -6.1011 0
M  V30 3740 C 633.496 1.04544 -8.13308 0
M  V30 3741 O 633.886 2.38311 -8.41922 0
M  V30 3742 C 634.376 0.491279 -7.02284 0
M  V30 3743 C 633.666 0.996264 -5.77469 0
M  V30 3744 N 633.716 0.0501916 -4.62973 0
M  V30 3745 C 633.636 -1.32786 -4.63244 0
M  V30 3746 N 633.716 -1.86957 -3.44545 0
M  V30 3747 C 633.856 -0.780241 -2.58481 0
M  V30 3748 C 633.986 -0.738536 -1.17757 0
M  V30 3749 N 634.106 0.58337 -0.711393 0
M  V30 3750 C 634.106 1.70816 -1.51017 0
M  V30 3751 N 634.236 2.87826 -0.880757 0
M  V30 3752 N 633.976 1.67126 -2.8339 0
M  V30 3753 C 633.856 0.401421 -3.30572 0
M  V30 3754 H 630.877 -0.374722 -8.67691 0
M  V30 3755 H 630.607 -0.443485 -6.90277 0
M  V30 3756 H 631.474 1.75537 -7.96793 0
M  V30 3757 P 635.436 2.75334 -8.47391 0
M  V30 3758 O 635.656 3.84128 -9.44797 0
M  V30 3759 O 636.226 1.51947 -8.68712 0
M  V30 3760 O 635.686 3.29363 -6.99321 0
M  V30 3761 C 634.746 4.24011 -6.4274 0
M  V30 3762 C 635.476 5.20775 -5.52155 0
M  V30 3763 O 635.686 4.56534 -4.22446 0
M  V30 3764 C 636.876 5.62629 -5.96531 0
M  V30 3765 O 637.266 6.87667 -5.41053 0
M  V30 3766 C 637.756 4.52537 -5.39283 0
M  V30 3767 C 637.046 4.20027 -4.08623 0
M  V30 3768 N 637.096 2.76189 -3.71603 0
M  V30 3769 C 637.016 1.64862 -4.52822 0
M  V30 3770 N 637.096 0.512671 -3.88633 0
M  V30 3771 C 637.236 0.888083 -2.54977 0
M  V30 3772 C 637.366 0.094668 -1.38677 0
M  V30 3773 O 637.386 -1.13053 -1.28163 0
M  V30 3774 N 637.486 0.890102 -0.232633 0
M  V30 3775 C 637.486 2.26958 -0.21772 0
M  V30 3776 N 637.616 2.84626 0.97925 0
M  V30 3777 N 637.356 3.0178 -1.31033 0
M  V30 3778 C 637.236 2.26781 -2.43843 0
M  V30 3779 H 634.257 4.797 -7.24003 0
M  V30 3780 H 633.987 3.69856 -5.84513 0
M  V30 3781 H 634.854 6.10356 -5.41441 0
M  V30 3782 H 637.509 4.79061 -3.27488 0
M  V30 3783 H 637.788 3.64906 -6.05785 0
M  V30 3784 H 638.78 4.8868 -5.2125 0
M  V30 3785 H 636.946 5.66726 -7.06352 0
M  V30 3786 H 636.897 1.71169 -5.60966 0
M  V30 3787 H 637.579 0.419134 0.644739 0
M  V30 3788 H 637.616 3.87332 1.06098 0
M  V30 3789 H 637.717 2.26417 1.82483 0
M  V30 3790 P 638.816 7.20834 -5.23717 0
M  V30 3791 O 639.036 8.66274 -5.38678 0
M  V30 3792 O 639.606 6.33687 -6.13629 0
M  V30 3793 O 639.066 6.7751 -3.72168 0
M  V30 3794 C 638.126 7.20919 -2.70795 0
M  V30 3795 C 638.856 7.45864 -1.40599 0
M  V30 3796 O 639.066 6.17751 -0.734343 0
M  V30 3797 C 640.256 8.05906 -1.51917 0
M  V30 3798 O 640.646 8.74358 -0.335205 0
M  V30 3799 C 641.136 6.83093 -1.70294 0
M  V30 3800 C 640.426 5.79992 -0.836974 0
M  V30 3801 N 640.476 4.41864 -1.38293 0
M  V30 3802 C 640.396 4.02089 -2.69407 0
M  V30 3803 N 640.466 2.73403 -2.85089 0
M  V30 3804 C 640.616 2.25086 -1.5642 0
M  V30 3805 C 640.746 0.942887 -1.04836 0
M  V30 3806 N 640.756 -0.150999 -1.80369 0
M  V30 3807 N 640.866 0.812565 0.28167 0
M  V30 3808 C 640.856 1.90572 1.03784 0
M  V30 3809 N 640.736 3.167 0.683905 0
M  V30 3810 C 640.616 3.26538 -0.652815 0
M  V30 3811 H 637.638 8.13738 -3.03804 0
M  V30 3812 H 637.366 6.42974 -2.55559 0
M  V30 3813 H 638.234 8.12139 -0.792866 0
M  V30 3814 H 640.889 5.80178 0.160643 0
M  V30 3815 H 641.169 6.51379 -2.75643 0
M  V30 3816 H 642.16 7.01832 -1.3448 0
M  V30 3817 H 640.326 8.73771 -2.38364 0
M  V30 3818 H 640.285 4.7189 -3.52311 0
M  V30 3819 H 640.666 -0.0721434 -2.82608 0
M  V30 3820 H 640.855 -1.0785 -1.36544 0
M  V30 3821 H 640.963 1.73207 2.10241 0
M  V30 3822 P 642.196 8.91 4.32688e-12 0
M  V30 3823 O 642.416 10.1736 0.733766 0
M  V30 3824 O 642.986 8.73247 -1.2395 0
M  V30 3825 O 642.446 7.66872 0.971405 0
M  V30 3826 C 641.506 7.42212 2.04614 0
M  V30 3827 C 642.236 6.86059 3.24661 0
M  V30 3828 O 642.446 5.42847 3.03646 0
M  V30 3829 C 643.636 7.41196 3.50753 0
M  V30 3830 O 644.026 7.27073 4.86816 0
M  V30 3831 C 644.516 6.5273 2.63741 0
M  V30 3832 C 643.806 5.1842 2.73198 0
M  V30 3833 N 643.856 4.38668 1.47808 0
M  V30 3834 C 644.006 3.02239 1.60048 0
M  V30 3835 O 644.096 2.46459 2.67869 0
M  V30 3836 N 644.046 2.32436 0.408571 0
M  V30 3837 C 643.956 2.85471 -0.854993 0
M  V30 3838 O 644.006 2.12566 -1.8531 0
M  V30 3839 C 643.806 4.28918 -0.887335 0
M  V30 3840 C 643.696 4.91066 -2.24619 0
M  V30 3841 C 643.756 5.00349 0.255399 0
M  V30 3842 H 641.016 8.36803 2.32493 0
M  V30 3843 H 640.747 6.701 1.71105 0
M  V30 3844 H 641.614 7.03551 4.13168 0
M  V30 3845 H 644.269 4.59773 3.53894 0
M  V30 3846 H 644.548 6.88995 1.59871 0
M  V30 3847 H 645.54 6.46749 3.03687 0
M  V30 3848 H 643.706 8.46908 3.20714 0
M  V30 3849 H 643.635 6.08548 0.206986 0
M  V30 3850 H 644.665 5.34836 -2.53099 0
M  V30 3851 H 642.928 5.69638 -2.2291 0
M  V30 3852 H 643.416 4.13971 -2.98044 0
M  V30 3853 H 644.152 1.33211 0.474216 0
M  V30 3854 P 645.576 7.20834 5.23717 0
M  V30 3855 O 645.796 7.7993 6.57351 0
M  V30 3856 O 646.366 7.79328 4.13004 0
M  V30 3857 O 645.826 5.63315 5.29344 0
M  V30 3858 C 644.886 4.80255 6.01876 0
M  V30 3859 C 645.616 3.64202 6.65911 0
M  V30 3860 O 645.826 2.60694 5.64732 0
M  V30 3861 C 647.016 3.93473 7.1943 0
M  V30 3862 O 647.406 3.02071 8.21205 0
M  V30 3863 C 647.896 3.73047 5.97036 0
M  V30 3864 C 647.186 2.58828 5.25741 0
M  V30 3865 N 647.236 2.6801 3.77422 0
M  V30 3866 C 647.386 1.50173 3.05038 0
M  V30 3867 O 647.476 0.428832 3.665 0
M  V30 3868 N 647.436 1.70922 1.55541 0
M  V30 3869 C 647.336 2.7407 1.06402 0
M  V30 3870 N 647.386 2.74764 -0.260931 0
M  V30 3871 C 647.186 3.96781 1.78296 0
M  V30 3872 C 647.136 3.87909 3.13891 0
M  V30 3873 H 644.396 5.4027 6.79873 0
M  V30 3874 H 644.127 4.41549 5.32301 0
M  V30 3875 H 644.994 3.26371 7.47889 0
M  V30 3876 H 647.649 1.63978 5.5665 0
M  V30 3877 H 647.928 4.63439 5.3432 0
M  V30 3878 H 648.92 3.44728 6.25838 0
M  V30 3879 H 647.086 4.96652 7.57263 0
M  V30 3880 H 647.014 4.78425 3.73088 0
M  V30 3881 H 647.116 4.92593 1.26997 0
M  V30 3882 H 647.504 1.86285 -0.77595 0
M  V30 3883 H 647.307 3.63657 -0.773896 0
M  V30 3884 P 648.956 2.75334 8.47391 0
M  V30 3885 O 649.176 2.44571 9.90142 0
M  V30 3886 O 649.746 3.87688 7.92115 0
M  V30 3887 O 649.206 1.4459 7.59357 0
M  V30 3888 C 648.266 0.347608 7.69215 0
M  V30 3889 C 648.996 -0.96767 7.52806 0
M  V30 3890 O 649.206 -1.21036 6.1011 0
M  V30 3891 C 650.396 -1.04544 8.13308 0
M  V30 3892 O 650.786 -2.38311 8.41922 0
M  V30 3893 C 651.276 -0.491279 7.02284 0
M  V30 3894 C 650.566 -0.996264 5.77469 0
M  V30 3895 N 650.616 -0.0501916 4.62973 0
M  V30 3896 H 647.777 0.374722 8.67691 0
M  V30 3897 H 647.507 0.443485 6.90277 0
M  V30 3898 H 648.374 -1.75537 7.96793 0
M  V30 3899 P 652.336 -2.75334 8.47391 0
M  V30 3900 O 652.556 -3.84204 9.44982 0
M  V30 3901 O 653.126 -1.51982 8.68909 0
M  V30 3902 O 652.586 -3.29363 6.99321 0
M  V30 3903 C 651.646 -4.24066 6.42823 0
M  V30 3904 C 652.376 -5.20775 5.52155 0
M  V30 3905 O 652.586 -4.56607 4.22514 0
M  V30 3906 C 653.776 -5.62697 5.96604 0
M  V30 3907 O 654.166 -6.87667 5.41053 0
M  V30 3908 C 654.656 -4.52537 5.39283 0
M  V30 3909 C 653.946 -4.20027 4.08623 0
M  V30 3910 N 653.996 -2.76189 3.71603 0
M  V30 3911 C 653.916 -1.66944 4.54297 0
M  V30 3912 N 653.986 -0.536169 3.91344 0
M  V30 3913 C 654.136 -0.901569 2.58849 0
M  V30 3914 C 654.266 -0.146599 1.40236 0
M  V30 3915 N 654.276 1.18234 1.37046 0
M  V30 3916 N 654.386 -0.822941 0.249738 0
M  V30 3917 C 654.376 -2.15179 0.280525 0
M  V30 3918 N 654.256 -2.96414 1.30822 0
M  V30 3919 C 654.136 -2.25804 2.44748 0
M  V30 3920 H 651.158 -4.79756 7.24086 0
M  V30 3921 H 650.886 -3.69963 5.84682 0
M  V30 3922 H 651.754 -6.10431 5.41508 0
M  V30 3923 H 654.409 -4.78816 3.28024 0
M  V30 3924 H 654.689 -3.64957 6.05871 0
M  V30 3925 H 655.68 -4.88748 5.21323 0
M  V30 3926 H 653.846 -5.66789 7.0643 0
M  V30 3927 H 653.805 -1.74684 5.62396 0
M  V30 3928 H 654.186 1.71949 2.24394 0
M  V30 3929 H 654.375 1.67511 0.470742 0
M  V30 3930 H 654.483 -2.63704 -0.6828 0
M  V30 3931 P 655.716 -7.20834 5.23717 0
M  V30 3932 O 655.936 -8.66189 5.38625 0
M  V30 3933 O 656.506 -6.33615 6.1356 0
M  V30 3934 O 655.966 -6.7751 3.72168 0
M  V30 3935 C 655.026 -7.20825 2.7076 0
M  V30 3936 C 655.756 -7.45864 1.40599 0
M  V30 3937 O 655.966 -6.17651 0.734225 0
M  V30 3938 C 657.156 -8.05808 1.51899 0
M  V30 3939 O 657.546 -8.74358 0.335205 0
M  V30 3940 C 658.036 -6.83093 1.70294 0
M  V30 3941 C 657.326 -5.79992 0.836974 0
M  V30 3942 N 657.376 -4.41769 1.38263 0
M  V30 3943 C 657.526 -3.36514 0.485617 0
M  V30 3944 O 657.616 -3.61814 -0.724703 0
M  V30 3945 N 657.576 -2.00746 1.14492 0
M  V30 3946 C 657.476 -1.85887 2.27776 0
M  V30 3947 N 657.526 -0.600907 2.69379 0
M  V30 3948 C 657.326 -2.92182 3.22265 0
M  V30 3949 C 657.276 -4.18399 2.71925 0
M  V30 3950 H 654.536 -8.1355 3.03735 0
M  V30 3951 H 654.267 -6.42695 2.55448 0
M  V30 3952 H 655.134 -8.12139 0.792866 0
M  V30 3953 H 657.789 -5.80078 -0.160615 0
M  V30 3954 H 658.068 -6.51379 2.75643 0
M  V30 3955 H 659.06 -7.01734 1.34462 0
M  V30 3956 H 657.226 -8.73674 2.38337 0
M  V30 3957 H 657.154 -5.02669 3.39718 0
M  V30 3958 H 657.256 -2.73001 4.29239 0
M  V30 3959 H 657.644 0.162318 2.01146 0
M  V30 3960 H 657.447 -0.387742 3.69773 0
M  V30 3961 P 659.096 -8.91 -4.48406e-12 0
M  V30 3962 O 659.316 -10.1726 -0.733694 0
M  V30 3963 O 659.886 -8.73148 1.23936 0
M  V30 3964 O 659.346 -7.66872 -0.971405 0
M  V30 3965 C 658.406 -7.42309 -2.04641 0
M  V30 3966 C 659.136 -6.86059 -3.24661 0
M  V30 3967 O 659.346 -5.42847 -3.03646 0
M  V30 3968 C 660.536 -7.41196 -3.50753 0
M  V30 3969 O 660.926 -7.27073 -4.86816 0
M  V30 3970 C 661.416 -6.5273 -2.63741 0
M  V30 3971 C 660.706 -5.1842 -2.73198 0
M  V30 3972 N 660.756 -4.38762 -1.4784 0
M  V30 3973 H 657.917 -8.36803 -2.32493 0
M  V30 3974 H 657.647 -6.70197 -1.71129 0
M  V30 3975 H 658.514 -7.03551 -4.13168 0
M  V30 3976 P 662.476 -7.20834 -5.23717 0
M  V30 3977 O 662.696 -7.79853 -6.57286 0
M  V30 3978 O 663.266 -7.79239 -4.12957 0
M  V30 3979 O 662.726 -5.63315 -5.29344 0
M  V30 3980 C 661.786 -4.80255 -6.01876 0
M  V30 3981 C 662.516 -3.64202 -6.65911 0
M  V30 3982 O 662.726 -2.60694 -5.64732 0
M  V30 3983 C 663.916 -3.93473 -7.1943 0
M  V30 3984 O 664.306 -3.02071 -8.21205 0
M  V30 3985 C 664.796 -3.73047 -5.97036 0
M  V30 3986 C 664.086 -2.58828 -5.25741 0
M  V30 3987 N 664.136 -2.68068 -3.77503 0
M  V30 3988 H 661.297 -5.40332 -6.79951 0
M  V30 3989 H 661.027 -4.41613 -5.32378 0
M  V30 3990 H 661.894 -3.26331 -7.47797 0
M  V30 3991 P 665.856 -2.75334 -8.47391 0
M  V30 3992 O 666.076 -2.44571 -9.90142 0
M  V30 3993 O 666.646 -3.87688 -7.92115 0
M  V30 3994 O 666.106 -1.4459 -7.59357 0
M  V30 3995 C 665.166 -0.347608 -7.69215 0
M  V30 3996 C 665.896 0.96767 -7.52806 0
M  V30 3997 O 666.106 1.21036 -6.1011 0
M  V30 3998 C 667.296 1.04544 -8.13308 0
M  V30 3999 O 667.686 2.38311 -8.41922 0
M  V30 4000 C 668.176 0.491279 -7.02284 0
M  V30 4001 C 667.466 0.996264 -5.77469 0
M  V30 4002 N 667.516 0.0501916 -4.62973 0
M  V30 4003 H 664.677 -0.374722 -8.67691 0
M  V30 4004 H 664.407 -0.443485 -6.90277 0
M  V30 4005 H 665.274 1.75537 -7.96793 0
M  V30 4006 P 669.236 2.75334 -8.47391 0
M  V30 4007 O 669.456 3.84128 -9.44797 0
M  V30 4008 O 670.026 1.51947 -8.68712 0
M  V30 4009 O 669.486 3.29363 -6.99321 0
M  V30 4010 C 668.546 4.24011 -6.4274 0
M  V30 4011 C 669.276 5.20775 -5.52155 0
M  V30 4012 O 669.486 4.56534 -4.22446 0
M  V30 4013 C 670.676 5.62629 -5.96531 0
M  V30 4014 O 671.066 6.87667 -5.41053 0
M  V30 4015 C 671.556 4.52537 -5.39283 0
M  V30 4016 C 670.846 4.20027 -4.08623 0
M  V30 4017 N 670.896 2.76189 -3.71603 0
M  V30 4018 H 668.057 4.797 -7.24003 0
M  V30 4019 H 667.787 3.69856 -5.84513 0
M  V30 4020 H 668.654 6.10356 -5.41441 0
M  V30 4021 P 672.616 7.20834 -5.23717 0
M  V30 4022 O 672.836 8.66104 -5.38572 0
M  V30 4023 O 673.406 6.33544 -6.1349 0
M  V30 4024 O 672.866 6.7751 -3.72168 0
M  V30 4025 C 671.926 7.20825 -2.7076 0
M  V30 4026 C 672.656 7.45864 -1.40599 0
M  V30 4027 O 672.866 6.17651 -0.734225 0
M  V30 4028 C 674.056 8.05808 -1.51899 0
M  V30 4029 O 674.446 8.74358 -0.335205 0
M  V30 4030 C 674.936 6.83093 -1.70294 0
M  V30 4031 C 674.226 5.79992 -0.836974 0
M  V30 4032 N 674.276 4.41864 -1.38293 0
M  V30 4033 H 671.437 8.13644 -3.0377 0
M  V30 4034 H 671.167 6.42788 -2.55485 0
M  V30 4035 H 672.034 8.12039 -0.792769 0
M  V30 4036 P 675.996 8.91 4.64125e-12 0
M  V30 4037 O 676.216 10.1736 0.733766 0
M  V30 4038 O 676.786 8.73247 -1.2395 0
M  V30 4039 O 676.246 7.66872 0.971405 0
M  V30 4040 C 675.306 7.42309 2.04641 0
M  V30 4041 C 676.036 6.86059 3.24661 0
M  V30 4042 O 676.246 5.42847 3.03646 0
M  V30 4043 C 677.436 7.41196 3.50753 0
M  V30 4044 O 677.826 7.27073 4.86816 0
M  V30 4045 C 678.316 6.5273 2.63741 0
M  V30 4046 C 677.606 5.1842 2.73198 0
M  V30 4047 N 677.656 4.38668 1.47808 0
M  V30 4048 C 677.806 3.00789 1.58511 0
M  V30 4049 O 677.896 2.50116 2.71298 0
M  V30 4050 N 677.856 2.29703 0.253698 0
M  V30 4051 C 677.756 2.84269 -0.750133 0
M  V30 4052 N 677.806 2.06951 -1.82612 0
M  V30 4053 C 677.606 4.25803 -0.889776 0
M  V30 4054 C 677.556 4.98326 0.259363 0
M  V30 4055 H 674.816 8.36707 2.32466 0
M  V30 4056 H 674.547 6.701 1.71105 0
M  V30 4057 H 675.414 7.03638 4.13219 0
M  V30 4058 H 678.069 4.59852 3.53955 0
M  V30 4059 H 678.348 6.88995 1.59871 0
M  V30 4060 H 679.34 6.46749 3.03687 0
M  V30 4061 H 677.506 8.46908 3.20714 0
M  V30 4062 H 677.434 6.06349 0.206238 0
M  V30 4063 H 677.536 4.73163 -1.86796 0
M  V30 4064 H 677.924 1.05099 -1.72271 0
M  V30 4065 H 677.727 2.48716 -2.76361 0
M  V30 4066 P 679.376 7.20834 5.23717 0
M  V30 4067 O 679.596 7.79853 6.57286 0
M  V30 4068 O 680.166 7.79239 4.12957 0
M  V30 4069 O 679.626 5.63315 5.29344 0
M  V30 4070 C 678.686 4.80255 6.01876 0
M  V30 4071 C 679.416 3.64202 6.65911 0
M  V30 4072 O 679.626 2.60694 5.64732 0
M  V30 4073 C 680.816 3.93473 7.1943 0
M  V30 4074 O 681.206 3.02071 8.21205 0
M  V30 4075 C 681.696 3.73047 5.97036 0
M  V30 4076 C 680.986 2.58828 5.25741 0
M  V30 4077 N 681.036 2.68068 3.77503 0
M  V30 4078 H 678.197 5.40332 6.79951 0
M  V30 4079 H 677.927 4.41613 5.32378 0
M  V30 4080 H 678.794 3.26331 7.47797 0
M  V30 4081 P 682.756 2.75334 8.47391 0
M  V30 4082 O 682.976 2.44571 9.90142 0
M  V30 4083 O 683.546 3.87688 7.92115 0
M  V30 4084 O 683.006 1.4459 7.59357 0
M  V30 4085 C 682.066 0.347608 7.69215 0
M  V30 4086 C 682.796 -0.96767 7.52806 0
M  V30 4087 O 683.006 -1.21036 6.1011 0
M  V30 4088 C 684.196 -1.04544 8.13308 0
M  V30 4089 O 684.586 -2.38311 8.41922 0
M  V30 4090 C 685.076 -0.491279 7.02284 0
M  V30 4091 C 684.366 -0.996264 5.77469 0
M  V30 4092 N 684.416 -0.0501916 4.62973 0
M  V30 4093 H 681.577 0.374722 8.67691 0
M  V30 4094 H 681.307 0.443485 6.90277 0
M  V30 4095 H 682.174 -1.75537 7.96793 0
M  V30 4096 P 686.136 -2.75334 8.47391 0
M  V30 4097 O 686.356 -3.84128 9.44797 0
M  V30 4098 O 686.926 -1.51947 8.68712 0
M  V30 4099 O 686.386 -3.29363 6.99321 0
M  V30 4100 C 685.446 -4.24011 6.4274 0
M  V30 4101 C 686.176 -5.20775 5.52155 0
M  V30 4102 O 686.386 -4.56534 4.22446 0
M  V30 4103 C 687.576 -5.62629 5.96531 0
M  V30 4104 O 687.966 -6.87667 5.41053 0
M  V30 4105 C 688.456 -4.52537 5.39283 0
M  V30 4106 C 687.746 -4.20027 4.08623 0
M  V30 4107 N 687.796 -2.76189 3.71603 0
M  V30 4108 H 684.957 -4.797 7.24003 0
M  V30 4109 H 684.687 -3.69856 5.84513 0
M  V30 4110 H 685.554 -6.10356 5.41441 0
M  V30 4111 P 689.516 -7.20834 5.23717 0
M  V30 4112 O 689.736 -8.66104 5.38572 0
M  V30 4113 O 690.306 -6.33544 6.1349 0
M  V30 4114 O 689.766 -6.7751 3.72168 0
M  V30 4115 C 688.826 -7.20825 2.7076 0
M  V30 4116 C 689.556 -7.45864 1.40599 0
M  V30 4117 O 689.766 -6.17651 0.734225 0
M  V30 4118 C 690.956 -8.05808 1.51899 0
M  V30 4119 O 691.346 -8.74358 0.335205 0
M  V30 4120 C 691.836 -6.83093 1.70294 0
M  V30 4121 C 691.126 -5.79992 0.836974 0
M  V30 4122 N 691.176 -4.41864 1.38293 0
M  V30 4123 H 688.337 -8.13644 3.0377 0
M  V30 4124 H 688.067 -6.42788 2.55485 0
M  V30 4125 H 688.934 -8.12039 0.792769 0
M  V30 4126 P 692.896 -8.91 -4.67181e-12 0
M  V30 4127 O 693.116 -10.1736 -0.733766 0
M  V30 4128 O 693.686 -8.73247 1.2395 0
M  V30 4129 O 693.146 -7.66872 -0.971405 0
M  V30 4130 C 692.206 -7.42309 -2.04641 0
M  V30 4131 C 692.936 -6.86059 -3.24661 0
M  V30 4132 O 693.146 -5.42847 -3.03646 0
M  V30 4133 C 694.336 -7.41196 -3.50753 0
M  V30 4134 O 694.726 -7.27073 -4.86816 0
M  V30 4135 C 695.216 -6.5273 -2.63741 0
M  V30 4136 C 694.506 -5.1842 -2.73198 0
M  V30 4137 N 694.556 -4.38668 -1.47808 0
M  V30 4138 C 694.706 -3.00789 -1.58511 0
M  V30 4139 O 694.796 -2.50116 -2.71298 0
M  V30 4140 N 694.756 -2.29703 -0.253698 0
M  V30 4141 C 694.656 -2.84269 0.750133 0
M  V30 4142 N 694.706 -2.06951 1.82612 0
M  V30 4143 C 694.506 -4.25803 0.889776 0
M  V30 4144 C 694.456 -4.98326 -0.259363 0
M  V30 4145 H 691.716 -8.36707 -2.32466 0
M  V30 4146 H 691.447 -6.701 -1.71105 0
M  V30 4147 H 692.314 -7.03638 -4.13219 0
M  V30 4148 H 694.969 -4.59852 -3.53955 0
M  V30 4149 H 695.248 -6.88995 -1.59871 0
M  V30 4150 H 696.24 -6.46749 -3.03687 0
M  V30 4151 H 694.406 -8.46908 -3.20714 0
M  V30 4152 H 694.334 -6.06349 -0.206238 0
M  V30 4153 H 694.436 -4.73163 1.86796 0
M  V30 4154 H 694.824 -1.05099 1.72271 0
M  V30 4155 H 694.627 -2.48716 2.76361 0
M  V30 4156 P 696.276 -7.20834 -5.23717 0
M  V30 4157 O 696.496 -7.79853 -6.57286 0
M  V30 4158 O 697.066 -7.79239 -4.12957 0
M  V30 4159 O 696.526 -5.63315 -5.29344 0
M  V30 4160 C 695.586 -4.80255 -6.01876 0
M  V30 4161 C 696.316 -3.64202 -6.65911 0
M  V30 4162 O 696.526 -2.60694 -5.64732 0
M  V30 4163 C 697.716 -3.93473 -7.1943 0
M  V30 4164 O 698.106 -3.02071 -8.21205 0
M  V30 4165 C 698.596 -3.73047 -5.97036 0
M  V30 4166 C 697.886 -2.58828 -5.25741 0
M  V30 4167 N 697.936 -2.68068 -3.77503 0
M  V30 4168 H 695.097 -5.40332 -6.79951 0
M  V30 4169 H 694.827 -4.41613 -5.32378 0
M  V30 4170 H 695.694 -3.26331 -7.47797 0
M  V30 4171 P 699.656 -2.75334 -8.47391 0
M  V30 4172 O 699.876 -2.44571 -9.90142 0
M  V30 4173 O 700.446 -3.87688 -7.92115 0
M  V30 4174 O 699.906 -1.4459 -7.59357 0
M  V30 4175 C 698.966 -0.347608 -7.69215 0
M  V30 4176 C 699.696 0.96767 -7.52806 0
M  V30 4177 O 699.906 1.21036 -6.1011 0
M  V30 4178 C 701.096 1.04544 -8.13308 0
M  V30 4179 O 701.486 2.38311 -8.41922 0
M  V30 4180 C 701.976 0.491279 -7.02284 0
M  V30 4181 C 701.266 0.996264 -5.77469 0
M  V30 4182 N 701.316 0.0501916 -4.62973 0
M  V30 4183 H 698.477 -0.374722 -8.67691 0
M  V30 4184 H 698.207 -0.443485 -6.90277 0
M  V30 4185 H 699.074 1.75537 -7.96793 0
M  V30 4186 P 703.036 2.75334 -8.47391 0
M  V30 4187 O 703.256 3.84128 -9.44797 0
M  V30 4188 O 703.826 1.51947 -8.68712 0
M  V30 4189 O 703.286 3.29363 -6.99321 0
M  V30 4190 C 702.346 4.24011 -6.4274 0
M  V30 4191 C 703.076 5.20775 -5.52155 0
M  V30 4192 O 703.286 4.56534 -4.22446 0
M  V30 4193 C 704.476 5.62629 -5.96531 0
M  V30 4194 O 704.866 6.87667 -5.41053 0
M  V30 4195 C 705.356 4.52537 -5.39283 0
M  V30 4196 C 704.646 4.20027 -4.08623 0
M  V30 4197 N 704.696 2.76189 -3.71603 0
M  V30 4198 C 704.616 1.64862 -4.52822 0
M  V30 4199 N 704.696 0.512671 -3.88633 0
M  V30 4200 C 704.836 0.888083 -2.54977 0
M  V30 4201 C 704.966 0.094668 -1.38677 0
M  V30 4202 N 705.086 0.890102 -0.232633 0
M  V30 4203 C 705.086 2.26958 -0.21772 0
M  V30 4204 N 705.216 2.84626 0.97925 0
M  V30 4205 N 704.956 3.0178 -1.31033 0
M  V30 4206 C 704.836 2.26781 -2.43843 0
M  V30 4207 H 701.857 4.797 -7.24003 0
M  V30 4208 H 701.587 3.69856 -5.84513 0
M  V30 4209 H 702.454 6.10356 -5.41441 0
M  V30 4210 P 706.416 7.20834 -5.23717 0
M  V30 4211 O 706.636 8.66104 -5.38572 0
M  V30 4212 O 707.206 6.33544 -6.1349 0
M  V30 4213 O 706.666 6.7751 -3.72168 0
M  V30 4214 C 705.726 7.20825 -2.7076 0
M  V30 4215 C 706.456 7.45864 -1.40599 0
M  V30 4216 O 706.666 6.17651 -0.734225 0
M  V30 4217 C 707.856 8.05808 -1.51899 0
M  V30 4218 O 708.246 8.74358 -0.335205 0
M  V30 4219 C 708.736 6.83093 -1.70294 0
M  V30 4220 C 708.026 5.79992 -0.836974 0
M  V30 4221 N 708.076 4.41864 -1.38293 0
M  V30 4222 H 705.237 8.13644 -3.0377 0
M  V30 4223 H 704.967 6.42788 -2.55485 0
M  V30 4224 H 705.834 8.12039 -0.792769 0
M  V30 4225 P 709.796 8.91 4.82899e-12 0
M  V30 4226 O 710.016 10.1726 0.733694 0
M  V30 4227 O 710.586 8.73148 -1.23936 0
M  V30 4228 O 710.046 7.66872 0.971405 0
M  V30 4229 C 709.106 7.42309 2.04641 0
M  V30 4230 C 709.836 6.86059 3.24661 0
M  V30 4231 O 710.046 5.42847 3.03646 0
M  V30 4232 C 711.236 7.41196 3.50753 0
M  V30 4233 O 711.626 7.27073 4.86816 0
M  V30 4234 C 712.116 6.5273 2.63741 0
M  V30 4235 C 711.406 5.1842 2.73198 0
M  V30 4236 N 711.456 4.38762 1.4784 0
M  V30 4237 C 711.376 4.81605 0.168631 0
M  V30 4238 N 711.456 3.85454 -0.713363 0
M  V30 4239 C 711.596 2.6994 0.0566958 0
M  V30 4240 C 711.726 1.34815 -0.338502 0
M  V30 4241 N 711.846 0.496304 0.77465 0
M  V30 4242 C 711.846 0.908403 2.09122 0
M  V30 4243 N 711.976 -0.0517805 3.00955 0
M  V30 4244 N 711.716 2.17875 2.46519 0
M  V30 4245 C 711.596 3.01988 1.4033 0
M  V30 4246 H 708.617 8.36803 2.32493 0
M  V30 4247 H 708.347 6.70197 1.71129 0
M  V30 4248 H 709.214 7.03551 4.13168 0
M  V30 4249 P 713.176 7.20834 5.23717 0
M  V30 4250 O 713.396 7.79853 6.57286 0
M  V30 4251 O 713.966 7.79239 4.12957 0
M  V30 4252 O 713.426 5.63315 5.29344 0
M  V30 4253 C 712.486 4.80255 6.01876 0
M  V30 4254 C 713.216 3.64202 6.65911 0
M  V30 4255 O 713.426 2.60694 5.64732 0
M  V30 4256 C 714.616 3.93473 7.1943 0
M  V30 4257 O 715.006 3.02071 8.21205 0
M  V30 4258 C 715.496 3.73047 5.97036 0
M  V30 4259 C 714.786 2.58828 5.25741 0
M  V30 4260 N 714.836 2.68068 3.77503 0
M  V30 4261 H 711.997 5.40332 6.79951 0
M  V30 4262 H 711.727 4.41613 5.32378 0
M  V30 4263 H 712.594 3.26331 7.47797 0
M  V30 4264 P 716.556 2.75334 8.47391 0
M  V30 4265 O 716.776 2.44571 9.90142 0
M  V30 4266 O 717.346 3.87688 7.92115 0
M  V30 4267 O 716.806 1.4459 7.59357 0
M  V30 4268 C 715.866 0.347608 7.69215 0
M  V30 4269 C 716.596 -0.96767 7.52806 0
M  V30 4270 O 716.806 -1.21036 6.1011 0
M  V30 4271 C 717.996 -1.04544 8.13308 0
M  V30 4272 O 718.386 -2.38311 8.41922 0
M  V30 4273 C 718.876 -0.491279 7.02284 0
M  V30 4274 C 718.166 -0.996264 5.77469 0
M  V30 4275 N 718.216 -0.0501916 4.62973 0
M  V30 4276 H 715.377 0.374722 8.67691 0
M  V30 4277 H 715.107 0.443485 6.90277 0
M  V30 4278 H 715.974 -1.75537 7.96793 0
M  V30 4279 P 719.936 -2.75334 8.47391 0
M  V30 4280 O 720.156 -3.84128 9.44797 0
M  V30 4281 O 720.726 -1.51947 8.68712 0
M  V30 4282 O 720.186 -3.29363 6.99321 0
M  V30 4283 C 719.246 -4.24011 6.4274 0
M  V30 4284 C 719.976 -5.20775 5.52155 0
M  V30 4285 O 720.186 -4.56534 4.22446 0
M  V30 4286 C 721.376 -5.62629 5.96531 0
M  V30 4287 O 721.766 -6.87667 5.41053 0
M  V30 4288 C 722.256 -4.52537 5.39283 0
M  V30 4289 C 721.546 -4.20027 4.08623 0
M  V30 4290 N 721.596 -2.76189 3.71603 0
M  V30 4291 H 718.757 -4.797 7.24003 0
M  V30 4292 H 718.487 -3.69856 5.84513 0
M  V30 4293 H 719.354 -6.10356 5.41441 0
M  V30 4294 P 723.316 -7.20834 5.23717 0
M  V30 4295 O 723.536 -8.66104 5.38572 0
M  V30 4296 O 724.106 -6.33544 6.1349 0
M  V30 4297 O 723.566 -6.7751 3.72168 0
M  V30 4298 C 722.626 -7.20825 2.7076 0
M  V30 4299 C 723.356 -7.45864 1.40599 0
M  V30 4300 O 723.566 -6.17651 0.734225 0
M  V30 4301 C 724.756 -8.05808 1.51899 0
M  V30 4302 O 725.146 -8.74358 0.335205 0
M  V30 4303 C 725.636 -6.83093 1.70294 0
M  V30 4304 C 724.926 -5.79992 0.836974 0
M  V30 4305 N 724.976 -4.41864 1.38293 0
M  V30 4306 H 722.137 -8.13644 3.0377 0
M  V30 4307 H 721.867 -6.42788 2.55485 0
M  V30 4308 H 722.734 -8.12039 0.792769 0
M  V30 4309 P 726.696 -8.91 -4.98617e-12 0
M  V30 4310 O 726.916 -10.1726 -0.733694 0
M  V30 4311 O 727.486 -8.73148 1.23936 0
M  V30 4312 O 726.946 -7.66872 -0.971405 0
M  V30 4313 C 726.006 -7.42309 -2.04641 0
M  V30 4314 C 726.736 -6.86059 -3.24661 0
M  V30 4315 O 726.946 -5.42847 -3.03646 0
M  V30 4316 C 728.136 -7.41196 -3.50753 0
M  V30 4317 O 728.526 -7.27073 -4.86816 0
M  V30 4318 C 729.016 -6.5273 -2.63741 0
M  V30 4319 C 728.306 -5.1842 -2.73198 0
M  V30 4320 N 728.356 -4.38762 -1.4784 0
M  V30 4321 C 728.276 -4.81605 -0.168631 0
M  V30 4322 N 728.356 -3.85454 0.713363 0
M  V30 4323 C 728.496 -2.6994 -0.0566958 0
M  V30 4324 C 728.626 -1.34815 0.338502 0
M  V30 4325 N 728.746 -0.496304 -0.77465 0
M  V30 4326 C 728.746 -0.908403 -2.09122 0
M  V30 4327 N 728.876 0.0517805 -3.00955 0
M  V30 4328 N 728.616 -2.17875 -2.46519 0
M  V30 4329 C 728.496 -3.01988 -1.4033 0
M  V30 4330 H 725.517 -8.36803 -2.32493 0
M  V30 4331 H 725.247 -6.70197 -1.71129 0
M  V30 4332 H 726.114 -7.03551 -4.13168 0
M  V30 4333 P 730.076 -7.20834 -5.23717 0
M  V30 4334 O 730.296 -7.7993 -6.57351 0
M  V30 4335 O 730.866 -7.79328 -4.13004 0
M  V30 4336 O 730.326 -5.63315 -5.29344 0
M  V30 4337 C 729.386 -4.80193 -6.01798 0
M  V30 4338 C 730.116 -3.64202 -6.65911 0
M  V30 4339 O 730.326 -2.60694 -5.64732 0
M  V30 4340 C 731.516 -3.93473 -7.1943 0
M  V30 4341 O 731.906 -3.02071 -8.21205 0
M  V30 4342 C 732.396 -3.73047 -5.97036 0
M  V30 4343 C 731.686 -2.58828 -5.25741 0
M  V30 4344 N 731.736 -2.6801 -3.77422 0
M  V30 4345 C 731.886 -1.50443 -3.07133 0
M  V30 4346 O 731.976 -0.419406 -3.61576 0
M  V30 4347 N 731.926 -1.6403 -1.69677 0
M  V30 4348 C 731.836 -2.81206 -0.986255 0
M  V30 4349 C 731.686 -3.99158 -1.80325 0
M  V30 4350 C 731.636 -3.89779 -3.1476 0
M  V30 4351 H 728.896 -5.40332 -6.79951 0
M  V30 4352 H 728.627 -4.41549 -5.32301 0
M  V30 4353 H 729.494 -3.26331 -7.47797 0
M  V30 4354 H 732.149 -1.6395 -5.56554 0
M  V30 4355 H 732.428 -4.63439 -5.3432 0
M  V30 4356 H 733.42 -3.44728 -6.25838 0
M  V30 4357 H 731.586 -4.96652 -7.57263 0
M  V30 4358 H 731.515 -4.80159 -3.74441 0
M  V30 4359 P 733.456 -2.75334 -8.47391 0
M  V30 4360 O 733.676 -2.44595 -9.90239 0
M  V30 4361 O 734.246 -3.87732 -7.92204 0
M  V30 4362 O 733.706 -1.4459 -7.59357 0
M  V30 4363 C 732.766 -0.347563 -7.69115 0
M  V30 4364 C 733.496 0.96767 -7.52806 0
M  V30 4365 O 733.706 1.21036 -6.1011 0
M  V30 4366 C 734.896 1.04544 -8.13308 0
M  V30 4367 O 735.286 2.38311 -8.41922 0
M  V30 4368 C 735.776 0.491279 -7.02284 0
M  V30 4369 C 735.066 0.996264 -5.77469 0
M  V30 4370 N 735.116 0.0501808 -4.62873 0
M  V30 4371 C 735.266 0.588177 -3.36904 0
M  V30 4372 O 735.356 1.78598 -3.17173 0
M  V30 4373 N 735.306 -0.329694 -2.33686 0
M  V30 4374 C 735.216 -1.6953 -2.45079 0
M  V30 4375 C 735.066 -2.16933 -3.80505 0
M  V30 4376 C 735.016 -1.30326 -4.83752 0
M  V30 4377 H 732.276 -0.374722 -8.67691 0
M  V30 4378 H 732.007 -0.443421 -6.90177 0
M  V30 4379 H 732.874 1.75537 -7.96793 0
M  V30 4380 H 735.529 1.94496 -5.46629 0
M  V30 4381 H 735.808 -0.608651 -7.04676 0
M  V30 4382 H 736.8 0.889672 -7.08939 0
M  V30 4383 H 734.966 0.43308 -9.04564 0
M  V30 4384 H 734.895 -1.68366 -5.8516 0
M  V30 4385 P 736.836 2.75334 -8.47391 0
M  V30 4386 O 737.056 3.84128 -9.44797 0
M  V30 4387 O 737.626 1.51947 -8.68712 0
M  V30 4388 O 737.086 3.29363 -6.99321 0
M  V30 4389 C 736.146 4.24011 -6.4274 0
M  V30 4390 C 736.876 5.20775 -5.52155 0
M  V30 4391 O 737.086 4.56534 -4.22446 0
M  V30 4392 C 738.276 5.62629 -5.96531 0
M  V30 4393 O 738.666 6.87667 -5.41053 0
M  V30 4394 C 739.156 4.52537 -5.39283 0
M  V30 4395 C 738.446 4.20027 -4.08623 0
M  V30 4396 N 738.496 2.76189 -3.71603 0
M  V30 4397 H 735.657 4.797 -7.24003 0
M  V30 4398 H 735.387 3.69856 -5.84513 0
M  V30 4399 H 736.254 6.10356 -5.41441 0
M  V30 4400 P 740.216 7.20834 -5.23717 0
M  V30 4401 O 740.436 8.66104 -5.38572 0
M  V30 4402 O 741.006 6.33544 -6.1349 0
M  V30 4403 O 740.466 6.7751 -3.72168 0
M  V30 4404 C 739.526 7.20825 -2.7076 0
M  V30 4405 C 740.256 7.45864 -1.40599 0
M  V30 4406 O 740.466 6.17651 -0.734225 0
M  V30 4407 C 741.656 8.05808 -1.51899 0
M  V30 4408 O 742.046 8.74358 -0.335205 0
M  V30 4409 C 742.536 6.83093 -1.70294 0
M  V30 4410 C 741.826 5.79992 -0.836974 0
M  V30 4411 N 741.876 4.41864 -1.38293 0
M  V30 4412 H 739.037 8.13644 -3.0377 0
M  V30 4413 H 738.767 6.42788 -2.55485 0
M  V30 4414 H 739.634 8.12039 -0.792769 0
M  V30 4415 P 743.596 8.91 5.14336e-12 0
M  V30 4416 O 743.816 10.1726 0.733694 0
M  V30 4417 O 744.386 8.73148 -1.23936 0
M  V30 4418 O 743.846 7.66872 0.971405 0
M  V30 4419 C 742.906 7.42309 2.04641 0
M  V30 4420 C 743.636 6.86059 3.24661 0
M  V30 4421 O 743.846 5.42847 3.03646 0
M  V30 4422 C 745.036 7.41196 3.50753 0
M  V30 4423 O 745.426 7.27073 4.86816 0
M  V30 4424 C 745.916 6.5273 2.63741 0
M  V30 4425 C 745.206 5.1842 2.73198 0
M  V30 4426 N 745.256 4.38762 1.4784 0
M  V30 4427 H 742.417 8.36803 2.32493 0
M  V30 4428 H 742.147 6.70197 1.71129 0
M  V30 4429 H 743.014 7.03551 4.13168 0
M  V30 4430 P 746.976 7.20834 5.23717 0
M  V30 4431 O 747.196 7.7993 6.57351 0
M  V30 4432 O 747.766 7.79328 4.13004 0
M  V30 4433 O 747.226 5.63315 5.29344 0
M  V30 4434 C 746.286 4.80193 6.01798 0
M  V30 4435 C 747.016 3.64202 6.65911 0
M  V30 4436 O 747.226 2.60694 5.64732 0
M  V30 4437 C 748.416 3.93473 7.1943 0
M  V30 4438 O 748.806 3.02071 8.21205 0
M  V30 4439 C 749.296 3.73047 5.97036 0
M  V30 4440 C 748.586 2.58828 5.25741 0
M  V30 4441 N 748.636 2.6801 3.77422 0
M  V30 4442 C 748.786 1.50443 3.07133 0
M  V30 4443 O 748.876 0.419406 3.61576 0
M  V30 4444 N 748.826 1.6403 1.69677 0
M  V30 4445 C 748.736 2.81206 0.986255 0
M  V30 4446 C 748.586 3.99158 1.80325 0
M  V30 4447 C 748.536 3.89779 3.1476 0
M  V30 4448 H 745.796 5.40332 6.79951 0
M  V30 4449 H 745.527 4.41549 5.32301 0
M  V30 4450 H 746.394 3.26331 7.47797 0
M  V30 4451 H 749.049 1.6395 5.56554 0
M  V30 4452 H 749.328 4.63439 5.3432 0
M  V30 4453 H 750.32 3.44728 6.25838 0
M  V30 4454 H 748.486 4.96652 7.57263 0
M  V30 4455 H 748.415 4.80159 3.74441 0
M  V30 4456 P 750.356 2.75334 8.47391 0
M  V30 4457 O 750.576 2.44571 9.90142 0
M  V30 4458 O 751.146 3.87688 7.92115 0
M  V30 4459 O 750.606 1.4459 7.59357 0
M  V30 4460 C 749.666 0.347608 7.69215 0
M  V30 4461 C 750.396 -0.96767 7.52806 0
M  V30 4462 O 750.606 -1.21036 6.1011 0
M  V30 4463 C 751.796 -1.04544 8.13308 0
M  V30 4464 O 752.186 -2.38311 8.41922 0
M  V30 4465 C 752.676 -0.491279 7.02284 0
M  V30 4466 C 751.966 -0.996264 5.77469 0
M  V30 4467 N 752.016 -0.0501916 4.62973 0
M  V30 4468 H 749.177 0.374722 8.67691 0
M  V30 4469 H 748.907 0.443485 6.90277 0
M  V30 4470 H 749.774 -1.75537 7.96793 0
M  V30 4471 P 753.736 -2.75334 8.47391 0
M  V30 4472 O 753.956 -3.84128 9.44797 0
M  V30 4473 O 754.526 -1.51947 8.68712 0
M  V30 4474 O 753.986 -3.29363 6.99321 0
M  V30 4475 C 753.046 -4.24011 6.4274 0
M  V30 4476 C 753.776 -5.20775 5.52155 0
M  V30 4477 O 753.986 -4.56534 4.22446 0
M  V30 4478 C 755.176 -5.62629 5.96531 0
M  V30 4479 O 755.566 -6.87667 5.41053 0
M  V30 4480 C 756.056 -4.52537 5.39283 0
M  V30 4481 C 755.346 -4.20027 4.08623 0
M  V30 4482 N 755.396 -2.76189 3.71603 0
M  V30 4483 C 755.316 -1.64862 4.52822 0
M  V30 4484 N 755.396 -0.512671 3.88633 0
M  V30 4485 C 755.536 -0.888083 2.54977 0
M  V30 4486 C 755.666 -0.094668 1.38677 0
M  V30 4487 O 755.686 1.13053 1.28163 0
M  V30 4488 N 755.786 -0.890102 0.232633 0
M  V30 4489 C 755.786 -2.26958 0.21772 0
M  V30 4490 N 755.916 -2.84626 -0.97925 0
M  V30 4491 N 755.656 -3.0178 1.31033 0
M  V30 4492 C 755.536 -2.26781 2.43843 0
M  V30 4493 H 752.557 -4.797 7.24003 0
M  V30 4494 H 752.287 -3.69856 5.84513 0
M  V30 4495 H 753.154 -6.10356 5.41441 0
M  V30 4496 H 755.809 -4.79061 3.27488 0
M  V30 4497 H 756.088 -3.64906 6.05785 0
M  V30 4498 H 757.08 -4.8868 5.2125 0
M  V30 4499 H 755.246 -5.66726 7.06352 0
M  V30 4500 H 755.197 -1.71169 5.60966 0
M  V30 4501 H 755.879 -0.419134 -0.644739 0
M  V30 4502 H 755.916 -3.87332 -1.06098 0
M  V30 4503 H 756.017 -2.26417 -1.82483 0
M  V30 4504 P 757.116 -7.20834 5.23717 0
M  V30 4505 O 757.336 -8.66274 5.38678 0
M  V30 4506 O 757.906 -6.33687 6.13629 0
M  V30 4507 O 757.366 -6.7751 3.72168 0
M  V30 4508 C 756.426 -7.20919 2.70795 0
M  V30 4509 C 757.156 -7.45864 1.40599 0
M  V30 4510 O 757.366 -6.17751 0.734343 0
M  V30 4511 C 758.556 -8.05906 1.51917 0
M  V30 4512 O 758.946 -8.74358 0.335205 0
M  V30 4513 C 759.436 -6.83093 1.70294 0
M  V30 4514 C 758.726 -5.79992 0.836974 0
M  V30 4515 N 758.776 -4.41864 1.38293 0
M  V30 4516 H 755.938 -8.13738 3.03804 0
M  V30 4517 H 755.666 -6.42974 2.55559 0
M  V30 4518 H 756.534 -8.12139 0.792866 0
M  V30 4519 H 759.189 -5.80178 -0.160643 0
M  V30 4520 H 759.469 -6.51379 2.75643 0
M  V30 4521 H 760.46 -7.01832 1.3448 0
M  V30 4522 H 758.626 -8.73771 2.38364 0
M  V30 4523 P 760.496 -8.91 -5.30054e-12 0
M  V30 4524 O 760.716 -10.1726 -0.733694 0
M  V30 4525 O 761.286 -8.73148 1.23936 0
M  V30 4526 O 760.746 -7.66872 -0.971405 0
M  V30 4527 C 759.806 -7.42309 -2.04641 0
M  V30 4528 C 760.536 -6.86059 -3.24661 0
M  V30 4529 O 760.746 -5.42847 -3.03646 0
M  V30 4530 C 761.936 -7.41196 -3.50753 0
M  V30 4531 O 762.326 -7.27073 -4.86816 0
M  V30 4532 C 762.816 -6.5273 -2.63741 0
M  V30 4533 C 762.106 -5.1842 -2.73198 0
M  V30 4534 N 762.156 -4.38762 -1.4784 0
M  V30 4535 H 759.317 -8.36803 -2.32493 0
M  V30 4536 H 759.047 -6.70197 -1.71129 0
M  V30 4537 H 759.914 -7.03551 -4.13168 0
M  V30 4538 P 763.875 -7.20834 -5.23717 0
M  V30 4539 O 764.095 -7.79853 -6.57286 0
M  V30 4540 O 764.665 -7.79239 -4.12957 0
M  V30 4541 O 764.125 -5.63315 -5.29344 0
M  V30 4542 C 763.185 -4.80255 -6.01876 0
M  V30 4543 C 763.915 -3.64202 -6.65911 0
M  V30 4544 O 764.125 -2.60694 -5.64732 0
M  V30 4545 C 765.315 -3.93473 -7.1943 0
M  V30 4546 O 765.705 -3.02071 -8.21205 0
M  V30 4547 C 766.195 -3.73047 -5.97036 0
M  V30 4548 C 765.485 -2.58828 -5.25741 0
M  V30 4549 N 765.535 -2.68068 -3.77503 0
M  V30 4550 H 762.696 -5.40332 -6.79951 0
M  V30 4551 H 762.426 -4.41613 -5.32378 0
M  V30 4552 H 763.293 -3.26331 -7.47797 0
M  V30 4553 P 767.255 -2.75334 -8.47391 0
M  V30 4554 O 767.475 -2.44595 -9.90239 0
M  V30 4555 O 768.045 -3.87732 -7.92204 0
M  V30 4556 O 767.505 -1.4459 -7.59357 0
M  V30 4557 C 766.565 -0.347563 -7.69115 0
M  V30 4558 C 767.295 0.96767 -7.52806 0
M  V30 4559 O 767.505 1.21036 -6.1011 0
M  V30 4560 C 768.695 1.04544 -8.13308 0
M  V30 4561 O 769.085 2.38311 -8.41922 0
M  V30 4562 C 769.575 0.491279 -7.02284 0
M  V30 4563 C 768.865 0.996264 -5.77469 0
M  V30 4564 N 768.915 0.0501808 -4.62873 0
M  V30 4565 C 769.065 0.588177 -3.36904 0
M  V30 4566 O 769.155 1.78598 -3.17173 0
M  V30 4567 N 769.105 -0.329694 -2.33686 0
M  V30 4568 C 769.015 -1.6953 -2.45079 0
M  V30 4569 C 768.865 -2.16933 -3.80505 0
M  V30 4570 C 768.815 -1.30326 -4.83752 0
M  V30 4571 H 766.075 -0.374722 -8.67691 0
M  V30 4572 H 765.806 -0.443421 -6.90177 0
M  V30 4573 H 766.673 1.75537 -7.96793 0
M  V30 4574 H 769.328 1.94496 -5.46629 0
M  V30 4575 H 769.607 -0.608651 -7.04676 0
M  V30 4576 H 770.599 0.889672 -7.08939 0
M  V30 4577 H 768.765 0.43308 -9.04564 0
M  V30 4578 H 768.694 -1.68366 -5.8516 0
M  V30 4579 P 770.635 2.75334 -8.47391 0
M  V30 4580 O 770.855 3.84128 -9.44797 0
M  V30 4581 O 771.425 1.51947 -8.68712 0
M  V30 4582 O 770.885 3.29363 -6.99321 0
M  V30 4583 C 769.945 4.24011 -6.4274 0
M  V30 4584 C 770.675 5.20775 -5.52155 0
M  V30 4585 O 770.885 4.56534 -4.22446 0
M  V30 4586 C 772.075 5.62629 -5.96531 0
M  V30 4587 O 772.465 6.87667 -5.41053 0
M  V30 4588 C 772.955 4.52537 -5.39283 0
M  V30 4589 C 772.245 4.20027 -4.08623 0
M  V30 4590 N 772.295 2.76189 -3.71603 0
M  V30 4591 H 769.456 4.797 -7.24003 0
M  V30 4592 H 769.186 3.69856 -5.84513 0
M  V30 4593 H 770.053 6.10356 -5.41441 0
M  V30 4594 P 774.015 7.20834 -5.23717 0
M  V30 4595 O 774.235 8.66104 -5.38572 0
M  V30 4596 O 774.805 6.33544 -6.1349 0
M  V30 4597 O 774.265 6.7751 -3.72168 0
M  V30 4598 C 773.325 7.20825 -2.7076 0
M  V30 4599 C 774.055 7.45864 -1.40599 0
M  V30 4600 O 774.265 6.17651 -0.734225 0
M  V30 4601 C 775.455 8.05808 -1.51899 0
M  V30 4602 O 775.845 8.74358 -0.335205 0
M  V30 4603 C 776.335 6.83093 -1.70294 0
M  V30 4604 C 775.625 5.79992 -0.836974 0
M  V30 4605 N 775.675 4.41864 -1.38293 0
M  V30 4606 C 775.595 3.99538 -2.69438 0
M  V30 4607 N 775.675 2.69909 -2.84277 0
M  V30 4608 C 775.815 2.21719 -1.5408 0
M  V30 4609 C 775.945 0.891712 -1.06628 0
M  V30 4610 N 776.065 0.856846 0.334985 0
M  V30 4611 C 776.065 1.9641 1.15789 0
M  V30 4612 N 776.195 1.72708 2.46522 0
M  V30 4613 N 775.935 3.21165 0.713741 0
M  V30 4614 C 775.815 3.26797 -0.639748 0
M  V30 4615 H 772.836 8.13644 -3.0377 0
M  V30 4616 H 772.566 6.42788 -2.55485 0
M  V30 4617 H 773.433 8.12039 -0.792769 0
M  V30 4618 P 777.395 8.91 5.45772e-12 0
M  V30 4619 O 777.615 10.1726 0.733694 0
M  V30 4620 O 778.185 8.73148 -1.23936 0
M  V30 4621 O 777.645 7.66872 0.971405 0
M  V30 4622 C 776.705 7.42309 2.04641 0
M  V30 4623 C 777.435 6.86059 3.24661 0
M  V30 4624 O 777.645 5.42847 3.03646 0
M  V30 4625 C 778.835 7.41196 3.50753 0
M  V30 4626 O 779.225 7.27073 4.86816 0
M  V30 4627 C 779.715 6.5273 2.63741 0
M  V30 4628 C 779.005 5.1842 2.73198 0
M  V30 4629 N 779.055 4.38762 1.4784 0
M  V30 4630 H 776.216 8.36803 2.32493 0
M  V30 4631 H 775.946 6.70197 1.71129 0
M  V30 4632 H 776.813 7.03551 4.13168 0
M  V30 4633 P 780.775 7.20834 5.23717 0
M  V30 4634 O 780.995 7.79853 6.57286 0
M  V30 4635 O 781.565 7.79239 4.12957 0
M  V30 4636 O 781.025 5.63315 5.29344 0
M  V30 4637 C 780.085 4.80255 6.01876 0
M  V30 4638 C 780.815 3.64202 6.65911 0
M  V30 4639 O 781.025 2.60694 5.64732 0
M  V30 4640 C 782.215 3.93473 7.1943 0
M  V30 4641 O 782.605 3.02071 8.21205 0
M  V30 4642 C 783.095 3.73047 5.97036 0
M  V30 4643 C 782.385 2.58828 5.25741 0
M  V30 4644 N 782.435 2.68068 3.77503 0
M  V30 4645 C 782.355 3.79715 2.96723 0
M  V30 4646 N 782.435 3.5377 1.68852 0
M  V30 4647 C 782.575 2.15054 1.63254 0
M  V30 4648 C 782.705 1.28964 0.518571 0
M  V30 4649 N 782.825 -0.0538097 0.918425 0
M  V30 4650 C 782.825 -0.494275 2.22578 0
M  V30 4651 N 782.955 -1.81086 2.40434 0
M  V30 4652 N 782.695 0.313645 3.27502 0
M  V30 4653 C 782.575 1.61829 2.91033 0
M  V30 4654 H 779.596 5.40332 6.79951 0
M  V30 4655 H 779.326 4.41613 5.32378 0
M  V30 4656 H 780.193 3.26331 7.47797 0
M  V30 4657 P 784.155 2.75334 8.47391 0
M  V30 4658 O 784.375 2.44595 9.90239 0
M  V30 4659 O 784.945 3.87732 7.92204 0
M  V30 4660 O 784.405 1.4459 7.59357 0
M  V30 4661 C 783.465 0.347563 7.69115 0
M  V30 4662 C 784.195 -0.96767 7.52806 0
M  V30 4663 O 784.405 -1.21036 6.1011 0
M  V30 4664 C 785.595 -1.04544 8.13308 0
M  V30 4665 O 785.985 -2.38311 8.41922 0
M  V30 4666 C 786.475 -0.491279 7.02284 0
M  V30 4667 C 785.765 -0.996264 5.77469 0
M  V30 4668 N 785.815 -0.0501808 4.62873 0
M  V30 4669 C 785.965 -0.588177 3.36904 0
M  V30 4670 O 786.055 -1.78598 3.17173 0
M  V30 4671 N 786.005 0.329694 2.33686 0
M  V30 4672 C 785.915 1.6953 2.45079 0
M  V30 4673 C 785.765 2.16933 3.80505 0
M  V30 4674 C 785.715 1.30326 4.83752 0
M  V30 4675 H 782.975 0.374722 8.67691 0
M  V30 4676 H 782.706 0.443421 6.90177 0
M  V30 4677 H 783.573 -1.75537 7.96793 0
M  V30 4678 H 786.228 -1.94496 5.46629 0
M  V30 4679 H 786.507 0.608651 7.04676 0
M  V30 4680 H 787.499 -0.889672 7.08939 0
M  V30 4681 H 785.665 -0.43308 9.04564 0
M  V30 4682 H 785.594 1.68366 5.8516 0
M  V30 4683 P 787.535 -2.75334 8.47391 0
M  V30 4684 O 787.755 -3.84166 9.4489 0
M  V30 4685 O 788.325 -1.51964 8.6881 0
M  V30 4686 O 787.785 -3.29363 6.99321 0
M  V30 4687 C 786.845 -4.23956 6.42656 0
M  V30 4688 C 787.575 -5.20775 5.52155 0
M  V30 4689 O 787.785 -4.56534 4.22446 0
M  V30 4690 C 788.975 -5.62629 5.96531 0
M  V30 4691 O 789.365 -6.87667 5.41053 0
M  V30 4692 C 789.855 -4.52537 5.39283 0
M  V30 4693 C 789.145 -4.20027 4.08623 0
M  V30 4694 N 789.195 -2.7613 3.71522 0
M  V30 4695 C 789.345 -2.45612 2.37989 0
M  V30 4696 O 789.435 -3.30919 1.51621 0
M  V30 4697 N 789.385 -1.10684 2.08435 0
M  V30 4698 C 789.295 -0.0690084 2.9792 0
M  V30 4699 O 789.345 1.10553 2.59426 0
M  V30 4700 C 789.145 -0.481522 4.35345 0
M  V30 4701 C 789.035 0.618778 5.36443 0
M  V30 4702 C 789.095 -1.78906 4.67968 0
M  V30 4703 H 786.355 -4.797 7.24003 0
M  V30 4704 H 786.086 -3.69802 5.84429 0
M  V30 4705 H 786.953 -6.10356 5.41441 0
M  V30 4706 H 789.608 -4.78651 3.27911 0
M  V30 4707 H 789.887 -3.64957 6.05871 0
M  V30 4708 H 790.879 -4.8868 5.2125 0
M  V30 4709 H 789.045 -5.66726 7.06352 0
M  V30 4710 H 788.974 -2.07737 5.72367 0
M  V30 4711 H 790.004 0.754375 5.86871 0
M  V30 4712 H 788.267 0.359721 6.10641 0
M  V30 4713 H 788.755 1.55533 4.8581 0
M  V30 4714 H 789.491 -0.862651 1.12037 0
M  V30 4715 P 790.915 -7.20834 5.23717 0
M  V30 4716 O 791.135 -8.66104 5.38572 0
M  V30 4717 O 791.705 -6.33544 6.1349 0
M  V30 4718 O 791.165 -6.7751 3.72168 0
M  V30 4719 C 790.225 -7.20825 2.7076 0
M  V30 4720 C 790.955 -7.45864 1.40599 0
M  V30 4721 O 791.165 -6.17651 0.734225 0
M  V30 4722 C 792.355 -8.05808 1.51899 0
M  V30 4723 O 792.745 -8.74358 0.335205 0
M  V30 4724 C 793.235 -6.83093 1.70294 0
M  V30 4725 C 792.525 -5.79992 0.836974 0
M  V30 4726 N 792.575 -4.41864 1.38293 0
M  V30 4727 H 789.736 -8.13644 3.0377 0
M  V30 4728 H 789.466 -6.42788 2.55485 0
M  V30 4729 H 790.333 -8.12039 0.792769 0
M  V30 4730 P 794.295 -8.91 -5.6149e-12 0
M  V30 4731 O 794.515 -10.1726 -0.733694 0
M  V30 4732 O 795.085 -8.73148 1.23936 0
M  V30 4733 O 794.545 -7.66872 -0.971405 0
M  V30 4734 C 793.605 -7.42309 -2.04641 0
M  V30 4735 C 794.335 -6.86059 -3.24661 0
M  V30 4736 O 794.545 -5.42847 -3.03646 0
M  V30 4737 C 795.735 -7.41196 -3.50753 0
M  V30 4738 O 796.125 -7.27073 -4.86816 0
M  V30 4739 C 796.615 -6.5273 -2.63741 0
M  V30 4740 C 795.905 -5.1842 -2.73198 0
M  V30 4741 N 795.955 -4.38762 -1.4784 0
M  V30 4742 H 793.116 -8.36803 -2.32493 0
M  V30 4743 H 792.846 -6.70197 -1.71129 0
M  V30 4744 H 793.713 -7.03551 -4.13168 0
M  V30 4745 P 797.675 -7.20834 -5.23717 0
M  V30 4746 O 797.895 -7.79853 -6.57286 0
M  V30 4747 O 798.465 -7.79239 -4.12957 0
M  V30 4748 O 797.925 -5.63315 -5.29344 0
M  V30 4749 C 796.985 -4.80255 -6.01876 0
M  V30 4750 C 797.715 -3.64202 -6.65911 0
M  V30 4751 O 797.925 -2.60694 -5.64732 0
M  V30 4752 C 799.115 -3.93473 -7.1943 0
M  V30 4753 O 799.505 -3.02071 -8.21205 0
M  V30 4754 C 799.995 -3.73047 -5.97036 0
M  V30 4755 C 799.285 -2.58828 -5.25741 0
M  V30 4756 N 799.335 -2.68068 -3.77503 0
M  V30 4757 H 796.496 -5.40332 -6.79951 0
M  V30 4758 H 796.226 -4.41613 -5.32378 0
M  V30 4759 H 797.093 -3.26331 -7.47797 0
M  V30 4760 P 801.055 -2.75334 -8.47391 0
M  V30 4761 O 801.275 -2.44571 -9.90142 0
M  V30 4762 O 801.845 -3.87688 -7.92115 0
M  V30 4763 O 801.305 -1.4459 -7.59357 0
M  V30 4764 C 800.365 -0.347608 -7.69215 0
M  V30 4765 C 801.095 0.96767 -7.52806 0
M  V30 4766 O 801.305 1.21036 -6.1011 0
M  V30 4767 C 802.495 1.04544 -8.13308 0
M  V30 4768 O 802.885 2.38311 -8.41922 0
M  V30 4769 C 803.375 0.491279 -7.02284 0
M  V30 4770 C 802.665 0.996264 -5.77469 0
M  V30 4771 N 802.715 0.0501916 -4.62973 0
M  V30 4772 H 799.876 -0.374722 -8.67691 0
M  V30 4773 H 799.606 -0.443485 -6.90277 0
M  V30 4774 H 800.473 1.75537 -7.96793 0
M  V30 4775 P 804.435 2.75334 -8.47391 0
M  V30 4776 O 804.655 3.84128 -9.44797 0
M  V30 4777 O 805.225 1.51947 -8.68712 0
M  V30 4778 O 804.685 3.29363 -6.99321 0
M  V30 4779 C 803.745 4.24011 -6.4274 0
M  V30 4780 C 804.475 5.20775 -5.52155 0
M  V30 4781 O 804.685 4.56534 -4.22446 0
M  V30 4782 C 805.875 5.62629 -5.96531 0
M  V30 4783 O 806.265 6.87667 -5.41053 0
M  V30 4784 C 806.755 4.52537 -5.39283 0
M  V30 4785 C 806.045 4.20027 -4.08623 0
M  V30 4786 N 806.095 2.76189 -3.71603 0
M  V30 4787 H 803.256 4.797 -7.24003 0
M  V30 4788 H 802.986 3.69856 -5.84513 0
M  V30 4789 H 803.853 6.10356 -5.41441 0
M  V30 4790 P 807.815 7.20834 -5.23717 0
M  V30 4791 O 808.035 8.66104 -5.38572 0
M  V30 4792 O 808.605 6.33544 -6.1349 0
M  V30 4793 O 808.065 6.7751 -3.72168 0
M  V30 4794 C 807.125 7.20825 -2.7076 0
M  V30 4795 C 807.855 7.45864 -1.40599 0
M  V30 4796 O 808.065 6.17651 -0.734225 0
M  V30 4797 C 809.255 8.05808 -1.51899 0
M  V30 4798 O 809.645 8.74358 -0.335205 0
M  V30 4799 C 810.135 6.83093 -1.70294 0
M  V30 4800 C 809.425 5.79992 -0.836974 0
M  V30 4801 N 809.475 4.41864 -1.38293 0
M  V30 4802 H 806.636 8.13644 -3.0377 0
M  V30 4803 H 806.366 6.42788 -2.55485 0
M  V30 4804 H 807.233 8.12039 -0.792769 0
M  V30 4805 P 811.195 8.91 5.77209e-12 0
M  V30 4806 O 811.415 10.1726 0.733694 0
M  V30 4807 O 811.985 8.73148 -1.23936 0
M  V30 4808 O 811.445 7.66872 0.971405 0
M  V30 4809 C 810.505 7.42309 2.04641 0
M  V30 4810 C 811.235 6.86059 3.24661 0
M  V30 4811 O 811.445 5.42847 3.03646 0
M  V30 4812 C 812.635 7.41196 3.50753 0
M  V30 4813 O 813.025 7.27073 4.86816 0
M  V30 4814 C 813.515 6.5273 2.63741 0
M  V30 4815 C 812.805 5.1842 2.73198 0
M  V30 4816 N 812.855 4.38762 1.4784 0
M  V30 4817 H 810.016 8.36803 2.32493 0
M  V30 4818 H 809.746 6.70197 1.71129 0
M  V30 4819 H 810.613 7.03551 4.13168 0
M  V30 4820 P 814.575 7.20834 5.23717 0
M  V30 4821 O 814.795 7.79853 6.57286 0
M  V30 4822 O 815.365 7.79239 4.12957 0
M  V30 4823 O 814.825 5.63315 5.29344 0
M  V30 4824 C 813.885 4.80255 6.01876 0
M  V30 4825 C 814.615 3.64202 6.65911 0
M  V30 4826 O 814.825 2.60694 5.64732 0
M  V30 4827 C 816.015 3.93473 7.1943 0
M  V30 4828 O 816.405 3.02071 8.21205 0
M  V30 4829 C 816.895 3.73047 5.97036 0
M  V30 4830 C 816.185 2.58828 5.25741 0
M  V30 4831 N 816.235 2.68068 3.77503 0
M  V30 4832 H 813.396 5.40332 6.79951 0
M  V30 4833 H 813.126 4.41613 5.32378 0
M  V30 4834 H 813.993 3.26331 7.47797 0
M  V30 4835 P 817.955 2.75334 8.47391 0
M  V30 4836 O 818.175 2.44571 9.90142 0
M  V30 4837 O 818.745 3.87688 7.92115 0
M  V30 4838 O 818.205 1.4459 7.59357 0
M  V30 4839 C 817.265 0.347608 7.69215 0
M  V30 4840 C 817.995 -0.96767 7.52806 0
M  V30 4841 O 818.205 -1.21036 6.1011 0
M  V30 4842 C 819.395 -1.04544 8.13308 0
M  V30 4843 O 819.785 -2.38311 8.41922 0
M  V30 4844 C 820.275 -0.491279 7.02284 0
M  V30 4845 C 819.565 -0.996264 5.77469 0
M  V30 4846 N 819.615 -0.0501916 4.62973 0
M  V30 4847 H 816.776 0.374722 8.67691 0
M  V30 4848 H 816.506 0.443485 6.90277 0
M  V30 4849 H 817.373 -1.75537 7.96793 0
M  V30 4850 P 821.335 -2.75334 8.47391 0
M  V30 4851 O 821.555 -3.84128 9.44797 0
M  V30 4852 O 822.125 -1.51947 8.68712 0
M  V30 4853 O 821.585 -3.29363 6.99321 0
M  V30 4854 C 820.645 -4.24011 6.4274 0
M  V30 4855 C 821.375 -5.20775 5.52155 0
M  V30 4856 O 821.585 -4.56534 4.22446 0
M  V30 4857 C 822.775 -5.62629 5.96531 0
M  V30 4858 O 823.165 -6.87667 5.41053 0
M  V30 4859 C 823.655 -4.52537 5.39283 0
M  V30 4860 C 822.945 -4.20027 4.08623 0
M  V30 4861 N 822.995 -2.76189 3.71603 0
M  V30 4862 H 820.156 -4.797 7.24003 0
M  V30 4863 H 819.886 -3.69856 5.84513 0
M  V30 4864 H 820.753 -6.10356 5.41441 0
M  V30 4865 P 824.715 -7.20834 5.23717 0
M  V30 4866 O 824.935 -8.66104 5.38572 0
M  V30 4867 O 825.505 -6.33544 6.1349 0
M  V30 4868 O 824.965 -6.7751 3.72168 0
M  V30 4869 C 824.025 -7.20825 2.7076 0
M  V30 4870 C 824.755 -7.45864 1.40599 0
M  V30 4871 O 824.965 -6.17651 0.734225 0
M  V30 4872 C 826.155 -8.05808 1.51899 0
M  V30 4873 O 826.545 -8.74358 0.335205 0
M  V30 4874 C 827.035 -6.83093 1.70294 0
M  V30 4875 C 826.325 -5.79992 0.836974 0
M  V30 4876 N 826.375 -4.41864 1.38293 0
M  V30 4877 H 823.536 -8.13644 3.0377 0
M  V30 4878 H 823.266 -6.42788 2.55485 0
M  V30 4879 H 824.133 -8.12039 0.792769 0
M  V30 4880 P 828.095 -8.91 -5.92927e-12 0
M  V30 4881 O 828.315 -10.1726 -0.733694 0
M  V30 4882 O 828.885 -8.73148 1.23936 0
M  V30 4883 O 828.345 -7.66872 -0.971405 0
M  V30 4884 C 827.405 -7.42309 -2.04641 0
M  V30 4885 C 828.135 -6.86059 -3.24661 0
M  V30 4886 O 828.345 -5.42847 -3.03646 0
M  V30 4887 C 829.535 -7.41196 -3.50753 0
M  V30 4888 O 829.925 -7.27073 -4.86816 0
M  V30 4889 C 830.415 -6.5273 -2.63741 0
M  V30 4890 C 829.705 -5.1842 -2.73198 0
M  V30 4891 N 829.755 -4.38762 -1.4784 0
M  V30 4892 H 826.916 -8.36803 -2.32493 0
M  V30 4893 H 826.646 -6.70197 -1.71129 0
M  V30 4894 H 827.513 -7.03551 -4.13168 0
M  V30 4895 P 831.475 -7.20834 -5.23717 0
M  V30 4896 O 831.695 -7.79853 -6.57286 0
M  V30 4897 O 832.265 -7.79239 -4.12957 0
M  V30 4898 O 831.725 -5.63315 -5.29344 0
M  V30 4899 C 830.785 -4.80255 -6.01876 0
M  V30 4900 C 831.515 -3.64202 -6.65911 0
M  V30 4901 O 831.725 -2.60694 -5.64732 0
M  V30 4902 C 832.915 -3.93473 -7.1943 0
M  V30 4903 O 833.305 -3.02071 -8.21205 0
M  V30 4904 C 833.795 -3.73047 -5.97036 0
M  V30 4905 C 833.085 -2.58828 -5.25741 0
M  V30 4906 N 833.135 -2.68068 -3.77503 0
M  V30 4907 H 830.296 -5.40332 -6.79951 0
M  V30 4908 H 830.026 -4.41613 -5.32378 0
M  V30 4909 H 830.893 -3.26331 -7.47797 0
M  V30 4910 P 834.855 -2.75334 -8.47391 0
M  V30 4911 O 835.075 -2.44571 -9.90142 0
M  V30 4912 O 835.645 -3.87688 -7.92115 0
M  V30 4913 O 835.105 -1.4459 -7.59357 0
M  V30 4914 C 834.165 -0.347608 -7.69215 0
M  V30 4915 C 834.895 0.96767 -7.52806 0
M  V30 4916 O 835.105 1.21036 -6.1011 0
M  V30 4917 C 836.295 1.04544 -8.13308 0
M  V30 4918 O 836.685 2.38311 -8.41922 0
M  V30 4919 C 837.175 0.491279 -7.02284 0
M  V30 4920 C 836.465 0.996264 -5.77469 0
M  V30 4921 N 836.515 0.0501916 -4.62973 0
M  V30 4922 H 833.676 -0.374722 -8.67691 0
M  V30 4923 H 833.406 -0.443485 -6.90277 0
M  V30 4924 H 834.273 1.75537 -7.96793 0
M  V30 4925 P 838.235 2.75334 -8.47391 0
M  V30 4926 O 838.455 3.84128 -9.44797 0
M  V30 4927 O 839.025 1.51947 -8.68712 0
M  V30 4928 O 838.485 3.29363 -6.99321 0
M  V30 4929 C 837.545 4.24011 -6.4274 0
M  V30 4930 C 838.275 5.20775 -5.52155 0
M  V30 4931 O 838.485 4.56534 -4.22446 0
M  V30 4932 C 839.675 5.62629 -5.96531 0
M  V30 4933 O 840.065 6.87667 -5.41053 0
M  V30 4934 C 840.555 4.52537 -5.39283 0
M  V30 4935 C 839.845 4.20027 -4.08623 0
M  V30 4936 N 839.895 2.76189 -3.71603 0
M  V30 4937 H 837.056 4.797 -7.24003 0
M  V30 4938 H 836.786 3.69856 -5.84513 0
M  V30 4939 H 837.653 6.10356 -5.41441 0
M  V30 4940 P 841.615 7.20834 -5.23717 0
M  V30 4941 O 841.835 8.66104 -5.38572 0
M  V30 4942 O 842.405 6.33544 -6.1349 0
M  V30 4943 O 841.865 6.7751 -3.72168 0
M  V30 4944 C 840.925 7.20825 -2.7076 0
M  V30 4945 C 841.655 7.45864 -1.40599 0
M  V30 4946 O 841.865 6.17651 -0.734225 0
M  V30 4947 C 843.055 8.05808 -1.51899 0
M  V30 4948 O 843.445 8.74358 -0.335205 0
M  V30 4949 C 843.935 6.83093 -1.70294 0
M  V30 4950 C 843.225 5.79992 -0.836974 0
M  V30 4951 N 843.275 4.41864 -1.38293 0
M  V30 4952 H 840.436 8.13644 -3.0377 0
M  V30 4953 H 840.166 6.42788 -2.55485 0
M  V30 4954 H 841.033 8.12039 -0.792769 0
M  V30 4955 P 844.995 8.91 6.08645e-12 0
M  V30 4956 O 845.215 10.1726 0.733694 0
M  V30 4957 O 845.785 8.73148 -1.23936 0
M  V30 4958 O 845.245 7.66872 0.971405 0
M  V30 4959 C 844.305 7.42309 2.04641 0
M  V30 4960 C 845.035 6.86059 3.24661 0
M  V30 4961 O 845.245 5.42847 3.03646 0
M  V30 4962 C 846.435 7.41196 3.50753 0
M  V30 4963 O 846.825 7.27073 4.86816 0
M  V30 4964 C 847.315 6.5273 2.63741 0
M  V30 4965 C 846.605 5.1842 2.73198 0
M  V30 4966 N 846.655 4.38762 1.4784 0
M  V30 4967 H 843.816 8.36803 2.32493 0
M  V30 4968 H 843.546 6.70197 1.71129 0
M  V30 4969 H 844.413 7.03551 4.13168 0
M  V30 4970 P 848.375 7.20834 5.23717 0
M  V30 4971 O 848.595 7.7993 6.57351 0
M  V30 4972 O 849.165 7.79328 4.13004 0
M  V30 4973 O 848.625 5.63315 5.29344 0
M  V30 4974 C 847.685 4.80193 6.01798 0
M  V30 4975 C 848.415 3.64202 6.65911 0
M  V30 4976 O 848.625 2.60694 5.64732 0
M  V30 4977 C 849.815 3.93473 7.1943 0
M  V30 4978 O 850.205 3.02071 8.21205 0
M  V30 4979 C 850.695 3.73047 5.97036 0
M  V30 4980 C 849.985 2.58828 5.25741 0
M  V30 4981 N 850.035 2.6801 3.77422 0
M  V30 4982 C 850.185 1.50443 3.07133 0
M  V30 4983 O 850.275 0.419406 3.61576 0
M  V30 4984 N 850.225 1.6403 1.69677 0
M  V30 4985 C 850.135 2.81206 0.986255 0
M  V30 4986 O 850.185 2.80892 -0.249754 0
M  V30 4987 C 849.985 3.99158 1.80325 0
M  V30 4988 C 849.875 5.29309 1.06921 0
M  V30 4989 C 849.935 3.89779 3.1476 0
M  V30 4990 H 847.195 5.40332 6.79951 0
M  V30 4991 H 846.926 4.41549 5.32301 0
M  V30 4992 H 847.793 3.26331 7.47797 0
M  V30 4993 H 850.448 1.6395 5.56554 0
M  V30 4994 H 850.727 4.63439 5.3432 0
M  V30 4995 H 851.719 3.44728 6.25838 0
M  V30 4996 H 849.885 4.96652 7.57263 0
M  V30 4997 H 849.814 4.80159 3.74441 0
M  V30 4998 H 850.844 5.81459 1.09608 0
M  V30 4999 H 849.107 5.9187 1.54487 0
M  V30 5000 H 849.595 5.10095 0.0220288 0
M  V30 5001 H 850.331 0.798962 1.16664 0
M  V30 5002 P 851.755 2.75334 8.47391 0
M  V30 5003 O 851.975 2.44571 9.90142 0
M  V30 5004 O 852.545 3.87688 7.92115 0
M  V30 5005 O 852.005 1.4459 7.59357 0
M  V30 5006 C 851.065 0.347608 7.69215 0
M  V30 5007 C 851.795 -0.96767 7.52806 0
M  V30 5008 O 852.005 -1.21036 6.1011 0
M  V30 5009 C 853.195 -1.04544 8.13308 0
M  V30 5010 O 853.585 -2.38311 8.41922 0
M  V30 5011 C 854.075 -0.491279 7.02284 0
M  V30 5012 C 853.365 -0.996264 5.77469 0
M  V30 5013 N 853.415 -0.0501916 4.62973 0
M  V30 5014 H 850.576 0.374722 8.67691 0
M  V30 5015 H 850.306 0.443485 6.90277 0
M  V30 5016 H 851.173 -1.75537 7.96793 0
M  V30 5017 P 855.135 -2.75334 8.47391 0
M  V30 5018 O 855.355 -3.84128 9.44797 0
M  V30 5019 O 855.925 -1.51947 8.68712 0
M  V30 5020 O 855.385 -3.29363 6.99321 0
M  V30 5021 C 854.445 -4.24011 6.4274 0
M  V30 5022 C 855.175 -5.20775 5.52155 0
M  V30 5023 O 855.385 -4.56534 4.22446 0
M  V30 5024 C 856.575 -5.62629 5.96531 0
M  V30 5025 O 856.965 -6.87667 5.41053 0
M  V30 5026 C 857.455 -4.52537 5.39283 0
M  V30 5027 C 856.745 -4.20027 4.08623 0
M  V30 5028 N 856.795 -2.76189 3.71603 0
M  V30 5029 H 853.956 -4.797 7.24003 0
M  V30 5030 H 853.686 -3.69856 5.84513 0
M  V30 5031 H 854.553 -6.10356 5.41441 0
M  V30 5032 P 858.515 -7.20834 5.23717 0
M  V30 5033 O 858.735 -8.66104 5.38572 0
M  V30 5034 O 859.305 -6.33544 6.1349 0
M  V30 5035 O 858.765 -6.7751 3.72168 0
M  V30 5036 C 857.825 -7.20825 2.7076 0
M  V30 5037 C 858.555 -7.45864 1.40599 0
M  V30 5038 O 858.765 -6.17651 0.734225 0
M  V30 5039 C 859.955 -8.05808 1.51899 0
M  V30 5040 O 860.345 -8.74358 0.335205 0
M  V30 5041 C 860.835 -6.83093 1.70294 0
M  V30 5042 C 860.125 -5.79992 0.836974 0
M  V30 5043 N 860.175 -4.41864 1.38293 0
M  V30 5044 H 857.336 -8.13644 3.0377 0
M  V30 5045 H 857.066 -6.42788 2.55485 0
M  V30 5046 H 857.933 -8.12039 0.792769 0
M  V30 5047 P 861.895 -8.91 -6.24363e-12 0
M  V30 5048 O 862.115 -10.1726 -0.733694 0
M  V30 5049 O 862.685 -8.73148 1.23936 0
M  V30 5050 O 862.145 -7.66872 -0.971405 0
M  V30 5051 C 861.205 -7.42309 -2.04641 0
M  V30 5052 C 861.935 -6.86059 -3.24661 0
M  V30 5053 O 862.145 -5.42847 -3.03646 0
M  V30 5054 C 863.335 -7.41196 -3.50753 0
M  V30 5055 O 863.725 -7.27073 -4.86816 0
M  V30 5056 C 864.215 -6.5273 -2.63741 0
M  V30 5057 C 863.505 -5.1842 -2.73198 0
M  V30 5058 N 863.555 -4.38762 -1.4784 0
M  V30 5059 H 860.716 -8.36803 -2.32493 0
M  V30 5060 H 860.446 -6.70197 -1.71129 0
M  V30 5061 H 861.313 -7.03551 -4.13168 0
M  V30 5062 P 865.275 -7.20834 -5.23717 0
M  V30 5063 O 865.495 -7.80006 -6.57415 0
M  V30 5064 O 866.065 -7.79416 -4.13051 0
M  V30 5065 O 865.525 -5.63315 -5.29344 0
M  V30 5066 C 864.585 -4.80318 -6.01954 0
M  V30 5067 C 865.315 -3.64202 -6.65911 0
M  V30 5068 O 865.525 -2.60736 -5.64823 0
M  V30 5069 C 866.715 -3.93521 -7.19518 0
M  V30 5070 O 867.105 -3.02071 -8.21205 0
M  V30 5071 C 867.595 -3.73047 -5.97036 0
M  V30 5072 C 866.885 -2.58828 -5.25741 0
M  V30 5073 N 866.935 -2.68068 -3.77503 0
M  V30 5074 H 864.097 -5.40394 -6.8003 0
M  V30 5075 H 863.825 -4.41741 -5.32532 0
M  V30 5076 H 864.693 -3.26371 -7.47889 0
M  V30 5077 H 867.348 -1.64007 -5.56746 0
M  V30 5078 H 867.628 -4.63439 -5.3432 0
M  V30 5079 H 868.619 -3.44776 -6.25925 0
M  V30 5080 H 866.785 -4.96707 -7.57347 0
M  V30 5081 P 868.655 -2.75334 -8.47391 0
M  V30 5082 O 868.875 -2.44571 -9.90142 0
M  V30 5083 O 869.445 -3.87688 -7.92115 0
M  V30 5084 O 868.905 -1.4459 -7.59357 0
M  V30 5085 C 867.965 -0.347608 -7.69215 0
M  V30 5086 C 868.695 0.96767 -7.52806 0
M  V30 5087 O 868.905 1.21036 -6.1011 0
M  V30 5088 C 870.095 1.04544 -8.13308 0
M  V30 5089 O 870.485 2.38311 -8.41922 0
M  V30 5090 C 870.975 0.491279 -7.02284 0
M  V30 5091 C 870.265 0.996264 -5.77469 0
M  V30 5092 N 870.315 0.0501916 -4.62973 0
M  V30 5093 H 867.476 -0.374722 -8.67691 0
M  V30 5094 H 867.206 -0.443485 -6.90277 0
M  V30 5095 H 868.073 1.75537 -7.96793 0
M  V30 5096 P 872.035 2.75334 -8.47391 0
M  V30 5097 O 872.255 3.84166 -9.4489 0
M  V30 5098 O 872.825 1.51964 -8.6881 0
M  V30 5099 O 872.285 3.29363 -6.99321 0
M  V30 5100 C 871.345 4.23956 -6.42656 0
M  V30 5101 C 872.075 5.20775 -5.52155 0
M  V30 5102 O 872.285 4.56534 -4.22446 0
M  V30 5103 C 873.475 5.62629 -5.96531 0
M  V30 5104 O 873.865 6.87667 -5.41053 0
M  V30 5105 C 874.355 4.52537 -5.39283 0
M  V30 5106 C 873.645 4.20027 -4.08623 0
M  V30 5107 N 873.695 2.7613 -3.71522 0
M  V30 5108 C 873.845 2.45612 -2.37989 0
M  V30 5109 O 873.935 3.30919 -1.51621 0
M  V30 5110 N 873.885 1.10684 -2.08435 0
M  V30 5111 C 873.795 0.0690084 -2.9792 0
M  V30 5112 C 873.645 0.481522 -4.35345 0
M  V30 5113 C 873.595 1.78906 -4.67968 0
M  V30 5114 H 870.855 4.797 -7.24003 0
M  V30 5115 H 870.586 3.69802 -5.84429 0
M  V30 5116 H 871.453 6.10356 -5.41441 0
M  V30 5117 H 874.108 4.78651 -3.27911 0
M  V30 5118 H 874.387 3.64957 -6.05871 0
M  V30 5119 H 875.379 4.8868 -5.2125 0
M  V30 5120 H 873.545 5.66726 -7.06352 0
M  V30 5121 H 873.474 2.07737 -5.72367 0
M  V30 5122 P 875.415 7.20834 -5.23717 0
M  V30 5123 O 875.635 8.66104 -5.38572 0
M  V30 5124 O 876.205 6.33544 -6.1349 0
M  V30 5125 O 875.665 6.7751 -3.72168 0
M  V30 5126 C 874.725 7.20825 -2.7076 0
M  V30 5127 C 875.455 7.45864 -1.40599 0
M  V30 5128 O 875.665 6.17651 -0.734225 0
M  V30 5129 C 876.855 8.05808 -1.51899 0
M  V30 5130 O 877.245 8.74358 -0.335205 0
M  V30 5131 C 877.735 6.83093 -1.70294 0
M  V30 5132 C 877.025 5.79992 -0.836974 0
M  V30 5133 N 877.075 4.41864 -1.38293 0
M  V30 5134 H 874.236 8.13644 -3.0377 0
M  V30 5135 H 873.966 6.42788 -2.55485 0
M  V30 5136 H 874.833 8.12039 -0.792769 0
M  V30 5137 P 878.795 8.91 6.40081e-12 0
M  V30 5138 O 879.015 10.1726 0.733694 0
M  V30 5139 O 879.585 8.73148 -1.23936 0
M  V30 5140 O 879.045 7.66872 0.971405 0
M  V30 5141 C 878.105 7.42309 2.04641 0
M  V30 5142 C 878.835 6.86059 3.24661 0
M  V30 5143 O 879.045 5.42847 3.03646 0
M  V30 5144 C 880.235 7.41196 3.50753 0
M  V30 5145 O 880.625 7.27073 4.86816 0
M  V30 5146 C 881.115 6.5273 2.63741 0
M  V30 5147 C 880.405 5.1842 2.73198 0
M  V30 5148 N 880.455 4.38762 1.4784 0
M  V30 5149 H 877.616 8.36803 2.32493 0
M  V30 5150 H 877.346 6.70197 1.71129 0
M  V30 5151 H 878.213 7.03551 4.13168 0
M  V30 5152 P 882.175 7.20834 5.23717 0
M  V30 5153 O 882.395 7.79853 6.57286 0
M  V30 5154 O 882.965 7.79239 4.12957 0
M  V30 5155 O 882.425 5.63315 5.29344 0
M  V30 5156 C 881.485 4.80255 6.01876 0
M  V30 5157 C 882.215 3.64202 6.65911 0
M  V30 5158 O 882.425 2.60694 5.64732 0
M  V30 5159 C 883.615 3.93473 7.1943 0
M  V30 5160 O 884.005 3.02071 8.21205 0
M  V30 5161 C 884.495 3.73047 5.97036 0
M  V30 5162 C 883.785 2.58828 5.25741 0
M  V30 5163 N 883.835 2.68068 3.77503 0
M  V30 5164 H 880.996 5.40332 6.79951 0
M  V30 5165 H 880.726 4.41613 5.32378 0
M  V30 5166 H 881.593 3.26331 7.47797 0
M  V30 5167 P 885.555 2.75334 8.47391 0
M  V30 5168 O 885.775 2.44571 9.90142 0
M  V30 5169 O 886.345 3.87688 7.92115 0
M  V30 5170 O 885.805 1.4459 7.59357 0
M  V30 5171 C 884.865 0.347608 7.69215 0
M  V30 5172 C 885.595 -0.96767 7.52806 0
M  V30 5173 O 885.805 -1.21036 6.1011 0
M  V30 5174 C 886.995 -1.04544 8.13308 0
M  V30 5175 O 887.385 -2.38311 8.41922 0
M  V30 5176 C 887.875 -0.491279 7.02284 0
M  V30 5177 C 887.165 -0.996264 5.77469 0
M  V30 5178 N 887.215 -0.0501916 4.62973 0
M  V30 5179 H 884.376 0.374722 8.67691 0
M  V30 5180 H 884.106 0.443485 6.90277 0
M  V30 5181 H 884.973 -1.75537 7.96793 0
M  V30 5182 P 888.935 -2.75334 8.47391 0
M  V30 5183 O 889.155 -3.84128 9.44797 0
M  V30 5184 O 889.725 -1.51947 8.68712 0
M  V30 5185 O 889.185 -3.29363 6.99321 0
M  V30 5186 C 888.245 -4.24011 6.4274 0
M  V30 5187 C 888.975 -5.20775 5.52155 0
M  V30 5188 O 889.185 -4.56534 4.22446 0
M  V30 5189 C 890.375 -5.62629 5.96531 0
M  V30 5190 O 890.765 -6.87667 5.41053 0
M  V30 5191 C 891.255 -4.52537 5.39283 0
M  V30 5192 C 890.545 -4.20027 4.08623 0
M  V30 5193 N 890.595 -2.76189 3.71603 0
M  V30 5194 H 887.756 -4.797 7.24003 0
M  V30 5195 H 887.486 -3.69856 5.84513 0
M  V30 5196 H 888.353 -6.10356 5.41441 0
M  V30 5197 P 892.315 -7.20834 5.23717 0
M  V30 5198 O 892.535 -8.66104 5.38572 0
M  V30 5199 O 893.105 -6.33544 6.1349 0
M  V30 5200 O 892.565 -6.7751 3.72168 0
M  V30 5201 C 891.625 -7.20825 2.7076 0
M  V30 5202 C 892.355 -7.45864 1.40599 0
M  V30 5203 O 892.565 -6.17651 0.734225 0
M  V30 5204 C 893.755 -8.05808 1.51899 0
M  V30 5205 O 894.145 -8.74358 0.335205 0
M  V30 5206 C 894.635 -6.83093 1.70294 0
M  V30 5207 C 893.925 -5.79992 0.836974 0
M  V30 5208 N 893.975 -4.41864 1.38293 0
M  V30 5209 H 891.136 -8.13644 3.0377 0
M  V30 5210 H 890.866 -6.42788 2.55485 0
M  V30 5211 H 891.733 -8.12039 0.792769 0
M  V30 5212 P 895.695 -8.91 -6.558e-12 0
M  V30 5213 O 895.915 -10.1726 -0.733694 0
M  V30 5214 O 896.485 -8.73148 1.23936 0
M  V30 5215 O 895.945 -7.66872 -0.971405 0
M  V30 5216 C 895.005 -7.42309 -2.04641 0
M  V30 5217 C 895.735 -6.86059 -3.24661 0
M  V30 5218 O 895.945 -5.42847 -3.03646 0
M  V30 5219 C 897.135 -7.41196 -3.50753 0
M  V30 5220 O 897.525 -7.27073 -4.86816 0
M  V30 5221 C 898.015 -6.5273 -2.63741 0
M  V30 5222 C 897.305 -5.1842 -2.73198 0
M  V30 5223 N 897.355 -4.38762 -1.4784 0
M  V30 5224 H 894.516 -8.36803 -2.32493 0
M  V30 5225 H 894.246 -6.70197 -1.71129 0
M  V30 5226 H 895.113 -7.03551 -4.13168 0
M  V30 5227 H 897.394 -6.36132 -5.14416 0
M  V30 5228 H 901.416 9.0732 2.85239 0
M  V30 5229 O 901.296 8.67639 2.00036 0
M  V30 5230 P 899.855 8.7635 1.60911 0
M  V30 5231 O 899.635 10.1388 1.11561 0
M  V30 5232 O 899.065 8.36503 2.79617 0
M  V30 5233 O 899.605 7.71806 0.42951 0
M  V30 5234 C 900.545 7.67148 -0.673689 0
M  V30 5235 C 899.815 7.33374 -1.95559 0
M  V30 5236 O 899.605 5.88721 -2.00726 0
M  V30 5237 C 898.415 7.92526 -2.10483 0
M  V30 5238 O 898.025 8.02971 -3.47653 0
M  V30 5239 C 897.535 6.89602 -1.41652 0
M  V30 5240 C 898.245 5.59201 -1.75185 0
M  V30 5241 N 898.195 4.58301 -0.657969 0
M  V30 5242 H 901.034 8.65116 -0.777161 0
M  V30 5243 H 901.306 6.9022 -0.46725 0
M  V30 5244 H 900.438 7.66548 -2.79458 0
M  V30 5245 H 897.783 5.16165 -2.65183 0
M  V30 5246 H 897.503 7.06433 -0.329384 0
M  V30 5247 H 896.512 6.90926 -1.82021 0
M  V30 5248 H 898.346 8.90873 -1.62657 0
M  V30 5249 P 896.475 8.03563 -3.84925 0
M  V30 5250 O 896.255 8.85821 -5.0569 0
M  V30 5251 O 895.685 8.41101 -2.65469 0
M  V30 5252 O 896.225 6.4965 -4.18908 0
M  V30 5253 C 897.165 5.81037 -5.05421 0
M  V30 5254 C 896.435 4.78366 -5.89277 0
M  V30 5255 O 896.225 3.58302 -5.08433 0
M  V30 5256 C 895.035 5.17448 -6.36119 0
M  V30 5257 O 894.645 4.45271 -7.53232 0
M  V30 5258 C 894.155 4.74639 -5.19936 0
M  V30 5259 C 894.865 3.49432 -4.70418 0
M  V30 5260 N 894.815 3.31776 -3.22945 0
M  V30 5261 H 897.654 6.54213 -5.71376 0
M  V30 5262 H 897.926 5.30492 -4.44033 0
M  V30 5263 H 897.058 4.55889 -6.76652 0
M  V30 5264 P 893.095 4.23843 -7.83734 0
M  V30 5265 O 892.875 4.19407 -9.29784 0
M  V30 5266 O 892.305 5.24426 -7.09156 0
M  V30 5267 O 892.845 2.7935 -7.20758 0
M  V30 5268 C 893.785 1.7299 -7.50419 0
M  V30 5269 C 893.055 0.406376 -7.57911 0
M  V30 5270 O 892.845 -0.0897726 -6.21935 0
M  V30 5271 C 891.655 0.447224 -8.1878 0
M  V30 5272 O 891.265 -0.825065 -8.71101 0
M  V30 5273 C 890.775 0.783801 -6.99623 0
M  V30 5274 C 891.485 0.0619192 -5.85967 0
M  V30 5275 N 891.435 0.7859 -4.56281 0
M  V30 5276 H 894.274 1.93423 -8.4679 0
M  V30 5277 H 894.546 1.68181 -6.71046 0
M  V30 5278 H 893.678 -0.289041 -8.15388 0
M  V30 5279 P 889.715 -1.17771 -8.83182 0
M  V30 5280 O 889.495 -2.07206 -9.98732 0
M  V30 5281 O 888.925 0.0743816 -8.81969 0
M  V30 5282 O 889.465 -1.97652 -7.47304 0
M  V30 5283 C 890.405 -3.01133 -7.08783 0
M  V30 5284 C 889.675 -4.12613 -6.37049 0
M  V30 5285 O 889.465 -3.72827 -4.97879 0
M  V30 5286 C 888.275 -4.45085 -6.88694 0
M  V30 5287 O 887.885 -5.7877 -6.5624 0
M  V30 5288 C 887.395 -3.47817 -6.12078 0
M  V30 5289 C 888.105 -3.39414 -4.77697 0
M  V30 5290 N 888.055 -2.04615 -4.15333 0
M  V30 5291 H 890.894 -3.41248 -7.98759 0
M  V30 5292 H 891.166 -2.5837 -6.41742 0
M  V30 5293 H 890.298 -5.02657 -6.42673 0
M  V30 5294 P 886.335 -6.144 -6.45285 0
M  V30 5295 O 886.115 -7.54673 -6.86199 0
M  V30 5296 O 885.545 -5.12391 -7.179 0
M  V30 5297 O 886.085 -5.99158 -4.88404 0
M  V30 5298 C 887.025 -6.60234 -3.96415 0
M  V30 5299 C 886.295 -7.08259 -2.72856 0
M  V30 5300 O 886.085 -5.9427 -1.83651 0
M  V30 5301 C 884.895 -7.64886 -2.9555 0
M  V30 5302 O 884.505 -8.53963 -1.90717 0
M  V30 5303 C 884.015 -6.4116 -2.90739 0
M  V30 5304 C 884.725 -5.55375 -1.86963 0
M  V30 5305 N 884.675 -4.09664 -2.15742 0
M  V30 5306 H 887.514 -7.45574 -4.45629 0
M  V30 5307 H 887.786 -5.86232 -3.67314 0
M  V30 5308 H 886.918 -7.84412 -2.24479 0
M  V30 5309 P 882.955 -8.7635 -1.60911 0
M  V30 5310 O 882.735 -10.1388 -1.11561 0
M  V30 5311 O 882.165 -8.36503 -2.79617 0
M  V30 5312 O 882.705 -7.71806 -0.42951 0
M  V30 5313 C 883.645 -7.67148 0.673689 0
M  V30 5314 C 882.915 -7.33374 1.95559 0
M  V30 5315 O 882.705 -5.88721 2.00726 0
M  V30 5316 C 881.515 -7.92526 2.10483 0
M  V30 5317 O 881.125 -8.02971 3.47653 0
M  V30 5318 C 880.635 -6.89602 1.41652 0
M  V30 5319 C 881.345 -5.59201 1.75185 0
M  V30 5320 N 881.295 -4.58235 0.662552 0
M  V30 5321 H 884.134 -8.65116 0.777161 0
M  V30 5322 H 884.406 -6.90173 0.474152 0
M  V30 5323 H 883.538 -7.66548 2.79458 0
M  V30 5324 P 879.575 -8.03563 3.84925 0
M  V30 5325 O 879.355 -8.85821 5.0569 0
M  V30 5326 O 878.785 -8.41101 2.65469 0
M  V30 5327 O 879.325 -6.4965 4.18908 0
M  V30 5328 C 880.265 -5.81037 5.05421 0
M  V30 5329 C 879.535 -4.78366 5.89277 0
M  V30 5330 O 879.325 -3.58302 5.08433 0
M  V30 5331 C 878.135 -5.17448 6.36119 0
M  V30 5332 O 877.745 -4.45271 7.53232 0
M  V30 5333 C 877.255 -4.74639 5.19936 0
M  V30 5334 C 877.965 -3.49432 4.70418 0
M  V30 5335 N 877.915 -3.31776 3.22945 0
M  V30 5336 H 880.754 -6.54213 5.71376 0
M  V30 5337 H 881.026 -5.30492 4.44033 0
M  V30 5338 H 880.158 -4.55889 6.76652 0
M  V30 5339 P 876.195 -4.23843 7.83734 0
M  V30 5340 O 875.975 -4.19407 9.29784 0
M  V30 5341 O 875.405 -5.24426 7.09156 0
M  V30 5342 O 875.945 -2.7935 7.20758 0
M  V30 5343 C 876.885 -1.7299 7.50419 0
M  V30 5344 C 876.155 -0.406376 7.57911 0
M  V30 5345 O 875.945 0.0897726 6.21935 0
M  V30 5346 C 874.755 -0.447224 8.1878 0
M  V30 5347 O 874.365 0.825065 8.71101 0
M  V30 5348 C 873.875 -0.783801 6.99623 0
M  V30 5349 C 874.585 -0.0619192 5.85967 0
M  V30 5350 N 874.535 -0.7859 4.56281 0
M  V30 5351 C 874.615 -2.14308 4.31736 0
M  V30 5352 N 874.535 -2.46106 3.05116 0
M  V30 5353 C 874.395 -1.23422 2.4014 0
M  V30 5354 C 874.265 -0.938381 1.02409 0
M  V30 5355 N 874.145 0.444647 0.805413 0
M  V30 5356 C 874.145 1.40829 1.79435 0
M  V30 5357 N 874.015 2.67213 1.38558 0
M  V30 5358 N 874.275 1.12947 3.09005 0
M  V30 5359 C 874.395 -0.204887 3.32369 0
M  V30 5360 H 877.374 -1.93423 8.4679 0
M  V30 5361 H 877.646 -1.68181 6.71046 0
M  V30 5362 H 876.778 0.289041 8.15388 0
M  V30 5363 P 872.815 1.17771 8.83182 0
M  V30 5364 O 872.595 2.07206 9.98732 0
M  V30 5365 O 872.025 -0.0743816 8.81969 0
M  V30 5366 O 872.565 1.97652 7.47304 0
M  V30 5367 C 873.505 3.01133 7.08783 0
M  V30 5368 C 872.775 4.12613 6.37049 0
M  V30 5369 O 872.565 3.72827 4.97879 0
M  V30 5370 C 871.375 4.45085 6.88694 0
M  V30 5371 O 870.985 5.7877 6.5624 0
M  V30 5372 C 870.495 3.47817 6.12078 0
M  V30 5373 C 871.205 3.39414 4.77697 0
M  V30 5374 N 871.155 2.04199 4.15538 0
M  V30 5375 H 873.994 3.41248 7.98759 0
M  V30 5376 H 874.266 2.57728 6.42 0
M  V30 5377 H 873.398 5.02657 6.42673 0
M  V30 5378 H 870.743 4.11708 4.08956 0
M  V30 5379 H 870.463 2.49626 6.61679 0
M  V30 5380 H 869.472 3.8662 6.00862 0
M  V30 5381 H 871.306 4.29991 7.97006 0
M  V30 5382 P 869.435 6.144 6.45285 0
M  V30 5383 O 869.215 7.54673 6.86199 0
M  V30 5384 O 868.645 5.12391 7.179 0
M  V30 5385 O 869.185 5.99158 4.88404 0
M  V30 5386 C 870.125 6.60234 3.96415 0
M  V30 5387 C 869.395 7.08259 2.72856 0
M  V30 5388 O 869.185 5.9427 1.83651 0
M  V30 5389 C 867.995 7.64886 2.9555 0
M  V30 5390 O 867.605 8.53963 1.90717 0
M  V30 5391 C 867.115 6.4116 2.90739 0
M  V30 5392 C 867.825 5.55375 1.86963 0
M  V30 5393 N 867.775 4.09664 2.15742 0
M  V30 5394 H 870.614 7.45574 4.45629 0
M  V30 5395 H 870.886 5.86232 3.67314 0
M  V30 5396 H 870.018 7.84412 2.24479 0
M  V30 5397 P 866.055 8.7635 1.60911 0
M  V30 5398 O 865.835 10.1388 1.11561 0
M  V30 5399 O 865.265 8.36503 2.79617 0
M  V30 5400 O 865.805 7.71806 0.42951 0
M  V30 5401 C 866.745 7.67148 -0.673689 0
M  V30 5402 C 866.015 7.33374 -1.95559 0
M  V30 5403 O 865.805 5.88721 -2.00726 0
M  V30 5404 C 864.615 7.92526 -2.10483 0
M  V30 5405 O 864.225 8.02971 -3.47653 0
M  V30 5406 C 863.735 6.89602 -1.41652 0
M  V30 5407 C 864.445 5.59201 -1.75185 0
M  V30 5408 N 864.395 4.58235 -0.662552 0
M  V30 5409 H 867.234 8.65116 -0.777161 0
M  V30 5410 H 867.506 6.90173 -0.474152 0
M  V30 5411 H 866.638 7.66548 -2.79458 0
M  V30 5412 P 862.675 8.03563 -3.84925 0
M  V30 5413 O 862.455 8.85821 -5.0569 0
M  V30 5414 O 861.885 8.41101 -2.65469 0
M  V30 5415 O 862.425 6.4965 -4.18908 0
M  V30 5416 C 863.365 5.81037 -5.05421 0
M  V30 5417 C 862.635 4.78366 -5.89277 0
M  V30 5418 O 862.425 3.58302 -5.08433 0
M  V30 5419 C 861.235 5.17448 -6.36119 0
M  V30 5420 O 860.845 4.45271 -7.53232 0
M  V30 5421 C 860.355 4.74639 -5.19936 0
M  V30 5422 C 861.065 3.49432 -4.70418 0
M  V30 5423 N 861.015 3.31776 -3.22945 0
M  V30 5424 H 863.854 6.54213 -5.71376 0
M  V30 5425 H 864.126 5.30492 -4.44033 0
M  V30 5426 H 863.258 4.55889 -6.76652 0
M  V30 5427 P 859.295 4.23843 -7.83734 0
M  V30 5428 O 859.075 4.19407 -9.29784 0
M  V30 5429 O 858.505 5.24426 -7.09156 0
M  V30 5430 O 859.045 2.7935 -7.20758 0
M  V30 5431 C 859.985 1.7299 -7.50419 0
M  V30 5432 C 859.255 0.406376 -7.57911 0
M  V30 5433 O 859.045 -0.0897726 -6.21935 0
M  V30 5434 C 857.855 0.447224 -8.1878 0
M  V30 5435 O 857.465 -0.825065 -8.71101 0
M  V30 5436 C 856.975 0.783801 -6.99623 0
M  V30 5437 C 857.685 0.0619192 -5.85967 0
M  V30 5438 N 857.635 0.7859 -4.56281 0
M  V30 5439 H 860.474 1.93423 -8.4679 0
M  V30 5440 H 860.746 1.68181 -6.71046 0
M  V30 5441 H 859.878 -0.289041 -8.15388 0
M  V30 5442 P 855.915 -1.17771 -8.83182 0
M  V30 5443 O 855.695 -2.07206 -9.98732 0
M  V30 5444 O 855.125 0.0743816 -8.81969 0
M  V30 5445 O 855.665 -1.97652 -7.47304 0
M  V30 5446 C 856.605 -3.01133 -7.08783 0
M  V30 5447 C 855.875 -4.12613 -6.37049 0
M  V30 5448 O 855.665 -3.72827 -4.97879 0
M  V30 5449 C 854.475 -4.45085 -6.88694 0
M  V30 5450 O 854.085 -5.7877 -6.5624 0
M  V30 5451 C 853.595 -3.47817 -6.12078 0
M  V30 5452 C 854.305 -3.39414 -4.77697 0
M  V30 5453 N 854.255 -2.04615 -4.15333 0
M  V30 5454 H 857.094 -3.41248 -7.98759 0
M  V30 5455 H 857.366 -2.5837 -6.41742 0
M  V30 5456 H 856.498 -5.02657 -6.42673 0
M  V30 5457 P 852.535 -6.144 -6.45285 0
M  V30 5458 O 852.315 -7.54673 -6.86199 0
M  V30 5459 O 851.745 -5.12391 -7.179 0
M  V30 5460 O 852.285 -5.99158 -4.88404 0
M  V30 5461 C 853.225 -6.60234 -3.96415 0
M  V30 5462 C 852.495 -7.08259 -2.72856 0
M  V30 5463 O 852.285 -5.9427 -1.83651 0
M  V30 5464 C 851.095 -7.64886 -2.9555 0
M  V30 5465 O 850.705 -8.53963 -1.90717 0
M  V30 5466 C 850.215 -6.4116 -2.90739 0
M  V30 5467 C 850.925 -5.55375 -1.86963 0
M  V30 5468 N 850.875 -4.09448 -2.16152 0
M  V30 5469 C 850.955 -3.46824 -3.37593 0
M  V30 5470 N 850.885 -2.17422 -3.29777 0
M  V30 5471 C 850.735 -1.93065 -1.94427 0
M  V30 5472 C 850.605 -0.738053 -1.20141 0
M  V30 5473 N 850.595 0.474256 -1.74676 0
M  V30 5474 N 850.485 -0.850049 0.13045 0
M  V30 5475 C 850.495 -2.06169 0.676992 0
M  V30 5476 N 850.615 -3.23842 0.101312 0
M  V30 5477 C 850.735 -3.09402 -1.23122 0
M  V30 5478 H 853.714 -7.45574 -4.45629 0
M  V30 5479 H 853.986 -5.85864 -3.679 0
M  V30 5480 H 853.118 -7.84412 -2.24479 0
M  V30 5481 H 850.463 -5.73457 -0.888562 0
M  V30 5482 H 850.183 -5.90877 -3.88583 0
M  V30 5483 H 849.192 -6.6596 -2.58858 0
M  V30 5484 H 851.026 -8.16339 -3.92049 0
M  V30 5485 H 851.067 -4.00505 -4.3174 0
M  V30 5486 H 850.686 0.581337 -2.76658 0
M  V30 5487 H 850.497 1.30811 -1.14888 0
M  V30 5488 H 850.389 -2.08295 1.75542 0
M  V30 5489 P 849.155 -8.7635 -1.60911 0
M  V30 5490 O 848.935 -10.1388 -1.11561 0
M  V30 5491 O 848.365 -8.36503 -2.79617 0
M  V30 5492 O 848.905 -7.71806 -0.42951 0
M  V30 5493 C 849.845 -7.67148 0.673689 0
M  V30 5494 C 849.115 -7.33374 1.95559 0
M  V30 5495 O 848.905 -5.88721 2.00726 0
M  V30 5496 C 847.715 -7.92526 2.10483 0
M  V30 5497 O 847.325 -8.02971 3.47653 0
M  V30 5498 C 846.835 -6.89602 1.41652 0
M  V30 5499 C 847.545 -5.59201 1.75185 0
M  V30 5500 N 847.495 -4.58235 0.662552 0
M  V30 5501 H 850.334 -8.65116 0.777161 0
M  V30 5502 H 850.606 -6.90173 0.474152 0
M  V30 5503 H 849.738 -7.66548 2.79458 0
M  V30 5504 P 845.775 -8.03563 3.84925 0
M  V30 5505 O 845.555 -8.85821 5.0569 0
M  V30 5506 O 844.985 -8.41101 2.65469 0
M  V30 5507 O 845.525 -6.4965 4.18908 0
M  V30 5508 C 846.465 -5.81037 5.05421 0
M  V30 5509 C 845.735 -4.78366 5.89277 0
M  V30 5510 O 845.525 -3.58302 5.08433 0
M  V30 5511 C 844.335 -5.17448 6.36119 0
M  V30 5512 O 843.945 -4.45271 7.53232 0
M  V30 5513 C 843.455 -4.74639 5.19936 0
M  V30 5514 C 844.165 -3.49432 4.70418 0
M  V30 5515 N 844.115 -3.31776 3.22945 0
M  V30 5516 H 846.954 -6.54213 5.71376 0
M  V30 5517 H 847.226 -5.30492 4.44033 0
M  V30 5518 H 846.358 -4.55889 6.76652 0
M  V30 5519 P 842.395 -4.23843 7.83734 0
M  V30 5520 O 842.175 -4.19407 9.29784 0
M  V30 5521 O 841.605 -5.24426 7.09156 0
M  V30 5522 O 842.145 -2.7935 7.20758 0
M  V30 5523 C 843.085 -1.7299 7.50419 0
M  V30 5524 C 842.355 -0.406376 7.57911 0
M  V30 5525 O 842.145 0.0897726 6.21935 0
M  V30 5526 C 840.955 -0.447224 8.1878 0
M  V30 5527 O 840.565 0.825065 8.71101 0
M  V30 5528 C 840.075 -0.783801 6.99623 0
M  V30 5529 C 840.785 -0.0619192 5.85967 0
M  V30 5530 N 840.735 -0.7859 4.56281 0
M  V30 5531 H 843.574 -1.93423 8.4679 0
M  V30 5532 H 843.846 -1.68181 6.71046 0
M  V30 5533 H 842.978 0.289041 8.15388 0
M  V30 5534 P 839.015 1.17771 8.83182 0
M  V30 5535 O 838.795 2.07206 9.98732 0
M  V30 5536 O 838.225 -0.0743816 8.81969 0
M  V30 5537 O 838.765 1.97652 7.47304 0
M  V30 5538 C 839.705 3.01133 7.08783 0
M  V30 5539 C 838.975 4.12613 6.37049 0
M  V30 5540 O 838.765 3.72827 4.97879 0
M  V30 5541 C 837.575 4.45085 6.88694 0
M  V30 5542 O 837.185 5.7877 6.5624 0
M  V30 5543 C 836.695 3.47817 6.12078 0
M  V30 5544 C 837.405 3.39414 4.77697 0
M  V30 5545 N 837.355 2.04199 4.15538 0
M  V30 5546 H 840.194 3.41248 7.98759 0
M  V30 5547 H 840.466 2.57728 6.42 0
M  V30 5548 H 839.598 5.02657 6.42673 0
M  V30 5549 H 836.943 4.11708 4.08956 0
M  V30 5550 H 836.663 2.49626 6.61679 0
M  V30 5551 H 835.672 3.8662 6.00862 0
M  V30 5552 H 837.506 4.29991 7.97006 0
M  V30 5553 P 835.635 6.144 6.45285 0
M  V30 5554 O 835.415 7.54673 6.86199 0
M  V30 5555 O 834.845 5.12391 7.179 0
M  V30 5556 O 835.385 5.99158 4.88404 0
M  V30 5557 C 836.325 6.60234 3.96415 0
M  V30 5558 C 835.595 7.08259 2.72856 0
M  V30 5559 O 835.385 5.9427 1.83651 0
M  V30 5560 C 834.195 7.64886 2.9555 0
M  V30 5561 O 833.805 8.53963 1.90717 0
M  V30 5562 C 833.315 6.4116 2.90739 0
M  V30 5563 C 834.025 5.55375 1.86963 0
M  V30 5564 N 833.975 4.09664 2.15742 0
M  V30 5565 H 836.814 7.45574 4.45629 0
M  V30 5566 H 837.086 5.86232 3.67314 0
M  V30 5567 H 836.218 7.84412 2.24479 0
M  V30 5568 P 832.255 8.7635 1.60911 0
M  V30 5569 O 832.035 10.1388 1.11561 0
M  V30 5570 O 831.465 8.36503 2.79617 0
M  V30 5571 O 832.005 7.71806 0.42951 0
M  V30 5572 C 832.945 7.67148 -0.673689 0
M  V30 5573 C 832.215 7.33374 -1.95559 0
M  V30 5574 O 832.005 5.88721 -2.00726 0
M  V30 5575 C 830.815 7.92526 -2.10483 0
M  V30 5576 O 830.425 8.02971 -3.47653 0
M  V30 5577 C 829.935 6.89602 -1.41652 0
M  V30 5578 C 830.645 5.59201 -1.75185 0
M  V30 5579 N 830.595 4.58235 -0.662552 0
M  V30 5580 H 833.434 8.65116 -0.777161 0
M  V30 5581 H 833.706 6.90173 -0.474152 0
M  V30 5582 H 832.838 7.66548 -2.79458 0
M  V30 5583 P 828.875 8.03563 -3.84925 0
M  V30 5584 O 828.655 8.85821 -5.0569 0
M  V30 5585 O 828.085 8.41101 -2.65469 0
M  V30 5586 O 828.625 6.4965 -4.18908 0
M  V30 5587 C 829.565 5.81037 -5.05421 0
M  V30 5588 C 828.835 4.78366 -5.89277 0
M  V30 5589 O 828.625 3.58302 -5.08433 0
M  V30 5590 C 827.435 5.17448 -6.36119 0
M  V30 5591 O 827.045 4.45271 -7.53232 0
M  V30 5592 C 826.555 4.74639 -5.19936 0
M  V30 5593 C 827.265 3.49432 -4.70418 0
M  V30 5594 N 827.215 3.31776 -3.22945 0
M  V30 5595 H 830.054 6.54213 -5.71376 0
M  V30 5596 H 830.326 5.30492 -4.44033 0
M  V30 5597 H 829.458 4.55889 -6.76652 0
M  V30 5598 P 825.495 4.23843 -7.83734 0
M  V30 5599 O 825.275 4.19407 -9.29784 0
M  V30 5600 O 824.705 5.24426 -7.09156 0
M  V30 5601 O 825.245 2.7935 -7.20758 0
M  V30 5602 C 826.185 1.7299 -7.50419 0
M  V30 5603 C 825.455 0.406376 -7.57911 0
M  V30 5604 O 825.245 -0.0897726 -6.21935 0
M  V30 5605 C 824.055 0.447224 -8.1878 0
M  V30 5606 O 823.665 -0.825065 -8.71101 0
M  V30 5607 C 823.175 0.783801 -6.99623 0
M  V30 5608 C 823.885 0.0619192 -5.85967 0
M  V30 5609 N 823.835 0.7859 -4.56281 0
M  V30 5610 H 826.674 1.93423 -8.4679 0
M  V30 5611 H 826.946 1.68181 -6.71046 0
M  V30 5612 H 826.078 -0.289041 -8.15388 0
M  V30 5613 P 822.115 -1.17771 -8.83182 0
M  V30 5614 O 821.895 -2.07206 -9.98732 0
M  V30 5615 O 821.325 0.0743816 -8.81969 0
M  V30 5616 O 821.865 -1.97652 -7.47304 0
M  V30 5617 C 822.805 -3.01133 -7.08783 0
M  V30 5618 C 822.075 -4.12613 -6.37049 0
M  V30 5619 O 821.865 -3.72827 -4.97879 0
M  V30 5620 C 820.675 -4.45085 -6.88694 0
M  V30 5621 O 820.285 -5.7877 -6.5624 0
M  V30 5622 C 819.795 -3.47817 -6.12078 0
M  V30 5623 C 820.505 -3.39414 -4.77697 0
M  V30 5624 N 820.455 -2.04615 -4.15333 0
M  V30 5625 H 823.294 -3.41248 -7.98759 0
M  V30 5626 H 823.566 -2.5837 -6.41742 0
M  V30 5627 H 822.698 -5.02657 -6.42673 0
M  V30 5628 P 818.735 -6.144 -6.45285 0
M  V30 5629 O 818.515 -7.54673 -6.86199 0
M  V30 5630 O 817.945 -5.12391 -7.179 0
M  V30 5631 O 818.485 -5.99158 -4.88404 0
M  V30 5632 C 819.425 -6.60234 -3.96415 0
M  V30 5633 C 818.695 -7.08259 -2.72856 0
M  V30 5634 O 818.485 -5.9427 -1.83651 0
M  V30 5635 C 817.295 -7.64886 -2.9555 0
M  V30 5636 O 816.905 -8.53963 -1.90717 0
M  V30 5637 C 816.415 -6.4116 -2.90739 0
M  V30 5638 C 817.125 -5.55375 -1.86963 0
M  V30 5639 N 817.075 -4.09448 -2.16152 0
M  V30 5640 H 819.914 -7.45574 -4.45629 0
M  V30 5641 H 820.186 -5.85864 -3.679 0
M  V30 5642 H 819.318 -7.84412 -2.24479 0
M  V30 5643 H 816.663 -5.73457 -0.888562 0
M  V30 5644 H 816.383 -5.90877 -3.88583 0
M  V30 5645 H 815.392 -6.6596 -2.58858 0
M  V30 5646 H 817.226 -8.16339 -3.92049 0
M  V30 5647 P 815.355 -8.7635 -1.60911 0
M  V30 5648 O 815.135 -10.1388 -1.11561 0
M  V30 5649 O 814.565 -8.36503 -2.79617 0
M  V30 5650 O 815.105 -7.71806 -0.42951 0
M  V30 5651 C 816.045 -7.67148 0.673689 0
M  V30 5652 C 815.315 -7.33374 1.95559 0
M  V30 5653 O 815.105 -5.88721 2.00726 0
M  V30 5654 C 813.915 -7.92526 2.10483 0
M  V30 5655 O 813.525 -8.02971 3.47653 0
M  V30 5656 C 813.035 -6.89602 1.41652 0
M  V30 5657 C 813.745 -5.59201 1.75185 0
M  V30 5658 N 813.695 -4.58235 0.662552 0
M  V30 5659 H 816.534 -8.65116 0.777161 0
M  V30 5660 H 816.806 -6.90173 0.474152 0
M  V30 5661 H 815.938 -7.66548 2.79458 0
M  V30 5662 P 811.975 -8.03563 3.84925 0
M  V30 5663 O 811.755 -8.85821 5.0569 0
M  V30 5664 O 811.185 -8.41101 2.65469 0
M  V30 5665 O 811.725 -6.4965 4.18908 0
M  V30 5666 C 812.665 -5.81037 5.05421 0
M  V30 5667 C 811.935 -4.78366 5.89277 0
M  V30 5668 O 811.725 -3.58302 5.08433 0
M  V30 5669 C 810.535 -5.17448 6.36119 0
M  V30 5670 O 810.145 -4.45271 7.53232 0
M  V30 5671 C 809.655 -4.74639 5.19936 0
M  V30 5672 C 810.365 -3.49432 4.70418 0
M  V30 5673 N 810.315 -3.31776 3.22945 0
M  V30 5674 H 813.154 -6.54213 5.71376 0
M  V30 5675 H 813.426 -5.30492 4.44033 0
M  V30 5676 H 812.558 -4.55889 6.76652 0
M  V30 5677 P 808.595 -4.23843 7.83734 0
M  V30 5678 O 808.375 -4.19407 9.29784 0
M  V30 5679 O 807.805 -5.24426 7.09156 0
M  V30 5680 O 808.345 -2.7935 7.20758 0
M  V30 5681 C 809.285 -1.7299 7.50419 0
M  V30 5682 C 808.555 -0.406376 7.57911 0
M  V30 5683 O 808.345 0.0897726 6.21935 0
M  V30 5684 C 807.155 -0.447224 8.1878 0
M  V30 5685 O 806.765 0.825065 8.71101 0
M  V30 5686 C 806.275 -0.783801 6.99623 0
M  V30 5687 C 806.985 -0.0619192 5.85967 0
M  V30 5688 N 806.935 -0.7859 4.56281 0
M  V30 5689 H 809.774 -1.93423 8.4679 0
M  V30 5690 H 810.046 -1.68181 6.71046 0
M  V30 5691 H 809.178 0.289041 8.15388 0
M  V30 5692 P 805.215 1.17771 8.83182 0
M  V30 5693 O 804.995 2.07206 9.98732 0
M  V30 5694 O 804.425 -0.0743816 8.81969 0
M  V30 5695 O 804.965 1.97652 7.47304 0
M  V30 5696 C 805.905 3.01133 7.08783 0
M  V30 5697 C 805.175 4.12613 6.37049 0
M  V30 5698 O 804.965 3.72827 4.97879 0
M  V30 5699 C 803.775 4.45085 6.88694 0
M  V30 5700 O 803.385 5.7877 6.5624 0
M  V30 5701 C 802.895 3.47817 6.12078 0
M  V30 5702 C 803.605 3.39414 4.77697 0
M  V30 5703 N 803.555 2.04615 4.15333 0
M  V30 5704 H 806.394 3.41248 7.98759 0
M  V30 5705 H 806.666 2.5837 6.41742 0
M  V30 5706 H 805.798 5.02657 6.42673 0
M  V30 5707 P 801.835 6.144 6.45285 0
M  V30 5708 O 801.615 7.54673 6.86199 0
M  V30 5709 O 801.045 5.12391 7.179 0
M  V30 5710 O 801.585 5.99158 4.88404 0
M  V30 5711 C 802.525 6.60234 3.96415 0
M  V30 5712 C 801.795 7.08259 2.72856 0
M  V30 5713 O 801.585 5.9427 1.83651 0
M  V30 5714 C 800.395 7.64886 2.9555 0
M  V30 5715 O 800.005 8.53963 1.90717 0
M  V30 5716 C 799.515 6.4116 2.90739 0
M  V30 5717 C 800.225 5.55375 1.86963 0
M  V30 5718 N 800.175 4.09664 2.15742 0
M  V30 5719 H 803.014 7.45574 4.45629 0
M  V30 5720 H 803.286 5.86232 3.67314 0
M  V30 5721 H 802.418 7.84412 2.24479 0
M  V30 5722 P 798.455 8.7635 1.60911 0
M  V30 5723 O 798.235 10.1388 1.11561 0
M  V30 5724 O 797.665 8.36503 2.79617 0
M  V30 5725 O 798.205 7.71806 0.42951 0
M  V30 5726 C 799.145 7.67148 -0.673689 0
M  V30 5727 C 798.415 7.33374 -1.95559 0
M  V30 5728 O 798.205 5.88721 -2.00726 0
M  V30 5729 C 797.015 7.92526 -2.10483 0
M  V30 5730 O 796.625 8.02971 -3.47653 0
M  V30 5731 C 796.135 6.89602 -1.41652 0
M  V30 5732 C 796.845 5.59201 -1.75185 0
M  V30 5733 N 796.795 4.58235 -0.662552 0
M  V30 5734 H 799.634 8.65116 -0.777161 0
M  V30 5735 H 799.906 6.90173 -0.474152 0
M  V30 5736 H 799.038 7.66548 -2.79458 0
M  V30 5737 P 795.075 8.03563 -3.84925 0
M  V30 5738 O 794.855 8.85821 -5.0569 0
M  V30 5739 O 794.285 8.41101 -2.65469 0
M  V30 5740 O 794.825 6.4965 -4.18908 0
M  V30 5741 C 795.765 5.81037 -5.05421 0
M  V30 5742 C 795.035 4.78366 -5.89277 0
M  V30 5743 O 794.825 3.58302 -5.08433 0
M  V30 5744 C 793.635 5.17448 -6.36119 0
M  V30 5745 O 793.245 4.45271 -7.53232 0
M  V30 5746 C 792.755 4.74639 -5.19936 0
M  V30 5747 C 793.465 3.49432 -4.70418 0
M  V30 5748 N 793.415 3.32099 -3.22613 0
M  V30 5749 H 796.254 6.54213 -5.71376 0
M  V30 5750 H 796.526 5.30936 -4.43503 0
M  V30 5751 H 795.658 4.55889 -6.76652 0
M  V30 5752 H 793.003 2.61715 -5.17932 0
M  V30 5753 H 792.723 5.52155 -4.41878 0
M  V30 5754 H 791.732 4.51981 -5.53374 0
M  V30 5755 H 793.566 6.25124 -6.55234 0
M  V30 5756 P 791.695 4.23843 -7.83734 0
M  V30 5757 O 791.475 4.19407 -9.29784 0
M  V30 5758 O 790.905 5.24426 -7.09156 0
M  V30 5759 O 791.445 2.7935 -7.20758 0
M  V30 5760 C 792.385 1.7299 -7.50419 0
M  V30 5761 C 791.655 0.406376 -7.57911 0
M  V30 5762 O 791.445 -0.0897726 -6.21935 0
M  V30 5763 C 790.255 0.447224 -8.1878 0
M  V30 5764 O 789.865 -0.825065 -8.71101 0
M  V30 5765 C 789.375 0.783801 -6.99623 0
M  V30 5766 C 790.085 0.0619192 -5.85967 0
M  V30 5767 N 790.035 0.790462 -4.56202 0
M  V30 5768 C 790.115 2.13895 -4.34171 0
M  V30 5769 N 790.045 2.46449 -3.08687 0
M  V30 5770 C 789.895 1.2525 -2.43697 0
M  V30 5771 C 789.765 0.914535 -1.07318 0
M  V30 5772 N 789.755 1.80782 -0.0887348 0
M  V30 5773 N 789.645 -0.386745 -0.768133 0
M  V30 5774 C 789.655 -1.28096 -1.75159 0
M  V30 5775 N 789.775 -1.09708 -3.04861 0
M  V30 5776 C 789.895 0.214857 -3.32306 0
M  V30 5777 H 792.874 1.93423 -8.4679 0
M  V30 5778 H 793.146 1.68852 -6.70877 0
M  V30 5779 H 792.278 -0.289041 -8.15388 0
M  V30 5780 H 789.623 -0.927006 -5.72848 0
M  V30 5781 H 789.343 1.86973 -6.82036 0
M  V30 5782 H 788.352 0.403953 -7.13357 0
M  V30 5783 H 790.186 1.20599 -8.97534 0
M  V30 5784 H 790.227 2.86846 -5.14318 0
M  V30 5785 H 789.846 2.81082 -0.302037 0
M  V30 5786 H 789.657 1.49688 0.889064 0
M  V30 5787 H 789.549 -2.31317 -1.43855 0
M  V30 5788 P 788.315 -1.17771 -8.83182 0
M  V30 5789 O 788.095 -2.07206 -9.98732 0
M  V30 5790 O 787.525 0.0743816 -8.81969 0
M  V30 5791 O 788.065 -1.97652 -7.47304 0
M  V30 5792 C 789.005 -3.01133 -7.08783 0
M  V30 5793 C 788.275 -4.12613 -6.37049 0
M  V30 5794 O 788.065 -3.72827 -4.97879 0
M  V30 5795 C 786.875 -4.45085 -6.88694 0
M  V30 5796 O 786.485 -5.7877 -6.5624 0
M  V30 5797 C 785.995 -3.47817 -6.12078 0
M  V30 5798 C 786.705 -3.39414 -4.77697 0
M  V30 5799 N 786.655 -2.04615 -4.15333 0
M  V30 5800 C 786.735 -0.803897 -4.75249 0
M  V30 5801 N 786.655 0.197615 -3.91502 0
M  V30 5802 C 786.515 -0.413002 -2.66823 0
M  V30 5803 C 786.385 0.157221 -1.38007 0
M  V30 5804 N 786.265 -0.833136 -0.390236 0
M  V30 5805 C 786.265 -2.19402 -0.623885 0
M  V30 5806 N 786.135 -2.97622 0.449677 0
M  V30 5807 N 786.395 -2.73005 -1.83601 0
M  V30 5808 C 786.515 -1.78786 -2.80935 0
M  V30 5809 H 789.494 -3.41248 -7.98759 0
M  V30 5810 H 789.766 -2.5837 -6.41742 0
M  V30 5811 H 788.898 -5.02657 -6.42673 0
M  V30 5812 P 784.935 -6.144 -6.45285 0
M  V30 5813 O 784.715 -7.54673 -6.86199 0
M  V30 5814 O 784.145 -5.12391 -7.179 0
M  V30 5815 O 784.685 -5.99158 -4.88404 0
M  V30 5816 C 785.625 -6.60062 -3.96313 0
M  V30 5817 C 784.895 -7.08259 -2.72856 0
M  V30 5818 O 784.685 -5.9427 -1.83651 0
M  V30 5819 C 783.495 -7.65087 -2.94749 0
M  V30 5820 O 783.105 -8.53963 -1.90717 0
M  V30 5821 C 782.615 -6.41069 -2.90698 0
M  V30 5822 C 783.325 -5.5528 -1.86931 0
M  V30 5823 N 783.275 -4.09575 -2.15696 0
M  V30 5824 C 783.125 -3.24249 -1.08435 0
M  V30 5825 O 783.035 -3.63946 0.0628747 0
M  V30 5826 N 783.085 -1.90009 -1.39973 0
M  V30 5827 C 783.175 -1.34884 -2.65614 0
M  V30 5828 C 783.325 -2.3145 -3.71736 0
M  V30 5829 C 783.375 -3.63518 -3.44754 0
M  V30 5830 H 786.116 -7.45402 -4.45526 0
M  V30 5831 H 786.385 -5.86062 -3.67208 0
M  V30 5832 H 785.518 -7.84412 -2.24479 0
M  V30 5833 H 782.863 -5.73358 -0.888409 0
M  V30 5834 H 782.584 -5.90877 -3.88583 0
M  V30 5835 H 781.592 -6.65867 -2.58821 0
M  V30 5836 H 783.426 -8.16248 -3.92006 0
M  V30 5837 H 783.497 -4.34551 -4.26383 0
M  V30 5838 P 781.555 -8.7635 -1.60911 0
M  V30 5839 O 781.335 -10.1388 -1.11561 0
M  V30 5840 O 780.765 -8.36503 -2.79617 0
M  V30 5841 O 781.305 -7.71806 -0.42951 0
M  V30 5842 C 782.245 -7.67148 0.673689 0
M  V30 5843 C 781.515 -7.33374 1.95559 0
M  V30 5844 O 781.305 -5.88721 2.00726 0
M  V30 5845 C 780.115 -7.92526 2.10483 0
M  V30 5846 O 779.725 -8.02971 3.47653 0
M  V30 5847 C 779.235 -6.89602 1.41652 0
M  V30 5848 C 779.945 -5.59201 1.75185 0
M  V30 5849 N 779.895 -4.58235 0.662552 0
M  V30 5850 H 782.734 -8.65116 0.777161 0
M  V30 5851 H 783.006 -6.90173 0.474152 0
M  V30 5852 H 782.138 -7.66548 2.79458 0
M  V30 5853 P 778.175 -8.03563 3.84925 0
M  V30 5854 O 777.955 -8.85821 5.0569 0
M  V30 5855 O 777.385 -8.41101 2.65469 0
M  V30 5856 O 777.925 -6.4965 4.18908 0
M  V30 5857 C 778.865 -5.80886 5.05289 0
M  V30 5858 C 778.135 -4.78366 5.89277 0
M  V30 5859 O 777.925 -3.58302 5.08433 0
M  V30 5860 C 776.735 -5.16748 6.36559 0
M  V30 5861 O 776.345 -4.45271 7.53232 0
M  V30 5862 C 775.855 -4.74572 5.19863 0
M  V30 5863 C 776.565 -3.49373 4.70338 0
M  V30 5864 N 776.515 -3.31704 3.22876 0
M  V30 5865 C 776.365 -2.03326 2.74871 0
M  V30 5866 O 776.275 -1.06486 3.48076 0
M  V30 5867 N 776.325 -1.91838 1.37456 0
M  V30 5868 C 776.415 -2.94295 0.462035 0
M  V30 5869 C 776.565 -4.25064 1.05249 0
M  V30 5870 C 776.615 -4.40214 2.39192 0
M  V30 5871 H 779.356 -6.54063 5.71245 0
M  V30 5872 H 779.625 -5.30339 4.43905 0
M  V30 5873 H 778.758 -4.55889 6.76652 0
M  V30 5874 H 776.103 -2.6167 5.17842 0
M  V30 5875 H 775.824 -5.52155 4.41878 0
M  V30 5876 H 774.832 -4.51918 5.53297 0
M  V30 5877 H 776.666 -6.25055 6.55162 0
M  V30 5878 H 776.737 -5.39798 2.81523 0
M  V30 5879 P 774.795 -4.23843 7.83734 0
M  V30 5880 O 774.575 -4.19407 9.29784 0
M  V30 5881 O 774.005 -5.24426 7.09156 0
M  V30 5882 O 774.545 -2.7935 7.20758 0
M  V30 5883 C 775.485 -1.7299 7.50419 0
M  V30 5884 C 774.755 -0.406376 7.57911 0
M  V30 5885 O 774.545 0.0897726 6.21935 0
M  V30 5886 C 773.355 -0.447224 8.1878 0
M  V30 5887 O 772.965 0.825065 8.71101 0
M  V30 5888 C 772.475 -0.783801 6.99623 0
M  V30 5889 C 773.185 -0.0619192 5.85967 0
M  V30 5890 N 773.135 -0.7859 4.56281 0
M  V30 5891 H 775.974 -1.93423 8.4679 0
M  V30 5892 H 776.246 -1.68181 6.71046 0
M  V30 5893 H 775.378 0.289041 8.15388 0
M  V30 5894 P 771.415 1.17771 8.83182 0
M  V30 5895 O 771.195 2.07206 9.98732 0
M  V30 5896 O 770.625 -0.0743816 8.81969 0
M  V30 5897 O 771.165 1.97652 7.47304 0
M  V30 5898 C 772.105 3.01133 7.08783 0
M  V30 5899 C 771.375 4.12613 6.37049 0
M  V30 5900 O 771.165 3.72827 4.97879 0
M  V30 5901 C 769.975 4.45085 6.88694 0
M  V30 5902 O 769.585 5.7877 6.5624 0
M  V30 5903 C 769.095 3.47817 6.12078 0
M  V30 5904 C 769.805 3.39414 4.77697 0
M  V30 5905 N 769.755 2.04615 4.15333 0
M  V30 5906 C 769.835 0.803897 4.75249 0
M  V30 5907 N 769.755 -0.197615 3.91502 0
M  V30 5908 C 769.615 0.413002 2.66823 0
M  V30 5909 C 769.485 -0.157221 1.38007 0
M  V30 5910 N 769.365 0.833136 0.390236 0
M  V30 5911 C 769.365 2.19402 0.623885 0
M  V30 5912 N 769.235 2.97622 -0.449677 0
M  V30 5913 N 769.495 2.73005 1.83601 0
M  V30 5914 C 769.615 1.78786 2.80935 0
M  V30 5915 H 772.594 3.41248 7.98759 0
M  V30 5916 H 772.866 2.5837 6.41742 0
M  V30 5917 H 771.998 5.02657 6.42673 0
M  V30 5918 P 768.035 6.144 6.45285 0
M  V30 5919 O 767.815 7.54673 6.86199 0
M  V30 5920 O 767.245 5.12391 7.179 0
M  V30 5921 O 767.785 5.99158 4.88404 0
M  V30 5922 C 768.725 6.60234 3.96415 0
M  V30 5923 C 767.995 7.08259 2.72856 0
M  V30 5924 O 767.785 5.9427 1.83651 0
M  V30 5925 C 766.595 7.64886 2.9555 0
M  V30 5926 O 766.205 8.53963 1.90717 0
M  V30 5927 C 765.715 6.4116 2.90739 0
M  V30 5928 C 766.425 5.55375 1.86963 0
M  V30 5929 N 766.375 4.09664 2.15742 0
M  V30 5930 H 769.214 7.45574 4.45629 0
M  V30 5931 H 769.486 5.86232 3.67314 0
M  V30 5932 H 768.618 7.84412 2.24479 0
M  V30 5933 P 764.656 8.7635 1.60911 0
M  V30 5934 O 764.436 10.1388 1.11561 0
M  V30 5935 O 763.866 8.36503 2.79617 0
M  V30 5936 O 764.406 7.71806 0.42951 0
M  V30 5937 C 765.346 7.67148 -0.673689 0
M  V30 5938 C 764.616 7.33374 -1.95559 0
M  V30 5939 O 764.406 5.88721 -2.00726 0
M  V30 5940 C 763.216 7.92526 -2.10483 0
M  V30 5941 O 762.826 8.02971 -3.47653 0
M  V30 5942 C 762.336 6.89602 -1.41652 0
M  V30 5943 C 763.046 5.59201 -1.75185 0
M  V30 5944 N 762.996 4.58235 -0.662552 0
M  V30 5945 H 765.835 8.65116 -0.777161 0
M  V30 5946 H 766.107 6.90173 -0.474152 0
M  V30 5947 H 765.239 7.66548 -2.79458 0
M  V30 5948 P 761.276 8.03563 -3.84925 0
M  V30 5949 O 761.056 8.85821 -5.0569 0
M  V30 5950 O 760.486 8.41101 -2.65469 0
M  V30 5951 O 761.026 6.4965 -4.18908 0
M  V30 5952 C 761.966 5.81037 -5.05421 0
M  V30 5953 C 761.236 4.78366 -5.89277 0
M  V30 5954 O 761.026 3.58302 -5.08433 0
M  V30 5955 C 759.836 5.17448 -6.36119 0
M  V30 5956 O 759.446 4.45271 -7.53232 0
M  V30 5957 C 758.956 4.74639 -5.19936 0
M  V30 5958 C 759.666 3.49432 -4.70418 0
M  V30 5959 N 759.616 3.31776 -3.22945 0
M  V30 5960 H 762.455 6.54213 -5.71376 0
M  V30 5961 H 762.727 5.30492 -4.44033 0
M  V30 5962 H 761.859 4.55889 -6.76652 0
M  V30 5963 P 757.896 4.23843 -7.83734 0
M  V30 5964 O 757.676 4.19407 -9.29784 0
M  V30 5965 O 757.106 5.24426 -7.09156 0
M  V30 5966 O 757.646 2.79386 -7.20852 0
M  V30 5967 C 758.586 1.7299 -7.50419 0
M  V30 5968 C 757.856 0.41401 -7.5797 0
M  V30 5969 O 757.646 -0.089787 -6.22035 0
M  V30 5970 C 756.456 0.447224 -8.1878 0
M  V30 5971 O 756.066 -0.825159 -8.71201 0
M  V30 5972 C 755.576 0.783801 -6.99623 0
M  V30 5973 C 756.286 0.0619192 -5.85967 0
M  V30 5974 N 756.236 0.7859 -4.56281 0
M  V30 5975 C 756.086 0.0359258 -3.39981 0
M  V30 5976 O 755.996 -1.19723 -3.49038 0
M  V30 5977 N 756.036 0.869151 -2.14025 0
M  V30 5978 C 756.136 2.01207 -2.14363 0
M  V30 5979 N 756.086 2.58978 -0.954287 0
M  V30 5980 C 756.286 2.80817 -3.32215 0
M  V30 5981 C 756.336 2.13785 -4.50884 0
M  V30 5982 H 759.076 1.93401 -8.46693 0
M  V30 5983 H 759.346 1.68181 -6.71046 0
M  V30 5984 H 758.479 -0.289076 -8.15488 0
M  V30 5985 H 755.824 -0.927166 -5.72947 0
M  V30 5986 H 755.544 1.87 -6.82132 0
M  V30 5987 H 754.553 0.404009 -7.13457 0
M  V30 5988 H 756.387 1.20599 -8.97534 0
M  V30 5989 H 756.459 2.70295 -5.43162 0
M  V30 5990 H 756.357 3.89465 -3.27406 0
M  V30 5991 H 755.969 2.01616 -0.107046 0
M  V30 5992 H 756.165 3.61403 -0.873101 0
M  V30 5993 P 754.516 -1.17771 -8.83182 0
M  V30 5994 O 754.296 -2.07206 -9.98732 0
M  V30 5995 O 753.726 0.0743816 -8.81969 0
M  V30 5996 O 754.266 -1.97652 -7.47304 0
M  V30 5997 C 755.206 -3.01133 -7.08783 0
M  V30 5998 C 754.476 -4.12613 -6.37049 0
M  V30 5999 O 754.266 -3.72827 -4.97879 0
M  V30 6000 C 753.076 -4.45085 -6.88694 0
M  V30 6001 O 752.686 -5.7877 -6.5624 0
M  V30 6002 C 752.196 -3.47817 -6.12078 0
M  V30 6003 C 752.906 -3.39414 -4.77697 0
M  V30 6004 N 752.856 -2.04615 -4.15333 0
M  V30 6005 H 755.695 -3.41248 -7.98759 0
M  V30 6006 H 755.967 -2.5837 -6.41742 0
M  V30 6007 H 755.099 -5.02657 -6.42673 0
M  V30 6008 P 751.136 -6.144 -6.45285 0
M  V30 6009 O 750.916 -7.54673 -6.86199 0
M  V30 6010 O 750.346 -5.12391 -7.179 0
M  V30 6011 O 750.886 -5.99158 -4.88404 0
M  V30 6012 C 751.826 -6.60234 -3.96415 0
M  V30 6013 C 751.096 -7.08259 -2.72856 0
M  V30 6014 O 750.886 -5.9427 -1.83651 0
M  V30 6015 C 749.696 -7.64886 -2.9555 0
M  V30 6016 O 749.306 -8.53963 -1.90717 0
M  V30 6017 C 748.816 -6.4116 -2.90739 0
M  V30 6018 C 749.526 -5.55375 -1.86963 0
M  V30 6019 N 749.476 -4.09664 -2.15742 0
M  V30 6020 C 749.556 -3.44381 -3.37233 0
M  V30 6021 N 749.476 -2.14131 -3.28347 0
M  V30 6022 C 749.336 -1.90247 -1.91588 0
M  V30 6023 C 749.206 -0.683992 -1.20892 0
M  V30 6024 N 749.086 -0.903396 0.173998 0
M  V30 6025 C 749.086 -2.14171 0.784879 0
M  V30 6026 N 748.956 -2.1435 2.11317 0
M  V30 6027 N 749.216 -3.28784 0.119316 0
M  V30 6028 C 749.336 -3.0977 -1.22194 0
M  V30 6029 H 752.315 -7.45574 -4.45629 0
M  V30 6030 H 752.587 -5.86232 -3.67314 0
M  V30 6031 H 751.719 -7.84412 -2.24479 0
M  V30 6032 P 747.756 -8.7635 -1.60911 0
M  V30 6033 O 747.536 -10.1388 -1.11561 0
M  V30 6034 O 746.966 -8.36503 -2.79617 0
M  V30 6035 O 747.506 -7.71806 -0.42951 0
M  V30 6036 C 748.446 -7.67148 0.673689 0
M  V30 6037 C 747.716 -7.33374 1.95559 0
M  V30 6038 O 747.506 -5.88721 2.00726 0
M  V30 6039 C 746.316 -7.92526 2.10483 0
M  V30 6040 O 745.926 -8.02971 3.47653 0
M  V30 6041 C 745.436 -6.89602 1.41652 0
M  V30 6042 C 746.146 -5.59201 1.75185 0
M  V30 6043 N 746.096 -4.58235 0.662552 0
M  V30 6044 H 748.935 -8.65116 0.777161 0
M  V30 6045 H 749.207 -6.90173 0.474152 0
M  V30 6046 H 748.339 -7.66548 2.79458 0
M  V30 6047 P 744.376 -8.03563 3.84925 0
M  V30 6048 O 744.156 -8.85821 5.0569 0
M  V30 6049 O 743.586 -8.41101 2.65469 0
M  V30 6050 O 744.126 -6.4965 4.18908 0
M  V30 6051 C 745.066 -5.81037 5.05421 0
M  V30 6052 C 744.336 -4.78366 5.89277 0
M  V30 6053 O 744.126 -3.58302 5.08433 0
M  V30 6054 C 742.936 -5.17448 6.36119 0
M  V30 6055 O 742.546 -4.45271 7.53232 0
M  V30 6056 C 742.056 -4.74639 5.19936 0
M  V30 6057 C 742.766 -3.49432 4.70418 0
M  V30 6058 N 742.716 -3.31776 3.22945 0
M  V30 6059 H 745.555 -6.54213 5.71376 0
M  V30 6060 H 745.827 -5.30492 4.44033 0
M  V30 6061 H 744.959 -4.55889 6.76652 0
M  V30 6062 P 740.996 -4.23843 7.83734 0
M  V30 6063 O 740.776 -4.19407 9.29784 0
M  V30 6064 O 740.206 -5.24426 7.09156 0
M  V30 6065 O 740.746 -2.7935 7.20758 0
M  V30 6066 C 741.686 -1.7299 7.50419 0
M  V30 6067 C 740.956 -0.406376 7.57911 0
M  V30 6068 O 740.746 0.0897726 6.21935 0
M  V30 6069 C 739.556 -0.447224 8.1878 0
M  V30 6070 O 739.166 0.825065 8.71101 0
M  V30 6071 C 738.676 -0.783801 6.99623 0
M  V30 6072 C 739.386 -0.0619192 5.85967 0
M  V30 6073 N 739.336 -0.790462 4.56202 0
M  V30 6074 H 742.175 -1.93423 8.4679 0
M  V30 6075 H 742.447 -1.68852 6.70877 0
M  V30 6076 H 741.579 0.289041 8.15388 0
M  V30 6077 H 738.924 0.927006 5.72848 0
M  V30 6078 H 738.644 -1.86973 6.82036 0
M  V30 6079 H 737.653 -0.403953 7.13357 0
M  V30 6080 H 739.487 -1.20599 8.97534 0
M  V30 6081 P 737.616 1.17771 8.83182 0
M  V30 6082 O 737.396 2.07206 9.98732 0
M  V30 6083 O 736.826 -0.0743816 8.81969 0
M  V30 6084 O 737.366 1.97652 7.47304 0
M  V30 6085 C 738.306 3.01133 7.08783 0
M  V30 6086 C 737.576 4.12613 6.37049 0
M  V30 6087 O 737.366 3.72827 4.97879 0
M  V30 6088 C 736.176 4.45085 6.88694 0
M  V30 6089 O 735.786 5.7877 6.5624 0
M  V30 6090 C 735.296 3.47817 6.12078 0
M  V30 6091 C 736.006 3.39414 4.77697 0
M  V30 6092 N 735.956 2.04615 4.15333 0
M  V30 6093 C 736.036 0.803897 4.75249 0
M  V30 6094 N 735.956 -0.197615 3.91502 0
M  V30 6095 C 735.816 0.413002 2.66823 0
M  V30 6096 C 735.686 -0.157221 1.38007 0
M  V30 6097 N 735.566 0.833136 0.390236 0
M  V30 6098 C 735.566 2.19402 0.623885 0
M  V30 6099 N 735.436 2.97622 -0.449677 0
M  V30 6100 N 735.696 2.73005 1.83601 0
M  V30 6101 C 735.816 1.78786 2.80935 0
M  V30 6102 H 738.795 3.41248 7.98759 0
M  V30 6103 H 739.067 2.5837 6.41742 0
M  V30 6104 H 738.199 5.02657 6.42673 0
M  V30 6105 P 734.236 6.144 6.45285 0
M  V30 6106 O 734.016 7.54673 6.86199 0
M  V30 6107 O 733.446 5.12391 7.179 0
M  V30 6108 O 733.986 5.99158 4.88404 0
M  V30 6109 C 734.926 6.60234 3.96415 0
M  V30 6110 C 734.196 7.08259 2.72856 0
M  V30 6111 O 733.986 5.9427 1.83651 0
M  V30 6112 C 732.796 7.64886 2.9555 0
M  V30 6113 O 732.406 8.53963 1.90717 0
M  V30 6114 C 731.916 6.4116 2.90739 0
M  V30 6115 C 732.626 5.55375 1.86963 0
M  V30 6116 N 732.576 4.09664 2.15742 0
M  V30 6117 C 732.656 3.44381 3.37233 0
M  V30 6118 N 732.576 2.14131 3.28347 0
M  V30 6119 C 732.436 1.90247 1.91588 0
M  V30 6120 C 732.306 0.683992 1.20892 0
M  V30 6121 N 732.186 0.903396 -0.173998 0
M  V30 6122 C 732.186 2.14171 -0.784879 0
M  V30 6123 N 732.056 2.1435 -2.11317 0
M  V30 6124 N 732.316 3.28784 -0.119316 0
M  V30 6125 C 732.436 3.0977 1.22194 0
M  V30 6126 H 735.415 7.45574 4.45629 0
M  V30 6127 H 735.687 5.86232 3.67314 0
M  V30 6128 H 734.819 7.84412 2.24479 0
M  V30 6129 P 730.856 8.7635 1.60911 0
M  V30 6130 O 730.636 10.1388 1.11561 0
M  V30 6131 O 730.066 8.36503 2.79617 0
M  V30 6132 O 730.606 7.71806 0.42951 0
M  V30 6133 C 731.546 7.66948 -0.673514 0
M  V30 6134 C 730.816 7.33374 -1.95559 0
M  V30 6135 O 730.606 5.88721 -2.00726 0
M  V30 6136 C 729.416 7.92218 -2.1125 0
M  V30 6137 O 729.026 8.02971 -3.47653 0
M  V30 6138 C 728.536 6.89504 -1.41631 0
M  V30 6139 C 729.246 5.59106 -1.75155 0
M  V30 6140 N 729.196 4.58136 -0.662409 0
M  V30 6141 C 729.046 3.26059 -1.02863 0
M  V30 6142 O 728.956 2.90743 -2.19009 0
M  V30 6143 N 729.006 2.35995 0.0155585 0
M  V30 6144 C 729.096 2.65248 1.35603 0
M  V30 6145 C 729.246 4.05747 1.64698 0
M  V30 6146 C 729.296 4.96734 0.652411 0
M  V30 6147 H 732.037 8.64917 -0.776982 0
M  V30 6148 H 732.306 6.89974 -0.474015 0
M  V30 6149 H 731.439 7.66548 -2.79458 0
M  V30 6150 H 728.784 5.16076 -2.65138 0
M  V30 6151 H 728.505 7.06433 -0.329384 0
M  V30 6152 H 727.513 6.90829 -1.81996 0
M  V30 6153 H 729.347 8.90774 -1.62639 0
M  V30 6154 H 729.418 6.02181 0.895285 0
M  V30 6155 P 727.476 8.03563 -3.84925 0
M  V30 6156 O 727.256 8.85821 -5.0569 0
M  V30 6157 O 726.686 8.41101 -2.65469 0
M  V30 6158 O 727.226 6.4965 -4.18908 0
M  V30 6159 C 728.166 5.81037 -5.05421 0
M  V30 6160 C 727.436 4.78366 -5.89277 0
M  V30 6161 O 727.226 3.58302 -5.08433 0
M  V30 6162 C 726.036 5.17448 -6.36119 0
M  V30 6163 O 725.646 4.45271 -7.53232 0
M  V30 6164 C 725.156 4.74639 -5.19936 0
M  V30 6165 C 725.866 3.49432 -4.70418 0
M  V30 6166 N 725.816 3.32099 -3.22613 0
M  V30 6167 H 728.655 6.54213 -5.71376 0
M  V30 6168 H 728.927 5.30936 -4.43503 0
M  V30 6169 H 728.059 4.55889 -6.76652 0
M  V30 6170 H 725.404 2.61715 -5.17932 0
M  V30 6171 H 725.124 5.52155 -4.41878 0
M  V30 6172 H 724.133 4.51981 -5.53374 0
M  V30 6173 H 725.967 6.25124 -6.55234 0
M  V30 6174 P 724.096 4.23843 -7.83734 0
M  V30 6175 O 723.876 4.19407 -9.29784 0
M  V30 6176 O 723.306 5.24426 -7.09156 0
M  V30 6177 O 723.846 2.7935 -7.20758 0
M  V30 6178 C 724.786 1.7299 -7.50419 0
M  V30 6179 C 724.056 0.406376 -7.57911 0
M  V30 6180 O 723.846 -0.0897726 -6.21935 0
M  V30 6181 C 722.656 0.447224 -8.1878 0
M  V30 6182 O 722.266 -0.825065 -8.71101 0
M  V30 6183 C 721.776 0.783801 -6.99623 0
M  V30 6184 C 722.486 0.0619192 -5.85967 0
M  V30 6185 N 722.436 0.7859 -4.56281 0
M  V30 6186 H 725.275 1.93423 -8.4679 0
M  V30 6187 H 725.547 1.68181 -6.71046 0
M  V30 6188 H 724.679 -0.289041 -8.15388 0
M  V30 6189 P 720.716 -1.17771 -8.83182 0
M  V30 6190 O 720.496 -2.07206 -9.98732 0
M  V30 6191 O 719.926 0.0743816 -8.81969 0
M  V30 6192 O 720.466 -1.97652 -7.47304 0
M  V30 6193 C 721.406 -3.01133 -7.08783 0
M  V30 6194 C 720.676 -4.12613 -6.37049 0
M  V30 6195 O 720.466 -3.72827 -4.97879 0
M  V30 6196 C 719.276 -4.45085 -6.88694 0
M  V30 6197 O 718.886 -5.7877 -6.5624 0
M  V30 6198 C 718.396 -3.47817 -6.12078 0
M  V30 6199 C 719.106 -3.39414 -4.77697 0
M  V30 6200 N 719.056 -2.04615 -4.15333 0
M  V30 6201 H 721.895 -3.41248 -7.98759 0
M  V30 6202 H 722.167 -2.5837 -6.41742 0
M  V30 6203 H 721.299 -5.02657 -6.42673 0
M  V30 6204 P 717.336 -6.144 -6.45285 0
M  V30 6205 O 717.116 -7.54673 -6.86199 0
M  V30 6206 O 716.546 -5.12391 -7.179 0
M  V30 6207 O 717.086 -5.99158 -4.88404 0
M  V30 6208 C 718.026 -6.60234 -3.96415 0
M  V30 6209 C 717.296 -7.08259 -2.72856 0
M  V30 6210 O 717.086 -5.9427 -1.83651 0
M  V30 6211 C 715.896 -7.64886 -2.9555 0
M  V30 6212 O 715.506 -8.53963 -1.90717 0
M  V30 6213 C 715.016 -6.4116 -2.90739 0
M  V30 6214 C 715.726 -5.55375 -1.86963 0
M  V30 6215 N 715.676 -4.09448 -2.16152 0
M  V30 6216 H 718.515 -7.45574 -4.45629 0
M  V30 6217 H 718.787 -5.85864 -3.679 0
M  V30 6218 H 717.919 -7.84412 -2.24479 0
M  V30 6219 H 715.264 -5.73457 -0.888562 0
M  V30 6220 H 714.984 -5.90877 -3.88583 0
M  V30 6221 H 713.993 -6.6596 -2.58858 0
M  V30 6222 H 715.827 -8.16339 -3.92049 0
M  V30 6223 P 713.956 -8.7635 -1.60911 0
M  V30 6224 O 713.736 -10.1388 -1.11561 0
M  V30 6225 O 713.166 -8.36503 -2.79617 0
M  V30 6226 O 713.706 -7.71806 -0.42951 0
M  V30 6227 C 714.646 -7.66948 0.673514 0
M  V30 6228 C 713.916 -7.33374 1.95559 0
M  V30 6229 O 713.706 -5.88721 2.00726 0
M  V30 6230 C 712.516 -7.92218 2.1125 0
M  V30 6231 O 712.126 -8.02971 3.47653 0
M  V30 6232 C 711.636 -6.89504 1.41631 0
M  V30 6233 C 712.346 -5.59106 1.75155 0
M  V30 6234 N 712.296 -4.58136 0.662409 0
M  V30 6235 C 712.146 -3.26059 1.02863 0
M  V30 6236 O 712.056 -2.90743 2.19009 0
M  V30 6237 N 712.106 -2.35995 -0.0155585 0
M  V30 6238 C 712.196 -2.65248 -1.35603 0
M  V30 6239 C 712.346 -4.05747 -1.64698 0
M  V30 6240 C 712.396 -4.96734 -0.652411 0
M  V30 6241 H 715.137 -8.64917 0.776982 0
M  V30 6242 H 715.406 -6.89974 0.474015 0
M  V30 6243 H 714.539 -7.66548 2.79458 0
M  V30 6244 H 711.884 -5.16076 2.65138 0
M  V30 6245 H 711.605 -7.06433 0.329384 0
M  V30 6246 H 710.613 -6.90829 1.81996 0
M  V30 6247 H 712.447 -8.90774 1.62639 0
M  V30 6248 H 712.518 -6.02181 -0.895285 0
M  V30 6249 P 710.576 -8.03563 3.84925 0
M  V30 6250 O 710.356 -8.85821 5.0569 0
M  V30 6251 O 709.786 -8.41101 2.65469 0
M  V30 6252 O 710.326 -6.4965 4.18908 0
M  V30 6253 C 711.266 -5.81037 5.05421 0
M  V30 6254 C 710.536 -4.78366 5.89277 0
M  V30 6255 O 710.326 -3.58302 5.08433 0
M  V30 6256 C 709.136 -5.17448 6.36119 0
M  V30 6257 O 708.746 -4.45271 7.53232 0
M  V30 6258 C 708.256 -4.74639 5.19936 0
M  V30 6259 C 708.966 -3.49432 4.70418 0
M  V30 6260 N 708.916 -3.31776 3.22945 0
M  V30 6261 H 711.755 -6.54213 5.71376 0
M  V30 6262 H 712.027 -5.30492 4.44033 0
M  V30 6263 H 711.159 -4.55889 6.76652 0
M  V30 6264 P 707.196 -4.23843 7.83734 0
M  V30 6265 O 706.976 -4.19407 9.29784 0
M  V30 6266 O 706.406 -5.24426 7.09156 0
M  V30 6267 O 706.946 -2.7935 7.20758 0
M  V30 6268 C 707.886 -1.72945 7.50224 0
M  V30 6269 C 707.156 -0.406376 7.57911 0
M  V30 6270 O 706.946 0.0897726 6.21935 0
M  V30 6271 C 705.756 -0.438983 8.18724 0
M  V30 6272 O 705.366 0.825065 8.71101 0
M  V30 6273 C 704.876 -0.783689 6.99524 0
M  V30 6274 C 705.586 -0.0619086 5.85867 0
M  V30 6275 N 705.536 -0.78573 4.56183 0
M  V30 6276 C 705.386 -0.0292889 3.41887 0
M  V30 6277 O 705.296 1.18445 3.4419 0
M  V30 6278 N 705.346 -0.744061 2.23964 0
M  V30 6279 C 705.436 -2.10932 2.10362 0
M  V30 6280 C 705.586 -2.8202 3.34994 0
M  V30 6281 C 705.636 -2.15547 4.52261 0
M  V30 6282 H 708.377 -1.93379 8.46595 0
M  V30 6283 H 708.646 -1.68132 6.70852 0
M  V30 6284 H 707.779 0.289041 8.15388 0
M  V30 6285 H 705.124 0.926847 5.72749 0
M  V30 6286 H 704.845 -1.86973 6.82036 0
M  V30 6287 H 703.853 -0.403896 7.13257 0
M  V30 6288 H 705.687 -1.20585 8.97435 0
M  V30 6289 H 705.758 -2.71231 5.45042 0
M  V30 6290 P 703.816 1.17771 8.83182 0
M  V30 6291 O 703.596 2.07206 9.98732 0
M  V30 6292 O 703.026 -0.0743816 8.81969 0
M  V30 6293 O 703.566 1.97652 7.47304 0
M  V30 6294 C 704.506 3.01133 7.08783 0
M  V30 6295 C 703.776 4.12613 6.37049 0
M  V30 6296 O 703.566 3.72827 4.97879 0
M  V30 6297 C 702.376 4.45085 6.88694 0
M  V30 6298 O 701.986 5.7877 6.5624 0
M  V30 6299 C 701.496 3.47817 6.12078 0
M  V30 6300 C 702.206 3.39414 4.77697 0
M  V30 6301 N 702.156 2.04615 4.15333 0
M  V30 6302 H 704.995 3.41248 7.98759 0
M  V30 6303 H 705.267 2.5837 6.41742 0
M  V30 6304 H 704.399 5.02657 6.42673 0
M  V30 6305 P 700.436 6.144 6.45285 0
M  V30 6306 O 700.216 7.54673 6.86199 0
M  V30 6307 O 699.646 5.12391 7.179 0
M  V30 6308 O 700.186 5.99158 4.88404 0
M  V30 6309 C 701.126 6.60234 3.96415 0
M  V30 6310 C 700.396 7.08259 2.72856 0
M  V30 6311 O 700.186 5.9427 1.83651 0
M  V30 6312 C 698.996 7.64886 2.9555 0
M  V30 6313 O 698.606 8.53963 1.90717 0
M  V30 6314 C 698.116 6.4116 2.90739 0
M  V30 6315 C 698.826 5.55375 1.86963 0
M  V30 6316 N 698.776 4.09664 2.15742 0
M  V30 6317 H 701.615 7.45574 4.45629 0
M  V30 6318 H 701.887 5.86232 3.67314 0
M  V30 6319 H 701.019 7.84412 2.24479 0
M  V30 6320 P 697.056 8.7635 1.60911 0
M  V30 6321 O 696.836 10.1388 1.11561 0
M  V30 6322 O 696.266 8.36503 2.79617 0
M  V30 6323 O 696.806 7.71806 0.42951 0
M  V30 6324 C 697.746 7.67148 -0.673689 0
M  V30 6325 C 697.016 7.33374 -1.95559 0
M  V30 6326 O 696.806 5.88721 -2.00726 0
M  V30 6327 C 695.616 7.92526 -2.10483 0
M  V30 6328 O 695.226 8.02971 -3.47653 0
M  V30 6329 C 694.736 6.89602 -1.41652 0
M  V30 6330 C 695.446 5.59201 -1.75185 0
M  V30 6331 N 695.396 4.58235 -0.662552 0
M  V30 6332 C 695.476 4.7683 0.704049 0
M  V30 6333 N 695.396 3.66233 1.39775 0
M  V30 6334 C 695.256 2.66526 0.431739 0
M  V30 6335 C 695.126 1.26394 0.575992 0
M  V30 6336 O 695.106 0.589894 1.60503 0
M  V30 6337 N 695.006 0.62859 -0.67177 0
M  V30 6338 C 695.006 1.27134 -1.89385 0
M  V30 6339 N 694.876 0.492035 -2.96951 0
M  V30 6340 N 695.136 2.58978 -2.02907 0
M  V30 6341 C 695.256 3.22433 -0.832218 0
M  V30 6342 H 698.235 8.65116 -0.777161 0
M  V30 6343 H 698.507 6.90173 -0.474152 0
M  V30 6344 H 697.639 7.66548 -2.79458 0
M  V30 6345 H 694.984 5.16254 -2.65229 0
M  V30 6346 H 694.704 7.06532 -0.329431 0
M  V30 6347 H 693.713 6.91023 -1.82047 0
M  V30 6348 H 695.547 8.90971 -1.62675 0
M  V30 6349 H 695.596 5.74954 1.16305 0
M  V30 6350 H 694.914 -0.366713 -0.674793 0
M  V30 6351 H 694.877 0.908532 -3.91188 0
M  V30 6352 H 694.776 -0.528253 -2.85758 0
M  V30 6353 P 693.676 8.03563 -3.84925 0
M  V30 6354 O 693.456 8.85821 -5.0569 0
M  V30 6355 O 692.886 8.41101 -2.65469 0
M  V30 6356 O 693.426 6.4965 -4.18908 0
M  V30 6357 C 694.366 5.81037 -5.05421 0
M  V30 6358 C 693.636 4.78366 -5.89277 0
M  V30 6359 O 693.426 3.58302 -5.08433 0
M  V30 6360 C 692.236 5.17448 -6.36119 0
M  V30 6361 O 691.846 4.45271 -7.53232 0
M  V30 6362 C 691.356 4.74639 -5.19936 0
M  V30 6363 C 692.066 3.49432 -4.70418 0
M  V30 6364 N 692.016 3.31776 -3.22945 0
M  V30 6365 H 694.855 6.54213 -5.71376 0
M  V30 6366 H 695.127 5.30492 -4.44033 0
M  V30 6367 H 694.259 4.55889 -6.76652 0
M  V30 6368 P 690.296 4.23843 -7.83734 0
M  V30 6369 O 690.076 4.19407 -9.29784 0
M  V30 6370 O 689.506 5.24426 -7.09156 0
M  V30 6371 O 690.046 2.7935 -7.20758 0
M  V30 6372 C 690.986 1.7299 -7.50419 0
M  V30 6373 C 690.256 0.406376 -7.57911 0
M  V30 6374 O 690.046 -0.0897726 -6.21935 0
M  V30 6375 C 688.856 0.447224 -8.1878 0
M  V30 6376 O 688.466 -0.825065 -8.71101 0
M  V30 6377 C 687.976 0.783801 -6.99623 0
M  V30 6378 C 688.686 0.0619192 -5.85967 0
M  V30 6379 N 688.636 0.7859 -4.56281 0
M  V30 6380 H 691.475 1.93423 -8.4679 0
M  V30 6381 H 691.747 1.68181 -6.71046 0
M  V30 6382 H 690.879 -0.289041 -8.15388 0
M  V30 6383 P 686.916 -1.17771 -8.83182 0
M  V30 6384 O 686.696 -2.07206 -9.98732 0
M  V30 6385 O 686.126 0.0743816 -8.81969 0
M  V30 6386 O 686.666 -1.97652 -7.47304 0
M  V30 6387 C 687.606 -3.01133 -7.08783 0
M  V30 6388 C 686.876 -4.12613 -6.37049 0
M  V30 6389 O 686.666 -3.72827 -4.97879 0
M  V30 6390 C 685.476 -4.45085 -6.88694 0
M  V30 6391 O 685.086 -5.7877 -6.5624 0
M  V30 6392 C 684.596 -3.47817 -6.12078 0
M  V30 6393 C 685.306 -3.39414 -4.77697 0
M  V30 6394 N 685.256 -2.04199 -4.15538 0
M  V30 6395 H 688.095 -3.41248 -7.98759 0
M  V30 6396 H 688.367 -2.57728 -6.42 0
M  V30 6397 H 687.499 -5.02657 -6.42673 0
M  V30 6398 H 684.844 -4.11708 -4.08956 0
M  V30 6399 H 684.564 -2.49626 -6.61679 0
M  V30 6400 H 683.573 -3.8662 -6.00862 0
M  V30 6401 H 685.407 -4.29991 -7.97006 0
M  V30 6402 P 683.536 -6.144 -6.45285 0
M  V30 6403 O 683.316 -7.54673 -6.86199 0
M  V30 6404 O 682.746 -5.12391 -7.179 0
M  V30 6405 O 683.286 -5.99158 -4.88404 0
M  V30 6406 C 684.226 -6.60234 -3.96415 0
M  V30 6407 C 683.496 -7.08259 -2.72856 0
M  V30 6408 O 683.286 -5.9427 -1.83651 0
M  V30 6409 C 682.096 -7.64886 -2.9555 0
M  V30 6410 O 681.706 -8.53963 -1.90717 0
M  V30 6411 C 681.216 -6.4116 -2.90739 0
M  V30 6412 C 681.926 -5.55375 -1.86963 0
M  V30 6413 N 681.876 -4.09664 -2.15742 0
M  V30 6414 H 684.715 -7.45574 -4.45629 0
M  V30 6415 H 684.987 -5.86232 -3.67314 0
M  V30 6416 H 684.119 -7.84412 -2.24479 0
M  V30 6417 P 680.156 -8.7635 -1.60911 0
M  V30 6418 O 679.936 -10.1388 -1.11561 0
M  V30 6419 O 679.366 -8.36503 -2.79617 0
M  V30 6420 O 679.906 -7.71806 -0.42951 0
M  V30 6421 C 680.846 -7.67148 0.673689 0
M  V30 6422 C 680.116 -7.33374 1.95559 0
M  V30 6423 O 679.906 -5.88721 2.00726 0
M  V30 6424 C 678.716 -7.92526 2.10483 0
M  V30 6425 O 678.326 -8.02971 3.47653 0
M  V30 6426 C 677.836 -6.89602 1.41652 0
M  V30 6427 C 678.546 -5.59201 1.75185 0
M  V30 6428 N 678.496 -4.58235 0.662552 0
M  V30 6429 C 678.576 -4.7683 -0.704049 0
M  V30 6430 N 678.496 -3.66233 -1.39775 0
M  V30 6431 C 678.356 -2.66526 -0.431739 0
M  V30 6432 C 678.226 -1.26394 -0.575992 0
M  V30 6433 O 678.206 -0.589894 -1.60503 0
M  V30 6434 N 678.106 -0.62859 0.67177 0
M  V30 6435 C 678.106 -1.27134 1.89385 0
M  V30 6436 N 677.976 -0.492035 2.96951 0
M  V30 6437 N 678.236 -2.58978 2.02907 0
M  V30 6438 C 678.356 -3.22433 0.832218 0
M  V30 6439 H 681.335 -8.65116 0.777161 0
M  V30 6440 H 681.607 -6.90173 0.474152 0
M  V30 6441 H 680.739 -7.66548 2.79458 0
M  V30 6442 H 678.084 -5.16254 2.65229 0
M  V30 6443 H 677.804 -7.06532 0.329431 0
M  V30 6444 H 676.813 -6.91023 1.82047 0
M  V30 6445 H 678.647 -8.90971 1.62675 0
M  V30 6446 H 678.696 -5.74954 -1.16305 0
M  V30 6447 H 678.014 0.366713 0.674793 0
M  V30 6448 H 677.977 -0.908532 3.91188 0
M  V30 6449 H 677.876 0.528253 2.85758 0
M  V30 6450 P 676.776 -8.03563 3.84925 0
M  V30 6451 O 676.556 -8.85821 5.0569 0
M  V30 6452 O 675.986 -8.41101 2.65469 0
M  V30 6453 O 676.526 -6.4965 4.18908 0
M  V30 6454 C 677.466 -5.81037 5.05421 0
M  V30 6455 C 676.736 -4.78366 5.89277 0
M  V30 6456 O 676.526 -3.58302 5.08433 0
M  V30 6457 C 675.336 -5.17448 6.36119 0
M  V30 6458 O 674.946 -4.45271 7.53232 0
M  V30 6459 C 674.456 -4.74639 5.19936 0
M  V30 6460 C 675.166 -3.49432 4.70418 0
M  V30 6461 N 675.116 -3.32099 3.22613 0
M  V30 6462 H 677.955 -6.54213 5.71376 0
M  V30 6463 H 678.227 -5.30936 4.43503 0
M  V30 6464 H 677.359 -4.55889 6.76652 0
M  V30 6465 H 674.704 -2.61715 5.17932 0
M  V30 6466 H 674.424 -5.52155 4.41878 0
M  V30 6467 H 673.433 -4.51981 5.53374 0
M  V30 6468 H 675.267 -6.25124 6.55234 0
M  V30 6469 P 673.396 -4.23843 7.83734 0
M  V30 6470 O 673.176 -4.19407 9.29784 0
M  V30 6471 O 672.606 -5.24426 7.09156 0
M  V30 6472 O 673.146 -2.7935 7.20758 0
M  V30 6473 C 674.086 -1.7299 7.50419 0
M  V30 6474 C 673.356 -0.406376 7.57911 0
M  V30 6475 O 673.146 0.0897726 6.21935 0
M  V30 6476 C 671.956 -0.447224 8.1878 0
M  V30 6477 O 671.566 0.825065 8.71101 0
M  V30 6478 C 671.076 -0.783801 6.99623 0
M  V30 6479 C 671.786 -0.0619192 5.85967 0
M  V30 6480 N 671.736 -0.790462 4.56202 0
M  V30 6481 H 674.575 -1.93423 8.4679 0
M  V30 6482 H 674.847 -1.68852 6.70877 0
M  V30 6483 H 673.979 0.289041 8.15388 0
M  V30 6484 H 671.324 0.927006 5.72848 0
M  V30 6485 H 671.044 -1.86973 6.82036 0
M  V30 6486 H 670.053 -0.403953 7.13357 0
M  V30 6487 H 671.887 -1.20599 8.97534 0
M  V30 6488 P 670.016 1.17771 8.83182 0
M  V30 6489 O 669.796 2.07206 9.98732 0
M  V30 6490 O 669.226 -0.0743816 8.81969 0
M  V30 6491 O 669.766 1.97652 7.47304 0
M  V30 6492 C 670.706 3.01133 7.08783 0
M  V30 6493 C 669.976 4.12613 6.37049 0
M  V30 6494 O 669.766 3.72827 4.97879 0
M  V30 6495 C 668.576 4.45085 6.88694 0
M  V30 6496 O 668.186 5.7877 6.5624 0
M  V30 6497 C 667.696 3.47817 6.12078 0
M  V30 6498 C 668.406 3.39414 4.77697 0
M  V30 6499 N 668.356 2.04615 4.15333 0
M  V30 6500 H 671.195 3.41248 7.98759 0
M  V30 6501 H 671.467 2.5837 6.41742 0
M  V30 6502 H 670.599 5.02657 6.42673 0
M  V30 6503 P 666.636 6.144 6.45285 0
M  V30 6504 O 666.416 7.54673 6.86199 0
M  V30 6505 O 665.846 5.12391 7.179 0
M  V30 6506 O 666.386 5.99158 4.88404 0
M  V30 6507 C 667.326 6.60234 3.96415 0
M  V30 6508 C 666.596 7.08259 2.72856 0
M  V30 6509 O 666.386 5.9427 1.83651 0
M  V30 6510 C 665.196 7.64886 2.9555 0
M  V30 6511 O 664.806 8.53963 1.90717 0
M  V30 6512 C 664.316 6.4116 2.90739 0
M  V30 6513 C 665.026 5.55375 1.86963 0
M  V30 6514 N 664.976 4.09664 2.15742 0
M  V30 6515 H 667.815 7.45574 4.45629 0
M  V30 6516 H 668.087 5.86232 3.67314 0
M  V30 6517 H 667.219 7.84412 2.24479 0
M  V30 6518 P 663.256 8.7635 1.60911 0
M  V30 6519 O 663.036 10.1388 1.11561 0
M  V30 6520 O 662.466 8.36503 2.79617 0
M  V30 6521 O 663.006 7.71806 0.42951 0
M  V30 6522 C 663.946 7.67148 -0.673689 0
M  V30 6523 C 663.216 7.33374 -1.95559 0
M  V30 6524 O 663.006 5.88721 -2.00726 0
M  V30 6525 C 661.816 7.92526 -2.10483 0
M  V30 6526 O 661.426 8.02971 -3.47653 0
M  V30 6527 C 660.936 6.89602 -1.41652 0
M  V30 6528 C 661.646 5.59201 -1.75185 0
M  V30 6529 N 661.596 4.58235 -0.662552 0
M  V30 6530 H 664.435 8.65116 -0.777161 0
M  V30 6531 H 664.707 6.90173 -0.474152 0
M  V30 6532 H 663.839 7.66548 -2.79458 0
M  V30 6533 P 659.876 8.03563 -3.84925 0
M  V30 6534 O 659.656 8.85821 -5.0569 0
M  V30 6535 O 659.086 8.41101 -2.65469 0
M  V30 6536 O 659.626 6.4965 -4.18908 0
M  V30 6537 C 660.566 5.81037 -5.05421 0
M  V30 6538 C 659.836 4.78366 -5.89277 0
M  V30 6539 O 659.626 3.58302 -5.08433 0
M  V30 6540 C 658.436 5.17448 -6.36119 0
M  V30 6541 O 658.046 4.45271 -7.53232 0
M  V30 6542 C 657.556 4.74639 -5.19936 0
M  V30 6543 C 658.266 3.49432 -4.70418 0
M  V30 6544 N 658.216 3.31776 -3.22945 0
M  V30 6545 C 658.296 4.27147 -2.23315 0
M  V30 6546 N 658.216 3.78447 -1.02186 0
M  V30 6547 C 658.076 2.41001 -1.21732 0
M  V30 6548 C 657.946 1.36111 -0.27694 0
M  V30 6549 O 657.926 1.42065 0.951767 0
M  V30 6550 N 657.826 0.113683 -0.912949 0
M  V30 6551 C 657.826 -0.0846396 -2.27943 0
M  V30 6552 N 657.696 -1.34737 -2.6916 0
M  V30 6553 N 657.956 0.902521 -3.16379 0
M  V30 6554 C 658.076 2.11937 -2.56849 0
M  V30 6555 H 661.055 6.54213 -5.71376 0
M  V30 6556 H 661.327 5.30492 -4.44033 0
M  V30 6557 H 660.459 4.55889 -6.76652 0
M  V30 6558 H 657.804 2.6176 -5.18021 0
M  V30 6559 H 657.524 5.52233 -4.41941 0
M  V30 6560 H 656.533 4.52045 -5.53452 0
M  V30 6561 H 658.367 6.25193 -6.55307 0
M  V30 6562 H 658.416 5.3351 -2.43857 0
M  V30 6563 H 657.734 -0.69331 -0.330371 0
M  V30 6564 H 657.697 -1.56433 -3.6988 0
M  V30 6565 H 657.596 -2.10701 -2.00133 0
M  V30 6566 P 656.496 4.23843 -7.83734 0
M  V30 6567 O 656.276 4.19407 -9.29784 0
M  V30 6568 O 655.706 5.24426 -7.09156 0
M  V30 6569 O 656.246 2.7935 -7.20758 0
M  V30 6570 C 657.186 1.72945 -7.50224 0
M  V30 6571 C 656.456 0.406376 -7.57911 0
M  V30 6572 O 656.246 -0.0897726 -6.21935 0
M  V30 6573 C 655.056 0.438983 -8.18724 0
M  V30 6574 O 654.666 -0.825065 -8.71101 0
M  V30 6575 C 654.176 0.783689 -6.99524 0
M  V30 6576 C 654.886 0.0619086 -5.85867 0
M  V30 6577 N 654.836 0.78573 -4.56183 0
M  V30 6578 C 654.686 0.0292889 -3.41887 0
M  V30 6579 O 654.596 -1.18445 -3.4419 0
M  V30 6580 N 654.646 0.744061 -2.23964 0
M  V30 6581 C 654.736 2.10932 -2.10362 0
M  V30 6582 O 654.686 2.64117 -0.98825 0
M  V30 6583 C 654.886 2.8202 -3.34994 0
M  V30 6584 C 654.996 4.31095 -3.25037 0
M  V30 6585 C 654.936 2.15547 -4.52261 0
M  V30 6586 H 657.677 1.93379 -8.46595 0
M  V30 6587 H 657.946 1.68132 -6.70852 0
M  V30 6588 H 657.079 -0.289041 -8.15388 0
M  V30 6589 H 654.424 -0.926847 -5.72749 0
M  V30 6590 H 654.145 1.86973 -6.82036 0
M  V30 6591 H 653.153 0.403896 -7.13257 0
M  V30 6592 H 654.987 1.20585 -8.97435 0
M  V30 6593 H 655.058 2.71231 -5.45042 0
M  V30 6594 H 654.028 4.76966 -3.49992 0
M  V30 6595 H 655.765 4.67047 -3.95024 0
M  V30 6596 H 655.277 4.58996 -2.22312 0
M  V30 6597 H 654.541 0.214893 -1.39758 0
M  V30 6598 P 653.116 -1.17771 -8.83182 0
M  V30 6599 O 652.896 -2.07206 -9.98732 0
M  V30 6600 O 652.326 0.0743816 -8.81969 0
M  V30 6601 O 652.866 -1.97652 -7.47304 0
M  V30 6602 C 653.806 -3.01133 -7.08783 0
M  V30 6603 C 653.076 -4.12613 -6.37049 0
M  V30 6604 O 652.866 -3.72827 -4.97879 0
M  V30 6605 C 651.676 -4.45085 -6.88694 0
M  V30 6606 O 651.286 -5.7877 -6.5624 0
M  V30 6607 C 650.796 -3.47817 -6.12078 0
M  V30 6608 C 651.506 -3.39414 -4.77697 0
M  V30 6609 N 651.456 -2.04199 -4.15538 0
M  V30 6610 H 654.295 -3.41248 -7.98759 0
M  V30 6611 H 654.567 -2.57728 -6.42 0
M  V30 6612 H 653.699 -5.02657 -6.42673 0
M  V30 6613 H 651.044 -4.11708 -4.08956 0
M  V30 6614 H 650.764 -2.49626 -6.61679 0
M  V30 6615 H 649.773 -3.8662 -6.00862 0
M  V30 6616 H 651.607 -4.29991 -7.97006 0
M  V30 6617 P 649.736 -6.144 -6.45285 0
M  V30 6618 O 649.516 -7.54673 -6.86199 0
M  V30 6619 O 648.946 -5.12391 -7.179 0
M  V30 6620 O 649.486 -5.99158 -4.88404 0
M  V30 6621 C 650.426 -6.60234 -3.96415 0
M  V30 6622 C 649.696 -7.08259 -2.72856 0
M  V30 6623 O 649.486 -5.9427 -1.83651 0
M  V30 6624 C 648.296 -7.64886 -2.9555 0
M  V30 6625 O 647.906 -8.53963 -1.90717 0
M  V30 6626 C 647.416 -6.4116 -2.90739 0
M  V30 6627 C 648.126 -5.55375 -1.86963 0
M  V30 6628 N 648.076 -4.09664 -2.15742 0
M  V30 6629 C 648.156 -3.44381 -3.37233 0
M  V30 6630 N 648.076 -2.14131 -3.28347 0
M  V30 6631 C 647.936 -1.90247 -1.91588 0
M  V30 6632 C 647.806 -0.683992 -1.20892 0
M  V30 6633 O 647.786 0.46618 -1.64523 0
M  V30 6634 N 647.686 -0.903396 0.173998 0
M  V30 6635 C 647.686 -2.14171 0.784879 0
M  V30 6636 N 647.556 -2.1435 2.11317 0
M  V30 6637 N 647.816 -3.28784 0.119316 0
M  V30 6638 C 647.936 -3.0977 -1.22194 0
M  V30 6639 H 650.915 -7.45574 -4.45629 0
M  V30 6640 H 651.187 -5.86232 -3.67314 0
M  V30 6641 H 650.319 -7.84412 -2.24479 0
M  V30 6642 H 647.664 -5.73556 -0.888715 0
M  V30 6643 H 647.384 -5.9096 -3.88638 0
M  V30 6644 H 646.393 -6.66053 -2.58894 0
M  V30 6645 H 648.227 -8.16429 -3.92093 0
M  V30 6646 H 648.276 -3.96785 -4.32043 0
M  V30 6647 H 647.594 -0.0999567 0.761467 0
M  V30 6648 H 647.557 -3.03436 2.63076 0
M  V30 6649 H 647.456 -1.25228 2.62233 0
M  V30 6650 P 646.356 -8.7635 -1.60911 0
M  V30 6651 O 646.136 -10.1388 -1.11561 0
M  V30 6652 O 645.566 -8.36503 -2.79617 0
M  V30 6653 O 646.106 -7.71806 -0.42951 0
M  V30 6654 C 647.046 -7.67148 0.673689 0
M  V30 6655 C 646.316 -7.33374 1.95559 0
M  V30 6656 O 646.106 -5.88721 2.00726 0
M  V30 6657 C 644.916 -7.92526 2.10483 0
M  V30 6658 O 644.526 -8.02971 3.47653 0
M  V30 6659 C 644.036 -6.89602 1.41652 0
M  V30 6660 C 644.746 -5.59201 1.75185 0
M  V30 6661 N 644.696 -4.58301 0.657969 0
M  V30 6662 C 644.776 -4.79019 -0.692603 0
M  V30 6663 N 644.706 -3.69736 -1.38998 0
M  V30 6664 C 644.556 -2.70474 -0.438135 0
M  V30 6665 C 644.426 -1.30327 -0.538142 0
M  V30 6666 N 644.416 -0.64304 -1.69192 0
M  V30 6667 N 644.306 -0.611027 0.605183 0
M  V30 6668 C 644.316 -1.27002 1.75953 0
M  V30 6669 N 644.436 -2.56038 1.98546 0
M  V30 6670 C 644.556 -3.22681 0.822541 0
M  V30 6671 H 647.535 -8.65116 0.777161 0
M  V30 6672 H 647.807 -6.9022 0.46725 0
M  V30 6673 H 646.939 -7.66548 2.79458 0
M  V30 6674 H 644.284 -5.16165 2.65183 0
M  V30 6675 H 644.004 -7.06433 0.329384 0
M  V30 6676 H 643.013 -6.90926 1.82021 0
M  V30 6677 H 644.847 -8.90873 1.62657 0
M  V30 6678 H 644.888 -5.77785 -1.13874 0
M  V30 6679 H 644.507 -1.15585 -2.57991 0
M  V30 6680 H 644.318 0.382989 -1.69835 0
M  V30 6681 H 644.21 -0.653331 2.64449 0
M  V30 6682 P 642.976 -8.03563 3.84925 0
M  V30 6683 O 642.756 -8.85821 5.0569 0
M  V30 6684 O 642.186 -8.41101 2.65469 0
M  V30 6685 O 642.726 -6.4965 4.18908 0
M  V30 6686 C 643.666 -5.80886 5.05289 0
M  V30 6687 C 642.936 -4.78366 5.89277 0
M  V30 6688 O 642.726 -3.58302 5.08433 0
M  V30 6689 C 641.536 -5.16748 6.36559 0
M  V30 6690 O 641.146 -4.45271 7.53232 0
M  V30 6691 C 640.656 -4.74572 5.19863 0
M  V30 6692 C 641.366 -3.49373 4.70338 0
M  V30 6693 N 641.316 -3.31704 3.22876 0
M  V30 6694 C 641.166 -2.03326 2.74871 0
M  V30 6695 O 641.076 -1.06486 3.48076 0
M  V30 6696 N 641.126 -1.91838 1.37456 0
M  V30 6697 C 641.216 -2.94295 0.462035 0
M  V30 6698 O 641.166 -2.71763 -0.752928 0
M  V30 6699 C 641.366 -4.25064 1.05249 0
M  V30 6700 C 641.476 -5.39815 0.095697 0
M  V30 6701 C 641.416 -4.40214 2.39192 0
M  V30 6702 H 644.157 -6.54063 5.71245 0
M  V30 6703 H 644.426 -5.30339 4.43905 0
M  V30 6704 H 643.559 -4.55889 6.76652 0
M  V30 6705 H 640.904 -2.6167 5.17842 0
M  V30 6706 H 640.625 -5.52155 4.41878 0
M  V30 6707 H 639.633 -4.51918 5.53297 0
M  V30 6708 H 641.467 -6.25055 6.55162 0
M  V30 6709 H 641.538 -5.39798 2.81523 0
M  V30 6710 H 640.508 -5.91593 0.0279582 0
M  V30 6711 H 642.245 -6.10038 0.450573 0
M  V30 6712 H 641.757 -5.02007 -0.89937 0
M  V30 6713 H 641.021 -0.995326 1.00435 0
M  V30 6714 P 639.596 -4.23843 7.83734 0
M  V30 6715 O 639.376 -4.19407 9.29784 0
M  V30 6716 O 638.806 -5.24426 7.09156 0
M  V30 6717 O 639.346 -2.79386 7.20852 0
M  V30 6718 C 640.286 -1.7299 7.50419 0
M  V30 6719 C 639.556 -0.41401 7.5797 0
M  V30 6720 O 639.346 0.089787 6.22035 0
M  V30 6721 C 638.156 -0.447224 8.1878 0
M  V30 6722 O 637.766 0.825159 8.71201 0
M  V30 6723 C 637.276 -0.783801 6.99623 0
M  V30 6724 C 637.986 -0.0619192 5.85967 0
M  V30 6725 N 637.936 -0.7859 4.56281 0
M  V30 6726 C 637.786 -0.0359258 3.39981 0
M  V30 6727 O 637.696 1.19723 3.49038 0
M  V30 6728 N 637.736 -0.869151 2.14025 0
M  V30 6729 C 637.836 -2.01207 2.14363 0
M  V30 6730 N 637.786 -2.58978 0.954287 0
M  V30 6731 C 637.986 -2.80817 3.32215 0
M  V30 6732 C 638.036 -2.13785 4.50884 0
M  V30 6733 H 640.776 -1.93401 8.46693 0
M  V30 6734 H 641.046 -1.68181 6.71046 0
M  V30 6735 H 640.179 0.289076 8.15488 0
M  V30 6736 H 637.524 0.927166 5.72947 0
M  V30 6737 H 637.244 -1.87 6.82132 0
M  V30 6738 H 636.253 -0.404009 7.13457 0
M  V30 6739 H 638.087 -1.20599 8.97534 0
M  V30 6740 H 638.159 -2.70295 5.43162 0
M  V30 6741 H 638.057 -3.89465 3.27406 0
M  V30 6742 H 637.669 -2.01616 0.107046 0
M  V30 6743 H 637.865 -3.61403 0.873101 0
M  V30 6744 P 636.216 1.17771 8.83182 0
M  V30 6745 O 635.996 2.07206 9.98732 0
M  V30 6746 O 635.426 -0.0743816 8.81969 0
M  V30 6747 O 635.966 1.97652 7.47304 0
M  V30 6748 C 636.906 3.01055 7.08599 0
M  V30 6749 C 636.176 4.12613 6.37049 0
M  V30 6750 O 635.966 3.72827 4.97879 0
M  V30 6751 C 634.776 4.45719 6.88164 0
M  V30 6752 O 634.386 5.7877 6.5624 0
M  V30 6753 C 633.896 3.47768 6.11991 0
M  V30 6754 C 634.606 3.39356 4.77615 0
M  V30 6755 N 634.556 2.04571 4.15244 0
M  V30 6756 C 634.406 1.98587 2.78314 0
M  V30 6757 O 634.316 2.98134 2.08835 0
M  V30 6758 N 634.366 0.714467 2.24925 0
M  V30 6759 C 634.456 -0.470001 2.94169 0
M  V30 6760 C 634.606 -0.312541 4.36783 0
M  V30 6761 C 634.656 0.914512 4.92583 0
M  V30 6762 H 637.397 3.41169 7.98575 0
M  V30 6763 H 637.666 2.58295 6.41556 0
M  V30 6764 H 636.799 5.02657 6.42673 0
M  V30 6765 H 634.144 4.11637 4.08885 0
M  V30 6766 H 633.865 2.49626 6.61679 0
M  V30 6767 H 632.873 3.86566 6.00778 0
M  V30 6768 H 634.707 4.29943 7.96918 0
M  V30 6769 H 634.778 1.00937 6.00374 0
M  V30 6770 P 632.836 6.144 6.45285 0
M  V30 6771 O 632.616 7.54673 6.86199 0
M  V30 6772 O 632.046 5.12391 7.179 0
M  V30 6773 O 632.586 5.99158 4.88404 0
M  V30 6774 C 633.526 6.60234 3.96415 0
M  V30 6775 C 632.796 7.08259 2.72856 0
M  V30 6776 O 632.586 5.9427 1.83651 0
M  V30 6777 C 631.396 7.64886 2.9555 0
M  V30 6778 O 631.006 8.53963 1.90717 0
M  V30 6779 C 630.516 6.4116 2.90739 0
M  V30 6780 C 631.226 5.55375 1.86963 0
M  V30 6781 N 631.176 4.09448 2.16152 0
M  V30 6782 H 634.015 7.45574 4.45629 0
M  V30 6783 H 634.287 5.85864 3.679 0
M  V30 6784 H 633.419 7.84412 2.24479 0
M  V30 6785 H 630.764 5.73457 0.888562 0
M  V30 6786 H 630.484 5.90877 3.88583 0
M  V30 6787 H 629.493 6.6596 2.58858 0
M  V30 6788 H 631.327 8.16339 3.92049 0
M  V30 6789 P 629.456 8.7635 1.60911 0
M  V30 6790 O 629.236 10.1388 1.11561 0
M  V30 6791 O 628.666 8.36503 2.79617 0
M  V30 6792 O 629.206 7.71806 0.42951 0
M  V30 6793 C 630.146 7.67148 -0.673689 0
M  V30 6794 C 629.416 7.33374 -1.95559 0
M  V30 6795 O 629.206 5.88721 -2.00726 0
M  V30 6796 C 628.016 7.92526 -2.10483 0
M  V30 6797 O 627.626 8.02971 -3.47653 0
M  V30 6798 C 627.136 6.89602 -1.41652 0
M  V30 6799 C 627.846 5.59201 -1.75185 0
M  V30 6800 N 627.796 4.58235 -0.662552 0
M  V30 6801 C 627.876 4.7683 0.704049 0
M  V30 6802 N 627.796 3.66233 1.39775 0
M  V30 6803 C 627.656 2.66526 0.431739 0
M  V30 6804 C 627.526 1.26394 0.575992 0
M  V30 6805 N 627.406 0.62859 -0.67177 0
M  V30 6806 C 627.406 1.27134 -1.89385 0
M  V30 6807 N 627.276 0.492035 -2.96951 0
M  V30 6808 N 627.536 2.58978 -2.02907 0
M  V30 6809 C 627.656 3.22433 -0.832218 0
M  V30 6810 H 630.635 8.65116 -0.777161 0
M  V30 6811 H 630.907 6.90173 -0.474152 0
M  V30 6812 H 630.039 7.66548 -2.79458 0
M  V30 6813 P 626.076 8.03563 -3.84925 0
M  V30 6814 O 625.856 8.85821 -5.0569 0
M  V30 6815 O 625.286 8.41101 -2.65469 0
M  V30 6816 O 625.826 6.4965 -4.18908 0
M  V30 6817 C 626.766 5.81037 -5.05421 0
M  V30 6818 C 626.036 4.78366 -5.89277 0
M  V30 6819 O 625.826 3.58302 -5.08433 0
M  V30 6820 C 624.636 5.17448 -6.36119 0
M  V30 6821 O 624.246 4.45271 -7.53232 0
M  V30 6822 C 623.756 4.74639 -5.19936 0
M  V30 6823 C 624.466 3.49432 -4.70418 0
M  V30 6824 N 624.416 3.31776 -3.22945 0
M  V30 6825 H 627.255 6.54213 -5.71376 0
M  V30 6826 H 627.527 5.30492 -4.44033 0
M  V30 6827 H 626.659 4.55889 -6.76652 0
M  V30 6828 P 622.696 4.23843 -7.83734 0
M  V30 6829 O 622.476 4.19407 -9.29784 0
M  V30 6830 O 621.906 5.24426 -7.09156 0
M  V30 6831 O 622.446 2.7935 -7.20758 0
M  V30 6832 C 623.386 1.7299 -7.50419 0
M  V30 6833 C 622.656 0.406376 -7.57911 0
M  V30 6834 O 622.446 -0.0897726 -6.21935 0
M  V30 6835 C 621.256 0.447224 -8.1878 0
M  V30 6836 O 620.866 -0.825065 -8.71101 0
M  V30 6837 C 620.376 0.783801 -6.99623 0
M  V30 6838 C 621.086 0.0619192 -5.85967 0
M  V30 6839 N 621.036 0.7859 -4.56281 0
M  V30 6840 H 623.875 1.93423 -8.4679 0
M  V30 6841 H 624.147 1.68181 -6.71046 0
M  V30 6842 H 623.279 -0.289041 -8.15388 0
M  V30 6843 P 619.316 -1.17771 -8.83182 0
M  V30 6844 O 619.096 -2.07206 -9.98732 0
M  V30 6845 O 618.526 0.0743816 -8.81969 0
M  V30 6846 O 619.066 -1.97652 -7.47304 0
M  V30 6847 C 620.006 -3.01133 -7.08783 0
M  V30 6848 C 619.276 -4.12613 -6.37049 0
M  V30 6849 O 619.066 -3.72827 -4.97879 0
M  V30 6850 C 617.876 -4.45085 -6.88694 0
M  V30 6851 O 617.486 -5.7877 -6.5624 0
M  V30 6852 C 616.996 -3.47817 -6.12078 0
M  V30 6853 C 617.706 -3.39414 -4.77697 0
M  V30 6854 N 617.656 -2.04199 -4.15538 0
M  V30 6855 C 617.736 -0.821545 -4.76977 0
M  V30 6856 N 617.666 0.1794 -3.94592 0
M  V30 6857 C 617.516 -0.419121 -2.70776 0
M  V30 6858 C 617.386 0.109072 -1.40577 0
M  V30 6859 N 617.376 1.4104 -1.1344 0
M  V30 6860 N 617.266 -0.764381 -0.39411 0
M  V30 6861 C 617.276 -2.06587 -0.664135 0
M  V30 6862 N 617.396 -2.67948 -1.82153 0
M  V30 6863 C 617.516 -1.77942 -2.8147 0
M  V30 6864 H 620.495 -3.41248 -7.98759 0
M  V30 6865 H 620.767 -2.57728 -6.42 0
M  V30 6866 H 619.899 -5.02657 -6.42673 0
M  V30 6867 H 617.244 -4.11708 -4.08956 0
M  V30 6868 H 616.964 -2.49626 -6.61679 0
M  V30 6869 H 615.973 -3.8662 -6.00862 0
M  V30 6870 H 617.807 -4.29991 -7.97006 0
M  V30 6871 H 617.848 -0.702451 -5.84696 0
M  V30 6872 H 617.467 2.09647 -1.89651 0
M  V30 6873 H 617.278 1.73358 -0.160575 0
M  V30 6874 H 617.17 -2.71695 0.195838 0
M  V30 6875 P 615.936 -6.144 -6.45285 0
M  V30 6876 O 615.716 -7.54673 -6.86199 0
M  V30 6877 O 615.146 -5.12391 -7.179 0
M  V30 6878 O 615.686 -5.99158 -4.88404 0
M  V30 6879 C 616.626 -6.60234 -3.96415 0
M  V30 6880 C 615.896 -7.08259 -2.72856 0
M  V30 6881 O 615.686 -5.9427 -1.83651 0
M  V30 6882 C 614.496 -7.64886 -2.9555 0
M  V30 6883 O 614.106 -8.53963 -1.90717 0
M  V30 6884 C 613.616 -6.4116 -2.90739 0
M  V30 6885 C 614.326 -5.55375 -1.86963 0
M  V30 6886 N 614.276 -4.09664 -2.15742 0
M  V30 6887 H 617.115 -7.45574 -4.45629 0
M  V30 6888 H 617.387 -5.86232 -3.67314 0
M  V30 6889 H 616.519 -7.84412 -2.24479 0
M  V30 6890 P 612.556 -8.7635 -1.60911 0
M  V30 6891 O 612.336 -10.1388 -1.11561 0
M  V30 6892 O 611.766 -8.36503 -2.79617 0
M  V30 6893 O 612.306 -7.71806 -0.42951 0
M  V30 6894 C 613.246 -7.67148 0.673689 0
M  V30 6895 C 612.516 -7.33374 1.95559 0
M  V30 6896 O 612.306 -5.88721 2.00726 0
M  V30 6897 C 611.116 -7.92526 2.10483 0
M  V30 6898 O 610.726 -8.02971 3.47653 0
M  V30 6899 C 610.236 -6.89602 1.41652 0
M  V30 6900 C 610.946 -5.59201 1.75185 0
M  V30 6901 N 610.896 -4.58235 0.662552 0
M  V30 6902 C 610.976 -4.7683 -0.704049 0
M  V30 6903 N 610.896 -3.66233 -1.39775 0
M  V30 6904 C 610.756 -2.66526 -0.431739 0
M  V30 6905 C 610.626 -1.26394 -0.575992 0
M  V30 6906 N 610.506 -0.62859 0.67177 0
M  V30 6907 C 610.506 -1.27134 1.89385 0
M  V30 6908 N 610.376 -0.492035 2.96951 0
M  V30 6909 N 610.636 -2.58978 2.02907 0
M  V30 6910 C 610.756 -3.22433 0.832218 0
M  V30 6911 H 613.735 -8.65116 0.777161 0
M  V30 6912 H 614.007 -6.90173 0.474152 0
M  V30 6913 H 613.139 -7.66548 2.79458 0
M  V30 6914 P 609.176 -8.03563 3.84925 0
M  V30 6915 O 608.956 -8.85821 5.0569 0
M  V30 6916 O 608.386 -8.41101 2.65469 0
M  V30 6917 O 608.926 -6.4965 4.18908 0
M  V30 6918 C 609.866 -5.81037 5.05421 0
M  V30 6919 C 609.136 -4.78366 5.89277 0
M  V30 6920 O 608.926 -3.58302 5.08433 0
M  V30 6921 C 607.736 -5.17448 6.36119 0
M  V30 6922 O 607.346 -4.45271 7.53232 0
M  V30 6923 C 606.856 -4.74639 5.19936 0
M  V30 6924 C 607.566 -3.49432 4.70418 0
M  V30 6925 N 607.516 -3.31776 3.22945 0
M  V30 6926 H 610.355 -6.54213 5.71376 0
M  V30 6927 H 610.627 -5.30492 4.44033 0
M  V30 6928 H 609.759 -4.55889 6.76652 0
M  V30 6929 P 605.796 -4.23843 7.83734 0
M  V30 6930 O 605.576 -4.19407 9.29784 0
M  V30 6931 O 605.006 -5.24426 7.09156 0
M  V30 6932 O 605.546 -2.79386 7.20852 0
M  V30 6933 C 606.486 -1.7299 7.50419 0
M  V30 6934 C 605.756 -0.41401 7.5797 0
M  V30 6935 O 605.546 0.089787 6.22035 0
M  V30 6936 C 604.356 -0.447224 8.1878 0
M  V30 6937 O 603.966 0.825159 8.71201 0
M  V30 6938 C 603.476 -0.783801 6.99623 0
M  V30 6939 C 604.186 -0.0619192 5.85967 0
M  V30 6940 N 604.136 -0.7859 4.56281 0
M  V30 6941 C 603.986 -0.0359258 3.39981 0
M  V30 6942 O 603.896 1.19723 3.49038 0
M  V30 6943 N 603.936 -0.869151 2.14025 0
M  V30 6944 C 604.036 -2.01207 2.14363 0
M  V30 6945 N 603.986 -2.58978 0.954287 0
M  V30 6946 C 604.186 -2.80817 3.32215 0
M  V30 6947 C 604.236 -2.13785 4.50884 0
M  V30 6948 H 606.976 -1.93401 8.46693 0
M  V30 6949 H 607.246 -1.68181 6.71046 0
M  V30 6950 H 606.379 0.289076 8.15488 0
M  V30 6951 H 603.724 0.927166 5.72947 0
M  V30 6952 H 603.444 -1.87 6.82132 0
M  V30 6953 H 602.453 -0.404009 7.13457 0
M  V30 6954 H 604.287 -1.20599 8.97534 0
M  V30 6955 H 604.359 -2.70295 5.43162 0
M  V30 6956 H 604.257 -3.89465 3.27406 0
M  V30 6957 H 603.869 -2.01616 0.107046 0
M  V30 6958 H 604.065 -3.61403 0.873101 0
M  V30 6959 P 602.416 1.17771 8.83182 0
M  V30 6960 O 602.196 2.07206 9.98732 0
M  V30 6961 O 601.626 -0.0743816 8.81969 0
M  V30 6962 O 602.166 1.97678 7.474 0
M  V30 6963 C 603.106 3.01133 7.08783 0
M  V30 6964 C 602.376 4.1203 6.37546 0
M  V30 6965 O 602.166 3.72887 4.9796 0
M  V30 6966 C 600.976 4.45085 6.88694 0
M  V30 6967 O 600.586 5.78836 6.56315 0
M  V30 6968 C 600.096 3.47817 6.12078 0
M  V30 6969 C 600.806 3.39414 4.77697 0
M  V30 6970 N 600.756 2.04615 4.15333 0
M  V30 6971 C 600.606 1.96929 2.77162 0
M  V30 6972 O 600.516 3.02017 2.12006 0
M  V30 6973 N 600.556 0.55485 2.24237 0
M  V30 6974 C 600.656 -0.367808 2.9169 0
M  V30 6975 N 600.606 -1.53426 2.29427 0
M  V30 6976 C 600.806 -0.319148 4.33828 0
M  V30 6977 C 600.856 0.920672 4.90433 0
M  V30 6978 H 603.596 3.41209 7.98667 0
M  V30 6979 H 603.866 2.5837 6.41742 0
M  V30 6980 H 602.999 5.02718 6.42752 0
M  V30 6981 H 600.344 4.11779 4.09026 0
M  V30 6982 H 600.064 2.49661 6.61772 0
M  V30 6983 H 599.073 3.86674 6.00946 0
M  V30 6984 H 600.907 4.29991 7.97006 0
M  V30 6985 H 600.979 1.00589 5.98303 0
M  V30 6986 H 600.877 -1.22639 4.93799 0
M  V30 6987 H 600.489 -1.56819 1.27167 0
M  V30 6988 H 600.685 -2.41062 2.83063 0
M  V30 6989 P 599.036 6.144 6.45285 0
M  V30 6990 O 598.816 7.54673 6.86199 0
M  V30 6991 O 598.246 5.12391 7.179 0
M  V30 6992 O 598.786 5.99158 4.88404 0
M  V30 6993 C 599.726 6.60234 3.96415 0
M  V30 6994 C 598.996 7.08259 2.72856 0
M  V30 6995 O 598.786 5.9427 1.83651 0
M  V30 6996 C 597.596 7.64886 2.9555 0
M  V30 6997 O 597.206 8.53963 1.90717 0
M  V30 6998 C 596.716 6.4116 2.90739 0
M  V30 6999 C 597.426 5.55375 1.86963 0
M  V30 7000 N 597.376 4.09664 2.15742 0
M  V30 7001 H 600.215 7.45574 4.45629 0
M  V30 7002 H 600.487 5.86232 3.67314 0
M  V30 7003 H 599.619 7.84412 2.24479 0
M  V30 7004 P 595.656 8.7635 1.60911 0
M  V30 7005 O 595.437 10.1388 1.11561 0
M  V30 7006 O 594.866 8.36503 2.79617 0
M  V30 7007 O 595.406 7.71906 0.429565 0
M  V30 7008 C 596.346 7.67148 -0.673689 0
M  V30 7009 C 595.616 7.33666 -1.94851 0
M  V30 7010 O 595.406 5.88816 -2.00759 0
M  V30 7011 C 594.216 7.92526 -2.10483 0
M  V30 7012 O 593.827 8.03063 -3.47693 0
M  V30 7013 C 593.337 6.89602 -1.41652 0
M  V30 7014 C 594.046 5.59201 -1.75185 0
M  V30 7015 N 593.996 4.58235 -0.662552 0
M  V30 7016 C 593.846 3.24451 -1.01643 0
M  V30 7017 O 593.756 2.94958 -2.21722 0
M  V30 7018 N 593.796 2.30408 0.165238 0
M  V30 7019 C 593.896 2.66048 1.25118 0
M  V30 7020 N 593.846 1.70787 2.16813 0
M  V30 7021 C 594.046 4.02732 1.64413 0
M  V30 7022 C 594.096 4.9488 0.63991 0
M  V30 7023 H 596.837 8.65017 -0.777072 0
M  V30 7024 H 597.106 6.90173 -0.474152 0
M  V30 7025 H 596.24 7.66642 -2.79492 0
M  V30 7026 H 593.584 5.16254 -2.65229 0
M  V30 7027 H 593.304 7.06532 -0.329431 0
M  V30 7028 H 592.313 6.91023 -1.82047 0
M  V30 7029 H 594.147 8.90873 -1.62657 0
M  V30 7030 H 594.219 6.00104 0.892197 0
M  V30 7031 H 594.117 4.31733 2.69229 0
M  V30 7032 H 593.729 0.724835 1.8844 0
M  V30 7033 H 593.925 1.94716 3.16734 0
M  V30 7034 P 592.277 8.03563 -3.84925 0
M  V30 7035 O 592.057 8.85821 -5.0569 0
M  V30 7036 O 591.487 8.41101 -2.65469 0
M  V30 7037 O 592.027 6.4965 -4.18908 0
M  V30 7038 C 592.967 5.81037 -5.05421 0
M  V30 7039 C 592.237 4.78366 -5.89277 0
M  V30 7040 O 592.027 3.58302 -5.08433 0
M  V30 7041 C 590.837 5.17448 -6.36119 0
M  V30 7042 O 590.447 4.45271 -7.53232 0
M  V30 7043 C 589.957 4.74639 -5.19936 0
M  V30 7044 C 590.667 3.49432 -4.70418 0
M  V30 7045 N 590.617 3.31776 -3.22945 0
M  V30 7046 C 590.697 4.27147 -2.23315 0
M  V30 7047 N 590.617 3.78447 -1.02186 0
M  V30 7048 C 590.477 2.41001 -1.21732 0
M  V30 7049 C 590.347 1.36111 -0.27694 0
M  V30 7050 N 590.227 0.113683 -0.912949 0
M  V30 7051 C 590.227 -0.0846396 -2.27943 0
M  V30 7052 N 590.097 -1.34737 -2.6916 0
M  V30 7053 N 590.357 0.902521 -3.16379 0
M  V30 7054 C 590.477 2.11937 -2.56849 0
M  V30 7055 H 593.456 6.54213 -5.71376 0
M  V30 7056 H 593.728 5.30492 -4.44033 0
M  V30 7057 H 592.86 4.55889 -6.76652 0
M  V30 7058 P 588.897 4.23843 -7.83734 0
M  V30 7059 O 588.677 4.19407 -9.29784 0
M  V30 7060 O 588.107 5.24426 -7.09156 0
M  V30 7061 O 588.647 2.7935 -7.20758 0
M  V30 7062 C 589.587 1.7299 -7.50419 0
M  V30 7063 C 588.857 0.406376 -7.57911 0
M  V30 7064 O 588.647 -0.0897726 -6.21935 0
M  V30 7065 C 587.457 0.447224 -8.1878 0
M  V30 7066 O 587.067 -0.825065 -8.71101 0
M  V30 7067 C 586.577 0.783801 -6.99623 0
M  V30 7068 C 587.287 0.0619192 -5.85967 0
M  V30 7069 N 587.237 0.7859 -4.56281 0
M  V30 7070 H 590.076 1.93423 -8.4679 0
M  V30 7071 H 590.348 1.68181 -6.71046 0
M  V30 7072 H 589.48 -0.289041 -8.15388 0
M  V30 7073 P 585.517 -1.17771 -8.83182 0
M  V30 7074 O 585.297 -2.07206 -9.98732 0
M  V30 7075 O 584.727 0.0743816 -8.81969 0
M  V30 7076 O 585.267 -1.97652 -7.47304 0
M  V30 7077 C 586.207 -3.01133 -7.08783 0
M  V30 7078 C 585.477 -4.12613 -6.37049 0
M  V30 7079 O 585.267 -3.72827 -4.97879 0
M  V30 7080 C 584.077 -4.45085 -6.88694 0
M  V30 7081 O 583.687 -5.7877 -6.5624 0
M  V30 7082 C 583.197 -3.47817 -6.12078 0
M  V30 7083 C 583.907 -3.39414 -4.77697 0
M  V30 7084 N 583.857 -2.04615 -4.15333 0
M  V30 7085 C 583.937 -0.803897 -4.75249 0
M  V30 7086 N 583.857 0.197615 -3.91502 0
M  V30 7087 C 583.717 -0.413002 -2.66823 0
M  V30 7088 C 583.587 0.157221 -1.38007 0
M  V30 7089 O 583.567 1.34419 -1.057 0
M  V30 7090 N 583.467 -0.833136 -0.390236 0
M  V30 7091 C 583.467 -2.19402 -0.623885 0
M  V30 7092 N 583.337 -2.97622 0.449677 0
M  V30 7093 N 583.597 -2.73005 -1.83601 0
M  V30 7094 C 583.717 -1.78786 -2.80935 0
M  V30 7095 H 586.696 -3.41248 -7.98759 0
M  V30 7096 H 586.968 -2.5837 -6.41742 0
M  V30 7097 H 586.1 -5.02657 -6.42673 0
M  V30 7098 H 583.445 -4.11779 -4.09026 0
M  V30 7099 H 583.165 -2.49661 -6.61772 0
M  V30 7100 H 582.174 -3.86674 -6.00946 0
M  V30 7101 H 584.008 -4.30038 -7.97094 0
M  V30 7102 H 584.057 -0.670579 -5.82754 0
M  V30 7103 H 583.375 -0.528446 0.557287 0
M  V30 7104 H 583.338 -4.00117 0.344773 0
M  V30 7105 H 583.237 -2.55448 1.38544 0
M  V30 7106 P 582.137 -6.144 -6.45285 0
M  V30 7107 O 581.917 -7.54673 -6.86199 0
M  V30 7108 O 581.347 -5.12391 -7.179 0
M  V30 7109 O 581.887 -5.99158 -4.88404 0
M  V30 7110 C 582.827 -6.60234 -3.96415 0
M  V30 7111 C 582.097 -7.08259 -2.72856 0
M  V30 7112 O 581.887 -5.9427 -1.83651 0
M  V30 7113 C 580.697 -7.64886 -2.9555 0
M  V30 7114 O 580.307 -8.53963 -1.90717 0
M  V30 7115 C 579.817 -6.4116 -2.90739 0
M  V30 7116 C 580.527 -5.55375 -1.86963 0
M  V30 7117 N 580.477 -4.09664 -2.15742 0
M  V30 7118 H 583.316 -7.45574 -4.45629 0
M  V30 7119 H 583.588 -5.86232 -3.67314 0
M  V30 7120 H 582.72 -7.84412 -2.24479 0
M  V30 7121 P 578.757 -8.7635 -1.60911 0
M  V30 7122 O 578.537 -10.1388 -1.11561 0
M  V30 7123 O 577.967 -8.36503 -2.79617 0
M  V30 7124 O 578.507 -7.71806 -0.42951 0
M  V30 7125 C 579.447 -7.67148 0.673689 0
M  V30 7126 C 578.717 -7.33374 1.95559 0
M  V30 7127 O 578.507 -5.88721 2.00726 0
M  V30 7128 C 577.317 -7.92526 2.10483 0
M  V30 7129 O 576.927 -8.02971 3.47653 0
M  V30 7130 C 576.437 -6.89602 1.41652 0
M  V30 7131 C 577.147 -5.59201 1.75185 0
M  V30 7132 N 577.097 -4.58235 0.662552 0
M  V30 7133 H 579.936 -8.65116 0.777161 0
M  V30 7134 H 580.208 -6.90173 0.474152 0
M  V30 7135 H 579.34 -7.66548 2.79458 0
M  V30 7136 P 575.377 -8.03563 3.84925 0
M  V30 7137 O 575.157 -8.85821 5.0569 0
M  V30 7138 O 574.587 -8.41101 2.65469 0
M  V30 7139 O 575.127 -6.4965 4.18908 0
M  V30 7140 C 576.067 -5.81037 5.05421 0
M  V30 7141 C 575.337 -4.78366 5.89277 0
M  V30 7142 O 575.127 -3.58302 5.08433 0
M  V30 7143 C 573.937 -5.17448 6.36119 0
M  V30 7144 O 573.547 -4.45271 7.53232 0
M  V30 7145 C 573.057 -4.74639 5.19936 0
M  V30 7146 C 573.767 -3.49432 4.70418 0
M  V30 7147 N 573.717 -3.31776 3.22945 0
M  V30 7148 H 576.556 -6.54213 5.71376 0
M  V30 7149 H 576.828 -5.30492 4.44033 0
M  V30 7150 H 575.96 -4.55889 6.76652 0
M  V30 7151 P 571.997 -4.23843 7.83734 0
M  V30 7152 O 571.777 -4.19407 9.29784 0
M  V30 7153 O 571.207 -5.24426 7.09156 0
M  V30 7154 O 571.747 -2.7935 7.20758 0
M  V30 7155 C 572.687 -1.72945 7.50224 0
M  V30 7156 C 571.957 -0.406376 7.57911 0
M  V30 7157 O 571.747 0.0897726 6.21935 0
M  V30 7158 C 570.557 -0.438983 8.18724 0
M  V30 7159 O 570.167 0.825065 8.71101 0
M  V30 7160 C 569.677 -0.783689 6.99524 0
M  V30 7161 C 570.387 -0.0619086 5.85867 0
M  V30 7162 N 570.337 -0.78573 4.56183 0
M  V30 7163 C 570.187 -0.0292889 3.41887 0
M  V30 7164 O 570.097 1.18445 3.4419 0
M  V30 7165 N 570.147 -0.744061 2.23964 0
M  V30 7166 C 570.237 -2.10932 2.10362 0
M  V30 7167 O 570.187 -2.64117 0.98825 0
M  V30 7168 C 570.387 -2.8202 3.34994 0
M  V30 7169 C 570.497 -4.31095 3.25037 0
M  V30 7170 C 570.437 -2.15547 4.52261 0
M  V30 7171 H 573.178 -1.93379 8.46595 0
M  V30 7172 H 573.447 -1.68132 6.70852 0
M  V30 7173 H 572.58 0.289041 8.15388 0
M  V30 7174 H 569.925 0.926847 5.72749 0
M  V30 7175 H 569.646 -1.86973 6.82036 0
M  V30 7176 H 568.654 -0.403896 7.13257 0
M  V30 7177 H 570.488 -1.20585 8.97435 0
M  V30 7178 H 570.559 -2.71231 5.45042 0
M  V30 7179 H 569.529 -4.76966 3.49992 0
M  V30 7180 H 571.266 -4.67047 3.95024 0
M  V30 7181 H 570.778 -4.58996 2.22312 0
M  V30 7182 H 570.042 -0.214893 1.39758 0
M  V30 7183 P 568.617 1.17771 8.83182 0
M  V30 7184 O 568.397 2.07206 9.98732 0
M  V30 7185 O 567.827 -0.0743816 8.81969 0
M  V30 7186 O 568.367 1.97678 7.474 0
M  V30 7187 C 569.307 3.01133 7.08783 0
M  V30 7188 C 568.577 4.1203 6.37546 0
M  V30 7189 O 568.367 3.72887 4.9796 0
M  V30 7190 C 567.177 4.45085 6.88694 0
M  V30 7191 O 566.787 5.78836 6.56315 0
M  V30 7192 C 566.297 3.47817 6.12078 0
M  V30 7193 C 567.007 3.39414 4.77697 0
M  V30 7194 N 566.957 2.04615 4.15333 0
M  V30 7195 C 566.807 1.96929 2.77162 0
M  V30 7196 O 566.717 3.02017 2.12006 0
M  V30 7197 N 566.757 0.55485 2.24237 0
M  V30 7198 C 566.857 -0.367808 2.9169 0
M  V30 7199 N 566.807 -1.53426 2.29427 0
M  V30 7200 C 567.007 -0.319148 4.33828 0
M  V30 7201 C 567.057 0.920672 4.90433 0
M  V30 7202 H 569.797 3.41209 7.98667 0
M  V30 7203 H 570.067 2.5837 6.41742 0
M  V30 7204 H 569.2 5.02718 6.42752 0
M  V30 7205 H 566.545 4.11779 4.09026 0
M  V30 7206 H 566.265 2.49661 6.61772 0
M  V30 7207 H 565.274 3.86674 6.00946 0
M  V30 7208 H 567.108 4.29991 7.97006 0
M  V30 7209 H 567.18 1.00589 5.98303 0
M  V30 7210 H 567.078 -1.22639 4.93799 0
M  V30 7211 H 566.69 -1.56819 1.27167 0
M  V30 7212 H 566.886 -2.41062 2.83063 0
M  V30 7213 P 565.237 6.144 6.45285 0
M  V30 7214 O 565.017 7.54673 6.86199 0
M  V30 7215 O 564.447 5.12391 7.179 0
M  V30 7216 O 564.987 5.99158 4.88404 0
M  V30 7217 C 565.927 6.60234 3.96415 0
M  V30 7218 C 565.197 7.08259 2.72856 0
M  V30 7219 O 564.987 5.9427 1.83651 0
M  V30 7220 C 563.797 7.64886 2.9555 0
M  V30 7221 O 563.407 8.53963 1.90717 0
M  V30 7222 C 562.917 6.4116 2.90739 0
M  V30 7223 C 563.627 5.55375 1.86963 0
M  V30 7224 N 563.577 4.09664 2.15742 0
M  V30 7225 H 566.416 7.45574 4.45629 0
M  V30 7226 H 566.688 5.86232 3.67314 0
M  V30 7227 H 565.82 7.84412 2.24479 0
M  V30 7228 P 561.857 8.7635 1.60911 0
M  V30 7229 O 561.637 10.1388 1.11561 0
M  V30 7230 O 561.067 8.36503 2.79617 0
M  V30 7231 O 561.607 7.71806 0.42951 0
M  V30 7232 C 562.547 7.67148 -0.673689 0
M  V30 7233 C 561.817 7.33374 -1.95559 0
M  V30 7234 O 561.607 5.88721 -2.00726 0
M  V30 7235 C 560.417 7.92526 -2.10483 0
M  V30 7236 O 560.027 8.02971 -3.47653 0
M  V30 7237 C 559.537 6.89602 -1.41652 0
M  V30 7238 C 560.247 5.59201 -1.75185 0
M  V30 7239 N 560.197 4.58301 -0.657969 0
M  V30 7240 H 563.036 8.65116 -0.777161 0
M  V30 7241 H 563.308 6.9022 -0.46725 0
M  V30 7242 H 562.44 7.66548 -2.79458 0
M  V30 7243 H 559.785 5.16165 -2.65183 0
M  V30 7244 H 559.505 7.06433 -0.329384 0
M  V30 7245 H 558.514 6.90926 -1.82021 0
M  V30 7246 H 560.348 8.90873 -1.62657 0
M  V30 7247 P 558.477 8.03563 -3.84925 0
M  V30 7248 O 558.257 8.85821 -5.0569 0
M  V30 7249 O 557.687 8.41101 -2.65469 0
M  V30 7250 O 558.227 6.4965 -4.18908 0
M  V30 7251 C 559.167 5.81037 -5.05421 0
M  V30 7252 C 558.437 4.78366 -5.89277 0
M  V30 7253 O 558.227 3.58302 -5.08433 0
M  V30 7254 C 557.037 5.17448 -6.36119 0
M  V30 7255 O 556.647 4.45271 -7.53232 0
M  V30 7256 C 556.157 4.74639 -5.19936 0
M  V30 7257 C 556.867 3.49432 -4.70418 0
M  V30 7258 N 556.817 3.31776 -3.22945 0
M  V30 7259 H 559.656 6.54213 -5.71376 0
M  V30 7260 H 559.928 5.30492 -4.44033 0
M  V30 7261 H 559.06 4.55889 -6.76652 0
M  V30 7262 P 555.097 4.23843 -7.83734 0
M  V30 7263 O 554.877 4.19407 -9.29784 0
M  V30 7264 O 554.307 5.24426 -7.09156 0
M  V30 7265 O 554.847 2.7935 -7.20758 0
M  V30 7266 C 555.787 1.72945 -7.50224 0
M  V30 7267 C 555.057 0.406376 -7.57911 0
M  V30 7268 O 554.847 -0.0897726 -6.21935 0
M  V30 7269 C 553.657 0.438983 -8.18724 0
M  V30 7270 O 553.267 -0.825065 -8.71101 0
M  V30 7271 C 552.777 0.783689 -6.99524 0
M  V30 7272 C 553.487 0.0619086 -5.85867 0
M  V30 7273 N 553.437 0.78573 -4.56183 0
M  V30 7274 C 553.287 0.0292889 -3.41887 0
M  V30 7275 O 553.197 -1.18445 -3.4419 0
M  V30 7276 N 553.247 0.744061 -2.23964 0
M  V30 7277 C 553.337 2.10932 -2.10362 0
M  V30 7278 O 553.287 2.64117 -0.98825 0
M  V30 7279 C 553.487 2.8202 -3.34994 0
M  V30 7280 C 553.597 4.31095 -3.25037 0
M  V30 7281 C 553.537 2.15547 -4.52261 0
M  V30 7282 H 556.278 1.93379 -8.46595 0
M  V30 7283 H 556.547 1.68132 -6.70852 0
M  V30 7284 H 555.68 -0.289041 -8.15388 0
M  V30 7285 H 553.025 -0.926847 -5.72749 0
M  V30 7286 H 552.746 1.86973 -6.82036 0
M  V30 7287 H 551.754 0.403896 -7.13257 0
M  V30 7288 H 553.588 1.20585 -8.97435 0
M  V30 7289 H 553.659 2.71231 -5.45042 0
M  V30 7290 H 552.629 4.76966 -3.49992 0
M  V30 7291 H 554.366 4.67047 -3.95024 0
M  V30 7292 H 553.878 4.58996 -2.22312 0
M  V30 7293 H 553.142 0.214893 -1.39758 0
M  V30 7294 P 551.717 -1.17771 -8.83182 0
M  V30 7295 O 551.497 -2.07206 -9.98732 0
M  V30 7296 O 550.927 0.0743816 -8.81969 0
M  V30 7297 O 551.467 -1.97652 -7.47304 0
M  V30 7298 C 552.407 -3.01133 -7.08783 0
M  V30 7299 C 551.677 -4.12613 -6.37049 0
M  V30 7300 O 551.467 -3.72827 -4.97879 0
M  V30 7301 C 550.277 -4.45085 -6.88694 0
M  V30 7302 O 549.887 -5.7877 -6.5624 0
M  V30 7303 C 549.397 -3.47817 -6.12078 0
M  V30 7304 C 550.107 -3.39414 -4.77697 0
M  V30 7305 N 550.057 -2.04199 -4.15538 0
M  V30 7306 H 552.896 -3.41248 -7.98759 0
M  V30 7307 H 553.168 -2.57728 -6.42 0
M  V30 7308 H 552.3 -5.02657 -6.42673 0
M  V30 7309 H 549.645 -4.11708 -4.08956 0
M  V30 7310 H 549.365 -2.49626 -6.61679 0
M  V30 7311 H 548.374 -3.8662 -6.00862 0
M  V30 7312 H 550.208 -4.29991 -7.97006 0
M  V30 7313 P 548.337 -6.144 -6.45285 0
M  V30 7314 O 548.117 -7.54673 -6.86199 0
M  V30 7315 O 547.547 -5.12391 -7.179 0
M  V30 7316 O 548.087 -5.99158 -4.88404 0
M  V30 7317 C 549.027 -6.60234 -3.96415 0
M  V30 7318 C 548.297 -7.08259 -2.72856 0
M  V30 7319 O 548.087 -5.9427 -1.83651 0
M  V30 7320 C 546.897 -7.64886 -2.9555 0
M  V30 7321 O 546.507 -8.53963 -1.90717 0
M  V30 7322 C 546.017 -6.4116 -2.90739 0
M  V30 7323 C 546.727 -5.55375 -1.86963 0
M  V30 7324 N 546.677 -4.09664 -2.15742 0
M  V30 7325 H 549.516 -7.45574 -4.45629 0
M  V30 7326 H 549.788 -5.86232 -3.67314 0
M  V30 7327 H 548.92 -7.84412 -2.24479 0
M  V30 7328 P 544.957 -8.7635 -1.60911 0
M  V30 7329 O 544.737 -10.1388 -1.11561 0
M  V30 7330 O 544.167 -8.36503 -2.79617 0
M  V30 7331 O 544.707 -7.71906 -0.429565 0
M  V30 7332 C 545.647 -7.67148 0.673689 0
M  V30 7333 C 544.917 -7.33666 1.94851 0
M  V30 7334 O 544.707 -5.88816 2.00759 0
M  V30 7335 C 543.517 -7.92526 2.10483 0
M  V30 7336 O 543.127 -8.03063 3.47693 0
M  V30 7337 C 542.637 -6.89602 1.41652 0
M  V30 7338 C 543.347 -5.59201 1.75185 0
M  V30 7339 N 543.297 -4.58235 0.662552 0
M  V30 7340 C 543.147 -3.24451 1.01643 0
M  V30 7341 O 543.057 -2.94958 2.21722 0
M  V30 7342 N 543.097 -2.30408 -0.165238 0
M  V30 7343 C 543.197 -2.66048 -1.25118 0
M  V30 7344 N 543.147 -1.70787 -2.16813 0
M  V30 7345 C 543.347 -4.02732 -1.64413 0
M  V30 7346 C 543.397 -4.9488 -0.63991 0
M  V30 7347 H 546.137 -8.65017 0.777072 0
M  V30 7348 H 546.407 -6.90173 0.474152 0
M  V30 7349 H 545.54 -7.66642 2.79492 0
M  V30 7350 H 542.885 -5.16254 2.65229 0
M  V30 7351 H 542.605 -7.06532 0.329431 0
M  V30 7352 H 541.614 -6.91023 1.82047 0
M  V30 7353 H 543.448 -8.90873 1.62657 0
M  V30 7354 H 543.52 -6.00104 -0.892197 0
M  V30 7355 H 543.418 -4.31733 -2.69229 0
M  V30 7356 H 543.03 -0.724835 -1.8844 0
M  V30 7357 H 543.226 -1.94716 -3.16734 0
M  V30 7358 P 541.577 -8.03563 3.84925 0
M  V30 7359 O 541.357 -8.85821 5.0569 0
M  V30 7360 O 540.787 -8.41101 2.65469 0
M  V30 7361 O 541.327 -6.4965 4.18908 0
M  V30 7362 C 542.267 -5.81037 5.05421 0
M  V30 7363 C 541.537 -4.78366 5.89277 0
M  V30 7364 O 541.327 -3.58302 5.08433 0
M  V30 7365 C 540.137 -5.17448 6.36119 0
M  V30 7366 O 539.747 -4.45271 7.53232 0
M  V30 7367 C 539.257 -4.74639 5.19936 0
M  V30 7368 C 539.967 -3.49432 4.70418 0
M  V30 7369 N 539.917 -3.32099 3.22613 0
M  V30 7370 H 542.756 -6.54213 5.71376 0
M  V30 7371 H 543.028 -5.30936 4.43503 0
M  V30 7372 H 542.16 -4.55889 6.76652 0
M  V30 7373 H 539.505 -2.61715 5.17932 0
M  V30 7374 H 539.225 -5.52155 4.41878 0
M  V30 7375 H 538.234 -4.51981 5.53374 0
M  V30 7376 H 540.068 -6.25124 6.55234 0
M  V30 7377 P 538.197 -4.23843 7.83734 0
M  V30 7378 O 537.977 -4.19407 9.29784 0
M  V30 7379 O 537.407 -5.24426 7.09156 0
M  V30 7380 O 537.947 -2.7935 7.20758 0
M  V30 7381 C 538.887 -1.7299 7.50419 0
M  V30 7382 C 538.157 -0.406376 7.57911 0
M  V30 7383 O 537.947 0.0897726 6.21935 0
M  V30 7384 C 536.757 -0.447224 8.1878 0
M  V30 7385 O 536.367 0.825065 8.71101 0
M  V30 7386 C 535.877 -0.783801 6.99623 0
M  V30 7387 C 536.587 -0.0619192 5.85967 0
M  V30 7388 N 536.537 -0.7859 4.56281 0
M  V30 7389 H 539.376 -1.93423 8.4679 0
M  V30 7390 H 539.648 -1.68181 6.71046 0
M  V30 7391 H 538.78 0.289041 8.15388 0
M  V30 7392 P 534.817 1.17771 8.83182 0
M  V30 7393 O 534.597 2.07206 9.98732 0
M  V30 7394 O 534.027 -0.0743816 8.81969 0
M  V30 7395 O 534.567 1.97652 7.47304 0
M  V30 7396 C 535.507 3.01133 7.08783 0
M  V30 7397 C 534.777 4.12613 6.37049 0
M  V30 7398 O 534.567 3.72827 4.97879 0
M  V30 7399 C 533.377 4.45085 6.88694 0
M  V30 7400 O 532.987 5.7877 6.5624 0
M  V30 7401 C 532.497 3.47817 6.12078 0
M  V30 7402 C 533.207 3.39414 4.77697 0
M  V30 7403 N 533.157 2.04199 4.15538 0
M  V30 7404 H 535.996 3.41248 7.98759 0
M  V30 7405 H 536.268 2.57728 6.42 0
M  V30 7406 H 535.4 5.02657 6.42673 0
M  V30 7407 H 532.745 4.11708 4.08956 0
M  V30 7408 H 532.465 2.49626 6.61679 0
M  V30 7409 H 531.474 3.8662 6.00862 0
M  V30 7410 H 533.308 4.29991 7.97006 0
M  V30 7411 P 531.437 6.144 6.45285 0
M  V30 7412 O 531.217 7.54673 6.86199 0
M  V30 7413 O 530.647 5.12391 7.179 0
M  V30 7414 O 531.187 5.99158 4.88404 0
M  V30 7415 C 532.127 6.60234 3.96415 0
M  V30 7416 C 531.397 7.08259 2.72856 0
M  V30 7417 O 531.187 5.9427 1.83651 0
M  V30 7418 C 529.997 7.64886 2.9555 0
M  V30 7419 O 529.607 8.53963 1.90717 0
M  V30 7420 C 529.117 6.4116 2.90739 0
M  V30 7421 C 529.827 5.55375 1.86963 0
M  V30 7422 N 529.777 4.09664 2.15742 0
M  V30 7423 H 532.616 7.45574 4.45629 0
M  V30 7424 H 532.888 5.86232 3.67314 0
M  V30 7425 H 532.02 7.84412 2.24479 0
M  V30 7426 P 528.057 8.7635 1.60911 0
M  V30 7427 O 527.837 10.1388 1.11561 0
M  V30 7428 O 527.267 8.36503 2.79617 0
M  V30 7429 O 527.807 7.71806 0.42951 0
M  V30 7430 C 528.747 7.67148 -0.673689 0
M  V30 7431 C 528.017 7.33374 -1.95559 0
M  V30 7432 O 527.807 5.88721 -2.00726 0
M  V30 7433 C 526.617 7.92526 -2.10483 0
M  V30 7434 O 526.227 8.02971 -3.47653 0
M  V30 7435 C 525.737 6.89602 -1.41652 0
M  V30 7436 C 526.447 5.59201 -1.75185 0
M  V30 7437 N 526.397 4.58235 -0.662552 0
M  V30 7438 C 526.477 4.7683 0.704049 0
M  V30 7439 N 526.397 3.66233 1.39775 0
M  V30 7440 C 526.257 2.66526 0.431739 0
M  V30 7441 C 526.127 1.26394 0.575992 0
M  V30 7442 O 526.107 0.589894 1.60503 0
M  V30 7443 N 526.007 0.62859 -0.67177 0
M  V30 7444 C 526.007 1.27134 -1.89385 0
M  V30 7445 N 525.877 0.492035 -2.96951 0
M  V30 7446 N 526.137 2.58978 -2.02907 0
M  V30 7447 C 526.257 3.22433 -0.832218 0
M  V30 7448 H 529.236 8.65116 -0.777161 0
M  V30 7449 H 529.508 6.90173 -0.474152 0
M  V30 7450 H 528.64 7.66548 -2.79458 0
M  V30 7451 H 525.985 5.16254 -2.65229 0
M  V30 7452 H 525.705 7.06532 -0.329431 0
M  V30 7453 H 524.714 6.91023 -1.82047 0
M  V30 7454 H 526.548 8.90971 -1.62675 0
M  V30 7455 H 526.597 5.74954 1.16305 0
M  V30 7456 H 525.915 -0.366713 -0.674793 0
M  V30 7457 H 525.878 0.908532 -3.91188 0
M  V30 7458 H 525.777 -0.528253 -2.85758 0
M  V30 7459 P 524.677 8.03563 -3.84925 0
M  V30 7460 O 524.457 8.85821 -5.0569 0
M  V30 7461 O 523.887 8.41101 -2.65469 0
M  V30 7462 O 524.427 6.4965 -4.18908 0
M  V30 7463 C 525.367 5.81037 -5.05421 0
M  V30 7464 C 524.637 4.78366 -5.89277 0
M  V30 7465 O 524.427 3.58302 -5.08433 0
M  V30 7466 C 523.237 5.17448 -6.36119 0
M  V30 7467 O 522.847 4.45271 -7.53232 0
M  V30 7468 C 522.357 4.74639 -5.19936 0
M  V30 7469 C 523.067 3.49432 -4.70418 0
M  V30 7470 N 523.017 3.31776 -3.22945 0
M  V30 7471 H 525.856 6.54213 -5.71376 0
M  V30 7472 H 526.128 5.30492 -4.44033 0
M  V30 7473 H 525.26 4.55889 -6.76652 0
M  V30 7474 P 521.297 4.23843 -7.83734 0
M  V30 7475 O 521.077 4.19407 -9.29784 0
M  V30 7476 O 520.507 5.24426 -7.09156 0
M  V30 7477 O 521.047 2.7935 -7.20758 0
M  V30 7478 C 521.987 1.7299 -7.50419 0
M  V30 7479 C 521.257 0.406376 -7.57911 0
M  V30 7480 O 521.047 -0.0897726 -6.21935 0
M  V30 7481 C 519.857 0.447224 -8.1878 0
M  V30 7482 O 519.467 -0.825065 -8.71101 0
M  V30 7483 C 518.977 0.783801 -6.99623 0
M  V30 7484 C 519.687 0.0619192 -5.85967 0
M  V30 7485 N 519.637 0.7859 -4.56281 0
M  V30 7486 H 522.476 1.93423 -8.4679 0
M  V30 7487 H 522.748 1.68181 -6.71046 0
M  V30 7488 H 521.88 -0.289041 -8.15388 0
M  V30 7489 P 517.917 -1.17771 -8.83182 0
M  V30 7490 O 517.697 -2.07206 -9.98732 0
M  V30 7491 O 517.127 0.0743816 -8.81969 0
M  V30 7492 O 517.667 -1.97652 -7.47304 0
M  V30 7493 C 518.607 -3.01133 -7.08783 0
M  V30 7494 C 517.877 -4.12613 -6.37049 0
M  V30 7495 O 517.667 -3.72827 -4.97879 0
M  V30 7496 C 516.477 -4.45085 -6.88694 0
M  V30 7497 O 516.087 -5.7877 -6.5624 0
M  V30 7498 C 515.597 -3.47817 -6.12078 0
M  V30 7499 C 516.307 -3.39414 -4.77697 0
M  V30 7500 N 516.257 -2.04615 -4.15333 0
M  V30 7501 H 519.096 -3.41248 -7.98759 0
M  V30 7502 H 519.368 -2.5837 -6.41742 0
M  V30 7503 H 518.5 -5.02657 -6.42673 0
M  V30 7504 P 514.537 -6.144 -6.45285 0
M  V30 7505 O 514.317 -7.54673 -6.86199 0
M  V30 7506 O 513.747 -5.12391 -7.179 0
M  V30 7507 O 514.287 -5.99158 -4.88404 0
M  V30 7508 C 515.227 -6.60062 -3.96313 0
M  V30 7509 C 514.497 -7.08259 -2.72856 0
M  V30 7510 O 514.287 -5.9427 -1.83651 0
M  V30 7511 C 513.097 -7.65087 -2.94749 0
M  V30 7512 O 512.707 -8.53963 -1.90717 0
M  V30 7513 C 512.217 -6.41069 -2.90698 0
M  V30 7514 C 512.927 -5.5528 -1.86931 0
M  V30 7515 N 512.877 -4.09575 -2.15696 0
M  V30 7516 C 512.727 -3.24249 -1.08435 0
M  V30 7517 O 512.637 -3.63946 0.0628747 0
M  V30 7518 N 512.687 -1.90009 -1.39973 0
M  V30 7519 C 512.777 -1.34884 -2.65614 0
M  V30 7520 O 512.727 -0.123716 -2.81728 0
M  V30 7521 C 512.927 -2.3145 -3.71736 0
M  V30 7522 C 513.037 -1.75913 -5.10438 0
M  V30 7523 C 512.977 -3.63518 -3.44754 0
M  V30 7524 H 515.718 -7.45402 -4.45526 0
M  V30 7525 H 515.987 -5.86062 -3.67208 0
M  V30 7526 H 515.12 -7.84412 -2.24479 0
M  V30 7527 H 512.465 -5.73358 -0.888409 0
M  V30 7528 H 512.186 -5.90877 -3.88583 0
M  V30 7529 H 511.194 -6.65867 -2.58821 0
M  V30 7530 H 513.028 -8.16248 -3.92006 0
M  V30 7531 H 513.099 -4.34551 -4.26383 0
M  V30 7532 H 512.069 -1.85471 -5.61775 0
M  V30 7533 H 513.806 -2.31364 -5.66257 0
M  V30 7534 H 513.318 -0.695936 -5.05229 0
M  V30 7535 H 512.582 -1.26277 -0.63625 0
M  V30 7536 P 511.157 -8.7635 -1.60911 0
M  V30 7537 O 510.937 -10.1388 -1.11561 0
M  V30 7538 O 510.367 -8.36503 -2.79617 0
M  V30 7539 O 510.907 -7.71806 -0.42951 0
M  V30 7540 C 511.847 -7.67148 0.673689 0
M  V30 7541 C 511.117 -7.33374 1.95559 0
M  V30 7542 O 510.907 -5.88721 2.00726 0
M  V30 7543 C 509.717 -7.92526 2.10483 0
M  V30 7544 O 509.327 -8.02971 3.47653 0
M  V30 7545 C 508.837 -6.89602 1.41652 0
M  V30 7546 C 509.547 -5.59201 1.75185 0
M  V30 7547 N 509.497 -4.58235 0.662552 0
M  V30 7548 C 509.577 -4.7683 -0.704049 0
M  V30 7549 N 509.497 -3.66233 -1.39775 0
M  V30 7550 C 509.357 -2.66526 -0.431739 0
M  V30 7551 C 509.227 -1.26394 -0.575992 0
M  V30 7552 O 509.207 -0.589894 -1.60503 0
M  V30 7553 N 509.107 -0.62859 0.67177 0
M  V30 7554 C 509.107 -1.27134 1.89385 0
M  V30 7555 N 508.977 -0.492035 2.96951 0
M  V30 7556 N 509.237 -2.58978 2.02907 0
M  V30 7557 C 509.357 -3.22433 0.832218 0
M  V30 7558 H 512.336 -8.65116 0.777161 0
M  V30 7559 H 512.608 -6.90173 0.474152 0
M  V30 7560 H 511.74 -7.66548 2.79458 0
M  V30 7561 H 509.085 -5.16254 2.65229 0
M  V30 7562 H 508.805 -7.06532 0.329431 0
M  V30 7563 H 507.814 -6.91023 1.82047 0
M  V30 7564 H 509.648 -8.90971 1.62675 0
M  V30 7565 H 509.697 -5.74954 -1.16305 0
M  V30 7566 H 509.015 0.366713 0.674793 0
M  V30 7567 H 508.978 -0.908532 3.91188 0
M  V30 7568 H 508.877 0.528253 2.85758 0
M  V30 7569 P 507.777 -8.03563 3.84925 0
M  V30 7570 O 507.557 -8.85821 5.0569 0
M  V30 7571 O 506.987 -8.41101 2.65469 0
M  V30 7572 O 507.527 -6.49734 4.18962 0
M  V30 7573 C 508.467 -5.81037 5.05421 0
M  V30 7574 C 507.737 -4.79018 5.88876 0
M  V30 7575 O 507.527 -3.58359 5.08515 0
M  V30 7576 C 506.337 -5.17448 6.36119 0
M  V30 7577 O 505.947 -4.45322 7.53318 0
M  V30 7578 C 505.457 -4.74639 5.19936 0
M  V30 7579 C 506.167 -3.49432 4.70418 0
M  V30 7580 N 506.117 -3.31776 3.22945 0
M  V30 7581 C 505.967 -2.02742 2.72939 0
M  V30 7582 O 505.877 -1.08301 3.52749 0
M  V30 7583 N 505.917 -1.96117 1.22063 0
M  V30 7584 C 506.017 -2.8878 0.551566 0
M  V30 7585 N 505.967 -2.65609 -0.750198 0
M  V30 7586 C 506.167 -4.22457 1.03707 0
M  V30 7587 C 506.217 -4.37979 2.39113 0
M  V30 7588 H 508.957 -6.54138 5.7131 0
M  V30 7589 H 509.227 -5.30492 4.44033 0
M  V30 7590 H 508.36 -4.55945 6.76735 0
M  V30 7591 H 505.705 -2.6176 5.18021 0
M  V30 7592 H 505.425 -5.52233 4.41941 0
M  V30 7593 H 504.434 -4.52045 5.53452 0
M  V30 7594 H 506.268 -6.25124 6.55234 0
M  V30 7595 H 506.34 -5.37936 2.80552 0
M  V30 7596 H 506.238 -5.07528 0.359553 0
M  V30 7597 H 505.85 -1.69403 -1.09847 0
M  V30 7598 H 506.046 -3.43701 -1.41792 0
M  V30 7599 P 504.397 -4.23843 7.83734 0
M  V30 7600 O 504.177 -4.19407 9.29784 0
M  V30 7601 O 503.607 -5.24426 7.09156 0
M  V30 7602 O 504.147 -2.7935 7.20758 0
M  V30 7603 C 505.087 -1.7299 7.50419 0
M  V30 7604 C 504.357 -0.406376 7.57911 0
M  V30 7605 O 504.147 0.0897726 6.21935 0
M  V30 7606 C 502.957 -0.447224 8.1878 0
M  V30 7607 O 502.567 0.825065 8.71101 0
M  V30 7608 C 502.077 -0.783801 6.99623 0
M  V30 7609 C 502.787 -0.0619192 5.85967 0
M  V30 7610 N 502.737 -0.7859 4.56281 0
M  V30 7611 H 505.576 -1.93423 8.4679 0
M  V30 7612 H 505.848 -1.68181 6.71046 0
M  V30 7613 H 504.98 0.289041 8.15388 0
M  V30 7614 P 501.017 1.17771 8.83182 0
M  V30 7615 O 500.797 2.07206 9.98732 0
M  V30 7616 O 500.227 -0.0743816 8.81969 0
M  V30 7617 O 500.767 1.97652 7.47304 0
M  V30 7618 C 501.707 3.01133 7.08783 0
M  V30 7619 C 500.977 4.12613 6.37049 0
M  V30 7620 O 500.767 3.72827 4.97879 0
M  V30 7621 C 499.577 4.45085 6.88694 0
M  V30 7622 O 499.187 5.7877 6.5624 0
M  V30 7623 C 498.697 3.47817 6.12078 0
M  V30 7624 C 499.407 3.39414 4.77697 0
M  V30 7625 N 499.357 2.04199 4.15538 0
M  V30 7626 H 502.196 3.41248 7.98759 0
M  V30 7627 H 502.468 2.57728 6.42 0
M  V30 7628 H 501.6 5.02657 6.42673 0
M  V30 7629 H 498.945 4.11708 4.08956 0
M  V30 7630 H 498.665 2.49626 6.61679 0
M  V30 7631 H 497.674 3.8662 6.00862 0
M  V30 7632 H 499.508 4.29991 7.97006 0
M  V30 7633 P 497.637 6.144 6.45285 0
M  V30 7634 O 497.417 7.54673 6.86199 0
M  V30 7635 O 496.847 5.12391 7.179 0
M  V30 7636 O 497.387 5.99158 4.88404 0
M  V30 7637 C 498.327 6.60234 3.96415 0
M  V30 7638 C 497.597 7.08259 2.72856 0
M  V30 7639 O 497.387 5.9427 1.83651 0
M  V30 7640 C 496.197 7.64886 2.9555 0
M  V30 7641 O 495.807 8.53963 1.90717 0
M  V30 7642 C 495.317 6.4116 2.90739 0
M  V30 7643 C 496.027 5.55375 1.86963 0
M  V30 7644 N 495.977 4.09664 2.15742 0
M  V30 7645 C 496.057 3.44381 3.37233 0
M  V30 7646 N 495.977 2.14131 3.28347 0
M  V30 7647 C 495.837 1.90247 1.91588 0
M  V30 7648 C 495.707 0.683992 1.20892 0
M  V30 7649 N 495.587 0.903396 -0.173998 0
M  V30 7650 C 495.587 2.14171 -0.784879 0
M  V30 7651 N 495.457 2.1435 -2.11317 0
M  V30 7652 N 495.717 3.28784 -0.119316 0
M  V30 7653 C 495.837 3.0977 1.22194 0
M  V30 7654 H 498.816 7.45574 4.45629 0
M  V30 7655 H 499.088 5.86232 3.67314 0
M  V30 7656 H 498.22 7.84412 2.24479 0
M  V30 7657 P 494.257 8.7635 1.60911 0
M  V30 7658 O 494.037 10.1388 1.11561 0
M  V30 7659 O 493.467 8.36503 2.79617 0
M  V30 7660 O 494.007 7.71806 0.42951 0
M  V30 7661 C 494.947 7.67148 -0.673689 0
M  V30 7662 C 494.217 7.33374 -1.95559 0
M  V30 7663 O 494.007 5.88721 -2.00726 0
M  V30 7664 C 492.817 7.92526 -2.10483 0
M  V30 7665 O 492.427 8.02971 -3.47653 0
M  V30 7666 C 491.937 6.89602 -1.41652 0
M  V30 7667 C 492.647 5.59201 -1.75185 0
M  V30 7668 N 492.597 4.58301 -0.657969 0
M  V30 7669 H 495.436 8.65116 -0.777161 0
M  V30 7670 H 495.708 6.9022 -0.46725 0
M  V30 7671 H 494.84 7.66548 -2.79458 0
M  V30 7672 H 492.185 5.16165 -2.65183 0
M  V30 7673 H 491.905 7.06433 -0.329384 0
M  V30 7674 H 490.914 6.90926 -1.82021 0
M  V30 7675 H 492.748 8.90873 -1.62657 0
M  V30 7676 P 490.877 8.03563 -3.84925 0
M  V30 7677 O 490.657 8.85821 -5.0569 0
M  V30 7678 O 490.087 8.41101 -2.65469 0
M  V30 7679 O 490.627 6.4965 -4.18908 0
M  V30 7680 C 491.567 5.81037 -5.05421 0
M  V30 7681 C 490.837 4.78366 -5.89277 0
M  V30 7682 O 490.627 3.58302 -5.08433 0
M  V30 7683 C 489.437 5.17448 -6.36119 0
M  V30 7684 O 489.047 4.45271 -7.53232 0
M  V30 7685 C 488.557 4.74639 -5.19936 0
M  V30 7686 C 489.267 3.49432 -4.70418 0
M  V30 7687 N 489.217 3.32099 -3.22613 0
M  V30 7688 H 492.056 6.54213 -5.71376 0
M  V30 7689 H 492.328 5.30936 -4.43503 0
M  V30 7690 H 491.46 4.55889 -6.76652 0
M  V30 7691 H 488.805 2.61715 -5.17932 0
M  V30 7692 H 488.525 5.52155 -4.41878 0
M  V30 7693 H 487.534 4.51981 -5.53374 0
M  V30 7694 H 489.368 6.25124 -6.55234 0
M  V30 7695 P 487.497 4.23843 -7.83734 0
M  V30 7696 O 487.277 4.19407 -9.29784 0
M  V30 7697 O 486.707 5.24426 -7.09156 0
M  V30 7698 O 487.247 2.7935 -7.20758 0
M  V30 7699 C 488.187 1.72945 -7.50224 0
M  V30 7700 C 487.457 0.406376 -7.57911 0
M  V30 7701 O 487.247 -0.0897726 -6.21935 0
M  V30 7702 C 486.057 0.438983 -8.18724 0
M  V30 7703 O 485.667 -0.825065 -8.71101 0
M  V30 7704 C 485.177 0.783689 -6.99524 0
M  V30 7705 C 485.887 0.0619086 -5.85867 0
M  V30 7706 N 485.837 0.78573 -4.56183 0
M  V30 7707 C 485.687 0.0292889 -3.41887 0
M  V30 7708 O 485.597 -1.18445 -3.4419 0
M  V30 7709 N 485.647 0.744061 -2.23964 0
M  V30 7710 C 485.737 2.10932 -2.10362 0
M  V30 7711 O 485.687 2.64117 -0.98825 0
M  V30 7712 C 485.887 2.8202 -3.34994 0
M  V30 7713 C 485.997 4.31095 -3.25037 0
M  V30 7714 C 485.937 2.15547 -4.52261 0
M  V30 7715 H 488.678 1.93379 -8.46595 0
M  V30 7716 H 488.947 1.68132 -6.70852 0
M  V30 7717 H 488.08 -0.289041 -8.15388 0
M  V30 7718 H 485.425 -0.926847 -5.72749 0
M  V30 7719 H 485.146 1.86973 -6.82036 0
M  V30 7720 H 484.154 0.403896 -7.13257 0
M  V30 7721 H 485.988 1.20585 -8.97435 0
M  V30 7722 H 486.059 2.71231 -5.45042 0
M  V30 7723 H 485.029 4.76966 -3.49992 0
M  V30 7724 H 486.766 4.67047 -3.95024 0
M  V30 7725 H 486.278 4.58996 -2.22312 0
M  V30 7726 H 485.542 0.214893 -1.39758 0
M  V30 7727 P 484.117 -1.17771 -8.83182 0
M  V30 7728 O 483.897 -2.07206 -9.98732 0
M  V30 7729 O 483.327 0.0743816 -8.81969 0
M  V30 7730 O 483.867 -1.97652 -7.47304 0
M  V30 7731 C 484.807 -3.01133 -7.08783 0
M  V30 7732 C 484.077 -4.12613 -6.37049 0
M  V30 7733 O 483.867 -3.72827 -4.97879 0
M  V30 7734 C 482.677 -4.45085 -6.88694 0
M  V30 7735 O 482.287 -5.7877 -6.5624 0
M  V30 7736 C 481.797 -3.47817 -6.12078 0
M  V30 7737 C 482.507 -3.39414 -4.77697 0
M  V30 7738 N 482.457 -2.04615 -4.15333 0
M  V30 7739 H 485.296 -3.41248 -7.98759 0
M  V30 7740 H 485.568 -2.5837 -6.41742 0
M  V30 7741 H 484.7 -5.02657 -6.42673 0
M  V30 7742 P 480.737 -6.144 -6.45285 0
M  V30 7743 O 480.517 -7.54673 -6.86199 0
M  V30 7744 O 479.947 -5.12391 -7.179 0
M  V30 7745 O 480.487 -5.99158 -4.88404 0
M  V30 7746 C 481.427 -6.60234 -3.96415 0
M  V30 7747 C 480.697 -7.08259 -2.72856 0
M  V30 7748 O 480.487 -5.9427 -1.83651 0
M  V30 7749 C 479.297 -7.64886 -2.9555 0
M  V30 7750 O 478.907 -8.53963 -1.90717 0
M  V30 7751 C 478.417 -6.4116 -2.90739 0
M  V30 7752 C 479.127 -5.55375 -1.86963 0
M  V30 7753 N 479.077 -4.09664 -2.15742 0
M  V30 7754 H 481.916 -7.45574 -4.45629 0
M  V30 7755 H 482.188 -5.86232 -3.67314 0
M  V30 7756 H 481.32 -7.84412 -2.24479 0
M  V30 7757 P 477.357 -8.7635 -1.60911 0
M  V30 7758 O 477.137 -10.1388 -1.11561 0
M  V30 7759 O 476.567 -8.36503 -2.79617 0
M  V30 7760 O 477.107 -7.71806 -0.42951 0
M  V30 7761 C 478.047 -7.67148 0.673689 0
M  V30 7762 C 477.317 -7.33374 1.95559 0
M  V30 7763 O 477.107 -5.88721 2.00726 0
M  V30 7764 C 475.917 -7.92526 2.10483 0
M  V30 7765 O 475.527 -8.02971 3.47653 0
M  V30 7766 C 475.037 -6.89602 1.41652 0
M  V30 7767 C 475.747 -5.59201 1.75185 0
M  V30 7768 N 475.697 -4.58235 0.662552 0
M  V30 7769 H 478.536 -8.65116 0.777161 0
M  V30 7770 H 478.808 -6.90173 0.474152 0
M  V30 7771 H 477.94 -7.66548 2.79458 0
M  V30 7772 P 473.977 -8.03563 3.84925 0
M  V30 7773 O 473.757 -8.85821 5.0569 0
M  V30 7774 O 473.187 -8.41101 2.65469 0
M  V30 7775 O 473.727 -6.4965 4.18908 0
M  V30 7776 C 474.667 -5.81037 5.05421 0
M  V30 7777 C 473.937 -4.78366 5.89277 0
M  V30 7778 O 473.727 -3.58302 5.08433 0
M  V30 7779 C 472.537 -5.17448 6.36119 0
M  V30 7780 O 472.147 -4.45271 7.53232 0
M  V30 7781 C 471.657 -4.74639 5.19936 0
M  V30 7782 C 472.367 -3.49432 4.70418 0
M  V30 7783 N 472.317 -3.31776 3.22945 0
M  V30 7784 H 475.156 -6.54213 5.71376 0
M  V30 7785 H 475.428 -5.30492 4.44033 0
M  V30 7786 H 474.56 -4.55889 6.76652 0
M  V30 7787 P 470.597 -4.23843 7.83734 0
M  V30 7788 O 470.377 -4.19407 9.29784 0
M  V30 7789 O 469.807 -5.24426 7.09156 0
M  V30 7790 O 470.347 -2.7935 7.20758 0
M  V30 7791 C 471.287 -1.7299 7.50419 0
M  V30 7792 C 470.557 -0.406376 7.57911 0
M  V30 7793 O 470.347 0.0897726 6.21935 0
M  V30 7794 C 469.157 -0.447224 8.1878 0
M  V30 7795 O 468.767 0.825065 8.71101 0
M  V30 7796 C 468.277 -0.783801 6.99623 0
M  V30 7797 C 468.987 -0.0619192 5.85967 0
M  V30 7798 N 468.937 -0.790462 4.56202 0
M  V30 7799 C 469.017 -2.13895 4.34171 0
M  V30 7800 N 468.947 -2.46449 3.08687 0
M  V30 7801 C 468.797 -1.2525 2.43697 0
M  V30 7802 C 468.667 -0.914535 1.07318 0
M  V30 7803 N 468.657 -1.80782 0.0887348 0
M  V30 7804 N 468.547 0.386745 0.768133 0
M  V30 7805 C 468.557 1.28096 1.75159 0
M  V30 7806 N 468.677 1.09708 3.04861 0
M  V30 7807 C 468.797 -0.214857 3.32306 0
M  V30 7808 H 471.776 -1.93423 8.4679 0
M  V30 7809 H 472.048 -1.68852 6.70877 0
M  V30 7810 H 471.18 0.289041 8.15388 0
M  V30 7811 H 468.525 0.927006 5.72848 0
M  V30 7812 H 468.245 -1.86973 6.82036 0
M  V30 7813 H 467.254 -0.403953 7.13357 0
M  V30 7814 H 469.088 -1.20599 8.97534 0
M  V30 7815 H 469.129 -2.86846 5.14318 0
M  V30 7816 H 468.748 -2.81082 0.302037 0
M  V30 7817 H 468.559 -1.49688 -0.889064 0
M  V30 7818 H 468.451 2.31317 1.43855 0
M  V30 7819 P 467.217 1.17771 8.83182 0
M  V30 7820 O 466.997 2.07206 9.98732 0
M  V30 7821 O 466.427 -0.0743816 8.81969 0
M  V30 7822 O 466.967 1.97652 7.47304 0
M  V30 7823 C 467.907 3.01133 7.08783 0
M  V30 7824 C 467.177 4.12613 6.37049 0
M  V30 7825 O 466.967 3.72827 4.97879 0
M  V30 7826 C 465.777 4.45085 6.88694 0
M  V30 7827 O 465.387 5.7877 6.5624 0
M  V30 7828 C 464.897 3.47817 6.12078 0
M  V30 7829 C 465.607 3.39414 4.77697 0
M  V30 7830 N 465.557 2.04615 4.15333 0
M  V30 7831 C 465.637 0.803897 4.75249 0
M  V30 7832 N 465.557 -0.197615 3.91502 0
M  V30 7833 C 465.417 0.413002 2.66823 0
M  V30 7834 C 465.287 -0.157221 1.38007 0
M  V30 7835 N 465.167 0.833136 0.390236 0
M  V30 7836 C 465.167 2.19402 0.623885 0
M  V30 7837 N 465.037 2.97622 -0.449677 0
M  V30 7838 N 465.297 2.73005 1.83601 0
M  V30 7839 C 465.417 1.78786 2.80935 0
M  V30 7840 H 468.396 3.41248 7.98759 0
M  V30 7841 H 468.668 2.5837 6.41742 0
M  V30 7842 H 467.8 5.02657 6.42673 0
M  V30 7843 P 463.837 6.144 6.45285 0
M  V30 7844 O 463.617 7.54673 6.86199 0
M  V30 7845 O 463.047 5.12391 7.179 0
M  V30 7846 O 463.587 5.99158 4.88404 0
M  V30 7847 C 464.527 6.60234 3.96415 0
M  V30 7848 C 463.797 7.08259 2.72856 0
M  V30 7849 O 463.587 5.9427 1.83651 0
M  V30 7850 C 462.397 7.64886 2.9555 0
M  V30 7851 O 462.007 8.53963 1.90717 0
M  V30 7852 C 461.517 6.4116 2.90739 0
M  V30 7853 C 462.227 5.55375 1.86963 0
M  V30 7854 N 462.177 4.09664 2.15742 0
M  V30 7855 H 465.016 7.45574 4.45629 0
M  V30 7856 H 465.288 5.86232 3.67314 0
M  V30 7857 H 464.42 7.84412 2.24479 0
M  V30 7858 P 460.457 8.7635 1.60911 0
M  V30 7859 O 460.237 10.1388 1.11561 0
M  V30 7860 O 459.667 8.36503 2.79617 0
M  V30 7861 O 460.207 7.71906 0.429565 0
M  V30 7862 C 461.147 7.67148 -0.673689 0
M  V30 7863 C 460.417 7.33666 -1.94851 0
M  V30 7864 O 460.207 5.88816 -2.00759 0
M  V30 7865 C 459.017 7.92526 -2.10483 0
M  V30 7866 O 458.627 8.03063 -3.47693 0
M  V30 7867 C 458.137 6.89602 -1.41652 0
M  V30 7868 C 458.847 5.59201 -1.75185 0
M  V30 7869 N 458.797 4.58235 -0.662552 0
M  V30 7870 C 458.647 3.24451 -1.01643 0
M  V30 7871 O 458.557 2.94958 -2.21722 0
M  V30 7872 N 458.597 2.30408 0.165238 0
M  V30 7873 C 458.697 2.66048 1.25118 0
M  V30 7874 N 458.647 1.70787 2.16813 0
M  V30 7875 C 458.847 4.02732 1.64413 0
M  V30 7876 C 458.897 4.9488 0.63991 0
M  V30 7877 H 461.637 8.65017 -0.777072 0
M  V30 7878 H 461.907 6.90173 -0.474152 0
M  V30 7879 H 461.04 7.66642 -2.79492 0
M  V30 7880 H 458.385 5.16254 -2.65229 0
M  V30 7881 H 458.105 7.06532 -0.329431 0
M  V30 7882 H 457.114 6.91023 -1.82047 0
M  V30 7883 H 458.948 8.90873 -1.62657 0
M  V30 7884 H 459.02 6.00104 0.892197 0
M  V30 7885 H 458.918 4.31733 2.69229 0
M  V30 7886 H 458.53 0.724835 1.8844 0
M  V30 7887 H 458.726 1.94716 3.16734 0
M  V30 7888 P 457.077 8.03563 -3.84925 0
M  V30 7889 O 456.857 8.85821 -5.0569 0
M  V30 7890 O 456.287 8.41101 -2.65469 0
M  V30 7891 O 456.827 6.4965 -4.18908 0
M  V30 7892 C 457.767 5.81037 -5.05421 0
M  V30 7893 C 457.037 4.78366 -5.89277 0
M  V30 7894 O 456.827 3.58302 -5.08433 0
M  V30 7895 C 455.637 5.17448 -6.36119 0
M  V30 7896 O 455.247 4.45271 -7.53232 0
M  V30 7897 C 454.757 4.74639 -5.19936 0
M  V30 7898 C 455.467 3.49432 -4.70418 0
M  V30 7899 N 455.417 3.31776 -3.22945 0
M  V30 7900 C 455.497 4.27147 -2.23315 0
M  V30 7901 N 455.417 3.78447 -1.02186 0
M  V30 7902 C 455.277 2.41001 -1.21732 0
M  V30 7903 C 455.147 1.36111 -0.27694 0
M  V30 7904 O 455.127 1.42065 0.951767 0
M  V30 7905 N 455.027 0.113683 -0.912949 0
M  V30 7906 C 455.027 -0.0846396 -2.27943 0
M  V30 7907 N 454.897 -1.34737 -2.6916 0
M  V30 7908 N 455.157 0.902521 -3.16379 0
M  V30 7909 C 455.277 2.11937 -2.56849 0
M  V30 7910 H 458.256 6.54213 -5.71376 0
M  V30 7911 H 458.528 5.30492 -4.44033 0
M  V30 7912 H 457.66 4.55889 -6.76652 0
M  V30 7913 H 455.005 2.6176 -5.18021 0
M  V30 7914 H 454.725 5.52233 -4.41941 0
M  V30 7915 H 453.734 4.52045 -5.53452 0
M  V30 7916 H 455.568 6.25193 -6.55307 0
M  V30 7917 H 455.617 5.3351 -2.43857 0
M  V30 7918 H 454.935 -0.69331 -0.330371 0
M  V30 7919 H 454.898 -1.56433 -3.6988 0
M  V30 7920 H 454.797 -2.10701 -2.00133 0
M  V30 7921 P 453.697 4.23843 -7.83734 0
M  V30 7922 O 453.477 4.19407 -9.29784 0
M  V30 7923 O 452.907 5.24426 -7.09156 0
M  V30 7924 O 453.447 2.7935 -7.20758 0
M  V30 7925 C 454.387 1.7299 -7.50419 0
M  V30 7926 C 453.657 0.406376 -7.57911 0
M  V30 7927 O 453.447 -0.0897726 -6.21935 0
M  V30 7928 C 452.257 0.447224 -8.1878 0
M  V30 7929 O 451.867 -0.825065 -8.71101 0
M  V30 7930 C 451.377 0.783801 -6.99623 0
M  V30 7931 C 452.087 0.0619192 -5.85967 0
M  V30 7932 N 452.037 0.7859 -4.56281 0
M  V30 7933 H 454.876 1.93423 -8.4679 0
M  V30 7934 H 455.148 1.68181 -6.71046 0
M  V30 7935 H 454.28 -0.289041 -8.15388 0
M  V30 7936 P 450.317 -1.17771 -8.83182 0
M  V30 7937 O 450.097 -2.07206 -9.98732 0
M  V30 7938 O 449.527 0.0743816 -8.81969 0
M  V30 7939 O 450.067 -1.97652 -7.47304 0
M  V30 7940 C 451.007 -3.01133 -7.08783 0
M  V30 7941 C 450.277 -4.12613 -6.37049 0
M  V30 7942 O 450.067 -3.72827 -4.97879 0
M  V30 7943 C 448.877 -4.45085 -6.88694 0
M  V30 7944 O 448.487 -5.7877 -6.5624 0
M  V30 7945 C 447.997 -3.47817 -6.12078 0
M  V30 7946 C 448.707 -3.39414 -4.77697 0
M  V30 7947 N 448.657 -2.04199 -4.15538 0
M  V30 7948 H 451.496 -3.41248 -7.98759 0
M  V30 7949 H 451.768 -2.57728 -6.42 0
M  V30 7950 H 450.9 -5.02657 -6.42673 0
M  V30 7951 H 448.245 -4.11708 -4.08956 0
M  V30 7952 H 447.965 -2.49626 -6.61679 0
M  V30 7953 H 446.974 -3.8662 -6.00862 0
M  V30 7954 H 448.808 -4.29991 -7.97006 0
M  V30 7955 P 446.937 -6.144 -6.45285 0
M  V30 7956 O 446.717 -7.54673 -6.86199 0
M  V30 7957 O 446.147 -5.12391 -7.179 0
M  V30 7958 O 446.687 -5.99158 -4.88404 0
M  V30 7959 C 447.627 -6.60234 -3.96415 0
M  V30 7960 C 446.897 -7.08259 -2.72856 0
M  V30 7961 O 446.687 -5.9427 -1.83651 0
M  V30 7962 C 445.497 -7.64886 -2.9555 0
M  V30 7963 O 445.107 -8.53963 -1.90717 0
M  V30 7964 C 444.617 -6.4116 -2.90739 0
M  V30 7965 C 445.327 -5.55375 -1.86963 0
M  V30 7966 N 445.277 -4.09448 -2.16152 0
M  V30 7967 H 448.116 -7.45574 -4.45629 0
M  V30 7968 H 448.388 -5.85864 -3.679 0
M  V30 7969 H 447.52 -7.84412 -2.24479 0
M  V30 7970 H 444.865 -5.73457 -0.888562 0
M  V30 7971 H 444.585 -5.90877 -3.88583 0
M  V30 7972 H 443.594 -6.6596 -2.58858 0
M  V30 7973 H 445.428 -8.16339 -3.92049 0
M  V30 7974 P 443.557 -8.7635 -1.60911 0
M  V30 7975 O 443.337 -10.1388 -1.11561 0
M  V30 7976 O 442.767 -8.36503 -2.79617 0
M  V30 7977 O 443.307 -7.71806 -0.42951 0
M  V30 7978 C 444.247 -7.67148 0.673689 0
M  V30 7979 C 443.517 -7.33374 1.95559 0
M  V30 7980 O 443.307 -5.88721 2.00726 0
M  V30 7981 C 442.117 -7.92526 2.10483 0
M  V30 7982 O 441.727 -8.02971 3.47653 0
M  V30 7983 C 441.237 -6.89602 1.41652 0
M  V30 7984 C 441.947 -5.59201 1.75185 0
M  V30 7985 N 441.897 -4.58235 0.662552 0
M  V30 7986 C 441.977 -4.7683 -0.704049 0
M  V30 7987 N 441.897 -3.66233 -1.39775 0
M  V30 7988 C 441.757 -2.66526 -0.431739 0
M  V30 7989 C 441.627 -1.26394 -0.575992 0
M  V30 7990 O 441.607 -0.589894 -1.60503 0
M  V30 7991 N 441.507 -0.62859 0.67177 0
M  V30 7992 C 441.507 -1.27134 1.89385 0
M  V30 7993 N 441.377 -0.492035 2.96951 0
M  V30 7994 N 441.637 -2.58978 2.02907 0
M  V30 7995 C 441.757 -3.22433 0.832218 0
M  V30 7996 H 444.736 -8.65116 0.777161 0
M  V30 7997 H 445.008 -6.90173 0.474152 0
M  V30 7998 H 444.14 -7.66548 2.79458 0
M  V30 7999 H 441.485 -5.16254 2.65229 0
M  V30 8000 H 441.205 -7.06532 0.329431 0
M  V30 8001 H 440.214 -6.91023 1.82047 0
M  V30 8002 H 442.048 -8.90971 1.62675 0
M  V30 8003 H 442.097 -5.74954 -1.16305 0
M  V30 8004 H 441.415 0.366713 0.674793 0
M  V30 8005 H 441.378 -0.908532 3.91188 0
M  V30 8006 H 441.277 0.528253 2.85758 0
M  V30 8007 P 440.177 -8.03563 3.84925 0
M  V30 8008 O 439.957 -8.85821 5.0569 0
M  V30 8009 O 439.387 -8.41101 2.65469 0
M  V30 8010 O 439.927 -6.4965 4.18908 0
M  V30 8011 C 440.867 -5.81037 5.05421 0
M  V30 8012 C 440.137 -4.78366 5.89277 0
M  V30 8013 O 439.927 -3.58302 5.08433 0
M  V30 8014 C 438.737 -5.17448 6.36119 0
M  V30 8015 O 438.347 -4.45271 7.53232 0
M  V30 8016 C 437.857 -4.74639 5.19936 0
M  V30 8017 C 438.567 -3.49432 4.70418 0
M  V30 8018 N 438.517 -3.31776 3.22945 0
M  V30 8019 H 441.356 -6.54213 5.71376 0
M  V30 8020 H 441.628 -5.30492 4.44033 0
M  V30 8021 H 440.76 -4.55889 6.76652 0
M  V30 8022 P 436.797 -4.23843 7.83734 0
M  V30 8023 O 436.577 -4.19407 9.29784 0
M  V30 8024 O 436.007 -5.24426 7.09156 0
M  V30 8025 O 436.547 -2.7935 7.20758 0
M  V30 8026 C 437.487 -1.72945 7.50224 0
M  V30 8027 C 436.757 -0.406376 7.57911 0
M  V30 8028 O 436.547 0.0897726 6.21935 0
M  V30 8029 C 435.357 -0.438983 8.18724 0
M  V30 8030 O 434.967 0.825065 8.71101 0
M  V30 8031 C 434.477 -0.783689 6.99524 0
M  V30 8032 C 435.187 -0.0619086 5.85867 0
M  V30 8033 N 435.137 -0.78573 4.56183 0
M  V30 8034 C 434.987 -0.0292889 3.41887 0
M  V30 8035 O 434.897 1.18445 3.4419 0
M  V30 8036 N 434.947 -0.744061 2.23964 0
M  V30 8037 C 435.037 -2.10932 2.10362 0
M  V30 8038 C 435.187 -2.8202 3.34994 0
M  V30 8039 C 435.237 -2.15547 4.52261 0
M  V30 8040 H 437.978 -1.93379 8.46595 0
M  V30 8041 H 438.247 -1.68132 6.70852 0
M  V30 8042 H 437.38 0.289041 8.15388 0
M  V30 8043 H 434.725 0.926847 5.72749 0
M  V30 8044 H 434.446 -1.86973 6.82036 0
M  V30 8045 H 433.454 -0.403896 7.13257 0
M  V30 8046 H 435.288 -1.20585 8.97435 0
M  V30 8047 H 435.359 -2.71231 5.45042 0
M  V30 8048 P 433.417 1.17771 8.83182 0
M  V30 8049 O 433.197 2.07206 9.98732 0
M  V30 8050 O 432.627 -0.0743816 8.81969 0
M  V30 8051 O 433.167 1.97652 7.47304 0
M  V30 8052 C 434.107 3.01133 7.08783 0
M  V30 8053 C 433.377 4.12613 6.37049 0
M  V30 8054 O 433.167 3.72827 4.97879 0
M  V30 8055 C 431.977 4.45085 6.88694 0
M  V30 8056 O 431.587 5.7877 6.5624 0
M  V30 8057 C 431.097 3.47817 6.12078 0
M  V30 8058 C 431.807 3.39414 4.77697 0
M  V30 8059 N 431.757 2.04199 4.15538 0
M  V30 8060 C 431.837 0.821545 4.76977 0
M  V30 8061 N 431.767 -0.1794 3.94592 0
M  V30 8062 C 431.617 0.419121 2.70776 0
M  V30 8063 C 431.487 -0.109072 1.40577 0
M  V30 8064 N 431.477 -1.4104 1.1344 0
M  V30 8065 N 431.367 0.764381 0.39411 0
M  V30 8066 C 431.377 2.06587 0.664135 0
M  V30 8067 N 431.497 2.67948 1.82153 0
M  V30 8068 C 431.617 1.77942 2.8147 0
M  V30 8069 H 434.596 3.41248 7.98759 0
M  V30 8070 H 434.868 2.57728 6.42 0
M  V30 8071 H 434 5.02657 6.42673 0
M  V30 8072 H 431.345 4.11708 4.08956 0
M  V30 8073 H 431.065 2.49626 6.61679 0
M  V30 8074 H 430.074 3.8662 6.00862 0
M  V30 8075 H 431.908 4.29991 7.97006 0
M  V30 8076 H 431.949 0.702451 5.84696 0
M  V30 8077 H 431.568 -2.09647 1.89651 0
M  V30 8078 H 431.379 -1.73358 0.160575 0
M  V30 8079 H 431.271 2.71695 -0.195838 0
M  V30 8080 P 430.037 6.144 6.45285 0
M  V30 8081 O 429.817 7.54673 6.86199 0
M  V30 8082 O 429.247 5.12391 7.179 0
M  V30 8083 O 429.787 5.99158 4.88404 0
M  V30 8084 C 430.727 6.60234 3.96415 0
M  V30 8085 C 429.997 7.08259 2.72856 0
M  V30 8086 O 429.787 5.9427 1.83651 0
M  V30 8087 C 428.597 7.64886 2.9555 0
M  V30 8088 O 428.207 8.53963 1.90717 0
M  V30 8089 C 427.717 6.4116 2.90739 0
M  V30 8090 C 428.427 5.55375 1.86963 0
M  V30 8091 N 428.377 4.09448 2.16152 0
M  V30 8092 H 431.216 7.45574 4.45629 0
M  V30 8093 H 431.488 5.85864 3.679 0
M  V30 8094 H 430.62 7.84412 2.24479 0
M  V30 8095 H 427.965 5.73457 0.888562 0
M  V30 8096 H 427.685 5.90877 3.88583 0
M  V30 8097 H 426.694 6.6596 2.58858 0
M  V30 8098 H 428.528 8.16339 3.92049 0
M  V30 8099 P 426.657 8.7635 1.60911 0
M  V30 8100 O 426.437 10.1388 1.11561 0
M  V30 8101 O 425.867 8.36503 2.79617 0
M  V30 8102 O 426.407 7.71806 0.42951 0
M  V30 8103 C 427.347 7.67148 -0.673689 0
M  V30 8104 C 426.617 7.33374 -1.95559 0
M  V30 8105 O 426.407 5.88721 -2.00726 0
M  V30 8106 C 425.217 7.92526 -2.10483 0
M  V30 8107 O 424.827 8.02971 -3.47653 0
M  V30 8108 C 424.337 6.89602 -1.41652 0
M  V30 8109 C 425.047 5.59201 -1.75185 0
M  V30 8110 N 424.997 4.58235 -0.662552 0
M  V30 8111 H 427.836 8.65116 -0.777161 0
M  V30 8112 H 428.108 6.90173 -0.474152 0
M  V30 8113 H 427.24 7.66548 -2.79458 0
M  V30 8114 P 423.278 8.03563 -3.84925 0
M  V30 8115 O 423.058 8.85821 -5.0569 0
M  V30 8116 O 422.488 8.41101 -2.65469 0
M  V30 8117 O 423.028 6.4965 -4.18908 0
M  V30 8118 C 423.968 5.81037 -5.05421 0
M  V30 8119 C 423.238 4.78366 -5.89277 0
M  V30 8120 O 423.028 3.58302 -5.08433 0
M  V30 8121 C 421.838 5.17448 -6.36119 0
M  V30 8122 O 421.448 4.45271 -7.53232 0
M  V30 8123 C 420.958 4.74639 -5.19936 0
M  V30 8124 C 421.668 3.49432 -4.70418 0
M  V30 8125 N 421.618 3.32099 -3.22613 0
M  V30 8126 H 424.457 6.54213 -5.71376 0
M  V30 8127 H 424.729 5.30936 -4.43503 0
M  V30 8128 H 423.861 4.55889 -6.76652 0
M  V30 8129 H 421.206 2.61715 -5.17932 0
M  V30 8130 H 420.926 5.52155 -4.41878 0
M  V30 8131 H 419.935 4.51981 -5.53374 0
M  V30 8132 H 421.769 6.25124 -6.55234 0
M  V30 8133 P 419.898 4.23843 -7.83734 0
M  V30 8134 O 419.678 4.19407 -9.29784 0
M  V30 8135 O 419.108 5.24426 -7.09156 0
M  V30 8136 O 419.648 2.7935 -7.20758 0
M  V30 8137 C 420.588 1.7299 -7.50419 0
M  V30 8138 C 419.858 0.406376 -7.57911 0
M  V30 8139 O 419.648 -0.0897726 -6.21935 0
M  V30 8140 C 418.458 0.447224 -8.1878 0
M  V30 8141 O 418.068 -0.825065 -8.71101 0
M  V30 8142 C 417.578 0.783801 -6.99623 0
M  V30 8143 C 418.288 0.0619192 -5.85967 0
M  V30 8144 N 418.238 0.7859 -4.56281 0
M  V30 8145 C 418.318 2.14308 -4.31736 0
M  V30 8146 N 418.238 2.46106 -3.05116 0
M  V30 8147 C 418.098 1.23422 -2.4014 0
M  V30 8148 C 417.968 0.938381 -1.02409 0
M  V30 8149 N 417.848 -0.444647 -0.805413 0
M  V30 8150 C 417.848 -1.40829 -1.79435 0
M  V30 8151 N 417.718 -2.67213 -1.38558 0
M  V30 8152 N 417.978 -1.12947 -3.09005 0
M  V30 8153 C 418.098 0.204887 -3.32369 0
M  V30 8154 H 421.077 1.93423 -8.4679 0
M  V30 8155 H 421.349 1.68181 -6.71046 0
M  V30 8156 H 420.481 -0.289041 -8.15388 0
M  V30 8157 P 416.518 -1.17771 -8.83182 0
M  V30 8158 O 416.298 -2.07206 -9.98732 0
M  V30 8159 O 415.728 0.0743816 -8.81969 0
M  V30 8160 O 416.268 -1.97652 -7.47304 0
M  V30 8161 C 417.208 -3.01133 -7.08783 0
M  V30 8162 C 416.478 -4.12613 -6.37049 0
M  V30 8163 O 416.268 -3.72827 -4.97879 0
M  V30 8164 C 415.078 -4.45085 -6.88694 0
M  V30 8165 O 414.688 -5.7877 -6.5624 0
M  V30 8166 C 414.198 -3.47817 -6.12078 0
M  V30 8167 C 414.908 -3.39414 -4.77697 0
M  V30 8168 N 414.858 -2.04199 -4.15538 0
M  V30 8169 H 417.697 -3.41248 -7.98759 0
M  V30 8170 H 417.969 -2.57728 -6.42 0
M  V30 8171 H 417.101 -5.02657 -6.42673 0
M  V30 8172 H 414.446 -4.11708 -4.08956 0
M  V30 8173 H 414.166 -2.49626 -6.61679 0
M  V30 8174 H 413.175 -3.8662 -6.00862 0
M  V30 8175 H 415.009 -4.29991 -7.97006 0
M  V30 8176 P 413.138 -6.144 -6.45285 0
M  V30 8177 O 412.918 -7.54673 -6.86199 0
M  V30 8178 O 412.348 -5.12391 -7.179 0
M  V30 8179 O 412.888 -5.99158 -4.88404 0
M  V30 8180 C 413.828 -6.60234 -3.96415 0
M  V30 8181 C 413.098 -7.08259 -2.72856 0
M  V30 8182 O 412.888 -5.9427 -1.83651 0
M  V30 8183 C 411.698 -7.64886 -2.9555 0
M  V30 8184 O 411.308 -8.53963 -1.90717 0
M  V30 8185 C 410.818 -6.4116 -2.90739 0
M  V30 8186 C 411.528 -5.55375 -1.86963 0
M  V30 8187 N 411.478 -4.09664 -2.15742 0
M  V30 8188 H 414.317 -7.45574 -4.45629 0
M  V30 8189 H 414.589 -5.86232 -3.67314 0
M  V30 8190 H 413.721 -7.84412 -2.24479 0
M  V30 8191 P 409.758 -8.7635 -1.60911 0
M  V30 8192 O 409.538 -10.1388 -1.11561 0
M  V30 8193 O 408.968 -8.36503 -2.79617 0
M  V30 8194 O 409.508 -7.71806 -0.42951 0
M  V30 8195 C 410.448 -7.67148 0.673689 0
M  V30 8196 C 409.718 -7.33374 1.95559 0
M  V30 8197 O 409.508 -5.88721 2.00726 0
M  V30 8198 C 408.318 -7.92526 2.10483 0
M  V30 8199 O 407.928 -8.02971 3.47653 0
M  V30 8200 C 407.438 -6.89602 1.41652 0
M  V30 8201 C 408.148 -5.59201 1.75185 0
M  V30 8202 N 408.098 -4.58235 0.662552 0
M  V30 8203 H 410.937 -8.65116 0.777161 0
M  V30 8204 H 411.209 -6.90173 0.474152 0
M  V30 8205 H 410.341 -7.66548 2.79458 0
M  V30 8206 P 406.378 -8.03563 3.84925 0
M  V30 8207 O 406.158 -8.85821 5.0569 0
M  V30 8208 O 405.588 -8.41101 2.65469 0
M  V30 8209 O 406.128 -6.4965 4.18908 0
M  V30 8210 C 407.068 -5.81037 5.05421 0
M  V30 8211 C 406.338 -4.78366 5.89277 0
M  V30 8212 O 406.128 -3.58302 5.08433 0
M  V30 8213 C 404.938 -5.17448 6.36119 0
M  V30 8214 O 404.548 -4.45271 7.53232 0
M  V30 8215 C 404.058 -4.74639 5.19936 0
M  V30 8216 C 404.768 -3.49432 4.70418 0
M  V30 8217 N 404.718 -3.31776 3.22945 0
M  V30 8218 H 407.557 -6.54213 5.71376 0
M  V30 8219 H 407.829 -5.30492 4.44033 0
M  V30 8220 H 406.961 -4.55889 6.76652 0
M  V30 8221 P 402.998 -4.23843 7.83734 0
M  V30 8222 O 402.778 -4.19407 9.29784 0
M  V30 8223 O 402.208 -5.24426 7.09156 0
M  V30 8224 O 402.748 -2.7935 7.20758 0
M  V30 8225 C 403.688 -1.7299 7.50419 0
M  V30 8226 C 402.958 -0.406376 7.57911 0
M  V30 8227 O 402.748 0.0897726 6.21935 0
M  V30 8228 C 401.558 -0.447224 8.1878 0
M  V30 8229 O 401.168 0.825065 8.71101 0
M  V30 8230 C 400.678 -0.783801 6.99623 0
M  V30 8231 C 401.388 -0.0619192 5.85967 0
M  V30 8232 N 401.338 -0.790462 4.56202 0
M  V30 8233 H 404.177 -1.93423 8.4679 0
M  V30 8234 H 404.449 -1.68852 6.70877 0
M  V30 8235 H 403.581 0.289041 8.15388 0
M  V30 8236 H 400.926 0.927006 5.72848 0
M  V30 8237 H 400.646 -1.86973 6.82036 0
M  V30 8238 H 399.655 -0.403953 7.13357 0
M  V30 8239 H 401.489 -1.20599 8.97534 0
M  V30 8240 P 399.618 1.17771 8.83182 0
M  V30 8241 O 399.398 2.07206 9.98732 0
M  V30 8242 O 398.828 -0.0743816 8.81969 0
M  V30 8243 O 399.368 1.97652 7.47304 0
M  V30 8244 C 400.308 3.01133 7.08783 0
M  V30 8245 C 399.578 4.12613 6.37049 0
M  V30 8246 O 399.368 3.72827 4.97879 0
M  V30 8247 C 398.178 4.45085 6.88694 0
M  V30 8248 O 397.788 5.7877 6.5624 0
M  V30 8249 C 397.298 3.47817 6.12078 0
M  V30 8250 C 398.008 3.39414 4.77697 0
M  V30 8251 N 397.958 2.04615 4.15333 0
M  V30 8252 C 398.038 0.803897 4.75249 0
M  V30 8253 N 397.958 -0.197615 3.91502 0
M  V30 8254 C 397.818 0.413002 2.66823 0
M  V30 8255 C 397.688 -0.157221 1.38007 0
M  V30 8256 N 397.568 0.833136 0.390236 0
M  V30 8257 C 397.568 2.19402 0.623885 0
M  V30 8258 N 397.438 2.97622 -0.449677 0
M  V30 8259 N 397.698 2.73005 1.83601 0
M  V30 8260 C 397.818 1.78786 2.80935 0
M  V30 8261 H 400.797 3.41248 7.98759 0
M  V30 8262 H 401.069 2.5837 6.41742 0
M  V30 8263 H 400.201 5.02657 6.42673 0
M  V30 8264 P 396.238 6.144 6.45285 0
M  V30 8265 O 396.018 7.54673 6.86199 0
M  V30 8266 O 395.448 5.12391 7.179 0
M  V30 8267 O 395.988 5.99158 4.88404 0
M  V30 8268 C 396.928 6.60234 3.96415 0
M  V30 8269 C 396.198 7.08259 2.72856 0
M  V30 8270 O 395.988 5.9427 1.83651 0
M  V30 8271 C 394.798 7.64886 2.9555 0
M  V30 8272 O 394.408 8.53963 1.90717 0
M  V30 8273 C 393.918 6.4116 2.90739 0
M  V30 8274 C 394.628 5.55375 1.86963 0
M  V30 8275 N 394.578 4.09664 2.15742 0
M  V30 8276 H 397.417 7.45574 4.45629 0
M  V30 8277 H 397.689 5.86232 3.67314 0
M  V30 8278 H 396.821 7.84412 2.24479 0
M  V30 8279 P 392.858 8.7635 1.60911 0
M  V30 8280 O 392.638 10.1388 1.11561 0
M  V30 8281 O 392.068 8.36503 2.79617 0
M  V30 8282 O 392.608 7.71806 0.42951 0
M  V30 8283 C 393.548 7.67148 -0.673689 0
M  V30 8284 C 392.818 7.33374 -1.95559 0
M  V30 8285 O 392.608 5.88721 -2.00726 0
M  V30 8286 C 391.418 7.92526 -2.10483 0
M  V30 8287 O 391.028 8.02971 -3.47653 0
M  V30 8288 C 390.538 6.89602 -1.41652 0
M  V30 8289 C 391.248 5.59201 -1.75185 0
M  V30 8290 N 391.198 4.58235 -0.662552 0
M  V30 8291 H 394.037 8.65116 -0.777161 0
M  V30 8292 H 394.309 6.90173 -0.474152 0
M  V30 8293 H 393.441 7.66548 -2.79458 0
M  V30 8294 P 389.478 8.03563 -3.84925 0
M  V30 8295 O 389.258 8.85821 -5.0569 0
M  V30 8296 O 388.688 8.41101 -2.65469 0
M  V30 8297 O 389.228 6.4965 -4.18908 0
M  V30 8298 C 390.168 5.81037 -5.05421 0
M  V30 8299 C 389.438 4.78366 -5.89277 0
M  V30 8300 O 389.228 3.58302 -5.08433 0
M  V30 8301 C 388.038 5.17448 -6.36119 0
M  V30 8302 O 387.648 4.45271 -7.53232 0
M  V30 8303 C 387.158 4.74639 -5.19936 0
M  V30 8304 C 387.868 3.49432 -4.70418 0
M  V30 8305 N 387.818 3.32099 -3.22613 0
M  V30 8306 C 387.898 4.28245 -2.25527 0
M  V30 8307 N 387.828 3.80823 -1.04874 0
M  V30 8308 C 387.678 2.44571 -1.23535 0
M  V30 8309 C 387.548 1.37068 -0.330675 0
M  V30 8310 N 387.538 1.51472 0.990824 0
M  V30 8311 N 387.428 0.138614 -0.848756 0
M  V30 8312 C 387.438 -0.00675923 -2.16999 0
M  V30 8313 N 387.558 0.904372 -3.11122 0
M  V30 8314 C 387.678 2.12707 -2.56212 0
M  V30 8315 H 390.657 6.54213 -5.71376 0
M  V30 8316 H 390.929 5.30936 -4.43503 0
M  V30 8317 H 390.061 4.55889 -6.76652 0
M  V30 8318 H 387.406 2.61715 -5.17932 0
M  V30 8319 H 387.126 5.52155 -4.41878 0
M  V30 8320 H 386.135 4.51981 -5.53374 0
M  V30 8321 H 387.969 6.25124 -6.55234 0
M  V30 8322 H 388.01 5.34372 -2.47488 0
M  V30 8323 H 387.629 2.45153 1.4078 0
M  V30 8324 H 387.44 0.688422 1.59911 0
M  V30 8325 H 387.332 -1.02584 -2.52346 0
M  V30 8326 P 386.098 4.23843 -7.83734 0
M  V30 8327 O 385.878 4.19407 -9.29784 0
M  V30 8328 O 385.308 5.24426 -7.09156 0
M  V30 8329 O 385.848 2.7935 -7.20758 0
M  V30 8330 C 386.788 1.7299 -7.50419 0
M  V30 8331 C 386.058 0.406376 -7.57911 0
M  V30 8332 O 385.848 -0.0897726 -6.21935 0
M  V30 8333 C 384.658 0.447224 -8.1878 0
M  V30 8334 O 384.268 -0.825065 -8.71101 0
M  V30 8335 C 383.778 0.783801 -6.99623 0
M  V30 8336 C 384.488 0.0619192 -5.85967 0
M  V30 8337 N 384.438 0.7859 -4.56281 0
M  V30 8338 H 387.277 1.93423 -8.4679 0
M  V30 8339 H 387.549 1.68181 -6.71046 0
M  V30 8340 H 386.681 -0.289041 -8.15388 0
M  V30 8341 P 382.718 -1.17771 -8.83182 0
M  V30 8342 O 382.498 -2.07206 -9.98732 0
M  V30 8343 O 381.928 0.0743816 -8.81969 0
M  V30 8344 O 382.468 -1.97652 -7.47304 0
M  V30 8345 C 383.408 -3.01055 -7.08599 0
M  V30 8346 C 382.678 -4.12613 -6.37049 0
M  V30 8347 O 382.468 -3.72827 -4.97879 0
M  V30 8348 C 381.278 -4.45719 -6.88164 0
M  V30 8349 O 380.888 -5.7877 -6.5624 0
M  V30 8350 C 380.398 -3.47768 -6.11991 0
M  V30 8351 C 381.108 -3.39356 -4.77615 0
M  V30 8352 N 381.058 -2.04571 -4.15244 0
M  V30 8353 C 380.908 -1.98587 -2.78314 0
M  V30 8354 O 380.818 -2.98134 -2.08835 0
M  V30 8355 N 380.868 -0.714467 -2.24925 0
M  V30 8356 C 380.958 0.470001 -2.94169 0
M  V30 8357 O 380.908 1.55587 -2.35195 0
M  V30 8358 C 381.108 0.312541 -4.36783 0
M  V30 8359 C 381.218 1.57711 -5.16352 0
M  V30 8360 C 381.158 -0.914512 -4.92583 0
M  V30 8361 H 383.899 -3.41169 -7.98575 0
M  V30 8362 H 384.168 -2.58295 -6.41556 0
M  V30 8363 H 383.301 -5.02657 -6.42673 0
M  V30 8364 H 380.646 -4.11637 -4.08885 0
M  V30 8365 H 380.367 -2.49626 -6.61679 0
M  V30 8366 H 379.375 -3.86566 -6.00778 0
M  V30 8367 H 381.209 -4.29943 -7.96918 0
M  V30 8368 H 381.28 -1.00937 -6.00374 0
M  V30 8369 H 380.25 1.80153 -5.63503 0
M  V30 8370 H 381.987 1.4566 -5.94104 0
M  V30 8371 H 381.499 2.40664 -4.49645 0
M  V30 8372 H 380.763 -0.647622 -1.25697 0
M  V30 8373 P 379.338 -6.144 -6.45285 0
M  V30 8374 O 379.118 -7.54673 -6.86199 0
M  V30 8375 O 378.548 -5.12391 -7.179 0
M  V30 8376 O 379.088 -5.99158 -4.88404 0
M  V30 8377 C 380.028 -6.60234 -3.96415 0
M  V30 8378 C 379.298 -7.08259 -2.72856 0
M  V30 8379 O 379.088 -5.9427 -1.83651 0
M  V30 8380 C 377.898 -7.64886 -2.9555 0
M  V30 8381 O 377.508 -8.53963 -1.90717 0
M  V30 8382 C 377.018 -6.4116 -2.90739 0
M  V30 8383 C 377.728 -5.55375 -1.86963 0
M  V30 8384 N 377.678 -4.09448 -2.16152 0
M  V30 8385 H 380.517 -7.45574 -4.45629 0
M  V30 8386 H 380.789 -5.85864 -3.679 0
M  V30 8387 H 379.921 -7.84412 -2.24479 0
M  V30 8388 H 377.266 -5.73457 -0.888562 0
M  V30 8389 H 376.986 -5.90877 -3.88583 0
M  V30 8390 H 375.995 -6.6596 -2.58858 0
M  V30 8391 H 377.829 -8.16339 -3.92049 0
M  V30 8392 P 375.958 -8.7635 -1.60911 0
M  V30 8393 O 375.738 -10.1388 -1.11561 0
M  V30 8394 O 375.168 -8.36503 -2.79617 0
M  V30 8395 O 375.708 -7.71806 -0.42951 0
M  V30 8396 C 376.648 -7.67148 0.673689 0
M  V30 8397 C 375.918 -7.33374 1.95559 0
M  V30 8398 O 375.708 -5.88721 2.00726 0
M  V30 8399 C 374.518 -7.92526 2.10483 0
M  V30 8400 O 374.128 -8.02971 3.47653 0
M  V30 8401 C 373.638 -6.89602 1.41652 0
M  V30 8402 C 374.348 -5.59201 1.75185 0
M  V30 8403 N 374.298 -4.58301 0.657969 0
M  V30 8404 H 377.137 -8.65116 0.777161 0
M  V30 8405 H 377.409 -6.9022 0.46725 0
M  V30 8406 H 376.541 -7.66548 2.79458 0
M  V30 8407 H 373.886 -5.16165 2.65183 0
M  V30 8408 H 373.606 -7.06433 0.329384 0
M  V30 8409 H 372.615 -6.90926 1.82021 0
M  V30 8410 H 374.449 -8.90873 1.62657 0
M  V30 8411 P 372.578 -8.03563 3.84925 0
M  V30 8412 O 372.358 -8.85821 5.0569 0
M  V30 8413 O 371.788 -8.41101 2.65469 0
M  V30 8414 O 372.328 -6.4965 4.18908 0
M  V30 8415 C 373.268 -5.81037 5.05421 0
M  V30 8416 C 372.538 -4.78366 5.89277 0
M  V30 8417 O 372.328 -3.58302 5.08433 0
M  V30 8418 C 371.138 -5.17448 6.36119 0
M  V30 8419 O 370.748 -4.45271 7.53232 0
M  V30 8420 C 370.258 -4.74639 5.19936 0
M  V30 8421 C 370.968 -3.49432 4.70418 0
M  V30 8422 N 370.918 -3.31776 3.22945 0
M  V30 8423 H 373.757 -6.54213 5.71376 0
M  V30 8424 H 374.029 -5.30492 4.44033 0
M  V30 8425 H 373.161 -4.55889 6.76652 0
M  V30 8426 P 369.198 -4.23843 7.83734 0
M  V30 8427 O 368.978 -4.19407 9.29784 0
M  V30 8428 O 368.408 -5.24426 7.09156 0
M  V30 8429 O 368.948 -2.7935 7.20758 0
M  V30 8430 C 369.888 -1.7299 7.50419 0
M  V30 8431 C 369.158 -0.406376 7.57911 0
M  V30 8432 O 368.948 0.0897726 6.21935 0
M  V30 8433 C 367.758 -0.447224 8.1878 0
M  V30 8434 O 367.368 0.825065 8.71101 0
M  V30 8435 C 366.878 -0.783801 6.99623 0
M  V30 8436 C 367.588 -0.0619192 5.85967 0
M  V30 8437 N 367.538 -0.790462 4.56202 0
M  V30 8438 H 370.377 -1.93423 8.4679 0
M  V30 8439 H 370.649 -1.68852 6.70877 0
M  V30 8440 H 369.781 0.289041 8.15388 0
M  V30 8441 H 367.126 0.927006 5.72848 0
M  V30 8442 H 366.846 -1.86973 6.82036 0
M  V30 8443 H 365.855 -0.403953 7.13357 0
M  V30 8444 H 367.689 -1.20599 8.97534 0
M  V30 8445 P 365.818 1.17771 8.83182 0
M  V30 8446 O 365.598 2.07206 9.98732 0
M  V30 8447 O 365.028 -0.0743816 8.81969 0
M  V30 8448 O 365.568 1.97652 7.47304 0
M  V30 8449 C 366.508 3.01133 7.08783 0
M  V30 8450 C 365.778 4.12613 6.37049 0
M  V30 8451 O 365.568 3.72827 4.97879 0
M  V30 8452 C 364.378 4.45085 6.88694 0
M  V30 8453 O 363.988 5.7877 6.5624 0
M  V30 8454 C 363.498 3.47817 6.12078 0
M  V30 8455 C 364.208 3.39414 4.77697 0
M  V30 8456 N 364.158 2.04615 4.15333 0
M  V30 8457 H 366.997 3.41248 7.98759 0
M  V30 8458 H 367.269 2.5837 6.41742 0
M  V30 8459 H 366.401 5.02657 6.42673 0
M  V30 8460 P 362.438 6.144 6.45285 0
M  V30 8461 O 362.218 7.54673 6.86199 0
M  V30 8462 O 361.648 5.12391 7.179 0
M  V30 8463 O 362.188 5.99158 4.88404 0
M  V30 8464 C 363.128 6.60234 3.96415 0
M  V30 8465 C 362.398 7.08259 2.72856 0
M  V30 8466 O 362.188 5.9427 1.83651 0
M  V30 8467 C 360.998 7.64886 2.9555 0
M  V30 8468 O 360.608 8.53963 1.90717 0
M  V30 8469 C 360.118 6.4116 2.90739 0
M  V30 8470 C 360.828 5.55375 1.86963 0
M  V30 8471 N 360.778 4.09664 2.15742 0
M  V30 8472 H 363.617 7.45574 4.45629 0
M  V30 8473 H 363.889 5.86232 3.67314 0
M  V30 8474 H 363.021 7.84412 2.24479 0
M  V30 8475 P 359.058 8.7635 1.60911 0
M  V30 8476 O 358.838 10.1388 1.11561 0
M  V30 8477 O 358.268 8.36503 2.79617 0
M  V30 8478 O 358.808 7.71806 0.42951 0
M  V30 8479 C 359.748 7.67148 -0.673689 0
M  V30 8480 C 359.018 7.33374 -1.95559 0
M  V30 8481 O 358.808 5.88721 -2.00726 0
M  V30 8482 C 357.618 7.92526 -2.10483 0
M  V30 8483 O 357.228 8.02971 -3.47653 0
M  V30 8484 C 356.738 6.89602 -1.41652 0
M  V30 8485 C 357.448 5.59201 -1.75185 0
M  V30 8486 N 357.398 4.58235 -0.662552 0
M  V30 8487 H 360.237 8.65116 -0.777161 0
M  V30 8488 H 360.509 6.90173 -0.474152 0
M  V30 8489 H 359.641 7.66548 -2.79458 0
M  V30 8490 P 355.678 8.03563 -3.84925 0
M  V30 8491 O 355.458 8.85821 -5.0569 0
M  V30 8492 O 354.888 8.41101 -2.65469 0
M  V30 8493 O 355.428 6.4965 -4.18908 0
M  V30 8494 C 356.368 5.81037 -5.05421 0
M  V30 8495 C 355.638 4.78366 -5.89277 0
M  V30 8496 O 355.428 3.58302 -5.08433 0
M  V30 8497 C 354.238 5.17448 -6.36119 0
M  V30 8498 O 353.848 4.45271 -7.53232 0
M  V30 8499 C 353.358 4.74639 -5.19936 0
M  V30 8500 C 354.068 3.49432 -4.70418 0
M  V30 8501 N 354.018 3.31776 -3.22945 0
M  V30 8502 H 356.857 6.54213 -5.71376 0
M  V30 8503 H 357.129 5.30492 -4.44033 0
M  V30 8504 H 356.261 4.55889 -6.76652 0
M  V30 8505 P 352.298 4.23843 -7.83734 0
M  V30 8506 O 352.078 4.19407 -9.29784 0
M  V30 8507 O 351.508 5.24426 -7.09156 0
M  V30 8508 O 352.048 2.7935 -7.20758 0
M  V30 8509 C 352.988 1.7299 -7.50419 0
M  V30 8510 C 352.258 0.406376 -7.57911 0
M  V30 8511 O 352.048 -0.0897726 -6.21935 0
M  V30 8512 C 350.858 0.447224 -8.1878 0
M  V30 8513 O 350.468 -0.825065 -8.71101 0
M  V30 8514 C 349.978 0.783801 -6.99623 0
M  V30 8515 C 350.688 0.0619192 -5.85967 0
M  V30 8516 N 350.638 0.790462 -4.56202 0
M  V30 8517 H 353.477 1.93423 -8.4679 0
M  V30 8518 H 353.749 1.68852 -6.70877 0
M  V30 8519 H 352.881 -0.289041 -8.15388 0
M  V30 8520 H 350.226 -0.927006 -5.72848 0
M  V30 8521 H 349.946 1.86973 -6.82036 0
M  V30 8522 H 348.955 0.403953 -7.13357 0
M  V30 8523 H 350.789 1.20599 -8.97534 0
M  V30 8524 P 348.918 -1.17771 -8.83182 0
M  V30 8525 O 348.698 -2.07206 -9.98732 0
M  V30 8526 O 348.128 0.0743816 -8.81969 0
M  V30 8527 O 348.668 -1.97678 -7.474 0
M  V30 8528 C 349.608 -3.01133 -7.08783 0
M  V30 8529 C 348.878 -4.1203 -6.37546 0
M  V30 8530 O 348.668 -3.72887 -4.9796 0
M  V30 8531 C 347.478 -4.45085 -6.88694 0
M  V30 8532 O 347.088 -5.78836 -6.56315 0
M  V30 8533 C 346.598 -3.47817 -6.12078 0
M  V30 8534 C 347.308 -3.39414 -4.77697 0
M  V30 8535 N 347.258 -2.04615 -4.15333 0
M  V30 8536 C 347.108 -1.96929 -2.77162 0
M  V30 8537 O 347.018 -3.02017 -2.12006 0
M  V30 8538 N 347.058 -0.55485 -2.24237 0
M  V30 8539 C 347.158 0.367808 -2.9169 0
M  V30 8540 N 347.108 1.53426 -2.29427 0
M  V30 8541 C 347.308 0.319148 -4.33828 0
M  V30 8542 C 347.358 -0.920672 -4.90433 0
M  V30 8543 H 350.098 -3.41209 -7.98667 0
M  V30 8544 H 350.368 -2.5837 -6.41742 0
M  V30 8545 H 349.501 -5.02718 -6.42752 0
M  V30 8546 H 346.846 -4.11779 -4.09026 0
M  V30 8547 H 346.566 -2.49661 -6.61772 0
M  V30 8548 H 345.575 -3.86674 -6.00946 0
M  V30 8549 H 347.409 -4.29991 -7.97006 0
M  V30 8550 H 347.481 -1.00589 -5.98303 0
M  V30 8551 H 347.379 1.22639 -4.93799 0
M  V30 8552 H 346.991 1.56819 -1.27167 0
M  V30 8553 H 347.187 2.41062 -2.83063 0
M  V30 8554 P 345.538 -6.144 -6.45285 0
M  V30 8555 O 345.318 -7.54673 -6.86199 0
M  V30 8556 O 344.748 -5.12391 -7.179 0
M  V30 8557 O 345.288 -5.99158 -4.88404 0
M  V30 8558 C 346.228 -6.60234 -3.96415 0
M  V30 8559 C 345.498 -7.08259 -2.72856 0
M  V30 8560 O 345.288 -5.9427 -1.83651 0
M  V30 8561 C 344.098 -7.64886 -2.9555 0
M  V30 8562 O 343.708 -8.53963 -1.90717 0
M  V30 8563 C 343.218 -6.4116 -2.90739 0
M  V30 8564 C 343.928 -5.55375 -1.86963 0
M  V30 8565 N 343.878 -4.09448 -2.16152 0
M  V30 8566 C 343.958 -3.46824 -3.37593 0
M  V30 8567 N 343.888 -2.17422 -3.29777 0
M  V30 8568 C 343.738 -1.93065 -1.94427 0
M  V30 8569 C 343.608 -0.738053 -1.20141 0
M  V30 8570 N 343.598 0.474256 -1.74676 0
M  V30 8571 N 343.488 -0.850049 0.13045 0
M  V30 8572 C 343.498 -2.06169 0.676992 0
M  V30 8573 N 343.618 -3.23842 0.101312 0
M  V30 8574 C 343.738 -3.09402 -1.23122 0
M  V30 8575 H 346.717 -7.45574 -4.45629 0
M  V30 8576 H 346.989 -5.85864 -3.679 0
M  V30 8577 H 346.121 -7.84412 -2.24479 0
M  V30 8578 H 343.466 -5.73457 -0.888562 0
M  V30 8579 H 343.186 -5.90877 -3.88583 0
M  V30 8580 H 342.195 -6.6596 -2.58858 0
M  V30 8581 H 344.029 -8.16339 -3.92049 0
M  V30 8582 H 344.07 -4.00505 -4.3174 0
M  V30 8583 H 343.689 0.581337 -2.76658 0
M  V30 8584 H 343.5 1.30811 -1.14888 0
M  V30 8585 H 343.392 -2.08295 1.75542 0
M  V30 8586 P 342.158 -8.7635 -1.60911 0
M  V30 8587 O 341.938 -10.1388 -1.11561 0
M  V30 8588 O 341.368 -8.36503 -2.79617 0
M  V30 8589 O 341.908 -7.71806 -0.42951 0
M  V30 8590 C 342.848 -7.67148 0.673689 0
M  V30 8591 C 342.118 -7.33374 1.95559 0
M  V30 8592 O 341.908 -5.88721 2.00726 0
M  V30 8593 C 340.718 -7.92526 2.10483 0
M  V30 8594 O 340.328 -8.02971 3.47653 0
M  V30 8595 C 339.838 -6.89602 1.41652 0
M  V30 8596 C 340.548 -5.59201 1.75185 0
M  V30 8597 N 340.498 -4.58235 0.662552 0
M  V30 8598 H 343.337 -8.65116 0.777161 0
M  V30 8599 H 343.609 -6.90173 0.474152 0
M  V30 8600 H 342.741 -7.66548 2.79458 0
M  V30 8601 P 338.778 -8.03563 3.84925 0
M  V30 8602 O 338.558 -8.85821 5.0569 0
M  V30 8603 O 337.988 -8.41101 2.65469 0
M  V30 8604 O 338.528 -6.4965 4.18908 0
M  V30 8605 C 339.468 -5.81037 5.05421 0
M  V30 8606 C 338.738 -4.78366 5.89277 0
M  V30 8607 O 338.528 -3.58302 5.08433 0
M  V30 8608 C 337.338 -5.17448 6.36119 0
M  V30 8609 O 336.948 -4.45271 7.53232 0
M  V30 8610 C 336.458 -4.74639 5.19936 0
M  V30 8611 C 337.168 -3.49432 4.70418 0
M  V30 8612 N 337.118 -3.31776 3.22945 0
M  V30 8613 H 339.957 -6.54213 5.71376 0
M  V30 8614 H 340.229 -5.30492 4.44033 0
M  V30 8615 H 339.361 -4.55889 6.76652 0
M  V30 8616 P 335.398 -4.23843 7.83734 0
M  V30 8617 O 335.178 -4.19407 9.29784 0
M  V30 8618 O 334.608 -5.24426 7.09156 0
M  V30 8619 O 335.148 -2.7935 7.20758 0
M  V30 8620 C 336.088 -1.7299 7.50419 0
M  V30 8621 C 335.358 -0.406376 7.57911 0
M  V30 8622 O 335.148 0.0897726 6.21935 0
M  V30 8623 C 333.958 -0.447224 8.1878 0
M  V30 8624 O 333.568 0.825065 8.71101 0
M  V30 8625 C 333.078 -0.783801 6.99623 0
M  V30 8626 C 333.788 -0.0619192 5.85967 0
M  V30 8627 N 333.738 -0.7859 4.56281 0
M  V30 8628 H 336.577 -1.93423 8.4679 0
M  V30 8629 H 336.849 -1.68181 6.71046 0
M  V30 8630 H 335.981 0.289041 8.15388 0
M  V30 8631 P 332.018 1.17771 8.83182 0
M  V30 8632 O 331.798 2.07206 9.98732 0
M  V30 8633 O 331.228 -0.0743816 8.81969 0
M  V30 8634 O 331.768 1.97652 7.47304 0
M  V30 8635 C 332.708 3.01133 7.08783 0
M  V30 8636 C 331.978 4.12613 6.37049 0
M  V30 8637 O 331.768 3.72827 4.97879 0
M  V30 8638 C 330.578 4.45085 6.88694 0
M  V30 8639 O 330.188 5.7877 6.5624 0
M  V30 8640 C 329.698 3.47817 6.12078 0
M  V30 8641 C 330.408 3.39414 4.77697 0
M  V30 8642 N 330.358 2.04615 4.15333 0
M  V30 8643 H 333.197 3.41248 7.98759 0
M  V30 8644 H 333.469 2.5837 6.41742 0
M  V30 8645 H 332.601 5.02657 6.42673 0
M  V30 8646 P 328.638 6.144 6.45285 0
M  V30 8647 O 328.418 7.54673 6.86199 0
M  V30 8648 O 327.848 5.12391 7.179 0
M  V30 8649 O 328.388 5.99236 4.88467 0
M  V30 8650 C 329.328 6.60234 3.96415 0
M  V30 8651 C 328.598 7.08079 2.736 0
M  V30 8652 O 328.388 5.94365 1.8368 0
M  V30 8653 C 327.198 7.64886 2.9555 0
M  V30 8654 O 326.808 8.5406 1.90739 0
M  V30 8655 C 326.318 6.4116 2.90739 0
M  V30 8656 C 327.028 5.55375 1.86963 0
M  V30 8657 N 326.978 4.09664 2.15742 0
M  V30 8658 C 326.828 3.22231 1.08477 0
M  V30 8659 O 326.738 3.68951 -0.0600489 0
M  V30 8660 N 326.778 1.76692 1.48799 0
M  V30 8661 C 326.878 1.41695 2.57602 0
M  V30 8662 N 326.828 0.107296 2.75791 0
M  V30 8663 C 327.028 2.29178 3.69733 0
M  V30 8664 C 327.078 3.62753 3.42653 0
M  V30 8665 H 329.818 7.45488 4.45578 0
M  V30 8666 H 330.088 5.86232 3.67314 0
M  V30 8667 H 329.221 7.84508 2.24507 0
M  V30 8668 H 326.566 5.73556 0.888715 0
M  V30 8669 H 326.286 5.9096 3.88638 0
M  V30 8670 H 325.295 6.66053 2.58894 0
M  V30 8671 H 327.129 8.16339 3.92049 0
M  V30 8672 H 327.201 4.33052 4.24913 0
M  V30 8673 H 327.099 1.9103 4.71577 0
M  V30 8674 H 326.711 -0.521221 1.95056 0
M  V30 8675 H 326.907 -0.286429 3.70695 0
M  V30 8676 P 325.258 8.7635 1.60911 0
M  V30 8677 O 325.038 10.1388 1.11561 0
M  V30 8678 O 324.468 8.36503 2.79617 0
M  V30 8679 O 325.008 7.71806 0.42951 0
M  V30 8680 C 325.948 7.67148 -0.673689 0
M  V30 8681 C 325.218 7.33374 -1.95559 0
M  V30 8682 O 325.008 5.88721 -2.00726 0
M  V30 8683 C 323.818 7.92526 -2.10483 0
M  V30 8684 O 323.428 8.02971 -3.47653 0
M  V30 8685 C 322.938 6.89602 -1.41652 0
M  V30 8686 C 323.648 5.59201 -1.75185 0
M  V30 8687 N 323.598 4.58235 -0.662552 0
M  V30 8688 H 326.437 8.65116 -0.777161 0
M  V30 8689 H 326.709 6.90173 -0.474152 0
M  V30 8690 H 325.841 7.66548 -2.79458 0
M  V30 8691 P 321.878 8.03563 -3.84925 0
M  V30 8692 O 321.658 8.85821 -5.0569 0
M  V30 8693 O 321.088 8.41101 -2.65469 0
M  V30 8694 O 321.628 6.4965 -4.18908 0
M  V30 8695 C 322.568 5.81037 -5.05421 0
M  V30 8696 C 321.838 4.78366 -5.89277 0
M  V30 8697 O 321.628 3.58302 -5.08433 0
M  V30 8698 C 320.438 5.17448 -6.36119 0
M  V30 8699 O 320.048 4.45271 -7.53232 0
M  V30 8700 C 319.558 4.74639 -5.19936 0
M  V30 8701 C 320.268 3.49432 -4.70418 0
M  V30 8702 N 320.218 3.32099 -3.22613 0
M  V30 8703 H 323.057 6.54213 -5.71376 0
M  V30 8704 H 323.329 5.30936 -4.43503 0
M  V30 8705 H 322.461 4.55889 -6.76652 0
M  V30 8706 H 319.806 2.61715 -5.17932 0
M  V30 8707 H 319.526 5.52155 -4.41878 0
M  V30 8708 H 318.535 4.51981 -5.53374 0
M  V30 8709 H 320.369 6.25124 -6.55234 0
M  V30 8710 P 318.498 4.23843 -7.83734 0
M  V30 8711 O 318.278 4.19407 -9.29784 0
M  V30 8712 O 317.708 5.24426 -7.09156 0
M  V30 8713 O 318.248 2.7935 -7.20758 0
M  V30 8714 C 319.188 1.7299 -7.50419 0
M  V30 8715 C 318.458 0.406376 -7.57911 0
M  V30 8716 O 318.248 -0.0897726 -6.21935 0
M  V30 8717 C 317.058 0.447224 -8.1878 0
M  V30 8718 O 316.668 -0.825065 -8.71101 0
M  V30 8719 C 316.178 0.783801 -6.99623 0
M  V30 8720 C 316.888 0.0619192 -5.85967 0
M  V30 8721 N 316.838 0.790462 -4.56202 0
M  V30 8722 C 316.918 2.13895 -4.34171 0
M  V30 8723 N 316.848 2.46449 -3.08687 0
M  V30 8724 C 316.698 1.2525 -2.43697 0
M  V30 8725 C 316.568 0.914535 -1.07318 0
M  V30 8726 N 316.558 1.80782 -0.0887348 0
M  V30 8727 N 316.448 -0.386745 -0.768133 0
M  V30 8728 C 316.458 -1.28096 -1.75159 0
M  V30 8729 N 316.578 -1.09708 -3.04861 0
M  V30 8730 C 316.698 0.214857 -3.32306 0
M  V30 8731 H 319.677 1.93423 -8.4679 0
M  V30 8732 H 319.949 1.68852 -6.70877 0
M  V30 8733 H 319.081 -0.289041 -8.15388 0
M  V30 8734 H 316.426 -0.927006 -5.72848 0
M  V30 8735 H 316.146 1.86973 -6.82036 0
M  V30 8736 H 315.155 0.403953 -7.13357 0
M  V30 8737 H 316.989 1.20599 -8.97534 0
M  V30 8738 H 317.03 2.86846 -5.14318 0
M  V30 8739 H 316.649 2.81082 -0.302037 0
M  V30 8740 H 316.46 1.49688 0.889064 0
M  V30 8741 H 316.352 -2.31317 -1.43855 0
M  V30 8742 P 315.118 -1.17771 -8.83182 0
M  V30 8743 O 314.898 -2.07206 -9.98732 0
M  V30 8744 O 314.328 0.0743816 -8.81969 0
M  V30 8745 O 314.868 -1.97652 -7.47304 0
M  V30 8746 C 315.808 -3.01133 -7.08783 0
M  V30 8747 C 315.078 -4.12613 -6.37049 0
M  V30 8748 O 314.868 -3.72827 -4.97879 0
M  V30 8749 C 313.678 -4.45085 -6.88694 0
M  V30 8750 O 313.288 -5.7877 -6.5624 0
M  V30 8751 C 312.798 -3.47817 -6.12078 0
M  V30 8752 C 313.508 -3.39414 -4.77697 0
M  V30 8753 N 313.458 -2.04615 -4.15333 0
M  V30 8754 H 316.297 -3.41248 -7.98759 0
M  V30 8755 H 316.569 -2.5837 -6.41742 0
M  V30 8756 H 315.701 -5.02657 -6.42673 0
M  V30 8757 P 311.738 -6.144 -6.45285 0
M  V30 8758 O 311.518 -7.54673 -6.86199 0
M  V30 8759 O 310.948 -5.12391 -7.179 0
M  V30 8760 O 311.488 -5.99158 -4.88404 0
M  V30 8761 C 312.428 -6.60234 -3.96415 0
M  V30 8762 C 311.698 -7.08259 -2.72856 0
M  V30 8763 O 311.488 -5.9427 -1.83651 0
M  V30 8764 C 310.298 -7.64886 -2.9555 0
M  V30 8765 O 309.908 -8.53963 -1.90717 0
M  V30 8766 C 309.418 -6.4116 -2.90739 0
M  V30 8767 C 310.128 -5.55375 -1.86963 0
M  V30 8768 N 310.078 -4.09664 -2.15742 0
M  V30 8769 H 312.917 -7.45574 -4.45629 0
M  V30 8770 H 313.189 -5.86232 -3.67314 0
M  V30 8771 H 312.321 -7.84412 -2.24479 0
M  V30 8772 P 308.358 -8.7635 -1.60911 0
M  V30 8773 O 308.138 -10.1388 -1.11561 0
M  V30 8774 O 307.568 -8.36503 -2.79617 0
M  V30 8775 O 308.108 -7.71806 -0.42951 0
M  V30 8776 C 309.048 -7.67148 0.673689 0
M  V30 8777 C 308.318 -7.33374 1.95559 0
M  V30 8778 O 308.108 -5.88721 2.00726 0
M  V30 8779 C 306.918 -7.92526 2.10483 0
M  V30 8780 O 306.528 -8.02971 3.47653 0
M  V30 8781 C 306.038 -6.89602 1.41652 0
M  V30 8782 C 306.748 -5.59201 1.75185 0
M  V30 8783 N 306.698 -4.58235 0.662552 0
M  V30 8784 H 309.537 -8.65116 0.777161 0
M  V30 8785 H 309.809 -6.90173 0.474152 0
M  V30 8786 H 308.941 -7.66548 2.79458 0
M  V30 8787 P 304.978 -8.03563 3.84925 0
M  V30 8788 O 304.758 -8.85821 5.0569 0
M  V30 8789 O 304.188 -8.41101 2.65469 0
M  V30 8790 O 304.728 -6.4965 4.18908 0
M  V30 8791 C 305.668 -5.81037 5.05421 0
M  V30 8792 C 304.938 -4.78366 5.89277 0
M  V30 8793 O 304.728 -3.58302 5.08433 0
M  V30 8794 C 303.538 -5.17448 6.36119 0
M  V30 8795 O 303.148 -4.45271 7.53232 0
M  V30 8796 C 302.658 -4.74639 5.19936 0
M  V30 8797 C 303.368 -3.49432 4.70418 0
M  V30 8798 N 303.318 -3.31776 3.22945 0
M  V30 8799 H 306.157 -6.54213 5.71376 0
M  V30 8800 H 306.429 -5.30492 4.44033 0
M  V30 8801 H 305.561 -4.55889 6.76652 0
M  V30 8802 P 301.598 -4.23843 7.83734 0
M  V30 8803 O 301.378 -4.19407 9.29784 0
M  V30 8804 O 300.808 -5.24426 7.09156 0
M  V30 8805 O 301.348 -2.7935 7.20758 0
M  V30 8806 C 302.288 -1.7299 7.50419 0
M  V30 8807 C 301.558 -0.406376 7.57911 0
M  V30 8808 O 301.348 0.0897726 6.21935 0
M  V30 8809 C 300.158 -0.447224 8.1878 0
M  V30 8810 O 299.768 0.825065 8.71101 0
M  V30 8811 C 299.278 -0.783801 6.99623 0
M  V30 8812 C 299.988 -0.0619192 5.85967 0
M  V30 8813 N 299.938 -0.7859 4.56281 0
M  V30 8814 H 302.777 -1.93423 8.4679 0
M  V30 8815 H 303.049 -1.68181 6.71046 0
M  V30 8816 H 302.181 0.289041 8.15388 0
M  V30 8817 P 298.218 1.17771 8.83182 0
M  V30 8818 O 297.998 2.07206 9.98732 0
M  V30 8819 O 297.428 -0.0743816 8.81969 0
M  V30 8820 O 297.968 1.97652 7.47304 0
M  V30 8821 C 298.908 3.01133 7.08783 0
M  V30 8822 C 298.178 4.12613 6.37049 0
M  V30 8823 O 297.968 3.72827 4.97879 0
M  V30 8824 C 296.778 4.45085 6.88694 0
M  V30 8825 O 296.388 5.7877 6.5624 0
M  V30 8826 C 295.898 3.47817 6.12078 0
M  V30 8827 C 296.608 3.39414 4.77697 0
M  V30 8828 N 296.558 2.04199 4.15538 0
M  V30 8829 H 299.397 3.41248 7.98759 0
M  V30 8830 H 299.669 2.57728 6.42 0
M  V30 8831 H 298.801 5.02657 6.42673 0
M  V30 8832 H 296.146 4.11708 4.08956 0
M  V30 8833 H 295.866 2.49626 6.61679 0
M  V30 8834 H 294.875 3.8662 6.00862 0
M  V30 8835 H 296.709 4.29991 7.97006 0
M  V30 8836 P 294.838 6.144 6.45285 0
M  V30 8837 O 294.618 7.54673 6.86199 0
M  V30 8838 O 294.048 5.12391 7.179 0
M  V30 8839 O 294.588 5.99158 4.88404 0
M  V30 8840 C 295.528 6.60234 3.96415 0
M  V30 8841 C 294.798 7.08259 2.72856 0
M  V30 8842 O 294.588 5.9427 1.83651 0
M  V30 8843 C 293.398 7.64886 2.9555 0
M  V30 8844 O 293.008 8.53963 1.90717 0
M  V30 8845 C 292.518 6.4116 2.90739 0
M  V30 8846 C 293.228 5.55375 1.86963 0
M  V30 8847 N 293.178 4.09664 2.15742 0
M  V30 8848 H 296.017 7.45574 4.45629 0
M  V30 8849 H 296.289 5.86232 3.67314 0
M  V30 8850 H 295.421 7.84412 2.24479 0
M  V30 8851 P 291.458 8.7635 1.60911 0
M  V30 8852 O 291.238 10.1388 1.11561 0
M  V30 8853 O 290.668 8.36503 2.79617 0
M  V30 8854 O 291.208 7.71806 0.42951 0
M  V30 8855 C 292.148 7.67148 -0.673689 0
M  V30 8856 C 291.418 7.33374 -1.95559 0
M  V30 8857 O 291.208 5.88721 -2.00726 0
M  V30 8858 C 290.018 7.92526 -2.10483 0
M  V30 8859 O 289.628 8.02971 -3.47653 0
M  V30 8860 C 289.138 6.89602 -1.41652 0
M  V30 8861 C 289.848 5.59201 -1.75185 0
M  V30 8862 N 289.798 4.58235 -0.662552 0
M  V30 8863 H 292.637 8.65116 -0.777161 0
M  V30 8864 H 292.909 6.90173 -0.474152 0
M  V30 8865 H 292.041 7.66548 -2.79458 0
M  V30 8866 P 288.078 8.03563 -3.84925 0
M  V30 8867 O 287.858 8.85821 -5.0569 0
M  V30 8868 O 287.288 8.41101 -2.65469 0
M  V30 8869 O 287.828 6.4965 -4.18908 0
M  V30 8870 C 288.768 5.81037 -5.05421 0
M  V30 8871 C 288.038 4.78366 -5.89277 0
M  V30 8872 O 287.828 3.58302 -5.08433 0
M  V30 8873 C 286.638 5.17448 -6.36119 0
M  V30 8874 O 286.248 4.45271 -7.53232 0
M  V30 8875 C 285.758 4.74639 -5.19936 0
M  V30 8876 C 286.468 3.49432 -4.70418 0
M  V30 8877 N 286.418 3.31776 -3.22945 0
M  V30 8878 H 289.257 6.54213 -5.71376 0
M  V30 8879 H 289.529 5.30492 -4.44033 0
M  V30 8880 H 288.661 4.55889 -6.76652 0
M  V30 8881 P 284.698 4.23843 -7.83734 0
M  V30 8882 O 284.478 4.19407 -9.29784 0
M  V30 8883 O 283.908 5.24426 -7.09156 0
M  V30 8884 O 284.448 2.7935 -7.20758 0
M  V30 8885 C 285.388 1.7299 -7.50419 0
M  V30 8886 C 284.658 0.406376 -7.57911 0
M  V30 8887 O 284.448 -0.0897726 -6.21935 0
M  V30 8888 C 283.258 0.447224 -8.1878 0
M  V30 8889 O 282.868 -0.825065 -8.71101 0
M  V30 8890 C 282.378 0.783801 -6.99623 0
M  V30 8891 C 283.088 0.0619192 -5.85967 0
M  V30 8892 N 283.038 0.790462 -4.56202 0
M  V30 8893 H 285.877 1.93423 -8.4679 0
M  V30 8894 H 286.149 1.68852 -6.70877 0
M  V30 8895 H 285.281 -0.289041 -8.15388 0
M  V30 8896 H 282.626 -0.927006 -5.72848 0
M  V30 8897 H 282.346 1.86973 -6.82036 0
M  V30 8898 H 281.355 0.403953 -7.13357 0
M  V30 8899 H 283.189 1.20599 -8.97534 0
M  V30 8900 P 281.318 -1.17771 -8.83182 0
M  V30 8901 O 281.098 -2.07206 -9.98732 0
M  V30 8902 O 280.528 0.0743816 -8.81969 0
M  V30 8903 O 281.068 -1.97652 -7.47304 0
M  V30 8904 C 282.008 -3.01133 -7.08783 0
M  V30 8905 C 281.278 -4.12613 -6.37049 0
M  V30 8906 O 281.068 -3.72827 -4.97879 0
M  V30 8907 C 279.878 -4.45085 -6.88694 0
M  V30 8908 O 279.488 -5.7877 -6.5624 0
M  V30 8909 C 278.998 -3.47817 -6.12078 0
M  V30 8910 C 279.708 -3.39414 -4.77697 0
M  V30 8911 N 279.658 -2.04615 -4.15333 0
M  V30 8912 H 282.497 -3.41248 -7.98759 0
M  V30 8913 H 282.769 -2.5837 -6.41742 0
M  V30 8914 H 281.901 -5.02657 -6.42673 0
M  V30 8915 P 277.938 -6.144 -6.45285 0
M  V30 8916 O 277.718 -7.54673 -6.86199 0
M  V30 8917 O 277.148 -5.12391 -7.179 0
M  V30 8918 O 277.688 -5.99158 -4.88404 0
M  V30 8919 C 278.628 -6.60062 -3.96313 0
M  V30 8920 C 277.898 -7.08259 -2.72856 0
M  V30 8921 O 277.688 -5.9427 -1.83651 0
M  V30 8922 C 276.498 -7.65087 -2.94749 0
M  V30 8923 O 276.108 -8.53963 -1.90717 0
M  V30 8924 C 275.618 -6.41069 -2.90698 0
M  V30 8925 C 276.328 -5.5528 -1.86931 0
M  V30 8926 N 276.278 -4.09575 -2.15696 0
M  V30 8927 C 276.128 -3.24249 -1.08435 0
M  V30 8928 O 276.038 -3.63946 0.0628747 0
M  V30 8929 N 276.088 -1.90009 -1.39973 0
M  V30 8930 C 276.178 -1.34884 -2.65614 0
M  V30 8931 C 276.328 -2.3145 -3.71736 0
M  V30 8932 C 276.378 -3.63518 -3.44754 0
M  V30 8933 H 279.119 -7.45402 -4.45526 0
M  V30 8934 H 279.388 -5.86062 -3.67208 0
M  V30 8935 H 278.521 -7.84412 -2.24479 0
M  V30 8936 H 275.866 -5.73358 -0.888409 0
M  V30 8937 H 275.587 -5.90877 -3.88583 0
M  V30 8938 H 274.595 -6.65867 -2.58821 0
M  V30 8939 H 276.429 -8.16248 -3.92006 0
M  V30 8940 H 276.5 -4.34551 -4.26383 0
M  V30 8941 P 274.558 -8.7635 -1.60911 0
M  V30 8942 O 274.338 -10.1388 -1.11561 0
M  V30 8943 O 273.768 -8.36503 -2.79617 0
M  V30 8944 O 274.308 -7.71806 -0.42951 0
M  V30 8945 C 275.248 -7.67148 0.673689 0
M  V30 8946 C 274.518 -7.33374 1.95559 0
M  V30 8947 O 274.308 -5.88721 2.00726 0
M  V30 8948 C 273.118 -7.92526 2.10483 0
M  V30 8949 O 272.728 -8.02971 3.47653 0
M  V30 8950 C 272.238 -6.89602 1.41652 0
M  V30 8951 C 272.948 -5.59201 1.75185 0
M  V30 8952 N 272.898 -4.58301 0.657969 0
M  V30 8953 C 272.978 -4.79019 -0.692603 0
M  V30 8954 N 272.908 -3.69736 -1.38998 0
M  V30 8955 C 272.758 -2.70474 -0.438135 0
M  V30 8956 C 272.628 -1.30327 -0.538142 0
M  V30 8957 N 272.618 -0.64304 -1.69192 0
M  V30 8958 N 272.508 -0.611027 0.605183 0
M  V30 8959 C 272.518 -1.27002 1.75953 0
M  V30 8960 N 272.638 -2.56038 1.98546 0
M  V30 8961 C 272.758 -3.22681 0.822541 0
M  V30 8962 H 275.737 -8.65116 0.777161 0
M  V30 8963 H 276.009 -6.9022 0.46725 0
M  V30 8964 H 275.141 -7.66548 2.79458 0
M  V30 8965 H 272.486 -5.16165 2.65183 0
M  V30 8966 H 272.206 -7.06433 0.329384 0
M  V30 8967 H 271.215 -6.90926 1.82021 0
M  V30 8968 H 273.049 -8.90873 1.62657 0
M  V30 8969 H 273.09 -5.77785 -1.13874 0
M  V30 8970 H 272.709 -1.15585 -2.57991 0
M  V30 8971 H 272.52 0.382989 -1.69835 0
M  V30 8972 H 272.412 -0.653331 2.64449 0
M  V30 8973 P 271.178 -8.03563 3.84925 0
M  V30 8974 O 270.958 -8.85821 5.0569 0
M  V30 8975 O 270.388 -8.41101 2.65469 0
M  V30 8976 O 270.928 -6.4965 4.18908 0
M  V30 8977 C 271.868 -5.81037 5.05421 0
M  V30 8978 C 271.138 -4.78366 5.89277 0
M  V30 8979 O 270.928 -3.58302 5.08433 0
M  V30 8980 C 269.738 -5.17448 6.36119 0
M  V30 8981 O 269.348 -4.45271 7.53232 0
M  V30 8982 C 268.858 -4.74639 5.19936 0
M  V30 8983 C 269.568 -3.49432 4.70418 0
M  V30 8984 N 269.518 -3.31776 3.22945 0
M  V30 8985 H 272.357 -6.54213 5.71376 0
M  V30 8986 H 272.629 -5.30492 4.44033 0
M  V30 8987 H 271.761 -4.55889 6.76652 0
M  V30 8988 P 267.798 -4.23843 7.83734 0
M  V30 8989 O 267.578 -4.19407 9.29784 0
M  V30 8990 O 267.008 -5.24426 7.09156 0
M  V30 8991 O 267.548 -2.7935 7.20758 0
M  V30 8992 C 268.488 -1.7299 7.50419 0
M  V30 8993 C 267.758 -0.406376 7.57911 0
M  V30 8994 O 267.548 0.0897726 6.21935 0
M  V30 8995 C 266.358 -0.447224 8.1878 0
M  V30 8996 O 265.968 0.825065 8.71101 0
M  V30 8997 C 265.478 -0.783801 6.99623 0
M  V30 8998 C 266.188 -0.0619192 5.85967 0
M  V30 8999 N 266.138 -0.7859 4.56281 0
M  V30 9000 H 268.977 -1.93423 8.4679 0
M  V30 9001 H 269.249 -1.68181 6.71046 0
M  V30 9002 H 268.381 0.289041 8.15388 0
M  V30 9003 P 264.418 1.17771 8.83182 0
M  V30 9004 O 264.198 2.07206 9.98732 0
M  V30 9005 O 263.628 -0.0743816 8.81969 0
M  V30 9006 O 264.168 1.97652 7.47304 0
M  V30 9007 C 265.108 3.01133 7.08783 0
M  V30 9008 C 264.378 4.12613 6.37049 0
M  V30 9009 O 264.168 3.72827 4.97879 0
M  V30 9010 C 262.978 4.45085 6.88694 0
M  V30 9011 O 262.588 5.7877 6.5624 0
M  V30 9012 C 262.098 3.47817 6.12078 0
M  V30 9013 C 262.808 3.39414 4.77697 0
M  V30 9014 N 262.758 2.04199 4.15538 0
M  V30 9015 H 265.597 3.41248 7.98759 0
M  V30 9016 H 265.869 2.57728 6.42 0
M  V30 9017 H 265.001 5.02657 6.42673 0
M  V30 9018 H 262.346 4.11708 4.08956 0
M  V30 9019 H 262.066 2.49626 6.61679 0
M  V30 9020 H 261.075 3.8662 6.00862 0
M  V30 9021 H 262.909 4.29991 7.97006 0
M  V30 9022 P 261.038 6.144 6.45285 0
M  V30 9023 O 260.818 7.54673 6.86199 0
M  V30 9024 O 260.248 5.12391 7.179 0
M  V30 9025 O 260.788 5.99158 4.88404 0
M  V30 9026 C 261.728 6.60234 3.96415 0
M  V30 9027 C 260.998 7.08259 2.72856 0
M  V30 9028 O 260.788 5.9427 1.83651 0
M  V30 9029 C 259.598 7.64886 2.9555 0
M  V30 9030 O 259.208 8.53963 1.90717 0
M  V30 9031 C 258.718 6.4116 2.90739 0
M  V30 9032 C 259.428 5.55375 1.86963 0
M  V30 9033 N 259.378 4.09664 2.15742 0
M  V30 9034 H 262.217 7.45574 4.45629 0
M  V30 9035 H 262.489 5.86232 3.67314 0
M  V30 9036 H 261.621 7.84412 2.24479 0
M  V30 9037 P 257.658 8.7635 1.60911 0
M  V30 9038 O 257.438 10.1388 1.11561 0
M  V30 9039 O 256.868 8.36503 2.79617 0
M  V30 9040 O 257.408 7.71806 0.42951 0
M  V30 9041 C 258.348 7.67148 -0.673689 0
M  V30 9042 C 257.618 7.33374 -1.95559 0
M  V30 9043 O 257.408 5.88721 -2.00726 0
M  V30 9044 C 256.218 7.92526 -2.10483 0
M  V30 9045 O 255.828 8.02971 -3.47653 0
M  V30 9046 C 255.338 6.89602 -1.41652 0
M  V30 9047 C 256.048 5.59201 -1.75185 0
M  V30 9048 N 255.998 4.58235 -0.662552 0
M  V30 9049 H 258.837 8.65116 -0.777161 0
M  V30 9050 H 259.109 6.90173 -0.474152 0
M  V30 9051 H 258.241 7.66548 -2.79458 0
M  V30 9052 P 254.279 8.03563 -3.84925 0
M  V30 9053 O 254.059 8.85821 -5.0569 0
M  V30 9054 O 253.489 8.41101 -2.65469 0
M  V30 9055 O 254.029 6.4965 -4.18908 0
M  V30 9056 C 254.969 5.81037 -5.05421 0
M  V30 9057 C 254.239 4.78366 -5.89277 0
M  V30 9058 O 254.029 3.58302 -5.08433 0
M  V30 9059 C 252.839 5.17448 -6.36119 0
M  V30 9060 O 252.449 4.45271 -7.53232 0
M  V30 9061 C 251.959 4.74639 -5.19936 0
M  V30 9062 C 252.669 3.49432 -4.70418 0
M  V30 9063 N 252.619 3.31776 -3.22945 0
M  V30 9064 C 252.699 4.27147 -2.23315 0
M  V30 9065 N 252.619 3.78447 -1.02186 0
M  V30 9066 C 252.479 2.41001 -1.21732 0
M  V30 9067 C 252.349 1.36111 -0.27694 0
M  V30 9068 O 252.329 1.42065 0.951767 0
M  V30 9069 N 252.229 0.113683 -0.912949 0
M  V30 9070 C 252.229 -0.0846396 -2.27943 0
M  V30 9071 N 252.099 -1.34737 -2.6916 0
M  V30 9072 N 252.359 0.902521 -3.16379 0
M  V30 9073 C 252.479 2.11937 -2.56849 0
M  V30 9074 H 255.458 6.54213 -5.71376 0
M  V30 9075 H 255.73 5.30492 -4.44033 0
M  V30 9076 H 254.862 4.55889 -6.76652 0
M  V30 9077 H 252.207 2.6176 -5.18021 0
M  V30 9078 H 251.927 5.52233 -4.41941 0
M  V30 9079 H 250.936 4.52045 -5.53452 0
M  V30 9080 H 252.77 6.25193 -6.55307 0
M  V30 9081 H 252.819 5.3351 -2.43857 0
M  V30 9082 H 252.137 -0.69331 -0.330371 0
M  V30 9083 H 252.1 -1.56433 -3.6988 0
M  V30 9084 H 251.999 -2.10701 -2.00133 0
M  V30 9085 P 250.899 4.23843 -7.83734 0
M  V30 9086 O 250.679 4.19407 -9.29784 0
M  V30 9087 O 250.109 5.24426 -7.09156 0
M  V30 9088 O 250.649 2.7935 -7.20758 0
M  V30 9089 C 251.589 1.7299 -7.50419 0
M  V30 9090 C 250.859 0.406376 -7.57911 0
M  V30 9091 O 250.649 -0.0897726 -6.21935 0
M  V30 9092 C 249.459 0.447224 -8.1878 0
M  V30 9093 O 249.069 -0.825065 -8.71101 0
M  V30 9094 C 248.579 0.783801 -6.99623 0
M  V30 9095 C 249.289 0.0619192 -5.85967 0
M  V30 9096 N 249.239 0.7859 -4.56281 0
M  V30 9097 H 252.078 1.93423 -8.4679 0
M  V30 9098 H 252.35 1.68181 -6.71046 0
M  V30 9099 H 251.482 -0.289041 -8.15388 0
M  V30 9100 P 247.519 -1.17771 -8.83182 0
M  V30 9101 O 247.299 -2.07206 -9.98732 0
M  V30 9102 O 246.729 0.0743816 -8.81969 0
M  V30 9103 O 247.269 -1.97652 -7.47304 0
M  V30 9104 C 248.209 -3.01133 -7.08783 0
M  V30 9105 C 247.479 -4.12613 -6.37049 0
M  V30 9106 O 247.269 -3.72827 -4.97879 0
M  V30 9107 C 246.079 -4.45085 -6.88694 0
M  V30 9108 O 245.689 -5.7877 -6.5624 0
M  V30 9109 C 245.199 -3.47817 -6.12078 0
M  V30 9110 C 245.909 -3.39414 -4.77697 0
M  V30 9111 N 245.859 -2.04199 -4.15538 0
M  V30 9112 H 248.698 -3.41248 -7.98759 0
M  V30 9113 H 248.97 -2.57728 -6.42 0
M  V30 9114 H 248.102 -5.02657 -6.42673 0
M  V30 9115 H 245.447 -4.11708 -4.08956 0
M  V30 9116 H 245.167 -2.49626 -6.61679 0
M  V30 9117 H 244.176 -3.8662 -6.00862 0
M  V30 9118 H 246.01 -4.29991 -7.97006 0
M  V30 9119 P 244.139 -6.144 -6.45285 0
M  V30 9120 O 243.919 -7.54673 -6.86199 0
M  V30 9121 O 243.349 -5.12391 -7.179 0
M  V30 9122 O 243.889 -5.99158 -4.88404 0
M  V30 9123 C 244.829 -6.60062 -3.96313 0
M  V30 9124 C 244.099 -7.08259 -2.72856 0
M  V30 9125 O 243.889 -5.9427 -1.83651 0
M  V30 9126 C 242.699 -7.65087 -2.94749 0
M  V30 9127 O 242.309 -8.53963 -1.90717 0
M  V30 9128 C 241.819 -6.41069 -2.90698 0
M  V30 9129 C 242.529 -5.5528 -1.86931 0
M  V30 9130 N 242.479 -4.09575 -2.15696 0
M  V30 9131 C 242.329 -3.24249 -1.08435 0
M  V30 9132 O 242.239 -3.63946 0.0628747 0
M  V30 9133 N 242.289 -1.90009 -1.39973 0
M  V30 9134 C 242.379 -1.34884 -2.65614 0
M  V30 9135 O 242.329 -0.123716 -2.81728 0
M  V30 9136 C 242.529 -2.3145 -3.71736 0
M  V30 9137 C 242.639 -1.75913 -5.10438 0
M  V30 9138 C 242.579 -3.63518 -3.44754 0
M  V30 9139 H 245.32 -7.45402 -4.45526 0
M  V30 9140 H 245.589 -5.86062 -3.67208 0
M  V30 9141 H 244.722 -7.84412 -2.24479 0
M  V30 9142 H 242.067 -5.73358 -0.888409 0
M  V30 9143 H 241.788 -5.90877 -3.88583 0
M  V30 9144 H 240.796 -6.65867 -2.58821 0
M  V30 9145 H 242.63 -8.16248 -3.92006 0
M  V30 9146 H 242.701 -4.34551 -4.26383 0
M  V30 9147 H 241.671 -1.85471 -5.61775 0
M  V30 9148 H 243.408 -2.31364 -5.66257 0
M  V30 9149 H 242.92 -0.695936 -5.05229 0
M  V30 9150 H 242.184 -1.26277 -0.63625 0
M  V30 9151 P 240.759 -8.7635 -1.60911 0
M  V30 9152 O 240.539 -10.1388 -1.11561 0
M  V30 9153 O 239.969 -8.36503 -2.79617 0
M  V30 9154 O 240.509 -7.71806 -0.42951 0
M  V30 9155 C 241.449 -7.67148 0.673689 0
M  V30 9156 C 240.719 -7.33374 1.95559 0
M  V30 9157 O 240.509 -5.88721 2.00726 0
M  V30 9158 C 239.319 -7.92526 2.10483 0
M  V30 9159 O 238.929 -8.02971 3.47653 0
M  V30 9160 C 238.439 -6.89602 1.41652 0
M  V30 9161 C 239.149 -5.59201 1.75185 0
M  V30 9162 N 239.099 -4.58235 0.662552 0
M  V30 9163 H 241.938 -8.65116 0.777161 0
M  V30 9164 H 242.21 -6.90173 0.474152 0
M  V30 9165 H 241.342 -7.66548 2.79458 0
M  V30 9166 P 237.379 -8.03563 3.84925 0
M  V30 9167 O 237.159 -8.85821 5.0569 0
M  V30 9168 O 236.589 -8.41101 2.65469 0
M  V30 9169 O 237.129 -6.4965 4.18908 0
M  V30 9170 C 238.069 -5.80886 5.05289 0
M  V30 9171 C 237.339 -4.78366 5.89277 0
M  V30 9172 O 237.129 -3.58302 5.08433 0
M  V30 9173 C 235.939 -5.16748 6.36559 0
M  V30 9174 O 235.549 -4.45271 7.53232 0
M  V30 9175 C 235.059 -4.74572 5.19863 0
M  V30 9176 C 235.769 -3.49373 4.70338 0
M  V30 9177 N 235.719 -3.31704 3.22876 0
M  V30 9178 C 235.569 -2.03326 2.74871 0
M  V30 9179 O 235.479 -1.06486 3.48076 0
M  V30 9180 N 235.529 -1.91838 1.37456 0
M  V30 9181 C 235.619 -2.94295 0.462035 0
M  V30 9182 O 235.569 -2.71763 -0.752928 0
M  V30 9183 C 235.769 -4.25064 1.05249 0
M  V30 9184 C 235.879 -5.39815 0.095697 0
M  V30 9185 C 235.819 -4.40214 2.39192 0
M  V30 9186 H 238.56 -6.54063 5.71245 0
M  V30 9187 H 238.829 -5.30339 4.43905 0
M  V30 9188 H 237.962 -4.55889 6.76652 0
M  V30 9189 H 235.307 -2.6167 5.17842 0
M  V30 9190 H 235.028 -5.52155 4.41878 0
M  V30 9191 H 234.036 -4.51918 5.53297 0
M  V30 9192 H 235.87 -6.25055 6.55162 0
M  V30 9193 H 235.941 -5.39798 2.81523 0
M  V30 9194 H 234.911 -5.91593 0.0279582 0
M  V30 9195 H 236.648 -6.10038 0.450573 0
M  V30 9196 H 236.16 -5.02007 -0.89937 0
M  V30 9197 H 235.424 -0.995326 1.00435 0
M  V30 9198 P 233.999 -4.23843 7.83734 0
M  V30 9199 O 233.779 -4.19407 9.29784 0
M  V30 9200 O 233.209 -5.24426 7.09156 0
M  V30 9201 O 233.749 -2.7935 7.20758 0
M  V30 9202 C 234.689 -1.7299 7.50419 0
M  V30 9203 C 233.959 -0.406376 7.57911 0
M  V30 9204 O 233.749 0.0897726 6.21935 0
M  V30 9205 C 232.559 -0.447224 8.1878 0
M  V30 9206 O 232.169 0.825065 8.71101 0
M  V30 9207 C 231.679 -0.783801 6.99623 0
M  V30 9208 C 232.389 -0.0619192 5.85967 0
M  V30 9209 N 232.339 -0.790462 4.56202 0
M  V30 9210 H 235.178 -1.93423 8.4679 0
M  V30 9211 H 235.45 -1.68852 6.70877 0
M  V30 9212 H 234.582 0.289041 8.15388 0
M  V30 9213 H 231.927 0.927006 5.72848 0
M  V30 9214 H 231.647 -1.86973 6.82036 0
M  V30 9215 H 230.656 -0.403953 7.13357 0
M  V30 9216 H 232.49 -1.20599 8.97534 0
M  V30 9217 P 230.619 1.17771 8.83182 0
M  V30 9218 O 230.399 2.07206 9.98732 0
M  V30 9219 O 229.829 -0.0743816 8.81969 0
M  V30 9220 O 230.369 1.97652 7.47304 0
M  V30 9221 C 231.309 3.01055 7.08599 0
M  V30 9222 C 230.579 4.12613 6.37049 0
M  V30 9223 O 230.369 3.72827 4.97879 0
M  V30 9224 C 229.179 4.45719 6.88164 0
M  V30 9225 O 228.789 5.7877 6.5624 0
M  V30 9226 C 228.299 3.47768 6.11991 0
M  V30 9227 C 229.009 3.39356 4.77615 0
M  V30 9228 N 228.959 2.04571 4.15244 0
M  V30 9229 C 228.809 1.98587 2.78314 0
M  V30 9230 O 228.719 2.98134 2.08835 0
M  V30 9231 N 228.769 0.714467 2.24925 0
M  V30 9232 C 228.859 -0.470001 2.94169 0
M  V30 9233 O 228.809 -1.55587 2.35195 0
M  V30 9234 C 229.009 -0.312541 4.36783 0
M  V30 9235 C 229.119 -1.57711 5.16352 0
M  V30 9236 C 229.059 0.914512 4.92583 0
M  V30 9237 H 231.8 3.41169 7.98575 0
M  V30 9238 H 232.069 2.58295 6.41556 0
M  V30 9239 H 231.202 5.02657 6.42673 0
M  V30 9240 H 228.547 4.11637 4.08885 0
M  V30 9241 H 228.268 2.49626 6.61679 0
M  V30 9242 H 227.276 3.86566 6.00778 0
M  V30 9243 H 229.11 4.29943 7.96918 0
M  V30 9244 H 229.181 1.00937 6.00374 0
M  V30 9245 H 228.151 -1.80153 5.63503 0
M  V30 9246 H 229.888 -1.4566 5.94104 0
M  V30 9247 H 229.4 -2.40664 4.49645 0
M  V30 9248 H 228.664 0.647622 1.25697 0
M  V30 9249 P 227.239 6.144 6.45285 0
M  V30 9250 O 227.019 7.54673 6.86199 0
M  V30 9251 O 226.449 5.12391 7.179 0
M  V30 9252 O 226.989 5.99158 4.88404 0
M  V30 9253 C 227.929 6.60234 3.96415 0
M  V30 9254 C 227.199 7.08259 2.72856 0
M  V30 9255 O 226.989 5.9427 1.83651 0
M  V30 9256 C 225.799 7.64886 2.9555 0
M  V30 9257 O 225.409 8.53963 1.90717 0
M  V30 9258 C 224.919 6.4116 2.90739 0
M  V30 9259 C 225.629 5.55375 1.86963 0
M  V30 9260 N 225.579 4.09664 2.15742 0
M  V30 9261 H 228.418 7.45574 4.45629 0
M  V30 9262 H 228.69 5.86232 3.67314 0
M  V30 9263 H 227.822 7.84412 2.24479 0
M  V30 9264 P 223.859 8.7635 1.60911 0
M  V30 9265 O 223.639 10.1388 1.11561 0
M  V30 9266 O 223.069 8.36503 2.79617 0
M  V30 9267 O 223.609 7.71806 0.42951 0
M  V30 9268 C 224.549 7.67148 -0.673689 0
M  V30 9269 C 223.819 7.33374 -1.95559 0
M  V30 9270 O 223.609 5.88721 -2.00726 0
M  V30 9271 C 222.419 7.92526 -2.10483 0
M  V30 9272 O 222.029 8.02971 -3.47653 0
M  V30 9273 C 221.539 6.89602 -1.41652 0
M  V30 9274 C 222.249 5.59201 -1.75185 0
M  V30 9275 N 222.199 4.58235 -0.662552 0
M  V30 9276 H 225.038 8.65116 -0.777161 0
M  V30 9277 H 225.31 6.90173 -0.474152 0
M  V30 9278 H 224.442 7.66548 -2.79458 0
M  V30 9279 P 220.479 8.03563 -3.84925 0
M  V30 9280 O 220.259 8.85821 -5.0569 0
M  V30 9281 O 219.689 8.41101 -2.65469 0
M  V30 9282 O 220.229 6.4965 -4.18908 0
M  V30 9283 C 221.169 5.80886 -5.05289 0
M  V30 9284 C 220.439 4.78366 -5.89277 0
M  V30 9285 O 220.229 3.58302 -5.08433 0
M  V30 9286 C 219.039 5.16748 -6.36559 0
M  V30 9287 O 218.649 4.45271 -7.53232 0
M  V30 9288 C 218.159 4.74572 -5.19863 0
M  V30 9289 C 218.869 3.49373 -4.70338 0
M  V30 9290 N 218.819 3.31704 -3.22876 0
M  V30 9291 C 218.669 2.03326 -2.74871 0
M  V30 9292 O 218.579 1.06486 -3.48076 0
M  V30 9293 N 218.629 1.91838 -1.37456 0
M  V30 9294 C 218.719 2.94295 -0.462035 0
M  V30 9295 O 218.669 2.71763 0.752928 0
M  V30 9296 C 218.869 4.25064 -1.05249 0
M  V30 9297 C 218.979 5.39815 -0.095697 0
M  V30 9298 C 218.919 4.40214 -2.39192 0
M  V30 9299 H 221.66 6.54063 -5.71245 0
M  V30 9300 H 221.929 5.30339 -4.43905 0
M  V30 9301 H 221.062 4.55889 -6.76652 0
M  V30 9302 H 218.407 2.6167 -5.17842 0
M  V30 9303 H 218.128 5.52155 -4.41878 0
M  V30 9304 H 217.136 4.51918 -5.53297 0
M  V30 9305 H 218.97 6.25055 -6.55162 0
M  V30 9306 H 219.041 5.39798 -2.81523 0
M  V30 9307 H 218.011 5.91593 -0.0279582 0
M  V30 9308 H 219.748 6.10038 -0.450573 0
M  V30 9309 H 219.26 5.02007 0.89937 0
M  V30 9310 H 218.524 0.995326 -1.00435 0
M  V30 9311 P 217.099 4.23843 -7.83734 0
M  V30 9312 O 216.879 4.19407 -9.29784 0
M  V30 9313 O 216.309 5.24426 -7.09156 0
M  V30 9314 O 216.849 2.7935 -7.20758 0
M  V30 9315 C 217.789 1.7299 -7.50419 0
M  V30 9316 C 217.059 0.406376 -7.57911 0
M  V30 9317 O 216.849 -0.0897726 -6.21935 0
M  V30 9318 C 215.659 0.447224 -8.1878 0
M  V30 9319 O 215.269 -0.825065 -8.71101 0
M  V30 9320 C 214.779 0.783801 -6.99623 0
M  V30 9321 C 215.489 0.0619192 -5.85967 0
M  V30 9322 N 215.439 0.7859 -4.56281 0
M  V30 9323 H 218.278 1.93423 -8.4679 0
M  V30 9324 H 218.55 1.68181 -6.71046 0
M  V30 9325 H 217.682 -0.289041 -8.15388 0
M  V30 9326 P 213.719 -1.17771 -8.83182 0
M  V30 9327 O 213.499 -2.07206 -9.98732 0
M  V30 9328 O 212.929 0.0743816 -8.81969 0
M  V30 9329 O 213.469 -1.97652 -7.47304 0
M  V30 9330 C 214.409 -3.01055 -7.08599 0
M  V30 9331 C 213.679 -4.12613 -6.37049 0
M  V30 9332 O 213.469 -3.72827 -4.97879 0
M  V30 9333 C 212.279 -4.45719 -6.88164 0
M  V30 9334 O 211.889 -5.7877 -6.5624 0
M  V30 9335 C 211.399 -3.47768 -6.11991 0
M  V30 9336 C 212.109 -3.39356 -4.77615 0
M  V30 9337 N 212.059 -2.04571 -4.15244 0
M  V30 9338 C 211.909 -1.98587 -2.78314 0
M  V30 9339 O 211.819 -2.98134 -2.08835 0
M  V30 9340 N 211.869 -0.714467 -2.24925 0
M  V30 9341 C 211.959 0.470001 -2.94169 0
M  V30 9342 O 211.909 1.55587 -2.35195 0
M  V30 9343 C 212.109 0.312541 -4.36783 0
M  V30 9344 C 212.219 1.57711 -5.16352 0
M  V30 9345 C 212.159 -0.914512 -4.92583 0
M  V30 9346 H 214.9 -3.41169 -7.98575 0
M  V30 9347 H 215.169 -2.58295 -6.41556 0
M  V30 9348 H 214.302 -5.02657 -6.42673 0
M  V30 9349 H 211.647 -4.11637 -4.08885 0
M  V30 9350 H 211.368 -2.49626 -6.61679 0
M  V30 9351 H 210.376 -3.86566 -6.00778 0
M  V30 9352 H 212.21 -4.29943 -7.96918 0
M  V30 9353 H 212.281 -1.00937 -6.00374 0
M  V30 9354 H 211.251 1.80153 -5.63503 0
M  V30 9355 H 212.988 1.4566 -5.94104 0
M  V30 9356 H 212.5 2.40664 -4.49645 0
M  V30 9357 H 211.764 -0.647622 -1.25697 0
M  V30 9358 P 210.339 -6.144 -6.45285 0
M  V30 9359 O 210.119 -7.54673 -6.86199 0
M  V30 9360 O 209.549 -5.12391 -7.179 0
M  V30 9361 O 210.089 -5.99158 -4.88404 0
M  V30 9362 C 211.029 -6.60234 -3.96415 0
M  V30 9363 C 210.299 -7.08259 -2.72856 0
M  V30 9364 O 210.089 -5.9427 -1.83651 0
M  V30 9365 C 208.899 -7.64886 -2.9555 0
M  V30 9366 O 208.509 -8.53963 -1.90717 0
M  V30 9367 C 208.019 -6.4116 -2.90739 0
M  V30 9368 C 208.729 -5.55375 -1.86963 0
M  V30 9369 N 208.679 -4.09664 -2.15742 0
M  V30 9370 H 211.518 -7.45574 -4.45629 0
M  V30 9371 H 211.79 -5.86232 -3.67314 0
M  V30 9372 H 210.922 -7.84412 -2.24479 0
M  V30 9373 P 206.959 -8.7635 -1.60911 0
M  V30 9374 O 206.739 -10.1388 -1.11561 0
M  V30 9375 O 206.169 -8.36503 -2.79617 0
M  V30 9376 O 206.709 -7.71806 -0.42951 0
M  V30 9377 C 207.649 -7.67148 0.673689 0
M  V30 9378 C 206.919 -7.33374 1.95559 0
M  V30 9379 O 206.709 -5.88721 2.00726 0
M  V30 9380 C 205.519 -7.92526 2.10483 0
M  V30 9381 O 205.129 -8.02971 3.47653 0
M  V30 9382 C 204.639 -6.89602 1.41652 0
M  V30 9383 C 205.349 -5.59201 1.75185 0
M  V30 9384 N 205.299 -4.58301 0.657969 0
M  V30 9385 H 208.138 -8.65116 0.777161 0
M  V30 9386 H 208.41 -6.9022 0.46725 0
M  V30 9387 H 207.542 -7.66548 2.79458 0
M  V30 9388 H 204.887 -5.16165 2.65183 0
M  V30 9389 H 204.607 -7.06433 0.329384 0
M  V30 9390 H 203.616 -6.90926 1.82021 0
M  V30 9391 H 205.45 -8.90873 1.62657 0
M  V30 9392 P 203.579 -8.03563 3.84925 0
M  V30 9393 O 203.359 -8.85821 5.0569 0
M  V30 9394 O 202.789 -8.41101 2.65469 0
M  V30 9395 O 203.329 -6.4965 4.18908 0
M  V30 9396 C 204.269 -5.81037 5.05421 0
M  V30 9397 C 203.539 -4.78366 5.89277 0
M  V30 9398 O 203.329 -3.58302 5.08433 0
M  V30 9399 C 202.139 -5.17448 6.36119 0
M  V30 9400 O 201.749 -4.45271 7.53232 0
M  V30 9401 C 201.259 -4.74639 5.19936 0
M  V30 9402 C 201.969 -3.49432 4.70418 0
M  V30 9403 N 201.919 -3.31776 3.22945 0
M  V30 9404 H 204.758 -6.54213 5.71376 0
M  V30 9405 H 205.03 -5.30492 4.44033 0
M  V30 9406 H 204.162 -4.55889 6.76652 0
M  V30 9407 P 200.199 -4.23843 7.83734 0
M  V30 9408 O 199.979 -4.19407 9.29784 0
M  V30 9409 O 199.409 -5.24426 7.09156 0
M  V30 9410 O 199.949 -2.7935 7.20758 0
M  V30 9411 C 200.889 -1.7299 7.50419 0
M  V30 9412 C 200.159 -0.406376 7.57911 0
M  V30 9413 O 199.949 0.0897726 6.21935 0
M  V30 9414 C 198.759 -0.447224 8.1878 0
M  V30 9415 O 198.369 0.825065 8.71101 0
M  V30 9416 C 197.879 -0.783801 6.99623 0
M  V30 9417 C 198.589 -0.0619192 5.85967 0
M  V30 9418 N 198.539 -0.790462 4.56202 0
M  V30 9419 C 198.619 -2.13895 4.34171 0
M  V30 9420 N 198.549 -2.46449 3.08687 0
M  V30 9421 C 198.399 -1.2525 2.43697 0
M  V30 9422 C 198.269 -0.914535 1.07318 0
M  V30 9423 N 198.259 -1.80782 0.0887348 0
M  V30 9424 N 198.149 0.386745 0.768133 0
M  V30 9425 C 198.159 1.28096 1.75159 0
M  V30 9426 N 198.279 1.09708 3.04861 0
M  V30 9427 C 198.399 -0.214857 3.32306 0
M  V30 9428 H 201.378 -1.93423 8.4679 0
M  V30 9429 H 201.65 -1.68852 6.70877 0
M  V30 9430 H 200.782 0.289041 8.15388 0
M  V30 9431 H 198.127 0.927006 5.72848 0
M  V30 9432 H 197.847 -1.86973 6.82036 0
M  V30 9433 H 196.856 -0.403953 7.13357 0
M  V30 9434 H 198.69 -1.20599 8.97534 0
M  V30 9435 H 198.731 -2.86846 5.14318 0
M  V30 9436 H 198.35 -2.81082 0.302037 0
M  V30 9437 H 198.161 -1.49688 -0.889064 0
M  V30 9438 H 198.053 2.31317 1.43855 0
M  V30 9439 P 196.819 1.17771 8.83182 0
M  V30 9440 O 196.599 2.07206 9.98732 0
M  V30 9441 O 196.029 -0.0743816 8.81969 0
M  V30 9442 O 196.569 1.97652 7.47304 0
M  V30 9443 C 197.509 3.01133 7.08783 0
M  V30 9444 C 196.779 4.12613 6.37049 0
M  V30 9445 O 196.569 3.72827 4.97879 0
M  V30 9446 C 195.379 4.45085 6.88694 0
M  V30 9447 O 194.989 5.7877 6.5624 0
M  V30 9448 C 194.499 3.47817 6.12078 0
M  V30 9449 C 195.209 3.39414 4.77697 0
M  V30 9450 N 195.159 2.04615 4.15333 0
M  V30 9451 H 197.998 3.41248 7.98759 0
M  V30 9452 H 198.27 2.5837 6.41742 0
M  V30 9453 H 197.402 5.02657 6.42673 0
M  V30 9454 P 193.439 6.144 6.45285 0
M  V30 9455 O 193.219 7.54673 6.86199 0
M  V30 9456 O 192.649 5.12391 7.179 0
M  V30 9457 O 193.189 5.99158 4.88404 0
M  V30 9458 C 194.129 6.60234 3.96415 0
M  V30 9459 C 193.399 7.08259 2.72856 0
M  V30 9460 O 193.189 5.9427 1.83651 0
M  V30 9461 C 191.999 7.64886 2.9555 0
M  V30 9462 O 191.609 8.53963 1.90717 0
M  V30 9463 C 191.119 6.4116 2.90739 0
M  V30 9464 C 191.829 5.55375 1.86963 0
M  V30 9465 N 191.779 4.09664 2.15742 0
M  V30 9466 C 191.859 3.44381 3.37233 0
M  V30 9467 N 191.779 2.14131 3.28347 0
M  V30 9468 C 191.639 1.90247 1.91588 0
M  V30 9469 C 191.509 0.683992 1.20892 0
M  V30 9470 N 191.389 0.903396 -0.173998 0
M  V30 9471 C 191.389 2.14171 -0.784879 0
M  V30 9472 N 191.259 2.1435 -2.11317 0
M  V30 9473 N 191.519 3.28784 -0.119316 0
M  V30 9474 C 191.639 3.0977 1.22194 0
M  V30 9475 H 194.618 7.45574 4.45629 0
M  V30 9476 H 194.89 5.86232 3.67314 0
M  V30 9477 H 194.022 7.84412 2.24479 0
M  V30 9478 P 190.059 8.7635 1.60911 0
M  V30 9479 O 189.839 10.1388 1.11561 0
M  V30 9480 O 189.269 8.36503 2.79617 0
M  V30 9481 O 189.809 7.71806 0.42951 0
M  V30 9482 C 190.749 7.67148 -0.673689 0
M  V30 9483 C 190.019 7.33374 -1.95559 0
M  V30 9484 O 189.809 5.88721 -2.00726 0
M  V30 9485 C 188.619 7.92526 -2.10483 0
M  V30 9486 O 188.229 8.02971 -3.47653 0
M  V30 9487 C 187.739 6.89602 -1.41652 0
M  V30 9488 C 188.449 5.59201 -1.75185 0
M  V30 9489 N 188.399 4.58235 -0.662552 0
M  V30 9490 H 191.238 8.65116 -0.777161 0
M  V30 9491 H 191.51 6.90173 -0.474152 0
M  V30 9492 H 190.642 7.66548 -2.79458 0
M  V30 9493 P 186.679 8.03563 -3.84925 0
M  V30 9494 O 186.459 8.85821 -5.0569 0
M  V30 9495 O 185.889 8.41101 -2.65469 0
M  V30 9496 O 186.429 6.4965 -4.18908 0
M  V30 9497 C 187.369 5.81037 -5.05421 0
M  V30 9498 C 186.639 4.78366 -5.89277 0
M  V30 9499 O 186.429 3.58302 -5.08433 0
M  V30 9500 C 185.239 5.17448 -6.36119 0
M  V30 9501 O 184.849 4.45271 -7.53232 0
M  V30 9502 C 184.359 4.74639 -5.19936 0
M  V30 9503 C 185.069 3.49432 -4.70418 0
M  V30 9504 N 185.019 3.31776 -3.22945 0
M  V30 9505 H 187.858 6.54213 -5.71376 0
M  V30 9506 H 188.13 5.30492 -4.44033 0
M  V30 9507 H 187.262 4.55889 -6.76652 0
M  V30 9508 P 183.299 4.23843 -7.83734 0
M  V30 9509 O 183.079 4.19407 -9.29784 0
M  V30 9510 O 182.509 5.24426 -7.09156 0
M  V30 9511 O 183.049 2.7935 -7.20758 0
M  V30 9512 C 183.989 1.7299 -7.50419 0
M  V30 9513 C 183.259 0.406376 -7.57911 0
M  V30 9514 O 183.049 -0.0897726 -6.21935 0
M  V30 9515 C 181.859 0.447224 -8.1878 0
M  V30 9516 O 181.469 -0.825065 -8.71101 0
M  V30 9517 C 180.979 0.783801 -6.99623 0
M  V30 9518 C 181.689 0.0619192 -5.85967 0
M  V30 9519 N 181.639 0.790462 -4.56202 0
M  V30 9520 H 184.478 1.93423 -8.4679 0
M  V30 9521 H 184.75 1.68852 -6.70877 0
M  V30 9522 H 183.882 -0.289041 -8.15388 0
M  V30 9523 H 181.227 -0.927006 -5.72848 0
M  V30 9524 H 180.947 1.86973 -6.82036 0
M  V30 9525 H 179.956 0.403953 -7.13357 0
M  V30 9526 H 181.79 1.20599 -8.97534 0
M  V30 9527 P 179.919 -1.17771 -8.83182 0
M  V30 9528 O 179.699 -2.07206 -9.98732 0
M  V30 9529 O 179.129 0.0743816 -8.81969 0
M  V30 9530 O 179.669 -1.97652 -7.47304 0
M  V30 9531 C 180.609 -3.01133 -7.08783 0
M  V30 9532 C 179.879 -4.12613 -6.37049 0
M  V30 9533 O 179.669 -3.72827 -4.97879 0
M  V30 9534 C 178.479 -4.45085 -6.88694 0
M  V30 9535 O 178.089 -5.7877 -6.5624 0
M  V30 9536 C 177.599 -3.47817 -6.12078 0
M  V30 9537 C 178.309 -3.39414 -4.77697 0
M  V30 9538 N 178.259 -2.04199 -4.15538 0
M  V30 9539 H 181.098 -3.41248 -7.98759 0
M  V30 9540 H 181.37 -2.57728 -6.42 0
M  V30 9541 H 180.502 -5.02657 -6.42673 0
M  V30 9542 H 177.847 -4.11708 -4.08956 0
M  V30 9543 H 177.567 -2.49626 -6.61679 0
M  V30 9544 H 176.576 -3.8662 -6.00862 0
M  V30 9545 H 178.41 -4.29991 -7.97006 0
M  V30 9546 P 176.539 -6.144 -6.45285 0
M  V30 9547 O 176.319 -7.54673 -6.86199 0
M  V30 9548 O 175.749 -5.12391 -7.179 0
M  V30 9549 O 176.289 -5.99158 -4.88404 0
M  V30 9550 C 177.229 -6.60062 -3.96313 0
M  V30 9551 C 176.499 -7.08259 -2.72856 0
M  V30 9552 O 176.289 -5.9427 -1.83651 0
M  V30 9553 C 175.099 -7.65087 -2.94749 0
M  V30 9554 O 174.709 -8.53963 -1.90717 0
M  V30 9555 C 174.219 -6.41069 -2.90698 0
M  V30 9556 C 174.929 -5.5528 -1.86931 0
M  V30 9557 N 174.879 -4.09575 -2.15696 0
M  V30 9558 C 174.729 -3.24249 -1.08435 0
M  V30 9559 O 174.639 -3.63946 0.0628747 0
M  V30 9560 N 174.689 -1.90009 -1.39973 0
M  V30 9561 C 174.779 -1.34884 -2.65614 0
M  V30 9562 O 174.729 -0.123716 -2.81728 0
M  V30 9563 C 174.929 -2.3145 -3.71736 0
M  V30 9564 C 175.039 -1.75913 -5.10438 0
M  V30 9565 C 174.979 -3.63518 -3.44754 0
M  V30 9566 H 177.72 -7.45402 -4.45526 0
M  V30 9567 H 177.989 -5.86062 -3.67208 0
M  V30 9568 H 177.122 -7.84412 -2.24479 0
M  V30 9569 H 174.467 -5.73358 -0.888409 0
M  V30 9570 H 174.188 -5.90877 -3.88583 0
M  V30 9571 H 173.196 -6.65867 -2.58821 0
M  V30 9572 H 175.03 -8.16248 -3.92006 0
M  V30 9573 H 175.101 -4.34551 -4.26383 0
M  V30 9574 H 174.071 -1.85471 -5.61775 0
M  V30 9575 H 175.808 -2.31364 -5.66257 0
M  V30 9576 H 175.32 -0.695936 -5.05229 0
M  V30 9577 H 174.584 -1.26277 -0.63625 0
M  V30 9578 P 173.159 -8.7635 -1.60911 0
M  V30 9579 O 172.939 -10.1388 -1.11561 0
M  V30 9580 O 172.369 -8.36503 -2.79617 0
M  V30 9581 O 172.909 -7.71806 -0.42951 0
M  V30 9582 C 173.849 -7.67148 0.673689 0
M  V30 9583 C 173.119 -7.33374 1.95559 0
M  V30 9584 O 172.909 -5.88721 2.00726 0
M  V30 9585 C 171.719 -7.92526 2.10483 0
M  V30 9586 O 171.329 -8.02971 3.47653 0
M  V30 9587 C 170.839 -6.89602 1.41652 0
M  V30 9588 C 171.549 -5.59201 1.75185 0
M  V30 9589 N 171.499 -4.58301 0.657969 0
M  V30 9590 C 171.579 -4.79019 -0.692603 0
M  V30 9591 N 171.509 -3.69736 -1.38998 0
M  V30 9592 C 171.359 -2.70474 -0.438135 0
M  V30 9593 C 171.229 -1.30327 -0.538142 0
M  V30 9594 N 171.219 -0.64304 -1.69192 0
M  V30 9595 N 171.109 -0.611027 0.605183 0
M  V30 9596 C 171.119 -1.27002 1.75953 0
M  V30 9597 N 171.239 -2.56038 1.98546 0
M  V30 9598 C 171.359 -3.22681 0.822541 0
M  V30 9599 H 174.338 -8.65116 0.777161 0
M  V30 9600 H 174.61 -6.9022 0.46725 0
M  V30 9601 H 173.742 -7.66548 2.79458 0
M  V30 9602 H 171.087 -5.16165 2.65183 0
M  V30 9603 H 170.807 -7.06433 0.329384 0
M  V30 9604 H 169.816 -6.90926 1.82021 0
M  V30 9605 H 171.65 -8.90873 1.62657 0
M  V30 9606 H 171.691 -5.77785 -1.13874 0
M  V30 9607 H 171.31 -1.15585 -2.57991 0
M  V30 9608 H 171.121 0.382989 -1.69835 0
M  V30 9609 H 171.013 -0.653331 2.64449 0
M  V30 9610 P 169.779 -8.03563 3.84925 0
M  V30 9611 O 169.559 -8.85821 5.0569 0
M  V30 9612 O 168.989 -8.41101 2.65469 0
M  V30 9613 O 169.529 -6.4965 4.18908 0
M  V30 9614 C 170.469 -5.81037 5.05421 0
M  V30 9615 C 169.739 -4.78366 5.89277 0
M  V30 9616 O 169.529 -3.58302 5.08433 0
M  V30 9617 C 168.339 -5.17448 6.36119 0
M  V30 9618 O 167.949 -4.45271 7.53232 0
M  V30 9619 C 167.459 -4.74639 5.19936 0
M  V30 9620 C 168.169 -3.49432 4.70418 0
M  V30 9621 N 168.119 -3.31776 3.22945 0
M  V30 9622 H 170.958 -6.54213 5.71376 0
M  V30 9623 H 171.23 -5.30492 4.44033 0
M  V30 9624 H 170.362 -4.55889 6.76652 0
M  V30 9625 P 166.399 -4.23843 7.83734 0
M  V30 9626 O 166.179 -4.19407 9.29784 0
M  V30 9627 O 165.609 -5.24426 7.09156 0
M  V30 9628 O 166.149 -2.7935 7.20758 0
M  V30 9629 C 167.089 -1.7299 7.50419 0
M  V30 9630 C 166.359 -0.406376 7.57911 0
M  V30 9631 O 166.149 0.0897726 6.21935 0
M  V30 9632 C 164.959 -0.447224 8.1878 0
M  V30 9633 O 164.569 0.825065 8.71101 0
M  V30 9634 C 164.079 -0.783801 6.99623 0
M  V30 9635 C 164.789 -0.0619192 5.85967 0
M  V30 9636 N 164.739 -0.790462 4.56202 0
M  V30 9637 H 167.578 -1.93423 8.4679 0
M  V30 9638 H 167.85 -1.68852 6.70877 0
M  V30 9639 H 166.982 0.289041 8.15388 0
M  V30 9640 H 164.327 0.927006 5.72848 0
M  V30 9641 H 164.047 -1.86973 6.82036 0
M  V30 9642 H 163.056 -0.403953 7.13357 0
M  V30 9643 H 164.89 -1.20599 8.97534 0
M  V30 9644 P 163.019 1.17771 8.83182 0
M  V30 9645 O 162.799 2.07206 9.98732 0
M  V30 9646 O 162.229 -0.0743816 8.81969 0
M  V30 9647 O 162.769 1.97652 7.47304 0
M  V30 9648 C 163.709 3.01133 7.08783 0
M  V30 9649 C 162.979 4.12613 6.37049 0
M  V30 9650 O 162.769 3.72827 4.97879 0
M  V30 9651 C 161.579 4.45085 6.88694 0
M  V30 9652 O 161.189 5.7877 6.5624 0
M  V30 9653 C 160.699 3.47817 6.12078 0
M  V30 9654 C 161.409 3.39414 4.77697 0
M  V30 9655 N 161.359 2.04615 4.15333 0
M  V30 9656 H 164.198 3.41248 7.98759 0
M  V30 9657 H 164.47 2.5837 6.41742 0
M  V30 9658 H 163.602 5.02657 6.42673 0
M  V30 9659 P 159.639 6.144 6.45285 0
M  V30 9660 O 159.419 7.54673 6.86199 0
M  V30 9661 O 158.849 5.12391 7.179 0
M  V30 9662 O 159.389 5.99158 4.88404 0
M  V30 9663 C 160.329 6.60234 3.96415 0
M  V30 9664 C 159.599 7.08259 2.72856 0
M  V30 9665 O 159.389 5.9427 1.83651 0
M  V30 9666 C 158.199 7.64886 2.9555 0
M  V30 9667 O 157.809 8.53963 1.90717 0
M  V30 9668 C 157.319 6.4116 2.90739 0
M  V30 9669 C 158.029 5.55375 1.86963 0
M  V30 9670 N 157.979 4.09664 2.15742 0
M  V30 9671 H 160.818 7.45574 4.45629 0
M  V30 9672 H 161.09 5.86232 3.67314 0
M  V30 9673 H 160.222 7.84412 2.24479 0
M  V30 9674 P 156.259 8.7635 1.60911 0
M  V30 9675 O 156.039 10.1388 1.11561 0
M  V30 9676 O 155.469 8.36503 2.79617 0
M  V30 9677 O 156.009 7.71806 0.42951 0
M  V30 9678 C 156.949 7.67148 -0.673689 0
M  V30 9679 C 156.219 7.33374 -1.95559 0
M  V30 9680 O 156.009 5.88721 -2.00726 0
M  V30 9681 C 154.819 7.92526 -2.10483 0
M  V30 9682 O 154.429 8.02971 -3.47653 0
M  V30 9683 C 153.939 6.89602 -1.41652 0
M  V30 9684 C 154.649 5.59201 -1.75185 0
M  V30 9685 N 154.599 4.58301 -0.657969 0
M  V30 9686 H 157.438 8.65116 -0.777161 0
M  V30 9687 H 157.71 6.9022 -0.46725 0
M  V30 9688 H 156.842 7.66548 -2.79458 0
M  V30 9689 H 154.187 5.16165 -2.65183 0
M  V30 9690 H 153.907 7.06433 -0.329384 0
M  V30 9691 H 152.916 6.90926 -1.82021 0
M  V30 9692 H 154.75 8.90873 -1.62657 0
M  V30 9693 P 152.879 8.03563 -3.84925 0
M  V30 9694 O 152.659 8.85821 -5.0569 0
M  V30 9695 O 152.089 8.41101 -2.65469 0
M  V30 9696 O 152.629 6.4965 -4.18908 0
M  V30 9697 C 153.569 5.80886 -5.05289 0
M  V30 9698 C 152.839 4.78366 -5.89277 0
M  V30 9699 O 152.629 3.58302 -5.08433 0
M  V30 9700 C 151.439 5.16748 -6.36559 0
M  V30 9701 O 151.049 4.45271 -7.53232 0
M  V30 9702 C 150.559 4.74572 -5.19863 0
M  V30 9703 C 151.269 3.49373 -4.70338 0
M  V30 9704 N 151.219 3.31704 -3.22876 0
M  V30 9705 C 151.069 2.03326 -2.74871 0
M  V30 9706 O 150.979 1.06486 -3.48076 0
M  V30 9707 N 151.029 1.91838 -1.37456 0
M  V30 9708 C 151.119 2.94295 -0.462035 0
M  V30 9709 C 151.269 4.25064 -1.05249 0
M  V30 9710 C 151.319 4.40214 -2.39192 0
M  V30 9711 H 154.06 6.54063 -5.71245 0
M  V30 9712 H 154.329 5.30339 -4.43905 0
M  V30 9713 H 153.462 4.55889 -6.76652 0
M  V30 9714 H 150.807 2.6167 -5.17842 0
M  V30 9715 H 150.528 5.52155 -4.41878 0
M  V30 9716 H 149.536 4.51918 -5.53297 0
M  V30 9717 H 151.37 6.25055 -6.55162 0
M  V30 9718 H 151.441 5.39798 -2.81523 0
M  V30 9719 P 149.499 4.23843 -7.83734 0
M  V30 9720 O 149.279 4.19407 -9.29784 0
M  V30 9721 O 148.709 5.24426 -7.09156 0
M  V30 9722 O 149.249 2.7935 -7.20758 0
M  V30 9723 C 150.189 1.7299 -7.50419 0
M  V30 9724 C 149.459 0.406376 -7.57911 0
M  V30 9725 O 149.249 -0.0897726 -6.21935 0
M  V30 9726 C 148.059 0.447224 -8.1878 0
M  V30 9727 O 147.669 -0.825065 -8.71101 0
M  V30 9728 C 147.179 0.783801 -6.99623 0
M  V30 9729 C 147.889 0.0619192 -5.85967 0
M  V30 9730 N 147.839 0.7859 -4.56281 0
M  V30 9731 H 150.678 1.93423 -8.4679 0
M  V30 9732 H 150.95 1.68181 -6.71046 0
M  V30 9733 H 150.082 -0.289041 -8.15388 0
M  V30 9734 P 146.119 -1.17771 -8.83182 0
M  V30 9735 O 145.899 -2.07206 -9.98732 0
M  V30 9736 O 145.329 0.0743816 -8.81969 0
M  V30 9737 O 145.869 -1.97652 -7.47304 0
M  V30 9738 C 146.809 -3.01133 -7.08783 0
M  V30 9739 C 146.079 -4.12613 -6.37049 0
M  V30 9740 O 145.869 -3.72827 -4.97879 0
M  V30 9741 C 144.679 -4.45085 -6.88694 0
M  V30 9742 O 144.289 -5.7877 -6.5624 0
M  V30 9743 C 143.799 -3.47817 -6.12078 0
M  V30 9744 C 144.509 -3.39414 -4.77697 0
M  V30 9745 N 144.459 -2.04199 -4.15538 0
M  V30 9746 H 147.298 -3.41248 -7.98759 0
M  V30 9747 H 147.57 -2.57728 -6.42 0
M  V30 9748 H 146.702 -5.02657 -6.42673 0
M  V30 9749 H 144.047 -4.11708 -4.08956 0
M  V30 9750 H 143.767 -2.49626 -6.61679 0
M  V30 9751 H 142.776 -3.8662 -6.00862 0
M  V30 9752 H 144.61 -4.29991 -7.97006 0
M  V30 9753 P 142.739 -6.144 -6.45285 0
M  V30 9754 O 142.519 -7.54673 -6.86199 0
M  V30 9755 O 141.949 -5.12391 -7.179 0
M  V30 9756 O 142.489 -5.99158 -4.88404 0
M  V30 9757 C 143.429 -6.60234 -3.96415 0
M  V30 9758 C 142.699 -7.08259 -2.72856 0
M  V30 9759 O 142.489 -5.9427 -1.83651 0
M  V30 9760 C 141.299 -7.64886 -2.9555 0
M  V30 9761 O 140.909 -8.53963 -1.90717 0
M  V30 9762 C 140.419 -6.4116 -2.90739 0
M  V30 9763 C 141.129 -5.55375 -1.86963 0
M  V30 9764 N 141.079 -4.09664 -2.15742 0
M  V30 9765 H 143.918 -7.45574 -4.45629 0
M  V30 9766 H 144.19 -5.86232 -3.67314 0
M  V30 9767 H 143.322 -7.84412 -2.24479 0
M  V30 9768 P 139.359 -8.7635 -1.60911 0
M  V30 9769 O 139.139 -10.1388 -1.11561 0
M  V30 9770 O 138.569 -8.36503 -2.79617 0
M  V30 9771 O 139.109 -7.71806 -0.42951 0
M  V30 9772 C 140.049 -7.67148 0.673689 0
M  V30 9773 C 139.319 -7.33374 1.95559 0
M  V30 9774 O 139.109 -5.88721 2.00726 0
M  V30 9775 C 137.919 -7.92526 2.10483 0
M  V30 9776 O 137.529 -8.02971 3.47653 0
M  V30 9777 C 137.039 -6.89602 1.41652 0
M  V30 9778 C 137.749 -5.59201 1.75185 0
M  V30 9779 N 137.699 -4.58235 0.662552 0
M  V30 9780 H 140.538 -8.65116 0.777161 0
M  V30 9781 H 140.81 -6.90173 0.474152 0
M  V30 9782 H 139.942 -7.66548 2.79458 0
M  V30 9783 P 135.979 -8.03563 3.84925 0
M  V30 9784 O 135.759 -8.85821 5.0569 0
M  V30 9785 O 135.189 -8.41101 2.65469 0
M  V30 9786 O 135.729 -6.4965 4.18908 0
M  V30 9787 C 136.669 -5.81037 5.05421 0
M  V30 9788 C 135.939 -4.78366 5.89277 0
M  V30 9789 O 135.729 -3.58302 5.08433 0
M  V30 9790 C 134.539 -5.17448 6.36119 0
M  V30 9791 O 134.149 -4.45271 7.53232 0
M  V30 9792 C 133.659 -4.74639 5.19936 0
M  V30 9793 C 134.369 -3.49432 4.70418 0
M  V30 9794 N 134.319 -3.31776 3.22945 0
M  V30 9795 H 137.158 -6.54213 5.71376 0
M  V30 9796 H 137.43 -5.30492 4.44033 0
M  V30 9797 H 136.562 -4.55889 6.76652 0
M  V30 9798 P 132.599 -4.23843 7.83734 0
M  V30 9799 O 132.379 -4.19407 9.29784 0
M  V30 9800 O 131.809 -5.24426 7.09156 0
M  V30 9801 O 132.349 -2.7935 7.20758 0
M  V30 9802 C 133.289 -1.72945 7.50224 0
M  V30 9803 C 132.559 -0.406376 7.57911 0
M  V30 9804 O 132.349 0.0897726 6.21935 0
M  V30 9805 C 131.159 -0.438983 8.18724 0
M  V30 9806 O 130.769 0.825065 8.71101 0
M  V30 9807 C 130.279 -0.783689 6.99524 0
M  V30 9808 C 130.989 -0.0619086 5.85867 0
M  V30 9809 N 130.939 -0.78573 4.56183 0
M  V30 9810 C 130.789 -0.0292889 3.41887 0
M  V30 9811 O 130.699 1.18445 3.4419 0
M  V30 9812 N 130.749 -0.744061 2.23964 0
M  V30 9813 C 130.839 -2.10932 2.10362 0
M  V30 9814 C 130.989 -2.8202 3.34994 0
M  V30 9815 C 131.039 -2.15547 4.52261 0
M  V30 9816 H 133.78 -1.93379 8.46595 0
M  V30 9817 H 134.049 -1.68132 6.70852 0
M  V30 9818 H 133.182 0.289041 8.15388 0
M  V30 9819 H 130.527 0.926847 5.72749 0
M  V30 9820 H 130.248 -1.86973 6.82036 0
M  V30 9821 H 129.256 -0.403896 7.13257 0
M  V30 9822 H 131.09 -1.20585 8.97435 0
M  V30 9823 H 131.161 -2.71231 5.45042 0
M  V30 9824 P 129.219 1.17771 8.83182 0
M  V30 9825 O 128.999 2.07206 9.98732 0
M  V30 9826 O 128.429 -0.0743816 8.81969 0
M  V30 9827 O 128.969 1.97652 7.47304 0
M  V30 9828 C 129.909 3.01133 7.08783 0
M  V30 9829 C 129.179 4.12613 6.37049 0
M  V30 9830 O 128.969 3.72827 4.97879 0
M  V30 9831 C 127.779 4.45085 6.88694 0
M  V30 9832 O 127.389 5.7877 6.5624 0
M  V30 9833 C 126.899 3.47817 6.12078 0
M  V30 9834 C 127.609 3.39414 4.77697 0
M  V30 9835 N 127.559 2.04615 4.15333 0
M  V30 9836 H 130.398 3.41248 7.98759 0
M  V30 9837 H 130.67 2.5837 6.41742 0
M  V30 9838 H 129.802 5.02657 6.42673 0
M  V30 9839 P 125.839 6.144 6.45285 0
M  V30 9840 O 125.619 7.54673 6.86199 0
M  V30 9841 O 125.049 5.12391 7.179 0
M  V30 9842 O 125.589 5.99158 4.88404 0
M  V30 9843 C 126.529 6.60234 3.96415 0
M  V30 9844 C 125.799 7.08259 2.72856 0
M  V30 9845 O 125.589 5.9427 1.83651 0
M  V30 9846 C 124.399 7.64886 2.9555 0
M  V30 9847 O 124.009 8.53963 1.90717 0
M  V30 9848 C 123.519 6.4116 2.90739 0
M  V30 9849 C 124.229 5.55375 1.86963 0
M  V30 9850 N 124.179 4.09664 2.15742 0
M  V30 9851 C 124.259 3.44381 3.37233 0
M  V30 9852 N 124.179 2.14131 3.28347 0
M  V30 9853 C 124.039 1.90247 1.91588 0
M  V30 9854 C 123.909 0.683992 1.20892 0
M  V30 9855 O 123.889 -0.46618 1.64523 0
M  V30 9856 N 123.789 0.903396 -0.173998 0
M  V30 9857 C 123.789 2.14171 -0.784879 0
M  V30 9858 N 123.659 2.1435 -2.11317 0
M  V30 9859 N 123.919 3.28784 -0.119316 0
M  V30 9860 C 124.039 3.0977 1.22194 0
M  V30 9861 H 127.018 7.45574 4.45629 0
M  V30 9862 H 127.29 5.86232 3.67314 0
M  V30 9863 H 126.422 7.84412 2.24479 0
M  V30 9864 H 123.767 5.73556 0.888715 0
M  V30 9865 H 123.487 5.9096 3.88638 0
M  V30 9866 H 122.496 6.66053 2.58894 0
M  V30 9867 H 124.33 8.16429 3.92093 0
M  V30 9868 H 124.379 3.96785 4.32043 0
M  V30 9869 H 123.697 0.0999567 -0.761467 0
M  V30 9870 H 123.66 3.03436 -2.63076 0
M  V30 9871 H 123.559 1.25228 -2.62233 0
M  V30 9872 P 122.459 8.7635 1.60911 0
M  V30 9873 O 122.239 10.1388 1.11561 0
M  V30 9874 O 121.669 8.36503 2.79617 0
M  V30 9875 O 122.209 7.71806 0.42951 0
M  V30 9876 C 123.149 7.67148 -0.673689 0
M  V30 9877 C 122.419 7.33374 -1.95559 0
M  V30 9878 O 122.209 5.88721 -2.00726 0
M  V30 9879 C 121.019 7.92526 -2.10483 0
M  V30 9880 O 120.629 8.02971 -3.47653 0
M  V30 9881 C 120.139 6.89602 -1.41652 0
M  V30 9882 C 120.849 5.59201 -1.75185 0
M  V30 9883 N 120.799 4.58301 -0.657969 0
M  V30 9884 H 123.638 8.65116 -0.777161 0
M  V30 9885 H 123.91 6.9022 -0.46725 0
M  V30 9886 H 123.042 7.66548 -2.79458 0
M  V30 9887 H 120.387 5.16165 -2.65183 0
M  V30 9888 H 120.107 7.06433 -0.329384 0
M  V30 9889 H 119.116 6.90926 -1.82021 0
M  V30 9890 H 120.95 8.90873 -1.62657 0
M  V30 9891 P 119.079 8.03563 -3.84925 0
M  V30 9892 O 118.859 8.85821 -5.0569 0
M  V30 9893 O 118.289 8.41101 -2.65469 0
M  V30 9894 O 118.829 6.4965 -4.18908 0
M  V30 9895 C 119.769 5.81037 -5.05421 0
M  V30 9896 C 119.039 4.78366 -5.89277 0
M  V30 9897 O 118.829 3.58302 -5.08433 0
M  V30 9898 C 117.639 5.17448 -6.36119 0
M  V30 9899 O 117.249 4.45271 -7.53232 0
M  V30 9900 C 116.759 4.74639 -5.19936 0
M  V30 9901 C 117.469 3.49432 -4.70418 0
M  V30 9902 N 117.419 3.32099 -3.22613 0
M  V30 9903 H 120.258 6.54213 -5.71376 0
M  V30 9904 H 120.53 5.30936 -4.43503 0
M  V30 9905 H 119.662 4.55889 -6.76652 0
M  V30 9906 H 117.007 2.61715 -5.17932 0
M  V30 9907 H 116.727 5.52155 -4.41878 0
M  V30 9908 H 115.736 4.51981 -5.53374 0
M  V30 9909 H 117.57 6.25124 -6.55234 0
M  V30 9910 P 115.699 4.23843 -7.83734 0
M  V30 9911 O 115.479 4.19407 -9.29784 0
M  V30 9912 O 114.909 5.24426 -7.09156 0
M  V30 9913 O 115.449 2.7935 -7.20758 0
M  V30 9914 C 116.389 1.7299 -7.50419 0
M  V30 9915 C 115.659 0.406376 -7.57911 0
M  V30 9916 O 115.449 -0.0897726 -6.21935 0
M  V30 9917 C 114.259 0.447224 -8.1878 0
M  V30 9918 O 113.869 -0.825065 -8.71101 0
M  V30 9919 C 113.379 0.783801 -6.99623 0
M  V30 9920 C 114.089 0.0619192 -5.85967 0
M  V30 9921 N 114.039 0.7859 -4.56281 0
M  V30 9922 H 116.878 1.93423 -8.4679 0
M  V30 9923 H 117.15 1.68181 -6.71046 0
M  V30 9924 H 116.282 -0.289041 -8.15388 0
M  V30 9925 P 112.319 -1.17771 -8.83182 0
M  V30 9926 O 112.099 -2.07206 -9.98732 0
M  V30 9927 O 111.529 0.0743816 -8.81969 0
M  V30 9928 O 112.069 -1.97652 -7.47304 0
M  V30 9929 C 113.009 -3.01133 -7.08783 0
M  V30 9930 C 112.279 -4.12613 -6.37049 0
M  V30 9931 O 112.069 -3.72827 -4.97879 0
M  V30 9932 C 110.879 -4.45085 -6.88694 0
M  V30 9933 O 110.489 -5.7877 -6.5624 0
M  V30 9934 C 109.999 -3.47817 -6.12078 0
M  V30 9935 C 110.709 -3.39414 -4.77697 0
M  V30 9936 N 110.659 -2.04615 -4.15333 0
M  V30 9937 H 113.498 -3.41248 -7.98759 0
M  V30 9938 H 113.77 -2.5837 -6.41742 0
M  V30 9939 H 112.902 -5.02657 -6.42673 0
M  V30 9940 P 108.939 -6.144 -6.45285 0
M  V30 9941 O 108.719 -7.54673 -6.86199 0
M  V30 9942 O 108.149 -5.12391 -7.179 0
M  V30 9943 O 108.689 -5.99158 -4.88404 0
M  V30 9944 C 109.629 -6.60234 -3.96415 0
M  V30 9945 C 108.899 -7.08259 -2.72856 0
M  V30 9946 O 108.689 -5.9427 -1.83651 0
M  V30 9947 C 107.499 -7.64886 -2.9555 0
M  V30 9948 O 107.109 -8.53963 -1.90717 0
M  V30 9949 C 106.619 -6.4116 -2.90739 0
M  V30 9950 C 107.329 -5.55375 -1.86963 0
M  V30 9951 N 107.279 -4.09448 -2.16152 0
M  V30 9952 H 110.118 -7.45574 -4.45629 0
M  V30 9953 H 110.39 -5.85864 -3.679 0
M  V30 9954 H 109.522 -7.84412 -2.24479 0
M  V30 9955 H 106.867 -5.73457 -0.888562 0
M  V30 9956 H 106.587 -5.90877 -3.88583 0
M  V30 9957 H 105.596 -6.6596 -2.58858 0
M  V30 9958 H 107.43 -8.16339 -3.92049 0
M  V30 9959 P 105.559 -8.7635 -1.60911 0
M  V30 9960 O 105.339 -10.1388 -1.11561 0
M  V30 9961 O 104.769 -8.36503 -2.79617 0
M  V30 9962 O 105.309 -7.71806 -0.42951 0
M  V30 9963 C 106.249 -7.67148 0.673689 0
M  V30 9964 C 105.519 -7.33374 1.95559 0
M  V30 9965 O 105.309 -5.88721 2.00726 0
M  V30 9966 C 104.119 -7.92526 2.10483 0
M  V30 9967 O 103.729 -8.02971 3.47653 0
M  V30 9968 C 103.239 -6.89602 1.41652 0
M  V30 9969 C 103.949 -5.59201 1.75185 0
M  V30 9970 N 103.899 -4.58235 0.662552 0
M  V30 9971 H 106.738 -8.65116 0.777161 0
M  V30 9972 H 107.01 -6.90173 0.474152 0
M  V30 9973 H 106.142 -7.66548 2.79458 0
M  V30 9974 P 102.179 -8.03563 3.84925 0
M  V30 9975 O 101.959 -8.85821 5.0569 0
M  V30 9976 O 101.389 -8.41101 2.65469 0
M  V30 9977 O 101.929 -6.4965 4.18908 0
M  V30 9978 C 102.869 -5.81037 5.05421 0
M  V30 9979 C 102.139 -4.78366 5.89277 0
M  V30 9980 O 101.929 -3.58302 5.08433 0
M  V30 9981 C 100.739 -5.17448 6.36119 0
M  V30 9982 O 100.349 -4.45271 7.53232 0
M  V30 9983 C 99.8594 -4.74639 5.19936 0
M  V30 9984 C 100.569 -3.49432 4.70418 0
M  V30 9985 N 100.519 -3.31776 3.22945 0
M  V30 9986 H 103.358 -6.54213 5.71376 0
M  V30 9987 H 103.63 -5.30492 4.44033 0
M  V30 9988 H 102.762 -4.55889 6.76652 0
M  V30 9989 P 98.7994 -4.23843 7.83734 0
M  V30 9990 O 98.5794 -4.19407 9.29784 0
M  V30 9991 O 98.0094 -5.24426 7.09156 0
M  V30 9992 O 98.5494 -2.7935 7.20758 0
M  V30 9993 C 99.4894 -1.7299 7.50419 0
M  V30 9994 C 98.7594 -0.406376 7.57911 0
M  V30 9995 O 98.5494 0.0897726 6.21935 0
M  V30 9996 C 97.3594 -0.447224 8.1878 0
M  V30 9997 O 96.9694 0.825065 8.71101 0
M  V30 9998 C 96.4794 -0.783801 6.99623 0
M  V30 9999 C 97.1894 -0.0619192 5.85967 0
M  V30 10000 N 97.1394 -0.7859 4.56281 0
M  V30 10001 H 99.9784 -1.93423 8.4679 0
M  V30 10002 H 100.25 -1.68181 6.71046 0
M  V30 10003 H 99.3824 0.289041 8.15388 0
M  V30 10004 P 95.4195 1.17771 8.83182 0
M  V30 10005 O 95.1995 2.07206 9.98732 0
M  V30 10006 O 94.6295 -0.0743816 8.81969 0
M  V30 10007 O 95.1695 1.97652 7.47304 0
M  V30 10008 C 96.1095 3.01133 7.08783 0
M  V30 10009 C 95.3795 4.12613 6.37049 0
M  V30 10010 O 95.1695 3.72827 4.97879 0
M  V30 10011 C 93.9795 4.45085 6.88694 0
M  V30 10012 O 93.5895 5.7877 6.5624 0
M  V30 10013 C 93.0995 3.47817 6.12078 0
M  V30 10014 C 93.8095 3.39414 4.77697 0
M  V30 10015 N 93.7595 2.04615 4.15333 0
M  V30 10016 H 96.5985 3.41248 7.98759 0
M  V30 10017 H 96.8705 2.5837 6.41742 0
M  V30 10018 H 96.0025 5.02657 6.42673 0
M  V30 10019 P 92.0395 6.144 6.45285 0
M  V30 10020 O 91.8195 7.54673 6.86199 0
M  V30 10021 O 91.2495 5.12391 7.179 0
M  V30 10022 O 91.7895 5.99158 4.88404 0
M  V30 10023 C 92.7295 6.60234 3.96415 0
M  V30 10024 C 91.9995 7.08259 2.72856 0
M  V30 10025 O 91.7895 5.9427 1.83651 0
M  V30 10026 C 90.5995 7.64886 2.9555 0
M  V30 10027 O 90.2095 8.53963 1.90717 0
M  V30 10028 C 89.7195 6.4116 2.90739 0
M  V30 10029 C 90.4295 5.55375 1.86963 0
M  V30 10030 N 90.3795 4.09448 2.16152 0
M  V30 10031 H 93.2185 7.45574 4.45629 0
M  V30 10032 H 93.4905 5.85864 3.679 0
M  V30 10033 H 92.6225 7.84412 2.24479 0
M  V30 10034 H 89.9675 5.73457 0.888562 0
M  V30 10035 H 89.6875 5.90877 3.88583 0
M  V30 10036 H 88.6965 6.6596 2.58858 0
M  V30 10037 H 90.5305 8.16339 3.92049 0
M  V30 10038 P 88.6595 8.7635 1.60911 0
M  V30 10039 O 88.4395 10.1388 1.11561 0
M  V30 10040 O 87.8695 8.36503 2.79617 0
M  V30 10041 O 88.4095 7.71806 0.42951 0
M  V30 10042 C 89.3495 7.67148 -0.673689 0
M  V30 10043 C 88.6195 7.33374 -1.95559 0
M  V30 10044 O 88.4095 5.88721 -2.00726 0
M  V30 10045 C 87.2195 7.92526 -2.10483 0
M  V30 10046 O 86.8295 8.02971 -3.47653 0
M  V30 10047 C 86.3395 6.89602 -1.41652 0
M  V30 10048 C 87.0495 5.59201 -1.75185 0
M  V30 10049 N 86.9995 4.58235 -0.662552 0
M  V30 10050 H 89.8385 8.65116 -0.777161 0
M  V30 10051 H 90.1105 6.90173 -0.474152 0
M  V30 10052 H 89.2425 7.66548 -2.79458 0
M  V30 10053 P 85.2795 8.03563 -3.84925 0
M  V30 10054 O 85.0595 8.85821 -5.0569 0
M  V30 10055 O 84.4895 8.41101 -2.65469 0
M  V30 10056 O 85.0295 6.4965 -4.18908 0
M  V30 10057 C 85.9695 5.81037 -5.05421 0
M  V30 10058 C 85.2395 4.78366 -5.89277 0
M  V30 10059 O 85.0295 3.58302 -5.08433 0
M  V30 10060 C 83.8395 5.17448 -6.36119 0
M  V30 10061 O 83.4495 4.45271 -7.53232 0
M  V30 10062 C 82.9595 4.74639 -5.19936 0
M  V30 10063 C 83.6695 3.49432 -4.70418 0
M  V30 10064 N 83.6195 3.31776 -3.22945 0
M  V30 10065 H 86.4585 6.54213 -5.71376 0
M  V30 10066 H 86.7305 5.30492 -4.44033 0
M  V30 10067 H 85.8625 4.55889 -6.76652 0
M  V30 10068 P 81.8995 4.23843 -7.83734 0
M  V30 10069 O 81.6795 4.19407 -9.29784 0
M  V30 10070 O 81.1095 5.24426 -7.09156 0
M  V30 10071 O 81.6495 2.7935 -7.20758 0
M  V30 10072 C 82.5895 1.7299 -7.50419 0
M  V30 10073 C 81.8595 0.406376 -7.57911 0
M  V30 10074 O 81.6495 -0.0897726 -6.21935 0
M  V30 10075 C 80.4595 0.447224 -8.1878 0
M  V30 10076 O 80.0695 -0.825065 -8.71101 0
M  V30 10077 C 79.5795 0.783801 -6.99623 0
M  V30 10078 C 80.2895 0.0619192 -5.85967 0
M  V30 10079 N 80.2395 0.7859 -4.56281 0
M  V30 10080 H 83.0785 1.93423 -8.4679 0
M  V30 10081 H 83.3505 1.68181 -6.71046 0
M  V30 10082 H 82.4825 -0.289041 -8.15388 0
M  V30 10083 P 78.5196 -1.17771 -8.83182 0
M  V30 10084 O 78.2996 -2.07206 -9.98732 0
M  V30 10085 O 77.7296 0.0743816 -8.81969 0
M  V30 10086 O 78.2696 -1.97652 -7.47304 0
M  V30 10087 C 79.2096 -3.01133 -7.08783 0
M  V30 10088 C 78.4796 -4.12613 -6.37049 0
M  V30 10089 O 78.2696 -3.72827 -4.97879 0
M  V30 10090 C 77.0796 -4.45085 -6.88694 0
M  V30 10091 O 76.6896 -5.7877 -6.5624 0
M  V30 10092 C 76.1996 -3.47817 -6.12078 0
M  V30 10093 C 76.9096 -3.39414 -4.77697 0
M  V30 10094 N 76.8596 -2.04615 -4.15333 0
M  V30 10095 H 79.6986 -3.41248 -7.98759 0
M  V30 10096 H 79.9706 -2.5837 -6.41742 0
M  V30 10097 H 79.1026 -5.02657 -6.42673 0
M  V30 10098 P 75.1396 -6.144 -6.45285 0
M  V30 10099 O 74.9196 -7.54673 -6.86199 0
M  V30 10100 O 74.3496 -5.12391 -7.179 0
M  V30 10101 O 74.8896 -5.99158 -4.88404 0
M  V30 10102 C 75.8296 -6.60062 -3.96313 0
M  V30 10103 C 75.0996 -7.08259 -2.72856 0
M  V30 10104 O 74.8896 -5.9427 -1.83651 0
M  V30 10105 C 73.6996 -7.65087 -2.94749 0
M  V30 10106 O 73.3096 -8.53963 -1.90717 0
M  V30 10107 C 72.8196 -6.41069 -2.90698 0
M  V30 10108 C 73.5296 -5.5528 -1.86931 0
M  V30 10109 N 73.4796 -4.09575 -2.15696 0
M  V30 10110 C 73.3296 -3.24249 -1.08435 0
M  V30 10111 O 73.2396 -3.63946 0.0628747 0
M  V30 10112 N 73.2896 -1.90009 -1.39973 0
M  V30 10113 C 73.3796 -1.34884 -2.65614 0
M  V30 10114 O 73.3296 -0.123716 -2.81728 0
M  V30 10115 C 73.5296 -2.3145 -3.71736 0
M  V30 10116 C 73.6396 -1.75913 -5.10438 0
M  V30 10117 C 73.5796 -3.63518 -3.44754 0
M  V30 10118 H 76.3206 -7.45402 -4.45526 0
M  V30 10119 H 76.5896 -5.86062 -3.67208 0
M  V30 10120 H 75.7226 -7.84412 -2.24479 0
M  V30 10121 H 73.0676 -5.73358 -0.888409 0
M  V30 10122 H 72.7886 -5.90877 -3.88583 0
M  V30 10123 H 71.7966 -6.65867 -2.58821 0
M  V30 10124 H 73.6306 -8.16248 -3.92006 0
M  V30 10125 H 73.7016 -4.34551 -4.26383 0
M  V30 10126 H 72.6716 -1.85471 -5.61775 0
M  V30 10127 H 74.4086 -2.31364 -5.66257 0
M  V30 10128 H 73.9206 -0.695936 -5.05229 0
M  V30 10129 H 73.1846 -1.26277 -0.63625 0
M  V30 10130 P 71.7596 -8.7635 -1.60911 0
M  V30 10131 O 71.5396 -10.1388 -1.11561 0
M  V30 10132 O 70.9696 -8.36503 -2.79617 0
M  V30 10133 O 71.5096 -7.71806 -0.42951 0
M  V30 10134 C 72.4496 -7.67148 0.673689 0
M  V30 10135 C 71.7196 -7.33374 1.95559 0
M  V30 10136 O 71.5096 -5.88721 2.00726 0
M  V30 10137 C 70.3196 -7.92526 2.10483 0
M  V30 10138 O 69.9296 -8.02971 3.47653 0
M  V30 10139 C 69.4396 -6.89602 1.41652 0
M  V30 10140 C 70.1496 -5.59201 1.75185 0
M  V30 10141 N 70.0996 -4.58301 0.657969 0
M  V30 10142 C 70.1796 -4.79019 -0.692603 0
M  V30 10143 N 70.1096 -3.69736 -1.38998 0
M  V30 10144 C 69.9596 -2.70474 -0.438135 0
M  V30 10145 C 69.8296 -1.30327 -0.538142 0
M  V30 10146 N 69.8196 -0.64304 -1.69192 0
M  V30 10147 N 69.7096 -0.611027 0.605183 0
M  V30 10148 C 69.7196 -1.27002 1.75953 0
M  V30 10149 N 69.8396 -2.56038 1.98546 0
M  V30 10150 C 69.9596 -3.22681 0.822541 0
M  V30 10151 H 72.9386 -8.65116 0.777161 0
M  V30 10152 H 73.2106 -6.9022 0.46725 0
M  V30 10153 H 72.3426 -7.66548 2.79458 0
M  V30 10154 H 69.6876 -5.16165 2.65183 0
M  V30 10155 H 69.4076 -7.06433 0.329384 0
M  V30 10156 H 68.4166 -6.90926 1.82021 0
M  V30 10157 H 70.2506 -8.90873 1.62657 0
M  V30 10158 H 70.2916 -5.77785 -1.13874 0
M  V30 10159 H 69.9106 -1.15585 -2.57991 0
M  V30 10160 H 69.7216 0.382989 -1.69835 0
M  V30 10161 H 69.6136 -0.653331 2.64449 0
M  V30 10162 P 68.3796 -8.03563 3.84925 0
M  V30 10163 O 68.1596 -8.85821 5.0569 0
M  V30 10164 O 67.5896 -8.41101 2.65469 0
M  V30 10165 O 68.1296 -6.4965 4.18908 0
M  V30 10166 C 69.0696 -5.81037 5.05421 0
M  V30 10167 C 68.3396 -4.78366 5.89277 0
M  V30 10168 O 68.1296 -3.58302 5.08433 0
M  V30 10169 C 66.9396 -5.17448 6.36119 0
M  V30 10170 O 66.5496 -4.45271 7.53232 0
M  V30 10171 C 66.0596 -4.74639 5.19936 0
M  V30 10172 C 66.7696 -3.49432 4.70418 0
M  V30 10173 N 66.7196 -3.31776 3.22945 0
M  V30 10174 H 69.5586 -6.54213 5.71376 0
M  V30 10175 H 69.8306 -5.30492 4.44033 0
M  V30 10176 H 68.9626 -4.55889 6.76652 0
M  V30 10177 P 64.9996 -4.23843 7.83734 0
M  V30 10178 O 64.7796 -4.19407 9.29784 0
M  V30 10179 O 64.2096 -5.24426 7.09156 0
M  V30 10180 O 64.7496 -2.7935 7.20758 0
M  V30 10181 C 65.6896 -1.7299 7.50419 0
M  V30 10182 C 64.9596 -0.406376 7.57911 0
M  V30 10183 O 64.7496 0.0897726 6.21935 0
M  V30 10184 C 63.5596 -0.447224 8.1878 0
M  V30 10185 O 63.1696 0.825065 8.71101 0
M  V30 10186 C 62.6796 -0.783801 6.99623 0
M  V30 10187 C 63.3896 -0.0619192 5.85967 0
M  V30 10188 N 63.3396 -0.790462 4.56202 0
M  V30 10189 H 66.1786 -1.93423 8.4679 0
M  V30 10190 H 66.4506 -1.68852 6.70877 0
M  V30 10191 H 65.5826 0.289041 8.15388 0
M  V30 10192 H 62.9276 0.927006 5.72848 0
M  V30 10193 H 62.6476 -1.86973 6.82036 0
M  V30 10194 H 61.6566 -0.403953 7.13357 0
M  V30 10195 H 63.4906 -1.20599 8.97534 0
M  V30 10196 P 61.6197 1.17771 8.83182 0
M  V30 10197 O 61.3997 2.07206 9.98732 0
M  V30 10198 O 60.8297 -0.0743816 8.81969 0
M  V30 10199 O 61.3697 1.97652 7.47304 0
M  V30 10200 C 62.3097 3.01133 7.08783 0
M  V30 10201 C 61.5797 4.12613 6.37049 0
M  V30 10202 O 61.3697 3.72827 4.97879 0
M  V30 10203 C 60.1797 4.45085 6.88694 0
M  V30 10204 O 59.7897 5.7877 6.5624 0
M  V30 10205 C 59.2997 3.47817 6.12078 0
M  V30 10206 C 60.0097 3.39414 4.77697 0
M  V30 10207 N 59.9597 2.04615 4.15333 0
M  V30 10208 C 60.0397 0.803897 4.75249 0
M  V30 10209 N 59.9597 -0.197615 3.91502 0
M  V30 10210 C 59.8197 0.413002 2.66823 0
M  V30 10211 C 59.6897 -0.157221 1.38007 0
M  V30 10212 N 59.5697 0.833136 0.390236 0
M  V30 10213 C 59.5697 2.19402 0.623885 0
M  V30 10214 N 59.4397 2.97622 -0.449677 0
M  V30 10215 N 59.6997 2.73005 1.83601 0
M  V30 10216 C 59.8197 1.78786 2.80935 0
M  V30 10217 H 62.7987 3.41248 7.98759 0
M  V30 10218 H 63.0707 2.5837 6.41742 0
M  V30 10219 H 62.2027 5.02657 6.42673 0
M  V30 10220 P 58.2397 6.144 6.45285 0
M  V30 10221 O 58.0197 7.54673 6.86199 0
M  V30 10222 O 57.4497 5.12391 7.179 0
M  V30 10223 O 57.9897 5.99158 4.88404 0
M  V30 10224 C 58.9297 6.60234 3.96415 0
M  V30 10225 C 58.1997 7.08259 2.72856 0
M  V30 10226 O 57.9897 5.9427 1.83651 0
M  V30 10227 C 56.7997 7.64886 2.9555 0
M  V30 10228 O 56.4097 8.53963 1.90717 0
M  V30 10229 C 55.9197 6.4116 2.90739 0
M  V30 10230 C 56.6297 5.55375 1.86963 0
M  V30 10231 N 56.5797 4.09664 2.15742 0
M  V30 10232 H 59.4187 7.45574 4.45629 0
M  V30 10233 H 59.6907 5.86232 3.67314 0
M  V30 10234 H 58.8227 7.84412 2.24479 0
M  V30 10235 P 54.8597 8.7635 1.60911 0
M  V30 10236 O 54.6397 10.1388 1.11561 0
M  V30 10237 O 54.0697 8.36503 2.79617 0
M  V30 10238 O 54.6097 7.71806 0.42951 0
M  V30 10239 C 55.5497 7.67148 -0.673689 0
M  V30 10240 C 54.8197 7.33374 -1.95559 0
M  V30 10241 O 54.6097 5.88721 -2.00726 0
M  V30 10242 C 53.4197 7.92526 -2.10483 0
M  V30 10243 O 53.0297 8.02971 -3.47653 0
M  V30 10244 C 52.5397 6.89602 -1.41652 0
M  V30 10245 C 53.2497 5.59201 -1.75185 0
M  V30 10246 N 53.1997 4.58301 -0.657969 0
M  V30 10247 H 56.0387 8.65116 -0.777161 0
M  V30 10248 H 56.3107 6.9022 -0.46725 0
M  V30 10249 H 55.4427 7.66548 -2.79458 0
M  V30 10250 H 52.7877 5.16165 -2.65183 0
M  V30 10251 H 52.5077 7.06433 -0.329384 0
M  V30 10252 H 51.5167 6.90926 -1.82021 0
M  V30 10253 H 53.3507 8.90873 -1.62657 0
M  V30 10254 P 51.4797 8.03563 -3.84925 0
M  V30 10255 O 51.2597 8.85821 -5.0569 0
M  V30 10256 O 50.6897 8.41101 -2.65469 0
M  V30 10257 O 51.2297 6.4965 -4.18908 0
M  V30 10258 C 52.1697 5.81037 -5.05421 0
M  V30 10259 C 51.4397 4.78366 -5.89277 0
M  V30 10260 O 51.2297 3.58302 -5.08433 0
M  V30 10261 C 50.0397 5.17448 -6.36119 0
M  V30 10262 O 49.6497 4.45271 -7.53232 0
M  V30 10263 C 49.1597 4.74639 -5.19936 0
M  V30 10264 C 49.8697 3.49432 -4.70418 0
M  V30 10265 N 49.8197 3.31776 -3.22945 0
M  V30 10266 H 52.6587 6.54213 -5.71376 0
M  V30 10267 H 52.9307 5.30492 -4.44033 0
M  V30 10268 H 52.0627 4.55889 -6.76652 0
M  V30 10269 P 48.0997 4.23843 -7.83734 0
M  V30 10270 O 47.8797 4.19407 -9.29784 0
M  V30 10271 O 47.3097 5.24426 -7.09156 0
M  V30 10272 O 47.8497 2.7935 -7.20758 0
M  V30 10273 C 48.7897 1.7299 -7.50419 0
M  V30 10274 C 48.0597 0.406376 -7.57911 0
M  V30 10275 O 47.8497 -0.0897726 -6.21935 0
M  V30 10276 C 46.6597 0.447224 -8.1878 0
M  V30 10277 O 46.2697 -0.825065 -8.71101 0
M  V30 10278 C 45.7797 0.783801 -6.99623 0
M  V30 10279 C 46.4897 0.0619192 -5.85967 0
M  V30 10280 N 46.4397 0.7859 -4.56281 0
M  V30 10281 H 49.2787 1.93423 -8.4679 0
M  V30 10282 H 49.5507 1.68181 -6.71046 0
M  V30 10283 H 48.6827 -0.289041 -8.15388 0
M  V30 10284 P 44.7198 -1.17771 -8.83182 0
M  V30 10285 O 44.4998 -2.07206 -9.98732 0
M  V30 10286 O 43.9298 0.0743816 -8.81969 0
M  V30 10287 O 44.4698 -1.97652 -7.47304 0
M  V30 10288 C 45.4098 -3.01133 -7.08783 0
M  V30 10289 C 44.6798 -4.12613 -6.37049 0
M  V30 10290 O 44.4698 -3.72827 -4.97879 0
M  V30 10291 C 43.2798 -4.45085 -6.88694 0
M  V30 10292 O 42.8898 -5.7877 -6.5624 0
M  V30 10293 C 42.3998 -3.47817 -6.12078 0
M  V30 10294 C 43.1098 -3.39414 -4.77697 0
M  V30 10295 N 43.0598 -2.04199 -4.15538 0
M  V30 10296 H 45.8988 -3.41248 -7.98759 0
M  V30 10297 H 46.1708 -2.57728 -6.42 0
M  V30 10298 H 45.3028 -5.02657 -6.42673 0
M  V30 10299 H 42.6478 -4.11708 -4.08956 0
M  V30 10300 H 42.3678 -2.49626 -6.61679 0
M  V30 10301 H 41.3768 -3.8662 -6.00862 0
M  V30 10302 H 43.2108 -4.29991 -7.97006 0
M  V30 10303 P 41.3398 -6.144 -6.45285 0
M  V30 10304 O 41.1198 -7.54673 -6.86199 0
M  V30 10305 O 40.5498 -5.12391 -7.179 0
M  V30 10306 O 41.0898 -5.99158 -4.88404 0
M  V30 10307 C 42.0298 -6.60234 -3.96415 0
M  V30 10308 C 41.2998 -7.08259 -2.72856 0
M  V30 10309 O 41.0898 -5.9427 -1.83651 0
M  V30 10310 C 39.8998 -7.64886 -2.9555 0
M  V30 10311 O 39.5098 -8.53963 -1.90717 0
M  V30 10312 C 39.0198 -6.4116 -2.90739 0
M  V30 10313 C 39.7298 -5.55375 -1.86963 0
M  V30 10314 N 39.6798 -4.09664 -2.15742 0
M  V30 10315 H 42.5188 -7.45574 -4.45629 0
M  V30 10316 H 42.7908 -5.86232 -3.67314 0
M  V30 10317 H 41.9228 -7.84412 -2.24479 0
M  V30 10318 P 37.9598 -8.7635 -1.60911 0
M  V30 10319 O 37.7398 -10.1388 -1.11561 0
M  V30 10320 O 37.1698 -8.36503 -2.79617 0
M  V30 10321 O 37.7098 -7.71806 -0.42951 0
M  V30 10322 C 38.6498 -7.67148 0.673689 0
M  V30 10323 C 37.9198 -7.33374 1.95559 0
M  V30 10324 O 37.7098 -5.88721 2.00726 0
M  V30 10325 C 36.5198 -7.92526 2.10483 0
M  V30 10326 O 36.1298 -8.02971 3.47653 0
M  V30 10327 C 35.6398 -6.89602 1.41652 0
M  V30 10328 C 36.3498 -5.59201 1.75185 0
M  V30 10329 N 36.2998 -4.58235 0.662552 0
M  V30 10330 H 39.1388 -8.65116 0.777161 0
M  V30 10331 H 39.4108 -6.90173 0.474152 0
M  V30 10332 H 38.5428 -7.66548 2.79458 0
M  V30 10333 P 34.5798 -8.03563 3.84925 0
M  V30 10334 O 34.3598 -8.85821 5.0569 0
M  V30 10335 O 33.7898 -8.41101 2.65469 0
M  V30 10336 O 34.3298 -6.4965 4.18908 0
M  V30 10337 C 35.2698 -5.81037 5.05421 0
M  V30 10338 C 34.5398 -4.78366 5.89277 0
M  V30 10339 O 34.3298 -3.58302 5.08433 0
M  V30 10340 C 33.1398 -5.17448 6.36119 0
M  V30 10341 O 32.7498 -4.45271 7.53232 0
M  V30 10342 C 32.2598 -4.74639 5.19936 0
M  V30 10343 C 32.9698 -3.49432 4.70418 0
M  V30 10344 N 32.9198 -3.31776 3.22945 0
M  V30 10345 H 35.7588 -6.54213 5.71376 0
M  V30 10346 H 36.0308 -5.30492 4.44033 0
M  V30 10347 H 35.1628 -4.55889 6.76652 0
M  V30 10348 P 31.1998 -4.23843 7.83734 0
M  V30 10349 O 30.9798 -4.19407 9.29784 0
M  V30 10350 O 30.4098 -5.24426 7.09156 0
M  V30 10351 O 30.9498 -2.7935 7.20758 0
M  V30 10352 C 31.8898 -1.72945 7.50224 0
M  V30 10353 C 31.1598 -0.406376 7.57911 0
M  V30 10354 O 30.9498 0.0897726 6.21935 0
M  V30 10355 C 29.7598 -0.438983 8.18724 0
M  V30 10356 O 29.3698 0.825065 8.71101 0
M  V30 10357 C 28.8798 -0.783689 6.99524 0
M  V30 10358 C 29.5898 -0.0619086 5.85867 0
M  V30 10359 N 29.5398 -0.78573 4.56183 0
M  V30 10360 C 29.3898 -0.0292889 3.41887 0
M  V30 10361 O 29.2998 1.18445 3.4419 0
M  V30 10362 N 29.3498 -0.744061 2.23964 0
M  V30 10363 C 29.4398 -2.10932 2.10362 0
M  V30 10364 O 29.3898 -2.64117 0.98825 0
M  V30 10365 C 29.5898 -2.8202 3.34994 0
M  V30 10366 C 29.6998 -4.31095 3.25037 0
M  V30 10367 C 29.6398 -2.15547 4.52261 0
M  V30 10368 H 32.3808 -1.93379 8.46595 0
M  V30 10369 H 32.6498 -1.68132 6.70852 0
M  V30 10370 H 31.7828 0.289041 8.15388 0
M  V30 10371 H 29.1278 0.926847 5.72749 0
M  V30 10372 H 28.8488 -1.86973 6.82036 0
M  V30 10373 H 27.8568 -0.403896 7.13257 0
M  V30 10374 H 29.6908 -1.20585 8.97435 0
M  V30 10375 H 29.7618 -2.71231 5.45042 0
M  V30 10376 H 28.7318 -4.76966 3.49992 0
M  V30 10377 H 30.4688 -4.67047 3.95024 0
M  V30 10378 H 29.9808 -4.58996 2.22312 0
M  V30 10379 H 29.2448 -0.214893 1.39758 0
M  V30 10380 P 27.8199 1.17771 8.83182 0
M  V30 10381 O 27.5999 2.07206 9.98732 0
M  V30 10382 O 27.0299 -0.0743816 8.81969 0
M  V30 10383 O 27.5699 1.97652 7.47304 0
M  V30 10384 C 28.5099 3.01133 7.08783 0
M  V30 10385 C 27.7799 4.12613 6.37049 0
M  V30 10386 O 27.5699 3.72827 4.97879 0
M  V30 10387 C 26.3799 4.45085 6.88694 0
M  V30 10388 O 25.9899 5.7877 6.5624 0
M  V30 10389 C 25.4999 3.47817 6.12078 0
M  V30 10390 C 26.2099 3.39414 4.77697 0
M  V30 10391 N 26.1599 2.04615 4.15333 0
M  V30 10392 H 28.9989 3.41248 7.98759 0
M  V30 10393 H 29.2709 2.5837 6.41742 0
M  V30 10394 H 28.4029 5.02657 6.42673 0
M  V30 10395 P 24.4399 6.144 6.45285 0
M  V30 10396 O 24.2199 7.54673 6.86199 0
M  V30 10397 O 23.6499 5.12391 7.179 0
M  V30 10398 O 24.1899 5.99158 4.88404 0
M  V30 10399 C 25.1299 6.60234 3.96415 0
M  V30 10400 C 24.3999 7.08259 2.72856 0
M  V30 10401 O 24.1899 5.9427 1.83651 0
M  V30 10402 C 22.9999 7.64886 2.9555 0
M  V30 10403 O 22.6099 8.53963 1.90717 0
M  V30 10404 C 22.1199 6.4116 2.90739 0
M  V30 10405 C 22.8299 5.55375 1.86963 0
M  V30 10406 N 22.7799 4.09448 2.16152 0
M  V30 10407 C 22.8599 3.46824 3.37593 0
M  V30 10408 N 22.7899 2.17422 3.29777 0
M  V30 10409 C 22.6399 1.93065 1.94427 0
M  V30 10410 C 22.5099 0.738053 1.20141 0
M  V30 10411 N 22.4999 -0.474256 1.74676 0
M  V30 10412 N 22.3899 0.850049 -0.13045 0
M  V30 10413 C 22.3999 2.06169 -0.676992 0
M  V30 10414 N 22.5199 3.23842 -0.101312 0
M  V30 10415 C 22.6399 3.09402 1.23122 0
M  V30 10416 H 25.6189 7.45574 4.45629 0
M  V30 10417 H 25.8909 5.85864 3.679 0
M  V30 10418 H 25.0229 7.84412 2.24479 0
M  V30 10419 H 22.3679 5.73457 0.888562 0
M  V30 10420 H 22.0879 5.90877 3.88583 0
M  V30 10421 H 21.0969 6.6596 2.58858 0
M  V30 10422 H 22.9309 8.16339 3.92049 0
M  V30 10423 H 22.9719 4.00505 4.3174 0
M  V30 10424 H 22.5909 -0.581337 2.76658 0
M  V30 10425 H 22.4019 -1.30811 1.14888 0
M  V30 10426 H 22.2939 2.08295 -1.75542 0
M  V30 10427 P 21.0599 8.7635 1.60911 0
M  V30 10428 O 20.8399 10.1388 1.11561 0
M  V30 10429 O 20.2699 8.36503 2.79617 0
M  V30 10430 O 20.8099 7.71806 0.42951 0
M  V30 10431 C 21.7499 7.66948 -0.673514 0
M  V30 10432 C 21.0199 7.33374 -1.95559 0
M  V30 10433 O 20.8099 5.88721 -2.00726 0
M  V30 10434 C 19.6199 7.92218 -2.1125 0
M  V30 10435 O 19.2299 8.02971 -3.47653 0
M  V30 10436 C 18.7399 6.89504 -1.41631 0
M  V30 10437 C 19.4499 5.59106 -1.75155 0
M  V30 10438 N 19.3999 4.58136 -0.662409 0
M  V30 10439 C 19.2499 3.26059 -1.02863 0
M  V30 10440 O 19.1599 2.90743 -2.19009 0
M  V30 10441 N 19.2099 2.35995 0.0155585 0
M  V30 10442 C 19.2999 2.65248 1.35603 0
M  V30 10443 O 19.2499 1.75605 2.20651 0
M  V30 10444 C 19.4499 4.05747 1.64698 0
M  V30 10445 C 19.5599 4.42345 3.09553 0
M  V30 10446 C 19.4999 4.96734 0.652411 0
M  V30 10447 H 22.2409 8.64917 -0.776982 0
M  V30 10448 H 22.5099 6.89974 -0.474015 0
M  V30 10449 H 21.6429 7.66548 -2.79458 0
M  V30 10450 H 18.9879 5.16076 -2.65138 0
M  V30 10451 H 18.7089 7.06433 -0.329384 0
M  V30 10452 H 17.7169 6.90829 -1.81996 0
M  V30 10453 H 19.5509 8.90774 -1.62639 0
M  V30 10454 H 19.6219 6.02181 0.895285 0
M  V30 10455 H 18.5919 4.80252 3.45468 0
M  V30 10456 H 20.3289 5.20015 3.22119 0
M  V30 10457 H 19.8409 3.53269 3.67833 0
M  V30 10458 H 19.1049 1.39558 -0.227499 0
M  V30 10459 P 17.6799 8.03563 -3.84925 0
M  V30 10460 O 17.4599 8.85821 -5.0569 0
M  V30 10461 O 16.8899 8.41101 -2.65469 0
M  V30 10462 O 17.4299 6.4965 -4.18908 0
M  V30 10463 C 18.3699 5.81037 -5.05421 0
M  V30 10464 C 17.6399 4.78366 -5.89277 0
M  V30 10465 O 17.4299 3.58302 -5.08433 0
M  V30 10466 C 16.2399 5.17448 -6.36119 0
M  V30 10467 O 15.8499 4.45271 -7.53232 0
M  V30 10468 C 15.3599 4.74639 -5.19936 0
M  V30 10469 C 16.0699 3.49432 -4.70418 0
M  V30 10470 N 16.0199 3.31776 -3.22945 0
M  V30 10471 H 18.8589 6.54213 -5.71376 0
M  V30 10472 H 19.1309 5.30492 -4.44033 0
M  V30 10473 H 18.2629 4.55889 -6.76652 0
M  V30 10474 P 14.2999 4.23843 -7.83734 0
M  V30 10475 O 14.0799 4.19407 -9.29784 0
M  V30 10476 O 13.5099 5.24426 -7.09156 0
M  V30 10477 O 14.0499 2.7935 -7.20758 0
M  V30 10478 C 14.9899 1.7299 -7.50419 0
M  V30 10479 C 14.2599 0.406376 -7.57911 0
M  V30 10480 O 14.0499 -0.0897726 -6.21935 0
M  V30 10481 C 12.8599 0.447224 -8.1878 0
M  V30 10482 O 12.4699 -0.825065 -8.71101 0
M  V30 10483 C 11.9799 0.783801 -6.99623 0
M  V30 10484 C 12.6899 0.0619192 -5.85967 0
M  V30 10485 N 12.6399 0.790462 -4.56202 0
M  V30 10486 C 12.7199 2.13895 -4.34171 0
M  V30 10487 N 12.6499 2.46449 -3.08687 0
M  V30 10488 C 12.4999 1.2525 -2.43697 0
M  V30 10489 C 12.3699 0.914535 -1.07318 0
M  V30 10490 N 12.3599 1.80782 -0.0887348 0
M  V30 10491 N 12.2499 -0.386745 -0.768133 0
M  V30 10492 C 12.2599 -1.28096 -1.75159 0
M  V30 10493 N 12.3799 -1.09708 -3.04861 0
M  V30 10494 C 12.4999 0.214857 -3.32306 0
M  V30 10495 H 15.4789 1.93423 -8.4679 0
M  V30 10496 H 15.7509 1.68852 -6.70877 0
M  V30 10497 H 14.8829 -0.289041 -8.15388 0
M  V30 10498 H 12.2279 -0.927006 -5.72848 0
M  V30 10499 H 11.9479 1.86973 -6.82036 0
M  V30 10500 H 10.9569 0.403953 -7.13357 0
M  V30 10501 H 12.7909 1.20599 -8.97534 0
M  V30 10502 H 12.8319 2.86846 -5.14318 0
M  V30 10503 H 12.4509 2.81082 -0.302037 0
M  V30 10504 H 12.2619 1.49688 0.889064 0
M  V30 10505 H 12.1539 -2.31317 -1.43855 0
M  V30 10506 P 10.92 -1.17771 -8.83182 0
M  V30 10507 O 10.7 -2.07206 -9.98732 0
M  V30 10508 O 10.13 0.0743816 -8.81969 0
M  V30 10509 O 10.67 -1.97652 -7.47304 0
M  V30 10510 C 11.61 -3.01133 -7.08783 0
M  V30 10511 C 10.88 -4.12613 -6.37049 0
M  V30 10512 O 10.67 -3.72827 -4.97879 0
M  V30 10513 C 9.47996 -4.45085 -6.88694 0
M  V30 10514 O 9.08996 -5.7877 -6.5624 0
M  V30 10515 C 8.59996 -3.47817 -6.12078 0
M  V30 10516 C 9.30996 -3.39414 -4.77697 0
M  V30 10517 N 9.25996 -2.04615 -4.15333 0
M  V30 10518 H 12.099 -3.41248 -7.98759 0
M  V30 10519 H 12.371 -2.5837 -6.41742 0
M  V30 10520 H 11.503 -5.02657 -6.42673 0
M  V30 10521 P 7.53998 -6.144 -6.45285 0
M  V30 10522 O 7.31998 -7.54673 -6.86199 0
M  V30 10523 O 6.74998 -5.12391 -7.179 0
M  V30 10524 O 7.28998 -5.99158 -4.88404 0
M  V30 10525 C 8.22998 -6.60062 -3.96313 0
M  V30 10526 C 7.49998 -7.08259 -2.72856 0
M  V30 10527 O 7.28998 -5.9427 -1.83651 0
M  V30 10528 C 6.09998 -7.65087 -2.94749 0
M  V30 10529 O 5.70998 -8.53963 -1.90717 0
M  V30 10530 C 5.21998 -6.41069 -2.90698 0
M  V30 10531 C 5.92998 -5.5528 -1.86931 0
M  V30 10532 N 5.87998 -4.09575 -2.15696 0
M  V30 10533 C 5.72998 -3.24249 -1.08435 0
M  V30 10534 O 5.63998 -3.63946 0.0628747 0
M  V30 10535 N 5.68998 -1.90009 -1.39973 0
M  V30 10536 C 5.77998 -1.34884 -2.65614 0
M  V30 10537 C 5.92998 -2.3145 -3.71736 0
M  V30 10538 C 5.97998 -3.63518 -3.44754 0
M  V30 10539 H 8.72098 -7.45402 -4.45526 0
M  V30 10540 H 8.98998 -5.86062 -3.67208 0
M  V30 10541 H 8.12298 -7.84412 -2.24479 0
M  V30 10542 H 5.46798 -5.73358 -0.888409 0
M  V30 10543 H 5.18898 -5.90877 -3.88583 0
M  V30 10544 H 4.19698 -6.65867 -2.58821 0
M  V30 10545 H 6.03098 -8.16248 -3.92006 0
M  V30 10546 H 6.10198 -4.34551 -4.26383 0
M  V30 10547 P 4.16 -8.7635 -1.60911 0
M  V30 10548 O 3.94 -10.1388 -1.11561 0
M  V30 10549 O 3.37 -8.36503 -2.79617 0
M  V30 10550 O 3.91 -7.71806 -0.42951 0
M  V30 10551 C 4.85 -7.67148 0.673689 0
M  V30 10552 C 4.12 -7.33374 1.95559 0
M  V30 10553 O 3.91 -5.88721 2.00726 0
M  V30 10554 C 2.72 -7.92526 2.10483 0
M  V30 10555 O 2.33 -8.02971 3.47653 0
M  V30 10556 C 1.84 -6.89602 1.41652 0
M  V30 10557 C 2.55 -5.59201 1.75185 0
M  V30 10558 N 2.5 -4.58235 0.662552 0
M  V30 10559 H 5.339 -8.65116 0.777161 0
M  V30 10560 H 5.611 -6.90173 0.474152 0
M  V30 10561 H 4.743 -7.66548 2.79458 0
M  V30 10562 H 1.613 -8.66322 3.55694 0
M  V30 END ATOM
M  V30 BEGIN BOND
M  V30 END BOND
M  V30 END CTAB
M  END
$$$$
