drugbank_target|P48039 Melatonin receptor type 1A (DB00980; DB01065; DB02709; DB06594; DB09071)
 OpenBabel12092119333D

  0  0  0     0  0            999 V3000
M  V30 BEGIN CTAB
M  V30 COUNTS 5654 5725 0 0 0
M  V30 BEGIN ATOM
M  V30 1 H -0.908 1.98254 -0.117106 0
M  V30 2 N 0 1.576 0 0
M  V30 3 C 0.933 2.03868 1.02534 0
M  V30 4 C 1.911 0.928543 1.3348 0
M  V30 5 O 3.095 1.19667 1.45644 0
M  V30 6 C 0.222 2.43627 2.35294 0
M  V30 7 C -0.732 3.65373 2.2001 0
M  V30 8 S 0.101 5.13292 1.52614 0
M  V30 9 C 1.257 5.56322 2.86805 0
M  V30 10 H 1.49 2.90518 0.631377 0
M  V30 11 H -0.977 1.52953 0.210867 0
M  V30 12 H 0.981 2.67203 3.11629 0
M  V30 13 H -0.358 1.57376 2.7183 0
M  V30 14 H -1.165 3.90944 3.18086 0
M  V30 15 H -1.563 3.418 1.51819 0
M  V30 16 H 0.729 5.58782 3.83104 0
M  V30 17 H 1.672 6.56266 2.65933 0
M  V30 18 H 2.08 4.83886 2.90714 0
M  V30 19 N 1.4781 -0.272755 1.55222 0
M  V30 20 C 2.4101 -1.35946 1.8453 0
M  V30 21 C 3.4231 -1.45525 0.729818 0
M  V30 22 O 4.6121 -1.47337 1.00767 0
M  V30 23 C 1.7121 -2.74069 1.99347 0
M  V30 24 C 0.8851 -2.87079 3.30007 0
M  V30 25 C -0.0559 -4.05879 3.34886 0
M  V30 26 O -1.0299 -3.96626 4.08261 0
M  V30 27 N 0.1721 -5.17857 2.62307 0
M  V30 28 H 2.9371 -1.11149 2.78327 0
M  V30 29 H 0.4981 -0.462869 1.55142 0
M  V30 30 H 2.4901 -3.51838 1.99981 0
M  V30 31 H 1.0601 -2.91688 1.12415 0
M  V30 32 H 0.2801 -1.96193 3.41909 0
M  V30 33 H 1.5681 -2.92701 4.16177 0
M  V30 34 H 0.9661 -5.28261 2.02377 0
M  V30 35 H -0.4769 -5.93855 2.68663 0
M  V30 36 N 2.9562 -1.48159 -0.537278 0
M  V30 37 C 4.2042 -1.55497 -1.29094 0
M  V30 38 C 4.5252 -0.227454 -1.93669 0
M  V30 39 O 3.7952 0.750386 -1.80959 0
M  V30 40 H 2.3752 -0.572832 -0.47945 0
M  V30 41 H 5.0372 -1.84579 -0.625818 0
M  V30 42 H 4.1332 -2.33216 -2.07405 0
M  V30 43 N 4.4343 0.785586 -1.36625 0
M  V30 44 C 5.3823 1.91978 -1.31329 0
M  V30 45 C 6.3763 1.68162 -0.204416 0
M  V30 46 O 7.5823 1.76122 -0.371645 0
M  V30 47 H 3.9573 0.631087 -0.408942 0
M  V30 48 H 5.9283 1.93562 -2.27104 0
M  V30 49 C 4.6773 3.29055 -1.12329 0
M  V30 50 H 4.0003 3.4795 -1.96903 0
M  V30 51 H 5.4403 4.08756 -1.12671 0
M  V30 52 C 3.8993 3.36461 0.171861 0
M  V30 53 O 4.4293 3.84576 1.16035 0
M  V30 54 N 2.6353 2.89782 0.217846 0
M  V30 55 H 2.1823 2.50819 -0.587183 0
M  V30 56 H 2.1403 2.95119 1.08408 0
M  V30 57 N 5.9124 1.20967 1.01018 0
M  V30 58 C 7.1604 1.02172 1.74371 0
M  V30 59 C 7.4814 -0.446414 1.89821 0
M  V30 60 O 6.7514 -1.32234 1.44537 0
M  V30 61 H 5.3314 0.375066 0.646014 0
M  V30 62 H 7.9934 1.52187 1.21758 0
M  V30 63 H 7.0894 1.48538 2.74487 0
M  V30 64 N 7.3905 -1.2043 1.01659 0
M  V30 65 C 8.6155 -1.94318 0.724942 0
M  V30 66 C 9.0405 -1.74266 -0.708034 0
M  V30 67 O 8.3985 -1.03694 -1.48719 0
M  V30 68 C 8.4465 -3.44486 1.06591 0
M  V30 69 O 7.5505 -4.12017 0.177599 0
M  V30 70 H 6.8915 -0.60708 0.26898 0
M  V30 71 H 9.4215 -1.52861 1.35995 0
M  V30 72 H 9.4315 -3.95106 1.01762 0
M  V30 73 H 8.1065 -3.58404 2.10997 0
M  V30 74 H 6.6835 -3.71821 0.283421 0
M  V30 75 N 8.8686 -0.792821 -1.36206 0
M  V30 76 C 9.8316 -0.199459 -2.2833 0
M  V30 77 C 10.8316 0.605189 -1.48977 0
M  V30 78 O 12.0216 0.425685 -1.68919 0
M  V30 79 C 9.1536 0.723523 -3.33134 0
M  V30 80 H 10.3466 -1.01181 -2.82316 0
M  V30 81 H 7.8996 -0.562485 -1.45828 0
M  V30 82 H 8.6346 1.56008 -2.84309 0
M  V30 83 H 8.4196 0.148436 -3.91819 0
M  V30 84 H 9.9096 1.13344 -4.01924 0
M  V30 85 N 10.3467 1.47872 -0.545128 0
M  V30 86 C 11.2767 2.32661 0.197793 0
M  V30 87 C 12.2577 1.43041 0.920504 0
M  V30 88 O 13.4427 1.71912 0.90333 0
M  V30 89 C 10.5727 3.24569 1.23582 0
M  V30 90 C 9.5267 4.23333 0.630323 0
M  V30 91 C 8.8527 5.0448 1.77211 0
M  V30 92 C 10.1527 5.20704 -0.407974 0
M  V30 93 H 11.8467 2.95024 -0.510045 0
M  V30 94 H 9.3927 1.4187 -0.246731 0
M  V30 95 H 11.3457 3.8272 1.76362 0
M  V30 96 H 10.0697 2.60236 1.97344 0
M  V30 97 H 8.7287 3.6639 0.123922 0
M  V30 98 H 8.3767 4.36561 2.49847 0
M  V30 99 H 8.0767 5.71339 1.37281 0
M  V30 100 H 9.6007 5.65487 2.3034 0
M  V30 101 H 11.0147 5.7329 0.033305 0
M  V30 102 H 9.4117 5.95699 -0.725486 0
M  V30 103 H 10.4817 4.66917 -1.30828 0
M  V30 104 N 11.8248 0.280983 1.55075 0
M  V30 105 C 13.2358 -0.215629 1.85451 0
M  V30 106 C 13.5868 -1.54991 1.203 0
M  V30 107 O 12.7118 -2.10699 0.493435 0
M  V30 108 C 13.3068 -0.398026 3.36454 0
M  V30 109 C 11.8658 -0.838866 3.66933 0
M  V30 110 C 11.0128 0.064458 2.77225 0
M  V30 111 H 13.9638 0.502601 1.50531 0
M  V30 112 H 13.9848 -1.23569 3.59876 0
M  V30 113 H 13.4968 0.573241 3.83843 0
M  V30 114 H 11.5978 -1.8214 3.25048 0
M  V30 115 H 11.7108 -0.672123 4.74362 0
M  V30 116 H 10.0748 -0.452863 2.50642 0
M  V30 117 H 10.8578 1.03172 3.2743 0
M  V30 118 N 13.3029 -1.57598 0.00835791 0
M  V30 119 C 14.2509 -2.10078 -0.998508 0
M  V30 120 C 15.2449 -1.02262 -1.35051 0
M  V30 121 O 16.4509 -1.20719 -1.33518 0
M  V30 122 H 12.8259 -0.670903 -0.339696 0
M  V30 123 H 14.7969 -2.93648 -0.530398 0
M  V30 124 C 13.5459 -2.62615 -2.27879 0
M  V30 125 H 12.8689 -3.45213 -2.01662 0
M  V30 126 H 14.3089 -3.03004 -2.96588 0
M  V30 127 C 12.7679 -1.54407 -2.99433 0
M  V30 128 O 13.2979 -0.931812 -3.90743 0
M  V30 129 N 11.5039 -1.2695 -2.61404 0
M  V30 130 H 11.0509 -1.76924 -1.87232 0
M  V30 131 H 11.0089 -0.547704 -3.09593 0
M  V30 132 N 14.781 0.264519 -1.55364 0
M  V30 133 C 15.744 1.31046 -1.88042 0
M  V30 134 C 16.744 1.41943 -0.755569 0
M  V30 135 O 17.934 1.40947 -1.02369 0
M  V30 136 C 15.066 2.69067 -2.09323 0
M  V30 137 H 16.259 1.03297 -2.81549 0
M  V30 138 H 13.812 0.502989 -1.47986 0
M  V30 139 H 14.547 3.01982 -1.18226 0
M  V30 140 H 14.332 2.62542 -2.91229 0
M  V30 141 H 15.822 3.44623 -2.35848 0
M  V30 142 N 16.2591 1.48442 0.529413 0
M  V30 143 C 17.4841 1.60406 1.31471 0
M  V30 144 C 17.9091 0.264738 1.86228 0
M  V30 145 O 17.2671 -0.763668 1.64432 0
M  V30 146 C 17.3151 2.65419 2.44101 0
M  V30 147 O 16.4191 2.22618 3.47153 0
M  V30 148 H 15.7601 0.537863 0.389357 0
M  V30 149 H 18.2901 1.94432 0.636965 0
M  V30 150 H 18.3001 2.86709 2.90279 0
M  V30 151 H 16.9751 3.62652 2.03608 0
M  V30 152 H 15.5521 2.11543 3.0709 0
M  V30 153 N 17.7372 -0.778329 1.37039 0
M  V30 154 C 18.6692 -1.90034 1.2814 0
M  V30 155 C 19.6822 -1.61585 0.198558 0
M  V30 156 O 20.8712 -1.72625 0.454175 0
M  V30 157 C 17.9712 -3.25108 0.956968 0
M  V30 158 C 17.1442 -3.81253 2.14394 0
M  V30 159 C 16.2032 -4.94789 1.79082 0
M  V30 160 O 15.2292 -5.10721 2.51301 0
M  V30 161 N 16.4312 -5.75878 0.731043 0
M  V30 162 H 19.1962 -1.98186 2.24816 0
M  V30 163 H 16.7572 -0.957129 1.30578 0
M  V30 164 H 18.7492 -3.9857 0.701701 0
M  V30 165 H 17.3192 -3.125 0.0789812 0
M  V30 166 H 16.5392 -2.99647 2.56135 0
M  V30 167 H 17.8272 -4.15495 2.93668 0
M  V30 168 H 17.2252 -5.65547 0.131618 0
M  V30 169 H 15.7822 -6.49596 0.535622 0
M  V30 170 N 19.2153 -1.21501 -1.00376 0
M  V30 171 C 20.6263 -1.03146 -1.55621 0
M  V30 172 C 20.9773 0.408375 -1.91903 0
M  V30 173 O 20.1023 1.29177 -1.73616 0
M  V30 174 C 20.6973 -1.86612 -2.82775 0
M  V30 175 C 19.2563 -1.72586 -3.34501 0
M  V30 176 C 18.4033 -1.83747 -2.07683 0
M  V30 177 H 21.3543 -1.35505 -0.826081 0
M  V30 178 H 21.3753 -1.3771 -3.54706 0
M  V30 179 H 20.8873 -2.91399 -2.56336 0
M  V30 180 H 18.9883 -0.704877 -3.65872 0
M  V30 181 H 19.1013 -2.54623 -4.05837 0
M  V30 182 H 17.4653 -1.27069 -2.20739 0
M  V30 183 H 18.2483 -2.90044 -1.83655 0
M  V30 184 N 20.6934 1.19889 -1.02296 0
M  V30 185 C 21.9394 1.89701 -0.717033 0
M  V30 186 C 22.2724 1.7905 0.751989 0
M  V30 187 O 21.5474 1.17891 1.547 0
M  V30 188 C 21.8304 3.40858 -1.16136 0
M  V30 189 C 21.6834 3.60411 -2.69117 0
M  V30 190 C 23.0024 4.33876 -0.737549 0
M  V30 191 H 20.1214 0.688874 -0.261957 0
M  V30 192 H 22.7634 1.41154 -1.27183 0
M  V30 193 H 20.9134 3.82335 -0.689342 0
M  V30 194 H 22.5854 3.28145 -3.2422 0
M  V30 195 H 20.8284 3.03665 -3.0979 0
M  V30 196 H 21.4994 4.66396 -2.95261 0
M  V30 197 H 23.9754 4.00081 -1.14344 0
M  V30 198 H 22.8514 5.38242 -1.0764 0
M  V30 199 H 23.1124 4.40628 0.360436 0
M  V30 200 N 22.1715 0.800033 1.35784 0
M  V30 201 C 23.1015 0.220184 2.3246 0
M  V30 202 C 24.0825 -0.65073 1.57161 0
M  V30 203 O 25.2675 -0.582359 1.85263 0
M  V30 204 C 22.3975 -0.637353 3.41402 0
M  V30 205 C 21.3515 0.134531 4.27789 0
M  V30 206 C 20.6775 -0.844285 5.27992 0
M  V30 207 C 21.9775 1.32979 5.05088 0
M  V30 208 H 23.6715 1.02787 2.81203 0
M  V30 209 H 21.2175 0.495717 1.35199 0
M  V30 210 H 23.1705 -1.05302 4.08031 0
M  V30 211 H 21.8945 -1.47785 2.91251 0
M  V30 212 H 20.5535 0.531296 3.6273 0
M  V30 213 H 20.2015 -1.68011 4.74111 0
M  V30 214 H 19.9015 -0.332184 5.8666 0
M  V30 215 H 21.4255 -1.2583 5.97494 0
M  V30 216 H 22.8395 0.98934 5.64699 0
M  V30 217 H 21.2365 1.77593 5.7322 0
M  V30 218 H 22.3065 2.11978 4.36111 0
M  V30 219 N 23.6496 -1.47581 0.552962 0
M  V30 220 C 25.0656 -1.5818 0.212424 0
M  V30 221 C 25.2656 -1.55213 -1.28496 0
M  V30 222 O 24.3216 -1.45329 -2.06484 0
M  V30 223 C 25.6346 -2.88865 0.835318 0
M  V30 224 C 27.1826 -3.0244 0.806156 0
M  V30 225 C 27.6576 -4.35819 1.40804 0
M  V30 226 N 29.1486 -4.42444 1.37103 0
M  V30 227 C 29.8836 -5.44202 1.80641 0
M  V30 228 N 29.3796 -6.52795 2.32015 0
M  V30 229 N 31.1726 -5.35222 1.71738 0
M  V30 230 H 23.3236 -1.47753 1.52587 0
M  V30 231 H 25.5866 -0.702941 0.636064 0
M  V30 232 H 25.2926 -2.9676 1.88749 0
M  V30 233 H 25.1666 -3.7579 0.325848 0
M  V30 234 H 27.5536 -2.94144 -0.237317 0
M  V30 235 H 27.6346 -2.17068 1.35334 0
M  V30 236 H 27.2786 -4.44871 2.45056 0
M  V30 237 H 27.2086 -5.19916 0.836338 0
M  V30 238 H 29.6996 -3.6456 0.995202 0
M  V30 239 H 30.0126 -7.26609 2.63171 0
M  V30 240 H 28.3576 -6.53696 2.36023 0
M  V30 241 H 31.5486 -4.49284 1.31382 0
M  V30 242 H 31.7216 -6.14389 2.05987 0
M  V30 243 N 25.1277 -0.289203 -1.54924 0
M  V30 244 C 26.3757 0.322879 -1.99504 0
M  V30 245 C 26.6967 1.55313 -1.1791 0
M  V30 246 O 25.9667 1.94001 -0.272097 0
M  V30 247 H 24.5467 0.122291 -0.736922 0
M  V30 248 H 27.2087 -0.397802 -1.90797 0
M  V30 249 H 26.3047 0.603061 -3.06218 0
M  V30 250 N 26.6058 1.57591 -0.0167156 0
M  V30 251 C 27.8828 1.82547 0.702564 0
M  V30 252 C 28.2628 0.898018 1.91047 0
M  V30 253 O 27.6108 -0.0493456 2.28447 0
M  V30 254 C 27.8208 3.31459 1.09251 0
M  V30 255 C 29.1688 3.97622 1.48937 0
M  V30 256 O 30.1928 3.35881 1.18584 0
M  V30 257 O 29.0518 5.06415 2.05442 0
M  V30 258 H 26.1458 0.752268 0.343544 0
M  V30 259 H 28.6918 1.69644 -0.0434495 0
M  V30 260 H 27.4638 3.9061 0.23227 0
M  V30 261 H 27.0868 3.49422 1.89709 0
M  V30 262 N 28.0839 -0.256276 1.55502 0
M  V30 263 C 29.3319 -0.983672 1.76545 0
M  V30 264 C 29.6529 -1.86206 0.578982 0
M  V30 265 O 28.9229 -1.91656 -0.405577 0
M  V30 266 H 27.5029 -0.366191 0.651086 0
M  V30 267 H 30.1649 -0.276479 1.92929 0
M  V30 268 H 29.2609 -1.61087 2.67315 0
M  V30 269 N 29.562 -1.4872 -0.521534 0
M  V30 270 C 30.525 -1.63379 -1.60748 0
M  V30 271 C 31.525 -0.50661 -1.52611 0
M  V30 272 O 32.715 -0.772601 -1.5613 0
M  V30 273 C 29.847 -1.61192 -3.00383 0
M  V30 274 H 31.04 -2.60217 -1.49087 0
M  V30 275 H 28.593 -1.37444 -0.744235 0
M  V30 276 H 29.328 -0.65863 -3.17541 0
M  V30 277 H 29.113 -2.43032 -3.07698 0
M  V30 278 H 30.603 -1.7466 -3.7932 0
M  V30 279 N 31.0401 0.771051 -1.3745 0
M  V30 280 C 32.4561 1.07171 -1.18265 0
M  V30 281 C 32.6561 2.01491 -0.019287 0
M  V30 282 O 31.7121 2.44244 0.640408 0
M  V30 283 C 33.0251 1.66854 -2.50161 0
M  V30 284 C 34.5731 1.79109 -2.56689 0
M  V30 285 C 35.0481 2.42205 -3.88717 0
M  V30 286 N 36.5391 2.49655 -3.90162 0
M  V30 287 C 37.2741 2.9933 -4.8907 0
M  V30 288 N 36.7701 3.49172 -5.98374 0
M  V30 289 N 38.5631 2.9821 -4.76474 0
M  V30 290 H 30.7141 0.144796 -2.11906 0
M  V30 291 H 32.9771 0.126863 -0.939473 0
M  V30 292 H 32.6831 1.05017 -3.35655 0
M  V30 293 H 32.5571 2.6614 -2.673 0
M  V30 294 H 34.9441 2.40077 -1.71601 0
M  V30 295 H 35.0251 0.785757 -2.43433 0
M  V30 296 H 34.6691 1.81875 -4.74219 0
M  V30 297 H 34.5991 3.43345 -3.99276 0
M  V30 298 H 37.0901 2.14383 -3.11205 0
M  V30 299 H 37.4031 3.8548 -6.69795 0
M  V30 300 H 35.7481 3.47275 -6.02018 0
M  V30 301 H 38.9391 2.58572 -3.90203 0
M  V30 302 H 39.1121 3.36613 -5.53711 0
M  V30 303 N 32.5182 1.22032 0.997298 0
M  V30 304 C 33.9292 1.0397 1.55071 0
M  V30 305 C 34.2802 -0.398192 1.92117 0
M  V30 306 O 33.4052 -1.28254 1.74298 0
M  V30 307 C 34.0002 1.88109 2.81781 0
M  V30 308 C 32.5592 1.74357 3.33581 0
M  V30 309 C 31.7062 1.84846 2.06706 0
M  V30 310 H 34.6572 1.35941 0.818883 0
M  V30 311 H 34.6782 1.39589 3.53971 0
M  V30 312 H 34.1902 2.92754 2.54787 0
M  V30 313 H 32.2912 0.72427 3.65493 0
M  V30 314 H 32.4042 2.56772 4.04481 0
M  V30 315 H 30.7682 1.28238 2.20062 0
M  V30 316 H 31.5512 2.91014 1.82114 0
M  V30 317 N 33.9963 -1.19345 1.0293 0
M  V30 318 C 35.2213 -1.93538 0.745511 0
M  V30 319 C 35.6463 -1.75007 -0.689511 0
M  V30 320 O 35.0043 -1.05265 -1.47611 0
M  V30 321 C 35.0523 -3.43336 1.10239 0
M  V30 322 O 34.1563 -4.11806 0.221289 0
M  V30 323 H 33.4973 -0.604193 0.275404 0
M  V30 324 H 36.0273 -1.5141 1.37609 0
M  V30 325 H 36.0373 -3.94004 1.05947 0
M  V30 326 H 34.7123 -3.56146 2.14786 0
M  V30 327 H 33.2893 -3.715 0.322842 0
M  V30 328 N 35.4744 -0.807222 -1.35358 0
M  V30 329 C 36.7204 -0.397594 -1.99476 0
M  V30 330 C 37.0754 1.02405 -1.62883 0
M  V30 331 O 36.3684 1.70077 -0.882282 0
M  V30 332 C 36.5624 -0.519036 -3.53611 0
M  V30 333 C 36.3914 -1.95094 -4.05177 0
M  V30 334 C 35.1614 -2.57945 -4.34503 0
M  V30 335 C 37.3594 -2.91558 -4.23673 0
M  V30 336 N 35.3414 -3.92539 -4.72003 0
M  V30 337 C 36.7124 -4.11024 -4.64176 0
M  V30 338 C 38.7674 -2.88381 -4.05883 0
M  V30 339 C 37.4704 -5.27745 -4.88751 0
M  V30 340 C 39.4964 -4.04306 -4.31614 0
M  V30 341 C 38.8584 -5.22519 -4.72391 0
M  V30 342 H 34.9574 -0.193274 -0.75774 0
M  V30 343 H 37.5414 -1.0486 -1.6405 0
M  V30 344 H 35.7124 0.101979 -3.88266 0
M  V30 345 H 37.4444 -0.0839321 -4.04613 0
M  V30 346 H 34.1994 -2.09295 -4.24844 0
M  V30 347 H 34.6234 -4.61836 -4.95011 0
M  V30 348 H 39.2654 -1.98137 -3.73499 0
M  V30 349 H 36.9834 -6.1856 -5.20008 0
M  V30 350 H 40.5694 -4.03229 -4.19402 0
M  V30 351 H 39.4494 -6.1073 -4.91913 0
M  V30 352 N 36.9525 1.47285 -0.560781 0
M  V30 353 C 37.8825 2.32857 0.173105 0
M  V30 354 C 38.8635 1.44009 0.905281 0
M  V30 355 O 40.0485 1.7286 0.885046 0
M  V30 356 C 37.1785 3.25861 1.20133 0
M  V30 357 C 36.1325 4.23978 0.585388 0
M  V30 358 C 35.4585 5.06332 1.7185 0
M  V30 359 C 36.7585 5.20242 -0.463178 0
M  V30 360 H 38.4525 2.94466 -0.541307 0
M  V30 361 H 35.9985 1.41601 -0.261764 0
M  V30 362 H 37.9515 3.84569 1.72293 0
M  V30 363 H 36.6755 2.62315 1.94573 0
M  V30 364 H 35.3345 3.66501 0.085054 0
M  V30 365 H 34.9825 4.39186 2.45203 0
M  V30 366 H 34.6825 5.72762 1.31213 0
M  V30 367 H 36.2065 5.67899 2.24329 0
M  V30 368 H 37.6205 5.73293 -0.027502 0
M  V30 369 H 36.0175 5.94896 -0.788627 0
M  V30 370 H 37.0875 4.65504 -1.35773 0
M  V30 371 N 38.4306 0.297415 1.54768 0
M  V30 372 C 39.3936 -0.567375 2.22066 0
M  V30 373 C 40.3936 -1.06409 1.20556 0
M  V30 374 O 41.5836 -0.960691 1.45315 0
M  V30 375 C 38.7156 -1.78517 2.90421 0
M  V30 376 H 39.9086 0.0205534 2.99893 0
M  V30 377 H 37.4616 0.0482163 1.56226 0
M  V30 378 H 38.1966 -2.41303 2.16664 0
M  V30 379 H 37.9816 -1.43669 3.64831 0
M  V30 380 H 39.4716 -2.39964 3.41771 0
M  V30 381 N 39.9087 -1.5758 0.0250728 0
M  V30 382 C 41.1337 -1.96337 -0.668317 0
M  V30 383 C 41.5587 -0.901314 -1.651 0
M  V30 384 O 40.9167 0.138187 -1.80773 0
M  V30 385 C 40.9647 -3.34191 -1.35457 0
M  V30 386 O 40.0687 -3.30269 -2.46974 0
M  V30 387 H 39.4097 -0.640281 -0.175887 0
M  V30 388 H 41.9397 -2.0442 0.0857224 0
M  V30 389 H 41.9497 -3.70331 -1.71228 0
M  V30 390 H 40.6247 -4.11036 -0.634218 0
M  V30 391 H 39.2017 -3.05841 -2.13344 0
M  V30 392 N 41.3868 0.248026 -1.55636 0
M  V30 393 C 42.3498 1.29044 -1.89421 0
M  V30 394 C 43.3498 1.41134 -0.770581 0
M  V30 395 O 44.5398 1.39854 -1.03858 0
M  V30 396 C 41.6718 2.66831 -2.12165 0
M  V30 397 H 42.8648 1.00305 -2.82629 0
M  V30 398 H 40.4178 0.487265 -1.48511 0
M  V30 399 H 41.1528 3.00711 -1.21422 0
M  V30 400 H 40.9378 2.59438 -2.93997 0
M  V30 401 H 42.4278 3.42103 -2.3949 0
M  V30 402 N 42.8649 1.48995 0.513639 0
M  V30 403 C 43.7949 1.67636 1.62544 0
M  V30 404 C 44.7759 0.525087 1.61793 0
M  V30 405 O 45.9609 0.759502 1.78732 0
M  V30 406 C 43.0909 1.73114 3.01079 0
M  V30 407 C 42.0449 2.87905 3.16693 0
M  V30 408 C 41.3709 2.78486 4.56453 0
M  V30 409 C 42.6709 4.29005 2.97913 0
M  V30 410 H 44.3649 2.60716 1.47198 0
M  V30 411 H 41.9109 1.25465 0.706714 0
M  V30 412 H 43.8639 1.84742 3.78746 0
M  V30 413 H 42.5879 0.766241 3.17484 0
M  V30 414 H 41.2469 2.75859 2.41448 0
M  V30 415 H 40.8949 1.7993 4.69717 0
M  V30 416 H 40.5949 3.55523 4.67843 0
M  V30 417 H 42.1189 2.92104 5.36197 0
M  V30 418 H 43.5329 4.41798 3.65359 0
M  V30 419 H 41.9299 5.07166 3.20785 0
M  V30 420 H 42.9999 4.44329 1.94165 0
M  V30 421 N 44.343 -0.763751 1.37857 0
M  V30 422 C 45.306 -1.85889 1.34081 0
M  V30 423 C 46.306 -1.58949 0.243277 0
M  V30 424 O 47.496 -1.66882 0.499589 0
M  V30 425 C 44.628 -3.23176 1.08489 0
M  V30 426 H 45.821 -1.90648 2.31502 0
M  V30 427 H 43.374 -0.964367 1.23003 0
M  V30 428 H 44.109 -3.24091 0.116318 0
M  V30 429 H 43.894 -3.44124 1.8794 0
M  V30 430 H 45.384 -4.03254 1.08517 0
M  V30 431 N 45.8211 -1.22559 -0.990812 0
M  V30 432 C 47.0611 -1.06302 -1.74583 0
M  V30 433 C 47.4251 0.394737 -1.87898 0
M  V30 434 O 48.6261 0.678214 -2.60103 0
M  V30 435 C 46.8971 -1.75699 -3.11231 0
M  V30 436 S 48.4561 -1.74882 -4.02445 0
M  V30 437 H 45.2741 -0.380639 -0.600529 0
M  V30 438 H 47.8761 -1.55532 -1.18449 0
M  V30 439 H 46.5801 -2.80923 -2.99183 0
M  V30 440 H 46.1111 -1.26708 -3.72436 0
M  V30 441 H 48.1261 -0.799997 -4.89709 0
M  V30 442 N 47.2992 1.18797 -1.03562 0
M  V30 443 C 48.5452 1.8893 -0.737113 0
M  V30 444 C 48.8782 1.79837 0.732956 0
M  V30 445 O 48.1532 1.19525 1.5344 0
M  V30 446 C 48.4362 3.39607 -1.19745 0
M  V30 447 C 48.2892 3.57537 -2.72924 0
M  V30 448 C 49.6082 4.33069 -0.783526 0
M  V30 449 H 46.7272 0.686057 -0.269249 0
M  V30 450 H 49.3692 1.39797 -1.28673 0
M  V30 451 H 47.5192 3.81583 -0.729855 0
M  V30 452 H 49.1912 3.24688 -3.27682 0
M  V30 453 H 47.4342 3.00363 -3.12993 0
M  V30 454 H 48.1052 4.63238 -3.00191 0
M  V30 455 H 50.5812 3.98846 -1.18581 0
M  V30 456 H 49.4572 5.3707 -1.13343 0
M  V30 457 H 49.7182 4.40986 0.313681 0
M  V30 458 N 48.7773 0.814389 1.34928 0
M  V30 459 C 49.7073 0.244827 2.32213 0
M  V30 460 C 50.6883 -0.634024 1.57842 0
M  V30 461 O 51.8733 -0.562676 1.8587 0
M  V30 462 C 49.0033 -0.601106 3.42058 0
M  V30 463 C 47.9573 0.179896 4.27622 0
M  V30 464 C 47.2833 -0.788237 5.28858 0
M  V30 465 C 48.5833 1.38329 5.03649 0
M  V30 466 H 50.2773 1.05763 2.80097 0
M  V30 467 H 47.8233 0.510029 1.34665 0
M  V30 468 H 49.7763 -1.00968 4.09125 0
M  V30 469 H 48.5003 -1.44688 2.92802 0
M  V30 470 H 47.1593 0.569739 3.62146 0
M  V30 471 H 46.8073 -1.62973 4.75866 0
M  V30 472 H 46.5073 -0.269942 5.8698 0
M  V30 473 H 48.0313 -1.19485 5.98795 0
M  V30 474 H 49.4453 1.04918 5.63618 0
M  V30 475 H 47.8423 1.83662 5.71304 0
M  V30 476 H 48.9123 2.16592 4.33839 0
M  V30 477 N 50.2554 -1.46986 0.568584 0
M  V30 478 C 51.5044 -2.01646 0.0465894 0
M  V30 479 C 51.8174 -1.44721 -1.31587 0
M  V30 480 O 53.0234 -1.91113 -1.92842 0
M  V30 481 C 51.4794 -3.59885 0.032752 0
M  V30 482 C 51.0874 -4.25804 1.39266 0
M  V30 483 C 52.8314 -4.22255 -0.436038 0
M  V30 484 C 50.7384 -5.76081 1.33732 0
M  V30 485 H 49.6684 -0.753876 0.013647 0
M  V30 486 H 52.3194 -1.68864 0.718131 0
M  V30 487 H 50.7014 -3.8968 -0.704669 0
M  V30 488 H 51.8754 -4.07637 2.1487 0
M  V30 489 H 50.1904 -3.7547 1.80032 0
M  V30 490 H 52.7874 -5.32394 -0.49602 0
M  V30 491 H 53.1304 -3.90212 -1.45053 0
M  V30 492 H 53.6634 -3.97033 0.246877 0
M  V30 493 H 50.4024 -6.12761 2.32817 0
M  V30 494 H 49.9224 -5.96553 0.623267 0
M  V30 495 H 51.6014 -6.38518 1.0442 0
M  V30 496 N 51.7335 -0.305618 -1.54608 0
M  V30 497 C 52.9805 0.302298 -2.00231 0
M  V30 498 C 53.3085 1.5354 -1.19398 0
M  V30 499 O 52.5635 1.93973 -0.259423 0
M  V30 500 C 52.8625 0.698983 -3.50498 0
M  V30 501 C 52.5285 -0.432903 -4.48817 0
M  V30 502 C 51.1905 -0.743622 -4.75419 0
M  V30 503 C 53.5425 -1.19409 -5.07337 0
M  V30 504 C 50.8705 -1.81857 -5.57804 0
M  V30 505 C 53.2225 -2.25899 -5.90891 0
M  V30 506 C 51.8865 -2.57572 -6.15803 0
M  V30 507 H 51.1565 0.110619 -0.732697 0
M  V30 508 H 53.8035 -0.425674 -1.86709 0
M  V30 509 H 52.1085 1.50711 -3.61654 0
M  V30 510 H 53.8055 1.1806 -3.83227 0
M  V30 511 H 50.3955 -0.18063 -4.28219 0
M  V30 512 H 54.5795 -0.967295 -4.86782 0
M  V30 513 H 49.8355 -2.06864 -5.75341 0
M  V30 514 H 54.0095 -2.85335 -6.35261 0
M  V30 515 H 51.6365 -3.40998 -6.7943 0
M  V30 516 N 53.2116 1.57565 -0.0334293 0
M  V30 517 C 54.4396 1.9628 0.654347 0
M  V30 518 C 54.8546 0.910138 1.65414 0
M  V30 519 O 54.2116 -0.107595 1.82183 0
M  V30 520 C 54.2626 3.35067 1.35693 0
M  V30 521 O 53.9836 4.36296 0.397191 0
M  V30 522 C 55.4846 3.88439 2.13613 0
M  V30 523 H 52.7046 0.646369 0.180132 0
M  V30 524 H 55.2486 2.04282 -0.0944721 0
M  V30 525 H 53.4036 3.2827 2.05712 0
M  V30 526 H 53.8176 5.1678 0.896597 0
M  V30 527 H 55.2916 4.8788 2.58219 0
M  V30 528 H 55.7686 3.22914 2.97696 0
M  V30 529 H 56.3746 3.98516 1.48543 0
M  V30 530 N 54.6897 -0.239769 1.55765 0
M  V30 531 C 55.9387 -0.964754 1.77131 0
M  V30 532 C 56.2517 -1.86213 0.59868 0
M  V30 533 O 57.4577 -2.6244 0.695522 0
M  V30 534 C 55.9137 -1.76552 3.1362 0
M  V30 535 C 55.5217 -0.915185 4.38553 0
M  V30 536 C 57.2657 -2.48281 3.44321 0
M  V30 537 C 55.1727 -1.71225 5.66071 0
M  V30 538 H 54.1027 -0.363953 0.660344 0
M  V30 539 H 56.7537 -0.219181 1.82186 0
M  V30 540 H 55.1357 -2.55331 3.02691 0
M  V30 541 H 56.3097 -0.169217 4.60489 0
M  V30 542 H 54.6247 -0.310889 4.15238 0
M  V30 543 H 57.2217 -3.08382 4.36812 0
M  V30 544 H 57.5647 -3.20256 2.65973 0
M  V30 545 H 58.0977 -1.76507 3.56497 0
M  V30 546 H 54.8367 -1.03612 6.4726 0
M  V30 547 H 54.3567 -2.43331 5.48224 0
M  V30 548 H 56.0357 -2.27758 6.05587 0
M  V30 549 N 56.1678 -1.49265 -0.50573 0
M  V30 550 C 57.4138 -1.58748 -1.26202 0
M  V30 551 C 57.7468 -0.271227 -1.92297 0
M  V30 552 O 57.0218 0.724831 -1.80489 0
M  V30 553 C 57.3048 -2.74332 -2.33268 0
M  V30 554 C 57.1578 -4.15737 -1.71705 0
M  V30 555 C 58.4768 -2.85576 -3.34865 0
M  V30 556 H 55.5958 -0.577826 -0.457478 0
M  V30 557 H 58.2378 -1.81532 -0.560897 0
M  V30 558 H 56.3878 -2.55036 -2.93068 0
M  V30 559 H 58.0598 -4.46537 -1.15769 0
M  V30 560 H 56.3028 -4.21605 -1.02135 0
M  V30 561 H 56.9738 -4.92477 -2.49341 0
M  V30 562 H 59.4498 -3.03127 -2.8505 0
M  V30 563 H 58.3258 -3.68135 -4.07146 0
M  V30 564 H 58.5868 -1.94732 -3.96903 0
M  V30 565 N 57.6459 0.756429 -1.3826 0
M  V30 566 C 58.8919 1.51772 -1.34511 0
M  V30 567 C 59.2249 1.94089 0.0656691 0
M  V30 568 O 58.4999 1.65221 1.02626 0
M  V30 569 C 58.7829 2.77226 -2.29821 0
M  V30 570 C 58.6359 2.41065 -3.79747 0
M  V30 571 C 59.9549 3.79236 -2.23312 0
M  V30 572 H 57.0739 0.550578 -0.489931 0
M  V30 573 H 59.7159 0.866607 -1.69086 0
M  V30 574 H 57.8659 3.32784 -2.00467 0
M  V30 575 H 59.5379 1.91303 -4.19763 0
M  V30 576 H 57.7809 1.7356 -3.97567 0
M  V30 577 H 58.4519 3.3081 -4.41892 0
M  V30 578 H 60.9279 3.3321 -2.49219 0
M  V30 579 H 59.8039 4.64714 -2.92116 0
M  V30 580 H 60.0649 4.24615 -1.23102 0
M  V30 581 N 59.124 1.23083 0.984299 0
M  V30 582 C 60.401 0.9689 1.69917 0
M  V30 583 C 60.781 -0.513604 2.04757 0
M  V30 584 O 60.129 -1.48383 1.73767 0
M  V30 585 C 60.339 1.87518 2.94343 0
M  V30 586 C 61.687 2.13636 3.6694 0
M  V30 587 O 62.711 1.85036 3.04368 0
M  V30 588 O 61.57 2.62119 4.79537 0
M  V30 589 H 58.664 0.365095 0.742048 0
M  V30 590 H 61.21 1.34107 1.03987 0
M  V30 591 H 59.982 2.87756 2.65164 0
M  V30 592 H 59.605 1.50514 3.6801 0
M  V30 593 N 60.6021 -1.18246 1.0419 0
M  V30 594 C 61.8511 -1.87588 0.741194 0
M  V30 595 C 62.1641 -1.81303 -0.734066 0
M  V30 596 O 63.3701 -2.46019 -1.14834 0
M  V30 597 C 61.8261 -3.36538 1.27555 0
M  V30 598 C 61.4341 -3.51349 2.77953 0
M  V30 599 C 63.1781 -4.11273 1.05143 0
M  V30 600 C 61.0851 -4.94265 3.2474 0
M  V30 601 H 60.0151 -0.702622 0.273565 0
M  V30 602 H 62.6661 -1.33601 1.25789 0
M  V30 603 H 61.0481 -3.9 0.686703 0
M  V30 604 H 62.2221 -3.08153 3.42605 0
M  V30 605 H 60.5371 -2.90022 2.98791 0
M  V30 606 H 63.1341 -5.16689 1.37611 0
M  V30 607 H 63.4771 -4.16298 -0.0112774 0
M  V30 608 H 64.0101 -3.63987 1.60495 0
M  V30 609 H 60.7491 -4.94408 4.30396 0
M  V30 610 H 60.2691 -5.38172 2.64823 0
M  V30 611 H 61.9481 -5.62987 3.18834 0
M  V30 612 N 62.0802 -0.821533 -1.34494 0
M  V30 613 C 63.0102 -0.257138 -2.3208 0
M  V30 614 C 63.9912 0.625645 -1.58176 0
M  V30 615 O 65.1762 0.552811 -1.86166 0
M  V30 616 C 62.3062 0.582958 -3.42372 0
M  V30 617 C 61.2602 -0.202571 -4.2752 0
M  V30 618 C 60.5862 0.760179 -5.29269 0
M  V30 619 C 61.8862 -1.40998 -5.02908 0
M  V30 620 H 63.5802 -1.07247 -2.79532 0
M  V30 621 H 61.1262 -0.517163 -1.34393 0
M  V30 622 H 63.0792 0.987972 -4.09655 0
M  V30 623 H 61.8032 1.43133 -2.93565 0
M  V30 624 H 60.4622 -0.588936 -3.61838 0
M  V30 625 H 60.1102 1.60447 -4.76724 0
M  V30 626 H 59.8102 0.238809 -5.87115 0
M  V30 627 H 61.3342 1.16308 -5.9942 0
M  V30 628 H 62.7482 -1.07905 -5.63054 0
M  V30 629 H 61.1452 -1.86689 -5.70322 0
M  V30 630 H 62.2152 -2.1889 -4.32684 0
M  V30 631 N 63.5583 1.46682 -0.576371 0
M  V30 632 C 64.8063 2.02013 -0.0594163 0
M  V30 633 C 65.1273 1.45101 1.30271 0
M  V30 634 O 64.3973 0.633317 1.8538 0
M  V30 635 H 62.9773 0.746759 -0.0189745 0
M  V30 636 H 65.6393 1.79862 -0.750717 0
M  V30 637 H 64.7353 3.12097 0.014345 0
M  V30 638 N 65.0364 0.313813 1.54444 0
M  V30 639 C 65.9844 -0.572171 2.25453 0
M  V30 640 C 66.9784 -1.12657 1.2651 0
M  V30 641 O 68.1844 -1.07573 1.44319 0
M  V30 642 H 64.5594 -0.203146 0.724041 0
M  V30 643 H 66.5304 0.0491145 2.9836 0
M  V30 644 C 65.2794 -1.72626 3.0182 0
M  V30 645 H 64.6024 -1.30891 3.77767 0
M  V30 646 H 66.0424 -2.32199 3.54767 0
M  V30 647 C 64.5014 -2.63806 2.09542 0
M  V30 648 O 65.0314 -3.65256 1.67185 0
M  V30 649 N 63.2374 -2.31824 1.75232 0
M  V30 650 H 62.7844 -1.49368 2.09873 0
M  V30 651 H 62.7424 -2.93095 1.13767 0
M  V30 652 N 66.5145 -1.57545 0.0417849 0
M  V30 653 C 67.4445 -2.14009 -0.933929 0
M  V30 654 C 68.4255 -1.05938 -1.33083 0
M  V30 655 O 69.6105 -1.33833 -1.40721 0
M  V30 656 C 66.7405 -2.67747 -2.21199 0
M  V30 657 C 65.6945 -3.80718 -1.95544 0
M  V30 658 C 65.0205 -4.20935 -3.29724 0
M  V30 659 C 66.3205 -5.06258 -1.28452 0
M  V30 660 H 68.0145 -2.95788 -0.463645 0
M  V30 661 H 65.5605 -1.42285 -0.221573 0
M  V30 662 H 67.5135 -3.05886 -2.89848 0
M  V30 663 H 66.2375 -1.83147 -2.70416 0
M  V30 664 H 64.8965 -3.43037 -1.2931 0
M  V30 665 H 64.5445 -3.33298 -3.76724 0
M  V30 666 H 64.2445 -4.9707 -3.13361 0
M  V30 667 H 65.7685 -4.61666 -3.9962 0
M  V30 668 H 67.1825 -5.41903 -1.8712 0
M  V30 669 H 65.5795 -5.87475 -1.22445 0
M  V30 670 H 66.6495 -4.84207 -0.259219 0
M  V30 671 N 67.9926 0.231505 -1.5589 0
M  V30 672 C 68.9226 1.29022 -1.94617 0
M  V30 673 C 69.9036 1.4941 -0.813067 0
M  V30 674 O 71.0886 1.6176 -1.07459 0
M  V30 675 C 68.2186 2.64199 -2.25424 0
M  V30 676 C 67.1726 2.58484 -3.41131 0
M  V30 677 C 66.4986 3.97599 -3.57518 0
M  V30 678 C 67.7986 2.1413 -4.76388 0
M  V30 679 H 69.4926 0.968563 -2.83301 0
M  V30 680 H 67.0386 0.464479 -1.36303 0
M  V30 681 H 68.9916 3.38413 -2.51107 0
M  V30 682 H 67.7156 2.98032 -1.33583 0
M  V30 683 H 66.3746 1.86727 -3.15481 0
M  V30 684 H 66.0226 4.28723 -2.6307 0
M  V30 685 H 65.7226 3.94659 -4.35337 0
M  V30 686 H 67.2466 4.7349 -3.85538 0
M  V30 687 H 68.6606 2.78083 -5.01341 0
M  V30 688 H 67.0576 2.2227 -5.57419 0
M  V30 689 H 68.1276 1.09331 -4.72414 0
M  V30 690 N 69.4707 1.49531 0.497807 0
M  V30 691 C 70.7167 1.59415 1.25358 0
M  V30 692 C 71.0497 0.281422 1.9215 0
M  V30 693 O 70.3247 -0.715249 1.80871 0
M  V30 694 C 70.6077 2.75566 2.3181 0
M  V30 695 C 70.4607 4.16642 1.69498 0
M  V30 696 C 71.7797 2.87347 3.33346 0
M  V30 697 H 68.8987 0.580244 0.454408 0
M  V30 698 H 71.5407 1.81827 0.551262 0
M  V30 699 H 69.6907 2.56587 2.91711 0
M  V30 700 H 71.3627 4.47145 1.13399 0
M  V30 701 H 69.6057 4.22141 0.998978 0
M  V30 702 H 70.2767 4.93792 2.46725 0
M  V30 703 H 72.7527 3.04634 2.83438 0
M  V30 704 H 71.6287 3.70289 4.05188 0
M  V30 705 H 71.8897 1.96834 3.95865 0
M  V30 706 N 70.9488 -0.749086 1.3866 0
M  V30 707 C 72.1978 -1.50371 1.3443 0
M  V30 708 C 72.5108 -1.95503 -0.0616397 0
M  V30 709 O 73.7168 -2.70554 -0.226489 0
M  V30 710 C 72.1728 -2.71644 2.36088 0
M  V30 711 C 71.7808 -2.3352 3.82325 0
M  V30 712 C 73.5248 -3.49518 2.40909 0
M  V30 713 C 71.4318 -3.51431 4.75658 0
M  V30 714 H 70.3618 -0.564628 0.499712 0
M  V30 715 H 73.0128 -0.818449 1.64237 0
M  V30 716 H 71.3948 -3.42175 1.9933 0
M  V30 717 H 72.5688 -1.70627 4.28046 0
M  V30 718 H 70.8838 -1.6877 3.80665 0
M  V30 719 H 73.4808 -4.37197 3.07836 0
M  V30 720 H 73.8238 -3.90992 1.42937 0
M  V30 721 H 74.3568 -2.86005 2.76489 0
M  V30 722 H 71.0958 -3.15019 5.74842 0
M  V30 723 H 70.6158 -4.13352 4.34627 0
M  V30 724 H 72.2948 -4.17953 4.93887 0
M  V30 725 N 72.4269 -1.23603 -0.977757 0
M  V30 726 C 73.3569 -1.04401 -2.0886 0
M  V30 727 C 74.3379 0.0399052 -1.70053 0
M  V30 728 O 75.5229 -0.125246 -1.93796 0
M  V30 729 C 72.6529 -0.637269 -3.41403 0
M  V30 730 C 71.6069 -1.66883 -3.94124 0
M  V30 731 C 70.9329 -1.11745 -5.22893 0
M  V30 732 C 72.2329 -3.06247 -4.23096 0
M  V30 733 H 73.9269 -1.97316 -2.25182 0
M  V30 734 H 71.4729 -0.950096 -1.08209 0
M  V30 735 H 73.4259 -0.48998 -4.18542 0
M  V30 736 H 72.1499 0.327557 -3.24953 0
M  V30 737 H 70.8089 -1.80416 -3.19133 0
M  V30 738 H 70.4569 -0.143527 -5.02795 0
M  V30 739 H 70.1569 -1.80672 -5.59134 0
M  V30 740 H 71.6809 -0.982067 -6.02651 0
M  V30 741 H 73.0949 -2.96001 -4.90975 0
M  V30 742 H 71.4919 -3.72436 -4.70544 0
M  V30 743 H 72.5619 -3.55041 -3.30263 0
M  V30 744 N 73.905 1.17692 -1.04816 0
M  V30 745 C 75.13 1.92327 -0.776207 0
M  V30 746 C 75.555 1.76082 0.661581 0
M  V30 747 O 74.913 1.076 1.45917 0
M  V30 748 C 74.961 3.41539 -1.15687 0
M  V30 749 O 74.065 4.11402 -0.286775 0
M  V30 750 H 73.406 0.599735 -0.284981 0
M  V30 751 H 75.936 1.49201 -1.4 0
M  V30 752 H 75.946 3.92269 -1.12202 0
M  V30 753 H 74.621 3.52684 -2.20425 0
M  V30 754 H 73.198 3.70939 -0.381903 0
M  V30 755 N 75.3831 0.828654 1.34056 0
M  V30 756 C 76.6291 0.42008 1.98402 0
M  V30 757 C 76.9621 -1.01564 1.65525 0
M  V30 758 O 76.2371 -1.70834 0.929831 0
M  V30 759 C 76.5201 0.62927 3.54559 0
M  V30 760 C 76.3731 2.11152 3.97159 0
M  V30 761 C 77.6921 0.0688756 4.40046 0
M  V30 762 H 74.8111 0.154104 0.720709 0
M  V30 763 H 77.4531 1.04228 1.5886 0
M  V30 764 H 75.6031 0.0996418 3.88372 0
M  V30 765 H 77.2751 2.70522 3.73651 0
M  V30 766 H 75.5181 2.59985 3.47261 0
M  V30 767 H 76.1891 2.20868 5.05887 0
M  V30 768 H 78.6651 0.521458 4.1282 0
M  V30 769 H 77.5411 0.245006 5.48353 0
M  V30 770 H 77.8021 -1.0266 4.30015 0
M  V30 771 N 76.8612 -1.46375 0.584142 0
M  V30 772 C 78.0912 -2.06461 0.0758195 0
M  V30 773 C 78.4992 -1.43322 -1.23512 0
M  V30 774 O 77.8422 -0.533216 -1.75791 0
M  V30 775 C 77.9042 -3.59131 -0.162773 0
M  V30 776 C 77.5682 -4.4447 1.06279 0
M  V30 777 C 78.5652 -4.80918 1.97519 0
M  V30 778 C 76.2502 -4.85584 1.28504 0
M  V30 779 C 78.2442 -5.57309 3.09331 0
M  V30 780 C 75.9312 -5.61734 2.4062 0
M  V30 781 C 76.9292 -5.9751 3.30863 0
M  V30 782 O 76.6172 -6.72121 4.41032 0
M  V30 783 H 76.3492 -0.673745 0.0551725 0
M  V30 784 H 78.9032 -1.88969 0.804984 0
M  V30 785 H 77.1332 -3.74936 -0.946565 0
M  V30 786 H 78.8222 -4.0114 -0.619782 0
M  V30 787 H 79.5882 -4.49732 1.81565 0
M  V30 788 H 75.4672 -4.57187 0.591702 0
M  V30 789 H 79.0112 -5.85152 3.79793 0
M  V30 790 H 74.9082 -5.92334 2.56537 0
M  V30 791 H 75.6762 -6.90547 4.39417 0
M  V30 792 N 78.3393 -0.321999 -1.54275 0
M  V30 793 C 79.7553 0.0306999 -1.5957 0
M  V30 794 C 79.9553 1.50614 -1.33857 0
M  V30 795 O 79.0113 2.2619 -1.12223 0
M  V30 796 C 80.3243 -0.386122 -2.98211 0
M  V30 797 C 81.8723 -0.336647 -3.11184 0
M  V30 798 C 82.3473 -0.728607 -4.52167 0
M  V30 799 N 83.8383 -0.681952 -4.58152 0
M  V30 800 C 84.5733 -0.957449 -5.6535 0
M  V30 801 N 84.0693 -1.3 -6.80494 0
M  V30 802 N 85.8623 -0.883113 -5.55119 0
M  V30 803 H 78.0133 -1.28332 -1.69247 0
M  V30 804 H 80.2763 -0.521716 -0.791528 0
M  V30 805 H 79.9823 -1.41404 -3.22022 0
M  V30 806 H 79.8563 0.249662 -3.76373 0
M  V30 807 H 82.2433 0.682058 -2.8711 0
M  V30 808 H 82.3243 -1.00734 -2.3513 0
M  V30 809 H 81.9683 -1.74522 -4.76974 0
M  V30 810 H 81.8983 -0.0356152 -5.26588 0
M  V30 811 H 84.3893 -0.428985 -3.75457 0
M  V30 812 H 84.7023 -1.49563 -7.58189 0
M  V30 813 H 83.0473 -1.33824 -6.81994 0
M  V30 814 H 86.2383 -0.615001 -4.64042 0
M  V30 815 H 86.4113 -1.10118 -6.38575 0
M  V30 816 N 79.8174 1.5752 -0.0501392 0
M  V30 817 C 80.7654 2.12651 0.942459 0
M  V30 818 C 81.7594 1.05807 1.32292 0
M  V30 819 O 82.9654 1.24217 1.3027 0
M  V30 820 H 79.3404 0.679673 0.321789 0
M  V30 821 H 81.3114 2.94951 0.452356 0
M  V30 822 C 80.0604 2.68565 2.20836 0
M  V30 823 H 79.3834 3.50439 1.92439 0
M  V30 824 H 80.8234 3.10761 2.8845 0
M  V30 825 C 79.2824 1.62291 2.95234 0
M  V30 826 O 79.8124 1.03508 3.88135 0
M  V30 827 N 78.0184 1.33836 2.57946 0
M  V30 828 H 77.5654 1.81826 1.82475 0
M  V30 829 H 77.5234 0.629595 3.08032 0
M  V30 830 N 81.2955 -0.223234 1.56011 0
M  V30 831 C 82.2425 -1.27664 1.92277 0
M  V30 832 C 83.2125 -1.46659 0.779763 0
M  V30 833 O 84.3975 -1.60256 1.03551 0
M  V30 834 C 81.5375 -2.62234 2.24338 0
M  V30 835 C 80.6505 -2.51051 3.51564 0
M  V30 836 C 79.7855 -3.78133 3.7308 0
M  V30 837 C 78.8245 -3.61665 4.93827 0
M  V30 838 N 77.9615 -4.80693 5.11741 0
M  V30 839 H 82.8015 -0.960358 2.82101 0
M  V30 840 H 80.3385 -0.462901 1.39627 0
M  V30 841 H 82.2965 -3.40596 2.40936 0
M  V30 842 H 80.9265 -2.91961 1.3769 0
M  V30 843 H 79.9785 -1.64132 3.43169 0
M  V30 844 H 81.2905 -2.34803 4.40079 0
M  V30 845 H 80.4445 -4.64938 3.89766 0
M  V30 846 H 79.1835 -3.97304 2.82844 0
M  V30 847 H 78.1885 -2.73244 4.77093 0
M  V30 848 H 79.4135 -3.43966 5.85546 0
M  V30 849 H 77.3595 -5.00181 4.24446 0
M  V30 850 H 77.2765 -4.67165 5.94384 0
M  V30 851 H 78.5445 -5.6893 5.3286 0
M  V30 852 N 82.7736 -1.49793 -0.48987 0
M  V30 853 C 83.7206 -1.67281 -1.59014 0
M  V30 854 C 84.6906 -0.514177 -1.57941 0
M  V30 855 O 85.8756 -0.742533 -1.75759 0
M  V30 856 C 83.0156 -1.75569 -2.97102 0
M  V30 857 C 82.1286 -3.0281 -3.08107 0
M  V30 858 C 81.2636 -3.02008 -4.36995 0
M  V30 859 C 80.3026 -4.23782 -4.41673 0
M  V30 860 N 79.4396 -4.20826 -5.62005 0
M  V30 861 H 84.2796 -2.61224 -1.43409 0
M  V30 862 H 81.8166 -1.29508 -0.697565 0
M  V30 863 H 83.7746 -1.78354 -3.77155 0
M  V30 864 H 82.4046 -0.850827 -3.11385 0
M  V30 865 H 81.4566 -3.09584 -2.21047 0
M  V30 866 H 82.7686 -3.92801 -3.07423 0
M  V30 867 H 81.9226 -3.03418 -5.25378 0
M  V30 868 H 80.6616 -2.09815 -4.4026 0
M  V30 869 H 79.6666 -4.22604 -3.5169 0
M  V30 870 H 80.8916 -5.17181 -4.40115 0
M  V30 871 H 78.8376 -3.31476 -5.66091 0
M  V30 872 H 78.7546 -5.04564 -5.62984 0
M  V30 873 H 80.0226 -4.26355 -6.52565 0
M  V30 874 N 84.2517 0.741722 -1.39055 0
M  V30 875 C 85.1817 1.869 -1.39966 0
M  V30 876 C 86.1627 1.6804 -0.26392 0
M  V30 877 O 87.3477 1.88458 -0.468755 0
M  V30 878 C 84.4777 3.24572 -1.23574 0
M  V30 879 C 83.4317 3.58056 -2.34477 0
M  V30 880 C 82.7577 4.94593 -2.0318 0
M  V30 881 C 84.0577 3.61716 -3.76774 0
M  V30 882 H 85.7517 1.86395 -2.34302 0
M  V30 883 H 83.2977 0.895361 -1.1278 0
M  V30 884 H 85.2507 4.031 -1.22834 0
M  V30 885 H 83.9747 3.25587 -0.257045 0
M  V30 886 H 82.6337 2.81854 -2.34423 0
M  V30 887 H 82.2817 4.92181 -1.03765 0
M  V30 888 H 81.9817 5.17964 -2.77465 0
M  V30 889 H 83.5057 5.75486 -2.04079 0
M  V30 890 H 84.9197 4.30335 -3.78794 0
M  V30 891 H 83.3167 3.96603 -4.50362 0
M  V30 892 H 84.3867 2.61672 -4.08235 0
M  V30 893 N 85.7298 1.2412 0.971189 0
M  V30 894 C 87.1458 1.00584 1.23916 0
M  V30 895 C 87.3458 -0.287481 1.99439 0
M  V30 896 O 86.4018 -1.00454 2.31658 0
M  V30 897 C 87.7148 2.21864 2.0297 0
M  V30 898 C 89.2628 2.26452 2.16076 0
M  V30 899 C 89.7378 3.47343 2.98524 0
M  V30 900 N 91.2288 3.47639 3.06107 0
M  V30 901 C 91.9638 4.37837 3.70251 0
M  V30 902 N 91.4598 5.38286 4.36142 0
M  V30 903 N 93.2528 4.25558 3.67228 0
M  V30 904 H 85.4038 2.07236 0.465499 0
M  V30 905 H 87.6668 0.909236 0.268315 0
M  V30 906 H 87.3728 3.15771 1.54861 0
M  V30 907 H 87.2468 2.23698 3.03709 0
M  V30 908 H 89.6338 1.33078 2.6339 0
M  V30 909 H 89.7148 2.28645 1.14696 0
M  V30 910 H 89.3588 4.41029 2.51905 0
M  V30 911 H 89.2888 3.42393 4.00093 0
M  V30 912 H 91.7798 2.74966 2.59233 0
M  V30 913 H 92.0928 6.03352 4.82894 0
M  V30 914 H 90.4378 5.42176 4.34822 0
M  V30 915 H 93.6288 3.46322 3.14927 0
M  V30 916 H 93.8018 4.96054 4.16935 0
M  V30 917 N 87.2079 -1.17134 1.05439 0
M  V30 918 C 88.1559 -2.23289 0.651511 0
M  V30 919 C 89.1499 -1.66186 -0.328411 0
M  V30 920 O 90.3559 -1.78949 -0.194206 0
M  V30 921 H 86.7309 -0.726938 0.192523 0
M  V30 922 H 88.7019 -2.54565 1.55689 0
M  V30 923 C 87.4509 -3.47671 0.0448436 0
M  V30 924 H 86.7739 -3.91918 0.78996 0
M  V30 925 H 88.2139 -4.2353 -0.19964 0
M  V30 926 C 86.6729 -3.14453 -1.20918 0
M  V30 927 O 87.2029 -3.29459 -2.29825 0
M  V30 928 N 85.4089 -2.68657 -1.10779 0
M  V30 929 H 84.9559 -2.56646 -0.221526 0
M  V30 930 H 84.9139 -2.46804 -1.9477 0
M  V30 931 N 88.686 -0.835752 -1.33615 0
M  V30 932 C 89.649 -0.272 -2.2758 0
M  V30 933 C 90.649 0.557487 -1.50827 0
M  V30 934 O 91.839 0.37173 -1.70188 0
M  V30 935 C 88.971 0.617173 -3.35267 0
M  V30 936 H 90.164 -1.10111 -2.78954 0
M  V30 937 H 87.717 -0.608594 -1.43965 0
M  V30 938 H 88.452 1.46884 -2.89129 0
M  V30 939 H 88.237 0.0237066 -3.92093 0
M  V30 940 H 89.727 1.005 -4.05326 0
M  V30 941 N 90.1641 1.46063 -0.591896 0
M  V30 942 C 91.4121 2.01938 -0.0808391 0
M  V30 943 C 91.7331 1.46475 1.28725 0
M  V30 944 O 91.0031 0.652944 1.84698 0
M  V30 945 H 89.5831 0.746516 -0.0268938 0
M  V30 946 H 92.2451 1.79055 -0.769752 0
M  V30 947 H 91.3411 3.12094 -0.0187578 0
M  V30 948 N 91.6422 0.330177 1.54103 0
M  V30 949 C 92.5902 -0.548226 2.26047 0
M  V30 950 C 93.5842 -1.11309 1.27698 0
M  V30 951 O 94.7902 -1.06036 1.45452 0
M  V30 952 H 91.1652 -0.195456 0.726155 0
M  V30 953 H 93.1362 0.0807567 2.98291 0
M  V30 954 C 91.8852 -1.69415 3.03634 0
M  V30 955 H 91.2082 -1.26876 3.79134 0
M  V30 956 H 92.6482 -2.28423 3.5721 0
M  V30 957 C 91.1072 -2.61569 2.12328 0
M  V30 958 O 91.6372 -3.63462 1.7105 0
M  V30 959 N 89.8432 -2.29952 1.77681 0
M  V30 960 H 89.3902 -1.47134 2.11446 0
M  V30 961 H 89.3482 -2.91871 1.16869 0
M  V30 962 N 93.1203 -1.57491 0.0584922 0
M  V30 963 C 94.3693 -1.92155 -0.613146 0
M  V30 964 C 94.6823 -0.939334 -1.71569 0
M  V30 965 O 95.8883 -1.17829 -2.44599 0
M  V30 966 C 94.3443 -3.41303 -1.14195 0
M  V30 967 C 93.9523 -4.47944 -0.0711265 0
M  V30 968 C 95.6963 -3.84988 -1.78841 0
M  V30 969 C 93.6033 -5.88212 -0.613225 0
M  V30 970 H 92.5333 -0.717162 -0.232796 0
M  V30 971 H 95.1843 -1.83049 0.12857 0
M  V30 972 H 93.5663 -3.45437 -1.93621 0
M  V30 973 H 94.7403 -4.55408 0.702836 0
M  V30 974 H 93.0553 -4.13644 0.478313 0
M  V30 975 H 95.6523 -4.87159 -2.20408 0
M  V30 976 H 95.9953 -3.21632 -2.64308 0
M  V30 977 H 96.5283 -3.83401 -1.06059 0
M  V30 978 H 93.2673 -6.55183 0.203978 0
M  V30 979 H 92.7873 -5.84294 -1.35501 0
M  V30 980 H 94.4663 -6.37687 -1.09383 0
M  V30 981 N 94.5984 0.214957 -1.56127 0
M  V30 982 C 95.8454 0.938372 -1.79446 0
M  V30 983 C 96.1734 1.8407 -0.628378 0
M  V30 984 O 95.4284 1.91837 0.386925 0
M  V30 985 C 95.7274 1.80314 -3.0858 0
M  V30 986 C 95.3934 1.05349 -4.3842 0
M  V30 987 C 94.0554 0.846435 -4.73697 0
M  V30 988 C 96.4074 0.524588 -5.18553 0
M  V30 989 C 93.7354 0.098683 -5.86617 0
M  V30 990 C 96.0874 -0.209853 -6.32252 0
M  V30 991 C 94.7514 -0.428102 -6.66126 0
M  V30 992 H 94.0214 0.343375 -0.656639 0
M  V30 993 H 96.6684 0.206077 -1.90388 0
M  V30 994 H 94.9734 2.6035 -2.92789 0
M  V30 995 H 96.6704 2.36513 -3.23825 0
M  V30 996 H 93.2604 1.22486 -4.10725 0
M  V30 997 H 97.4444 0.672008 -4.91729 0
M  V30 998 H 92.7004 -0.0805753 -6.11347 0
M  V30 999 H 96.8744 -0.627157 -6.9357 0
M  V30 1000 H 94.5014 -1.00944 -7.53468 0
M  V30 1001 N 96.0765 1.50051 0.48192 0
M  V30 1002 C 97.3225 1.60736 1.2366 0
M  V30 1003 C 97.6555 0.301786 1.91841 0
M  V30 1004 O 96.9305 -0.696025 1.8162 0
M  V30 1005 C 97.2135 2.78009 2.28874 0
M  V30 1006 C 97.0665 4.18416 1.65069 0
M  V30 1007 C 98.3855 2.90867 3.30279 0
M  V30 1008 H 95.5045 0.585031 0.448228 0
M  V30 1009 H 98.1465 1.82402 0.531946 0
M  V30 1010 H 96.2965 2.59667 2.88973 0
M  V30 1011 H 97.9685 4.48322 1.0865 0
M  V30 1012 H 96.2115 4.23177 0.954148 0
M  V30 1013 H 96.8825 4.96381 2.41474 0
M  V30 1014 H 99.3585 3.07623 2.80191 0
M  V30 1015 H 98.2345 3.74566 4.01238 0
M  V30 1016 H 98.4955 2.01021 3.93755 0
M  V30 1017 N 97.5546 -0.734337 1.39446 0
M  V30 1018 C 98.8006 -1.49613 1.36908 0
M  V30 1019 C 99.1336 -1.94169 -0.0347829 0
M  V30 1020 O 98.4086 -1.66833 -0.999847 0
M  V30 1021 C 98.6916 -2.73534 2.34203 0
M  V30 1022 C 98.5446 -2.34993 3.83534 0
M  V30 1023 C 99.8636 -3.75635 2.29317 0
M  V30 1024 H 96.9826 -0.542714 0.498629 0
M  V30 1025 H 99.6246 -0.839597 1.70443 0
M  V30 1026 H 97.7746 -3.29553 2.05736 0
M  V30 1027 H 99.4466 -1.84601 4.22753 0
M  V30 1028 H 97.6896 -1.67213 4.00278 0
M  V30 1029 H 98.3606 -3.23738 4.47099 0
M  V30 1030 H 100.837 -3.29203 2.54489 0
M  V30 1031 H 99.7126 -4.60008 2.99472 0
M  V30 1032 H 99.9736 -4.22603 1.29842 0
M  V30 1033 N 99.0327 -1.24633 -0.964593 0
M  V30 1034 C 100.258 -1.11596 -1.74818 0
M  V30 1035 C 100.683 0.32723 -1.85232 0
M  V30 1036 O 100.041 1.23695 -1.32549 0
M  V30 1037 C 100.089 -1.76397 -3.1451 0
M  V30 1038 O 99.1927 -1.03685 -3.99153 0
M  V30 1039 H 98.5337 -0.390196 -0.537255 0
M  V30 1040 H 101.064 -1.65002 -1.20977 0
M  V30 1041 H 101.074 -1.8228 -3.65018 0
M  V30 1042 H 99.7487 -2.81401 -3.06246 0
M  V30 1043 H 98.3257 -1.05611 -3.57632 0
M  V30 1044 N 100.511 1.16574 -1.06058 0
M  V30 1045 C 101.441 2.23057 -0.690488 0
M  V30 1046 C 102.422 1.67141 0.315901 0
M  V30 1047 O 103.607 1.93253 0.191556 0
M  V30 1048 C 100.737 3.47222 -0.073625 0
M  V30 1049 C 99.6908 4.16016 -1.00573 0
M  V30 1050 C 99.0168 5.34104 -0.252289 0
M  V30 1051 C 100.317 4.67264 -2.33371 0
M  V30 1052 H 102.011 2.54271 -1.58072 0
M  V30 1053 H 99.5568 1.22218 -0.76149 0
M  V30 1054 H 101.51 4.20939 0.19714 0
M  V30 1055 H 100.234 3.15302 0.85161 0
M  V30 1056 H 98.8928 3.44223 -1.2612 0
M  V30 1057 H 98.5408 4.98437 0.675988 0
M  V30 1058 H 98.2408 5.81072 -0.873455 0
M  V30 1059 H 99.7648 6.10599 0.0109857 0
M  V30 1060 H 101.179 5.32573 -2.12223 0
M  V30 1061 H 99.5758 5.24843 -2.90963 0
M  V30 1062 H 100.646 3.83602 -2.96611 0
M  V30 1063 N 101.989 0.842826 1.3317 0
M  V30 1064 C 102.952 0.284065 2.27433 0
M  V30 1065 C 103.952 -0.54948 1.5112 0
M  V30 1066 O 105.142 -0.362699 1.70382 0
M  V30 1067 C 102.274 -0.599384 3.35589 0
M  V30 1068 H 103.467 1.11589 2.78366 0
M  V30 1069 H 101.02 0.616221 1.4364 0
M  V30 1070 H 101.755 -1.45349 2.89904 0
M  V30 1071 H 101.54 -0.00291266 3.921 0
M  V30 1072 H 103.03 -0.983488 4.05854 0
M  V30 1073 N 103.467 -1.45747 0.599634 0
M  V30 1074 C 104.713 -2.02592 0.0918643 0
M  V30 1075 C 105.046 -1.46806 -1.27128 0
M  V30 1076 O 104.321 -0.639658 -1.83681 0
M  V30 1077 C 104.604 -3.60073 0.0443398 0
M  V30 1078 C 104.457 -4.26208 1.43759 0
M  V30 1079 C 105.776 -4.35309 -0.647608 0
M  V30 1080 H 102.895 -0.736175 0.034857 0
M  V30 1081 H 105.537 -1.73694 0.770081 0
M  V30 1082 H 103.687 -3.84823 -0.533224 0
M  V30 1083 H 105.359 -4.12668 2.06162 0
M  V30 1084 H 103.602 -3.84916 2.00056 0
M  V30 1085 H 104.273 -5.35069 1.35665 0
M  V30 1086 H 106.749 -4.15805 -0.156776 0
M  V30 1087 H 105.625 -5.45038 -0.649942 0
M  V30 1088 H 105.886 -4.07598 -1.71219 0
M  V30 1089 N 104.945 -0.338344 -1.53925 0
M  V30 1090 C 105.908 0.508299 -2.23493 0
M  V30 1091 C 106.908 1.03175 -1.23335 0
M  V30 1092 O 108.098 0.921826 -1.47811 0
M  V30 1093 C 105.23 1.70754 -2.95052 0
M  V30 1094 H 106.423 -0.100058 -2.99733 0
M  V30 1095 H 103.976 -0.0896198 -1.56043 0
M  V30 1096 H 104.711 2.35474 -2.22986 0
M  V30 1097 H 104.496 1.33946 -3.68512 0
M  V30 1098 H 105.986 2.30818 -3.48013 0
M  V30 1099 N 106.423 1.57458 -0.0668435 0
M  V30 1100 C 107.7 1.8469 0.644132 0
M  V30 1101 C 108.08 0.958343 1.88093 0
M  V30 1102 O 107.428 0.0233579 2.28488 0
M  V30 1103 C 107.638 3.34767 0.986509 0
M  V30 1104 C 108.986 4.02159 1.36212 0
M  V30 1105 O 110.01 3.39484 1.07839 0
M  V30 1106 O 108.869 5.12694 1.89227 0
M  V30 1107 H 105.963 0.762816 0.319437 0
M  V30 1108 H 108.509 1.6942 -0.0973986 0
M  V30 1109 H 107.281 3.91151 0.107883 0
M  V30 1110 H 106.904 3.55281 1.78497 0
M  V30 1111 N 107.901 -0.206675 1.56239 0
M  V30 1112 C 108.831 -1.25909 1.96645 0
M  V30 1113 C 109.812 -1.48097 0.836734 0
M  V30 1114 O 110.997 -1.6003 1.10019 0
M  V30 1115 C 108.127 -2.6058 2.29599 0
M  V30 1116 C 107.081 -2.53024 3.452 0
M  V30 1117 C 106.407 -3.91861 3.63798 0
M  V30 1118 C 107.707 -2.06524 4.79734 0
M  V30 1119 H 109.401 -0.923369 2.84806 0
M  V30 1120 H 106.947 -0.442735 1.37025 0
M  V30 1121 H 108.9 -3.34375 2.56459 0
M  V30 1122 H 107.624 -2.95869 1.38307 0
M  V30 1123 H 106.283 -1.81684 3.18412 0
M  V30 1124 H 105.931 -4.24483 2.69857 0
M  V30 1125 H 105.631 -3.87683 4.4156 0
M  V30 1126 H 107.155 -4.67296 3.93022 0
M  V30 1127 H 108.569 -2.70072 5.05702 0
M  V30 1128 H 106.966 -2.13374 5.60885 0
M  V30 1129 H 108.036 -1.01802 4.74093 0
M  V30 1130 N 109.379 -1.50304 -0.473955 0
M  V30 1131 C 110.625 -1.61389 -1.22806 0
M  V30 1132 C 110.958 -0.311955 -1.91678 0
M  V30 1133 O 110.233 0.686384 -1.81986 0
M  V30 1134 C 110.516 -2.79219 -2.27396 0
M  V30 1135 C 110.369 -4.19286 -1.62848 0
M  V30 1136 C 111.688 -2.92614 -3.28732 0
M  V30 1137 H 108.807 -0.587399 -0.445119 0
M  V30 1138 H 111.449 -1.82681 -0.522265 0
M  V30 1139 H 109.599 -2.61195 -2.87592 0
M  V30 1140 H 111.271 -4.48892 -1.06271 0
M  V30 1141 H 109.514 -4.23677 -0.931693 0
M  V30 1142 H 110.185 -4.97655 -2.38838 0
M  V30 1143 H 112.661 -3.09105 -2.78556 0
M  V30 1144 H 111.537 -3.76688 -3.99246 0
M  V30 1145 H 111.798 -2.03107 -3.92683 0
M  V30 1146 N 110.857 0.726932 -1.39834 0
M  V30 1147 C 112.103 1.48884 -1.377 0
M  V30 1148 C 112.436 1.94185 0.0244852 0
M  V30 1149 O 111.711 1.67361 0.990986 0
M  V30 1150 C 111.994 2.72288 -2.3565 0
M  V30 1151 C 111.847 2.32956 -3.84775 0
M  V30 1152 C 113.166 3.74414 -2.31306 0
M  V30 1153 H 110.285 0.540062 -0.5015 0
M  V30 1154 H 112.927 0.830547 -1.70886 0
M  V30 1155 H 111.077 3.28457 -2.07481 0
M  V30 1156 H 112.749 1.82356 -4.23726 0
M  V30 1157 H 110.992 1.65088 -4.01159 0
M  V30 1158 H 111.663 3.21362 -4.4881 0
M  V30 1159 H 114.139 3.27849 -2.56231 0
M  V30 1160 H 113.015 4.58414 -3.01907 0
M  V30 1161 H 113.276 4.21909 -1.32081 0
M  V30 1162 N 112.336 1.25143 0.95797 0
M  V30 1163 C 113.299 1.05321 2.03569 0
M  V30 1164 C 114.299 0.007152 1.60798 0
M  V30 1165 O 115.489 0.24903 1.72411 0
M  V30 1166 C 112.621 0.598394 3.35607 0
M  V30 1167 H 113.814 2.00986 2.22586 0
M  V30 1168 H 111.367 1.07502 1.13459 0
M  V30 1169 H 112.102 -0.361014 3.22284 0
M  V30 1170 H 111.887 1.35351 3.67998 0
M  V30 1171 H 113.377 0.48104 4.1482 0
M  V30 1172 N 113.814 -1.1601 1.06675 0
M  V30 1173 C 115.063 -1.85973 0.780818 0
M  V30 1174 C 115.376 -1.82819 -0.695444 0
M  V30 1175 O 116.582 -2.484 -1.09589 0
M  V30 1176 C 115.038 -3.33757 1.34665 0
M  V30 1177 C 114.646 -3.45374 2.85343 0
M  V30 1178 C 116.39 -4.0895 1.13843 0
M  V30 1179 C 114.297 -4.87266 3.35151 0
M  V30 1180 H 113.227 -0.696661 0.288407 0
M  V30 1181 H 115.878 -1.30903 1.28595 0
M  V30 1182 H 114.26 -3.88456 0.769274 0
M  V30 1183 H 115.434 -3.00816 3.49065 0
M  V30 1184 H 113.749 -2.83619 3.04876 0
M  V30 1185 H 116.346 -5.13654 1.4854 0
M  V30 1186 H 116.689 -4.16229 0.0770282 0
M  V30 1187 H 117.222 -3.605 1.68179 0
M  V30 1188 H 113.961 -4.85168 4.40786 0
M  V30 1189 H 113.481 -5.32433 2.76179 0
M  V30 1190 H 115.16 -5.56097 3.30704 0
M  V30 1191 N 115.292 -0.849877 -1.32721 0
M  V30 1192 C 116.522 -0.46408 -2.0132 0
M  V30 1193 C 116.93 0.94246 -1.64056 0
M  V30 1194 O 116.273 1.6257 -0.855379 0
M  V30 1195 C 116.335 -0.517887 -3.5575 0
M  V30 1196 C 115.999 -1.88248 -4.16427 0
M  V30 1197 C 116.996 -2.84726 -4.35002 0
M  V30 1198 C 114.681 -2.17832 -4.52609 0
M  V30 1199 C 116.675 -4.08945 -4.8892 0
M  V30 1200 C 114.362 -3.42304 -5.06232 0
M  V30 1201 C 115.36 -4.37677 -5.24335 0
M  V30 1202 O 115.048 -5.59946 -5.76815 0
M  V30 1203 H 114.78 -0.181327 -0.651227 0
M  V30 1204 H 117.334 -1.14713 -1.70382 0
M  V30 1205 H 115.564 0.221997 -3.86062 0
M  V30 1206 H 117.253 -0.148366 -4.05629 0
M  V30 1207 H 118.019 -2.63174 -4.07388 0
M  V30 1208 H 113.898 -1.44385 -4.37806 0
M  V30 1209 H 117.442 -4.83396 -5.02966 0
M  V30 1210 H 113.339 -3.63709 -5.33278 0
M  V30 1211 H 114.107 -5.61838 -5.95214 0
M  V30 1212 N 116.77 1.45427 -0.607355 0
M  V30 1213 C 118.181 1.85756 -0.187535 0
M  V30 1214 C 118.532 1.5077 1.25551 0
M  V30 1215 O 117.657 0.93427 1.95193 0
M  V30 1216 C 118.252 3.37154 -0.333572 0
M  V30 1217 C 116.811 3.76387 0.0315542 0
M  V30 1218 C 115.958 2.69377 -0.658117 0
M  V30 1219 H 118.909 1.36231 -0.81405 0
M  V30 1220 H 118.93 3.78014 0.43428 0
M  V30 1221 H 118.442 3.62586 -1.38393 0
M  V30 1222 H 116.543 3.56571 1.0811 0
M  V30 1223 H 116.656 4.77731 -0.361935 0
M  V30 1224 H 115.02 2.5452 -0.0957873 0
M  V30 1225 H 115.803 2.97646 -1.7106 0
M  V30 1226 N 118.248 0.346503 1.53744 0
M  V30 1227 C 119.478 -0.250047 2.05081 0
M  V30 1228 C 119.886 -1.44529 1.22098 0
M  V30 1229 O 119.229 -1.81992 0.249917 0
M  V30 1230 C 119.291 -0.725934 3.52094 0
M  V30 1231 C 118.955 0.350053 4.55657 0
M  V30 1232 C 119.952 1.19372 5.0601 0
M  V30 1233 C 117.637 0.504827 4.99757 0
M  V30 1234 C 119.631 2.17768 5.99046 0
M  V30 1235 C 117.318 1.49218 5.92602 0
M  V30 1236 C 118.316 2.32706 6.42135 0
M  V30 1237 O 118.004 3.2976 7.33153 0
M  V30 1238 H 117.736 -0.0515469 0.674032 0
M  V30 1239 H 120.29 0.497559 1.99282 0
M  V30 1240 H 118.52 -1.52483 3.55367 0
M  V30 1241 H 120.209 -1.24336 3.86388 0
M  V30 1242 H 120.975 1.08525 4.72702 0
M  V30 1243 H 116.854 -0.135178 4.60802 0
M  V30 1244 H 120.398 2.82971 6.37631 0
M  V30 1245 H 116.295 1.6012 6.25325 0
M  V30 1246 H 117.063 3.25265 7.51096 0
M  V30 1247 N 119.726 -1.57421 0.075193 0
M  V30 1248 C 121.137 -1.81021 -0.456964 0
M  V30 1249 C 121.488 -0.98936 -1.69429 0
M  V30 1250 O 120.613 -0.212865 -2.15351 0
M  V30 1251 C 121.208 -3.28329 -0.83581 0
M  V30 1252 C 119.767 -3.52764 -1.31281 0
M  V30 1253 C 118.914 -2.75676 -0.299648 0
M  V30 1254 H 121.865 -1.55822 0.300856 0
M  V30 1255 H 121.886 -3.40564 -1.69696 0
M  V30 1256 H 121.398 -3.88046 0.0649238 0
M  V30 1257 H 119.499 -2.98355 -2.23193 0
M  V30 1258 H 119.612 -4.61451 -1.28839 0
M  V30 1259 H 117.976 -2.42538 -0.777641 0
M  V30 1260 H 118.759 -3.38132 0.593417 0
M  V30 1261 N 121.204 0.198386 -1.56346 0
M  V30 1262 C 122.134 1.24865 -1.9731 0
M  V30 1263 C 123.115 1.47651 -0.844576 0
M  V30 1264 O 124.3 1.59444 -1.10866 0
M  V30 1265 C 121.43 2.59358 -2.30977 0
M  V30 1266 C 120.384 2.5119 -3.46537 0
M  V30 1267 C 119.71 3.89926 -3.65871 0
M  V30 1268 C 121.01 2.03977 -4.80823 0
M  V30 1269 H 122.704 0.908252 -2.85291 0
M  V30 1270 H 120.25 0.435462 -1.37258 0
M  V30 1271 H 122.203 3.33011 -2.58228 0
M  V30 1272 H 120.927 2.95132 -1.39874 0
M  V30 1273 H 119.586 1.79993 -3.19371 0
M  V30 1274 H 119.234 4.23046 -2.72105 0
M  V30 1275 H 118.934 3.85336 -4.4361 0
M  V30 1276 H 120.458 4.65205 -3.95495 0
M  V30 1277 H 121.872 2.67386 -5.07127 0
M  V30 1278 H 120.269 2.10397 -5.62008 0
M  V30 1279 H 121.339 0.992861 -4.74626 0
M  V30 1280 N 122.682 1.50554 0.465978 0
M  V30 1281 C 123.928 1.62038 1.21949 0
M  V30 1282 C 124.261 0.322116 1.9151 0
M  V30 1283 O 123.536 -0.676723 1.82348 0
M  V30 1284 C 123.819 2.80421 2.25912 0
M  V30 1285 C 123.672 4.20144 1.60622 0
M  V30 1286 C 124.991 2.94354 3.27176 0
M  V30 1287 H 122.11 0.589752 0.441998 0
M  V30 1288 H 124.752 1.82956 0.51257 0
M  V30 1289 H 122.902 2.62717 2.86203 0
M  V30 1290 H 124.574 4.49449 1.03889 0
M  V30 1291 H 122.817 4.24165 0.909211 0
M  V30 1292 H 123.488 4.98914 2.36196 0
M  V30 1293 H 125.964 3.10578 2.76913 0
M  V30 1294 H 124.84 3.788 3.97242 0
M  V30 1295 H 125.101 2.05186 3.916 0
M  V30 1296 N 124.16 -0.719506 1.40217 0
M  V30 1297 C 125.09 -1.8465 1.42922 0
M  V30 1298 C 126.071 -1.67599 0.29062 0
M  V30 1299 O 127.256 -1.87688 0.498677 0
M  V30 1300 C 124.386 -3.22565 1.28722 0
M  V30 1301 C 123.34 -3.54281 2.40144 0
M  V30 1302 C 122.666 -4.91298 2.11023 0
M  V30 1303 C 123.966 -3.55676 3.82481 0
M  V30 1304 H 125.66 -1.82644 2.37237 0
M  V30 1305 H 123.206 -0.877305 1.1419 0
M  V30 1306 H 125.159 -4.01095 1.29232 0
M  V30 1307 H 123.883 -3.25137 0.308811 0
M  V30 1308 H 122.542 -2.78088 2.38877 0
M  V30 1309 H 122.19 -4.90468 1.11582 0
M  V30 1310 H 121.89 -5.13485 2.8567 0
M  V30 1311 H 123.414 -5.72166 2.13209 0
M  V30 1312 H 124.828 -4.24254 3.85592 0
M  V30 1313 H 123.225 -3.89388 4.56614 0
M  V30 1314 H 124.295 -2.55144 4.12346 0
M  V30 1315 N 125.638 -1.25649 -0.95132 0
M  V30 1316 C 126.571 -1.00644 -2.04807 0
M  V30 1317 C 127.549 0.0654271 -1.62468 0
M  V30 1318 O 128.733 -0.074911 -1.88351 0
M  V30 1319 C 125.86 -0.522052 -3.34653 0
M  V30 1320 C 124.906 -1.58495 -3.95957 0
M  V30 1321 S 125.739 -3.17108 -4.31512 0
M  V30 1322 C 126.895 -2.70412 -5.64471 0
M  V30 1323 H 127.128 -1.93508 -2.25703 0
M  V30 1324 H 124.661 -1.09216 -1.09139 0
M  V30 1325 H 126.619 -0.24923 -4.09743 0
M  V30 1326 H 125.28 0.386146 -3.11717 0
M  V30 1327 H 124.473 -1.1968 -4.89584 0
M  V30 1328 H 124.075 -1.80862 -3.2736 0
M  V30 1329 H 126.367 -2.14245 -6.42733 0
M  V30 1330 H 127.31 -3.62693 -6.08161 0
M  V30 1331 H 127.718 -2.10302 -5.23864 0
M  V30 1332 N 127.117 1.15442 -1.07289 0
M  V30 1333 C 128.342 1.90638 -0.816828 0
M  V30 1334 C 128.767 1.77445 0.624083 0
M  V30 1335 O 128.125 1.10671 1.43602 0
M  V30 1336 C 128.173 3.39008 -1.22906 0
M  V30 1337 O 127.277 4.10701 -0.373975 0
M  V30 1338 H 126.618 0.593555 -0.297638 0
M  V30 1339 H 129.148 1.46198 -1.43134 0
M  V30 1340 H 129.158 3.89801 -1.20497 0
M  V30 1341 H 127.833 3.47929 -2.27856 0
M  V30 1342 H 126.41 3.70046 -0.460499 0
M  V30 1343 N 128.595 0.856903 1.32268 0
M  V30 1344 C 129.844 0.457599 1.96441 0
M  V30 1345 C 130.157 -0.992426 1.68553 0
M  V30 1346 O 131.363 -1.49727 2.26482 0
M  V30 1347 C 129.819 0.767358 3.51624 0
M  V30 1348 C 129.427 2.23326 3.88367 0
M  V30 1349 C 131.171 0.435887 4.22256 0
M  V30 1350 C 129.078 2.48613 5.36606 0
M  V30 1351 H 128.008 0.167387 0.735185 0
M  V30 1352 H 130.659 1.048 1.5063 0
M  V30 1353 H 129.041 0.106367 3.95857 0
M  V30 1354 H 130.215 2.93623 3.55137 0
M  V30 1355 H 128.53 2.52948 3.30766 0
M  V30 1356 H 131.127 0.602202 5.31298 0
M  V30 1357 H 131.47 -0.622672 4.11617 0
M  V30 1358 H 132.003 1.05286 3.83614 0
M  V30 1359 H 128.742 3.53101 5.52268 0
M  V30 1360 H 128.262 1.82896 5.71235 0
M  V30 1361 H 129.941 2.32676 6.03714 0
M  V30 1362 N 130.073 -1.45103 0.615059 0
M  V30 1363 C 131.32 -2.02183 0.113179 0
M  V30 1364 C 131.648 -1.48249 -1.25906 0
M  V30 1365 O 130.903 -0.650265 -1.84581 0
M  V30 1366 C 131.202 -3.57386 0.0318797 0
M  V30 1367 C 130.868 -4.30505 1.34077 0
M  V30 1368 C 129.53 -4.50197 1.69929 0
M  V30 1369 C 131.882 -4.72238 2.20546 0
M  V30 1370 C 129.21 -5.08881 2.91988 0
M  V30 1371 C 131.562 -5.32272 3.41861 0
M  V30 1372 C 130.226 -5.50187 3.77956 0
M  V30 1373 H 129.496 -0.739842 0.0414151 0
M  V30 1374 H 132.143 -1.74073 0.798168 0
M  V30 1375 H 130.448 -3.84817 -0.736409 0
M  V30 1376 H 132.145 -3.99264 -0.372712 0
M  V30 1377 H 128.735 -4.15496 1.05173 0
M  V30 1378 H 132.919 -4.56751 1.94146 0
M  V30 1379 H 128.175 -5.20939 3.2005 0
M  V30 1380 H 132.349 -5.63563 4.09109 0
M  V30 1381 H 129.976 -5.95427 4.72622 0
M  V30 1382 N 131.551 -0.354651 -1.53558 0
M  V30 1383 C 132.499 0.512195 -2.26891 0
M  V30 1384 C 133.493 1.09263 -1.29452 0
M  V30 1385 O 134.699 1.03709 -1.47121 0
M  V30 1386 H 131.074 0.183878 -0.729173 0
M  V30 1387 H 133.045 -0.128202 -2.98124 0
M  V30 1388 C 131.794 1.64563 -3.06291 0
M  V30 1389 H 131.117 1.20829 -3.81104 0
M  V30 1390 H 132.557 2.22711 -3.60799 0
M  V30 1391 C 131.016 2.58158 -2.16462 0
M  V30 1392 O 131.546 3.60695 -1.76811 0
M  V30 1393 N 129.752 2.27096 -1.81317 0
M  V30 1394 H 129.299 1.43751 -2.1376 0
M  V30 1395 H 129.257 2.89975 -1.21498 0
M  V30 1396 N 133.029 1.57378 -0.0835403 0
M  V30 1397 C 133.977 2.14602 0.89714 0
M  V30 1398 C 134.971 1.08589 1.30018 0
M  V30 1399 O 136.177 1.26952 1.27606 0
M  V30 1400 H 132.552 0.686346 0.3073 0
M  V30 1401 H 134.523 2.95845 0.38969 0
M  V30 1402 C 133.272 2.73188 2.15089 0
M  V30 1403 H 132.595 3.54442 1.84962 0
M  V30 1404 H 134.035 3.1681 2.81793 0
M  V30 1405 C 132.494 1.68517 2.91725 0
M  V30 1406 O 133.024 1.11718 3.85852 0
M  V30 1407 N 131.23 1.39277 2.55049 0
M  V30 1408 H 130.777 1.85655 1.78577 0
M  V30 1409 H 130.735 0.694791 3.06627 0
M  V30 1410 N 134.507 -0.190092 1.56449 0
M  V30 1411 C 135.755 -0.907908 1.80559 0
M  V30 1412 C 136.076 -1.83583 0.657438 0
M  V30 1413 O 135.346 -1.93203 -0.323924 0
M  V30 1414 H 133.926 -0.338247 0.666032 0
M  V30 1415 H 136.588 -0.194403 1.93928 0
M  V30 1416 H 135.684 -1.49604 2.73907 0
M  V30 1417 N 135.985 -1.50799 -0.457987 0
M  V30 1418 C 137.231 -1.63648 -1.20792 0
M  V30 1419 C 137.586 -0.338662 -1.89396 0
M  V30 1420 O 136.879 0.664291 -1.79716 0
M  V30 1421 C 137.073 -2.76358 -2.2663 0
M  V30 1422 C 136.902 -4.16974 -1.68411 0
M  V30 1423 C 135.672 -4.83199 -1.47807 0
M  V30 1424 C 137.87 -5.00774 -1.17176 0
M  V30 1425 N 135.852 -6.07991 -0.849692 0
M  V30 1426 C 137.223 -6.16397 -0.667403 0
M  V30 1427 C 139.278 -4.86452 -1.06155 0
M  V30 1428 C 137.981 -7.19272 -0.0636908 0
M  V30 1429 C 140.007 -5.89515 -0.471759 0
M  V30 1430 C 139.369 -7.04397 0.0221557 0
M  V30 1431 H 135.468 -0.652888 -0.43042 0
M  V30 1432 H 138.052 -1.87962 -0.507785 0
M  V30 1433 H 136.223 -2.53744 -2.94056 0
M  V30 1434 H 137.955 -2.78496 -2.93636 0
M  V30 1435 H 134.71 -4.40714 -1.73403 0
M  V30 1436 H 135.134 -6.74733 -0.553537 0
M  V30 1437 H 139.776 -3.97907 -1.42932 0
M  V30 1438 H 137.494 -8.07481 0.316253 0
M  V30 1439 H 141.08 -5.805 -0.388671 0
M  V30 1440 H 139.96 -7.82782 0.471375 0
M  V30 1441 N 137.463 0.71206 -1.40597 0
M  V30 1442 C 138.411 1.84746 -1.41321 0
M  V30 1443 C 139.405 1.66842 -0.293268 0
M  V30 1444 O 140.611 1.73904 -0.464481 0
M  V30 1445 H 136.986 0.608522 -0.441819 0
M  V30 1446 H 138.957 1.81252 -2.37045 0
M  V30 1447 C 137.706 3.22638 -1.29614 0
M  V30 1448 H 137.029 3.37023 -2.15071 0
M  V30 1449 H 138.469 4.02209 -1.3418 0
M  V30 1450 C 136.928 3.36899 -0.00673121 0
M  V30 1451 O 137.458 3.90186 0.954859 0
M  V30 1452 N 135.664 2.9053 0.0639327 0
M  V30 1453 H 135.211 2.47353 -0.719311 0
M  V30 1454 H 135.169 3.0045 0.926118 0
M  V30 1455 N 138.941 1.26152 0.944643 0
M  V30 1456 C 139.871 1.09902 2.06019 0
M  V30 1457 C 140.852 0.00519538 1.70099 0
M  V30 1458 O 142.037 0.176583 1.93396 0
M  V30 1459 C 139.167 0.727562 3.39594 0
M  V30 1460 C 138.121 1.77274 3.89561 0
M  V30 1461 C 137.447 1.25569 5.19747 0
M  V30 1462 C 138.747 3.17357 4.14827 0
M  V30 1463 H 140.441 2.03217 2.19871 0
M  V30 1464 H 137.987 0.978452 1.05652 0
M  V30 1465 H 139.94 0.600777 4.17095 0
M  V30 1466 H 138.664 -0.241287 3.25707 0
M  V30 1467 H 137.323 1.88814 3.14237 0
M  V30 1468 H 136.971 0.276783 5.02238 0
M  V30 1469 H 136.671 1.95433 5.54148 0
M  V30 1470 H 138.195 1.1415 5.99835 0
M  V30 1471 H 139.609 3.08914 4.82954 0
M  V30 1472 H 138.006 3.84781 4.60504 0
M  V30 1473 H 139.076 3.63673 3.20734 0
M  V30 1474 N 140.419 -1.14872 1.07899 0
M  V30 1475 C 141.667 -1.85422 0.803941 0
M  V30 1476 C 141.988 -1.83051 -0.67211 0
M  V30 1477 O 141.258 -1.27532 -1.48703 0
M  V30 1478 H 139.838 -0.686537 0.294408 0
M  V30 1479 H 142.5 -1.39226 1.3639 0
M  V30 1480 H 141.596 -2.90399 1.14346 0
M  V30 1481 N 141.898 -0.863906 -1.31812 0
M  V30 1482 C 143.128 -0.485406 -2.00817 0
M  V30 1483 C 143.536 0.925007 -1.65046 0
M  V30 1484 O 142.879 1.61653 -0.872574 0
M  V30 1485 C 142.941 -0.555589 -3.55181 0
M  V30 1486 C 142.605 -1.92654 -4.14407 0
M  V30 1487 C 143.602 -2.89324 -4.31958 0
M  V30 1488 C 141.287 -2.2262 -4.50273 0
M  V30 1489 C 143.281 -4.14108 -4.84555 0
M  V30 1490 C 140.968 -3.47654 -5.02573 0
M  V30 1491 C 141.966 -4.43214 -5.19664 0
M  V30 1492 O 141.654 -5.66033 -5.70843 0
M  V30 1493 H 141.386 -0.188224 -0.649267 0
M  V30 1494 H 143.94 -1.16514 -1.69156 0
M  V30 1495 H 142.17 0.181037 -3.86276 0
M  V30 1496 H 143.859 -0.19138 -4.05449 0
M  V30 1497 H 144.625 -2.6748 -4.04573 0
M  V30 1498 H 140.504 -1.4902 -4.3625 0
M  V30 1499 H 144.048 -4.88703 -4.9781 0
M  V30 1500 H 139.945 -3.69345 -5.29391 0
M  V30 1501 H 140.713 -5.6812 -5.89222 0
M  V30 1502 N 143.376 1.44774 -0.622745 0
M  V30 1503 C 144.306 2.33382 0.0741861 0
M  V30 1504 C 145.287 1.47719 0.843387 0
M  V30 1505 O 146.472 1.76458 0.810934 0
M  V30 1506 C 143.602 3.30663 1.06204 0
M  V30 1507 C 142.556 4.26079 0.405037 0
M  V30 1508 C 141.882 5.13165 1.5022 0
M  V30 1509 C 143.182 5.1781 -0.683414 0
M  V30 1510 H 144.876 2.91905 -0.665713 0
M  V30 1511 H 142.422 1.40363 -0.321587 0
M  V30 1512 H 144.375 3.9153 1.55827 0
M  V30 1513 H 143.099 2.70331 1.83272 0
M  V30 1514 H 141.758 3.66532 -0.0704683 0
M  V30 1515 H 141.406 4.49191 2.26355 0
M  V30 1516 H 141.106 5.77812 1.06803 0
M  V30 1517 H 142.63 5.76902 2.00041 0
M  V30 1518 H 144.044 5.72661 -0.270631 0
M  V30 1519 H 142.441 5.91015 -1.04023 0
M  V30 1520 H 143.511 4.59326 -1.55395 0
M  V30 1521 N 144.854 0.36279 1.53368 0
M  V30 1522 C 145.804 -0.501391 2.22419 0
M  V30 1523 C 146.788 -1.0509 1.2184 0
M  V30 1524 O 147.98 -0.981404 1.47301 0
M  V30 1525 C 145.109 -1.64201 3.01484 0
M  V30 1526 C 144.195 -1.10552 4.09438 0
M  V30 1527 N 144.586 -0.291788 5.04958 0
M  V30 1528 C 142.884 -1.3806 4.24094 0
M  V30 1529 C 143.585 0.00162655 5.817 0
M  V30 1530 N 142.561 -0.595244 5.40331 0
M  V30 1531 H 146.363 0.127159 2.93625 0
M  V30 1532 H 143.877 0.170658 1.61501 0
M  V30 1533 H 145.874 -2.27326 3.49469 0
M  V30 1534 H 144.534 -2.27365 2.31809 0
M  V30 1535 H 145.545 0.0687731 5.17854 0
M  V30 1536 H 142.222 -2.01522 3.65644 0
M  V30 1537 H 143.612 0.659278 6.68658 0
M  V30 1538 N 146.332 -1.57332 0.0918853 0
M  V30 1539 C 147.572 -1.96117 -0.575988 0
M  V30 1540 C 147.936 -0.972499 -1.65549 0
M  V30 1541 O 149.137 -1.24872 -2.38034 0
M  V30 1542 C 147.408 -3.39407 -1.11973 0
M  V30 1543 S 148.967 -4.00185 -1.79992 0
M  V30 1544 H 145.785 -0.685682 -0.188045 0
M  V30 1545 H 148.387 -1.94755 0.170525 0
M  V30 1546 H 147.091 -4.09131 -0.322504 0
M  V30 1547 H 146.622 -3.44358 -1.90214 0
M  V30 1548 H 148.637 -3.88728 -3.08391 0
M  V30 1549 N 147.81 0.181792 -1.56548 0
M  V30 1550 C 148.742 1.24956 -1.92142 0
M  V30 1551 C 149.755 1.41022 -0.813422 0
M  V30 1552 O 150.944 1.41212 -1.09186 0
M  V30 1553 C 148.044 2.61981 -2.14987 0
M  V30 1554 C 147.217 2.6735 -3.46183 0
M  V30 1555 C 146.276 3.85664 -3.5798 0
M  V30 1556 O 145.302 3.72148 -4.30691 0
M  V30 1557 N 146.504 5.01683 -2.92053 0
M  V30 1558 H 149.269 0.947329 -2.84334 0
M  V30 1559 H 146.83 0.371629 -1.57577 0
M  V30 1560 H 148.822 3.3958 -2.20154 0
M  V30 1561 H 147.392 2.84637 -1.2923 0
M  V30 1562 H 146.612 1.75925 -3.52766 0
M  V30 1563 H 147.9 2.67939 -4.32534 0
M  V30 1564 H 147.298 5.15564 -2.32832 0
M  V30 1565 H 145.855 5.77181 -3.0283 0
M  V30 1566 N 149.288 1.51039 0.449983 0
M  V30 1567 C 150.534 1.63322 1.20223 0
M  V30 1568 C 150.867 0.34241 1.91158 0
M  V30 1569 O 150.142 -0.657344 1.83055 0
M  V30 1570 C 150.425 2.82801 2.22925 0
M  V30 1571 C 150.278 4.21823 1.56157 0
M  V30 1572 C 151.597 2.97807 3.24035 0
M  V30 1573 H 148.716 0.594407 0.435718 0
M  V30 1574 H 151.358 1.83489 0.493136 0
M  V30 1575 H 149.508 2.65738 2.834 0
M  V30 1576 H 151.18 4.50526 0.991162 0
M  V30 1577 H 149.423 4.25105 0.864172 0
M  V30 1578 H 150.094 5.01391 2.30891 0
M  V30 1579 H 152.57 3.13497 2.73603 0
M  V30 1580 H 151.446 3.82992 3.93202 0
M  V30 1581 H 151.707 2.09328 3.89402 0
M  V30 1582 N 150.766 -0.704594 1.40972 0
M  V30 1583 C 151.991 -1.49858 1.43378 0
M  V30 1584 C 152.416 -1.88061 0.038184 0
M  V30 1585 O 151.774 -1.5402 -0.956425 0
M  V30 1586 C 151.822 -2.74333 2.34038 0
M  V30 1587 O 150.926 -3.7147 1.7912 0
M  V30 1588 H 150.267 -0.45139 0.486974 0
M  V30 1589 H 152.797 -0.866832 1.8533 0
M  V30 1590 H 152.807 -3.22741 2.49604 0
M  V30 1591 H 151.482 -2.45863 3.35446 0
M  V30 1592 H 150.059 -3.30363 1.72958 0
M  V30 1593 N 152.244 -1.26651 -0.937939 0
M  V30 1594 C 153.492 -1.12165 -1.68118 0
M  V30 1595 C 153.813 0.334983 -1.92101 0
M  V30 1596 O 153.083 1.23583 -1.52 0
M  V30 1597 H 151.663 -0.412093 -0.623048 0
M  V30 1598 H 154.325 -1.59027 -1.12678 0
M  V30 1599 H 153.421 -1.64289 -2.6536 0
M  V30 1600 N 153.722 1.14298 -1.08507 0
M  V30 1601 C 154.969 1.85359 -0.815373 0
M  V30 1602 C 155.297 1.83001 0.658865 0
M  V30 1603 O 154.552 1.25655 1.50031 0
M  V30 1604 C 154.851 3.33547 -1.28379 0
M  V30 1605 C 154.517 3.56093 -2.76602 0
M  V30 1606 C 153.179 3.61955 -3.17084 0
M  V30 1607 C 155.531 3.64834 -3.72217 0
M  V30 1608 C 152.859 3.74082 -4.51973 0
M  V30 1609 C 155.211 3.78487 -5.06883 0
M  V30 1610 C 153.875 3.82598 -5.46969 0
M  V30 1611 H 153.145 0.678276 -0.298366 0
M  V30 1612 H 155.792 1.35002 -1.35819 0
M  V30 1613 H 154.097 3.86191 -0.660593 0
M  V30 1614 H 155.794 3.86959 -1.05186 0
M  V30 1615 H 152.384 3.52179 -2.4427 0
M  V30 1616 H 156.568 3.59595 -3.42061 0
M  V30 1617 H 151.824 3.75527 -4.82483 0
M  V30 1618 H 155.998 3.84193 -5.80834 0
M  V30 1619 H 153.625 3.91747 -6.51489 0
M  V30 1620 N 155.201 0.870884 1.31352 0
M  V30 1621 C 156.131 0.343096 2.30966 0
M  V30 1622 C 157.112 -0.566507 1.60389 0
M  V30 1623 O 158.297 -0.483336 1.88089 0
M  V30 1624 C 155.427 -0.455487 3.443 0
M  V30 1625 C 154.381 0.361103 4.26474 0
M  V30 1626 C 153.707 -0.563221 5.31725 0
M  V30 1627 C 155.007 1.59566 4.97329 0
M  V30 1628 H 156.701 1.17548 2.75359 0
M  V30 1629 H 154.247 0.566686 1.32381 0
M  V30 1630 H 156.2 -0.83525 4.13039 0
M  V30 1631 H 154.924 -1.32139 2.98675 0
M  V30 1632 H 153.583 0.722825 3.59403 0
M  V30 1633 H 153.231 -1.42643 4.82351 0
M  V30 1634 H 152.931 -0.0207409 5.87596 0
M  V30 1635 H 154.455 -0.939808 6.03324 0
M  V30 1636 H 155.869 1.28728 5.58661 0
M  V30 1637 H 154.266 2.07728 5.63 0
M  V30 1638 H 155.336 2.34798 4.24262 0
M  V30 1639 N 156.679 -1.44442 0.630414 0
M  V30 1640 C 157.612 -2.27862 -0.124247 0
M  V30 1641 C 158.59 -1.38495 -0.851931 0
M  V30 1642 O 159.774 -1.67935 -0.856166 0
M  V30 1643 C 156.901 -3.17407 -1.18197 0
M  V30 1644 C 155.947 -4.22875 -0.554892 0
M  V30 1645 S 156.78 -5.31485 0.654489 0
M  V30 1646 C 157.936 -6.246 -0.40326 0
M  V30 1647 H 158.169 -2.91519 0.583435 0
M  V30 1648 H 155.702 -1.48618 0.418565 0
M  V30 1649 H 157.66 -3.69549 -1.78728 0
M  V30 1650 H 156.321 -2.52971 -1.86184 0
M  V30 1651 H 155.514 -4.85542 -1.35148 0
M  V30 1652 H 155.116 -3.73992 -0.0242105 0
M  V30 1653 H 157.408 -6.65375 -1.27602 0
M  V30 1654 H 158.351 -7.07851 0.187813 0
M  V30 1655 H 158.759 -5.59775 -0.728837 0
M  V30 1656 N 158.157 -0.370918 -1.53173 0
M  V30 1657 C 159.405 0.216673 -2.00935 0
M  V30 1658 C 159.726 1.48845 -1.25977 0
M  V30 1659 O 158.996 1.92286 -0.374551 0
M  V30 1660 H 157.576 0.0830565 -0.742368 0
M  V30 1661 H 160.238 -0.49838 -1.8842 0
M  V30 1662 H 159.334 0.439893 -3.08984 0
M  V30 1663 N 159.635 1.57281 -0.100228 0
M  V30 1664 C 160.565 2.17328 0.853857 0
M  V30 1665 C 161.546 1.10804 1.2906 0
M  V30 1666 O 162.731 1.38963 1.35657 0
M  V30 1667 C 159.861 2.75772 2.11109 0
M  V30 1668 C 158.815 3.87713 1.81279 0
M  V30 1669 C 158.141 4.32882 3.13874 0
M  V30 1670 C 159.441 5.10677 1.09574 0
M  V30 1671 H 161.135 2.97305 0.353545 0
M  V30 1672 H 158.681 1.43009 0.168612 0
M  V30 1673 H 160.634 3.16433 2.78296 0
M  V30 1674 H 159.358 1.93057 2.63432 0
M  V30 1675 H 158.017 3.476 1.16489 0
M  V30 1676 H 157.665 3.47051 3.64095 0
M  V30 1677 H 157.365 5.08358 2.94696 0
M  V30 1678 H 158.889 4.7618 3.82211 0
M  V30 1679 H 160.303 5.48474 1.66879 0
M  V30 1680 H 158.7 5.91615 1.00557 0
M  V30 1681 H 159.77 4.84835 0.0793299 0
M  V30 1682 N 161.113 -0.173488 1.56642 0
M  V30 1683 C 162.338 -0.910149 1.86363 0
M  V30 1684 C 162.763 -1.75132 0.686318 0
M  V30 1685 O 162.121 -1.77595 -0.364643 0
M  V30 1686 C 162.169 -1.76447 3.14482 0
M  V30 1687 O 161.273 -2.86584 2.96553 0
M  V30 1688 H 160.614 -0.255086 0.613047 0
M  V30 1689 H 163.144 -0.172283 2.03873 0
M  V30 1690 H 163.154 -2.16483 3.45831 0
M  V30 1691 H 161.829 -1.14658 3.99783 0
M  V30 1692 H 160.406 -2.50146 2.76553 0
M  V30 1693 N 162.591 -1.51276 -0.441967 0
M  V30 1694 C 163.837 -1.63958 -1.19355 0
M  V30 1695 C 164.17 -0.352543 -1.90973 0
M  V30 1696 O 163.445 0.647627 -1.83401 0
M  V30 1697 C 163.728 -2.83979 -2.21422 0
M  V30 1698 C 163.581 -4.22646 -1.53918 0
M  V30 1699 C 164.9 -2.99521 -3.22451 0
M  V30 1700 H 162.019 -0.596709 -0.432559 0
M  V30 1701 H 164.661 -1.83748 -0.483398 0
M  V30 1702 H 162.811 -2.67237 -2.81987 0
M  V30 1703 H 164.483 -4.51045 -0.967256 0
M  V30 1704 H 162.726 -4.25558 -0.841615 0
M  V30 1705 H 163.397 -5.02609 -2.28229 0
M  V30 1706 H 165.873 -3.14944 -2.71937 0
M  V30 1707 H 164.749 -3.85072 -3.91166 0
M  V30 1708 H 165.01 -2.11391 -3.88287 0
M  V30 1709 N 164.069 0.697108 -1.41344 0
M  V30 1710 C 165.318 1.45279 -1.39918 0
M  V30 1711 C 165.631 1.95597 -0.0109624 0
M  V30 1712 O 166.837 2.71208 0.125919 0
M  V30 1713 C 165.293 2.62695 -2.46007 0
M  V30 1714 C 164.901 2.19169 -3.90729 0
M  V30 1715 C 166.645 3.40336 -2.53715 0
M  V30 1716 C 164.552 3.33535 -4.88373 0
M  V30 1717 H 163.482 0.545692 -0.520323 0
M  V30 1718 H 166.133 0.756929 -1.67161 0
M  V30 1719 H 164.515 3.34541 -2.11892 0
M  V30 1720 H 165.689 1.54623 -4.34083 0
M  V30 1721 H 164.004 1.54525 -3.86666 0
M  V30 1722 H 166.601 4.2547 -3.2385 0
M  V30 1723 H 166.944 3.85418 -1.5735 0
M  V30 1724 H 167.477 2.75546 -2.86913 0
M  V30 1725 H 164.216 2.93468 -5.86137 0
M  V30 1726 H 163.736 3.96936 -4.49668 0
M  V30 1727 H 165.415 3.99335 -5.09059 0
M  V30 1728 N 165.547 1.27147 0.931209 0
M  V30 1729 C 166.795 1.13055 1.6752 0
M  V30 1730 C 167.116 -0.324791 1.92276 0
M  V30 1731 O 166.386 -1.22775 1.52654 0
M  V30 1732 H 164.966 0.415391 0.620854 0
M  V30 1733 H 167.628 1.59623 1.11833 0
M  V30 1734 H 166.724 1.65694 2.64485 0
M  V30 1735 N 167.025 -1.13721 1.09112 0
M  V30 1736 C 168.25 -1.89314 0.847053 0
M  V30 1737 C 168.675 -1.78416 -0.595774 0
M  V30 1738 O 168.033 -1.12942 -1.41823 0
M  V30 1739 C 168.081 -3.3701 1.28284 0
M  V30 1740 O 167.185 -4.10054 0.439267 0
M  V30 1741 H 166.526 -0.588745 0.307044 0
M  V30 1742 H 169.056 -1.43902 1.45442 0
M  V30 1743 H 169.066 -3.87834 1.26683 0
M  V30 1744 H 167.741 -3.4426 2.33363 0
M  V30 1745 H 166.318 -3.69266 0.519312 0
M  V30 1746 N 168.503 -0.877838 -1.30888 0
M  V30 1747 C 169.752 -0.488793 -1.95688 0
M  V30 1748 C 170.065 0.965485 -1.70111 0
M  V30 1749 O 171.271 1.46104 -2.28836 0
M  V30 1750 C 169.727 -0.823201 -3.50359 0
M  V30 1751 C 169.335 -2.29477 -3.84765 0
M  V30 1752 C 171.079 -0.503009 -4.21509 0
M  V30 1753 C 168.986 -2.57118 -5.32583 0
M  V30 1754 H 167.916 -0.179062 -0.732429 0
M  V30 1755 H 170.567 -1.07183 -1.48943 0
M  V30 1756 H 168.949 -0.169331 -3.95638 0
M  V30 1757 H 170.123 -2.99236 -3.5042 0
M  V30 1758 H 168.438 -2.58178 -3.267 0
M  V30 1759 H 171.035 -0.68665 -5.30273 0
M  V30 1760 H 171.378 0.557109 -4.12555 0
M  V30 1761 H 171.911 -1.11376 -3.8189 0
M  V30 1762 H 168.65 -3.61843 -5.4658 0
M  V30 1763 H 168.17 -1.91961 -5.68253 0
M  V30 1764 H 169.849 -2.42251 -5.99936 0
M  V30 1765 N 169.982 1.44106 -0.638065 0
M  V30 1766 C 171.229 2.01978 -0.14533 0
M  V30 1767 C 171.557 1.50234 1.23532 0
M  V30 1768 O 170.812 0.679548 1.83523 0
M  V30 1769 C 171.111 3.5729 -0.0887327 0
M  V30 1770 C 170.777 4.28317 -1.40909 0
M  V30 1771 C 169.439 4.47437 -1.77069 0
M  V30 1772 C 171.791 4.6867 -2.28031 0
M  V30 1773 C 169.119 5.04171 -3.00047 0
M  V30 1774 C 171.471 5.26766 -3.50286 0
M  V30 1775 C 170.135 5.44104 -3.86661 0
M  V30 1776 H 169.405 0.739089 -0.0531801 0
M  V30 1777 H 172.052 1.72781 -0.825761 0
M  V30 1778 H 170.357 3.8594 0.675095 0
M  V30 1779 H 172.054 3.99807 0.309145 0
M  V30 1780 H 168.644 4.1377 -1.1177 0
M  V30 1781 H 172.828 4.53604 -2.01388 0
M  V30 1782 H 168.084 5.15782 -3.28298 0
M  V30 1783 H 172.258 5.56983 -4.18023 0
M  V30 1784 H 169.885 5.87832 -4.82034 0
M  V30 1785 N 171.46 0.379036 1.52974 0
M  V30 1786 C 172.408 -0.476033 2.27677 0
M  V30 1787 C 173.402 -1.0719 1.31174 0
M  V30 1788 O 174.608 -1.01355 1.48752 0
M  V30 1789 H 170.983 -0.172255 0.732006 0
M  V30 1790 H 172.954 0.175615 2.97883 0
M  V30 1791 C 171.703 -1.5967 3.0887 0
M  V30 1792 H 171.026 -1.1475 3.82978 0
M  V30 1793 H 172.466 -2.16943 3.64296 0
M  V30 1794 C 170.925 -2.54682 2.20542 0
M  V30 1795 O 171.455 -3.57836 1.82527 0
M  V30 1796 N 169.661 -2.24183 1.84907 0
M  V30 1797 H 169.208 -1.40333 2.1602 0
M  V30 1798 H 169.166 -2.88006 1.26096 0
M  V30 1799 N 172.938 -1.57226 0.108567 0
M  V30 1800 C 174.187 -1.94008 -0.551703 0
M  V30 1801 C 174.5 -0.993442 -1.68494 0
M  V30 1802 O 175.706 -1.25551 -2.40726 0
M  V30 1803 C 174.162 -3.44763 -1.03279 0
M  V30 1804 C 173.77 -4.47943 0.0714193 0
M  V30 1805 C 175.514 -3.90483 -1.66503 0
M  V30 1806 C 173.421 -5.89865 -0.425779 0
M  V30 1807 H 172.351 -0.724206 -0.209863 0
M  V30 1808 H 175.002 -1.82547 0.186741 0
M  V30 1809 H 173.384 -3.51422 -1.82533 0
M  V30 1810 H 174.558 -4.52942 0.847365 0
M  V30 1811 H 172.873 -4.11913 0.609669 0
M  V30 1812 H 175.47 -4.93925 -2.04798 0
M  V30 1813 H 175.813 -3.29877 -2.53942 0
M  V30 1814 H 176.346 -3.86581 -0.938074 0
M  V30 1815 H 173.085 -6.54202 0.412316 0
M  V30 1816 H 172.605 -5.88309 -1.16843 0
M  V30 1817 H 174.284 -6.40844 -0.890397 0
M  V30 1818 N 174.416 0.165178 -1.56732 0
M  V30 1819 C 175.644 0.896218 -1.86482 0
M  V30 1820 C 176.059 1.75555 -0.694675 0
M  V30 1821 O 175.416 1.79379 0.33607 0
M  V30 1822 C 175.467 1.76792 -3.1532 0
M  V30 1823 O 175.188 0.943239 -4.27825 0
M  V30 1824 C 176.689 2.6081 -3.58459 0
M  V30 1825 H 173.909 0.260064 -0.618553 0
M  V30 1826 H 176.453 0.163428 -2.03846 0
M  V30 1827 H 174.608 2.45398 -2.99764 0
M  V30 1828 H 175.022 1.53998 -5.01383 0
M  V30 1829 H 176.496 3.17579 -4.51495 0
M  V30 1830 H 176.973 3.35977 -2.82872 0
M  V30 1831 H 177.579 1.97526 -3.76648 0
M  V30 1832 N 175.894 1.51508 0.433938 0
M  V30 1833 C 177.142 1.6402 1.18075 0
M  V30 1834 C 177.463 0.360328 1.91642 0
M  V30 1835 O 176.733 -0.623945 1.85698 0
M  V30 1836 H 175.313 0.6045 0.43885 0
M  V30 1837 H 177.975 1.88452 0.497178 0
M  V30 1838 H 177.071 2.46949 1.90847 0
M  V30 1839 N 177.372 -0.689602 1.41712 0
M  V30 1840 C 178.621 -1.44534 1.40686 0
M  V30 1841 C 178.934 -1.95588 0.0213352 0
M  V30 1842 O 180.14 -2.71271 -0.111534 0
M  V30 1843 C 178.596 -2.61387 2.47396 0
M  V30 1844 C 178.204 -2.17094 3.91885 0
M  V30 1845 C 179.948 -3.38986 2.55517 0
M  V30 1846 C 177.855 -3.3094 4.90135 0
M  V30 1847 H 176.785 -0.542925 0.52321 0
M  V30 1848 H 179.436 -0.748054 1.6756 0
M  V30 1849 H 177.818 -3.33412 2.13664 0
M  V30 1850 H 178.992 -1.52318 4.34897 0
M  V30 1851 H 177.307 -1.52473 3.8748 0
M  V30 1852 H 179.904 -4.23747 3.26102 0
M  V30 1853 H 180.247 -3.84578 1.59391 0
M  V30 1854 H 180.78 -2.74021 2.8837 0
M  V30 1855 H 177.519 -2.90355 5.87685 0
M  V30 1856 H 177.039 -3.94546 4.51767 0
M  V30 1857 H 178.718 -3.9663 5.11169 0
M  V30 1858 N 178.85 -1.27639 -0.924453 0
M  V30 1859 C 179.813 -1.10681 -2.00705 0
M  V30 1860 C 180.813 -0.0497823 -1.60723 0
M  V30 1861 O 182.003 -0.294654 -1.7169 0
M  V30 1862 C 179.135 -0.687164 -3.33902 0
M  V30 1863 H 180.328 -2.06817 -2.17179 0
M  V30 1864 H 177.881 -1.10473 -1.10569 0
M  V30 1865 H 178.616 0.275439 -3.23128 0
M  V30 1866 H 178.401 -1.45061 -3.6428 0
M  V30 1867 H 179.891 -0.590853 -4.13399 0
M  V30 1868 N 180.328 1.1314 -1.09713 0
M  V30 1869 C 181.577 1.83838 -0.829851 0
M  V30 1870 C 181.89 1.84599 0.646728 0
M  V30 1871 O 183.096 2.51218 1.02965 0
M  V30 1872 C 181.552 3.30069 -1.43466 0
M  V30 1873 C 181.16 3.37688 -2.94399 0
M  V30 1874 C 182.904 4.05788 -1.24645 0
M  V30 1875 C 180.811 4.78209 -3.47952 0
M  V30 1876 H 179.741 0.68877 -0.306777 0
M  V30 1877 H 182.392 1.27448 -1.3202 0
M  V30 1878 H 180.774 3.8628 -0.871996 0
M  V30 1879 H 181.948 2.91456 -3.56918 0
M  V30 1880 H 180.263 2.75436 -3.12289 0
M  V30 1881 H 182.86 5.09535 -1.62107 0
M  V30 1882 H 183.203 4.15878 -0.187357 0
M  V30 1883 H 183.736 3.55915 -1.77678 0
M  V30 1884 H 180.475 4.73311 -4.53495 0
M  V30 1885 H 179.995 5.24924 -2.90198 0
M  V30 1886 H 181.674 5.47133 -3.45332 0
M  V30 1887 N 181.806 0.884767 1.30421 0
M  V30 1888 C 182.754 0.340869 2.30089 0
M  V30 1889 C 183.748 -0.55201 1.60154 0
M  V30 1890 O 184.954 -0.436467 1.74628 0
M  V30 1891 H 181.329 0.0915739 0.746404 0
M  V30 1892 H 183.3 1.19513 2.73421 0
M  V30 1893 C 182.049 -0.429779 3.45034 0
M  V30 1894 H 181.372 0.248024 3.9903 0
M  V30 1895 H 182.812 -0.775445 4.16849 0
M  V30 1896 C 181.271 -1.62677 2.95022 0
M  V30 1897 O 181.801 -2.72614 2.95033 0
M  V30 1898 N 180.007 -1.46387 2.51036 0
M  V30 1899 H 179.554 -0.569506 2.51226 0
M  V30 1900 H 179.512 -2.26612 2.17932 0
M  V30 1901 N 183.284 -1.43765 0.645699 0
M  V30 1902 C 184.7 -1.56509 0.312591 0
M  V30 1903 C 184.9 -1.6307 -1.18365 0
M  V30 1904 O 183.956 -1.58167 -1.96824 0
M  V30 1905 C 185.269 -2.82968 1.01733 0
M  V30 1906 C 186.817 -2.96701 0.996865 0
M  V30 1907 C 187.292 -4.25982 1.68236 0
M  V30 1908 N 188.783 -4.32829 1.64964 0
M  V30 1909 C 189.518 -5.31613 2.14885 0
M  V30 1910 N 189.014 -6.36718 2.73061 0
M  V30 1911 N 190.807 -5.23217 2.05428 0
M  V30 1912 H 182.958 -1.3775 1.61675 0
M  V30 1913 H 185.221 -0.661067 0.679481 0
M  V30 1914 H 184.927 -2.84156 2.0724 0
M  V30 1915 H 184.801 -3.72957 0.564177 0
M  V30 1916 H 187.188 -2.95058 -0.0497719 0
M  V30 1917 H 187.269 -2.08022 1.48865 0
M  V30 1918 H 186.913 -4.28386 2.72852 0
M  V30 1919 H 186.843 -5.13545 1.16529 0
M  V30 1920 H 189.334 -3.57493 1.22503 0
M  V30 1921 H 189.647 -7.08401 3.08848 0
M  V30 1922 H 187.992 -6.37362 2.77118 0
M  V30 1923 H 191.183 -4.40019 1.59689 0
M  V30 1924 H 191.356 -6.00045 2.44643 0
M  V30 1925 N 184.763 -0.387143 -1.52771 0
M  V30 1926 C 185.993 0.195585 -2.05672 0
M  V30 1927 C 186.401 1.41241 -1.25887 0
M  V30 1928 O 185.744 1.81265 -0.298081 0
M  V30 1929 C 185.806 0.632327 -3.53895 0
M  V30 1930 C 185.47 -0.470739 -4.54569 0
M  V30 1931 C 186.467 -1.32746 -5.02667 0
M  V30 1932 C 184.152 -0.637151 -4.98243 0
M  V30 1933 C 186.146 -2.33574 -5.93061 0
M  V30 1934 C 183.833 -1.64877 -5.88438 0
M  V30 1935 C 184.831 -2.49649 -6.35739 0
M  V30 1936 O 184.519 -3.49082 -7.24153 0
M  V30 1937 H 184.251 0.033658 -0.675162 0
M  V30 1938 H 186.805 -0.550221 -1.97893 0
M  V30 1939 H 185.035 1.43008 -3.59285 0
M  V30 1940 H 186.724 1.14048 -3.89548 0
M  V30 1941 H 187.49 -1.21019 -4.69659 0
M  V30 1942 H 183.369 0.0129567 -4.60998 0
M  V30 1943 H 186.913 -2.99777 -6.29904 0
M  V30 1944 H 182.81 -1.76643 -6.2086 0
M  V30 1945 H 183.578 -3.45065 -7.42208 0
M  V30 1946 N 186.241 1.57166 -0.116904 0
M  V30 1947 C 187.481 1.97008 0.544715 0
M  V30 1948 C 187.845 0.998713 1.63981 0
M  V30 1949 O 189.046 1.28644 2.36018 0
M  V30 1950 C 187.317 3.41145 1.06559 0
M  V30 1951 S 188.876 4.02998 1.73603 0
M  V30 1952 H 185.694 0.688587 0.177112 0
M  V30 1953 H 188.296 1.94459 -0.201487 0
M  V30 1954 H 187 4.09592 0.257374 0
M  V30 1955 H 186.531 3.4734 1.84712 0
M  V30 1956 H 188.546 3.93585 3.02168 0
M  V30 1957 N 187.719 -0.156864 1.56817 0
M  V30 1958 C 188.949 -0.885031 1.86684 0
M  V30 1959 C 189.357 -1.75696 0.701954 0
M  V30 1960 O 188.7 -1.80569 -0.337732 0
M  V30 1961 C 188.762 -1.80092 3.11138 0
M  V30 1962 C 188.426 -1.10714 4.43386 0
M  V30 1963 C 189.423 -0.465714 5.1781 0
M  V30 1964 C 187.108 -1.09959 4.90117 0
M  V30 1965 C 189.102 0.174002 6.37162 0
M  V30 1966 C 186.789 -0.456055 6.09396 0
M  V30 1967 C 187.787 0.179622 6.82764 0
M  V30 1968 O 187.475 0.812975 7.99779 0
M  V30 1969 H 187.207 -0.261813 0.623242 0
M  V30 1970 H 189.761 -0.157383 2.04796 0
M  V30 1971 H 187.991 -2.56926 2.89009 0
M  V30 1972 H 189.68 -2.40018 3.27332 0
M  V30 1973 H 190.446 -0.463427 4.82781 0
M  V30 1974 H 186.325 -1.58378 4.3294 0
M  V30 1975 H 189.869 0.670765 6.94368 0
M  V30 1976 H 185.766 -0.455975 6.43888 0
M  V30 1977 H 186.534 0.71366 8.15383 0
M  V30 1978 N 189.197 -1.51736 -0.425897 0
M  V30 1979 C 190.446 -1.64201 -1.17136 0
M  V30 1980 C 190.759 -0.369705 -1.92074 0
M  V30 1981 O 191.965 -0.373898 -2.68913 0
M  V30 1982 C 190.421 -2.90035 -2.13091 0
M  V30 1983 C 190.029 -4.24312 -1.43747 0
M  V30 1984 C 191.773 -3.1186 -2.87999 0
M  V30 1985 C 189.68 -5.41285 -2.38253 0
M  V30 1986 H 188.61 -0.611624 -0.440944 0
M  V30 1987 H 191.261 -1.78212 -0.437328 0
M  V30 1988 H 189.643 -2.69684 -2.89977 0
M  V30 1989 H 190.817 -4.55086 -0.723408 0
M  V30 1990 H 189.132 -4.08456 -0.809465 0
M  V30 1991 H 191.729 -3.96427 -3.58817 0
M  V30 1992 H 192.072 -2.25403 -3.49999 0
M  V30 1993 H 192.605 -3.32605 -2.18217 0
M  V30 1994 H 189.344 -6.30037 -1.80925 0
M  V30 1995 H 188.864 -5.14872 -3.0768 0
M  V30 1996 H 190.543 -5.73694 -2.99139 0
M  V30 1997 N 190.675 0.682077 -1.42076 0
M  V30 1998 C 191.915 1.45424 -1.43636 0
M  V30 1999 C 192.279 1.91939 -0.0484001 0
M  V30 2000 O 193.48 2.6873 0.0612514 0
M  V30 2001 C 191.751 2.62427 -2.42625 0
M  V30 2002 S 193.31 3.51379 -2.62827 0
M  V30 2003 H 190.128 0.496779 -0.508657 0
M  V30 2004 H 192.73 0.794645 -1.78621 0
M  V30 2005 H 191.434 2.26481 -3.42249 0
M  V30 2006 H 190.965 3.33266 -2.09039 0
M  V30 2007 H 192.98 4.58141 -1.9058 0
M  V30 2008 N 192.153 1.28127 0.917671 0
M  V30 2009 C 193.103 1.08361 2.00604 0
M  V30 2010 C 194.087 0.00847518 1.60898 0
M  V30 2011 O 195.279 0.228167 1.75523 0
M  V30 2012 C 192.408 0.743376 3.35155 0
M  V30 2013 C 191.494 1.85716 3.81275 0
M  V30 2014 N 191.885 3.09822 3.99805 0
M  V30 2015 C 190.183 1.74612 4.10398 0
M  V30 2016 C 190.884 3.82368 4.38372 0
M  V30 2017 N 189.86 3.10192 4.4641 0
M  V30 2018 H 193.662 2.02531 2.12975 0
M  V30 2019 H 191.176 1.18989 1.10523 0
M  V30 2020 H 193.173 0.582859 4.12805 0
M  V30 2021 H 191.833 -0.190595 3.2414 0
M  V30 2022 H 192.844 3.45475 3.85833 0
M  V30 2023 H 189.521 0.883657 4.08041 0
M  V30 2024 H 190.911 4.89082 4.60704 0
M  V30 2025 N 193.631 -1.12557 1.10312 0
M  V30 2026 C 194.856 -1.88405 0.867085 0
M  V30 2027 C 195.281 -1.79038 -0.576817 0
M  V30 2028 O 194.639 -1.14439 -1.40618 0
M  V30 2029 C 194.687 -3.3563 1.31851 0
M  V30 2030 O 193.791 -4.09565 0.482734 0
M  V30 2031 H 193.132 -0.585455 0.313271 0
M  V30 2032 H 195.662 -1.42352 1.4696 0
M  V30 2033 H 195.672 -3.86469 1.3079 0
M  V30 2034 H 194.347 -3.41765 2.37001 0
M  V30 2035 H 192.924 -3.68695 0.558448 0
M  V30 2036 N 195.109 -0.891671 -1.2995 0
M  V30 2037 C 196.039 -0.379797 -2.30391 0
M  V30 2038 C 197.02 0.540919 -1.6127 0
M  V30 2039 O 198.205 0.453352 -1.88834 0
M  V30 2040 C 195.335 0.400654 -3.44981 0
M  V30 2041 C 194.289 -0.428905 -4.25846 0
M  V30 2042 C 193.615 0.478557 -5.32554 0
M  V30 2043 C 194.915 -1.67458 -4.94727 0
M  V30 2044 H 196.609 -1.21914 -2.73454 0
M  V30 2045 H 194.155 -0.587675 -1.31462 0
M  V30 2046 H 196.108 0.769434 -4.14316 0
M  V30 2047 H 194.832 1.27371 -3.0074 0
M  V30 2048 H 193.491 -0.779911 -3.58208 0
M  V30 2049 H 193.139 1.34951 -4.84559 0
M  V30 2050 H 192.839 -0.0727433 -5.87555 0
M  V30 2051 H 194.363 0.843705 -6.04743 0
M  V30 2052 H 195.777 -1.376 -5.56542 0
M  V30 2053 H 194.174 -2.16659 -5.59624 0
M  V30 2054 H 195.244 -2.41518 -4.20473 0
M  V30 2055 N 196.587 1.43421 -0.653314 0
M  V30 2056 C 197.534 2.30768 0.0382271 0
M  V30 2057 C 198.504 1.44755 0.814576 0
M  V30 2058 O 199.689 1.73624 0.791162 0
M  V30 2059 C 196.829 3.30336 0.998599 0
M  V30 2060 C 195.942 4.31448 0.218342 0
M  V30 2061 C 195.077 5.18098 1.17252 0
M  V30 2062 C 194.116 6.10902 0.382702 0
M  V30 2063 N 193.253 6.90176 1.28848 0
M  V30 2064 H 198.093 2.89357 -0.712511 0
M  V30 2065 H 195.63 1.42548 -0.363128 0
M  V30 2066 H 197.588 3.86572 1.56901 0
M  V30 2067 H 196.218 2.73397 1.71621 0
M  V30 2068 H 195.27 3.77506 -0.46836 0
M  V30 2069 H 196.582 4.97227 -0.395812 0
M  V30 2070 H 195.736 5.7896 1.81356 0
M  V30 2071 H 194.475 4.52444 1.82058 0
M  V30 2072 H 193.48 5.49128 -0.27169 0
M  V30 2073 H 194.705 6.78598 -0.260957 0
M  V30 2074 H 192.651 6.27171 1.92334 0
M  V30 2075 H 192.568 7.52478 0.728887 0
M  V30 2076 H 193.836 7.55543 1.91766 0
M  V30 2077 N 198.065 0.39524 1.52563 0
M  V30 2078 C 199.295 -0.184675 2.05773 0
M  V30 2079 C 199.703 -1.40571 1.26635 0
M  V30 2080 O 199.046 -1.81105 0.30769 0
M  V30 2081 C 199.108 -0.613551 3.54226 0
M  V30 2082 C 198.772 0.49484 4.54313 0
M  V30 2083 C 199.769 1.3541 5.01956 0
M  V30 2084 C 197.454 0.663565 4.97898 0
M  V30 2085 C 199.448 2.36716 5.91814 0
M  V30 2086 C 197.135 1.67996 5.87555 0
M  V30 2087 C 198.133 2.53017 6.34406 0
M  V30 2088 O 197.821 3.52917 7.22291 0
M  V30 2089 H 197.553 -0.030077 0.675331 0
M  V30 2090 H 200.107 0.560708 1.97599 0
M  V30 2091 H 198.337 -1.411 3.60038 0
M  V30 2092 H 200.026 -1.11981 3.90148 0
M  V30 2093 H 200.792 1.23509 4.6901 0
M  V30 2094 H 196.671 0.0114913 4.60999 0
M  V30 2095 H 200.215 3.03113 6.28306 0
M  V30 2096 H 196.112 1.79933 6.19915 0
M  V30 2097 H 196.88 3.48996 7.40367 0
M  V30 2098 N 199.544 -1.57102 0.125237 0
M  V30 2099 C 200.821 -1.86953 -0.575142 0
M  V30 2100 C 201.201 -1.02749 -1.84407 0
M  V30 2101 O 200.549 -0.108144 -2.28244 0
M  V30 2102 C 200.759 -3.38198 -0.861583 0
M  V30 2103 C 202.107 -4.06937 -1.21192 0
M  V30 2104 O 203.131 -3.43252 -0.951645 0
M  V30 2105 O 201.99 -5.19364 -1.70068 0
M  V30 2106 H 199.084 -0.774147 -0.290906 0
M  V30 2107 H 201.63 -1.68942 0.160211 0
M  V30 2108 H 200.402 -3.91282 0.0373647 0
M  V30 2109 H 200.025 -3.61661 -1.65188 0
M  V30 2110 N 201.022 0.148545 -1.56898 0
M  V30 2111 C 201.969 1.18345 -1.98149 0
M  V30 2112 C 202.939 1.42772 -0.848848 0
M  V30 2113 O 204.124 1.55132 -1.11079 0
M  V30 2114 C 201.264 2.51231 -2.36594 0
M  V30 2115 C 200.377 2.33991 -3.63142 0
M  V30 2116 C 199.512 3.59902 -3.90697 0
M  V30 2117 C 198.551 3.37692 -5.1052 0
M  V30 2118 N 197.688 4.5573 -5.34092 0
M  V30 2119 H 202.528 0.82467 -2.86362 0
M  V30 2120 H 200.065 0.395756 -1.41676 0
M  V30 2121 H 202.023 3.28713 -2.56912 0
M  V30 2122 H 200.653 2.85059 -1.51463 0
M  V30 2123 H 199.705 1.47572 -3.50609 0
M  V30 2124 H 201.017 2.13539 -4.5078 0
M  V30 2125 H 200.171 4.45813 -4.11505 0
M  V30 2126 H 198.91 3.83357 -3.01477 0
M  V30 2127 H 197.915 2.5017 -4.89587 0
M  V30 2128 H 199.14 3.15637 -6.0129 0
M  V30 2129 H 197.086 4.79361 -4.47827 0
M  V30 2130 H 197.003 4.38274 -6.15996 0
M  V30 2131 H 198.271 5.42858 -5.59397 0
M  V30 2132 N 202.5 1.5196 0.417844 0
M  V30 2133 C 203.43 1.77634 1.51554 0
M  V30 2134 C 204.411 0.626918 1.58126 0
M  V30 2135 O 205.596 0.871632 1.7354 0
M  V30 2136 C 202.726 1.91911 2.8946 0
M  V30 2137 C 201.68 3.07463 2.97743 0
M  V30 2138 C 201.006 3.06951 4.37819 0
M  V30 2139 C 202.306 4.47082 2.70027 0
M  V30 2140 H 204 2.6955 1.3032 0
M  V30 2141 H 201.546 1.29706 0.625492 0
M  V30 2142 H 203.499 2.08455 3.6623 0
M  V30 2143 H 202.223 0.966598 3.11969 0
M  V30 2144 H 200.882 2.90656 2.23416 0
M  V30 2145 H 200.53 2.09438 4.57323 0
M  V30 2146 H 200.23 3.84556 4.44286 0
M  V30 2147 H 201.754 3.25613 5.16535 0
M  V30 2148 H 203.168 4.6414 3.36522 0
M  V30 2149 H 201.565 5.2654 2.87881 0
M  V30 2150 H 202.635 4.55777 1.65514 0
M  V30 2151 N 203.978 -0.674533 1.42435 0
M  V30 2152 C 205.208 -1.46071 1.46105 0
M  V30 2153 C 205.616 -1.89067 0.0709605 0
M  V30 2154 O 204.959 -1.58731 -0.924677 0
M  V30 2155 C 205.021 -2.74145 2.32561 0
M  V30 2156 C 204.685 -2.53224 3.8043 0
M  V30 2157 C 205.682 -2.17809 4.72075 0
M  V30 2158 C 203.367 -2.6821 4.24698 0
M  V30 2159 C 205.361 -1.97648 6.05982 0
M  V30 2160 C 203.048 -2.47665 5.58664 0
M  V30 2161 C 204.046 -2.12437 6.49122 0
M  V30 2162 O 203.734 -1.9209 7.80613 0
M  V30 2163 H 203.466 -0.455959 0.499076 0
M  V30 2164 H 206.02 -0.836193 1.87609 0
M  V30 2165 H 204.25 -3.3908 1.85908 0
M  V30 2166 H 205.939 -3.36028 2.27683 0
M  V30 2167 H 206.705 -2.05826 4.39159 0
M  V30 2168 H 202.584 -2.94609 3.54579 0
M  V30 2169 H 206.128 -1.70075 6.7655 0
M  V30 2170 H 202.025 -2.59244 5.91154 0
M  V30 2171 H 202.793 -2.06686 7.91974 0
M  V30 2172 N 205.456 -1.28612 -0.910864 0
M  V30 2173 C 206.681 -1.1891 -1.69927 0
M  V30 2174 C 207.106 0.248372 -1.86453 0
M  V30 2175 O 206.464 1.17961 -1.37676 0
M  V30 2176 C 206.512 -1.89578 -3.06745 0
M  V30 2177 O 205.616 -1.20521 -3.94396 0
M  V30 2178 H 204.957 -0.412632 -0.520222 0
M  V30 2179 H 207.487 -1.69985 -1.1387 0
M  V30 2180 H 207.497 -1.97597 -3.56958 0
M  V30 2181 H 206.172 -2.94136 -2.94035 0
M  V30 2182 H 204.749 -1.20684 -3.52831 0
M  V30 2183 N 206.934 1.1197 -1.10907 0
M  V30 2184 C 208.159 1.87942 -0.877064 0
M  V30 2185 C 208.584 1.79341 0.567314 0
M  V30 2186 O 207.942 1.15184 1.40009 0
M  V30 2187 C 207.99 3.34926 -1.33629 0
M  V30 2188 O 207.094 4.09303 -0.504447 0
M  V30 2189 H 206.435 0.583785 -0.316371 0
M  V30 2190 H 208.965 1.4157 -1.47712 0
M  V30 2191 H 208.975 3.8577 -1.32837 0
M  V30 2192 H 207.65 3.40504 -2.3881 0
M  V30 2193 H 206.227 3.68393 -0.577993 0
M  V30 2194 N 208.412 0.89855 1.29475 0
M  V30 2195 C 209.359 0.373819 2.27753 0
M  V30 2196 C 210.329 -0.543444 1.56958 0
M  V30 2197 O 211.514 -0.468934 1.84948 0
M  V30 2198 C 208.654 -0.393648 3.42848 0
M  V30 2199 C 207.767 0.554379 4.28428 0
M  V30 2200 C 206.902 -0.230026 5.30702 0
M  V30 2201 C 205.941 0.712599 6.07938 0
M  V30 2202 N 205.078 -0.0373283 7.0209 0
M  V30 2203 H 209.918 1.21699 2.72017 0
M  V30 2204 H 207.455 0.611456 1.33789 0
M  V30 2205 H 209.413 -0.85466 4.08352 0
M  V30 2206 H 208.043 -1.20128 2.99615 0
M  V30 2207 H 207.095 1.13391 3.63107 0
M  V30 2208 H 208.407 1.27597 4.82204 0
M  V30 2209 H 207.561 -0.752288 6.02018 0
M  V30 2210 H 206.3 -0.984758 4.77654 0
M  V30 2211 H 205.305 1.24637 5.35486 0
M  V30 2212 H 206.53 1.46664 6.63074 0
M  V30 2213 H 204.476 -0.774348 6.51414 0
M  V30 2214 H 204.393 0.624374 7.53417 0
M  V30 2215 H 205.661 -0.539891 7.77628 0
M  V30 2216 N 209.89 -1.43072 0.660911 0
M  V30 2217 C 210.838 -2.32569 -0.0378199 0
M  V30 2218 C 211.832 -1.49046 -0.805092 0
M  V30 2219 O 213.038 -1.65206 -0.714624 0
M  V30 2220 H 209.413 -0.75136 -0.031019 0
M  V30 2221 H 211.384 -2.89216 0.734609 0
M  V30 2222 C 210.133 -3.33453 -0.985124 0
M  V30 2223 H 209.456 -3.97752 -0.404147 0
M  V30 2224 H 210.896 -3.98691 -1.44297 0
M  V30 2225 C 209.355 -2.64642 -2.08486 0
M  V30 2226 O 209.885 -2.46776 -3.16961 0
M  V30 2227 N 208.091 -2.23891 -1.8526 0
M  V30 2228 H 207.638 -2.38621 -0.970449 0
M  V30 2229 H 207.596 -1.78181 -2.59034 0
M  V30 2230 N 211.368 -0.403325 -1.52352 0
M  V30 2231 C 212.593 0.176499 -2.06648 0
M  V30 2232 C 213.018 1.38577 -1.27193 0
M  V30 2233 O 212.376 1.7879 -0.300637 0
M  V30 2234 C 212.424 0.511061 -3.5696 0
M  V30 2235 O 211.528 1.60294 -3.79973 0
M  V30 2236 H 210.869 0.0167337 -0.663789 0
M  V30 2237 H 213.399 -0.574848 -1.96359 0
M  V30 2238 H 213.409 0.771362 -4.00642 0
M  V30 2239 H 212.084 -0.37296 -4.14224 0
M  V30 2240 H 210.661 1.33526 -3.48174 0
M  V30 2241 N 212.846 1.57033 -0.133567 0
M  V30 2242 C 213.776 2.1909 0.807567 0
M  V30 2243 C 214.757 1.13517 1.26681 0
M  V30 2244 O 215.942 1.41809 1.32679 0
M  V30 2245 C 213.072 2.80188 2.05212 0
M  V30 2246 C 212.026 3.91471 1.73015 0
M  V30 2247 C 211.352 4.39443 3.04622 0
M  V30 2248 C 212.652 5.12886 0.987168 0
M  V30 2249 H 214.346 2.97988 0.290403 0
M  V30 2250 H 211.892 1.43335 0.138239 0
M  V30 2251 H 213.845 3.22264 2.71521 0
M  V30 2252 H 212.569 1.98601 2.59278 0
M  V30 2253 H 211.228 3.49993 1.0909 0
M  V30 2254 H 210.876 3.54695 3.56651 0
M  V30 2255 H 210.576 5.14495 2.83847 0
M  V30 2256 H 212.1 4.8418 3.72024 0
M  V30 2257 H 213.514 5.51891 1.55208 0
M  V30 2258 H 211.911 5.93615 0.87985 0
M  V30 2259 H 212.981 4.84894 -0.0235286 0
M  V30 2260 N 214.325 -0.140222 1.56975 0
M  V30 2261 C 215.565 -0.857823 1.85528 0
M  V30 2262 C 215.929 -1.78039 0.718768 0
M  V30 2263 O 217.13 -2.53795 0.885521 0
M  V30 2264 C 215.401 -1.60615 3.19277 0
M  V30 2265 S 216.96 -2.36824 3.69405 0
M  V30 2266 H 213.778 -0.286727 0.650622 0
M  V30 2267 H 216.38 -0.117408 1.95147 0
M  V30 2268 H 215.084 -0.919994 3.99955 0
M  V30 2269 H 214.615 -2.38735 3.12681 0
M  V30 2270 H 216.63 -3.62148 3.3921 0
M  V30 2271 N 215.803 -1.52179 -0.40978 0
M  V30 2272 C 217.033 -1.69807 -1.17682 0
M  V30 2273 C 217.441 -0.406908 -1.84773 0
M  V30 2274 O 216.784 0.626863 -1.72673 0
M  V30 2275 C 216.846 -2.77712 -2.2829 0
M  V30 2276 C 216.51 -4.19481 -1.81341 0
M  V30 2277 C 217.507 -5.03345 -1.30154 0
M  V30 2278 C 215.192 -4.65713 -1.88194 0
M  V30 2279 C 217.186 -6.31511 -0.864416 0
M  V30 2280 C 214.873 -5.93869 -1.44093 0
M  V30 2281 C 215.871 -6.76597 -0.933023 0
M  V30 2282 O 215.559 -8.02354 -0.49838 0
M  V30 2283 H 215.291 -0.572372 -0.359675 0
M  V30 2284 H 217.845 -1.99511 -0.488311 0
M  V30 2285 H 216.075 -2.43383 -3.00502 0
M  V30 2286 H 217.764 -2.83946 -2.90051 0
M  V30 2287 H 218.53 -4.68819 -1.24232 0
M  V30 2288 H 214.409 -4.01424 -2.26671 0
M  V30 2289 H 217.953 -6.96033 -0.467286 0
M  V30 2290 H 213.85 -6.27903 -1.49694 0
M  V30 2291 H 214.618 -8.16135 -0.621747 0
M  V30 2292 N 217.281 0.66697 -1.42791 0
M  V30 2293 C 218.527 1.4291 -1.43891 0
M  V30 2294 C 218.86 1.94114 -0.0578972 0
M  V30 2295 O 218.135 1.71414 0.91911 0
M  V30 2296 C 218.418 2.62049 -2.46987 0
M  V30 2297 C 218.271 2.16426 -3.94309 0
M  V30 2298 C 219.59 3.64266 -2.46978 0
M  V30 2299 H 216.709 0.518306 -0.523954 0
M  V30 2300 H 219.351 0.757321 -1.74255 0
M  V30 2301 H 217.501 3.19361 -2.21225 0
M  V30 2302 H 219.173 1.64221 -4.31079 0
M  V30 2303 H 217.416 1.47925 -4.078 0
M  V30 2304 H 218.087 3.02038 -4.62036 0
M  V30 2305 H 220.563 3.16686 -2.69906 0
M  V30 2306 H 219.439 4.45196 -3.21079 0
M  V30 2307 H 219.7 4.15927 -1.49857 0
M  V30 2308 N 218.759 1.29093 0.90403 0
M  V30 2309 C 219.689 1.16401 2.02418 0
M  V30 2310 C 220.67 0.0593085 1.69997 0
M  V30 2311 O 221.855 0.238021 1.92736 0
M  V30 2312 C 218.985 0.835233 3.37107 0
M  V30 2313 C 217.939 1.89578 3.83724 0
M  V30 2314 C 217.265 1.42041 5.15489 0
M  V30 2315 C 218.565 3.30394 4.04521 0
M  V30 2316 H 220.259 2.10109 2.13295 0
M  V30 2317 H 217.805 1.01157 1.02486 0
M  V30 2318 H 219.758 0.733169 4.14973 0
M  V30 2319 H 218.482 -0.137543 3.2631 0
M  V30 2320 H 217.141 1.98715 3.08071 0
M  V30 2321 H 216.789 0.436426 5.01103 0
M  V30 2322 H 216.489 2.12964 5.4765 0
M  V30 2323 H 218.013 1.33176 5.959 0
M  V30 2324 H 219.427 3.24123 4.72882 0
M  V30 2325 H 217.824 3.99237 4.48029 0
M  V30 2326 H 218.894 3.73692 3.09002 0
M  V30 2327 N 220.237 -1.11381 1.11499 0
M  V30 2328 C 221.167 -2.19509 0.796125 0
M  V30 2329 C 222.148 -1.68458 -0.235796 0
M  V30 2330 O 223.333 -1.93947 -0.0991344 0
M  V30 2331 C 220.463 -3.46475 0.239205 0
M  V30 2332 C 219.417 -4.10744 1.20307 0
M  V30 2333 C 218.743 -5.32293 0.50683 0
M  V30 2334 C 220.043 -4.55597 2.55399 0
M  V30 2335 H 221.737 -2.46439 1.70024 0
M  V30 2336 H 219.283 -1.18446 0.818935 0
M  V30 2337 H 221.236 -4.214 0.00392006 0
M  V30 2338 H 219.96 -3.19006 -0.700206 0
M  V30 2339 H 218.619 -3.37813 1.42399 0
M  V30 2340 H 218.267 -5.01095 -0.437408 0
M  V30 2341 H 217.967 -5.76243 1.1497 0
M  V30 2342 H 219.491 -6.09956 0.280351 0
M  V30 2343 H 220.905 -5.21841 2.37391 0
M  V30 2344 H 219.302 -5.10363 3.15673 0
M  V30 2345 H 220.372 -3.69013 3.14575 0
M  V30 2346 N 221.715 -0.905404 -1.28997 0
M  V30 2347 C 222.964 -0.530191 -1.94607 0
M  V30 2348 C 223.277 0.929185 -1.72121 0
M  V30 2349 O 224.483 1.41218 -2.31883 0
M  V30 2350 C 222.939 -0.897333 -3.48534 0
M  V30 2351 C 222.547 -2.37587 -3.79811 0
M  V30 2352 C 224.291 -0.592304 -4.20347 0
M  V30 2353 C 222.198 -2.68357 -5.27009 0
M  V30 2354 H 221.128 -0.194558 -0.728466 0
M  V30 2355 H 223.779 -1.10318 -1.46636 0
M  V30 2356 H 222.161 -0.253214 -3.9519 0
M  V30 2357 H 223.335 -3.06602 -3.43994 0
M  V30 2358 H 221.65 -2.6505 -3.2115 0
M  V30 2359 H 224.247 -0.798975 -5.28697 0
M  V30 2360 H 224.59 0.469474 -4.13644 0
M  V30 2361 H 225.123 -1.19452 -3.79442 0
M  V30 2362 H 221.862 -3.73355 -5.38782 0
M  V30 2363 H 221.382 -2.03971 -5.64053 0
M  V30 2364 H 223.061 -2.54922 -5.94663 0
M  V30 2365 N 223.193 1.4272 -0.668489 0
M  V30 2366 C 224.439 2.02443 -0.197076 0
M  V30 2367 C 224.794 1.51882 1.18109 0
M  V30 2368 O 224.087 0.708618 1.78015 0
M  V30 2369 C 224.281 3.57021 -0.164499 0
M  V30 2370 C 224.11 4.22583 -1.53797 0
M  V30 2371 C 222.88 4.58019 -2.13416 0
M  V30 2372 C 225.078 4.50588 -2.47941 0
M  V30 2373 N 223.06 5.08729 -3.4361 0
M  V30 2374 C 224.431 5.02782 -3.62782 0
M  V30 2375 C 226.486 4.32571 -2.46551 0
M  V30 2376 C 225.189 5.38852 -4.76478 0
M  V30 2377 C 227.215 4.69713 -3.59338 0
M  V30 2378 C 226.577 5.22053 -4.72906 0
M  V30 2379 H 222.676 0.773214 -0.116894 0
M  V30 2380 H 225.26 1.73673 -0.880108 0
M  V30 2381 H 223.431 3.85323 0.487925 0
M  V30 2382 H 225.163 4.03439 0.319207 0
M  V30 2383 H 221.918 4.43566 -1.65969 0
M  V30 2384 H 222.342 5.38521 -4.10273 0
M  V30 2385 H 226.984 3.91365 -1.59978 0
M  V30 2386 H 224.702 5.78993 -5.63731 0
M  V30 2387 H 228.288 4.57454 -3.59482 0
M  V30 2388 H 227.168 5.50258 -5.58736 0
M  V30 2389 N 224.671 0.411399 1.52136 0
M  V30 2390 C 225.601 -0.404015 2.29978 0
M  V30 2391 C 226.582 -1.04412 1.34284 0
M  V30 2392 O 227.767 -1.0527 1.63192 0
M  V30 2393 C 224.897 -1.5197 3.12286 0
M  V30 2394 C 223.851 -1.00448 4.16046 0
M  V30 2395 C 223.177 -2.21393 4.86712 0
M  V30 2396 C 224.477 -0.0569336 5.22269 0
M  V30 2397 H 226.171 0.245529 2.98392 0
M  V30 2398 H 223.717 0.119525 1.43503 0
M  V30 2399 H 225.67 -2.09715 3.6551 0
M  V30 2400 H 224.394 -2.19716 2.41646 0
M  V30 2401 H 223.053 -0.449421 3.63835 0
M  V30 2402 H 222.701 -2.87699 4.12599 0
M  V30 2403 H 222.401 -1.87571 5.56858 0
M  V30 2404 H 223.925 -2.7974 5.4275 0
M  V30 2405 H 225.339 -0.54325 5.7072 0
M  V30 2406 H 223.736 0.192594 5.99791 0
M  V30 2407 H 224.806 0.887663 4.76706 0
M  V30 2408 N 226.149 -1.5696 0.141893 0
M  V30 2409 C 227.079 -2.19516 -0.795936 0
M  V30 2410 C 228.06 -1.14187 -1.26077 0
M  V30 2411 O 229.245 -1.42511 -1.31925 0
M  V30 2412 C 226.375 -2.81272 -2.03723 0
M  V30 2413 C 225.329 -3.92384 -1.70936 0
M  V30 2414 C 224.655 -4.41052 -3.02287 0
M  V30 2415 C 225.955 -5.13403 -0.959954 0
M  V30 2416 H 227.649 -2.98138 -0.274596 0
M  V30 2417 H 225.195 -1.43406 -0.130636 0
M  V30 2418 H 227.148 -3.237 -2.69808 0
M  V30 2419 H 225.872 -1.99973 -2.58221 0
M  V30 2420 H 224.531 -3.50566 -1.07232 0
M  V30 2421 H 224.179 -3.56582 -3.54765 0
M  V30 2422 H 223.879 -5.15993 -2.81114 0
M  V30 2423 H 225.403 -4.86146 -3.69451 0
M  V30 2424 H 226.817 -5.52706 -1.52279 0
M  V30 2425 H 225.214 -5.94073 -0.848357 0
M  V30 2426 H 226.284 -4.84875 0.0492434 0
M  V30 2427 N 227.627 0.131896 -1.57047 0
M  V30 2428 C 228.855 0.856461 -1.88341 0
M  V30 2429 C 229.27 1.74042 -0.731757 0
M  V30 2430 O 228.627 1.80051 0.297945 0
M  V30 2431 C 228.678 1.70064 -3.18999 0
M  V30 2432 O 228.399 0.852278 -4.2973 0
M  V30 2433 C 229.9 2.53148 -3.63911 0
M  V30 2434 H 227.12 0.246885 -0.62393 0
M  V30 2435 H 229.664 0.120152 -2.04147 0
M  V30 2436 H 227.819 2.38984 -3.04902 0
M  V30 2437 H 228.233 1.43329 -5.04537 0
M  V30 2438 H 229.707 3.07931 -4.58129 0
M  V30 2439 H 230.184 3.29901 -2.89935 0
M  V30 2440 H 230.79 1.89492 -3.80753 0
M  V30 2441 N 229.106 1.52395 0.401703 0
M  V30 2442 C 230.036 1.79231 1.49661 0
M  V30 2443 C 231.017 0.643654 1.57452 0
M  V30 2444 O 232.202 0.889989 1.72606 0
M  V30 2445 C 229.332 1.94971 2.87409 0
M  V30 2446 C 228.286 3.10604 2.94465 0
M  V30 2447 C 227.612 3.11577 4.34538 0
M  V30 2448 C 228.912 4.49921 2.6527 0
M  V30 2449 H 230.606 2.70917 1.27454 0
M  V30 2450 H 228.152 1.30362 0.6117 0
M  V30 2451 H 230.105 2.12328 3.63999 0
M  V30 2452 H 228.829 0.999632 3.10926 0
M  V30 2453 H 227.488 2.93009 2.20321 0
M  V30 2454 H 227.136 2.14277 4.55076 0
M  V30 2455 H 226.836 3.89247 4.40183 0
M  V30 2456 H 228.36 3.31073 5.13053 0
M  V30 2457 H 229.774 4.67683 3.31581 0
M  V30 2458 H 228.171 5.29564 2.82281 0
M  V30 2459 H 229.241 4.57507 1.60671 0
M  V30 2460 N 230.584 -0.659388 1.43143 0
M  V30 2461 C 231.547 -1.75432 1.47501 0
M  V30 2462 C 232.547 -1.56707 0.360512 0
M  V30 2463 O 233.737 -1.62717 0.622002 0
M  V30 2464 C 230.869 -3.14239 1.32162 0
M  V30 2465 H 232.062 -1.7295 2.45006 0
M  V30 2466 H 229.615 -0.870469 1.29817 0
M  V30 2467 H 230.35 -3.22336 0.356401 0
M  V30 2468 H 230.135 -3.29235 2.12948 0
M  V30 2469 H 231.625 -3.94094 1.3813 0
M  V30 2470 N 232.062 -1.29571 -0.897171 0
M  V30 2471 C 233.025 -1.14913 -1.98312 0
M  V30 2472 C 234.025 -0.0838629 -1.60581 0
M  V30 2473 O 235.215 -0.331006 -1.71026 0
M  V30 2474 C 232.347 -0.757835 -3.3237 0
M  V30 2475 H 233.54 -2.11377 -2.12743 0
M  V30 2476 H 231.093 -1.12793 -1.08201 0
M  V30 2477 H 231.828 0.206837 -3.2364 0
M  V30 2478 H 231.613 -1.52755 -3.61121 0
M  V30 2479 H 233.103 -0.678408 -4.12053 0
M  V30 2480 N 233.54 1.10788 -1.12088 0
M  V30 2481 C 234.786 1.82942 -0.875226 0
M  V30 2482 C 235.119 1.84779 0.597538 0
M  V30 2483 O 234.394 1.30578 1.44152 0
M  V30 2484 C 234.677 3.29789 -1.44606 0
M  V30 2485 C 234.53 3.36307 -2.98693 0
M  V30 2486 C 235.849 4.26064 -1.10261 0
M  V30 2487 H 232.968 0.664195 -0.319397 0
M  V30 2488 H 235.61 1.29867 -1.38689 0
M  V30 2489 H 233.76 3.75118 -1.01089 0
M  V30 2490 H 235.432 2.99487 -3.50864 0
M  V30 2491 H 233.675 2.76318 -3.34411 0
M  V30 2492 H 234.346 4.39694 -3.33726 0
M  V30 2493 H 236.822 3.88951 -1.4784 0
M  V30 2494 H 235.698 5.27183 -1.52869 0
M  V30 2495 H 235.959 4.42098 -0.0142953 0
M  V30 2496 N 235.018 0.912232 1.28515 0
M  V30 2497 C 235.948 0.416403 2.29757 0
M  V30 2498 C 236.929 -0.515194 1.6211 0
M  V30 2499 O 238.114 -0.423253 1.89532 0
M  V30 2500 C 235.244 -0.34572 3.45575 0
M  V30 2501 C 234.198 0.496599 4.25109 0
M  V30 2502 C 233.524 -0.393771 5.33248 0
M  V30 2503 C 234.824 1.75307 4.92001 0
M  V30 2504 H 236.518 1.26249 2.7148 0
M  V30 2505 H 234.064 0.608515 1.30511 0
M  V30 2506 H 236.017 -0.703422 4.15488 0
M  V30 2507 H 234.741 -1.2257 3.02728 0
M  V30 2508 H 233.4 0.8368 3.56922 0
M  V30 2509 H 233.048 -1.27225 4.86644 0
M  V30 2510 H 232.748 0.166209 5.87365 0
M  V30 2511 H 234.272 -0.747389 6.06009 0
M  V30 2512 H 235.686 1.46437 5.54283 0
M  V30 2513 H 234.083 2.25534 5.56106 0
M  V30 2514 H 235.153 2.48176 4.16577 0
M  V30 2515 N 236.496 -1.42363 0.676048 0
M  V30 2516 C 237.907 -1.84649 0.275948 0
M  V30 2517 C 238.258 -1.56588 -1.18214 0
M  V30 2518 O 237.383 -1.02634 -1.90513 0
M  V30 2519 C 237.978 -3.35178 0.494053 0
M  V30 2520 C 236.537 -3.76109 0.148061 0
M  V30 2521 C 235.684 -2.65931 0.785891 0
M  V30 2522 H 238.635 -1.32192 0.878121 0
M  V30 2523 H 238.656 -3.79655 -0.25343 0
M  V30 2524 H 238.168 -3.55571 1.55535 0
M  V30 2525 H 236.269 -3.61323 -0.909742 0
M  V30 2526 H 236.382 -4.7546 0.589454 0
M  V30 2527 H 234.746 -2.53773 0.217113 0
M  V30 2528 H 235.529 -2.89146 1.85067 0
M  V30 2529 N 237.974 -0.419461 -1.51915 0
M  V30 2530 C 238.922 0.415502 -2.28859 0
M  V30 2531 C 239.916 1.03674 -1.3397 0
M  V30 2532 O 241.122 0.973757 -1.51387 0
M  V30 2533 H 237.497 0.152786 -0.736315 0
M  V30 2534 H 239.468 -0.254531 -2.97312 0
M  V30 2535 C 238.217 1.51425 -3.12995 0
M  V30 2536 H 237.54 1.04556 -3.85886 0
M  V30 2537 H 238.98 2.07208 -3.6992 0
M  V30 2538 C 237.439 2.48745 -2.27217 0
M  V30 2539 O 237.969 3.52871 -1.9195 0
M  V30 2540 N 236.175 2.19202 -1.90785 0
M  V30 2541 H 235.722 1.34556 -2.19664 0
M  V30 2542 H 235.68 2.84561 -1.33687 0
M  V30 2543 N 239.452 1.56882 -0.150215 0
M  V30 2544 C 240.382 2.19935 0.784284 0
M  V30 2545 C 241.363 1.14854 1.25469 0
M  V30 2546 O 242.548 1.43209 1.31168 0
M  V30 2547 C 239.678 2.82349 2.02229 0
M  V30 2548 C 238.632 3.93285 1.68853 0
M  V30 2549 C 237.958 4.42649 2.99944 0
M  V30 2550 C 239.258 5.13904 0.932714 0
M  V30 2551 H 240.952 2.9828 0.258781 0
M  V30 2552 H 238.498 1.43473 0.123029 0
M  V30 2553 H 240.451 3.25126 2.68088 0
M  V30 2554 H 239.175 2.0134 2.57157 0
M  V30 2555 H 237.834 3.5113 1.05371 0
M  V30 2556 H 237.482 3.58458 3.52869 0
M  V30 2557 H 237.182 5.17476 2.78374 0
M  V30 2558 H 238.706 4.88099 3.66868 0
M  V30 2559 H 240.12 5.53506 1.49345 0
M  V30 2560 H 238.517 5.94515 0.81684 0
M  V30 2561 H 239.587 4.84842 -0.0749568 0
M  V30 2562 N 240.93 -0.123565 1.57115 0
M  V30 2563 C 242.346 -0.476961 1.52306 0
M  V30 2564 C 242.546 -1.82109 0.86248 0
M  V30 2565 O 241.602 -2.48586 0.442884 0
M  V30 2566 C 242.915 -0.465661 2.97073 0
M  V30 2567 C 244.463 -0.549534 3.08138 0
M  V30 2568 C 244.938 -0.568669 4.54456 0
M  V30 2569 N 246.429 -0.630237 4.58892 0
M  V30 2570 C 247.164 -0.666415 5.69514 0
M  V30 2571 N 246.66 -0.660514 6.89644 0
M  V30 2572 N 248.453 -0.709077 5.5761 0
M  V30 2573 H 240.604 0.757198 1.98445 0
M  V30 2574 H 242.867 0.278808 0.906074 0
M  V30 2575 H 242.573 0.454232 3.48754 0
M  V30 2576 H 242.447 -1.29513 3.54269 0
M  V30 2577 H 244.834 -1.45985 2.56461 0
M  V30 2578 H 244.915 0.307532 2.53945 0
M  V30 2579 H 244.559 0.337581 5.06777 0
M  V30 2580 H 244.489 -1.44256 5.06456 0
M  V30 2581 H 246.98 -0.641146 3.72421 0
M  V30 2582 H 247.293 -0.690616 7.69708 0
M  V30 2583 H 245.638 -0.628012 6.92157 0
M  V30 2584 H 248.829 -0.711019 4.62668 0
M  V30 2585 H 249.002 -0.733804 6.43832 0
M  V30 2586 N 242.408 -1.52605 -0.393616 0
M  V30 2587 C 243.371 -1.76415 -1.46323 0
M  V30 2588 C 244.371 -0.634126 -1.47768 0
M  V30 2589 O 245.561 -0.902142 -1.4902 0
M  V30 2590 C 242.693 -1.8607 -2.85641 0
M  V30 2591 H 243.886 -2.71916 -1.26498 0
M  V30 2592 H 241.439 -1.43257 -0.625073 0
M  V30 2593 H 242.174 -0.925378 -3.10817 0
M  V30 2594 H 241.959 -2.68235 -2.85993 0
M  V30 2595 H 243.449 -2.06179 -3.63153 0
M  V30 2596 N 243.887 0.651787 -1.4349 0
M  V30 2597 C 245.135 1.40888 -1.44897 0
M  V30 2598 C 245.456 1.94856 -0.0749086 0
M  V30 2599 O 244.726 1.74518 0.889956 0
M  V30 2600 H 243.306 0.522887 -0.533478 0
M  V30 2601 H 245.968 0.768609 -1.79104 0
M  V30 2602 H 245.064 2.25052 -2.16236 0
M  V30 2603 N 245.365 1.30045 0.890287 0
M  V30 2604 C 246.593 1.21472 1.67487 0
M  V30 2605 C 247.008 -0.223241 1.87476 0
M  V30 2606 O 246.365 -1.14828 1.41847 0
M  V30 2607 C 246.416 1.93394 3.05419 0
M  V30 2608 O 246.137 3.31576 2.86337 0
M  V30 2609 C 247.638 1.91414 3.99844 0
M  V30 2610 H 244.858 0.420604 0.522813 0
M  V30 2611 H 247.402 1.7158 1.11268 0
M  V30 2612 H 245.557 1.47099 3.58386 0
M  V30 2613 H 245.971 3.67929 3.73802 0
M  V30 2614 H 247.445 2.46285 4.94012 0
M  V30 2615 H 247.922 0.891833 4.3005 0
M  V30 2616 H 248.528 2.37496 3.52811 0
M  V30 2617 N 246.843 -1.10192 1.12674 0
M  V30 2618 C 247.773 -2.18652 0.819362 0
M  V30 2619 C 248.754 -1.68698 -0.217915 0
M  V30 2620 O 249.939 -1.94041 -0.0785581 0
M  V30 2621 C 247.069 -3.46202 0.27594 0
M  V30 2622 C 246.023 -4.09444 1.24656 0
M  V30 2623 C 245.349 -5.31725 0.563258 0
M  V30 2624 C 246.649 -4.52863 2.60217 0
M  V30 2625 H 248.343 -2.44622 1.72628 0
M  V30 2626 H 245.889 -1.17571 0.831451 0
M  V30 2627 H 247.842 -4.21372 0.0486149 0
M  V30 2628 H 246.566 -3.1973 -0.666331 0
M  V30 2629 H 245.225 -3.36284 1.45974 0
M  V30 2630 H 244.873 -5.0153 -0.384235 0
M  V30 2631 H 244.573 -5.74991 1.21075 0
M  V30 2632 H 246.097 -6.09624 0.34503 0
M  V30 2633 H 247.511 -5.19294 2.42913 0
M  V30 2634 H 245.908 -5.06986 3.21068 0
M  V30 2635 H 246.978 -3.65656 3.18471 0
M  V30 2636 N 248.321 -0.919034 -1.28029 0
M  V30 2637 C 249.253 -0.368762 -2.26214 0
M  V30 2638 C 250.266 0.495716 -1.55069 0
M  V30 2639 O 251.455 0.30974 -1.75792 0
M  V30 2640 C 248.555 0.491049 -3.35324 0
M  V30 2641 C 247.728 -0.352133 -4.3598 0
M  V30 2642 C 246.787 0.443622 -5.24327 0
M  V30 2643 O 245.813 -0.14566 -5.69014 0
M  V30 2644 N 247.015 1.74545 -5.53637 0
M  V30 2645 H 249.78 -1.21273 -2.74068 0
M  V30 2646 H 247.341 -0.785541 -1.41566 0
M  V30 2647 H 249.333 1.03026 -3.91366 0
M  V30 2648 H 247.903 1.23574 -2.87138 0
M  V30 2649 H 247.123 -1.07269 -3.79324 0
M  V30 2650 H 248.411 -0.928883 -5.00249 0
M  V30 2651 H 247.809 2.24666 -5.19174 0
M  V30 2652 H 246.366 2.23138 -6.12416 0
M  V30 2653 N 249.799 1.42003 -0.683588 0
M  V30 2654 C 251.029 2.05448 -0.217866 0
M  V30 2655 C 251.437 1.51491 1.13346 0
M  V30 2656 O 250.78 0.653048 1.717 0
M  V30 2657 C 250.842 3.59399 -0.0850118 0
M  V30 2658 C 250.506 4.36093 -1.36645 0
M  V30 2659 C 251.503 4.66169 -2.30179 0
M  V30 2660 C 249.188 4.75578 -1.61649 0
M  V30 2661 C 251.182 5.34676 -3.46988 0
M  V30 2662 C 248.869 5.43824 -2.78745 0
M  V30 2663 C 249.867 5.73299 -3.71238 0
M  V30 2664 O 249.555 6.40142 -4.86285 0
M  V30 2665 H 249.287 0.668344 -0.101454 0
M  V30 2666 H 251.841 1.82974 -0.933248 0
M  V30 2667 H 250.071 3.80566 0.686031 0
M  V30 2668 H 251.76 4.04457 0.341973 0
M  V30 2669 H 252.526 4.36156 -2.12115 0
M  V30 2670 H 248.405 4.52025 -0.905243 0
M  V30 2671 H 251.949 5.57599 -4.19201 0
M  V30 2672 H 247.846 5.73254 -2.96732 0
M  V30 2673 H 248.614 6.58636 -4.85944 0
M  V30 2674 N 251.277 0.427512 1.51691 0
M  V30 2675 C 252.554 -0.201684 1.94557 0
M  V30 2676 C 252.934 -1.60981 1.36559 0
M  V30 2677 O 252.282 -2.21814 0.548702 0
M  V30 2678 C 252.492 -0.189394 3.48486 0
M  V30 2679 C 253.84 -0.39978 4.22714 0
M  V30 2680 O 254.864 -0.267945 3.55191 0
M  V30 2681 O 253.723 -0.661249 5.42485 0
M  V30 2682 H 250.817 -0.135261 0.815864 0
M  V30 2683 H 253.363 0.484782 1.62628 0
M  V30 2684 H 252.135 0.795431 3.8313 0
M  V30 2685 H 251.758 -0.919187 3.86829 0
M  V30 2686 N 252.755 -1.56801 0.158532 0
M  V30 2687 C 254.166 -1.83189 -0.360366 0
M  V30 2688 C 254.517 -1.07778 -1.63946 0
M  V30 2689 O 253.642 -0.326718 -2.13919 0
M  V30 2690 C 254.237 -3.32297 -0.660595 0
M  V30 2691 C 252.796 -3.59227 -1.12398 0
M  V30 2692 C 251.943 -2.76877 -0.153097 0
M  V30 2693 H 254.894 -1.54008 0.383031 0
M  V30 2694 H 254.915 -3.4908 -1.51405 0
M  V30 2695 H 254.427 -3.87156 0.270527 0
M  V30 2696 H 252.528 -3.09766 -2.07064 0
M  V30 2697 H 252.641 -4.67632 -1.04197 0
M  V30 2698 H 251.005 -2.46319 -0.647983 0
M  V30 2699 H 251.788 -3.34511 0.77182 0
M  V30 2700 N 254.233 0.115231 -1.57178 0
M  V30 2701 C 255.649 0.468877 -1.52557 0
M  V30 2702 C 255.849 1.81649 -0.872125 0
M  V30 2703 O 254.905 2.48347 -0.45606 0
M  V30 2704 C 256.218 0.4499 -2.97315 0
M  V30 2705 C 257.766 0.533185 -3.08425 0
M  V30 2706 C 258.241 0.54456 -4.54751 0
M  V30 2707 N 259.732 0.605892 -4.5922 0
M  V30 2708 C 260.467 0.636203 -5.6986 0
M  V30 2709 N 259.963 0.623931 -6.89985 0
M  V30 2710 N 261.756 0.679496 -5.57978 0
M  V30 2711 H 253.907 -0.767712 -1.9804 0
M  V30 2712 H 256.17 -0.283609 -0.904583 0
M  V30 2713 H 255.876 -0.472721 -3.48509 0
M  V30 2714 H 255.75 1.27632 -3.5495 0
M  V30 2715 H 258.137 1.44623 -2.57232 0
M  V30 2716 H 258.218 -0.320995 -2.53778 0
M  V30 2717 H 257.862 -0.364452 -5.06591 0
M  V30 2718 H 257.792 1.41568 -5.07214 0
M  V30 2719 H 260.283 0.621386 -3.72756 0
M  V30 2720 H 260.596 0.649787 -7.70063 0
M  V30 2721 H 258.941 0.591296 -6.9248 0
M  V30 2722 H 262.132 0.686472 -4.63039 0
M  V30 2723 H 262.305 0.69965 -6.44212 0
M  V30 2724 N 255.711 1.52812 0.385517 0
M  V30 2725 C 256.96 1.67249 1.12741 0
M  V30 2726 C 257.273 0.4205 1.91027 0
M  V30 2727 O 258.479 0.445064 2.67827 0
M  V30 2728 C 256.935 2.95583 2.05326 0
M  V30 2729 C 256.543 4.27974 1.32447 0
M  V30 2730 C 258.287 3.19386 2.7963 0
M  V30 2731 C 256.194 5.47412 2.23818 0
M  V30 2732 H 255.124 0.6231 0.424573 0
M  V30 2733 H 257.775 1.79309 0.389924 0
M  V30 2734 H 256.157 2.77277 2.82725 0
M  V30 2735 H 257.331 4.56844 0.602495 0
M  V30 2736 H 255.646 4.10459 0.700885 0
M  V30 2737 H 258.243 4.05801 3.48181 0
M  V30 2738 H 258.586 2.34604 3.43899 0
M  V30 2739 H 259.119 3.38274 2.09322 0
M  V30 2740 H 255.858 6.34612 1.64157 0
M  V30 2741 H 255.378 5.22849 2.93921 0
M  V30 2742 H 257.057 5.81423 2.83824 0
M  V30 2743 N 257.189 -0.644168 1.43834 0
M  V30 2744 C 258.419 -1.42939 1.49171 0
M  V30 2745 C 258.827 -1.88874 0.111048 0
M  V30 2746 O 258.17 -1.60656 -0.8908 0
M  V30 2747 C 258.232 -2.69151 2.38324 0
M  V30 2748 C 257.896 -2.45097 3.85715 0
M  V30 2749 C 258.893 -2.07747 4.76589 0
M  V30 2750 C 256.578 -2.59141 4.30292 0
M  V30 2751 C 258.572 -1.8475 6.10038 0
M  V30 2752 C 256.259 -2.35759 5.63792 0
M  V30 2753 C 257.257 -1.9862 6.53482 0
M  V30 2754 O 256.945 -1.75489 7.84512 0
M  V30 2755 H 256.677 -0.445271 0.508635 0
M  V30 2756 H 259.231 -0.79621 1.8934 0
M  V30 2757 H 257.461 -3.3506 1.93058 0
M  V30 2758 H 259.15 -3.31123 2.3476 0
M  V30 2759 H 259.916 -1.96465 4.43426 0
M  V30 2760 H 255.795 -2.87022 3.60749 0
M  V30 2761 H 259.339 -1.55686 6.80006 0
M  V30 2762 H 255.236 -2.46646 5.9652 0
M  V30 2763 H 256.004 -1.89841 7.9618 0
M  V30 2764 N 258.668 -1.30515 -0.883378 0
M  V30 2765 C 259.893 -1.22487 -1.67367 0
M  V30 2766 C 260.318 0.208767 -1.86938 0
M  V30 2767 O 259.676 1.15015 -1.40148 0
M  V30 2768 C 259.724 -1.96041 -3.02655 0
M  V30 2769 O 258.828 -1.28859 -3.91751 0
M  V30 2770 H 258.169 -0.423573 -0.511353 0
M  V30 2771 H 260.699 -1.72362 -1.10239 0
M  V30 2772 H 260.709 -2.05124 -3.52687 0
M  V30 2773 H 259.384 -3.00307 -2.8773 0
M  V30 2774 H 257.961 -1.28141 -3.50192 0
M  V30 2775 N 260.146 1.09593 -1.13257 0
M  V30 2776 C 261.386 1.83349 -0.903472 0
M  V30 2777 C 261.75 1.83641 0.560351 0
M  V30 2778 O 262.951 2.53037 0.906947 0
M  V30 2779 C 261.222 3.25629 -1.47311 0
M  V30 2780 S 262.781 4.16408 -1.38382 0
M  V30 2781 H 259.599 0.632014 -0.325699 0
M  V30 2782 H 262.201 1.31817 -1.44376 0
M  V30 2783 H 260.905 3.22991 -2.53189 0
M  V30 2784 H 260.436 3.82233 -0.930689 0
M  V30 2785 H 262.451 4.94884 -0.361113 0
M  V30 2786 N 261.624 0.925811 1.2754 0
M  V30 2787 C 262.852 0.581509 1.9856 0
M  V30 2788 C 263.267 -0.840041 1.69082 0
M  V30 2789 O 262.624 -1.55805 0.950312 0
M  V30 2790 C 262.675 0.795589 3.52637 0
M  V30 2791 O 262.396 2.16121 3.81082 0
M  V30 2792 C 263.897 0.459744 4.4091 0
M  V30 2793 H 261.117 0.220538 0.633722 0
M  V30 2794 H 263.661 1.24232 1.6244 0
M  V30 2795 H 261.816 0.18161 3.86974 0
M  V30 2796 H 262.23 2.2098 4.75676 0
M  V30 2797 H 263.704 0.660244 5.48037 0
M  V30 2798 H 264.181 -0.604625 4.35018 0
M  V30 2799 H 264.787 1.05178 4.12089 0
M  V30 2800 N 263.102 -1.41638 0.69111 0
M  V30 2801 C 264.349 -2.01299 0.220193 0
M  V30 2802 C 264.677 -1.54715 -1.17871 0
M  V30 2803 O 263.932 -0.747193 -1.80874 0
M  V30 2804 C 264.231 -3.56714 0.221277 0
M  V30 2805 C 263.897 -4.22792 1.56709 0
M  V30 2806 C 262.559 -4.40557 1.93554 0
M  V30 2807 C 264.911 -4.59883 2.45268 0
M  V30 2808 C 262.239 -4.92688 3.18552 0
M  V30 2809 C 264.591 -5.13403 3.69595 0
M  V30 2810 C 263.255 -5.29379 4.06589 0
M  V30 2811 H 262.525 -0.736606 0.0805743 0
M  V30 2812 H 265.172 -1.69598 0.889319 0
M  V30 2813 H 263.477 -3.8818 -0.531391 0
M  V30 2814 H 265.174 -4.00678 -0.160547 0
M  V30 2815 H 261.764 -4.09336 1.2705 0
M  V30 2816 H 265.948 -4.45817 2.18084 0
M  V30 2817 H 261.204 -5.03242 3.47214 0
M  V30 2818 H 265.378 -5.41084 4.38407 0
M  V30 2819 H 263.005 -5.69537 5.03519 0
M  V30 2820 N 264.58 -0.43555 -1.51462 0
M  V30 2821 C 265.543 0.365137 -2.26273 0
M  V30 2822 C 266.543 0.951227 -1.29647 0
M  V30 2823 O 267.733 0.825958 -1.53374 0
M  V30 2824 C 264.865 1.51645 -3.05314 0
M  V30 2825 H 266.058 -0.290474 -2.9849 0
M  V30 2826 H 263.611 -0.188676 -1.55157 0
M  V30 2827 H 264.346 2.20816 -2.3751 0
M  V30 2828 H 264.131 1.10238 -3.76284 0
M  V30 2829 H 265.621 2.08218 -3.61987 0
M  V30 2830 N 266.058 1.56714 -0.166846 0
M  V30 2831 C 266.99 2.14914 0.796537 0
M  V30 2832 C 268.003 1.10357 1.19688 0
M  V30 2833 O 269.192 1.37561 1.13751 0
M  V30 2834 C 266.292 2.67326 2.08303 0
M  V30 2835 C 265.465 3.96493 1.84696 0
M  V30 2836 C 264.524 4.34014 2.97521 0
M  V30 2837 O 263.55 5.01973 2.6835 0
M  V30 2838 N 264.752 3.95208 4.25196 0
M  V30 2839 H 267.517 2.98205 0.299006 0
M  V30 2840 H 265.078 1.61892 0.0160839 0
M  V30 2841 H 267.07 2.89428 2.82867 0
M  V30 2842 H 265.64 1.88649 2.4926 0
M  V30 2843 H 264.86 3.82814 0.940602 0
M  V30 2844 H 266.148 4.8086 1.66285 0
M  V30 2845 H 265.546 3.40487 4.51758 0
M  V30 2846 H 264.103 4.2232 4.96477 0
M  V30 2847 N 267.536 -0.106894 1.57237 0
M  V30 2848 C 268.761 -0.830287 1.90055 0
M  V30 2849 C 269.186 -1.72064 0.75998 0
M  V30 2850 O 268.544 -1.78982 -0.288991 0
M  V30 2851 C 268.592 -1.6295 3.21683 0
M  V30 2852 O 267.696 -2.73748 3.08441 0
M  V30 2853 H 267.037 -0.228855 0.623315 0
M  V30 2854 H 269.567 -0.085658 2.04421 0
M  V30 2855 H 269.577 -2.01621 3.54701 0
M  V30 2856 H 268.252 -0.975989 4.04286 0
M  V30 2857 H 266.829 -2.38192 2.86913 0
M  V30 2858 N 269.014 -1.53014 -0.377408 0
M  V30 2859 C 270.26 -1.68872 -1.12294 0
M  V30 2860 C 270.593 -0.433224 -1.89306 0
M  V30 2861 O 269.868 0.569258 -1.85983 0
M  V30 2862 C 270.151 -2.93115 -2.09179 0
M  V30 2863 C 270.004 -4.28794 -1.35853 0
M  V30 2864 C 271.323 -3.12928 -3.09458 0
M  V30 2865 H 268.442 -0.614518 -0.406862 0
M  V30 2866 H 271.084 -1.85633 -0.40503 0
M  V30 2867 H 269.234 -2.78956 -2.70399 0
M  V30 2868 H 270.906 -4.54742 -0.775082 0
M  V30 2869 H 269.149 -4.28744 -0.660364 0
M  V30 2870 H 269.82 -5.11837 -2.06706 0
M  V30 2871 H 272.296 -3.26194 -2.58334 0
M  V30 2872 H 271.172 -4.01316 -3.74482 0
M  V30 2873 H 271.433 -2.27669 -3.78971 0
M  V30 2874 N 270.492 0.636531 -1.44174 0
M  V30 2875 C 271.717 1.42847 -1.50364 0
M  V30 2876 C 272.142 1.87665 -0.127867 0
M  V30 2877 O 271.5 1.58408 0.88185 0
M  V30 2878 C 271.548 2.62854 -2.4686 0
M  V30 2879 O 270.652 3.62501 -1.9664 0
M  V30 2880 H 269.993 0.427642 -0.507955 0
M  V30 2881 H 272.523 0.777422 -1.89255 0
M  V30 2882 H 272.533 3.10465 -2.64718 0
M  V30 2883 H 271.208 2.29578 -3.46795 0
M  V30 2884 H 269.785 3.21735 -1.88523 0
M  V30 2885 N 271.97 1.30982 0.876444 0
M  V30 2886 C 273.195 1.23373 1.66715 0
M  V30 2887 C 273.62 -0.19885 1.87046 0
M  V30 2888 O 272.978 -1.1427 1.40756 0
M  V30 2889 C 273.026 1.97644 3.01611 0
M  V30 2890 O 272.13 1.30935 3.91062 0
M  V30 2891 H 271.471 0.426279 0.509099 0
M  V30 2892 H 274.001 1.72944 1.09323 0
M  V30 2893 H 274.011 2.06992 3.51594 0
M  V30 2894 H 272.686 3.01829 2.86133 0
M  V30 2895 H 271.263 1.29996 3.49507 0
M  V30 2896 N 273.449 -1.08991 1.13837 0
M  V30 2897 C 274.412 -2.13925 0.822715 0
M  V30 2898 C 275.412 -1.599 -0.1699 0
M  V30 2899 O 276.602 -1.74104 0.0577251 0
M  V30 2900 C 273.734 -3.40155 0.225318 0
M  V30 2901 H 274.927 -2.43358 1.75262 0
M  V30 2902 H 272.48 -1.24603 0.943594 0
M  V30 2903 H 273.215 -3.16352 -0.713594 0
M  V30 2904 H 273 -3.80661 0.940193 0
M  V30 2905 H 274.49 -4.17594 0.0214784 0
M  V30 2906 N 274.927 -0.932562 -1.27047 0
M  V30 2907 C 276.157 -0.591173 -1.97961 0
M  V30 2908 C 276.565 0.836219 -1.69717 0
M  V30 2909 O 275.908 1.56801 -0.957036 0
M  V30 2910 C 275.97 -0.743082 -3.51736 0
M  V30 2911 C 275.634 -2.1435 -4.03613 0
M  V30 2912 C 276.631 -3.11815 -4.16014 0
M  V30 2913 C 274.316 -2.46175 -4.37839 0
M  V30 2914 C 276.31 -4.39211 -4.61923 0
M  V30 2915 C 273.997 -3.73806 -4.83438 0
M  V30 2916 C 274.995 -4.70137 -4.95439 0
M  V30 2917 O 274.683 -5.95496 -5.40037 0
M  V30 2918 H 274.415 -0.222375 -0.638377 0
M  V30 2919 H 276.969 -1.25317 -1.62742 0
M  V30 2920 H 275.199 -0.0239739 -3.86693 0
M  V30 2921 H 276.888 -0.40603 -4.03864 0
M  V30 2922 H 277.654 -2.88549 -3.89826 0
M  V30 2923 H 273.533 -1.71936 -4.27737 0
M  V30 2924 H 277.077 -5.14404 -4.71205 0
M  V30 2925 H 272.974 -3.96888 -5.09068 0
M  V30 2926 H 273.742 -5.98554 -5.58279 0
M  V30 2927 N 276.405 1.4127 -0.698611 0
M  V30 2928 C 277.633 2.05503 -0.239992 0
M  V30 2929 C 278.048 1.52584 1.11191 0
M  V30 2930 O 277.405 0.675323 1.69545 0
M  V30 2931 C 277.456 3.60987 -0.192429 0
M  V30 2932 O 277.177 4.1195 -1.49094 0
M  V30 2933 C 278.678 4.42371 0.28681 0
M  V30 2934 H 275.898 0.661748 -0.111045 0
M  V30 2935 H 278.442 1.80987 -0.95205 0
M  V30 2936 H 276.597 3.84533 0.470472 0
M  V30 2937 H 277.011 5.06018 -1.38007 0
M  V30 2938 H 278.485 5.51344 0.26896 0
M  V30 2939 H 278.962 4.18699 1.32619 0
M  V30 2940 H 279.568 4.23897 -0.345201 0
M  V30 2941 N 277.883 0.443576 1.51229 0
M  V30 2942 C 279.132 -0.122332 2.01329 0
M  V30 2943 C 279.445 -1.43237 1.33201 0
M  V30 2944 O 280.651 -2.0816 1.74304 0
M  V30 2945 C 279.107 -0.268551 3.58897 0
M  V30 2946 C 278.715 1.03142 4.35965 0
M  V30 2947 C 280.459 -0.787894 4.17124 0
M  V30 2948 C 278.366 0.850504 5.85252 0
M  V30 2949 H 277.296 -0.0494929 0.752374 0
M  V30 2950 H 279.947 0.574289 1.74282 0
M  V30 2951 H 278.329 -1.02832 3.82415 0
M  V30 2952 H 279.503 1.80001 4.24189 0
M  V30 2953 H 277.818 1.47977 3.89219 0
M  V30 2954 H 280.415 -0.939841 5.26375 0
M  V30 2955 H 280.758 -1.77201 3.76703 0
M  V30 2956 H 281.291 -0.0862669 3.97706 0
M  V30 2957 H 278.03 1.80718 6.30096 0
M  V30 2958 H 277.55 0.121825 5.99676 0
M  V30 2959 H 279.229 0.506163 6.45017 0
M  V30 2960 N 279.361 -1.56624 0.175154 0
M  V30 2961 C 280.324 -2.16934 -0.739738 0
M  V30 2962 C 281.324 -1.11842 -1.15533 0
M  V30 2963 O 282.514 -1.37335 -1.07167 0
M  V30 2964 C 279.646 -2.75531 -2.00738 0
M  V30 2965 H 280.839 -2.99131 -0.214639 0
M  V30 2966 H 278.392 -1.56123 -0.0744197 0
M  V30 2967 H 279.127 -1.97078 -2.57548 0
M  V30 2968 H 278.912 -3.52444 -1.71831 0
M  V30 2969 H 280.402 -3.21904 -2.66021 0
M  V30 2970 N 280.839 0.0985539 -1.57292 0
M  V30 2971 C 282.085 0.803867 -1.86188 0
M  V30 2972 C 282.418 1.78549 -0.763794 0
M  V30 2973 O 281.693 1.93153 0.22855 0
M  V30 2974 C 281.976 1.53568 -3.25713 0
M  V30 2975 C 281.829 0.572277 -4.46145 0
M  V30 2976 C 283.148 2.48708 -3.63087 0
M  V30 2977 H 280.267 0.290781 -0.677211 0
M  V30 2978 H 282.909 0.0675783 -1.8988 0
M  V30 2979 H 281.059 2.16332 -3.22696 0
M  V30 2980 H 282.731 -0.0480894 -4.61275 0
M  V30 2981 H 280.974 -0.114618 -4.33649 0
M  V30 2982 H 281.645 1.12139 -5.40489 0
M  V30 2983 H 284.121 1.96039 -3.67026 0
M  V30 2984 H 282.997 2.96932 -4.61652 0
M  V30 2985 H 283.258 3.32309 -2.91588 0
M  V30 2986 N 282.317 1.53212 0.369288 0
M  V30 2987 C 283.563 1.69466 1.11397 0
M  V30 2988 C 283.896 0.443257 1.89074 0
M  V30 2989 O 283.171 -0.559386 1.86282 0
M  V30 2990 C 283.454 2.9422 2.07621 0
M  V30 2991 C 283.307 4.29508 1.33577 0
M  V30 2992 C 284.626 3.14565 3.07794 0
M  V30 2993 H 281.745 0.616667 0.403597 0
M  V30 2994 H 284.387 1.85845 0.395179 0
M  V30 2995 H 282.537 2.80387 2.68916 0
M  V30 2996 H 284.209 4.55147 0.750955 0
M  V30 2997 H 282.452 4.29088 0.637618 0
M  V30 2998 H 283.123 5.12926 2.03989 0
M  V30 2999 H 285.599 3.2756 2.56601 0
M  V30 3000 H 284.475 4.03297 3.72348 0
M  V30 3001 H 284.736 2.29675 3.77759 0
M  V30 3002 N 283.795 -0.628877 1.44509 0
M  V30 3003 C 285.041 -1.39045 1.47629 0
M  V30 3004 C 285.374 -1.93892 0.109343 0
M  V30 3005 O 284.649 -1.7379 -0.87334 0
M  V30 3006 C 284.932 -2.55408 2.53848 0
M  V30 3007 C 284.785 -2.05896 3.99909 0
M  V30 3008 C 286.104 -3.5759 2.56549 0
M  V30 3009 H 283.223 -0.504232 0.537512 0
M  V30 3010 H 285.865 -0.710854 1.76201 0
M  V30 3011 H 284.015 -3.13384 2.29615 0
M  V30 3012 H 285.687 -1.52734 4.35282 0
M  V30 3013 H 283.93 -1.37061 4.11578 0
M  V30 3014 H 284.601 -2.89681 4.69882 0
M  V30 3015 H 287.077 -3.09419 2.78207 0
M  V30 3016 H 285.953 -4.36527 3.32769 0
M  V30 3017 H 286.214 -4.11808 1.60832 0
M  V30 3018 N 285.273 -1.31445 -0.869486 0
M  V30 3019 C 286.52 -1.21158 -1.62256 0
M  V30 3020 C 286.848 0.230155 -1.93133 0
M  V30 3021 O 286.103 1.17906 -1.56194 0
M  V30 3022 C 286.402 -2.00145 -2.96102 0
M  V30 3023 C 286.068 -3.4964 -2.84715 0
M  V30 3024 C 284.73 -3.90403 -2.81317 0
M  V30 3025 C 287.082 -4.44769 -2.71716 0
M  V30 3026 C 284.41 -5.24561 -2.62778 0
M  V30 3027 C 286.762 -5.79054 -2.54714 0
M  V30 3028 C 285.426 -6.19037 -2.49699 0
M  V30 3029 H 284.696 -0.443348 -0.593737 0
M  V30 3030 H 287.343 -1.62715 -1.00976 0
M  V30 3031 H 285.648 -1.5127 -3.6142 0
M  V30 3032 H 287.345 -1.89566 -3.53363 0
M  V30 3033 H 283.935 -3.17256 -2.88178 0
M  V30 3034 H 288.119 -4.14208 -2.73397 0
M  V30 3035 H 283.375 -5.54613 -2.57321 0
M  V30 3036 H 287.549 -6.52393 -2.43632 0
M  V30 3037 H 285.176 -7.22935 -2.35093 0
M  V30 3038 N 286.751 1.08385 -1.14413 0
M  V30 3039 C 287.701 2.13509 -0.79987 0
M  V30 3040 C 288.685 1.5951 0.211059 0
M  V30 3041 O 289.877 1.76995 0.0133694 0
M  V30 3042 C 287.006 3.42162 -0.279297 0
M  V30 3043 C 286.092 4.03042 -1.31976 0
M  V30 3044 N 286.483 4.38327 -2.52395 0
M  V30 3045 C 284.781 4.30379 -1.17004 0
M  V30 3046 C 285.482 4.86428 -3.19003 0
M  V30 3047 N 284.458 4.84547 -2.46405 0
M  V30 3048 H 288.26 2.38609 -1.7159 0
M  V30 3049 H 285.774 1.2572 -1.02802 0
M  V30 3050 H 287.771 4.16898 -0.0143688 0
M  V30 3051 H 286.431 3.18511 0.630923 0
M  V30 3052 H 287.442 4.29349 -2.89621 0
M  V30 3053 H 284.119 4.16281 -0.318854 0
M  V30 3054 H 285.509 5.23107 -4.21674 0
M  V30 3055 N 288.23 0.939286 1.26551 0
M  V30 3056 C 289.477 0.585847 1.9384 0
M  V30 3057 C 289.805 -0.874784 1.73718 0
M  V30 3058 O 289.06 -1.64092 1.06642 0
M  V30 3059 C 289.359 0.872106 3.46596 0
M  V30 3060 C 289.025 2.31632 3.86856 0
M  V30 3061 C 287.687 2.71111 3.97558 0
M  V30 3062 C 290.039 3.25494 4.07066 0
M  V30 3063 C 287.367 4.03553 4.25866 0
M  V30 3064 C 289.719 4.57531 4.36862 0
M  V30 3065 C 288.383 4.96828 4.45778 0
M  V30 3066 H 287.653 0.214377 0.709312 0
M  V30 3067 H 290.3 1.18544 1.50398 0
M  V30 3068 H 288.605 0.18996 3.91339 0
M  V30 3069 H 290.302 0.577442 3.96821 0
M  V30 3070 H 286.892 2.00008 3.79071 0
M  V30 3071 H 291.076 2.9619 3.98227 0
M  V30 3072 H 286.332 4.33665 4.30981 0
M  V30 3073 H 290.506 5.30254 4.51446 0
M  V30 3074 H 288.133 5.99482 4.67468 0
M  V30 3075 N 289.708 -1.40897 0.706093 0
M  V30 3076 C 290.638 -2.33418 0.0620085 0
M  V30 3077 C 291.619 -1.52385 -0.755827 0
M  V30 3078 O 292.804 -1.80886 -0.706674 0
M  V30 3079 C 289.934 -3.36293 -0.867445 0
M  V30 3080 C 288.888 -4.27716 -0.155932 0
M  V30 3081 C 288.214 -5.2105 -1.20046 0
M  V30 3082 C 289.514 -5.12944 0.984149 0
M  V30 3083 H 291.208 -2.87527 0.83477 0
M  V30 3084 H 288.754 -1.38249 0.402875 0
M  V30 3085 H 290.707 -3.99949 -1.32735 0
M  V30 3086 H 289.431 -2.80556 -1.67199 0
M  V30 3087 H 288.09 -3.65498 0.284047 0
M  V30 3088 H 287.738 -4.61624 -1.99781 0
M  V30 3089 H 287.438 -5.83056 -0.729328 0
M  V30 3090 H 288.962 -5.87584 -1.66066 0
M  V30 3091 H 290.376 -5.70109 0.604048 0
M  V30 3092 H 288.773 -5.83945 1.38304 0
M  V30 3093 H 289.843 -4.49485 1.81911 0
M  V30 3094 N 291.186 -0.45159 -1.50991 0
M  V30 3095 C 292.432 0.110237 -2.025 0
M  V30 3096 C 292.765 1.41109 -1.33424 0
M  V30 3097 O 292.04 1.89135 -0.453659 0
M  V30 3098 C 292.323 0.314271 -3.58726 0
M  V30 3099 C 292.176 -1.00623 -4.38401 0
M  V30 3100 C 293.495 1.07767 -4.26702 0
M  V30 3101 H 290.614 0.0385897 -0.735989 0
M  V30 3102 H 293.256 -0.593374 -1.80497 0
M  V30 3103 H 291.406 0.913601 -3.77605 0
M  V30 3104 H 293.078 -1.64064 -4.31139 0
M  V30 3105 H 291.321 -1.6075 -4.02917 0
M  V30 3106 H 291.992 -0.817341 -5.45915 0
M  V30 3107 H 294.468 0.56986 -4.12179 0
M  V30 3108 H 293.344 1.18921 -5.35863 0
M  V30 3109 H 293.605 2.10939 -3.88532 0
M  V30 3110 N 292.664 1.56529 -0.183458 0
M  V30 3111 C 294.075 1.83739 0.331177 0
M  V30 3112 C 294.426 1.10373 1.62211 0
M  V30 3113 O 293.551 0.36071 2.13373 0
M  V30 3114 C 294.146 3.33306 0.607646 0
M  V30 3115 C 292.705 3.60969 1.06668 0
M  V30 3116 C 291.852 2.77086 0.109029 0
M  V30 3117 H 294.803 1.53379 -0.407484 0
M  V30 3118 H 294.824 3.51444 1.45832 0
M  V30 3119 H 294.336 3.86677 -0.332086 0
M  V30 3120 H 292.437 3.13021 2.0211 0
M  V30 3121 H 292.55 4.69231 0.967447 0
M  V30 3122 H 290.914 2.47319 0.608714 0
M  V30 3123 H 291.697 3.33241 -0.82494 0
M  V30 3124 N 294.142 -0.090211 1.57342 0
M  V30 3125 C 295.075 -1.14035 1.97664 0
M  V30 3126 C 296.053 -1.38576 0.850616 0
M  V30 3127 O 297.237 -1.52255 1.11134 0
M  V30 3128 C 294.364 -2.48854 2.2976 0
M  V30 3129 C 293.41 -2.40564 3.52181 0
M  V30 3130 S 294.243 -1.81745 5.03715 0
M  V30 3131 C 295.399 -3.18178 5.38993 0
M  V30 3132 H 295.632 -0.796636 2.86428 0
M  V30 3133 H 293.165 -0.298072 1.51496 0
M  V30 3134 H 295.123 -3.26413 2.48927 0
M  V30 3135 H 293.784 -2.80393 1.41558 0
M  V30 3136 H 292.977 -3.39942 3.72096 0
M  V30 3137 H 292.579 -1.71135 3.32549 0
M  V30 3138 H 294.871 -4.14461 5.35937 0
M  V30 3139 H 295.814 -3.03062 6.39968 0
M  V30 3140 H 296.222 -3.17935 4.66452 0
M  V30 3141 N 295.62 -1.53406 -0.361157 0
M  V30 3142 C 296.869 -1.69022 -1.10066 0
M  V30 3143 C 297.182 -0.450838 -1.90333 0
M  V30 3144 O 298.388 -0.487617 -2.67085 0
M  V30 3145 C 296.844 -2.98812 -2.00598 0
M  V30 3146 C 296.452 -4.30027 -1.25621 0
M  V30 3147 C 298.196 -3.23795 -2.74513 0
M  V30 3148 C 296.103 -5.50903 -2.1508 0
M  V30 3149 H 295.033 -0.629776 -0.414606 0
M  V30 3150 H 297.684 -1.79907 -0.361348 0
M  V30 3151 H 296.066 -2.8174 -2.78278 0
M  V30 3152 H 297.24 -4.57745 -0.529739 0
M  V30 3153 H 295.555 -4.11522 -0.635496 0
M  V30 3154 H 298.152 -4.11289 -3.41681 0
M  V30 3155 H 298.495 -2.40045 -3.40123 0
M  V30 3156 H 299.028 -3.41561 -2.03914 0
M  V30 3157 H 295.767 -6.37143 -1.54041 0
M  V30 3158 H 295.287 -5.27459 -2.85565 0
M  V30 3159 H 296.966 -5.85865 -2.74538 0
M  V30 3160 N 297.098 0.621204 -1.44841 0
M  V30 3161 C 298.347 1.37658 -1.47422 0
M  V30 3162 C 298.66 1.95264 -0.114629 0
M  V30 3163 O 299.866 2.71494 -0.0180199 0
M  V30 3164 C 298.322 2.49285 -2.59586 0
M  V30 3165 C 297.93 1.98149 -4.01797 0
M  V30 3166 C 299.674 3.26409 -2.71399 0
M  V30 3167 C 297.581 3.07178 -5.05367 0
M  V30 3168 H 296.511 0.517344 -0.548517 0
M  V30 3169 H 299.162 0.667257 -1.70938 0
M  V30 3170 H 297.544 3.22839 -2.29328 0
M  V30 3171 H 298.718 1.31395 -4.41669 0
M  V30 3172 H 297.033 1.33812 -3.94314 0
M  V30 3173 H 299.63 4.07706 -3.45948 0
M  V30 3174 H 299.973 3.76535 -1.77559 0
M  V30 3175 H 300.506 2.5995 -3.01116 0
M  V30 3176 H 297.245 2.61985 -6.00869 0
M  V30 3177 H 296.765 3.72542 -4.70077 0
M  V30 3178 H 298.444 3.71789 -5.29511 0
M  V30 3179 N 298.576 1.31904 0.862503 0
M  V30 3180 C 299.822 1.22197 1.61851 0
M  V30 3181 C 300.155 -0.217641 1.92977 0
M  V30 3182 O 299.43 -1.15264 1.56666 0
M  V30 3183 C 299.713 2.07378 2.94391 0
M  V30 3184 C 299.566 3.59678 2.70096 0
M  V30 3185 C 300.885 1.92891 3.95577 0
M  V30 3186 H 298.004 0.445255 0.587296 0
M  V30 3187 H 300.646 1.6177 0.99651 0
M  V30 3188 H 298.796 1.73758 3.47477 0
M  V30 3189 H 300.468 4.03472 2.23625 0
M  V30 3190 H 298.711 3.82735 2.04197 0
M  V30 3191 H 299.382 4.14595 3.64438 0
M  V30 3192 H 301.858 2.22327 3.51724 0
M  V30 3193 H 300.734 2.54781 4.86187 0
M  V30 3194 H 300.995 0.894315 4.3296 0
M  V30 3195 N 300.054 -1.07777 1.14986 0
M  V30 3196 C 301.303 -1.79669 0.916617 0
M  V30 3197 C 301.616 -1.87474 -0.557917 0
M  V30 3198 O 302.822 -2.55845 -0.908617 0
M  V30 3199 C 301.278 -3.22848 1.59051 0
M  V30 3200 C 300.886 -3.23257 3.10176 0
M  V30 3201 C 302.63 -3.99379 1.43864 0
M  V30 3202 C 300.537 -4.61063 3.70372 0
M  V30 3203 H 299.467 -0.673349 0.33929 0
M  V30 3204 H 302.118 -1.21003 1.37951 0
M  V30 3205 H 300.5 -3.8168 1.0553 0
M  V30 3206 H 301.674 -2.74095 3.70417 0
M  V30 3207 H 299.989 -2.60222 3.25074 0
M  V30 3208 H 302.586 -5.0122 1.86232 0
M  V30 3209 H 302.929 -4.14511 0.385564 0
M  V30 3210 H 303.462 -3.47032 1.94457 0
M  V30 3211 H 300.201 -4.51135 4.7556 0
M  V30 3212 H 299.721 -5.1048 3.14913 0
M  V30 3213 H 301.4 -5.30034 3.71043 0
M  V30 3214 N 301.532 -0.945985 -1.26051 0
M  V30 3215 C 302.779 -0.596118 -1.93527 0
M  V30 3216 C 303.107 0.865559 -1.74179 0
M  V30 3217 O 302.362 1.63524 -1.0751 0
M  V30 3218 C 302.661 -0.890475 -3.46129 0
M  V30 3219 C 302.327 -2.3368 -3.85622 0
M  V30 3220 C 300.989 -2.73216 -3.96114 0
M  V30 3221 C 303.341 -3.27648 -4.05334 0
M  V30 3222 C 300.669 -4.05806 -4.2372 0
M  V30 3223 C 303.021 -4.59841 -4.3443 0
M  V30 3224 C 301.685 -4.99185 -4.43137 0
M  V30 3225 H 300.955 -0.218135 -0.708165 0
M  V30 3226 H 303.602 -1.1934 -1.49768 0
M  V30 3227 H 301.907 -0.210711 -3.91233 0
M  V30 3228 H 303.604 -0.598478 -3.96509 0
M  V30 3229 H 300.194 -2.02015 -3.78005 0
M  V30 3230 H 304.378 -2.98298 -3.96651 0
M  V30 3231 H 299.634 -4.35945 -4.28675 0
M  V30 3232 H 303.808 -5.32641 -4.48628 0
M  V30 3233 H 301.435 -6.01952 -4.64282 0
M  V30 3234 N 303.011 1.40521 -0.713556 0
M  V30 3235 C 304.251 2.02783 -0.256584 0
M  V30 3236 C 304.615 1.55352 1.12827 0
M  V30 3237 O 305.816 2.09663 1.68211 0
M  V30 3238 C 304.087 3.5586 -0.331414 0
M  V30 3239 S 305.646 4.38773 0.0488703 0
M  V30 3240 H 302.464 0.703655 -0.101934 0
M  V30 3241 H 305.066 1.71674 -0.935325 0
M  V30 3242 H 303.77 3.87874 -1.34098 0
M  V30 3243 H 303.301 3.91695 0.365873 0
M  V30 3244 H 305.316 4.79633 1.2715 0
M  V30 3245 N 304.489 0.459591 1.5075 0
M  V30 3246 C 305.719 -0.0972338 2.06371 0
M  V30 3247 C 306.127 -1.35074 1.32483 0
M  V30 3248 O 305.47 -1.79637 0.384226 0
M  V30 3249 C 305.532 -0.462759 3.56509 0
M  V30 3250 C 305.196 0.687084 4.51805 0
M  V30 3251 C 306.193 1.56578 4.95761 0
M  V30 3252 C 303.878 0.874144 4.94635 0
M  V30 3253 C 305.872 2.61604 5.81242 0
M  V30 3254 C 303.559 1.92765 5.79901 0
M  V30 3255 C 304.557 2.79697 6.23104 0
M  V30 3256 O 304.245 3.83235 7.06673 0
M  V30 3257 H 303.977 -0.00140687 0.675999 0
M  V30 3258 H 306.531 0.644011 1.95043 0
M  V30 3259 H 304.761 -1.25703 3.65699 0
M  V30 3260 H 306.45 -0.953323 3.94546 0
M  V30 3261 H 307.216 1.4329 4.6335 0
M  V30 3262 H 303.095 0.207006 4.60535 0
M  V30 3263 H 306.639 3.29489 6.14884 0
M  V30 3264 H 302.536 2.06064 6.11725 0
M  V30 3265 H 303.304 3.80084 7.24899 0
M  V30 3266 N 305.967 -1.56429 0.191757 0
M  V30 3267 C 306.897 -2.21937 -0.725696 0
M  V30 3268 C 307.878 -1.1814 -1.2238 0
M  V30 3269 O 309.063 -1.46636 -1.27325 0
M  V30 3270 C 306.193 -2.87611 -1.94672 0
M  V30 3271 C 305.147 -3.97623 -1.58366 0
M  V30 3272 C 304.473 -4.50446 -2.88102 0
M  V30 3273 C 305.773 -5.16197 -0.796133 0
M  V30 3274 H 307.467 -2.98861 -0.179606 0
M  V30 3275 H 305.013 -1.43749 -0.0849464 0
M  V30 3276 H 306.966 -3.3212 -2.59373 0
M  V30 3277 H 305.69 -2.08087 -2.51728 0
M  V30 3278 H 304.349 -3.53801 -0.960247 0
M  V30 3279 H 303.997 -3.67688 -3.43241 0
M  V30 3280 H 303.697 -5.24675 -2.64556 0
M  V30 3281 H 305.221 -4.97654 -3.53798 0
M  V30 3282 H 306.635 -5.57271 -1.34618 0
M  V30 3283 H 305.032 -5.96471 -0.658928 0
M  V30 3284 H 306.102 -4.84473 0.203478 0
M  V30 3285 N 307.445 0.0818655 -1.57387 0
M  V30 3286 C 308.861 0.436412 -1.53517 0
M  V30 3287 C 309.061 1.79758 -0.910459 0
M  V30 3288 O 308.117 2.47324 -0.508636 0
M  V30 3289 C 309.43 0.386734 -2.98203 0
M  V30 3290 C 310.978 0.467644 -3.09487 0
M  V30 3291 C 311.453 0.447978 -4.55804 0
M  V30 3292 N 312.944 0.508348 -4.60402 0
M  V30 3293 C 313.679 0.515184 -5.71081 0
M  V30 3294 N 313.175 0.477435 -6.91153 0
M  V30 3295 N 314.968 0.560988 -5.59294 0
M  V30 3296 H 307.119 -0.809546 -1.96367 0
M  V30 3297 H 309.382 -0.302733 -0.898363 0
M  V30 3298 H 309.088 -0.546539 -3.47427 0
M  V30 3299 H 308.962 1.20075 -3.57578 0
M  V30 3300 H 311.349 1.39134 -2.60242 0
M  V30 3301 H 311.43 -0.374753 -2.5304 0
M  V30 3302 H 311.074 -0.471826 -5.05704 0
M  V30 3303 H 311.004 1.30777 -5.10103 0
M  V30 3304 H 313.495 0.54218 -3.7399 0
M  V30 3305 H 313.808 0.486299 -7.71268 0
M  V30 3306 H 312.153 0.444278 -6.93579 0
M  V30 3307 H 315.344 0.5881 -4.64391 0
M  V30 3308 H 315.517 0.562846 -6.45551 0
M  V30 3309 N 308.923 1.53595 0.353017 0
M  V30 3310 C 310.172 1.69603 1.09168 0
M  V30 3311 C 310.485 0.460925 1.90092 0
M  V30 3312 O 311.691 0.501774 2.66823 0
M  V30 3313 C 310.147 2.99872 1.9901 0
M  V30 3314 C 309.755 4.30687 1.23339 0
M  V30 3315 C 311.499 3.25246 2.72792 0
M  V30 3316 C 309.406 5.52036 2.12156 0
M  V30 3317 H 308.336 0.631966 0.411261 0
M  V30 3318 H 310.987 1.80096 0.351802 0
M  V30 3319 H 309.369 2.83212 2.7678 0
M  V30 3320 H 310.543 4.58019 0.505456 0
M  V30 3321 H 308.858 4.11853 0.613663 0
M  V30 3322 H 311.455 4.13095 3.39495 0
M  V30 3323 H 311.798 2.41846 3.38846 0
M  V30 3324 H 312.331 3.42638 2.021 0
M  V30 3325 H 309.07 6.37951 1.50659 0
M  V30 3326 H 308.59 5.28966 2.82764 0
M  V30 3327 H 310.269 5.87313 2.71427 0
M  V30 3328 N 310.401 -0.613514 1.45168 0
M  V30 3329 C 311.647 -1.37279 1.50087 0
M  V30 3330 C 312.002 -1.91902 0.138294 0
M  V30 3331 O 311.295 -1.71764 -0.84899 0
M  V30 3332 C 311.489 -2.54347 2.51083 0
M  V30 3333 C 311.318 -2.11186 3.97027 0
M  V30 3334 C 310.088 -1.97636 4.65046 0
M  V30 3335 C 312.286 -1.69016 4.85735 0
M  V30 3336 N 310.268 -1.48224 5.95737 0
M  V30 3337 C 311.639 -1.30976 6.06008 0
M  V30 3338 C 313.694 -1.56555 4.72647 0
M  V30 3339 C 312.397 -0.817197 7.14643 0
M  V30 3340 C 314.423 -1.08702 5.81324 0
M  V30 3341 C 313.785 -0.716233 7.00749 0
M  V30 3342 H 309.884 -0.496478 0.60418 0
M  V30 3343 H 312.468 -0.701988 1.81605 0
M  V30 3344 H 310.639 -3.19031 2.21527 0
M  V30 3345 H 312.371 -3.21208 2.46187 0
M  V30 3346 H 309.126 -2.18638 4.20112 0
M  V30 3347 H 309.55 -1.25767 6.65216 0
M  V30 3348 H 314.192 -1.83849 3.80736 0
M  V30 3349 H 311.91 -0.531797 8.06348 0
M  V30 3350 H 315.496 -0.994943 5.7323 0
M  V30 3351 H 314.376 -0.351642 7.83411 0
M  V30 3352 N 311.879 -1.3236 -0.855495 0
M  V30 3353 C 313.128 -1.22226 -1.60448 0
M  V30 3354 C 313.441 0.214733 -1.94418 0
M  V30 3355 O 314.647 0.437917 -2.67945 0
M  V30 3356 C 313.103 -2.14063 -2.89318 0
M  V30 3357 C 312.711 -3.62839 -2.62777 0
M  V30 3358 C 314.455 -2.12764 -3.67331 0
M  V30 3359 C 312.362 -4.4664 -3.87643 0
M  V30 3360 H 311.292 -0.453904 -0.602069 0
M  V30 3361 H 313.943 -1.57314 -0.944698 0
M  V30 3362 H 312.325 -1.71889 -3.5675 0
M  V30 3363 H 313.499 -4.1335 -2.03662 0
M  V30 3364 H 311.814 -3.66261 -1.98096 0
M  V30 3365 H 314.411 -2.72611 -4.59987 0
M  V30 3366 H 314.754 -1.11841 -4.00995 0
M  V30 3367 H 315.287 -2.53214 -3.06802 0
M  V30 3368 H 312.026 -5.48373 -3.5912 0
M  V30 3369 H 311.546 -4.0088 -4.46156 0
M  V30 3370 H 313.225 -4.59597 -4.55389 0
M  V30 3371 N 313.357 1.07166 -1.15556 0
M  V30 3372 C 314.287 2.16403 -0.877046 0
M  V30 3373 C 315.268 1.69217 0.173111 0
M  V30 3374 O 316.453 1.94181 0.027084 0
M  V30 3375 C 313.583 3.45349 -0.367632 0
M  V30 3376 C 312.537 4.05995 -1.35468 0
M  V30 3377 C 311.863 5.30045 -0.704038 0
M  V30 3378 C 313.163 4.45804 -2.72132 0
M  V30 3379 H 314.857 2.39959 -1.79053 0
M  V30 3380 H 312.403 1.15325 -0.862331 0
M  V30 3381 H 314.356 4.21095 -0.160317 0
M  V30 3382 H 313.08 3.21385 0.581326 0
M  V30 3383 H 311.739 3.32296 -1.54839 0
M  V30 3384 H 311.387 5.02373 0.251128 0
M  V30 3385 H 311.087 5.71579 -1.36277 0
M  V30 3386 H 312.611 6.08495 -0.50654 0
M  V30 3387 H 314.025 5.12671 -2.56595 0
M  V30 3388 H 312.422 4.98296 -3.34397 0
M  V30 3389 H 313.492 3.57083 -3.28054 0
M  V30 3390 N 314.835 0.952656 1.25548 0
M  V30 3391 C 316.081 0.607272 1.93494 0
M  V30 3392 C 316.414 -0.853245 1.74452 0
M  V30 3393 O 315.689 -1.61194 1.08843 0
M  V30 3394 C 315.972 0.96435 3.46947 0
M  V30 3395 C 315.825 2.48045 3.75225 0
M  V30 3396 C 317.144 0.487987 4.37386 0
M  V30 3397 H 314.263 0.222096 0.702739 0
M  V30 3398 H 316.905 1.18895 1.48203 0
M  V30 3399 H 315.055 0.469361 3.85654 0
M  V30 3400 H 316.727 3.04905 3.46166 0
M  V30 3401 H 314.97 2.919 3.209 0
M  V30 3402 H 315.641 2.6808 4.82532 0
M  V30 3403 H 318.117 0.912558 4.0597 0
M  V30 3404 H 316.993 0.766547 5.43521 0
M  V30 3405 H 317.254 -0.612063 4.37843 0
M  V30 3406 N 316.313 -1.40141 0.720998 0
M  V30 3407 C 317.243 -2.33339 0.0867621 0
M  V30 3408 C 318.224 -1.53178 -0.739622 0
M  V30 3409 O 319.409 -1.81625 -0.687449 0
M  V30 3410 C 316.539 -3.37194 -0.831728 0
M  V30 3411 C 315.493 -4.27857 -0.110558 0
M  V30 3412 C 314.819 -5.22294 -1.14513 0
M  V30 3413 C 316.119 -5.11872 1.0385 0
M  V30 3414 H 317.813 -2.86626 0.865219 0
M  V30 3415 H 315.359 -1.37814 0.417516 0
M  V30 3416 H 317.312 -4.01335 -1.28485 0
M  V30 3417 H 316.036 -2.82314 -1.64214 0
M  V30 3418 H 314.695 -3.65176 0.322797 0
M  V30 3419 H 314.343 -4.63717 -1.94874 0
M  V30 3420 H 314.043 -5.83797 -0.667446 0
M  V30 3421 H 315.567 -5.89312 -1.59824 0
M  V30 3422 H 316.981 -5.69436 0.664482 0
M  V30 3423 H 315.378 -5.82445 1.4449 0
M  V30 3424 H 316.448 -4.4753 1.86668 0
M  V30 3425 N 317.792 -0.46758 -1.50504 0
M  V30 3426 C 318.724 0.364655 -2.26281 0
M  V30 3427 C 319.737 0.960151 -1.31472 0
M  V30 3428 O 320.926 0.849153 -1.57008 0
M  V30 3429 C 318.026 1.52509 -3.02645 0
M  V30 3430 C 317.199 1.04302 -4.24782 0
M  V30 3431 C 316.258 2.07709 -4.8347 0
M  V30 3432 O 315.284 1.65913 -5.44483 0
M  V30 3433 N 316.486 3.40485 -4.70159 0
M  V30 3434 H 319.251 -0.28495 -2.98342 0
M  V30 3435 H 316.812 -0.298163 -1.59131 0
M  V30 3436 H 318.804 2.21371 -3.38787 0
M  V30 3437 H 317.374 2.07945 -2.33404 0
M  V30 3438 H 316.594 0.180393 -3.93787 0
M  V30 3439 H 317.882 0.698798 -5.03978 0
M  V30 3440 H 317.28 3.77155 -4.21629 0
M  V30 3441 H 315.837 4.05156 -5.1058 0
M  V30 3442 N 319.27 1.56325 -0.20005 0
M  V30 3443 C 320.516 1.98012 0.438059 0
M  V30 3444 C 320.849 1.08702 1.60927 0
M  V30 3445 O 320.124 0.140064 1.93995 0
M  V30 3446 C 320.407 3.48841 0.893419 0
M  V30 3447 C 320.26 4.48928 -0.279947 0
M  V30 3448 C 321.579 4.03498 1.75719 0
M  V30 3449 H 318.698 0.719918 0.157757 0
M  V30 3450 H 321.34 1.87743 -0.291968 0
M  V30 3451 H 319.49 3.57723 1.51547 0
M  V30 3452 H 321.162 4.52079 -0.91772 0
M  V30 3453 H 319.405 4.23694 -0.930919 0
M  V30 3454 H 320.076 5.5194 0.0812601 0
M  V30 3455 H 322.552 3.97427 1.23253 0
M  V30 3456 H 321.428 5.09393 2.04476 0
M  V30 3457 H 321.689 3.4906 2.71311 0
M  V30 3458 N 320.748 -0.0735177 1.57428 0
M  V30 3459 C 322.164 -0.428264 1.53747 0
M  V30 3460 C 322.364 -1.79272 0.91998 0
M  V30 3461 O 321.42 -2.47051 0.521745 0
M  V30 3462 C 322.733 -0.370914 2.98404 0
M  V30 3463 C 324.281 -0.451224 3.0973 0
M  V30 3464 C 324.756 -0.4238 4.56035 0
M  V30 3465 N 326.247 -0.483925 4.60665 0
M  V30 3466 C 326.982 -0.484891 5.71346 0
M  V30 3467 N 326.478 -0.440775 6.91396 0
M  V30 3468 N 328.271 -0.531319 5.59583 0
M  V30 3469 H 320.422 0.819949 1.95935 0
M  V30 3470 H 322.685 0.307493 0.896745 0
M  V30 3471 H 322.391 0.564956 3.47133 0
M  V30 3472 H 322.265 -1.18176 3.5821 0
M  V30 3473 H 324.652 -1.37752 2.60976 0
M  V30 3474 H 324.733 0.388167 2.52838 0
M  V30 3475 H 324.377 0.498638 5.05446 0
M  V30 3476 H 324.307 -1.2807 5.10789 0
M  V30 3477 H 326.798 -0.522338 3.74273 0
M  V30 3478 H 327.111 -0.44539 7.71515 0
M  V30 3479 H 325.456 -0.40749 6.93804 0
M  V30 3480 H 328.647 -0.563464 4.64696 0
M  V30 3481 H 328.82 -0.528603 6.4584 0
M  V30 3482 N 322.226 -1.5378 -0.344866 0
M  V30 3483 C 323.158 -1.77988 -1.44406 0
M  V30 3484 C 324.171 -0.661138 -1.48771 0
M  V30 3485 O 325.36 -0.937842 -1.51877 0
M  V30 3486 C 322.46 -1.86345 -2.8307 0
M  V30 3487 C 321.633 -3.16256 -3.0216 0
M  V30 3488 C 320.692 -3.15588 -4.21059 0
M  V30 3489 O 319.718 -3.89314 -4.15239 0
M  V30 3490 N 320.92 -2.37864 -5.29529 0
M  V30 3491 H 323.685 -2.72839 -1.24012 0
M  V30 3492 H 321.246 -1.52814 -0.534737 0
M  V30 3493 H 323.238 -1.83351 -3.60783 0
M  V30 3494 H 321.808 -0.986858 -2.96614 0
M  V30 3495 H 321.028 -3.32385 -2.11929 0
M  V30 3496 H 322.316 -4.0207 -3.11797 0
M  V30 3497 H 321.714 -1.77514 -5.37127 0
M  V30 3498 H 320.271 -2.40668 -6.05741 0
M  V30 3499 N 323.704 0.605807 -1.45491 0
M  V30 3500 C 325.12 0.926751 -1.29936 0
M  V30 3501 C 325.32 1.99896 -0.253706 0
M  V30 3502 O 324.376 2.50038 0.351737 0
M  V30 3503 C 325.689 1.36599 -2.67883 0
M  V30 3504 C 327.237 1.4801 -2.75793 0
M  V30 3505 C 327.712 1.95309 -4.14268 0
M  V30 3506 N 329.203 2.0254 -4.16571 0
M  V30 3507 C 329.938 2.40363 -5.20589 0
M  V30 3508 N 329.434 2.77143 -6.34952 0
M  V30 3509 N 331.227 2.40718 -5.07948 0
M  V30 3510 H 323.378 -0.102862 -2.12151 0
M  V30 3511 H 325.641 0.016639 -0.947854 0
M  V30 3512 H 325.347 0.652306 -3.45598 0
M  V30 3513 H 325.221 2.33215 -2.96463 0
M  V30 3514 H 327.608 2.1847 -1.98381 0
M  V30 3515 H 327.689 0.497041 -2.50925 0
M  V30 3516 H 327.333 1.25436 -4.92167 0
M  V30 3517 H 327.263 2.94532 -4.3653 0
M  V30 3518 H 329.754 1.76699 -3.34045 0
M  V30 3519 H 330.067 3.0489 -7.10114 0
M  V30 3520 H 328.412 2.74834 -6.3835 0
M  V30 3521 H 331.603 2.11392 -4.1765 0
M  V30 3522 H 331.776 2.69869 -5.89131 0
M  V30 3523 N 325.182 1.32811 0.848464 0
M  V30 3524 C 326.428 1.23907 1.60546 0
M  V30 3525 C 326.761 -0.197161 1.93197 0
M  V30 3526 O 326.036 -1.13596 1.5788 0
M  V30 3527 C 326.319 2.10489 2.92175 0
M  V30 3528 C 326.172 3.62522 2.66266 0
M  V30 3529 C 327.491 1.97075 3.93509 0
M  V30 3530 H 324.61 0.451459 0.58254 0
M  V30 3531 H 327.252 1.62818 0.979296 0
M  V30 3532 H 325.402 1.77434 3.45614 0
M  V30 3533 H 327.074 4.05821 2.19334 0
M  V30 3534 H 325.317 3.84879 2.00126 0
M  V30 3535 H 325.988 4.18437 3.6002 0
M  V30 3536 H 328.464 2.26045 3.49346 0
M  V30 3537 H 327.34 2.59923 4.83457 0
M  V30 3538 H 327.601 0.940186 4.31987 0
M  V30 3539 N 326.66 -1.06551 1.16123 0
M  V30 3540 C 327.607 -2.13961 0.865414 0
M  V30 3541 C 328.577 -1.65066 -0.185055 0
M  V30 3542 O 329.762 -1.90732 -0.05083 0
M  V30 3543 C 326.902 -3.43113 0.369776 0
M  V30 3544 C 326.015 -4.05756 1.48276 0
M  V30 3545 C 325.15 -5.22773 0.942414 0
M  V30 3546 C 324.189 -5.77395 2.03179 0
M  V30 3547 N 323.326 -6.85731 1.50721 0
M  V30 3548 H 328.166 -2.38605 1.78527 0
M  V30 3549 H 325.703 -1.17072 0.890646 0
M  V30 3550 H 327.661 -4.17151 0.0640643 0
M  V30 3551 H 326.291 -3.18695 -0.513143 0
M  V30 3552 H 325.343 -3.29292 1.9045 0
M  V30 3553 H 326.655 -4.42351 2.30493 0
M  V30 3554 H 325.809 -6.03827 0.589729 0
M  V30 3555 H 324.548 -4.87618 0.0895191 0
M  V30 3556 H 323.553 -4.94981 2.3932 0
M  V30 3557 H 324.778 -6.14603 2.8886 0
M  V30 3558 H 322.724 -6.52499 0.676811 0
M  V30 3559 H 322.641 -7.21254 2.26557 0
M  V30 3560 H 323.909 -7.7047 1.18303 0
M  V30 3561 N 328.138 -0.959301 -1.25041 0
M  V30 3562 C 329.549 -0.65667 -1.74771 0
M  V30 3563 C 329.9 0.827852 -1.77879 0
M  V30 3564 O 329.025 1.64783 -1.40269 0
M  V30 3565 C 329.62 -1.1853 -3.1739 0
M  V30 3566 C 328.179 -0.932734 -3.6466 0
M  V30 3567 C 327.326 -1.32558 -2.43564 0
M  V30 3568 H 330.277 -1.13558 -1.10862 0
M  V30 3569 H 330.298 -0.547582 -3.76539 0
M  V30 3570 H 329.81 -2.26576 -3.15095 0
M  V30 3571 H 327.911 0.13257 -3.72364 0
M  V30 3572 H 328.024 -1.57248 -4.52559 0
M  V30 3573 H 326.388 -0.743956 -2.43593 0
M  V30 3574 H 327.171 -2.41537 -2.43957 0
M  V30 3575 N 329.616 1.39756 -0.72842 0
M  V30 3576 C 330.893 1.94574 -0.200079 0
M  V30 3577 C 331.273 1.66569 1.29684 0
M  V30 3578 O 330.621 0.990326 2.05924 0
M  V30 3579 C 330.831 3.45004 -0.526608 0
M  V30 3580 C 332.179 4.21965 -0.472318 0
M  V30 3581 O 333.203 3.53173 -0.463413 0
M  V30 3582 O 332.062 5.44552 -0.461075 0
M  V30 3583 H 329.156 0.826289 -0.0342851 0
M  V30 3584 H 331.702 1.49293 -0.806829 0
M  V30 3585 H 330.474 3.58796 -1.56144 0
M  V30 3586 H 330.097 3.97449 0.109449 0
M  V30 3587 N 331.094 0.475555 1.50254 0
M  V30 3588 C 332.51 0.12997 1.5907 0
M  V30 3589 C 332.71 -1.36385 1.48328 0
M  V30 3590 O 331.766 -2.13754 1.34407 0
M  V30 3591 C 333.079 0.684139 2.92814 0
M  V30 3592 C 334.627 0.647965 3.0622 0
M  V30 3593 C 335.102 1.17975 4.42545 0
M  V30 3594 N 336.593 1.13936 4.48969 0
M  V30 3595 C 337.328 1.52129 5.52851 0
M  V30 3596 N 336.824 1.97793 6.63965 0
M  V30 3597 N 338.617 1.43704 5.4342 0
M  V30 3598 H 330.768 1.44706 1.55479 0
M  V30 3599 H 333.031 0.598691 0.735033 0
M  V30 3600 H 332.737 1.73079 3.06164 0
M  V30 3601 H 332.611 0.130204 3.76975 0
M  V30 3602 H 334.998 -0.38979 2.92514 0
M  V30 3603 H 335.079 1.23876 2.23805 0
M  V30 3604 H 334.723 2.21616 4.57 0
M  V30 3605 H 334.653 0.565138 5.23559 0
M  V30 3606 H 337.144 0.804488 3.69238 0
M  V30 3607 H 337.457 2.25072 7.39299 0
M  V30 3608 H 335.802 2.01749 6.65073 0
M  V30 3609 H 338.993 1.07867 4.55502 0
M  V30 3610 H 339.166 1.73794 6.24259 0
M  V30 3611 N 332.573 -1.56217 0.208337 0
M  V30 3612 C 333.52 -2.19699 -0.707192 0
M  V30 3613 C 334.49 -1.14836 -1.20008 0
M  V30 3614 O 335.675 -1.4314 -1.26157 0
M  V30 3615 C 332.815 -2.87061 -1.91546 0
M  V30 3616 C 331.928 -4.06483 -1.46271 0
M  V30 3617 C 331.063 -4.61665 -2.62752 0
M  V30 3618 C 330.102 -5.73417 -2.14147 0
M  V30 3619 N 329.239 -6.22948 -3.23853 0
M  V30 3620 H 334.079 -2.97575 -0.159111 0
M  V30 3621 H 331.616 -1.46948 -0.0667874 0
M  V30 3622 H 333.574 -3.24294 -2.62468 0
M  V30 3623 H 332.204 -2.11725 -2.43664 0
M  V30 3624 H 331.256 -3.74825 -0.648886 0
M  V30 3625 H 332.568 -4.87271 -1.06622 0
M  V30 3626 H 331.722 -5.01272 -3.41776 0
M  V30 3627 H 330.461 -3.80013 -3.05682 0
M  V30 3628 H 329.466 -5.33326 -1.33581 0
M  V30 3629 H 330.691 -6.56897 -1.72232 0
M  V30 3630 H 328.637 -5.44213 -3.6629 0
M  V30 3631 H 328.554 -6.98823 -2.88414 0
M  V30 3632 H 329.822 -6.6721 -4.03052 0
M  V30 3633 N 334.051 0.0651679 -1.57465 0
M  V30 3634 C 335.462 0.616213 -1.76238 0
M  V30 3635 C 335.813 1.7756 -0.834689 0
M  V30 3636 O 334.938 2.1639 -0.0204156 0
M  V30 3637 C 335.533 1.12462 -3.1959 0
M  V30 3638 C 334.092 1.62147 -3.39684 0
M  V30 3639 C 333.239 0.543739 -2.71917 0
M  V30 3640 H 336.19 -0.161022 -1.57881 0
M  V30 3641 H 336.211 1.99324 -3.24114 0
M  V30 3642 H 335.723 0.280592 -3.87084 0
M  V30 3643 H 333.824 2.48854 -2.77313 0
M  V30 3644 H 333.937 1.69385 -4.48158 0
M  V30 3645 H 332.301 0.990352 -2.34657 0
M  V30 3646 H 333.084 -0.290216 -3.42071 0
M  V30 3647 N 335.529 1.53961 0.336706 0
M  V30 3648 C 336.476 1.82428 1.41381 0
M  V30 3649 C 337.446 0.670444 1.51968 0
M  V30 3650 O 338.631 0.915565 1.67398 0
M  V30 3651 C 335.771 2.04564 2.77934 0
M  V30 3652 C 334.884 3.32267 2.76084 0
M  V30 3653 C 334.019 3.44434 4.04399 0
M  V30 3654 C 333.058 4.66061 3.96804 0
M  V30 3655 N 332.195 4.75224 5.16823 0
M  V30 3656 H 337.035 2.74324 1.16405 0
M  V30 3657 H 334.572 1.35869 0.563752 0
M  V30 3658 H 336.53 2.15388 3.57301 0
M  V30 3659 H 335.16 1.15974 3.01247 0
M  V30 3660 H 334.212 3.3025 1.88784 0
M  V30 3661 H 335.524 4.21733 2.66351 0
M  V30 3662 H 334.678 3.54728 4.92192 0
M  V30 3663 H 333.417 2.53037 4.16921 0
M  V30 3664 H 332.422 4.55838 3.07396 0
M  V30 3665 H 333.647 5.58829 3.85858 0
M  V30 3666 H 331.593 3.86739 5.29876 0
M  V30 3667 H 331.51 5.58636 5.09374 0
M  V30 3668 H 332.778 4.89835 6.06367 0
M  V30 3669 N 337.007 -0.598083 1.45811 0
M  V30 3670 C 337.937 -1.71873 1.58057 0
M  V30 3671 C 338.918 -1.64533 0.431615 0
M  V30 3672 O 340.103 -1.82787 0.65595 0
M  V30 3673 C 337.233 -3.10495 1.55597 0
M  V30 3674 C 336.187 -3.32654 2.69305 0
M  V30 3675 C 335.513 -4.71646 2.51902 0
M  V30 3676 C 336.813 -3.21981 4.11248 0
M  V30 3677 H 338.507 -1.61881 2.51863 0
M  V30 3678 H 336.053 -0.777372 1.21214 0
M  V30 3679 H 338.006 -3.88699 1.6276 0
M  V30 3680 H 336.73 -3.2135 0.583255 0
M  V30 3681 H 335.389 -2.56843 2.61586 0
M  V30 3682 H 335.037 -4.79246 1.52748 0
M  V30 3683 H 334.737 -4.87426 3.2816 0
M  V30 3684 H 336.261 -5.52038 2.60933 0
M  V30 3685 H 337.675 -3.90049 4.20161 0
M  V30 3686 H 336.072 -3.49289 4.87972 0
M  V30 3687 H 337.142 -2.1928 4.32486 0
M  V30 3688 N 338.485 -1.33259 -0.841409 0
M  V30 3689 C 339.432 -1.23302 -1.95103 0
M  V30 3690 C 340.402 -0.112204 -1.65721 0
M  V30 3691 O 341.587 -0.290038 -1.88583 0
M  V30 3692 C 338.727 -0.975583 -3.31023 0
M  V30 3693 C 337.84 -2.18243 -3.72819 0
M  V30 3694 C 336.975 -1.85936 -4.97595 0
M  V30 3695 C 336.014 -3.02866 -5.3192 0
M  V30 3696 N 335.151 -2.70565 -6.47873 0
M  V30 3697 H 339.991 -2.18207 -2.02952 0
M  V30 3698 H 337.528 -1.0851 -0.993173 0
M  V30 3699 H 339.486 -0.80677 -4.09325 0
M  V30 3700 H 338.116 -0.0632755 -3.22738 0
M  V30 3701 H 337.168 -2.46107 -2.90061 0
M  V30 3702 H 338.48 -3.05666 -3.94169 0
M  V30 3703 H 337.634 -1.65684 -5.83638 0
M  V30 3704 H 336.373 -0.957452 -4.78209 0
M  V30 3705 H 335.378 -3.23736 -4.44382 0
M  V30 3706 H 336.603 -3.93809 -5.53255 0
M  V30 3707 H 334.549 -1.8293 -6.29978 0
M  V30 3708 H 334.466 -3.51519 -6.69306 0
M  V30 3709 H 335.734 -2.53774 -7.37034 0
M  V30 3710 N 339.963 1.05934 -1.16686 0
M  V30 3711 C 341.374 1.60263 -0.957745 0
M  V30 3712 C 341.725 1.89789 0.49745 0
M  V30 3713 O 340.85 1.67401 1.37135 0
M  V30 3714 C 341.445 2.91172 -1.73218 0
M  V30 3715 C 340.004 3.42188 -1.56794 0
M  V30 3716 C 339.151 2.16028 -1.73859 0
M  V30 3717 H 342.102 0.888392 -1.31504 0
M  V30 3718 H 342.123 3.60744 -1.21014 0
M  V30 3719 H 341.635 2.6965 -2.79124 0
M  V30 3720 H 339.736 3.68762 -0.533437 0
M  V30 3721 H 339.849 4.17273 -2.35414 0
M  V30 3722 H 338.213 2.26426 -1.16633 0
M  V30 3723 H 338.996 1.96985 -2.81161 0
M  V30 3724 N 341.441 0.965919 1.2453 0
M  V30 3725 C 342.373 0.452465 2.2469 0
M  V30 3726 C 343.386 -0.437821 1.56802 0
M  V30 3727 O 344.575 -0.244283 1.76821 0
M  V30 3728 C 341.675 -0.366258 3.36915 0
M  V30 3729 C 340.848 0.513701 4.34373 0
M  V30 3730 C 339.907 -0.248716 5.25612 0
M  V30 3731 O 338.933 0.356745 5.68081 0
M  V30 3732 N 340.135 -1.53877 5.59734 0
M  V30 3733 H 342.9 1.31361 2.69378 0
M  V30 3734 H 340.461 0.837541 1.38553 0
M  V30 3735 H 342.453 -0.884297 3.94921 0
M  V30 3736 H 341.023 -1.12832 2.91526 0
M  V30 3737 H 340.243 1.21273 3.75082 0
M  V30 3738 H 341.531 1.11391 4.96457 0
M  V30 3739 H 340.929 -2.05243 5.27154 0
M  V30 3740 H 339.486 -2.00254 6.20275 0
M  V30 3741 N 342.919 -1.39368 0.735821 0
M  V30 3742 C 344.196 -1.94465 0.210395 0
M  V30 3743 C 344.576 -1.67254 -1.28799 0
M  V30 3744 O 343.924 -1.00123 -2.05396 0
M  V30 3745 C 344.134 -3.4472 0.544897 0
M  V30 3746 C 345.482 -4.21708 0.494689 0
M  V30 3747 O 346.506 -3.52922 0.482136 0
M  V30 3748 O 345.365 -5.44299 0.489947 0
M  V30 3749 H 342.459 -0.826096 0.0386666 0
M  V30 3750 H 345.005 -1.48863 0.814735 0
M  V30 3751 H 343.777 -3.57963 1.58045 0
M  V30 3752 H 343.4 -3.97502 -0.08837 0
M  V30 3753 N 344.397 -0.483516 -1.5 0
M  V30 3754 C 345.644 0.0671597 -2.02389 0
M  V30 3755 C 345.972 1.38597 -1.36459 0
M  V30 3756 O 345.227 1.89634 -0.483458 0
M  V30 3757 C 345.526 0.286226 -3.56252 0
M  V30 3758 C 345.192 -0.952416 -4.40726 0
M  V30 3759 C 343.854 -1.29199 -4.63531 0
M  V30 3760 C 346.206 -1.77655 -4.89988 0
M  V30 3761 C 343.534 -2.45553 -5.32842 0
M  V30 3762 C 345.886 -2.93147 -5.60578 0
M  V30 3763 C 344.55 -3.27505 -5.81633 0
M  V30 3764 H 343.82 0.0245755 -0.740592 0
M  V30 3765 H 346.467 -0.640124 -1.80485 0
M  V30 3766 H 344.772 1.07587 -3.76739 0
M  V30 3767 H 346.469 0.726473 -3.94365 0
M  V30 3768 H 343.059 -0.677881 -4.23205 0
M  V30 3769 H 347.243 -1.52737 -4.72213 0
M  V30 3770 H 342.499 -2.72431 -5.47349 0
M  V30 3771 H 346.673 -3.57344 -5.97727 0
M  V30 3772 H 344.3 -4.1777 -6.35116 0
M  V30 3773 N 345.875 1.56104 -0.216619 0
M  V30 3774 C 347.291 1.58995 0.13886 0
M  V30 3775 C 347.491 1.23333 1.59346 0
M  V30 3776 O 346.547 0.966234 2.33281 0
M  V30 3777 C 347.86 3.00143 -0.182968 0
M  V30 3778 C 349.408 3.12751 -0.124807 0
M  V30 3779 C 349.883 4.56068 -0.420241 0
M  V30 3780 N 351.374 4.61723 -0.369634 0
M  V30 3781 C 352.109 5.70542 -0.571789 0
M  V30 3782 N 351.605 6.87744 -0.835453 0
M  V30 3783 N 353.398 5.59831 -0.504563 0
M  V30 3784 H 345.549 1.77562 -1.16557 0
M  V30 3785 H 347.812 0.825091 -0.466828 0
M  V30 3786 H 347.518 3.30871 -1.19237 0
M  V30 3787 H 347.392 3.73813 0.504367 0
M  V30 3788 H 349.779 2.81822 0.875223 0
M  V30 3789 H 349.86 2.41421 -0.845544 0
M  V30 3790 H 349.504 4.87713 -1.41769 0
M  V30 3791 H 349.434 5.25617 0.321631 0
M  V30 3792 H 351.925 3.77502 -0.173338 0
M  V30 3793 H 352.238 7.66587 -0.977938 0
M  V30 3794 H 350.583 6.895 -0.872592 0
M  V30 3795 H 353.774 4.67145 -0.298842 0
M  V30 3796 H 353.947 6.44573 -0.665519 0
M  V30 3797 N 347.353 -0.0568162 1.57498 0
M  V30 3798 C 348.301 -1.08452 2.05769 0
M  V30 3799 C 349.295 -1.39164 0.965903 0
M  V30 3800 O 350.501 -1.38395 1.15095 0
M  V30 3801 H 346.876 -0.367148 0.656282 0
M  V30 3802 H 348.847 -0.651368 2.91204 0
M  V30 3803 C 347.596 -2.38543 2.52968 0
M  V30 3804 H 346.919 -2.15765 3.36579 0
M  V30 3805 H 348.359 -3.08863 2.90481 0
M  V30 3806 C 346.818 -3.05562 1.41893 0
M  V30 3807 O 347.348 -3.94262 0.769442 0
M  V30 3808 N 345.554 -2.6643 1.16032 0
M  V30 3809 H 345.101 -1.94387 1.6903 0
M  V30 3810 H 345.059 -3.11593 0.419219 0
M  V30 3811 N 348.832 -1.54138 -0.328536 0
M  V30 3812 C 350.079 -1.72105 -1.06706 0
M  V30 3813 C 350.407 -0.492111 -1.88171 0
M  V30 3814 O 349.662 0.526153 -1.88494 0
M  V30 3815 C 349.961 -2.9457 -2.02393 0
M  V30 3816 C 349.627 -4.29544 -1.37122 0
M  V30 3817 C 348.289 -4.6624 -1.19052 0
M  V30 3818 C 350.641 -5.1333 -0.902331 0
M  V30 3819 C 347.969 -5.84325 -0.527331 0
M  V30 3820 C 350.321 -6.32094 -0.252988 0
M  V30 3821 C 348.985 -6.67473 -0.0600901 0
M  V30 3822 H 348.255 -0.629775 -0.390466 0
M  V30 3823 H 350.902 -1.88372 -0.34473 0
M  V30 3824 H 349.207 -2.72969 -2.81061 0
M  V30 3825 H 350.904 -3.05665 -2.59557 0
M  V30 3826 H 347.494 -4.0067 -1.52188 0
M  V30 3827 H 351.678 -4.855 -1.02974 0
M  V30 3828 H 346.934 -6.103 -0.366634 0
M  V30 3829 H 351.108 -6.96299 0.118366 0
M  V30 3830 H 348.735 -7.58832 0.455828 0
M  V30 3831 N 350.31 0.590341 -1.46126 0
M  V30 3832 C 351.556 1.35082 -1.51264 0
M  V30 3833 C 351.889 1.93534 -0.160711 0
M  V30 3834 O 351.164 1.76045 0.826956 0
M  V30 3835 C 351.447 2.48588 -2.6053 0
M  V30 3836 C 351.3 1.95221 -4.05227 0
M  V30 3837 C 352.619 3.50662 -2.6594 0
M  V30 3838 H 349.738 0.489803 -0.550692 0
M  V30 3839 H 352.38 0.663887 -1.78024 0
M  V30 3840 H 350.53 3.07186 -2.37843 0
M  V30 3841 H 352.202 1.41139 -4.39178 0
M  V30 3842 H 350.445 1.26101 -4.15068 0
M  V30 3843 H 351.116 2.77121 -4.77397 0
M  V30 3844 H 353.592 3.01934 -2.86313 0
M  V30 3845 H 352.468 4.27551 -3.44226 0
M  V30 3846 H 352.729 4.07399 -1.71694 0
M  V30 3847 N 351.788 1.33704 0.83433 0
M  V30 3848 C 353.016 1.28467 1.62185 0
M  V30 3849 C 353.431 -0.143526 1.88254 0
M  V30 3850 O 352.788 -1.08709 1.4659 0
M  V30 3851 C 352.839 2.06174 2.96942 0
M  V30 3852 O 352.56 3.43422 2.72016 0
M  V30 3853 C 354.061 2.08201 3.91366 0
M  V30 3854 H 351.281 0.4424 0.504503 0
M  V30 3855 H 353.825 1.76145 1.03891 0
M  V30 3856 H 351.98 1.62167 3.51825 0
M  V30 3857 H 352.394 3.83453 3.57861 0
M  V30 3858 H 353.868 2.67017 4.83121 0
M  V30 3859 H 354.345 1.07343 4.2588 0
M  V30 3860 H 354.951 2.52246 3.42421 0
M  V30 3861 N 353.266 -1.05314 1.17247 0
M  V30 3862 C 354.199 -2.12512 0.831507 0
M  V30 3863 C 355.177 -1.61351 -0.201168 0
M  V30 3864 O 356.361 -1.88317 -0.0829831 0
M  V30 3865 C 353.488 -3.37848 0.24015 0
M  V30 3866 C 352.534 -4.07832 1.24801 0
M  V30 3867 S 353.367 -4.56537 2.79882 0
M  V30 3868 C 354.523 -5.85122 2.22223 0
M  V30 3869 H 354.756 -2.41106 1.7394 0
M  V30 3870 H 352.289 -1.17896 0.996988 0
M  V30 3871 H 354.247 -4.10391 -0.0945588 0
M  V30 3872 H 352.908 -3.07392 -0.645668 0
M  V30 3873 H 352.101 -4.97883 0.78287 0
M  V30 3874 H 351.703 -3.41348 1.52831 0
M  V30 3875 H 353.995 -6.58408 1.59703 0
M  V30 3876 H 354.938 -6.36381 3.10523 0
M  V30 3877 H 355.346 -5.39626 1.65722 0
M  V30 3878 N 354.744 -0.972509 -1.24016 0
M  V30 3879 C 355.991 -0.637034 -1.92219 0
M  V30 3880 C 356.319 0.828418 -1.75976 0
M  V30 3881 O 355.574 1.61206 -1.10955 0
M  V30 3882 C 355.873 -0.963694 -3.44162 0
M  V30 3883 C 355.539 -2.41807 -3.80579 0
M  V30 3884 C 354.201 -2.81556 -3.9023 0
M  V30 3885 C 356.553 -3.36172 -3.98293 0
M  V30 3886 C 353.881 -4.14702 -4.15017 0
M  V30 3887 C 356.233 -4.68952 -4.24578 0
M  V30 3888 C 354.897 -5.08472 -4.32449 0
M  V30 3889 H 354.167 -0.233107 -0.703379 0
M  V30 3890 H 356.814 -1.2249 -1.47202 0
M  V30 3891 H 355.119 -0.29365 -3.90698 0
M  V30 3892 H 356.816 -0.682449 -3.9515 0
M  V30 3893 H 353.406 -2.09988 -3.73635 0
M  V30 3894 H 357.59 -3.06644 -3.90234 0
M  V30 3895 H 352.846 -4.4494 -4.19331 0
M  V30 3896 H 357.02 -5.42037 -4.37229 0
M  V30 3897 H 354.647 -6.11665 -4.51409 0
M  V30 3898 N 356.222 1.38976 -0.743202 0
M  V30 3899 C 357.468 2.0064 -0.295189 0
M  V30 3900 C 357.801 1.5885 1.11716 0
M  V30 3901 O 357.076 0.821181 1.76315 0
M  V30 3902 C 357.359 3.578 -0.406318 0
M  V30 3903 C 357.212 4.09586 -1.85903 0
M  V30 3904 C 358.531 4.39616 0.206439 0
M  V30 3905 H 355.65 0.728935 -0.108733 0
M  V30 3906 H 358.292 1.65067 -0.940897 0
M  V30 3907 H 356.442 3.88235 0.143419 0
M  V30 3908 H 358.114 3.89837 -2.46627 0
M  V30 3909 H 356.357 3.6284 -2.3776 0
M  V30 3910 H 357.028 5.18708 -1.888 0
M  V30 3911 H 359.504 4.15273 -0.262283 0
M  V30 3912 H 358.38 5.48812 0.0983819 0
M  V30 3913 H 358.641 4.22754 1.2935 0
M  V30 3914 N 357.7 0.491464 1.49741 0
M  V30 3915 C 358.946 -0.0565092 2.02721 0
M  V30 3916 C 359.279 -1.37522 1.37118 0
M  V30 3917 O 358.554 -1.87866 0.503645 0
M  V30 3918 C 358.837 -0.219051 3.59433 0
M  V30 3919 C 358.69 1.12211 4.35579 0
M  V30 3920 C 360.009 -0.964157 4.29409 0
M  V30 3921 H 357.128 -0.0190627 0.736753 0
M  V30 3922 H 359.77 0.641021 1.7886 0
M  V30 3923 H 357.92 -0.813165 3.79895 0
M  V30 3924 H 359.592 1.75437 4.26637 0
M  V30 3925 H 357.835 1.71377 3.98513 0
M  V30 3926 H 358.506 0.961794 5.43556 0
M  V30 3927 H 360.982 -0.460378 4.13545 0
M  V30 3928 H 359.858 -1.04671 5.38828 0
M  V30 3929 H 360.119 -2.00563 3.93988 0
M  V30 3930 N 359.178 -1.55987 0.224894 0
M  V30 3931 C 360.425 -1.9839 -0.4059 0
M  V30 3932 C 360.753 -1.11261 -1.59535 0
M  V30 3933 O 360.008 -0.158314 -1.95059 0
M  V30 3934 C 360.307 -3.46394 -0.880106 0
M  V30 3935 C 359.973 -4.5046 0.19918 0
M  V30 3936 C 358.635 -4.7864 0.495661 0
M  V30 3937 C 360.987 -5.12855 0.928939 0
M  V30 3938 C 358.315 -5.66497 1.52636 0
M  V30 3939 C 360.667 -6.01828 1.949 0
M  V30 3940 C 359.331 -6.28351 2.25236 0
M  V30 3941 H 358.601 -0.725961 -0.148529 0
M  V30 3942 H 361.248 -1.88668 0.328113 0
M  V30 3943 H 359.553 -3.53337 -1.69294 0
M  V30 3944 H 361.25 -3.76577 -1.37808 0
M  V30 3945 H 357.84 -4.28579 -0.0420526 0
M  V30 3946 H 362.024 -4.9115 0.713129 0
M  V30 3947 H 357.28 -5.8531 1.76698 0
M  V30 3948 H 361.454 -6.49225 2.51951 0
M  V30 3949 H 359.081 -6.96226 3.05244 0
M  V30 3950 N 360.656 0.0484629 -1.57525 0
M  V30 3951 C 361.902 0.744226 -1.88651 0
M  V30 3952 C 362.235 1.76029 -0.820212 0
M  V30 3953 O 361.51 1.93782 0.166985 0
M  V30 3954 C 361.793 1.43128 -3.30434 0
M  V30 3955 C 361.646 0.43005 -4.47739 0
M  V30 3956 C 362.965 2.37031 -3.70816 0
M  V30 3957 H 360.084 0.269089 -0.68612 0
M  V30 3958 H 362.726 0.00713532 -1.89999 0
M  V30 3959 H 360.876 2.05956 -3.29415 0
M  V30 3960 H 362.548 -0.194816 -4.60888 0
M  V30 3961 H 360.791 -0.252522 -4.33064 0
M  V30 3962 H 361.462 0.948874 -5.43783 0
M  V30 3963 H 363.938 1.84263 -3.73077 0
M  V30 3964 H 362.814 2.82094 -4.70865 0
M  V30 3965 H 363.075 3.22864 -3.02012 0
M  V30 3966 N 362.134 1.5431 0.320358 0
M  V30 3967 C 363.064 1.86912 1.3995 0
M  V30 3968 C 364.045 0.726211 1.53819 0
M  V30 3969 O 365.23 0.980233 1.67646 0
M  V30 3970 C 362.36 2.09932 2.7667 0
M  V30 3971 C 361.314 3.25776 2.77586 0
M  V30 3972 C 360.64 3.34173 4.17412 0
M  V30 3973 C 361.94 4.6335 2.41048 0
M  V30 3974 H 363.634 2.77292 1.12914 0
M  V30 3975 H 361.18 1.33421 0.541738 0
M  V30 3976 H 363.133 2.31324 3.52232 0
M  V30 3977 H 361.857 1.16304 3.0519 0
M  V30 3978 H 360.516 3.04276 2.04479 0
M  V30 3979 H 360.164 2.38098 4.43078 0
M  V30 3980 H 359.864 4.12033 4.18931 0
M  V30 3981 H 361.388 3.57803 4.94782 0
M  V30 3982 H 362.802 4.84602 3.06324 0
M  V30 3983 H 361.199 5.43782 2.53813 0
M  V30 3984 H 362.269 4.65381 1.36193 0
M  V30 3985 N 363.613 -0.582584 1.46437 0
M  V30 3986 C 364.86 -1.34079 1.51753 0
M  V30 3987 C 365.188 -1.93762 0.169299 0
M  V30 3988 O 364.443 -1.76989 -0.835062 0
M  V30 3989 C 364.742 -2.48964 2.56421 0
M  V30 3990 C 364.408 -2.07273 4.00436 0
M  V30 3991 C 363.07 -1.95618 4.39644 0
M  V30 3992 C 365.422 -1.75111 4.90903 0
M  V30 3993 C 362.75 -1.5006 5.67185 0
M  V30 3994 C 365.102 -1.31032 6.18881 0
M  V30 3995 C 363.766 -1.17954 6.56996 0
M  V30 3996 H 363.036 -0.49063 0.555304 0
M  V30 3997 H 365.683 -0.656007 1.79913 0
M  V30 3998 H 363.988 -3.22889 2.21923 0
M  V30 3999 H 365.685 -3.07178 2.57765 0
M  V30 4000 H 362.275 -2.17279 3.69443 0
M  V30 4001 H 366.459 -1.83001 4.61329 0
M  V30 4002 H 361.715 -1.38577 5.95488 0
M  V30 4003 H 365.889 -1.052 6.88408 0
M  V30 4004 H 363.516 -0.824279 7.55718 0
M  V30 4005 N 365.091 -1.34144 -0.827227 0
M  V30 4006 C 366.054 -1.25264 -1.91942 0
M  V30 4007 C 367.054 -0.168866 -1.59911 0
M  V30 4008 O 368.244 -0.421198 -1.69031 0
M  V30 4009 C 365.376 -0.932952 -3.27885 0
M  V30 4010 H 366.569 -2.22357 -2.0124 0
M  V30 4011 H 364.122 -1.1837 -1.0207 0
M  V30 4012 H 364.857 0.0349917 -3.24281 0
M  V30 4013 H 364.642 -1.71682 -3.52516 0
M  V30 4014 H 366.132 -0.895874 -4.07877 0
M  V30 4015 N 366.569 1.04691 -1.17803 0
M  V30 4016 C 367.818 1.77176 -0.963931 0
M  V30 4017 C 368.131 1.88888 0.508015 0
M  V30 4018 O 369.337 2.58164 0.840465 0
M  V30 4019 C 367.793 3.18518 -1.67555 0
M  V30 4020 C 367.401 3.14919 -3.18637 0
M  V30 4021 C 369.145 3.95424 -1.54402 0
M  V30 4022 C 367.052 4.51081 -3.82466 0
M  V30 4023 H 365.982 0.664116 -0.357023 0
M  V30 4024 H 368.633 1.17303 -1.4111 0
M  V30 4025 H 367.015 3.78748 -1.15613 0
M  V30 4026 H 368.189 2.64178 -3.77554 0
M  V30 4027 H 366.504 2.51512 -3.31859 0
M  V30 4028 H 369.101 4.96106 -1.99456 0
M  V30 4029 H 369.444 4.13343 -0.495329 0
M  V30 4030 H 369.977 3.41754 -2.0359 0
M  V30 4031 H 366.716 4.38368 -4.87354 0
M  V30 4032 H 366.236 5.01951 -3.28337 0
M  V30 4033 H 367.915 5.2001 -3.84965 0
M  V30 4034 N 368.047 0.979072 1.23499 0
M  V30 4035 C 369.287 0.655228 1.93613 0
M  V30 4036 C 369.651 -0.796336 1.74707 0
M  V30 4037 O 370.852 -1.23094 2.38959 0
M  V30 4038 C 369.123 1.03337 3.42135 0
M  V30 4039 S 370.682 0.825793 4.3096 0
M  V30 4040 H 367.5 0.240004 0.669267 0
M  V30 4041 H 370.102 1.25843 1.49612 0
M  V30 4042 H 368.806 2.08646 3.53405 0
M  V30 4043 H 368.337 0.421397 3.91137 0
M  V30 4044 H 370.352 -0.290991 4.95346 0
M  V30 4045 N 369.525 -1.3858 0.750561 0
M  V30 4046 C 370.771 -2.0095 0.31477 0
M  V30 4047 C 371.126 -1.58509 -1.09053 0
M  V30 4048 O 370.419 -0.8112 -1.7358 0
M  V30 4049 C 370.613 -3.55455 0.372373 0
M  V30 4050 C 370.442 -4.12898 1.78173 0
M  V30 4051 C 369.212 -4.44797 2.39757 0
M  V30 4052 C 371.41 -4.35366 2.7379 0
M  V30 4053 N 369.392 -4.87831 3.72685 0
M  V30 4054 C 370.763 -4.80775 3.91478 0
M  V30 4055 C 372.818 -4.1746 2.71351 0
M  V30 4056 C 371.521 -5.10155 5.07084 0
M  V30 4057 C 373.547 -4.47963 3.86113 0
M  V30 4058 C 372.909 -4.93593 5.02539 0
M  V30 4059 H 369.008 -0.765083 0.161776 0
M  V30 4060 H 371.592 -1.68246 0.979867 0
M  V30 4061 H 369.763 -3.87512 -0.26244 0
M  V30 4062 H 371.495 -4.04614 -0.0834479 0
M  V30 4063 H 368.25 -4.33135 1.91548 0
M  V30 4064 H 368.674 -5.13685 4.40972 0
M  V30 4065 H 373.316 -3.81372 1.82524 0
M  V30 4066 H 371.034 -5.45141 5.96529 0
M  V30 4067 H 374.62 -4.35717 3.85542 0
M  V30 4068 H 373.5 -5.16746 5.89867 0
M  V30 4069 N 371.003 -0.499398 -1.49478 0
M  V30 4070 C 371.966 0.268838 -2.27618 0
M  V30 4071 C 372.966 0.895383 -1.33565 0
M  V30 4072 O 374.156 0.760164 -1.56739 0
M  V30 4073 C 371.288 1.38559 -3.11471 0
M  V30 4074 H 372.481 -0.416812 -2.96989 0
M  V30 4075 H 370.034 -0.254313 -1.54217 0
M  V30 4076 H 370.769 2.10544 -2.46661 0
M  V30 4077 H 370.554 0.941797 -3.80621 0
M  V30 4078 H 372.044 1.92678 -3.70493 0
M  V30 4079 N 372.481 1.55866 -0.233164 0
M  V30 4080 C 373.892 1.847 0.272554 0
M  V30 4081 C 374.243 1.15477 1.58617 0
M  V30 4082 O 373.368 0.42841 2.12117 0
M  V30 4083 C 373.963 3.35071 0.501299 0
M  V30 4084 C 372.522 3.6418 0.951304 0
M  V30 4085 C 371.669 2.77292 0.0208209 0
M  V30 4086 H 374.62 1.52005 -0.456074 0
M  V30 4087 H 374.641 3.55906 1.34577 0
M  V30 4088 H 374.153 3.85424 -0.454936 0
M  V30 4089 H 372.254 3.19293 1.92049 0
M  V30 4090 H 372.367 4.72071 0.817675 0
M  V30 4091 H 370.731 2.49131 0.529723 0
M  V30 4092 H 371.514 3.30448 -0.93054 0
M  V30 4093 N 373.959 -0.0401083 1.57549 0
M  V30 4094 C 374.889 -1.04384 2.08869 0
M  V30 4095 C 375.87 -1.38407 0.988817 0
M  V30 4096 O 377.055 -1.47483 1.26342 0
M  V30 4097 C 374.185 -2.34808 2.55895 0
M  V30 4098 C 373.139 -2.15057 3.70047 0
M  V30 4099 C 372.465 -3.51145 4.03239 0
M  V30 4100 C 373.765 -1.54576 4.98902 0
M  V30 4101 H 375.459 -0.616666 2.92981 0
M  V30 4102 H 373.005 -0.295184 1.40942 0
M  V30 4103 H 374.958 -3.05346 2.90417 0
M  V30 4104 H 373.682 -2.79565 1.68853 0
M  V30 4105 H 372.341 -1.46954 3.35857 0
M  V30 4106 H 371.989 -3.93529 3.13279 0
M  V30 4107 H 371.689 -3.38758 4.80122 0
M  V30 4108 H 373.213 -4.23062 4.40285 0
M  V30 4109 H 374.627 -2.15017 5.31451 0
M  V30 4110 H 373.024 -1.52796 5.80322 0
M  V30 4111 H 374.094 -0.51039 4.82206 0
M  V30 4112 N 375.437 -1.54477 -0.31217 0
M  V30 4113 C 376.385 -1.85395 -1.40469 0
M  V30 4114 C 377.379 -0.726749 -1.53019 0
M  V30 4115 O 378.585 -0.910582 -1.55269 0
M  V30 4116 H 374.96 -0.587845 -0.46898 0
M  V30 4117 H 376.931 -2.76736 -1.11623 0
M  V30 4118 C 375.68 -2.10811 -2.76503 0
M  V30 4119 H 375.003 -2.97014 -2.67625 0
M  V30 4120 H 376.443 -2.3639 -3.51988 0
M  V30 4121 C 374.902 -0.903165 -3.24568 0
M  V30 4122 O 375.432 -0.118085 -4.01526 0
M  V30 4123 N 373.638 -0.711634 -2.81752 0
M  V30 4124 H 373.185 -1.35171 -2.19286 0
M  V30 4125 H 373.143 0.0930473 -3.14262 0
M  V30 4126 N 376.915 0.57481 -1.46744 0
M  V30 4127 C 378.162 1.33272 -1.52462 0
M  V30 4128 C 378.49 1.93669 -0.179572 0
M  V30 4129 O 377.745 1.7743 0.825664 0
M  V30 4130 C 378.044 2.476 -2.57738 0
M  V30 4131 C 377.71 2.05146 -4.01529 0
M  V30 4132 C 376.372 1.93284 -4.40676 0
M  V30 4133 C 378.724 1.72506 -4.91824 0
M  V30 4134 C 376.052 1.47049 -5.67973 0
M  V30 4135 C 378.404 1.27748 -6.19567 0
M  V30 4136 C 377.068 1.14468 -6.57612 0
M  V30 4137 H 376.338 0.487678 -0.557899 0
M  V30 4138 H 378.985 0.646456 -1.80259 0
M  V30 4139 H 377.29 3.21708 -2.23632 0
M  V30 4140 H 378.987 3.05807 -2.5939 0
M  V30 4141 H 375.577 2.15316 -3.7059 0
M  V30 4142 H 379.761 1.80552 -4.62293 0
M  V30 4143 H 375.017 1.35417 -5.96215 0
M  V30 4144 H 379.191 1.01547 -6.88957 0
M  V30 4145 H 376.818 0.78419 -7.56145 0
M  V30 4146 N 378.394 1.34581 0.820102 0
M  V30 4147 C 379.643 1.26437 1.57151 0
M  V30 4148 C 379.956 -0.163111 1.94919 0
M  V30 4149 O 381.162 -0.366722 2.69012 0
M  V30 4150 C 379.618 2.21658 2.83541 0
M  V30 4151 C 379.226 3.69679 2.53065 0
M  V30 4152 C 380.97 2.22428 3.61561 0
M  V30 4153 C 378.877 4.56761 3.75664 0
M  V30 4154 H 377.807 0.469707 0.589823 0
M  V30 4155 H 380.458 1.59763 0.902656 0
M  V30 4156 H 378.84 1.81287 3.52067 0
M  V30 4157 H 380.014 4.18605 1.92631 0
M  V30 4158 H 378.329 3.71384 1.88316 0
M  V30 4159 H 380.926 2.8471 4.52597 0
M  V30 4160 H 381.269 1.22434 3.97889 0
M  V30 4161 H 381.802 2.61259 2.99981 0
M  V30 4162 H 378.541 5.57702 3.44454 0
M  V30 4163 H 378.061 4.12568 4.35371 0
M  V30 4164 H 379.74 4.71509 4.43044 0
M  V30 4165 N 379.872 -1.04064 1.18357 0
M  V30 4166 C 381.12 -1.76915 0.977013 0
M  V30 4167 C 381.441 -1.88624 -0.494577 0
M  V30 4168 O 380.711 -1.41125 -1.3587 0
M  V30 4169 H 379.291 -0.65535 0.358504 0
M  V30 4170 H 381.953 -1.25592 1.49039 0
M  V30 4171 H 381.049 -2.78178 1.41504 0
M  V30 4172 N 381.35 -0.985608 -1.22978 0
M  V30 4173 C 382.28 -0.549649 -2.26939 0
M  V30 4174 C 383.261 0.419803 -1.64838 0
M  V30 4175 O 384.446 0.31203 -1.91677 0
M  V30 4176 C 381.576 0.143652 -3.47003 0
M  V30 4177 C 380.53 -0.743606 -4.21491 0
M  V30 4178 C 379.856 0.0822027 -5.34637 0
M  V30 4179 C 381.156 -2.03694 -4.80943 0
M  V30 4180 H 382.85 -1.41862 -2.63658 0
M  V30 4181 H 380.396 -0.683571 -1.26741 0
M  V30 4182 H 382.349 0.459985 -4.18882 0
M  V30 4183 H 381.073 1.04711 -3.09359 0
M  V30 4184 H 379.732 -1.04347 -3.51436 0
M  V30 4185 H 379.38 0.986359 -4.93234 0
M  V30 4186 H 379.08 -0.508377 -5.85397 0
M  V30 4187 H 380.604 0.392797 -6.09335 0
M  V30 4188 H 382.018 -1.78504 -5.44802 0
M  V30 4189 H 380.415 -2.57573 -5.42011 0
M  V30 4190 H 381.485 -2.72042 -4.01399 0
M  V30 4191 N 382.828 1.3818 -0.7579 0
M  V30 4192 C 383.791 2.28764 -0.141286 0
M  V30 4193 C 384.791 1.47388 0.642907 0
M  V30 4194 O 385.981 1.67781 0.468536 0
M  V30 4195 C 383.113 3.31184 0.808069 0
M  V30 4196 H 384.306 2.848 -0.939633 0
M  V30 4197 H 381.859 1.47212 -0.525191 0
M  V30 4198 H 382.594 2.80247 1.63193 0
M  V30 4199 H 382.379 3.91314 0.248104 0
M  V30 4200 H 383.869 3.98909 1.23536 0
M  V30 4201 N 384.306 0.507319 1.49211 0
M  V30 4202 C 385.552 -0.0350047 2.0277 0
M  V30 4203 C 385.885 -1.3606 1.38569 0
M  V30 4204 O 385.16 -1.87321 0.523542 0
M  V30 4205 C 385.443 -0.180916 3.59645 0
M  V30 4206 C 385.296 1.16825 4.34364 0
M  V30 4207 C 386.615 -0.918558 4.30407 0
M  V30 4208 H 383.734 -0.0112473 0.736914 0
M  V30 4209 H 386.376 0.659956 1.7817 0
M  V30 4210 H 384.526 -0.772826 3.80736 0
M  V30 4211 H 386.198 1.79952 4.24753 0
M  V30 4212 H 384.441 1.75594 3.96673 0
M  V30 4213 H 385.112 1.01939 5.42506 0
M  V30 4214 H 387.588 -0.41649 4.1401 0
M  V30 4215 H 386.464 -0.989505 5.39907 0
M  V30 4216 H 386.725 -1.96373 3.96093 0
M  V30 4217 N 385.784 -1.5574 0.241426 0
M  V30 4218 C 386.747 -2.19877 -0.647063 0
M  V30 4219 C 387.747 -1.16642 -1.10686 0
M  V30 4220 O 388.937 -1.41757 -1.01245 0
M  V30 4221 C 386.069 -2.83797 -1.88871 0
M  V30 4222 H 387.262 -2.99772 -0.087574 0
M  V30 4223 H 384.815 -1.56298 -0.00813574 0
M  V30 4224 H 385.55 -2.07824 -2.48957 0
M  V30 4225 H 385.335 -3.59414 -1.56728 0
M  V30 4226 H 386.825 -3.32898 -2.52129 0
M  V30 4227 N 387.262 0.0317525 -1.57568 0
M  V30 4228 C 388.487 0.738664 -1.938 0
M  V30 4229 C 388.912 1.68242 -0.841208 0
M  V30 4230 O 388.27 1.80157 0.203267 0
M  V30 4231 C 388.318 1.47417 -3.29091 0
M  V30 4232 O 387.422 2.5872 -3.2115 0
M  V30 4233 H 386.763 0.198856 -0.633524 0
M  V30 4234 H 389.293 -0.0119713 -2.04596 0
M  V30 4235 H 389.303 1.84468 -3.63917 0
M  V30 4236 H 387.978 0.781988 -4.08482 0
M  V30 4237 H 386.555 2.24231 -2.97951 0
M  V30 4238 N 388.74 1.54641 0.303973 0
M  V30 4239 C 390.017 1.64455 1.05896 0
M  V30 4240 C 390.397 0.490923 2.05312 0
M  V30 4241 O 389.745 -0.512685 2.22674 0
M  V30 4242 C 389.955 3.02331 1.74347 0
M  V30 4243 C 391.303 3.59045 2.26653 0
M  V30 4244 O 392.327 3.04764 1.84384 0
M  V30 4245 O 391.186 4.54081 3.04093 0
M  V30 4246 H 388.28 0.666729 0.489287 0
M  V30 4247 H 390.826 1.66986 0.302298 0
M  V30 4248 H 389.598 3.77734 1.02142 0
M  V30 4249 H 389.221 3.03565 2.56777 0
M  V30 4250 N 390.218 -0.567019 1.47046 0
M  V30 4251 C 391.629 -1.14916 1.47143 0
M  V30 4252 C 391.98 -1.94954 0.220767 0
M  V30 4253 O 391.105 -2.05602 -0.67505 0
M  V30 4254 C 391.7 -2.09069 2.666 0
M  V30 4255 C 390.259 -2.62575 2.69687 0
M  V30 4256 C 389.406 -1.38755 2.40088 0
M  V30 4257 H 392.357 -0.354126 1.54699 0
M  V30 4258 H 392.378 -2.92789 2.43011 0
M  V30 4259 H 391.89 -1.50789 3.57609 0
M  V30 4260 H 389.991 -3.24681 1.82792 0
M  V30 4261 H 390.104 -3.04239 3.70102 0
M  V30 4262 H 388.468 -1.69098 1.90468 0
M  V30 4263 H 389.251 -0.822822 3.33293 0
M  V30 4264 N 391.696 -1.35014 -0.812953 0
M  V30 4265 C 392.659 -1.27292 -1.90602 0
M  V30 4266 C 393.659 -0.185817 -1.59723 0
M  V30 4267 O 394.849 -0.439102 -1.68575 0
M  V30 4268 C 391.981 -0.967676 -3.26877 0
M  V30 4269 H 393.174 -2.24479 -1.9887 0
M  V30 4270 H 390.727 -1.19446 -1.00808 0
M  V30 4271 H 391.462 0.0005954 -3.243 0
M  V30 4272 H 391.247 -1.75412 -3.50675 0
M  V30 4273 H 392.737 -0.939085 -4.06904 0
M  V30 4274 N 393.175 1.03435 -1.18907 0
M  V30 4275 C 394.4 1.80919 -1.01406 0
M  V30 4276 C 394.825 1.83055 0.432721 0
M  V30 4277 O 394.183 1.25252 1.31079 0
M  V30 4278 C 394.231 3.24091 -1.58105 0
M  V30 4279 O 393.335 4.04434 -0.806669 0
M  V30 4280 H 392.676 0.558709 -0.358803 0
M  V30 4281 H 395.206 1.30223 -1.57807 0
M  V30 4282 H 395.216 3.74853 -1.61087 0
M  V30 4283 H 393.891 3.21851 -2.6341 0
M  V30 4284 H 392.468 3.63091 -0.849666 0
M  V30 4285 N 394.653 0.992116 1.22453 0
M  V30 4286 C 395.586 0.486701 2.22949 0
M  V30 4287 C 396.564 -0.45259 1.56174 0
M  V30 4288 O 397.748 -0.378317 1.84665 0
M  V30 4289 C 394.875 -0.294537 3.37417 0
M  V30 4290 C 393.921 0.590628 4.22391 0
M  V30 4291 S 394.754 2.04546 4.94895 0
M  V30 4292 C 395.91 1.27369 6.12803 0
M  V30 4293 H 396.143 1.33828 2.65475 0
M  V30 4294 H 393.676 0.799023 1.32117 0
M  V30 4295 H 395.634 -0.739241 4.03789 0
M  V30 4296 H 394.295 -1.12139 2.934 0
M  V30 4297 H 393.488 -0.0104375 5.03999 0
M  V30 4298 H 393.09 0.972064 3.61147 0
M  V30 4299 H 395.382 0.540943 6.75337 0
M  V30 4300 H 396.325 2.06502 6.7732 0
M  V30 4301 H 396.733 0.787324 5.58983 0
M  V30 4302 N 396.131 -1.37776 0.765217 0
M  V30 4303 C 397.377 -2.00145 0.327072 0
M  V30 4304 C 397.71 -1.60607 -1.09175 0
M  V30 4305 O 396.985 -0.849127 -1.74986 0
M  V30 4306 C 397.268 -3.57109 0.46319 0
M  V30 4307 C 397.121 -4.06576 1.92395 0
M  V30 4308 C 398.44 -4.39888 -0.136473 0
M  V30 4309 H 395.559 -0.727113 0.120316 0
M  V30 4310 H 398.201 -1.63549 0.967039 0
M  V30 4311 H 396.351 -3.88414 -0.0816358 0
M  V30 4312 H 398.023 -3.85864 2.52798 0
M  V30 4313 H 396.266 -3.59011 2.43503 0
M  V30 4314 H 396.937 -5.15639 1.97028 0
M  V30 4315 H 399.413 -4.14803 0.328317 0
M  V30 4316 H 398.289 -5.48899 -0.0110582 0
M  V30 4317 H 398.55 -4.24758 -1.22608 0
M  V30 4318 N 397.609 -0.515225 -1.4894 0
M  V30 4319 C 399.02 -0.0710067 -1.86565 0
M  V30 4320 C 399.371 1.34733 -1.42623 0
M  V30 4321 O 398.496 2.00653 -0.810379 0
M  V30 4322 C 399.091 -0.122083 -3.3858 0
M  V30 4323 C 397.65 0.266863 -3.75453 0
M  V30 4324 C 396.797 -0.488376 -2.72966 0
M  V30 4325 H 399.748 -0.727266 -1.41055 0
M  V30 4326 H 399.769 0.669818 -3.74558 0
M  V30 4327 H 399.281 -1.15448 -3.70531 0
M  V30 4328 H 397.382 1.30196 -3.49113 0
M  V30 4329 H 397.495 -0.0624811 -4.79059 0
M  V30 4330 H 395.859 0.0635622 -2.54621 0
M  V30 4331 H 396.642 -1.52113 -3.07761 0
M  V30 4332 N 399.087 1.5561 -0.249682 0
M  V30 4333 C 400.503 1.59254 0.105103 0
M  V30 4334 C 400.703 1.26685 1.56694 0
M  V30 4335 O 399.759 1.0155 2.31179 0
M  V30 4336 C 401.072 2.99687 -0.246592 0
M  V30 4337 C 402.62 3.12416 -0.191118 0
M  V30 4338 C 403.095 4.55074 -0.516885 0
M  V30 4339 N 404.586 4.60835 -0.467489 0
M  V30 4340 C 405.321 5.69201 -0.69268 0
M  V30 4341 N 404.817 6.85817 -0.981146 0
M  V30 4342 N 406.61 5.58635 -0.623198 0
M  V30 4343 H 398.761 1.75049 -1.20298 0
M  V30 4344 H 401.024 0.815003 -0.484225 0
M  V30 4345 H 400.73 3.28267 -1.26228 0
M  V30 4346 H 400.604 3.74798 0.424962 0
M  V30 4347 H 402.991 2.83615 0.815247 0
M  V30 4348 H 403.072 2.39573 -0.896563 0
M  V30 4349 H 402.716 4.84596 -1.52082 0
M  V30 4350 H 402.646 5.26181 0.210068 0
M  V30 4351 H 405.137 3.7705 -0.253373 0
M  V30 4352 H 405.45 7.64341 -1.14032 0
M  V30 4353 H 403.795 6.87494 -1.01865 0
M  V30 4354 H 406.986 4.66406 -0.397863 0
M  V30 4355 H 407.159 6.43017 -0.802093 0
M  V30 4356 N 400.565 -0.0233959 1.57583 0
M  V30 4357 C 401.814 -0.712133 1.8871 0
M  V30 4358 C 402.127 -1.76217 0.848944 0
M  V30 4359 O 403.333 -2.50389 1.04964 0
M  V30 4360 C 401.789 -1.3177 3.3491 0
M  V30 4361 C 401.397 -0.303715 4.46969 0
M  V30 4362 C 403.141 -1.98598 3.75179 0
M  V30 4363 C 401.048 -0.917945 5.84233 0
M  V30 4364 H 399.978 -0.269735 0.704101 0
M  V30 4365 H 402.629 0.0333114 1.8347 0
M  V30 4366 H 401.011 -2.11304 3.34913 0
M  V30 4367 H 402.185 0.465325 4.58445 0
M  V30 4368 H 400.5 0.2628 4.1557 0
M  V30 4369 H 403.097 -2.45416 4.75053 0
M  V30 4370 H 403.44 -2.80659 3.07468 0
M  V30 4371 H 403.973 -1.25831 3.77374 0
M  V30 4372 H 400.712 -0.136633 6.55358 0
M  V30 4373 H 400.232 -1.65669 5.76467 0
M  V30 4374 H 401.911 -1.4236 6.31144 0
M  V30 4375 N 402.043 -1.548 -0.295768 0
M  V30 4376 C 403.454 -1.65274 -0.868411 0
M  V30 4377 C 403.805 -0.56481 -1.87894 0
M  V30 4378 O 402.93 0.29767 -2.14343 0
M  V30 4379 C 403.525 -2.99603 -1.58188 0
M  V30 4380 C 402.084 -3.12181 -2.10286 0
M  V30 4381 C 401.231 -2.6098 -0.93727 0
M  V30 4382 H 404.182 -1.58534 -0.0726422 0
M  V30 4383 H 404.203 -2.91319 -2.44772 0
M  V30 4384 H 403.715 -3.78764 -0.846151 0
M  V30 4385 H 401.816 -2.3775 -2.8689 0
M  V30 4386 H 401.929 -4.18415 -2.33379 0
M  V30 4387 H 400.293 -2.17564 -1.32431 0
M  V30 4388 H 401.076 -3.42623 -0.215414 0
M  V30 4389 N 403.521 0.559213 -1.47345 0
M  V30 4390 C 404.431 1.69388 -1.62311 0
M  V30 4391 C 405.447 1.6648 -0.505993 0
M  V30 4392 O 406.623 1.85964 -0.773262 0
M  V30 4393 C 403.688 3.05894 -1.63185 0
M  V30 4394 C 402.749 3.19885 -2.86307 0
M  V30 4395 C 401.982 4.49879 -2.87131 0
M  V30 4396 O 402.205 5.35217 -1.97229 0
M  V30 4397 O 401.139 4.67618 -3.78968 0
M  V30 4398 H 404.965 1.59706 -2.58317 0
M  V30 4399 H 402.55 0.728989 -1.30407 0
M  V30 4400 H 404.432 3.87133 -1.66451 0
M  V30 4401 H 403.107 3.15964 -0.70345 0
M  V30 4402 H 402.014 2.38052 -2.88587 0
M  V30 4403 H 403.347 3.14718 -3.78435 0
M  V30 4404 N 404.999 1.35443 0.805782 0
M  V30 4405 C 406.245 1.2996 1.56467 0
M  V30 4406 C 406.6 -0.124742 1.91995 0
M  V30 4407 O 405.893 -1.07533 1.58579 0
M  V30 4408 C 406.087 2.14045 2.86216 0
M  V30 4409 C 405.916 3.64512 2.63365 0
M  V30 4410 C 404.686 4.33744 2.59219 0
M  V30 4411 C 406.884 4.58142 2.33688 0
M  V30 4412 N 404.866 5.69953 2.28094 0
M  V30 4413 C 406.237 5.8248 2.12408 0
M  V30 4414 C 408.292 4.46877 2.19558 0
M  V30 4415 C 406.995 6.96818 1.78429 0
M  V30 4416 C 409.021 5.61065 1.86976 0
M  V30 4417 C 408.383 6.84431 1.66532 0
M  V30 4418 H 404.482 0.530817 0.574245 0
M  V30 4419 H 407.066 1.70333 0.943126 0
M  V30 4420 H 405.237 1.75942 3.46264 0
M  V30 4421 H 406.969 2.00075 3.51784 0
M  V30 4422 H 403.724 3.86365 2.73896 0
M  V30 4423 H 404.148 6.41845 2.15323 0
M  V30 4424 H 408.79 3.52102 2.34061 0
M  V30 4425 H 406.508 7.91559 1.62664 0
M  V30 4426 H 410.094 5.54302 1.7675 0
M  V30 4427 H 408.974 7.71294 1.41688 0
M  V30 4428 N 406.477 -1.02803 1.19454 0
M  V30 4429 C 407.407 -2.12999 0.956758 0
M  V30 4430 C 408.388 -1.69743 -0.110188 0
M  V30 4431 O 409.573 -1.94148 0.0450038 0
M  V30 4432 C 406.703 -3.43746 0.495553 0
M  V30 4433 C 405.657 -4.00688 1.50443 0
M  V30 4434 C 404.983 -5.27067 0.900275 0
M  V30 4435 C 406.283 -4.35397 2.8849 0
M  V30 4436 H 407.977 -2.33148 1.87836 0
M  V30 4437 H 405.523 -1.12045 0.904539 0
M  V30 4438 H 407.476 -4.2021 0.316493 0
M  V30 4439 H 406.2 -3.23321 -0.461646 0
M  V30 4440 H 404.859 -3.2632 1.67065 0
M  V30 4441 H 404.507 -5.02959 -0.064503 0
M  V30 4442 H 404.207 -5.66127 1.57397 0
M  V30 4443 H 405.731 -6.06196 0.73203 0
M  V30 4444 H 407.145 -5.02795 2.75446 0
M  V30 4445 H 405.542 -4.85541 3.52661 0
M  V30 4446 H 406.612 -3.44662 3.41081 0
M  V30 4447 N 407.956 -0.998596 -1.21925 0
M  V30 4448 C 409.203 -0.677663 -1.90824 0
M  V30 4449 C 409.531 0.790905 -1.77693 0
M  V30 4450 O 408.786 1.58817 -1.14349 0
M  V30 4451 C 409.085 -1.03648 -3.42041 0
M  V30 4452 C 408.751 -2.49825 -3.75364 0
M  V30 4453 C 407.413 -2.8977 -3.8417 0
M  V30 4454 C 409.765 -3.44545 -3.91073 0
M  V30 4455 C 407.093 -4.23412 -4.06127 0
M  V30 4456 C 409.445 -4.77853 -4.14535 0
M  V30 4457 C 408.109 -5.17531 -4.21566 0
M  V30 4458 H 407.379 -0.247975 -0.698276 0
M  V30 4459 H 410.026 -1.25584 -1.44571 0
M  V30 4460 H 408.331 -0.376457 -3.89987 0
M  V30 4461 H 410.028 -0.766113 -3.93614 0
M  V30 4462 H 406.618 -2.17866 -3.69097 0
M  V30 4463 H 410.802 -3.14853 -3.83642 0
M  V30 4464 H 406.058 -4.53734 -4.09799 0
M  V30 4465 H 410.232 -5.51189 -4.25633 0
M  V30 4466 H 407.859 -6.21102 -4.38333 0
M  V30 4467 N 409.434 1.37368 -0.772513 0
M  V30 4468 C 410.68 1.99969 -0.337681 0
M  V30 4469 C 411.013 1.61184 1.08321 0
M  V30 4470 O 410.288 0.858395 1.74533 0
M  V30 4471 C 410.571 3.56858 -0.482121 0
M  V30 4472 C 410.424 4.0555 -1.94549 0
M  V30 4473 C 411.743 4.39955 0.113143 0
M  V30 4474 H 408.862 0.726464 -0.124171 0
M  V30 4475 H 411.504 1.63034 -0.975699 0
M  V30 4476 H 409.654 3.88452 0.0610361 0
M  V30 4477 H 411.326 3.84518 -2.54841 0
M  V30 4478 H 409.569 3.57715 -2.45403 0
M  V30 4479 H 410.24 5.14587 -1.9976 0
M  V30 4480 H 412.716 4.14623 -0.35031 0
M  V30 4481 H 411.592 5.48897 -0.0180514 0
M  V30 4482 H 411.853 4.25403 1.20354 0
M  V30 4483 N 410.912 0.523116 1.48665 0
M  V30 4484 C 411.875 -0.232592 2.28017 0
M  V30 4485 C 412.875 -0.874021 1.34972 0
M  V30 4486 O 414.065 -0.735132 1.57929 0
M  V30 4487 C 411.197 -1.33586 3.13636 0
M  V30 4488 H 412.39 0.464008 2.96289 0
M  V30 4489 H 409.943 0.278816 1.53793 0
M  V30 4490 H 410.678 -2.06593 2.4998 0
M  V30 4491 H 410.463 -0.881125 3.82071 0
M  V30 4492 H 411.953 -1.86759 3.73511 0
M  V30 4493 N 412.39 -1.55475 0.257931 0
M  V30 4494 C 413.615 -2.04064 -0.370488 0
M  V30 4495 C 414.04 -1.13565 -1.49948 0
M  V30 4496 O 413.398 -0.130781 -1.80828 0
M  V30 4497 C 413.446 -3.50554 -0.845237 0
M  V30 4498 O 412.55 -3.63173 -1.95394 0
M  V30 4499 H 411.891 -0.659257 -0.0792243 0
M  V30 4500 H 414.421 -2.00903 0.387212 0
M  V30 4501 H 414.431 -3.91588 -1.14555 0
M  V30 4502 H 413.106 -4.15896 -0.0191259 0
M  V30 4503 H 411.683 -3.34039 -1.65748 0
M  V30 4504 N 413.868 0.0150385 -1.57593 0
M  V30 4505 C 415.098 0.713359 -1.93894 0
M  V30 4506 C 415.506 1.68663 -0.857289 0
M  V30 4507 O 414.849 1.82876 0.173788 0
M  V30 4508 C 414.911 1.51348 -3.26089 0
M  V30 4509 C 414.575 0.703451 -4.51554 0
M  V30 4510 C 415.572 -0.00237924 -5.199 0
M  V30 4511 C 413.257 0.653854 -4.98026 0
M  V30 4512 C 415.251 -0.746955 -6.33008 0
M  V30 4513 C 412.938 -0.0944578 -6.11027 0
M  V30 4514 C 413.936 -0.793609 -6.78374 0
M  V30 4515 O 413.624 -1.52974 -7.89211 0
M  V30 4516 H 413.356 0.204637 -0.644282 0
M  V30 4517 H 415.91 -0.0276411 -2.05381 0
M  V30 4518 H 414.14 2.29862 -3.10967 0
M  V30 4519 H 415.829 2.09572 -3.47612 0
M  V30 4520 H 416.595 0.0268803 -4.84993 0
M  V30 4521 H 412.474 1.18756 -4.45441 0
M  V30 4522 H 416.018 -1.2932 -6.85509 0
M  V30 4523 H 411.915 -0.125591 -6.45378 0
M  V30 4524 H 412.683 -1.44488 -8.05646 0
M  V30 4525 N 415.346 1.54954 0.287554 0
M  V30 4526 C 416.576 1.78622 1.03816 0
M  V30 4527 C 416.984 0.552451 1.80955 0
M  V30 4528 O 416.327 -0.487665 1.77109 0
M  V30 4529 C 416.389 2.94975 2.055 0
M  V30 4530 C 416.053 4.32565 1.47433 0
M  V30 4531 C 417.05 5.12096 0.897436 0
M  V30 4532 C 414.735 4.79195 1.50591 0
M  V30 4533 C 416.729 6.36383 0.359851 0
M  V30 4534 C 414.416 6.03441 0.964459 0
M  V30 4535 C 415.414 6.81872 0.392413 0
M  V30 4536 O 415.102 8.03777 -0.140788 0
M  V30 4537 H 414.834 0.599144 0.313053 0
M  V30 4538 H 417.388 2.02761 0.328225 0
M  V30 4539 H 415.618 2.66493 2.80211 0
M  V30 4540 H 417.307 3.06097 2.6657 0
M  V30 4541 H 418.073 4.77209 0.865841 0
M  V30 4542 H 413.952 4.18167 1.94055 0
M  V30 4543 H 417.496 6.97545 -0.0872951 0
M  V30 4544 H 413.393 6.37813 0.993246 0
M  V30 4545 H 414.161 8.18495 -0.0287617 0
M  V30 4546 N 416.824 -0.551391 1.4764 0
M  V30 4547 C 417.757 -1.6738 1.5511 0
M  V30 4548 C 418.735 -1.5753 0.402856 0
M  V30 4549 O 419.919 -1.78307 0.611475 0
M  V30 4550 C 417.046 -3.05661 1.45908 0
M  V30 4551 C 416.092 -3.33938 2.65307 0
M  V30 4552 S 416.925 -3.22553 4.27457 0
M  V30 4553 C 418.081 -4.63317 4.20818 0
M  V30 4554 H 418.314 -1.6079 2.50068 0
M  V30 4555 H 415.847 -0.732674 1.35909 0
M  V30 4556 H 417.805 -3.8542 1.41286 0
M  V30 4557 H 416.466 -3.09711 0.523248 0
M  V30 4558 H 415.659 -4.34761 2.54948 0
M  V30 4559 H 415.261 -2.61809 2.67081 0
M  V30 4560 H 417.553 -5.54391 3.89431 0
M  V30 4561 H 418.496 -4.78732 5.21748 0
M  V30 4562 H 418.904 -4.41636 3.51593 0
M  V30 4563 N 418.302 -1.35869 -0.798587 0
M  V30 4564 C 419.265 -1.29307 -1.89242 0
M  V30 4565 C 420.265 -0.202747 -1.59517 0
M  V30 4566 O 421.455 -0.456957 -1.681 0
M  V30 4567 C 418.587 -1.00229 -3.25833 0
M  V30 4568 H 419.78 -2.26576 -1.96478 0
M  V30 4569 H 417.333 -1.20509 -0.995358 0
M  V30 4570 H 418.068 -0.033801 -3.24282 0
M  V30 4571 H 417.853 -1.79121 -3.48795 0
M  V30 4572 H 419.343 -0.98219 -4.05885 0
M  V30 4573 N 419.78 1.02168 -1.19998 0
M  V30 4574 C 421.01 1.79036 -1.031 0
M  V30 4575 C 421.418 1.84409 0.423078 0
M  V30 4576 O 420.761 1.29228 1.30559 0
M  V30 4577 C 420.823 3.25185 -1.53281 0
M  V30 4578 C 420.487 3.43431 -3.01503 0
M  V30 4579 C 421.484 3.33063 -3.99206 0
M  V30 4580 C 419.169 3.69412 -3.40353 0
M  V30 4581 C 421.163 3.48413 -5.33748 0
M  V30 4582 C 418.85 3.84406 -4.75053 0
M  V30 4583 C 419.848 3.7391 -5.71559 0
M  V30 4584 O 419.536 3.88452 -7.03818 0
M  V30 4585 H 419.268 0.570043 -0.363355 0
M  V30 4586 H 421.822 1.29524 -1.59414 0
M  V30 4587 H 420.052 3.75756 -0.913483 0
M  V30 4588 H 421.741 3.83671 -1.32481 0
M  V30 4589 H 422.507 3.12934 -3.70537 0
M  V30 4590 H 418.386 3.76671 -2.65782 0
M  V30 4591 H 421.93 3.40137 -6.09059 0
M  V30 4592 H 417.827 4.04035 -5.03415 0
M  V30 4593 H 418.595 4.055 -7.10993 0
M  V30 4594 N 421.258 1.00505 1.21394 0
M  V30 4595 C 422.505 0.687774 1.90462 0
M  V30 4596 C 422.833 -0.78147 1.7811 0
M  V30 4597 O 422.088 -1.58208 1.1519 0
M  V30 4598 C 422.387 1.0546 3.41486 0
M  V30 4599 C 422.053 2.51812 3.74034 0
M  V30 4600 C 420.715 2.91804 3.82628 0
M  V30 4601 C 423.067 3.46614 3.8924 0
M  V30 4602 C 420.395 4.2556 4.03876 0
M  V30 4603 C 422.747 4.80044 4.11995 0
M  V30 4604 C 421.411 5.19759 4.18816 0
M  V30 4605 H 420.681 0.251674 0.696951 0
M  V30 4606 H 423.328 1.26349 1.43903 0
M  V30 4607 H 421.633 0.397133 3.89782 0
M  V30 4608 H 423.33 0.786976 3.93202 0
M  V30 4609 H 419.92 2.1982 3.67936 0
M  V30 4610 H 424.104 3.16883 3.81967 0
M  V30 4611 H 419.36 4.55901 4.07387 0
M  V30 4612 H 423.534 5.53439 4.22704 0
M  V30 4613 H 421.161 6.23418 4.35033 0
M  V30 4614 N 422.737 -1.36956 0.779787 0
M  V30 4615 C 423.685 -2.32053 0.15942 0
M  V30 4616 C 424.679 -1.55333 -0.675878 0
M  V30 4617 O 425.885 -1.70668 -0.57204 0
M  V30 4618 H 422.26 -0.751286 0.0327707 0
M  V30 4619 H 424.231 -2.8195 0.977078 0
M  V30 4620 C 422.98 -3.40602 -0.698977 0
M  V30 4621 H 422.303 -3.99746 -0.0655966 0
M  V30 4622 H 423.743 -4.09486 -1.09989 0
M  V30 4623 C 422.202 -2.81359 -1.85307 0
M  V30 4624 O 422.732 -2.72751 -2.94906 0
M  V30 4625 N 420.938 -2.38786 -1.65619 0
M  V30 4626 H 420.485 -2.45987 -0.764725 0
M  V30 4627 H 420.443 -1.99493 -2.43002 0
M  V30 4628 N 424.215 -0.530993 -1.48385 0
M  V30 4629 C 425.44 0.000729535 -2.074 0
M  V30 4630 C 425.865 1.27298 -1.3848 0
M  V30 4631 O 425.223 1.75599 -0.451081 0
M  V30 4632 C 425.271 0.206697 -3.60007 0
M  V30 4633 O 424.375 1.27514 -3.92191 0
M  V30 4634 H 423.716 -0.039583 -0.662819 0
M  V30 4635 H 426.246 -0.739194 -1.9078 0
M  V30 4636 H 426.256 0.42904 -4.05738 0
M  V30 4637 H 424.931 -0.722675 -4.09573 0
M  V30 4638 H 423.508 1.03537 -3.58238 0
M  V30 4639 N 425.693 1.55336 -0.266172 0
M  V30 4640 C 426.933 2.01303 0.354459 0
M  V30 4641 C 427.297 1.15046 1.53715 0
M  V30 4642 O 428.498 1.50554 2.22681 0
M  V30 4643 C 426.769 3.49748 0.735579 0
M  V30 4644 S 428.328 4.1771 1.34401 0
M  V30 4645 H 425.146 0.702333 0.110674 0
M  V30 4646 H 427.748 1.91653 -0.385916 0
M  V30 4647 H 426.452 4.10181 -0.134196 0
M  V30 4648 H 425.983 3.63364 1.50764 0
M  V30 4649 H 427.998 4.20594 2.63278 0
M  V30 4650 N 427.171 -0.0066808 1.57599 0
M  V30 4651 C 428.101 -0.999296 2.11036 0
M  V30 4652 C 429.082 -1.36278 1.01795 0
M  V30 4653 O 430.267 -1.4477 1.29442 0
M  V30 4654 C 427.397 -2.29328 2.60818 0
M  V30 4655 C 426.351 -2.07159 3.74525 0
M  V30 4656 C 425.677 -3.42512 4.10596 0
M  V30 4657 C 426.977 -1.43959 5.02069 0
M  V30 4658 H 428.671 -0.554382 2.94223 0
M  V30 4659 H 426.217 -0.265221 1.41536 0
M  V30 4660 H 428.17 -2.99117 2.96828 0
M  V30 4661 H 426.894 -2.7592 1.74745 0
M  V30 4662 H 425.553 -1.39797 3.38899 0
M  V30 4663 H 425.201 -3.86795 3.21556 0
M  V30 4664 H 424.901 -3.28498 4.87199 0
M  V30 4665 H 426.425 -4.13628 4.4916 0
M  V30 4666 H 427.839 -2.03696 5.35893 0
M  V30 4667 H 426.236 -1.40452 5.83432 0
M  V30 4668 H 427.306 -0.407992 4.83181 0
M  V30 4669 N 428.649 -1.55105 -0.279332 0
M  V30 4670 C 429.597 -1.88333 -1.36505 0
M  V30 4671 C 430.591 -0.759043 -1.51443 0
M  V30 4672 O 431.797 -0.943312 -1.53302 0
M  V30 4673 H 428.172 -0.59766 -0.456406 0
M  V30 4674 H 430.143 -2.79041 -1.05728 0
M  V30 4675 C 428.892 -2.16628 -2.7197 0
M  V30 4676 H 428.215 -3.02624 -2.61264 0
M  V30 4677 H 429.655 -2.43803 -3.46895 0
M  V30 4678 C 428.114 -0.971807 -3.22579 0
M  V30 4679 O 428.644 -0.203228 -4.01186 0
M  V30 4680 N 426.85 -0.771238 -2.80179 0
M  V30 4681 H 426.397 -1.39792 -2.1637 0
M  V30 4682 H 426.355 0.0263667 -3.14389 0
M  V30 4683 N 430.127 0.543554 -1.4793 0
M  V30 4684 C 431.09 1.63156 -1.60975 0
M  V30 4685 C 432.09 1.53346 -0.483899 0
M  V30 4686 O 433.28 1.5726 -0.749339 0
M  V30 4687 C 430.412 3.02743 -1.56716 0
M  V30 4688 H 431.605 1.52934 -2.57975 0
M  V30 4689 H 429.158 0.764557 -1.36324 0
M  V30 4690 H 429.893 3.18484 -0.611418 0
M  V30 4691 H 429.678 3.11272 -2.38438 0
M  V30 4692 H 431.168 3.81871 -1.6901 0
M  V30 4693 N 431.605 1.3629 0.791371 0
M  V30 4694 C 432.854 1.29742 1.54434 0
M  V30 4695 C 433.167 -0.121729 1.95221 0
M  V30 4696 O 434.373 -0.309579 2.69729 0
M  V30 4697 C 432.829 2.27623 2.78776 0
M  V30 4698 C 432.437 3.74963 2.45166 0
M  V30 4699 C 434.181 2.30047 3.56761 0
M  V30 4700 C 432.088 4.64626 3.65891 0
M  V30 4701 H 431.018 0.482113 0.579727 0
M  V30 4702 H 433.669 1.61642 0.868565 0
M  V30 4703 H 432.051 1.88714 3.48142 0
M  V30 4704 H 433.225 4.22596 1.83709 0
M  V30 4705 H 431.54 3.75295 1.80396 0
M  V30 4706 H 434.137 2.94247 4.46456 0
M  V30 4707 H 434.48 1.30846 3.95203 0
M  V30 4708 H 435.013 2.67563 2.94372 0
M  V30 4709 H 431.752 5.64883 3.32547 0
M  V30 4710 H 431.272 4.2171 4.26521 0
M  V30 4711 H 432.951 4.80801 4.32943 0
M  V30 4712 N 433.083 -1.0153 1.20538 0
M  V30 4713 C 434.332 -1.74558 1.01057 0
M  V30 4714 C 434.645 -1.90168 -0.457756 0
M  V30 4715 O 435.851 -2.60301 -0.771722 0
M  V30 4716 C 434.307 -3.13963 1.75941 0
M  V30 4717 C 433.915 -3.06361 3.26875 0
M  V30 4718 C 435.659 -3.91191 1.64832 0
M  V30 4719 C 433.566 -4.40782 3.94291 0
M  V30 4720 H 432.496 -0.654417 0.374505 0
M  V30 4721 H 435.147 -1.13521 1.44171 0
M  V30 4722 H 433.529 -3.75549 1.25614 0
M  V30 4723 H 434.703 -2.54074 3.84425 0
M  V30 4724 H 433.018 -2.42625 3.38411 0
M  V30 4725 H 435.615 -4.90644 2.12539 0
M  V30 4726 H 435.958 -4.11884 0.604745 0
M  V30 4727 H 436.491 -3.36236 2.12579 0
M  V30 4728 H 433.23 -4.25292 4.98805 0
M  V30 4729 H 432.75 -4.9307 3.41529 0
M  V30 4730 H 434.429 -5.09621 3.98617 0
M  V30 4731 N 434.561 -1.01147 -1.20859 0
M  V30 4732 C 435.791 -0.715872 -1.93801 0
M  V30 4733 C 436.199 0.726592 -1.74692 0
M  V30 4734 O 435.542 1.50397 -1.05482 0
M  V30 4735 C 435.604 -0.965269 -3.46299 0
M  V30 4736 C 435.268 -2.39584 -3.89164 0
M  V30 4737 C 436.265 -3.3764 -3.95342 0
M  V30 4738 C 433.95 -2.73522 -4.21297 0
M  V30 4739 C 435.944 -4.67698 -4.33056 0
M  V30 4740 C 433.631 -4.03794 -4.58687 0
M  V30 4741 C 434.629 -5.00693 -4.64538 0
M  V30 4742 O 434.317 -6.28635 -5.01072 0
M  V30 4743 H 434.049 -0.262524 -0.622942 0
M  V30 4744 H 436.603 -1.35413 -1.54443 0
M  V30 4745 H 434.833 -0.269847 -3.85757 0
M  V30 4746 H 436.522 -0.662051 -4.00464 0
M  V30 4747 H 437.288 -3.12757 -3.70686 0
M  V30 4748 H 433.167 -1.9879 -4.15937 0
M  V30 4749 H 436.711 -5.4333 -4.37537 0
M  V30 4750 H 432.608 -4.28459 -4.82797 0
M  V30 4751 H 433.376 -6.32847 -5.19083 0
M  V30 4752 N 436.039 1.36541 -0.78704 0
M  V30 4753 C 437.287 1.98911 -0.357633 0
M  V30 4754 C 437.608 1.62778 1.07371 0
M  V30 4755 O 436.878 0.900612 1.73971 0
M  V30 4756 H 435.458 0.735734 -0.129246 0
M  V30 4757 H 438.12 1.66776 -1.00855 0
M  V30 4758 H 437.216 3.08874 -0.447549 0
M  V30 4759 N 437.518 0.538854 1.48102 0
M  V30 4760 C 438.448 -0.207654 2.32575 0
M  V30 4761 C 439.429 -0.926559 1.4265 0
M  V30 4762 O 440.614 -0.91061 1.71527 0
M  V30 4763 C 437.744 -1.24957 3.24042 0
M  V30 4764 C 436.698 -0.648263 4.23062 0
M  V30 4765 C 436.024 -1.79348 5.03725 0
M  V30 4766 C 437.324 0.385897 5.20872 0
M  V30 4767 H 439.018 0.497534 2.95237 0
M  V30 4768 H 436.564 0.240715 1.41974 0
M  V30 4769 H 438.517 -1.77983 3.81969 0
M  V30 4770 H 437.241 -1.98446 2.59397 0
M  V30 4771 H 435.9 -0.139452 3.66335 0
M  V30 4772 H 435.548 -2.51696 4.35498 0
M  V30 4773 H 435.248 -1.39702 5.70751 0
M  V30 4774 H 436.772 -2.32735 5.64506 0
M  V30 4775 H 438.186 -0.057607 5.73271 0
M  V30 4776 H 436.583 0.700227 5.96001 0
M  V30 4777 H 437.653 1.28848 4.67468 0
M  V30 4778 N 438.996 -1.55193 0.274407 0
M  V30 4779 C 439.926 -2.25471 -0.607032 0
M  V30 4780 C 440.907 -1.24461 -1.15946 0
M  V30 4781 O 442.092 -1.53179 -1.19373 0
M  V30 4782 C 439.222 -2.97526 -1.79153 0
M  V30 4783 C 438.176 -4.05459 -1.37067 0
M  V30 4784 C 437.502 -4.65084 -2.6382 0
M  V30 4785 C 438.802 -5.19691 -0.521389 0
M  V30 4786 H 440.496 -2.99393 -0.0209343 0
M  V30 4787 H 438.042 -1.43997 -0.00862866 0
M  V30 4788 H 439.995 -3.45402 -2.41404 0
M  V30 4789 H 438.719 -2.21138 -2.40344 0
M  V30 4790 H 437.378 -3.58393 -0.771355 0
M  V30 4791 H 437.026 -3.85365 -3.23268 0
M  V30 4792 H 436.726 -5.37961 -2.36372 0
M  V30 4793 H 438.25 -5.15708 -3.26921 0
M  V30 4794 H 439.664 -5.63623 -1.04889 0
M  V30 4795 H 438.061 -5.99126 -0.341825 0
M  V30 4796 H 439.131 -4.82713 0.46 0
M  V30 4797 N 440.474 -0.00167713 -1.576 0
M  V30 4798 C 441.422 1.0074 -2.09652 0
M  V30 4799 C 442.416 1.35483 -1.01689 0
M  V30 4800 O 443.622 1.34028 -1.20152 0
M  V30 4801 H 439.997 0.342537 -0.669457 0
M  V30 4802 H 441.968 0.542841 -2.93421 0
M  V30 4803 C 440.717 2.2899 -2.61647 0
M  V30 4804 H 440.04 2.03124 -3.44355 0
M  V30 4805 H 441.48 2.9787 -3.01744 0
M  V30 4806 C 439.939 3.00085 -1.53136 0
M  V30 4807 O 440.469 3.91135 -0.91524 0
M  V30 4808 N 438.675 2.6194 -1.25841 0
M  V30 4809 H 438.222 1.8798 -1.76129 0
M  V30 4810 H 438.18 3.09822 -0.534576 0
M  V30 4811 N 441.952 1.55251 0.271103 0
M  V30 4812 C 442.884 1.84675 1.35749 0
M  V30 4813 C 443.897 0.731366 1.45447 0
M  V30 4814 O 445.086 1.00924 1.4723 0
M  V30 4815 C 442.186 1.99638 2.73857 0
M  V30 4816 C 441.359 3.30312 2.86727 0
M  V30 4817 C 440.418 3.35318 4.05522 0
M  V30 4818 O 439.444 4.08682 3.96191 0
M  V30 4819 N 440.646 2.62857 5.17577 0
M  V30 4820 H 443.411 2.78445 1.10853 0
M  V30 4821 H 440.972 1.55191 0.461218 0
M  V30 4822 H 442.964 2.00355 3.51625 0
M  V30 4823 H 441.534 1.12725 2.91568 0
M  V30 4824 H 440.754 3.42118 1.95829 0
M  V30 4825 H 442.042 4.16488 2.92258 0
M  V30 4826 H 441.44 2.02939 5.28046 0
M  V30 4827 H 439.997 2.69295 5.93568 0
M  V30 4828 N 443.43 -0.535701 1.48216 0
M  V30 4829 C 444.378 -1.66179 1.62749 0
M  V30 4830 C 445.372 -1.62034 0.49409 0
M  V30 4831 O 446.578 -1.6696 0.672624 0
M  V30 4832 H 442.953 -0.550244 0.512578 0
M  V30 4833 H 444.924 -1.51063 2.57337 0
M  V30 4834 C 443.673 -3.04471 1.67907 0
M  V30 4835 H 442.996 -3.08351 2.54479 0
M  V30 4836 H 444.436 -3.82894 1.82121 0
M  V30 4837 C 442.895 -3.34314 0.416596 0
M  V30 4838 O 443.425 -3.98905 -0.473014 0
M  V30 4839 N 441.631 -2.89149 0.290038 0
M  V30 4840 H 441.178 -2.36764 1.01493 0
M  V30 4841 H 441.136 -3.09486 -0.55367 0
M  V30 4842 N 444.908 -1.36708 -0.784132 0
M  V30 4843 C 446.155 -1.31231 -1.54222 0
M  V30 4844 C 446.483 0.106864 -1.94206 0
M  V30 4845 O 445.738 1.07734 -1.63376 0
M  V30 4846 C 446.037 -2.18571 -2.82774 0
M  V30 4847 C 445.703 -3.67039 -2.61903 0
M  V30 4848 C 444.365 -4.07503 -2.55919 0
M  V30 4849 C 446.717 -4.61149 -2.4288 0
M  V30 4850 C 444.045 -5.40211 -2.28886 0
M  V30 4851 C 446.397 -5.94081 -2.17373 0
M  V30 4852 C 445.061 -6.33664 -2.09825 0
M  V30 4853 H 444.331 -0.48021 -0.56434 0
M  V30 4854 H 446.978 -1.68807 -0.904233 0
M  V30 4855 H 445.283 -1.73949 -3.51068 0
M  V30 4856 H 446.98 -2.11655 -3.40592 0
M  V30 4857 H 443.57 -3.34941 -2.67418 0
M  V30 4858 H 447.754 -4.30756 -2.46501 0
M  V30 4859 H 443.01 -5.69855 -2.21529 0
M  V30 4860 H 447.184 -6.66566 -2.01649 0
M  V30 4861 H 444.811 -7.36423 -1.88641 0
M  V30 4862 N 446.386 1.0089 -1.21074 0
M  V30 4863 C 447.802 1.2695 -0.967257 0
M  V30 4864 C 448.002 1.9846 0.348673 0
M  V30 4865 O 447.058 2.28459 1.0753 0
M  V30 4866 C 448.371 2.09697 -2.15517 0
M  V30 4867 C 449.919 2.22937 -2.197 0
M  V30 4868 C 450.394 3.09064 -3.37999 0
M  V30 4869 N 451.885 3.16653 -3.38061 0
M  V30 4870 C 452.62 3.8354 -4.26245 0
M  V30 4871 N 452.116 4.52488 -5.2462 0
M  V30 4872 N 453.909 3.80141 -4.14064 0
M  V30 4873 H 446.06 0.529005 -2.05707 0
M  V30 4874 H 448.323 0.296148 -0.900556 0
M  V30 4875 H 448.029 1.64497 -3.10859 0
M  V30 4876 H 447.903 3.10444 -2.14253 0
M  V30 4877 H 450.29 2.67357 -1.24916 0
M  V30 4878 H 450.371 1.21673 -2.2501 0
M  V30 4879 H 450.015 2.65347 -4.33074 0
M  V30 4880 H 449.945 4.10433 -3.29928 0
M  V30 4881 H 452.436 2.67566 -2.66865 0
M  V30 4882 H 452.749 5.01219 -5.88217 0
M  V30 4883 H 451.094 4.51288 -5.28549 0
M  V30 4884 H 454.285 3.25427 -3.36474 0
M  V30 4885 H 454.458 4.31992 -4.82998 0
M  V30 4886 N 447.864 1.01787 1.20321 0
M  V30 4887 C 448.811 0.589197 2.23153 0
M  V30 4888 C 449.781 -0.391367 1.61423 0
M  V30 4889 O 450.966 -0.290518 1.88575 0
M  V30 4890 C 448.106 -0.0650747 3.45039 0
M  V30 4891 C 447.219 0.960207 4.21194 0
M  V30 4892 C 446.354 0.276854 5.30478 0
M  V30 4893 C 445.393 1.2888 5.98378 0
M  V30 4894 N 444.53 0.632031 6.99249 0
M  V30 4895 H 449.37 1.47071 2.59179 0
M  V30 4896 H 446.907 0.736192 1.27352 0
M  V30 4897 H 448.865 -0.461552 4.14639 0
M  V30 4898 H 447.495 -0.910233 3.09701 0
M  V30 4899 H 446.547 1.47484 3.50646 0
M  V30 4900 H 447.859 1.72977 4.67847 0
M  V30 4901 H 447.013 -0.175056 6.06447 0
M  V30 4902 H 445.752 -0.525004 4.84866 0
M  V30 4903 H 444.757 1.75109 5.21169 0
M  V30 4904 H 445.982 2.09196 6.46076 0
M  V30 4905 H 443.928 -0.149935 6.55829 0
M  V30 4906 H 443.845 1.33964 7.44036 0
M  V30 4907 H 445.113 0.203755 7.79234 0
M  V30 4908 N 449.342 -1.36122 0.79427 0
M  V30 4909 C 450.252 -2.33769 0.197296 0
M  V30 4910 C 451.268 -1.61276 -0.653153 0
M  V30 4911 O 452.444 -1.9323 -0.5678 0
M  V30 4912 C 449.509 -3.40474 -0.654098 0
M  V30 4913 C 448.57 -4.28759 0.215411 0
M  V30 4914 C 447.803 -5.30368 -0.595443 0
M  V30 4915 O 448.026 -5.40211 -1.83107 0
M  V30 4916 O 446.96 -6.019 0.00721351 0
M  V30 4917 H 450.786 -2.86597 1.00478 0
M  V30 4918 H 448.371 -1.38676 0.555818 0
M  V30 4919 H 450.253 -4.05703 -1.13944 0
M  V30 4920 H 448.928 -2.89937 -1.43938 0
M  V30 4921 H 447.835 -3.66554 0.747615 0
M  V30 4922 H 449.168 -4.82661 0.964332 0
M  V30 4923 N 450.82 -0.546701 -1.47814 0
M  V30 4924 C 452.05 -0.0232519 -2.06587 0
M  V30 4925 C 452.458 1.2712 -1.40133 0
M  V30 4926 O 451.801 1.77091 -0.488305 0
M  V30 4927 C 451.863 0.254117 -3.58601 0
M  V30 4928 C 451.527 -0.949331 -4.47031 0
M  V30 4929 C 452.524 -1.85216 -4.85789 0
M  V30 4930 C 450.209 -1.16104 -4.88697 0
M  V30 4931 C 452.203 -2.95047 -5.65001 0
M  V30 4932 C 449.89 -2.26247 -5.67676 0
M  V30 4933 C 450.888 -3.1555 -6.05737 0
M  V30 4934 O 450.576 -4.23784 -6.83127 0
M  V30 4935 H 450.308 -0.0380082 -0.674931 0
M  V30 4936 H 452.862 -0.756631 -1.90956 0
M  V30 4937 H 451.092 1.04168 -3.72406 0
M  V30 4938 H 452.781 0.72167 -3.99433 0
M  V30 4939 H 453.547 -1.70061 -4.54207 0
M  V30 4940 H 449.426 -0.475159 -4.58545 0
M  V30 4941 H 452.97 -3.64778 -5.94628 0
M  V30 4942 H 448.867 -2.41379 -5.98671 0
M  V30 4943 H 449.635 -4.21701 -7.01506 0
M  V30 4944 N 452.299 1.55045 -0.282633 0
M  V30 4945 C 453.715 1.59441 0.0712997 0
M  V30 4946 C 453.915 1.2998 1.53972 0
M  V30 4947 O 452.971 1.06431 2.28973 0
M  V30 4948 C 454.284 2.99097 -0.310104 0
M  V30 4949 C 455.832 3.1194 -0.257343 0
M  V30 4950 C 456.307 4.53875 -0.613297 0
M  V30 4951 N 457.798 4.5974 -0.565134 0
M  V30 4952 C 458.533 5.67603 -0.81326 0
M  V30 4953 N 458.029 6.83582 -1.1264 0
M  V30 4954 N 459.822 5.57187 -0.741553 0
M  V30 4955 H 451.973 1.72458 -1.23984 0
M  V30 4956 H 454.236 0.804549 -0.501403 0
M  V30 4957 H 453.942 3.25516 -1.33163 0
M  V30 4958 H 453.816 3.75616 0.345366 0
M  V30 4959 H 456.203 2.85281 0.754905 0
M  V30 4960 H 456.284 2.37618 -0.947178 0
M  V30 4961 H 455.928 4.81261 -1.62327 0
M  V30 4962 H 455.858 5.26508 0.09841 0
M  V30 4963 H 458.349 3.76427 -0.333294 0
M  V30 4964 H 458.662 7.6175 -1.30219 0
M  V30 4965 H 457.007 6.85179 -1.16425 0
M  V30 4966 H 460.198 4.65457 -0.496705 0
M  V30 4967 H 460.371 6.41171 -0.938306 0
M  V30 4968 N 453.777 0.010035 1.57597 0
M  V30 4969 C 455.193 -0.346164 1.55801 0
M  V30 4970 C 455.393 -1.74144 1.01371 0
M  V30 4971 O 454.449 -2.43938 0.651968 0
M  V30 4972 C 455.762 -0.212216 2.9995 0
M  V30 4973 C 457.31 -0.286409 3.11687 0
M  V30 4974 C 457.785 -0.18147 4.5764 0
M  V30 4975 N 459.276 -0.239056 4.62583 0
M  V30 4976 C 460.011 -0.181351 5.73113 0
M  V30 4977 N 459.507 -0.073661 6.92761 0
M  V30 4978 N 461.3 -0.233949 5.61613 0
M  V30 4979 H 453.451 0.922657 1.91313 0
M  V30 4980 H 455.714 0.354595 0.879185 0
M  V30 4981 H 455.42 0.748169 3.4365 0
M  V30 4982 H 455.294 -0.990224 3.6397 0
M  V30 4983 H 457.681 -1.23724 2.67911 0
M  V30 4984 H 457.762 0.521645 2.50425 0
M  V30 4985 H 457.406 0.765863 5.02093 0
M  V30 4986 H 457.336 -1.00814 5.1686 0
M  V30 4987 H 459.827 -0.32321 3.76515 0
M  V30 4988 H 460.14 -0.0358003 7.72792 0
M  V30 4989 H 458.485 -0.0391461 6.94989 0
M  V30 4990 H 461.676 -0.316347 4.6703 0
M  V30 4991 H 461.849 -0.185514 6.47734 0
M  V30 4992 N 455.255 -1.55392 -0.262866 0
M  V30 4993 C 456.504 -1.75679 -0.990943 0
M  V30 4994 C 456.817 -0.57097 -1.87081 0
M  V30 4995 O 458.023 -0.656486 -2.63444 0
M  V30 4996 C 456.479 -3.10964 -1.81188 0
M  V30 4997 C 456.087 -4.37146 -0.980188 0
M  V30 4998 C 457.831 -3.40597 -2.53365 0
M  V30 4999 C 455.738 -5.63466 -1.7961 0
M  V30 5000 H 454.668 -0.654868 -0.373716 0
M  V30 5001 H 457.319 -1.81841 -0.246203 0
M  V30 5002 H 455.701 -2.98867 -2.59797 0
M  V30 5003 H 456.875 -4.60187 -0.237558 0
M  V30 5004 H 455.19 -4.14731 -0.372497 0
M  V30 5005 H 457.787 -4.32186 -3.14833 0
M  V30 5006 H 458.13 -2.6119 -3.24169 0
M  V30 5007 H 458.663 -3.53838 -1.81779 0
M  V30 5008 H 455.402 -6.4565 -1.13209 0
M  V30 5009 H 454.922 -5.44552 -2.51443 0
M  V30 5010 H 456.601 -6.02139 -2.36723 0
M  V30 5011 N 456.733 0.527833 -1.48498 0
M  V30 5012 C 457.982 1.28003 -1.55878 0
M  V30 5013 C 458.295 1.9414 -0.238577 0
M  V30 5014 O 459.501 2.7083 -0.190643 0
M  V30 5015 C 457.957 2.32272 -2.74914 0
M  V30 5016 C 457.565 1.72196 -4.13585 0
M  V30 5017 C 459.309 3.08488 -2.91608 0
M  V30 5018 C 457.216 2.74417 -5.23879 0
M  V30 5019 H 456.146 0.481413 -0.580308 0
M  V30 5020 H 458.797 0.557195 -1.74836 0
M  V30 5021 H 457.179 3.07601 -2.49395 0
M  V30 5022 H 458.353 1.03041 -4.49132 0
M  V30 5023 H 456.668 1.08464 -4.02025 0
M  V30 5024 H 459.265 3.84879 -3.71177 0
M  V30 5025 H 459.608 3.64481 -2.01145 0
M  V30 5026 H 460.141 2.40274 -3.17038 0
M  V30 5027 H 456.88 2.23242 -6.16314 0
M  V30 5028 H 456.4 3.41893 -4.92818 0
M  V30 5029 H 458.079 3.37362 -5.52083 0
M  V30 5030 N 458.211 1.37122 0.776871 0
M  V30 5031 C 459.457 1.32243 1.53752 0
M  V30 5032 C 459.79 -0.0944745 1.9397 0
M  V30 5033 O 459.065 -1.05068 1.6368 0
M  V30 5034 C 459.348 2.25681 2.80607 0
M  V30 5035 C 459.201 3.76127 2.46676 0
M  V30 5036 C 460.52 2.17657 3.82509 0
M  V30 5037 H 457.639 0.481704 0.557791 0
M  V30 5038 H 460.281 1.6778 0.891612 0
M  V30 5039 H 458.431 1.95505 3.35723 0
M  V30 5040 H 460.103 4.16877 1.97513 0
M  V30 5041 H 458.346 3.94946 1.79443 0
M  V30 5042 H 459.017 4.36933 3.37333 0
M  V30 5043 H 461.493 2.44245 3.36873 0
M  V30 5044 H 460.369 2.85185 4.69 0
M  V30 5045 H 460.63 1.16785 4.26396 0
M  V30 5046 N 459.689 -1.00246 1.21608 0
M  V30 5047 C 460.914 -1.78167 1.06167 0
M  V30 5048 C 461.339 -1.84138 -0.384035 0
M  V30 5049 O 460.697 -1.28683 -1.27712 0
M  V30 5050 C 460.745 -3.19786 1.66642 0
M  V30 5051 O 459.849 -4.02153 0.913613 0
M  V30 5052 H 459.19 -0.549 0.37349 0
M  V30 5053 H 461.72 -1.25994 1.61204 0
M  V30 5054 H 461.73 -3.70451 1.70969 0
M  V30 5055 H 460.405 -3.14754 2.7185 0
M  V30 5056 H 458.982 -3.60711 0.945635 0
M  V30 5057 N 461.167 -1.02423 -1.1978 0
M  V30 5058 C 462.097 -0.62157 -2.25075 0
M  V30 5059 C 463.078 0.367148 -1.6609 0
M  V30 5060 O 464.263 0.250892 -1.92573 0
M  V30 5061 C 461.393 0.0331826 -3.47284 0
M  V30 5062 C 460.347 -0.877323 -4.18912 0
M  V30 5063 C 459.673 -0.0879296 -5.34628 0
M  V30 5064 C 460.973 -2.18892 -4.74219 0
M  V30 5065 H 462.667 -1.50179 -2.59011 0
M  V30 5066 H 460.213 -0.723547 -1.24502 0
M  V30 5067 H 462.166 0.326488 -4.20133 0
M  V30 5068 H 460.89 0.948164 -3.12534 0
M  V30 5069 H 459.549 -1.15475 -3.47938 0
M  V30 5070 H 459.197 0.828941 -4.96123 0
M  V30 5071 H 458.897 -0.694359 -5.83483 0
M  V30 5072 H 460.421 0.198743 -6.10276 0
M  V30 5073 H 461.835 -1.95746 -5.38847 0
M  V30 5074 H 460.232 -2.74686 -5.33542 0
M  V30 5075 H 461.302 -2.84674 -3.92541 0
M  V30 5076 N 462.645 1.35699 -0.801477 0
M  V30 5077 C 463.885 2.00741 -0.385027 0
M  V30 5078 C 464.249 1.62213 1.02718 0
M  V30 5079 O 465.45 2.19936 1.54537 0
M  V30 5080 C 463.721 3.53032 -0.557057 0
M  V30 5081 S 465.28 4.38195 -0.230272 0
M  V30 5082 H 462.098 0.695748 -0.146477 0
M  V30 5083 H 464.7 1.65378 -1.04261 0
M  V30 5084 H 463.404 3.7856 -1.58494 0
M  V30 5085 H 462.935 3.93229 0.116029 0
M  V30 5086 H 464.95 4.86748 0.963895 0
M  V30 5087 N 464.123 0.554532 1.47522 0
M  V30 5088 C 465.351 0.034257 2.06872 0
M  V30 5089 C 465.766 -1.25826 1.40759 0
M  V30 5090 O 465.123 -1.75425 0.503217 0
M  V30 5091 C 465.174 -0.167827 3.6111 0
M  V30 5092 O 464.895 1.07351 4.24744 0
M  V30 5093 C 466.396 -0.72569 4.3732 0
M  V30 5094 H 463.616 0.0446275 0.669514 0
M  V30 5095 H 466.16 0.767181 1.89564 0
M  V30 5096 H 464.315 -0.850872 3.7794 0
M  V30 5097 H 464.729 0.869563 5.17242 0
M  V30 5098 H 466.203 -0.816394 5.45929 0
M  V30 5099 H 466.68 -1.73635 4.0342 0
M  V30 5100 H 467.286 -0.0784292 4.25228 0
M  V30 5101 N 465.601 -1.54893 0.290851 0
M  V30 5102 C 466.564 -2.21824 -0.576784 0
M  V30 5103 C 467.564 -1.20104 -1.06919 0
M  V30 5104 O 468.754 -1.44906 -0.966843 0
M  V30 5105 C 465.886 -2.89662 -1.79747 0
M  V30 5106 H 467.079 -2.99899 0.00784051 0
M  V30 5107 H 464.632 -1.56245 0.0415934 0
M  V30 5108 H 465.367 -2.15639 -2.42219 0
M  V30 5109 H 465.152 -3.64219 -1.45214 0
M  V30 5110 H 466.642 -3.4075 -2.4141 0
M  V30 5111 N 467.08 -0.0183926 -1.57589 0
M  V30 5112 C 468.496 0.337897 -1.55982 0
M  V30 5113 C 468.696 1.73604 -1.02294 0
M  V30 5114 O 467.752 2.43589 -0.664895 0
M  V30 5115 C 469.065 0.196305 -3.00059 0
M  V30 5116 C 470.613 0.269875 -3.11834 0
M  V30 5117 C 471.088 0.157197 -4.5773 0
M  V30 5118 N 472.579 0.214521 -4.62703 0
M  V30 5119 C 473.314 0.150955 -5.73201 0
M  V30 5120 N 472.81 0.0369212 -6.9279 0
M  V30 5121 N 474.603 0.204162 -5.61729 0
M  V30 5122 H 466.754 -0.93279 -1.90821 0
M  V30 5123 H 469.017 -0.359253 -0.877292 0
M  V30 5124 H 468.723 -0.766383 -3.43248 0
M  V30 5125 H 468.597 0.970908 -3.6449 0
M  V30 5126 H 470.984 1.22302 -2.68563 0
M  V30 5127 H 471.065 -0.534918 -2.50144 0
M  V30 5128 H 470.709 -0.792479 -5.01679 0
M  V30 5129 H 470.639 0.980717 -5.17387 0
M  V30 5130 H 473.13 0.303238 -3.76681 0
M  V30 5131 H 473.443 -0.00518321 -7.728 0
M  V30 5132 H 471.788 0.0022886 -6.95 0
M  V30 5133 H 474.979 0.291575 -4.67191 0
M  V30 5134 H 475.152 0.15116 -6.47824 0
M  V30 5135 N 468.558 1.5553 0.254621 0
M  V30 5136 C 469.804 1.77262 0.985193 0
M  V30 5137 C 470.137 0.582286 1.85265 0
M  V30 5138 O 469.412 -0.419666 1.89919 0
M  V30 5139 C 469.695 3.0881 1.85225 0
M  V30 5140 C 469.548 4.38233 1.0135 0
M  V30 5141 C 470.867 3.3653 2.83612 0
M  V30 5142 H 467.986 0.644906 0.356742 0
M  V30 5143 H 470.628 1.88264 0.256236 0
M  V30 5144 H 468.778 2.99562 2.47376 0
M  V30 5145 H 470.45 4.59463 0.411269 0
M  V30 5146 H 468.693 4.32636 0.317574 0
M  V30 5147 H 469.364 5.26644 1.65379 0
M  V30 5148 H 471.84 3.45691 2.31596 0
M  V30 5149 H 470.716 4.29805 3.41407 0
M  V30 5150 H 470.977 2.57064 3.59681 0
M  V30 5151 N 470.036 -0.519951 1.48776 0
M  V30 5152 C 471.283 -1.27522 1.57303 0
M  V30 5153 C 471.611 -1.92869 0.251328 0
M  V30 5154 O 470.866 -1.80372 -0.759243 0
M  V30 5155 C 471.165 -2.37864 2.6675 0
M  V30 5156 C 470.831 -1.90103 4.08867 0
M  V30 5157 C 469.493 -1.76795 4.47546 0
M  V30 5158 C 471.845 -1.54133 4.97888 0
M  V30 5159 C 469.173 -1.25868 5.73039 0
M  V30 5160 C 471.525 -1.04665 6.23881 0
M  V30 5161 C 470.189 -0.899823 6.61407 0
M  V30 5162 H 469.459 -0.466636 0.575614 0
M  V30 5163 H 472.106 -0.579109 1.82534 0
M  V30 5164 H 470.411 -3.13186 2.35418 0
M  V30 5165 H 472.108 -2.95969 2.70561 0
M  V30 5166 H 468.698 -2.01414 3.78326 0
M  V30 5167 H 472.882 -1.6327 4.68675 0
M  V30 5168 H 468.138 -1.13196 6.0083 0
M  V30 5169 H 472.312 -0.759074 6.92251 0
M  V30 5170 H 469.939 -0.503011 7.58534 0
M  V30 5171 N 471.514 -1.37532 -0.769588 0
M  V30 5172 C 472.761 -1.3286 -1.52822 0
M  V30 5173 C 473.089 0.0862597 -1.94309 0
M  V30 5174 O 472.344 1.05995 -1.6451 0
M  V30 5175 C 472.643 -2.21558 -2.8044 0
M  V30 5176 C 472.309 -3.69796 -2.57996 0
M  V30 5177 C 470.971 -4.10194 -2.51583 0
M  V30 5178 C 473.323 -4.63699 -2.37976 0
M  V30 5179 C 470.651 -5.42608 -2.23144 0
M  V30 5180 C 473.003 -5.96353 -2.1106 0
M  V30 5181 C 471.667 -6.35853 -2.03093 0
M  V30 5182 H 470.937 -0.486168 -0.559215 0
M  V30 5183 H 473.584 -1.69757 -0.886277 0
M  V30 5184 H 471.889 -1.77663 -3.49204 0
M  V30 5185 H 473.586 -2.15256 -3.38328 0
M  V30 5186 H 470.176 -3.37759 -2.63851 0
M  V30 5187 H 474.36 -4.33346 -2.41919 0
M  V30 5188 H 469.616 -5.72173 -2.15472 0
M  V30 5189 H 473.79 -6.68667 -1.94568 0
M  V30 5190 H 471.417 -7.38382 -1.8082 0
M  V30 5191 N 472.992 0.995999 -1.22138 0
M  V30 5192 C 474.238 1.73767 -1.04561 0
M  V30 5193 C 474.571 1.89633 0.418698 0
M  V30 5194 O 473.846 1.43723 1.3105 0
M  V30 5195 C 474.129 3.14505 -1.75382 0
M  V30 5196 C 473.982 3.06306 -3.29388 0
M  V30 5197 C 475.301 4.13615 -1.50369 0
M  V30 5198 H 472.42 0.630728 -0.38125 0
M  V30 5199 H 475.062 1.16057 -1.50435 0
M  V30 5200 H 473.212 3.63775 -1.36383 0
M  V30 5201 H 474.884 2.64681 -3.77812 0
M  V30 5202 H 473.127 2.43186 -3.59226 0
M  V30 5203 H 473.798 4.05884 -3.74116 0
M  V30 5204 H 476.274 3.73089 -1.84239 0
M  V30 5205 H 475.15 5.10212 -2.02421 0
M  V30 5206 H 475.411 4.39949 -0.435611 0
M  V30 5207 N 474.47 1.03057 1.19235 0
M  V30 5208 C 475.747 0.642608 1.84743 0
M  V30 5209 C 476.127 -0.878577 1.91948 0
M  V30 5210 O 475.475 -1.77597 1.43776 0
M  V30 5211 C 475.685 1.30665 3.23616 0
M  V30 5212 C 477.033 1.43098 3.9976 0
M  V30 5213 O 478.057 1.26396 3.3302 0
M  V30 5214 O 476.916 1.70223 5.19313 0
M  V30 5215 H 474.01 0.223573 0.796206 0
M  V30 5216 H 476.556 1.12883 1.26711 0
M  V30 5217 H 475.328 2.34544 3.13217 0
M  V30 5218 H 474.951 0.808405 3.89295 0
M  V30 5219 N 475.948 -1.35272 0.808662 0
M  V30 5220 C 477.173 -2.03477 0.401475 0
M  V30 5221 C 477.598 -1.60537 -0.980279 0
M  V30 5222 O 476.956 -0.78304 -1.63518 0
M  V30 5223 C 477.004 -3.57181 0.495354 0
M  V30 5224 O 476.108 -4.09474 -0.490397 0
M  V30 5225 H 475.449 -0.642561 0.167366 0
M  V30 5226 H 477.979 -1.72824 1.09512 0
M  V30 5227 H 477.989 -4.06356 0.365912 0
M  V30 5228 H 476.664 -3.87784 1.5032 0
M  V30 5229 H 475.241 -3.71516 -0.321023 0
M  V30 5230 N 477.426 -0.562348 -1.47226 0
M  V30 5231 C 478.651 -0.0432632 -2.07355 0
M  V30 5232 C 479.076 1.24332 -1.41149 0
M  V30 5233 O 478.434 1.74603 -0.488226 0
M  V30 5234 C 478.482 0.130288 -3.60365 0
M  V30 5235 O 477.586 1.19166 -3.94808 0
M  V30 5236 H 476.927 -0.0536334 -0.66183 0
M  V30 5237 H 479.457 -0.779495 -1.89169 0
M  V30 5238 H 479.467 0.342881 -4.06557 0
M  V30 5239 H 478.142 -0.809389 -4.07948 0
M  V30 5240 H 476.719 0.959153 -3.60354 0
M  V30 5241 N 478.904 1.54736 -0.299062 0
M  V30 5242 C 479.852 2.24897 0.593658 0
M  V30 5243 C 480.846 1.25429 1.13859 0
M  V30 5244 O 482.052 1.43286 1.08945 0
M  V30 5245 H 478.427 0.72207 0.210046 0
M  V30 5246 H 480.398 2.98393 -0.0206421 0
M  V30 5247 C 479.147 3.00159 1.75499 0
M  V30 5248 H 478.47 3.76501 1.34489 0
M  V30 5249 H 479.91 3.52535 2.35574 0
M  V30 5250 C 478.369 2.07015 2.65794 0
M  V30 5251 O 478.899 1.63692 3.66835 0
M  V30 5252 N 477.105 1.73012 2.33485 0
M  V30 5253 H 476.652 2.08439 1.51364 0
M  V30 5254 H 476.61 1.10965 2.94167 0
M  V30 5255 N 480.382 0.0267497 1.57577 0
M  V30 5256 C 481.659 -0.690926 1.82991 0
M  V30 5257 C 482.039 -1.90471 0.910164 0
M  V30 5258 O 481.387 -2.28474 -0.0347985 0
M  V30 5259 C 481.597 -1.07139 3.32148 0
M  V30 5260 C 482.945 -1.46402 3.98562 0
M  V30 5261 O 483.969 -1.16443 3.36629 0
M  V30 5262 O 482.828 -2.02214 5.07712 0
M  V30 5263 H 479.922 -0.338747 0.75444 0
M  V30 5264 H 482.468 0.0542506 1.69613 0
M  V30 5265 H 481.24 -0.207394 3.9075 0
M  V30 5266 H 480.863 -1.87481 3.50623 0
M  V30 5267 N 481.861 -1.55662 -0.24637 0
M  V30 5268 C 483.107 -1.77782 -0.975779 0
M  V30 5269 C 483.44 -0.592103 -1.84953 0
M  V30 5270 O 482.715 0.409588 -1.90138 0
M  V30 5271 C 482.998 -3.09788 -1.83584 0
M  V30 5272 C 482.851 -4.38764 -0.990241 0
M  V30 5273 C 484.17 -3.38029 -2.81823 0
M  V30 5274 H 481.289 -0.646789 -0.353317 0
M  V30 5275 H 483.931 -1.88398 -0.246248 0
M  V30 5276 H 482.081 -3.00869 -2.45784 0
M  V30 5277 H 483.753 -4.59675 -0.386897 0
M  V30 5278 H 481.996 -4.32798 -0.294626 0
M  V30 5279 H 482.667 -5.27514 -1.62584 0
M  V30 5280 H 485.143 -3.46915 -2.2976 0
M  V30 5281 H 484.019 -4.3161 -3.39122 0
M  V30 5282 H 484.28 -2.58968 -3.58313 0
M  V30 5283 N 483.339 0.512053 -1.4905 0
M  V30 5284 C 484.302 1.59704 -1.64399 0
M  V30 5285 C 485.302 1.52285 -0.516317 0
M  V30 5286 O 486.492 1.55635 -0.782527 0
M  V30 5287 C 483.624 2.9935 -1.63102 0
M  V30 5288 H 484.817 1.47428 -2.61161 0
M  V30 5289 H 482.37 0.735469 -1.37915 0
M  V30 5290 H 483.105 3.17116 -0.678836 0
M  V30 5291 H 482.89 3.06144 -2.44986 0
M  V30 5292 H 484.38 3.782 -1.77072 0
M  V30 5293 N 484.817 1.37938 0.762283 0
M  V30 5294 C 486.094 1.24196 1.51112 0
M  V30 5295 C 486.474 -0.160409 2.1049 0
M  V30 5296 O 485.822 -1.16904 1.96331 0
M  V30 5297 C 486.032 2.34537 2.58445 0
M  V30 5298 C 487.38 2.7254 3.25588 0
M  V30 5299 O 488.404 2.33783 2.68745 0
M  V30 5300 O 487.263 3.39343 4.28379 0
M  V30 5301 H 484.357 0.485175 0.669727 0
M  V30 5302 H 486.903 1.49743 0.798438 0
M  V30 5303 H 485.675 3.28406 2.12756 0
M  V30 5304 H 485.298 2.10505 3.37303 0
M  V30 5305 N 486.295 -0.989507 1.22664 0
M  V30 5306 C 487.711 -1.25395 0.987331 0
M  V30 5307 C 487.911 -1.9899 -0.317056 0
M  V30 5308 O 486.967 -2.30141 -1.03882 0
M  V30 5309 C 488.28 -2.06242 2.18826 0
M  V30 5310 C 489.828 -2.19413 2.23219 0
M  V30 5311 C 490.303 -3.03648 3.42873 0
M  V30 5312 N 491.794 -3.11234 3.43056 0
M  V30 5313 C 492.529 -3.7671 4.32293 0
M  V30 5314 N 492.025 -4.44085 5.31752 0
M  V30 5315 N 493.818 -3.73505 4.2006 0
M  V30 5316 H 485.969 -0.496212 2.06522 0
M  V30 5317 H 488.232 -0.281784 0.905153 0
M  V30 5318 H 487.938 -1.59531 3.13437 0
M  V30 5319 H 487.812 -3.06996 2.19165 0
M  V30 5320 H 490.199 -2.65336 1.29154 0
M  V30 5321 H 490.28 -1.18078 2.26917 0
M  V30 5322 H 489.924 -2.58424 4.37241 0
M  V30 5323 H 489.854 -4.05132 3.36416 0
M  V30 5324 H 492.345 -2.63287 2.71088 0
M  V30 5325 H 492.658 -4.91797 5.96117 0
M  V30 5326 H 491.003 -4.42822 5.35662 0
M  V30 5327 H 494.194 -3.20033 3.41609 0
M  V30 5328 H 494.367 -4.24253 4.8981 0
M  V30 5329 N 487.773 -1.03688 -1.18687 0
M  V30 5330 C 489.019 -0.739123 -1.88851 0
M  V30 5331 C 489.352 0.731042 -1.79915 0
M  V30 5332 O 488.627 1.53313 -1.19688 0
M  V30 5333 C 488.91 -1.20106 -3.3948 0
M  V30 5334 C 488.763 -2.73304 -3.57246 0
M  V30 5335 C 490.082 -0.788134 -4.32986 0
M  V30 5336 H 487.201 -0.269978 -0.68577 0
M  V30 5337 H 489.843 -1.28822 -1.3966 0
M  V30 5338 H 487.993 -0.733915 -3.81505 0
M  V30 5339 H 489.665 -3.28027 -3.24339 0
M  V30 5340 H 487.908 -3.13313 -3.00029 0
M  V30 5341 H 488.579 -3.00684 -4.62918 0
M  V30 5342 H 491.055 -1.19005 -3.98719 0
M  V30 5343 H 489.931 -1.13915 -5.36949 0
M  V30 5344 H 490.192 0.308988 -4.41019 0
M  V30 5345 N 489.251 1.34841 -0.815825 0
M  V30 5346 C 490.198 2.29644 -0.230664 0
M  V30 5347 C 491.168 1.53253 0.640533 0
M  V30 5348 O 492.353 1.81653 0.583672 0
M  V30 5349 C 489.493 3.39715 0.607275 0
M  V30 5350 C 488.606 4.31056 -0.28538 0
M  V30 5351 C 487.741 5.28225 0.561446 0
M  V30 5352 C 486.78 6.11204 -0.331035 0
M  V30 5353 N 485.917 7.00483 0.476302 0
M  V30 5354 H 490.757 2.79095 -1.0445 0
M  V30 5355 H 488.294 1.37351 -0.526595 0
M  V30 5356 H 490.252 4.02208 1.10835 0
M  V30 5357 H 488.882 2.91517 1.38629 0
M  V30 5358 H 487.934 3.69487 -0.904621 0
M  V30 5359 H 489.246 4.89239 -0.97193 0
M  V30 5360 H 488.4 5.96135 1.12728 0
M  V30 5361 H 487.139 4.70562 1.28153 0
M  V30 5362 H 486.144 5.42232 -0.909069 0
M  V30 5363 H 487.369 6.70947 -1.04912 0
M  V30 5364 H 485.315 6.45296 1.18019 0
M  V30 5365 H 485.232 7.55847 -0.152008 0
M  V30 5366 H 486.5 7.7273 1.02512 0
M  V30 5367 N 490.729 0.570148 1.46925 0
M  V30 5368 C 491.975 0.0593124 2.03314 0
M  V30 5369 C 492.33 -1.28139 1.43521 0
M  V30 5370 O 491.623 -1.82411 0.586245 0
M  V30 5371 C 491.817 -0.0780336 3.57315 0
M  V30 5372 C 491.646 1.2478 4.32042 0
M  V30 5373 C 490.416 1.81859 4.7144 0
M  V30 5374 C 492.614 2.16808 4.66368 0
M  V30 5375 N 490.596 3.08313 5.30864 0
M  V30 5376 C 491.967 3.27845 5.2623 0
M  V30 5377 C 494.022 2.16643 4.48297 0
M  V30 5378 C 492.725 4.38832 5.69929 0
M  V30 5379 C 494.751 3.26652 4.93004 0
M  V30 5380 C 494.113 4.36408 5.52926 0
M  V30 5381 H 490.212 0.0641804 0.779362 0
M  V30 5382 H 492.796 0.760285 1.79242 0
M  V30 5383 H 490.967 -0.748151 3.81126 0
M  V30 5384 H 492.699 -0.59211 4.00345 0
M  V30 5385 H 489.454 1.35502 4.53802 0
M  V30 5386 H 489.878 3.72802 5.65108 0
M  V30 5387 H 494.52 1.33065 4.01315 0
M  V30 5388 H 492.238 5.23162 6.15896 0
M  V30 5389 H 495.824 3.27627 4.80782 0
M  V30 5390 H 494.704 5.20127 5.86888 0
M  V30 5391 N 492.207 -1.54576 0.307264 0
M  V30 5392 C 493.154 -2.23751 -0.56604 0
M  V30 5393 C 494.124 -1.22235 -1.12462 0
M  V30 5394 O 495.309 -1.50873 -1.16799 0
M  V30 5395 C 492.449 -2.98661 -1.72903 0
M  V30 5396 C 491.562 -4.14963 -1.20124 0
M  V30 5397 C 490.697 -4.77441 -2.3286 0
M  V30 5398 C 489.736 -5.85875 -1.77247 0
M  V30 5399 N 488.873 -6.42282 -2.8358 0
M  V30 5400 H 493.713 -2.97984 0.0304578 0
M  V30 5401 H 491.25 -1.47076 0.0268015 0
M  V30 5402 H 493.208 -3.40329 -2.41313 0
M  V30 5403 H 491.838 -2.26793 -2.29706 0
M  V30 5404 H 490.89 -3.78193 -0.409198 0
M  V30 5405 H 492.202 -4.93066 -0.754171 0
M  V30 5406 H 491.356 -5.21993 -3.09205 0
M  V30 5407 H 490.095 -3.98684 -2.80896 0
M  V30 5408 H 489.1 -5.40741 -0.993926 0
M  V30 5409 H 490.325 -6.6652 -1.30107 0
M  V30 5410 H 488.271 -5.66406 -3.30939 0
M  V30 5411 H 488.188 -7.1575 -2.43388 0
M  V30 5412 H 489.456 -6.91492 -3.59804 0
M  V30 5413 N 493.685 -0.035106 -1.57561 0
M  V30 5414 C 495.096 0.502885 -1.798 0
M  V30 5415 C 495.447 1.71892 -0.945921 0
M  V30 5416 O 494.572 2.15822 -0.157991 0
M  V30 5417 C 495.167 0.919097 -3.26095 0
M  V30 5418 C 493.726 1.40216 -3.49308 0
M  V30 5419 C 492.873 0.369709 -2.74824 0
M  V30 5420 H 495.824 -0.261102 -1.56537 0
M  V30 5421 H 495.845 1.78308 -3.36135 0
M  V30 5422 H 495.357 0.0338526 -3.88085 0
M  V30 5423 H 493.458 2.30714 -2.92578 0
M  V30 5424 H 493.571 1.40541 -4.58023 0
M  V30 5425 H 491.935 0.839113 -2.40481 0
M  V30 5426 H 492.718 -0.507173 -3.39533 0
M  V30 5427 N 495.163 1.55791 0.238111 0
M  V30 5428 C 496.388 1.8244 0.986432 0
M  V30 5429 C 496.813 0.613314 1.7782 0
M  V30 5430 O 496.171 -0.437767 1.75935 0
M  V30 5431 C 496.219 3.06917 1.893 0
M  V30 5432 O 495.323 2.84449 2.98601 0
M  V30 5433 H 494.664 0.601975 0.280218 0
M  V30 5434 H 497.194 2.02987 0.256437 0
M  V30 5435 H 497.204 3.36583 2.30598 0
M  V30 5436 H 495.879 3.947 1.31091 0
M  V30 5437 H 494.456 2.65972 2.61368 0
M  V30 5438 N 496.642 -0.504142 1.49319 0
M  V30 5439 C 498.053 -1.08572 1.51885 0
M  V30 5440 C 498.404 -1.93842 0.303255 0
M  V30 5441 O 497.529 -2.0828 -0.58724 0
M  V30 5442 C 498.124 -1.97574 2.75227 0
M  V30 5443 C 496.683 -2.509 2.80581 0
M  V30 5444 C 495.83 -1.28447 2.45757 0
M  V30 5445 H 498.781 -0.288194 1.56061 0
M  V30 5446 H 498.802 -2.82219 2.55211 0
M  V30 5447 H 498.314 -1.35486 3.63683 0
M  V30 5448 H 496.415 -3.16636 1.96398 0
M  V30 5449 H 496.528 -2.88268 3.82673 0
M  V30 5450 H 494.892 -1.60868 1.97468 0
M  V30 5451 H 495.675 -0.68072 3.36483 0
M  V30 5452 N 498.12 -1.38341 -0.754957 0
M  V30 5453 C 499.05 -1.38176 -1.88227 0
M  V30 5454 C 500.031 -0.247873 -1.68284 0
M  V30 5455 O 501.216 -0.45075 -1.88896 0
M  V30 5456 C 498.346 -1.20471 -3.25736 0
M  V30 5457 C 497.3 -2.3105 -3.60278 0
M  V30 5458 C 496.626 -1.98452 -4.96509 0
M  V30 5459 C 497.926 -3.73305 -3.65295 0
M  V30 5460 H 499.62 -2.32512 -1.88622 0
M  V30 5461 H 497.166 -1.1192 -0.906082 0
M  V30 5462 H 499.119 -1.18982 -4.04254 0
M  V30 5463 H 497.843 -0.225965 -3.25817 0
M  V30 5464 H 496.502 -2.31723 -2.84078 0
M  V30 5465 H 496.15 -0.990641 -4.93148 0
M  V30 5466 H 495.85 -2.7251 -5.20588 0
M  V30 5467 H 497.374 -1.98578 -5.77407 0
M  V30 5468 H 498.788 -3.7467 -4.3393 0
M  V30 5469 H 497.185 -4.46557 -4.00883 0
M  V30 5470 H 498.255 -4.05719 -2.65556 0
M  V30 5471 N 499.598 0.982988 -1.23187 0
M  V30 5472 C 500.531 2.07302 -0.953993 0
M  V30 5473 C 501.509 1.62249 0.106753 0
M  V30 5474 O 502.693 1.88481 -0.0269525 0
M  V30 5475 C 499.82 3.35873 -0.436716 0
M  V30 5476 C 498.866 3.99862 -1.48367 0
M  V30 5477 S 499.699 4.39443 -3.06023 0
M  V30 5478 C 500.855 5.7117 -2.55959 0
M  V30 5479 H 501.088 2.30554 -1.87702 0
M  V30 5480 H 498.621 1.11883 -1.06403 0
M  V30 5481 H 500.579 4.10244 -0.144872 0
M  V30 5482 H 499.24 3.10634 0.465351 0
M  V30 5483 H 498.433 4.92471 -1.07182 0
M  V30 5484 H 498.035 3.31857 -1.72473 0
M  V30 5485 H 500.327 6.47977 -1.97818 0
M  V30 5486 H 501.27 6.17194 -3.47098 0
M  V30 5487 H 501.678 5.29046 -1.96902 0
M  V30 5488 N 501.076 1.04316 1.18135 0
M  V30 5489 C 502.304 0.768117 1.92113 0
M  V30 5490 C 502.719 -0.675057 1.76319 0
M  V30 5491 O 502.076 -1.46038 1.09449 0
M  V30 5492 C 502.127 1.12808 3.43448 0
M  V30 5493 O 501.848 2.5146 3.58747 0
M  V30 5494 C 503.349 0.8779 4.3452 0
M  V30 5495 H 500.569 0.279937 0.609817 0
M  V30 5496 H 503.113 1.39149 1.49859 0
M  V30 5497 H 501.268 0.549623 3.83481 0
M  V30 5498 H 501.682 2.65313 4.52448 0
M  V30 5499 H 503.156 1.17959 5.39249 0
M  V30 5500 H 503.633 -0.187239 4.38801 0
M  V30 5501 H 504.239 1.43977 4.00188 0
M  V30 5502 N 502.554 -1.34406 0.822964 0
M  V30 5503 C 503.502 -2.31428 0.233165 0
M  V30 5504 C 504.496 -1.57404 -0.626118 0
M  V30 5505 O 505.702 -1.72402 -0.517453 0
M  V30 5506 H 502.077 -0.749863 0.0566557 0
M  V30 5507 H 504.048 -2.78699 1.06628 0
M  V30 5508 C 502.797 -3.42653 -0.590264 0
M  V30 5509 H 502.12 -3.99753 0.0616129 0
M  V30 5510 H 503.56 -4.12778 -0.969054 0
M  V30 5511 C 502.019 -2.87112 -1.76262 0
M  V30 5512 O 502.549 -2.81995 -2.8608 0
M  V30 5513 N 500.755 -2.43934 -1.57938 0
M  V30 5514 H 500.302 -2.48296 -0.686078 0
M  V30 5515 H 500.26 -2.07123 -2.36532 0
M  V30 5516 N 504.032 -0.577932 -1.46621 0
M  V30 5517 C 504.98 0.170882 -2.31971 0
M  V30 5518 C 505.974 0.889086 -1.44193 0
M  V30 5519 O 507.18 0.808017 -1.60845 0
M  V30 5520 H 503.555 0.0739763 -0.748353 0
M  V30 5521 H 505.526 -0.567856 -2.92947 0
M  V30 5522 C 504.275 1.17438 -3.27267 0
M  V30 5523 H 503.598 0.63116 -3.94787 0
M  V30 5524 H 505.038 1.66882 -3.89778 0
M  V30 5525 C 503.497 2.23292 -2.52274 0
M  V30 5526 O 504.027 3.30567 -2.28229 0
M  V30 5527 N 502.233 1.97772 -2.12919 0
M  V30 5528 H 501.78 1.10545 -2.32675 0
M  V30 5529 H 501.738 2.68809 -1.63062 0
M  V30 5530 N 505.51 1.54411 -0.315457 0
M  V30 5531 C 506.458 2.25514 0.569771 0
M  V30 5532 C 507.452 1.2663 1.12522 0
M  V30 5533 O 508.658 1.44434 1.07419 0
M  V30 5534 H 505.033 0.724257 0.202376 0
M  V30 5535 H 507.004 2.98354 -0.0522895 0
M  V30 5536 C 505.753 3.02004 1.72305 0
M  V30 5537 H 505.076 3.77906 1.30488 0
M  V30 5538 H 506.516 3.55014 2.31821 0
M  V30 5539 C 504.975 2.09822 2.63583 0
M  V30 5540 O 505.505 1.67574 3.65078 0
M  V30 5541 N 503.711 1.75478 2.31637 0
M  V30 5542 H 503.258 2.10032 1.49145 0
M  V30 5543 H 503.216 1.14079 2.92973 0
M  V30 5544 N 506.988 0.0434614 1.5754 0
M  V30 5545 C 508.234 -0.632971 1.92669 0
M  V30 5546 C 508.567 -1.70947 0.921446 0
M  V30 5547 O 507.842 -1.94426 -0.0537202 0
M  V30 5548 C 508.125 -1.23619 3.38216 0
M  V30 5549 C 507.978 -0.168274 4.49485 0
M  V30 5550 C 509.297 -2.15008 3.84005 0
M  V30 5551 H 506.416 -0.228629 0.700641 0
M  V30 5552 H 509.058 0.103651 1.89717 0
M  V30 5553 H 507.208 -1.864 3.40863 0
M  V30 5554 H 508.88 0.463196 4.58969 0
M  V30 5555 H 507.123 0.504581 4.30855 0
M  V30 5556 H 507.794 -0.630218 5.48391 0
M  V30 5557 H 510.27 -1.62198 3.83185 0
M  V30 5558 H 509.146 -2.54161 4.86511 0
M  V30 5559 H 509.407 -3.04707 3.20322 0
M  V30 5560 N 508.466 -1.55915 -0.229846 0
M  V30 5561 C 509.712 -1.78807 -0.956868 0
M  V30 5562 C 510.045 -0.611687 -1.84315 0
M  V30 5563 O 509.32 0.389398 -1.90562 0
M  V30 5564 C 509.603 -3.11718 -1.80288 0
M  V30 5565 C 509.456 -4.3979 -0.943649 0
M  V30 5566 C 510.775 -3.40999 -2.78222 0
M  V30 5567 H 507.894 -0.6505 -0.346437 0
M  V30 5568 H 510.536 -1.88648 -0.226252 0
M  V30 5569 H 508.686 -3.03459 -2.42579 0
M  V30 5570 H 510.358 -4.60059 -0.338121 0
M  V30 5571 H 508.601 -4.33086 -0.248705 0
M  V30 5572 H 509.272 -5.29208 -1.5698 0
M  V30 5573 H 511.748 -3.49332 -2.26067 0
M  V30 5574 H 510.624 -4.35183 -3.34526 0
M  V30 5575 H 510.885 -2.62754 -3.55546 0
M  V30 5576 N 509.944 0.496216 -1.49584 0
M  V30 5577 C 510.891 1.59722 -1.66606 0
M  V30 5578 C 511.861 1.58158 -0.507477 0
M  V30 5579 O 513.046 1.76072 -0.735076 0
M  V30 5580 C 510.186 2.97844 -1.74308 0
M  V30 5581 C 509.299 3.09388 -3.01502 0
M  V30 5582 C 508.434 4.38271 -3.00153 0
M  V30 5583 C 507.473 4.43466 -4.21906 0
M  V30 5584 N 506.61 5.63784 -4.1844 0
M  V30 5585 H 511.45 1.44515 -2.60613 0
M  V30 5586 H 508.987 0.703048 -1.29212 0
M  V30 5587 H 510.945 3.77907 -1.76754 0
M  V30 5588 H 509.575 3.11743 -0.837619 0
M  V30 5589 H 508.627 2.22357 -3.08645 0
M  V30 5590 H 509.939 3.09085 -3.91494 0
M  V30 5591 H 509.093 5.2666 -3.01188 0
M  V30 5592 H 507.832 4.41146 -2.07947 0
M  V30 5593 H 506.837 3.53478 -4.21109 0
M  V30 5594 H 508.062 4.42303 -5.1531 0
M  V30 5595 H 506.008 5.67491 -3.29074 0
M  V30 5596 H 505.925 5.65118 -5.02173 0
M  V30 5597 H 507.193 6.54367 -4.23585 0
M  V30 5598 N 511.423 1.38739 0.74761 0
M  V30 5599 C 512.669 1.35475 1.50912 0
M  V30 5600 C 513.002 -0.0533093 1.94127 0
M  V30 5601 O 512.277 -1.01572 1.65871 0
M  V30 5602 C 512.56 2.31582 2.75757 0
M  V30 5603 C 512.413 3.81274 2.38642 0
M  V30 5604 C 513.732 2.25722 3.77806 0
M  V30 5605 H 510.851 0.493427 0.547447 0
M  V30 5606 H 513.493 1.69634 0.855823 0
M  V30 5607 H 511.643 2.02582 3.31501 0
M  V30 5608 H 513.315 4.20972 1.88626 0
M  V30 5609 H 511.558 3.98664 1.71025 0
M  V30 5610 H 512.229 4.4399 3.27989 0
M  V30 5611 H 514.705 2.51336 3.31616 0
M  V30 5612 H 513.581 2.95069 4.62845 0
M  V30 5613 H 513.842 1.25803 4.23823 0
M  V30 5614 N 512.901 -0.976442 1.23707 0
M  V30 5615 C 514.178 -1.69296 0.979699 0
M  V30 5616 C 514.558 -2.0508 -0.500555 0
M  V30 5617 O 513.906 -1.74708 -1.47273 0
M  V30 5618 C 514.116 -2.93143 1.89389 0
M  V30 5619 C 515.464 -3.65572 2.15968 0
M  V30 5620 O 516.488 -3.03184 1.86971 0
M  V30 5621 O 515.347 -4.77859 2.65167 0
M  V30 5622 H 512.441 -0.739708 0.369812 0
M  V30 5623 H 514.987 -1.03131 1.34767 0
M  V30 5624 H 513.759 -2.63327 2.89439 0
M  V30 5625 H 513.382 -3.67044 1.52854 0
M  V30 5626 N 514.379 -1.04941 -1.1758 0
M  V30 5627 C 515.604 -0.778253 -1.92245 0
M  V30 5628 C 516.029 0.659707 -1.76152 0
M  V30 5629 O 515.387 1.45803 -1.07755 0
M  V30 5630 C 515.435 -1.16051 -3.41416 0
M  V30 5631 O 514.539 -0.291153 -4.11371 0
M  V30 5632 H 513.88 -0.285619 -0.599431 0
M  V30 5633 H 516.41 -1.40159 -1.49052 0
M  V30 5634 H 516.42 -1.12619 -3.92149 0
M  V30 5635 H 515.095 -2.208 -3.52449 0
M  V30 5636 H 513.672 -0.385851 -3.70898 0
M  V30 5637 N 515.857 1.33968 -0.830081 0
M  V30 5638 C 517.103 1.98357 -0.422191 0
M  V30 5639 C 517.436 1.65633 1.01387 0
M  V30 5640 O 516.711 0.931648 1.70735 0
M  V30 5641 C 516.994 3.54492 -0.633043 0
M  V30 5642 C 516.847 3.96934 -2.11574 0
M  V30 5643 C 518.166 4.40039 -0.0735584 0
M  V30 5644 H 515.285 0.720544 -0.154871 0
M  V30 5645 H 517.927 1.58749 -1.04397 0
M  V30 5646 H 516.077 3.88361 -0.103775 0
M  V30 5647 H 517.749 3.73363 -2.7092 0
M  V30 5648 H 515.992 3.46984 -2.60354 0
M  V30 5649 H 516.663 5.05651 -2.21406 0
M  V30 5650 H 519.139 4.12764 -0.52585 0
M  V30 5651 H 518.015 5.48327 -0.250841 0
M  V30 5652 H 518.276 4.30124 1.02202 0
M  V30 5653 O 517.374 0.726383 1.44243 0
M  V30 5654 H 518.065 0.275111 1.91736 0
M  V30 END ATOM
M  V30 BEGIN BOND
M  V30 END BOND
M  V30 END CTAB
M  END
$$$$
