drugbank_target|P48061 Stromal cell-derived factor 1 (DB05934; DB06822)
 OpenBabel12092119483D

  0  0  0     0  0            999 V3000
M  V30 BEGIN CTAB
M  V30 COUNTS 1552 1564 0 0 0
M  V30 BEGIN ATOM
M  V30 1 H -0.908 1.98254 -0.117106 0
M  V30 2 N 0 1.576 0 0
M  V30 3 C 0.933 2.03868 1.02534 0
M  V30 4 C 1.911 0.928543 1.3348 0
M  V30 5 O 3.095 1.19667 1.45644 0
M  V30 6 C 0.222 2.43627 2.35294 0
M  V30 7 C -0.732 3.65373 2.2001 0
M  V30 8 S 0.101 5.13292 1.52614 0
M  V30 9 C 1.257 5.56322 2.86805 0
M  V30 10 H 1.49 2.90518 0.631377 0
M  V30 11 H -0.977 1.52953 0.210867 0
M  V30 12 H 0.981 2.67203 3.11629 0
M  V30 13 H -0.358 1.57376 2.7183 0
M  V30 14 H -1.165 3.90944 3.18086 0
M  V30 15 H -1.563 3.418 1.51819 0
M  V30 16 H 0.729 5.58782 3.83104 0
M  V30 17 H 1.672 6.56266 2.65933 0
M  V30 18 H 2.08 4.83886 2.90714 0
M  V30 19 N 1.4781 -0.272755 1.55222 0
M  V30 20 C 2.4261 -1.35705 1.88909 0
M  V30 21 C 3.4201 -1.5112 0.765456 0
M  V30 22 O 4.6261 -1.52901 0.949802 0
M  V30 23 H 1.0011 -0.453868 0.59959 0
M  V30 24 H 2.9721 -1.04544 2.79487 0
M  V30 25 C 1.7211 -2.71049 2.17779 0
M  V30 26 H 1.0441 -2.59979 3.03728 0
M  V30 27 H 2.4841 -3.45858 2.45272 0
M  V30 28 C 0.9431 -3.22165 0.985473 0
M  V30 29 O 1.4731 -4.01096 0.220233 0
M  V30 30 N -0.3209 -2.7985 0.783108 0
M  V30 31 H -0.7739 -2.15775 1.40708 0
M  V30 32 H -0.8159 -3.14397 -0.0130392 0
M  V30 33 N 2.9562 -1.48159 -0.537278 0
M  V30 34 C 3.9192 -1.61665 -1.62472 0
M  V30 35 C 4.9192 -0.490395 -1.5314 0
M  V30 36 O 6.1092 -0.755998 -1.5694 0
M  V30 37 C 3.2412 -1.57997 -3.02076 0
M  V30 38 H 4.4342 -2.58621 -1.51839 0
M  V30 39 H 1.9872 -1.36647 -0.758771 0
M  V30 40 H 2.7222 -0.624913 -3.18222 0
M  V30 41 H 2.5072 -2.39755 -3.10258 0
M  V30 42 H 3.9972 -1.70627 -3.81151 0
M  V30 43 N 4.4343 0.785586 -1.36625 0
M  V30 44 C 5.3813 1.89838 -1.31264 0
M  V30 45 C 6.3513 1.65115 -0.180633 0
M  V30 46 O 7.5363 1.87222 -0.36777 0
M  V30 47 C 4.6763 3.26706 -1.11163 0
M  V30 48 C 3.7893 3.63476 -2.33472 0
M  V30 49 C 2.9243 4.89481 -2.06353 0
M  V30 50 C 1.9633 5.18941 -3.24602 0
M  V30 51 N 1.1003 6.36131 -2.97123 0
M  V30 52 H 5.9403 1.93756 -2.26413 0
M  V30 53 H 3.4773 0.947454 -1.12524 0
M  V30 54 H 5.4353 4.05639 -0.975337 0
M  V30 55 H 4.0653 3.222 -0.196674 0
M  V30 56 H 3.1173 2.79636 -2.57891 0
M  V30 57 H 4.4293 3.81193 -3.21704 0
M  V30 58 H 3.5833 5.76288 -1.89675 0
M  V30 59 H 2.3223 4.73841 -1.15437 0
M  V30 60 H 1.3273 4.30615 -3.41834 0
M  V30 61 H 2.5523 5.36498 -4.16349 0
M  V30 62 H 0.4983 6.21875 -2.08823 0
M  V30 63 H 0.4153 6.54198 -3.78894 0
M  V30 64 H 1.6833 7.2591 -2.84033 0
M  V30 65 N 5.9124 1.20967 1.01018 0
M  V30 66 C 7.1584 1.02526 1.74975 0
M  V30 67 C 7.4914 -0.4408 1.89131 0
M  V30 68 O 6.7664 -1.32718 1.42184 0
M  V30 69 C 7.0494 1.71699 3.1653 0
M  V30 70 C 6.9024 3.25791 3.10129 0
M  V30 71 C 8.2214 1.45531 4.15342 0
M  V30 72 H 5.3404 0.373863 0.635134 0
M  V30 73 H 7.9824 1.49071 1.17805 0
M  V30 74 H 6.1324 1.32128 3.65341 0
M  V30 75 H 7.8044 3.74697 2.69072 0
M  V30 76 H 6.0474 3.56363 2.47362 0
M  V30 77 H 6.7184 3.69353 4.10222 0
M  V30 78 H 9.1944 1.79872 3.75213 0
M  V30 79 H 8.0704 1.96453 5.1254 0
M  V30 80 H 8.3314 0.384237 4.40427 0
M  V30 81 N 7.3905 -1.2043 1.01659 0
M  V30 82 C 8.6365 -1.90079 0.706963 0
M  V30 83 C 8.9695 -1.78648 -0.761474 0
M  V30 84 O 8.2445 -1.17069 -1.55323 0
M  V30 85 C 8.5275 -3.41469 1.14327 0
M  V30 86 C 8.3805 -3.61833 2.67201 0
M  V30 87 C 9.6995 -4.34261 0.714529 0
M  V30 88 H 6.8185 -0.690254 0.2583 0
M  V30 89 H 9.4605 -1.41826 1.26433 0
M  V30 90 H 7.6105 -3.82696 0.669056 0
M  V30 91 H 9.2825 -3.2986 3.22475 0
M  V30 92 H 7.5255 -3.05304 3.08175 0
M  V30 93 H 8.1965 -4.67955 2.92783 0
M  V30 94 H 10.6725 -4.00682 1.12221 0
M  V30 95 H 9.5485 -5.38806 1.04784 0
M  V30 96 H 9.8095 -4.40431 -0.383799 0
M  V30 97 N 8.8686 -0.792821 -1.36206 0
M  V30 98 C 10.1146 -0.36733 -1.99446 0
M  V30 99 C 10.4476 1.05917 -1.62774 0
M  V30 100 O 9.7226 1.7324 -0.88421 0
M  V30 101 C 10.0056 -0.535044 -3.56103 0
M  V30 102 C 9.8586 -2.00548 -4.02617 0
M  V30 103 C 11.1776 0.0478191 -4.40074 0
M  V30 104 H 8.2966 -0.134941 -0.724541 0
M  V30 105 H 10.9386 -0.999794 -1.61568 0
M  V30 106 H 9.0886 0.00336329 -3.885 0
M  V30 107 H 10.7606 -2.60521 -3.80692 0
M  V30 108 H 9.0036 -2.50686 -3.54032 0
M  V30 109 H 9.6746 -2.07377 -5.11565 0
M  V30 110 H 12.1506 -0.411822 -4.14057 0
M  V30 111 H 11.0266 -0.0995336 -5.4881 0
M  V30 112 H 11.2876 1.14025 -4.27142 0
M  V30 113 N 10.3467 1.47872 -0.545128 0
M  V30 114 C 11.5927 2.02793 -0.0166104 0
M  V30 115 C 11.9257 1.41987 1.32489 0
M  V30 116 O 11.2007 0.571045 1.85928 0
M  V30 117 C 11.4837 3.59989 0.0893294 0
M  V30 118 C 11.3367 4.3125 -1.27841 0
M  V30 119 C 12.6557 4.32606 0.808724 0
M  V30 120 H 9.7747 0.736962 -0.00751035 0
M  V30 121 H 12.4167 1.76433 -0.705085 0
M  V30 122 H 10.5667 3.82579 0.675681 0
M  V30 123 H 12.2387 4.20035 -1.90704 0
M  V30 124 H 10.4817 3.92076 -1.85632 0
M  V30 125 H 11.1527 5.39736 -1.15713 0
M  V30 126 H 13.6287 4.14936 0.310992 0
M  V30 127 H 12.5047 5.42251 0.851782 0
M  V30 128 H 12.7657 4.00963 1.86229 0
M  V30 129 N 11.8248 0.280983 1.55075 0
M  V30 130 C 12.7548 -0.597469 2.25727 0
M  V30 131 C 13.7358 -1.15417 1.24952 0
M  V30 132 O 14.9208 -1.18722 1.53684 0
M  V30 133 C 12.0508 -1.7789 2.98283 0
M  V30 134 C 11.0048 -1.35347 4.06036 0
M  V30 135 C 10.3308 -2.61846 4.66198 0
M  V30 136 C 11.6308 -0.499354 5.19907 0
M  V30 137 H 13.3248 -0.00824265 2.99399 0
M  V30 138 H 10.8708 -0.0025244 1.44 0
M  V30 139 H 12.8238 -2.39937 3.46422 0
M  V30 140 H 11.5478 -2.39405 2.22155 0
M  V30 141 H 10.2068 -0.756156 3.58717 0
M  V30 142 H 9.8548 -3.21632 3.86732 0
M  V30 143 H 9.5548 -2.3409 5.38958 0
M  V30 144 H 11.0788 -3.24732 5.1709 0
M  V30 145 H 12.4928 -1.02498 5.64063 0
M  V30 146 H 10.8898 -0.316424 5.99265 0
M  V30 147 H 11.9598 0.480459 4.82514 0
M  V30 148 N 13.3029 -1.57598 0.00835791 0
M  V30 149 C 14.5489 -1.91211 -0.675732 0
M  V30 150 C 14.8819 -0.883139 -1.72958 0
M  V30 151 O 14.1569 0.097016 -1.94258 0
M  V30 152 C 14.4399 -3.35379 -1.31123 0
M  V30 153 C 14.2929 -4.48999 -0.268356 0
M  V30 154 C 15.6119 -3.7912 -2.23508 0
M  V30 155 H 12.7309 -0.695374 -0.244179 0
M  V30 156 H 15.3729 -1.89901 0.0613655 0
M  V30 157 H 13.5229 -3.36626 -1.93946 0
M  V30 158 H 15.1949 -4.59887 0.360844 0
M  V30 159 H 13.4379 -4.31873 0.408482 0
M  V30 160 H 14.1089 -5.46851 -0.752218 0
M  V30 161 H 16.5849 -3.79477 -1.70693 0
M  V30 162 H 15.4609 -4.80729 -2.64936 0
M  V30 163 H 15.7219 -3.13455 -3.11766 0
M  V30 164 N 14.781 0.264519 -1.55364 0
M  V30 165 C 15.711 1.33121 -1.91836 0
M  V30 166 C 16.692 1.51101 -0.781192 0
M  V30 167 O 17.877 1.64003 -1.04003 0
M  V30 168 C 15.007 2.68921 -2.19769 0
M  V30 169 C 13.961 2.65661 -3.35571 0
M  V30 170 C 13.287 4.05093 -3.49004 0
M  V30 171 C 14.587 2.24187 -4.71739 0
M  V30 172 H 16.281 1.02844 -2.81182 0
M  V30 173 H 13.827 0.493286 -1.35287 0
M  V30 174 H 15.78 3.43663 -2.43872 0
M  V30 175 H 14.504 3.00799 -1.27231 0
M  V30 176 H 13.163 1.93377 -3.1145 0
M  V30 177 H 12.811 4.34206 -2.53917 0
M  V30 178 H 12.511 4.03804 -4.26868 0
M  V30 179 H 14.035 4.81561 -3.75408 0
M  V30 180 H 15.449 2.88654 -4.9533 0
M  V30 181 H 13.846 2.34044 -5.52579 0
M  V30 182 H 14.916 1.19327 -4.69988 0
M  V30 183 N 16.2591 1.48442 0.529413 0
M  V30 184 C 17.5051 1.5672 1.28711 0
M  V30 185 C 17.8381 0.2406 1.92704 0
M  V30 186 O 17.1131 -0.753454 1.79313 0
M  V30 187 C 17.3961 2.70587 2.37603 0
M  V30 188 C 17.2491 4.12953 1.78297 0
M  V30 189 C 18.5681 2.80212 3.39366 0
M  V30 190 H 15.6871 0.570474 0.466613 0
M  V30 191 H 18.3291 1.80617 0.589706 0
M  V30 192 H 16.4791 2.50342 2.97088 0
M  V30 193 H 18.1511 4.44639 1.22858 0
M  V30 194 H 16.3941 4.19927 1.0883 0
M  V30 195 H 17.0651 4.88448 2.57144 0
M  V30 196 H 19.5411 2.98553 2.89836 0
M  V30 197 H 18.4171 3.61611 4.12951 0
M  V30 198 H 18.6781 1.88393 3.99951 0
M  V30 199 N 17.7372 -0.778329 1.37039 0
M  V30 200 C 18.6672 -1.90546 1.34962 0
M  V30 201 C 19.6482 -1.68681 0.219274 0
M  V30 202 O 20.8332 -1.89634 0.418624 0
M  V30 203 C 17.9632 -3.27734 1.14925 0
M  V30 204 C 16.9172 -3.64147 2.24902 0
M  V30 205 C 16.2432 -4.99806 1.89996 0
M  V30 206 C 17.5432 -3.71579 3.67051 0
M  V30 207 H 19.2372 -1.92541 2.29277 0
M  V30 208 H 16.7832 -0.924948 1.10366 0
M  V30 209 H 18.7362 -4.06215 1.12104 0
M  V30 210 H 17.4602 -3.26154 0.170631 0
M  V30 211 H 16.1192 -2.8797 2.26868 0
M  V30 212 H 15.7672 -4.94759 0.906796 0
M  V30 213 H 15.4672 -5.25139 2.63634 0
M  V30 214 H 16.9912 -5.80694 1.88749 0
M  V30 215 H 18.4052 -4.40227 3.67251 0
M  V30 216 H 16.8022 -4.08405 4.39688 0
M  V30 217 H 17.8722 -2.72404 4.01154 0
M  V30 218 N 19.2153 -1.21501 -1.00376 0
M  V30 219 C 20.4433 -1.059 -1.77744 0
M  V30 220 C 20.8583 0.391125 -1.84704 0
M  V30 221 O 20.2153 1.27133 -1.30933 0
M  V30 222 C 20.2663 -1.65111 -3.21591 0
M  V30 223 O 19.9873 -3.0445 -3.15027 0
M  V30 224 C 21.4883 -1.54637 -4.15454 0
M  V30 225 H 18.7083 -0.371825 -0.558558 0
M  V30 226 H 21.2523 -1.60865 -1.26264 0
M  V30 227 H 19.4073 -1.14235 -3.70175 0
M  V30 228 H 19.8213 -3.3278 -4.0541 0
M  V30 229 H 21.2953 -2.00808 -5.14179 0
M  V30 230 H 21.7723 -0.501022 -4.36333 0
M  V30 231 H 22.3783 -2.04767 -3.72761 0
M  V30 232 N 20.6934 1.19889 -1.02296 0
M  V30 233 C 21.6564 2.21116 -0.603351 0
M  V30 234 C 22.6564 1.5738 0.329884 0
M  V30 235 O 23.8464 1.73802 0.117702 0
M  V30 236 C 20.9784 3.40696 0.117992 0
M  V30 237 H 22.1714 2.59754 -1.49893 0
M  V30 238 H 19.7244 1.33463 -0.813468 0
M  V30 239 H 20.4594 3.07569 1.0282 0
M  V30 240 H 20.2444 3.88188 -0.552511 0
M  V30 241 H 21.7344 4.15692 0.398696 0
M  V30 242 N 22.1715 0.800033 1.35784 0
M  V30 243 C 23.1015 0.220184 2.3246 0
M  V30 244 C 24.0825 -0.65073 1.57161 0
M  V30 245 O 25.2675 -0.582359 1.85263 0
M  V30 246 C 22.3975 -0.637353 3.41402 0
M  V30 247 C 21.3515 0.134531 4.27789 0
M  V30 248 C 20.6775 -0.844285 5.27992 0
M  V30 249 C 21.9775 1.32979 5.05088 0
M  V30 250 H 23.6715 1.02787 2.81203 0
M  V30 251 H 21.2175 0.495717 1.35199 0
M  V30 252 H 23.1705 -1.05302 4.08031 0
M  V30 253 H 21.8945 -1.47785 2.91251 0
M  V30 254 H 20.5535 0.531296 3.6273 0
M  V30 255 H 20.2015 -1.68011 4.74111 0
M  V30 256 H 19.9015 -0.332184 5.8666 0
M  V30 257 H 21.4255 -1.2583 5.97494 0
M  V30 258 H 22.8395 0.98934 5.64699 0
M  V30 259 H 21.2365 1.77593 5.7322 0
M  V30 260 H 22.3065 2.11978 4.36111 0
M  V30 261 N 23.6496 -1.47581 0.552962 0
M  V30 262 C 24.8896 -2.04379 0.0296245 0
M  V30 263 C 25.2536 -1.4185 -1.29393 0
M  V30 264 O 26.4546 -1.89669 -1.90471 0
M  V30 265 C 24.7256 -3.57339 -0.0661371 0
M  V30 266 S 26.2846 -4.35511 -0.536213 0
M  V30 267 H 23.1026 -0.710625 0.0230991 0
M  V30 268 H 25.7046 -1.81005 0.738734 0
M  V30 269 H 24.4086 -4.00374 0.901596 0
M  V30 270 H 23.9396 -3.85202 -0.798931 0
M  V30 271 H 25.9546 -4.6253 -1.79668 0
M  V30 272 N 25.1277 -0.289203 -1.54924 0
M  V30 273 C 26.0577 0.58549 -2.2604 0
M  V30 274 C 27.0387 1.14753 -1.25562 0
M  V30 275 O 28.2237 1.17906 -1.54311 0
M  V30 276 C 25.3537 1.76305 -2.99222 0
M  V30 277 C 24.3077 1.33191 -4.06748 0
M  V30 278 C 23.6337 2.5937 -4.6758 0
M  V30 279 C 24.9337 0.471775 -5.20165 0
M  V30 280 H 26.6277 -0.00763532 -2.99399 0
M  V30 281 H 24.1737 -0.00511229 -1.43999 0
M  V30 282 H 26.1267 2.38097 -3.47689 0
M  V30 283 H 24.8507 2.38223 -2.23422 0
M  V30 284 H 23.5097 0.737121 -3.59113 0
M  V30 285 H 23.1577 3.19576 -3.88433 0
M  V30 286 H 22.8577 2.31228 -5.40192 0
M  V30 287 H 24.3817 3.21985 -5.18804 0
M  V30 288 H 25.7957 0.995056 -5.64599 0
M  V30 289 H 24.1927 0.284639 -5.99425 0
M  V30 290 H 25.2627 -0.506041 -4.82252 0
M  V30 291 N 26.6058 1.57591 -0.0167156 0
M  V30 292 C 27.8308 1.9598 0.67872 0
M  V30 293 C 28.2558 0.892546 1.65575 0
M  V30 294 O 27.6138 -0.147772 1.80697 0
M  V30 295 C 27.6618 3.33468 1.37227 0
M  V30 296 O 26.7658 3.28954 2.48722 0
M  V30 297 H 26.1068 0.639339 0.17928 0
M  V30 298 H 28.6368 2.04463 -0.0748802 0
M  V30 299 H 28.6468 3.69417 1.7319 0
M  V30 300 H 27.3218 4.10694 0.656007 0
M  V30 301 H 25.8988 3.04705 2.14963 0
M  V30 302 N 28.0839 -0.256276 1.55502 0
M  V30 303 C 29.3609 -1.00789 1.67633 0
M  V30 304 C 29.7409 -2.03706 0.553826 0
M  V30 305 O 29.0889 -2.24145 -0.443969 0
M  V30 306 C 29.2989 -1.64968 3.07549 0
M  V30 307 C 30.6469 -2.15505 3.65845 0
M  V30 308 O 31.6709 -1.74925 3.1029 0
M  V30 309 O 30.5299 -2.89986 4.63217 0
M  V30 310 H 27.6239 -0.468553 0.681459 0
M  V30 311 H 30.1699 -0.250806 1.67836 0
M  V30 312 H 28.9419 -0.904785 3.80696 0
M  V30 313 H 28.5649 -2.47321 3.11317 0
M  V30 314 N 29.562 -1.4872 -0.521534 0
M  V30 315 C 30.81 -1.56857 -1.27437 0
M  V30 316 C 31.131 -0.247982 -1.93417 0
M  V30 317 O 30.401 0.731151 -1.81744 0
M  V30 318 H 28.981 -0.577885 -0.473347 0
M  V30 319 H 31.643 -1.85233 -0.606205 0
M  V30 320 H 30.739 -2.35402 -2.0492 0
M  V30 321 N 31.0401 0.771051 -1.3745 0
M  V30 322 C 31.9871 1.88435 -1.3327 0
M  V30 323 C 32.9571 1.64914 -0.198136 0
M  V30 324 O 34.1421 1.86821 -0.387606 0
M  V30 325 C 31.2821 3.25509 -1.14622 0
M  V30 326 C 30.3951 3.60979 -2.37314 0
M  V30 327 C 29.5301 4.87265 -2.11533 0
M  V30 328 C 28.5691 5.15469 -3.30088 0
M  V30 329 N 27.7061 6.32944 -3.03853 0
M  V30 330 H 32.5461 1.91344 -2.28455 0
M  V30 331 H 30.0831 0.935466 -1.13523 0
M  V30 332 H 32.0411 4.04582 -1.01831 0
M  V30 333 H 30.6711 3.21974 -0.230837 0
M  V30 334 H 29.7231 2.76885 -2.60842 0
M  V30 335 H 31.0351 3.77759 -3.25729 0
M  V30 336 H 30.1891 5.74244 -1.95777 0
M  V30 337 H 28.9281 4.7259 -1.20457 0
M  V30 338 H 27.9331 4.26966 -3.46382 0
M  V30 339 H 29.1581 5.32052 -4.22016 0
M  V30 340 H 27.1041 6.19625 -2.15407 0
M  V30 341 H 27.0211 6.50143 -3.85812 0
M  V30 342 H 28.2891 7.22857 -2.91716 0
M  V30 343 N 32.5182 1.22032 0.997298 0
M  V30 344 C 33.9292 1.0397 1.55071 0
M  V30 345 C 34.2802 -0.398192 1.92117 0
M  V30 346 O 33.4052 -1.28254 1.74298 0
M  V30 347 C 34.0002 1.88109 2.81781 0
M  V30 348 C 32.5592 1.74357 3.33581 0
M  V30 349 C 31.7062 1.84846 2.06706 0
M  V30 350 H 34.6572 1.35941 0.818883 0
M  V30 351 H 34.6782 1.39589 3.53971 0
M  V30 352 H 34.1902 2.92754 2.54787 0
M  V30 353 H 32.2912 0.72427 3.65493 0
M  V30 354 H 32.4042 2.56772 4.04481 0
M  V30 355 H 30.7682 1.28238 2.20062 0
M  V30 356 H 31.5512 2.91014 1.82114 0
M  V30 357 N 33.9963 -1.19345 1.0293 0
M  V30 358 C 35.2423 -1.89318 0.727083 0
M  V30 359 C 35.5753 -1.79446 -0.742483 0
M  V30 360 O 34.8503 -1.1871 -1.54072 0
M  V30 361 C 35.1333 -3.40238 1.17942 0
M  V30 362 C 34.9863 -3.58979 2.71024 0
M  V30 363 C 36.3053 -4.33479 0.760548 0
M  V30 364 H 33.4243 -0.687475 0.265606 0
M  V30 365 H 36.0663 -1.40477 1.2793 0
M  V30 366 H 34.2163 -3.81964 0.709608 0
M  V30 367 H 35.8883 -3.26421 3.25955 0
M  V30 368 H 34.1313 -3.02018 3.11396 0
M  V30 369 H 34.8023 -4.64823 2.9773 0
M  V30 370 H 37.2783 -3.99469 1.16464 0
M  V30 371 H 36.1543 -5.37664 1.10493 0
M  V30 372 H 36.4153 -4.40813 -0.337063 0
M  V30 373 N 35.4744 -0.807222 -1.35358 0
M  V30 374 C 36.6994 -0.399309 -2.0352 0
M  V30 375 C 37.1244 0.981986 -1.60433 0
M  V30 376 O 36.4824 1.63601 -0.781299 0
M  V30 377 C 36.5304 -0.491552 -3.57234 0
M  V30 378 O 35.6344 0.494754 -4.09421 0
M  V30 379 H 34.9754 -0.166682 -0.642739 0
M  V30 380 H 37.5054 -1.09328 -1.72941 0
M  V30 381 H 37.5154 -0.361588 -4.06395 0
M  V30 382 H 36.1904 -1.49907 -3.87944 0
M  V30 383 H 34.7674 0.324977 -3.71481 0
M  V30 384 N 36.9525 1.47285 -0.560781 0
M  V30 385 C 37.8825 2.32857 0.173105 0
M  V30 386 C 38.8635 1.44009 0.905281 0
M  V30 387 O 40.0485 1.7286 0.885046 0
M  V30 388 C 37.1785 3.25861 1.20133 0
M  V30 389 C 36.1325 4.23978 0.585388 0
M  V30 390 C 35.4585 5.06332 1.7185 0
M  V30 391 C 36.7585 5.20242 -0.463178 0
M  V30 392 H 38.4525 2.94466 -0.541307 0
M  V30 393 H 35.9985 1.41601 -0.261764 0
M  V30 394 H 37.9515 3.84569 1.72293 0
M  V30 395 H 36.6755 2.62315 1.94573 0
M  V30 396 H 35.3345 3.66501 0.085054 0
M  V30 397 H 34.9825 4.39186 2.45203 0
M  V30 398 H 34.6825 5.72762 1.31213 0
M  V30 399 H 36.2065 5.67899 2.24329 0
M  V30 400 H 37.6205 5.73293 -0.027502 0
M  V30 401 H 36.0175 5.94896 -0.788627 0
M  V30 402 H 37.0875 4.65504 -1.35773 0
M  V30 403 N 38.4306 0.297415 1.54768 0
M  V30 404 C 39.6556 -0.318435 2.04941 0
M  V30 405 C 40.0806 -1.4701 1.17345 0
M  V30 406 O 39.4386 -1.80436 0.176758 0
M  V30 407 C 39.4866 -0.755749 3.52592 0
M  V30 408 O 38.5906 -1.86088 3.68028 0
M  V30 409 H 37.9316 -0.062421 0.661059 0
M  V30 410 H 40.4616 0.438215 1.99852 0
M  V30 411 H 40.4716 -1.04552 3.94376 0
M  V30 412 H 39.1466 0.0867233 4.1581 0
M  V30 413 H 37.7236 -1.57193 3.38149 0
M  V30 414 N 39.9087 -1.5758 0.0250728 0
M  V30 415 C 41.1387 -1.95646 -0.663783 0
M  V30 416 C 41.5467 -0.899935 -1.66427 0
M  V30 417 O 40.8897 0.127191 -1.83259 0
M  V30 418 C 40.9517 -3.29835 -1.43 0
M  V30 419 C 40.6157 -4.53197 -0.588305 0
M  V30 420 C 41.6127 -5.19726 0.13469 0
M  V30 421 C 39.2977 -4.99529 -0.526897 0
M  V30 422 C 41.2917 -6.30902 0.90781 0
M  V30 423 C 38.9787 -6.10589 0.24993 0
M  V30 424 C 39.9767 -6.76134 0.965994 0
M  V30 425 O 39.6647 -7.85062 1.7301 0
M  V30 426 H 39.3967 -0.649282 -0.188174 0
M  V30 427 H 41.9507 -2.05245 0.0799006 0
M  V30 428 H 40.1807 -3.16716 -2.21873 0
M  V30 429 H 41.8697 -3.52833 -2.00658 0
M  V30 430 H 42.6357 -4.84904 0.0965562 0
M  V30 431 H 38.5147 -4.48319 -1.07381 0
M  V30 432 H 42.0587 -6.81995 1.46724 0
M  V30 433 H 37.9557 -6.44849 0.289795 0
M  V30 434 H 38.7237 -8.01708 1.64944 0
M  V30 435 N 41.3868 0.248026 -1.55636 0
M  V30 436 C 42.8028 0.596483 -1.48035 0
M  V30 437 C 43.0028 1.88386 -0.715039 0
M  V30 438 O 42.0588 2.51319 -0.243944 0
M  V30 439 C 43.3718 0.700258 -2.92433 0
M  V30 440 C 44.9198 0.792659 -3.02797 0
M  V30 441 C 45.3948 0.928005 -4.485 0
M  V30 442 N 46.8858 0.992903 -4.52433 0
M  V30 443 C 47.6208 1.11687 -5.62418 0
M  V30 444 N 47.1168 1.20645 -6.82214 0
M  V30 445 N 48.9098 1.14994 -5.50212 0
M  V30 446 H 41.0608 -0.597109 -2.03834 0
M  V30 447 H 43.3238 -0.205925 -0.925364 0
M  V30 448 H 43.0298 -0.175658 -3.51261 0
M  V30 449 H 42.9038 1.57255 -3.42857 0
M  V30 450 H 45.2908 1.65903 -2.4405 0
M  V30 451 H 45.3718 -0.104762 -2.55585 0
M  V30 452 H 45.0158 0.0661971 -5.07857 0
M  V30 453 H 44.9458 1.84045 -4.93391 0
M  V30 454 H 47.4368 0.935064 -3.66149 0
M  V30 455 H 47.7498 1.30008 -7.61786 0
M  V30 456 H 46.0948 1.17605 -6.84977 0
M  V30 457 H 49.2858 1.07643 -4.55555 0
M  V30 458 H 49.4588 1.24311 -6.35965 0
M  V30 459 N 42.8649 1.48995 0.513639 0
M  V30 460 C 44.1049 1.59452 1.27885 0
M  V30 461 C 44.4689 0.269479 1.90099 0
M  V30 462 O 45.6699 0.249139 2.67643 0
M  V30 463 C 43.9409 2.71277 2.32688 0
M  V30 464 S 45.4999 3.01604 3.18717 0
M  V30 465 H 42.3179 0.562565 0.434789 0
M  V30 466 H 44.9199 1.86595 0.583301 0
M  V30 467 H 43.6239 3.66089 1.8549 0
M  V30 468 H 43.1549 2.46086 3.06929 0
M  V30 469 H 45.1699 2.42155 4.331 0
M  V30 470 N 44.343 -0.763751 1.37857 0
M  V30 471 C 45.754 -1.3405 1.29952 0
M  V30 472 C 46.105 -1.96138 -0.0492898 0
M  V30 473 O 45.23 -1.94372 -0.951239 0
M  V30 474 C 45.825 -2.43729 2.35333 0
M  V30 475 C 44.384 -2.97151 2.31037 0
M  V30 476 C 43.531 -1.70438 2.18738 0
M  V30 477 H 46.482 -0.563396 1.48363 0
M  V30 478 H 46.503 -3.23412 2.00462 0
M  V30 479 H 46.015 -1.9851 3.33489 0
M  V30 480 H 44.116 -3.46724 1.3643 0
M  V30 481 H 44.229 -3.52221 3.24772 0
M  V30 482 H 42.593 -1.93673 1.65418 0
M  V30 483 H 43.376 -1.27312 3.18821 0
M  V30 484 N 45.8211 -1.22559 -0.990812 0
M  V30 485 C 47.0611 -1.06302 -1.74583 0
M  V30 486 C 47.4251 0.394737 -1.87898 0
M  V30 487 O 48.6261 0.678214 -2.60103 0
M  V30 488 C 46.8971 -1.75699 -3.11231 0
M  V30 489 S 48.4561 -1.74882 -4.02445 0
M  V30 490 H 45.2741 -0.380639 -0.600529 0
M  V30 491 H 47.8761 -1.55532 -1.18449 0
M  V30 492 H 46.5801 -2.80923 -2.99183 0
M  V30 493 H 46.1111 -1.26708 -3.72436 0
M  V30 494 H 48.1261 -0.799997 -4.89709 0
M  V30 495 N 47.2992 1.18797 -1.03562 0
M  V30 496 C 48.7152 1.40671 -0.753917 0
M  V30 497 C 48.9152 1.9043 0.658686 0
M  V30 498 O 47.9712 2.08538 1.42366 0
M  V30 499 C 49.2842 2.41192 -1.79574 0
M  V30 500 C 50.8322 2.54928 -1.81606 0
M  V30 501 C 51.3072 3.58709 -2.84766 0
M  V30 502 N 52.7982 3.66212 -2.83625 0
M  V30 503 C 53.5332 4.46225 -3.60098 0
M  V30 504 N 53.0292 5.29888 -4.46308 0
M  V30 505 N 54.8222 4.40939 -3.4861 0
M  V30 506 H 46.9732 0.848221 -1.94728 0
M  V30 507 H 49.2362 0.435081 -0.842264 0
M  V30 508 H 48.9422 2.11669 -2.80872 0
M  V30 509 H 48.8162 3.40467 -1.62365 0
M  V30 510 H 51.2032 2.83771 -0.809817 0
M  V30 511 H 51.2842 1.55784 -2.02891 0
M  V30 512 H 50.9282 3.30607 -3.85566 0
M  V30 513 H 50.8582 4.57519 -2.60737 0
M  V30 514 H 53.3492 3.06466 -2.21105 0
M  V30 515 H 53.6622 5.88078 -5.01382 0
M  V30 516 H 52.0072 5.29326 -4.50377 0
M  V30 517 H 55.1982 3.74624 -2.80668 0
M  V30 518 H 55.3712 5.03056 -4.08459 0
M  V30 519 N 48.7773 0.814389 1.34928 0
M  V30 520 C 50.0243 0.398423 1.98542 0
M  V30 521 C 50.3523 -1.03638 1.64589 0
M  V30 522 O 49.6073 -1.73509 0.90516 0
M  V30 523 C 49.9063 0.537781 3.53331 0
M  V30 524 C 49.5723 1.93704 4.07172 0
M  V30 525 C 48.2343 2.31984 4.21589 0
M  V30 526 C 50.5863 2.85213 4.36237 0
M  V30 527 C 47.9143 3.61125 4.62391 0
M  V30 528 C 50.2663 4.13809 4.78482 0
M  V30 529 C 48.9303 4.52077 4.91104 0
M  V30 530 H 48.2003 0.145793 0.726516 0
M  V30 531 H 50.8473 1.03669 1.61012 0
M  V30 532 H 49.1523 -0.183906 3.91368 0
M  V30 533 H 50.8493 0.196588 4.00518 0
M  V30 534 H 47.4393 1.62966 3.96409 0
M  V30 535 H 51.6233 2.56885 4.24645 0
M  V30 536 H 46.8793 3.90612 4.70353 0
M  V30 537 H 51.0533 4.84811 4.99932 0
M  V30 538 H 48.6803 5.52196 5.22478 0
M  V30 539 N 50.2554 -1.46986 0.568584 0
M  V30 540 C 51.5024 -2.02441 0.0487986 0
M  V30 541 C 51.8304 -1.44169 -1.30559 0
M  V30 542 O 51.0854 -0.591213 -1.86556 0
M  V30 543 C 51.3844 -3.57306 -0.081836 0
M  V30 544 C 51.0504 -4.34552 1.20313 0
M  V30 545 C 49.7124 -4.55376 1.5552 0
M  V30 546 C 52.0644 -4.79016 2.05411 0
M  V30 547 C 49.3924 -5.17913 2.7565 0
M  V30 548 C 51.7444 -5.42879 3.24754 0
M  V30 549 C 50.4084 -5.61933 3.60261 0
M  V30 550 H 49.6784 -0.740785 0.0178567 0
M  V30 551 H 52.3254 -1.76525 0.742384 0
M  V30 552 H 50.6304 -3.8228 -0.858463 0
M  V30 553 H 52.3274 -3.97876 -0.499546 0
M  V30 554 H 48.9174 -4.18631 0.919014 0
M  V30 555 H 53.1014 -4.62696 1.79516 0
M  V30 556 H 48.3574 -5.30858 3.03315 0
M  V30 557 H 52.5314 -5.76293 3.90973 0
M  V30 558 H 50.1584 -6.10161 4.53439 0
M  V30 559 N 51.7335 -0.305618 -1.54608 0
M  V30 560 C 52.6435 0.57778 -2.27374 0
M  V30 561 C 53.6595 1.14451 -1.31061 0
M  V30 562 O 54.8355 1.16831 -1.6405 0
M  V30 563 C 51.9005 1.73123 -3.00382 0
M  V30 564 C 50.9615 1.19812 -4.12242 0
M  V30 565 C 50.1945 2.2966 -4.81759 0
M  V30 566 O 50.4175 3.49651 -4.50666 0
M  V30 567 O 49.3515 1.96091 -5.69062 0
M  V30 568 H 53.1775 -0.012624 -3.03697 0
M  V30 569 H 50.7625 -0.0719184 -1.49227 0
M  V30 570 H 52.6445 2.40315 -3.4616 0
M  V30 571 H 51.3195 2.30815 -2.26949 0
M  V30 572 H 50.2265 0.491798 -3.70853 0
M  V30 573 H 51.5595 0.666566 -4.87666 0
M  V30 574 N 53.2116 1.57565 -0.0334293 0
M  V30 575 C 54.4366 1.96689 0.657895 0
M  V30 576 C 54.8616 0.910057 1.64619 0
M  V30 577 O 54.2196 -0.128598 1.80843 0
M  V30 578 C 54.2676 3.34905 1.33683 0
M  V30 579 O 53.3716 3.31574 2.45219 0
M  V30 580 H 52.7126 0.641205 0.172489 0
M  V30 581 H 55.2426 2.04372 -0.0965621 0
M  V30 582 H 55.2526 3.71234 1.69262 0
M  V30 583 H 53.9276 4.11366 0.612411 0
M  V30 584 H 52.5046 3.06968 2.11719 0
M  V30 585 N 54.6897 -0.239769 1.55765 0
M  V30 586 C 55.6397 -1.30002 1.87306 0
M  V30 587 C 56.6237 -1.43156 0.73452 0
M  V30 588 O 57.8157 -1.46277 0.99659 0
M  V30 589 C 54.9447 -2.65409 2.17745 0
M  V30 590 C 54.0307 -2.56231 3.37945 0
M  V30 591 N 54.4217 -2.16689 4.57033 0
M  V30 592 C 52.7197 -2.87229 3.41197 0
M  V30 593 C 53.4207 -2.18318 5.39177 0
M  V30 594 N 52.3967 -2.58098 4.78421 0
M  V30 595 H 56.1987 -0.984912 2.76906 0
M  V30 596 H 53.7127 -0.448381 1.56087 0
M  V30 597 H 55.7097 -3.41934 2.38509 0
M  V30 598 H 54.3697 -2.97781 1.29448 0
M  V30 599 H 55.3807 -1.88116 4.82528 0
M  V30 600 H 52.0577 -3.24094 2.63191 0
M  V30 601 H 53.4477 -1.90025 6.44469 0
M  V30 602 N 56.1678 -1.49265 -0.50573 0
M  V30 603 C 57.4138 -1.58748 -1.26202 0
M  V30 604 C 57.7468 -0.271227 -1.92297 0
M  V30 605 O 57.0218 0.724831 -1.80489 0
M  V30 606 C 57.3048 -2.74332 -2.33268 0
M  V30 607 C 57.1578 -4.15737 -1.71705 0
M  V30 608 C 58.4768 -2.85576 -3.34865 0
M  V30 609 H 55.5958 -0.577826 -0.457478 0
M  V30 610 H 58.2378 -1.81532 -0.560897 0
M  V30 611 H 56.3878 -2.55036 -2.93068 0
M  V30 612 H 58.0598 -4.46537 -1.15769 0
M  V30 613 H 56.3028 -4.21605 -1.02135 0
M  V30 614 H 56.9738 -4.92477 -2.49341 0
M  V30 615 H 59.4498 -3.03127 -2.8505 0
M  V30 616 H 58.3258 -3.68135 -4.07146 0
M  V30 617 H 58.5868 -1.94732 -3.96903 0
M  V30 618 N 57.6459 0.756429 -1.3826 0
M  V30 619 C 58.6089 1.85176 -1.35065 0
M  V30 620 C 59.6089 1.58818 -0.251703 0
M  V30 621 O 60.7989 1.66615 -0.508433 0
M  V30 622 C 57.9309 3.22596 -1.10201 0
M  V30 623 H 59.1239 1.89417 -2.3251 0
M  V30 624 H 56.6769 0.95783 -1.23512 0
M  V30 625 H 57.4119 3.24025 -0.133504 0
M  V30 626 H 57.1969 3.43122 -1.89762 0
M  V30 627 H 58.6869 4.02673 -1.10654 0
M  V30 628 N 59.124 1.23083 0.984299 0
M  V30 629 C 60.54 0.992637 1.24975 0
M  V30 630 C 60.74 -0.308618 1.99123 0
M  V30 631 O 59.796 -1.02905 2.30579 0
M  V30 632 C 61.109 2.19698 2.05312 0
M  V30 633 C 62.657 2.24147 2.18465 0
M  V30 634 C 63.132 3.44157 3.02192 0
M  V30 635 N 64.623 3.44372 3.09777 0
M  V30 636 C 65.358 4.33886 3.74874 0
M  V30 637 N 64.854 5.3363 4.41827 0
M  V30 638 N 66.647 4.21639 3.71721 0
M  V30 639 H 58.798 2.06731 0.487453 0
M  V30 640 H 61.061 0.906339 0.277944 0
M  V30 641 H 60.767 3.1411 1.58201 0
M  V30 642 H 60.641 2.20465 3.06064 0
M  V30 643 H 63.028 1.30277 2.64786 0
M  V30 644 H 63.109 2.27415 1.17115 0
M  V30 645 H 62.753 4.38332 2.56568 0
M  V30 646 H 62.683 3.3813 4.03702 0
M  V30 647 H 65.174 2.72201 2.62135 0
M  V30 648 H 65.487 5.98196 4.89266 0
M  V30 649 H 63.832 5.37534 4.40548 0
M  V30 650 H 67.023 3.42962 3.18582 0
M  V30 651 H 67.196 4.91604 4.22173 0
M  V30 652 N 60.6021 -1.18246 1.0419 0
M  V30 653 C 61.5651 -2.20128 0.638452 0
M  V30 654 C 62.5651 -1.57885 -0.304805 0
M  V30 655 O 63.7551 -1.73967 -0.0900369 0
M  V30 656 C 60.8871 -3.4084 -0.0637751 0
M  V30 657 H 62.0801 -2.57336 1.54007 0
M  V30 658 H 59.6331 -1.32152 0.834598 0
M  V30 659 H 60.3681 -3.09166 -0.979136 0
M  V30 660 H 60.1531 -3.8726 0.614198 0
M  V30 661 H 61.6431 -4.16274 -0.332512 0
M  V30 662 N 62.0802 -0.821533 -1.34494 0
M  V30 663 C 63.0282 -0.230702 -2.31453 0
M  V30 664 C 64.0222 0.627793 -1.57338 0
M  V30 665 O 65.2282 0.519288 -1.72347 0
M  V30 666 H 61.6032 -0.0558577 -0.749923 0
M  V30 667 H 63.5742 -1.06332 -2.78812 0
M  V30 668 C 62.3232 0.59391 -3.4259 0
M  V30 669 H 61.6462 -0.0573588 -3.99759 0
M  V30 670 H 63.0862 0.973446 -4.12674 0
M  V30 671 C 61.5452 1.76568 -2.86924 0
M  V30 672 O 62.0752 2.8638 -2.81691 0
M  V30 673 N 60.2812 1.58198 -2.43766 0
M  V30 674 H 59.8282 0.68872 -2.48222 0
M  V30 675 H 59.7862 2.36752 -2.06871 0
M  V30 676 N 63.5583 1.46682 -0.576371 0
M  V30 677 C 64.8043 2.02712 -0.0596221 0
M  V30 678 C 65.1373 1.44765 1.29448 0
M  V30 679 O 64.4123 0.610355 1.84675 0
M  V30 680 C 64.6953 3.60098 0.0129503 0
M  V30 681 C 64.5483 4.28441 -1.3696 0
M  V30 682 C 65.8673 4.34224 0.71678 0
M  V30 683 H 62.9863 0.736637 -0.0231407 0
M  V30 684 H 65.6283 1.74898 -0.742351 0
M  V30 685 H 63.7783 3.83926 0.594378 0
M  V30 686 H 65.4503 4.15896 -1.9957 0
M  V30 687 H 63.6933 3.8805 -1.93907 0
M  V30 688 H 64.3643 5.3716 -1.27135 0
M  V30 689 H 66.8403 4.15503 0.222908 0
M  V30 690 H 65.7163 5.43936 0.73657 0
M  V30 691 H 65.9773 4.04823 1.77682 0
M  V30 692 N 65.0364 0.313813 1.54444 0
M  V30 693 C 65.9834 -0.55655 2.23989 0
M  V30 694 C 66.9534 -1.11943 1.22711 0
M  V30 695 O 68.1384 -1.16158 1.51367 0
M  V30 696 C 65.2784 -1.71635 2.99392 0
M  V30 697 C 64.3914 -1.18364 4.15468 0
M  V30 698 C 63.5264 -2.30834 4.78424 0
M  V30 699 C 62.5654 -1.74762 5.86622 0
M  V30 700 N 61.7024 -2.80855 6.43479 0
M  V30 701 H 66.5424 0.0430893 2.97969 0
M  V30 702 H 64.0794 0.0330359 1.47063 0
M  V30 703 H 66.0374 -2.39868 3.41349 0
M  V30 704 H 64.6674 -2.28742 2.27765 0
M  V30 705 H 63.7194 -0.393163 3.78363 0
M  V30 706 H 65.0314 -0.733262 4.93381 0
M  V30 707 H 64.1854 -3.0699 5.23299 0
M  V30 708 H 62.9244 -2.79204 3.99871 0
M  V30 709 H 61.9294 -0.970995 5.41158 0
M  V30 710 H 63.1544 -1.2728 6.67066 0
M  V30 711 H 61.1004 -3.28535 5.67804 0
M  V30 712 H 61.0174 -2.40351 7.16776 0
M  V30 713 H 62.2854 -3.5687 6.93011 0
M  V30 714 N 66.5145 -1.57545 0.0417849 0
M  V30 715 C 67.4645 -2.07483 -0.945247 0
M  V30 716 C 68.4485 -0.977983 -1.27767 0
M  V30 717 O 69.6405 -1.24142 -1.26166 0
M  V30 718 C 66.7695 -2.61576 -2.22335 0
M  V30 719 C 65.8555 -3.78213 -1.91874 0
M  V30 720 N 66.2465 -4.88344 -1.31733 0
M  V30 721 C 64.5445 -3.8694 -2.21796 0
M  V30 722 C 65.2455 -5.69462 -1.1869 0
M  V30 723 N 64.2215 -5.16771 -1.68666 0
M  V30 724 H 68.0235 -2.90029 -0.475441 0
M  V30 725 H 65.5375 -1.61581 -0.162911 0
M  V30 726 H 67.5345 -2.95651 -2.93932 0
M  V30 727 H 66.1945 -1.80465 -2.69931 0
M  V30 728 H 67.2055 -5.08335 -0.990729 0
M  V30 729 H 63.8825 -3.16757 -2.71977 0
M  V30 730 H 65.2725 -6.68023 -0.720793 0
M  V30 731 N 67.9926 0.231505 -1.5589 0
M  V30 732 C 68.9226 1.29022 -1.94617 0
M  V30 733 C 69.9036 1.4941 -0.813067 0
M  V30 734 O 71.0886 1.6176 -1.07459 0
M  V30 735 C 68.2186 2.64199 -2.25424 0
M  V30 736 C 67.1726 2.58484 -3.41131 0
M  V30 737 C 66.4986 3.97599 -3.57518 0
M  V30 738 C 67.7986 2.1413 -4.76388 0
M  V30 739 H 69.4926 0.968563 -2.83301 0
M  V30 740 H 67.0386 0.464479 -1.36303 0
M  V30 741 H 68.9916 3.38413 -2.51107 0
M  V30 742 H 67.7156 2.98032 -1.33583 0
M  V30 743 H 66.3746 1.86727 -3.15481 0
M  V30 744 H 66.0226 4.28723 -2.6307 0
M  V30 745 H 65.7226 3.94659 -4.35337 0
M  V30 746 H 67.2466 4.7349 -3.85538 0
M  V30 747 H 68.6606 2.78083 -5.01341 0
M  V30 748 H 67.0576 2.2227 -5.57419 0
M  V30 749 H 68.1276 1.09331 -4.72414 0
M  V30 750 N 69.4707 1.49531 0.497807 0
M  V30 751 C 70.4177 1.66436 1.59899 0
M  V30 752 C 71.3877 0.505793 1.58212 0
M  V30 753 O 72.5727 0.733202 1.7615 0
M  V30 754 C 69.7127 1.7399 2.98029 0
M  V30 755 C 68.8257 3.01172 3.09708 0
M  V30 756 C 67.9607 2.99686 4.38591 0
M  V30 757 C 66.9997 4.21434 4.43914 0
M  V30 758 N 66.1367 4.1784 5.64229 0
M  V30 759 H 70.9767 2.60459 1.44793 0
M  V30 760 H 68.5137 1.29137 0.704423 0
M  V30 761 H 70.4717 1.76352 3.78095 0
M  V30 762 H 69.1017 0.834301 3.11832 0
M  V30 763 H 68.1537 3.08408 2.22685 0
M  V30 764 H 69.4657 3.91165 3.09502 0
M  V30 765 H 68.6197 3.00628 5.2698 0
M  V30 766 H 67.3587 2.07477 4.41367 0
M  V30 767 H 66.3637 4.20733 3.53926 0
M  V30 768 H 67.5887 5.14839 4.42851 0
M  V30 769 H 65.5347 3.28469 5.67841 0
M  V30 770 H 65.4517 5.01571 5.65652 0
M  V30 771 H 66.7197 4.22889 6.54817 0
M  V30 772 N 70.9488 -0.749086 1.3866 0
M  V30 773 C 72.1978 -1.50371 1.3443 0
M  V30 774 C 72.5108 -1.95503 -0.0616397 0
M  V30 775 O 73.7168 -2.70554 -0.226489 0
M  V30 776 C 72.1728 -2.71644 2.36088 0
M  V30 777 C 71.7808 -2.3352 3.82325 0
M  V30 778 C 73.5248 -3.49518 2.40909 0
M  V30 779 C 71.4318 -3.51431 4.75658 0
M  V30 780 H 70.3618 -0.564628 0.499712 0
M  V30 781 H 73.0128 -0.818449 1.64237 0
M  V30 782 H 71.3948 -3.42175 1.9933 0
M  V30 783 H 72.5688 -1.70627 4.28046 0
M  V30 784 H 70.8838 -1.6877 3.80665 0
M  V30 785 H 73.4808 -4.37197 3.07836 0
M  V30 786 H 73.8238 -3.90992 1.42937 0
M  V30 787 H 74.3568 -2.86005 2.76489 0
M  V30 788 H 71.0958 -3.15019 5.74842 0
M  V30 789 H 70.6158 -4.13352 4.34627 0
M  V30 790 H 72.2948 -4.17953 4.93887 0
M  V30 791 N 72.4269 -1.23603 -0.977757 0
M  V30 792 C 73.3569 -1.04401 -2.0886 0
M  V30 793 C 74.3379 0.0399052 -1.70053 0
M  V30 794 O 75.5229 -0.125246 -1.93796 0
M  V30 795 C 72.6529 -0.637269 -3.41403 0
M  V30 796 C 71.6069 -1.66883 -3.94124 0
M  V30 797 C 70.9329 -1.11745 -5.22893 0
M  V30 798 C 72.2329 -3.06247 -4.23096 0
M  V30 799 H 73.9269 -1.97316 -2.25182 0
M  V30 800 H 71.4729 -0.950096 -1.08209 0
M  V30 801 H 73.4259 -0.48998 -4.18542 0
M  V30 802 H 72.1499 0.327557 -3.24953 0
M  V30 803 H 70.8089 -1.80416 -3.19133 0
M  V30 804 H 70.4569 -0.143527 -5.02795 0
M  V30 805 H 70.1569 -1.80672 -5.59134 0
M  V30 806 H 71.6809 -0.982067 -6.02651 0
M  V30 807 H 73.0949 -2.96001 -4.90975 0
M  V30 808 H 71.4919 -3.72436 -4.70544 0
M  V30 809 H 72.5619 -3.55041 -3.30263 0
M  V30 810 N 73.905 1.17692 -1.04816 0
M  V30 811 C 74.853 2.23632 -0.63966 0
M  V30 812 C 75.847 1.6601 0.337219 0
M  V30 813 O 77.053 1.78844 0.203693 0
M  V30 814 H 73.428 0.727949 -0.188665 0
M  V30 815 H 75.399 2.55387 -1.54337 0
M  V30 816 C 74.148 3.4769 -0.0264051 0
M  V30 817 H 73.471 3.92331 -0.769164 0
M  V30 818 H 74.911 4.23418 0.222098 0
M  V30 819 C 73.37 3.13807 1.22584 0
M  V30 820 O 73.9 3.28236 2.31569 0
M  V30 821 N 72.106 2.68065 1.12202 0
M  V30 822 H 71.653 2.56525 0.235133 0
M  V30 823 H 71.611 2.45767 1.96076 0
M  V30 824 N 75.3831 0.828654 1.34056 0
M  V30 825 C 76.6111 0.43262 2.02326 0
M  V30 826 C 77.0261 -0.963147 1.62385 0
M  V30 827 O 76.3831 -1.62425 0.832121 0
M  V30 828 C 76.4341 0.53182 3.57567 0
M  V30 829 O 76.1551 1.87258 3.96063 0
M  V30 830 C 77.6561 0.131422 4.43105 0
M  V30 831 H 74.8761 0.172923 0.648335 0
M  V30 832 H 77.4201 1.1184 1.71208 0
M  V30 833 H 75.5751 -0.105938 3.87255 0
M  V30 834 H 75.9891 1.85087 4.90758 0
M  V30 835 H 77.4631 0.251904 5.51425 0
M  V30 836 H 77.9401 -0.925645 4.29335 0
M  V30 837 H 78.5461 0.743207 4.18756 0
M  V30 838 N 76.8612 -1.46375 0.584142 0
M  V30 839 C 78.2722 -1.86031 0.157959 0
M  V30 840 C 78.6232 -1.48753 -1.27933 0
M  V30 841 O 77.7482 -0.903098 -1.96655 0
M  V30 842 C 78.3432 -3.37642 0.279892 0
M  V30 843 C 76.9022 -3.76289 -0.09143 0
M  V30 844 C 76.0492 -2.7039 0.615178 0
M  V30 845 H 79.0002 -1.37509 0.792274 0
M  V30 846 H 79.0212 -3.77275 -0.494364 0
M  V30 847 H 78.5332 -3.64742 1.32607 0
M  V30 848 H 76.6342 -3.54806 -1.13769 0
M  V30 849 H 76.7472 -4.78246 0.285886 0
M  V30 850 H 75.1112 -2.5464 0.0552833 0
M  V30 851 H 75.8942 -3.0033 1.66303 0
M  V30 852 N 78.3393 -0.321999 -1.54275 0
M  V30 853 C 79.2873 0.560206 -2.25753 0
M  V30 854 C 80.2813 1.11984 -1.27106 0
M  V30 855 O 81.4873 1.06806 -1.44888 0
M  V30 856 H 77.8623 0.199304 -0.725108 0
M  V30 857 H 79.8333 -0.0649365 -2.98329 0
M  V30 858 C 78.5823 1.71023 -3.02731 0
M  V30 859 H 77.9053 1.28885 -3.78456 0
M  V30 860 H 79.3453 2.30314 -3.55993 0
M  V30 861 C 77.8043 2.62692 -2.10938 0
M  V30 862 O 78.3343 3.64364 -1.6912 0
M  V30 863 N 76.5403 2.30891 -1.76459 0
M  V30 864 H 76.0873 1.48253 -2.10663 0
M  V30 865 H 76.0453 2.92487 -1.1532 0
M  V30 866 N 79.8174 1.5752 -0.0501392 0
M  V30 867 C 81.0574 1.94521 0.627783 0
M  V30 868 C 81.4214 0.928265 1.68069 0
M  V30 869 O 82.6224 1.18517 2.41261 0
M  V30 870 C 80.8934 3.36319 1.20932 0
M  V30 871 S 82.4524 3.95272 1.90539 0
M  V30 872 H 79.2704 0.680456 0.206158 0
M  V30 873 H 81.8724 1.95139 -0.118829 0
M  V30 874 H 80.5764 4.08132 0.430865 0
M  V30 875 H 80.1074 3.39193 1.99277 0
M  V30 876 H 82.1224 3.80415 3.18589 0
M  V30 877 N 81.2955 -0.223234 1.56011 0
M  V30 878 C 82.2585 -1.26014 1.9145 0
M  V30 879 C 83.2585 -1.3989 0.792937 0
M  V30 880 O 84.4485 -1.38184 1.0607 0
M  V30 881 C 81.5805 -2.63422 2.16383 0
M  V30 882 H 82.7735 -0.95796 2.84189 0
M  V30 883 H 80.3265 -0.463576 1.49267 0
M  V30 884 H 81.0615 -2.98741 1.2619 0
M  V30 885 H 80.8465 -2.54728 2.98088 0
M  V30 886 H 82.3365 -3.38249 2.44903 0
M  V30 887 N 82.7736 -1.49793 -0.48987 0
M  V30 888 C 83.7036 -1.70201 -1.59856 0
M  V30 889 C 84.6846 -0.55076 -1.60937 0
M  V30 890 O 85.8696 -0.787841 -1.77501 0
M  V30 891 C 82.9996 -1.77882 -2.98287 0
M  V30 892 C 81.9536 -2.92907 -3.12073 0
M  V30 893 C 81.2796 -2.85712 -4.51965 0
M  V30 894 C 82.5796 -4.3369 -2.91051 0
M  V30 895 H 84.2736 -2.63025 -1.43032 0
M  V30 896 H 81.8196 -1.26574 -0.686664 0
M  V30 897 H 83.7726 -1.90744 -3.75759 0
M  V30 898 H 82.4966 -0.816653 -3.16225 0
M  V30 899 H 81.1556 -2.79665 -2.37029 0
M  V30 900 H 80.8036 -1.8738 -4.66795 0
M  V30 901 H 80.5036 -3.62921 -4.62128 0
M  V30 902 H 82.0276 -3.00598 -5.31482 0
M  V30 903 H 83.4416 -4.47555 -3.58284 0
M  V30 904 H 81.8386 -5.12205 -3.12675 0
M  V30 905 H 82.9086 -4.47362 -1.87071 0
M  V30 906 N 84.2517 0.741722 -1.39055 0
M  V30 907 C 85.1837 1.8657 -1.33133 0
M  V30 908 C 86.1967 1.61001 -0.241329 0
M  V30 909 O 87.3857 1.7136 -0.499784 0
M  V30 910 C 84.4857 3.22457 -1.04283 0
M  V30 911 C 83.6587 3.75435 -2.24427 0
M  V30 912 C 82.7177 4.89867 -1.92138 0
M  V30 913 O 81.7437 5.03879 -2.64754 0
M  V30 914 N 82.9457 5.73738 -0.88347 0
M  V30 915 H 85.7107 1.92156 -2.29991 0
M  V30 916 H 83.2717 0.922172 -1.3307 0
M  V30 917 H 85.2637 3.9657 -0.807128 0
M  V30 918 H 83.8337 3.12181 -0.161807 0
M  V30 919 H 83.0537 2.92751 -2.6399 0
M  V30 920 H 84.3417 4.07563 -3.04581 0
M  V30 921 H 83.7397 5.64999 -0.281517 0
M  V30 922 H 82.2967 6.47947 -0.707662 0
M  V30 923 N 85.7298 1.2412 0.971189 0
M  V30 924 C 86.9788 1.07284 1.70801 0
M  V30 925 C 87.2918 -0.388902 1.91695 0
M  V30 926 O 88.4978 -0.677379 2.62914 0
M  V30 927 C 86.9538 1.87145 3.07416 0
M  V30 928 C 86.5618 3.37707 2.94377 0
M  V30 929 C 88.3058 1.78828 3.84995 0
M  V30 930 C 86.2128 4.09925 4.26281 0
M  V30 931 H 85.1428 0.397854 0.64049 0
M  V30 932 H 87.7938 1.4817 1.0825 0
M  V30 933 H 86.1758 1.39071 3.70777 0
M  V30 934 H 87.3498 3.93335 2.4005 0
M  V30 935 H 85.6648 3.46938 2.30267 0
M  V30 936 H 88.2618 2.30089 4.82662 0
M  V30 937 H 88.6048 0.75284 4.09436 0
M  V30 938 H 89.1378 2.24563 3.28354 0
M  V30 939 H 85.8768 5.13813 4.07033 0
M  V30 940 H 85.3968 3.59083 4.80437 0
M  V30 941 H 87.0758 4.1673 4.94919 0
M  V30 942 N 87.2079 -1.17134 1.05439 0
M  V30 943 C 88.4539 -1.87733 0.767077 0
M  V30 944 C 88.7869 -1.8098 -0.704253 0
M  V30 945 O 88.0619 -1.21951 -1.5152 0
M  V30 946 C 88.3449 -3.37659 1.25133 0
M  V30 947 C 88.1979 -3.53149 2.78578 0
M  V30 948 C 89.5169 -4.31768 0.852324 0
M  V30 949 H 86.6359 -0.681687 0.280129 0
M  V30 950 H 89.2779 -1.37732 1.30881 0
M  V30 951 H 87.4279 -3.80373 0.790469 0
M  V30 952 H 89.0999 -3.19434 3.32806 0
M  V30 953 H 87.3429 -2.95345 3.17732 0
M  V30 954 H 88.0139 -4.58403 3.07523 0
M  V30 955 H 90.4899 -3.96909 1.24911 0
M  V30 956 H 89.3659 -5.35199 1.21873 0
M  V30 957 H 89.6269 -4.41429 -0.243485 0
M  V30 958 N 88.686 -0.835752 -1.33615 0
M  V30 959 C 89.649 -0.272 -2.2758 0
M  V30 960 C 90.649 0.557487 -1.50827 0
M  V30 961 O 91.839 0.37173 -1.70188 0
M  V30 962 C 88.971 0.617173 -3.35267 0
M  V30 963 H 90.164 -1.10111 -2.78954 0
M  V30 964 H 87.717 -0.608594 -1.43965 0
M  V30 965 H 88.452 1.46884 -2.89129 0
M  V30 966 H 88.237 0.0237066 -3.92093 0
M  V30 967 H 89.727 1.005 -4.05326 0
M  V30 968 N 90.1641 1.46063 -0.591896 0
M  V30 969 C 91.5801 1.57561 -0.254288 0
M  V30 970 C 91.7801 1.58565 1.24336 0
M  V30 971 O 90.8361 1.50753 2.02558 0
M  V30 972 C 92.1491 2.86549 -0.911611 0
M  V30 973 C 93.6971 3.00197 -0.886059 0
M  V30 974 C 94.1721 4.31933 -1.5231 0
M  V30 975 N 95.6631 4.38654 -1.48786 0
M  V30 976 C 96.3981 5.39222 -1.95006 0
M  V30 977 N 95.8941 6.46414 -2.49241 0
M  V30 978 N 97.6871 5.3048 -1.85868 0
M  V30 979 H 89.8381 1.43655 -1.56451 0
M  V30 980 H 92.1011 0.68583 -0.654478 0
M  V30 981 H 91.8071 2.91651 -1.96551 0
M  V30 982 H 91.6811 3.74794 -0.425368 0
M  V30 983 H 94.0681 2.9467 0.159246 0
M  V30 984 H 94.1491 2.13403 -1.41041 0
M  V30 985 H 93.7931 4.38217 -2.56765 0
M  V30 986 H 93.7231 5.17516 -0.973891 0
M  V30 987 H 96.2141 3.61793 -1.09151 0
M  V30 988 H 96.5271 7.19376 -2.82344 0
M  V30 989 H 94.8721 6.47208 -2.53272 0
M  V30 990 H 98.0631 4.45643 -1.43248 0
M  V30 991 H 98.2361 6.08711 -2.22204 0
M  V30 992 N 91.6422 0.330177 1.54103 0
M  V30 993 C 92.5722 -0.525353 2.27513 0
M  V30 994 C 93.5532 -1.11383 1.2856 0
M  V30 995 O 94.7382 -1.13773 1.57383 0
M  V30 996 C 91.8682 -1.6831 3.03791 0
M  V30 997 C 90.8222 -1.2236 4.10137 0
M  V30 998 C 90.1482 -2.46882 4.74293 0
M  V30 999 C 91.4482 -0.333697 5.21233 0
M  V30 1000 H 93.1422 0.087013 2.99274 0
M  V30 1001 H 90.6882 0.0432893 1.43935 0
M  V30 1002 H 92.6412 -2.28795 3.5388 0
M  V30 1003 H 91.3652 -2.32216 2.29659 0
M  V30 1004 H 90.0242 -0.64165 3.60941 0
M  V30 1005 H 89.6722 -3.09165 3.96769 0
M  V30 1006 H 89.3722 -2.16825 5.46133 0
M  V30 1007 H 90.8962 -3.08117 5.27159 0
M  V30 1008 H 92.3102 -0.845013 5.67038 0
M  V30 1009 H 90.7072 -0.125612 5.99969 0
M  V30 1010 H 91.7772 0.633724 4.80741 0
M  V30 1011 N 93.1203 -1.57491 0.0584922 0
M  V30 1012 C 94.0673 -2.11958 -0.913376 0
M  V30 1013 C 95.0373 -1.02875 -1.30407 0
M  V30 1014 O 96.2223 -1.30464 -1.39226 0
M  V30 1015 C 93.3623 -2.67497 -2.18035 0
M  V30 1016 C 92.4753 -3.90691 -1.84349 0
M  V30 1017 C 91.6103 -4.3452 -3.05559 0
M  V30 1018 C 90.6493 -5.50395 -2.67827 0
M  V30 1019 N 89.7863 -5.89244 -3.81754 0
M  V30 1020 H 94.6263 -2.94704 -0.442017 0
M  V30 1021 H 92.1633 -1.45643 -0.206545 0
M  V30 1022 H 94.1213 -2.978 -2.92183 0
M  V30 1023 H 92.7513 -1.87537 -2.62735 0
M  V30 1024 H 91.8033 -3.66934 -1.00319 0
M  V30 1025 H 93.1153 -4.7489 -1.5258 0
M  V30 1026 H 92.2693 -4.66414 -3.87998 0
M  V30 1027 H 91.0083 -3.49147 -3.40511 0
M  V30 1028 H 90.0133 -5.18165 -1.83806 0
M  V30 1029 H 91.2383 -6.3749 -2.34059 0
M  V30 1030 H 89.1843 -5.06823 -4.16493 0
M  V30 1031 H 89.1013 -6.68151 -3.53708 0
M  V30 1032 H 90.3693 -6.25756 -4.64811 0
M  V30 1033 N 94.5984 0.214957 -1.56127 0
M  V30 1034 C 95.5464 1.28601 -1.93816 0
M  V30 1035 C 96.5404 1.48175 -0.821016 0
M  V30 1036 O 97.7464 1.49271 -1.0059 0
M  V30 1037 H 94.1214 0.431302 -0.616022 0
M  V30 1038 H 96.0924 0.940991 -2.83175 0
M  V30 1039 C 94.8414 2.62779 -2.27689 0
M  V30 1040 H 94.1644 2.48527 -3.13168 0
M  V30 1041 H 95.6044 3.36517 -2.57939 0
M  V30 1042 C 94.0634 3.18285 -1.10436 0
M  V30 1043 O 94.5934 4.00002 -0.368945 0
M  V30 1044 N 92.7994 2.7675 -0.886433 0
M  V30 1045 H 92.3464 2.10404 -1.48619 0
M  V30 1046 H 92.3044 3.14229 -0.103656 0
M  V30 1047 N 96.0765 1.50051 0.48192 0
M  V30 1048 C 97.0245 1.68635 1.60203 0
M  V30 1049 C 98.0185 0.552184 1.60148 0
M  V30 1050 O 99.2245 0.732377 1.64427 0
M  V30 1051 H 95.5995 0.532081 0.531407 0
M  V30 1052 H 97.5705 2.62616 1.41688 0
M  V30 1053 C 96.3195 1.78775 2.9822 0
M  V30 1054 H 95.6425 2.6543 2.98976 0
M  V30 1055 H 97.0825 1.95806 3.7608 0
M  V30 1056 C 95.5415 0.536849 3.32595 0
M  V30 1057 O 96.0715 -0.328897 4.00351 0
M  V30 1058 N 94.2775 0.394091 2.87915 0
M  V30 1059 H 93.8245 1.09962 2.32951 0
M  V30 1060 H 93.7825 -0.441737 3.11281 0
M  V30 1061 N 97.5546 -0.734337 1.39446 0
M  V30 1062 C 98.5026 -1.86971 1.38364 0
M  V30 1063 C 99.4966 -1.67288 0.266687 0
M  V30 1064 O 100.703 -1.74621 0.436755 0
M  V30 1065 H 97.0776 -0.615474 0.432082 0
M  V30 1066 H 99.0486 -1.85 2.34132 0
M  V30 1067 C 97.7976 -3.2466 1.24465 0
M  V30 1068 H 97.1206 -3.40402 2.09682 0
M  V30 1069 H 98.5606 -4.04292 1.27764 0
M  V30 1070 C 97.0196 -3.36867 -0.0468674 0
M  V30 1071 O 97.5496 -3.88618 -1.01681 0
M  V30 1072 N 95.7556 -2.90391 -0.110145 0
M  V30 1073 H 95.3026 -2.48466 0.679868 0
M  V30 1074 H 95.2606 -2.98939 -0.973799 0
M  V30 1075 N 99.0327 -1.24633 -0.964593 0
M  V30 1076 C 100.449 -1.01239 -1.2338 0
M  V30 1077 C 100.649 0.2769 -1.99588 0
M  V30 1078 O 99.7047 0.992241 -2.32187 0
M  V30 1079 C 101.018 -2.22937 -2.01791 0
M  V30 1080 C 102.566 -2.27594 -2.14872 0
M  V30 1081 C 103.041 -3.48921 -2.96678 0
M  V30 1082 N 104.532 -3.49257 -3.04259 0
M  V30 1083 C 105.267 -4.39795 -3.67924 0
M  V30 1084 N 104.763 -5.40591 -4.33281 0
M  V30 1085 N 106.556 -4.275 -3.64966 0
M  V30 1086 H 98.7067 -2.0748 -0.454502 0
M  V30 1087 H 100.97 -0.910647 -0.26349 0
M  V30 1088 H 100.676 -3.16587 -1.53184 0
M  V30 1089 H 100.55 -2.25306 -3.02518 0
M  V30 1090 H 102.937 -1.34473 -2.6268 0
M  V30 1091 H 103.018 -2.2925 -1.13482 0
M  V30 1092 H 102.662 -4.42359 -2.49562 0
M  V30 1093 H 102.592 -3.4451 -3.98272 0
M  V30 1094 H 105.083 -2.76337 -2.57771 0
M  V30 1095 H 105.396 -6.05904 -4.79687 0
M  V30 1096 H 103.741 -5.44475 -4.3194 0
M  V30 1097 H 106.932 -3.47987 -3.13086 0
M  V30 1098 H 107.105 -4.98258 -4.14298 0
M  V30 1099 N 100.511 1.16574 -1.06058 0
M  V30 1100 C 101.443 2.2045 -0.627239 0
M  V30 1101 C 102.456 1.59752 0.313534 0
M  V30 1102 O 103.645 1.78192 0.104896 0
M  V30 1103 C 100.745 3.3875 0.100974 0
M  V30 1104 C 99.9178 4.29008 -0.852687 0
M  V30 1105 C 98.9768 5.25944 -0.164152 0
M  V30 1106 O 98.0028 5.63535 -0.801047 0
M  V30 1107 N 99.2048 5.70075 1.09518 0
M  V30 1108 H 101.97 2.58249 -1.52077 0
M  V30 1109 H 99.5308 1.3156 -0.943594 0
M  V30 1110 H 101.523 4.00638 0.57194 0
M  V30 1111 H 100.093 2.99476 0.89628 0
M  V30 1112 H 99.3128 3.64419 -1.50308 0
M  V30 1113 H 100.601 4.86195 -1.49972 0
M  V30 1114 H 99.9988 5.41624 1.6328 0
M  V30 1115 H 98.5558 6.34067 1.51006 0
M  V30 1116 N 101.989 0.842826 1.3317 0
M  V30 1117 C 103.235 0.441099 1.97945 0
M  V30 1118 C 103.568 -0.998024 1.66593 0
M  V30 1119 O 102.843 -1.69839 0.947898 0
M  V30 1120 C 103.126 0.666841 3.53872 0
M  V30 1121 C 102.979 2.15352 3.94897 0
M  V30 1122 C 104.298 0.115544 4.39948 0
M  V30 1123 H 101.417 0.161739 0.719034 0
M  V30 1124 H 104.059 1.05907 1.57746 0
M  V30 1125 H 102.209 0.140828 3.88245 0
M  V30 1126 H 103.881 2.7447 3.70761 0
M  V30 1127 H 102.124 2.63653 3.44484 0
M  V30 1128 H 102.795 2.26221 5.03516 0
M  V30 1129 H 105.271 0.565213 4.12243 0
M  V30 1130 H 104.147 0.303152 5.48062 0
M  V30 1131 H 104.408 -0.980935 4.3108 0
M  V30 1132 N 103.467 -1.45747 0.599634 0
M  V30 1133 C 104.707 -2.04181 0.0946309 0
M  V30 1134 C 105.071 -1.45895 -1.24815 0
M  V30 1135 O 106.272 -1.95633 -1.8434 0
M  V30 1136 C 104.543 -3.57368 0.047581 0
M  V30 1137 S 106.102 -4.36997 -0.397387 0
M  V30 1138 H 102.92 -0.70953 0.0456954 0
M  V30 1139 H 105.522 -1.78564 0.795946 0
M  V30 1140 H 104.226 -3.97303 1.02852 0
M  V30 1141 H 103.757 -3.87549 -0.675977 0
M  V30 1142 H 105.772 -4.68012 -1.64862 0
M  V30 1143 N 104.945 -0.338344 -1.53925 0
M  V30 1144 C 106.194 0.260732 -2.00008 0
M  V30 1145 C 106.507 1.52073 -1.23017 0
M  V30 1146 O 107.713 2.19672 -1.5955 0
M  V30 1147 C 106.169 0.51515 -3.56194 0
M  V30 1148 C 105.777 -0.728645 -4.42035 0
M  V30 1149 C 107.521 1.07337 -4.10706 0
M  V30 1150 C 105.428 -0.445315 -5.89721 0
M  V30 1151 H 104.358 0.101205 -0.747177 0
M  V30 1152 H 107.009 -0.452866 -1.77824 0
M  V30 1153 H 105.391 1.28932 -3.74423 0
M  V30 1154 H 106.565 -1.50352 -4.35581 0
M  V30 1155 H 104.88 -1.20813 -3.98489 0
M  V30 1156 H 107.477 1.30022 -5.18651 0
M  V30 1157 H 107.82 2.0273 -3.63602 0
M  V30 1158 H 108.353 0.360034 -3.96167 0
M  V30 1159 H 105.092 -1.36883 -6.41049 0
M  V30 1160 H 104.612 0.291569 -5.99091 0
M  V30 1161 H 106.291 -0.0606218 -6.46972 0
M  V30 1162 N 106.423 1.57458 -0.0668435 0
M  V30 1163 C 107.7 1.8469 0.644132 0
M  V30 1164 C 108.08 0.958343 1.88093 0
M  V30 1165 O 107.428 0.0233579 2.28488 0
M  V30 1166 C 107.638 3.34767 0.986509 0
M  V30 1167 C 108.986 4.02159 1.36212 0
M  V30 1168 O 110.01 3.39484 1.07839 0
M  V30 1169 O 108.869 5.12694 1.89227 0
M  V30 1170 H 105.963 0.762816 0.319437 0
M  V30 1171 H 108.509 1.6942 -0.0973986 0
M  V30 1172 H 107.281 3.91151 0.107883 0
M  V30 1173 H 106.904 3.55281 1.78497 0
M  V30 1174 N 107.901 -0.206675 1.56239 0
M  V30 1175 C 109.312 -0.772383 1.69974 0
M  V30 1176 C 109.663 -1.84353 0.671436 0
M  V30 1177 O 108.788 -2.15695 -0.174491 0
M  V30 1178 C 109.383 -1.40779 3.08167 0
M  V30 1179 C 107.942 -1.92072 3.23706 0
M  V30 1180 C 107.089 -0.786347 2.65917 0
M  V30 1181 H 110.04 0.0182223 1.5869 0
M  V30 1182 H 110.061 -2.27696 3.04852 0
M  V30 1183 H 109.573 -0.627958 3.82986 0
M  V30 1184 H 107.674 -2.7281 2.53782 0
M  V30 1185 H 107.787 -2.09046 4.31087 0
M  V30 1186 H 106.151 -1.1976 2.24788 0
M  V30 1187 H 106.934 -0.0189416 3.43295 0
M  V30 1188 N 109.379 -1.50304 -0.473955 0
M  V30 1189 C 110.326 -1.68959 -1.57231 0
M  V30 1190 C 111.296 -0.530899 -1.57387 0
M  V30 1191 O 112.481 -0.761133 -1.74961 0
M  V30 1192 C 109.621 -1.7871 -2.95223 0
M  V30 1193 C 108.734 -3.06061 -3.04878 0
M  V30 1194 C 107.869 -3.06626 -4.33767 0
M  V30 1195 C 106.908 -4.28443 -4.37154 0
M  V30 1196 N 106.045 -4.26763 -5.5751 0
M  V30 1197 H 110.885 -2.6273 -1.40631 0
M  V30 1198 H 108.422 -1.30241 -0.683789 0
M  V30 1199 H 110.38 -1.82344 -3.75242 0
M  V30 1200 H 109.01 -0.883806 -3.10465 0
M  V30 1201 H 108.062 -3.11911 -2.17751 0
M  V30 1202 H 109.374 -3.96039 -3.0324 0
M  V30 1203 H 108.528 -3.08973 -5.22131 0
M  V30 1204 H 107.267 -2.14473 -4.3801 0
M  V30 1205 H 106.272 -4.2631 -3.47188 0
M  V30 1206 H 107.497 -5.2182 -4.34605 0
M  V30 1207 H 105.443 -3.37462 -5.62544 0
M  V30 1208 H 105.36 -5.10507 -5.57601 0
M  V30 1209 H 106.628 -4.33253 -6.48006 0
M  V30 1210 N 110.857 0.726932 -1.39834 0
M  V30 1211 C 111.787 1.85405 -1.41941 0
M  V30 1212 C 112.768 1.67751 -0.281728 0
M  V30 1213 O 113.953 1.8795 -0.488717 0
M  V30 1214 C 111.083 3.23243 -1.2701 0
M  V30 1215 C 110.037 3.55549 -2.38262 0
M  V30 1216 C 109.363 4.9241 -2.08415 0
M  V30 1217 C 110.663 3.577 -3.80589 0
M  V30 1218 H 112.357 1.83899 -2.36266 0
M  V30 1219 H 109.903 0.883349 -1.13723 0
M  V30 1220 H 111.856 4.01775 -1.27103 0
M  V30 1221 H 110.58 3.25296 -0.291564 0
M  V30 1222 H 109.239 2.79351 -2.37399 0
M  V30 1223 H 108.887 4.91052 -1.0898 0
M  V30 1224 H 108.587 5.14992 -2.82943 0
M  V30 1225 H 110.111 5.73289 -2.10171 0
M  V30 1226 H 111.525 4.26293 -3.83337 0
M  V30 1227 H 109.922 3.91804 -4.54543 0
M  V30 1228 H 110.992 2.57328 -4.10987 0
M  V30 1229 N 112.336 1.25143 0.95797 0
M  V30 1230 C 113.283 1.05235 2.05412 0
M  V30 1231 C 114.253 -0.0374561 1.66058 0
M  V30 1232 O 115.438 0.119073 1.90428 0
M  V30 1233 C 112.578 0.673589 3.38462 0
M  V30 1234 C 111.691 1.8379 3.90954 0
M  V30 1235 C 110.826 1.40381 5.12315 0
M  V30 1236 C 109.865 2.53746 5.57027 0
M  V30 1237 N 109.002 2.11136 6.69601 0
M  V30 1238 H 113.842 1.99048 2.21774 0
M  V30 1239 H 111.379 0.991277 1.08683 0
M  V30 1240 H 113.337 0.434964 4.14926 0
M  V30 1241 H 111.967 -0.227554 3.21997 0
M  V30 1242 H 111.019 2.18992 3.11041 0
M  V30 1243 H 112.331 2.68937 4.20089 0
M  V30 1244 H 111.485 1.12464 5.96185 0
M  V30 1245 H 110.224 0.523015 4.84887 0
M  V30 1246 H 109.229 2.82412 4.71724 0
M  V30 1247 H 110.454 3.42398 5.86464 0
M  V30 1248 H 108.4 1.25468 6.4389 0
M  V30 1249 H 108.317 2.89832 6.98236 0
M  V30 1250 H 109.585 1.86385 7.56889 0
M  V30 1251 N 113.814 -1.1601 1.06675 0
M  V30 1252 C 115.06 -1.87145 0.796766 0
M  V30 1253 C 115.415 -1.8037 -0.669658 0
M  V30 1254 O 114.708 -1.21116 -1.48463 0
M  V30 1255 C 114.902 -3.35547 1.23057 0
M  V30 1256 C 114.731 -3.56769 2.73762 0
M  V30 1257 C 113.501 -3.72635 3.41279 0
M  V30 1258 C 115.699 -3.55166 3.7197 0
M  V30 1259 N 113.681 -3.81845 4.80695 0
M  V30 1260 C 115.052 -3.70406 4.97191 0
M  V30 1261 C 117.107 -3.384 3.65226 0
M  V30 1262 C 115.81 -3.70615 6.16471 0
M  V30 1263 C 117.836 -3.39904 4.83962 0
M  V30 1264 C 117.198 -3.55667 6.08013 0
M  V30 1265 H 113.297 -0.702267 0.344014 0
M  V30 1266 H 115.881 -1.39165 1.36166 0
M  V30 1267 H 114.052 -3.82159 0.693456 0
M  V30 1268 H 115.784 -3.94363 0.908844 0
M  V30 1269 H 112.539 -3.73121 2.91681 0
M  V30 1270 H 112.963 -3.90209 5.53232 0
M  V30 1271 H 117.605 -3.25138 2.70269 0
M  V30 1272 H 115.323 -3.82658 7.11757 0
M  V30 1273 H 118.909 -3.28169 4.80413 0
M  V30 1274 H 117.789 -3.56755 6.98352 0
M  V30 1275 N 115.292 -0.849877 -1.32721 0
M  V30 1276 C 116.541 -0.447175 -1.96681 0
M  V30 1277 C 116.854 1.00135 -1.68025 0
M  V30 1278 O 118.06 1.50926 -2.25685 0
M  V30 1279 C 116.516 -0.7487 -3.52026 0
M  V30 1280 C 116.124 -2.21264 -3.89546 0
M  V30 1281 C 117.868 -0.413487 -4.22481 0
M  V30 1282 C 115.775 -2.45763 -5.37917 0
M  V30 1283 H 114.705 -0.163486 -0.736063 0
M  V30 1284 H 117.356 -1.03999 -1.51183 0
M  V30 1285 H 115.738 -0.0853727 -3.95908 0
M  V30 1286 H 116.912 -2.91736 -3.56689 0
M  V30 1287 H 115.227 -2.5119 -3.32103 0
M  V30 1288 H 117.824 -0.574017 -5.3161 0
M  V30 1289 H 118.167 0.644492 -4.11281 0
M  V30 1290 H 118.7 -1.03251 -3.84167 0
M  V30 1291 H 115.439 -3.50168 -5.54132 0
M  V30 1292 H 114.959 -1.79864 -5.72197 0
M  V30 1293 H 116.638 -2.29471 -6.0494 0
M  V30 1294 N 116.77 1.45427 -0.607355 0
M  V30 1295 C 117.702 2.2871 0.149752 0
M  V30 1296 C 118.715 1.39937 0.831958 0
M  V30 1297 O 119.904 1.64313 0.697385 0
M  V30 1298 C 117.004 3.15673 1.23304 0
M  V30 1299 C 116.177 4.32722 0.637996 0
M  V30 1300 C 115.236 5.00895 1.61215 0
M  V30 1301 O 114.262 5.57697 1.13854 0
M  V30 1302 N 115.464 5.00159 2.94655 0
M  V30 1303 H 118.229 2.94328 -0.564882 0
M  V30 1304 H 115.79 1.55612 -0.446823 0
M  V30 1305 H 117.782 3.58144 1.88454 0
M  V30 1306 H 116.352 2.51965 1.8502 0
M  V30 1307 H 115.572 3.93734 -0.191572 0
M  V30 1308 H 116.86 5.08321 0.220665 0
M  V30 1309 H 116.258 4.553 3.35735 0
M  V30 1310 H 114.815 5.46495 3.55228 0
M  V30 1311 N 118.248 0.346503 1.53744 0
M  V30 1312 C 119.158 -0.517293 2.28826 0
M  V30 1313 C 120.174 -1.10935 1.3405 0
M  V30 1314 O 121.35 -1.1244 1.6709 0
M  V30 1315 C 118.415 -1.65098 3.04866 0
M  V30 1316 C 117.476 -1.0884 4.15274 0
M  V30 1317 C 116.709 -2.16806 4.87679 0
M  V30 1318 O 116.932 -3.3758 4.59778 0
M  V30 1319 O 115.866 -1.80934 5.74061 0
M  V30 1320 H 119.692 0.0931396 3.03557 0
M  V30 1321 H 117.277 0.111458 1.48984 0
M  V30 1322 H 119.159 -2.31053 3.5241 0
M  V30 1323 H 117.834 -2.24717 2.32989 0
M  V30 1324 H 116.741 -0.3933 3.72027 0
M  V30 1325 H 118.074 -0.537036 4.89261 0
M  V30 1326 N 119.726 -1.57421 0.075193 0
M  V30 1327 C 120.956 -1.97659 -0.601203 0
M  V30 1328 C 121.364 -0.952427 -1.63479 0
M  V30 1329 O 120.707 0.0688241 -1.83571 0
M  V30 1330 C 120.769 -3.34218 -1.32434 0
M  V30 1331 C 120.433 -4.5484 -0.443826 0
M  V30 1332 C 121.43 -5.19034 0.299969 0
M  V30 1333 C 119.115 -5.00952 -0.367709 0
M  V30 1334 C 121.109 -6.27695 1.10807 0
M  V30 1335 C 118.796 -6.09484 0.444058 0
M  V30 1336 C 119.794 -6.72719 1.18061 0
M  V30 1337 O 119.482 -7.79161 1.97898 0
M  V30 1338 H 119.214 -0.65494 -0.167422 0
M  V30 1339 H 121.768 -2.04886 0.145157 0
M  V30 1340 H 119.998 -3.23615 -2.11685 0
M  V30 1341 H 121.687 -3.59038 -1.89331 0
M  V30 1342 H 122.453 -4.84351 0.250776 0
M  V30 1343 H 118.332 -4.51509 -0.930638 0
M  V30 1344 H 121.876 -6.76982 1.68347 0
M  V30 1345 H 117.773 -6.43601 0.494803 0
M  V30 1346 H 118.541 -7.96055 1.90367 0
M  V30 1347 N 121.204 0.198386 -1.56346 0
M  V30 1348 C 122.134 1.24865 -1.9731 0
M  V30 1349 C 123.115 1.47651 -0.844576 0
M  V30 1350 O 124.3 1.59444 -1.10866 0
M  V30 1351 C 121.43 2.59358 -2.30977 0
M  V30 1352 C 120.384 2.5119 -3.46537 0
M  V30 1353 C 119.71 3.89926 -3.65871 0
M  V30 1354 C 121.01 2.03977 -4.80823 0
M  V30 1355 H 122.704 0.908252 -2.85291 0
M  V30 1356 H 120.25 0.435462 -1.37258 0
M  V30 1357 H 122.203 3.33011 -2.58228 0
M  V30 1358 H 120.927 2.95132 -1.39874 0
M  V30 1359 H 119.586 1.79993 -3.19371 0
M  V30 1360 H 119.234 4.23046 -2.72105 0
M  V30 1361 H 118.934 3.85336 -4.4361 0
M  V30 1362 H 120.458 4.65205 -3.95495 0
M  V30 1363 H 121.872 2.67386 -5.07127 0
M  V30 1364 H 120.269 2.10397 -5.62008 0
M  V30 1365 H 121.339 0.992861 -4.74626 0
M  V30 1366 N 122.682 1.50554 0.465978 0
M  V30 1367 C 123.592 1.72585 1.58907 0
M  V30 1368 C 124.608 0.60911 1.6299 0
M  V30 1369 O 125.784 0.88804 1.80765 0
M  V30 1370 C 122.849 1.81995 2.95091 0
M  V30 1371 C 121.91 3.05751 3.01355 0
M  V30 1372 C 121.143 3.14702 4.31043 0
M  V30 1373 O 121.366 2.30313 5.21835 0
M  V30 1374 O 120.3 4.07468 4.43005 0
M  V30 1375 H 124.126 2.67799 1.43239 0
M  V30 1376 H 121.711 1.34711 0.646013 0
M  V30 1377 H 123.593 1.90335 3.75966 0
M  V30 1378 H 122.268 0.899659 3.10947 0
M  V30 1379 H 121.175 3.02908 2.19539 0
M  V30 1380 H 122.508 3.97375 2.90437 0
M  V30 1381 N 124.16 -0.719506 1.40217 0
M  V30 1382 C 125.107 -1.83359 1.40172 0
M  V30 1383 C 126.077 -1.64065 0.259206 0
M  V30 1384 O 127.262 -1.85254 0.456677 0
M  V30 1385 C 124.402 -3.2103 1.26624 0
M  V30 1386 C 123.515 -3.51923 2.50548 0
M  V30 1387 C 122.65 -4.79079 2.29471 0
M  V30 1388 C 121.689 -5.02863 3.48992 0
M  V30 1389 N 120.826 -6.2123 3.27135 0
M  V30 1390 H 125.666 -1.82733 2.35399 0
M  V30 1391 H 123.203 -0.892688 1.16917 0
M  V30 1392 H 125.161 -4.00524 1.16776 0
M  V30 1393 H 123.791 -3.20895 0.350176 0
M  V30 1394 H 122.843 -2.67014 2.70939 0
M  V30 1395 H 124.155 -3.6541 3.39525 0
M  V30 1396 H 123.309 -5.66582 2.16955 0
M  V30 1397 H 122.048 -4.67794 1.37913 0
M  V30 1398 H 121.053 -4.13816 3.6199 0
M  V30 1399 H 122.278 -5.16023 4.41472 0
M  V30 1400 H 120.224 -6.11204 2.38256 0
M  V30 1401 H 120.141 -6.35375 4.09675 0
M  V30 1402 H 121.409 -7.11532 3.18344 0
M  V30 1403 N 125.638 -1.25649 -0.95132 0
M  V30 1404 C 126.601 -1.06399 -2.03007 0
M  V30 1405 C 127.601 -0.0156794 -1.60792 0
M  V30 1406 O 128.791 -0.25817 -1.72276 0
M  V30 1407 C 125.923 -0.616184 -3.35285 0
M  V30 1408 H 127.116 -2.02164 -2.21517 0
M  V30 1409 H 124.669 -1.08103 -1.12887 0
M  V30 1410 H 125.404 0.343917 -3.22471 0
M  V30 1411 H 125.189 -1.37301 -3.67275 0
M  V30 1412 H 126.679 -0.503032 -4.14559 0
M  V30 1413 N 127.117 1.15442 -1.07289 0
M  V30 1414 C 128.047 2.22312 -0.714107 0
M  V30 1415 C 129.028 1.67467 0.298155 0
M  V30 1416 O 130.213 1.93445 0.171048 0
M  V30 1417 C 127.343 3.47124 -0.110448 0
M  V30 1418 C 126.297 4.14926 -1.04979 0
M  V30 1419 C 125.623 5.33807 -0.308924 0
M  V30 1420 C 126.923 4.64762 -2.38314 0
M  V30 1421 H 128.617 2.5258 -1.6076 0
M  V30 1422 H 126.163 1.21404 -0.77441 0
M  V30 1423 H 128.116 4.21124 0.152482 0
M  V30 1424 H 126.84 3.16187 0.81812 0
M  V30 1425 H 125.499 3.42866 -1.29764 0
M  V30 1426 H 125.147 4.99126 0.623084 0
M  V30 1427 H 124.847 5.80113 -0.935036 0
M  V30 1428 H 126.371 6.10576 -0.0537771 0
M  V30 1429 H 127.785 5.30292 -2.1786 0
M  V30 1430 H 126.182 5.21728 -2.96514 0
M  V30 1431 H 127.252 3.80434 -3.00663 0
M  V30 1432 N 128.595 0.856903 1.32268 0
M  V30 1433 C 129.543 0.291987 2.3076 0
M  V30 1434 C 130.537 -0.585857 1.58947 0
M  V30 1435 O 131.743 -0.47341 1.73663 0
M  V30 1436 H 128.118 0.075721 0.748178 0
M  V30 1437 H 130.089 1.13687 2.75895 0
M  V30 1438 C 128.838 -0.502869 3.44044 0
M  V30 1439 H 128.161 0.163328 3.99466 0
M  V30 1440 H 129.601 -0.863691 4.1511 0
M  V30 1441 C 128.06 -1.68898 2.91505 0
M  V30 1442 O 128.59 -2.78811 2.89184 0
M  V30 1443 N 126.796 -1.51679 2.47875 0
M  V30 1444 H 126.343 -0.622666 2.49961 0
M  V30 1445 H 126.301 -2.31184 2.13076 0
M  V30 1446 N 130.073 -1.45103 0.615059 0
M  V30 1447 C 131.02 -2.30586 -0.0993978 0
M  V30 1448 C 131.99 -1.42544 -0.852669 0
M  V30 1449 O 133.175 -1.71465 -0.836917 0
M  V30 1450 C 130.315 -3.27572 -1.08583 0
M  V30 1451 C 129.428 -4.30717 -0.332656 0
M  V30 1452 C 128.563 -5.14807 -1.30947 0
M  V30 1453 C 127.602 -6.09673 -0.544538 0
M  V30 1454 N 126.739 -6.86517 -1.47101 0
M  V30 1455 H 131.579 -2.91144 0.635542 0
M  V30 1456 H 129.116 -1.4346 0.325206 0
M  V30 1457 H 131.074 -3.82276 -1.67095 0
M  V30 1458 H 129.704 -2.68751 -1.78809 0
M  V30 1459 H 128.756 -3.78615 0.368107 0
M  V30 1460 H 130.068 -4.98102 0.263842 0
M  V30 1461 H 129.222 -5.73948 -1.96643 0
M  V30 1462 H 127.961 -4.47458 -1.9399 0
M  V30 1463 H 126.966 -5.49656 0.126003 0
M  V30 1464 H 128.191 -6.79052 0.080947 0
M  V30 1465 H 126.137 -6.21851 -2.08895 0
M  V30 1466 H 126.054 -7.50281 -0.928137 0
M  V30 1467 H 127.322 -7.50194 -2.11731 0
M  V30 1468 N 131.551 -0.354651 -1.53558 0
M  V30 1469 C 132.967 -0.00315426 -1.596 0
M  V30 1470 C 133.167 1.47741 -1.37021 0
M  V30 1471 O 132.223 2.23759 -1.16996 0
M  V30 1472 C 133.536 -0.44929 -2.97325 0
M  V30 1473 C 135.084 -0.402578 -3.104 0
M  V30 1474 C 135.559 -0.824355 -4.5052 0
M  V30 1475 N 137.05 -0.778979 -4.56603 0
M  V30 1476 C 137.785 -1.07715 -5.63192 0
M  V30 1477 N 137.281 -1.44405 -6.77583 0
M  V30 1478 N 139.074 -1.00066 -5.53121 0
M  V30 1479 H 131.225 -1.31893 -1.66487 0
M  V30 1480 H 133.488 -0.538388 -0.780284 0
M  V30 1481 H 133.194 -1.48202 -3.1895 0
M  V30 1482 H 133.068 0.169772 -3.76818 0
M  V30 1483 H 135.455 0.621004 -2.88492 0
M  V30 1484 H 135.536 -1.05699 -2.32941 0
M  V30 1485 H 135.18 -1.846 -4.73165 0
M  V30 1486 H 135.11 -0.147304 -5.26394 0
M  V30 1487 H 137.601 -0.508528 -3.74463 0
M  V30 1488 H 137.914 -1.65612 -7.54846 0
M  V30 1489 H 136.259 -1.4826 -6.79002 0
M  V30 1490 H 139.45 -0.713293 -4.62633 0
M  V30 1491 H 139.623 -1.23638 -6.36096 0
M  V30 1492 N 133.029 1.57378 -0.0835403 0
M  V30 1493 C 134.276 1.9393 0.58287 0
M  V30 1494 C 134.604 0.964455 1.68904 0
M  V30 1495 O 133.859 -0.0179474 1.95692 0
M  V30 1496 C 134.158 3.37063 1.1884 0
M  V30 1497 C 133.824 4.50424 0.207194 0
M  V30 1498 C 132.486 4.81159 -0.0627115 0
M  V30 1499 C 134.838 5.19136 -0.463426 0
M  V30 1500 C 132.166 5.77939 -1.01012 0
M  V30 1501 C 134.518 6.16931 -1.39924 0
M  V30 1502 C 133.182 6.46078 -1.67749 0
M  V30 1503 H 132.452 0.70964 0.213287 0
M  V30 1504 H 135.099 1.90856 -0.156916 0
M  V30 1505 H 133.404 3.3666 2.00418 0
M  V30 1506 H 135.101 3.6264 1.71153 0
M  V30 1507 H 131.691 4.2646 0.427747 0
M  V30 1508 H 135.875 4.95576 -0.268034 0
M  V30 1509 H 131.131 5.98842 -1.23283 0
M  V30 1510 H 135.305 6.69273 -1.92476 0
M  V30 1511 H 132.932 7.2088 -2.41321 0
M  V30 1512 N 134.507 -0.190092 1.56449 0
M  V30 1513 C 135.454 -1.23557 1.94942 0
M  V30 1514 C 136.424 -1.44972 0.810696 0
M  V30 1515 O 137.609 -1.58023 1.06927 0
M  V30 1516 C 134.749 -2.57416 2.2985 0
M  V30 1517 C 133.862 -2.43537 3.5681 0
M  V30 1518 C 132.997 -3.70134 3.81017 0
M  V30 1519 C 132.036 -3.51109 5.01387 0
M  V30 1520 N 131.173 -4.6973 5.21822 0
M  V30 1521 H 136.013 -0.900304 2.84075 0
M  V30 1522 H 133.55 -0.43318 1.40577 0
M  V30 1523 H 135.508 -3.35409 2.48106 0
M  V30 1524 H 134.138 -2.88975 1.43852 0
M  V30 1525 H 133.19 -1.56816 3.46573 0
M  V30 1526 H 134.502 -2.25415 4.4496 0
M  V30 1527 H 133.656 -4.56566 3.9954 0
M  V30 1528 H 132.395 -3.91215 2.91207 0
M  V30 1529 H 131.4 -2.63063 4.82782 0
M  V30 1530 H 132.625 -3.31468 5.9271 0
M  V30 1531 H 130.571 -4.91065 4.34961 0
M  V30 1532 H 130.488 -4.54452 6.0416 0
M  V30 1533 H 131.756 -5.57499 5.44808 0
M  V30 1534 N 135.985 -1.50799 -0.457987 0
M  V30 1535 C 136.918 -1.65273 -1.57353 0
M  V30 1536 C 137.896 -0.500578 -1.54703 0
M  V30 1537 O 139.08 -0.721781 -1.74134 0
M  V30 1538 C 136.207 -1.64737 -2.95938 0
M  V30 1539 C 135.253 -2.8567 -3.16693 0
M  V30 1540 S 136.086 -4.46791 -2.95191 0
M  V30 1541 C 137.242 -4.48968 -4.36095 0
M  V30 1542 H 137.475 -2.59633 -1.44838 0
M  V30 1543 H 135.008 -1.40225 -0.64625 0
M  V30 1544 H 136.966 -1.65112 -3.7583 0
M  V30 1545 H 135.627 -0.715899 -3.05833 0
M  V30 1546 H 134.82 -2.81637 -4.17967 0
M  V30 1547 H 134.422 -2.8293 -2.44594 0
M  V30 1548 H 136.714 -4.23337 -5.28954 0
M  V30 1549 H 137.657 -5.50664 -4.45168 0
M  V30 1550 H 138.065 -3.78522 -4.18786 0
M  V30 1551 O 137.502 0.603621 -1.49795 0
M  V30 1552 H 138.193 1.25828 -1.47265 0
M  V30 END ATOM
M  V30 BEGIN BOND
M  V30 END BOND
M  V30 END CTAB
M  END
$$$$
