drugbank_target|P48163 NADP-dependent malic enzyme (DB00157; DB03461)
 OpenBabel12092119353D

  0  0  0     0  0            999 V3000
M  V30 BEGIN CTAB
M  V30 COUNTS 9053 9141 0 0 0
M  V30 BEGIN ATOM
M  V30 1 H -0.908 1.98254 -0.117106 0
M  V30 2 N 0 1.576 0 0
M  V30 3 C 0.933 2.03868 1.02534 0
M  V30 4 C 1.911 0.928543 1.3348 0
M  V30 5 O 3.095 1.19667 1.45644 0
M  V30 6 C 0.222 2.43627 2.35294 0
M  V30 7 C -0.732 3.65373 2.2001 0
M  V30 8 S 0.101 5.13292 1.52614 0
M  V30 9 C 1.257 5.56322 2.86805 0
M  V30 10 H 1.49 2.90518 0.631377 0
M  V30 11 H -0.977 1.52953 0.210867 0
M  V30 12 H 0.981 2.67203 3.11629 0
M  V30 13 H -0.358 1.57376 2.7183 0
M  V30 14 H -1.165 3.90944 3.18086 0
M  V30 15 H -1.563 3.418 1.51819 0
M  V30 16 H 0.729 5.58782 3.83104 0
M  V30 17 H 1.672 6.56266 2.65933 0
M  V30 18 H 2.08 4.83886 2.90714 0
M  V30 19 N 1.4781 -0.272755 1.55222 0
M  V30 20 C 2.3881 -1.35918 1.91216 0
M  V30 21 C 3.4041 -1.54026 0.809436 0
M  V30 22 O 4.5801 -1.68148 1.10852 0
M  V30 23 C 1.6451 -2.69834 2.17693 0
M  V30 24 C 0.7061 -2.6047 3.41253 0
M  V30 25 C -0.0609 -3.88 3.66458 0
M  V30 26 O 0.1621 -4.88693 2.94169 0
M  V30 27 O -0.9039 -3.88189 4.59992 0
M  V30 28 H 2.9221 -1.0839 2.83699 0
M  V30 29 H 0.5071 -0.471301 1.41771 0
M  V30 30 H 2.3891 -3.49017 2.36147 0
M  V30 31 H 1.0641 -2.97148 1.28392 0
M  V30 32 H -0.0289 -1.79663 3.28134 0
M  V30 33 H 1.3041 -2.38106 4.30774 0
M  V30 34 N 2.9562 -1.48159 -0.537278 0
M  V30 35 C 4.3672 -1.49429 -1.11928 0
M  V30 36 C 4.7182 -0.26 -1.9447 0
M  V30 37 O 3.8432 0.633489 -2.0692 0
M  V30 38 C 4.4382 -2.70758 -2.03656 0
M  V30 39 C 2.9972 -2.74923 -2.57088 0
M  V30 40 C 2.1442 -2.42835 -1.3389 0
M  V30 41 H 5.0952 -1.55381 -0.322886 0
M  V30 42 H 5.1162 -2.48861 -2.87834 0
M  V30 43 H 4.6282 -3.60575 -1.43553 0
M  V30 44 H 2.7292 -1.89296 -3.20933 0
M  V30 45 H 2.8422 -3.76157 -2.9672 0
M  V30 46 H 1.2062 -1.93836 -1.65226 0
M  V30 47 H 1.9892 -3.34884 -0.755504 0
M  V30 48 N 4.4343 0.785586 -1.36625 0
M  V30 49 C 5.3443 1.92964 -1.33425 0
M  V30 50 C 6.3603 1.72394 -0.235851 0
M  V30 51 O 7.5363 1.95866 -0.468878 0
M  V30 52 C 4.6013 3.27884 -1.12662 0
M  V30 53 C 3.6623 3.61204 -2.32013 0
M  V30 54 C 2.8953 4.89687 -2.12231 0
M  V30 55 O 3.1183 5.59704 -1.09945 0
M  V30 56 O 2.0523 5.21752 -3.00098 0
M  V30 57 H 5.8783 1.98613 -2.29753 0
M  V30 58 H 3.4633 0.926384 -1.17211 0
M  V30 59 H 5.3453 4.08614 -1.03016 0
M  V30 60 H 4.0203 3.23118 -0.193991 0
M  V30 61 H 2.9273 2.80765 -2.47228 0
M  V30 62 H 4.2603 3.70698 -3.23796 0
M  V30 63 N 5.9124 1.20967 1.01018 0
M  V30 64 C 6.8754 0.965918 2.07853 0
M  V30 65 C 7.8754 -0.0610545 1.60684 0
M  V30 66 O 9.0654 0.175681 1.73312 0
M  V30 67 C 6.1974 0.455513 3.37843 0
M  V30 68 H 7.3904 1.91365 2.3091 0
M  V30 69 H 4.9434 1.02594 1.17916 0
M  V30 70 H 5.6784 -0.497381 3.20463 0
M  V30 71 H 5.4634 1.19622 3.73407 0
M  V30 72 H 6.9534 0.304667 4.16487 0
M  V30 73 N 7.3905 -1.2043 1.01659 0
M  V30 74 C 8.8015 -1.71517 0.737482 0
M  V30 75 C 9.1525 -1.81547 -0.743973 0
M  V30 76 O 8.2775 -1.47803 -1.58061 0
M  V30 77 C 8.8725 -3.11515 1.33206 0
M  V30 78 C 7.4315 -3.59912 1.10183 0
M  V30 79 C 6.5785 -2.37116 1.43776 0
M  V30 80 H 9.5295 -1.05444 1.18606 0
M  V30 81 H 9.5505 -3.73575 0.722636 0
M  V30 82 H 9.0625 -3.04182 2.41028 0
M  V30 83 H 7.1635 -3.72577 0.0412756 0
M  V30 84 H 7.2765 -4.44731 1.78188 0
M  V30 85 H 5.6405 -2.39857 0.856778 0
M  V30 86 H 6.4235 -2.32424 2.52654 0
M  V30 87 N 8.8686 -0.792821 -1.36206 0
M  V30 88 C 10.2846 -0.474903 -1.52371 0
M  V30 89 C 10.4846 1.00622 -1.74578 0
M  V30 90 O 9.5406 1.79162 -1.77924 0
M  V30 91 C 10.8536 -1.3083 -2.70747 0
M  V30 92 C 12.4016 -1.30234 -2.84619 0
M  V30 93 C 12.8766 -2.11956 -4.06004 0
M  V30 94 N 14.3676 -2.09419 -4.13156 0
M  V30 95 C 15.1026 -2.69419 -5.06163 0
M  V30 96 N 14.5986 -3.3829 -6.04592 0
M  V30 97 N 16.3916 -2.59134 -4.98804 0
M  V30 98 H 8.5426 -1.75222 -1.20046 0
M  V30 99 H 10.8056 -0.745024 -0.586211 0
M  V30 100 H 10.5116 -2.35881 -2.6087 0
M  V30 101 H 10.3856 -0.95196 -3.6499 0
M  V30 102 H 12.7726 -0.259748 -2.93955 0
M  V30 103 H 12.8536 -1.69847 -1.91274 0
M  V30 104 H 12.4976 -3.16248 -3.97429 0
M  V30 105 H 12.4276 -1.69711 -4.98503 0
M  V30 106 H 14.9186 -1.59297 -3.42685 0
M  V30 107 H 15.2316 -3.81394 -6.7213 0
M  V30 108 H 13.5766 -3.42393 -6.04807 0
M  V30 109 H 16.7676 -2.04927 -4.20859 0
M  V30 110 H 16.9406 -3.06185 -5.711 0
M  V30 111 N 10.3467 1.47872 -0.545128 0
M  V30 112 C 11.7627 1.5829 -0.204032 0
M  V30 113 C 11.9627 1.54529 1.29317 0
M  V30 114 O 11.0187 1.44232 2.07252 0
M  V30 115 C 12.3317 2.89304 -0.819987 0
M  V30 116 C 13.8797 3.02864 -0.790105 0
M  V30 117 C 14.3547 4.3656 -1.38491 0
M  V30 118 N 15.8457 4.43165 -1.34755 0
M  V30 119 C 16.5807 5.45153 -1.77753 0
M  V30 120 N 16.0767 6.54016 -2.2855 0
M  V30 121 N 17.8697 5.36125 -1.68897 0
M  V30 122 H 10.0207 1.4856 -1.51802 0
M  V30 123 H 12.2837 0.706305 -0.632327 0
M  V30 124 H 11.9897 2.97757 -1.87173 0
M  V30 125 H 11.8637 3.75957 -0.305915 0
M  V30 126 H 14.2507 2.94014 0.252913 0
M  V30 127 H 14.3317 2.17782 -1.34181 0
M  V30 128 H 13.9757 4.46164 -2.42693 0
M  V30 129 H 13.9057 5.20353 -0.808754 0
M  V30 130 H 16.3967 3.65083 -0.975855 0
M  V30 131 H 16.7097 7.27994 -2.59314 0
M  V30 132 H 15.0547 6.54938 -2.32553 0
M  V30 133 H 18.2457 4.49975 -1.28998 0
M  V30 134 H 18.4187 6.15472 -2.02726 0
M  V30 135 N 11.8248 0.280983 1.55075 0
M  V30 136 C 13.2408 -0.0729964 1.59433 0
M  V30 137 C 13.4408 -1.5411 1.29817 0
M  V30 138 O 12.4968 -2.29086 1.06187 0
M  V30 139 C 13.8098 0.306921 2.9913 0
M  V30 140 C 15.3578 0.254023 3.11968 0
M  V30 141 C 15.8328 0.608467 4.5394 0
M  V30 142 N 17.3238 0.560241 4.59799 0
M  V30 143 C 18.0588 0.80722 5.6769 0
M  V30 144 N 17.5548 1.11912 6.83701 0
M  V30 145 N 19.3478 0.735623 5.57266 0
M  V30 146 H 11.4988 1.238 1.7259 0
M  V30 147 H 13.7618 0.500547 0.805082 0
M  V30 148 H 13.4678 1.32816 3.25657 0
M  V30 149 H 13.3418 -0.349363 3.75579 0
M  V30 150 H 15.7288 -0.75794 2.852 0
M  V30 151 H 15.8098 0.944649 2.37718 0
M  V30 152 H 15.4538 1.61814 4.81434 0
M  V30 153 H 15.3838 -0.104013 5.26497 0
M  V30 154 H 17.8748 0.329288 3.76463 0
M  V30 155 H 18.1878 1.29409 7.61888 0
M  V30 156 H 16.5328 1.15695 6.85303 0
M  V30 157 H 19.7238 0.491752 4.6551 0
M  V30 158 H 19.8968 0.931482 6.4127 0
M  V30 159 N 13.3029 -1.57598 0.00835791 0
M  V30 160 C 14.2529 -2.05431 -0.989045 0
M  V30 161 C 15.2369 -0.950662 -1.29812 0
M  V30 162 O 16.4289 -1.21438 -1.28771 0
M  V30 163 C 13.5579 -2.56801 -2.27833 0
M  V30 164 C 12.6439 -3.74058 -1.99853 0
M  V30 165 N 13.0349 -4.8544 -1.42062 0
M  V30 166 C 11.3329 -3.82148 -2.29953 0
M  V30 167 C 12.0339 -5.66817 -1.30743 0
M  V30 168 N 11.0099 -5.13077 -1.7959 0
M  V30 169 H 14.8119 -2.88955 -0.536853 0
M  V30 170 H 12.3259 -1.61199 -0.197148 0
M  V30 171 H 14.3229 -2.89349 -3.00137 0
M  V30 172 H 12.9829 -1.74699 -2.73698 0
M  V30 173 H 13.9939 -5.0612 -1.09833 0
M  V30 174 H 10.6709 -3.10916 -2.78635 0
M  V30 175 H 12.0609 -6.66343 -0.862328 0
M  V30 176 N 14.781 0.264519 -1.55364 0
M  V30 177 C 16.009 1.013 -1.80405 0
M  V30 178 C 16.424 1.79618 -0.581622 0
M  V30 179 O 15.781 1.76879 0.449468 0
M  V30 180 C 15.832 1.96487 -3.03439 0
M  V30 181 O 15.553 1.21341 -4.20961 0
M  V30 182 C 17.054 2.83079 -3.41147 0
M  V30 183 H 14.274 0.298875 -0.600762 0
M  V30 184 H 16.818 0.292736 -2.02394 0
M  V30 185 H 14.973 2.63965 -2.83551 0
M  V30 186 H 15.387 1.85573 -4.90574 0
M  V30 187 H 16.861 3.4565 -4.30384 0
M  V30 188 H 17.338 3.53286 -2.60932 0
M  V30 189 H 17.944 2.2108 -3.63323 0
M  V30 190 N 16.2591 1.48442 0.529413 0
M  V30 191 C 17.2091 1.59407 1.63014 0
M  V30 192 C 18.1931 0.451166 1.54445 0
M  V30 193 O 19.3851 0.702635 1.62456 0
M  V30 194 C 16.5141 1.63746 3.01732 0
M  V30 195 C 15.6001 2.83518 3.15402 0
M  V30 196 N 15.9911 4.07929 2.99045 0
M  V30 197 C 14.2891 2.80862 3.46457 0
M  V30 198 C 14.9901 4.8829 3.16146 0
M  V30 199 N 13.9661 4.21117 3.43746 0
M  V30 200 H 17.7681 2.53343 1.48978 0
M  V30 201 H 15.2821 1.44821 0.734885 0
M  V30 202 H 17.2791 1.69695 3.80801 0
M  V30 203 H 15.9391 0.709264 3.16859 0
M  V30 204 H 16.9501 4.38357 2.75796 0
M  V30 205 H 13.6271 1.97301 3.67938 0
M  V30 206 H 15.0171 5.97028 3.08232 0
M  V30 207 N 17.7372 -0.778329 1.37039 0
M  V30 208 C 18.6692 -1.90034 1.2814 0
M  V30 209 C 19.6822 -1.61585 0.198558 0
M  V30 210 O 20.8712 -1.72625 0.454175 0
M  V30 211 C 17.9712 -3.25108 0.956968 0
M  V30 212 C 17.1442 -3.81253 2.14394 0
M  V30 213 C 16.2032 -4.94789 1.79082 0
M  V30 214 O 15.2292 -5.10721 2.51301 0
M  V30 215 N 16.4312 -5.75878 0.731043 0
M  V30 216 H 19.1962 -1.98186 2.24816 0
M  V30 217 H 16.7572 -0.957129 1.30578 0
M  V30 218 H 18.7492 -3.9857 0.701701 0
M  V30 219 H 17.3192 -3.125 0.0789812 0
M  V30 220 H 16.5392 -2.99647 2.56135 0
M  V30 221 H 17.8272 -4.15495 2.93668 0
M  V30 222 H 17.2252 -5.65547 0.131618 0
M  V30 223 H 15.7822 -6.49596 0.535622 0
M  V30 224 N 19.2153 -1.21501 -1.00376 0
M  V30 225 C 20.6313 -0.972629 -1.26539 0
M  V30 226 C 20.8313 0.340257 -1.98606 0
M  V30 227 O 19.8873 1.06561 -2.28913 0
M  V30 228 C 21.2003 -2.16404 -2.08781 0
M  V30 229 C 22.7483 -2.20643 -2.22004 0
M  V30 230 C 23.2233 -3.39306 -3.07629 0
M  V30 231 N 24.7143 -3.39401 -3.15217 0
M  V30 232 C 25.4493 -4.27867 -3.81729 0
M  V30 233 N 24.9453 -5.26533 -4.5026 0
M  V30 234 N 26.7383 -4.15672 -3.78382 0
M  V30 235 H 18.8893 -2.05929 -0.520281 0
M  V30 236 H 21.1523 -0.901803 -0.292328 0
M  V30 237 H 20.8583 -3.11554 -1.63178 0
M  V30 238 H 20.7323 -2.15567 -3.09533 0
M  V30 239 H 23.1193 -1.26048 -2.66825 0
M  V30 240 H 23.2003 -2.25523 -1.20718 0
M  V30 241 H 22.8443 -4.34195 -2.63509 0
M  V30 242 H 22.7743 -3.31665 -4.09031 0
M  V30 243 H 25.2653 -2.67997 -2.66432 0
M  V30 244 H 25.5783 -5.90337 -4.98721 0
M  V30 245 H 23.9233 -5.30457 -4.49044 0
M  V30 246 H 27.1143 -3.3785 -3.23998 0
M  V30 247 H 27.2873 -4.84825 -4.2994 0
M  V30 248 N 20.6934 1.19889 -1.02296 0
M  V30 249 C 21.9414 1.89046 -0.714558 0
M  V30 250 C 22.2624 1.79636 0.758681 0
M  V30 251 O 21.5324 1.20292 1.54618 0
M  V30 252 H 20.1124 0.699802 -0.261317 0
M  V30 253 H 22.7744 1.45574 -1.29592 0
M  V30 254 H 21.8704 2.95524 -1.0036 0
M  V30 255 N 22.1715 0.800033 1.35784 0
M  V30 256 C 23.4015 0.389041 2.02904 0
M  V30 257 C 23.8095 -1.0027 1.60445 0
M  V30 258 O 23.1525 -1.65633 0.794453 0
M  V30 259 C 23.2145 0.385495 3.57427 0
M  V30 260 C 22.8785 1.72662 4.23127 0
M  V30 261 C 23.8755 2.68385 4.4527 0
M  V30 262 C 21.5605 2.00883 4.60381 0
M  V30 263 C 23.5545 3.90517 5.03761 0
M  V30 264 C 21.2415 3.2328 5.18588 0
M  V30 265 C 22.2395 4.17915 5.40218 0
M  V30 266 O 21.9275 5.38153 5.97199 0
M  V30 267 H 21.6595 0.157032 0.657508 0
M  V30 268 H 24.2135 1.08311 1.74522 0
M  V30 269 H 22.4435 -0.365128 3.84972 0
M  V30 270 H 24.1325 -0.00228296 4.059 0
M  V30 271 H 24.8985 2.47872 4.16874 0
M  V30 272 H 20.7775 1.28037 4.42863 0
M  V30 273 H 24.3215 4.64395 5.2056 0
M  V30 274 H 20.2185 3.43667 5.4641 0
M  V30 275 H 20.9865 5.3936 6.15656 0
M  V30 276 N 23.6496 -1.47581 0.552962 0
M  V30 277 C 24.5796 -2.32762 -0.185451 0
M  V30 278 C 25.5606 -1.43527 -0.912905 0
M  V30 279 O 26.7456 -1.72388 -0.894201 0
M  V30 280 C 23.8756 -3.25219 -1.21859 0
M  V30 281 C 22.8296 -4.23661 -0.607864 0
M  V30 282 C 22.1556 -5.05413 -1.74533 0
M  V30 283 C 23.4556 -5.20481 0.435582 0
M  V30 284 H 25.1496 -2.94749 0.525684 0
M  V30 285 H 22.6956 -1.41738 0.254251 0
M  V30 286 H 24.6486 -3.8365 -1.7433 0
M  V30 287 H 23.3726 -2.61279 -1.95961 0
M  V30 288 H 22.0316 -3.66451 -0.104489 0
M  V30 289 H 21.6796 -4.3788 -2.47529 0
M  V30 290 H 21.3796 -5.72059 -1.34249 0
M  V30 291 H 22.9036 -5.66701 -2.27338 0
M  V30 292 H 24.3176 -5.733 -0.00290157 0
M  V30 293 H 22.7146 -5.95305 0.757067 0
M  V30 294 H 23.7846 -4.66217 1.33303 0
M  V30 295 N 25.1277 -0.289203 -1.54924 0
M  V30 296 C 26.0577 0.58549 -2.2604 0
M  V30 297 C 27.0387 1.14753 -1.25562 0
M  V30 298 O 28.2237 1.17906 -1.54311 0
M  V30 299 C 25.3537 1.76305 -2.99222 0
M  V30 300 C 24.3077 1.33191 -4.06748 0
M  V30 301 C 23.6337 2.5937 -4.6758 0
M  V30 302 C 24.9337 0.471775 -5.20165 0
M  V30 303 H 26.6277 -0.00763532 -2.99399 0
M  V30 304 H 24.1737 -0.00511229 -1.43999 0
M  V30 305 H 26.1267 2.38097 -3.47689 0
M  V30 306 H 24.8507 2.38223 -2.23422 0
M  V30 307 H 23.5097 0.737121 -3.59113 0
M  V30 308 H 23.1577 3.19576 -3.88433 0
M  V30 309 H 22.8577 2.31228 -5.40192 0
M  V30 310 H 24.3817 3.21985 -5.18804 0
M  V30 311 H 25.7957 0.995056 -5.64599 0
M  V30 312 H 24.1927 0.284639 -5.99425 0
M  V30 313 H 25.2627 -0.506041 -4.82252 0
M  V30 314 N 26.6058 1.57591 -0.0167156 0
M  V30 315 C 27.8338 1.95575 0.675128 0
M  V30 316 C 28.2488 0.892542 1.6637 0
M  V30 317 O 27.6058 -0.126912 1.82058 0
M  V30 318 C 27.6568 3.33608 1.39239 0
M  V30 319 O 27.3778 4.3585 0.443444 0
M  V30 320 C 28.8788 3.86151 2.17721 0
M  V30 321 H 26.0988 0.644423 0.186978 0
M  V30 322 H 28.6428 2.0437 -0.0728 0
M  V30 323 H 26.7978 3.2607 2.09182 0
M  V30 324 H 27.2118 5.158 0.951358 0
M  V30 325 H 28.6858 4.85114 2.63379 0
M  V30 326 H 29.1628 3.19738 3.01105 0
M  V30 327 H 29.7688 3.96918 1.52761 0
M  V30 328 N 28.0839 -0.256276 1.55502 0
M  V30 329 C 29.4999 -0.604325 1.47716 0
M  V30 330 C 29.6999 -1.88763 0.705039 0
M  V30 331 O 28.7559 -2.51445 0.230613 0
M  V30 332 C 30.0689 -0.715756 2.92057 0
M  V30 333 C 31.6169 -0.808706 3.02372 0
M  V30 334 C 32.0919 -0.951777 4.48001 0
M  V30 335 N 33.5829 -1.01688 4.519 0
M  V30 336 C 34.3179 -1.14668 5.61817 0
M  V30 337 N 33.8139 -1.24261 6.81565 0
M  V30 338 N 35.6069 -1.1791 5.49594 0
M  V30 339 H 27.7579 0.586291 2.04148 0
M  V30 340 H 30.0209 0.201015 0.926443 0
M  V30 341 H 29.7269 0.157027 3.51349 0
M  V30 342 H 29.6009 -1.59071 3.42018 0
M  V30 343 H 31.9879 -1.67195 2.43166 0
M  V30 344 H 32.0689 0.0912063 2.55637 0
M  V30 345 H 31.7129 -0.0931291 5.07815 0
M  V30 346 H 31.6429 -1.86659 4.92408 0
M  V30 347 H 34.1339 -0.954468 3.65648 0
M  V30 348 H 34.4469 -1.34046 7.61086 0
M  V30 349 H 32.7919 -1.21236 6.84344 0
M  V30 350 H 35.9829 -1.10057 4.54978 0
M  V30 351 H 36.1559 -1.27681 6.35296 0
M  V30 352 N 29.562 -1.4872 -0.521534 0
M  V30 353 C 30.51 -1.64328 -1.64618 0
M  V30 354 C 31.504 -0.50953 -1.61555 0
M  V30 355 O 32.71 -0.688525 -1.66311 0
M  V30 356 H 29.085 -0.517805 -0.545328 0
M  V30 357 H 31.056 -2.58767 -1.48601 0
M  V30 358 C 29.805 -1.70805 -3.02855 0
M  V30 359 H 29.128 -2.5741 -3.05909 0
M  V30 360 H 30.568 -1.85766 -3.81139 0
M  V30 361 C 29.027 -0.448479 -3.33902 0
M  V30 362 O 29.557 0.434928 -3.99339 0
M  V30 363 N 27.763 -0.317616 -2.88859 0
M  V30 364 H 27.31 -1.03748 -2.35784 0
M  V30 365 H 27.268 0.524113 -3.10001 0
M  V30 366 N 31.0401 0.771051 -1.3745 0
M  V30 367 C 32.4511 1.34737 -1.29239 0
M  V30 368 C 32.8021 1.96109 0.0596908 0
M  V30 369 O 31.9271 1.93865 0.961534 0
M  V30 370 C 32.5221 2.44973 -2.34037 0
M  V30 371 C 31.0811 2.98372 -2.29458 0
M  V30 372 C 30.2281 1.71595 -2.17831 0
M  V30 373 H 33.1791 0.571256 -1.48062 0
M  V30 374 H 33.2001 3.24471 -1.98744 0
M  V30 375 H 32.7121 2.00276 -3.32432 0
M  V30 376 H 30.8131 3.47443 -1.34589 0
M  V30 377 H 30.9261 3.53939 -3.229 0
M  V30 378 H 29.2901 1.94547 -1.64388 0
M  V30 379 H 30.0731 1.29001 -3.18141 0
M  V30 380 N 32.5182 1.22032 0.997298 0
M  V30 381 C 33.4682 0.953838 2.07089 0
M  V30 382 C 34.4522 -0.0938669 1.60626 0
M  V30 383 O 35.6442 0.116078 1.76619 0
M  V30 384 C 32.7732 0.528726 3.39204 0
M  V30 385 C 31.8592 1.61092 3.92314 0
M  V30 386 N 32.2502 2.83768 4.18699 0
M  V30 387 C 30.5482 1.48158 4.20672 0
M  V30 388 C 31.2492 3.53715 4.61802 0
M  V30 389 N 30.2252 2.81174 4.65233 0
M  V30 390 H 34.0272 1.88577 2.25424 0
M  V30 391 H 31.5412 1.11719 1.17867 0
M  V30 392 H 33.5382 0.31915 4.15677 0
M  V30 393 H 32.1982 -0.39635 3.22272 0
M  V30 394 H 33.2092 3.20238 4.07023 0
M  V30 395 H 29.8862 0.622369 4.12835 0
M  V30 396 H 31.2762 4.58793 4.90875 0
M  V30 397 N 33.9963 -1.19345 1.0293 0
M  V30 398 C 34.9263 -2.2481 0.631105 0
M  V30 399 C 35.9073 -1.66245 -0.360104 0
M  V30 400 O 37.0923 -1.92677 -0.242726 0
M  V30 401 C 34.2223 -3.47295 -0.0184607 0
M  V30 402 C 33.1763 -4.18536 0.895073 0
M  V30 403 C 32.5023 -5.34586 0.110592 0
M  V30 404 C 33.8023 -4.73287 2.209 0
M  V30 405 H 35.4963 -2.58372 1.51275 0
M  V30 406 H 33.0423 -1.24194 0.728818 0
M  V30 407 H 34.9953 -4.20268 -0.308675 0
M  V30 408 H 33.7193 -3.12933 -0.934907 0
M  V30 409 H 32.3783 -3.47446 1.16949 0
M  V30 410 H 32.0263 -4.96469 -0.807902 0
M  V30 411 H 31.7263 -5.83183 0.719087 0
M  V30 412 H 33.2503 -6.10355 -0.172871 0
M  V30 413 H 34.6643 -5.38013 1.98028 0
M  V30 414 H 33.0613 -5.32373 2.76946 0
M  V30 415 H 34.1313 -3.91331 2.86336 0
M  V30 416 N 35.4744 -0.807222 -1.35358 0
M  V30 417 C 36.4224 -0.20614 -2.31685 0
M  V30 418 C 37.4164 0.644445 -1.56663 0
M  V30 419 O 38.6224 0.537538 -1.71786 0
M  V30 420 H 34.9974 -0.0479006 -0.750473 0
M  V30 421 H 36.9684 -1.03369 -2.79924 0
M  V30 422 C 35.7174 0.630212 -3.41941 0
M  V30 423 H 35.0404 -0.0149558 -3.99797 0
M  V30 424 H 36.4804 1.01716 -4.11619 0
M  V30 425 C 34.9394 1.79601 -2.85035 0
M  V30 426 O 35.4694 2.89351 -2.78637 0
M  V30 427 N 33.6754 1.60774 -2.42074 0
M  V30 428 H 33.2224 0.715009 -2.47478 0
M  V30 429 H 33.1804 2.38933 -2.04349 0
M  V30 430 N 36.9525 1.47285 -0.560781 0
M  V30 431 C 37.8995 2.30058 0.18491 0
M  V30 432 C 38.8695 1.39281 0.904986 0
M  V30 433 O 40.0545 1.68241 0.899979 0
M  V30 434 C 37.1945 3.23317 1.20666 0
M  V30 435 C 36.3075 4.29186 0.492285 0
M  V30 436 C 35.4425 5.09592 1.49964 0
M  V30 437 C 34.4815 6.07232 0.770439 0
M  V30 438 N 33.6185 6.80584 1.72479 0
M  V30 439 H 38.4585 2.93302 -0.527048 0
M  V30 440 H 35.9955 1.44568 -0.271738 0
M  V30 441 H 37.9535 3.75811 1.81168 0
M  V30 442 H 36.5835 2.61929 1.88661 0
M  V30 443 H 35.6355 3.7972 -0.227333 0
M  V30 444 H 36.9475 4.98738 -0.0787929 0
M  V30 445 H 36.1015 5.66254 2.17809 0
M  V30 446 H 34.8405 4.3995 2.10464 0
M  V30 447 H 33.8455 5.49745 0.0780846 0
M  V30 448 H 35.0705 6.78884 0.171134 0
M  V30 449 H 33.0165 6.1367 2.3183 0
M  V30 450 H 32.9335 7.46319 1.20596 0
M  V30 451 H 34.2015 7.41818 2.39428 0
M  V30 452 N 38.4306 0.297415 1.54768 0
M  V30 453 C 39.7076 -0.365847 1.92148 0
M  V30 454 C 40.0876 -1.71975 1.22424 0
M  V30 455 O 39.4356 -2.25666 0.358739 0
M  V30 456 C 39.6456 -0.484056 3.45627 0
M  V30 457 C 40.9936 -0.756594 4.17805 0
M  V30 458 O 42.0176 -0.568007 3.51642 0
M  V30 459 O 40.8766 -1.11863 5.34929 0
M  V30 460 H 37.9706 -0.203919 0.801465 0
M  V30 461 H 40.5166 0.34521 1.66152 0
M  V30 462 H 39.2886 0.467865 3.88493 0
M  V30 463 H 38.9116 -1.24372 3.77647 0
M  V30 464 N 39.9087 -1.5758 0.0250728 0
M  V30 465 C 40.8387 -2.13007 -0.956575 0
M  V30 466 C 41.8197 -1.0452 -1.342 0
M  V30 467 O 43.0047 -1.32332 -1.42133 0
M  V30 468 C 40.1347 -2.65386 -2.24026 0
M  V30 469 C 39.0887 -3.78623 -1.99571 0
M  V30 470 C 38.4147 -4.17414 -3.3417 0
M  V30 471 C 39.7147 -5.04867 -1.33814 0
M  V30 472 H 41.4087 -2.9528 -0.494991 0
M  V30 473 H 38.9547 -1.42042 -0.236651 0
M  V30 474 H 40.9077 -3.02794 -2.93076 0
M  V30 475 H 39.6317 -1.80268 -2.72343 0
M  V30 476 H 38.2907 -3.41646 -1.32941 0
M  V30 477 H 37.9387 -3.29284 -3.80238 0
M  V30 478 H 37.6387 -4.93719 -3.18615 0
M  V30 479 H 39.1627 -4.57402 -4.04495 0
M  V30 480 H 40.5767 -5.39888 -1.92857 0
M  V30 481 H 38.9737 -5.86144 -1.28669 0
M  V30 482 H 40.0437 -4.83904 -0.310561 0
M  V30 483 N 41.3868 0.248026 -1.55636 0
M  V30 484 C 42.3498 1.29044 -1.89421 0
M  V30 485 C 43.3498 1.41134 -0.770581 0
M  V30 486 O 44.5398 1.39854 -1.03858 0
M  V30 487 C 41.6718 2.66831 -2.12165 0
M  V30 488 H 42.8648 1.00305 -2.82629 0
M  V30 489 H 40.4178 0.487265 -1.48511 0
M  V30 490 H 41.1528 3.00711 -1.21422 0
M  V30 491 H 40.9378 2.59438 -2.93997 0
M  V30 492 H 42.4278 3.42103 -2.3949 0
M  V30 493 N 42.8649 1.48995 0.513639 0
M  V30 494 C 44.1119 1.57843 1.26854 0
M  V30 495 C 44.4399 0.259501 1.92761 0
M  V30 496 O 43.6949 -0.75159 1.80692 0
M  V30 497 C 43.9939 2.67756 2.36731 0
M  V30 498 C 43.6599 4.09669 1.88368 0
M  V30 499 C 42.3219 4.48291 1.74896 0
M  V30 500 C 44.6739 4.98537 1.52021 0
M  V30 501 C 42.0019 5.73568 1.23438 0
M  V30 502 C 44.3539 6.24319 1.0202 0
M  V30 503 C 43.0179 6.61783 0.871778 0
M  V30 504 H 42.2879 0.577587 0.464192 0
M  V30 505 H 44.9349 1.82778 0.571366 0
M  V30 506 H 43.2399 2.36743 3.12185 0
M  V30 507 H 44.9369 2.71813 2.9482 0
M  V30 508 H 41.5269 3.79176 1.99808 0
M  V30 509 H 45.7109 4.69363 1.61281 0
M  V30 510 H 40.9669 6.01304 1.10648 0
M  V30 511 H 45.1409 6.92566 0.729722 0
M  V30 512 H 42.7679 7.5874 0.470852 0
M  V30 513 N 44.343 -0.763751 1.37857 0
M  V30 514 C 45.571 -1.55293 1.36718 0
M  V30 515 C 45.986 -1.88745 -0.0455434 0
M  V30 516 O 45.343 -1.52039 -1.00947 0
M  V30 517 C 45.394 -2.85831 2.2132 0
M  V30 518 O 45.115 -2.5381 3.57089 0
M  V30 519 C 46.616 -3.80023 2.28249 0
M  V30 520 H 43.836 -0.480841 0.468009 0
M  V30 521 H 46.38 -0.946009 1.81303 0
M  V30 522 H 44.535 -3.42926 1.80223 0
M  V30 523 H 44.949 -3.37459 4.01524 0
M  V30 524 H 46.423 -4.68599 2.91752 0
M  V30 525 H 46.9 -4.1973 1.2932 0
M  V30 526 H 47.506 -3.28855 2.69693 0
M  V30 527 N 45.8211 -1.22559 -0.990812 0
M  V30 528 C 46.7511 -1.0218 -2.09956 0
M  V30 529 C 47.7321 0.0579394 -1.70001 0
M  V30 530 O 48.9171 -0.104684 -1.93918 0
M  V30 531 C 46.0471 -0.601023 -3.4206 0
M  V30 532 C 45.0011 -1.62694 -3.95872 0
M  V30 533 C 44.3271 -1.06193 -5.24049 0
M  V30 534 C 45.6271 -3.01743 -4.2632 0
M  V30 535 H 47.3211 -1.94916 -2.27262 0
M  V30 536 H 44.8671 -0.938566 -1.09211 0
M  V30 537 H 46.8201 -0.445561 -4.19038 0
M  V30 538 H 45.5441 0.362005 -3.24588 0
M  V30 539 H 44.2031 -1.77021 -3.21028 0
M  V30 540 H 43.8511 -0.0901903 -5.02919 0
M  V30 541 H 43.5511 -1.74732 -5.61019 0
M  V30 542 H 45.0751 -0.918092 -6.03658 0
M  V30 543 H 46.4891 -2.90777 -4.94087 0
M  V30 544 H 44.8861 -3.67425 -4.74467 0
M  V30 545 H 45.9561 -3.51518 -3.34011 0
M  V30 546 N 47.2992 1.18797 -1.03562 0
M  V30 547 C 48.2092 2.25913 -0.632505 0
M  V30 548 C 49.2252 1.70668 0.338882 0
M  V30 549 O 50.4012 2.00453 0.195076 0
M  V30 550 C 47.4662 3.467 0.00350942 0
M  V30 551 C 46.5272 4.17098 -1.01624 0
M  V30 552 C 45.7602 5.32119 -0.410478 0
M  V30 553 O 45.9832 5.64976 0.784725 0
M  V30 554 O 44.9172 5.9107 -1.13667 0
M  V30 555 H 48.7432 2.62648 -1.52478 0
M  V30 556 H 46.3282 1.25781 -0.806195 0
M  V30 557 H 48.2102 4.19878 0.35781 0
M  V30 558 H 46.8852 3.11798 0.869686 0
M  V30 559 H 45.7922 3.4601 -1.42224 0
M  V30 560 H 47.1252 4.55987 -1.85301 0
M  V30 561 N 48.7773 0.814389 1.34928 0
M  V30 562 C 49.6873 0.231978 2.3345 0
M  V30 563 C 50.7033 -0.629139 1.62228 0
M  V30 564 O 51.8793 -0.539052 1.94052 0
M  V30 565 C 48.9443 -0.603482 3.41407 0
M  V30 566 C 48.0053 0.279037 4.28392 0
M  V30 567 C 47.2383 -0.516643 5.31193 0
M  V30 568 O 47.4613 -1.75068 5.4287 0
M  V30 569 O 46.3953 0.0965652 6.01823 0
M  V30 570 H 50.2213 1.04721 2.85074 0
M  V30 571 H 47.8063 0.576343 1.37836 0
M  V30 572 H 49.6883 -1.07908 4.0735 0
M  V30 573 H 48.3633 -1.39618 2.92042 0
M  V30 574 H 47.2703 0.801948 3.65403 0
M  V30 575 H 48.6033 1.03588 4.81176 0
M  V30 576 N 50.2554 -1.46986 0.568584 0
M  V30 577 C 51.6714 -1.57946 0.229189 0
M  V30 578 C 51.8714 -1.56567 -1.26843 0
M  V30 579 O 50.9274 -1.47511 -2.04931 0
M  V30 580 C 52.2404 -2.87963 0.865909 0
M  V30 581 C 53.7884 -3.01568 0.838188 0
M  V30 582 C 54.2634 -4.34301 1.45419 0
M  V30 583 N 55.7544 -4.40965 1.41788 0
M  V30 584 C 56.4894 -5.42256 1.86403 0
M  V30 585 N 55.9854 -6.50297 2.38926 0
M  V30 586 N 57.7784 -5.3337 1.77405 0
M  V30 587 H 49.9294 -1.46126 1.54146 0
M  V30 588 H 52.1924 -0.696156 0.643484 0
M  V30 589 H 51.8984 -2.94742 1.91886 0
M  V30 590 H 51.7724 -3.75423 0.365687 0
M  V30 591 H 54.1594 -2.94379 -0.206106 0
M  V30 592 H 54.2404 -2.1562 1.37629 0
M  V30 593 H 53.8844 -4.42247 2.49761 0
M  V30 594 H 53.8144 -5.19 0.891435 0
M  V30 595 H 56.3054 -3.63484 1.03381 0
M  V30 596 H 56.6184 -7.23777 2.70863 0
M  V30 597 H 54.9634 -6.51155 2.42944 0
M  V30 598 H 58.1544 -4.47865 1.3614 0
M  V30 599 H 58.3274 -6.12169 2.12492 0
M  V30 600 N 51.7335 -0.305618 -1.54608 0
M  V30 601 C 52.6655 0.602161 -2.21149 0
M  V30 602 C 53.6785 1.09394 -1.20569 0
M  V30 603 O 54.8675 1.0106 -1.47136 0
M  V30 604 C 51.9675 1.83692 -2.84799 0
M  V30 605 C 51.1405 1.48686 -4.11353 0
M  V30 606 C 50.1995 2.57725 -4.58764 0
M  V30 607 O 49.2255 2.22623 -5.23858 0
M  V30 608 N 50.4275 3.88346 -4.31471 0
M  V30 609 H 53.1925 0.0324966 -2.99682 0
M  V30 610 H 50.7535 -0.128021 -1.61393 0
M  V30 611 H 52.7455 2.55994 -3.13448 0
M  V30 612 H 51.3155 2.31486 -2.10078 0
M  V30 613 H 50.5355 0.596269 -3.89664 0
M  V30 614 H 51.8235 1.22842 -4.93748 0
M  V30 615 H 51.2215 4.19671 -3.79331 0
M  V30 616 H 49.7785 4.56932 -4.64818 0
M  V30 617 N 53.2116 1.57565 -0.0334293 0
M  V30 618 C 54.1436 2.0739 0.975811 0
M  V30 619 C 55.1566 0.998166 1.2861 0
M  V30 620 O 56.3456 1.27426 1.25 0
M  V30 621 C 53.4456 2.4871 2.30209 0
M  V30 622 C 52.6186 3.79413 2.17634 0
M  V30 623 C 51.6776 4.07237 3.33233 0
M  V30 624 O 50.7036 4.77425 3.09927 0
M  V30 625 N 51.9056 3.5775 4.5716 0
M  V30 626 H 54.6706 2.94598 0.55066 0
M  V30 627 H 52.2316 1.61173 0.15323 0
M  V30 628 H 54.2236 2.64413 3.06378 0
M  V30 629 H 52.7936 1.66845 2.64351 0
M  V30 630 H 52.0136 3.73465 1.26165 0
M  V30 631 H 53.3016 4.65038 2.0644 0
M  V30 632 H 52.6996 3.00976 4.78989 0
M  V30 633 H 51.2566 3.78724 5.30482 0
M  V30 634 N 54.6897 -0.239769 1.55765 0
M  V30 635 C 55.6197 -1.30052 1.9393 0
M  V30 636 C 56.6007 -1.49839 0.805132 0
M  V30 637 O 57.7857 -1.62328 1.06599 0
M  V30 638 C 54.9157 -2.65391 2.2402 0
M  V30 639 C 53.8697 -2.60289 3.39755 0
M  V30 640 C 53.1957 -3.99489 3.55405 0
M  V30 641 C 54.4957 -2.16654 4.75246 0
M  V30 642 H 56.1897 -0.983573 2.82783 0
M  V30 643 H 53.7357 -0.471701 1.36055 0
M  V30 644 H 55.6887 -3.3974 2.49308 0
M  V30 645 H 54.4127 -2.98736 1.32 0
M  V30 646 H 53.0717 -1.88398 3.14487 0
M  V30 647 H 52.7197 -4.30112 2.60793 0
M  V30 648 H 52.4197 -3.96962 4.33238 0
M  V30 649 H 53.9437 -4.75528 3.83022 0
M  V30 650 H 55.3577 -2.80737 4.99859 0
M  V30 651 H 53.7547 -2.25223 5.56232 0
M  V30 652 H 54.8247 -1.11835 4.71827 0
M  V30 653 N 56.1678 -1.49265 -0.50573 0
M  V30 654 C 57.1158 -1.66065 -1.62866 0
M  V30 655 C 58.1098 -0.526636 -1.61006 0
M  V30 656 O 59.3158 -0.706126 -1.65571 0
M  V30 657 H 55.6908 -0.52356 -0.539805 0
M  V30 658 H 57.6618 -2.60329 -1.45848 0
M  V30 659 C 56.4108 -1.74008 -3.01026 0
M  V30 660 H 55.7338 -2.6064 -3.03161 0
M  V30 661 H 57.1738 -1.89798 -3.79147 0
M  V30 662 C 55.6328 -0.483868 -3.33407 0
M  V30 663 O 56.1628 0.392548 -3.99777 0
M  V30 664 N 54.3688 -0.348236 -2.88506 0
M  V30 665 H 53.9158 -1.06242 -2.34671 0
M  V30 666 H 53.8738 0.491204 -3.10539 0
M  V30 667 N 57.6459 0.756429 -1.3826 0
M  V30 668 C 58.8949 1.51082 -1.3363 0
M  V30 669 C 59.2079 1.95467 0.0720068 0
M  V30 670 O 60.4139 2.7043 0.240834 0
M  V30 671 C 58.8699 2.72893 -2.34644 0
M  V30 672 C 58.4779 2.35544 -3.81081 0
M  V30 673 C 60.2219 3.50791 -2.39052 0
M  V30 674 C 58.1289 3.53948 -4.73787 0
M  V30 675 H 57.0589 0.56727 -0.49671 0
M  V30 676 H 59.7099 0.827147 -1.638 0
M  V30 677 H 58.0919 3.43227 -1.97513 0
M  V30 678 H 59.2659 1.72894 -4.27135 0
M  V30 679 H 57.5809 1.70786 -3.79764 0
M  V30 680 H 60.1779 4.38823 -3.05513 0
M  V30 681 H 60.5209 3.91745 -1.40861 0
M  V30 682 H 61.0539 2.87467 -2.74968 0
M  V30 683 H 57.7929 3.18064 -5.73163 0
M  V30 684 H 57.3129 4.15651 -4.32428 0
M  V30 685 H 58.9919 4.20566 -4.91663 0
M  V30 686 N 59.124 1.23083 0.984299 0
M  V30 687 C 60.074 0.975749 2.06066 0
M  V30 688 C 61.058 -0.0768251 1.60716 0
M  V30 689 O 62.25 0.134805 1.76486 0
M  V30 690 C 59.379 0.564673 3.38624 0
M  V30 691 C 58.465 1.65244 3.90583 0
M  V30 692 N 58.856 2.88193 4.15666 0
M  V30 693 C 57.154 1.52612 4.19077 0
M  V30 694 C 57.855 3.58593 4.58024 0
M  V30 695 N 56.831 2.86093 4.62225 0
M  V30 696 H 60.633 1.90957 2.23411 0
M  V30 697 H 58.147 1.12963 1.16675 0
M  V30 698 H 60.144 0.36322 4.15315 0
M  V30 699 H 58.804 -0.362147 3.22674 0
M  V30 700 H 59.815 3.24537 4.03604 0
M  V30 701 H 56.492 0.666121 4.12152 0
M  V30 702 H 57.882 4.63974 4.85982 0
M  V30 703 N 60.6021 -1.18246 1.0419 0
M  V30 704 C 61.8501 -1.87886 0.744543 0
M  V30 705 C 62.1711 -1.8082 -0.730006 0
M  V30 706 O 61.4411 -1.22736 -1.52685 0
M  V30 707 H 60.0211 -0.695556 0.272417 0
M  V30 708 H 62.6831 -1.43494 1.31892 0
M  V30 709 H 61.7791 -2.9389 1.05049 0
M  V30 710 N 62.0802 -0.821533 -1.34494 0
M  V30 711 C 63.0102 -0.257138 -2.3208 0
M  V30 712 C 63.9912 0.625645 -1.58176 0
M  V30 713 O 65.1762 0.552811 -1.86166 0
M  V30 714 C 62.3062 0.582958 -3.42372 0
M  V30 715 C 61.2602 -0.202571 -4.2752 0
M  V30 716 C 60.5862 0.760179 -5.29269 0
M  V30 717 C 61.8862 -1.40998 -5.02908 0
M  V30 718 H 63.5802 -1.07247 -2.79532 0
M  V30 719 H 61.1262 -0.517163 -1.34393 0
M  V30 720 H 63.0792 0.987972 -4.09655 0
M  V30 721 H 61.8032 1.43133 -2.93565 0
M  V30 722 H 60.4622 -0.588936 -3.61838 0
M  V30 723 H 60.1102 1.60447 -4.76724 0
M  V30 724 H 59.8102 0.238809 -5.87115 0
M  V30 725 H 61.3342 1.16308 -5.9942 0
M  V30 726 H 62.7482 -1.07905 -5.63054 0
M  V30 727 H 61.1452 -1.86689 -5.70322 0
M  V30 728 H 62.2152 -2.1889 -4.32684 0
M  V30 729 N 63.5583 1.46682 -0.576371 0
M  V30 730 C 64.4883 2.33028 0.148397 0
M  V30 731 C 65.4693 1.44961 0.889956 0
M  V30 732 O 66.6543 1.73789 0.866662 0
M  V30 733 C 63.7843 3.27117 1.1667 0
M  V30 734 C 62.7383 4.24575 0.540386 0
M  V30 735 C 62.0643 5.08126 1.6647 0
M  V30 736 C 63.3643 5.19722 -0.518331 0
M  V30 737 H 65.0583 2.93875 -0.572509 0
M  V30 738 H 62.6043 1.41315 -0.276768 0
M  V30 739 H 64.5573 3.86374 1.68204 0
M  V30 740 H 63.2813 2.64364 1.9178 0
M  V30 741 H 61.9403 3.66571 0.0461769 0
M  V30 742 H 61.5883 4.41762 2.40531 0
M  V30 743 H 61.2883 5.74122 1.25131 0
M  V30 744 H 62.8123 5.70246 2.18293 0
M  V30 745 H 64.2263 5.73232 -0.0883058 0
M  V30 746 H 62.6233 5.94026 -0.851679 0
M  V30 747 H 63.6933 4.64037 -1.40703 0
M  V30 748 N 65.0364 0.313813 1.54444 0
M  V30 749 C 66.4474 -0.176243 1.85866 0
M  V30 750 C 66.7984 -1.52405 1.23561 0
M  V30 751 O 65.9234 -2.09605 0.538016 0
M  V30 752 C 66.5184 -0.32657 3.37222 0
M  V30 753 C 65.0774 -0.760846 3.6863 0
M  V30 754 C 64.2244 0.123247 2.77026 0
M  V30 755 H 67.1754 0.534418 1.49431 0
M  V30 756 H 67.1964 -1.15908 3.62416 0
M  V30 757 H 66.7084 0.654531 3.82541 0
M  V30 758 H 64.8094 -1.75204 3.28838 0
M  V30 759 H 64.9224 -0.571353 4.75681 0
M  V30 760 H 63.2864 -0.399597 2.51546 0
M  V30 761 H 64.0694 1.10094 3.25168 0
M  V30 762 N 66.5145 -1.57545 0.0417849 0
M  V30 763 C 67.9255 -1.80011 -0.495259 0
M  V30 764 C 68.2765 -0.953199 -1.71489 0
M  V30 765 O 67.4015 -0.167138 -2.15754 0
M  V30 766 C 67.9965 -3.26482 -0.905265 0
M  V30 767 C 66.5555 -3.499 -1.38734 0
M  V30 768 C 65.7025 -2.74979 -0.358056 0
M  V30 769 H 68.6535 -1.56425 0.267736 0
M  V30 770 H 68.6745 -3.36887 -1.76882 0
M  V30 771 H 68.1865 -3.88096 -0.017401 0
M  V30 772 H 66.2875 -2.93553 -2.29471 0
M  V30 773 H 66.4005 -4.58615 -1.38598 0
M  V30 774 H 64.7645 -2.40834 -0.828912 0
M  V30 775 H 65.5475 -3.39315 0.521561 0
M  V30 776 N 67.9926 0.231505 -1.5589 0
M  V30 777 C 69.2176 0.978689 -1.82856 0
M  V30 778 C 69.6426 1.77559 -0.620846 0
M  V30 779 O 69.0006 1.76119 0.430305 0
M  V30 780 C 69.0486 1.87997 -3.07716 0
M  V30 781 O 68.1526 2.97393 -2.85712 0
M  V30 782 H 67.4936 0.277663 -0.603158 0
M  V30 783 H 70.0236 0.24783 -2.03093 0
M  V30 784 H 70.0336 2.2917 -3.37558 0
M  V30 785 H 68.7086 1.29417 -3.95252 0
M  V30 786 H 67.2856 2.60238 -2.67078 0
M  V30 787 N 69.4707 1.49531 0.497807 0
M  V30 788 C 70.7177 1.59179 1.25173 0
M  V30 789 C 71.0457 0.279932 1.92475 0
M  V30 790 O 70.3007 -0.732383 1.81479 0
M  V30 791 C 70.5997 2.70252 2.33878 0
M  V30 792 C 70.2657 4.11644 1.84012 0
M  V30 793 C 68.9277 4.50121 1.70132 0
M  V30 794 C 71.2797 5.00121 1.46725 0
M  V30 795 C 68.6077 5.74845 1.17348 0
M  V30 796 C 70.9597 6.25366 0.95392 0
M  V30 797 C 69.6237 6.6267 0.801538 0
M  V30 798 H 68.8937 0.582478 0.45804 0
M  V30 799 H 71.5407 1.83373 0.551948 0
M  V30 800 H 69.8457 2.40041 3.09657 0
M  V30 801 H 71.5427 2.74925 2.9192 0
M  V30 802 H 68.1327 3.81274 1.95775 0
M  V30 803 H 72.3167 4.71048 1.56294 0
M  V30 804 H 67.5727 6.02444 1.04264 0
M  V30 805 H 71.7467 6.93301 0.656225 0
M  V30 806 H 69.3737 7.59197 0.390351 0
M  V30 807 N 70.9488 -0.749086 1.3866 0
M  V30 808 C 71.8968 -1.88428 1.36373 0
M  V30 809 C 72.8908 -1.67561 0.248929 0
M  V30 810 O 74.0968 -1.75074 0.41821 0
M  V30 811 H 70.4718 -0.620023 0.42553 0
M  V30 812 H 72.4428 -1.87473 2.32156 0
M  V30 813 C 71.1918 -3.25961 1.21014 0
M  V30 814 H 70.5148 -3.42607 2.06059 0
M  V30 815 H 71.9548 -4.05625 1.23469 0
M  V30 816 C 70.4138 -3.36799 -0.0825941 0
M  V30 817 O 70.9438 -3.87517 -1.05797 0
M  V30 818 N 69.1498 -2.90258 -0.140939 0
M  V30 819 H 68.6968 -2.49174 0.653477 0
M  V30 820 H 68.6548 -2.97889 -1.00545 0
M  V30 821 N 72.4269 -1.23603 -0.977757 0
M  V30 822 C 73.6519 -1.09735 -1.75991 0
M  V30 823 C 74.0769 0.346858 -1.84874 0
M  V30 824 O 73.4349 1.25093 -1.3123 0
M  V30 825 C 73.4829 -1.73051 -3.16363 0
M  V30 826 O 72.5869 -0.994452 -4.0023 0
M  V30 827 H 71.9279 -0.384476 -0.541364 0
M  V30 828 H 74.4579 -1.6371 -1.2272 0
M  V30 829 H 74.4679 -1.78398 -3.66931 0
M  V30 830 H 73.1429 -2.78137 -3.09213 0
M  V30 831 H 71.7199 -1.01812 -3.58732 0
M  V30 832 N 73.905 1.17692 -1.04816 0
M  V30 833 C 74.837 2.21103 -0.603822 0
M  V30 834 C 75.85 1.59411 0.33046 0
M  V30 835 O 77.039 1.7807 0.12379 0
M  V30 836 C 74.139 3.38623 0.136898 0
M  V30 837 C 73.312 4.29888 -0.807137 0
M  V30 838 C 72.371 5.26088 -0.10836 0
M  V30 839 O 71.397 5.64353 -0.741232 0
M  V30 840 N 72.599 5.68882 1.15558 0
M  V30 841 H 75.364 2.59848 -1.49329 0
M  V30 842 H 72.925 1.32553 -0.929587 0
M  V30 843 H 74.917 4.00009 0.614401 0
M  V30 844 H 73.487 2.98508 0.927993 0
M  V30 845 H 72.707 3.65993 -1.46434 0
M  V30 846 H 73.995 4.87759 -1.44807 0
M  V30 847 H 73.393 5.39861 1.69015 0
M  V30 848 H 71.95 6.32429 1.57722 0
M  V30 849 N 75.3831 0.828654 1.34056 0
M  V30 850 C 76.2931 0.256725 2.33191 0
M  V30 851 C 77.3091 -0.611898 1.62886 0
M  V30 852 O 78.4851 -0.51844 1.94613 0
M  V30 853 C 75.5501 -0.567238 3.42028 0
M  V30 854 C 74.6111 0.324458 4.28072 0
M  V30 855 C 73.8441 -0.460274 5.31712 0
M  V30 856 O 74.0671 -1.693 5.44696 0
M  V30 857 O 73.0011 0.160391 6.01686 0
M  V30 858 H 76.8271 1.07739 2.83947 0
M  V30 859 H 74.4121 0.59093 1.37217 0
M  V30 860 H 76.2941 -1.03582 4.08471 0
M  V30 861 H 74.9691 -1.36513 2.93506 0
M  V30 862 H 73.8761 0.840659 3.64532 0
M  V30 863 H 75.2091 1.08685 4.8005 0
M  V30 864 N 76.8612 -1.46375 0.584142 0
M  V30 865 C 78.1102 -2.01585 0.0679741 0
M  V30 866 C 78.4232 -1.46109 -1.30045 0
M  V30 867 O 79.6292 -1.93148 -1.90804 0
M  V30 868 C 78.0852 -3.5983 0.0709207 0
M  V30 869 C 77.6932 -4.24303 1.43775 0
M  V30 870 C 79.4372 -4.22693 -0.391228 0
M  V30 871 C 77.3442 -5.74631 1.39834 0
M  V30 872 H 76.2742 -0.753689 0.0216421 0
M  V30 873 H 78.9252 -1.68093 0.736001 0
M  V30 874 H 77.3072 -3.90405 -0.663299 0
M  V30 875 H 78.4812 -4.05335 2.19181 0
M  V30 876 H 76.7962 -3.73539 1.84004 0
M  V30 877 H 79.3932 -5.3289 -0.439524 0
M  V30 878 H 79.7362 -3.91728 -1.40906 0
M  V30 879 H 80.2692 -3.96749 0.288974 0
M  V30 880 H 77.0082 -6.10258 2.39303 0
M  V30 881 H 76.5282 -5.95858 0.686505 0
M  V30 882 H 78.2072 -6.37375 1.11187 0
M  V30 883 N 78.3393 -0.321999 -1.54275 0
M  V30 884 C 79.2713 0.578671 -2.21775 0
M  V30 885 C 80.2843 1.08109 -1.21722 0
M  V30 886 O 81.4733 0.994938 -1.482 0
M  V30 887 C 78.5733 1.80661 -2.86731 0
M  V30 888 C 77.7463 1.44314 -4.12907 0
M  V30 889 C 76.8053 2.52845 -4.61472 0
M  V30 890 O 75.8313 2.17054 -5.2619 0
M  V30 891 N 77.0333 3.83748 -4.35566 0
M  V30 892 H 79.7983 0.000709447 -2.997 0
M  V30 893 H 77.3593 -0.145132 -1.61248 0
M  V30 894 H 79.3513 2.52655 -3.16145 0
M  V30 895 H 77.9213 2.29245 -2.12521 0
M  V30 896 H 77.1413 0.554906 -3.90275 0
M  V30 897 H 78.4293 1.17598 -4.95023 0
M  V30 898 H 77.8273 4.15625 -3.83761 0
M  V30 899 H 76.3843 4.51977 -4.69638 0
M  V30 900 N 79.8174 1.5752 -0.0501392 0
M  V30 901 C 81.0634 1.92936 0.624798 0
M  V30 902 C 81.3964 0.928685 1.70555 0
M  V30 903 O 80.6714 -0.0454779 1.94447 0
M  V30 904 C 80.9544 3.38737 1.22185 0
M  V30 905 C 80.8074 4.49552 0.149218 0
M  V30 906 C 82.1264 3.84913 2.13378 0
M  V30 907 H 79.2454 0.701604 0.225657 0
M  V30 908 H 81.8874 1.89671 -0.111693 0
M  V30 909 H 80.0374 3.4165 1.84953 0
M  V30 910 H 81.7094 4.58768 -0.482648 0
M  V30 911 H 79.9524 4.30638 -0.522841 0
M  V30 912 H 80.6234 5.48653 0.606966 0
M  V30 913 H 83.0994 3.8387 1.60572 0
M  V30 914 H 81.9754 4.87584 2.52097 0
M  V30 915 H 82.2364 3.21611 3.03346 0
M  V30 916 N 81.2955 -0.223234 1.56011 0
M  V30 917 C 82.2255 -1.27988 1.95298 0
M  V30 918 C 83.2065 -1.48976 0.820979 0
M  V30 919 O 84.3915 -1.61188 1.08315 0
M  V30 920 C 81.5215 -2.63 2.26822 0
M  V30 921 C 80.4755 -2.56671 3.42497 0
M  V30 922 C 79.8015 -3.95697 3.59622 0
M  V30 923 C 81.1015 -2.11601 4.77517 0
M  V30 924 H 82.7955 -0.953525 2.8381 0
M  V30 925 H 80.3415 -0.457244 1.36548 0
M  V30 926 H 82.2945 -3.37077 2.52898 0
M  V30 927 H 81.0185 -2.9732 1.35161 0
M  V30 928 H 79.6775 -1.85051 3.16467 0
M  V30 929 H 79.3255 -4.27322 2.6534 0
M  V30 930 H 79.0255 -3.92345 4.37424 0
M  V30 931 H 80.5495 -4.71438 3.88044 0
M  V30 932 H 81.9635 -2.7542 5.02809 0
M  V30 933 H 80.3605 -2.19311 5.5859 0
M  V30 934 H 81.4305 -1.06824 4.72987 0
M  V30 935 N 82.7736 -1.49793 -0.48987 0
M  V30 936 C 84.1896 -1.36803 -0.822022 0
M  V30 937 C 84.3896 -0.409652 -1.97292 0
M  V30 938 O 83.4456 0.154614 -2.52026 0
M  V30 939 C 84.7586 -2.77768 -1.15175 0
M  V30 940 C 86.3066 -2.86549 -1.25931 0
M  V30 941 C 86.7816 -4.28306 -1.62228 0
M  V30 942 N 88.2726 -4.31169 -1.69256 0
M  V30 943 C 89.0076 -5.37832 -1.98807 0
M  V30 944 N 88.5036 -6.54726 -2.26507 0
M  V30 945 N 90.2966 -5.25258 -2.00152 0
M  V30 946 H 82.4476 -2.10691 0.268881 0
M  V30 947 H 84.7106 -0.946241 0.057728 0
M  V30 948 H 84.4166 -3.49648 -0.379335 0
M  V30 949 H 84.2906 -3.13836 -2.09253 0
M  V30 950 H 86.6776 -2.14899 -2.02243 0
M  V30 951 H 86.7586 -2.54049 -0.298776 0
M  V30 952 H 86.4026 -5.00486 -0.864622 0
M  V30 953 H 86.3326 -4.58279 -2.594 0
M  V30 954 H 88.8236 -3.4687 -1.49965 0
M  V30 955 H 89.1366 -7.31833 -2.48276 0
M  V30 956 H 87.4816 -6.57933 -2.23939 0
M  V30 957 H 90.6726 -4.32938 -1.77996 0
M  V30 958 H 90.8456 -6.08476 -2.22848 0
M  V30 959 N 84.2517 0.741722 -1.39055 0
M  V30 960 C 85.4977 1.50336 -1.36113 0
M  V30 961 C 85.8307 1.94148 0.0450796 0
M  V30 962 O 85.1057 1.66301 1.00868 0
M  V30 963 C 85.3887 2.74773 -2.32749 0
M  V30 964 C 85.2417 2.37023 -3.82283 0
M  V30 965 C 86.5607 3.76846 -2.27322 0
M  V30 966 H 83.6797 0.545351 -0.495743 0
M  V30 967 H 86.3217 0.848624 -1.69995 0
M  V30 968 H 84.4717 3.30639 -2.03986 0
M  V30 969 H 86.1437 1.8684 -4.21768 0
M  V30 970 H 84.3867 1.69334 -3.99385 0
M  V30 971 H 85.0577 3.26104 -4.45376 0
M  V30 972 H 87.5337 3.30548 -2.5274 0
M  V30 973 H 86.4097 4.6159 -2.97028 0
M  V30 974 H 86.6707 4.23286 -1.27599 0
M  V30 975 N 85.7298 1.2412 0.971189 0
M  V30 976 C 86.9758 1.08041 1.71625 0
M  V30 977 C 87.3088 -0.380407 1.90438 0
M  V30 978 O 86.5838 -1.28127 1.46334 0
M  V30 979 C 86.8668 1.81682 3.10908 0
M  V30 980 C 86.7198 3.35493 2.99608 0
M  V30 981 C 88.0388 1.58671 4.10501 0
M  V30 982 H 85.1578 0.39388 0.622919 0
M  V30 983 H 87.7998 1.52743 1.13003 0
M  V30 984 H 85.9498 1.43684 3.60953 0
M  V30 985 H 87.6218 3.83068 2.57015 0
M  V30 986 H 85.8648 3.64052 2.35899 0
M  V30 987 H 86.5358 3.82217 3.98264 0
M  V30 988 H 89.0118 1.91719 3.69301 0
M  V30 989 H 87.8878 2.1266 5.06031 0
M  V30 990 H 88.1488 0.524161 4.38982 0
M  V30 991 N 87.2079 -1.17134 1.05439 0
M  V30 992 C 88.1549 -2.21235 0.657539 0
M  V30 993 C 89.1249 -1.62551 -0.341543 0
M  V30 994 O 90.3099 -1.89379 -0.232393 0
M  V30 995 C 87.4499 -3.45076 0.0410575 0
M  V30 996 C 86.5629 -4.18042 1.08927 0
M  V30 997 C 85.6979 -5.29376 0.439848 0
M  V30 998 C 84.7369 -5.94132 1.4722 0
M  V30 999 N 83.8739 -6.96975 0.846756 0
M  V30 1000 H 88.7139 -2.54534 1.54972 0
M  V30 1001 H 86.2509 -1.25028 0.775006 0
M  V30 1002 H 88.2089 -4.15862 -0.33383 0
M  V30 1003 H 86.8389 -3.12353 -0.814568 0
M  V30 1004 H 85.8909 -3.45945 1.58196 0
M  V30 1005 H 87.2029 -4.62306 1.87282 0
M  V30 1006 H 86.3569 -6.06699 0.0115125 0
M  V30 1007 H 85.0959 -4.86251 -0.375656 0
M  V30 1008 H 84.1009 -5.15538 1.91052 0
M  V30 1009 H 85.3259 -6.39337 2.28965 0
M  V30 1010 H 83.2719 -6.5598 0.0518075 0
M  V30 1011 H 83.1889 -7.39565 1.5678 0
M  V30 1012 H 84.4569 -7.78239 0.443277 0
M  V30 1013 N 88.686 -0.835752 -1.33615 0
M  V30 1014 C 89.634 -0.255238 -2.31195 0
M  V30 1015 C 90.628 0.61107 -1.57995 0
M  V30 1016 O 91.834 0.500979 -1.72888 0
M  V30 1017 H 88.209 -0.0638085 -0.749288 0
M  V30 1018 H 90.18 -1.09283 -2.77669 0
M  V30 1019 C 88.929 0.55754 -3.43201 0
M  V30 1020 H 88.252 -0.0997553 -3.99676 0
M  V30 1021 H 89.692 0.929622 -4.13683 0
M  V30 1022 C 88.151 1.73515 -2.88781 0
M  V30 1023 O 88.681 2.83376 -2.84712 0
M  V30 1024 N 86.887 1.55603 -2.4543 0
M  V30 1025 H 86.434 0.662354 -2.48939 0
M  V30 1026 H 86.392 2.34545 -2.09371 0
M  V30 1027 N 90.1641 1.46063 -0.591896 0
M  V30 1028 C 91.4111 2.02338 -0.0809991 0
M  V30 1029 C 91.7391 1.46228 1.28249 0
M  V30 1030 O 90.9941 0.620818 1.85592 0
M  V30 1031 C 91.2931 3.57391 0.0249813 0
M  V30 1032 C 90.9591 4.32583 -1.27211 0
M  V30 1033 C 89.6211 4.52844 -1.62745 0
M  V30 1034 C 91.9731 4.75687 -2.13005 0
M  V30 1035 C 89.3011 5.13462 -2.83855 0
M  V30 1036 C 91.6531 5.37644 -3.3335 0
M  V30 1037 C 90.3171 5.5613 -3.69155 0
M  V30 1038 H 89.5871 0.740407 -0.0296397 0
M  V30 1039 H 92.2341 1.75321 -0.770374 0
M  V30 1040 H 90.5391 3.83597 0.797537 0
M  V30 1041 H 92.2361 3.98621 0.436184 0
M  V30 1042 H 88.8261 4.17116 -0.985499 0
M  V30 1043 H 93.0101 4.59782 -1.86855 0
M  V30 1044 H 88.2661 5.25965 -3.11722 0
M  V30 1045 H 92.4401 5.7 -4.00092 0
M  V30 1046 H 90.0671 6.0287 -4.63089 0
M  V30 1047 N 91.6422 0.330177 1.54103 0
M  V30 1048 C 92.5522 -0.541534 2.28264 0
M  V30 1049 C 93.5682 -1.12351 1.32866 0
M  V30 1050 O 94.7442 -1.14206 1.65888 0
M  V30 1051 C 91.8092 -1.68322 3.03098 0
M  V30 1052 C 90.8702 -1.13238 4.14096 0
M  V30 1053 C 90.1032 -2.21966 4.85352 0
M  V30 1054 O 90.3262 -3.42437 4.56172 0
M  V30 1055 O 89.2602 -1.87013 5.7211 0
M  V30 1056 H 93.0862 0.060938 3.03639 0
M  V30 1057 H 90.6712 0.09565 1.49093 0
M  V30 1058 H 92.5532 -2.34777 3.49939 0
M  V30 1059 H 91.2282 -2.27176 2.30593 0
M  V30 1060 H 90.1352 -0.432736 3.71589 0
M  V30 1061 H 91.4682 -0.588898 4.88664 0
M  V30 1062 N 93.1203 -1.57491 0.0584922 0
M  V30 1063 C 94.0703 -2.08474 -0.923188 0
M  V30 1064 C 95.0543 -0.991479 -1.26722 0
M  V30 1065 O 96.2463 -1.25473 -1.24842 0
M  V30 1066 C 93.3753 -2.6392 -2.19548 0
M  V30 1067 C 92.4613 -3.80227 -1.87852 0
M  V30 1068 N 92.8523 -4.89714 -1.26546 0
M  V30 1069 C 91.1503 -3.89271 -2.17679 0
M  V30 1070 C 91.8513 -5.70689 -1.12644 0
M  V30 1071 N 90.8273 -5.18531 -1.63176 0
M  V30 1072 H 94.6293 -2.90517 -0.444653 0
M  V30 1073 H 92.1433 -1.61745 -0.145764 0
M  V30 1074 H 94.1403 -2.98752 -2.9078 0
M  V30 1075 H 92.8003 -1.83318 -2.68001 0
M  V30 1076 H 93.8113 -5.09358 -0.936757 0
M  V30 1077 H 90.4883 -3.19623 -2.68602 0
M  V30 1078 H 91.8783 -6.6875 -0.6499 0
M  V30 1079 N 94.5984 0.214957 -1.56127 0
M  V30 1080 C 95.5284 1.2695 -1.95974 0
M  V30 1081 C 96.5094 1.48539 -0.828868 0
M  V30 1082 O 97.6944 1.60611 -1.09168 0
M  V30 1083 C 94.8244 2.61794 -2.28214 0
M  V30 1084 C 93.7784 2.54851 -3.43853 0
M  V30 1085 C 93.1044 3.93785 -3.61715 0
M  V30 1086 C 94.4044 2.09065 -4.78632 0
M  V30 1087 H 96.0984 0.93846 -2.84312 0
M  V30 1088 H 93.6444 0.449996 -1.36788 0
M  V30 1089 H 95.5974 3.35731 -2.54682 0
M  V30 1090 H 94.3214 2.96599 -1.36736 0
M  V30 1091 H 92.9804 1.8337 -3.17444 0
M  V30 1092 H 92.6284 4.25908 -2.67602 0
M  V30 1093 H 92.3284 3.90019 -4.39498 0
M  V30 1094 H 93.8524 4.69374 -3.90539 0
M  V30 1095 H 95.2664 2.7275 -5.04262 0
M  V30 1096 H 93.6634 2.16346 -5.59745 0
M  V30 1097 H 94.7334 1.04315 -4.73547 0
M  V30 1098 N 96.0765 1.50051 0.48192 0
M  V30 1099 C 97.0245 1.68635 1.60203 0
M  V30 1100 C 98.0185 0.552184 1.60148 0
M  V30 1101 O 99.2245 0.732377 1.64427 0
M  V30 1102 H 95.5995 0.532081 0.531407 0
M  V30 1103 H 97.5705 2.62616 1.41688 0
M  V30 1104 C 96.3195 1.78775 2.9822 0
M  V30 1105 H 95.6425 2.6543 2.98976 0
M  V30 1106 H 97.0825 1.95806 3.7608 0
M  V30 1107 C 95.5415 0.536849 3.32595 0
M  V30 1108 O 96.0715 -0.328897 4.00351 0
M  V30 1109 N 94.2775 0.394091 2.87915 0
M  V30 1110 H 93.8245 1.09962 2.32951 0
M  V30 1111 H 93.7825 -0.441737 3.11281 0
M  V30 1112 N 97.5546 -0.734337 1.39446 0
M  V30 1113 C 98.7796 -1.52866 1.40167 0
M  V30 1114 C 99.2046 -1.881 -0.00171513 0
M  V30 1115 O 98.5626 -1.51957 -0.988879 0
M  V30 1116 C 98.6106 -2.79235 2.28167 0
M  V30 1117 O 97.7146 -3.75185 1.71201 0
M  V30 1118 H 97.0556 -0.461618 0.477289 0
M  V30 1119 H 99.5856 -0.905949 1.8345 0
M  V30 1120 H 99.5956 -3.27963 2.42702 0
M  V30 1121 H 98.2706 -2.52923 3.30156 0
M  V30 1122 H 96.8476 -3.33958 1.65912 0
M  V30 1123 N 99.0327 -1.24633 -0.964593 0
M  V30 1124 C 100.31 -0.995809 -1.68354 0
M  V30 1125 C 100.69 0.480964 -2.05548 0
M  V30 1126 O 100.038 1.45599 -1.76105 0
M  V30 1127 C 100.248 -1.92177 -2.91323 0
M  V30 1128 C 101.596 -2.19446 -3.63495 0
M  V30 1129 O 102.62 -1.89855 -3.01386 0
M  V30 1130 O 101.479 -2.69714 -4.75307 0
M  V30 1131 H 98.5727 -0.376854 -0.736146 0
M  V30 1132 H 101.119 -1.35745 -1.0184 0
M  V30 1133 H 99.8907 -2.91938 -2.60553 0
M  V30 1134 H 99.5137 -1.56349 -3.65569 0
M  V30 1135 N 100.511 1.16574 -1.06058 0
M  V30 1136 C 101.758 1.87047 -0.775873 0
M  V30 1137 C 102.086 1.81562 0.697534 0
M  V30 1138 O 101.341 1.22445 1.52662 0
M  V30 1139 C 101.64 3.36195 -1.21275 0
M  V30 1140 C 101.306 3.6188 -2.68986 0
M  V30 1141 C 99.9678 3.68599 -3.09335 0
M  V30 1142 C 102.32 3.72648 -3.64394 0
M  V30 1143 C 99.6478 3.83584 -4.43937 0
M  V30 1144 C 102 3.89154 -4.98741 0
M  V30 1145 C 100.664 3.94114 -5.3873 0
M  V30 1146 H 99.9338 0.684452 -0.283912 0
M  V30 1147 H 102.581 1.37853 -1.32925 0
M  V30 1148 H 100.886 3.87505 -0.578528 0
M  V30 1149 H 102.583 3.89103 -0.969542 0
M  V30 1150 H 99.1728 3.57281 -2.36744 0
M  V30 1151 H 103.357 3.66769 -3.34356 0
M  V30 1152 H 98.6128 3.85677 -4.74409 0
M  V30 1153 H 102.787 3.96427 -5.72554 0
M  V30 1154 H 100.414 4.05478 -6.43033 0
M  V30 1155 N 101.989 0.842826 1.3317 0
M  V30 1156 C 103.266 0.362216 1.92217 0
M  V30 1157 C 103.646 -1.15289 1.76838 0
M  V30 1158 O 102.994 -1.96914 1.15919 0
M  V30 1159 C 103.204 0.813495 3.39387 0
M  V30 1160 C 104.552 0.823804 4.16532 0
M  V30 1161 O 105.576 0.757358 3.48055 0
M  V30 1162 O 104.435 0.915193 5.38782 0
M  V30 1163 H 101.529 0.103317 0.820521 0
M  V30 1164 H 104.075 0.928942 1.42017 0
M  V30 1165 H 102.847 1.85624 3.4447 0
M  V30 1166 H 102.47 0.223561 3.96971 0
M  V30 1167 N 103.467 -1.45747 0.599634 0
M  V30 1168 C 104.883 -1.57424 0.26264 0
M  V30 1169 C 105.083 -1.59222 -1.23493 0
M  V30 1170 O 104.139 -1.51825 -2.01756 0
M  V30 1171 C 105.452 -2.86061 0.926795 0
M  V30 1172 C 107 -2.99722 0.901967 0
M  V30 1173 C 107.475 -4.31119 1.54598 0
M  V30 1174 N 108.966 -4.37858 1.5111 0
M  V30 1175 C 109.701 -5.3818 1.97863 0
M  V30 1176 N 109.197 -6.45083 2.52666 0
M  V30 1177 N 110.99 -5.29487 1.88679 0
M  V30 1178 H 103.141 -1.42823 1.57211 0
M  V30 1179 H 105.404 -0.68235 0.658105 0
M  V30 1180 H 105.11 -2.90605 1.98095 0
M  V30 1181 H 104.984 -3.74563 0.445238 0
M  V30 1182 H 107.371 -2.9475 -0.143617 0
M  V30 1183 H 107.452 -2.12652 1.42171 0
M  V30 1184 H 107.096 -4.36849 2.59085 0
M  V30 1185 H 107.026 -5.16992 1.00132 0
M  V30 1186 H 109.517 -3.61209 1.11068 0
M  V30 1187 H 109.83 -7.17869 2.86155 0
M  V30 1188 H 108.175 -6.45856 2.56701 0
M  V30 1189 H 111.366 -4.44877 1.4561 0
M  V30 1190 H 111.539 -6.07524 2.25429 0
M  V30 1191 N 104.945 -0.338344 -1.53925 0
M  V30 1192 C 106.175 0.260919 -2.04946 0
M  V30 1193 C 106.583 1.45174 -1.2133 0
M  V30 1194 O 105.926 1.82122 -0.240262 0
M  V30 1195 C 105.988 0.744596 -3.51704 0
M  V30 1196 C 105.652 -0.325883 -4.55837 0
M  V30 1197 C 106.649 -1.16687 -5.06636 0
M  V30 1198 C 104.334 -0.478317 -5.00017 0
M  V30 1199 C 106.328 -2.14588 -6.00192 0
M  V30 1200 C 104.015 -1.46073 -5.93385 0
M  V30 1201 C 105.013 -2.29297 -6.4336 0
M  V30 1202 O 104.701 -3.25867 -7.34892 0
M  V30 1203 H 104.433 0.0551207 -0.673749 0
M  V30 1204 H 106.987 -0.486984 -1.99544 0
M  V30 1205 H 105.217 1.54366 -3.54553 0
M  V30 1206 H 106.906 1.26383 -3.85723 0
M  V30 1207 H 107.672 -1.06016 -4.73271 0
M  V30 1208 H 103.551 0.159613 -4.60724 0
M  V30 1209 H 107.095 -2.79585 -6.39123 0
M  V30 1210 H 102.992 -1.56802 -6.26166 0
M  V30 1211 H 103.76 -3.21278 -7.5281 0
M  V30 1212 N 106.423 1.57458 -0.0668435 0
M  V30 1213 C 107.353 2.15468 0.899764 0
M  V30 1214 C 108.334 1.08042 1.31381 0
M  V30 1215 O 109.519 1.36054 1.38574 0
M  V30 1216 C 106.649 2.71232 2.16911 0
M  V30 1217 C 105.603 3.83781 1.89463 0
M  V30 1218 C 104.929 4.26127 3.22986 0
M  V30 1219 C 106.229 5.08238 1.20381 0
M  V30 1220 H 107.923 2.96488 0.416529 0
M  V30 1221 H 105.469 1.4262 0.198908 0
M  V30 1222 H 107.422 3.10458 2.84945 0
M  V30 1223 H 106.146 1.87426 2.67468 0
M  V30 1224 H 104.805 3.45051 1.23836 0
M  V30 1225 H 104.453 3.39249 3.71374 0
M  V30 1226 H 104.153 5.01993 3.05413 0
M  V30 1227 H 105.677 4.67966 3.92225 0
M  V30 1228 H 107.091 5.44811 1.78475 0
M  V30 1229 H 105.488 5.89349 1.13083 0
M  V30 1230 H 106.558 4.84558 0.182153 0
M  V30 1231 N 107.901 -0.206675 1.56239 0
M  V30 1232 C 108.831 -1.25909 1.96645 0
M  V30 1233 C 109.812 -1.48097 0.836734 0
M  V30 1234 O 110.997 -1.6003 1.10019 0
M  V30 1235 C 108.127 -2.6058 2.29599 0
M  V30 1236 C 107.081 -2.53024 3.452 0
M  V30 1237 C 106.407 -3.91861 3.63798 0
M  V30 1238 C 107.707 -2.06524 4.79734 0
M  V30 1239 H 109.401 -0.923369 2.84806 0
M  V30 1240 H 106.947 -0.442735 1.37025 0
M  V30 1241 H 108.9 -3.34375 2.56459 0
M  V30 1242 H 107.624 -2.95869 1.38307 0
M  V30 1243 H 106.283 -1.81684 3.18412 0
M  V30 1244 H 105.931 -4.24483 2.69857 0
M  V30 1245 H 105.631 -3.87683 4.4156 0
M  V30 1246 H 107.155 -4.67296 3.93022 0
M  V30 1247 H 108.569 -2.70072 5.05702 0
M  V30 1248 H 106.966 -2.13374 5.60885 0
M  V30 1249 H 108.036 -1.01802 4.74093 0
M  V30 1250 N 109.379 -1.50304 -0.473955 0
M  V30 1251 C 110.309 -1.71886 -1.58042 0
M  V30 1252 C 111.29 -0.567799 -1.60344 0
M  V30 1253 O 112.475 -0.806623 -1.76656 0
M  V30 1254 C 109.605 -1.81036 -2.96384 0
M  V30 1255 C 108.559 -2.962 -3.08949 0
M  V30 1256 C 107.885 -2.9049 -4.48909 0
M  V30 1257 C 109.185 -4.36752 -2.86434 0
M  V30 1258 H 110.879 -2.64527 -1.40234 0
M  V30 1259 H 108.425 -1.27295 -0.673201 0
M  V30 1260 H 110.378 -1.94719 -3.73714 0
M  V30 1261 H 109.102 -0.850147 -3.15341 0
M  V30 1262 H 107.761 -2.82164 -2.3405 0
M  V30 1263 H 107.409 -1.92321 -4.64781 0
M  V30 1264 H 107.109 -3.67802 -4.58253 0
M  V30 1265 H 108.633 -3.06218 -5.28264 0
M  V30 1266 H 110.047 -4.5133 -3.53517 0
M  V30 1267 H 108.444 -5.15493 -3.07225 0
M  V30 1268 H 109.514 -4.49321 -1.82316 0
M  V30 1269 N 110.857 0.726932 -1.39834 0
M  V30 1270 C 111.79 1.8501 -1.33592 0
M  V30 1271 C 112.768 1.61262 -0.208191 0
M  V30 1272 O 113.952 1.84422 -0.389981 0
M  V30 1273 C 111.079 3.21143 -1.07633 0
M  V30 1274 C 110.125 3.63737 -2.22705 0
M  V30 1275 S 110.958 3.72167 -3.85035 0
M  V30 1276 C 112.114 5.11077 -3.61318 0
M  V30 1277 H 112.347 1.90022 -2.28646 0
M  V30 1278 H 109.88 0.892595 -1.25985 0
M  V30 1279 H 111.838 3.99747 -0.933415 0
M  V30 1280 H 110.499 3.13776 -0.142526 0
M  V30 1281 H 109.692 4.62551 -2.00155 0
M  V30 1282 H 109.294 2.9236 -2.33242 0
M  V30 1283 H 111.586 5.97656 -3.19083 0
M  V30 1284 H 112.529 5.38658 -4.59623 0
M  V30 1285 H 112.937 4.81135 -2.95245 0
M  V30 1286 N 112.336 1.25143 0.95797 0
M  V30 1287 C 113.613 1.00472 1.67823 0
M  V30 1288 C 113.993 -0.470056 2.058 0
M  V30 1289 O 113.341 -1.44663 1.76875 0
M  V30 1290 C 113.551 1.9372 2.90299 0
M  V30 1291 C 114.899 2.21371 3.62326 0
M  V30 1292 O 115.923 1.91451 3.00375 0
M  V30 1293 O 114.782 2.72231 4.7387 0
M  V30 1294 H 111.876 0.380752 0.734137 0
M  V30 1295 H 114.422 1.36283 1.01119 0
M  V30 1296 H 113.194 2.93316 2.59001 0
M  V30 1297 H 112.817 1.58286 3.64735 0
M  V30 1298 N 113.814 -1.1601 1.06675 0
M  V30 1299 C 114.744 -2.22688 0.702307 0
M  V30 1300 C 115.725 -1.67306 -0.307032 0
M  V30 1301 O 116.91 -1.93352 -0.181305 0
M  V30 1302 C 114.04 -3.47178 0.092038 0
M  V30 1303 C 112.994 -4.15477 1.02777 0
M  V30 1304 C 112.32 -5.33963 0.28061 0
M  V30 1305 C 113.62 -4.66019 2.35846 0
M  V30 1306 H 115.314 -2.53429 1.59419 0
M  V30 1307 H 112.86 -1.21813 0.767961 0
M  V30 1308 H 114.813 -4.21037 -0.174814 0
M  V30 1309 H 113.537 -3.15749 -0.834877 0
M  V30 1310 H 112.196 -3.43549 1.27944 0
M  V30 1311 H 111.844 -4.98788 -0.649545 0
M  V30 1312 H 111.544 -5.806 0.904258 0
M  V30 1313 H 113.068 -6.10596 0.021396 0
M  V30 1314 H 114.482 -5.3144 2.15045 0
M  V30 1315 H 112.879 -5.23293 2.93743 0
M  V30 1316 H 113.949 -3.82023 2.98641 0
M  V30 1317 N 115.292 -0.849877 -1.32721 0
M  V30 1318 C 116.224 -0.248332 -2.27851 0
M  V30 1319 C 117.237 0.577218 -1.52224 0
M  V30 1320 O 118.426 0.402489 -1.73903 0
M  V30 1321 C 115.526 0.668107 -3.32249 0
M  V30 1322 C 114.699 -0.120534 -4.37234 0
M  V30 1323 C 113.758 0.720932 -5.21238 0
M  V30 1324 O 112.784 0.156166 -5.68986 0
M  V30 1325 N 113.986 2.03647 -5.43607 0
M  V30 1326 H 116.751 -1.06575 -2.80111 0
M  V30 1327 H 114.312 -0.709395 -1.45531 0
M  V30 1328 H 116.304 1.23627 -3.85355 0
M  V30 1329 H 114.874 1.38621 -2.80184 0
M  V30 1330 H 114.094 -0.870108 -3.84477 0
M  V30 1331 H 115.382 -0.662406 -5.0447 0
M  V30 1332 H 114.78 2.51871 -5.06535 0
M  V30 1333 H 113.337 2.55287 -5.99727 0
M  V30 1334 N 116.77 1.45427 -0.607355 0
M  V30 1335 C 118.047 1.9557 -0.0344566 0
M  V30 1336 C 118.427 1.54979 1.43334 0
M  V30 1337 O 117.775 0.812241 2.13576 0
M  V30 1338 C 117.985 3.48226 -0.232321 0
M  V30 1339 C 119.333 4.2445 -0.113001 0
M  V30 1340 O 120.357 3.55829 -0.162431 0
M  V30 1341 O 119.216 5.465 0.00209442 0
M  V30 1342 H 116.31 0.826222 0.0358667 0
M  V30 1343 H 118.856 1.55594 -0.6774 0
M  V30 1344 H 117.628 3.70739 -1.25174 0
M  V30 1345 H 117.251 3.95092 0.445896 0
M  V30 1346 N 118.248 0.346503 1.53744 0
M  V30 1347 C 119.664 -0.00530975 1.59599 0
M  V30 1348 C 119.864 -1.48465 1.36236 0
M  V30 1349 O 118.92 -2.24376 1.15808 0
M  V30 1350 C 120.233 0.433516 2.97559 0
M  V30 1351 C 121.781 0.386111 3.10609 0
M  V30 1352 C 122.256 0.800451 4.50951 0
M  V30 1353 N 123.747 0.754753 4.5701 0
M  V30 1354 C 124.482 1.04727 5.63755 0
M  V30 1355 N 123.978 1.4081 6.7834 0
M  V30 1356 N 125.771 0.971316 5.53644 0
M  V30 1357 H 117.922 1.31009 1.67184 0
M  V30 1358 H 120.185 0.534242 0.783128 0
M  V30 1359 H 119.891 1.46509 3.19731 0
M  V30 1360 H 119.765 -0.189753 3.76722 0
M  V30 1361 H 122.152 -0.636295 2.88158 0
M  V30 1362 H 122.233 1.04462 2.33498 0
M  V30 1363 H 121.877 1.82088 4.74137 0
M  V30 1364 H 121.807 0.119386 5.26465 0
M  V30 1365 H 124.298 0.488662 3.74727 0
M  V30 1366 H 124.611 1.61607 7.55714 0
M  V30 1367 H 122.956 1.44657 6.79779 0
M  V30 1368 H 126.147 0.688748 4.63005 0
M  V30 1369 H 126.32 1.20263 6.36742 0
M  V30 1370 N 119.726 -1.57421 0.075193 0
M  V30 1371 C 120.674 -2.14124 -0.908508 0
M  V30 1372 C 121.668 -1.07898 -1.30592 0
M  V30 1373 O 122.874 -1.26273 -1.28277 0
M  V30 1374 H 119.249 -0.684707 -0.310935 0
M  V30 1375 H 121.22 -2.95634 -0.405374 0
M  V30 1376 C 119.969 -2.72044 -2.16535 0
M  V30 1377 H 119.292 -3.53456 -1.86839 0
M  V30 1378 H 120.732 -3.15311 -2.83469 0
M  V30 1379 C 119.191 -1.66968 -2.92615 0
M  V30 1380 O 119.721 -1.0967 -3.86439 0
M  V30 1381 N 117.927 -1.37923 -2.55784 0
M  V30 1382 H 117.474 -1.84706 -1.79559 0
M  V30 1383 H 117.432 -0.67852 -3.06991 0
M  V30 1384 N 121.204 0.198386 -1.56346 0
M  V30 1385 C 122.114 1.2664 -1.97483 0
M  V30 1386 C 123.13 1.49989 -0.882002 0
M  V30 1387 O 124.306 1.62668 -1.18748 0
M  V30 1388 C 121.371 2.59141 -2.30319 0
M  V30 1389 C 120.432 2.43892 -3.53292 0
M  V30 1390 C 119.665 3.70074 -3.84553 0
M  V30 1391 O 119.888 4.74101 -3.1715 0
M  V30 1392 O 118.822 3.658 -4.7799 0
M  V30 1393 H 122.648 0.947304 -2.88548 0
M  V30 1394 H 120.233 0.403123 -1.43859 0
M  V30 1395 H 122.115 3.37352 -2.5253 0
M  V30 1396 H 120.79 2.90684 -1.42423 0
M  V30 1397 H 119.697 1.63803 -3.36332 0
M  V30 1398 H 121.03 2.17282 -4.41644 0
M  V30 1399 N 122.682 1.50554 0.465978 0
M  V30 1400 C 123.629 1.6979 1.56333 0
M  V30 1401 C 124.599 0.539239 1.57103 0
M  V30 1402 O 125.784 0.770401 1.74555 0
M  V30 1403 C 122.924 1.80273 2.94271 0
M  V30 1404 C 122.037 3.07674 3.0325 0
M  V30 1405 C 121.172 3.08922 4.32135 0
M  V30 1406 C 120.211 4.30755 4.34875 0
M  V30 1407 N 119.348 4.29714 5.55239 0
M  V30 1408 H 124.188 2.63472 1.39235 0
M  V30 1409 H 121.725 1.30602 0.676873 0
M  V30 1410 H 123.683 1.84332 3.74269 0
M  V30 1411 H 122.313 0.900258 3.09992 0
M  V30 1412 H 121.365 3.13062 2.16094 0
M  V30 1413 H 122.677 3.97642 3.01135 0
M  V30 1414 H 121.831 3.11738 5.20485 0
M  V30 1415 H 120.57 2.16792 4.36866 0
M  V30 1416 H 119.575 4.28146 3.44922 0
M  V30 1417 H 120.8 5.24117 4.31831 0
M  V30 1418 H 118.746 3.4044 5.60746 0
M  V30 1419 H 118.663 5.13456 5.54886 0
M  V30 1420 H 119.931 4.36683 6.457 0
M  V30 1421 N 124.16 -0.719506 1.40217 0
M  V30 1422 C 125.09 -1.8465 1.42922 0
M  V30 1423 C 126.071 -1.67599 0.29062 0
M  V30 1424 O 127.256 -1.87688 0.498677 0
M  V30 1425 C 124.386 -3.22565 1.28722 0
M  V30 1426 C 123.34 -3.54281 2.40144 0
M  V30 1427 C 122.666 -4.91298 2.11023 0
M  V30 1428 C 123.966 -3.55676 3.82481 0
M  V30 1429 H 125.66 -1.82644 2.37237 0
M  V30 1430 H 123.206 -0.877305 1.1419 0
M  V30 1431 H 125.159 -4.01095 1.29232 0
M  V30 1432 H 123.883 -3.25137 0.308811 0
M  V30 1433 H 122.542 -2.78088 2.38877 0
M  V30 1434 H 122.19 -4.90468 1.11582 0
M  V30 1435 H 121.89 -5.13485 2.8567 0
M  V30 1436 H 123.414 -5.72166 2.13209 0
M  V30 1437 H 124.828 -4.24254 3.85592 0
M  V30 1438 H 123.225 -3.89388 4.56614 0
M  V30 1439 H 124.295 -2.55144 4.12346 0
M  V30 1440 N 125.638 -1.25649 -0.95132 0
M  V30 1441 C 126.885 -1.10594 -1.69633 0
M  V30 1442 C 127.213 0.352515 -1.91279 0
M  V30 1443 O 126.468 1.27601 -1.4838 0
M  V30 1444 C 126.767 -1.80909 -3.08231 0
M  V30 1445 C 126.433 -3.30825 -3.06375 0
M  V30 1446 C 125.095 -3.71722 -3.05576 0
M  V30 1447 C 127.447 -4.26589 -2.99452 0
M  V30 1448 C 124.775 -5.06788 -2.95606 0
M  V30 1449 C 127.127 -5.61683 -2.91024 0
M  V30 1450 C 125.791 -6.01904 -2.88562 0
M  V30 1451 H 125.061 -0.404691 -0.620731 0
M  V30 1452 H 127.708 -1.55964 -1.11119 0
M  V30 1453 H 126.013 -1.27979 -3.70309 0
M  V30 1454 H 127.71 -1.6671 -3.64704 0
M  V30 1455 H 124.3 -2.98287 -3.07771 0
M  V30 1456 H 128.484 -3.95982 -2.99185 0
M  V30 1457 H 123.74 -5.37126 -2.92071 0
M  V30 1458 H 127.914 -6.35578 -2.84629 0
M  V30 1459 H 125.541 -7.06521 -2.80593 0
M  V30 1460 N 127.117 1.15442 -1.07289 0
M  V30 1461 C 128.347 1.89821 -0.815576 0
M  V30 1462 C 128.755 1.7823 0.634867 0
M  V30 1463 O 128.098 1.13152 1.44715 0
M  V30 1464 C 128.16 3.40817 -1.14385 0
M  V30 1465 C 127.824 3.76193 -2.59476 0
M  V30 1466 C 128.821 3.77269 -3.57721 0
M  V30 1467 C 126.506 4.0652 -2.95037 0
M  V30 1468 C 128.5 4.08176 -4.89562 0
M  V30 1469 C 126.187 4.37092 -4.27076 0
M  V30 1470 C 127.185 4.37902 -5.24148 0
M  V30 1471 O 126.873 4.67741 -6.53815 0
M  V30 1472 H 126.605 0.608465 -0.294528 0
M  V30 1473 H 129.159 1.472 -1.43252 0
M  V30 1474 H 127.389 3.83835 -0.469865 0
M  V30 1475 H 129.078 3.96485 -0.869179 0
M  V30 1476 H 129.844 3.5394 -3.3159 0
M  V30 1477 H 125.723 4.05049 -2.20128 0
M  V30 1478 H 129.267 4.08723 -5.65324 0
M  V30 1479 H 125.164 4.59889 -4.5296 0
M  V30 1480 H 125.932 4.85509 -6.58957 0
M  V30 1481 N 128.595 0.856903 1.32268 0
M  V30 1482 C 130.011 0.547061 1.49931 0
M  V30 1483 C 130.211 -0.921781 1.7918 0
M  V30 1484 O 129.267 -1.70469 1.8627 0
M  V30 1485 C 130.58 1.43599 2.64196 0
M  V30 1486 C 132.128 1.43665 2.78081 0
M  V30 1487 C 132.603 2.31085 3.95428 0
M  V30 1488 N 134.094 2.28893 4.02694 0
M  V30 1489 C 134.829 2.93262 4.92732 0
M  V30 1490 N 134.325 3.66751 5.87763 0
M  V30 1491 N 136.118 2.82638 4.85873 0
M  V30 1492 H 128.269 1.8075 1.11549 0
M  V30 1493 H 130.532 0.772144 0.549997 0
M  V30 1494 H 130.238 2.48058 2.49319 0
M  V30 1495 H 130.112 1.12502 3.60032 0
M  V30 1496 H 132.499 0.399701 2.92381 0
M  V30 1497 H 132.58 1.7878 1.82952 0
M  V30 1498 H 132.224 3.34849 3.81888 0
M  V30 1499 H 132.154 1.93302 4.89839 0
M  V30 1500 H 134.645 1.75466 3.34694 0
M  V30 1501 H 134.958 4.13027 6.53168 0
M  V30 1502 H 133.303 3.70859 5.87783 0
M  V30 1503 H 136.494 2.24774 4.10602 0
M  V30 1504 H 136.667 3.33084 5.55841 0
M  V30 1505 N 130.073 -1.45103 0.615059 0
M  V30 1506 C 131.319 -2.02483 0.113347 0
M  V30 1507 C 131.652 -1.48146 -1.25564 0
M  V30 1508 O 130.927 -0.659104 -1.82992 0
M  V30 1509 C 131.21 -3.60005 0.0825278 0
M  V30 1510 C 131.063 -4.2466 1.48271 0
M  V30 1511 C 132.382 -4.35972 -0.601401 0
M  V30 1512 H 129.501 -0.735764 0.0426632 0
M  V30 1513 H 132.143 -1.72868 0.788461 0
M  V30 1514 H 130.293 -3.85367 -0.492378 0
M  V30 1515 H 131.965 -4.10458 2.10527 0
M  V30 1516 H 130.208 -3.82772 2.04127 0
M  V30 1517 H 130.879 -5.336 1.41332 0
M  V30 1518 H 133.355 -4.15947 -0.112666 0
M  V30 1519 H 132.231 -5.45697 -0.592097 0
M  V30 1520 H 132.492 -4.09391 -1.66887 0
M  V30 1521 N 131.551 -0.354651 -1.53558 0
M  V30 1522 C 132.481 0.489091 -2.2832 0
M  V30 1523 C 133.462 1.09324 -1.30316 0
M  V30 1524 O 134.647 1.11255 -1.59173 0
M  V30 1525 C 131.777 1.63456 -3.0643 0
M  V30 1526 C 130.731 1.1582 -4.12031 0
M  V30 1527 C 130.057 2.39305 -4.7816 0
M  V30 1528 C 131.357 0.250731 -5.21698 0
M  V30 1529 H 133.051 -0.134614 -2.99097 0
M  V30 1530 H 130.597 -0.0661826 -1.43848 0
M  V30 1531 H 132.55 2.23136 -3.57475 0
M  V30 1532 H 131.274 2.28533 -2.33325 0
M  V30 1533 H 129.933 0.584146 -3.61916 0
M  V30 1534 H 129.581 3.02814 -4.01637 0
M  V30 1535 H 129.281 2.08109 -5.49513 0
M  V30 1536 H 130.805 2.99691 -5.31994 0
M  V30 1537 H 132.219 0.754695 -5.68311 0
M  V30 1538 H 130.616 0.0301468 -6.00092 0
M  V30 1539 H 131.686 -0.710125 -4.79672 0
M  V30 1540 N 133.029 1.57378 -0.0835403 0
M  V30 1541 C 134.257 1.98263 0.59157 0
M  V30 1542 C 134.672 0.962302 1.62435 0
M  V30 1543 O 134.029 -0.049581 1.82433 0
M  V30 1544 C 134.08 3.39214 1.24965 0
M  V30 1545 O 133.801 4.37339 0.258186 0
M  V30 1546 C 135.302 3.95038 2.01147 0
M  V30 1547 H 132.522 0.651773 0.159477 0
M  V30 1548 H 135.066 2.03878 -0.159415 0
M  V30 1549 H 133.221 3.34649 1.95164 0
M  V30 1550 H 133.635 5.19371 0.731734 0
M  V30 1551 H 135.109 4.95848 2.42567 0
M  V30 1552 H 135.586 3.32222 2.87272 0
M  V30 1553 H 136.192 4.0304 1.35789 0
M  V30 1554 N 134.507 -0.190092 1.56449 0
M  V30 1555 C 135.732 -0.929864 1.85387 0
M  V30 1556 C 136.157 -1.7585 0.667704 0
M  V30 1557 O 135.515 -1.77198 -0.383459 0
M  V30 1558 C 135.563 -1.79773 3.12593 0
M  V30 1559 O 134.667 -2.89713 2.93496 0
M  V30 1560 H 134.008 -0.261574 0.610307 0
M  V30 1561 H 136.538 -0.193896 2.03679 0
M  V30 1562 H 136.548 -2.20139 3.43515 0
M  V30 1563 H 135.223 -1.18892 3.98544 0
M  V30 1564 H 133.8 -2.53065 2.73884 0
M  V30 1565 N 135.985 -1.50799 -0.457987 0
M  V30 1566 C 137.262 -1.52968 -1.21902 0
M  V30 1567 C 137.642 -0.281906 -2.09209 0
M  V30 1568 O 136.99 0.734076 -2.16388 0
M  V30 1569 C 137.2 -2.8326 -2.03875 0
M  V30 1570 C 138.548 -3.34425 -2.6162 0
M  V30 1571 O 139.572 -2.8467 -2.14106 0
M  V30 1572 O 138.431 -4.21188 -3.48228 0
M  V30 1573 H 135.525 -0.614129 -0.553873 0
M  V30 1574 H 138.071 -1.63098 -0.468739 0
M  V30 1575 H 136.843 -3.65543 -1.39621 0
M  V30 1576 H 136.466 -2.76195 -2.8601 0
M  V30 1577 N 137.463 0.71206 -1.40597 0
M  V30 1578 C 138.712 1.46754 -1.38369 0
M  V30 1579 C 139.025 1.95598 0.0097839 0
M  V30 1580 O 140.231 2.71059 0.154677 0
M  V30 1581 C 138.687 2.65289 -2.43207 0
M  V30 1582 C 138.295 2.23301 -3.88382 0
M  V30 1583 C 140.039 3.43008 -2.50091 0
M  V30 1584 C 137.946 3.38696 -4.84808 0
M  V30 1585 H 136.876 0.55118 -0.514506 0
M  V30 1586 H 139.527 0.774616 -1.66349 0
M  V30 1587 H 137.909 3.36769 -2.08332 0
M  V30 1588 H 139.083 1.59218 -4.32419 0
M  V30 1589 H 137.398 1.58618 -3.85006 0
M  V30 1590 H 139.995 4.28881 -3.1932 0
M  V30 1591 H 140.338 3.87065 -1.53253 0
M  V30 1592 H 140.871 2.78574 -2.83974 0
M  V30 1593 H 137.61 2.99668 -5.82992 0
M  V30 1594 H 137.13 4.01683 -4.45433 0
M  V30 1595 H 138.809 4.04712 -5.04794 0
M  V30 1596 N 138.941 1.26152 0.944643 0
M  V30 1597 C 139.851 1.09176 2.07648 0
M  V30 1598 C 140.867 0.0261935 1.7398 0
M  V30 1599 O 142.043 0.229208 2.00091 0
M  V30 1600 C 139.108 0.722915 3.39079 0
M  V30 1601 C 138.169 1.86752 3.86552 0
M  V30 1602 C 137.402 1.51617 5.11711 0
M  V30 1603 O 137.625 0.416331 5.68879 0
M  V30 1604 O 136.559 2.34975 5.54139 0
M  V30 1605 H 140.385 2.0412 2.24875 0
M  V30 1606 H 137.97 1.05182 1.061 0
M  V30 1607 H 139.852 0.529787 4.18056 0
M  V30 1608 H 138.527 -0.197159 3.23099 0
M  V30 1609 H 137.434 2.11558 3.08535 0
M  V30 1610 H 138.767 2.76719 4.07047 0
M  V30 1611 N 140.419 -1.14872 1.07899 0
M  V30 1612 C 141.366 -2.19791 0.704319 0
M  V30 1613 C 142.336 -1.63238 -0.306987 0
M  V30 1614 O 143.521 -1.8983 -0.192171 0
M  V30 1615 C 140.661 -3.44911 0.114244 0
M  V30 1616 C 139.774 -4.15637 1.1777 0
M  V30 1617 C 138.909 -5.28324 0.552037 0
M  V30 1618 C 137.948 -5.90875 1.59789 0
M  V30 1619 N 137.085 -6.95022 0.994404 0
M  V30 1620 H 141.925 -2.5119 1.60336 0
M  V30 1621 H 139.462 -1.23356 0.801352 0
M  V30 1622 H 141.42 -4.16477 -0.245544 0
M  V30 1623 H 140.05 -3.14011 -0.74813 0
M  V30 1624 H 139.102 -3.42512 1.65499 0
M  V30 1625 H 140.414 -4.5823 1.97046 0
M  V30 1626 H 139.568 -6.06538 0.1402 0
M  V30 1627 H 138.307 -4.86939 -0.272431 0
M  V30 1628 H 137.312 -5.11369 2.01945 0
M  V30 1629 H 138.537 -6.34337 2.42474 0
M  V30 1630 H 136.483 -6.55722 0.190939 0
M  V30 1631 H 136.4 -7.36073 1.72432 0
M  V30 1632 H 137.668 -7.77123 0.608253 0
M  V30 1633 N 141.898 -0.863906 -1.31812 0
M  V30 1634 C 143.145 -0.471836 -1.96926 0
M  V30 1635 C 143.473 0.974578 -1.68322 0
M  V30 1636 O 142.728 1.7003 -0.968933 0
M  V30 1637 C 143.027 -0.668547 -3.51091 0
M  V30 1638 C 142.693 -2.08683 -3.99703 0
M  V30 1639 C 141.355 -2.47471 -4.12688 0
M  V30 1640 C 143.707 -3.01207 -4.25351 0
M  V30 1641 C 141.035 -3.78037 -4.4867 0
M  V30 1642 C 143.387 -4.31282 -4.62794 0
M  V30 1643 C 142.051 -4.69992 -4.73987 0
M  V30 1644 H 141.321 -0.172657 -0.720604 0
M  V30 1645 H 143.968 -1.09573 -1.57054 0
M  V30 1646 H 142.273 0.0385252 -3.91781 0
M  V30 1647 H 143.97 -0.345102 -3.99512 0
M  V30 1648 H 140.56 -1.77566 -3.90087 0
M  V30 1649 H 144.744 -2.72469 -4.14819 0
M  V30 1650 H 140 -4.078 -4.55532 0
M  V30 1651 H 144.174 -5.03031 -4.81594 0
M  V30 1652 H 141.801 -5.71207 -5.01624 0
M  V30 1653 N 143.376 1.44774 -0.622745 0
M  V30 1654 C 144.309 2.27792 0.136329 0
M  V30 1655 C 145.287 1.38041 0.859264 0
M  V30 1656 O 146.471 1.67478 0.86506 0
M  V30 1657 C 143.598 3.16776 1.19878 0
M  V30 1658 C 142.644 4.22575 0.57731 0
M  V30 1659 S 143.477 5.31825 -0.626294 0
M  V30 1660 C 144.633 6.24377 0.436378 0
M  V30 1661 H 144.866 2.91824 -0.567967 0
M  V30 1662 H 142.399 1.48838 -0.410677 0
M  V30 1663 H 144.357 3.68596 1.80686 0
M  V30 1664 H 143.018 2.5198 1.87523 0
M  V30 1665 H 142.211 4.84818 1.37721 0
M  V30 1666 H 141.813 3.73974 0.0440439 0
M  V30 1667 H 144.105 6.64689 1.31128 0
M  V30 1668 H 145.048 7.07941 -0.150271 0
M  V30 1669 H 145.456 5.59381 0.758513 0
M  V30 1670 N 144.854 0.36279 1.53368 0
M  V30 1671 C 146.265 -0.117022 1.86333 0
M  V30 1672 C 146.616 -1.48397 1.28347 0
M  V30 1673 O 145.741 -2.07787 0.604428 0
M  V30 1674 C 146.336 -0.21912 3.38091 0
M  V30 1675 C 144.895 -0.643184 3.70864 0
M  V30 1676 C 144.042 0.211318 2.76494 0
M  V30 1677 H 146.993 0.581687 1.47655 0
M  V30 1678 H 147.014 -1.04319 3.6592 0
M  V30 1679 H 146.526 0.775902 3.80265 0
M  V30 1680 H 144.627 -1.64654 3.34245 0
M  V30 1681 H 144.74 -0.41973 4.77258 0
M  V30 1682 H 143.104 -0.319367 2.5269 0
M  V30 1683 H 143.887 1.20383 3.21501 0
M  V30 1684 N 146.332 -1.57332 0.0918853 0
M  V30 1685 C 147.581 -1.93412 -0.572249 0
M  V30 1686 C 147.894 -0.975515 -1.69538 0
M  V30 1687 O 149.1 -1.22991 -2.42045 0
M  V30 1688 C 147.556 -3.43648 -1.0693 0
M  V30 1689 C 147.164 -4.47994 0.0239049 0
M  V30 1690 C 148.908 -3.88695 -1.70635 0
M  V30 1691 C 146.815 -5.89381 -0.488319 0
M  V30 1692 H 145.745 -0.721939 -0.217532 0
M  V30 1693 H 148.396 -1.82735 0.167369 0
M  V30 1694 H 146.778 -3.49466 -1.8625 0
M  V30 1695 H 147.952 -4.53815 0.799277 0
M  V30 1696 H 146.267 -4.12536 0.565946 0
M  V30 1697 H 148.864 -4.91725 -2.10025 0
M  V30 1698 H 149.207 -3.27166 -2.57426 0
M  V30 1699 H 149.74 -3.85564 -0.979023 0
M  V30 1700 H 146.479 -6.54602 0.342906 0
M  V30 1701 H 145.999 -5.87037 -1.23077 0
M  V30 1702 H 147.678 -6.39863 -0.958317 0
M  V30 1703 N 147.81 0.181792 -1.56548 0
M  V30 1704 C 149.056 0.901431 -1.81665 0
M  V30 1705 C 149.389 1.82347 -0.668075 0
M  V30 1706 O 148.664 1.91669 0.330615 0
M  V30 1707 C 148.947 1.70618 -3.17115 0
M  V30 1708 C 148.8 0.807964 -4.42484 0
M  V30 1709 C 150.119 2.67605 -3.49393 0
M  V30 1710 H 147.238 0.32627 -0.660846 0
M  V30 1711 H 149.88 0.168134 -1.89255 0
M  V30 1712 H 148.03 2.33133 -3.10775 0
M  V30 1713 H 149.702 0.19649 -4.60881 0
M  V30 1714 H 147.945 0.115411 -4.33646 0
M  V30 1715 H 148.616 1.40632 -5.33785 0
M  V30 1716 H 151.092 2.15218 -3.56118 0
M  V30 1717 H 149.968 3.20985 -4.45264 0
M  V30 1718 H 150.229 3.47298 -2.73563 0
M  V30 1719 N 149.288 1.51039 0.449983 0
M  V30 1720 C 150.518 1.66627 1.22143 0
M  V30 1721 C 150.926 0.357776 1.85786 0
M  V30 1722 O 150.269 -0.672424 1.70951 0
M  V30 1723 C 150.331 2.71562 2.35573 0
M  V30 1724 C 149.995 4.14526 1.92399 0
M  V30 1725 C 150.992 4.99717 1.43453 0
M  V30 1726 C 148.677 4.60559 2.00475 0
M  V30 1727 C 150.671 6.28998 1.03155 0
M  V30 1728 C 148.358 5.8984 1.59788 0
M  V30 1729 C 149.356 6.73886 1.11208 0
M  V30 1730 O 149.044 8.0075 0.710935 0
M  V30 1731 H 148.776 0.562635 0.374724 0
M  V30 1732 H 151.33 1.98146 0.541036 0
M  V30 1733 H 149.56 2.3533 3.06849 0
M  V30 1734 H 151.249 2.76156 2.97478 0
M  V30 1735 H 152.015 4.65361 1.36618 0
M  V30 1736 H 147.894 3.95273 2.37235 0
M  V30 1737 H 151.438 6.9455 0.651663 0
M  V30 1738 H 147.335 6.23713 1.66289 0
M  V30 1739 H 148.103 8.142 0.837913 0
M  V30 1740 N 150.766 -0.704594 1.40972 0
M  V30 1741 C 151.994 -1.49354 1.43182 0
M  V30 1742 C 152.409 -1.88768 0.0345508 0
M  V30 1743 O 151.766 -1.56184 -0.944081 0
M  V30 1744 C 151.817 -2.76187 2.33244 0
M  V30 1745 O 151.538 -2.38436 3.67532 0
M  V30 1746 C 153.039 -3.7 2.44162 0
M  V30 1747 H 150.259 -0.460559 0.487982 0
M  V30 1748 H 152.803 -0.868261 1.85153 0
M  V30 1749 H 150.958 -3.34974 1.94606 0
M  V30 1750 H 151.372 -3.20126 4.15475 0
M  V30 1751 H 152.846 -4.55803 3.11364 0
M  V30 1752 H 153.323 -4.13867 1.47006 0
M  V30 1753 H 153.929 -3.17121 2.83398 0
M  V30 1754 N 152.244 -1.26651 -0.937939 0
M  V30 1755 C 153.655 -1.1125 -1.49934 0
M  V30 1756 C 154.006 0.306077 -1.93798 0
M  V30 1757 O 153.131 1.19792 -1.80219 0
M  V30 1758 C 153.726 -2.01339 -2.72485 0
M  V30 1759 C 152.285 -1.90074 -3.24883 0
M  V30 1760 C 151.432 -1.94498 -1.97651 0
M  V30 1761 H 154.383 -1.39693 -0.753091 0
M  V30 1762 H 154.404 -1.56319 -3.46907 0
M  V30 1763 H 153.916 -3.04577 -2.40529 0
M  V30 1764 H 152.017 -0.897827 -3.61621 0
M  V30 1765 H 152.13 -2.75778 -3.9177 0
M  V30 1766 H 150.494 -1.38591 -2.13693 0
M  V30 1767 H 151.277 -2.99372 -1.68022 0
M  V30 1768 N 153.722 1.14298 -1.08507 0
M  V30 1769 C 154.95 1.89219 -0.836876 0
M  V30 1770 C 155.365 1.78638 0.611054 0
M  V30 1771 O 154.722 1.14643 1.41998 0
M  V30 1772 C 154.773 3.39158 -1.25116 0
M  V30 1773 O 154.494 3.49449 -2.64229 0
M  V30 1774 C 155.995 4.31073 -1.03398 0
M  V30 1775 H 153.215 0.599328 -0.301739 0
M  V30 1776 H 155.759 1.44746 -1.44461 0
M  V30 1777 H 153.914 3.81251 -0.687514 0
M  V30 1778 H 154.328 4.42589 -2.81452 0
M  V30 1779 H 155.802 5.34646 -1.37323 0
M  V30 1780 H 156.279 4.3919 0.0289259 0
M  V30 1781 H 156.885 3.94738 -1.58311 0
M  V30 1782 N 155.201 0.870884 1.31352 0
M  V30 1783 C 156.447 0.482987 1.96965 0
M  V30 1784 C 156.78 -0.962462 1.68672 0
M  V30 1785 O 156.055 -1.6779 0.98371 0
M  V30 1786 C 156.338 0.741752 3.52378 0
M  V30 1787 C 156.191 2.2368 3.9024 0
M  V30 1788 C 157.51 0.208838 4.39604 0
M  V30 1789 H 154.629 0.176955 0.715441 0
M  V30 1790 H 157.271 1.09229 1.55464 0
M  V30 1791 H 155.421 0.223149 3.87859 0
M  V30 1792 H 157.093 2.82273 3.64856 0
M  V30 1793 H 155.336 2.70901 3.38814 0
M  V30 1794 H 156.007 2.3685 4.98604 0
M  V30 1795 H 158.483 0.652529 4.10952 0
M  V30 1796 H 157.359 0.419336 5.47296 0
M  V30 1797 H 157.62 -0.889275 4.33064 0
M  V30 1798 N 156.679 -1.44442 0.630414 0
M  V30 1799 C 157.927 -2.01653 0.134351 0
M  V30 1800 C 158.248 -1.49836 -1.24796 0
M  V30 1801 O 157.518 -0.701684 -1.82902 0
M  V30 1802 H 156.098 -0.74554 0.0466769 0
M  V30 1803 H 158.76 -1.76952 0.816955 0
M  V30 1804 H 157.856 -3.11935 0.101498 0
M  V30 1805 N 158.157 -0.370918 -1.53173 0
M  V30 1806 C 159.087 0.464847 -2.28826 0
M  V30 1807 C 160.068 1.07936 -1.31468 0
M  V30 1808 O 161.253 1.0956 -1.60344 0
M  V30 1809 C 158.383 1.60196 -3.08147 0
M  V30 1810 C 157.337 1.11443 -4.13237 0
M  V30 1811 C 156.663 2.3422 -4.80672 0
M  V30 1812 C 157.963 0.195384 -5.21934 0
M  V30 1813 H 159.657 -0.166329 -2.98938 0
M  V30 1814 H 157.203 -0.0814359 -1.4377 0
M  V30 1815 H 159.156 2.19332 -3.59822 0
M  V30 1816 H 157.88 2.26045 -2.35735 0
M  V30 1817 H 156.539 0.545727 -3.62515 0
M  V30 1818 H 156.187 2.98537 -4.04827 0
M  V30 1819 H 155.887 2.02269 -5.51689 0
M  V30 1820 H 157.411 2.94032 -5.35143 0
M  V30 1821 H 158.825 0.694375 -5.69079 0
M  V30 1822 H 157.222 -0.0335027 -6.00091 0
M  V30 1823 H 158.292 -0.760961 -4.78892 0
M  V30 1824 N 159.635 1.57281 -0.100228 0
M  V30 1825 C 160.598 2.13158 0.842398 0
M  V30 1826 C 161.598 1.06202 1.20738 0
M  V30 1827 O 162.788 1.32066 1.13597 0
M  V30 1828 C 159.92 2.65639 2.13655 0
M  V30 1829 H 161.113 2.97766 0.357114 0
M  V30 1830 H 158.666 1.5559 0.148823 0
M  V30 1831 H 159.401 1.84566 2.66657 0
M  V30 1832 H 159.186 3.43844 1.88451 0
M  V30 1833 H 160.676 3.08846 2.81077 0
M  V30 1834 N 161.113 -0.173488 1.56642 0
M  V30 1835 C 162.353 -0.896984 1.83667 0
M  V30 1836 C 162.717 -1.79523 0.680842 0
M  V30 1837 O 163.918 -2.55616 0.831488 0
M  V30 1838 C 162.189 -1.67351 3.15798 0
M  V30 1839 S 163.748 -2.44607 3.64298 0
M  V30 1840 H 160.566 -0.300464 0.644393 0
M  V30 1841 H 163.168 -0.158775 1.94854 0
M  V30 1842 H 161.872 -1.00462 3.97914 0
M  V30 1843 H 161.403 -2.45313 3.07546 0
M  V30 1844 H 163.418 -3.69261 3.31452 0
M  V30 1845 N 162.591 -1.51276 -0.441967 0
M  V30 1846 C 163.523 -1.68444 -1.55433 0
M  V30 1847 C 164.536 -0.565187 -1.52674 0
M  V30 1848 O 165.725 -0.839356 -1.57534 0
M  V30 1849 C 162.825 -1.67966 -2.94348 0
M  V30 1850 C 161.998 -2.964 -3.21661 0
M  V30 1851 C 161.057 -2.88171 -4.40277 0
M  V30 1852 O 160.083 -3.62119 -4.39157 0
M  V30 1853 N 161.285 -2.03706 -5.43584 0
M  V30 1854 H 164.05 -2.644 -1.41112 0
M  V30 1855 H 161.611 -1.49104 -0.630838 0
M  V30 1856 H 163.603 -1.60035 -3.71713 0
M  V30 1857 H 162.173 -0.796225 -3.0229 0
M  V30 1858 H 161.393 -3.18234 -2.32638 0
M  V30 1859 H 162.681 -3.81427 -3.36736 0
M  V30 1860 H 162.079 -1.42995 -5.47329 0
M  V30 1861 H 160.636 -2.01658 -6.1982 0
M  V30 1862 N 164.069 0.697108 -1.41344 0
M  V30 1863 C 165.001 1.8224 -1.39001 0
M  V30 1864 C 166.014 1.60152 -0.292428 0
M  V30 1865 O 167.203 1.69684 -0.554048 0
M  V30 1866 C 164.303 3.18976 -1.14489 0
M  V30 1867 C 163.476 3.68105 -2.36258 0
M  V30 1868 C 162.535 4.83506 -2.07625 0
M  V30 1869 O 161.561 4.95201 -2.8065 0
M  V30 1870 N 162.763 5.70637 -1.06555 0
M  V30 1871 H 165.528 1.84742 -2.35988 0
M  V30 1872 H 163.089 0.87937 -1.35936 0
M  V30 1873 H 165.081 3.93801 -0.932885 0
M  V30 1874 H 163.651 3.11508 -0.261043 0
M  V30 1875 H 162.871 2.84204 -2.7317 0
M  V30 1876 H 164.159 3.97667 -3.17393 0
M  V30 1877 H 163.557 5.63817 -0.461125 0
M  V30 1878 H 162.114 6.45368 -0.913444 0
M  V30 1879 N 165.547 1.27147 0.931209 0
M  V30 1880 C 166.777 1.15914 1.71019 0
M  V30 1881 C 167.185 -0.287112 1.87009 0
M  V30 1882 O 166.528 -1.20761 1.38429 0
M  V30 1883 C 166.59 1.76647 3.13107 0
M  V30 1884 C 166.254 3.25807 3.20467 0
M  V30 1885 C 167.251 4.22489 3.02983 0
M  V30 1886 C 164.936 3.66452 3.43538 0
M  V30 1887 C 166.93 5.57794 3.08454 0
M  V30 1888 C 164.617 5.01888 3.48643 0
M  V30 1889 C 165.615 5.97369 3.31119 0
M  V30 1890 O 165.303 7.30337 3.35952 0
M  V30 1891 H 165.035 0.404062 0.54195 0
M  V30 1892 H 167.589 1.68457 1.17521 0
M  V30 1893 H 165.819 1.18578 3.68071 0
M  V30 1894 H 167.508 1.60179 3.72958 0
M  V30 1895 H 168.274 3.92425 2.85004 0
M  V30 1896 H 164.153 2.92611 3.5623 0
M  V30 1897 H 167.697 6.32298 2.94694 0
M  V30 1898 H 163.594 5.31609 3.66145 0
M  V30 1899 H 164.362 7.38739 3.5243 0
M  V30 1900 N 167.025 -1.13721 1.09112 0
M  V30 1901 C 168.25 -1.89314 0.847053 0
M  V30 1902 C 168.675 -1.78416 -0.595774 0
M  V30 1903 O 168.033 -1.12942 -1.41823 0
M  V30 1904 C 168.081 -3.3701 1.28284 0
M  V30 1905 O 167.185 -4.10054 0.439267 0
M  V30 1906 H 166.526 -0.588745 0.307044 0
M  V30 1907 H 169.056 -1.43902 1.45442 0
M  V30 1908 H 169.066 -3.87834 1.26683 0
M  V30 1909 H 167.741 -3.4426 2.33363 0
M  V30 1910 H 166.318 -3.69266 0.519312 0
M  V30 1911 N 168.503 -0.877838 -1.30888 0
M  V30 1912 C 169.433 -0.35534 -2.3078 0
M  V30 1913 C 170.414 0.557994 -1.60687 0
M  V30 1914 O 171.599 0.473355 -1.88343 0
M  V30 1915 C 168.729 0.437221 -3.44537 0
M  V30 1916 C 167.683 -0.383715 -4.26276 0
M  V30 1917 C 167.009 0.535014 -5.32017 0
M  V30 1918 C 168.309 -1.62201 -4.96476 0
M  V30 1919 H 170.003 -1.19007 -2.74732 0
M  V30 1920 H 167.549 -0.573698 -1.32078 0
M  V30 1921 H 169.502 0.813334 -4.13477 0
M  V30 1922 H 168.226 1.30553 -2.99372 0
M  V30 1923 H 166.885 -0.741874 -3.59015 0
M  V30 1924 H 166.533 1.40083 -4.831 0
M  V30 1925 H 166.233 -0.0104211 -5.87599 0
M  V30 1926 H 167.757 0.907799 -6.03814 0
M  V30 1927 H 169.171 -1.31689 -5.5797 0
M  V30 1928 H 167.568 -2.10711 -5.61891 0
M  V30 1929 H 168.638 -2.37044 -4.23011 0
M  V30 1930 N 169.982 1.44106 -0.638065 0
M  V30 1931 C 171.228 2.02277 -0.145546 0
M  V30 1932 C 171.561 1.50125 1.23191 0
M  V30 1933 O 170.836 0.688133 1.8192 0
M  V30 1934 C 171.119 3.59829 -0.139791 0
M  V30 1935 C 170.972 4.22247 -1.55008 0
M  V30 1936 C 172.291 4.36873 0.531966 0
M  V30 1937 H 169.41 0.734992 -0.0543632 0
M  V30 1938 H 172.052 1.71592 -0.815863 0
M  V30 1939 H 170.202 3.86102 0.431007 0
M  V30 1940 H 171.874 4.07057 -2.1703 0
M  V30 1941 H 170.117 3.79476 -2.10191 0
M  V30 1942 H 170.788 5.31284 -1.49804 0
M  V30 1943 H 173.264 4.16074 0.0464781 0
M  V30 1944 H 172.14 5.4657 0.505206 0
M  V30 1945 H 172.401 4.11995 1.60352 0
M  V30 1946 N 171.46 0.379036 1.52974 0
M  V30 1947 C 172.707 -0.206421 2.01445 0
M  V30 1948 C 173.035 -1.47668 1.26587 0
M  V30 1949 O 172.29 -1.92514 0.351675 0
M  V30 1950 C 172.589 -0.53096 3.53434 0
M  V30 1951 C 172.255 0.646546 4.46241 0
M  V30 1952 C 170.917 0.969604 4.7133 0
M  V30 1953 C 173.269 1.43479 5.01062 0
M  V30 1954 C 170.597 2.08263 5.48492 0
M  V30 1955 C 172.949 2.53834 5.7944 0
M  V30 1956 C 171.613 2.86659 6.02812 0
M  V30 1957 H 170.883 -0.0755349 0.73714 0
M  V30 1958 H 173.53 0.514271 1.84465 0
M  V30 1959 H 171.835 -1.33285 3.68432 0
M  V30 1960 H 173.532 -0.996417 3.88423 0
M  V30 1961 H 170.122 0.384734 4.2687 0
M  V30 1962 H 174.306 1.19844 4.81613 0
M  V30 1963 H 169.562 2.34078 5.64816 0
M  V30 1964 H 173.736 3.15319 6.20924 0
M  V30 1965 H 171.363 3.73026 6.62387 0
M  V30 1966 N 172.938 -1.57226 0.108567 0
M  V30 1967 C 174.354 -1.5766 -0.248058 0
M  V30 1968 C 174.554 -1.12063 -1.67464 0
M  V30 1969 O 173.61 -0.803236 -2.39383 0
M  V30 1970 C 174.923 -3.0069 -0.0242287 0
M  V30 1971 C 176.471 -3.12868 -0.0909372 0
M  V30 1972 C 176.946 -4.57879 0.105067 0
M  V30 1973 N 178.437 -4.63172 0.0506846 0
M  V30 1974 C 179.172 -5.73126 0.177396 0
M  V30 1975 N 178.668 -6.91866 0.359696 0
M  V30 1976 N 180.461 -5.61977 0.117709 0
M  V30 1977 H 172.612 -1.85169 1.04049 0
M  V30 1978 H 174.875 -0.85529 0.40888 0
M  V30 1979 H 174.581 -3.38299 0.961604 0
M  V30 1980 H 174.455 -3.6945 -0.76068 0
M  V30 1981 H 176.842 -2.75124 -1.06729 0
M  V30 1982 H 176.923 -2.46672 0.677225 0
M  V30 1983 H 176.567 -4.96321 1.07834 0
M  V30 1984 H 176.497 -5.22153 -0.682954 0
M  V30 1985 H 178.988 -3.778 -0.0871266 0
M  V30 1986 H 179.301 -7.71503 0.447529 0
M  V30 1987 H 177.646 -6.93874 0.395536 0
M  V30 1988 H 180.837 -4.68094 -0.0236741 0
M  V30 1989 H 181.01 -6.47627 0.219905 0
M  V30 1990 N 174.416 0.165178 -1.56732 0
M  V30 1991 C 175.363 1.2044 -1.96883 0
M  V30 1992 C 176.333 1.43664 -0.833657 0
M  V30 1993 O 177.518 1.56302 -1.09427 0
M  V30 1994 C 174.658 2.53727 -2.33916 0
M  V30 1995 C 173.771 2.3783 -3.6064 0
M  V30 1996 C 172.906 3.64026 -3.86857 0
M  V30 1997 C 171.945 3.43088 -5.06909 0
M  V30 1998 N 171.082 4.61369 -5.29229 0
M  V30 1999 H 175.922 0.854996 -2.85471 0
M  V30 2000 H 173.459 0.41076 -1.41249 0
M  V30 2001 H 175.417 3.31419 -2.53411 0
M  V30 2002 H 174.047 2.8665 -1.48431 0
M  V30 2003 H 173.099 1.51282 -3.49024 0
M  V30 2004 H 174.411 2.18308 -4.4849 0
M  V30 2005 H 173.565 4.50152 -4.06753 0
M  V30 2006 H 172.304 3.86533 -2.97394 0
M  V30 2007 H 171.309 2.55349 -4.86906 0
M  V30 2008 H 172.534 3.21997 -5.97909 0
M  V30 2009 H 170.48 4.84084 -4.42718 0
M  V30 2010 H 170.397 4.44783 -6.11313 0
M  V30 2011 H 171.665 5.48761 -5.53608 0
M  V30 2012 N 175.894 1.51508 0.433938 0
M  V30 2013 C 177.305 1.56784 1.01369 0
M  V30 2014 C 177.656 0.393349 1.92217 0
M  V30 2015 O 176.781 -0.489441 2.10792 0
M  V30 2016 C 177.376 2.84144 1.8452 0
M  V30 2017 C 175.935 2.9198 2.37539 0
M  V30 2018 C 175.082 2.51482 1.16843 0
M  V30 2019 H 178.033 1.57236 0.215081 0
M  V30 2020 H 178.054 2.68098 2.70007 0
M  V30 2021 H 177.566 3.69607 1.18373 0
M  V30 2022 H 175.667 2.10955 3.0713 0
M  V30 2023 H 175.78 3.95704 2.70103 0
M  V30 2024 H 174.144 2.04758 1.51481 0
M  V30 2025 H 174.927 3.39293 0.523015 0
M  V30 2026 N 177.372 -0.689602 1.41712 0
M  V30 2027 C 178.788 -1.00093 1.24312 0
M  V30 2028 C 178.988 -2.01036 0.136729 0
M  V30 2029 O 178.044 -2.47562 -0.496918 0
M  V30 2030 C 179.357 -1.51985 2.59463 0
M  V30 2031 C 180.905 -1.63838 2.66695 0
M  V30 2032 C 181.38 -2.1913 4.02177 0
M  V30 2033 N 182.871 -2.26483 4.04054 0
M  V30 2034 C 183.606 -2.70306 5.0569 0
M  V30 2035 N 183.102 -3.13691 6.17713 0
M  V30 2036 N 184.895 -2.69923 4.9305 0
M  V30 2037 H 177.046 -0.0210029 2.1239 0
M  V30 2038 H 179.309 -0.0718733 0.945272 0
M  V30 2039 H 179.015 -0.85269 3.41207 0
M  V30 2040 H 178.889 -2.50103 2.82362 0
M  V30 2041 H 181.276 -2.29664 1.85306 0
M  V30 2042 H 181.357 -0.642492 2.476 0
M  V30 2043 H 181.001 -1.53918 4.84016 0
M  V30 2044 H 180.931 -3.19482 4.18615 0
M  V30 2045 H 183.422 -1.95874 3.23174 0
M  V30 2046 H 183.735 -3.45773 6.9113 0
M  V30 2047 H 182.08 -3.11585 6.21241 0
M  V30 2048 H 185.271 -2.35382 4.04614 0
M  V30 2049 H 185.444 -3.03758 5.72394 0
M  V30 2050 N 178.85 -1.27639 -0.924453 0
M  V30 2051 C 180.098 -1.13941 -1.66918 0
M  V30 2052 C 180.419 0.314589 -1.92446 0
M  V30 2053 O 179.689 1.21964 -1.53303 0
M  V30 2054 H 178.269 -0.418678 -0.618642 0
M  V30 2055 H 180.931 -1.60213 -1.10985 0
M  V30 2056 H 180.027 -1.67094 -2.63602 0
M  V30 2057 N 180.328 1.1314 -1.09713 0
M  V30 2058 C 181.258 2.20748 -0.761102 0
M  V30 2059 C 182.239 1.68061 0.262566 0
M  V30 2060 O 183.424 1.93765 0.129977 0
M  V30 2061 C 180.554 3.46812 -0.184054 0
M  V30 2062 C 179.508 4.12606 -1.13757 0
M  V30 2063 C 178.834 5.33031 -0.422083 0
M  V30 2064 C 180.134 4.59603 -2.48118 0
M  V30 2065 H 181.828 2.49113 -1.66082 0
M  V30 2066 H 179.374 1.19734 -0.799987 0
M  V30 2067 H 181.327 4.21353 0.0631215 0
M  V30 2068 H 180.051 3.17851 0.750868 0
M  V30 2069 H 178.71 3.40036 -1.37007 0
M  V30 2070 H 178.358 5.00335 0.517072 0
M  V30 2071 H 178.058 5.77999 -1.05788 0
M  V30 2072 H 179.582 6.10325 -0.183277 0
M  V30 2073 H 180.996 5.25552 -2.29059 0
M  V30 2074 H 179.393 5.15321 -3.07514 0
M  V30 2075 H 180.463 3.73971 -3.08665 0
M  V30 2076 N 181.806 0.884767 1.30421 0
M  V30 2077 C 183.053 0.503105 1.96151 0
M  V30 2078 C 183.381 -0.947676 1.69851 0
M  V30 2079 O 182.636 -1.68467 0.995861 0
M  V30 2080 C 182.935 0.724318 3.49983 0
M  V30 2081 C 182.601 2.15015 3.96332 0
M  V30 2082 C 181.263 2.54005 4.08699 0
M  V30 2083 C 183.615 3.07936 4.20505 0
M  V30 2084 C 180.943 3.85128 4.42599 0
M  V30 2085 C 183.295 4.3859 4.55874 0
M  V30 2086 C 181.959 4.77474 4.66449 0
M  V30 2087 H 181.229 0.184099 0.717766 0
M  V30 2088 H 183.876 1.12058 1.55291 0
M  V30 2089 H 182.181 0.0238086 3.91793 0
M  V30 2090 H 183.878 0.408617 3.98913 0
M  V30 2091 H 180.468 1.8375 3.87213 0
M  V30 2092 H 184.652 2.79033 4.10431 0
M  V30 2093 H 179.908 4.14996 4.48986 0
M  V30 2094 H 184.082 5.10629 4.7353 0
M  V30 2095 H 181.709 5.79115 4.92473 0
M  V30 2096 N 183.284 -1.43765 0.645699 0
M  V30 2097 C 184.533 -2.01116 0.153412 0
M  V30 2098 C 184.846 -1.51493 -1.23731 0
M  V30 2099 O 186.052 -2.01067 -1.8244 0
M  V30 2100 C 184.508 -3.59206 0.223473 0
M  V30 2101 C 184.116 -4.17823 1.61642 0
M  V30 2102 C 185.86 -4.23972 -0.211597 0
M  V30 2103 C 183.767 -5.68183 1.64081 0
M  V30 2104 H 182.697 -0.752093 0.0535891 0
M  V30 2105 H 185.348 -1.6482 0.806633 0
M  V30 2106 H 183.73 -3.92867 -0.497118 0
M  V30 2107 H 184.904 -3.95674 2.36176 0
M  V30 2108 H 183.219 -3.65399 1.99681 0
M  V30 2109 H 185.816 -5.34275 -0.213112 0
M  V30 2110 H 186.159 -3.97352 -1.24165 0
M  V30 2111 H 186.692 -3.95166 0.456988 0
M  V30 2112 H 183.431 -5.99559 2.64971 0
M  V30 2113 H 182.951 -5.9241 0.938611 0
M  V30 2114 H 184.63 -6.32085 1.3812 0
M  V30 2115 N 184.763 -0.387143 -1.52771 0
M  V30 2116 C 185.991 0.195869 -2.05971 0
M  V30 2117 C 186.406 1.40691 -1.25903 0
M  V30 2118 O 185.763 1.79931 -0.305134 0
M  V30 2119 C 185.814 0.56812 -3.57008 0
M  V30 2120 O 185.535 -0.594803 -4.34043 0
M  V30 2121 C 187.036 1.20723 -4.26545 0
M  V30 2122 H 184.256 0.0300578 -0.670326 0
M  V30 2123 H 186.8 -0.551749 -1.96916 0
M  V30 2124 H 184.955 1.26564 -3.66143 0
M  V30 2125 H 185.369 -0.289322 -5.23701 0
M  V30 2126 H 186.843 1.41807 -5.33474 0
M  V30 2127 H 187.32 2.17395 -3.81623 0
M  V30 2128 H 187.926 0.550535 -4.21722 0
M  V30 2129 N 186.241 1.57166 -0.116904 0
M  V30 2130 C 187.49 1.94298 0.541407 0
M  V30 2131 C 187.803 1.00236 1.67964 0
M  V30 2132 O 189.009 1.26826 2.40057 0
M  V30 2133 C 187.465 3.45306 1.01449 0
M  V30 2134 C 187.073 4.47899 -0.0951738 0
M  V30 2135 C 188.817 3.91361 1.6443 0
M  V30 2136 C 186.724 5.90083 0.394491 0
M  V30 2137 H 185.654 0.725308 0.206019 0
M  V30 2138 H 188.305 1.82446 -0.196419 0
M  V30 2139 H 186.687 3.52385 1.80667 0
M  V30 2140 H 187.861 4.52486 -0.871374 0
M  V30 2141 H 186.176 4.11583 -0.631505 0
M  V30 2142 H 188.773 4.95004 2.02176 0
M  V30 2143 H 189.116 3.3122 2.52189 0
M  V30 2144 H 189.649 3.87073 0.917559 0
M  V30 2145 H 186.388 6.53974 -0.447004 0
M  V30 2146 H 185.908 5.88921 1.13722 0
M  V30 2147 H 187.587 6.41307 0.856399 0
M  V30 2148 N 187.719 -0.156864 1.56817 0
M  V30 2149 C 188.669 -1.19891 1.93934 0
M  V30 2150 C 189.653 -1.39061 0.809372 0
M  V30 2151 O 190.845 -1.40789 1.07273 0
M  V30 2152 C 187.974 -2.53493 2.31508 0
M  V30 2153 C 187.06 -2.37957 3.51052 0
M  V30 2154 N 187.451 -1.92158 4.67877 0
M  V30 2155 C 185.749 -2.68739 3.55943 0
M  V30 2156 C 186.45 -1.8943 5.49992 0
M  V30 2157 N 185.426 -2.32375 4.91429 0
M  V30 2158 H 189.228 -0.836746 2.81737 0
M  V30 2159 H 186.742 -0.365012 1.58245 0
M  V30 2160 H 188.739 -3.28811 2.56299 0
M  V30 2161 H 187.399 -2.905 1.45051 0
M  V30 2162 H 188.41 -1.62274 4.91821 0
M  V30 2163 H 185.087 -3.09687 2.80001 0
M  V30 2164 H 186.477 -1.55596 6.53636 0
M  V30 2165 N 189.197 -1.51736 -0.425897 0
M  V30 2166 C 190.474 -1.55519 -1.1863 0
M  V30 2167 C 190.854 -0.326219 -2.08564 0
M  V30 2168 O 190.202 0.688012 -2.17896 0
M  V30 2169 C 190.412 -2.87521 -1.9782 0
M  V30 2170 C 191.76 -3.39899 -2.54468 0
M  V30 2171 O 192.784 -2.89148 -2.08019 0
M  V30 2172 O 191.643 -4.2848 -3.39215 0
M  V30 2173 H 188.737 -0.625739 -0.540721 0
M  V30 2174 H 191.283 -1.64055 -0.434038 0
M  V30 2175 H 190.055 -3.68422 -1.31836 0
M  V30 2176 H 189.678 -2.822 -2.80088 0
M  V30 2177 N 190.675 0.682077 -1.42076 0
M  V30 2178 C 192.091 0.994324 -1.24841 0
M  V30 2179 C 192.291 2.0096 -0.147389 0
M  V30 2180 O 191.347 2.47822 0.483782 0
M  V30 2181 C 192.66 1.50607 -2.60265 0
M  V30 2182 C 194.208 1.62421 -2.6756 0
M  V30 2183 C 194.683 2.16994 -4.03333 0
M  V30 2184 N 196.174 2.24337 -4.0525 0
M  V30 2185 C 196.909 2.67621 -5.07116 0
M  V30 2186 N 196.405 3.1041 -6.19368 0
M  V30 2187 N 198.198 2.67305 -4.94474 0
M  V30 2188 H 190.349 0.00973908 -2.12398 0
M  V30 2189 H 192.612 0.0668593 -0.945639 0
M  V30 2190 H 192.318 0.834583 -3.41654 0
M  V30 2191 H 192.192 2.48602 -2.83684 0
M  V30 2192 H 194.579 2.28678 -1.86521 0
M  V30 2193 H 194.66 0.629352 -2.47937 0
M  V30 2194 H 194.304 1.51349 -4.84826 0
M  V30 2195 H 194.234 3.17258 -4.20304 0
M  V30 2196 H 196.725 1.94158 -3.24209 0
M  V30 2197 H 197.038 3.42103 -6.92954 0
M  V30 2198 H 195.383 3.08286 -6.22884 0
M  V30 2199 H 198.574 2.33233 -4.05857 0
M  V30 2200 H 198.747 3.00718 -5.73997 0
M  V30 2201 N 192.153 1.28127 0.917671 0
M  V30 2202 C 193.401 1.14825 1.66312 0
M  V30 2203 C 193.722 -0.304379 1.9261 0
M  V30 2204 O 192.992 -1.21149 1.53947 0
M  V30 2205 H 191.572 0.421953 0.616413 0
M  V30 2206 H 194.234 1.608 1.10134 0
M  V30 2207 H 193.33 1.68489 2.62712 0
M  V30 2208 N 193.631 -1.12557 1.10312 0
M  V30 2209 C 194.581 -2.16331 0.720076 0
M  V30 2210 C 195.565 -1.58616 -0.270115 0
M  V30 2211 O 196.757 -1.76823 -0.0790507 0
M  V30 2212 C 193.886 -3.42963 0.152113 0
M  V30 2213 C 192.972 -4.07663 1.16927 0
M  V30 2214 N 193.363 -4.47392 2.35953 0
M  V30 2215 C 191.661 -4.34425 1.0095 0
M  V30 2216 C 192.362 -4.97932 3.0073 0
M  V30 2217 N 191.338 -4.93358 2.28252 0
M  V30 2218 H 195.14 -2.44813 1.62616 0
M  V30 2219 H 192.654 -1.29449 0.980654 0
M  V30 2220 H 194.651 -4.16664 -0.14037 0
M  V30 2221 H 193.311 -3.1595 -0.748701 0
M  V30 2222 H 194.322 -4.39802 2.73486 0
M  V30 2223 H 190.999 -4.17177 0.164134 0
M  V30 2224 H 192.389 -5.38397 4.01969 0
M  V30 2225 N 195.109 -0.891671 -1.2995 0
M  V30 2226 C 196.358 -0.509521 -1.95158 0
M  V30 2227 C 196.671 0.947388 -1.71125 0
M  V30 2228 O 197.877 1.43669 -2.30372 0
M  V30 2229 C 196.333 -0.860315 -3.49466 0
M  V30 2230 C 195.941 -2.33545 -3.8231 0
M  V30 2231 C 197.685 -0.547687 -4.20952 0
M  V30 2232 C 195.592 -2.62752 -5.29826 0
M  V30 2233 H 194.522 -0.18682 -0.730489 0
M  V30 2234 H 197.173 -1.08756 -1.47798 0
M  V30 2235 H 195.555 -0.211285 -3.95436 0
M  V30 2236 H 196.729 -3.02936 -3.47227 0
M  V30 2237 H 195.044 -2.61629 -3.23944 0
M  V30 2238 H 197.641 -0.742854 -5.29515 0
M  V30 2239 H 197.984 0.51332 -4.13123 0
M  V30 2240 H 198.517 -1.1542 -3.80688 0
M  V30 2241 H 195.256 -3.6762 -5.42712 0
M  V30 2242 H 194.776 -1.97977 -5.66185 0
M  V30 2243 H 196.455 -2.48601 -5.97333 0
M  V30 2244 N 196.587 1.43421 -0.653314 0
M  V30 2245 C 197.55 2.29182 0.0287951 0
M  V30 2246 C 198.55 1.42213 0.750465 0
M  V30 2247 O 199.74 1.63843 0.591701 0
M  V30 2248 C 196.872 3.24278 1.05151 0
M  V30 2249 H 198.065 2.90985 -0.725786 0
M  V30 2250 H 195.618 1.50702 -0.414545 0
M  V30 2251 H 196.353 2.6737 1.83532 0
M  V30 2252 H 196.138 3.88396 0.537687 0
M  V30 2253 H 197.628 3.88647 1.52786 0
M  V30 2254 N 198.065 0.39524 1.52563 0
M  V30 2255 C 199.29 -0.187456 2.06551 0
M  V30 2256 C 199.715 -1.39249 1.26457 0
M  V30 2257 O 199.073 -1.78947 0.291151 0
M  V30 2258 C 199.121 -0.529985 3.56684 0
M  V30 2259 O 198.225 -1.62307 3.79118 0
M  V30 2260 H 197.566 -0.0202537 0.663691 0
M  V30 2261 H 200.096 0.564426 1.96661 0
M  V30 2262 H 200.106 -0.792598 4.00227 0
M  V30 2263 H 198.781 0.350987 4.14416 0
M  V30 2264 H 197.358 -1.3537 3.47461 0
M  V30 2265 N 199.544 -1.57102 0.125237 0
M  V30 2266 C 200.79 -1.95697 -0.532035 0
M  V30 2267 C 201.123 -1.009 -1.6593 0
M  V30 2268 O 200.398 -0.047347 -1.94442 0
M  V30 2269 C 200.681 -3.44181 -1.05884 0
M  V30 2270 C 200.534 -4.49752 0.0654392 0
M  V30 2271 C 201.853 -3.94655 -1.9477 0
M  V30 2272 H 198.972 -0.711571 -0.191925 0
M  V30 2273 H 201.614 -1.88923 0.20206 0
M  V30 2274 H 199.764 -3.50085 -1.68442 0
M  V30 2275 H 201.436 -4.55943 0.700982 0
M  V30 2276 H 199.679 -4.27653 0.727709 0
M  V30 2277 H 200.35 -5.50924 -0.344505 0
M  V30 2278 H 202.826 -3.91094 -1.42074 0
M  V30 2279 H 201.702 -4.99057 -2.28546 0
M  V30 2280 H 201.963 -3.35718 -2.87656 0
M  V30 2281 N 201.022 0.148545 -1.56898 0
M  V30 2282 C 201.952 1.18524 -2.01182 0
M  V30 2283 C 202.933 1.4489 -0.891123 0
M  V30 2284 O 204.118 1.55836 -1.15882 0
M  V30 2285 C 201.248 2.51879 -2.39112 0
M  V30 2286 C 200.202 2.40038 -3.54353 0
M  V30 2287 C 199.528 3.78089 -3.78091 0
M  V30 2288 C 200.828 1.88577 -4.87069 0
M  V30 2289 H 202.522 0.817029 -2.88036 0
M  V30 2290 H 200.068 0.391575 -1.38574 0
M  V30 2291 H 202.021 3.24627 -2.68692 0
M  V30 2292 H 200.745 2.90532 -1.49193 0
M  V30 2293 H 199.404 1.69742 -3.24936 0
M  V30 2294 H 199.052 4.14175 -2.85426 0
M  V30 2295 H 198.752 3.71028 -4.55645 0
M  V30 2296 H 200.276 4.52387 -4.10095 0
M  V30 2297 H 201.69 2.51117 -5.15377 0
M  V30 2298 H 200.087 1.9241 -5.68417 0
M  V30 2299 H 201.157 0.84136 -4.77545 0
M  V30 2300 N 202.5 1.5196 0.417844 0
M  V30 2301 C 203.448 1.75278 1.52907 0
M  V30 2302 C 204.442 0.619611 1.57662 0
M  V30 2303 O 205.648 0.801457 1.61173 0
M  V30 2304 H 202.023 0.554141 0.508362 0
M  V30 2305 H 203.994 2.68389 1.30422 0
M  V30 2306 C 202.743 1.91262 2.90369 0
M  V30 2307 H 202.066 2.77872 2.8745 0
M  V30 2308 H 203.506 2.11581 3.67436 0
M  V30 2309 C 201.965 0.677431 3.30019 0
M  V30 2310 O 202.495 -0.158799 4.01386 0
M  V30 2311 N 200.701 0.515851 2.85985 0
M  V30 2312 H 200.248 1.19744 2.28077 0
M  V30 2313 H 200.206 -0.309315 3.12875 0
M  V30 2314 N 203.978 -0.674533 1.42435 0
M  V30 2315 C 204.941 -1.76986 1.45632 0
M  V30 2316 C 205.941 -1.5708 0.343871 0
M  V30 2317 O 207.131 -1.63367 0.604709 0
M  V30 2318 C 204.263 -3.15623 1.28822 0
M  V30 2319 H 205.456 -1.75539 2.43158 0
M  V30 2320 H 203.009 -0.884189 1.28887 0
M  V30 2321 H 203.744 -3.22696 0.322193 0
M  V30 2322 H 203.529 -3.31475 2.09444 0
M  V30 2323 H 205.019 -3.95537 1.33942 0
M  V30 2324 N 205.456 -1.28612 -0.910864 0
M  V30 2325 C 206.702 -1.17116 -1.66299 0
M  V30 2326 C 207.057 0.276917 -1.90397 0
M  V30 2327 O 206.35 1.19795 -1.49532 0
M  V30 2328 C 206.544 -1.90624 -3.0232 0
M  V30 2329 C 206.373 -3.42431 -2.91498 0
M  V30 2330 C 205.143 -4.11773 -2.92867 0
M  V30 2331 C 207.341 -4.38124 -2.69355 0
M  V30 2332 N 205.323 -5.50025 -2.72664 0
M  V30 2333 C 206.694 -5.63759 -2.58023 0
M  V30 2334 C 208.749 -4.28016 -2.54375 0
M  V30 2335 C 207.452 -6.80436 -2.33238 0
M  V30 2336 C 209.478 -5.44433 -2.30969 0
M  V30 2337 C 208.84 -6.69034 -2.20394 0
M  V30 2338 H 204.939 -0.483506 -0.61461 0
M  V30 2339 H 207.523 -1.62299 -1.0755 0
M  V30 2340 H 205.694 -1.4787 -3.5915 0
M  V30 2341 H 207.426 -1.71488 -3.66571 0
M  V30 2342 H 204.181 -3.63378 -3.03732 0
M  V30 2343 H 204.605 -6.22705 -2.65646 0
M  V30 2344 H 209.247 -3.32388 -2.613 0
M  V30 2345 H 206.965 -7.7613 -2.25051 0
M  V30 2346 H 210.551 -5.38504 -2.20238 0
M  V30 2347 H 209.431 -7.57595 -2.02531 0
M  V30 2348 N 206.934 1.1197 -1.10907 0
M  V30 2349 C 208.345 1.65114 -0.871446 0
M  V30 2350 C 208.696 1.86885 0.597353 0
M  V30 2351 O 207.821 1.59896 1.45816 0
M  V30 2352 C 208.416 2.99944 -1.5754 0
M  V30 2353 C 206.975 3.50018 -1.38435 0
M  V30 2354 C 206.122 2.24941 -1.62164 0
M  V30 2355 H 209.073 0.956851 -1.2661 0
M  V30 2356 H 209.094 3.66651 -1.01721 0
M  V30 2357 H 208.606 2.84067 -2.64438 0
M  V30 2358 H 206.707 3.71071 -0.337214 0
M  V30 2359 H 206.82 4.29165 -2.12965 0
M  V30 2360 H 205.184 2.3229 -1.04467 0
M  V30 2361 H 205.967 2.11612 -2.70324 0
M  V30 2362 N 208.412 0.89855 1.29475 0
M  V30 2363 C 209.322 0.379974 2.31502 0
M  V30 2364 C 210.338 -0.524695 1.659 0
M  V30 2365 O 211.514 -0.414551 1.97087 0
M  V30 2366 C 208.579 -0.385138 3.44554 0
M  V30 2367 C 207.64 0.550914 4.2575 0
M  V30 2368 C 206.873 -0.177778 5.33404 0
M  V30 2369 O 207.096 -1.40189 5.52904 0
M  V30 2370 O 206.03 0.479106 5.9999 0
M  V30 2371 H 209.856 1.22639 2.77837 0
M  V30 2372 H 207.441 0.662834 1.33891 0
M  V30 2373 H 209.323 -0.817841 4.13388 0
M  V30 2374 H 207.998 -1.20763 3.0033 0
M  V30 2375 H 206.905 1.03271 3.59564 0
M  V30 2376 H 208.238 1.33979 4.73614 0
M  V30 2377 N 209.89 -1.43072 0.660911 0
M  V30 2378 C 211.167 -1.95307 0.107017 0
M  V30 2379 C 211.547 -1.60192 -1.37484 0
M  V30 2380 O 210.895 -0.890949 -2.10415 0
M  V30 2381 C 211.105 -3.47124 0.361402 0
M  V30 2382 C 212.453 -4.23738 0.270455 0
M  V30 2383 O 213.477 -3.54981 0.294382 0
M  V30 2384 O 212.336 -5.46131 0.200737 0
M  V30 2385 H 209.43 -0.826984 -0.00517729 0
M  V30 2386 H 211.976 -1.52972 0.734681 0
M  V30 2387 H 210.748 -3.65837 1.38848 0
M  V30 2388 H 210.371 -3.96475 -0.298953 0
M  V30 2389 N 211.368 -0.403325 -1.52352 0
M  V30 2390 C 212.614 0.174605 -2.02047 0
M  V30 2391 C 212.947 1.45282 -1.28867 0
M  V30 2392 O 212.222 1.90483 -0.393257 0
M  V30 2393 C 212.505 0.428238 -3.57545 0
M  V30 2394 C 212.358 -0.866248 -4.4138 0
M  V30 2395 C 213.677 1.21287 -4.23057 0
M  V30 2396 H 210.796 0.0619851 -0.734389 0
M  V30 2397 H 213.438 -0.53565 -1.82293 0
M  V30 2398 H 211.588 1.03327 -3.74507 0
M  V30 2399 H 213.26 -1.50265 -4.3614 0
M  V30 2400 H 211.503 -1.47851 -4.07827 0
M  V30 2401 H 212.174 -0.643249 -5.48239 0
M  V30 2402 H 214.65 0.700703 -4.10158 0
M  V30 2403 H 213.526 1.35909 -5.31808 0
M  V30 2404 H 213.787 2.23193 -3.81625 0
M  V30 2405 N 212.846 1.57033 -0.133567 0
M  V30 2406 C 214.095 1.94861 0.520768 0
M  V30 2407 C 214.408 1.02012 1.66892 0
M  V30 2408 O 215.614 1.29365 2.38699 0
M  V30 2409 C 214.07 3.46362 0.977809 0
M  V30 2410 C 213.678 4.47773 -0.142674 0
M  V30 2411 C 215.422 3.93083 1.60269 0
M  V30 2412 C 213.329 5.90468 0.331883 0
M  V30 2413 H 212.259 0.727453 0.198315 0
M  V30 2414 H 214.91 1.82227 -0.215759 0
M  V30 2415 H 213.292 3.54282 1.7692 0
M  V30 2416 H 214.466 4.51536 -0.919317 0
M  V30 2417 H 212.781 4.10891 -0.675124 0
M  V30 2418 H 215.378 4.97121 1.96914 0
M  V30 2419 H 215.721 3.33876 2.48662 0
M  V30 2420 H 216.254 3.88025 0.876453 0
M  V30 2421 H 212.993 6.53463 -0.516341 0
M  V30 2422 H 212.513 5.90094 1.07469 0
M  V30 2423 H 214.192 6.42179 0.788332 0
M  V30 2424 N 214.325 -0.140222 1.56975 0
M  V30 2425 C 215.272 -1.17292 1.98774 0
M  V30 2426 C 216.242 -1.4232 0.856408 0
M  V30 2427 O 217.427 -1.54541 1.119 0
M  V30 2428 C 214.567 -2.49973 2.37923 0
M  V30 2429 C 213.68 -2.32062 3.64378 0
M  V30 2430 C 212.815 -3.57825 3.926 0
M  V30 2431 C 211.854 -3.3498 5.12303 0
M  V30 2432 N 210.991 -4.52891 5.36502 0
M  V30 2433 H 215.831 -0.809472 2.86795 0
M  V30 2434 H 213.368 -0.388237 1.41884 0
M  V30 2435 H 215.326 -3.27346 2.58652 0
M  V30 2436 H 213.956 -2.84252 1.52972 0
M  V30 2437 H 213.008 -1.45711 3.51387 0
M  V30 2438 H 214.32 -2.11145 4.51906 0
M  V30 2439 H 213.474 -4.43624 4.13863 0
M  V30 2440 H 212.213 -3.81753 3.03506 0
M  V30 2441 H 211.218 -2.4757 4.90906 0
M  V30 2442 H 212.443 -3.12444 6.02956 0
M  V30 2443 H 210.389 -4.76979 4.50363 0
M  V30 2444 H 210.306 -4.35001 6.18312 0
M  V30 2445 H 211.574 -5.39884 5.62268 0
M  V30 2446 N 215.803 -1.52179 -0.40978 0
M  V30 2447 C 216.766 -1.74853 -1.48186 0
M  V30 2448 C 217.766 -0.618417 -1.48433 0
M  V30 2449 O 218.956 -0.886286 -1.49969 0
M  V30 2450 C 216.088 -1.8303 -2.87598 0
M  V30 2451 H 217.281 -2.70559 -1.29374 0
M  V30 2452 H 214.834 -1.42586 -0.640233 0
M  V30 2453 H 215.569 -0.89236 -3.11781 0
M  V30 2454 H 215.354 -2.65187 -2.88822 0
M  V30 2455 H 216.844 -2.02316 -3.65319 0
M  V30 2456 N 217.281 0.66697 -1.42791 0
M  V30 2457 C 218.53 1.42278 -1.42968 0
M  V30 2458 C 218.843 1.9553 -0.0524489 0
M  V30 2459 O 220.049 2.71414 0.068363 0
M  V30 2460 C 218.505 2.57418 -2.51524 0
M  V30 2461 C 218.113 2.10832 -3.9529 0
M  V30 2462 C 219.857 3.34878 -2.60877 0
M  V30 2463 C 217.764 3.23101 -4.95338 0
M  V30 2464 H 216.694 0.534533 -0.531781 0
M  V30 2465 H 219.345 0.721302 -1.68729 0
M  V30 2466 H 217.727 3.29971 -2.18941 0
M  V30 2467 H 218.901 1.4538 -4.37266 0
M  V30 2468 H 217.216 1.46289 -3.89857 0
M  V30 2469 H 219.813 4.18505 -3.32802 0
M  V30 2470 H 220.156 3.81993 -1.6549 0
M  V30 2471 H 220.689 2.69398 -2.92693 0
M  V30 2472 H 217.428 2.80969 -5.9223 0
M  V30 2473 H 216.948 3.87309 -4.57987 0
M  V30 2474 H 218.627 3.88447 -5.17415 0
M  V30 2475 N 218.759 1.29093 0.90403 0
M  V30 2476 C 220.005 1.16986 1.65656 0
M  V30 2477 C 220.338 -0.278925 1.92186 0
M  V30 2478 O 219.613 -1.2019 1.5292 0
M  V30 2479 C 219.896 1.97908 3.0084 0
M  V30 2480 C 219.749 3.50903 2.81403 0
M  V30 2481 C 221.068 1.80208 4.01513 0
M  V30 2482 H 218.187 0.426346 0.601164 0
M  V30 2483 H 220.829 1.58518 1.04747 0
M  V30 2484 H 218.979 1.62616 3.52829 0
M  V30 2485 H 220.651 3.96153 2.36348 0
M  V30 2486 H 218.894 3.76045 2.1627 0
M  V30 2487 H 219.565 4.02791 3.77443 0
M  V30 2488 H 222.041 2.11025 3.58619 0
M  V30 2489 H 220.917 2.39184 4.94047 0
M  V30 2490 H 221.178 0.756119 4.35586 0
M  V30 2491 N 220.237 -1.11381 1.11499 0
M  V30 2492 C 221.483 -1.83403 0.865512 0
M  V30 2493 C 221.816 -1.84459 -0.607329 0
M  V30 2494 O 221.091 -1.29811 -1.44842 0
M  V30 2495 C 221.374 -3.30552 1.42855 0
M  V30 2496 C 221.227 -3.37886 2.96906 0
M  V30 2497 C 222.546 -4.26643 1.08 0
M  V30 2498 H 219.665 -0.665879 0.31587 0
M  V30 2499 H 222.307 -1.30601 1.37998 0
M  V30 2500 H 220.457 -3.75648 0.990985 0
M  V30 2501 H 222.129 -3.01343 3.49271 0
M  V30 2502 H 220.372 -2.78088 3.32941 0
M  V30 2503 H 221.043 -4.41458 3.31389 0
M  V30 2504 H 223.519 -3.89729 1.45775 0
M  V30 2505 H 222.395 -5.27986 1.50072 0
M  V30 2506 H 222.656 -4.42099 -0.00915037 0
M  V30 2507 N 221.715 -0.905404 -1.28997 0
M  V30 2508 C 222.943 -0.549846 -1.9946 0
M  V30 2509 C 223.358 0.866834 -1.67724 0
M  V30 2510 O 222.715 1.57298 -0.925404 0
M  V30 2511 C 222.766 -0.739387 -3.53858 0
M  V30 2512 O 222.487 -2.10031 -3.84472 0
M  V30 2513 C 223.988 -0.389541 -4.41585 0
M  V30 2514 H 221.208 -0.210429 -0.637151 0
M  V30 2515 H 223.752 -1.21632 -1.64396 0
M  V30 2516 H 221.907 -0.120023 -3.87214 0
M  V30 2517 H 222.321 -2.13385 -4.79132 0
M  V30 2518 H 223.795 -0.572972 -5.49018 0
M  V30 2519 H 224.272 0.673756 -4.34001 0
M  V30 2520 H 224.878 -0.986089 -4.1371 0
M  V30 2521 N 223.193 1.4272 -0.668489 0
M  V30 2522 C 224.47 1.95248 -0.117373 0
M  V30 2523 C 224.85 1.60919 1.36632 0
M  V30 2524 O 224.198 0.902095 2.09939 0
M  V30 2525 C 224.408 3.46927 -0.379806 0
M  V30 2526 C 225.756 4.23588 -0.292923 0
M  V30 2527 O 226.78 3.5482 -0.313204 0
M  V30 2528 O 225.639 5.46017 -0.229697 0
M  V30 2529 H 222.733 0.827 0.00079152 0
M  V30 2530 H 225.279 1.52581 -0.742783 0
M  V30 2531 H 224.051 3.65096 -1.40786 0
M  V30 2532 H 223.674 3.96627 0.277923 0
M  V30 2533 N 224.671 0.411399 1.52136 0
M  V30 2534 C 225.919 -0.163322 2.01439 0
M  V30 2535 C 226.24 -1.45453 1.29879 0
M  V30 2536 O 225.51 -1.91225 0.4254 0
M  V30 2537 H 224.09 -0.0633447 0.744309 0
M  V30 2538 H 226.752 0.548161 1.87033 0
M  V30 2539 H 225.848 -0.357817 3.10042 0
M  V30 2540 N 226.149 -1.5696 0.141893 0
M  V30 2541 C 227.059 -2.20066 -0.812905 0
M  V30 2542 C 228.075 -1.18344 -1.27557 0
M  V30 2543 O 229.251 -1.50902 -1.33381 0
M  V30 2544 C 226.316 -2.80583 -2.03652 0
M  V30 2545 C 225.377 -3.97414 -1.62359 0
M  V30 2546 C 224.61 -4.55036 -2.78887 0
M  V30 2547 O 224.833 -4.11538 -3.94959 0
M  V30 2548 O 223.767 -5.45376 -2.54653 0
M  V30 2549 H 227.593 -3.02157 -0.305746 0
M  V30 2550 H 225.178 -1.49159 -0.0848799 0
M  V30 2551 H 227.06 -3.19067 -2.75272 0
M  V30 2552 H 225.735 -2.01508 -2.5333 0
M  V30 2553 H 224.642 -3.63656 -0.877775 0
M  V30 2554 H 225.975 -4.77994 -1.17401 0
M  V30 2555 N 227.627 0.131896 -1.57047 0
M  V30 2556 C 229.043 0.485031 -1.52051 0
M  V30 2557 C 229.243 1.82563 -0.85281 0
M  V30 2558 O 228.299 2.48817 -0.429694 0
M  V30 2559 C 229.612 0.481409 -2.96821 0
M  V30 2560 C 231.16 0.565868 -3.07842 0
M  V30 2561 C 231.635 0.592762 -4.54148 0
M  V30 2562 N 233.126 0.654564 -4.58552 0
M  V30 2563 C 233.861 0.696608 -5.69153 0
M  V30 2564 N 233.357 0.697078 -6.89284 0
M  V30 2565 N 235.15 0.738639 -5.57226 0
M  V30 2566 H 227.301 -0.746664 -1.98843 0
M  V30 2567 H 229.564 -0.273999 -0.90754 0
M  V30 2568 H 229.27 -0.435731 -3.4899 0
M  V30 2569 H 229.144 1.3139 -3.53577 0
M  V30 2570 H 231.531 1.47343 -2.55684 0
M  V30 2571 H 231.612 -0.29406 -2.54104 0
M  V30 2572 H 231.256 -0.310701 -5.06949 0
M  V30 2573 H 231.186 1.46939 -5.05684 0
M  V30 2574 H 233.677 0.660887 -3.72076 0
M  V30 2575 H 233.99 0.731426 -7.69331 0
M  V30 2576 H 232.335 0.66471 -6.91814 0
M  V30 2577 H 235.526 0.735545 -4.62285 0
M  V30 2578 H 235.699 0.767938 -6.43434 0
M  V30 2579 N 229.106 1.52395 0.401703 0
M  V30 2580 C 230.355 1.66044 1.14509 0
M  V30 2581 C 230.668 0.400216 1.91462 0
M  V30 2582 O 231.874 0.416632 2.68284 0
M  V30 2583 C 230.33 2.93388 2.0845 0
M  V30 2584 C 229.938 4.26545 1.36978 0
M  V30 2585 C 231.682 3.16402 2.83001 0
M  V30 2586 C 229.589 5.45007 2.29611 0
M  V30 2587 H 228.519 0.618562 0.431158 0
M  V30 2588 H 231.17 1.78886 0.40892 0
M  V30 2589 H 229.552 2.74263 2.8565 0
M  V30 2590 H 230.726 4.56179 0.650916 0
M  V30 2591 H 229.041 4.09692 0.74438 0
M  V30 2592 H 231.638 4.02085 3.52465 0
M  V30 2593 H 231.981 2.30943 3.46368 0
M  V30 2594 H 232.514 3.36034 2.12898 0
M  V30 2595 H 229.253 6.32835 1.70879 0
M  V30 2596 H 228.773 5.19702 2.9945 0
M  V30 2597 H 230.452 5.7838 2.89974 0
M  V30 2598 N 230.584 -0.659388 1.43143 0
M  V30 2599 C 231.514 -1.78422 1.50625 0
M  V30 2600 C 232.495 -1.66216 0.361443 0
M  V30 2601 O 233.68 -1.85404 0.577834 0
M  V30 2602 C 230.81 -3.16815 1.42287 0
M  V30 2603 C 229.764 -3.43777 2.54954 0
M  V30 2604 C 229.09 -4.81905 2.31671 0
M  V30 2605 C 230.39 -3.39134 3.97222 0
M  V30 2606 H 232.084 -1.72417 2.44771 0
M  V30 2607 H 229.63 -0.828084 1.17808 0
M  V30 2608 H 231.583 -3.95253 1.46127 0
M  V30 2609 H 230.307 -3.23534 0.446435 0
M  V30 2610 H 228.966 -2.67707 2.50457 0
M  V30 2611 H 228.614 -4.85294 1.32284 0
M  V30 2612 H 228.314 -5.00906 3.07192 0
M  V30 2613 H 229.838 -5.62609 2.37284 0
M  V30 2614 H 231.252 -4.07518 4.03239 0
M  V30 2615 H 229.649 -3.69671 4.72719 0
M  V30 2616 H 230.719 -2.37426 4.22797 0
M  V30 2617 N 232.062 -1.29571 -0.897171 0
M  V30 2618 C 233.31 -1.17456 -1.64464 0
M  V30 2619 C 233.631 0.273698 -1.9307 0
M  V30 2620 O 232.901 1.18684 -1.55855 0
M  V30 2621 H 231.481 -0.431706 -0.609622 0
M  V30 2622 H 234.143 -1.62531 -1.07562 0
M  V30 2623 H 233.239 -1.72648 -2.59998 0
M  V30 2624 N 233.54 1.10788 -1.12088 0
M  V30 2625 C 234.47 2.19083 -0.807755 0
M  V30 2626 C 235.451 1.6858 0.226859 0
M  V30 2627 O 236.636 1.93997 0.0888475 0
M  V30 2628 C 233.766 3.46344 -0.257576 0
M  V30 2629 C 232.72 4.101 -1.22483 0
M  V30 2630 C 232.046 5.32016 -0.535052 0
M  V30 2631 C 233.346 4.54236 -2.57811 0
M  V30 2632 H 235.04 2.45534 -1.71328 0
M  V30 2633 H 232.586 1.1801 -0.825205 0
M  V30 2634 H 234.539 4.21392 -0.0262679 0
M  V30 2635 H 233.263 3.19373 0.683278 0
M  V30 2636 H 231.922 3.37054 -1.44189 0
M  V30 2637 H 231.57 5.01319 0.410827 0
M  V30 2638 H 231.27 5.75625 -1.18024 0
M  V30 2639 H 232.794 6.09799 -0.312695 0
M  V30 2640 H 234.208 5.20575 -2.40155 0
M  V30 2641 H 232.605 5.08682 -3.18375 0
M  V30 2642 H 233.675 3.6734 -3.16528 0
M  V30 2643 N 235.018 0.912232 1.28515 0
M  V30 2644 C 236.266 0.543523 1.94654 0
M  V30 2645 C 236.587 -0.9155 1.72173 0
M  V30 2646 O 235.857 -1.64708 1.06058 0
M  V30 2647 H 234.437 0.198017 0.720277 0
M  V30 2648 H 237.099 1.16126 1.56527 0
M  V30 2649 H 236.195 0.736684 3.03281 0
M  V30 2650 N 236.496 -1.42363 0.676048 0
M  V30 2651 C 237.773 -1.95183 0.127726 0
M  V30 2652 C 238.153 -1.61641 -1.35777 0
M  V30 2653 O 237.501 -0.913216 -2.09458 0
M  V30 2654 C 237.711 -3.46721 0.398199 0
M  V30 2655 C 239.059 -4.23427 0.315383 0
M  V30 2656 O 240.083 -3.54649 0.332016 0
M  V30 2657 O 238.942 -5.45888 0.25865 0
M  V30 2658 H 236.036 -0.826992 0.00359427 0
M  V30 2659 H 238.582 -1.52184 0.750864 0
M  V30 2660 H 237.354 -3.64344 1.4272 0
M  V30 2661 H 236.977 -3.96769 -0.256885 0
M  V30 2662 N 237.974 -0.419461 -1.51915 0
M  V30 2663 C 238.904 0.391813 -2.30189 0
M  V30 2664 C 239.885 1.03699 -1.34836 0
M  V30 2665 O 241.07 1.04403 -1.63748 0
M  V30 2666 C 238.2 1.50312 -3.13087 0
M  V30 2667 C 237.154 0.9824 -4.16573 0
M  V30 2668 C 236.48 2.18809 -4.8788 0
M  V30 2669 C 237.78 0.0292356 -5.22292 0
M  V30 2670 H 239.474 -0.26135 -2.98257 0
M  V30 2671 H 237.02 -0.127134 -1.43438 0
M  V30 2672 H 238.973 2.07773 -3.66617 0
M  V30 2673 H 237.697 2.18431 -2.42807 0
M  V30 2674 H 236.356 0.430119 -3.64068 0
M  V30 2675 H 236.004 2.85507 -4.14119 0
M  V30 2676 H 235.704 1.84615 -5.57845 0
M  V30 2677 H 237.228 2.76858 -5.44226 0
M  V30 2678 H 238.642 0.512976 -5.71 0
M  V30 2679 H 237.039 -0.2244 -5.9968 0
M  V30 2680 H 238.109 -0.912931 -4.76228 0
M  V30 2681 N 239.452 1.56882 -0.150215 0
M  V30 2682 C 240.7 1.9584 0.499105 0
M  V30 2683 C 241.021 1.03623 1.65188 0
M  V30 2684 O 240.291 0.0984084 1.95653 0
M  V30 2685 H 238.871 0.723119 0.187373 0
M  V30 2686 H 241.533 1.9358 -0.226466 0
M  V30 2687 H 240.629 2.99638 0.873122 0
M  V30 2688 N 240.93 -0.123565 1.57115 0
M  V30 2689 C 242.17 -0.838097 1.86428 0
M  V30 2690 C 242.534 -1.77266 0.737611 0
M  V30 2691 O 243.735 -2.52842 0.912389 0
M  V30 2692 C 242.006 -1.57219 3.20962 0
M  V30 2693 S 243.565 -2.32893 3.71896 0
M  V30 2694 H 240.383 -0.279811 0.653626 0
M  V30 2695 H 242.985 -0.0967034 1.95261 0
M  V30 2696 H 241.689 -0.877522 4.00909 0
M  V30 2697 H 241.22 -2.35405 3.15195 0
M  V30 2698 H 243.235 -3.5853 3.43032 0
M  V30 2699 N 242.408 -1.52605 -0.393616 0
M  V30 2700 C 243.356 -1.77688 -1.50099 0
M  V30 2701 C 244.35 -0.644615 -1.56656 0
M  V30 2702 O 245.556 -0.826997 -1.59877 0
M  V30 2703 H 241.931 -0.562159 -0.499481 0
M  V30 2704 H 243.902 -2.7043 -1.26135 0
M  V30 2705 C 242.651 -1.95858 -2.87289 0
M  V30 2706 H 241.974 -2.8241 -2.82992 0
M  V30 2707 H 243.414 -2.174 -3.64024 0
M  V30 2708 C 241.873 -0.729848 -3.28899 0
M  V30 2709 O 242.403 0.0949217 -4.01588 0
M  V30 2710 N 240.609 -0.561283 -2.85128 0
M  V30 2711 H 240.156 -1.23357 -2.26143 0
M  V30 2712 H 240.114 0.2595 -3.13327 0
M  V30 2713 N 243.887 0.651787 -1.4349 0
M  V30 2714 C 245.135 1.40888 -1.44897 0
M  V30 2715 C 245.456 1.94856 -0.0749086 0
M  V30 2716 O 244.726 1.74518 0.889956 0
M  V30 2717 H 243.306 0.522887 -0.533478 0
M  V30 2718 H 245.968 0.768609 -1.79104 0
M  V30 2719 H 245.064 2.25052 -2.16236 0
M  V30 2720 N 245.365 1.30045 0.890287 0
M  V30 2721 C 246.298 1.10301 1.99772 0
M  V30 2722 C 247.276 0.0121631 1.62595 0
M  V30 2723 O 248.46 0.16469 1.87779 0
M  V30 2724 C 245.587 0.681125 3.31781 0
M  V30 2725 C 244.633 1.77206 3.87944 0
M  V30 2726 S 245.466 3.37335 4.15891 0
M  V30 2727 C 246.622 2.97036 5.50927 0
M  V30 2728 H 246.855 2.04057 2.16213 0
M  V30 2729 H 244.388 1.14299 1.03804 0
M  V30 2730 H 246.346 0.444439 4.08087 0
M  V30 2731 H 245.007 -0.236981 3.13205 0
M  V30 2732 H 244.2 1.42903 4.83316 0
M  V30 2733 H 243.802 1.96275 3.18358 0
M  V30 2734 H 246.094 2.44666 6.31779 0
M  V30 2735 H 247.037 3.91296 5.90164 0
M  V30 2736 H 247.445 2.35057 5.13233 0
M  V30 2737 N 246.843 -1.10192 1.12674 0
M  V30 2738 C 248.091 -1.81845 0.881861 0
M  V30 2739 C 248.412 -1.85737 -0.593867 0
M  V30 2740 O 247.682 -1.33724 -1.4316 0
M  V30 2741 H 246.262 -0.673432 0.323261 0
M  V30 2742 H 248.924 -1.33316 1.42172 0
M  V30 2743 H 248.02 -2.85288 1.2656 0
M  V30 2744 N 248.321 -0.919034 -1.28029 0
M  V30 2745 C 249.57 -0.550802 -1.94034 0
M  V30 2746 C 249.883 0.910877 -1.73096 0
M  V30 2747 O 251.089 1.3875 -2.33368 0
M  V30 2748 C 249.545 -0.934249 -3.47563 0
M  V30 2749 C 249.153 -2.41602 -3.7727 0
M  V30 2750 C 250.897 -0.636854 -4.19696 0
M  V30 2751 C 248.804 -2.73932 -5.24133 0
M  V30 2752 H 247.734 -0.202273 -0.726362 0
M  V30 2753 H 250.385 -1.11867 -1.45458 0
M  V30 2754 H 248.767 -0.295115 -3.94899 0
M  V30 2755 H 249.941 -3.10233 -3.40723 0
M  V30 2756 H 248.256 -2.68441 -3.18321 0
M  V30 2757 H 250.853 -0.855005 -5.2782 0
M  V30 2758 H 251.196 0.425575 -4.14119 0
M  V30 2759 H 251.729 -1.23469 -3.78154 0
M  V30 2760 H 248.468 -3.79049 -5.34792 0
M  V30 2761 H 247.988 -2.09942 -5.61858 0
M  V30 2762 H 249.667 -2.61215 -5.91925 0
M  V30 2763 N 249.799 1.42003 -0.683588 0
M  V30 2764 C 251.21 1.84501 -0.285736 0
M  V30 2765 C 251.561 1.57213 1.17382 0
M  V30 2766 O 250.686 1.03642 1.89966 0
M  V30 2767 C 251.281 3.34912 -0.511821 0
M  V30 2768 C 249.84 3.76025 -0.168005 0
M  V30 2769 C 248.987 2.6551 -0.799983 0
M  V30 2770 H 251.938 1.31724 -0.885119 0
M  V30 2771 H 251.959 3.79784 0.233292 0
M  V30 2772 H 251.471 3.54741 -1.57418 0
M  V30 2773 H 249.572 3.61801 0.890567 0
M  V30 2774 H 249.685 4.75141 -0.614661 0
M  V30 2775 H 248.049 2.53654 -0.230568 0
M  V30 2776 H 248.832 2.8816 -1.86597 0
M  V30 2777 N 251.277 0.427512 1.51691 0
M  V30 2778 C 252.523 -0.142439 2.02299 0
M  V30 2779 C 252.856 -1.43214 1.31162 0
M  V30 2780 O 252.131 -1.89833 0.423511 0
M  V30 2781 C 252.414 -0.371301 3.58181 0
M  V30 2782 C 252.267 0.936358 4.39946 0
M  V30 2783 C 253.586 -1.14542 4.24933 0
M  V30 2784 H 250.705 -0.0502937 0.735282 0
M  V30 2785 H 253.347 0.564584 1.81418 0
M  V30 2786 H 251.497 -0.973559 3.76104 0
M  V30 2787 H 253.169 1.57184 4.33694 0
M  V30 2788 H 251.412 1.5432 4.05423 0
M  V30 2789 H 252.083 0.730388 5.47147 0
M  V30 2790 H 254.559 -0.635362 4.11221 0
M  V30 2791 H 253.435 -1.27431 5.33903 0
M  V30 2792 H 253.696 -2.17093 3.85127 0
M  V30 2793 N 252.755 -1.56801 0.158532 0
M  V30 2794 C 254.003 -1.96102 -0.488712 0
M  V30 2795 C 254.324 -1.04498 -1.64636 0
M  V30 2796 O 253.594 -0.108783 -1.95598 0
M  V30 2797 H 252.174 -0.724102 -0.183535 0
M  V30 2798 H 254.836 -1.93457 0.236728 0
M  V30 2799 H 253.932 -3.00097 -0.857219 0
M  V30 2800 N 254.233 0.115231 -1.57178 0
M  V30 2801 C 255.18 1.14115 -2.00615 0
M  V30 2802 C 256.15 1.40939 -0.878941 0
M  V30 2803 O 257.335 1.52741 -1.14345 0
M  V30 2804 C 254.475 2.46156 -2.4187 0
M  V30 2805 C 253.588 2.26236 -3.68024 0
M  V30 2806 C 252.723 3.51534 -3.98243 0
M  V30 2807 C 251.762 3.26787 -5.17568 0
M  V30 2808 N 250.899 4.44298 -5.43639 0
M  V30 2809 H 255.739 0.763743 -2.88047 0
M  V30 2810 H 253.276 0.365615 -1.42484 0
M  V30 2811 H 255.234 3.23189 -2.63827 0
M  V30 2812 H 253.864 2.81783 -1.57475 0
M  V30 2813 H 252.916 1.40102 -3.5366 0
M  V30 2814 H 254.228 2.03929 -4.55208 0
M  V30 2815 H 253.382 4.36984 -4.20868 0
M  V30 2816 H 252.121 3.76876 -3.09541 0
M  V30 2817 H 251.126 2.39729 -4.94783 0
M  V30 2818 H 252.351 3.02812 -6.0785 0
M  V30 2819 H 250.297 4.69754 -4.57895 0
M  V30 2820 H 250.214 4.25109 -6.25154 0
M  V30 2821 H 251.482 5.3087 -5.70786 0
M  V30 2822 N 255.711 1.52812 0.385517 0
M  V30 2823 C 256.641 1.80808 1.47752 0
M  V30 2824 C 257.622 0.660318 1.5676 0
M  V30 2825 O 258.807 0.908246 1.71652 0
M  V30 2826 C 255.937 1.98008 2.85324 0
M  V30 2827 C 254.891 3.13709 2.91154 0
M  V30 2828 C 254.217 3.16169 4.31209 0
M  V30 2829 C 255.517 4.52709 2.60483 0
M  V30 2830 H 257.211 2.72253 1.24573 0
M  V30 2831 H 254.757 1.31003 0.597839 0
M  V30 2832 H 256.71 2.16176 3.61726 0
M  V30 2833 H 255.434 1.03255 3.09848 0
M  V30 2834 H 254.093 2.95329 2.17201 0
M  V30 2835 H 253.741 2.19092 4.52778 0
M  V30 2836 H 253.441 3.93894 4.36029 0
M  V30 2837 H 254.965 3.36496 5.09512 0
M  V30 2838 H 256.379 4.71173 3.26602 0
M  V30 2839 H 254.776 5.32528 2.76648 0
M  V30 2840 H 255.846 4.59186 1.55809 0
M  V30 2841 N 257.189 -0.644168 1.43834 0
M  V30 2842 C 258.152 -1.73857 1.49353 0
M  V30 2843 C 259.152 -1.56315 0.377112 0
M  V30 2844 O 260.342 -1.62048 0.639226 0
M  V30 2845 C 257.474 -3.12819 1.35488 0
M  V30 2846 H 258.667 -1.70342 2.46827 0
M  V30 2847 H 256.22 -0.856652 1.30733 0
M  V30 2848 H 256.955 -3.2194 0.390569 0
M  V30 2849 H 256.74 -3.26958 2.16428 0
M  V30 2850 H 258.23 -3.92606 1.42302 0
M  V30 2851 N 258.668 -1.30515 -0.883378 0
M  V30 2852 C 259.598 -1.19607 -2.00541 0
M  V30 2853 C 260.579 -0.086346 -1.69881 0
M  V30 2854 O 261.764 -0.268654 -1.92333 0
M  V30 2855 C 258.894 -0.888758 -3.35736 0
M  V30 2856 C 257.848 -1.95659 -3.8066 0
M  V30 2857 C 257.174 -1.50224 -5.13164 0
M  V30 2858 C 258.474 -3.36788 -3.99213 0
M  V30 2859 H 260.168 -2.13476 -2.09925 0
M  V30 2860 H 257.714 -1.02775 -1.00863 0
M  V30 2861 H 259.667 -0.799094 -4.13754 0
M  V30 2862 H 258.391 0.0856125 -3.26488 0
M  V30 2863 H 257.05 -2.03591 -3.04871 0
M  V30 2864 H 256.698 -0.516092 -5.00345 0
M  V30 2865 H 256.398 -2.2165 -5.44192 0
M  V30 2866 H 257.922 -1.42639 -5.93706 0
M  V30 2867 H 259.336 -3.31605 -4.67665 0
M  V30 2868 H 257.733 -4.06314 -4.41621 0
M  V30 2869 H 258.803 -3.78561 -3.03017 0
M  V30 2870 N 260.146 1.09593 -1.13257 0
M  V30 2871 C 261.376 1.85231 -0.915049 0
M  V30 2872 C 261.784 1.81345 0.539498 0
M  V30 2873 O 261.127 1.20664 1.38513 0
M  V30 2874 C 261.189 3.34275 -1.3229 0
M  V30 2875 C 260.853 3.6191 -2.79052 0
M  V30 2876 C 261.85 3.57777 -3.77216 0
M  V30 2877 C 259.535 3.90309 -3.16171 0
M  V30 2878 C 261.529 3.81652 -5.1051 0
M  V30 2879 C 259.216 4.13839 -4.49644 0
M  V30 2880 C 260.214 4.09502 -5.46623 0
M  V30 2881 O 259.902 4.32426 -6.77689 0
M  V30 2882 H 259.634 0.591997 -0.326367 0
M  V30 2883 H 262.188 1.394 -1.50854 0
M  V30 2884 H 260.418 3.80805 -0.672667 0
M  V30 2885 H 262.107 3.9132 -1.07812 0
M  V30 2886 H 262.873 3.35865 -3.49885 0
M  V30 2887 H 258.752 3.92811 -2.41289 0
M  V30 2888 H 262.296 3.78182 -5.86195 0
M  V30 2889 H 258.193 4.35232 -4.767 0
M  V30 2890 H 258.961 4.49896 -6.83766 0
M  V30 2891 N 261.624 0.925811 1.2754 0
M  V30 2892 C 262.852 0.581509 1.9856 0
M  V30 2893 C 263.267 -0.840041 1.69082 0
M  V30 2894 O 262.624 -1.55805 0.950312 0
M  V30 2895 C 262.675 0.795589 3.52637 0
M  V30 2896 O 262.396 2.16121 3.81082 0
M  V30 2897 C 263.897 0.459744 4.4091 0
M  V30 2898 H 261.117 0.220538 0.633722 0
M  V30 2899 H 263.661 1.24232 1.6244 0
M  V30 2900 H 261.816 0.18161 3.86974 0
M  V30 2901 H 262.23 2.2098 4.75676 0
M  V30 2902 H 263.704 0.660244 5.48037 0
M  V30 2903 H 264.181 -0.604625 4.35018 0
M  V30 2904 H 264.787 1.05178 4.12089 0
M  V30 2905 N 263.102 -1.41638 0.69111 0
M  V30 2906 C 264.065 -2.29178 0.0319786 0
M  V30 2907 C 265.065 -1.44153 -0.712496 0
M  V30 2908 O 266.255 -1.65354 -0.548053 0
M  V30 2909 C 263.387 -3.26952 -0.965161 0
M  V30 2910 H 264.58 -2.88959 0.802681 0
M  V30 2911 H 262.133 -1.4955 0.454356 0
M  V30 2912 H 262.868 -2.72142 -1.76378 0
M  V30 2913 H 262.653 -3.89685 -0.434522 0
M  V30 2914 H 264.143 -3.92561 -1.42428 0
M  V30 2915 N 264.58 -0.43555 -1.51462 0
M  V30 2916 C 265.82 0.130708 -2.03982 0
M  V30 2917 C 266.184 1.40117 -1.31268 0
M  V30 2918 O 267.385 2.04755 -1.74152 0
M  V30 2919 C 265.656 0.346102 -3.5572 0
M  V30 2920 S 267.215 0.876022 -4.29967 0
M  V30 2921 H 264.033 0.0326881 -0.710248 0
M  V30 2922 H 266.635 -0.594544 -1.8624 0
M  V30 2923 H 265.339 -0.584911 -4.0621 0
M  V30 2924 H 264.87 1.09849 -3.77752 0
M  V30 2925 H 266.885 2.15379 -4.47019 0
M  V30 2926 N 266.058 1.56714 -0.166846 0
M  V30 2927 C 267.306 1.96358 0.478305 0
M  V30 2928 C 267.627 1.0537 1.6408 0
M  V30 2929 O 266.897 0.119154 1.95537 0
M  V30 2930 H 265.477 0.725065 0.179692 0
M  V30 2931 H 268.139 1.93329 -0.246985 0
M  V30 2932 H 267.235 3.00547 0.841292 0
M  V30 2933 N 267.536 -0.106894 1.57237 0
M  V30 2934 C 268.784 -0.810921 1.85117 0
M  V30 2935 C 269.105 -1.7984 0.753827 0
M  V30 2936 O 268.375 -1.94649 -0.221056 0
M  V30 2937 H 266.955 -0.302466 0.683025 0
M  V30 2938 H 269.617 -0.0913324 1.94686 0
M  V30 2939 H 268.713 -1.34875 2.81452 0
M  V30 2940 N 269.014 -1.53014 -0.377408 0
M  V30 2941 C 269.947 -1.73382 -1.48371 0
M  V30 2942 C 270.925 -0.581879 -1.51832 0
M  V30 2943 O 272.109 -0.81307 -1.70063 0
M  V30 2944 C 269.236 -1.80192 -2.8679 0
M  V30 2945 C 268.282 -3.02056 -3.01105 0
M  V30 2946 S 269.115 -4.61811 -2.71093 0
M  V30 2947 C 270.271 -4.71453 -4.11683 0
M  V30 2948 H 270.504 -2.66946 -1.30872 0
M  V30 2949 H 268.037 -1.43453 -0.571012 0
M  V30 2950 H 269.995 -1.84802 -3.6655 0
M  V30 2951 H 268.656 -0.877008 -3.01608 0
M  V30 2952 H 267.849 -3.03396 -4.02451 0
M  V30 2953 H 267.451 -2.95498 -2.29253 0
M  V30 2954 H 269.743 -4.50781 -5.0577 0
M  V30 2955 H 270.686 -5.73487 -4.15353 0
M  V30 2956 H 271.094 -4.00189 -3.98132 0
M  V30 2957 N 270.492 0.636531 -1.44174 0
M  V30 2958 C 271.44 1.76995 -1.50915 0
M  V30 2959 C 272.434 1.65053 -0.381295 0
M  V30 2960 O 273.64 1.71197 -0.55601 0
M  V30 2961 H 270.015 0.584247 -0.473455 0
M  V30 2962 H 271.986 1.68432 -2.4632 0
M  V30 2963 C 270.735 3.15314 -1.46534 0
M  V30 2964 H 270.058 3.25149 -2.32633 0
M  V30 2965 H 271.498 3.9453 -1.55312 0
M  V30 2966 C 269.957 3.3639 -0.185305 0
M  V30 2967 O 270.487 3.94699 0.746688 0
M  V30 2968 N 268.693 2.9046 -0.0901606 0
M  V30 2969 H 268.24 2.43193 -0.849416 0
M  V30 2970 H 268.198 3.04937 0.765553 0
M  V30 2971 N 271.97 1.30982 0.876444 0
M  V30 2972 C 273.381 1.18277 1.44456 0
M  V30 2973 C 273.732 -0.213265 1.95037 0
M  V30 2974 O 272.857 -1.11057 1.85729 0
M  V30 2975 C 273.452 2.1411 2.62569 0
M  V30 2976 C 272.011 2.05358 3.15444 0
M  V30 2977 C 271.158 2.03706 1.88146 0
M  V30 2978 H 274.109 1.43127 0.685584 0
M  V30 2979 H 274.13 1.72692 3.39054 0
M  V30 2980 H 273.642 3.15706 2.25724 0
M  V30 2981 H 271.743 1.06934 3.56926 0
M  V30 2982 H 271.856 2.94156 3.78166 0
M  V30 2983 H 270.22 1.48629 2.06837 0
M  V30 2984 H 271.003 3.07047 1.53547 0
M  V30 2985 N 273.449 -1.08991 1.13837 0
M  V30 2986 C 274.381 -2.15606 0.777612 0
M  V30 2987 C 275.394 -1.61533 -0.202739 0
M  V30 2988 O 276.583 -1.78491 0.0181055 0
M  V30 2989 C 273.683 -3.3864 0.132623 0
M  V30 2990 C 272.856 -4.22115 1.1462 0
M  V30 2991 C 271.915 -5.23564 0.526074 0
M  V30 2992 O 270.941 -5.56678 1.18735 0
M  V30 2993 N 272.143 -5.76266 -0.699866 0
M  V30 2994 H 274.908 -2.47159 1.69506 0
M  V30 2995 H 272.469 -1.24747 1.03198 0
M  V30 2996 H 274.461 -4.03626 -0.29459 0
M  V30 2997 H 273.031 -3.04938 -0.687849 0
M  V30 2998 H 272.251 -3.53199 1.75055 0
M  V30 2999 H 273.539 -4.74709 1.83109 0
M  V30 3000 H 272.937 -5.51585 -1.25581 0
M  V30 3001 H 271.494 -6.42963 -1.06968 0
M  V30 3002 N 274.927 -0.932562 -1.27047 0
M  V30 3003 C 275.837 -0.441219 -2.30414 0
M  V30 3004 C 276.853 0.480525 -1.67233 0
M  V30 3005 O 278.029 0.362151 -1.98117 0
M  V30 3006 C 275.094 0.293651 -3.45454 0
M  V30 3007 C 274.155 -0.663601 -4.2414 0
M  V30 3008 C 273.388 0.0362932 -5.33688 0
M  V30 3009 O 273.611 1.2548 -5.56427 0
M  V30 3010 O 272.545 -0.638015 -5.98509 0
M  V30 3011 H 276.371 -1.29962 -2.74488 0
M  V30 3012 H 273.956 -0.6981 -1.32087 0
M  V30 3013 H 275.838 0.707951 -4.15411 0
M  V30 3014 H 274.513 1.12758 -3.03426 0
M  V30 3015 H 273.42 -1.12768 -3.56699 0
M  V30 3016 H 274.753 -1.46489 -4.69896 0
M  V30 3017 N 276.405 1.4127 -0.698611 0
M  V30 3018 C 277.645 2.03044 -0.235062 0
M  V30 3019 C 278.009 1.54146 1.14468 0
M  V30 3020 O 279.21 2.07867 1.70425 0
M  V30 3021 C 277.481 3.56192 -0.293651 0
M  V30 3022 S 279.04 4.38696 0.0954053 0
M  V30 3023 H 275.858 0.704697 -0.0944648 0
M  V30 3024 H 278.46 1.72656 -0.917064 0
M  V30 3025 H 277.164 3.89274 -1.29977 0
M  V30 3026 H 276.695 3.91285 0.407397 0
M  V30 3027 H 278.71 4.78257 1.3223 0
M  V30 3028 N 277.883 0.443576 1.51229 0
M  V30 3029 C 278.813 -0.355142 2.30783 0
M  V30 3030 C 279.794 -1.0154 1.36468 0
M  V30 3031 O 280.979 -1.01785 1.65389 0
M  V30 3032 C 278.109 -1.45312 3.15439 0
M  V30 3033 C 277.063 -0.916002 4.18083 0
M  V30 3034 C 276.389 -2.1102 4.91299 0
M  V30 3035 C 277.689 0.0538602 5.22272 0
M  V30 3036 H 279.383 0.308767 2.97804 0
M  V30 3037 H 276.929 0.149937 1.43217 0
M  V30 3038 H 278.882 -2.01914 3.69876 0
M  V30 3039 H 277.606 -2.14541 2.46252 0
M  V30 3040 H 276.265 -0.372145 3.64706 0
M  V30 3041 H 275.913 -2.78882 4.18609 0
M  V30 3042 H 275.613 -1.75717 5.60712 0
M  V30 3043 H 277.137 -2.68164 5.48562 0
M  V30 3044 H 278.551 -0.422069 5.71744 0
M  V30 3045 H 276.948 0.319776 5.99247 0
M  V30 3046 H 278.018 0.98858 4.74716 0
M  V30 3047 N 279.361 -1.56624 0.175154 0
M  V30 3048 C 280.772 -1.83561 -0.340916 0
M  V30 3049 C 281.123 -1.09511 -1.62794 0
M  V30 3050 O 280.248 -0.349389 -2.13561 0
M  V30 3051 C 280.843 -3.32979 -0.625313 0
M  V30 3052 C 279.402 -3.60399 -1.08581 0
M  V30 3053 C 278.549 -2.77024 -0.123722 0
M  V30 3054 H 281.5 -1.53593 0.399344 0
M  V30 3055 H 281.521 -3.50666 -1.47694 0
M  V30 3056 H 281.033 -3.86847 0.311575 0
M  V30 3057 H 279.134 -3.11945 -2.03767 0
M  V30 3058 H 279.247 -4.68711 -0.992317 0
M  V30 3059 H 277.611 -2.46993 -0.621821 0
M  V30 3060 H 278.394 -3.33674 0.807256 0
M  V30 3061 N 280.839 0.0985539 -1.57292 0
M  V30 3062 C 282.085 0.803867 -1.86188 0
M  V30 3063 C 282.418 1.78549 -0.763794 0
M  V30 3064 O 281.693 1.93153 0.22855 0
M  V30 3065 C 281.976 1.53568 -3.25713 0
M  V30 3066 C 281.829 0.572277 -4.46145 0
M  V30 3067 C 283.148 2.48708 -3.63087 0
M  V30 3068 H 280.267 0.290781 -0.677211 0
M  V30 3069 H 282.909 0.0675783 -1.8988 0
M  V30 3070 H 281.059 2.16332 -3.22696 0
M  V30 3071 H 282.731 -0.0480894 -4.61275 0
M  V30 3072 H 280.974 -0.114618 -4.33649 0
M  V30 3073 H 281.645 1.12139 -5.40489 0
M  V30 3074 H 284.121 1.96039 -3.67026 0
M  V30 3075 H 282.997 2.96932 -4.61652 0
M  V30 3076 H 283.258 3.32309 -2.91588 0
M  V30 3077 N 282.317 1.53212 0.369288 0
M  V30 3078 C 283.566 1.68436 1.10961 0
M  V30 3079 C 283.879 0.440738 1.9057 0
M  V30 3080 O 285.085 0.473446 2.6734 0
M  V30 3081 C 283.541 2.97744 2.0218 0
M  V30 3082 C 283.149 4.29355 1.279 0
M  V30 3083 C 284.893 3.22334 2.76226 0
M  V30 3084 C 282.8 5.49755 2.17999 0
M  V30 3085 H 281.73 0.627568 0.41794 0
M  V30 3086 H 284.381 1.79713 0.370884 0
M  V30 3087 H 282.763 2.8026 2.79768 0
M  V30 3088 H 283.937 4.57458 0.554007 0
M  V30 3089 H 282.252 4.11179 0.657311 0
M  V30 3090 H 284.849 4.09471 3.43857 0
M  V30 3091 H 285.192 2.38238 3.41392 0
M  V30 3092 H 285.725 3.40475 2.05723 0
M  V30 3093 H 282.464 6.36318 1.57417 0
M  V30 3094 H 281.984 5.25937 2.88359 0
M  V30 3095 H 283.663 5.84401 2.77641 0
M  V30 3096 N 283.795 -0.628877 1.44509 0
M  V30 3097 C 284.725 -1.75187 1.54376 0
M  V30 3098 C 285.706 -1.65411 0.396618 0
M  V30 3099 O 286.891 -1.84137 0.617031 0
M  V30 3100 C 284.021 -3.13725 1.48976 0
M  V30 3101 C 282.975 -3.38291 2.62189 0
M  V30 3102 C 282.301 -4.76883 2.41841 0
M  V30 3103 C 283.601 -3.30632 4.04326 0
M  V30 3104 H 285.295 -1.67187 2.48373 0
M  V30 3105 H 282.841 -0.802909 1.19538 0
M  V30 3106 H 284.794 -3.92064 1.54478 0
M  V30 3107 H 283.518 -3.22515 0.514961 0
M  V30 3108 H 282.177 -2.62334 2.56079 0
M  V30 3109 H 281.825 -4.82378 1.42548 0
M  V30 3110 H 281.525 -4.94278 3.17747 0
M  V30 3111 H 283.049 -5.57449 2.49165 0
M  V30 3112 H 284.463 -3.98873 4.11793 0
M  V30 3113 H 282.86 -3.59561 4.80454 0
M  V30 3114 H 283.93 -2.28404 4.27738 0
M  V30 3115 N 285.273 -1.31445 -0.869486 0
M  V30 3116 C 286.55 -1.11795 -1.60503 0
M  V30 3117 C 286.93 0.327168 -2.08549 0
M  V30 3118 O 286.278 1.32135 -1.8642 0
M  V30 3119 C 286.488 -2.13258 -2.76265 0
M  V30 3120 C 287.836 -2.45805 -3.46215 0
M  V30 3121 O 288.86 -2.11688 -2.86473 0
M  V30 3122 O 287.719 -3.04228 -4.5399 0
M  V30 3123 H 284.813 -0.430421 -0.706163 0
M  V30 3124 H 287.359 -1.42925 -0.914907 0
M  V30 3125 H 286.131 -3.10461 -2.3818 0
M  V30 3126 H 285.754 -1.83035 -3.52964 0
M  V30 3127 N 286.751 1.08385 -1.14413 0
M  V30 3128 C 287.997 1.81044 -0.913834 0
M  V30 3129 C 288.33 1.86004 0.558209 0
M  V30 3130 O 287.605 1.33606 1.4135 0
M  V30 3131 C 287.888 3.26648 -1.51569 0
M  V30 3132 C 287.741 3.29895 -3.0576 0
M  V30 3133 C 289.06 4.23629 -1.19273 0
M  V30 3134 H 286.179 0.65727 -0.333414 0
M  V30 3135 H 288.821 1.26896 -1.41412 0
M  V30 3136 H 286.971 3.72889 -1.09023 0
M  V30 3137 H 288.643 2.91977 -3.57137 0
M  V30 3138 H 286.886 2.69163 -3.40197 0
M  V30 3139 H 287.557 4.32516 -3.42977 0
M  V30 3140 H 290.033 3.85727 -1.56057 0
M  V30 3141 H 288.909 5.23822 -1.64017 0
M  V30 3142 H 289.17 4.41968 -0.108068 0
M  V30 3143 N 288.23 0.939286 1.26551 0
M  V30 3144 C 289.478 0.58469 1.93457 0
M  V30 3145 C 289.799 -0.878774 1.74076 0
M  V30 3146 O 289.069 -1.62421 1.09528 0
M  V30 3147 H 287.649 0.21325 0.715914 0
M  V30 3148 H 290.311 1.1942 1.54029 0
M  V30 3149 H 289.407 0.800849 3.0165 0
M  V30 3150 N 289.708 -1.40897 0.706093 0
M  V30 3151 C 290.936 -2.05373 0.250887 0
M  V30 3152 C 291.351 -1.53172 -1.10381 0
M  V30 3153 O 290.708 -0.684305 -1.69185 0
M  V30 3154 C 290.759 -3.6088 0.211571 0
M  V30 3155 O 290.48 -4.11153 1.51276 0
M  V30 3156 C 291.981 -4.42517 -0.263346 0
M  V30 3157 H 289.201 -0.66115 0.114552 0
M  V30 3158 H 291.745 -1.80479 0.961635 0
M  V30 3159 H 289.9 -3.84777 -0.450073 0
M  V30 3160 H 290.314 -5.05279 1.40689 0
M  V30 3161 H 291.788 -5.51479 -0.239718 0
M  V30 3162 H 292.265 -4.19396 -1.30397 0
M  V30 3163 H 292.871 -4.23708 0.367677 0
M  V30 3164 N 291.186 -0.45159 -1.50991 0
M  V30 3165 C 292.096 0.358431 -2.31846 0
M  V30 3166 C 293.112 1.01438 -1.41373 0
M  V30 3167 O 294.288 1.00663 -1.74439 0
M  V30 3168 C 291.353 1.43704 -3.15515 0
M  V30 3169 C 290.414 0.799742 -4.21785 0
M  V30 3170 C 289.647 1.82696 -5.01456 0
M  V30 3171 O 289.87 3.05105 -4.81941 0
M  V30 3172 O 288.804 1.40958 -5.85162 0
M  V30 3173 H 292.63 -0.302032 -3.02194 0
M  V30 3174 H 290.215 -0.213825 -1.47862 0
M  V30 3175 H 292.097 2.06227 -3.67489 0
M  V30 3176 H 290.772 2.08133 -2.47916 0
M  V30 3177 H 289.679 0.136084 -3.73852 0
M  V30 3178 H 291.012 0.198718 -4.91799 0
M  V30 3179 N 292.664 1.56529 -0.183458 0
M  V30 3180 C 293.612 2.19873 0.758845 0
M  V30 3181 C 294.606 1.16638 1.22849 0
M  V30 3182 O 295.812 1.3481 1.19274 0
M  V30 3183 H 292.187 0.7045 0.263029 0
M  V30 3184 H 294.158 2.97724 0.200755 0
M  V30 3185 C 292.907 2.86314 1.9728 0
M  V30 3186 H 292.23 3.65487 1.62047 0
M  V30 3187 H 293.67 3.3409 2.61075 0
M  V30 3188 C 292.129 1.86729 2.80418 0
M  V30 3189 O 292.659 1.36031 3.77966 0
M  V30 3190 N 290.865 1.55216 2.45675 0
M  V30 3191 H 290.412 1.96636 1.66409 0
M  V30 3192 H 290.37 0.888388 3.01588 0
M  V30 3193 N 294.142 -0.090211 1.57342 0
M  V30 3194 C 295.052 -1.12735 2.05738 0
M  V30 3195 C 296.068 -1.43557 0.983231 0
M  V30 3196 O 297.244 -1.54101 1.29672 0
M  V30 3197 C 294.309 -2.42659 2.47624 0
M  V30 3198 C 293.37 -2.18975 3.69254 0
M  V30 3199 C 292.603 -3.42704 4.09133 0
M  V30 3200 O 292.826 -4.51127 3.49057 0
M  V30 3201 O 291.76 -3.32003 5.02053 0
M  V30 3202 H 295.586 -0.746279 2.94388 0
M  V30 3203 H 293.171 -0.303064 1.46294 0
M  V30 3204 H 295.053 -3.19155 2.7517 0
M  V30 3205 H 293.728 -2.80182 1.62109 0
M  V30 3206 H 292.635 -1.40244 3.46818 0
M  V30 3207 H 293.968 -1.86342 4.55563 0
M  V30 3208 N 295.62 -1.53406 -0.361157 0
M  V30 3209 C 296.53 -1.83122 -1.4664 0
M  V30 3210 C 297.546 -0.719943 -1.58407 0
M  V30 3211 O 298.722 -1.01046 -1.74218 0
M  V30 3212 C 295.787 -2.01891 -2.81853 0
M  V30 3213 C 294.848 -3.25784 -2.79577 0
M  V30 3214 C 294.081 -3.43648 -4.0834 0
M  V30 3215 O 294.304 -2.65714 -5.0473 0
M  V30 3216 O 293.238 -4.37018 -4.13883 0
M  V30 3217 H 297.064 -2.7703 -1.24451 0
M  V30 3218 H 294.649 -1.38841 -0.551678 0
M  V30 3219 H 296.531 -2.15782 -3.61962 0
M  V30 3220 H 295.206 -1.11173 -3.0401 0
M  V30 3221 H 294.113 -3.17312 -1.98151 0
M  V30 3222 H 295.446 -4.16439 -2.62373 0
M  V30 3223 N 297.098 0.621204 -1.44841 0
M  V30 3224 C 298.028 1.74366 -1.55303 0
M  V30 3225 C 299.009 1.65199 -0.405385 0
M  V30 3226 O 300.194 1.83807 -0.626787 0
M  V30 3227 C 297.324 3.12931 -1.50637 0
M  V30 3228 C 296.278 3.36896 -2.63979 0
M  V30 3229 C 295.604 4.75594 -2.44366 0
M  V30 3230 C 296.904 3.28483 -4.06074 0
M  V30 3231 H 298.598 1.65867 -2.49256 0
M  V30 3232 H 296.144 0.796558 -1.19962 0
M  V30 3233 H 298.097 3.9124 -1.56555 0
M  V30 3234 H 296.821 3.22237 -0.532057 0
M  V30 3235 H 295.48 2.60972 -2.57467 0
M  V30 3236 H 295.128 4.81616 -1.45105 0
M  V30 3237 H 294.828 4.92586 -3.20364 0
M  V30 3238 H 296.352 5.5612 -2.52117 0
M  V30 3239 H 297.766 3.96684 -4.13902 0
M  V30 3240 H 296.163 3.57008 -4.82354 0
M  V30 3241 H 297.233 2.26133 -4.28943 0
M  V30 3242 N 298.576 1.31904 0.862503 0
M  V30 3243 C 299.506 1.22782 1.98612 0
M  V30 3244 C 300.487 0.113362 1.69722 0
M  V30 3245 O 301.672 0.299218 1.91881 0
M  V30 3246 C 298.802 0.942058 3.34279 0
M  V30 3247 C 297.756 2.0169 3.77499 0
M  V30 3248 C 297.082 1.58369 5.10709 0
M  V30 3249 C 298.382 3.43096 3.93805 0
M  V30 3250 H 300.076 2.16788 2.06502 0
M  V30 3251 H 297.622 1.04366 0.992154 0
M  V30 3252 H 299.575 0.864818 4.1243 0
M  V30 3253 H 298.299 -0.0336603 3.26583 0
M  V30 3254 H 296.958 2.08416 3.01593 0
M  V30 3255 H 296.606 0.595628 4.99461 0
M  V30 3256 H 296.306 2.30279 5.40597 0
M  V30 3257 H 297.83 1.52067 5.91361 0
M  V30 3258 H 299.244 3.39003 4.62331 0
M  V30 3259 H 297.641 4.13288 4.35101 0
M  V30 3260 H 298.711 3.83334 2.96957 0
M  V30 3261 N 300.054 -1.07777 1.14986 0
M  V30 3262 C 301.001 -2.14867 0.842672 0
M  V30 3263 C 301.971 -1.6486 -0.202552 0
M  V30 3264 O 303.156 -1.90668 -0.0710568 0
M  V30 3265 C 300.296 -3.43486 0.333363 0
M  V30 3266 C 299.409 -4.07306 1.43965 0
M  V30 3267 C 298.544 -5.23744 0.886914 0
M  V30 3268 C 297.583 -5.79517 1.97043 0
M  V30 3269 N 296.72 -6.87291 1.4344 0
M  V30 3270 H 301.56 -2.40485 1.75986 0
M  V30 3271 H 299.097 -1.1801 0.878179 0
M  V30 3272 H 301.055 -4.17195 0.0198163 0
M  V30 3273 H 299.685 -3.18133 -0.546916 0
M  V30 3274 H 298.737 -3.31293 1.86946 0
M  V30 3275 H 300.049 -4.44771 2.25788 0
M  V30 3276 H 299.203 -6.04419 0.525651 0
M  V30 3277 H 297.942 -4.87685 0.0377957 0
M  V30 3278 H 296.947 -4.97491 2.34057 0
M  V30 3279 H 298.172 -6.17632 2.82325 0
M  V30 3280 H 296.118 -6.5318 0.607567 0
M  V30 3281 H 296.035 -7.23617 2.18895 0
M  V30 3282 H 297.303 -7.71682 1.10124 0
M  V30 3283 N 301.532 -0.945985 -1.26051 0
M  V30 3284 C 302.809 -0.513816 -1.88731 0
M  V30 3285 C 303.189 1.00872 -1.8544 0
M  V30 3286 O 302.537 1.8708 -1.312 0
M  V30 3287 C 302.747 -1.08062 -3.31849 0
M  V30 3288 C 304.095 -1.1522 -4.08668 0
M  V30 3289 O 305.119 -1.03155 -3.40936 0
M  V30 3290 O 303.978 -1.34044 -5.29806 0
M  V30 3291 H 301.072 -0.168193 -0.809716 0
M  V30 3292 H 303.618 -1.03886 -1.34186 0
M  V30 3293 H 302.39 -2.1241 -3.2863 0
M  V30 3294 H 302.013 -0.538307 -3.93939 0
M  V30 3295 N 303.011 1.40521 -0.713556 0
M  V30 3296 C 304.422 1.83853 -0.324807 0
M  V30 3297 C 304.773 1.59667 1.14021 0
M  V30 3298 O 303.898 1.07649 1.87725 0
M  V30 3299 C 304.493 3.33751 -0.582746 0
M  V30 3300 C 303.052 3.75584 -0.247727 0
M  V30 3301 C 302.199 2.63753 -0.856121 0
M  V30 3302 H 305.15 1.29817 -0.91286 0
M  V30 3303 H 305.171 3.80194 0.152682 0
M  V30 3304 H 304.683 3.51322 -1.64908 0
M  V30 3305 H 302.784 3.63608 0.813624 0
M  V30 3306 H 302.897 4.7373 -0.715307 0
M  V30 3307 H 301.261 2.53108 -0.28432 0
M  V30 3308 H 302.044 2.84137 -1.92668 0
M  V30 3309 N 304.489 0.459591 1.5075 0
M  V30 3310 C 305.419 -0.330644 2.31147 0
M  V30 3311 C 306.4 -1.00087 1.37538 0
M  V30 3312 O 307.585 -1.00025 1.66459 0
M  V30 3313 C 304.715 -1.41958 3.16962 0
M  V30 3314 C 303.669 -0.871608 4.19031 0
M  V30 3315 C 302.995 -2.05797 4.9351 0
M  V30 3316 C 304.295 0.109251 5.22186 0
M  V30 3317 H 305.989 0.340336 2.97459 0
M  V30 3318 H 303.535 0.165119 1.4305 0
M  V30 3319 H 305.488 -1.9798 3.71997 0
M  V30 3320 H 304.212 -2.11917 2.48513 0
M  V30 3321 H 302.871 -0.333442 3.6508 0
M  V30 3322 H 302.519 -2.74427 4.21544 0
M  V30 3323 H 302.219 -1.6976 5.62544 0
M  V30 3324 H 303.743 -2.62331 5.51375 0
M  V30 3325 H 305.157 -0.361405 5.7216 0
M  V30 3326 H 303.554 0.383316 5.98875 0
M  V30 3327 H 304.624 1.03887 4.73641 0
M  V30 3328 N 305.967 -1.56429 0.191757 0
M  V30 3329 C 307.197 -2.01574 -0.452928 0
M  V30 3330 C 307.605 -1.07107 -1.55964 0
M  V30 3331 O 306.948 -0.067534 -1.83576 0
M  V30 3332 C 307.01 -3.43121 -1.07278 0
M  V30 3333 C 306.674 -4.56879 -0.105214 0
M  V30 3334 C 307.671 -5.15379 0.684149 0
M  V30 3335 C 305.356 -5.023 0.00489824 0
M  V30 3336 C 307.35 -6.17746 1.57062 0
M  V30 3337 C 305.037 -6.04511 0.894935 0
M  V30 3338 C 306.035 -6.62108 1.67637 0
M  V30 3339 O 305.723 -7.62335 2.55149 0
M  V30 3340 H 305.455 -0.665554 -0.118379 0
M  V30 3341 H 308.009 -2.03245 0.296737 0
M  V30 3342 H 306.239 -3.38425 -1.87097 0
M  V30 3343 H 307.928 -3.72093 -1.62177 0
M  V30 3344 H 308.694 -4.81157 0.609365 0
M  V30 3345 H 304.573 -4.57168 -0.593156 0
M  V30 3346 H 308.117 -6.6263 2.181 0
M  V30 3347 H 304.014 -6.38157 0.970847 0
M  V30 3348 H 304.782 -7.79741 2.48892 0
M  V30 3349 N 307.445 0.0818655 -1.57387 0
M  V30 3350 C 308.694 0.781681 -1.85937 0
M  V30 3351 C 309.007 1.79246 -0.782957 0
M  V30 3352 O 310.213 2.54112 -0.955987 0
M  V30 3353 C 308.669 1.44109 -3.29789 0
M  V30 3354 C 308.277 0.469396 -4.45534 0
M  V30 3355 C 310.021 2.12386 -3.67549 0
M  V30 3356 C 307.928 1.13415 -5.80423 0
M  V30 3357 H 306.858 0.295682 -0.693605 0
M  V30 3358 H 309.509 0.0348051 -1.83467 0
M  V30 3359 H 307.891 2.23588 -3.2684 0
M  V30 3360 H 309.065 -0.294856 -4.59856 0
M  V30 3361 H 307.38 -0.108383 -4.16259 0
M  V30 3362 H 309.977 2.62878 -4.65617 0
M  V30 3363 H 310.32 2.91877 -2.96839 0
M  V30 3364 H 310.853 1.39751 -3.72444 0
M  V30 3365 H 307.592 0.379771 -6.54399 0
M  V30 3366 H 307.112 1.8695 -5.69921 0
M  V30 3367 H 308.791 1.65686 -6.25426 0
M  V30 3368 N 308.923 1.53595 0.353017 0
M  V30 3369 C 310.171 1.70049 1.09215 0
M  V30 3370 C 310.492 0.461406 1.89463 0
M  V30 3371 O 309.762 -0.524633 1.88744 0
M  V30 3372 H 308.342 0.626912 0.40619 0
M  V30 3373 H 311.004 1.90822 0.396585 0
M  V30 3374 H 310.1 2.56718 1.77488 0
M  V30 3375 N 310.401 -0.613514 1.45168 0
M  V30 3376 C 311.331 -1.7354 1.56225 0
M  V30 3377 C 312.312 -1.64981 0.41414 0
M  V30 3378 O 313.497 -1.83472 0.636526 0
M  V30 3379 C 310.627 -3.12128 1.52295 0
M  V30 3380 C 309.581 -3.35491 2.65762 0
M  V30 3381 C 308.907 -4.74291 2.46885 0
M  V30 3382 C 310.207 -3.26325 4.0781 0
M  V30 3383 H 311.901 -1.64543 2.50132 0
M  V30 3384 H 309.447 -0.790185 1.20383 0
M  V30 3385 H 311.4 -3.90404 1.58628 0
M  V30 3386 H 310.124 -3.2195 0.549139 0
M  V30 3387 H 308.783 -2.59603 2.58847 0
M  V30 3388 H 308.431 -4.80839 1.47657 0
M  V30 3389 H 308.131 -4.9088 3.22972 0
M  V30 3390 H 309.655 -5.54775 2.55063 0
M  V30 3391 H 311.069 -3.94483 4.16 0
M  V30 3392 H 309.466 -3.54445 4.8424 0
M  V30 3393 H 310.536 -2.23855 4.30136 0
M  V30 3394 N 311.879 -1.3236 -0.855495 0
M  V30 3395 C 313.295 -1.11332 -1.14356 0
M  V30 3396 C 313.495 0.106751 -2.01217 0
M  V30 3397 O 312.551 0.791891 -2.39761 0
M  V30 3398 C 313.864 -2.39237 -1.82171 0
M  V30 3399 C 315.412 -2.44986 -1.9481 0
M  V30 3400 C 315.887 -3.7281 -2.66039 0
M  V30 3401 N 317.378 -3.73787 -2.73565 0
M  V30 3402 C 318.113 -4.69394 -3.29327 0
M  V30 3403 N 317.609 -5.75367 -3.85907 0
M  V30 3404 N 319.402 -4.56893 -3.27423 0
M  V30 3405 H 311.553 -2.10586 -0.277027 0
M  V30 3406 H 313.816 -0.929701 -0.185364 0
M  V30 3407 H 313.522 -3.28431 -1.25802 0
M  V30 3408 H 313.396 -2.50134 -2.82335 0
M  V30 3409 H 315.783 -1.56252 -2.50338 0
M  V30 3410 H 315.864 -2.38043 -0.936448 0
M  V30 3411 H 315.508 -4.61918 -2.11174 0
M  V30 3412 H 315.438 -3.77024 -3.67642 0
M  V30 3413 H 317.929 -2.97189 -2.33424 0
M  V30 3414 H 318.242 -6.44378 -4.26611 0
M  V30 3415 H 316.587 -5.79123 -3.84242 0
M  V30 3416 H 319.778 -3.73269 -2.82467 0
M  V30 3417 H 319.951 -5.31577 -3.7058 0
M  V30 3418 N 313.357 1.07166 -1.15556 0
M  V30 3419 C 314.289 2.14341 -0.811815 0
M  V30 3420 C 315.302 1.61835 0.177015 0
M  V30 3421 O 316.491 1.78439 -0.0464996 0
M  V30 3422 C 313.591 3.38387 -0.186481 0
M  V30 3423 C 312.764 4.20238 -1.21321 0
M  V30 3424 C 311.823 5.2266 -0.609302 0
M  V30 3425 O 310.849 5.54719 -1.27576 0
M  V30 3426 N 312.051 5.77306 0.608099 0
M  V30 3427 H 314.816 2.44431 -1.73417 0
M  V30 3428 H 312.377 1.23089 -1.0517 0
M  V30 3429 H 314.369 4.04044 0.230339 0
M  V30 3430 H 312.939 3.05994 0.639249 0
M  V30 3431 H 312.159 3.50369 -1.80652 0
M  V30 3432 H 313.447 4.71736 -1.90638 0
M  V30 3433 H 312.845 5.53513 1.1679 0
M  V30 3434 H 311.402 6.44583 0.96725 0
M  V30 3435 N 314.835 0.952656 1.25548 0
M  V30 3436 C 316.251 0.656769 1.4546 0
M  V30 3437 C 316.451 -0.78633 1.85524 0
M  V30 3438 O 315.507 -1.56183 1.98402 0
M  V30 3439 C 316.82 1.62801 2.52817 0
M  V30 3440 C 318.368 1.63897 2.66659 0
M  V30 3441 C 318.843 2.5978 3.77198 0
M  V30 3442 N 320.334 2.58133 3.84606 0
M  V30 3443 C 321.069 3.29003 4.69621 0
M  V30 3444 N 320.565 4.09339 5.58939 0
M  V30 3445 N 322.358 3.179 4.63569 0
M  V30 3446 H 314.509 1.88526 0.978344 0
M  V30 3447 H 316.772 0.810815 0.491206 0
M  V30 3448 H 316.478 2.65869 2.30232 0
M  V30 3449 H 316.352 1.38898 3.50695 0
M  V30 3450 H 318.739 0.615481 2.8861 0
M  V30 3451 H 318.82 1.91858 1.69187 0
M  V30 3452 H 318.464 3.62254 3.55997 0
M  V30 3453 H 318.394 2.29105 4.7415 0
M  V30 3454 H 320.885 1.99809 3.20757 0
M  V30 3455 H 321.198 4.6034 6.20731 0
M  V30 3456 H 319.543 4.13438 5.58654 0
M  V30 3457 H 322.734 2.54612 3.92798 0
M  V30 3458 H 322.907 3.73398 5.29602 0
M  V30 3459 N 316.313 -1.40141 0.720998 0
M  V30 3460 C 317.729 -1.54632 0.395113 0
M  V30 3461 C 317.929 -1.69115 -1.09555 0
M  V30 3462 O 316.985 -1.68377 -1.88163 0
M  V30 3463 C 318.298 -2.77177 1.1659 0
M  V30 3464 C 319.846 -2.91 1.15274 0
M  V30 3465 C 320.321 -4.16465 1.90579 0
M  V30 3466 N 321.812 -4.23476 1.87675 0
M  V30 3467 C 322.547 -5.19475 2.42762 0
M  V30 3468 N 322.043 -6.21348 3.06428 0
M  V30 3469 N 323.836 -5.11592 2.32874 0
M  V30 3470 H 315.987 -1.28986 1.68749 0
M  V30 3471 H 318.25 -0.62412 0.713567 0
M  V30 3472 H 317.956 -2.72771 2.22011 0
M  V30 3473 H 317.83 -3.69442 0.76108 0
M  V30 3474 H 320.217 -2.94907 0.106702 0
M  V30 3475 H 320.298 -1.99838 1.59682 0
M  V30 3476 H 319.942 -4.1332 2.95176 0
M  V30 3477 H 319.872 -5.06646 1.43587 0
M  V30 3478 H 322.363 -3.50497 1.41281 0
M  V30 3479 H 322.676 -6.91034 3.45965 0
M  V30 3480 H 321.021 -6.21777 3.10514 0
M  V30 3481 H 324.212 -4.30936 1.82789 0
M  V30 3482 H 324.385 -5.86233 2.76106 0
M  V30 3483 N 317.792 -0.46758 -1.50504 0
M  V30 3484 C 319.038 0.0887532 -2.02606 0
M  V30 3485 C 319.371 1.39686 -1.34913 0
M  V30 3486 O 318.646 1.88644 -0.473694 0
M  V30 3487 C 318.929 0.276206 -3.59039 0
M  V30 3488 C 318.782 -1.05267 -4.37309 0
M  V30 3489 C 320.101 1.03235 -4.27821 0
M  V30 3490 H 317.22 0.0307814 -0.736357 0
M  V30 3491 H 319.862 -0.612485 -1.79857 0
M  V30 3492 H 318.012 0.8735 -3.78553 0
M  V30 3493 H 319.684 -1.68628 -4.29374 0
M  V30 3494 H 317.927 -1.65015 -4.01189 0
M  V30 3495 H 318.598 -0.875197 -5.45018 0
M  V30 3496 H 321.074 0.526111 -4.12761 0
M  V30 3497 H 319.95 1.1323 -5.37094 0
M  V30 3498 H 320.211 2.06806 -3.90748 0
M  V30 3499 N 319.27 1.56325 -0.20005 0
M  V30 3500 C 320.686 1.58839 0.155716 0
M  V30 3501 C 320.886 1.21636 1.60645 0
M  V30 3502 O 319.942 0.941437 2.34293 0
M  V30 3503 C 321.255 3.0032 -0.151124 0
M  V30 3504 C 322.803 3.12866 -0.0916284 0
M  V30 3505 C 323.278 4.56488 -0.371845 0
M  V30 3506 N 324.769 4.62089 -0.320641 0
M  V30 3507 C 325.504 5.71116 -0.511243 0
M  V30 3508 N 325 6.88592 -0.762461 0
M  V30 3509 N 326.793 5.60335 -0.445157 0
M  V30 3510 H 318.944 1.78788 -1.14668 0
M  V30 3511 H 321.207 0.829996 -0.458051 0
M  V30 3512 H 320.913 3.32117 -1.15721 0
M  V30 3513 H 320.787 3.73257 0.543986 0
M  V30 3514 H 323.174 2.80878 0.905065 0
M  V30 3515 H 323.255 2.42304 -0.81989 0
M  V30 3516 H 322.899 4.89189 -1.36588 0
M  V30 3517 H 322.829 5.25246 0.377362 0
M  V30 3518 H 325.32 3.77665 -0.13329 0
M  V30 3519 H 325.633 7.67581 -0.896576 0
M  V30 3520 H 323.978 6.90387 -0.799412 0
M  V30 3521 H 327.169 4.67436 -0.249278 0
M  V30 3522 H 327.342 6.45243 -0.597116 0
M  V30 3523 N 320.748 -0.0735177 1.57428 0
M  V30 3524 C 321.996 -0.771472 1.86796 0
M  V30 3525 C 322.317 -1.78201 0.791804 0
M  V30 3526 O 321.587 -1.95074 -0.179718 0
M  V30 3527 H 320.167 -0.28791 0.689287 0
M  V30 3528 H 322.829 -0.0500161 1.94836 0
M  V30 3529 H 321.925 -1.28874 2.8425 0
M  V30 3530 N 322.226 -1.5378 -0.344866 0
M  V30 3531 C 323.451 -1.75211 -1.10977 0
M  V30 3532 C 323.876 -0.48936 -1.81623 0
M  V30 3533 O 323.234 0.557925 -1.72502 0
M  V30 3534 C 323.282 -2.93147 -2.09993 0
M  V30 3535 O 322.386 -2.63203 -3.17487 0
M  V30 3536 H 321.727 -0.581241 -0.321021 0
M  V30 3537 H 324.257 -2.00738 -0.395661 0
M  V30 3538 H 324.267 -3.19898 -2.53237 0
M  V30 3539 H 322.942 -3.84731 -1.5797 0
M  V30 3540 H 321.519 -2.47336 -2.79069 0
M  V30 3541 N 323.704 0.605807 -1.45491 0
M  V30 3542 C 324.614 1.74466 -1.56839 0
M  V30 3543 C 325.63 1.68006 -0.452772 0
M  V30 3544 O 326.806 1.8833 -0.713708 0
M  V30 3545 C 323.871 3.10931 -1.53371 0
M  V30 3546 C 322.932 3.28832 -2.75986 0
M  V30 3547 C 322.165 4.58787 -2.72673 0
M  V30 3548 O 322.388 5.4122 -1.80102 0
M  V30 3549 O 321.322 4.79438 -3.63899 0
M  V30 3550 H 325.148 1.67843 -2.53106 0
M  V30 3551 H 322.733 0.770108 -1.28022 0
M  V30 3552 H 324.615 3.92233 -1.54051 0
M  V30 3553 H 323.29 3.18042 -0.602572 0
M  V30 3554 H 322.197 2.47112 -2.80867 0
M  V30 3555 H 323.53 3.26599 -3.68231 0
M  V30 3556 N 325.182 1.32811 0.848464 0
M  V30 3557 C 326.412 1.26556 1.63301 0
M  V30 3558 C 326.82 -0.1676 1.88456 0
M  V30 3559 O 326.163 -1.11713 1.45828 0
M  V30 3560 C 326.225 1.96202 3.01239 0
M  V30 3561 C 325.889 3.45528 2.99098 0
M  V30 3562 C 326.886 4.40903 2.75501 0
M  V30 3563 C 324.571 3.87558 3.19537 0
M  V30 3564 C 326.565 5.76282 2.72356 0
M  V30 3565 C 324.252 5.23044 3.16019 0
M  V30 3566 C 325.25 6.17217 2.92458 0
M  V30 3567 O 324.938 7.50223 2.88825 0
M  V30 3568 H 324.67 0.43771 0.515156 0
M  V30 3569 H 327.224 1.7559 1.0657 0
M  V30 3570 H 325.454 1.41746 3.59785 0
M  V30 3571 H 327.143 1.83573 3.62016 0
M  V30 3572 H 327.909 4.09756 2.5947 0
M  V30 3573 H 323.788 3.14674 3.369 0
M  V30 3574 H 327.332 6.4976 2.53886 0
M  V30 3575 H 323.229 5.53818 3.31596 0
M  V30 3576 H 323.997 7.59657 3.04735 0
M  V30 3577 N 326.66 -1.06551 1.16123 0
M  V30 3578 C 327.937 -1.76097 0.85142 0
M  V30 3579 C 328.317 -2.00802 -0.6513 0
M  V30 3580 O 327.665 -1.63302 -1.59827 0
M  V30 3581 C 327.875 -3.06384 1.67122 0
M  V30 3582 C 329.223 -3.80585 1.88255 0
M  V30 3583 O 330.247 -3.16218 1.63966 0
M  V30 3584 O 329.106 -4.96212 2.2899 0
M  V30 3585 H 326.2 -0.765102 0.313923 0
M  V30 3586 H 328.746 -1.12844 1.26745 0
M  V30 3587 H 327.518 -2.84071 2.69108 0
M  V30 3588 H 327.141 -3.77371 1.25206 0
M  V30 3589 N 328.138 -0.959301 -1.25041 0
M  V30 3590 C 329.415 -0.533805 -1.88175 0
M  V30 3591 C 329.795 0.988994 -1.865 0
M  V30 3592 O 329.143 1.85677 -1.33177 0
M  V30 3593 C 329.353 -1.11575 -3.30684 0
M  V30 3594 C 330.701 -1.19548 -4.07423 0
M  V30 3595 O 331.725 -1.06765 -3.39823 0
M  V30 3596 O 330.584 -1.39656 -5.28354 0
M  V30 3597 H 327.678 -0.176772 -0.807887 0
M  V30 3598 H 330.224 -1.05303 -1.33076 0
M  V30 3599 H 328.996 -2.15884 -3.26358 0
M  V30 3600 H 328.619 -0.580059 -3.93346 0
M  V30 3601 N 329.616 1.39756 -0.72842 0
M  V30 3602 C 330.863 2.00645 -0.273487 0
M  V30 3603 C 331.191 1.57786 1.13727 0
M  V30 3604 O 330.446 0.794886 1.7883 0
M  V30 3605 C 330.745 3.56002 -0.315776 0
M  V30 3606 C 330.411 4.18489 -1.67863 0
M  V30 3607 C 329.073 4.3527 -2.05166 0
M  V30 3608 C 331.425 4.53219 -2.57375 0
M  V30 3609 C 328.753 4.84069 -3.31503 0
M  V30 3610 C 331.105 5.03423 -3.83077 0
M  V30 3611 C 329.769 5.18413 -4.20481 0
M  V30 3612 H 329.039 0.734211 -0.100076 0
M  V30 3613 H 331.686 1.6718 -0.933972 0
M  V30 3614 H 329.991 3.89452 0.428285 0
M  V30 3615 H 331.688 4.00963 0.0542575 0
M  V30 3616 H 328.278 4.05824 -1.37858 0
M  V30 3617 H 332.462 4.39878 -2.29827 0
M  V30 3618 H 327.718 4.93859 -3.60435 0
M  V30 3619 H 331.892 5.2927 -4.52599 0
M  V30 3620 H 329.519 5.55987 -5.18443 0
M  V30 3621 N 331.094 0.475555 1.50254 0
M  V30 3622 C 332.024 -0.30611 2.31485 0
M  V30 3623 C 333.005 -0.986228 1.38591 0
M  V30 3624 O 334.19 -0.982541 1.67511 0
M  V30 3625 C 331.32 -1.38588 3.1845 0
M  V30 3626 C 330.274 -0.827115 4.19932 0
M  V30 3627 C 329.6 -2.00551 4.95665 0
M  V30 3628 C 330.9 0.16463 5.2204 0
M  V30 3629 H 332.594 0.371866 2.97082 0
M  V30 3630 H 330.14 0.180282 1.42867 0
M  V30 3631 H 332.093 -1.94023 3.74076 0
M  V30 3632 H 330.817 -2.09269 2.50747 0
M  V30 3633 H 329.476 -0.294702 3.65414 0
M  V30 3634 H 329.124 -2.6994 4.2443 0
M  V30 3635 H 328.824 -1.63784 5.64313 0
M  V30 3636 H 330.348 -2.56468 5.54127 0
M  V30 3637 H 331.762 -0.300699 5.72511 0
M  V30 3638 H 330.159 0.446813 5.98434 0
M  V30 3639 H 331.229 1.08905 4.72512 0
M  V30 3640 N 332.573 -1.56217 0.208337 0
M  V30 3641 C 333.85 -1.89739 -0.475234 0
M  V30 3642 C 334.23 -1.1238 -1.78701 0
M  V30 3643 O 333.578 -0.228979 -2.2735 0
M  V30 3644 C 333.788 -3.42289 -0.681101 0
M  V30 3645 C 335.136 -4.12789 -0.994507 0
M  V30 3646 O 336.16 -3.47814 -0.768357 0
M  V30 3647 O 335.019 -5.27649 -1.42299 0
M  V30 3648 H 332.113 -0.788478 -0.249461 0
M  V30 3649 H 334.659 -1.67855 0.249538 0
M  V30 3650 H 333.431 -3.90534 0.244722 0
M  V30 3651 H 333.054 -3.69909 -1.45785 0
M  V30 3652 N 334.051 0.0651679 -1.57465 0
M  V30 3653 C 334.961 1.09448 -2.07505 0
M  V30 3654 C 335.977 1.41974 -1.00595 0
M  V30 3655 O 337.153 1.52018 -1.32107 0
M  V30 3656 C 334.218 2.38689 -2.51453 0
M  V30 3657 C 333.279 2.13073 -3.72691 0
M  V30 3658 C 332.512 3.36152 -4.14533 0
M  V30 3659 O 332.735 4.45517 -3.56189 0
M  V30 3660 O 331.669 3.23974 -5.07272 0
M  V30 3661 H 335.495 0.69935 -2.95538 0
M  V30 3662 H 333.08 0.279752 -1.46757 0
M  V30 3663 H 334.962 3.14736 -2.80212 0
M  V30 3664 H 333.637 2.77568 -1.66546 0
M  V30 3665 H 332.544 1.34709 -3.49005 0
M  V30 3666 H 333.877 1.79071 -4.5847 0
M  V30 3667 N 335.529 1.53961 0.336706 0
M  V30 3668 C 336.776 1.71536 1.07618 0
M  V30 3669 C 337.104 0.482125 1.8843 0
M  V30 3670 O 336.359 -0.536142 1.88213 0
M  V30 3671 C 336.658 2.93493 2.03953 0
M  V30 3672 C 336.324 4.28811 1.39399 0
M  V30 3673 C 334.986 4.65602 1.21523 0
M  V30 3674 C 337.338 5.12844 0.929541 0
M  V30 3675 C 334.666 5.84037 0.558312 0
M  V30 3676 C 337.018 6.31951 0.286505 0
M  V30 3677 C 335.682 6.67432 0.0954869 0
M  V30 3678 H 334.952 0.627696 0.393801 0
M  V30 3679 H 337.599 1.88186 0.354715 0
M  V30 3680 H 335.904 2.71475 2.82504 0
M  V30 3681 H 337.601 3.04285 2.61174 0
M  V30 3682 H 334.191 3.99858 1.54311 0
M  V30 3683 H 338.375 4.84947 1.05548 0
M  V30 3684 H 333.631 6.10097 0.398995 0
M  V30 3685 H 337.805 6.96352 -0.0814376 0
M  V30 3686 H 335.432 7.59063 -0.415579 0
M  V30 3687 N 337.007 -0.598083 1.45811 0
M  V30 3688 C 337.94 -1.7223 1.49706 0
M  V30 3689 C 338.918 -1.58732 0.352535 0
M  V30 3690 O 340.102 -1.80162 0.554438 0
M  V30 3691 C 337.229 -3.10148 1.3611 0
M  V30 3692 C 336.275 -3.42209 2.54549 0
M  V30 3693 S 337.108 -3.35989 4.16979 0
M  V30 3694 C 338.264 -4.76471 4.05865 0
M  V30 3695 H 338.497 -1.68665 2.44826 0
M  V30 3696 H 336.03 -0.775541 1.33509 0
M  V30 3697 H 337.988 -3.8972 1.28953 0
M  V30 3698 H 336.649 -3.11219 0.424451 0
M  V30 3699 H 335.842 -4.42652 2.40988 0
M  V30 3700 H 335.444 -2.70173 2.58617 0
M  V30 3701 H 337.736 -5.665 3.71596 0
M  V30 3702 H 338.679 -4.95089 5.06253 0
M  V30 3703 H 339.087 -4.52599 3.37364 0
M  V30 3704 N 338.485 -1.33259 -0.841409 0
M  V30 3705 C 339.395 -1.25332 -1.98316 0
M  V30 3706 C 340.411 -0.164364 -1.73222 0
M  V30 3707 O 341.587 -0.387486 -1.97637 0
M  V30 3708 C 338.652 -0.990078 -3.32262 0
M  V30 3709 C 337.713 -2.16879 -3.70489 0
M  V30 3710 C 336.946 -1.91801 -4.98044 0
M  V30 3711 O 337.169 -0.867075 -5.63771 0
M  V30 3712 O 336.103 -2.78267 -5.33714 0
M  V30 3713 H 339.929 -2.21344 -2.07944 0
M  V30 3714 H 337.514 -1.1328 -0.974058 0
M  V30 3715 H 339.396 -0.860321 -4.12524 0
M  V30 3716 H 338.071 -0.0602155 -3.23644 0
M  V30 3717 H 336.978 -2.35407 -2.90748 0
M  V30 3718 H 338.311 -3.0819 -3.8377 0
M  V30 3719 N 339.963 1.05934 -1.16686 0
M  V30 3720 C 340.926 2.11669 -0.879144 0
M  V30 3721 C 341.926 1.60294 0.127445 0
M  V30 3722 O 343.116 1.7389 -0.103865 0
M  V30 3723 C 340.248 3.39438 -0.315425 0
M  V30 3724 H 341.441 2.38626 -1.81653 0
M  V30 3725 H 338.994 1.22058 -0.976299 0
M  V30 3726 H 339.729 3.18132 0.629468 0
M  V30 3727 H 339.514 3.78034 -1.04079 0
M  V30 3728 H 341.004 4.17391 -0.132189 0
M  V30 3729 N 341.441 0.965919 1.2453 0
M  V30 3730 C 342.687 0.62776 1.92839 0
M  V30 3731 C 343.02 -0.834694 1.75347 0
M  V30 3732 O 342.295 -1.60031 1.10546 0
M  V30 3733 C 342.578 1.00109 3.45905 0
M  V30 3734 C 342.431 2.52011 3.72573 0
M  V30 3735 C 343.75 0.53435 4.36844 0
M  V30 3736 H 340.869 0.229537 0.700344 0
M  V30 3737 H 343.511 1.2046 1.46933 0
M  V30 3738 H 341.661 0.510238 3.85135 0
M  V30 3739 H 343.333 3.08559 3.42912 0
M  V30 3740 H 341.576 2.95287 3.17786 0
M  V30 3741 H 342.247 2.73183 4.79661 0
M  V30 3742 H 344.723 0.955565 4.04979 0
M  V30 3743 H 343.599 0.824152 5.42678 0
M  V30 3744 H 343.86 -0.565589 4.38467 0
M  V30 3745 N 342.919 -1.39368 0.735821 0
M  V30 3746 C 344.144 -2.05319 0.293052 0
M  V30 3747 C 344.569 -1.55115 -1.064 0
M  V30 3748 O 343.927 -0.695261 -1.67439 0
M  V30 3749 C 343.975 -3.59305 0.305323 0
M  V30 3750 O 343.079 -4.06299 -0.706761 0
M  V30 3751 H 342.42 -0.650529 0.13307 0
M  V30 3752 H 344.95 -1.78386 1.00197 0
M  V30 3753 H 344.96 -4.07724 0.149997 0
M  V30 3754 H 343.635 -3.95207 1.29553 0
M  V30 3755 H 342.212 -3.69292 -0.517504 0
M  V30 3756 N 344.397 -0.483516 -1.5 0
M  V30 3757 C 345.622 0.0667119 -2.07293 0
M  V30 3758 C 346.047 1.3164 -1.3436 0
M  V30 3759 O 345.405 1.76945 -0.394987 0
M  V30 3760 C 345.453 0.321126 -3.59167 0
M  V30 3761 O 344.557 1.39927 -3.87936 0
M  V30 3762 H 343.898 -0.0184758 -0.663743 0
M  V30 3763 H 346.428 -0.678125 -1.93035 0
M  V30 3764 H 346.438 0.557906 -4.04168 0
M  V30 3765 H 345.113 -0.592007 -4.11665 0
M  V30 3766 H 343.69 1.14882 -3.54763 0
M  V30 3767 N 345.875 1.56104 -0.216619 0
M  V30 3768 C 346.822 2.2007 0.695531 0
M  V30 3769 C 347.792 1.15471 1.19397 0
M  V30 3770 O 348.977 1.43807 1.25396 0
M  V30 3771 C 346.117 2.88073 1.90021 0
M  V30 3772 C 345.23 4.07253 1.44113 0
M  V30 3773 C 344.365 4.63052 2.603 0
M  V30 3774 C 343.404 5.74545 2.11103 0
M  V30 3775 N 342.541 6.24656 3.20545 0
M  V30 3776 H 347.381 2.97655 0.143327 0
M  V30 3777 H 344.918 1.46982 0.0589934 0
M  V30 3778 H 346.876 3.25681 2.60745 0
M  V30 3779 H 345.506 2.13015 2.42538 0
M  V30 3780 H 344.558 3.75164 0.628999 0
M  V30 3781 H 345.87 4.8783 1.04036 0
M  V30 3782 H 345.024 5.03078 3.39113 0
M  V30 3783 H 343.763 3.81628 3.03663 0
M  V30 3784 H 342.768 5.34027 1.3075 0
M  V30 3785 H 343.993 6.57801 1.68746 0
M  V30 3786 H 341.939 5.46148 3.63399 0
M  V30 3787 H 341.856 7.00343 2.84704 0
M  V30 3788 H 343.124 6.69338 3.99508 0
M  V30 3789 N 347.353 -0.0568162 1.57498 0
M  V30 3790 C 348.583 -0.764515 1.91934 0
M  V30 3791 C 348.991 -1.70877 0.81227 0
M  V30 3792 O 348.334 -1.82351 -0.222213 0
M  V30 3793 C 348.396 -1.5994 3.21962 0
M  V30 3794 C 348.06 -0.822925 4.4953 0
M  V30 3795 C 349.057 -0.135464 5.19723 0
M  V30 3796 C 346.742 -0.785666 4.96117 0
M  V30 3797 C 348.736 0.578861 6.34766 0
M  V30 3798 C 346.423 -0.0675784 6.11063 0
M  V30 3799 C 347.421 0.613471 6.80239 0
M  V30 3800 O 347.109 1.31996 7.92989 0
M  V30 3801 H 346.841 -0.221647 0.63863 0
M  V30 3802 H 349.395 -0.0268218 2.05382 0
M  V30 3803 H 347.625 -2.38026 3.04763 0
M  V30 3804 H 349.314 -2.18715 3.41934 0
M  V30 3805 H 350.08 -0.155458 4.84751 0
M  V30 3806 H 345.959 -1.30524 4.42136 0
M  V30 3807 H 349.503 1.111 6.88696 0
M  V30 3808 H 345.4 -0.0455636 6.45484 0
M  V30 3809 H 346.168 1.23077 8.09194 0
M  V30 3810 N 348.832 -1.54138 -0.328536 0
M  V30 3811 C 350.08 -1.71765 -1.06496 0
M  V30 3812 C 350.401 -0.49149 -1.88704 0
M  V30 3813 O 349.671 0.494539 -1.89555 0
M  V30 3814 H 348.251 -0.633295 -0.396164 0
M  V30 3815 H 350.913 -1.91429 -0.366176 0
M  V30 3816 H 350.009 -2.5951 -1.73381 0
M  V30 3817 N 350.31 0.590341 -1.46126 0
M  V30 3818 C 351.243 1.71434 -1.50617 0
M  V30 3819 C 352.221 1.58543 -0.360948 0
M  V30 3820 O 353.405 1.79865 -0.563985 0
M  V30 3821 C 350.532 3.09422 -1.37753 0
M  V30 3822 C 349.578 3.40854 -2.5636 0
M  V30 3823 S 350.411 3.33773 -4.18755 0
M  V30 3824 C 351.567 4.74312 -4.08386 0
M  V30 3825 H 351.8 1.67364 -2.45717 0
M  V30 3826 H 349.333 0.76845 -1.33919 0
M  V30 3827 H 351.291 3.8903 -1.31018 0
M  V30 3828 H 349.952 3.10989 -0.440949 0
M  V30 3829 H 349.145 4.41368 -2.43332 0
M  V30 3830 H 348.747 2.68798 -2.60046 0
M  V30 3831 H 351.039 5.64522 -3.74595 0
M  V30 3832 H 351.982 4.92397 -5.08872 0
M  V30 3833 H 352.39 4.50803 -3.3976 0
M  V30 3834 N 351.788 1.33704 0.83433 0
M  V30 3835 C 352.736 1.24323 1.96587 0
M  V30 3836 C 353.73 0.143659 1.6879 0
M  V30 3837 O 354.936 0.30791 1.77347 0
M  V30 3838 H 351.311 0.385925 0.645419 0
M  V30 3839 H 353.282 2.19978 2.01624 0
M  V30 3840 C 352.031 1.00394 3.32891 0
M  V30 3841 H 351.354 1.84231 3.54822 0
M  V30 3842 H 352.794 0.97862 4.12552 0
M  V30 3843 C 351.253 -0.293047 3.35623 0
M  V30 3844 O 351.783 -1.29823 3.80143 0
M  V30 3845 N 349.989 -0.322174 2.88809 0
M  V30 3846 H 349.536 0.496379 2.52772 0
M  V30 3847 H 349.494 -1.18977 2.91019 0
M  V30 3848 N 353.266 -1.05314 1.17247 0
M  V30 3849 C 354.506 -1.79869 0.970898 0
M  V30 3850 C 354.87 -1.85594 -0.491808 0
M  V30 3851 O 356.071 -2.56229 -0.812409 0
M  V30 3852 C 354.342 -3.19937 1.59295 0
M  V30 3853 S 355.901 -4.10986 1.53741 0
M  V30 3854 H 352.719 -0.61949 0.348931 0
M  V30 3855 H 355.321 -1.26368 1.49169 0
M  V30 3856 H 354.025 -3.13372 2.65003 0
M  V30 3857 H 353.556 -3.78515 1.07191 0
M  V30 3858 H 355.571 -4.93203 0.544537 0
M  V30 3859 N 354.744 -0.972509 -1.24016 0
M  V30 3860 C 355.674 -0.525548 -2.27509 0
M  V30 3861 C 356.655 0.437262 -1.64384 0
M  V30 3862 O 357.84 0.332343 -1.91335 0
M  V30 3863 C 354.97 0.180448 -3.46831 0
M  V30 3864 C 353.924 -0.698859 -4.22256 0
M  V30 3865 C 353.25 0.138903 -5.3452 0
M  V30 3866 C 354.55 -1.98582 -4.83076 0
M  V30 3867 H 356.244 -1.39058 -2.65148 0
M  V30 3868 H 353.79 -0.67009 -1.27459 0
M  V30 3869 H 355.743 0.504387 -4.18371 0
M  V30 3870 H 354.467 1.07987 -3.08231 0
M  V30 3871 H 353.126 -1.00614 -3.52523 0
M  V30 3872 H 352.774 1.03862 -4.9216 0
M  V30 3873 H 352.474 -0.446259 -5.85903 0
M  V30 3874 H 353.998 0.457404 -6.08884 0
M  V30 3875 H 355.412 -1.72715 -5.46665 0
M  V30 3876 H 353.809 -2.5181 -5.44713 0
M  V30 3877 H 354.879 -2.67769 -4.04262 0
M  V30 3878 N 356.222 1.38976 -0.743202 0
M  V30 3879 C 357.471 1.99581 -0.291592 0
M  V30 3880 C 357.784 1.59656 1.13001 0
M  V30 3881 O 358.99 2.13157 1.68156 0
M  V30 3882 C 357.446 3.56813 -0.470391 0
M  V30 3883 C 357.054 4.05695 -1.90041 0
M  V30 3884 C 358.798 4.24423 -0.0809709 0
M  V30 3885 C 356.705 5.5553 -2.02832 0
M  V30 3886 H 355.635 0.746615 -0.105272 0
M  V30 3887 H 358.286 1.58872 -0.918258 0
M  V30 3888 H 356.668 3.95359 0.225299 0
M  V30 3889 H 357.842 3.78464 -2.62872 0
M  V30 3890 H 356.157 3.50775 -2.24379 0
M  V30 3891 H 358.754 5.34474 -0.155445 0
M  V30 3892 H 359.097 4.04962 0.96497 0
M  V30 3893 H 359.63 3.9108 -0.728124 0
M  V30 3894 H 356.369 5.79881 -3.05643 0
M  V30 3895 H 355.889 5.84537 -1.34448 0
M  V30 3896 H 357.568 6.21069 -1.81335 0
M  V30 3897 N 357.7 0.491464 1.49741 0
M  V30 3898 C 358.632 -0.328609 2.26832 0
M  V30 3899 C 359.645 -0.939113 1.32983 0
M  V30 3900 O 360.834 -0.824067 1.58339 0
M  V30 3901 C 357.934 -1.47675 3.05033 0
M  V30 3902 C 357.107 -0.975305 4.26388 0
M  V30 3903 C 356.166 -1.99991 4.86714 0
M  V30 3904 O 355.192 -1.57229 5.47054 0
M  V30 3905 N 356.394 -3.32962 4.75517 0
M  V30 3906 H 359.159 0.332377 2.97851 0
M  V30 3907 H 356.72 0.323441 1.58636 0
M  V30 3908 H 358.712 -2.15954 3.42266 0
M  V30 3909 H 357.282 -2.04206 2.36683 0
M  V30 3910 H 356.502 -0.117723 3.94024 0
M  V30 3911 H 357.79 -0.618531 5.05026 0
M  V30 3912 H 357.188 -3.70399 4.27576 0
M  V30 3913 H 355.745 -3.96982 5.16961 0
M  V30 3914 N 359.178 -1.55987 0.224894 0
M  V30 3915 C 360.425 -1.9839 -0.4059 0
M  V30 3916 C 360.753 -1.11261 -1.59535 0
M  V30 3917 O 360.008 -0.158314 -1.95059 0
M  V30 3918 C 360.307 -3.46394 -0.880106 0
M  V30 3919 C 359.973 -4.5046 0.19918 0
M  V30 3920 C 358.635 -4.7864 0.495661 0
M  V30 3921 C 360.987 -5.12855 0.928939 0
M  V30 3922 C 358.315 -5.66497 1.52636 0
M  V30 3923 C 360.667 -6.01828 1.949 0
M  V30 3924 C 359.331 -6.28351 2.25236 0
M  V30 3925 H 358.601 -0.725961 -0.148529 0
M  V30 3926 H 361.248 -1.88668 0.328113 0
M  V30 3927 H 359.553 -3.53337 -1.69294 0
M  V30 3928 H 361.25 -3.76577 -1.37808 0
M  V30 3929 H 357.84 -4.28579 -0.0420526 0
M  V30 3930 H 362.024 -4.9115 0.713129 0
M  V30 3931 H 357.28 -5.8531 1.76698 0
M  V30 3932 H 361.454 -6.49225 2.51951 0
M  V30 3933 H 359.081 -6.96226 3.05244 0
M  V30 3934 N 360.656 0.0484629 -1.57525 0
M  V30 3935 C 361.566 1.07241 -2.08654 0
M  V30 3936 C 362.582 1.409 -1.02095 0
M  V30 3937 O 363.758 1.50609 -1.33712 0
M  V30 3938 C 360.823 2.36008 -2.5397 0
M  V30 3939 C 359.884 2.09108 -3.7493 0
M  V30 3940 C 359.117 3.31736 -4.18075 0
M  V30 3941 O 359.34 4.41714 -3.60895 0
M  V30 3942 O 358.274 3.18576 -5.10679 0
M  V30 3943 H 362.1 0.667965 -2.96263 0
M  V30 3944 H 359.685 0.26417 -1.47046 0
M  V30 3945 H 361.567 3.11747 -2.83535 0
M  V30 3946 H 360.242 2.75786 -1.69481 0
M  V30 3947 H 359.149 1.31 -3.50414 0
M  V30 3948 H 360.482 1.74198 -4.60343 0
M  V30 3949 N 362.134 1.5431 0.320358 0
M  V30 3950 C 363.411 1.63322 1.07635 0
M  V30 3951 C 363.791 0.46912 2.05821 0
M  V30 3952 O 363.139 -0.536274 2.22118 0
M  V30 3953 C 363.349 3.00465 1.77544 0
M  V30 3954 C 364.697 3.56621 2.30449 0
M  V30 3955 O 365.721 3.02791 1.87606 0
M  V30 3956 O 364.58 4.5083 3.08892 0
M  V30 3957 H 361.674 0.661502 0.496331 0
M  V30 3958 H 364.22 1.66656 0.319992 0
M  V30 3959 H 362.992 3.76629 1.06143 0
M  V30 3960 H 362.615 3.00824 2.59982 0
M  V30 3961 N 363.613 -0.582584 1.46437 0
M  V30 3962 C 364.86 -1.34079 1.51753 0
M  V30 3963 C 365.188 -1.93762 0.169299 0
M  V30 3964 O 364.443 -1.76989 -0.835062 0
M  V30 3965 C 364.742 -2.48964 2.56421 0
M  V30 3966 C 364.408 -2.07273 4.00436 0
M  V30 3967 C 363.07 -1.95618 4.39644 0
M  V30 3968 C 365.422 -1.75111 4.90903 0
M  V30 3969 C 362.75 -1.5006 5.67185 0
M  V30 3970 C 365.102 -1.31032 6.18881 0
M  V30 3971 C 363.766 -1.17954 6.56996 0
M  V30 3972 H 363.036 -0.49063 0.555304 0
M  V30 3973 H 365.683 -0.656007 1.79913 0
M  V30 3974 H 363.988 -3.22889 2.21923 0
M  V30 3975 H 365.685 -3.07178 2.57765 0
M  V30 3976 H 362.275 -2.17279 3.69443 0
M  V30 3977 H 366.459 -1.83001 4.61329 0
M  V30 3978 H 361.715 -1.38577 5.95488 0
M  V30 3979 H 365.889 -1.052 6.88408 0
M  V30 3980 H 363.516 -0.824279 7.55718 0
M  V30 3981 N 365.091 -1.34144 -0.827227 0
M  V30 3982 C 366.054 -1.25264 -1.91942 0
M  V30 3983 C 367.054 -0.168866 -1.59911 0
M  V30 3984 O 368.244 -0.421198 -1.69031 0
M  V30 3985 C 365.376 -0.932952 -3.27885 0
M  V30 3986 H 366.569 -2.22357 -2.0124 0
M  V30 3987 H 364.122 -1.1837 -1.0207 0
M  V30 3988 H 364.857 0.0349917 -3.24281 0
M  V30 3989 H 364.642 -1.71682 -3.52516 0
M  V30 3990 H 366.132 -0.895874 -4.07877 0
M  V30 3991 N 366.569 1.04691 -1.17803 0
M  V30 3992 C 367.517 2.14665 -0.895635 0
M  V30 3993 C 368.511 1.68806 0.141679 0
M  V30 3994 O 369.717 1.79999 -0.00587914 0
M  V30 3995 H 366.092 0.701038 -0.272121 0
M  V30 3996 H 368.063 2.35685 -1.83017 0
M  V30 3997 C 366.812 3.45019 -0.430962 0
M  V30 3998 H 366.135 3.8071 -1.22064 0
M  V30 3999 H 367.575 4.23125 -0.272301 0
M  V30 4000 C 366.034 3.25943 0.852207 0
M  V30 4001 O 366.564 3.5296 1.91786 0
M  V30 4002 N 364.77 2.79304 0.802346 0
M  V30 4003 H 364.317 2.57518 -0.0650788 0
M  V30 4004 H 364.275 2.66921 1.66134 0
M  V30 4005 N 368.047 0.979072 1.23499 0
M  V30 4006 C 369.293 0.648178 1.92163 0
M  V30 4007 C 369.626 -0.816049 1.76222 0
M  V30 4008 O 368.901 -1.58849 1.12237 0
M  V30 4009 C 369.184 1.03773 3.44824 0
M  V30 4010 C 369.037 2.55948 3.69879 0
M  V30 4011 C 370.356 0.580653 4.36253 0
M  V30 4012 H 367.475 0.236952 0.69787 0
M  V30 4013 H 370.117 1.22012 1.45647 0
M  V30 4014 H 368.267 0.551058 3.84572 0
M  V30 4015 H 369.939 3.12179 3.3962 0
M  V30 4016 H 368.182 2.98641 3.14636 0
M  V30 4017 H 368.853 2.78255 4.76737 0
M  V30 4018 H 371.329 0.998465 4.03943 0
M  V30 4019 H 370.205 0.881663 5.41773 0
M  V30 4020 H 370.466 -0.519052 4.39042 0
M  V30 4021 N 369.525 -1.3858 0.750561 0
M  V30 4022 C 370.473 -2.32339 0.110162 0
M  V30 4023 C 371.467 -1.53864 -0.708674 0
M  V30 4024 O 372.673 -1.69417 -0.608112 0
M  V30 4025 H 369.048 -0.751812 0.0168275 0
M  V30 4026 H 371.019 -2.83959 0.917053 0
M  V30 4027 C 369.768 -3.39043 -0.771067 0
M  V30 4028 H 369.091 -3.99517 -0.150374 0
M  V30 4029 H 370.531 -4.07061 -1.1865 0
M  V30 4030 C 368.99 -2.77365 -1.91234 0
M  V30 4031 O 369.52 -2.66434 -3.00626 0
M  V30 4032 N 367.726 -2.35219 -1.70646 0
M  V30 4033 H 367.273 -2.4431 -0.81673 0
M  V30 4034 H 367.231 -1.94294 -2.47178 0
M  V30 4035 N 371.003 -0.499398 -1.49478 0
M  V30 4036 C 371.966 0.268838 -2.27618 0
M  V30 4037 C 372.966 0.895383 -1.33565 0
M  V30 4038 O 374.156 0.760164 -1.56739 0
M  V30 4039 C 371.288 1.38559 -3.11471 0
M  V30 4040 H 372.481 -0.416812 -2.96989 0
M  V30 4041 H 370.034 -0.254313 -1.54217 0
M  V30 4042 H 370.769 2.10544 -2.46661 0
M  V30 4043 H 370.554 0.941797 -3.80621 0
M  V30 4044 H 372.044 1.92678 -3.70493 0
M  V30 4045 N 372.481 1.55866 -0.233164 0
M  V30 4046 C 373.728 1.98603 0.395374 0
M  V30 4047 C 374.056 1.12105 1.58942 0
M  V30 4048 O 373.311 0.168656 1.94972 0
M  V30 4049 C 373.61 3.46856 0.861724 0
M  V30 4050 C 373.276 4.50348 -0.223066 0
M  V30 4051 C 371.938 4.78371 -0.521038 0
M  V30 4052 C 374.29 5.12355 -0.956124 0
M  V30 4053 C 371.618 5.6568 -1.55638 0
M  V30 4054 C 373.97 6.00786 -1.98089 0
M  V30 4055 C 372.634 6.27148 -2.28565 0
M  V30 4056 H 371.904 0.726739 0.144677 0
M  V30 4057 H 374.551 1.88491 -0.338114 0
M  V30 4058 H 372.856 3.5423 1.67418 0
M  V30 4059 H 374.553 3.77302 1.35809 0
M  V30 4060 H 371.143 4.28596 0.0193234 0
M  V30 4061 H 375.327 4.90765 -0.739166 0
M  V30 4062 H 370.583 5.84365 -1.798 0
M  V30 4063 H 374.757 6.4788 -2.55391 0
M  V30 4064 H 372.384 6.94597 -3.08932 0
M  V30 4065 N 373.959 -0.0401083 1.57549 0
M  V30 4066 C 375.375 -0.395556 1.54621 0
M  V30 4067 C 375.575 -1.77281 0.957799 0
M  V30 4068 O 374.631 -2.45888 0.574031 0
M  V30 4069 C 375.944 -0.307535 2.99123 0
M  V30 4070 C 377.492 -0.385425 3.10618 0
M  V30 4071 C 377.967 -0.326973 4.56831 0
M  V30 4072 N 379.458 -0.386102 4.61588 0
M  V30 4073 C 380.193 -0.363591 5.72246 0
M  V30 4074 N 379.689 -0.29402 6.92176 0
M  V30 4075 N 381.482 -0.412503 5.60584 0
M  V30 4076 H 373.633 0.861325 1.94152 0
M  V30 4077 H 375.896 0.326445 0.890021 0
M  V30 4078 H 375.602 0.638461 3.45856 0
M  V30 4079 H 375.476 -1.10552 3.60636 0
M  V30 4080 H 377.863 -1.32185 2.63839 0
M  V30 4081 H 377.944 0.44171 2.51957 0
M  V30 4082 H 377.588 0.605738 5.04275 0
M  V30 4083 H 377.518 -1.17207 5.13391 0
M  V30 4084 H 380.009 -0.442832 3.75296 0
M  V30 4085 H 380.322 -0.28164 7.72287 0
M  V30 4086 H 378.667 -0.260232 6.94513 0
M  V30 4087 H 381.858 -0.464769 4.65787 0
M  V30 4088 H 382.031 -0.391492 6.46816 0
M  V30 4089 N 375.437 -1.54477 -0.31217 0
M  V30 4090 C 376.367 -1.87652 -1.38957 0
M  V30 4091 C 377.348 -0.734358 -1.53431 0
M  V30 4092 O 378.533 -0.98911 -1.67123 0
M  V30 4093 C 375.663 -2.11396 -2.75552 0
M  V30 4094 C 374.617 -3.27243 -2.75855 0
M  V30 4095 C 373.943 -3.36382 -4.15633 0
M  V30 4096 C 375.243 -4.64622 -2.38587 0
M  V30 4097 H 376.937 -2.77887 -1.11442 0
M  V30 4098 H 374.483 -1.33707 -0.534655 0
M  V30 4099 H 376.436 -2.33189 -3.51 0
M  V30 4100 H 375.16 -1.17921 -3.04569 0
M  V30 4101 H 373.819 -3.05356 -2.02863 0
M  V30 4102 H 373.467 -2.40445 -4.41809 0
M  V30 4103 H 373.167 -4.14249 -4.1674 0
M  V30 4104 H 374.691 -3.60422 -4.92877 0
M  V30 4105 H 376.105 -4.86219 -3.03749 0
M  V30 4106 H 374.502 -5.45121 -2.50925 0
M  V30 4107 H 375.572 -4.66097 -1.33723 0
M  V30 4108 N 376.915 0.57481 -1.46744 0
M  V30 4109 C 377.845 1.69337 -1.60771 0
M  V30 4110 C 378.826 1.63825 -0.457736 0
M  V30 4111 O 380.011 1.8172 -0.684947 0
M  V30 4112 C 377.141 3.0798 -1.60517 0
M  V30 4113 C 376.095 3.28327 -2.74564 0
M  V30 4114 C 375.421 4.67578 -2.59373 0
M  V30 4115 C 376.721 3.15398 -4.16319 0
M  V30 4116 H 378.415 1.57853 -2.54407 0
M  V30 4117 H 375.961 0.75799 -1.22436 0
M  V30 4118 H 377.914 3.86061 -1.68923 0
M  V30 4119 H 376.638 3.20381 -0.634305 0
M  V30 4120 H 375.297 2.52649 -2.65639 0
M  V30 4121 H 374.945 4.76755 -1.60353 0
M  V30 4122 H 374.645 4.82144 -3.35873 0
M  V30 4123 H 376.169 5.47817 -2.69682 0
M  V30 4124 H 377.583 3.83315 -4.26313 0
M  V30 4125 H 375.98 3.41482 -4.93468 0
M  V30 4126 H 377.05 2.12372 -4.3592 0
M  V30 4127 N 378.394 1.34581 0.820102 0
M  V30 4128 C 379.342 1.26401 1.95258 0
M  V30 4129 C 380.336 0.161553 1.68628 0
M  V30 4130 O 381.542 0.326703 1.7701 0
M  V30 4131 H 377.917 0.392749 0.64129 0
M  V30 4132 H 379.888 2.22105 1.99279 0
M  V30 4133 C 378.637 1.03919 3.31807 0
M  V30 4134 H 377.96 1.87984 3.52848 0
M  V30 4135 H 379.4 1.02232 4.11491 0
M  V30 4136 C 377.859 -0.257433 3.35915 0
M  V30 4137 O 378.389 -1.25784 3.81499 0
M  V30 4138 N 376.595 -0.291524 2.89134 0
M  V30 4139 H 376.142 0.523161 2.52232 0
M  V30 4140 H 376.1 -1.15883 2.92264 0
M  V30 4141 N 379.872 -1.04064 1.18357 0
M  V30 4142 C 380.819 -2.12077 0.910603 0
M  V30 4143 C 381.789 -1.65421 -0.15 0
M  V30 4144 O 382.974 -1.90797 -0.0103614 0
M  V30 4145 C 380.114 -3.42252 0.442472 0
M  V30 4146 C 379.227 -4.0252 1.5685 0
M  V30 4147 C 378.362 -5.20657 1.05309 0
M  V30 4148 C 377.401 -5.72955 2.1538 0
M  V30 4149 N 376.538 -6.8238 1.65233 0
M  V30 4150 H 381.378 -2.34764 1.83548 0
M  V30 4151 H 378.915 -1.15157 0.915279 0
M  V30 4152 H 380.873 -4.16921 0.152534 0
M  V30 4153 H 379.503 -3.19712 -0.445428 0
M  V30 4154 H 378.555 -3.25178 1.97391 0
M  V30 4155 H 379.867 -4.37362 2.39824 0
M  V30 4156 H 379.021 -6.0244 0.717677 0
M  V30 4157 H 377.76 -4.87318 0.19293 0
M  V30 4158 H 376.765 -4.89793 2.49766 0
M  V30 4159 H 377.99 -6.08337 3.01832 0
M  V30 4160 H 375.936 -6.50917 0.815064 0
M  V30 4161 H 375.853 -7.16286 2.41805 0
M  V30 4162 H 377.121 -7.67788 1.34619 0
M  V30 4163 N 381.35 -0.985608 -1.22978 0
M  V30 4164 C 382.58 -0.674603 -1.95276 0
M  V30 4165 C 382.988 0.763483 -1.73111 0
M  V30 4166 O 382.331 1.52601 -1.02268 0
M  V30 4167 C 382.393 -0.891597 -3.48268 0
M  V30 4168 C 382.057 -2.31275 -3.94158 0
M  V30 4169 C 383.054 -3.29179 -4.02415 0
M  V30 4170 C 380.739 -2.64524 -4.27004 0
M  V30 4171 C 382.733 -4.58407 -4.42879 0
M  V30 4172 C 380.42 -3.93974 -4.67149 0
M  V30 4173 C 381.418 -4.90727 -4.75053 0
M  V30 4174 O 381.106 -6.17865 -5.14294 0
M  V30 4175 H 380.838 -0.249251 -0.628371 0
M  V30 4176 H 383.392 -1.32106 -1.5728 0
M  V30 4177 H 381.622 -0.187962 -3.86243 0
M  V30 4178 H 383.311 -0.576957 -4.01779 0
M  V30 4179 H 384.077 -3.04823 -3.77237 0
M  V30 4180 H 379.956 -1.89923 -4.2006 0
M  V30 4181 H 383.5 -5.33926 -4.48964 0
M  V30 4182 H 379.397 -4.18122 -4.91777 0
M  V30 4183 H 380.165 -6.21694 -5.32389 0
M  V30 4184 N 382.828 1.3818 -0.7579 0
M  V30 4185 C 384.244 1.5353 -0.435972 0
M  V30 4186 C 384.444 1.71961 1.05032 0
M  V30 4187 O 383.5 1.73307 1.83633 0
M  V30 4188 C 384.813 2.73989 -1.23898 0
M  V30 4189 C 386.361 2.87841 -1.22949 0
M  V30 4190 C 386.836 4.11266 -2.01554 0
M  V30 4191 N 388.327 4.18352 -1.98837 0
M  V30 4192 C 389.062 5.12856 -2.5645 0
M  V30 4193 N 388.558 6.13005 -3.22794 0
M  V30 4194 N 390.351 5.05238 -2.46356 0
M  V30 4195 H 382.502 1.24467 -1.7211 0
M  V30 4196 H 384.765 0.604982 -0.729864 0
M  V30 4197 H 384.471 2.66789 -2.29165 0
M  V30 4198 H 384.345 3.67294 -0.858764 0
M  V30 4199 H 386.732 2.9452 -0.184854 0
M  V30 4200 H 386.813 1.95534 -1.64924 0
M  V30 4201 H 386.457 4.05349 -3.06031 0
M  V30 4202 H 386.387 5.02661 -1.5697 0
M  V30 4203 H 388.878 3.46628 -1.50524 0
M  V30 4204 H 389.191 6.81619 -3.64165 0
M  V30 4205 H 387.536 6.13325 -3.2689 0
M  V30 4206 H 390.727 4.25938 -1.9415 0
M  V30 4207 H 390.9 5.78707 -2.91552 0
M  V30 4208 N 384.306 0.507319 1.49211 0
M  V30 4209 C 385.254 -0.281364 2.30892 0
M  V30 4210 C 386.248 -0.95687 1.39787 0
M  V30 4211 O 387.454 -0.883838 1.56807 0
M  V30 4212 H 383.829 -0.109597 0.743971 0
M  V30 4213 H 385.8 0.42744 2.95323 0
M  V30 4214 C 384.549 -1.32918 3.21291 0
M  V30 4215 H 383.872 -0.818799 3.91326 0
M  V30 4216 H 385.312 -1.85288 3.81372 0
M  V30 4217 C 383.771 -2.35074 2.41333 0
M  V30 4218 O 384.301 -3.4108 2.12197 0
M  V30 4219 N 382.507 -2.07705 2.03241 0
M  V30 4220 H 382.054 -1.2152 2.27136 0
M  V30 4221 H 382.012 -2.76283 1.50051 0
M  V30 4222 N 385.784 -1.5574 0.241426 0
M  V30 4223 C 386.716 -2.18469 -0.693091 0
M  V30 4224 C 387.729 -1.15942 -1.14286 0
M  V30 4225 O 388.918 -1.42832 -1.07058 0
M  V30 4226 C 386.018 -2.7696 -1.95311 0
M  V30 4227 C 385.191 -4.04853 -1.65568 0
M  V30 4228 C 384.25 -4.47715 -2.76474 0
M  V30 4229 O 383.276 -5.14205 -2.44094 0
M  V30 4230 N 384.478 -4.15044 -4.05855 0
M  V30 4231 H 387.243 -2.99292 -0.156388 0
M  V30 4232 H 384.804 -1.61784 0.0611752 0
M  V30 4233 H 386.796 -3.02594 -2.68736 0
M  V30 4234 H 385.366 -2.00326 -2.39975 0
M  V30 4235 H 384.586 -3.86865 -0.756886 0
M  V30 4236 H 385.874 -4.88246 -1.43153 0
M  V30 4237 H 385.272 -3.61654 -4.34998 0
M  V30 4238 H 383.829 -4.45526 -4.75762 0
M  V30 4239 N 387.262 0.0317525 -1.57568 0
M  V30 4240 C 388.492 0.733884 -1.93126 0
M  V30 4241 C 388.9 1.69563 -0.839352 0
M  V30 4242 O 388.243 1.82681 0.193175 0
M  V30 4243 C 388.305 1.54798 -3.24465 0
M  V30 4244 C 387.969 0.751304 -4.50782 0
M  V30 4245 C 388.966 0.0527632 -5.19873 0
M  V30 4246 C 386.651 0.706639 -4.97305 0
M  V30 4247 C 388.645 -0.679774 -6.33765 0
M  V30 4248 C 386.332 -0.0296449 -6.11093 0
M  V30 4249 C 387.33 -0.721614 -6.79177 0
M  V30 4250 O 387.018 -1.44595 -7.90789 0
M  V30 4251 H 386.75 0.211459 -0.642076 0
M  V30 4252 H 389.304 -0.00585615 -2.05399 0
M  V30 4253 H 387.534 2.33147 -3.08512 0
M  V30 4254 H 389.223 2.13247 -3.4537 0
M  V30 4255 H 389.989 0.0783188 -4.84937 0
M  V30 4256 H 385.868 1.23474 -4.44157 0
M  V30 4257 H 389.412 -1.22042 -6.86842 0
M  V30 4258 H 385.309 -0.0571331 -6.45475 0
M  V30 4259 H 386.077 -1.35935 -8.07133 0
M  V30 4260 N 388.74 1.54641 0.303973 0
M  V30 4261 C 389.98 1.75516 1.04755 0
M  V30 4262 C 390.344 0.528211 1.84591 0
M  V30 4263 O 391.545 0.614645 2.61678 0
M  V30 4264 C 389.816 3.00685 1.93193 0
M  V30 4265 S 391.375 3.42549 2.74237 0
M  V30 4266 H 388.193 0.616987 0.353339 0
M  V30 4267 H 390.795 1.92842 0.321292 0
M  V30 4268 H 389.499 3.8811 1.33411 0
M  V30 4269 H 389.03 2.85937 2.70191 0
M  V30 4270 H 391.045 2.99386 3.95705 0
M  V30 4271 N 390.218 -0.567019 1.47046 0
M  V30 4272 C 391.446 -1.35027 1.56765 0
M  V30 4273 C 391.861 -1.8758 0.214316 0
M  V30 4274 O 391.218 -1.64471 -0.790919 0
M  V30 4275 C 391.269 -2.52698 2.58507 0
M  V30 4276 O 390.99 -2.0232 3.88585 0
M  V30 4277 C 392.491 -3.45043 2.78316 0
M  V30 4278 H 389.711 -0.41195 0.529658 0
M  V30 4279 H 392.255 -0.687832 1.92585 0
M  V30 4280 H 390.41 -3.149 2.25648 0
M  V30 4281 H 390.824 -2.79068 4.44096 0
M  V30 4282 H 392.298 -4.2405 3.53391 0
M  V30 4283 H 392.775 -3.97971 1.85784 0
M  V30 4284 H 393.381 -2.88665 3.12334 0
M  V30 4285 N 391.696 -1.35014 -0.812953 0
M  V30 4286 C 392.943 -1.27931 -1.56971 0
M  V30 4287 C 393.271 0.148034 -1.93936 0
M  V30 4288 O 392.526 1.11175 -1.61054 0
M  V30 4289 C 392.825 -2.12524 -2.87347 0
M  V30 4290 C 392.491 -3.61401 -2.6963 0
M  V30 4291 C 391.153 -4.01983 -2.64506 0
M  V30 4292 C 393.505 -4.55894 -2.52607 0
M  V30 4293 C 390.833 -5.35235 -2.40293 0
M  V30 4294 C 393.185 -5.89336 -2.29925 0
M  V30 4295 C 391.849 -6.2907 -2.23219 0
M  V30 4296 H 391.119 -0.468131 -0.574399 0
M  V30 4297 H 393.766 -1.66851 -0.939836 0
M  V30 4298 H 392.071 -1.66463 -3.54679 0
M  V30 4299 H 393.768 -2.04383 -3.45005 0
M  V30 4300 H 390.358 -3.29193 -2.74463 0
M  V30 4301 H 394.542 -4.25431 -2.55583 0
M  V30 4302 H 389.798 -5.65028 -2.33566 0
M  V30 4303 H 393.972 -6.62139 -2.15743 0
M  V30 4304 H 391.599 -7.32256 -2.04219 0
M  V30 4305 N 393.175 1.03435 -1.18907 0
M  V30 4306 C 394.123 2.13703 -0.918353 0
M  V30 4307 C 395.117 1.68947 0.123767 0
M  V30 4308 O 396.323 1.79983 -0.0249701 0
M  V30 4309 H 392.698 0.698112 -0.279542 0
M  V30 4310 H 394.669 2.33731 -1.85506 0
M  V30 4311 C 393.418 3.44542 -0.467532 0
M  V30 4312 H 392.741 3.79394 -1.26095 0
M  V30 4313 H 394.181 4.22812 -0.317164 0
M  V30 4314 C 392.64 3.26829 0.817588 0
M  V30 4315 O 393.17 3.54975 1.88031 0
M  V30 4316 N 391.376 2.80139 0.772677 0
M  V30 4317 H 390.923 2.57434 -0.0923883 0
M  V30 4318 H 390.881 2.68668 1.63294 0
M  V30 4319 N 394.653 0.992116 1.22453 0
M  V30 4320 C 395.93 0.583508 1.86694 0
M  V30 4321 C 396.31 -0.9392 1.89056 0
M  V30 4322 O 395.658 -1.82081 1.38053 0
M  V30 4323 C 395.868 1.20304 3.2761 0
M  V30 4324 C 397.216 1.30308 4.0411 0
M  V30 4325 O 398.24 1.15737 3.36873 0
M  V30 4326 O 397.099 1.53615 5.24466 0
M  V30 4327 H 394.193 0.198129 0.802916 0
M  V30 4328 H 396.739 1.08794 1.30238 0
M  V30 4329 H 395.511 2.24461 3.2052 0
M  V30 4330 H 395.134 0.684144 3.9167 0
M  V30 4331 N 396.131 -1.37776 0.765217 0
M  V30 4332 C 397.408 -1.93975 0.251596 0
M  V30 4333 C 397.788 -1.69949 -1.25222 0
M  V30 4334 O 397.136 -1.04457 -2.03226 0
M  V30 4335 C 397.346 -3.43487 0.617895 0
M  V30 4336 C 398.694 -4.20564 0.584029 0
M  V30 4337 O 399.718 -3.5182 0.556888 0
M  V30 4338 O 398.577 -5.43138 0.605291 0
M  V30 4339 H 395.671 -0.82509 0.0561806 0
M  V30 4340 H 398.217 -1.47101 0.846128 0
M  V30 4341 H 396.989 -3.5453 1.65602 0
M  V30 4342 H 396.612 -3.976 -0.00403411 0
M  V30 4343 N 397.609 -0.515225 -1.4894 0
M  V30 4344 C 398.858 0.0261361 -2.01683 0
M  V30 4345 C 399.171 1.36719 -1.39883 0
M  V30 4346 O 400.377 1.99606 -1.84037 0
M  V30 4347 C 398.833 0.0970111 -3.59769 0
M  V30 4348 C 398.441 -1.23825 -4.30548 0
M  V30 4349 C 400.185 0.587981 -4.20408 0
M  V30 4350 C 398.092 -1.12877 -5.80528 0
M  V30 4351 H 397.022 0.0135398 -0.753878 0
M  V30 4352 H 399.673 -0.656787 -1.71343 0
M  V30 4353 H 398.055 0.844694 -3.86886 0
M  V30 4354 H 399.229 -2.00034 -4.15118 0
M  V30 4355 H 397.544 -1.66379 -3.81716 0
M  V30 4356 H 400.141 0.68763 -5.3026 0
M  V30 4357 H 400.484 1.59026 -3.84729 0
M  V30 4358 H 401.017 -0.103582 -3.97665 0
M  V30 4359 H 397.756 -2.10575 -6.20756 0
M  V30 4360 H 397.276 -0.407799 -5.98412 0
M  V30 4361 H 398.955 -0.813332 -6.41868 0
M  V30 4362 N 399.087 1.5561 -0.249682 0
M  V30 4363 C 400.019 2.18834 0.681496 0
M  V30 4364 C 401.032 1.16546 1.1367 0
M  V30 4365 O 402.221 1.43397 1.06299 0
M  V30 4366 C 399.321 2.77992 1.9384 0
M  V30 4367 C 398.494 4.05725 1.63419 0
M  V30 4368 C 397.553 4.49174 2.74096 0
M  V30 4369 O 396.579 5.15492 2.41364 0
M  V30 4370 N 397.781 4.17191 4.03649 0
M  V30 4371 H 400.546 2.9937 0.140514 0
M  V30 4372 H 398.107 1.6175 -0.0697541 0
M  V30 4373 H 400.099 3.04015 2.67127 0
M  V30 4374 H 398.669 2.01596 2.38909 0
M  V30 4375 H 397.889 3.87261 0.736358 0
M  V30 4376 H 399.177 4.88999 1.40562 0
M  V30 4377 H 398.575 3.63955 4.33074 0
M  V30 4378 H 397.132 4.48043 4.73393 0
M  V30 4379 N 400.565 -0.0233959 1.57583 0
M  V30 4380 C 401.813 -0.711654 1.89156 0
M  V30 4381 C 402.134 -1.75591 0.848096 0
M  V30 4382 O 401.404 -1.95547 -0.117566 0
M  V30 4383 H 399.984 -0.265835 0.698098 0
M  V30 4384 H 402.646 0.0119948 1.94896 0
M  V30 4385 H 401.742 -1.19766 2.88206 0
M  V30 4386 N 402.043 -1.548 -0.295768 0
M  V30 4387 C 403.271 -1.78327 -1.04914 0
M  V30 4388 C 403.686 -0.545316 -1.80753 0
M  V30 4389 O 403.043 0.485013 -1.75937 0
M  V30 4390 C 403.094 -2.99418 -2.02561 0
M  V30 4391 O 402.815 -4.18431 -1.29798 0
M  V30 4392 C 404.316 -3.35375 -2.89895 0
M  V30 4393 H 401.536 -0.594618 -0.310918 0
M  V30 4394 H 404.08 -2.01763 -0.333454 0
M  V30 4395 H 402.235 -2.78175 -2.69624 0
M  V30 4396 H 402.649 -4.86736 -1.95419 0
M  V30 4397 H 404.123 -4.23332 -3.54251 0
M  V30 4398 H 404.6 -2.53761 -3.58472 0
M  V30 4399 H 405.206 -3.58796 -2.28355 0
M  V30 4400 N 403.521 0.559213 -1.47345 0
M  V30 4401 C 404.484 1.64854 -1.59235 0
M  V30 4402 C 405.484 1.53851 -0.467607 0
M  V30 4403 O 406.674 1.58045 -0.732617 0
M  V30 4404 C 403.806 3.04388 -1.53496 0
M  V30 4405 H 404.999 1.55662 -2.56339 0
M  V30 4406 H 402.552 0.778973 -1.35505 0
M  V30 4407 H 403.287 3.19115 -0.577604 0
M  V30 4408 H 403.072 3.13783 -2.35123 0
M  V30 4409 H 404.562 3.83642 -1.6495 0
M  V30 4410 N 404.999 1.35443 0.805782 0
M  V30 4411 C 406.224 1.32037 1.59941 0
M  V30 4412 C 406.649 -0.0994215 1.87837 0
M  V30 4413 O 406.007 -1.06648 1.46615 0
M  V30 4414 C 406.055 2.13354 2.90711 0
M  V30 4415 O 405.159 1.5148 3.83572 0
M  V30 4416 H 404.5 0.452666 0.485787 0
M  V30 4417 H 407.03 1.78496 1.00002 0
M  V30 4418 H 407.04 2.25338 3.40128 0
M  V30 4419 H 405.715 3.16572 2.69732 0
M  V30 4420 H 404.292 1.4834 3.42125 0
M  V30 4421 N 406.477 -1.02803 1.19454 0
M  V30 4422 C 407.723 -1.76478 0.999171 0
M  V30 4423 C 408.056 -1.88456 -0.468828 0
M  V30 4424 O 407.331 -1.40198 -1.34814 0
M  V30 4425 C 407.614 -3.19044 1.66981 0
M  V30 4426 C 407.467 -3.14932 3.21151 0
M  V30 4427 C 408.786 -4.17456 1.39349 0
M  V30 4428 H 405.905 -0.640614 0.364393 0
M  V30 4429 H 408.547 -1.20005 1.47305 0
M  V30 4430 H 406.697 -3.67263 1.2669 0
M  V30 4431 H 408.369 -2.74605 3.70661 0
M  V30 4432 H 406.612 -2.52625 3.52652 0
M  V30 4433 H 407.283 -4.1566 3.63223 0
M  V30 4434 H 409.759 -3.77842 1.74283 0
M  V30 4435 H 408.635 -5.154 1.88823 0
M  V30 4436 H 408.896 -4.40949 0.318813 0
M  V30 4437 N 407.956 -0.998596 -1.21925 0
M  V30 4438 C 408.919 -0.558679 -2.22287 0
M  V30 4439 C 409.919 0.361525 -1.56683 0
M  V30 4440 O 411.109 0.152695 -1.73529 0
M  V30 4441 C 408.241 0.18661 -3.40389 0
M  V30 4442 H 409.434 -1.4463 -2.62721 0
M  V30 4443 H 406.987 -0.786413 -1.35075 0
M  V30 4444 H 407.722 1.08996 -3.05435 0
M  V30 4445 H 407.507 -0.474188 -3.89222 0
M  V30 4446 H 408.997 0.482367 -4.14805 0
M  V30 4447 N 409.434 1.37368 -0.772513 0
M  V30 4448 C 410.68 1.99969 -0.337681 0
M  V30 4449 C 411.013 1.61184 1.08321 0
M  V30 4450 O 410.288 0.858395 1.74533 0
M  V30 4451 C 410.571 3.56858 -0.482121 0
M  V30 4452 C 410.424 4.0555 -1.94549 0
M  V30 4453 C 411.743 4.39955 0.113143 0
M  V30 4454 H 408.862 0.726464 -0.124171 0
M  V30 4455 H 411.504 1.63034 -0.975699 0
M  V30 4456 H 409.654 3.88452 0.0610361 0
M  V30 4457 H 411.326 3.84518 -2.54841 0
M  V30 4458 H 409.569 3.57715 -2.45403 0
M  V30 4459 H 410.24 5.14587 -1.9976 0
M  V30 4460 H 412.716 4.14623 -0.35031 0
M  V30 4461 H 411.592 5.48897 -0.0180514 0
M  V30 4462 H 411.853 4.25403 1.20354 0
M  V30 4463 N 410.912 0.523116 1.48665 0
M  V30 4464 C 411.875 -0.232592 2.28017 0
M  V30 4465 C 412.875 -0.874021 1.34972 0
M  V30 4466 O 414.065 -0.735132 1.57929 0
M  V30 4467 C 411.197 -1.33586 3.13636 0
M  V30 4468 H 412.39 0.464008 2.96289 0
M  V30 4469 H 409.943 0.278816 1.53793 0
M  V30 4470 H 410.678 -2.06593 2.4998 0
M  V30 4471 H 410.463 -0.881125 3.82071 0
M  V30 4472 H 411.953 -1.86759 3.73511 0
M  V30 4473 N 412.39 -1.55475 0.257931 0
M  V30 4474 C 413.638 -1.98813 -0.363009 0
M  V30 4475 C 413.959 -1.14757 -1.57657 0
M  V30 4476 O 413.229 -0.232956 -1.9451 0
M  V30 4477 H 411.809 -0.734308 -0.137113 0
M  V30 4478 H 414.471 -1.9156 0.359281 0
M  V30 4479 H 413.567 -3.04941 -0.664634 0
M  V30 4480 N 413.868 0.0150385 -1.57593 0
M  V30 4481 C 414.798 1.01047 -2.10503 0
M  V30 4482 C 415.779 1.36816 -1.01071 0
M  V30 4483 O 416.964 1.45455 -1.28672 0
M  V30 4484 C 414.094 2.30708 -2.59598 0
M  V30 4485 C 413.048 2.09142 -3.73421 0
M  V30 4486 C 412.374 3.44685 -4.08774 0
M  V30 4487 C 413.674 1.46619 -5.01298 0
M  V30 4488 H 415.368 0.569978 -2.93925 0
M  V30 4489 H 412.914 0.272724 -1.41394 0
M  V30 4490 H 414.867 3.00687 -2.95238 0
M  V30 4491 H 413.591 2.76843 -1.73279 0
M  V30 4492 H 412.25 1.41592 -3.38153 0
M  V30 4493 H 411.898 3.88495 -3.195 0
M  V30 4494 H 411.598 3.31077 -4.8545 0
M  V30 4495 H 413.122 4.16004 -4.4696 0
M  V30 4496 H 414.536 2.06535 -5.34805 0
M  V30 4497 H 412.933 1.43544 -5.82679 0
M  V30 4498 H 414.003 0.433611 -4.82957 0
M  V30 4499 N 415.346 1.54954 0.287554 0
M  V30 4500 C 416.276 1.89839 1.35954 0
M  V30 4501 C 417.257 0.758675 1.52244 0
M  V30 4502 O 418.442 1.01557 1.65529 0
M  V30 4503 C 415.572 2.15753 2.72154 0
M  V30 4504 C 414.526 3.3159 2.70614 0
M  V30 4505 C 413.852 3.42952 4.10229 0
M  V30 4506 C 415.152 4.68359 2.31165 0
M  V30 4507 H 416.846 2.79625 1.07007 0
M  V30 4508 H 414.392 1.3454 0.513316 0
M  V30 4509 H 416.345 2.38743 3.47246 0
M  V30 4510 H 415.069 1.22752 3.02654 0
M  V30 4511 H 413.728 3.08545 1.97979 0
M  V30 4512 H 413.376 2.47443 4.37928 0
M  V30 4513 H 413.076 4.20826 4.10097 0
M  V30 4514 H 414.6 3.68218 4.87081 0
M  V30 4515 H 416.014 4.9099 2.95976 0
M  V30 4516 H 414.411 5.49044 2.42221 0
M  V30 4517 H 415.481 4.68165 1.26291 0
M  V30 4518 N 416.824 -0.551391 1.4764 0
M  V30 4519 C 417.787 -1.64007 1.60107 0
M  V30 4520 C 418.787 -1.53601 0.47576 0
M  V30 4521 O 419.977 -1.57655 0.740988 0
M  V30 4522 C 417.109 -3.03569 1.55108 0
M  V30 4523 H 418.302 -1.543 2.57161 0
M  V30 4524 H 415.855 -0.771776 1.35917 0
M  V30 4525 H 416.59 -3.18804 0.594519 0
M  V30 4526 H 416.375 -3.12532 2.36783 0
M  V30 4527 H 417.865 -3.82762 1.66982 0
M  V30 4528 N 418.302 -1.35869 -0.798587 0
M  V30 4529 C 419.265 -1.29307 -1.89242 0
M  V30 4530 C 420.265 -0.202747 -1.59517 0
M  V30 4531 O 421.455 -0.456957 -1.681 0
M  V30 4532 C 418.587 -1.00229 -3.25833 0
M  V30 4533 H 419.78 -2.26576 -1.96478 0
M  V30 4534 H 417.333 -1.20509 -0.995358 0
M  V30 4535 H 418.068 -0.033801 -3.24282 0
M  V30 4536 H 417.853 -1.79121 -3.48795 0
M  V30 4537 H 419.343 -0.98219 -4.05885 0
M  V30 4538 N 419.78 1.02168 -1.19998 0
M  V30 4539 C 420.71 2.12488 -0.96804 0
M  V30 4540 C 421.691 1.69799 0.101185 0
M  V30 4541 O 422.876 1.94121 -0.0552993 0
M  V30 4542 C 420.006 3.43479 -0.513776 0
M  V30 4543 C 418.96 3.99884 -1.52566 0
M  V30 4544 C 418.286 5.26582 -0.928214 0
M  V30 4545 C 419.586 4.33861 -2.90795 0
M  V30 4546 H 421.28 2.32149 -1.89069 0
M  V30 4547 H 418.826 1.11564 -0.910468 0
M  V30 4548 H 420.779 4.20036 -0.338774 0
M  V30 4549 H 419.503 3.23561 0.444493 0
M  V30 4550 H 418.162 3.25429 -1.68794 0
M  V30 4551 H 417.81 5.02986 0.0378289 0
M  V30 4552 H 417.51 5.65284 -1.60397 0
M  V30 4553 H 419.034 6.05799 -0.764167 0
M  V30 4554 H 420.448 5.01327 -2.78109 0
M  V30 4555 H 418.845 4.83664 -3.55231 0
M  V30 4556 H 419.915 3.42848 -3.42904 0
M  V30 4557 N 421.258 1.00505 1.21394 0
M  V30 4558 C 422.674 0.717873 1.42544 0
M  V30 4559 C 422.874 -0.706936 1.88692 0
M  V30 4560 O 421.93 -1.47627 2.04847 0
M  V30 4561 C 423.243 1.73377 2.45684 0
M  V30 4562 C 424.791 1.75059 2.59467 0
M  V30 4563 C 425.266 2.75545 3.6584 0
M  V30 4564 N 426.757 2.74213 3.73311 0
M  V30 4565 C 427.492 3.48626 4.55245 0
M  V30 4566 N 426.988 4.32678 5.41075 0
M  V30 4567 N 428.781 3.37276 4.49668 0
M  V30 4568 H 420.932 1.92506 0.897503 0
M  V30 4569 H 423.195 0.830919 0.456375 0
M  V30 4570 H 422.901 2.75395 2.18748 0
M  V30 4571 H 422.775 1.53647 3.44489 0
M  V30 4572 H 425.162 0.737337 2.8574 0
M  V30 4573 H 425.243 1.98861 1.60897 0
M  V30 4574 H 424.887 3.77028 3.40313 0
M  V30 4575 H 424.817 2.49009 4.64007 0
M  V30 4576 H 427.308 2.13234 3.11993 0
M  V30 4577 H 427.621 4.86253 6.00648 0
M  V30 4578 H 425.966 4.3676 5.40616 0
M  V30 4579 H 429.157 2.71043 3.81646 0
M  V30 4580 H 429.33 3.95524 5.13288 0
M  V30 4581 N 422.737 -1.36956 0.779787 0
M  V30 4582 C 423.986 -1.98738 0.344405 0
M  V30 4583 C 424.299 -1.62596 -1.08728 0
M  V30 4584 O 425.505 -2.1754 -1.62445 0
M  V30 4585 C 423.961 -3.5544 0.564829 0
M  V30 4586 C 423.569 -4.00514 2.0073 0
M  V30 4587 C 425.313 -4.24059 0.193471 0
M  V30 4588 C 423.22 -5.49957 2.17489 0
M  V30 4589 H 422.15 -0.743561 0.12503 0
M  V30 4590 H 424.801 -1.56381 0.960057 0
M  V30 4591 H 423.183 -3.95817 -0.120397 0
M  V30 4592 H 424.357 -3.71362 2.72814 0
M  V30 4593 H 422.672 -3.44703 2.336 0
M  V30 4594 H 425.269 -5.33874 0.297097 0
M  V30 4595 H 425.612 -4.07378 -0.857263 0
M  V30 4596 H 426.145 -3.89012 0.831556 0
M  V30 4597 H 422.884 -5.71574 3.2091 0
M  V30 4598 H 422.404 -5.80767 1.49899 0
M  V30 4599 H 424.083 -6.16043 1.97738 0
M  V30 4600 N 424.215 -0.530993 -1.48385 0
M  V30 4601 C 425.443 -0.00134122 -2.069 0
M  V30 4602 C 425.858 1.2805 -1.3874 0
M  V30 4603 O 425.215 1.76204 -0.475244 0
M  V30 4604 C 425.266 0.225256 -3.60798 0
M  V30 4605 O 424.987 -1.0058 -4.26398 0
M  V30 4606 C 426.488 0.795172 -4.3611 0
M  V30 4607 H 423.708 -0.0339704 -0.67014 0
M  V30 4608 H 426.252 -0.736926 -1.90761 0
M  V30 4609 H 424.407 0.910891 -3.76539 0
M  V30 4610 H 424.821 -0.787165 -5.1856 0
M  V30 4611 H 426.295 0.903143 -5.44562 0
M  V30 4612 H 426.772 1.80031 -4.00606 0
M  V30 4613 H 427.378 0.146069 -4.25049 0
M  V30 4614 N 425.693 1.55336 -0.266172 0
M  V30 4615 C 426.64 2.22172 0.625165 0
M  V30 4616 C 427.61 1.19211 1.15663 0
M  V30 4617 O 428.795 1.47723 1.20758 0
M  V30 4618 C 425.935 2.93972 1.8076 0
M  V30 4619 C 425.048 4.11632 1.31084 0
M  V30 4620 C 424.183 4.71099 2.45436 0
M  V30 4621 C 423.222 5.8097 1.92718 0
M  V30 4622 N 422.359 6.34538 3.00509 0
M  V30 4623 H 427.199 2.9796 0.0485582 0
M  V30 4624 H 424.736 1.47095 0.0122024 0
M  V30 4625 H 426.694 3.33811 2.50251 0
M  V30 4626 H 425.324 2.20623 2.35638 0
M  V30 4627 H 424.376 3.76975 0.509326 0
M  V30 4628 H 425.688 4.90893 0.884633 0
M  V30 4629 H 424.842 5.13612 3.22936 0
M  V30 4630 H 423.581 3.91096 2.91368 0
M  V30 4631 H 422.586 5.37916 1.13695 0
M  V30 4632 H 423.811 6.62836 1.47733 0
M  V30 4633 H 421.757 5.57433 3.45839 0
M  V30 4634 H 421.674 7.09046 2.62279 0
M  V30 4635 H 422.942 6.81709 3.78011 0
M  V30 4636 N 427.171 -0.0066808 1.57599 0
M  V30 4637 C 428.119 -1.01851 2.09115 0
M  V30 4638 C 429.113 -1.36021 1.00969 0
M  V30 4639 O 430.319 -1.34663 1.19439 0
M  V30 4640 H 426.694 -0.346083 0.667631 0
M  V30 4641 H 428.665 -0.558394 2.93129 0
M  V30 4642 C 427.414 -2.30374 2.60429 0
M  V30 4643 H 426.737 -2.04947 3.43273 0
M  V30 4644 H 428.177 -2.99466 3.00161 0
M  V30 4645 C 426.636 -3.00893 1.51542 0
M  V30 4646 O 427.166 -3.91614 0.894484 0
M  V30 4647 N 425.372 -2.62603 1.2445 0
M  V30 4648 H 424.919 -1.88911 1.75129 0
M  V30 4649 H 424.877 -3.10101 0.518137 0
M  V30 4650 N 428.649 -1.55105 -0.279332 0
M  V30 4651 C 429.596 -1.8755 -1.34513 0
M  V30 4652 C 430.566 -0.726384 -1.49375 0
M  V30 4653 O 431.751 -0.977063 -1.63884 0
M  V30 4654 C 428.891 -2.14738 -2.70151 0
M  V30 4655 C 428.004 -3.42285 -2.63562 0
M  V30 4656 C 427.139 -3.59206 -3.91337 0
M  V30 4657 C 426.178 -4.80467 -3.79233 0
M  V30 4658 N 425.315 -4.94079 -4.98829 0
M  V30 4659 H 430.155 -2.78456 -1.06143 0
M  V30 4660 H 427.692 -1.37867 -0.512936 0
M  V30 4661 H 429.65 -2.28501 -3.49061 0
M  V30 4662 H 428.28 -1.27075 -2.96735 0
M  V30 4663 H 427.332 -3.37029 -1.76397 0
M  V30 4664 H 428.644 -4.31328 -2.50515 0
M  V30 4665 H 427.798 -3.72751 -4.78687 0
M  V30 4666 H 426.537 -2.68337 -4.07243 0
M  V30 4667 H 425.542 -4.66932 -2.90266 0
M  V30 4668 H 426.767 -5.72765 -3.64852 0
M  V30 4669 H 424.713 -4.06139 -5.15158 0
M  V30 4670 H 424.63 -5.77156 -4.8829 0
M  V30 4671 H 425.898 -5.12003 -5.8777 0
M  V30 4672 N 430.127 0.543554 -1.4793 0
M  V30 4673 C 431.057 1.65888 -1.64327 0
M  V30 4674 C 432.038 1.62818 -0.492383 0
M  V30 4675 O 433.223 1.80226 -0.723338 0
M  V30 4676 C 430.353 3.04506 -1.67013 0
M  V30 4677 C 429.307 3.2243 -2.81466 0
M  V30 4678 C 428.633 4.61972 -2.69233 0
M  V30 4679 C 429.933 3.06496 -4.22915 0
M  V30 4680 H 431.627 1.52421 -2.57698 0
M  V30 4681 H 429.173 0.731849 -1.24016 0
M  V30 4682 H 431.126 3.82391 -1.77074 0
M  V30 4683 H 429.85 3.18964 -0.70212 0
M  V30 4684 H 428.509 2.46957 -2.70938 0
M  V30 4685 H 428.157 4.73247 -1.7043 0
M  V30 4686 H 427.857 4.74911 -3.46025 0
M  V30 4687 H 429.381 5.41974 -2.81242 0
M  V30 4688 H 430.795 3.74186 -4.34348 0
M  V30 4689 H 429.192 3.30938 -5.006 0
M  V30 4690 H 430.262 2.03077 -4.40327 0
M  V30 4691 N 431.605 1.3629 0.791371 0
M  V30 4692 C 432.83 1.33726 1.58531 0
M  V30 4693 C 433.255 -0.0794933 1.87932 0
M  V30 4694 O 432.613 -1.05087 1.47738 0
M  V30 4695 C 432.661 2.16425 2.88431 0
M  V30 4696 O 431.765 1.5554 3.81944 0
M  V30 4697 H 431.106 0.457793 0.480959 0
M  V30 4698 H 433.636 1.79547 0.981031 0
M  V30 4699 H 433.646 2.28933 3.37718 0
M  V30 4700 H 432.321 3.19415 2.66359 0
M  V30 4701 H 430.898 1.51961 3.40532 0
M  V30 4702 N 433.083 -1.0153 1.20538 0
M  V30 4703 C 434.36 -1.72327 0.925343 0
M  V30 4704 C 434.74 -2.03383 -0.565547 0
M  V30 4705 O 434.088 -1.69934 -1.52757 0
M  V30 4706 C 434.298 -2.9902 1.79967 0
M  V30 4707 C 435.646 -3.72258 2.04228 0
M  V30 4708 O 436.67 -3.08979 1.77231 0
M  V30 4709 O 435.529 -4.86053 2.4983 0
M  V30 4710 H 432.623 -0.751099 0.346092 0
M  V30 4711 H 435.169 -1.07366 1.31417 0
M  V30 4712 H 433.941 -2.72402 2.80915 0
M  V30 4713 H 433.564 -3.71721 1.41099 0
M  V30 4714 N 434.561 -1.01147 -1.20859 0
M  V30 4715 C 435.493 -0.535546 -2.22855 0
M  V30 4716 C 436.506 0.379323 -1.58319 0
M  V30 4717 O 437.695 0.178489 -1.77605 0
M  V30 4718 C 434.795 0.240962 -3.38042 0
M  V30 4719 C 433.968 -0.674562 -4.32167 0
M  V30 4720 C 433.027 0.053467 -5.26173 0
M  V30 4721 O 432.053 -0.567339 -5.66366 0
M  V30 4722 N 433.255 1.32997 -5.65059 0
M  V30 4723 H 436.02 -1.41268 -2.64317 0
M  V30 4724 H 433.581 -0.888386 -1.35349 0
M  V30 4725 H 435.573 0.737115 -3.97931 0
M  V30 4726 H 434.143 1.01935 -2.95513 0
M  V30 4727 H 433.363 -1.35111 -3.70322 0
M  V30 4728 H 434.651 -1.2974 -4.91981 0
M  V30 4729 H 434.049 1.85536 -5.34409 0
M  V30 4730 H 432.606 1.77095 -6.2728 0
M  V30 4731 N 436.039 1.36541 -0.78704 0
M  V30 4732 C 437.267 2.03561 -0.370199 0
M  V30 4733 C 437.682 1.59347 1.01263 0
M  V30 4734 O 437.039 0.781781 1.64907 0
M  V30 4735 C 437.09 3.59033 -0.421614 0
M  V30 4736 O 436.811 4.01634 -1.7499 0
M  V30 4737 C 438.312 4.433 0.00489763 0
M  V30 4738 H 435.532 0.653346 -0.152904 0
M  V30 4739 H 438.076 1.74566 -1.06522 0
M  V30 4740 H 436.231 3.86746 0.224971 0
M  V30 4741 H 436.645 4.96217 -1.69909 0
M  V30 4742 H 438.119 5.51939 -0.0822184 0
M  V30 4743 H 438.596 4.26285 1.05723 0
M  V30 4744 H 439.202 4.20843 -0.614085 0
M  V30 4745 N 437.518 0.538854 1.48102 0
M  V30 4746 C 438.767 0.0059532 2.01699 0
M  V30 4747 C 439.08 -1.34476 1.42041 0
M  V30 4748 O 440.286 -1.96653 1.87189 0
M  V30 4749 C 438.742 -0.0397627 3.59878 0
M  V30 4750 C 438.35 1.30659 4.28523 0
M  V30 4751 C 440.094 -0.521024 4.2129 0
M  V30 4752 C 438.001 1.22098 5.78659 0
M  V30 4753 H 436.931 -0.00154456 0.753998 0
M  V30 4754 H 439.582 0.683963 1.70277 0
M  V30 4755 H 437.964 -0.783037 3.88181 0
M  V30 4756 H 439.138 2.06613 4.11883 0
M  V30 4757 H 437.453 1.7243 3.79021 0
M  V30 4758 H 440.05 -0.603184 5.31287 0
M  V30 4759 H 440.393 -1.52885 3.8721 0
M  V30 4760 H 440.926 0.166834 3.9745 0
M  V30 4761 H 437.665 2.20424 6.17328 0
M  V30 4762 H 437.185 0.50295 5.97688 0
M  V30 4763 H 438.864 0.915345 6.40492 0
M  V30 4764 N 438.996 -1.55193 0.274407 0
M  V30 4765 C 439.926 -2.25471 -0.607032 0
M  V30 4766 C 440.907 -1.24461 -1.15946 0
M  V30 4767 O 442.092 -1.53179 -1.19373 0
M  V30 4768 C 439.222 -2.97526 -1.79153 0
M  V30 4769 C 438.176 -4.05459 -1.37067 0
M  V30 4770 C 437.502 -4.65084 -2.6382 0
M  V30 4771 C 438.802 -5.19691 -0.521389 0
M  V30 4772 H 440.496 -2.99393 -0.0209343 0
M  V30 4773 H 438.042 -1.43997 -0.00862866 0
M  V30 4774 H 439.995 -3.45402 -2.41404 0
M  V30 4775 H 438.719 -2.21138 -2.40344 0
M  V30 4776 H 437.378 -3.58393 -0.771355 0
M  V30 4777 H 437.026 -3.85365 -3.23268 0
M  V30 4778 H 436.726 -5.37961 -2.36372 0
M  V30 4779 H 438.25 -5.15708 -3.26921 0
M  V30 4780 H 439.664 -5.63623 -1.04889 0
M  V30 4781 H 438.061 -5.99126 -0.341825 0
M  V30 4782 H 439.131 -4.82713 0.46 0
M  V30 4783 N 440.474 -0.00167713 -1.576 0
M  V30 4784 C 441.721 0.68282 -1.90641 0
M  V30 4785 C 442.049 1.73686 -0.875415 0
M  V30 4786 O 441.304 1.95334 0.119575 0
M  V30 4787 C 441.603 1.36189 -3.30435 0
M  V30 4788 C 441.269 0.440887 -4.48739 0
M  V30 4789 C 439.931 0.187312 -4.80835 0
M  V30 4790 C 442.283 -0.193134 -5.20842 0
M  V30 4791 C 439.611 -0.70855 -5.82406 0
M  V30 4792 C 441.963 -1.07688 -6.23367 0
M  V30 4793 C 440.627 -1.33962 -6.53919 0
M  V30 4794 H 439.897 0.249862 -0.697603 0
M  V30 4795 H 442.544 -0.0575642 -1.91413 0
M  V30 4796 H 440.849 2.17636 -3.25794 0
M  V30 4797 H 442.546 1.89759 -3.5326 0
M  V30 4798 H 439.136 0.648694 -4.23663 0
M  V30 4799 H 443.32 -0.0102445 -4.96299 0
M  V30 4800 H 438.576 -0.920097 -6.04437 0
M  V30 4801 H 442.75 -1.57451 -6.78367 0
M  V30 4802 H 440.377 -2.03549 -7.32442 0
M  V30 4803 N 441.952 1.55251 0.271103 0
M  V30 4804 C 442.884 1.84675 1.35749 0
M  V30 4805 C 443.897 0.731366 1.45447 0
M  V30 4806 O 445.086 1.00924 1.4723 0
M  V30 4807 C 442.186 1.99638 2.73857 0
M  V30 4808 C 441.359 3.30312 2.86727 0
M  V30 4809 C 440.418 3.35318 4.05522 0
M  V30 4810 O 439.444 4.08682 3.96191 0
M  V30 4811 N 440.646 2.62857 5.17577 0
M  V30 4812 H 443.411 2.78445 1.10853 0
M  V30 4813 H 440.972 1.55191 0.461218 0
M  V30 4814 H 442.964 2.00355 3.51625 0
M  V30 4815 H 441.534 1.12725 2.91568 0
M  V30 4816 H 440.754 3.42118 1.95829 0
M  V30 4817 H 442.042 4.16488 2.92258 0
M  V30 4818 H 441.44 2.02939 5.28046 0
M  V30 4819 H 439.997 2.69295 5.93568 0
M  V30 4820 N 443.43 -0.535701 1.48216 0
M  V30 4821 C 444.678 -1.28928 1.55634 0
M  V30 4822 C 444.999 -1.93645 0.229514 0
M  V30 4823 O 444.269 -1.81038 -0.74846 0
M  V30 4824 H 442.849 -0.47884 0.573342 0
M  V30 4825 H 445.511 -0.623853 1.84646 0
M  V30 4826 H 444.607 -2.07157 2.33436 0
M  V30 4827 N 444.908 -1.36708 -0.784132 0
M  V30 4828 C 445.871 -1.31307 -1.87859 0
M  V30 4829 C 446.871 -0.219654 -1.59293 0
M  V30 4830 O 448.061 -0.47476 -1.67606 0
M  V30 4831 C 445.193 -1.03679 -3.24751 0
M  V30 4832 H 446.386 -2.28647 -1.94064 0
M  V30 4833 H 443.939 -1.21558 -0.98252 0
M  V30 4834 H 444.674 -0.0681936 -3.24228 0
M  V30 4835 H 444.459 -1.82811 -3.46876 0
M  V30 4836 H 445.949 -1.02518 -4.04821 0
M  V30 4837 N 446.386 1.0089 -1.21074 0
M  V30 4838 C 447.634 1.74262 -1.02358 0
M  V30 4839 C 447.955 1.89869 0.444393 0
M  V30 4840 O 447.225 1.44677 1.32081 0
M  V30 4841 H 445.805 0.645615 -0.375754 0
M  V30 4842 H 448.467 1.21596 -1.52317 0
M  V30 4843 H 447.563 2.74328 -1.4883 0
M  V30 4844 N 447.864 1.01787 1.20321 0
M  V30 4845 C 448.774 0.598898 2.26827 0
M  V30 4846 C 449.79 -0.36418 1.70146 0
M  V30 4847 O 450.966 -0.224812 2.00141 0
M  V30 4848 C 448.031 -0.0549769 3.46656 0
M  V30 4849 C 447.092 0.954205 4.18561 0
M  V30 4850 C 446.325 0.331439 5.3267 0
M  V30 4851 O 446.548 -0.86851 5.63749 0
M  V30 4852 O 445.482 1.0488 5.92692 0
M  V30 4853 H 449.308 1.48562 2.64883 0
M  V30 4854 H 446.893 0.787434 1.26964 0
M  V30 4855 H 448.775 -0.420102 4.19301 0
M  V30 4856 H 447.45 -0.915876 3.10473 0
M  V30 4857 H 446.357 1.37072 3.48083 0
M  V30 4858 H 447.69 1.78511 4.58688 0
M  V30 4859 N 449.342 -1.36122 0.79427 0
M  V30 4860 C 450.305 -2.28309 0.201889 0
M  V30 4861 C 451.305 -1.49041 -0.603603 0
M  V30 4862 O 452.495 -1.68964 -0.423888 0
M  V30 4863 C 449.627 -3.3321 -0.719978 0
M  V30 4864 H 450.82 -2.82208 1.01481 0
M  V30 4865 H 448.373 -1.45768 0.564037 0
M  V30 4866 H 449.108 -2.84475 -1.55706 0
M  V30 4867 H 448.893 -3.91835 -0.144266 0
M  V30 4868 H 450.383 -4.02044 -1.12916 0
M  V30 4869 N 450.82 -0.546701 -1.47814 0
M  V30 4870 C 451.783 0.196287 -2.28358 0
M  V30 4871 C 452.783 0.852437 -1.36346 0
M  V30 4872 O 453.973 0.709913 -1.59078 0
M  V30 4873 C 451.105 1.28579 -3.15722 0
M  V30 4874 H 452.298 -0.511086 -2.95513 0
M  V30 4875 H 449.851 -0.303248 -1.5333 0
M  V30 4876 H 450.586 2.0259 -2.53235 0
M  V30 4877 H 450.371 0.820229 -3.83425 0
M  V30 4878 H 451.861 1.80793 -3.76435 0
M  V30 4879 N 452.299 1.55045 -0.282633 0
M  V30 4880 C 453.229 2.2579 0.595066 0
M  V30 4881 C 454.21 1.25074 1.15284 0
M  V30 4882 O 455.395 1.5381 1.18559 0
M  V30 4883 C 452.525 2.98472 1.77572 0
M  V30 4884 C 451.479 4.0618 1.34914 0
M  V30 4885 C 450.805 4.66477 2.6135 0
M  V30 4886 C 452.105 5.1996 0.493821 0
M  V30 4887 H 453.799 2.994 0.00505653 0
M  V30 4888 H 451.345 1.44 0.000992001 0
M  V30 4889 H 453.298 3.46677 2.39568 0
M  V30 4890 H 452.022 2.2241 2.39168 0
M  V30 4891 H 450.681 3.58797 0.752338 0
M  V30 4892 H 450.329 3.87074 3.2122 0
M  V30 4893 H 450.029 5.39207 2.33516 0
M  V30 4894 H 451.553 5.17435 3.24181 0
M  V30 4895 H 452.967 5.64172 1.01898 0
M  V30 4896 H 451.364 5.99299 0.310047 0
M  V30 4897 H 452.434 4.82462 -0.485593 0
M  V30 4898 N 453.777 0.010035 1.57597 0
M  V30 4899 C 455.025 -0.671371 1.90623 0
M  V30 4900 C 455.346 -1.73753 0.885151 0
M  V30 4901 O 454.616 -1.95752 -0.0760611 0
M  V30 4902 H 453.196 -0.250968 0.703579 0
M  V30 4903 H 455.858 0.0533325 1.94827 0
M  V30 4904 H 454.954 -1.13626 2.90681 0
M  V30 4905 N 455.255 -1.55392 -0.262866 0
M  V30 4906 C 456.504 -1.75679 -0.990943 0
M  V30 4907 C 456.817 -0.57097 -1.87081 0
M  V30 4908 O 458.023 -0.656486 -2.63444 0
M  V30 4909 C 456.479 -3.10964 -1.81188 0
M  V30 4910 C 456.087 -4.37146 -0.980188 0
M  V30 4911 C 457.831 -3.40597 -2.53365 0
M  V30 4912 C 455.738 -5.63466 -1.7961 0
M  V30 4913 H 454.668 -0.654868 -0.373716 0
M  V30 4914 H 457.319 -1.81841 -0.246203 0
M  V30 4915 H 455.701 -2.98867 -2.59797 0
M  V30 4916 H 456.875 -4.60187 -0.237558 0
M  V30 4917 H 455.19 -4.14731 -0.372497 0
M  V30 4918 H 457.787 -4.32186 -3.14833 0
M  V30 4919 H 458.13 -2.6119 -3.24169 0
M  V30 4920 H 458.663 -3.53838 -1.81779 0
M  V30 4921 H 455.402 -6.4565 -1.13209 0
M  V30 4922 H 454.922 -5.44552 -2.51443 0
M  V30 4923 H 456.601 -6.02139 -2.36723 0
M  V30 4924 N 456.733 0.527833 -1.48498 0
M  V30 4925 C 457.696 1.61439 -1.62696 0
M  V30 4926 C 458.696 1.52824 -0.500136 0
M  V30 4927 O 459.886 1.56456 -0.765976 0
M  V30 4928 C 457.018 3.01063 -1.59918 0
M  V30 4929 H 458.211 1.50189 -2.59583 0
M  V30 4930 H 455.764 0.750055 -1.37127 0
M  V30 4931 H 456.499 3.17818 -0.645163 0
M  V30 4932 H 456.284 3.08725 -2.41726 0
M  V30 4933 H 457.774 3.80057 -1.73051 0
M  V30 4934 N 458.211 1.37122 0.776871 0
M  V30 4935 C 459.161 1.28989 1.88005 0
M  V30 4936 C 460.145 0.178765 1.59904 0
M  V30 4937 O 461.337 0.412705 1.72121 0
M  V30 4938 C 458.466 1.09402 3.25402 0
M  V30 4939 C 457.552 2.25036 3.59471 0
M  V30 4940 N 457.943 3.50407 3.64759 0
M  V30 4941 C 456.241 2.17078 3.89607 0
M  V30 4942 C 456.942 4.26628 3.95428 0
M  V30 4943 N 455.918 3.55709 4.11062 0
M  V30 4944 H 459.72 2.2394 1.90337 0
M  V30 4945 H 457.234 1.30021 0.973052 0
M  V30 4946 H 459.231 1.01661 4.04315 0
M  V30 4947 H 457.891 0.153632 3.24336 0
M  V30 4948 H 458.902 3.8438 3.47091 0
M  V30 4949 H 455.579 1.31067 3.96393 0
M  V30 4950 H 456.969 5.35107 4.06338 0
M  V30 4951 N 459.689 -1.00246 1.21608 0
M  V30 4952 C 460.619 -2.10921 1.00172 0
M  V30 4953 C 461.6 -1.69938 -0.0741587 0
M  V30 4954 O 462.785 -1.94009 0.0861753 0
M  V30 4955 C 459.915 -3.42618 0.568355 0
M  V30 4956 C 458.869 -3.97407 1.58909 0
M  V30 4957 C 458.195 -5.25038 1.01187 0
M  V30 4958 C 459.495 -4.2918 2.97661 0
M  V30 4959 H 461.189 -2.29112 1.92739 0
M  V30 4960 H 458.735 -1.10101 0.928102 0
M  V30 4961 H 460.688 -4.19444 0.405555 0
M  V30 4962 H 459.412 -3.24227 -0.392961 0
M  V30 4963 H 458.071 -3.22703 1.73949 0
M  V30 4964 H 457.719 -5.02982 0.0421965 0
M  V30 4965 H 457.419 -5.62661 1.6937 0
M  V30 4966 H 458.943 -6.04507 0.860448 0
M  V30 4967 H 460.357 -4.96839 2.86049 0
M  V30 4968 H 458.754 -4.77952 3.6288 0
M  V30 4969 H 459.824 -3.3735 3.48315 0
M  V30 4970 N 461.167 -1.02423 -1.1978 0
M  V30 4971 C 462.416 -0.713265 -1.88667 0
M  V30 4972 C 462.729 0.7609 -1.80193 0
M  V30 4973 O 463.935 1.18473 -2.44288 0
M  V30 4974 C 462.391 -1.22545 -3.38394 0
M  V30 4975 C 461.999 -2.72706 -3.55437 0
M  V30 4976 C 463.743 -0.990257 -4.12788 0
M  V30 4977 C 461.65 -3.17367 -4.99031 0
M  V30 4978 H 460.58 -0.263105 -0.706606 0
M  V30 4979 H 463.231 -1.23792 -1.35454 0
M  V30 4980 H 461.613 -0.628732 -3.90977 0
M  V30 4981 H 462.787 -3.37993 -3.13205 0
M  V30 4982 H 461.102 -2.94453 -2.94425 0
M  V30 4983 H 463.699 -1.29926 -5.18675 0
M  V30 4984 H 464.042 0.0730761 -4.16236 0
M  V30 4985 H 464.575 -1.55074 -3.66329 0
M  V30 4986 H 461.314 -4.23009 -5.00743 0
M  V30 4987 H 460.834 -2.56805 -5.42044 0
M  V30 4988 H 462.513 -3.10441 -5.67658 0
M  V30 4989 N 462.645 1.35699 -0.801477 0
M  V30 4990 C 463.891 1.99208 -0.380022 0
M  V30 4991 C 464.224 1.63445 1.04878 0
M  V30 4992 O 463.499 0.895223 1.72673 0
M  V30 4993 C 463.782 3.55755 -0.557708 0
M  V30 4994 C 463.635 4.01332 -2.03107 0
M  V30 4995 C 464.954 4.40096 0.0197968 0
M  V30 4996 H 462.073 0.723667 -0.139552 0
M  V30 4997 H 464.715 1.60928 -1.01006 0
M  V30 4998 H 462.865 3.88494 -0.0213741 0
M  V30 4999 H 464.537 3.79026 -2.62939 0
M  V30 5000 H 462.78 3.52429 -2.52936 0
M  V30 5001 H 463.451 5.10234 -2.1063 0
M  V30 5002 H 465.927 4.13786 -0.438179 0
M  V30 5003 H 464.803 5.48735 -0.134477 0
M  V30 5004 H 465.064 4.2786 1.11303 0
M  V30 5005 N 464.123 0.554532 1.47522 0
M  V30 5006 C 465.056 -0.242442 2.26908 0
M  V30 5007 C 466.034 -0.922722 1.33883 0
M  V30 5008 O 467.218 -0.942244 1.63261 0
M  V30 5009 C 464.345 -1.34525 3.10839 0
M  V30 5010 C 463.391 -0.773805 4.19422 0
M  V30 5011 S 464.224 0.377525 5.34168 0
M  V30 5012 C 465.38 -0.727164 6.21662 0
M  V30 5013 H 465.613 0.431218 2.94156 0
M  V30 5014 H 463.146 0.3408 1.50592 0
M  V30 5015 H 465.104 -1.97683 3.59766 0
M  V30 5016 H 463.765 -1.99073 2.42958 0
M  V30 5017 H 462.958 -1.60187 4.77866 0
M  V30 5018 H 462.56 -0.218448 3.73361 0
M  V30 5019 H 464.852 -1.61992 6.57849 0
M  V30 5020 H 465.795 -0.180135 7.07871 0
M  V30 5021 H 466.203 -1.01863 5.55233 0
M  V30 5022 N 465.601 -1.54893 0.290851 0
M  V30 5023 C 466.564 -2.21824 -0.576784 0
M  V30 5024 C 467.564 -1.20104 -1.06919 0
M  V30 5025 O 468.754 -1.44906 -0.966843 0
M  V30 5026 C 465.886 -2.89662 -1.79747 0
M  V30 5027 H 467.079 -2.99899 0.00784051 0
M  V30 5028 H 464.632 -1.56245 0.0415934 0
M  V30 5029 H 465.367 -2.15639 -2.42219 0
M  V30 5030 H 465.152 -3.64219 -1.45214 0
M  V30 5031 H 466.642 -3.4075 -2.4141 0
M  V30 5032 N 467.08 -0.0183926 -1.57589 0
M  V30 5033 C 468.01 0.965596 -2.12599 0
M  V30 5034 C 468.991 1.34641 -1.0395 0
M  V30 5035 O 470.176 1.42693 -1.31729 0
M  V30 5036 C 467.306 2.25149 -2.64434 0
M  V30 5037 C 466.26 2.01175 -3.77773 0
M  V30 5038 C 465.586 3.35937 -4.15994 0
M  V30 5039 C 466.886 1.35953 -5.04296 0
M  V30 5040 H 468.58 0.507504 -2.95067 0
M  V30 5041 H 466.126 0.242671 -1.41941 0
M  V30 5042 H 468.079 2.94357 -3.01549 0
M  V30 5043 H 466.803 2.73105 -1.79112 0
M  V30 5044 H 465.462 1.34388 -3.4108 0
M  V30 5045 H 465.11 3.81631 -3.27669 0
M  V30 5046 H 464.81 3.20705 -4.92364 0
M  V30 5047 H 466.334 4.0643 -4.55683 0
M  V30 5048 H 467.748 1.95144 -5.39065 0
M  V30 5049 H 466.145 1.31152 -5.85593 0
M  V30 5050 H 467.215 0.331071 -4.83768 0
M  V30 5051 N 468.558 1.5553 0.254621 0
M  V30 5052 C 469.468 1.92789 1.33677 0
M  V30 5053 C 470.484 0.827356 1.53071 0
M  V30 5054 O 471.66 1.12807 1.66843 0
M  V30 5055 C 468.725 2.20827 2.67275 0
M  V30 5056 C 467.786 3.4427 2.5647 0
M  V30 5057 C 467.019 3.70961 3.83697 0
M  V30 5058 O 467.242 2.99852 4.85227 0
M  V30 5059 O 466.176 4.64491 3.82794 0
M  V30 5060 H 470.002 2.84945 1.05071 0
M  V30 5061 H 467.587 1.42312 0.454723 0
M  V30 5062 H 469.469 2.40204 3.46237 0
M  V30 5063 H 468.144 1.31851 2.9563 0
M  V30 5064 H 467.051 3.30209 1.75821 0
M  V30 5065 H 468.384 4.33524 2.33062 0
M  V30 5066 N 470.036 -0.519951 1.48776 0
M  V30 5067 C 470.983 -1.62352 1.64044 0
M  V30 5068 C 471.953 -1.58945 0.482251 0
M  V30 5069 O 473.138 -1.77219 0.706971 0
M  V30 5070 C 470.278 -3.00579 1.69547 0
M  V30 5071 C 469.391 -3.14145 2.96541 0
M  V30 5072 C 468.526 -4.42991 2.93142 0
M  V30 5073 C 467.565 -4.50122 4.14797 0
M  V30 5074 N 466.702 -5.7037 4.09418 0
M  V30 5075 H 471.542 -1.48643 2.58281 0
M  V30 5076 H 469.079 -0.723516 1.28077 0
M  V30 5077 H 471.037 -3.80671 1.70719 0
M  V30 5078 H 469.667 -3.13036 0.787918 0
M  V30 5079 H 468.719 -2.27239 3.05068 0
M  V30 5080 H 470.031 -3.15275 3.86527 0
M  V30 5081 H 469.185 -5.31385 2.92772 0
M  V30 5082 H 467.924 -4.44398 2.00902 0
M  V30 5083 H 466.929 -3.60133 4.15433 0
M  V30 5084 H 468.154 -4.50445 5.08208 0
M  V30 5085 H 466.1 -5.72655 3.20004 0
M  V30 5086 H 466.017 -5.73036 4.93119 0
M  V30 5087 H 467.285 -6.61023 4.13121 0
M  V30 5088 N 471.514 -1.37532 -0.769588 0
M  V30 5089 C 472.424 -1.35668 -1.91393 0
M  V30 5090 C 473.44 -0.255954 -1.72107 0
M  V30 5091 O 474.616 -0.491704 -1.95305 0
M  V30 5092 C 471.681 -1.16481 -3.26547 0
M  V30 5093 C 470.742 -2.36212 -3.58472 0
M  V30 5094 C 469.975 -2.17932 -4.87177 0
M  V30 5095 O 470.198 -1.1647 -5.58382 0
M  V30 5096 O 469.132 -3.06167 -5.18214 0
M  V30 5097 H 472.958 -2.32055 -1.95918 0
M  V30 5098 H 470.543 -1.18284 -0.912641 0
M  V30 5099 H 472.425 -1.07778 -4.07384 0
M  V30 5100 H 471.1 -0.231687 -3.2287 0
M  V30 5101 H 470.007 -2.50488 -2.77861 0
M  V30 5102 H 471.34 -3.281 -3.66894 0
M  V30 5103 N 472.992 0.995999 -1.22138 0
M  V30 5104 C 474.24 1.73167 -1.042 0
M  V30 5105 C 474.561 1.90329 0.42423 0
M  V30 5106 O 473.831 1.4607 1.30539 0
M  V30 5107 H 472.411 0.641593 -0.38258 0
M  V30 5108 H 475.073 1.19974 -1.53598 0
M  V30 5109 H 474.169 2.72734 -1.51731 0
M  V30 5110 N 474.47 1.03057 1.19235 0
M  V30 5111 C 475.4 0.633497 2.24742 0
M  V30 5112 C 476.381 -0.358335 1.66283 0
M  V30 5113 O 477.566 -0.240676 1.92703 0
M  V30 5114 C 474.696 -0.0147648 3.47297 0
M  V30 5115 C 473.65 0.899527 4.18441 0
M  V30 5116 C 472.976 0.116281 5.34574 0
M  V30 5117 C 474.276 2.21404 4.73051 0
M  V30 5118 H 475.97 1.5155 2.58211 0
M  V30 5119 H 473.516 0.73014 1.24117 0
M  V30 5120 H 475.469 -0.304202 4.20301 0
M  V30 5121 H 474.193 -0.931577 3.13032 0
M  V30 5122 H 472.852 1.17319 3.47321 0
M  V30 5123 H 472.5 -0.802619 4.96555 0
M  V30 5124 H 472.2 0.725293 5.83107 0
M  V30 5125 H 473.724 -0.166376 6.10373 0
M  V30 5126 H 475.138 1.98601 5.37802 0
M  V30 5127 H 473.535 2.77512 5.32078 0
M  V30 5128 H 474.605 2.86752 3.91026 0
M  V30 5129 N 475.948 -1.35272 0.808662 0
M  V30 5130 C 477.359 -1.81179 0.450688 0
M  V30 5131 C 477.71 -1.67143 -1.02751 0
M  V30 5132 O 476.835 -1.20325 -1.79864 0
M  V30 5133 C 477.43 -3.28943 0.811275 0
M  V30 5134 C 475.989 -3.72985 0.505871 0
M  V30 5135 C 475.136 -2.57229 1.03578 0
M  V30 5136 H 478.087 -1.2322 1.00012 0
M  V30 5137 H 478.108 -3.80342 0.109588 0
M  V30 5138 H 477.62 -3.39127 1.88718 0
M  V30 5139 H 475.721 -3.68349 -0.561209 0
M  V30 5140 H 475.834 -4.67677 1.03995 0
M  V30 5141 H 474.198 -2.50548 0.458005 0
M  V30 5142 H 474.981 -2.7019 2.11784 0
M  V30 5143 N 477.426 -0.562348 -1.47226 0
M  V30 5144 C 478.373 0.182461 -2.30078 0
M  V30 5145 C 479.343 0.903503 -1.39377 0
M  V30 5146 O 480.528 0.898188 -1.68337 0
M  V30 5147 C 477.668 1.20322 -3.23445 0
M  V30 5148 C 476.781 0.487717 -4.29238 0
M  V30 5149 C 475.916 1.49422 -5.09752 0
M  V30 5150 C 474.955 0.763976 -6.07314 0
M  V30 5151 N 474.092 1.71755 -6.80768 0
M  V30 5152 H 478.932 -0.530169 -2.93246 0
M  V30 5153 H 476.469 -0.273276 -1.44539 0
M  V30 5154 H 478.427 1.80768 -3.76004 0
M  V30 5155 H 477.057 1.88382 -2.6213 0
M  V30 5156 H 476.109 -0.231374 -3.79696 0
M  V30 5157 H 477.421 -0.0841003 -4.98729 0
M  V30 5158 H 476.575 2.17206 -5.66486 0
M  V30 5159 H 475.314 2.09995 -4.40174 0
M  V30 5160 H 474.319 0.0722344 -5.49753 0
M  V30 5161 H 475.544 0.16391 -6.78902 0
M  V30 5162 H 473.49 2.31177 -6.13916 0
M  V30 5163 H 473.407 1.19802 -7.46447 0
M  V30 5164 H 474.675 2.38638 -7.42073 0
M  V30 5165 N 478.904 1.54736 -0.299062 0
M  V30 5166 C 479.814 2.27127 0.587413 0
M  V30 5167 C 480.83 1.30575 1.15005 0
M  V30 5168 O 482.006 1.63554 1.17525 0
M  V30 5169 C 479.071 2.99645 1.74395 0
M  V30 5170 C 478.132 4.11731 1.21559 0
M  V30 5171 C 477.365 4.80781 2.317 0
M  V30 5172 O 477.588 4.4918 3.51558 0
M  V30 5173 O 476.522 5.68226 1.98501 0
M  V30 5174 H 480.348 3.037 0.000250109 0
M  V30 5175 H 477.933 1.49256 -0.0655919 0
M  V30 5176 H 479.815 3.45138 2.4178 0
M  V30 5177 H 478.49 2.25969 2.31775 0
M  V30 5178 H 477.397 3.70641 0.507514 0
M  V30 5179 H 478.73 4.87379 0.687233 0
M  V30 5180 N 480.382 0.0267497 1.57577 0
M  V30 5181 C 481.329 -0.955894 2.10075 0
M  V30 5182 C 482.299 -1.32453 1.00226 0
M  V30 5183 O 483.484 -1.41826 1.27632 0
M  V30 5184 C 480.624 -2.2338 2.6305 0
M  V30 5185 C 479.737 -1.92183 3.86898 0
M  V30 5186 C 478.872 -3.14251 4.28275 0
M  V30 5187 C 477.911 -2.78862 5.44888 0
M  V30 5188 N 477.048 -3.93548 5.81433 0
M  V30 5189 H 481.888 -0.501303 2.93753 0
M  V30 5190 H 479.425 -0.235847 1.45197 0
M  V30 5191 H 481.383 -2.98124 2.91853 0
M  V30 5192 H 480.013 -2.6646 1.82205 0
M  V30 5193 H 479.065 -1.07692 3.64838 0
M  V30 5194 H 480.377 -1.62117 4.7172 0
M  V30 5195 H 479.531 -3.97317 4.58502 0
M  V30 5196 H 478.27 -3.47476 3.42215 0
M  V30 5197 H 477.275 -1.94208 5.14357 0
M  V30 5198 H 478.5 -2.46855 6.32645 0
M  V30 5199 H 476.446 -4.2662 4.98328 0
M  V30 5200 H 476.363 -3.67098 6.6089 0
M  V30 5201 H 477.631 -4.77325 6.16264 0
M  V30 5202 N 481.861 -1.55662 -0.24637 0
M  V30 5203 C 482.824 -1.89558 -1.28842 0
M  V30 5204 C 483.824 -0.772082 -1.41052 0
M  V30 5205 O 485.014 -1.04007 -1.39743 0
M  V30 5206 C 482.146 -2.12449 -2.66605 0
M  V30 5207 H 483.339 -2.82735 -1.00004 0
M  V30 5208 H 480.892 -1.48562 -0.485684 0
M  V30 5209 H 481.627 -1.21742 -3.00582 0
M  V30 5210 H 481.412 -2.94273 -2.59125 0
M  V30 5211 H 482.902 -2.39854 -3.41847 0
M  V30 5212 N 483.339 0.512053 -1.4905 0
M  V30 5213 C 484.588 1.26343 -1.57227 0
M  V30 5214 C 484.901 1.93876 -0.259155 0
M  V30 5215 O 486.107 2.70612 -0.219358 0
M  V30 5216 C 484.563 2.29343 -2.77362 0
M  V30 5217 C 484.171 1.67799 -4.15388 0
M  V30 5218 C 485.915 3.05378 -2.94864 0
M  V30 5219 C 483.822 2.68845 -5.2676 0
M  V30 5220 H 482.752 0.475231 -0.585382 0
M  V30 5221 H 485.403 0.53862 -1.75417 0
M  V30 5222 H 483.785 3.04938 -2.52643 0
M  V30 5223 H 484.959 0.982715 -4.50199 0
M  V30 5224 H 483.274 1.04194 -4.03153 0
M  V30 5225 H 485.871 3.80921 -3.75238 0
M  V30 5226 H 486.214 3.62327 -2.05 0
M  V30 5227 H 486.747 2.36898 -3.19569 0
M  V30 5228 H 483.486 2.16692 -6.18647 0
M  V30 5229 H 483.006 3.36647 -4.96416 0
M  V30 5230 H 484.685 3.31487 -5.5563 0
M  V30 5231 N 484.817 1.37938 0.762283 0
M  V30 5232 C 485.764 1.34467 1.87583 0
M  V30 5233 C 486.734 0.208633 1.64785 0
M  V30 5234 O 487.919 0.399494 1.86571 0
M  V30 5235 C 485.059 1.16692 3.24772 0
M  V30 5236 C 484.172 2.39608 3.59461 0
M  V30 5237 C 483.307 2.14631 4.85908 0
M  V30 5238 C 482.346 3.33364 5.13357 0
M  V30 5239 N 481.483 3.07877 6.30996 0
M  V30 5240 H 486.323 2.29669 1.89885 0
M  V30 5241 H 483.86 1.14116 0.928219 0
M  V30 5242 H 485.818 1.04405 4.03925 0
M  V30 5243 H 484.448 0.251333 3.2182 0
M  V30 5244 H 483.5 2.626 2.75219 0
M  V30 5245 H 484.812 3.28128 3.75678 0
M  V30 5246 H 483.966 1.99429 5.72986 0
M  V30 5247 H 482.705 1.23463 4.71814 0
M  V30 5248 H 481.71 3.49094 4.24751 0
M  V30 5249 H 482.935 4.25395 5.29354 0
M  V30 5250 H 480.881 2.19348 6.18241 0
M  V30 5251 H 480.798 3.89944 6.47673 0
M  V30 5252 H 482.066 2.96313 7.20985 0
M  V30 5253 N 486.295 -0.989507 1.22664 0
M  V30 5254 C 487.242 -2.08024 0.999733 0
M  V30 5255 C 488.212 -1.65909 -0.0797047 0
M  V30 5256 O 489.397 -1.90669 0.0705715 0
M  V30 5257 C 486.537 -3.40067 0.587234 0
M  V30 5258 C 485.65 -3.95505 1.73781 0
M  V30 5259 C 484.785 -5.15722 1.27297 0
M  V30 5260 C 483.824 -5.63305 2.39488 0
M  V30 5261 N 482.961 -6.74758 1.94026 0
M  V30 5262 H 487.801 -2.26768 1.9334 0
M  V30 5263 H 485.338 -1.11171 0.963297 0
M  V30 5264 H 487.296 -4.15899 0.329227 0
M  V30 5265 H 485.926 -3.21314 -0.309426 0
M  V30 5266 H 484.978 -3.16513 2.11006 0
M  V30 5267 H 486.29 -4.26797 2.58158 0
M  V30 5268 H 485.444 -5.98854 0.972546 0
M  V30 5269 H 484.183 -4.86061 0.399445 0
M  V30 5270 H 483.188 -4.78759 2.70315 0
M  V30 5271 H 484.413 -5.94988 3.27362 0
M  V30 5272 H 482.359 -6.46874 1.09041 0
M  V30 5273 H 482.276 -7.05386 2.71968 0
M  V30 5274 H 483.544 -7.61387 1.67062 0
M  V30 5275 N 487.773 -1.03688 -1.18687 0
M  V30 5276 C 489.022 -0.733235 -1.879 0
M  V30 5277 C 489.335 0.741745 -1.8099 0
M  V30 5278 O 490.541 1.15875 -2.4553 0
M  V30 5279 C 488.997 -1.26127 -3.37076 0
M  V30 5280 C 488.605 -2.76461 -3.52524 0
M  V30 5281 C 490.349 -1.03398 -4.11715 0
M  V30 5282 C 488.256 -3.22642 -4.95637 0
M  V30 5283 H 487.186 -0.270584 -0.703776 0
M  V30 5284 H 489.837 -1.25222 -1.34133 0
M  V30 5285 H 488.219 -0.670165 -3.90288 0
M  V30 5286 H 489.393 -3.41296 -3.09602 0
M  V30 5287 H 487.708 -2.97559 -2.91286 0
M  V30 5288 H 490.305 -1.3542 -5.17267 0
M  V30 5289 H 490.648 0.0289246 -4.1629 0
M  V30 5290 H 491.181 -1.5895 -3.64664 0
M  V30 5291 H 487.92 -4.28296 -4.96228 0
M  V30 5292 H 487.44 -2.62539 -5.39289 0
M  V30 5293 H 489.119 -3.16444 -5.64333 0
M  V30 5294 N 489.251 1.34841 -0.815825 0
M  V30 5295 C 490.497 1.99219 -0.410288 0
M  V30 5296 C 490.852 1.63532 1.01366 0
M  V30 5297 O 490.145 0.893093 1.69512 0
M  V30 5298 C 490.339 3.53273 -0.541541 0
M  V30 5299 C 490.168 4.03927 -1.9767 0
M  V30 5300 C 488.938 4.32852 -2.60706 0
M  V30 5301 C 491.136 4.21808 -2.9425 0
M  V30 5302 N 489.118 4.69494 -3.95536 0
M  V30 5303 C 490.489 4.6155 -4.13971 0
M  V30 5304 C 492.544 4.04038 -2.9096 0
M  V30 5305 C 491.247 4.85381 -5.30847 0
M  V30 5306 C 493.273 4.29031 -4.07046 0
M  V30 5307 C 492.635 4.69054 -5.25517 0
M  V30 5308 H 488.734 0.756494 -0.198094 0
M  V30 5309 H 491.318 1.63379 -1.05902 0
M  V30 5310 H 489.489 3.88323 0.0772544 0
M  V30 5311 H 491.221 4.04551 -0.109694 0
M  V30 5312 H 487.976 4.23503 -2.11995 0
M  V30 5313 H 488.4 4.92061 -4.64979 0
M  V30 5314 H 493.042 3.7223 -2.00512 0
M  V30 5315 H 490.76 5.16059 -6.21859 0
M  V30 5316 H 494.346 4.16826 -4.05891 0
M  V30 5317 H 493.226 4.88014 -6.1385 0
M  V30 5318 N 490.729 0.570148 1.46925 0
M  V30 5319 C 491.659 -0.158274 2.32963 0
M  V30 5320 C 492.64 -0.896093 1.44583 0
M  V30 5321 O 493.825 -0.874022 1.7342 0
M  V30 5322 C 490.955 -1.18055 3.26619 0
M  V30 5323 C 489.909 -0.558379 4.24342 0
M  V30 5324 C 489.235 -1.68623 5.07415 0
M  V30 5325 C 490.535 0.496295 5.19937 0
M  V30 5326 H 492.229 0.560046 2.94115 0
M  V30 5327 H 489.775 0.270775 1.41431 0
M  V30 5328 H 491.728 -1.69841 3.85658 0
M  V30 5329 H 490.452 -1.92899 2.63548 0
M  V30 5330 H 489.111 -0.0617157 3.66548 0
M  V30 5331 H 488.759 -2.42402 4.40738 0
M  V30 5332 H 488.459 -1.27564 5.73586 0
M  V30 5333 H 489.983 -2.20709 5.69315 0
M  V30 5334 H 491.397 0.0640052 5.73264 0
M  V30 5335 H 489.794 0.82649 5.94381 0
M  V30 5336 H 490.864 1.38735 4.6463 0
M  V30 5337 N 492.207 -1.54576 0.307264 0
M  V30 5338 C 493.453 -2.0056 -0.300612 0
M  V30 5339 C 493.786 -1.1953 -1.53057 0
M  V30 5340 O 493.061 -0.27337 -1.92569 0
M  V30 5341 C 493.344 -3.54167 -0.650987 0
M  V30 5342 C 493.197 -4.45933 0.588539 0
M  V30 5343 C 494.516 -4.14645 -1.47506 0
M  V30 5344 H 491.635 -0.729075 -0.107788 0
M  V30 5345 H 494.277 -1.85286 0.420606 0
M  V30 5346 H 492.427 -3.67313 -1.26544 0
M  V30 5347 H 494.099 -4.44683 1.22697 0
M  V30 5348 H 492.342 -4.16274 1.22058 0
M  V30 5349 H 493.013 -5.51189 0.299153 0
M  V30 5350 H 495.489 -4.04973 -0.955821 0
M  V30 5351 H 494.365 -5.22269 -1.68899 0
M  V30 5352 H 494.626 -3.66921 -2.4662 0
M  V30 5353 N 493.685 -0.035106 -1.57561 0
M  V30 5354 C 494.962 0.681212 -1.83354 0
M  V30 5355 C 495.342 1.89986 -0.920252 0
M  V30 5356 O 494.69 2.28489 0.0226815 0
M  V30 5357 C 494.9 1.05376 -3.32712 0
M  V30 5358 C 496.248 1.44286 -3.99333 0
M  V30 5359 O 497.272 1.14656 -3.37242 0
M  V30 5360 O 496.131 1.99518 -5.08778 0
M  V30 5361 H 493.225 0.334741 -0.756226 0
M  V30 5362 H 495.771 -0.0632448 -1.69582 0
M  V30 5363 H 494.543 0.186668 -3.90854 0
M  V30 5364 H 494.166 1.85619 -3.51613 0
M  V30 5365 N 495.163 1.55791 0.238111 0
M  V30 5366 C 496.388 1.8244 0.986432 0
M  V30 5367 C 496.813 0.613314 1.7782 0
M  V30 5368 O 496.171 -0.437767 1.75935 0
M  V30 5369 C 496.219 3.06917 1.893 0
M  V30 5370 O 495.323 2.84449 2.98601 0
M  V30 5371 H 494.664 0.601975 0.280218 0
M  V30 5372 H 497.194 2.02987 0.256437 0
M  V30 5373 H 497.204 3.36583 2.30598 0
M  V30 5374 H 495.879 3.947 1.31091 0
M  V30 5375 H 494.456 2.65972 2.61368 0
M  V30 5376 N 496.642 -0.504142 1.49319 0
M  V30 5377 C 497.589 -1.60603 1.65756 0
M  V30 5378 C 498.559 -1.58425 0.499082 0
M  V30 5379 O 499.744 -1.76459 0.725728 0
M  V30 5380 C 496.884 -2.98764 1.72726 0
M  V30 5381 C 495.997 -3.10982 2.99857 0
M  V30 5382 C 495.132 -4.39857 2.97824 0
M  V30 5383 C 494.171 -4.45697 4.19548 0
M  V30 5384 N 493.308 -5.65995 4.15444 0
M  V30 5385 H 498.148 -1.45895 2.59843 0
M  V30 5386 H 495.685 -0.709891 1.28837 0
M  V30 5387 H 497.643 -3.78839 1.74747 0
M  V30 5388 H 496.273 -3.12183 0.821075 0
M  V30 5389 H 495.325 -2.23991 3.07461 0
M  V30 5390 H 496.637 -3.11157 3.89849 0
M  V30 5391 H 495.791 -5.2825 2.98391 0
M  V30 5392 H 494.53 -4.42242 2.05604 0
M  V30 5393 H 493.535 -3.55707 4.19229 0
M  V30 5394 H 494.76 -4.4503 5.12957 0
M  V30 5395 H 492.706 -5.69229 3.26059 0
M  V30 5396 H 492.623 -5.67773 4.99169 0
M  V30 5397 H 493.891 -6.56604 4.20109 0
M  V30 5398 N 498.12 -1.38341 -0.754957 0
M  V30 5399 C 499.368 -1.34208 -1.51105 0
M  V30 5400 C 499.689 0.0677634 -1.94882 0
M  V30 5401 O 498.959 1.01517 -1.67544 0
M  V30 5402 H 497.539 -0.493819 -0.560493 0
M  V30 5403 H 500.201 -1.73005 -0.897507 0
M  V30 5404 H 499.297 -1.99203 -2.4026 0
M  V30 5405 N 499.598 0.982988 -1.23187 0
M  V30 5406 C 500.528 2.09301 -1.03515 0
M  V30 5407 C 501.509 1.70035 0.0471136 0
M  V30 5408 O 502.694 1.93847 -0.117029 0
M  V30 5409 C 499.824 3.4167 -0.622791 0
M  V30 5410 C 498.778 3.94828 -1.65211 0
M  V30 5411 C 498.104 5.23362 -1.09527 0
M  V30 5412 C 499.404 4.2439 -3.04451 0
M  V30 5413 H 501.098 2.26016 -1.96359 0
M  V30 5414 H 498.644 1.08611 -0.945501 0
M  V30 5415 H 500.597 4.18746 -0.472233 0
M  V30 5416 H 499.321 3.24811 0.341329 0
M  V30 5417 H 497.98 3.19895 -1.79061 0
M  V30 5418 H 497.628 5.02852 -0.122211 0
M  V30 5419 H 497.328 5.59895 -1.783 0
M  V30 5420 H 498.852 6.03062 -0.956511 0
M  V30 5421 H 500.266 4.92225 -2.93917 0
M  V30 5422 H 498.663 4.72118 -3.70438 0
M  V30 5423 H 499.733 3.31765 -3.53638 0
M  V30 5424 N 501.076 1.04316 1.18135 0
M  V30 5425 C 502.325 0.74319 1.87509 0
M  V30 5426 C 502.638 -0.732136 1.81381 0
M  V30 5427 O 503.844 -1.14572 2.46141 0
M  V30 5428 C 502.3 1.27913 3.36402 0
M  V30 5429 C 501.908 2.78326 3.51053 0
M  V30 5430 C 503.652 1.0558 4.11161 0
M  V30 5431 C 501.559 3.25266 4.93919 0
M  V30 5432 H 500.489 0.274313 0.702331 0
M  V30 5433 H 503.14 1.25931 1.33467 0
M  V30 5434 H 501.522 0.690853 3.89927 0
M  V30 5435 H 502.696 3.42933 3.07788 0
M  V30 5436 H 501.011 2.991 2.89704 0
M  V30 5437 H 503.608 1.38161 5.16542 0
M  V30 5438 H 503.951 -0.00684729 4.16299 0
M  V30 5439 H 504.484 1.60882 3.63816 0
M  V30 5440 H 501.223 4.30922 4.9395 0
M  V30 5441 H 500.743 2.65396 5.3789 0
M  V30 5442 H 502.422 3.19433 5.62647 0
M  V30 5443 N 502.554 -1.34406 0.822964 0
M  V30 5444 C 503.8 -1.98578 0.411666 0
M  V30 5445 C 504.133 -1.65093 -1.02264 0
M  V30 5446 O 503.408 -0.92258 -1.71227 0
M  V30 5447 C 503.691 -3.54823 0.614235 0
M  V30 5448 C 503.544 -3.9805 2.09466 0
M  V30 5449 C 504.863 -4.40071 0.050221 0
M  V30 5450 H 501.982 -0.721355 0.151047 0
M  V30 5451 H 504.624 -1.59301 1.03554 0
M  V30 5452 H 502.774 -3.88411 0.0831774 0
M  V30 5453 H 504.446 -3.74795 2.68936 0
M  V30 5454 H 502.689 -3.4836 2.5851 0
M  V30 5455 H 503.36 -5.06819 2.18721 0
M  V30 5456 H 505.836 -4.13037 0.503953 0
M  V30 5457 H 504.712 -5.48452 0.221759 0
M  V30 5458 H 504.973 -4.29576 -1.04482 0
M  V30 5459 N 504.032 -0.577932 -1.46621 0
M  V30 5460 C 504.979 0.158048 -2.30258 0
M  V30 5461 C 505.949 0.888669 -1.40328 0
M  V30 5462 O 507.134 0.880283 -1.6928 0
M  V30 5463 C 504.274 1.16884 -3.24703 0
M  V30 5464 C 503.387 0.442163 -4.29731 0
M  V30 5465 C 502.522 1.44007 -5.11308 0
M  V30 5466 C 501.561 0.69952 -6.0809 0
M  V30 5467 N 500.698 1.64525 -6.82551 0
M  V30 5468 H 505.538 -0.561242 -2.92667 0
M  V30 5469 H 503.075 -0.288591 -1.44241 0
M  V30 5470 H 505.033 1.7677 -3.779 0
M  V30 5471 H 503.663 1.85591 -2.64113 0
M  V30 5472 H 502.715 -0.271632 -3.79429 0
M  V30 5473 H 504.027 -0.136992 -4.98612 0
M  V30 5474 H 503.181 2.11186 -5.68758 0
M  V30 5475 H 501.92 2.05315 -4.42377 0
M  V30 5476 H 500.925 0.0139217 -5.49798 0
M  V30 5477 H 502.15 0.091894 -6.79038 0
M  V30 5478 H 500.096 2.24653 -6.16334 0
M  V30 5479 H 500.013 1.11878 -7.47676 0
M  V30 5480 H 501.281 2.30754 -7.44562 0
M  V30 5481 N 505.51 1.54411 -0.315457 0
M  V30 5482 C 506.758 2.00023 0.288971 0
M  V30 5483 C 507.079 1.20529 1.5329 0
M  V30 5484 O 506.349 0.304986 1.93511 0
M  V30 5485 H 504.929 0.738891 0.109766 0
M  V30 5486 H 507.591 1.90094 -0.430129 0
M  V30 5487 H 506.687 3.07198 0.550999 0
M  V30 5488 N 506.988 0.0434614 1.5754 0
M  V30 5489 C 508.404 -0.313039 1.565 0
M  V30 5490 C 508.604 -1.71954 1.05043 0
M  V30 5491 O 507.66 -2.425 0.703564 0
M  V30 5492 C 508.973 -0.148544 3.00333 0
M  V30 5493 C 510.521 -0.220231 3.12224 0
M  V30 5494 C 510.996 -0.0843565 4.57922 0
M  V30 5495 N 512.487 -0.140881 4.62986 0
M  V30 5496 C 513.222 -0.0597443 5.73369 0
M  V30 5497 N 512.718 0.0733004 6.92761 0
M  V30 5498 N 514.511 -0.11477 5.61983 0
M  V30 5499 H 506.662 0.96303 1.89313 0
M  V30 5500 H 508.925 0.373164 0.871466 0
M  V30 5501 H 508.631 0.820894 3.41986 0
M  V30 5502 H 508.505 -0.912798 3.65989 0
M  V30 5503 H 510.892 -1.18014 2.70475 0
M  V30 5504 H 510.973 0.574646 2.49262 0
M  V30 5505 H 510.617 0.872192 5.00355 0
M  V30 5506 H 510.547 -0.898281 5.18882 0
M  V30 5507 H 513.038 -0.243273 3.77116 0
M  V30 5508 H 513.351 0.128128 7.72694 0
M  V30 5509 H 511.696 0.10828 6.94916 0
M  V30 5510 H 514.887 -0.217212 4.67596 0
M  V30 5511 H 515.06 -0.0480779 6.47982 0
M  V30 5512 N 508.466 -1.55915 -0.229846 0
M  V30 5513 C 509.429 -1.90914 -1.26824 0
M  V30 5514 C 510.429 -0.786999 -1.40225 0
M  V30 5515 O 511.619 -1.05484 -1.38632 0
M  V30 5516 C 508.751 -2.15264 -2.64337 0
M  V30 5517 H 509.944 -2.8378 -0.969998 0
M  V30 5518 H 507.497 -1.49069 -0.4699 0
M  V30 5519 H 508.232 -1.24923 -2.99274 0
M  V30 5520 H 508.017 -2.97005 -2.55989 0
M  V30 5521 H 509.507 -2.43467 -3.39284 0
M  V30 5522 N 509.944 0.496216 -1.49584 0
M  V30 5523 C 511.169 1.27865 -1.63295 0
M  V30 5524 C 511.594 1.85592 -0.306156 0
M  V30 5525 O 510.952 1.66092 0.726851 0
M  V30 5526 C 511 2.38128 -2.7079 0
M  V30 5527 O 510.104 3.42108 -2.30296 0
M  V30 5528 H 509.445 0.377279 -0.546403 0
M  V30 5529 H 511.975 0.593497 -1.95803 0
M  V30 5530 H 511.985 2.8382 -2.93104 0
M  V30 5531 H 510.66 1.95479 -3.67098 0
M  V30 5532 H 509.237 3.02301 -2.18331 0
M  V30 5533 N 511.423 1.38739 0.74761 0
M  V30 5534 C 512.353 1.39173 1.87492 0
M  V30 5535 C 513.334 0.256794 1.6815 0
M  V30 5536 O 514.519 0.460762 1.88655 0
M  V30 5537 C 511.649 1.22197 3.25093 0
M  V30 5538 C 510.603 2.32957 3.59047 0
M  V30 5539 C 509.929 2.01082 4.95449 0
M  V30 5540 C 511.229 3.75237 3.6331 0
M  V30 5541 H 512.923 2.3351 1.87386 0
M  V30 5542 H 510.469 1.12399 0.900134 0
M  V30 5543 H 512.422 1.21124 4.03617 0
M  V30 5544 H 511.146 0.243241 3.25693 0
M  V30 5545 H 509.805 2.33226 2.82845 0
M  V30 5546 H 509.453 1.01678 4.92616 0
M  V30 5547 H 509.153 2.75267 5.19136 0
M  V30 5548 H 510.677 2.01638 5.76346 0
M  V30 5549 H 512.091 3.76966 4.31937 0
M  V30 5550 H 510.488 4.48677 3.98509 0
M  V30 5551 H 511.558 4.07122 2.634 0
M  V30 5552 N 512.901 -0.976442 1.23707 0
M  V30 5553 C 514.129 -1.75341 1.09833 0
M  V30 5554 C 514.544 -1.8553 -0.349885 0
M  V30 5555 O 513.901 -1.33732 -1.24185 0
M  V30 5556 C 513.952 -3.17833 1.72233 0
M  V30 5557 O 513.673 -3.08167 3.11391 0
M  V30 5558 C 515.174 -4.11906 1.63853 0
M  V30 5559 H 512.394 -0.550137 0.384175 0
M  V30 5560 H 514.938 -1.2265 1.63638 0
M  V30 5561 H 513.093 -3.67538 1.22452 0
M  V30 5562 H 513.507 -3.97897 3.41729 0
M  V30 5563 H 514.981 -5.09579 2.12211 0
M  V30 5564 H 515.458 -4.35109 0.598092 0
M  V30 5565 H 516.064 -3.68107 2.13019 0
M  V30 5566 N 514.379 -1.04941 -1.1758 0
M  V30 5567 C 515.311 -0.606174 -2.21039 0
M  V30 5568 C 516.324 0.328763 -1.59446 0
M  V30 5569 O 517.513 0.121895 -1.78083 0
M  V30 5570 C 514.613 0.133294 -3.38638 0
M  V30 5571 C 513.786 -0.811711 -4.29802 0
M  V30 5572 C 512.845 -0.113958 -5.26077 0
M  V30 5573 O 511.871 -0.747237 -5.64274 0
M  V30 5574 N 513.073 1.14953 -5.69004 0
M  V30 5575 H 515.838 -1.49606 -2.59689 0
M  V30 5576 H 513.399 -0.930997 -1.32454 0
M  V30 5577 H 515.391 0.610144 -4.00074 0
M  V30 5578 H 513.961 0.924816 -2.98607 0
M  V30 5579 H 513.181 -1.46824 -3.65837 0
M  V30 5580 H 514.469 -1.45326 -4.87604 0
M  V30 5581 H 513.867 1.68441 -5.40041 0
M  V30 5582 H 512.424 1.57049 -6.32597 0
M  V30 5583 N 515.857 1.33968 -0.830081 0
M  V30 5584 C 516.767 2.33164 -0.259207 0
M  V30 5585 C 517.783 1.62951 0.610164 0
M  V30 5586 O 518.959 1.94668 0.516369 0
M  V30 5587 C 516.024 3.42088 0.563598 0
M  V30 5588 C 515.085 4.28037 -0.329014 0
M  V30 5589 C 514.318 5.3176 0.454616 0
M  V30 5590 O 514.541 5.44876 1.6872 0
M  V30 5591 O 513.475 6.01669 -0.166794 0
M  V30 5592 H 517.301 2.83832 -1.08041 0
M  V30 5593 H 514.886 1.37154 -0.59239 0
M  V30 5594 H 516.768 4.08581 1.03147 0
M  V30 5595 H 515.443 2.93651 1.36201 0
M  V30 5596 H 514.35 3.64443 -0.844538 0
M  V30 5597 H 515.683 4.79934 -1.09196 0
M  V30 5598 N 517.335 0.585699 1.46312 0
M  V30 5599 C 518.282 -0.145835 2.30339 0
M  V30 5600 C 519.252 -0.881215 1.40797 0
M  V30 5601 O 520.437 -0.871293 1.69744 0
M  V30 5602 C 517.577 -1.15161 3.25318 0
M  V30 5603 C 516.69 -0.419367 4.2996 0
M  V30 5604 C 515.825 -1.41293 5.12064 0
M  V30 5605 C 514.864 -0.667261 6.08452 0
M  V30 5606 N 514.001 -1.60903 6.83414 0
M  V30 5607 H 518.841 0.576755 2.92365 0
M  V30 5608 H 516.378 0.296237 1.44086 0
M  V30 5609 H 518.336 -1.74763 3.78832 0
M  V30 5610 H 516.966 -1.84188 2.65094 0
M  V30 5611 H 516.018 0.291751 3.7928 0
M  V30 5612 H 517.33 0.163433 4.98532 0
M  V30 5613 H 516.484 -2.08167 5.6987 0
M  V30 5614 H 515.223 -2.02966 4.43459 0
M  V30 5615 H 514.228 0.0152356 5.49798 0
M  V30 5616 H 515.453 -0.0558817 6.79077 0
M  V30 5617 H 513.399 -2.21381 6.17516 0
M  V30 5618 H 513.316 -1.07911 7.48259 0
M  V30 5619 H 514.584 -2.26802 7.45775 0
M  V30 5620 N 518.813 -1.54241 0.323641 0
M  V30 5621 C 519.723 -2.28033 -0.551205 0
M  V30 5622 C 520.739 -1.32388 -1.12913 0
M  V30 5623 O 521.915 -1.65403 -1.14908 0
M  V30 5624 C 518.98 -3.02382 -1.69606 0
M  V30 5625 C 518.041 -4.13612 -1.14993 0
M  V30 5626 C 517.274 -4.84407 -2.24022 0
M  V30 5627 O 517.497 -4.54716 -3.44368 0
M  V30 5628 O 516.431 -5.71312 -1.89436 0
M  V30 5629 H 520.257 -3.03662 0.048066 0
M  V30 5630 H 517.842 -1.49133 0.0893289 0
M  V30 5631 H 519.724 -3.48941 -2.36259 0
M  V30 5632 H 518.399 -2.29628 -2.28151 0
M  V30 5633 H 517.306 -3.71402 -0.448484 0
M  V30 5634 H 518.639 -4.8841 -0.609608 0
M  V30 5635 N 520.291 -0.0518155 -1.57515 0
M  V30 5636 C 521.238 0.922352 -2.11569 0
M  V30 5637 C 522.208 1.30842 -1.02321 0
M  V30 5638 O 523.393 1.39778 -1.29872 0
M  V30 5639 C 520.533 2.19167 -2.6657 0
M  V30 5640 C 519.646 1.86003 -3.89906 0
M  V30 5641 C 518.781 3.07398 -4.33221 0
M  V30 5642 C 517.82 2.70158 -5.49255 0
M  V30 5643 N 516.957 3.84248 -5.8762 0
M  V30 5644 H 521.797 0.454506 -2.94514 0
M  V30 5645 H 519.334 0.212718 -1.45554 0
M  V30 5646 H 521.292 2.93443 -2.96559 0
M  V30 5647 H 519.922 2.63528 -1.86421 0
M  V30 5648 H 518.974 1.01874 -3.66505 0
M  V30 5649 H 520.286 1.54592 -4.74239 0
M  V30 5650 H 519.44 3.89972 -4.64765 0
M  V30 5651 H 518.179 3.41988 -3.477 0
M  V30 5652 H 517.184 1.86001 -5.17382 0
M  V30 5653 H 518.409 2.36759 -6.36492 0
M  V30 5654 H 516.355 4.18638 -5.05053 0
M  V30 5655 H 516.272 3.56538 -6.66646 0
M  V30 5656 H 517.54 4.6746 -6.2378 0
M  V30 5657 N 521.769 1.56035 0.221574 0
M  V30 5658 C 523.016 1.79047 0.94597 0
M  V30 5659 C 523.344 0.62057 1.84334 0
M  V30 5660 O 522.599 -0.395053 1.91671 0
M  V30 5661 C 522.898 3.07813 1.8162 0
M  V30 5662 C 522.564 4.3797 1.07206 0
M  V30 5663 C 521.226 4.73334 0.866508 0
M  V30 5664 C 523.578 5.18326 0.546565 0
M  V30 5665 C 520.906 5.8657 0.123549 0
M  V30 5666 C 523.258 6.32335 -0.18305 0
M  V30 5667 C 521.922 6.66301 -0.399861 0
M  V30 5668 H 521.192 0.655178 0.346155 0
M  V30 5669 H 523.839 1.90299 0.214146 0
M  V30 5670 H 522.144 2.91682 2.61589 0
M  V30 5671 H 523.841 3.2282 2.37884 0
M  V30 5672 H 520.431 4.10202 1.24226 0
M  V30 5673 H 524.615 4.9144 0.692847 0
M  V30 5674 H 519.871 6.11376 -0.0546591 0
M  V30 5675 H 524.045 6.9383 -0.59775 0
M  V30 5676 H 521.672 7.53889 -0.977489 0
M  V30 5677 N 523.247 -0.488276 1.49845 0
M  V30 5678 C 524.21 -1.57069 1.66919 0
M  V30 5679 C 525.21 -1.51445 0.540479 0
M  V30 5680 O 526.4 -1.5437 0.807188 0
M  V30 5681 C 523.532 -2.96718 1.67844 0
M  V30 5682 H 524.725 -1.43254 2.63474 0
M  V30 5683 H 522.278 -0.713435 1.39068 0
M  V30 5684 H 523.013 -3.15996 0.7292 0
M  V30 5685 H 522.798 -3.02208 2.49826 0
M  V30 5686 H 524.288 -3.75335 1.83066 0
M  V30 5687 N 524.725 -1.39134 -0.740242 0
M  V30 5688 C 525.675 -1.33928 -1.84519 0
M  V30 5689 C 526.659 -0.221097 -1.59374 0
M  V30 5690 O 527.851 -0.458195 -1.70967 0
M  V30 5691 C 524.98 -1.17991 -3.22387 0
M  V30 5692 C 524.066 -2.34488 -3.53378 0
M  V30 5693 N 524.457 -3.59954 -3.5534 0
M  V30 5694 C 522.755 -2.27331 -3.83714 0
M  V30 5695 C 523.456 -4.36962 -3.83978 0
M  V30 5696 N 522.432 -3.66482 -4.01487 0
M  V30 5697 H 526.234 -2.28907 -1.84333 0
M  V30 5698 H 523.748 -1.32555 -0.938237 0
M  V30 5699 H 525.745 -1.12345 -4.01478 0
M  V30 5700 H 524.405 -0.23957 -3.23815 0
M  V30 5701 H 525.416 -3.93448 -3.36778 0
M  V30 5702 H 522.093 -1.41531 -3.92779 0
M  V30 5703 H 523.483 -5.45692 -3.92008 0
M  V30 5704 N 526.204 0.969867 -1.24223 0
M  V30 5705 C 527.114 2.09806 -1.0497 0
M  V30 5706 C 528.13 1.73998 0.00886455 0
M  V30 5707 O 529.306 2.00513 -0.188848 0
M  V30 5708 C 526.371 3.40467 -0.654452 0
M  V30 5709 C 525.432 3.90236 -1.78926 0
M  V30 5710 C 524.665 5.14662 -1.41277 0
M  V30 5711 O 524.888 5.69602 -0.301632 0
M  V30 5712 O 523.822 5.58761 -2.23763 0
M  V30 5713 H 527.648 2.28942 -1.99548 0
M  V30 5714 H 525.233 1.08197 -1.03023 0
M  V30 5715 H 527.115 4.19039 -0.445452 0
M  V30 5716 H 525.79 3.22636 0.262216 0
M  V30 5717 H 524.697 3.12735 -2.05299 0
M  V30 5718 H 526.03 4.1254 -2.68462 0
M  V30 5719 N 527.682 1.05563 1.17022 0
M  V30 5720 C 528.632 0.630007 2.19123 0
M  V30 5721 C 529.616 -0.335472 1.57364 0
M  V30 5722 O 530.808 -0.1521 1.76345 0
M  V30 5723 C 527.937 0.0101676 3.43298 0
M  V30 5724 C 527.023 0.999698 4.12149 0
M  V30 5725 N 527.414 2.17251 4.56766 0
M  V30 5726 C 525.712 0.829 4.38228 0
M  V30 5727 C 526.413 2.79883 5.09942 0
M  V30 5728 N 525.389 2.07656 5.02374 0
M  V30 5729 H 529.191 1.52353 2.51328 0
M  V30 5730 H 526.705 0.926288 1.33393 0
M  V30 5731 H 528.702 -0.312541 4.15727 0
M  V30 5732 H 527.362 -0.878707 3.12584 0
M  V30 5733 H 528.373 2.55067 4.50734 0
M  V30 5734 H 525.05 -0.00850974 4.17499 0
M  V30 5735 H 526.44 3.79362 5.54558 0
M  V30 5736 N 529.16 -1.33526 0.837174 0
M  V30 5737 C 530.07 -2.33023 0.271568 0
M  V30 5738 C 531.086 -1.63272 -0.601514 0
M  V30 5739 O 532.262 -1.94939 -0.506038 0
M  V30 5740 C 529.327 -3.42382 -0.545448 0
M  V30 5741 C 528.388 -4.27857 0.351709 0
M  V30 5742 C 527.621 -5.31994 -0.426409 0
M  V30 5743 O 527.844 -5.45763 -1.65828 0
M  V30 5744 O 526.778 -6.01572 0.1987 0
M  V30 5745 H 530.604 -2.83256 1.09545 0
M  V30 5746 H 528.189 -1.36837 0.599655 0
M  V30 5747 H 530.071 -4.09122 -1.00979 0
M  V30 5748 H 528.746 -2.94369 -1.34641 0
M  V30 5749 H 527.653 -3.6399 0.863853 0
M  V30 5750 H 528.986 -4.79349 1.1174 0
M  V30 5751 N 530.638 -0.59345 -1.46 0
M  V30 5752 C 531.548 0.135817 -2.34207 0
M  V30 5753 C 532.564 0.875008 -1.50398 0
M  V30 5754 O 533.74 0.835778 -1.83239 0
M  V30 5755 C 530.805 1.12977 -3.27776 0
M  V30 5756 C 529.866 0.394081 -4.27487 0
M  V30 5757 C 529.099 1.34068 -5.16586 0
M  V30 5758 O 529.322 2.5778 -5.08828 0
M  V30 5759 O 528.256 0.845426 -5.95933 0
M  V30 5760 H 532.082 -0.588691 -2.9794 0
M  V30 5761 H 529.667 -0.353784 -1.45151 0
M  V30 5762 H 531.549 1.70261 -3.85473 0
M  V30 5763 H 530.224 1.83556 -2.66625 0
M  V30 5764 H 529.131 -0.220869 -3.73447 0
M  V30 5765 H 530.464 -0.270939 -4.91454 0
M  V30 5766 N 532.116 1.54067 -0.331816 0
M  V30 5767 C 533.049 2.20886 0.573127 0
M  V30 5768 C 534.027 1.18876 1.10938 0
M  V30 5769 O 535.211 1.47649 1.17184 0
M  V30 5770 C 532.338 2.87706 1.78726 0
M  V30 5771 C 531.384 4.03505 1.38152 0
M  V30 5772 S 532.217 5.33919 0.41123 0
M  V30 5773 C 533.373 6.04236 1.63246 0
M  V30 5774 H 533.606 2.97299 0.00555737 0
M  V30 5775 H 531.139 1.53964 -0.115893 0
M  V30 5776 H 533.097 3.26825 2.48386 0
M  V30 5777 H 531.758 2.1108 2.32603 0
M  V30 5778 H 530.951 4.49152 2.28645 0
M  V30 5779 H 530.553 3.66102 0.764524 0
M  V30 5780 H 532.845 6.26917 2.56869 0
M  V30 5781 H 533.788 6.97546 1.218 0
M  V30 5782 H 534.196 5.34247 1.82318 0
M  V30 5783 N 533.594 0.0601682 1.57485 0
M  V30 5784 C 534.541 -0.91112 2.12055 0
M  V30 5785 C 535.511 -1.30298 1.03013 0
M  V30 5786 O 536.696 -1.39087 1.30612 0
M  V30 5787 C 533.836 -2.1775 2.67729 0
M  V30 5788 C 532.949 -1.83933 3.90887 0
M  V30 5789 C 532.084 -3.05096 4.34845 0
M  V30 5790 C 531.123 -2.67241 5.5068 0
M  V30 5791 N 530.26 -3.81127 5.8965 0
M  V30 5792 H 535.1 -0.43888 2.9475 0
M  V30 5793 H 532.637 -0.204995 1.45665 0
M  V30 5794 H 534.595 -2.91866 2.98111 0
M  V30 5795 H 533.225 -2.62535 1.87816 0
M  V30 5796 H 532.277 -0.999287 3.6704 0
M  V30 5797 H 533.589 -1.52074 4.75052 0
M  V30 5798 H 532.743 -3.87502 4.66827 0
M  V30 5799 H 531.482 -3.40139 3.49509 0
M  V30 5800 H 530.487 -1.83254 5.18361 0
M  V30 5801 H 531.712 -2.3338 6.37738 0
M  V30 5802 H 529.658 -4.15954 5.07266 0
M  V30 5803 H 529.575 -3.52997 6.68528 0
M  V30 5804 H 530.843 -4.64145 6.2625 0
M  V30 5805 N 535.072 -1.5615 -0.213296 0
M  V30 5806 C 536.02 -1.93953 -1.28394 0
M  V30 5807 C 537.014 -0.822592 -1.48087 0
M  V30 5808 O 538.22 -1.00748 -1.49164 0
M  V30 5809 H 534.595 -0.61648 -0.430646 0
M  V30 5810 H 536.566 -2.83275 -0.937977 0
M  V30 5811 C 535.315 -2.27969 -2.62537 0
M  V30 5812 H 534.638 -3.13432 -2.48194 0
M  V30 5813 H 536.078 -2.58297 -3.36242 0
M  V30 5814 C 534.537 -1.10775 -3.18167 0
M  V30 5815 O 535.067 -0.373201 -3.99963 0
M  V30 5816 N 533.273 -0.889377 -2.76656 0
M  V30 5817 H 532.82 -1.48843 -2.10246 0
M  V30 5818 H 532.778 -0.107 -3.14218 0
M  V30 5819 N 536.55 0.480323 -1.50102 0
M  V30 5820 C 537.48 1.58769 -1.71215 0
M  V30 5821 C 538.461 1.60583 -0.560997 0
M  V30 5822 O 539.646 1.76996 -0.799127 0
M  V30 5823 C 536.776 2.97148 -1.79778 0
M  V30 5824 C 535.73 3.10201 -2.94888 0
M  V30 5825 C 535.056 4.50137 -2.88584 0
M  V30 5826 C 536.356 2.88283 -4.35534 0
M  V30 5827 H 538.05 1.41354 -2.6393 0
M  V30 5828 H 535.596 0.678591 -1.27008 0
M  V30 5829 H 537.549 3.74536 -1.93133 0
M  V30 5830 H 536.273 3.15699 -0.836772 0
M  V30 5831 H 534.932 2.35244 -2.81169 0
M  V30 5832 H 534.58 4.65593 -1.90349 0
M  V30 5833 H 534.28 4.59808 -3.65856 0
M  V30 5834 H 535.804 5.29558 -3.03976 0
M  V30 5835 H 537.218 3.55427 -4.49827 0
M  V30 5836 H 535.615 3.09408 -5.14186 0
M  V30 5837 H 536.685 1.84219 -4.48544 0
M  V30 5838 N 538.028 1.39524 0.732853 0
M  V30 5839 C 538.938 1.40695 1.87729 0
M  V30 5840 C 539.954 0.301496 1.71368 0
M  V30 5841 O 541.13 0.543313 1.93933 0
M  V30 5842 C 538.195 1.25098 3.23344 0
M  V30 5843 C 537.256 2.45634 3.52083 0
M  V30 5844 C 536.489 2.30772 4.81228 0
M  V30 5845 O 536.712 1.31233 5.55098 0
M  V30 5846 O 535.646 3.19799 5.09914 0
M  V30 5847 H 539.472 2.37168 1.89697 0
M  V30 5848 H 537.057 1.20663 0.880959 0
M  V30 5849 H 538.939 1.18541 4.04383 0
M  V30 5850 H 537.614 0.317209 3.22142 0
M  V30 5851 H 536.521 2.57767 2.71122 0
M  V30 5852 H 537.854 3.37712 3.58066 0
M  V30 5853 N 539.506 -0.963266 1.24736 0
M  V30 5854 C 540.469 -2.04013 1.04457 0
M  V30 5855 C 541.469 -1.608 0.000335555 0
M  V30 5856 O 542.659 -1.72515 0.241719 0
M  V30 5857 C 539.791 -3.35858 0.584162 0
M  V30 5858 H 540.984 -2.23436 2.00041 0
M  V30 5859 H 538.537 -1.13914 1.07021 0
M  V30 5860 H 539.272 -3.22128 -0.374673 0
M  V30 5861 H 539.057 -3.68568 1.3379 0
M  V30 5862 H 540.547 -4.1502 0.463451 0
M  V30 5863 N 540.985 -1.06182 -1.16461 0
M  V30 5864 C 542.234 -0.772927 -1.86303 0
M  V30 5865 C 542.547 0.703187 -1.82523 0
M  V30 5866 O 543.753 1.10641 -2.47933 0
M  V30 5867 C 542.209 -1.33249 -3.34324 0
M  V30 5868 C 541.817 -2.83876 -3.46581 0
M  V30 5869 C 543.561 -1.12108 -4.09429 0
M  V30 5870 C 541.468 -3.33082 -4.88682 0
M  V30 5871 H 540.398 -0.285452 -0.697878 0
M  V30 5872 H 543.049 -1.28039 -1.31447 0
M  V30 5873 H 541.431 -0.7528 -3.88779 0
M  V30 5874 H 542.605 -3.47786 -3.02293 0
M  V30 5875 H 540.92 -3.03671 -2.84909 0
M  V30 5876 H 543.517 -1.46361 -5.14279 0
M  V30 5877 H 543.86 -0.0593832 -4.16258 0
M  V30 5878 H 544.393 -1.6665 -3.6121 0
M  V30 5879 H 541.132 -4.38726 -4.87032 0
M  V30 5880 H 540.652 -2.73919 -5.33599 0
M  V30 5881 H 542.331 -3.28344 -5.57494 0
M  V30 5882 N 542.463 1.3308 -0.844243 0
M  V30 5883 C 543.709 1.97898 -0.443206 0
M  V30 5884 C 544.042 1.66699 0.99625 0
M  V30 5885 O 543.317 0.949704 1.69738 0
M  V30 5886 C 543.6 3.53801 -0.670606 0
M  V30 5887 C 543.453 3.94667 -2.15772 0
M  V30 5888 C 544.772 4.39936 -0.120226 0
M  V30 5889 H 541.891 0.718861 -0.162504 0
M  V30 5890 H 544.533 1.57633 -1.06075 0
M  V30 5891 H 542.683 3.88229 -0.14496 0
M  V30 5892 H 544.355 3.70469 -2.74865 0
M  V30 5893 H 542.598 3.44203 -2.6402 0
M  V30 5894 H 543.269 5.03275 -2.26757 0
M  V30 5895 H 545.745 4.12183 -0.5696 0
M  V30 5896 H 544.621 5.4803 -0.308984 0
M  V30 5897 H 544.882 4.31184 0.976347 0
M  V30 5898 N 543.941 0.601185 1.45683 0
M  V30 5899 C 544.873 -0.159446 2.28645 0
M  V30 5900 C 545.886 -0.837882 1.39583 0
M  V30 5901 O 547.075 -0.704344 1.64016 0
M  V30 5902 C 544.175 -1.24641 3.15147 0
M  V30 5903 C 543.348 -0.656334 4.32448 0
M  V30 5904 C 542.407 -1.63337 5.00208 0
M  V30 5905 O 541.433 -1.16217 5.57209 0
M  V30 5906 N 542.635 -2.96773 4.98905 0
M  V30 5907 H 545.4 0.5524 2.94565 0
M  V30 5908 H 542.961 0.440223 1.558 0
M  V30 5909 H 544.953 -1.8997 3.57342 0
M  V30 5910 H 543.523 -1.86087 2.51178 0
M  V30 5911 H 542.743 0.174879 3.93812 0
M  V30 5912 H 544.031 -0.242211 5.08223 0
M  V30 5913 H 543.429 -3.37662 4.53873 0
M  V30 5914 H 541.986 -3.57541 5.44984 0
M  V30 5915 N 545.419 -1.53889 0.339982 0
M  V30 5916 C 546.329 -2.28604 -0.526988 0
M  V30 5917 C 547.345 -1.33578 -1.11503 0
M  V30 5918 O 548.521 -1.66612 -1.13148 0
M  V30 5919 C 545.586 -3.04164 -1.66389 0
M  V30 5920 C 544.647 -4.14809 -1.10599 0
M  V30 5921 C 543.88 -4.86756 -2.18871 0
M  V30 5922 O 544.103 -4.58343 -3.39526 0
M  V30 5923 O 543.037 -5.73289 -1.83366 0
M  V30 5924 H 546.863 -3.03594 0.0802707 0
M  V30 5925 H 544.448 -1.4903 0.105141 0
M  V30 5926 H 546.33 -3.51427 -2.32544 0
M  V30 5927 H 545.005 -2.32035 -2.25703 0
M  V30 5928 H 543.912 -3.71857 -0.409067 0
M  V30 5929 H 545.245 -4.89029 -0.557771 0
M  V30 5930 N 546.897 -0.0685191 -1.57451 0
M  V30 5931 C 548.146 0.600898 -1.92541 0
M  V30 5932 C 548.459 1.70967 -0.950239 0
M  V30 5933 O 549.665 2.43844 -1.19384 0
M  V30 5934 C 548.121 1.12019 -3.42023 0
M  V30 5935 C 547.729 0.0426028 -4.4798 0
M  V30 5936 C 549.473 1.76386 -3.86119 0
M  V30 5937 C 547.38 0.575759 -5.88591 0
M  V30 5938 H 546.31 0.228225 -0.71863 0
M  V30 5939 H 548.961 -0.140223 -1.82963 0
M  V30 5940 H 547.343 1.91418 -3.46663 0
M  V30 5941 H 548.517 -0.73182 -4.54952 0
M  V30 5942 H 546.832 -0.504642 -4.13331 0
M  V30 5943 H 549.429 2.17302 -4.88553 0
M  V30 5944 H 549.772 2.62255 -3.23308 0
M  V30 5945 H 550.305 1.03615 -3.84069 0
M  V30 5946 H 547.044 -0.245691 -6.55039 0
M  V30 5947 H 546.564 1.31778 -5.85145 0
M  V30 5948 H 548.243 1.0532 -6.3837 0
M  V30 5949 N 548.375 1.56261 0.205012 0
M  V30 5950 C 549.322 1.93754 1.25411 0
M  V30 5951 C 550.292 0.796826 1.45739 0
M  V30 5952 O 551.477 1.05414 1.59036 0
M  V30 5953 C 548.617 2.27383 2.59598 0
M  V30 5954 C 547.73 3.5447 2.46931 0
M  V30 5955 C 546.865 3.77468 3.73753 0
M  V30 5956 C 545.904 4.98014 3.55877 0
M  V30 5957 N 545.041 5.17316 4.74688 0
M  V30 5958 H 549.881 2.83203 0.92737 0
M  V30 5959 H 547.418 1.40158 0.446574 0
M  V30 5960 H 549.376 2.44895 3.37761 0
M  V30 5961 H 548.006 1.41088 2.90335 0
M  V30 5962 H 547.058 3.45061 1.60116 0
M  V30 5963 H 548.37 4.42789 2.29651 0
M  V30 5964 H 547.524 3.95165 4.60358 0
M  V30 5965 H 546.263 2.87461 3.93976 0
M  V30 5966 H 545.268 4.80249 2.67657 0
M  V30 5967 H 546.493 5.8952 3.37109 0
M  V30 5968 H 544.439 4.30255 4.95194 0
M  V30 5969 H 544.356 5.99796 4.60197 0
M  V30 5970 H 545.624 5.39463 5.62672 0
M  V30 5971 N 549.853 -0.472356 1.50355 0
M  V30 5972 C 551.264 -1.05326 1.54154 0
M  V30 5973 C 551.615 -1.93155 0.344303 0
M  V30 5974 O 550.74 -2.09479 -0.542928 0
M  V30 5975 C 551.335 -1.91691 2.79356 0
M  V30 5976 C 549.894 -2.44892 2.8584 0
M  V30 5977 C 549.041 -1.23205 2.48426 0
M  V30 5978 H 551.992 -0.255027 1.56637 0
M  V30 5979 H 552.013 -2.76742 2.6114 0
M  V30 5980 H 551.525 -1.27741 3.66475 0
M  V30 5981 H 549.626 -3.12399 2.0307 0
M  V30 5982 H 549.739 -2.80086 3.88701 0
M  V30 5983 H 548.103 -1.56643 2.00836 0
M  V30 5984 H 548.886 -0.609194 3.37852 0
M  V30 5985 N 551.331 -1.39911 -0.725443 0
M  V30 5986 C 552.559 -1.40949 -1.51463 0
M  V30 5987 C 552.974 -0.0065242 -1.88799 0
M  V30 5988 O 552.331 0.967163 -1.54765 0
M  V30 5989 C 552.382 -2.29119 -2.79619 0
M  V30 5990 O 552.103 -3.63952 -2.43866 0
M  V30 5991 C 553.604 -2.38642 -3.73584 0
M  V30 5992 H 550.824 -0.481091 -0.467752 0
M  V30 5993 H 553.368 -1.83843 -0.895651 0
M  V30 5994 H 551.523 -1.89612 -3.37826 0
M  V30 5995 H 551.937 -4.10677 -3.26258 0
M  V30 5996 H 553.411 -3.04563 -4.60375 0
M  V30 5997 H 553.888 -1.40846 -4.16004 0
M  V30 5998 H 554.494 -2.78659 -3.21293 0
M  V30 5999 N 552.809 0.956637 -1.25245 0
M  V30 6000 C 553.772 2.03457 -1.05537 0
M  V30 6001 C 554.772 1.60798 -0.00886317 0
M  V30 6002 O 555.962 1.72384 -0.250865 0
M  V30 6003 C 553.094 3.35543 -0.601965 0
M  V30 6004 H 554.287 2.22372 -2.01223 0
M  V30 6005 H 551.84 1.13344 -1.07623 0
M  V30 6006 H 552.575 3.22323 0.357584 0
M  V30 6007 H 552.36 3.67854 -1.35743 0
M  V30 6008 H 553.85 4.14769 -0.485454 0
M  V30 6009 N 554.287 1.06798 1.15896 0
M  V30 6010 C 555.217 0.704677 2.22613 0
M  V30 6011 C 556.198 -0.305252 1.67339 0
M  V30 6012 O 557.383 -0.179247 1.93371 0
M  V30 6013 C 554.513 0.0957325 3.47168 0
M  V30 6014 C 553.467 1.0322 4.15367 0
M  V30 6015 C 552.793 0.286293 5.33933 0
M  V30 6016 C 554.093 2.36341 4.65768 0
M  V30 6017 H 555.787 1.59688 2.53259 0
M  V30 6018 H 553.333 0.769257 1.21731 0
M  V30 6019 H 555.286 -0.170333 4.21056 0
M  V30 6020 H 554.01 -0.831516 3.15838 0
M  V30 6021 H 552.669 1.28309 3.43413 0
M  V30 6022 H 552.317 -0.644237 4.98857 0
M  V30 6023 H 552.017 0.910436 5.80504 0
M  V30 6024 H 553.541 0.0278938 6.10594 0
M  V30 6025 H 554.955 2.1561 5.31211 0
M  V30 6026 H 553.352 2.94299 5.2298 0
M  V30 6027 H 554.422 2.99047 3.81705 0
M  V30 6028 N 555.766 -1.3263 0.851289 0
M  V30 6029 C 557.015 -1.96633 0.449267 0
M  V30 6030 C 557.328 -1.68131 -0.999562 0
M  V30 6031 O 558.534 -2.25845 -1.50685 0
M  V30 6032 C 556.99 -3.51946 0.752446 0
M  V30 6033 C 556.598 -3.89311 2.21678 0
M  V30 6034 C 558.342 -4.22437 0.417983 0
M  V30 6035 C 556.249 -5.37655 2.46336 0
M  V30 6036 H 555.179 -0.735888 0.164269 0
M  V30 6037 H 557.83 -1.51073 1.0416 0
M  V30 6038 H 556.212 -3.95899 0.0895858 0
M  V30 6039 H 557.386 -3.56378 2.92115 0
M  V30 6040 H 555.701 -3.31836 2.51543 0
M  V30 6041 H 558.298 -5.31549 0.579674 0
M  V30 6042 H 558.641 -4.11349 -0.640115 0
M  V30 6043 H 559.174 -3.84057 1.03659 0
M  V30 6044 H 555.913 -5.5376 3.50757 0
M  V30 6045 H 555.433 -5.72005 1.80473 0
M  V30 6046 H 557.112 -6.04695 2.30115 0
M  V30 6047 N 557.244 -0.608902 -1.45362 0
M  V30 6048 C 558.492 -0.104401 -2.0183 0
M  V30 6049 C 558.813 1.27007 -1.47967 0
M  V30 6050 O 558.083 1.83924 -0.674455 0
M  V30 6051 H 556.663 -0.0356042 -0.746151 0
M  V30 6052 H 559.325 -0.790596 -1.78145 0
M  V30 6053 H 558.421 -0.0551793 -3.12051 0
M  V30 6054 N 558.722 1.53707 -0.348139 0
M  V30 6055 C 559.968 2.01286 0.247332 0
M  V30 6056 C 560.301 1.23546 1.49834 0
M  V30 6057 O 559.576 0.324331 1.91777 0
M  V30 6058 C 559.859 3.55768 0.556858 0
M  V30 6059 C 559.712 4.44216 -0.706564 0
M  V30 6060 C 561.031 4.1841 1.3646 0
M  V30 6061 H 558.15 0.731677 0.0884201 0
M  V30 6062 H 560.792 1.84106 -0.469584 0
M  V30 6063 H 558.942 3.70539 1.16761 0
M  V30 6064 H 560.614 4.41274 -1.34444 0
M  V30 6065 H 558.857 4.12892 -1.33052 0
M  V30 6066 H 559.528 5.50202 -0.445186 0
M  V30 6067 H 562.004 4.07365 0.848113 0
M  V30 6068 H 560.88 5.26563 1.54992 0
M  V30 6069 H 561.141 3.7333 2.36805 0
M  V30 6070 N 560.2 0.0768682 1.57412 0
M  V30 6071 C 561.163 -0.873949 2.11884 0
M  V30 6072 C 562.163 -1.22301 1.04398 0
M  V30 6073 O 563.353 -1.15545 1.30365 0
M  V30 6074 C 560.485 -2.17575 2.62438 0
M  V30 6075 H 561.678 -0.401278 2.97203 0
M  V30 6076 H 559.231 -0.171904 1.55352 0
M  V30 6077 H 559.966 -2.69368 1.80587 0
M  V30 6078 H 559.751 -1.93534 3.41009 0
M  V30 6079 H 561.241 -2.85631 3.04639 0
M  V30 6080 N 561.678 -1.56367 -0.196722 0
M  V30 6081 C 562.641 -1.93561 -1.22746 0
M  V30 6082 C 563.641 -0.816566 -1.38524 0
M  V30 6083 O 564.831 -1.084 -1.36363 0
M  V30 6084 C 561.963 -2.20823 -2.59712 0
M  V30 6085 H 563.156 -2.85774 -0.909586 0
M  V30 6086 H 560.709 -1.50032 -0.438174 0
M  V30 6087 H 561.444 -1.31243 -2.96557 0
M  V30 6088 H 561.229 -3.02368 -2.49632 0
M  V30 6089 H 562.719 -2.50608 -3.34044 0
M  V30 6090 N 563.156 0.464375 -1.50603 0
M  V30 6091 C 564.405 1.21277 -1.61167 0
M  V30 6092 C 564.718 1.92953 -0.320704 0
M  V30 6093 O 565.924 2.69778 -0.30534 0
M  V30 6094 C 564.38 2.20403 -2.84518 0
M  V30 6095 C 563.988 1.54499 -4.20516 0
M  V30 6096 C 565.732 2.95843 -3.0443 0
M  V30 6097 C 563.639 2.51951 -5.35047 0
M  V30 6098 H 562.569 0.456367 -0.600204 0
M  V30 6099 H 565.22 0.48254 -1.77042 0
M  V30 6100 H 563.602 2.96746 -2.62217 0
M  V30 6101 H 564.776 0.83899 -4.53098 0
M  V30 6102 H 563.091 0.913152 -4.06264 0
M  V30 6103 H 565.688 3.6879 -3.87167 0
M  V30 6104 H 566.031 3.55622 -2.16423 0
M  V30 6105 H 566.564 2.26611 -3.26944 0
M  V30 6106 H 563.303 1.96901 -6.25228 0
M  V30 6107 H 562.823 3.20683 -5.06875 0
M  V30 6108 H 564.502 3.13643 -5.65895 0
M  V30 6109 N 564.634 1.40294 0.718013 0
M  V30 6110 C 565.882 1.38167 1.47494 0
M  V30 6111 C 566.203 -0.01607 1.94993 0
M  V30 6112 O 565.473 -0.970396 1.70177 0
M  V30 6113 H 564.053 0.508505 0.547203 0
M  V30 6114 H 566.715 1.75324 0.851322 0
M  V30 6115 H 565.811 2.05503 2.34894 0
M  V30 6116 N 566.112 -0.949982 1.2575 0
M  V30 6117 C 567.36 -1.6918 1.10555 0
M  V30 6118 C 567.681 -1.91773 -0.353298 0
M  V30 6119 O 566.951 -1.50814 -1.25027 0
M  V30 6120 H 565.531 -0.626952 0.406129 0
M  V30 6121 H 568.193 -1.1419 1.57945 0
M  V30 6122 H 567.289 -2.66915 1.61749 0
M  V30 6123 N 567.59 -1.07411 -1.15328 0
M  V30 6124 C 568.553 -0.698914 -2.18284 0
M  V30 6125 C 569.553 0.261149 -1.58665 0
M  V30 6126 O 570.743 0.0420277 -1.74149 0
M  V30 6127 C 567.875 -0.0302427 -3.40887 0
M  V30 6128 H 569.068 -1.61045 -2.52991 0
M  V30 6129 H 566.621 -0.870724 -1.298 0
M  V30 6130 H 567.356 0.893505 -3.11748 0
M  V30 6131 H 567.141 -0.720759 -3.85419 0
M  V30 6132 H 568.631 0.21759 -4.17033 0
M  V30 6133 N 569.068 1.32177 -0.85831 0
M  V30 6134 C 570.315 1.97125 -0.463484 0
M  V30 6135 C 570.643 1.67907 0.981705 0
M  V30 6136 O 569.898 0.961717 1.70439 0
M  V30 6137 C 570.197 3.51372 -0.653658 0
M  V30 6138 C 569.863 4.00584 -2.06987 0
M  V30 6139 C 568.525 4.13733 -2.4572 0
M  V30 6140 C 570.877 4.26624 -2.99402 0
M  V30 6141 C 568.205 4.50268 -3.76132 0
M  V30 6142 C 570.557 4.64618 -4.29316 0
M  V30 6143 C 569.221 4.75975 -4.67979 0
M  V30 6144 H 568.491 0.72133 -0.169601 0
M  V30 6145 H 571.138 1.57517 -1.08907 0
M  V30 6146 H 569.443 3.91761 0.0551328 0
M  V30 6147 H 571.14 3.99655 -0.328163 0
M  V30 6148 H 567.73 3.90837 -1.75911 0
M  V30 6149 H 571.914 4.1597 -2.70708 0
M  V30 6150 H 567.17 4.57256 -4.05865 0
M  V30 6151 H 571.344 4.83722 -5.00985 0
M  V30 6152 H 568.971 5.04041 -5.69076 0
M  V30 6153 N 570.547 0.616602 1.45037 0
M  V30 6154 C 571.772 0.120192 2.07051 0
M  V30 6155 C 572.197 -1.19008 1.45666 0
M  V30 6156 O 571.555 -1.7267 0.552692 0
M  V30 6157 C 571.603 0.00354901 3.606 0
M  V30 6158 O 570.707 -1.04431 3.98958 0
M  V30 6159 H 570.048 0.0781599 0.659384 0
M  V30 6160 H 572.578 0.849167 1.86146 0
M  V30 6161 H 572.588 -0.191754 4.07549 0
M  V30 6162 H 571.263 0.960239 4.04663 0
M  V30 6163 H 569.84 -0.824749 3.63665 0
M  V30 6164 N 572.025 -1.5352 0.356285 0
M  V30 6165 C 572.935 -2.29151 -0.502712 0
M  V30 6166 C 573.951 -1.34753 -1.1008 0
M  V30 6167 O 575.127 -1.67803 -1.11374 0
M  V30 6168 C 572.192 -3.05911 -1.63154 0
M  V30 6169 C 571.253 -4.15958 -1.06194 0
M  V30 6170 C 570.486 -4.8905 -2.13696 0
M  V30 6171 O 570.709 -4.61919 -3.34645 0
M  V30 6172 O 569.643 -5.75202 -1.77275 0
M  V30 6173 H 573.469 -3.03492 0.112466 0
M  V30 6174 H 571.054 -1.4891 0.120942 0
M  V30 6175 H 572.936 -3.53874 -2.28804 0
M  V30 6176 H 571.611 -2.34415 -2.23229 0
M  V30 6177 H 570.518 -3.7227 -0.369603 0
M  V30 6178 H 571.851 -4.89593 -0.505872 0
M  V30 6179 N 573.503 -0.0852151 -1.57369 0
M  V30 6180 C 574.435 0.907099 -2.10486 0
M  V30 6181 C 575.448 1.25259 -1.03991 0
M  V30 6182 O 576.637 1.20743 -1.31467 0
M  V30 6183 C 573.737 2.21908 -2.56145 0
M  V30 6184 C 572.91 2.05042 -3.86363 0
M  V30 6185 C 571.969 3.19664 -4.17973 0
M  V30 6186 O 570.995 2.94062 -4.87356 0
M  V30 6187 N 572.197 4.45151 -3.72587 0
M  V30 6188 H 574.962 0.453505 -2.96249 0
M  V30 6189 H 572.523 0.100157 -1.6159 0
M  V30 6190 H 574.515 2.97519 -2.74343 0
M  V30 6191 H 573.085 2.58723 -1.75446 0
M  V30 6192 H 572.305 1.13819 -3.77411 0
M  V30 6193 H 573.593 1.91039 -4.71574 0
M  V30 6194 H 572.991 4.68834 -3.16561 0
M  V30 6195 H 571.548 5.17744 -3.9596 0
M  V30 6196 N 574.981 1.5647 0.188427 0
M  V30 6197 C 576.23 1.80207 0.905995 0
M  V30 6198 C 576.543 0.659579 1.84144 0
M  V30 6199 O 577.749 0.781431 2.60011 0
M  V30 6200 C 576.205 3.19255 1.66145 0
M  V30 6201 C 575.813 4.41324 0.770504 0
M  V30 6202 C 577.557 3.52298 2.36826 0
M  V30 6203 C 575.464 5.71394 1.52521 0
M  V30 6204 H 574.394 0.671953 0.342045 0
M  V30 6205 H 577.045 1.82808 0.159164 0
M  V30 6206 H 575.427 3.10922 2.45242 0
M  V30 6207 H 576.601 4.60797 0.0177261 0
M  V30 6208 H 574.916 4.16035 0.174199 0
M  V30 6209 H 577.513 4.46715 2.93854 0
M  V30 6210 H 577.856 2.76359 3.11338 0
M  V30 6211 H 578.389 3.62108 1.6469 0
M  V30 6212 H 575.128 6.50316 0.82275 0
M  V30 6213 H 574.648 5.55928 2.25175 0
M  V30 6214 H 576.327 6.12747 2.07725 0
M  V30 6215 N 576.459 -0.456382 1.50847 0
M  V30 6216 C 577.389 -1.56025 1.73719 0
M  V30 6217 C 578.37 -1.5967 0.586473 0
M  V30 6218 O 579.555 -1.75702 0.827185 0
M  V30 6219 C 576.685 -2.94251 1.84483 0
M  V30 6220 C 575.639 -3.05471 2.99786 0
M  V30 6221 C 574.965 -4.45489 2.95709 0
M  V30 6222 C 576.265 -2.81318 4.40065 0
M  V30 6223 H 577.959 -1.37138 2.66146 0
M  V30 6224 H 575.505 -0.658299 1.28072 0
M  V30 6225 H 577.458 -3.71417 1.99067 0
M  V30 6226 H 576.182 -3.14328 0.886891 0
M  V30 6227 H 574.841 -2.30741 2.84876 0
M  V30 6228 H 574.489 -4.62505 1.97732 0
M  V30 6229 H 574.189 -4.53929 3.73125 0
M  V30 6230 H 575.713 -5.24655 3.12362 0
M  V30 6231 H 577.127 -3.48226 4.55425 0
M  V30 6232 H 575.524 -3.01188 5.19043 0
M  V30 6233 H 576.594 -1.7706 4.51418 0
M  V30 6234 N 577.937 -1.40673 -0.710563 0
M  V30 6235 C 578.884 -1.41336 -1.82463 0
M  V30 6236 C 579.854 -0.269648 -1.63897 0
M  V30 6237 O 581.039 -0.468463 -1.8496 0
M  V30 6238 C 578.179 -1.28665 -3.20218 0
M  V30 6239 C 577.292 -2.52784 -3.5032 0
M  V30 6240 C 576.427 -2.32517 -4.77608 0
M  V30 6241 C 575.466 -3.52187 -5.0063 0
M  V30 6242 N 574.603 -3.31084 -6.19135 0
M  V30 6243 H 579.443 -2.36558 -1.8123 0
M  V30 6244 H 576.98 -1.17483 -0.885226 0
M  V30 6245 H 578.938 -1.19324 -3.99772 0
M  V30 6246 H 577.568 -0.370602 -3.20666 0
M  V30 6247 H 576.62 -2.72634 -2.65283 0
M  V30 6248 H 577.932 -3.41845 -3.63241 0
M  V30 6249 H 577.086 -2.20558 -5.65189 0
M  V30 6250 H 575.825 -1.40889 -4.66906 0
M  V30 6251 H 574.83 -3.64617 -4.11502 0
M  V30 6252 H 576.055 -4.44749 -5.13201 0
M  V30 6253 H 574.001 -2.42143 -6.09674 0
M  V30 6254 H 573.918 -4.13713 -6.32754 0
M  V30 6255 H 575.186 -3.22868 -7.0949 0
M  V30 6256 N 579.415 0.9433 -1.26252 0
M  V30 6257 C 580.692 1.66639 -1.02424 0
M  V30 6258 C 581.072 2.06335 0.446006 0
M  V30 6259 O 580.42 1.78551 1.42589 0
M  V30 6260 C 580.63 2.88019 -1.97094 0
M  V30 6261 C 581.978 3.59718 -2.25584 0
M  V30 6262 O 583.002 2.9812 -1.94943 0
M  V30 6263 O 581.861 4.7066 -2.77743 0
M  V30 6264 H 578.955 0.729643 -0.389294 0
M  V30 6265 H 581.501 0.995218 -1.37454 0
M  V30 6266 H 580.273 2.5556 -2.96319 0
M  V30 6267 H 579.896 3.62863 -1.62532 0
M  V30 6268 N 580.893 1.08022 1.14757 0
M  V30 6269 C 581.826 0.650738 2.18725 0
M  V30 6270 C 582.804 -0.335496 1.59101 0
M  V30 6271 O 583.988 -0.240295 1.86962 0
M  V30 6272 C 581.115 -0.0434377 3.38672 0
M  V30 6273 C 580.161 0.90232 4.16846 0
M  V30 6274 S 580.994 2.40693 4.78359 0
M  V30 6275 C 582.15 1.72475 6.01667 0
M  V30 6276 H 582.383 1.53152 2.54817 0
M  V30 6277 H 579.916 0.894823 1.25826 0
M  V30 6278 H 581.874 -0.437684 4.0816 0
M  V30 6279 H 580.535 -0.900659 3.0091 0
M  V30 6280 H 579.728 0.363445 5.02688 0
M  V30 6281 H 579.33 1.23728 3.52941 0
M  V30 6282 H 581.622 1.0404 6.69464 0
M  V30 6283 H 582.565 2.56175 6.60136 0
M  V30 6284 H 582.973 1.19979 5.51602 0
M  V30 6285 N 582.371 -1.3172 0.865308 0
M  V30 6286 C 583.334 -2.26918 0.322627 0
M  V30 6287 C 584.334 -1.52031 -0.523751 0
M  V30 6288 O 585.524 -1.70973 -0.333727 0
M  V30 6289 C 582.656 -3.36558 -0.542338 0
M  V30 6290 H 583.849 -2.76432 1.16298 0
M  V30 6291 H 581.402 -1.42573 0.640512 0
M  V30 6292 H 582.137 -2.92329 -1.40407 0
M  V30 6293 H 581.922 -3.92048 0.0636395 0
M  V30 6294 H 583.412 -4.07465 -0.91446 0
M  V30 6295 N 583.85 -0.624285 -1.44708 0
M  V30 6296 C 584.812 0.0749638 -2.29077 0
M  V30 6297 C 585.812 0.778965 -1.40673 0
M  V30 6298 O 587.003 0.624591 -1.62618 0
M  V30 6299 C 584.135 1.11663 -3.22094 0
M  V30 6300 H 585.327 -0.667013 -2.92388 0
M  V30 6301 H 582.88 -0.384098 -1.51507 0
M  V30 6302 H 583.615 1.88881 -2.63618 0
M  V30 6303 H 583.401 0.61583 -3.87234 0
M  V30 6304 H 584.891 1.60585 -3.8549 0
M  V30 6305 N 585.328 1.53329 -0.364422 0
M  V30 6306 C 586.575 2.01239 0.225634 0
M  V30 6307 C 586.903 1.25172 1.48869 0
M  V30 6308 O 586.158 0.333289 1.92841 0
M  V30 6309 C 586.457 3.52911 0.564661 0
M  V30 6310 C 586.123 4.46837 -0.603936 0
M  V30 6311 C 584.785 4.72234 -0.924585 0
M  V30 6312 C 587.137 5.02409 -1.38691 0
M  V30 6313 C 584.465 5.50454 -2.0302 0
M  V30 6314 C 586.817 5.81836 -2.48293 0
M  V30 6315 C 585.481 6.0552 -2.80894 0
M  V30 6316 H 584.751 0.736386 0.0825654 0
M  V30 6317 H 587.398 1.84948 -0.496645 0
M  V30 6318 H 585.703 3.67144 1.36794 0
M  V30 6319 H 587.4 3.87455 1.03344 0
M  V30 6320 H 583.99 4.27217 -0.343983 0
M  V30 6321 H 588.174 4.82735 -1.15243 0
M  V30 6322 H 583.43 5.67024 -2.28678 0
M  V30 6323 H 587.604 6.23905 -3.0938 0
M  V30 6324 H 585.231 6.65916 -3.66688 0
M  V30 6325 N 586.806 0.0935595 1.57322 0
M  V30 6326 C 587.754 -0.883457 2.15169 0
M  V30 6327 C 588.748 -1.29324 1.09415 0
M  V30 6328 O 589.954 -1.26795 1.27762 0
M  V30 6329 H 586.329 -0.302923 0.688289 0
M  V30 6330 H 588.3 -0.370845 2.96087 0
M  V30 6331 C 587.049 -2.13345 2.74552 0
M  V30 6332 H 586.372 -1.82702 3.55612 0
M  V30 6333 H 587.812 -2.7977 3.18598 0
M  V30 6334 C 586.271 -2.90646 1.70371 0
M  V30 6335 O 586.801 -3.85133 1.14173 0
M  V30 6336 N 585.007 -2.54157 1.40899 0
M  V30 6337 H 584.554 -1.77391 1.86789 0
M  V30 6338 H 584.512 -3.06178 0.714301 0
M  V30 6339 N 588.284 -1.56567 -0.180126 0
M  V30 6340 C 589.194 -1.98947 -1.24327 0
M  V30 6341 C 590.21 -0.899446 -1.4895 0
M  V30 6342 O 591.386 -1.20639 -1.61271 0
M  V30 6343 C 588.451 -2.33328 -2.56435 0
M  V30 6344 C 587.512 -3.56114 -2.39752 0
M  V30 6345 C 586.745 -3.88845 -3.65561 0
M  V30 6346 O 586.968 -3.22662 -4.70368 0
M  V30 6347 O 585.902 -4.82226 -3.60197 0
M  V30 6348 H 589.728 -2.89634 -0.913565 0
M  V30 6349 H 587.313 -1.44319 -0.386306 0
M  V30 6350 H 589.195 -2.5645 -3.34382 0
M  V30 6351 H 587.87 -1.45806 -2.89002 0
M  V30 6352 H 586.777 -3.38221 -1.59866 0
M  V30 6353 H 588.11 -4.4415 -2.12113 0
M  V30 6354 N 589.762 0.448376 -1.51087 0
M  V30 6355 C 591.178 0.783984 -1.39017 0
M  V30 6356 C 591.378 1.96087 -0.463904 0
M  V30 6357 O 590.434 2.52357 0.0850534 0
M  V30 6358 C 591.747 1.07471 -2.80839 0
M  V30 6359 C 593.295 1.17981 -2.89913 0
M  V30 6360 C 593.77 1.50354 -4.32617 0
M  V30 6361 N 595.261 1.57301 -4.35673 0
M  V30 6362 C 595.996 1.839 -5.4311 0
M  V30 6363 N 595.492 2.08365 -6.60724 0
M  V30 6364 N 597.285 1.8559 -5.30578 0
M  V30 6365 H 589.436 -0.326881 -2.0987 0
M  V30 6366 H 591.699 -0.0838006 -0.944289 0
M  V30 6367 H 591.405 0.282768 -3.50561 0
M  V30 6368 H 591.279 2.00519 -3.19487 0
M  V30 6369 H 593.666 1.9624 -2.20395 0
M  V30 6370 H 593.747 0.228603 -2.54776 0
M  V30 6371 H 593.391 0.726273 -5.0268 0
M  V30 6372 H 593.321 2.46663 -4.65258 0
M  V30 6373 H 595.812 1.40342 -3.50874 0
M  V30 6374 H 596.125 2.27999 -7.38401 0
M  V30 6375 H 594.47 2.0571 -6.63859 0
M  V30 6376 H 597.661 1.65989 -4.37682 0
M  V30 6377 H 597.834 2.05983 -6.1439 0
M  V30 6378 N 591.24 1.41047 0.703093 0
M  V30 6379 C 592.651 1.35657 1.28274 0
M  V30 6380 C 593.002 0.0360309 1.96167 0
M  V30 6381 O 592.127 -0.865833 1.98324 0
M  V30 6382 C 592.722 2.45707 2.33267 0
M  V30 6383 C 591.281 2.43738 2.86825 0
M  V30 6384 C 590.428 2.25941 1.60767 0
M  V30 6385 H 593.379 1.50672 0.49836 0
M  V30 6386 H 593.4 2.14333 3.14391 0
M  V30 6387 H 592.912 3.41805 1.83824 0
M  V30 6388 H 591.013 1.51375 3.40465 0
M  V30 6389 H 591.126 3.39779 3.37768 0
M  V30 6390 H 589.49 1.73681 1.86298 0
M  V30 6391 H 590.273 3.24054 1.1333 0
M  V30 6392 N 592.718 -0.936591 1.26751 0
M  V30 6393 C 593.967 -1.67778 1.11953 0
M  V30 6394 C 594.28 -1.92694 -0.33589 0
M  V30 6395 O 595.486 -2.64682 -0.604618 0
M  V30 6396 C 593.942 -3.02138 1.95551 0
M  V30 6397 C 593.55 -2.84953 3.45696 0
M  V30 6398 C 595.294 -3.79917 1.89377 0
M  V30 6399 C 593.201 -4.14814 4.21525 0
M  V30 6400 H 592.131 -0.629275 0.415366 0
M  V30 6401 H 594.782 -1.04122 1.51099 0
M  V30 6402 H 593.164 -3.668 1.49243 0
M  V30 6403 H 594.338 -2.29112 3.99805 0
M  V30 6404 H 592.653 -2.20612 3.53156 0
M  V30 6405 H 595.25 -4.76134 2.43312 0
M  V30 6406 H 595.593 -4.07204 0.865464 0
M  V30 6407 H 596.126 -3.22037 2.33532 0
M  V30 6408 H 592.865 -3.92709 5.24843 0
M  V30 6409 H 592.385 -4.70352 3.72195 0
M  V30 6410 H 594.064 -4.83239 4.3022 0
M  V30 6411 N 594.196 -1.08629 -1.14182 0
M  V30 6412 C 595.445 -0.812271 -1.84621 0
M  V30 6413 C 595.758 0.664313 -1.83973 0
M  V30 6414 O 596.964 1.05357 -2.50224 0
M  V30 6415 C 595.42 -1.4031 -3.31423 0
M  V30 6416 C 595.028 -2.91164 -3.40481 0
M  V30 6417 C 596.772 -1.20767 -4.06959 0
M  V30 6418 C 594.679 -3.43373 -4.81507 0
M  V30 6419 H 593.609 -0.30019 -0.691666 0
M  V30 6420 H 596.26 -1.30798 -1.28701 0
M  V30 6421 H 594.642 -0.835096 -3.87094 0
M  V30 6422 H 595.816 -3.5412 -2.94848 0
M  V30 6423 H 594.131 -3.09646 -2.78403 0
M  V30 6424 H 596.728 -1.57237 -5.11058 0
M  V30 6425 H 597.071 -0.147664 -4.16038 0
M  V30 6426 H 597.604 -1.74274 -3.57594 0
M  V30 6427 H 594.343 -4.48958 -4.77616 0
M  V30 6428 H 593.863 -2.85176 -5.27669 0
M  V30 6429 H 595.542 -3.40095 -5.50404 0
M  V30 6430 N 595.674 1.31259 -0.872281 0
M  V30 6431 C 596.921 1.96622 -0.484365 0
M  V30 6432 C 597.249 1.68939 0.963841 0
M  V30 6433 O 596.504 0.97974 1.6941 0
M  V30 6434 C 596.803 3.50659 -0.690889 0
M  V30 6435 C 596.469 3.98366 -2.11224 0
M  V30 6436 C 595.131 4.11104 -2.50094 0
M  V30 6437 C 597.483 4.23425 -3.0391 0
M  V30 6438 C 594.811 4.46254 -3.80887 0
M  V30 6439 C 597.163 4.60039 -4.3422 0
M  V30 6440 C 595.827 4.70984 -4.73001 0
M  V30 6441 H 595.097 0.71949 -0.177242 0
M  V30 6442 H 597.744 1.56353 -1.10571 0
M  V30 6443 H 596.049 3.91798 0.0135782 0
M  V30 6444 H 597.746 3.99284 -0.370534 0
M  V30 6445 H 594.336 3.88949 -1.80047 0
M  V30 6446 H 598.52 4.13075 -2.75104 0
M  V30 6447 H 593.776 4.52926 -4.10692 0
M  V30 6448 H 597.95 4.78381 -5.06088 0
M  V30 6449 H 595.577 4.97977 -5.7439 0
M  V30 6450 N 597.152 0.631951 1.44375 0
M  V30 6451 C 598.115 -0.0628142 2.29114 0
M  V30 6452 C 599.115 -0.771494 1.41084 0
M  V30 6453 O 600.305 -0.615959 1.62947 0
M  V30 6454 C 597.437 -1.09953 3.22681 0
M  V30 6455 H 598.63 0.682509 2.92031 0
M  V30 6456 H 596.183 0.392128 1.51301 0
M  V30 6457 H 596.918 -1.87481 2.64616 0
M  V30 6458 H 596.703 -0.595286 3.87555 0
M  V30 6459 H 598.193 -1.58538 3.86336 0
M  V30 6460 N 598.631 -1.53133 0.372548 0
M  V30 6461 C 599.561 -2.28876 -0.462412 0
M  V30 6462 C 600.542 -1.31583 -1.07796 0
M  V30 6463 O 601.727 -1.60461 -1.09389 0
M  V30 6464 C 598.857 -3.08317 -1.59868 0
M  V30 6465 C 597.811 -4.13355 -1.11003 0
M  V30 6466 C 597.137 -4.8092 -2.33708 0
M  V30 6467 C 598.437 -5.21955 -0.18983 0
M  V30 6468 H 600.131 -2.9892 0.169511 0
M  V30 6469 H 597.677 -1.43761 0.0829658 0
M  V30 6470 H 599.63 -3.60055 -2.18949 0
M  V30 6471 H 598.354 -2.35976 -2.25794 0
M  V30 6472 H 597.013 -3.62573 -0.541869 0
M  V30 6473 H 596.661 -4.05144 -2.98106 0
M  V30 6474 H 596.361 -5.51904 -2.01682 0
M  V30 6475 H 597.885 -5.35455 -2.93462 0
M  V30 6476 H 599.299 -5.69153 -0.688319 0
M  V30 6477 H 597.696 -6.00087 0.0398887 0
M  V30 6478 H 598.766 -4.78811 0.766057 0
M  V30 6479 N 600.109 -0.101901 -1.5727 0
M  V30 6480 C 601.334 0.571759 -1.99363 0
M  V30 6481 C 601.759 1.60507 -0.980768 0
M  V30 6482 O 601.117 1.81231 0.0498517 0
M  V30 6483 C 601.165 1.18996 -3.404 0
M  V30 6484 O 600.269 2.30572 -3.41922 0
M  V30 6485 H 599.61 0.144449 -0.648098 0
M  V30 6486 H 602.14 -0.185325 -2.03759 0
M  V30 6487 H 602.15 1.52962 -3.78241 0
M  V30 6488 H 600.825 0.432984 -4.1364 0
M  V30 6489 H 599.402 1.98173 -3.15883 0
M  V30 6490 N 601.587 1.56661 0.17182 0
M  V30 6491 C 602.535 1.97289 1.23207 0
M  V30 6492 C 603.529 0.861566 1.45854 0
M  V30 6493 O 604.735 1.04668 1.4644 0
M  V30 6494 H 601.11 0.627681 0.41415 0
M  V30 6495 H 603.081 2.85662 0.862542 0
M  V30 6496 C 601.83 2.34849 2.564 0
M  V30 6497 H 601.153 3.19903 2.39797 0
M  V30 6498 H 602.593 2.67121 3.29276 0
M  V30 6499 C 601.052 1.19172 3.15119 0
M  V30 6500 O 601.582 0.479113 3.98833 0
M  V30 6501 N 599.788 0.962415 2.74201 0
M  V30 6502 H 599.335 1.54365 2.06226 0
M  V30 6503 H 599.293 0.190272 3.13824 0
M  V30 6504 N 603.065 -0.440357 1.51323 0
M  V30 6505 C 604.476 -1.02032 1.56353 0
M  V30 6506 C 604.827 -1.92382 0.385197 0
M  V30 6507 O 603.952 -2.10583 -0.498373 0
M  V30 6508 C 604.547 -1.85723 2.83359 0
M  V30 6509 C 603.106 -2.38774 2.90971 0
M  V30 6510 C 602.253 -1.17908 2.50984 0
M  V30 6511 H 605.204 -0.221744 1.57143 0
M  V30 6512 H 605.225 -2.71141 2.66951 0
M  V30 6513 H 604.737 -1.19939 3.69102 0
M  V30 6514 H 602.838 -3.08021 2.09651 0
M  V30 6515 H 602.951 -2.71778 3.94555 0
M  V30 6516 H 601.315 -1.52347 2.04114 0
M  V30 6517 H 602.098 -0.537393 3.39068 0
M  V30 6518 N 604.543 -1.41418 -0.695603 0
M  V30 6519 C 605.771 -1.4413 -1.48439 0
M  V30 6520 C 606.186 -0.0465698 -1.88743 0
M  V30 6521 O 605.543 0.934117 -1.56782 0
M  V30 6522 C 605.594 -2.34998 -2.74696 0
M  V30 6523 O 605.315 -3.69043 -2.36091 0
M  V30 6524 C 606.816 -2.46513 -3.68438 0
M  V30 6525 H 604.036 -0.490905 -0.457442 0
M  V30 6526 H 606.58 -1.85702 -0.856454 0
M  V30 6527 H 604.735 -1.96735 -3.33728 0
M  V30 6528 H 605.149 -4.17505 -3.17474 0
M  V30 6529 H 606.623 -3.1426 -4.53811 0
M  V30 6530 H 607.1 -1.49638 -4.12922 0
M  V30 6531 H 607.706 -2.85412 -3.1531 0
M  V30 6532 N 606.021 0.929856 -1.27246 0
M  V30 6533 C 607.246 1.71674 -1.16374 0
M  V30 6534 C 607.671 1.86064 0.276024 0
M  V30 6535 O 607.029 1.3591 1.19992 0
M  V30 6536 C 607.077 3.09526 -1.85003 0
M  V30 6537 O 606.181 3.96142 -1.14653 0
M  V30 6538 H 605.522 0.52629 -0.404863 0
M  V30 6539 H 608.052 1.16381 -1.68276 0
M  V30 6540 H 608.062 3.59852 -1.92276 0
M  V30 6541 H 606.737 2.98369 -2.89739 0
M  V30 6542 H 605.314 3.54584 -1.15433 0
M  V30 6543 N 607.499 1.09233 1.13605 0
M  V30 6544 C 608.446 0.729921 2.18954 0
M  V30 6545 C 609.416 -0.287916 1.63586 0
M  V30 6546 O 610.601 -0.170003 1.90041 0
M  V30 6547 C 607.741 0.154489 3.44754 0
M  V30 6548 C 606.854 1.22613 4.14234 0
M  V30 6549 C 605.989 0.613657 5.27644 0
M  V30 6550 C 605.028 1.66674 5.8897 0
M  V30 6551 N 604.165 1.07545 6.93814 0
M  V30 6552 H 609.005 1.63257 2.49302 0
M  V30 6553 H 606.542 0.815693 1.22413 0
M  V30 6554 H 608.5 -0.196923 4.16735 0
M  V30 6555 H 607.13 -0.711433 3.14863 0
M  V30 6556 H 606.182 1.69485 3.40557 0
M  V30 6557 H 607.494 2.0238 4.55899 0
M  V30 6558 H 606.648 0.210976 6.06333 0
M  V30 6559 H 605.387 -0.215584 4.87223 0
M  V30 6560 H 604.392 2.07899 5.08978 0
M  V30 6561 H 605.617 2.49861 6.31464 0
M  V30 6562 H 603.563 0.267451 6.55455 0
M  V30 6563 H 603.48 1.81011 7.3401 0
M  V30 6564 H 604.748 0.698906 7.7636 0
M  V30 6565 N 608.977 -1.30795 0.87923 0
M  V30 6566 C 609.94 -2.26563 0.346676 0
M  V30 6567 C 610.94 -1.52578 -0.507597 0
M  V30 6568 O 612.13 -1.71318 -0.315575 0
M  V30 6569 C 609.262 -3.37115 -0.506611 0
M  V30 6570 H 610.455 -2.75183 1.19223 0
M  V30 6571 H 608.008 -1.41886 0.655598 0
M  V30 6572 H 608.743 -2.93802 -1.37299 0
M  V30 6573 H 608.528 -3.91959 0.105218 0
M  V30 6574 H 610.018 -4.08412 -0.871192 0
M  V30 6575 N 610.455 -0.639598 -1.44038 0
M  V30 6576 C 611.365 0.0612377 -2.3452 0
M  V30 6577 C 612.381 0.826717 -1.53106 0
M  V30 6578 O 613.557 0.777059 -1.85806 0
M  V30 6579 C 610.622 1.02492 -3.31204 0
M  V30 6580 C 609.683 0.25788 -4.28525 0
M  V30 6581 C 608.916 1.17566 -5.2059 0
M  V30 6582 O 609.139 2.41461 -5.16771 0
M  V30 6583 O 608.073 0.655407 -5.98321 0
M  V30 6584 H 611.899 -0.68318 -2.95916 0
M  V30 6585 H 609.484 -0.399784 -1.43952 0
M  V30 6586 H 611.366 1.57911 -3.90694 0
M  V30 6587 H 610.041 1.7498 -2.7233 0
M  V30 6588 H 608.948 -0.339566 -3.72556 0
M  V30 6589 H 610.281 -0.427154 -4.90343 0
M  V30 6590 N 611.933 1.52934 -0.380664 0
M  V30 6591 C 613.173 2.03378 0.204161 0
M  V30 6592 C 613.537 1.26132 1.44758 0
M  V30 6593 O 614.738 1.66657 2.109 0
M  V30 6594 C 613.009 3.54241 0.474118 0
M  V30 6595 S 614.568 4.26529 1.03046 0
M  V30 6596 H 611.386 0.708608 0.0582719 0
M  V30 6597 H 613.988 1.88263 -0.527017 0
M  V30 6598 H 612.692 4.08055 -0.438088 0
M  V30 6599 H 612.223 3.73547 1.23396 0
M  V30 6600 H 614.238 4.38964 2.31354 0
M  V30 6601 N 613.412 0.11024 1.57214 0
M  V30 6602 C 614.637 -0.561179 1.99664 0
M  V30 6603 C 615.062 -1.59985 0.989266 0
M  V30 6604 O 614.42 -1.81255 -0.0402399 0
M  V30 6605 C 614.468 -1.17189 3.41027 0
M  V30 6606 O 613.572 -2.28755 3.4314 0
M  V30 6607 H 612.913 -0.14101 0.648855 0
M  V30 6608 H 615.443 0.196128 2.03658 0
M  V30 6609 H 615.453 -1.50954 3.79047 0
M  V30 6610 H 614.128 -0.411041 4.13864 0
M  V30 6611 H 612.705 -1.96495 3.16929 0
M  V30 6612 N 614.89 -1.56749 -0.16351 0
M  V30 6613 C 615.853 -1.96121 -1.18613 0
M  V30 6614 C 616.853 -0.845765 -1.36761 0
M  V30 6615 O 618.043 -1.11268 -1.34033 0
M  V30 6616 C 615.175 -2.26282 -2.54969 0
M  V30 6617 H 616.368 -2.87639 -0.848764 0
M  V30 6618 H 613.921 -1.50928 -0.406251 0
M  V30 6619 H 614.656 -1.37504 -2.93706 0
M  V30 6620 H 614.441 -3.07595 -2.43162 0
M  V30 6621 H 615.931 -2.57638 -3.28653 0
M  V30 6622 N 616.368 0.432326 -1.51554 0
M  V30 6623 C 617.278 1.55023 -1.76082 0
M  V30 6624 C 618.294 1.61593 -0.645265 0
M  V30 6625 O 619.47 1.78742 -0.928086 0
M  V30 6626 C 616.535 2.90964 -1.88523 0
M  V30 6627 C 615.596 2.9447 -3.12388 0
M  V30 6628 C 614.829 4.23926 -3.24225 0
M  V30 6629 O 615.052 5.16576 -2.4188 0
M  V30 6630 O 613.986 4.33818 -4.17235 0
M  V30 6631 H 617.812 1.37238 -2.70923 0
M  V30 6632 H 615.397 0.615845 -1.36117 0
M  V30 6633 H 617.279 3.71633 -1.98662 0
M  V30 6634 H 615.954 3.08865 -0.9687 0
M  V30 6635 H 614.861 2.12737 -3.07723 0
M  V30 6636 H 616.194 2.81514 -4.03746 0
M  V30 6637 N 617.846 1.41785 0.688094 0
M  V30 6638 C 618.778 1.40159 1.81351 0
M  V30 6639 C 619.791 0.30262 1.59963 0
M  V30 6640 O 620.98 0.564841 1.69327 0
M  V30 6641 C 618.08 1.16517 3.1824 0
M  V30 6642 C 617.253 2.38597 3.66593 0
M  V30 6643 C 616.312 2.10699 4.82174 0
M  V30 6644 O 615.338 2.83798 4.93404 0
M  V30 6645 N 616.54 1.10187 5.69947 0
M  V30 6646 H 619.305 2.3716 1.83236 0
M  V30 6647 H 616.866 1.36494 0.870697 0
M  V30 6648 H 618.858 0.957941 3.93199 0
M  V30 6649 H 617.428 0.280873 3.11336 0
M  V30 6650 H 616.648 2.74974 2.82459 0
M  V30 6651 H 617.936 3.19919 3.95638 0
M  V30 6652 H 617.334 0.497016 5.63512 0
M  V30 6653 H 615.891 0.954518 6.44773 0
M  V30 6654 N 619.324 -0.923095 1.27737 0
M  V30 6655 C 620.564 -1.6858 1.15586 0
M  V30 6656 C 620.928 -1.89758 -0.292562 0
M  V30 6657 O 622.129 -2.6339 -0.536583 0
M  V30 6658 C 620.4 -3.01275 1.92271 0
M  V30 6659 S 621.959 -3.924 1.96387 0
M  V30 6660 H 618.777 -0.579069 0.412554 0
M  V30 6661 H 621.379 -1.09866 1.61709 0
M  V30 6662 H 620.083 -2.83556 2.96689 0
M  V30 6663 H 619.614 -3.6504 1.46661 0
M  V30 6664 H 621.629 -4.84667 1.06361 0
M  V30 6665 N 620.802 -1.09834 -1.13024 0
M  V30 6666 C 622.032 -0.857657 -1.87957 0
M  V30 6667 C 622.44 0.595008 -1.796 0
M  V30 6668 O 621.783 1.42158 -1.16347 0
M  V30 6669 C 621.845 -1.21949 -3.38185 0
M  V30 6670 C 621.509 -2.67791 -3.7032 0
M  V30 6671 C 622.506 -3.66036 -3.69207 0
M  V30 6672 C 620.191 -3.04019 -3.99847 0
M  V30 6673 C 622.185 -4.98533 -3.9717 0
M  V30 6674 C 619.872 -4.36706 -4.27471 0
M  V30 6675 C 620.87 -5.33772 -4.26118 0
M  V30 6676 O 620.558 -6.64072 -4.53061 0
M  V30 6677 H 620.29 -0.308009 -0.601753 0
M  V30 6678 H 622.844 -1.46496 -1.43973 0
M  V30 6679 H 621.074 -0.555249 -3.82693 0
M  V30 6680 H 622.763 -0.957281 -3.9445 0
M  V30 6681 H 623.529 -3.39392 -3.46465 0
M  V30 6682 H 619.408 -2.29096 -4.00045 0
M  V30 6683 H 622.952 -5.74288 -3.96029 0
M  V30 6684 H 618.849 -4.63091 -4.49685 0
M  V30 6685 H 619.617 -6.69608 -4.7071 0
M  V30 6686 N 622.28 1.30327 -0.886154 0
M  V30 6687 C 623.227 2.28099 -0.352069 0
M  V30 6688 C 624.197 1.56433 0.558397 0
M  V30 6689 O 625.382 1.84492 0.486561 0
M  V30 6690 C 622.522 3.42456 0.426346 0
M  V30 6691 C 621.635 4.28938 -0.513472 0
M  V30 6692 C 620.77 5.30458 0.280657 0
M  V30 6693 C 619.809 6.0859 -0.654556 0
M  V30 6694 N 618.946 7.02022 0.104322 0
M  V30 6695 H 623.786 2.73166 -1.19097 0
M  V30 6696 H 621.323 1.34367 -0.598662 0
M  V30 6697 H 623.281 4.07518 0.893587 0
M  V30 6698 H 621.911 2.98455 1.22981 0
M  V30 6699 H 620.963 3.64173 -1.09921 0
M  V30 6700 H 622.275 4.83399 -1.2299 0
M  V30 6701 H 621.429 6.01273 0.8097 0
M  V30 6702 H 620.168 4.76693 1.03029 0
M  V30 6703 H 619.173 5.36651 -1.19522 0
M  V30 6704 H 620.398 6.64443 -1.4033 0
M  V30 6705 H 618.344 6.50645 0.836472 0
M  V30 6706 H 618.261 7.53979 -0.552453 0
M  V30 6707 H 619.529 7.77077 0.614069 0
M  V30 6708 N 623.758 0.647228 1.43697 0
M  V30 6709 C 625.007 0.155552 2.01099 0
M  V30 6710 C 625.32 -1.23569 1.51624 0
M  V30 6711 O 626.526 -1.82226 2.01261 0
M  V30 6712 C 624.982 0.227296 3.59182 0
M  V30 6713 C 624.59 1.62086 4.17651 0
M  V30 6714 C 626.334 -0.207085 4.23995 0
M  V30 6715 C 624.241 1.64685 5.68008 0
M  V30 6716 H 623.171 0.0543895 0.752036 0
M  V30 6717 H 625.822 0.808386 1.64734 0
M  V30 6718 H 624.204 -0.492937 3.9292 0
M  V30 6719 H 625.378 2.36597 3.95422 0
M  V30 6720 H 623.693 2.0007 3.65186 0
M  V30 6721 H 626.29 -0.207426 5.34298 0
M  V30 6722 H 626.633 -1.23742 3.97484 0
M  V30 6723 H 627.166 0.461193 3.95118 0
M  V30 6724 H 623.905 2.65608 5.99277 0
M  V30 6725 H 623.425 0.944914 5.9231 0
M  V30 6726 H 625.104 1.38792 6.31938 0
M  V30 6727 N 625.236 -1.5273 0.388769 0
M  V30 6728 C 626.464 -2.05992 -0.193677 0
M  V30 6729 C 626.879 -1.26053 -1.40557 0
M  V30 6730 O 626.236 -0.307049 -1.79898 0
M  V30 6731 C 626.287 -3.57068 -0.564321 0
M  V30 6732 O 626.008 -4.3398 0.599422 0
M  V30 6733 C 627.509 -4.26674 -1.20269 0
M  V30 6734 H 624.729 -0.670358 -0.0293445 0
M  V30 6735 H 627.273 -1.96857 0.553844 0
M  V30 6736 H 625.428 -3.66277 -1.26174 0
M  V30 6737 H 625.842 -5.2367 0.294895 0
M  V30 6738 H 627.316 -5.33625 -1.4124 0
M  V30 6739 H 627.793 -3.81854 -2.16989 0
M  V30 6740 H 628.399 -4.2178 -0.546047 0
M  V30 6741 N 626.714 -0.118576 -1.57153 0
M  V30 6742 C 627.661 0.831789 -2.1529 0
M  V30 6743 C 628.631 1.26385 -1.07778 0
M  V30 6744 O 629.816 1.34144 -1.35684 0
M  V30 6745 C 626.956 2.07664 -2.75626 0
M  V30 6746 C 626.069 1.69298 -3.97444 0
M  V30 6747 C 625.204 2.88747 -4.45868 0
M  V30 6748 C 624.243 2.46619 -5.60219 0
M  V30 6749 N 623.38 3.5898 -6.03389 0
M  V30 6750 H 628.22 0.329183 -2.96176 0
M  V30 6751 H 625.757 0.150792 -1.46325 0
M  V30 6752 H 627.715 2.80601 -3.08738 0
M  V30 6753 H 626.345 2.55384 -1.97431 0
M  V30 6754 H 625.397 0.862374 -3.70496 0
M  V30 6755 H 626.709 1.34338 -4.80369 0
M  V30 6756 H 625.863 3.69909 -4.80887 0
M  V30 6757 H 624.602 3.26933 -3.61892 0
M  V30 6758 H 623.607 1.63889 -5.24805 0
M  V30 6759 H 624.832 2.0955 -6.45961 0
M  V30 6760 H 622.778 3.9684 -5.22354 0
M  V30 6761 H 622.695 3.27942 -6.81168 0
M  V30 6762 H 623.963 4.40583 -6.43045 0
M  V30 6763 N 628.193 1.56834 0.155195 0
M  V30 6764 C 629.441 1.82536 0.867462 0
M  V30 6765 C 629.762 0.698168 1.82073 0
M  V30 6766 O 629.032 -0.280807 1.93877 0
M  V30 6767 H 627.612 0.673401 0.323327 0
M  V30 6768 H 630.274 1.94313 0.151156 0
M  V30 6769 H 629.37 2.77171 1.43466 0
M  V30 6770 N 629.671 -0.424282 1.51781 0
M  V30 6771 C 631.087 -0.761768 1.40247 0
M  V30 6772 C 631.287 -1.95324 0.495041 0
M  V30 6773 O 630.343 -2.5246 -0.0448949 0
M  V30 6774 C 631.656 -1.0299 2.82513 0
M  V30 6775 C 633.204 -1.13354 2.91753 0
M  V30 6776 C 633.679 -1.43453 4.34954 0
M  V30 6777 N 635.17 -1.5035 4.3812 0
M  V30 6778 C 635.905 -1.75236 5.45967 0
M  V30 6779 N 635.401 -1.97827 6.63955 0
M  V30 6780 N 637.194 -1.77126 5.33463 0
M  V30 6781 H 629.345 0.360228 2.09323 0
M  V30 6782 H 631.608 0.0988128 0.942836 0
M  V30 6783 H 631.314 -0.226961 3.50967 0
M  V30 6784 H 631.188 -1.95411 3.22637 0
M  V30 6785 H 633.575 -1.92709 2.23489 0
M  V30 6786 H 633.656 -0.188041 2.55108 0
M  V30 6787 H 633.3 -0.646209 5.03772 0
M  V30 6788 H 633.23 -2.3923 4.69123 0
M  V30 6789 H 635.721 -1.34742 3.53062 0
M  V30 6790 H 636.034 -2.16223 7.41935 0
M  V30 6791 H 634.379 -1.95123 6.67047 0
M  V30 6792 H 637.57 -1.59005 4.40267 0
M  V30 6793 H 637.743 -1.96182 6.17589 0
M  V30 6794 N 631.149 -1.42148 -0.680565 0
M  V30 6795 C 632.112 -1.4488 -1.77602 0
M  V30 6796 C 633.112 -0.337209 -1.57224 0
M  V30 6797 O 634.302 -0.597778 -1.63622 0
M  V30 6798 C 631.434 -1.27483 -3.16166 0
M  V30 6799 H 632.627 -2.42412 -1.76568 0
M  V30 6800 H 630.18 -1.28511 -0.889645 0
M  V30 6801 H 630.915 -0.30851 -3.22829 0
M  V30 6802 H 630.7 -2.08037 -3.3236 0
M  V30 6803 H 632.19 -1.32265 -3.96101 0
M  V30 6804 N 632.627 0.916307 -1.28225 0
M  V30 6805 C 633.876 1.65975 -1.14608 0
M  V30 6806 C 634.189 1.93204 0.305191 0
M  V30 6807 O 635.395 2.65611 0.562432 0
M  V30 6808 C 633.851 2.98989 -2.00333 0
M  V30 6809 C 633.459 2.79417 -3.50186 0
M  V30 6810 C 635.203 3.76856 -1.95397 0
M  V30 6811 C 633.11 4.08056 -4.28071 0
M  V30 6812 H 632.04 0.622587 -0.425324 0
M  V30 6813 H 634.691 1.01705 -1.52736 0
M  V30 6814 H 633.073 3.6438 -1.5506 0
M  V30 6815 H 634.247 2.22723 -4.034 0
M  V30 6816 H 632.562 2.14966 -3.56621 0
M  V30 6817 H 635.159 4.72203 -2.50856 0
M  V30 6818 H 635.502 4.05776 -0.930137 0
M  V30 6819 H 636.035 3.1828 -2.38626 0
M  V30 6820 H 632.774 3.8431 -5.31024 0
M  V30 6821 H 632.294 4.64371 -3.79631 0
M  V30 6822 H 633.973 4.76333 -4.37854 0
M  V30 6823 N 634.105 1.10431 1.1244 0
M  V30 6824 C 635.352 0.846717 1.83948 0
M  V30 6825 C 635.68 -0.627709 1.84093 0
M  V30 6826 O 634.935 -1.47876 1.28184 0
M  V30 6827 C 635.234 1.34022 3.3132 0
M  V30 6828 C 634.9 2.82606 3.51347 0
M  V30 6829 C 633.562 3.23182 3.56521 0
M  V30 6830 C 635.914 3.78356 3.58464 0
M  V30 6831 C 633.242 4.58258 3.66356 0
M  V30 6832 C 635.594 5.13234 3.69829 0
M  V30 6833 C 634.258 5.53384 3.73259 0
M  V30 6834 H 633.528 0.309836 0.673114 0
M  V30 6835 H 636.175 1.38091 1.32677 0
M  V30 6836 H 634.48 0.726047 3.85014 0
M  V30 6837 H 636.177 1.11739 3.85118 0
M  V30 6838 H 632.767 2.50212 3.47983 0
M  V30 6839 H 636.951 3.48115 3.53737 0
M  V30 6840 H 632.207 4.88787 3.67284 0
M  V30 6841 H 636.381 5.87272 3.74279 0
M  V30 6842 H 634.008 6.58045 3.80633 0
M  V30 6843 N 635.583 -1.29855 0.893053 0
M  V30 6844 C 636.546 -2.26183 0.370687 0
M  V30 6845 C 637.546 -1.53108 -0.491385 0
M  V30 6846 O 638.736 -1.71643 -0.297386 0
M  V30 6847 C 635.868 -3.37633 -0.470827 0
M  V30 6848 H 637.061 -2.73903 1.22135 0
M  V30 6849 H 634.614 -1.41183 0.67061 0
M  V30 6850 H 635.349 -2.95241 -1.34175 0
M  V30 6851 H 635.134 -3.91825 0.146784 0
M  V30 6852 H 636.624 -4.09313 -0.827825 0
M  V30 6853 N 637.061 -0.65484 -1.43351 0
M  V30 6854 C 638.286 -0.175046 -2.0666 0
M  V30 6855 C 638.711 1.15104 -1.4877 0
M  V30 6856 O 638.069 1.71144 -0.598279 0
M  V30 6857 C 638.117 -0.0991544 -3.60464 0
M  V30 6858 O 637.221 0.938169 -4.01587 0
M  V30 6859 H 636.562 -0.0956148 -0.65708 0
M  V30 6860 H 639.092 -0.898222 -1.83829 0
M  V30 6861 H 639.102 0.083632 -4.07914 0
M  V30 6862 H 637.777 -1.06719 -4.01975 0
M  V30 6863 H 636.354 0.72804 -3.65724 0
M  V30 6864 N 638.539 1.52521 -0.396863 0
M  V30 6865 C 639.787 2.01274 0.182536 0
M  V30 6866 C 640.108 1.28485 1.46685 0
M  V30 6867 O 639.378 0.407134 1.91623 0
M  V30 6868 H 637.958 0.743671 0.0704442 0
M  V30 6869 H 640.62 1.87547 -0.530289 0
M  V30 6870 H 639.716 3.09687 0.387385 0
M  V30 6871 N 640.017 0.126909 1.57088 0
M  V30 6872 C 641.242 -0.53997 2.00248 0
M  V30 6873 C 641.667 -1.58927 1.00618 0
M  V30 6874 O 641.025 -1.81288 -0.0210131 0
M  V30 6875 C 641.073 -1.13565 3.4225 0
M  V30 6876 O 640.177 -2.25103 3.45547 0
M  V30 6877 H 639.518 -0.13412 0.650314 0
M  V30 6878 H 642.048 0.217718 2.03438 0
M  V30 6879 H 642.058 -1.46925 3.80627 0
M  V30 6880 H 640.733 -0.367122 4.14277 0
M  V30 6881 H 639.31 -1.93123 3.18995 0
M  V30 6882 N 641.495 -1.56914 -0.146875 0
M  V30 6883 C 642.906 -1.72799 -0.706928 0
M  V30 6884 C 643.257 -0.741329 -1.81656 0
M  V30 6885 O 642.382 0.0920162 -2.16204 0
M  V30 6886 C 642.977 -3.13317 -1.28911 0
M  V30 6887 C 641.536 -3.30803 -1.79573 0
M  V30 6888 C 640.683 -2.68725 -0.684252 0
M  V30 6889 H 643.634 -1.58504 0.0787931 0
M  V30 6890 H 643.655 -3.13323 -2.15891 0
M  V30 6891 H 643.167 -3.85104 -0.481284 0
M  V30 6892 H 641.268 -2.64012 -2.62923 0
M  V30 6893 H 641.381 -4.38754 -1.92436 0
M  V30 6894 H 639.745 -2.29196 -1.11091 0
M  V30 6895 H 640.528 -3.43117 0.112134 0
M  V30 6896 N 642.974 0.416227 -1.52004 0
M  V30 6897 C 644.221 1.16383 -1.65714 0
M  V30 6898 C 644.549 1.9068 -0.383594 0
M  V30 6899 O 643.804 1.85174 0.633185 0
M  V30 6900 C 644.103 2.18923 -2.82502 0
M  V30 6901 C 643.769 1.61485 -4.20991 0
M  V30 6902 C 642.431 1.45545 -4.58661 0
M  V30 6903 C 644.783 1.19468 -5.07323 0
M  V30 6904 C 642.111 0.860937 -5.80349 0
M  V30 6905 C 644.463 0.614386 -6.29609 0
M  V30 6906 C 643.127 0.442056 -6.66035 0
M  V30 6907 H 642.397 0.425875 -0.606392 0
M  V30 6908 H 645.044 0.45199 -1.8609 0
M  V30 6909 H 643.349 2.96225 -2.56433 0
M  V30 6910 H 645.046 2.76628 -2.90307 0
M  V30 6911 H 641.636 1.74873 -3.91302 0
M  V30 6912 H 645.82 1.30596 -4.78809 0
M  V30 6913 H 641.076 0.715372 -6.072 0
M  V30 6914 H 645.25 0.280393 -6.95835 0
M  V30 6915 H 642.877 -0.0207218 -7.60197 0
M  V30 6916 N 644.452 1.42507 0.673017 0
M  V30 6917 C 645.729 1.33554 1.42908 0
M  V30 6918 C 646.109 -0.0262211 2.11084 0
M  V30 6919 O 645.457 -1.04181 2.03368 0
M  V30 6920 C 645.667 2.50498 2.43006 0
M  V30 6921 C 647.015 2.92694 3.07596 0
M  V30 6922 O 648.039 2.50401 2.53333 0
M  V30 6923 O 646.898 3.65899 4.05931 0
M  V30 6924 H 643.992 0.526785 0.637516 0
M  V30 6925 H 646.538 1.54518 0.701591 0
M  V30 6926 H 645.31 3.41272 1.9144 0
M  V30 6927 H 644.933 2.3153 3.23233 0
M  V30 6928 N 645.93 -0.909495 1.28709 0
M  V30 6929 C 647.341 -1.47419 1.14563 0
M  V30 6930 C 647.692 -1.94432 -0.262832 0
M  V30 6931 O 646.817 -1.82842 -1.15748 0
M  V30 6932 C 647.412 -2.67933 2.07358 0
M  V30 6933 C 645.971 -3.20568 1.97264 0
M  V30 6934 C 645.118 -1.93269 1.98852 0
M  V30 6935 H 648.069 -0.721787 1.41336 0
M  V30 6936 H 648.09 -3.43339 1.64007 0
M  V30 6937 H 647.602 -2.33685 3.09859 0
M  V30 6938 H 645.703 -3.59531 0.978157 0
M  V30 6939 H 645.816 -3.85529 2.84436 0
M  V30 6940 H 644.18 -2.10553 1.43317 0
M  V30 6941 H 644.963 -1.61312 3.0304 0
M  V30 6942 N 647.408 -1.11026 -1.11852 0
M  V30 6943 C 648.654 -0.857729 -1.83768 0
M  V30 6944 C 648.987 0.615143 -1.842 0
M  V30 6945 O 648.262 1.45391 -1.29196 0
M  V30 6946 C 648.545 -1.41453 -3.31154 0
M  V30 6947 C 648.398 -2.95471 -3.39142 0
M  V30 6948 C 649.717 -1.0619 -4.27097 0
M  V30 6949 H 646.836 -0.313044 -0.667212 0
M  V30 6950 H 649.478 -1.37443 -1.31185 0
M  V30 6951 H 647.628 -0.975052 -3.76065 0
M  V30 6952 H 649.3 -3.4799 -3.02821 0
M  V30 6953 H 647.543 -3.31759 -2.79497 0
M  V30 6954 H 648.214 -3.29515 -4.42859 0
M  V30 6955 H 650.69 -1.44122 -3.90344 0
M  V30 6956 H 649.566 -1.47832 -5.28618 0
M  V30 6957 H 649.827 0.0278912 -4.42091 0
M  V30 6958 N 648.886 1.2938 -0.899927 0
M  V30 6959 C 650.114 1.99691 -0.541386 0
M  V30 6960 C 650.529 1.67355 0.873936 0
M  V30 6961 O 649.886 0.918728 1.57688 0
M  V30 6962 C 649.937 3.54168 -0.72438 0
M  V30 6963 O 649.658 3.85359 -2.08399 0
M  V30 6964 C 651.159 4.41746 -0.370819 0
M  V30 6965 H 648.379 0.638037 -0.207726 0
M  V30 6966 H 650.923 1.6491 -1.20934 0
M  V30 6967 H 649.078 3.87261 -0.103607 0
M  V30 6968 H 649.492 4.80032 -2.11352 0
M  V30 6969 H 650.966 5.49256 -0.549693 0
M  V30 6970 H 651.443 4.33712 0.692148 0
M  V30 6971 H 652.049 4.14125 -0.968543 0
M  V30 6972 N 650.364 0.662433 1.43002 0
M  V30 6973 C 651.294 -0.00979809 2.33498 0
M  V30 6974 C 652.275 -0.802329 1.49989 0
M  V30 6975 O 653.46 -0.761964 1.78627 0
M  V30 6976 C 650.59 -0.970446 3.33466 0
M  V30 6977 C 649.544 -0.287383 4.27034 0
M  V30 6978 C 648.87 -1.36012 5.17112 0
M  V30 6979 C 650.17 0.82595 5.15728 0
M  V30 6980 H 651.864 0.745959 2.89958 0
M  V30 6981 H 649.41 0.360172 1.39423 0
M  V30 6982 H 651.363 -1.44971 3.95679 0
M  V30 6983 H 650.087 -1.75748 2.75282 0
M  V30 6984 H 648.746 0.17152 3.66199 0
M  V30 6985 H 648.394 -2.13882 4.55262 0
M  V30 6986 H 648.094 -0.908276 5.80538 0
M  V30 6987 H 649.618 -1.84056 5.82199 0
M  V30 6988 H 651.032 0.42845 5.71697 0
M  V30 6989 H 649.429 1.20282 5.87922 0
M  V30 6990 H 650.499 1.68003 4.54866 0
M  V30 6991 N 651.842 -1.52309 0.404946 0
M  V30 6992 C 653.253 -1.86585 -0.0655926 0
M  V30 6993 C 653.604 -1.3239 -1.44801 0
M  V30 6994 O 652.729 -0.6615 -2.06042 0
M  V30 6995 C 653.324 -3.38566 -0.125801 0
M  V30 6996 C 651.883 -3.72497 -0.540666 0
M  V30 6997 C 651.03 -2.75806 0.287487 0
M  V30 6998 H 653.981 -1.45995 0.622185 0
M  V30 6999 H 654.002 -3.68658 -0.941888 0
M  V30 7000 H 653.514 -3.77981 0.880473 0
M  V30 7001 H 651.615 -3.38659 -1.55373 0
M  V30 7002 H 651.728 -4.78234 -0.287956 0
M  V30 7003 H 650.092 -2.53474 -0.249561 0
M  V30 7004 H 650.875 -3.18059 1.29203 0
M  V30 7005 N 653.32 -0.135238 -1.57019 0
M  V30 7006 C 654.268 0.826099 -2.17436 0
M  V30 7007 C 655.262 1.26378 -1.12805 0
M  V30 7008 O 656.468 1.23363 -1.31079 0
M  V30 7009 H 652.843 0.284568 -0.696078 0
M  V30 7010 H 654.814 0.292212 -2.96966 0
M  V30 7011 C 653.563 2.05991 -2.80112 0
M  V30 7012 H 652.886 1.73209 -3.60331 0
M  V30 7013 H 654.326 2.71225 -3.25903 0
M  V30 7014 C 652.785 2.86027 -1.78017 0
M  V30 7015 O 653.315 3.81971 -1.24344 0
M  V30 7016 N 651.521 2.50332 -1.47588 0
M  V30 7017 H 651.068 1.72377 -1.91426 0
M  V30 7018 H 651.026 3.04177 -0.795228 0
M  V30 7019 N 654.798 1.5699 0.138552 0
M  V30 7020 C 656.046 1.83446 0.848053 0
M  V30 7021 C 656.367 0.71744 1.81322 0
M  V30 7022 O 655.637 -0.260228 1.94164 0
M  V30 7023 H 654.217 0.676792 0.316166 0
M  V30 7024 H 656.879 1.94462 0.130538 0
M  V30 7025 H 655.975 2.78677 1.40518 0
M  V30 7026 N 656.276 -0.40816 1.52223 0
M  V30 7027 C 657.208 -1.51642 1.71864 0
M  V30 7028 C 658.221 -1.51378 0.599056 0
M  V30 7029 O 659.41 -1.55626 0.874239 0
M  V30 7030 C 656.51 -2.90534 1.74481 0
M  V30 7031 C 655.683 -3.14979 3.03491 0
M  V30 7032 C 654.742 -4.33749 2.97907 0
M  V30 7033 O 653.768 -4.30982 3.71811 0
M  V30 7034 N 654.97 -5.38912 2.15764 0
M  V30 7035 H 657.735 -1.35188 2.67478 0
M  V30 7036 H 655.296 -0.597468 1.50472 0
M  V30 7037 H 657.288 -3.68056 1.68275 0
M  V30 7038 H 655.858 -3.00441 0.863363 0
M  V30 7039 H 655.078 -2.25492 3.23337 0
M  V30 7040 H 656.366 -3.28156 3.88833 0
M  V30 7041 H 655.764 -5.44008 1.55152 0
M  V30 7042 H 654.321 -6.15174 2.15415 0
M  V30 7043 N 657.755 -1.42862 -0.66545 0
M  V30 7044 C 658.983 -1.47246 -1.45349 0
M  V30 7045 C 659.398 -0.0865944 -1.88601 0
M  V30 7046 O 658.755 0.900652 -1.58728 0
M  V30 7047 C 658.806 -2.40772 -2.6965 0
M  V30 7048 O 658.527 -3.73968 -2.2821 0
M  V30 7049 C 660.028 -2.54272 -3.63126 0
M  V30 7050 H 657.248 -0.500497 -0.446927 0
M  V30 7051 H 659.792 -1.87477 -0.816871 0
M  V30 7052 H 657.947 -2.0377 -3.29479 0
M  V30 7053 H 658.361 -4.24146 -3.08546 0
M  V30 7054 H 659.835 -3.23815 -4.47043 0
M  V30 7055 H 660.312 -1.58364 -4.09656 0
M  V30 7056 H 660.918 -2.92036 -3.09185 0
M  V30 7057 N 659.233 0.902656 -1.29189 0
M  V30 7058 C 660.163 2.02294 -1.16616 0
M  V30 7059 C 661.144 1.6999 -0.0611175 0
M  V30 7060 O 662.329 1.9271 -0.240072 0
M  V30 7061 C 659.459 3.37018 -0.83882 0
M  V30 7062 C 658.413 3.83522 -1.89986 0
M  V30 7063 C 657.739 5.15337 -1.42589 0
M  V30 7064 C 659.039 4.04169 -3.30824 0
M  V30 7065 H 660.733 2.13071 -2.10336 0
M  V30 7066 H 658.279 1.02378 -1.01266 0
M  V30 7067 H 660.232 4.14895 -0.737584 0
M  V30 7068 H 658.956 3.26325 0.134071 0
M  V30 7069 H 657.615 3.07859 -1.99043 0
M  V30 7070 H 657.263 5.01056 -0.441759 0
M  V30 7071 H 656.963 5.47423 -2.13547 0
M  V30 7072 H 658.487 5.95758 -1.3381 0
M  V30 7073 H 659.901 4.72537 -3.24626 0
M  V30 7074 H 658.298 4.47604 -3.99713 0
M  V30 7075 H 659.368 3.08604 -3.74021 0
M  V30 7076 N 660.711 1.11618 1.11262 0
M  V30 7077 C 661.941 0.88745 1.86569 0
M  V30 7078 C 662.349 -0.56636 1.80524 0
M  V30 7079 O 661.692 -1.40289 1.18594 0
M  V30 7080 C 661.754 1.27313 3.36202 0
M  V30 7081 C 661.418 2.73649 3.66013 0
M  V30 7082 C 662.415 3.71863 3.63337 0
M  V30 7083 C 660.1 3.10342 3.9496 0
M  V30 7084 C 662.094 5.04788 3.89188 0
M  V30 7085 C 659.781 4.43451 4.20469 0
M  V30 7086 C 660.779 5.40484 4.17572 0
M  V30 7087 O 660.467 6.71195 4.42439 0
M  V30 7088 H 660.199 0.317543 0.596777 0
M  V30 7089 H 662.753 1.48768 1.41624 0
M  V30 7090 H 660.983 0.616062 3.81761 0
M  V30 7091 H 662.672 1.01991 3.92877 0
M  V30 7092 H 663.438 3.44861 3.41022 0
M  V30 7093 H 659.317 2.35431 3.9635 0
M  V30 7094 H 662.861 5.80516 3.86842 0
M  V30 7095 H 658.758 4.70187 4.42261 0
M  V30 7096 H 659.526 6.77012 4.59997 0
M  V30 7097 N 662.189 -1.289 0.906776 0
M  V30 7098 C 663.6 -1.77336 0.58384 0
M  V30 7099 C 663.951 -1.74304 -0.900697 0
M  V30 7100 O 663.076 -1.33335 -1.70443 0
M  V30 7101 C 663.671 -3.22019 1.05304 0
M  V30 7102 C 662.23 -3.68205 0.781148 0
M  V30 7103 C 661.377 -2.48837 1.22373 0
M  V30 7104 H 664.328 -1.15462 1.08877 0
M  V30 7105 H 664.349 -3.78481 0.391414 0
M  V30 7106 H 663.861 -3.24194 2.13353 0
M  V30 7107 H 661.962 -3.71497 -0.28643 0
M  V30 7108 H 662.075 -4.58675 1.384 0
M  V30 7109 H 660.439 -2.46461 0.642594 0
M  V30 7110 H 661.222 -2.53736 2.31242 0
M  V30 7111 N 663.667 -0.670007 -1.42649 0
M  V30 7112 C 664.915 -0.18991 -2.01206 0
M  V30 7113 C 665.236 1.20617 -1.53221 0
M  V30 7114 O 664.506 1.80898 -0.751856 0
M  V30 7115 H 663.086 -0.0672189 -0.743969 0
M  V30 7116 H 665.748 -0.865442 -1.74631 0
M  V30 7117 H 664.844 -0.187481 -3.11536 0
M  V30 7118 N 665.145 1.52092 -0.413018 0
M  V30 7119 C 666.077 2.24819 0.445994 0
M  V30 7120 C 667.09 1.27925 1.00692 0
M  V30 7121 O 668.279 1.53845 0.905204 0
M  V30 7122 C 665.379 2.96951 1.6332 0
M  V30 7123 C 664.552 4.20746 1.19548 0
M  V30 7124 C 663.611 4.75668 2.25003 0
M  V30 7125 O 662.637 5.38148 1.85434 0
M  V30 7126 N 663.839 4.57579 3.57214 0
M  V30 7127 H 666.604 2.99176 -0.177209 0
M  V30 7128 H 664.165 1.60102 -0.240601 0
M  V30 7129 H 666.157 3.30586 2.33441 0
M  V30 7130 H 664.727 2.25756 2.16225 0
M  V30 7131 H 663.947 3.92881 0.32224 0
M  V30 7132 H 665.235 5.01132 0.880033 0
M  V30 7133 H 664.633 4.07758 3.92109 0
M  V30 7134 H 663.19 4.95642 4.23299 0
M  V30 7135 N 666.623 0.143563 1.56945 0
M  V30 7136 C 667.871 -0.507402 1.95627 0
M  V30 7137 C 668.192 -1.65626 1.02922 0
M  V30 7138 O 667.462 -1.95693 0.0901136 0
M  V30 7139 H 666.042 -0.190436 0.722318 0
M  V30 7140 H 668.704 0.218257 1.93674 0
M  V30 7141 H 667.8 -0.885816 2.99265 0
M  V30 7142 N 668.101 -1.57061 -0.130224 0
M  V30 7143 C 669.049 -2.00486 -1.17933 0
M  V30 7144 C 670.043 -0.899933 -1.43519 0
M  V30 7145 O 671.249 -1.08514 -1.43613 0
M  V30 7146 H 667.624 -0.638441 -0.397363 0
M  V30 7147 H 669.595 -2.87848 -0.786501 0
M  V30 7148 C 668.344 -2.41565 -2.50084 0
M  V30 7149 H 667.667 -3.26148 -2.31231 0
M  V30 7150 H 669.107 -2.75757 -3.22078 0
M  V30 7151 C 667.566 -1.27485 -3.11848 0
M  V30 7152 O 668.096 -0.584688 -3.97422 0
M  V30 7153 N 666.302 -1.03478 -2.71552 0
M  V30 7154 H 665.849 -1.59779 -2.02061 0
M  V30 7155 H 665.807 -0.27341 -3.13209 0
M  V30 7156 N 669.579 0.400081 -1.52437 0
M  V30 7157 C 670.527 1.50851 -1.7705 0
M  V30 7158 C 671.521 1.56928 -0.637969 0
M  V30 7159 O 672.727 1.60226 -0.820212 0
M  V30 7160 H 669.102 0.50186 -0.560036 0
M  V30 7161 H 671.073 1.27281 -2.69893 0
M  V30 7162 C 669.822 2.88117 -1.94638 0
M  V30 7163 H 669.145 2.84187 -2.81208 0
M  V30 7164 H 670.585 3.64942 -2.15855 0
M  V30 7165 C 669.044 3.29206 -0.715899 0
M  V30 7166 O 669.574 4.01544 0.111944 0
M  V30 7167 N 667.78 2.85363 -0.549191 0
M  V30 7168 H 667.327 2.26664 -1.22397 0
M  V30 7169 H 667.285 3.13214 0.27278 0
M  V30 7170 N 671.057 1.43213 0.657864 0
M  V30 7171 C 672.282 1.48227 1.45064 0
M  V30 7172 C 672.707 0.0999939 1.87834 0
M  V30 7173 O 672.065 -0.905269 1.57081 0
M  V30 7174 C 672.113 2.42931 2.6649 0
M  V30 7175 O 671.217 1.91237 3.6538 0
M  V30 7176 H 670.558 0.501551 0.435135 0
M  V30 7177 H 673.088 1.8808 0.805431 0
M  V30 7178 H 673.098 2.6008 3.1436 0
M  V30 7179 H 671.773 3.43348 2.34701 0
M  V30 7180 H 670.35 1.83726 3.24498 0
M  V30 7181 N 672.536 -0.895792 1.29666 0
M  V30 7182 C 673.766 -1.67757 1.20586 0
M  V30 7183 C 674.174 -1.87729 -0.235432 0
M  V30 7184 O 673.517 -1.41706 -1.16898 0
M  V30 7185 C 673.579 -3.08117 1.85215 0
M  V30 7186 C 673.243 -3.1136 3.3452 0
M  V30 7187 C 674.24 -2.91217 4.30684 0
M  V30 7188 C 671.925 -3.33302 3.75786 0
M  V30 7189 C 673.919 -2.92955 5.66089 0
M  V30 7190 C 671.606 -3.3467 5.11311 0
M  V30 7191 C 672.604 -3.14519 6.06273 0
M  V30 7192 O 672.292 -3.15684 7.39323 0
M  V30 7193 H 672.024 -0.530601 0.418854 0
M  V30 7194 H 674.578 -1.12831 1.71634 0
M  V30 7195 H 672.808 -3.64661 1.28683 0
M  V30 7196 H 674.497 -3.68399 1.70403 0
M  V30 7197 H 675.263 -2.74074 4.00136 0
M  V30 7198 H 671.142 -3.48025 3.02324 0
M  V30 7199 H 674.686 -2.77145 6.40185 0
M  V30 7200 H 670.583 -3.51346 5.41504 0
M  V30 7201 H 671.351 -3.31924 7.48177 0
M  V30 7202 N 674.014 -1.12206 -1.10668 0
M  V30 7203 C 675.26 -0.877172 -1.82848 0
M  V30 7204 C 675.593 0.595571 -1.84842 0
M  V30 7205 O 674.868 1.44013 -1.30731 0
M  V30 7206 C 675.151 -1.44957 -3.29635 0
M  V30 7207 C 675.004 -2.99051 -3.35989 0
M  V30 7208 C 676.323 -1.10714 -4.25946 0
M  V30 7209 H 673.442 -0.320103 -0.663854 0
M  V30 7210 H 676.084 -1.38827 -1.2972 0
M  V30 7211 H 674.234 -1.01488 -3.7501 0
M  V30 7212 H 675.906 -3.51182 -2.99113 0
M  V30 7213 H 674.149 -3.34705 -2.75962 0
M  V30 7214 H 674.82 -3.34194 -4.39339 0
M  V30 7215 H 677.296 -1.48254 -3.88793 0
M  V30 7216 H 676.172 -1.5343 -5.2702 0
M  V30 7217 H 676.433 -0.019 -4.42096 0
M  V30 7218 N 675.492 1.28418 -0.913599 0
M  V30 7219 C 676.739 1.94981 -0.546674 0
M  V30 7220 C 677.067 1.7192 0.909606 0
M  V30 7221 O 676.322 1.03314 1.66207 0
M  V30 7222 C 676.621 3.48283 -0.802099 0
M  V30 7223 C 676.287 3.91444 -2.2379 0
M  V30 7224 C 674.949 4.02939 -2.63046 0
M  V30 7225 C 677.301 4.13542 -3.17227 0
M  V30 7226 C 674.629 4.3391 -3.94891 0
M  V30 7227 C 676.981 4.45992 -4.48636 0
M  V30 7228 C 675.645 4.55698 -4.87746 0
M  V30 7229 H 674.915 0.713487 -0.200042 0
M  V30 7230 H 677.562 1.52756 -1.15489 0
M  V30 7231 H 675.867 3.91643 -0.111076 0
M  V30 7232 H 677.564 3.97903 -0.497375 0
M  V30 7233 H 674.154 3.83024 -1.9233 0
M  V30 7234 H 678.338 4.04114 -2.88107 0
M  V30 7235 H 673.594 4.39631 -4.24894 0
M  V30 7236 H 677.768 4.62038 -5.21051 0
M  V30 7237 H 675.395 4.79451 -5.89942 0
M  V30 7238 N 676.97 0.677563 1.42291 0
M  V30 7239 C 678.381 0.277912 1.8462 0
M  V30 7240 C 678.732 -1.18048 1.56714 0
M  V30 7241 O 677.857 -1.90404 1.02836 0
M  V30 7242 C 678.452 0.497619 3.35126 0
M  V30 7243 C 677.011 0.152063 3.76093 0
M  V30 7244 C 676.158 0.78872 2.65847 0
M  V30 7245 H 679.109 0.879527 1.32098 0
M  V30 7246 H 679.13 -0.24939 3.79682 0
M  V30 7247 H 678.642 1.55913 3.55405 0
M  V30 7248 H 676.743 -0.905896 3.6142 0
M  V30 7249 H 676.856 0.594514 4.75397 0
M  V30 7250 H 675.22 0.219813 2.5375 0
M  V30 7251 H 676.003 1.85374 2.88949 0
M  V30 7252 N 678.448 -1.51871 0.421078 0
M  V30 7253 C 679.696 -2.01539 -0.150492 0
M  V30 7254 C 680.017 -1.30803 -1.44623 0
M  V30 7255 O 679.287 -0.437568 -1.90951 0
M  V30 7256 H 677.867 -0.744698 -0.0586041 0
M  V30 7257 H 680.529 -1.8668 0.560059 0
M  V30 7258 H 679.625 -3.10264 -0.338068 0
M  V30 7259 N 679.926 -0.151884 -1.56866 0
M  V30 7260 C 681.172 0.498742 -1.96572 0
M  V30 7261 C 681.505 1.64194 -1.03702 0
M  V30 7262 O 680.78 1.94334 -0.0803432 0
M  V30 7263 C 681.063 1.00027 -3.45929 0
M  V30 7264 C 680.916 -0.141767 -4.49577 0
M  V30 7265 C 682.235 1.88044 -3.97904 0
M  V30 7266 H 679.354 0.17982 -0.714726 0
M  V30 7267 H 681.996 -0.234097 -1.88552 0
M  V30 7268 H 680.146 1.62476 -3.52894 0
M  V30 7269 H 681.818 -0.778269 -4.54687 0
M  V30 7270 H 680.061 -0.80019 -4.26356 0
M  V30 7271 H 680.732 0.250947 -5.51429 0
M  V30 7272 H 683.208 1.35416 -3.93449 0
M  V30 7273 H 682.084 2.20043 -5.02864 0
M  V30 7274 H 682.345 2.81916 -3.40552 0
M  V30 7275 N 681.404 1.57128 0.121893 0
M  V30 7276 C 682.367 1.99197 1.13372 0
M  V30 7277 C 683.367 0.881728 1.3447 0
M  V30 7278 O 684.557 1.14783 1.31036 0
M  V30 7279 C 681.689 2.32963 2.4888 0
M  V30 7280 H 682.882 2.89788 0.772204 0
M  V30 7281 H 680.435 1.51952 0.366093 0
M  V30 7282 H 681.17 1.45243 2.89957 0
M  V30 7283 H 680.955 3.13934 2.34921 0
M  V30 7284 H 682.445 2.66261 3.21706 0
M  V30 7285 N 682.882 -0.391992 1.52647 0
M  V30 7286 C 683.812 -1.48517 1.8018 0
M  V30 7287 C 684.793 -1.57039 0.653667 0
M  V30 7288 O 685.978 -1.72036 0.900962 0
M  V30 7289 C 683.108 -2.86161 1.96797 0
M  V30 7290 C 682.062 -2.92481 3.12472 0
M  V30 7291 C 681.388 -4.32546 3.14338 0
M  V30 7292 C 682.688 -2.624 4.51601 0
M  V30 7293 H 684.382 -1.25726 2.71723 0
M  V30 7294 H 681.928 -0.603387 1.30749 0
M  V30 7295 H 683.881 -3.62639 2.14641 0
M  V30 7296 H 682.605 -3.10283 1.01941 0
M  V30 7297 H 681.264 -2.18451 2.94406 0
M  V30 7298 H 680.912 -4.53703 2.1717 0
M  V30 7299 H 680.612 -4.37695 3.92042 0
M  V30 7300 H 682.136 -5.10934 3.34333 0
M  V30 7301 H 683.55 -3.28596 4.69785 0
M  V30 7302 H 681.947 -2.78903 5.3135 0
M  V30 7303 H 683.017 -1.57754 4.58521 0
M  V30 7304 N 684.36 -1.4356 -0.65026 0
M  V30 7305 C 685.608 -1.45046 -1.40734 0
M  V30 7306 C 685.929 -0.0769822 -1.94848 0
M  V30 7307 O 685.199 0.888098 -1.74613 0
M  V30 7308 H 683.779 -0.534034 -0.522318 0
M  V30 7309 H 686.441 -1.79186 -0.766703 0
M  V30 7310 H 685.537 -2.16476 -2.24822 0
M  V30 7311 N 685.838 0.888903 -1.30139 0
M  V30 7312 C 687.084 1.6428 -1.18912 0
M  V30 7313 C 687.417 1.92499 0.256477 0
M  V30 7314 O 686.692 1.54312 1.18397 0
M  V30 7315 C 686.975 2.9851 -2.01405 0
M  V30 7316 C 686.828 2.77288 -3.54163 0
M  V30 7317 C 688.147 3.99383 -1.84882 0
M  V30 7318 H 685.266 0.596148 -0.433333 0
M  V30 7319 H 687.908 1.0289 -1.5973 0
M  V30 7320 H 686.058 3.50907 -1.66722 0
M  V30 7321 H 687.73 2.31709 -3.98884 0
M  V30 7322 H 685.973 2.11867 -3.78543 0
M  V30 7323 H 686.644 3.72717 -4.07168 0
M  V30 7324 H 689.12 3.56132 -2.15196 0
M  V30 7325 H 687.996 4.91222 -2.44934 0
M  V30 7326 H 688.257 4.34674 -0.806902 0
M  V30 7327 N 687.317 1.12792 1.10072 0
M  V30 7328 C 688.563 0.886857 1.82381 0
M  V30 7329 C 688.896 -0.58576 1.85155 0
M  V30 7330 O 688.171 -1.43317 1.31493 0
M  V30 7331 C 688.454 1.46703 3.28862 0
M  V30 7332 C 688.307 3.00829 3.34398 0
M  V30 7333 C 689.626 1.12971 4.25353 0
M  V30 7334 H 686.745 0.32362 0.662148 0
M  V30 7335 H 689.387 1.39513 1.28982 0
M  V30 7336 H 687.537 1.03476 3.74466 0
M  V30 7337 H 689.209 3.52764 2.97247 0
M  V30 7338 H 687.452 3.36164 2.74183 0
M  V30 7339 H 688.123 3.36519 4.3756 0
M  V30 7340 H 690.599 1.50313 3.88001 0
M  V30 7341 H 689.475 1.56223 5.26199 0
M  V30 7342 H 689.736 0.0424452 4.4208 0
M  V30 7343 N 688.795 -1.27931 0.920396 0
M  V30 7344 C 689.758 -2.25345 0.41858 0
M  V30 7345 C 690.758 -1.54116 -0.458798 0
M  V30 7346 O 691.948 -1.72235 -0.260912 0
M  V30 7347 C 689.08 -3.38556 -0.399104 0
M  V30 7348 H 690.273 -2.71251 1.27918 0
M  V30 7349 H 687.826 -1.39728 0.700406 0
M  V30 7350 H 688.561 -2.98021 -1.27882 0
M  V30 7351 H 688.346 -3.91426 0.229863 0
M  V30 7352 H 689.836 -4.10976 -0.740817 0
M  V30 7353 N 690.273 -0.685099 -1.4193 0
M  V30 7354 C 691.513 -0.215676 -2.03259 0
M  V30 7355 C 691.877 1.15934 -1.53047 0
M  V30 7356 O 693.078 1.72401 -2.06231 0
M  V30 7357 C 691.349 -0.259649 -3.56456 0
M  V30 7358 S 692.908 0.137262 -4.38585 0
M  V30 7359 H 689.726 -0.0877362 -0.705566 0
M  V30 7360 H 692.328 -0.900547 -1.73523 0
M  V30 7361 H 691.032 -1.26256 -3.90497 0
M  V30 7362 H 690.563 0.444716 -3.90878 0
M  V30 7363 H 692.578 1.36787 -4.76973 0
M  V30 7364 N 691.751 1.51645 -0.429126 0
M  V30 7365 C 692.999 2.01616 0.139802 0
M  V30 7366 C 693.32 1.31568 1.43927 0
M  V30 7367 O 692.59 0.447688 1.90716 0
M  V30 7368 H 691.17 0.744998 0.054654 0
M  V30 7369 H 693.832 1.8638 -0.569952 0
M  V30 7370 H 692.928 3.10439 0.321609 0
M  V30 7371 N 693.229 0.160201 1.56784 0
M  V30 7372 C 694.159 -0.770264 2.2043 0
M  V30 7373 C 695.14 -1.24736 1.15651 0
M  V30 7374 O 696.325 -1.30253 1.44041 0
M  V30 7375 C 693.455 -2.00427 2.83631 0
M  V30 7376 C 692.409 -1.66345 3.94352 0
M  V30 7377 C 691.735 -2.97119 4.4455 0
M  V30 7378 C 693.035 -0.899972 5.14488 0
M  V30 7379 H 694.729 -0.239783 2.98438 0
M  V30 7380 H 692.275 -0.113891 1.43549 0
M  V30 7381 H 694.228 -2.66012 3.26827 0
M  V30 7382 H 692.952 -2.5587 2.02973 0
M  V30 7383 H 691.611 -1.03133 3.51794 0
M  V30 7384 H 691.259 -3.5058 3.60698 0
M  V30 7385 H 690.959 -2.75073 5.19238 0
M  V30 7386 H 692.483 -3.63753 4.90425 0
M  V30 7387 H 693.897 -1.45818 5.54446 0
M  V30 7388 H 692.294 -0.778968 5.95023 0
M  V30 7389 H 693.364 0.105827 4.84785 0
M  V30 7390 N 694.707 -1.5719 -0.113559 0
M  V30 7391 C 696.123 -1.52607 -0.467253 0
M  V30 7392 C 696.323 -0.874058 -1.81556 0
M  V30 7393 O 695.379 -0.458703 -2.48299 0
M  V30 7394 C 696.692 -2.97363 -0.446736 0
M  V30 7395 C 698.24 -3.08482 -0.529903 0
M  V30 7396 C 698.715 -4.54809 -0.539721 0
M  V30 7397 N 700.206 -4.59284 -0.601005 0
M  V30 7398 C 700.941 -5.69927 -0.630138 0
M  V30 7399 N 700.437 -6.90051 -0.616589 0
M  V30 7400 N 702.23 -5.5805 -0.673558 0
M  V30 7401 H 694.381 -1.97958 0.769819 0
M  V30 7402 H 696.644 -0.90428 0.284572 0
M  V30 7403 H 696.35 -3.48458 0.47643 0
M  V30 7404 H 696.224 -3.55086 -1.27254 0
M  V30 7405 H 698.611 -2.57386 -1.44349 0
M  V30 7406 H 698.692 -2.53744 0.323695 0
M  V30 7407 H 698.336 -5.06552 0.369843 0
M  V30 7408 H 698.266 -5.07364 -1.41028 0
M  V30 7409 H 700.757 -3.72822 -0.617419 0
M  V30 7410 H 701.07 -7.70132 -0.641592 0
M  V30 7411 H 699.415 -6.92543 -0.583927 0
M  V30 7412 H 702.606 -4.63112 -0.681544 0
M  V30 7413 H 702.779 -6.44286 -0.692794 0
M  V30 7414 N 696.185 0.383891 -1.52853 0
M  V30 7415 C 697.117 1.48889 -1.74255 0
M  V30 7416 C 698.13 1.50405 -0.623063 0
M  V30 7417 O 699.319 1.54215 -0.898887 0
M  V30 7418 C 696.419 2.87721 -1.79081 0
M  V30 7419 C 695.592 3.10111 -3.08464 0
M  V30 7420 C 694.651 4.28954 -3.0477 0
M  V30 7421 O 693.677 4.25012 -3.78621 0
M  V30 7422 N 694.879 5.35411 -2.24311 0
M  V30 7423 H 697.644 1.30915 -2.69595 0
M  V30 7424 H 695.205 0.573454 -1.51404 0
M  V30 7425 H 697.197 3.65333 -1.7411 0
M  V30 7426 H 695.767 2.99029 -0.911052 0
M  V30 7427 H 694.987 2.20319 -3.26884 0
M  V30 7428 H 696.275 3.21928 -3.94005 0
M  V30 7429 H 695.673 5.41471 -1.63787 0
M  V30 7430 H 694.23 6.1167 -2.25175 0
M  V30 7431 N 697.663 1.43903 0.642637 0
M  V30 7432 C 698.912 1.45362 1.39831 0
M  V30 7433 C 699.225 0.0856289 1.95412 0
M  V30 7434 O 700.431 -0.0222856 2.71491 0
M  V30 7435 C 698.887 2.55857 2.53111 0
M  V30 7436 C 698.495 3.98811 2.04092 0
M  V30 7437 C 700.239 2.66524 3.30402 0
M  V30 7438 C 698.146 5.00751 3.14647 0
M  V30 7439 H 697.076 0.540777 0.52543 0
M  V30 7440 H 699.727 1.69929 0.692559 0
M  V30 7441 H 698.109 2.2451 3.26207 0
M  V30 7442 H 699.283 4.3967 1.37938 0
M  V30 7443 H 697.598 3.92284 1.39651 0
M  V30 7444 H 700.195 3.39858 4.12796 0
M  V30 7445 H 700.538 1.71949 3.79129 0
M  V30 7446 H 701.071 2.97224 2.64392 0
M  V30 7447 H 697.81 5.96914 2.70876 0
M  V30 7448 H 697.33 4.64495 3.79479 0
M  V30 7449 H 699.009 5.23933 3.79609 0
M  V30 7450 N 699.141 -0.881989 1.30609 0
M  V30 7451 C 700.369 -1.66711 1.22536 0
M  V30 7452 C 700.784 -1.87614 -0.2113 0
M  V30 7453 O 700.141 -1.42576 -1.13923 0
M  V30 7454 C 700.192 -3.04182 1.95335 0
M  V30 7455 O 699.913 -2.8422 3.33393 0
M  V30 7456 C 701.414 -3.98617 1.93956 0
M  V30 7457 H 698.634 -0.520124 0.423925 0
M  V30 7458 H 701.178 -1.10174 1.72285 0
M  V30 7459 H 699.333 -3.57442 1.49378 0
M  V30 7460 H 699.747 -3.71452 3.70302 0
M  V30 7461 H 701.221 -4.92433 2.49426 0
M  V30 7462 H 701.698 -4.29473 0.919198 0
M  V30 7463 H 702.304 -3.51292 2.39738 0
M  V30 7464 N 700.619 -1.13374 -1.09472 0
M  V30 7465 C 701.896 -0.806329 -1.78207 0
M  V30 7466 C 702.276 0.702191 -1.99079 0
M  V30 7467 O 701.624 1.63931 -1.59182 0
M  V30 7468 C 701.834 -1.59271 -3.10538 0
M  V30 7469 C 703.182 -1.78509 -3.85253 0
M  V30 7470 O 704.206 -1.55866 -3.20288 0
M  V30 7471 O 703.065 -2.16287 -5.01879 0
M  V30 7472 H 700.159 -0.29435 -0.772843 0
M  V30 7473 H 702.705 -1.23833 -1.16033 0
M  V30 7474 H 701.477 -2.61792 -2.90828 0
M  V30 7475 H 701.1 -1.15562 -3.80436 0
M  V30 7476 N 702.098 1.27442 -0.927168 0
M  V30 7477 C 703.046 2.28844 -0.416333 0
M  V30 7478 C 704.04 1.61882 0.499057 0
M  V30 7479 O 705.246 1.75969 0.378817 0
M  V30 7480 H 701.621 0.742989 -0.116065 0
M  V30 7481 H 703.592 2.69344 -1.28438 0
M  V30 7482 C 702.341 3.4626 0.316107 0
M  V30 7483 H 701.664 3.97999 -0.379082 0
M  V30 7484 H 703.104 4.19173 0.637975 0
M  V30 7485 C 701.563 3.00211 1.5289 0
M  V30 7486 O 702.093 3.03837 2.62766 0
M  V30 7487 N 700.299 2.55713 1.38054 0
M  V30 7488 H 699.846 2.52962 0.4866 0
M  V30 7489 H 699.804 2.25264 2.19325 0
M  V30 7490 N 703.576 0.692616 1.41565 0
M  V30 7491 C 704.825 0.219452 2.00503 0
M  V30 7492 C 705.138 -1.18683 1.55479 0
M  V30 7493 O 706.344 -1.75731 2.06956 0
M  V30 7494 C 704.8 0.341451 3.58277 0
M  V30 7495 C 704.408 1.75291 4.12283 0
M  V30 7496 C 706.152 -0.0720899 4.24439 0
M  V30 7497 C 704.059 1.82673 5.62481 0
M  V30 7498 H 702.989 0.0782874 0.749925 0
M  V30 7499 H 705.64 0.860386 1.62079 0
M  V30 7500 H 704.022 -0.367683 3.94289 0
M  V30 7501 H 705.196 2.49057 3.87695 0
M  V30 7502 H 703.511 2.11587 3.58636 0
M  V30 7503 H 706.108 -0.0373385 5.34687 0
M  V30 7504 H 706.451 -1.11034 4.0122 0
M  V30 7505 H 706.984 0.586663 3.9345 0
M  V30 7506 H 703.723 2.84539 5.90523 0
M  V30 7507 H 703.243 1.13288 5.89004 0
M  V30 7508 H 704.922 1.58827 6.27203 0
M  V30 7509 N 705.054 -1.51416 0.437162 0
M  V30 7510 C 706.301 -2.02086 -0.129364 0
M  V30 7511 C 706.629 -1.32133 -1.42728 0
M  V30 7512 O 705.884 -0.424916 -1.91031 0
M  V30 7513 C 706.183 -3.55203 -0.39564 0
M  V30 7514 C 705.849 -4.43447 0.81644 0
M  V30 7515 C 704.511 -4.67285 1.14884 0
M  V30 7516 C 706.863 -4.95219 1.62503 0
M  V30 7517 C 704.191 -5.40141 2.29052 0
M  V30 7518 C 706.543 -5.69327 2.7577 0
M  V30 7519 C 705.207 -5.91429 3.09464 0
M  V30 7520 H 704.477 -0.739486 -0.0473375 0
M  V30 7521 H 707.124 -1.82368 0.584321 0
M  V30 7522 H 705.429 -3.73252 -1.19121 0
M  V30 7523 H 707.126 -3.91944 -0.847399 0
M  V30 7524 H 703.716 -4.2509 0.547422 0
M  V30 7525 H 707.9 -4.76686 1.38144 0
M  V30 7526 H 703.156 -5.55468 2.55471 0
M  V30 7527 H 707.33 -6.08433 3.38795 0
M  V30 7528 H 704.957 -6.47662 3.98042 0
M  V30 7529 N 706.532 -0.168513 -1.56696 0
M  V30 7530 C 707.462 0.758563 -2.20835 0
M  V30 7531 C 708.443 1.24121 -1.1631 0
M  V30 7532 O 709.628 1.29487 -1.4473 0
M  V30 7533 C 706.758 1.9892 -2.8469 0
M  V30 7534 C 705.712 1.64252 -3.95228 0
M  V30 7535 C 705.038 2.94757 -4.46119 0
M  V30 7536 C 706.338 0.872675 -5.14958 0
M  V30 7537 H 708.032 0.223953 -2.98561 0
M  V30 7538 H 705.578 0.106277 -1.43607 0
M  V30 7539 H 707.531 2.64275 -3.28233 0
M  V30 7540 H 706.255 2.5479 -2.04327 0
M  V30 7541 H 704.914 1.01266 -3.52336 0
M  V30 7542 H 704.562 3.48662 -3.62552 0
M  V30 7543 H 704.262 2.72316 -5.2069 0
M  V30 7544 H 705.786 3.61147 -4.92347 0
M  V30 7545 H 707.2 1.42875 -5.55211 0
M  V30 7546 H 705.597 0.747402 -5.95428 0
M  V30 7547 H 706.667 -0.131535 -4.84722 0
M  V30 7548 N 708.01 1.57248 0.105221 0
M  V30 7549 C 709.238 1.89768 0.82437 0
M  V30 7550 C 709.653 0.761192 1.72775 0
M  V30 7551 O 709.01 -0.267342 1.80531 0
M  V30 7552 C 709.061 3.2184 1.64625 0
M  V30 7553 O 708.782 4.31115 0.779217 0
M  V30 7554 C 710.283 3.68155 2.46935 0
M  V30 7555 H 707.503 0.628031 0.236259 0
M  V30 7556 H 710.047 2.04321 0.085485 0
M  V30 7557 H 708.202 3.08915 2.33775 0
M  V30 7558 H 708.616 5.06897 1.34745 0
M  V30 7559 H 710.09 4.6329 3.00111 0
M  V30 7560 H 710.567 2.95492 3.24932 0
M  V30 7561 H 711.173 3.83914 1.83002 0
M  V30 7562 N 709.488 -0.375779 1.53054 0
M  V30 7563 C 710.716 -1.14036 1.72637 0
M  V30 7564 C 711.131 -1.83342 0.450687 0
M  V30 7565 O 710.488 -1.7318 -0.575749 0
M  V30 7566 C 710.539 -2.17841 2.88492 0
M  V30 7567 O 710.26 -1.51358 4.11123 0
M  V30 7568 C 711.761 -3.06924 3.19863 0
M  V30 7569 H 708.981 -0.341386 0.577665 0
M  V30 7570 H 711.525 -0.437809 1.99759 0
M  V30 7571 H 709.68 -2.8371 2.63794 0
M  V30 7572 H 710.094 -2.20439 4.75928 0
M  V30 7573 H 711.568 -3.75763 4.04359 0
M  V30 7574 H 712.045 -3.71169 2.34798 0
M  V30 7575 H 712.651 -2.46684 3.46449 0
M  V30 7576 N 710.966 -1.44241 -0.634997 0
M  V30 7577 C 711.929 -1.50457 -1.72903 0
M  V30 7578 C 712.929 -0.387058 -1.56072 0
M  V30 7579 O 714.119 -0.649531 -1.61638 0
M  V30 7580 C 711.251 -1.37477 -3.1195 0
M  V30 7581 H 712.444 -2.47907 -1.68767 0
M  V30 7582 H 709.997 -1.31276 -0.84831 0
M  V30 7583 H 710.732 -0.41106 -3.21684 0
M  V30 7584 H 710.517 -2.18506 -3.25573 0
M  V30 7585 H 712.007 -1.44799 -3.91692 0
M  V30 7586 N 712.444 0.87505 -1.31075 0
M  V30 7587 C 713.354 2.01441 -1.20244 0
M  V30 7588 C 714.37 1.73584 -0.120227 0
M  V30 7589 O 715.546 1.98559 -0.337063 0
M  V30 7590 C 712.611 3.34675 -0.905199 0
M  V30 7591 C 711.672 3.75889 -2.0738 0
M  V30 7592 C 710.905 5.02764 -1.79064 0
M  V30 7593 O 711.128 5.65795 -0.723318 0
M  V30 7594 O 710.062 5.40623 -2.64594 0
M  V30 7595 H 713.888 2.13509 -2.1598 0
M  V30 7596 H 711.473 1.00257 -1.10765 0
M  V30 7597 H 713.355 4.1458 -0.755057 0
M  V30 7598 H 712.03 3.23692 0.0221695 0
M  V30 7599 H 710.937 2.96645 -2.27931 0
M  V30 7600 H 712.27 3.91489 -2.98324 0
M  V30 7601 N 713.922 1.13953 1.08869 0
M  V30 7602 C 715.168 0.906151 1.8143 0
M  V30 7603 C 715.501 -0.566089 1.85766 0
M  V30 7604 O 714.776 -1.41915 1.33006 0
M  V30 7605 C 715.059 1.50183 3.27287 0
M  V30 7606 C 714.912 3.04359 3.31189 0
M  V30 7607 C 716.231 1.17477 4.24131 0
M  V30 7608 H 713.35 0.330624 0.658678 0
M  V30 7609 H 715.992 1.40873 1.27495 0
M  V30 7610 H 714.142 1.07442 3.73348 0
M  V30 7611 H 715.814 3.55896 2.93488 0
M  V30 7612 H 714.057 3.39053 2.70602 0
M  V30 7613 H 714.728 3.41141 4.33966 0
M  V30 7614 H 717.204 1.5442 3.86385 0
M  V30 7615 H 716.08 1.61795 5.24513 0
M  V30 7616 H 716.341 0.0893312 4.4201 0
M  V30 7617 N 715.4 -1.26948 0.933913 0
M  V30 7618 C 716.649 -1.93378 0.573409 0
M  V30 7619 C 716.962 -1.74148 -0.890614 0
M  V30 7620 O 718.168 -2.34971 -1.36017 0
M  V30 7621 C 716.624 -3.46449 0.974747 0
M  V30 7622 C 716.232 -3.74425 2.45988 0
M  V30 7623 C 717.976 -4.18924 0.685791 0
M  V30 7624 C 715.883 -5.209 2.8003 0
M  V30 7625 H 714.813 -0.723952 0.210736 0
M  V30 7626 H 717.464 -1.44143 1.13557 0
M  V30 7627 H 715.846 -3.94528 0.341181 0
M  V30 7628 H 717.02 -3.37079 3.14188 0
M  V30 7629 H 715.335 -3.15167 2.72138 0
M  V30 7630 H 717.932 -5.26786 0.916546 0
M  V30 7631 H 718.275 -4.14587 -0.377217 0
M  V30 7632 H 718.808 -3.76687 1.27874 0
M  V30 7633 H 715.547 -5.30332 3.85264 0
M  V30 7634 H 715.067 -5.59369 2.16485 0
M  V30 7635 H 716.746 -5.88837 2.68105 0
M  V30 7636 N 716.879 -0.700114 -1.41195 0
M  V30 7637 C 717.842 -0.0465706 -2.29153 0
M  V30 7638 C 718.842 0.703302 -1.44604 0
M  V30 7639 O 720.032 0.537513 -1.657 0
M  V30 7640 C 717.164 0.944324 -3.2756 0
M  V30 7641 H 718.357 -0.821064 -2.88442 0
M  V30 7642 H 715.91 -0.463869 -1.49258 0
M  V30 7643 H 716.645 1.74642 -2.73259 0
M  V30 7644 H 716.43 0.409701 -3.89954 0
M  V30 7645 H 717.92 1.39925 -3.9346 0
M  V30 7646 N 718.357 1.51182 -0.445186 0
M  V30 7647 C 719.289 2.25714 0.398206 0
M  V30 7648 C 720.302 1.30032 0.979562 0
M  V30 7649 O 721.491 1.55731 0.872368 0
M  V30 7650 C 718.591 3.00348 1.56985 0
M  V30 7651 C 717.764 4.23187 1.10596 0
M  V30 7652 C 716.823 4.80334 2.14863 0
M  V30 7653 O 715.849 5.4196 1.73977 0
M  V30 7654 N 717.051 4.65053 3.47427 0
M  V30 7655 H 719.816 2.98732 -0.240629 0
M  V30 7656 H 717.377 1.59556 -0.274507 0
M  V30 7657 H 719.369 3.35464 2.26376 0
M  V30 7658 H 717.939 2.30291 2.11387 0
M  V30 7659 H 717.159 3.93476 0.238832 0
M  V30 7660 H 718.447 5.02886 0.773537 0
M  V30 7661 H 717.845 4.15984 3.83372 0
M  V30 7662 H 716.402 5.04509 4.12691 0
M  V30 7663 N 719.835 0.176821 1.56605 0
M  V30 7664 C 720.767 -0.782836 2.15417 0
M  V30 7665 C 721.78 -1.18982 1.11117 0
M  V30 7666 O 722.969 -1.12872 1.38283 0
M  V30 7667 C 720.069 -2.06596 2.68647 0
M  V30 7668 C 719.242 -1.82167 3.9766 0
M  V30 7669 C 718.301 -2.94751 4.35899 0
M  V30 7670 O 717.327 -2.65148 5.03672 0
M  V30 7671 N 718.529 -4.2267 3.97907 0
M  V30 7672 H 721.294 -0.280012 2.98389 0
M  V30 7673 H 718.855 -0.00577529 1.61899 0
M  V30 7674 H 720.847 -2.81018 2.91223 0
M  V30 7675 H 719.417 -2.48054 1.90232 0
M  V30 7676 H 718.637 -0.916208 3.83405 0
M  V30 7677 H 719.925 -1.6322 4.81909 0
M  V30 7678 H 719.323 -4.4958 3.43357 0
M  V30 7679 H 717.88 -4.93778 4.25472 0
M  V30 7680 N 721.313 -1.57302 -0.09688 0
M  V30 7681 C 722.559 -1.86273 -0.801885 0
M  V30 7682 C 722.892 -0.765694 -1.78468 0
M  V30 7683 O 722.167 0.226495 -1.93177 0
M  V30 7684 C 722.45 -3.25876 -1.53221 0
M  V30 7685 C 722.303 -4.46205 -0.567529 0
M  V30 7686 C 723.622 -3.63352 -2.48321 0
M  V30 7687 H 720.741 -0.67752 -0.29006 0
M  V30 7688 H 723.383 -1.89887 -0.0655577 0
M  V30 7689 H 721.533 -3.22926 -2.15988 0
M  V30 7690 H 723.205 -4.6127 0.0529982 0
M  V30 7691 H 721.448 -4.33636 0.119233 0
M  V30 7692 H 722.119 -5.40608 -1.11564 0
M  V30 7693 H 724.595 -3.67234 -1.95648 0
M  V30 7694 H 723.471 -4.61968 -2.9644 0
M  V30 7695 H 723.732 -2.91941 -3.31998 0
M  V30 7696 N 722.791 0.367657 -1.53252 0
M  V30 7697 C 724.016 1.13566 -1.73544 0
M  V30 7698 C 724.441 1.82329 -0.462344 0
M  V30 7699 O 723.799 1.71655 0.583472 0
M  V30 7700 C 723.847 2.14322 -2.89997 0
M  V30 7701 O 722.951 3.21359 -2.58461 0
M  V30 7702 H 722.292 0.329614 -0.576412 0
M  V30 7703 H 724.822 0.425417 -2.00128 0
M  V30 7704 H 724.832 2.57958 -3.16104 0
M  V30 7705 H 723.507 1.63664 -3.82344 0
M  V30 7706 H 722.084 2.8271 -2.43165 0
M  V30 7707 N 724.269 1.44576 0.627338 0
M  V30 7708 C 725.546 1.38033 1.38586 0
M  V30 7709 C 725.926 0.0409468 2.1106 0
M  V30 7710 O 725.274 -0.976582 2.0658 0
M  V30 7711 C 725.484 2.58102 2.34913 0
M  V30 7712 C 726.832 3.02332 2.98129 0
M  V30 7713 O 727.856 2.58334 2.45238 0
M  V30 7714 O 726.715 3.78628 3.94085 0
M  V30 7715 H 723.809 0.546801 0.620434 0
M  V30 7716 H 726.355 1.56672 0.652077 0
M  V30 7717 H 725.127 3.4719 1.80485 0
M  V30 7718 H 724.75 2.41696 3.15703 0
M  V30 7719 N 725.747 -0.868086 1.31537 0
M  V30 7720 C 726.694 -1.97548 1.19346 0
M  V30 7721 C 727.664 -1.65913 0.0787922 0
M  V30 7722 O 728.849 -1.89129 0.251985 0
M  V30 7723 C 725.989 -3.32922 0.908692 0
M  V30 7724 C 725.102 -3.77141 2.10687 0
M  V30 7725 C 724.237 -5.01241 1.75873 0
M  V30 7726 C 723.276 -5.37914 2.92088 0
M  V30 7727 N 722.413 -6.53192 2.57457 0
M  V30 7728 H 727.253 -2.07307 2.14074 0
M  V30 7729 H 724.79 -1.01483 1.06487 0
M  V30 7730 H 726.748 -4.10867 0.724138 0
M  V30 7731 H 725.378 -3.228 -0.0017611 0
M  V30 7732 H 724.43 -2.94961 2.40213 0
M  V30 7733 H 725.742 -4.00248 2.97663 0
M  V30 7734 H 724.896 -5.86858 1.53891 0
M  V30 7735 H 723.635 -4.80041 0.86091 0
M  V30 7736 H 722.64 -4.50814 3.14717 0
M  V30 7737 H 723.865 -5.61077 3.82582 0
M  V30 7738 H 721.811 -6.33536 1.702 0
M  V30 7739 H 721.728 -6.76252 3.37963 0
M  V30 7740 H 722.996 -7.41997 2.38873 0
M  V30 7741 N 727.225 -1.14528 -1.08264 0
M  V30 7742 C 728.175 -0.802141 -2.13424 0
M  V30 7743 C 729.159 0.209362 -1.59532 0
M  V30 7744 O 730.351 0.0114859 -1.76996 0
M  V30 7745 C 727.48 -0.282938 -3.42132 0
M  V30 7746 C 726.566 -1.32405 -4.02902 0
M  V30 7747 N 726.957 -2.52861 -4.38058 0
M  V30 7748 C 725.255 -1.17462 -4.30254 0
M  V30 7749 C 725.956 -3.1952 -4.86088 0
M  V30 7750 N 724.932 -2.46921 -4.84284 0
M  V30 7751 H 728.734 -1.71843 -2.38426 0
M  V30 7752 H 726.248 -1.02936 -1.2561 0
M  V30 7753 H 728.245 -0.0188053 -4.16896 0
M  V30 7754 H 726.905 0.627533 -3.18578 0
M  V30 7755 H 727.916 -2.90078 -4.2904 0
M  V30 7756 H 724.593 -0.323283 -4.16246 0
M  V30 7757 H 725.983 -4.2223 -5.22658 0
M  V30 7758 N 728.703 1.26451 -0.940633 0
M  V30 7759 C 729.633 2.28773 -0.467479 0
M  V30 7760 C 730.614 1.63218 0.478955 0
M  V30 7761 O 731.799 1.90427 0.380929 0
M  V30 7762 C 728.929 3.46259 0.268656 0
M  V30 7763 C 727.883 4.23898 -0.591171 0
M  V30 7764 C 727.209 5.33993 0.274891 0
M  V30 7765 C 728.509 4.87974 -1.86223 0
M  V30 7766 H 730.203 2.68601 -1.32265 0
M  V30 7767 H 727.749 1.29123 -0.637436 0
M  V30 7768 H 729.702 4.16951 0.610696 0
M  V30 7769 H 728.426 3.05383 1.15796 0
M  V30 7770 H 727.085 3.54969 -0.916098 0
M  V30 7771 H 726.733 4.89358 1.16353 0
M  V30 7772 H 726.433 5.86849 -0.297006 0
M  V30 7773 H 727.957 6.07523 0.612213 0
M  V30 7774 H 729.371 5.50883 -1.58747 0
M  V30 7775 H 727.768 5.50945 -2.37866 0
M  V30 7776 H 728.838 4.10945 -2.57394 0
M  V30 7777 N 730.181 0.707592 1.40822 0
M  V30 7778 C 731.091 0.0507246 2.34545 0
M  V30 7779 C 732.107 -0.752727 1.56876 0
M  V30 7780 O 733.283 -0.687524 1.89302 0
M  V30 7781 C 730.348 -0.865731 3.35717 0
M  V30 7782 C 729.409 -0.0531313 4.29267 0
M  V30 7783 C 728.642 -0.925939 5.25606 0
M  V30 7784 O 728.865 -2.16531 5.27703 0
M  V30 7785 O 727.799 -0.369194 6.00767 0
M  V30 7786 H 731.625 0.823587 2.9232 0
M  V30 7787 H 729.21 0.46801 1.4188 0
M  V30 7788 H 731.092 -1.39091 3.97783 0
M  V30 7789 H 729.767 -1.61788 2.80368 0
M  V30 7790 H 728.674 0.516931 3.70511 0
M  V30 7791 H 730.007 0.660617 4.87747 0
M  V30 7792 N 731.66 -1.50943 0.453197 0
M  V30 7793 C 732.57 -2.31884 -0.355963 0
M  V30 7794 C 733.586 -1.41481 -1.01287 0
M  V30 7795 O 734.762 -1.74546 -1.00477 0
M  V30 7796 C 731.827 -3.15668 -1.43369 0
M  V30 7797 C 730.888 -4.2187 -0.795253 0
M  V30 7798 C 730.121 -5.0165 -1.82162 0
M  V30 7799 O 730.344 -4.82266 -3.04592 0
M  V30 7800 O 729.278 -5.85311 -1.40336 0
M  V30 7801 H 733.104 -3.02162 0.305248 0
M  V30 7802 H 730.689 -1.47839 0.215398 0
M  V30 7803 H 732.571 -3.67709 -2.05836 0
M  V30 7804 H 731.246 -2.48137 -2.07869 0
M  V30 7805 H 730.153 -3.73867 -0.132106 0
M  V30 7806 H 731.486 -4.9182 -0.193484 0
M  V30 7807 N 733.138 -0.185124 -1.56509 0
M  V30 7808 C 734.386 0.455357 -1.96903 0
M  V30 7809 C 734.707 1.62839 -1.07277 0
M  V30 7810 O 733.977 1.95385 -0.141966 0
M  V30 7811 H 732.557 0.171218 -0.727113 0
M  V30 7812 H 735.219 -0.26953 -1.93027 0
M  V30 7813 H 734.315 0.80616 -3.01509 0
M  V30 7814 N 734.616 1.57351 0.0885366 0
M  V30 7815 C 736.032 1.53331 0.442916 0
M  V30 7816 C 736.232 0.902831 1.80142 0
M  V30 7817 O 735.288 0.498147 2.47537 0
M  V30 7818 C 736.601 2.98036 0.399372 0
M  V30 7819 C 738.149 3.09286 0.480759 0
M  V30 7820 C 738.624 4.5561 0.467296 0
M  V30 7821 N 740.115 4.60182 0.52786 0
M  V30 7822 C 740.85 5.70857 0.539388 0
M  V30 7823 N 740.346 6.90944 0.506729 0
M  V30 7824 N 742.139 5.59051 0.584691 0
M  V30 7825 H 734.29 1.96709 -0.801215 0
M  V30 7826 H 736.553 0.899639 -0.298922 0
M  V30 7827 H 736.259 3.47656 -0.531806 0
M  V30 7828 H 736.133 3.57066 1.21589 0
M  V30 7829 H 738.52 2.5965 1.40236 0
M  V30 7830 H 738.601 2.53197 -0.364023 0
M  V30 7831 H 738.245 5.05899 -0.450384 0
M  V30 7832 H 738.175 5.09544 1.32938 0
M  V30 7833 H 740.666 3.73757 0.558028 0
M  V30 7834 H 740.979 7.71055 0.518989 0
M  V30 7835 H 739.324 6.93384 0.473675 0
M  V30 7836 H 742.515 4.64138 0.607781 0
M  V30 7837 H 742.688 6.45307 0.590206 0
M  V30 7838 N 736.094 -0.359525 1.53444 0
M  V30 7839 C 737.024 -1.44662 1.8329 0
M  V30 7840 C 738.005 -1.55617 0.68683 0
M  V30 7841 O 739.19 -1.70086 0.93725 0
M  V30 7842 C 736.32 -2.81923 2.02822 0
M  V30 7843 C 735.274 -2.85787 3.18606 0
M  V30 7844 C 734.6 -4.25781 3.23442 0
M  V30 7845 C 735.9 -2.52762 4.57065 0
M  V30 7846 H 737.594 -1.19934 2.74329 0
M  V30 7847 H 735.14 -0.575517 1.31999 0
M  V30 7848 H 737.093 -3.58005 2.22285 0
M  V30 7849 H 735.817 -3.08051 1.085 0
M  V30 7850 H 734.476 -2.12157 2.98973 0
M  V30 7851 H 734.124 -4.48994 2.26745 0
M  V30 7852 H 733.824 -4.29281 4.01238 0
M  V30 7853 H 735.348 -5.03727 3.45096 0
M  V30 7854 H 736.762 -3.18557 4.76649 0
M  V30 7855 H 735.159 -2.67569 5.37147 0
M  V30 7856 H 736.229 -1.47993 4.61764 0
M  V30 7857 N 737.572 -1.44907 -0.619662 0
M  V30 7858 C 738.802 -1.51575 -1.40387 0
M  V30 7859 C 739.21 -0.14309 -1.88658 0
M  V30 7860 O 738.553 0.863403 -1.62145 0
M  V30 7861 C 738.615 -2.42858 -2.65067 0
M  V30 7862 C 738.279 -3.8982 -2.38515 0
M  V30 7863 C 739.276 -4.80047 -1.99627 0
M  V30 7864 C 736.961 -4.34628 -2.51801 0
M  V30 7865 C 738.955 -6.13086 -1.74369 0
M  V30 7866 C 736.642 -5.67712 -2.26156 0
M  V30 7867 C 737.64 -6.56759 -1.875 0
M  V30 7868 O 737.328 -7.87377 -1.62148 0
M  V30 7869 H 737.06 -0.51612 -0.436573 0
M  V30 7870 H 739.614 -1.90664 -0.763959 0
M  V30 7871 H 737.844 -1.98717 -3.31735 0
M  V30 7872 H 739.533 -2.40346 -3.27091 0
M  V30 7873 H 740.299 -4.46697 -1.8891 0
M  V30 7874 H 736.178 -3.65568 -2.80857 0
M  V30 7875 H 739.722 -6.8255 -1.44122 0
M  V30 7876 H 735.619 -6.0062 -2.36486 0
M  V30 7877 H 736.387 -7.99288 -1.763 0
M  V30 7878 N 739.05 0.861098 -1.31996 0
M  V30 7879 C 740.461 1.43065 -1.19955 0
M  V30 7880 C 740.812 1.95273 0.190489 0
M  V30 7881 O 739.937 1.87012 1.08882 0
M  V30 7882 C 740.532 2.60052 -2.1716 0
M  V30 7883 C 739.091 3.13026 -2.09026 0
M  V30 7884 C 738.238 1.85756 -2.05888 0
M  V30 7885 H 741.189 0.668834 -1.43918 0
M  V30 7886 H 741.21 3.37016 -1.76637 0
M  V30 7887 H 740.722 2.22024 -3.18319 0
M  V30 7888 H 738.823 3.55653 -1.11092 0
M  V30 7889 H 738.936 3.74707 -2.98549 0
M  V30 7890 H 737.3 2.05088 -1.51033 0
M  V30 7891 H 738.083 1.49954 -3.08818 0
M  V30 7892 N 740.528 1.15101 1.07655 0
M  V30 7893 C 741.939 0.933848 1.61667 0
M  V30 7894 C 742.29 -0.525569 1.8903 0
M  V30 7895 O 741.415 -1.39605 1.65346 0
M  V30 7896 C 742.01 1.68876 2.93711 0
M  V30 7897 C 740.569 1.51697 3.44478 0
M  V30 7898 C 739.716 1.70633 2.18586 0
M  V30 7899 H 742.667 1.30171 0.907816 0
M  V30 7900 H 742.688 1.15645 3.625 0
M  V30 7901 H 742.2 2.7509 2.73764 0
M  V30 7902 H 740.301 0.478635 3.69513 0
M  V30 7903 H 740.414 2.29194 4.20722 0
M  V30 7904 H 738.778 1.13259 2.28132 0
M  V30 7905 H 739.561 2.78206 2.01137 0
M  V30 7906 N 742.006 -1.2595 0.947325 0
M  V30 7907 C 742.936 -2.28521 0.479604 0
M  V30 7908 C 743.917 -1.63469 -0.470293 0
M  V30 7909 O 745.102 -1.90627 -0.370824 0
M  V30 7910 C 742.232 -3.46397 -0.250289 0
M  V30 7911 C 741.186 -4.23578 0.613643 0
M  V30 7912 C 740.512 -5.34131 -0.246568 0
M  V30 7913 C 741.812 -4.86979 1.88809 0
M  V30 7914 H 743.506 -2.67895 1.33688 0
M  V30 7915 H 741.052 -1.28783 0.644274 0
M  V30 7916 H 743.005 -4.17269 -0.588576 0
M  V30 7917 H 741.729 -3.05993 -1.14175 0
M  V30 7918 H 740.388 -3.54478 0.93491 0
M  V30 7919 H 740.036 -4.89968 -1.13756 0
M  V30 7920 H 739.736 -5.86683 0.328123 0
M  V30 7921 H 741.26 -6.07839 -0.579986 0
M  V30 7922 H 742.674 -5.50034 1.61666 0
M  V30 7923 H 741.071 -5.49675 2.40784 0
M  V30 7924 H 742.141 -4.09575 2.5957 0
M  V30 7925 N 743.484 -0.715051 -1.40445 0
M  V30 7926 C 744.432 -0.0509974 -2.32544 0
M  V30 7927 C 745.426 0.747602 -1.52011 0
M  V30 7928 O 746.632 0.651031 -1.67814 0
M  V30 7929 H 743.007 0.00231113 -0.751996 0
M  V30 7930 H 744.978 -0.84449 -2.86201 0
M  V30 7931 C 743.727 0.857101 -3.3697 0
M  V30 7932 H 743.05 0.252 -3.99005 0
M  V30 7933 H 744.49 1.28971 -4.03909 0
M  V30 7934 C 742.949 1.98231 -2.72408 0
M  V30 7935 O 743.479 3.07309 -2.58697 0
M  V30 7936 N 741.685 1.76577 -2.308 0
M  V30 7937 H 741.232 0.878641 -2.42152 0
M  V30 7938 H 741.19 2.52043 -1.87941 0
M  V30 7939 N 744.962 1.50701 -0.461195 0
M  V30 7940 C 746.19 2.06681 0.0951756 0
M  V30 7941 C 746.605 1.32615 1.34382 0
M  V30 7942 O 745.962 0.392531 1.78229 0
M  V30 7943 C 746.013 3.59354 0.393316 0
M  V30 7944 O 745.734 4.30626 -0.805797 0
M  V30 7945 C 747.235 4.31926 0.997744 0
M  V30 7946 H 744.455 0.670995 -0.00267259 0
M  V30 7947 H 746.999 1.93991 -0.647137 0
M  V30 7948 H 745.154 3.7188 1.08555 0
M  V30 7949 H 745.568 5.21667 -0.544409 0
M  V30 7950 H 747.042 5.39756 1.15619 0
M  V30 7951 H 747.519 3.91772 1.98523 0
M  V30 7952 H 748.125 4.23905 0.344188 0
M  V30 7953 N 746.441 0.193421 1.56409 0
M  V30 7954 C 747.69 -0.445995 1.96707 0
M  V30 7955 C 748.003 -1.62876 1.08309 0
M  V30 7956 O 749.209 -2.33586 1.38383 0
M  V30 7957 C 747.665 -0.844863 3.49843 0
M  V30 7958 C 747.273 0.31352 4.46902 0
M  V30 7959 C 749.017 -1.45146 3.98915 0
M  V30 7960 C 746.924 -0.106214 5.91305 0
M  V30 7961 H 745.854 -0.170398 0.734493 0
M  V30 7962 H 748.505 0.285172 1.81271 0
M  V30 7963 H 746.887 -1.63265 3.60778 0
M  V30 7964 H 748.061 1.09103 4.47698 0
M  V30 7965 H 746.376 0.8315 4.08014 0
M  V30 7966 H 748.973 -1.77792 5.04276 0
M  V30 7967 H 749.316 -2.35734 3.43126 0
M  V30 7968 H 749.849 -0.727675 3.91088 0
M  V30 7969 H 746.588 0.765442 6.51016 0
M  V30 7970 H 746.108 -0.848623 5.93766 0
M  V30 7971 H 747.787 -0.542588 6.44721 0
M  V30 7972 N 747.919 -1.57396 -0.0801906 0
M  V30 7973 C 749.335 -1.53564 -0.434778 0
M  V30 7974 C 749.535 -0.912372 -1.79661 0
M  V30 7975 O 748.591 -0.511268 -2.4727 0
M  V30 7976 C 749.904 -2.98244 -0.383561 0
M  V30 7977 C 751.452 -3.09536 -0.46435 0
M  V30 7978 C 751.927 -4.55851 -0.443128 0
M  V30 7979 N 753.418 -4.60456 -0.503448 0
M  V30 7980 C 754.153 -5.71135 -0.509106 0
M  V30 7981 N 753.649 -6.91203 -0.47008 0
M  V30 7982 N 755.442 -5.59353 -0.555035 0
M  V30 7983 H 747.593 -1.96281 0.811635 0
M  V30 7984 H 749.856 -0.898041 0.303689 0
M  V30 7985 H 749.562 -3.47369 0.550236 0
M  V30 7986 H 749.436 -3.57705 -1.19694 0
M  V30 7987 H 751.823 -2.6039 -1.38857 0
M  V30 7988 H 751.904 -2.53 0.377445 0
M  V30 7989 H 751.548 -5.05653 0.477207 0
M  V30 7990 H 751.478 -5.10242 -1.30234 0
M  V30 7991 H 753.969 -3.74048 -0.538199 0
M  V30 7992 H 754.282 -7.7132 -0.478091 0
M  V30 7993 H 752.627 -6.93625 -0.436897 0
M  V30 7994 H 755.818 -4.64453 -0.583158 0
M  V30 7995 H 755.991 -6.4561 -0.555976 0
M  V30 7996 N 749.397 0.351382 -1.53633 0
M  V30 7997 C 750.674 1.10903 -1.6112 0
M  V30 7998 C 751.054 2.06725 -0.427556 0
M  V30 7999 O 750.402 2.20992 0.580916 0
M  V30 8000 C 750.612 1.83561 -2.96827 0
M  V30 8001 C 751.96 2.37587 -3.51906 0
M  V30 8002 O 752.984 1.93669 -2.9895 0
M  V30 8003 O 751.843 3.17913 -4.44515 0
M  V30 8004 H 748.937 0.509558 -0.651368 0
M  V30 8005 H 751.483 0.353504 -1.65977 0
M  V30 8006 H 750.255 1.1371 -3.74414 0
M  V30 8007 H 749.878 2.6599 -2.95525 0
M  V30 8008 N 750.875 1.45233 0.611969 0
M  V30 8009 C 752.121 1.49242 1.37312 0
M  V30 8010 C 752.454 0.131963 1.93751 0
M  V30 8011 O 751.729 -0.852999 1.74798 0
M  V30 8012 C 752.012 2.56811 2.52428 0
M  V30 8013 C 751.865 4.02284 2.01215 0
M  V30 8014 C 753.184 2.60705 3.54572 0
M  V30 8015 H 750.303 0.54336 0.497925 0
M  V30 8016 H 752.945 1.77019 0.690242 0
M  V30 8017 H 751.095 2.33256 3.10683 0
M  V30 8018 H 752.767 4.37035 1.47643 0
M  V30 8019 H 751.01 4.1315 1.32248 0
M  V30 8020 H 751.681 4.7323 2.84178 0
M  V30 8021 H 754.157 2.81799 3.06151 0
M  V30 8022 H 753.033 3.37841 4.32614 0
M  V30 8023 H 753.294 1.65627 4.09903 0
M  V30 8024 N 752.353 -0.854086 1.3245 0
M  V30 8025 C 753.578 -1.64597 1.26185 0
M  V30 8026 C 754.003 -1.87357 -0.167074 0
M  V30 8027 O 753.361 -1.42675 -1.11864 0
M  V30 8028 C 753.409 -2.98213 2.02734 0
M  V30 8029 O 752.513 -3.88784 1.37554 0
M  V30 8030 H 751.854 -0.50179 0.434859 0
M  V30 8031 H 754.384 -1.06372 1.74775 0
M  V30 8032 H 754.394 -3.4803 2.1293 0
M  V30 8033 H 753.069 -2.80969 3.06642 0
M  V30 8034 H 751.646 -3.4725 1.3591 0
M  V30 8035 N 753.831 -1.1567 -1.07043 0
M  V30 8036 C 754.761 -0.879348 -2.16309 0
M  V30 8037 C 755.742 0.171311 -1.69235 0
M  V30 8038 O 756.927 0.0250175 -1.94184 0
M  V30 8039 C 754.057 -0.371307 -3.45309 0
M  V30 8040 C 753.011 -1.359 -4.05851 0
M  V30 8041 C 752.337 -0.709678 -5.29969 0
M  V30 8042 C 753.637 -2.72606 -4.45514 0
M  V30 8043 H 755.331 -1.79308 -2.39768 0
M  V30 8044 H 752.877 -0.863558 -1.15233 0
M  V30 8045 H 754.83 -0.164798 -4.21078 0
M  V30 8046 H 753.554 0.577906 -3.21446 0
M  V30 8047 H 752.213 -1.55193 -3.32131 0
M  V30 8048 H 751.861 0.245782 -5.02399 0
M  V30 8049 H 751.561 -1.36886 -5.71433 0
M  V30 8050 H 753.085 -0.513015 -6.08441 0
M  V30 8051 H 754.499 -2.57141 -5.12398 0
M  V30 8052 H 752.896 -3.34927 -4.97939 0
M  V30 8053 H 753.966 -3.28434 -3.56734 0
M  V30 8054 N 755.309 1.25446 -0.953992 0
M  V30 8055 C 756.256 2.25912 -0.472485 0
M  V30 8056 C 757.226 1.59173 0.47469 0
M  V30 8057 O 758.411 1.86812 0.388082 0
M  V30 8058 C 755.551 3.44235 0.244218 0
M  V30 8059 C 754.664 4.25613 -0.740121 0
M  V30 8060 C 753.799 5.312 -0.000922267 0
M  V30 8061 C 752.838 6.04265 -0.976236 0
M  V30 8062 N 751.975 7.01589 -0.267952 0
M  V30 8063 H 756.815 2.66469 -1.3341 0
M  V30 8064 H 754.352 1.31005 -0.669045 0
M  V30 8065 H 756.31 4.11682 0.676314 0
M  V30 8066 H 754.94 3.04554 1.06988 0
M  V30 8067 H 753.992 3.57834 -1.2907 0
M  V30 8068 H 755.304 4.762 -1.48441 0
M  V30 8069 H 754.458 6.04719 0.48984 0
M  V30 8070 H 753.197 4.81484 0.776159 0
M  V30 8071 H 752.202 5.29561 -1.478 0
M  V30 8072 H 753.427 6.5607 -1.75354 0
M  V30 8073 H 751.373 6.54164 0.490403 0
M  V30 8074 H 751.29 7.4999 -0.951344 0
M  V30 8075 H 752.558 7.7924 0.201294 0
M  V30 8076 N 756.787 0.722489 1.40064 0
M  V30 8077 C 758.036 0.261932 1.99992 0
M  V30 8078 C 758.349 -1.15358 1.57961 0
M  V30 8079 O 759.555 -1.71301 2.10637 0
M  V30 8080 C 758.011 0.41737 3.57472 0
M  V30 8081 C 757.619 1.83997 4.08472 0
M  V30 8082 C 759.363 0.0179561 4.24496 0
M  V30 8083 C 757.27 1.94563 5.5848 0
M  V30 8084 H 756.2 0.0941768 0.748095 0
M  V30 8085 H 758.851 0.894572 1.60218 0
M  V30 8086 H 757.233 -0.283965 3.94981 0
M  V30 8087 H 758.407 2.57224 3.82325 0
M  V30 8088 H 756.722 2.19147 3.54067 0
M  V30 8089 H 759.319 0.076085 5.34646 0
M  V30 8090 H 759.662 -1.02498 4.03485 0
M  V30 8091 H 760.195 0.669988 3.92117 0
M  V30 8092 H 756.934 2.97001 5.84355 0
M  V30 8093 H 756.454 1.25756 5.86469 0
M  V30 8094 H 758.133 1.72095 6.23692 0
M  V30 8095 N 758.265 -1.50454 0.469181 0
M  V30 8096 C 759.228 -2.2703 -0.314643 0
M  V30 8097 C 760.228 -1.31734 -0.922111 0
M  V30 8098 O 761.418 -1.55176 -0.791588 0
M  V30 8099 C 758.55 -3.08616 -1.44806 0
M  V30 8100 H 759.743 -2.97769 0.356892 0
M  V30 8101 H 757.296 -1.54698 0.223191 0
M  V30 8102 H 758.031 -2.42369 -2.1547 0
M  V30 8103 H 757.816 -3.78647 -1.01829 0
M  V30 8104 H 759.306 -3.66536 -2.00103 0
M  V30 8105 N 759.743 -0.201713 -1.56304 0
M  V30 8106 C 760.653 0.728296 -2.23009 0
M  V30 8107 C 761.669 1.22945 -1.23128 0
M  V30 8108 O 762.845 1.27523 -1.55884 0
M  V30 8109 C 759.91 1.92792 -2.88153 0
M  V30 8110 C 758.971 1.47068 -4.03323 0
M  V30 8111 C 758.204 2.61312 -4.65351 0
M  V30 8112 O 758.427 3.7896 -4.26317 0
M  V30 8113 O 757.361 2.33646 -5.54701 0
M  V30 8114 H 761.187 0.190166 -3.03104 0
M  V30 8115 H 758.772 0.0278725 -1.49374 0
M  V30 8116 H 760.654 2.6289 -3.29343 0
M  V30 8117 H 759.329 2.45452 -2.11033 0
M  V30 8118 H 758.236 0.738299 -3.66742 0
M  V30 8119 H 759.569 0.990666 -4.82127 0
M  V30 8120 N 761.222 1.57436 0.0718424 0
M  V30 8121 C 762.169 2.03686 1.08539 0
M  V30 8122 C 763.139 0.917474 1.38462 0
M  V30 8123 O 764.324 1.18513 1.4953 0
M  V30 8124 C 761.464 2.48566 2.39393 0
M  V30 8125 C 760.577 3.74122 2.16001 0
M  V30 8126 C 759.712 4.07786 3.40418 0
M  V30 8127 C 758.751 5.26383 3.1239 0
M  V30 8128 N 757.888 5.55685 4.29138 0
M  V30 8129 H 762.728 2.90043 0.684018 0
M  V30 8130 H 760.265 1.43438 0.326183 0
M  V30 8131 H 762.223 2.72639 3.15791 0
M  V30 8132 H 760.853 1.65186 2.77333 0
M  V30 8133 H 759.905 3.57389 1.30296 0
M  V30 8134 H 761.217 4.60659 1.91298 0
M  V30 8135 H 760.371 4.32759 4.25211 0
M  V30 8136 H 759.11 3.19817 3.68197 0
M  V30 8137 H 758.115 5.01206 2.25993 0
M  V30 8138 H 759.34 6.1597 2.85934 0
M  V30 8139 H 757.286 4.70675 4.56948 0
M  V30 8140 H 757.203 6.3664 4.07708 0
M  V30 8141 H 758.471 5.85209 5.14928 0
M  V30 8142 N 762.7 -0.34323 1.53817 0
M  V30 8143 C 763.949 -1.08086 1.70295 0
M  V30 8144 C 764.262 -1.89794 0.47302 0
M  V30 8145 O 765.468 -2.66498 0.518754 0
M  V30 8146 C 763.924 -1.97097 3.01133 0
M  V30 8147 C 763.532 -1.20594 4.31464 0
M  V30 8148 C 765.276 -2.70715 3.26976 0
M  V30 8149 C 763.183 -2.08636 5.53376 0
M  V30 8150 H 762.113 -0.407228 0.634572 0
M  V30 8151 H 764.764 -0.340328 1.80316 0
M  V30 8152 H 763.146 -2.74971 2.84969 0
M  V30 8153 H 764.32 -0.476282 4.58332 0
M  V30 8154 H 762.635 -0.587426 4.12236 0
M  V30 8155 H 765.232 -3.36857 4.15248 0
M  V30 8156 H 765.575 -3.37299 2.43998 0
M  V30 8157 H 766.108 -1.99914 3.43917 0
M  V30 8158 H 762.847 -1.46594 6.38898 0
M  V30 8159 H 762.367 -2.7939 5.30755 0
M  V30 8160 H 764.046 -2.67682 5.89029 0
M  V30 8161 N 764.178 -1.45556 -0.604258 0
M  V30 8162 C 765.424 -1.49968 -1.36519 0
M  V30 8163 C 765.757 -0.142236 -1.93678 0
M  V30 8164 O 765.032 0.843717 -1.75247 0
M  V30 8165 C 765.315 -2.58146 -2.51063 0
M  V30 8166 C 765.168 -4.03346 -1.99078 0
M  V30 8167 C 766.487 -2.62581 -3.53184 0
M  V30 8168 H 763.606 -0.545993 -0.495036 0
M  V30 8169 H 766.248 -1.77382 -0.680845 0
M  V30 8170 H 764.398 -2.34901 -3.09441 0
M  V30 8171 H 766.07 -4.37811 -1.45323 0
M  V30 8172 H 764.313 -4.13845 -1.30055 0
M  V30 8173 H 764.984 -4.74731 -2.81664 0
M  V30 8174 H 767.46 -2.83419 -3.04652 0
M  V30 8175 H 766.336 -3.40131 -4.30816 0
M  V30 8176 H 766.597 -1.67798 -4.09019 0
M  V30 8177 N 765.656 0.84705 -1.32902 0
M  V30 8178 C 766.603 1.95624 -1.22473 0
M  V30 8179 C 767.573 1.65767 -0.105178 0
M  V30 8180 O 768.758 1.88704 -0.282042 0
M  V30 8181 C 765.898 3.31434 -0.961542 0
M  V30 8182 C 765.011 3.73741 -2.1666 0
M  V30 8183 C 764.146 4.98379 -1.83825 0
M  V30 8184 C 763.185 5.33199 -3.00609 0
M  V30 8185 N 762.322 6.49014 -2.67816 0
M  V30 8186 H 767.162 2.03875 -2.17345 0
M  V30 8187 H 764.699 0.997764 -1.08088 0
M  V30 8188 H 766.657 4.09663 -0.789411 0
M  V30 8189 H 765.287 3.22762 -0.0495938 0
M  V30 8190 H 764.339 2.91102 -2.44875 0
M  V30 8191 H 765.651 3.95462 -3.03993 0
M  V30 8192 H 764.805 5.84336 -1.63208 0
M  V30 8193 H 763.544 4.78611 -0.937172 0
M  V30 8194 H 762.549 4.4575 -3.21849 0
M  V30 8195 H 763.774 5.5492 -3.9146 0
M  V30 8196 H 761.72 6.30748 -1.80258 0
M  V30 8197 H 761.637 6.7079 -3.48679 0
M  V30 8198 H 762.905 7.38103 -2.50647 0
M  V30 8199 N 767.134 1.16236 1.06428 0
M  V30 8200 C 768.411 0.853294 1.76006 0
M  V30 8201 C 768.791 -0.649162 2.00871 0
M  V30 8202 O 768.139 -1.59653 1.63472 0
M  V30 8203 C 768.349 1.67448 3.06206 0
M  V30 8204 C 769.697 1.8866 3.80385 0
M  V30 8205 O 770.721 1.64303 3.16043 0
M  V30 8206 O 769.58 2.29518 4.95968 0
M  V30 8207 H 766.674 0.314737 0.764767 0
M  V30 8208 H 769.22 1.26865 1.12709 0
M  V30 8209 H 767.992 2.69411 2.83784 0
M  V30 8210 H 767.615 1.25608 3.77238 0
M  V30 8211 N 768.612 -1.24939 0.960631 0
M  V30 8212 C 769.575 -2.239 0.49006 0
M  V30 8213 C 770.575 -1.55497 -0.409535 0
M  V30 8214 O 771.765 -1.72978 -0.205984 0
M  V30 8215 C 768.897 -3.39654 -0.291193 0
M  V30 8216 H 770.09 -2.67044 1.36482 0
M  V30 8217 H 767.643 -1.37429 0.744505 0
M  V30 8218 H 768.378 -3.01939 -1.18336 0
M  V30 8219 H 768.163 -3.90496 0.354276 0
M  V30 8220 H 769.653 -4.13125 -0.609693 0
M  V30 8221 N 770.09 -0.729906 -1.39679 0
M  V30 8222 C 771.32 -0.285295 -2.04621 0
M  V30 8223 C 771.728 1.08304 -1.55135 0
M  V30 8224 O 771.071 1.6946 -0.709146 0
M  V30 8225 C 771.133 -0.203129 -3.58926 0
M  V30 8226 C 770.797 -1.50909 -4.31365 0
M  V30 8227 C 771.794 -2.45381 -4.58349 0
M  V30 8228 C 769.479 -1.77198 -4.70007 0
M  V30 8229 C 771.473 -3.64379 -5.22979 0
M  V30 8230 C 769.16 -2.96474 -5.34365 0
M  V30 8231 C 770.158 -3.89886 -5.60783 0
M  V30 8232 O 769.846 -5.07069 -6.23808 0
M  V30 8233 H 769.578 -0.123373 -0.664647 0
M  V30 8234 H 772.132 -0.992901 -1.79807 0
M  V30 8235 H 770.362 0.560538 -3.82616 0
M  V30 8236 H 772.051 0.208811 -4.05363 0
M  V30 8237 H 772.817 -2.2634 -4.28947 0
M  V30 8238 H 768.696 -1.05337 -4.48804 0
M  V30 8239 H 772.24 -4.37307 -5.43515 0
M  V30 8240 H 768.137 -3.15419 -5.63188 0
M  V30 8241 H 768.905 -5.07335 -6.42303 0
M  V30 8242 N 771.568 1.50203 -0.477153 0
M  V30 8243 C 772.5 2.26508 0.350239 0
M  V30 8244 C 773.513 1.32081 0.95176 0
M  V30 8245 O 774.702 1.57546 0.839139 0
M  V30 8246 C 771.802 3.0361 1.50579 0
M  V30 8247 C 770.975 4.25438 1.01595 0
M  V30 8248 C 770.034 4.84783 2.04626 0
M  V30 8249 O 769.06 5.45528 1.62442 0
M  V30 8250 N 770.262 4.72318 3.37485 0
M  V30 8251 H 773.027 2.98155 -0.30394 0
M  V30 8252 H 770.588 1.58938 -0.308289 0
M  V30 8253 H 772.58 3.4019 2.1921 0
M  V30 8254 H 771.15 2.34724 2.06455 0
M  V30 8255 H 770.37 3.93894 0.155316 0
M  V30 8256 H 771.658 5.04413 0.666694 0
M  V30 8257 H 771.056 4.24022 3.74462 0
M  V30 8258 H 769.613 5.13149 4.01897 0
M  V30 8259 N 773.046 0.209999 1.56195 0
M  V30 8260 C 773.956 -0.716459 2.23392 0
M  V30 8261 C 774.972 -1.22291 1.23778 0
M  V30 8262 O 776.148 -1.26694 1.56558 0
M  V30 8263 C 773.213 -1.91261 2.89172 0
M  V30 8264 C 772.274 -1.44927 4.04097 0
M  V30 8265 C 771.507 -2.5884 4.66731 0
M  V30 8266 O 771.73 -3.76693 4.2832 0
M  V30 8267 O 770.664 -2.30701 5.55932 0
M  V30 8268 H 774.49 -0.174089 3.03201 0
M  V30 8269 H 772.075 -0.0199505 1.49387 0
M  V30 8270 H 773.957 -2.6114 3.30733 0
M  V30 8271 H 772.632 -2.4433 2.12331 0
M  V30 8272 H 771.539 -0.718839 3.67129 0
M  V30 8273 H 772.872 -0.965084 4.82646 0
M  V30 8274 N 774.524 -1.57472 -0.0634922 0
M  V30 8275 C 775.471 -2.04258 -1.07457 0
M  V30 8276 C 776.441 -0.924804 -1.37973 0
M  V30 8277 O 777.626 -1.19305 -1.48899 0
M  V30 8278 C 774.766 -2.49832 -2.38071 0
M  V30 8279 C 773.879 -3.75263 -2.14014 0
M  V30 8280 C 773.014 -4.09585 -3.38251 0
M  V30 8281 C 772.053 -5.28032 -3.09594 0
M  V30 8282 N 771.19 -5.57953 -4.26185 0
M  V30 8283 H 776.03 -2.90402 -0.668626 0
M  V30 8284 H 773.567 -1.43609 -0.318572 0
M  V30 8285 H 775.525 -2.7431 -3.14341 0
M  V30 8286 H 774.155 -1.66654 -2.76453 0
M  V30 8287 H 773.207 -3.58075 -1.28399 0
M  V30 8288 H 774.519 -4.61667 -1.88852 0
M  V30 8289 H 773.673 -4.35008 -4.2291 0
M  V30 8290 H 772.412 -3.21765 -3.66495 0
M  V30 8291 H 771.417 -5.02397 -2.23332 0
M  V30 8292 H 772.642 -6.17477 -2.82663 0
M  V30 8293 H 770.588 -4.73092 -4.54445 0
M  V30 8294 H 770.505 -6.38793 -4.04326 0
M  V30 8295 H 771.773 -5.87931 -5.11817 0
M  V30 8296 N 776.003 0.335068 -1.53997 0
M  V30 8297 C 777.231 1.09418 -1.756 0
M  V30 8298 C 777.646 1.82083 -0.499138 0
M  V30 8299 O 777.003 1.74646 0.529631 0
M  V30 8300 C 777.054 2.10115 -2.94166 0
M  V30 8301 O 776.775 1.40404 -4.14992 0
M  V30 8302 C 778.276 2.98336 -3.27888 0
M  V30 8303 H 775.496 0.32595 -0.586513 0
M  V30 8304 H 778.04 0.384693 -2.00849 0
M  V30 8305 H 776.195 2.76616 -2.71224 0
M  V30 8306 H 776.609 2.07743 -4.81605 0
M  V30 8307 H 778.083 3.6491 -4.1418 0
M  V30 8308 H 778.56 3.64814 -2.44556 0
M  V30 8309 H 779.166 2.37412 -3.52868 0
M  V30 8310 N 777.481 1.45874 0.596531 0
M  V30 8311 C 778.444 1.54988 1.68853 0
M  V30 8312 C 779.444 0.428302 1.54991 0
M  V30 8313 O 780.634 0.692158 1.59859 0
M  V30 8314 C 777.766 1.457 3.08195 0
M  V30 8315 H 778.959 2.52294 1.62135 0
M  V30 8316 H 776.512 1.33479 0.813206 0
M  V30 8317 H 777.247 0.496204 3.20481 0
M  V30 8318 H 777.032 2.27061 3.19665 0
M  V30 8319 H 778.522 1.55133 3.87716 0
M  V30 8320 N 778.959 -0.83999 1.33349 0
M  V30 8321 C 780.187 -1.62728 1.27778 0
M  V30 8322 C 780.602 -1.88191 -0.151505 0
M  V30 8323 O 779.959 -1.46128 -1.09329 0
M  V30 8324 C 780.01 -2.97813 2.04913 0
M  V30 8325 O 779.731 -2.73469 3.42266 0
M  V30 8326 C 781.232 -3.92245 2.0654 0
M  V30 8327 H 778.452 -0.506374 0.440257 0
M  V30 8328 H 780.996 -1.04637 1.75703 0
M  V30 8329 H 779.151 -3.52509 1.60674 0
M  V30 8330 H 779.565 -3.59483 3.81932 0
M  V30 8331 H 781.039 -4.84249 2.64966 0
M  V30 8332 H 781.516 -4.26332 1.05537 0
M  V30 8333 H 782.122 -3.43487 2.50793 0
M  V30 8334 N 780.437 -1.16799 -1.0581 0
M  V30 8335 C 781.683 -0.953935 -1.78963 0
M  V30 8336 C 782.016 0.516638 -1.87202 0
M  V30 8337 O 781.291 1.38338 -1.36721 0
M  V30 8338 C 781.574 -1.58808 -3.23191 0
M  V30 8339 C 781.427 -3.13032 -3.23003 0
M  V30 8340 C 782.746 -1.2868 -4.20867 0
M  V30 8341 H 779.865 -0.347972 -0.64968 0
M  V30 8342 H 782.507 -1.44204 -1.23715 0
M  V30 8343 H 780.657 -1.17303 -3.70368 0
M  V30 8344 H 782.329 -3.63553 -2.83949 0
M  V30 8345 H 780.572 -3.46108 -2.61518 0
M  V30 8346 H 781.243 -3.52527 -4.24769 0
M  V30 8347 H 783.719 -1.6461 -3.82155 0
M  V30 8348 H 782.595 -1.75645 -5.20038 0
M  V30 8349 H 782.856 -0.206491 -4.41618 0
M  V30 8350 N 781.915 1.24427 -0.967243 0
M  V30 8351 C 783.145 1.96256 -0.64554 0
M  V30 8352 C 783.553 1.71959 0.789098 0
M  V30 8353 O 782.896 0.999913 1.54102 0
M  V30 8354 C 782.958 3.49553 -0.839798 0
M  V30 8355 C 782.622 3.97548 -2.25399 0
M  V30 8356 C 783.619 4.07257 -3.23168 0
M  V30 8357 C 781.304 4.30884 -2.58156 0
M  V30 8358 C 783.298 4.49635 -4.51782 0
M  V30 8359 C 780.985 4.72946 -3.86996 0
M  V30 8360 C 781.983 4.82286 -4.83621 0
M  V30 8361 O 781.671 5.23409 -6.10162 0
M  V30 8362 H 781.403 0.632002 -0.239895 0
M  V30 8363 H 783.957 1.59224 -1.29757 0
M  V30 8364 H 782.187 3.86479 -0.130603 0
M  V30 8365 H 783.876 4.02591 -0.517249 0
M  V30 8366 H 784.642 3.8172 -2.9919 0
M  V30 8367 H 780.521 4.22833 -1.83666 0
M  V30 8368 H 784.065 4.5684 -5.27203 0
M  V30 8369 H 779.962 4.9793 -4.10775 0
M  V30 8370 H 780.73 5.4156 -6.13722 0
M  V30 8371 N 783.393 0.737304 1.3929 0
M  V30 8372 C 784.804 0.355966 1.83275 0
M  V30 8373 C 785.155 -1.11295 1.6158 0
M  V30 8374 O 784.28 -1.85871 1.10819 0
M  V30 8375 C 784.875 0.63931 3.32713 0
M  V30 8376 C 783.434 0.31144 3.75109 0
M  V30 8377 C 782.581 0.900765 2.62262 0
M  V30 8378 H 785.532 0.934763 1.28249 0
M  V30 8379 H 785.553 -0.0881293 3.80398 0
M  V30 8380 H 785.065 1.70847 3.48472 0
M  V30 8381 H 783.166 -0.751791 3.64937 0
M  V30 8382 H 783.279 0.795611 4.72448 0
M  V30 8383 H 781.643 0.327239 2.52589 0
M  V30 8384 H 782.426 1.97463 2.80826 0
M  V30 8385 N 784.871 -1.49948 0.485112 0
M  V30 8386 C 785.781 -2.32587 -0.306697 0
M  V30 8387 C 786.797 -1.43598 -0.982632 0
M  V30 8388 O 787.973 -1.76638 -0.967519 0
M  V30 8389 C 785.038 -3.18638 -1.3664 0
M  V30 8390 C 784.099 -4.23462 -0.705589 0
M  V30 8391 C 783.332 -5.05401 -1.7148 0
M  V30 8392 O 783.555 -4.88618 -2.94293 0
M  V30 8393 O 782.489 -5.88157 -1.27889 0
M  V30 8394 H 786.315 -3.01447 0.369272 0
M  V30 8395 H 783.9 -1.47349 0.246709 0
M  V30 8396 H 785.782 -3.71992 -1.9799 0
M  V30 8397 H 784.457 -2.52491 -2.02559 0
M  V30 8398 H 783.364 -3.74063 -0.0527733 0
M  V30 8399 H 784.697 -4.92119 -0.0891187 0
M  V30 8400 N 786.349 -0.21828 -1.56081 0
M  V30 8401 C 787.76 0.290166 -1.84431 0
M  V30 8402 C 788.111 1.59712 -1.13958 0
M  V30 8403 O 787.236 2.12516 -0.40815 0
M  V30 8404 C 787.831 0.53325 -3.34577 0
M  V30 8405 C 786.39 0.986011 -3.63256 0
M  V30 8406 C 785.537 0.0472798 -2.7726 0
M  V30 8407 H 788.488 -0.441548 -1.52434 0
M  V30 8408 H 788.509 1.37967 -3.54606 0
M  V30 8409 H 788.021 -0.418137 -3.85841 0
M  V30 8410 H 786.122 1.95087 -3.17446 0
M  V30 8411 H 786.235 0.862684 -4.71269 0
M  V30 8412 H 784.599 0.553471 -2.48614 0
M  V30 8413 H 785.382 -0.898966 -3.31321 0
M  V30 8414 N 787.827 1.57504 0.0551401 0
M  V30 8415 C 788.759 2.0158 1.09078 0
M  V30 8416 C 789.772 0.92434 1.34014 0
M  V30 8417 O 790.961 1.20202 1.31961 0
M  V30 8418 C 788.061 2.35385 2.43818 0
M  V30 8419 C 787.234 3.66588 2.38605 0
M  V30 8420 C 786.293 3.87874 3.55585 0
M  V30 8421 O 785.319 4.59259 3.36258 0
M  V30 8422 N 786.521 3.31503 4.76536 0
M  V30 8423 H 789.286 2.91039 0.71529 0
M  V30 8424 H 786.847 1.60058 0.243532 0
M  V30 8425 H 788.839 2.46784 3.20749 0
M  V30 8426 H 787.409 1.51731 2.73307 0
M  V30 8427 H 786.629 3.65787 1.46947 0
M  V30 8428 H 787.917 4.52706 2.32239 0
M  V30 8429 H 787.315 2.73592 4.9514 0
M  V30 8430 H 785.872 3.48324 5.50921 0
M  V30 8431 N 789.305 -0.326896 1.54172 0
M  V30 8432 C 790.253 -1.42232 1.84046 0
M  V30 8433 C 791.247 -1.53705 0.712115 0
M  V30 8434 O 792.453 -1.56131 0.895724 0
M  V30 8435 H 788.828 -0.474568 0.583343 0
M  V30 8436 H 790.799 -1.14259 2.75658 0
M  V30 8437 C 789.548 -2.78502 2.08163 0
M  V30 8438 H 788.871 -2.70447 2.94446 0
M  V30 8439 H 790.311 -3.54228 2.33021 0
M  V30 8440 C 788.77 -3.25415 0.872152 0
M  V30 8441 O 789.3 -4.01621 0.0797648 0
M  V30 8442 N 787.506 -2.82418 0.684716 0
M  V30 8443 H 787.053 -2.20566 1.33072 0
M  V30 8444 H 787.011 -3.14159 -0.123031 0
M  V30 8445 N 790.784 -1.46188 -0.588786 0
M  V30 8446 C 791.731 -1.56292 -1.69828 0
M  V30 8447 C 792.701 -0.407581 -1.61022 0
M  V30 8448 O 793.886 -0.623532 -1.80324 0
M  V30 8449 C 791.026 -1.55341 -3.08161 0
M  V30 8450 C 790.139 -2.81564 -3.27636 0
M  V30 8451 C 789.274 -2.72158 -4.56183 0
M  V30 8452 C 788.313 -3.93348 -4.68981 0
M  V30 8453 N 787.45 -3.82365 -5.88848 0
M  V30 8454 H 792.29 -2.51066 -1.6053 0
M  V30 8455 H 789.827 -1.24562 -0.782474 0
M  V30 8456 H 791.785 -1.52776 -3.88221 0
M  V30 8457 H 790.415 -0.641034 -3.16371 0
M  V30 8458 H 789.467 -2.94136 -2.41223 0
M  V30 8459 H 790.779 -3.714 -3.32962 0
M  V30 8460 H 789.933 -2.67665 -5.44464 0
M  V30 8461 H 788.672 -1.79953 -4.53286 0
M  V30 8462 H 787.677 -3.98181 -3.7912 0
M  V30 8463 H 788.902 -4.86643 -4.73662 0
M  V30 8464 H 786.848 -2.92942 -5.86959 0
M  V30 8465 H 786.765 -4.65851 -5.95415 0
M  V30 8466 H 788.033 -3.81836 -6.79575 0
M  V30 8467 N 792.262 0.832906 -1.33792 0
M  V30 8468 C 793.172 1.97514 -1.26592 0
M  V30 8469 C 794.188 1.73114 -0.175391 0
M  V30 8470 O 795.364 1.97387 -0.400062 0
M  V30 8471 C 792.429 3.31625 -1.01121 0
M  V30 8472 C 791.49 3.69101 -2.19233 0
M  V30 8473 C 790.723 4.96813 -1.94968 0
M  V30 8474 O 790.946 5.63208 -0.902955 0
M  V30 8475 O 789.88 5.31932 -2.8166 0
M  V30 8476 H 793.706 2.0653 -2.22664 0
M  V30 8477 H 791.291 0.966826 -1.13898 0
M  V30 8478 H 793.173 4.11968 -0.886571 0
M  V30 8479 H 791.848 3.23599 -0.080822 0
M  V30 8480 H 790.755 2.89243 -2.37253 0
M  V30 8481 H 792.088 3.818 -3.10628 0
M  V30 8482 N 793.74 1.17359 1.05189 0
M  V30 8483 C 794.703 0.892604 2.11105 0
M  V30 8484 C 795.703 -0.117236 1.60372 0
M  V30 8485 O 796.893 0.114936 1.7382 0
M  V30 8486 C 794.025 0.337032 3.3923 0
M  V30 8487 H 795.218 1.83169 2.37464 0
M  V30 8488 H 792.771 0.984051 1.21434 0
M  V30 8489 H 793.506 -0.609198 3.18527 0
M  V30 8490 H 793.291 1.06484 3.77364 0
M  V30 8491 H 794.781 0.158763 4.17298 0
M  V30 8492 N 795.218 -1.23913 0.973828 0
M  V30 8493 C 796.465 -1.92151 0.639079 0
M  V30 8494 C 796.793 -1.76064 -0.826545 0
M  V30 8495 O 796.048 -1.11126 -1.61088 0
M  V30 8496 C 796.347 -3.4406 0.967356 0
M  V30 8497 C 796.013 -3.80321 2.42212 0
M  V30 8498 C 794.675 -3.8993 2.81971 0
M  V30 8499 C 797.027 -3.97935 3.36596 0
M  V30 8500 C 794.355 -4.14575 4.15144 0
M  V30 8501 C 796.707 -4.24079 4.69404 0
M  V30 8502 C 795.371 -4.31908 5.08932 0
M  V30 8503 H 794.641 -0.70313 0.233856 0
M  V30 8504 H 797.288 -1.47072 1.22646 0
M  V30 8505 H 795.593 -3.90667 0.297807 0
M  V30 8506 H 797.29 -3.95077 0.686654 0
M  V30 8507 H 793.88 -3.73411 2.10385 0
M  V30 8508 H 798.064 -3.89908 3.07059 0
M  V30 8509 H 793.32 -4.18858 4.45385 0
M  V30 8510 H 797.494 -4.36652 5.42502 0
M  V30 8511 H 795.121 -4.50758 6.12145 0
M  V30 8512 N 796.696 -0.74468 -1.38897 0
M  V30 8513 C 797.942 -0.297324 -2.00609 0
M  V30 8514 C 798.275 1.11547 -1.58968 0
M  V30 8515 O 797.55 1.76227 -0.823057 0
M  V30 8516 C 797.833 -0.410125 -3.57757 0
M  V30 8517 C 797.686 -1.86338 -4.09387 0
M  V30 8518 C 799.005 0.20176 -4.39637 0
M  V30 8519 H 796.124 -0.109509 -0.728819 0
M  V30 8520 H 798.766 -0.942653 -1.64967 0
M  V30 8521 H 796.916 0.139287 -3.8825 0
M  V30 8522 H 798.588 -2.47042 -3.89574 0
M  V30 8523 H 796.831 -2.38146 -3.62586 0
M  V30 8524 H 797.502 -1.89352 -5.18507 0
M  V30 8525 H 799.978 -0.266703 -4.15244 0
M  V30 8526 H 798.854 0.0925415 -5.48822 0
M  V30 8527 H 799.115 1.289 -4.22891 0
M  V30 8528 N 798.174 1.49689 -0.493057 0
M  V30 8529 C 799.59 1.58907 -0.148526 0
M  V30 8530 C 799.79 1.4991 1.34645 0
M  V30 8531 O 798.846 1.36893 2.12171 0
M  V30 8532 C 800.159 2.91996 -0.718265 0
M  V30 8533 C 801.707 3.05443 -0.683658 0
M  V30 8534 C 802.182 4.41138 -1.23132 0
M  V30 8535 N 803.673 4.47608 -1.19167 0
M  V30 8536 C 804.408 5.51038 -1.5857 0
M  V30 8537 N 803.904 6.61612 -2.05528 0
M  V30 8538 N 805.697 5.41706 -1.50036 0
M  V30 8539 H 797.848 1.5378 -1.46511 0
M  V30 8540 H 800.111 0.727996 -0.607228 0
M  V30 8541 H 799.817 3.04123 -1.7664 0
M  V30 8542 H 799.691 3.76798 -0.17419 0
M  V30 8543 H 802.078 2.92949 0.355626 0
M  V30 8544 H 802.159 2.22344 -1.26479 0
M  V30 8545 H 801.803 4.54382 -2.26935 0
M  V30 8546 H 801.733 5.22864 -0.626201 0
M  V30 8547 H 804.224 3.68274 -0.847524 0
M  V30 8548 H 804.537 7.36622 -2.33685 0
M  V30 8549 H 802.882 6.62674 -2.09497 0
M  V30 8550 H 806.073 4.54212 -1.13176 0
M  V30 8551 H 806.246 6.22188 -1.81068 0
M  V30 8552 N 799.652 0.226554 1.55963 0
M  V30 8553 C 800.877 -0.411527 2.03276 0
M  V30 8554 C 801.302 -1.52206 1.10521 0
M  V30 8555 O 800.66 -1.81054 0.0943217 0
M  V30 8556 C 800.708 -0.915694 3.4878 0
M  V30 8557 O 799.812 -2.02672 3.59163 0
M  V30 8558 H 799.153 -0.0924907 0.657527 0
M  V30 8559 H 801.683 0.346656 2.01642 0
M  V30 8560 H 801.693 -1.22421 3.892 0
M  V30 8561 H 800.368 -0.102915 4.15773 0
M  V30 8562 H 798.945 -1.72445 3.30632 0
M  V30 8563 N 801.13 -1.57531 -0.0467866 0
M  V30 8564 C 802.062 -2.02156 -1.08007 0
M  V30 8565 C 803.075 -0.931434 -1.33522 0
M  V30 8566 O 804.264 -1.209 -1.31321 0
M  V30 8567 C 801.364 -2.36675 -2.42566 0
M  V30 8568 C 800.537 -3.67848 -2.36658 0
M  V30 8569 C 799.596 -3.89754 -3.53523 0
M  V30 8570 O 798.622 -4.61036 -3.33818 0
M  V30 8571 N 799.824 -3.34025 -4.74771 0
M  V30 8572 H 802.589 -2.91414 -0.699845 0
M  V30 8573 H 800.15 -1.60185 -0.235041 0
M  V30 8574 H 802.142 -2.48482 -3.19435 0
M  V30 8575 H 800.712 -1.53178 -2.72498 0
M  V30 8576 H 799.932 -3.66561 -1.45005 0
M  V30 8577 H 801.22 -4.53931 -2.29835 0
M  V30 8578 H 800.618 -2.76214 -4.93683 0
M  V30 8579 H 799.175 -3.51241 -5.49066 0
M  V30 8580 N 802.608 0.318715 -1.54344 0
M  V30 8581 C 803.541 1.41644 -1.7892 0
M  V30 8582 C 804.519 1.495 -0.639421 0
M  V30 8583 O 805.703 1.66835 -0.877404 0
M  V30 8584 C 802.83 2.79701 -1.9101 0
M  V30 8585 C 801.876 2.89354 -3.13331 0
M  V30 8586 S 802.709 2.53264 -4.71824 0
M  V30 8587 C 803.865 3.93384 -4.86826 0
M  V30 8588 H 804.098 1.20585 -2.71747 0
M  V30 8589 H 801.631 0.515828 -1.45529 0
M  V30 8590 H 803.589 3.59227 -1.98661 0
M  V30 8591 H 802.25 2.9804 -0.991516 0
M  V30 8592 H 801.443 3.90574 -3.1854 0
M  V30 8593 H 801.045 2.17805 -3.04035 0
M  V30 8594 H 803.337 4.88191 -4.69761 0
M  V30 8595 H 804.28 3.93156 -5.88926 0
M  V30 8596 H 804.688 3.82564 -4.15097 0
M  V30 8597 N 804.086 1.46499 0.581025 0
M  V30 8598 C 805.316 1.55244 1.36319 0
M  V30 8599 C 805.724 0.193059 1.88212 0
M  V30 8600 O 805.067 -0.820109 1.64377 0
M  V30 8601 C 805.129 2.498 2.58535 0
M  V30 8602 C 804.793 3.96007 2.28096 0
M  V30 8603 C 805.79 4.85171 1.8683 0
M  V30 8604 C 803.475 4.41152 2.40189 0
M  V30 8605 C 805.469 6.17493 1.58053 0
M  V30 8606 C 803.156 5.73508 2.11024 0
M  V30 8607 C 804.154 6.615 1.70021 0
M  V30 8608 O 803.842 7.914 1.41215 0
M  V30 8609 H 803.574 0.527513 0.422736 0
M  V30 8610 H 806.128 1.92623 0.713139 0
M  V30 8611 H 804.358 2.07443 3.2635 0
M  V30 8612 H 806.047 2.48934 3.20604 0
M  V30 8613 H 806.813 4.51548 1.77001 0
M  V30 8614 H 802.692 3.72886 2.71066 0
M  V30 8615 H 806.236 6.86131 1.25974 0
M  V30 8616 H 802.133 6.06679 2.20478 0
M  V30 8617 H 802.901 8.03681 1.55046 0
M  V30 8618 N 805.565 -0.825799 1.34232 0
M  V30 8619 C 806.79 -1.61883 1.29648 0
M  V30 8620 C 807.215 -1.87669 -0.127295 0
M  V30 8621 O 806.573 -1.45016 -1.08813 0
M  V30 8622 C 806.621 -2.93846 2.09014 0
M  V30 8623 O 805.725 -3.85778 1.4577 0
M  V30 8624 H 805.066 -0.492454 0.445405 0
M  V30 8625 H 807.596 -1.02641 1.76992 0
M  V30 8626 H 807.606 -3.43435 2.20264 0
M  V30 8627 H 806.281 -2.74401 3.12533 0
M  V30 8628 H 804.858 -3.4429 1.43245 0
M  V30 8629 N 807.043 -1.17915 -1.04565 0
M  V30 8630 C 808.271 -0.99616 -1.8134 0
M  V30 8631 C 808.686 0.455509 -1.83223 0
M  V30 8632 O 808.043 1.31636 -1.26405 0
M  V30 8633 C 808.094 -1.53758 -3.27171 0
M  V30 8634 O 807.815 -2.93241 -3.25486 0
M  V30 8635 C 809.316 -1.40007 -4.2061 0
M  V30 8636 H 806.536 -0.352055 -0.571225 0
M  V30 8637 H 809.08 -1.56349 -1.31815 0
M  V30 8638 H 807.235 -1.01213 -3.73945 0
M  V30 8639 H 807.649 -3.18392 -4.16805 0
M  V30 8640 H 809.123 -1.82695 -5.2089 0
M  V30 8641 H 809.6 -0.348054 -4.37819 0
M  V30 8642 H 810.206 -1.916 -3.79697 0
M  V30 8643 N 808.521 1.23394 -0.980386 0
M  V30 8644 C 809.798 1.87242 -0.565667 0
M  V30 8645 C 810.178 1.88151 0.957197 0
M  V30 8646 O 809.526 1.36309 1.8339 0
M  V30 8647 C 809.736 3.28743 -1.17172 0
M  V30 8648 C 811.084 4.05335 -1.26446 0
M  V30 8649 O 812.108 3.37962 -1.12517 0
M  V30 8650 O 810.967 5.25908 -1.48604 0
M  V30 8651 H 808.061 0.80477 -0.190459 0
M  V30 8652 H 810.607 1.3127 -1.07547 0
M  V30 8653 H 809.379 3.22647 -2.21392 0
M  V30 8654 H 809.002 3.92305 -0.646739 0
M  V30 8655 N 809.999 0.752036 1.385 0
M  V30 8656 C 811.229 0.317812 2.04141 0
M  V30 8657 C 811.637 -1.05822 1.56839 0
M  V30 8658 O 810.98 -1.68311 0.736016 0
M  V30 8659 C 811.042 0.260205 3.58557 0
M  V30 8660 C 810.706 1.57753 4.28909 0
M  V30 8661 C 811.703 2.52642 4.54387 0
M  V30 8662 C 809.388 1.84653 4.67128 0
M  V30 8663 C 811.382 3.72653 5.17116 0
M  V30 8664 C 809.069 3.04938 5.29581 0
M  V30 8665 C 810.067 3.98759 5.54509 0
M  V30 8666 O 809.755 5.16929 6.15662 0
M  V30 8667 H 809.487 0.133931 0.6626 0
M  V30 8668 H 812.041 1.02138 1.78205 0
M  V30 8669 H 810.271 -0.499596 3.83459 0
M  V30 8670 H 811.96 -0.144295 4.05643 0
M  V30 8671 H 812.726 2.33135 4.25292 0
M  V30 8672 H 808.605 1.12464 4.47071 0
M  V30 8673 H 812.149 4.45898 5.36489 0
M  V30 8674 H 808.046 3.24339 5.58099 0
M  V30 8675 H 808.814 5.1749 6.3415 0
M  V30 8676 N 811.477 -1.49425 0.500989 0
M  V30 8677 C 812.754 -1.9531 -0.106551 0
M  V30 8678 C 813.134 -1.44248 -1.54129 0
M  V30 8679 O 812.482 -0.656237 -2.18874 0
M  V30 8680 C 812.692 -3.48995 -0.0191972 0
M  V30 8681 C 814.04 -4.24161 -0.193129 0
M  V30 8682 O 815.064 -3.56075 -0.0943843 0
M  V30 8683 O 813.923 -5.45064 -0.395869 0
M  V30 8684 H 811.017 -0.82149 -0.0953068 0
M  V30 8685 H 813.563 -1.6007 0.563526 0
M  V30 8686 H 812.335 -3.78794 0.981353 0
M  V30 8687 H 811.958 -3.90852 -0.72942 0
M  V30 8688 N 812.955 -0.234822 -1.55841 0
M  V30 8689 C 813.887 0.702346 -2.18174 0
M  V30 8690 C 814.9 1.14776 -1.15457 0
M  V30 8691 O 816.089 1.07662 -1.42377 0
M  V30 8692 C 813.189 1.96483 -2.76129 0
M  V30 8693 C 812.362 1.67283 -4.04148 0
M  V30 8694 C 811.421 2.7837 -4.46539 0
M  V30 8695 O 810.447 2.46272 -5.13166 0
M  V30 8696 N 811.649 4.07611 -4.1332 0
M  V30 8697 H 814.414 0.169074 -2.99223 0
M  V30 8698 H 811.975 -0.0543164 -1.61809 0
M  V30 8699 H 813.967 2.70016 -3.01452 0
M  V30 8700 H 812.537 2.40822 -1.99307 0
M  V30 8701 H 811.757 0.773278 -3.86541 0
M  V30 8702 H 813.045 1.45222 -4.87635 0
M  V30 8703 H 812.443 4.36527 -3.59806 0
M  V30 8704 H 811 4.77646 -4.43506 0
M  V30 8705 N 814.433 1.57553 0.0384317 0
M  V30 8706 C 815.682 1.88022 0.730108 0
M  V30 8707 C 815.995 0.83209 1.77019 0
M  V30 8708 O 817.201 1.0257 2.51379 0
M  V30 8709 C 815.657 3.33637 1.3496 0
M  V30 8710 C 815.265 4.46659 0.346352 0
M  V30 8711 C 817.009 3.73266 2.02169 0
M  V30 8712 C 814.916 5.8333 0.973652 0
M  V30 8713 H 813.846 0.701496 0.276442 0
M  V30 8714 H 816.497 1.83493 -0.0158028 0
M  V30 8715 H 814.879 3.32882 2.1449 0
M  V30 8716 H 816.053 4.58868 -0.421558 0
M  V30 8717 H 814.368 4.15802 -0.223133 0
M  V30 8718 H 816.965 4.72689 2.49938 0
M  V30 8719 H 817.308 3.04776 2.8358 0
M  V30 8720 H 817.841 3.76156 1.29427 0
M  V30 8721 H 814.58 6.55197 0.199163 0
M  V30 8722 H 814.1 5.7486 1.71162 0
M  V30 8723 H 815.779 6.29757 1.48376 0
M  V30 8724 N 815.911 -0.310526 1.54511 0
M  V30 8725 C 816.841 -1.38757 1.878 0
M  V30 8726 C 817.822 -1.53353 0.735991 0
M  V30 8727 O 819.007 -1.67018 0.990887 0
M  V30 8728 C 816.137 -2.75327 2.11689 0
M  V30 8729 C 815.091 -2.75506 3.27537 0
M  V30 8730 C 814.417 -4.15275 3.36824 0
M  V30 8731 C 815.717 -2.38093 4.64875 0
M  V30 8732 H 817.411 -1.11146 2.78005 0
M  V30 8733 H 814.957 -0.533232 1.33763 0
M  V30 8734 H 816.91 -3.50752 2.33562 0
M  V30 8735 H 815.634 -3.04443 1.18245 0
M  V30 8736 H 814.293 -2.02538 3.05572 0
M  V30 8737 H 813.941 -4.41553 2.40915 0
M  V30 8738 H 813.641 -4.16299 4.14692 0
M  V30 8739 H 815.165 -4.92493 3.60947 0
M  V30 8740 H 816.579 -3.03232 4.86542 0
M  V30 8741 H 814.976 -2.50345 5.45387 0
M  V30 8742 H 816.046 -1.33227 4.66239 0
M  V30 8743 N 817.389 -1.46805 -0.573248 0
M  V30 8744 C 818.8 -1.46655 -1.15539 0
M  V30 8745 C 819.151 -0.2125 -1.95046 0
M  V30 8746 O 818.276 0.683759 -2.05314 0
M  V30 8747 C 818.871 -2.65711 -2.10198 0
M  V30 8748 C 817.43 -2.68572 -2.63716 0
M  V30 8749 C 816.577 -2.39498 -1.39772 0
M  V30 8750 H 819.528 -1.54547 -0.36068 0
M  V30 8751 H 819.549 -2.41768 -2.93817 0
M  V30 8752 H 819.061 -3.56967 -1.52303 0
M  V30 8753 H 817.162 -1.81414 -3.25453 0
M  V30 8754 H 817.275 -3.68809 -3.05805 0
M  V30 8755 H 815.639 -1.89749 -1.69904 0
M  V30 8756 H 816.422 -3.32942 -0.836943 0
M  V30 8757 N 818.867 0.818669 -1.34668 0
M  V30 8758 C 820.144 1.56118 -1.17841 0
M  V30 8759 C 820.524 2.09646 0.24731 0
M  V30 8760 O 819.872 1.91329 1.24922 0
M  V30 8761 C 820.082 2.67922 -2.23649 0
M  V30 8762 C 821.43 3.36579 -2.58843 0
M  V30 8763 O 822.454 2.78182 -2.22471 0
M  V30 8764 O 821.313 4.42045 -3.21339 0
M  V30 8765 H 818.407 0.689216 -0.457067 0
M  V30 8766 H 820.953 0.859674 -1.46314 0
M  V30 8767 H 819.725 2.26153 -3.19328 0
M  V30 8768 H 819.348 3.45719 -1.96377 0
M  V30 8769 N 820.346 1.18468 1.03938 0
M  V30 8770 C 821.586 0.991823 1.78724 0
M  V30 8771 C 821.95 -0.470115 1.86156 0
M  V30 8772 O 823.151 -0.782451 2.5716 0
M  V30 8773 C 821.422 1.63018 3.18056 0
M  V30 8774 S 822.981 1.58527 4.09163 0
M  V30 8775 H 819.799 0.356137 0.615376 0
M  V30 8776 H 822.401 1.50634 1.24618 0
M  V30 8777 H 821.105 2.68642 3.10258 0
M  V30 8778 H 820.636 1.11601 3.77238 0
M  V30 8779 H 822.651 0.602059 4.92534 0
M  V30 8780 N 821.824 -1.22873 0.986916 0
M  V30 8781 C 823.054 -1.95204 0.67668 0
M  V30 8782 C 823.462 -1.73193 -0.761641 0
M  V30 8783 O 822.805 -1.0243 -1.52492 0
M  V30 8784 C 822.867 -3.48173 0.895302 0
M  V30 8785 C 822.531 -3.93912 2.31695 0
M  V30 8786 C 823.528 -4.02064 3.29607 0
M  V30 8787 C 821.213 -4.26722 2.64978 0
M  V30 8788 C 823.207 -4.42391 4.58878 0
M  V30 8789 C 820.894 -4.66729 3.94471 0
M  V30 8790 C 821.892 -4.74531 4.91232 0
M  V30 8791 O 821.58 -5.13636 6.18412 0
M  V30 8792 H 821.312 -0.628105 0.24992 0
M  V30 8793 H 823.866 -1.5714 1.32274 0
M  V30 8794 H 822.096 -3.86223 0.192072 0
M  V30 8795 H 823.785 -4.01717 0.581233 0
M  V30 8796 H 824.551 -3.76912 3.05225 0
M  V30 8797 H 820.43 -4.19858 1.9037 0
M  V30 8798 H 823.974 -4.48395 5.34404 0
M  V30 8799 H 819.871 -4.91332 4.18645 0
M  V30 8800 H 820.639 -5.31728 6.2226 0
M  V30 8801 N 823.302 -0.75937 -1.38099 0
M  V30 8802 C 824.527 -0.327859 -2.04792 0
M  V30 8803 C 824.952 1.03752 -1.56899 0
M  V30 8804 O 824.31 1.66235 -0.723581 0
M  V30 8805 C 824.358 -0.366264 -3.58735 0
M  V30 8806 O 823.462 0.637697 -4.0744 0
M  V30 8807 H 822.803 -0.144092 -0.648177 0
M  V30 8808 H 825.333 -1.03211 -1.7666 0
M  V30 8809 H 825.343 -0.219179 -4.07411 0
M  V30 8810 H 824.018 -1.36243 -3.92951 0
M  V30 8811 H 822.595 0.454749 -3.70117 0
M  V30 8812 N 824.78 1.49157 -0.508906 0
M  V30 8813 C 826.026 2.03385 0.0248089 0
M  V30 8814 C 826.381 1.381 1.33964 0
M  V30 8815 O 825.674 0.510317 1.84679 0
M  V30 8816 C 825.868 3.56687 0.225717 0
M  V30 8817 C 825.697 4.36832 -1.06809 0
M  V30 8818 C 824.467 4.78556 -1.6221 0
M  V30 8819 C 826.665 4.74934 -1.97338 0
M  V30 8820 N 824.647 5.43158 -2.86098 0
M  V30 8821 C 826.018 5.39336 -3.05805 0
M  V30 8822 C 828.073 4.56872 -1.97921 0
M  V30 8823 C 826.776 5.87587 -4.1489 0
M  V30 8824 C 828.802 5.06089 -3.05987 0
M  V30 8825 C 828.164 5.70499 -4.13172 0
M  V30 8826 H 824.263 0.781349 -0.0318988 0
M  V30 8827 H 826.847 1.82233 -0.685518 0
M  V30 8828 H 825.018 3.77707 0.905108 0
M  V30 8829 H 826.75 3.97554 0.757147 0
M  V30 8830 H 823.505 4.59017 -1.16621 0
M  V30 8831 H 823.929 5.8004 -3.49116 0
M  V30 8832 H 828.571 4.06474 -1.16357 0
M  V30 8833 H 826.289 6.37002 -4.97247 0
M  V30 8834 H 829.875 4.93919 -3.07466 0
M  V30 8835 H 828.755 6.07893 -4.95415 0
M  V30 8836 N 826.258 0.243083 1.55714 0
M  V30 8837 C 827.669 -0.260788 1.8487 0
M  V30 8838 C 828.02 -1.57879 1.16485 0
M  V30 8839 O 827.145 -2.1184 0.441908 0
M  V30 8840 C 827.74 -0.479954 3.35383 0
M  V30 8841 C 826.299 -0.928096 3.64778 0
M  V30 8842 C 825.446 -0.00316416 2.773 0
M  V30 8843 H 828.397 0.465743 1.51712 0
M  V30 8844 H 828.418 -1.32308 3.56756 0
M  V30 8845 H 827.93 0.479468 3.85127 0
M  V30 8846 H 826.031 -1.90012 3.20509 0
M  V30 8847 H 826.144 -0.7876 4.72582 0
M  V30 8848 H 824.508 -0.513849 2.49463 0
M  V30 8849 H 825.291 0.951562 3.29849 0
M  V30 8850 N 827.736 -1.57571 -0.0300757 0
M  V30 8851 C 828.646 -2.09892 -1.04798 0
M  V30 8852 C 829.662 -1.03732 -1.39698 0
M  V30 8853 O 830.838 -1.35461 -1.49038 0
M  V30 8854 C 827.903 -2.56707 -2.33028 0
M  V30 8855 C 826.964 -3.77345 -2.04718 0
M  V30 8856 C 826.197 -4.21918 -3.26834 0
M  V30 8857 O 826.42 -3.66025 -4.37472 0
M  V30 8858 O 825.354 -5.14362 -3.12594 0
M  V30 8859 H 829.18 -2.97023 -0.633344 0
M  V30 8860 H 826.765 -1.47344 -0.246991 0
M  V30 8861 H 828.647 -2.87154 -3.08417 0
M  V30 8862 H 827.322 -1.72688 -2.73789 0
M  V30 8863 H 826.229 -3.51919 -1.26901 0
M  V30 8864 H 827.562 -4.62345 -1.68813 0
M  V30 8865 N 829.214 0.302327 -1.54673 0
M  V30 8866 C 830.124 1.39542 -1.88587 0
M  V30 8867 C 831.14 1.55543 -0.779895 0
M  V30 8868 O 832.316 1.70233 -1.07623 0
M  V30 8869 C 829.381 2.7394 -2.12504 0
M  V30 8870 C 828.442 2.66935 -3.3622 0
M  V30 8871 C 827.675 3.94923 -3.58987 0
M  V30 8872 O 827.898 4.94218 -2.84789 0
M  V30 8873 O 826.832 3.96896 -4.52501 0
M  V30 8874 H 830.658 1.13784 -2.81579 0
M  V30 8875 H 828.243 0.49827 -1.40846 0
M  V30 8876 H 830.125 3.5346 -2.29443 0
M  V30 8877 H 828.8 2.99544 -1.22698 0
M  V30 8878 H 827.707 1.85892 -3.24646 0
M  V30 8879 H 829.04 2.46283 -4.26152 0
M  V30 8880 N 830.692 1.47107 0.565454 0
M  V30 8881 C 831.938 1.53535 1.32495 0
M  V30 8882 C 832.271 0.193537 1.93233 0
M  V30 8883 O 831.546 -0.796956 1.77423 0
M  V30 8884 C 831.829 2.64712 2.4413 0
M  V30 8885 C 831.682 4.08482 1.88314 0
M  V30 8886 C 833.001 2.71853 3.46098 0
M  V30 8887 H 830.12 0.558926 0.480386 0
M  V30 8888 H 832.762 1.79125 0.633575 0
M  V30 8889 H 830.912 2.43023 3.03104 0
M  V30 8890 H 832.584 4.4151 1.33665 0
M  V30 8891 H 830.827 4.17148 1.19037 0
M  V30 8892 H 831.498 4.82032 2.68978 0
M  V30 8893 H 833.974 2.91397 2.97031 0
M  V30 8894 H 832.85 3.51433 4.21646 0
M  V30 8895 H 833.111 1.78584 4.04426 0
M  V30 8896 N 832.17 -0.811516 1.35101 0
M  V30 8897 C 833.102 -1.93102 1.23468 0
M  V30 8898 C 834.115 -1.62021 0.159095 0
M  V30 8899 O 835.304 -1.73682 0.411945 0
M  V30 8900 C 832.404 -3.27345 0.877404 0
M  V30 8901 C 831.577 -3.86368 2.05033 0
M  V30 8902 C 830.636 -4.99009 1.66963 0
M  V30 8903 O 829.662 -5.16698 2.38772 0
M  V30 8904 N 830.864 -5.7749 0.590394 0
M  V30 8905 H 833.629 -2.0361 2.19916 0
M  V30 8906 H 831.19 -0.988687 1.28205 0
M  V30 8907 H 833.182 -4.00163 0.604298 0
M  V30 8908 H 831.752 -3.126 0.00275267 0
M  V30 8909 H 830.972 -3.05804 2.48752 0
M  V30 8910 H 832.26 -4.22533 2.83449 0
M  V30 8911 H 831.658 -5.657 -0.00633259 0
M  V30 8912 H 830.215 -6.50708 0.377055 0
M  V30 8913 N 833.648 -1.19017 -1.03309 0
M  V30 8914 C 834.595 -0.924088 -2.11493 0
M  V30 8915 C 835.565 0.139464 -1.65513 0
M  V30 8916 O 836.75 -0.00178761 -1.908 0
M  V30 8917 C 833.89 -0.464255 -3.41963 0
M  V30 8918 C 833.003 -1.5941 -4.01513 0
M  V30 8919 C 832.138 -1.08622 -5.19976 0
M  V30 8920 C 831.177 -2.19024 -5.71572 0
M  V30 8921 N 830.314 -1.69575 -6.81314 0
M  V30 8922 H 835.154 -1.85039 -2.33591 0
M  V30 8923 H 832.691 -0.922593 -1.14572 0
M  V30 8924 H 834.649 -0.179078 -4.16815 0
M  V30 8925 H 833.279 0.425062 -3.19989 0
M  V30 8926 H 832.331 -1.99458 -3.23915 0
M  V30 8927 H 833.643 -2.42604 -4.35826 0
M  V30 8928 H 832.797 -0.756022 -6.01971 0
M  V30 8929 H 831.536 -0.223955 -4.87186 0
M  V30 8930 H 830.541 -2.5288 -4.88193 0
M  V30 8931 H 831.766 -3.05699 -6.06403 0
M  V30 8932 H 829.712 -0.856494 -6.50385 0
M  V30 8933 H 829.629 -2.46361 -7.14732 0
M  V30 8934 H 830.897 -1.39505 -7.66915 0
M  V30 8935 N 835.127 1.22348 -0.993418 0
M  V30 8936 C 836.376 1.90422 -0.665019 0
M  V30 8937 C 836.689 1.78199 0.806512 0
M  V30 8938 O 837.895 2.41193 1.24652 0
M  V30 8939 C 836.351 3.41403 -1.13893 0
M  V30 8940 C 835.959 3.62262 -2.63572 0
M  V30 8941 C 837.703 4.15175 -0.884884 0
M  V30 8942 C 835.61 5.06947 -3.04564 0
M  V30 8943 H 834.54 0.713073 -0.245037 0
M  V30 8944 H 837.191 1.3856 -1.20305 0
M  V30 8945 H 835.573 3.9245 -0.529027 0
M  V30 8946 H 836.747 3.21705 -3.29913 0
M  V30 8947 H 835.062 3.01824 -2.86865 0
M  V30 8948 H 837.659 5.21813 -1.16684 0
M  V30 8949 H 838.002 4.15915 0.178982 0
M  V30 8950 H 838.535 3.70157 -1.45701 0
M  V30 8951 H 835.274 5.11346 -4.10128 0
M  V30 8952 H 834.794 5.48404 -2.42927 0
M  V30 8953 H 836.473 5.75374 -2.95894 0
M  V30 8954 N 836.605 0.766683 1.37694 0
M  V30 8955 C 837.537 0.107798 2.28946 0
M  V30 8956 C 838.55 -0.669701 1.48387 0
M  V30 8957 O 839.739 -0.508629 1.711 0
M  V30 8958 C 836.839 -0.871084 3.27514 0
M  V30 8959 C 836.012 -0.148471 4.37148 0
M  V30 8960 C 835.071 -1.03998 5.1582 0
M  V30 8961 O 834.097 -0.505639 5.6695 0
M  V30 8962 N 835.299 -2.36679 5.3006 0
M  V30 8963 H 838.064 0.89154 2.86132 0
M  V30 8964 H 835.625 0.618593 1.49616 0
M  V30 8965 H 837.617 -1.47081 3.77027 0
M  V30 8966 H 836.187 -1.55582 2.71133 0
M  V30 8967 H 835.407 0.632117 3.89099 0
M  V30 8968 H 836.695 0.351045 5.07588 0
M  V30 8969 H 836.093 -2.82532 4.90094 0
M  V30 8970 H 834.65 -2.9167 5.82899 0
M  V30 8971 N 838.083 -1.48885 0.516809 0
M  V30 8972 C 839.311 -2.06892 -0.0184017 0
M  V30 8973 C 839.726 -1.37511 -1.29368 0
M  V30 8974 O 839.083 -0.458409 -1.76649 0
M  V30 8975 C 839.134 -3.60566 -0.259673 0
M  V30 8976 O 838.855 -4.27338 0.965065 0
M  V30 8977 C 840.356 -4.35331 -0.836751 0
M  V30 8978 H 837.576 -0.670433 0.0275743 0
M  V30 8979 H 840.12 -1.91455 0.718689 0
M  V30 8980 H 838.275 -3.75653 -0.94678 0
M  V30 8981 H 838.689 -5.19287 0.737647 0
M  V30 8982 H 840.163 -5.43675 -0.955065 0
M  V30 8983 H 840.64 -3.9887 -1.83845 0
M  V30 8984 H 841.246 -4.2489 -0.186622 0
M  V30 8985 N 839.561 -0.251338 -1.55583 0
M  V30 8986 C 840.508 0.646337 -2.21565 0
M  V30 8987 C 841.478 1.16796 -1.18102 0
M  V30 8988 O 842.663 1.22162 -1.46564 0
M  V30 8989 C 839.803 1.83557 -2.92234 0
M  V30 8990 C 838.916 1.35006 -4.10363 0
M  V30 8991 C 838.051 2.4992 -4.68736 0
M  V30 8992 C 837.09 1.98253 -5.79105 0
M  V30 8993 N 836.227 3.06551 -6.31642 0
M  V30 8994 H 841.067 0.0769881 -2.97901 0
M  V30 8995 H 838.604 0.026238 -1.47077 0
M  V30 8996 H 840.562 2.53425 -3.31408 0
M  V30 8997 H 839.192 2.37733 -2.18364 0
M  V30 8998 H 838.244 0.545274 -3.76472 0
M  V30 8999 H 839.556 0.931435 -4.90026 0
M  V30 9000 H 838.71 3.27823 -5.10507 0
M  V30 9001 H 837.449 2.95086 -3.88298 0
M  V30 9002 H 836.454 1.18822 -5.36807 0
M  V30 9003 H 837.679 1.54051 -6.61396 0
M  V30 9004 H 835.625 3.51143 -5.54107 0
M  V30 9005 H 835.542 2.69033 -7.06511 0
M  V30 9006 H 836.81 3.84499 -6.78071 0
M  V30 9007 N 841.039 1.57585 0.0217189 0
M  V30 9008 C 842.285 1.89887 0.712099 0
M  V30 9009 C 842.618 0.849971 1.74611 0
M  V30 9010 O 841.893 -0.13407 1.94037 0
M  V30 9011 C 842.176 3.32815 1.37499 0
M  V30 9012 C 842.029 4.48405 0.353993 0
M  V30 9013 C 843.348 3.74786 2.30703 0
M  V30 9014 H 840.467 0.690588 0.257405 0
M  V30 9015 H 843.109 1.89983 -0.0251145 0
M  V30 9016 H 841.259 3.32863 2.00335 0
M  V30 9017 H 842.931 4.60491 -0.273015 0
M  V30 9018 H 841.174 4.32573 -0.32599 0
M  V30 9019 H 841.845 5.45316 0.85644 0
M  V30 9020 H 844.321 3.76151 1.77904 0
M  V30 9021 H 843.197 4.75585 2.74061 0
M  V30 9022 H 843.458 3.07449 3.17691 0
M  V30 9023 N 842.517 -0.29412 1.54831 0
M  V30 9024 C 843.794 -1.04847 1.65126 0
M  V30 9025 C 844.174 -2.04996 0.503986 0
M  V30 9026 O 843.522 -2.22996 -0.498496 0
M  V30 9027 C 843.732 -1.72418 3.03435 0
M  V30 9028 C 845.08 -2.24362 3.60481 0
M  V30 9029 O 846.104 -1.8244 3.05932 0
M  V30 9030 O 844.963 -3.01196 4.56008 0
M  V30 9031 H 842.057 -0.485032 0.669831 0
M  V30 9032 H 844.603 -0.291659 1.67175 0
M  V30 9033 H 843.375 -0.997351 3.78376 0
M  V30 9034 H 842.998 -2.54839 3.05193 0
M  V30 9035 N 843.995 -1.47404 -0.557645 0
M  V30 9036 C 844.927 -1.55917 -1.67995 0
M  V30 9037 C 845.94 -0.445411 -1.56588 0
M  V30 9038 O 847.129 -0.714999 -1.63554 0
M  V30 9039 C 844.229 -1.44697 -3.06457 0
M  V30 9040 C 843.402 -2.70633 -3.43622 0
M  V30 9041 C 842.461 -2.53256 -4.61246 0
M  V30 9042 O 841.487 -3.27068 -4.65849 0
M  V30 9043 N 842.689 -1.61053 -5.57711 0
M  V30 9044 H 845.454 -2.52694 -1.61139 0
M  V30 9045 H 843.015 -1.43778 -0.744271 0
M  V30 9046 H 845.007 -1.30806 -3.82978 0
M  V30 9047 H 843.577 -0.560039 -3.07542 0
M  V30 9048 H 842.797 -2.99288 -2.56555 0
M  V30 9049 H 844.085 -3.5424 -3.65228 0
M  V30 9050 H 843.483 -1.00235 -5.56749 0
M  V30 9051 H 842.04 -1.53115 -6.33561 0
M  V30 9052 O 845.512 0.702284 -1.45431 0
M  V30 9053 H 846.203 1.35379 -1.38536 0
M  V30 END ATOM
M  V30 BEGIN BOND
M  V30 END BOND
M  V30 END CTAB
M  END
$$$$
