drugbank_target|P48357 Leptin receptor (DB05098; DB09046)
 OpenBabel12092120313D

  0  0  0     0  0            999 V3000
M  V30 BEGIN CTAB
M  V30 COUNTS 18506 18759 0 0 0
M  V30 BEGIN ATOM
M  V30 1 H -0.908 1.98254 -0.117106 0
M  V30 2 N 0 1.576 0 0
M  V30 3 C 0.933 2.03868 1.02534 0
M  V30 4 C 1.911 0.928543 1.3348 0
M  V30 5 O 3.095 1.19667 1.45644 0
M  V30 6 C 0.222 2.43627 2.35294 0
M  V30 7 C -0.732 3.65373 2.2001 0
M  V30 8 S 0.101 5.13292 1.52614 0
M  V30 9 C 1.257 5.56322 2.86805 0
M  V30 10 H 1.49 2.90518 0.631377 0
M  V30 11 H -0.977 1.52953 0.210867 0
M  V30 12 H 0.981 2.67203 3.11629 0
M  V30 13 H -0.358 1.57376 2.7183 0
M  V30 14 H -1.165 3.90944 3.18086 0
M  V30 15 H -1.563 3.418 1.51819 0
M  V30 16 H 0.729 5.58782 3.83104 0
M  V30 17 H 1.672 6.56266 2.65933 0
M  V30 18 H 2.08 4.83886 2.90714 0
M  V30 19 N 1.4781 -0.272755 1.55222 0
M  V30 20 C 2.7271 -1.00211 1.75045 0
M  V30 21 C 3.0401 -1.87441 0.559046 0
M  V30 22 O 4.2461 -2.63856 0.639698 0
M  V30 23 C 2.7021 -1.83165 3.09804 0
M  V30 24 C 2.3101 -1.008 4.36513 0
M  V30 25 C 4.0541 -2.55529 3.38977 0
M  V30 26 C 1.9611 -1.83194 5.62311 0
M  V30 27 H 0.8911 -0.377878 0.652476 0
M  V30 28 H 3.5421 -0.257776 1.8168 0
M  V30 29 H 1.9241 -2.61694 2.97207 0
M  V30 30 H 3.0981 -0.266855 4.60027 0
M  V30 31 H 1.4131 -0.398897 4.14485 0
M  V30 32 H 4.0101 -3.17578 4.30172 0
M  V30 33 H 4.3531 -3.25825 2.59121 0
M  V30 34 H 4.8861 -1.84029 3.52673 0
M  V30 35 H 1.6251 -1.17318 6.44916 0
M  V30 36 H 1.1451 -2.54905 5.4294 0
M  V30 37 H 2.8241 -2.40552 6.00619 0
M  V30 38 N 2.9562 -1.48159 -0.537278 0
M  V30 39 C 4.1962 -1.57397 -1.30405 0
M  V30 40 C 4.5602 -0.239202 -1.90504 0
M  V30 41 O 5.7612 -0.206528 -2.68005 0
M  V30 42 C 4.0322 -2.6754 -2.36974 0
M  V30 43 S 5.5912 -2.96496 -3.23475 0
M  V30 44 H 2.4092 -0.555577 -0.443684 0
M  V30 45 H 5.0112 -1.85644 -0.612912 0
M  V30 46 H 3.7152 -3.63092 -1.91291 0
M  V30 47 H 3.2462 -2.41172 -3.10805 0
M  V30 48 H 5.2612 -2.35234 -4.36897 0
M  V30 49 N 4.4343 0.785586 -1.36625 0
M  V30 50 C 5.3663 1.90711 -1.2713 0
M  V30 51 C 6.3793 1.61688 -0.189986 0
M  V30 52 O 7.5683 1.72864 -0.445014 0
M  V30 53 C 4.6683 3.25611 -0.939713 0
M  V30 54 C 3.8413 3.82385 -2.12369 0
M  V30 55 C 2.9003 4.95732 -1.76456 0
M  V30 56 O 1.9263 5.12047 -2.48589 0
M  V30 57 N 3.1283 5.76258 -0.700492 0
M  V30 58 H 5.8933 1.99376 -2.23762 0
M  V30 59 H 3.4543 0.964041 -1.30069 0
M  V30 60 H 5.4463 3.98937 -0.680554 0
M  V30 61 H 4.0163 3.12538 -0.0624074 0
M  V30 62 H 3.2363 3.01001 -2.54543 0
M  V30 63 H 4.5243 4.17047 -2.9146 0
M  V30 64 H 3.9223 5.65609 -0.101624 0
M  V30 65 H 2.4793 6.4987 -0.501165 0
M  V30 66 N 5.9124 1.20967 1.01018 0
M  V30 67 C 6.8594 0.964281 2.09691 0
M  V30 68 C 7.8294 -0.107853 1.65749 0
M  V30 69 O 9.0144 0.0381987 1.90762 0
M  V30 70 C 6.1544 0.52943 3.41015 0
M  V30 71 C 5.2674 1.67043 3.98398 0
M  V30 72 C 4.4024 1.18525 5.17808 0
M  V30 73 C 3.4414 2.29892 5.67288 0
M  V30 74 N 2.5784 1.82546 6.77954 0
M  V30 75 H 7.4184 1.89463 2.30017 0
M  V30 76 H 4.9554 0.944289 1.1279 0
M  V30 77 H 6.9134 0.258588 4.16398 0
M  V30 78 H 5.5434 -0.363919 3.20742 0
M  V30 79 H 4.5954 2.05603 3.20049 0
M  V30 80 H 5.9074 2.50877 4.31117 0
M  V30 81 H 5.0614 0.870762 6.00419 0
M  V30 82 H 3.8004 0.316887 4.86669 0
M  V30 83 H 2.8054 2.6215 4.83278 0
M  V30 84 H 4.0304 3.17216 6.00459 0
M  V30 85 H 1.9764 0.980454 6.48632 0
M  V30 86 H 1.8934 2.59956 7.09901 0
M  V30 87 H 3.1614 1.54115 7.64113 0
M  V30 88 N 7.3905 -1.2043 1.01659 0
M  V30 89 C 8.6375 -1.89797 0.705917 0
M  V30 90 C 8.9655 -1.78848 -0.764439 0
M  V30 91 O 8.2205 -1.16694 -1.57102 0
M  V30 92 C 8.5195 -3.40464 1.08714 0
M  V30 93 C 8.1855 -3.71614 2.5537 0
M  V30 94 C 6.8475 -3.79826 2.95441 0
M  V30 95 C 9.1995 -3.85915 3.50313 0
M  V30 96 C 6.5275 -3.99797 4.29394 0
M  V30 97 C 8.8795 -4.07396 4.83954 0
M  V30 98 C 7.5435 -4.13837 5.23732 0
M  V30 99 H 6.8135 -0.694518 0.258313 0
M  V30 100 H 9.4605 -1.42691 1.27717 0
M  V30 101 H 7.7655 -3.89385 0.434309 0
M  V30 102 H 9.4625 -3.92433 0.824461 0
M  V30 103 H 6.0525 -3.65822 2.23321 0
M  V30 104 H 10.2365 -3.78926 3.20513 0
M  V30 105 H 5.4925 -4.03018 4.59768 0
M  V30 106 H 9.6665 -4.17404 5.57447 0
M  V30 107 H 7.2935 -4.29064 6.27541 0
M  V30 108 N 8.8686 -0.792821 -1.36206 0
M  V30 109 C 10.1086 -0.372238 -2.00982 0
M  V30 110 C 10.4726 1.03749 -1.61555 0
M  V30 111 O 11.6736 1.55934 -2.18948 0
M  V30 112 C 9.9446 -0.534566 -3.5338 0
M  V30 113 S 11.5036 -0.202365 -4.38333 0
M  V30 114 H 8.3216 -0.142044 -0.696667 0
M  V30 115 H 10.9236 -1.03206 -1.66039 0
M  V30 116 H 9.6276 -1.5608 -3.79562 0
M  V30 117 H 9.1586 0.141065 -3.93147 0
M  V30 118 H 11.1736 0.994869 -4.86124 0
M  V30 119 N 10.3467 1.47872 -0.545128 0
M  V30 120 C 11.5927 2.02793 -0.0166104 0
M  V30 121 C 11.9257 1.41987 1.32489 0
M  V30 122 O 11.2007 0.571045 1.85928 0
M  V30 123 C 11.4837 3.59989 0.0893294 0
M  V30 124 C 11.3367 4.3125 -1.27841 0
M  V30 125 C 12.6557 4.32606 0.808724 0
M  V30 126 H 9.7747 0.736962 -0.00751035 0
M  V30 127 H 12.4167 1.76433 -0.705085 0
M  V30 128 H 10.5667 3.82579 0.675681 0
M  V30 129 H 12.2387 4.20035 -1.90704 0
M  V30 130 H 10.4817 3.92076 -1.85632 0
M  V30 131 H 11.1527 5.39736 -1.15713 0
M  V30 132 H 13.6287 4.14936 0.310992 0
M  V30 133 H 12.5047 5.42251 0.851782 0
M  V30 134 H 12.7657 4.00963 1.86229 0
M  V30 135 N 11.8248 0.280983 1.55075 0
M  V30 136 C 13.0708 -0.33461 2.00021 0
M  V30 137 C 13.4038 -1.55063 1.16915 0
M  V30 138 O 12.6788 -1.93006 0.240646 0
M  V30 139 C 12.9618 -0.711007 3.53011 0
M  V30 140 C 12.8148 0.512766 4.46868 0
M  V30 141 C 14.1338 -1.54522 4.12081 0
M  V30 142 H 11.2528 -0.120147 0.727141 0
M  V30 143 H 13.8948 0.389097 1.85973 0
M  V30 144 H 12.0448 -1.32761 3.65112 0
M  V30 145 H 13.7168 1.15131 4.46702 0
M  V30 146 H 11.9598 1.14975 4.18286 0
M  V30 147 H 12.6308 0.205556 5.51617 0
M  V30 148 H 15.1068 -1.02442 4.03293 0
M  V30 149 H 13.9828 -1.77739 5.19327 0
M  V30 150 H 14.2438 -2.52813 3.62682 0
M  V30 151 N 13.3029 -1.57598 0.00835791 0
M  V30 152 C 14.2329 -2.1198 -0.979113 0
M  V30 153 C 15.2139 -1.03091 -1.35301 0
M  V30 154 O 16.3989 -1.30818 -1.43528 0
M  V30 155 C 13.5289 -2.62995 -2.26828 0
M  V30 156 C 12.4829 -3.76485 -2.03576 0
M  V30 157 C 11.8089 -4.13846 -3.38579 0
M  V30 158 C 13.1089 -5.0342 -1.39161 0
M  V30 159 H 14.8029 -2.94738 -0.526281 0
M  V30 160 H 12.3489 -1.41783 -0.251704 0
M  V30 161 H 14.3019 -2.99669 -2.96271 0
M  V30 162 H 13.0259 -1.7737 -2.7424 0
M  V30 163 H 11.6849 -3.40217 -1.36557 0
M  V30 164 H 11.3329 -3.25232 -3.83709 0
M  V30 165 H 11.0329 -4.90312 -3.23834 0
M  V30 166 H 12.5569 -4.53086 -4.09323 0
M  V30 167 H 13.9709 -5.37812 -1.98573 0
M  V30 168 H 12.3679 -5.84746 -1.34878 0
M  V30 169 H 13.4379 -4.83548 -0.361868 0
M  V30 170 N 14.781 0.264519 -1.55364 0
M  V30 171 C 15.711 1.33121 -1.91836 0
M  V30 172 C 16.692 1.51101 -0.781192 0
M  V30 173 O 17.877 1.64003 -1.04003 0
M  V30 174 C 15.007 2.68921 -2.19769 0
M  V30 175 C 13.961 2.65661 -3.35571 0
M  V30 176 C 13.287 4.05093 -3.49004 0
M  V30 177 C 14.587 2.24187 -4.71739 0
M  V30 178 H 16.281 1.02844 -2.81182 0
M  V30 179 H 13.827 0.493286 -1.35287 0
M  V30 180 H 15.78 3.43663 -2.43872 0
M  V30 181 H 14.504 3.00799 -1.27231 0
M  V30 182 H 13.163 1.93377 -3.1145 0
M  V30 183 H 12.811 4.34206 -2.53917 0
M  V30 184 H 12.511 4.03804 -4.26868 0
M  V30 185 H 14.035 4.81561 -3.75408 0
M  V30 186 H 15.449 2.88654 -4.9533 0
M  V30 187 H 13.846 2.34044 -5.52579 0
M  V30 188 H 14.916 1.19327 -4.69988 0
M  V30 189 N 16.2591 1.48442 0.529413 0
M  V30 190 C 17.2091 1.59407 1.63014 0
M  V30 191 C 18.1931 0.451166 1.54445 0
M  V30 192 O 19.3851 0.702635 1.62456 0
M  V30 193 C 16.5141 1.63746 3.01732 0
M  V30 194 C 15.6001 2.83518 3.15402 0
M  V30 195 N 15.9911 4.07929 2.99045 0
M  V30 196 C 14.2891 2.80862 3.46457 0
M  V30 197 C 14.9901 4.8829 3.16146 0
M  V30 198 N 13.9661 4.21117 3.43746 0
M  V30 199 H 17.7681 2.53343 1.48978 0
M  V30 200 H 15.2821 1.44821 0.734885 0
M  V30 201 H 17.2791 1.69695 3.80801 0
M  V30 202 H 15.9391 0.709264 3.16859 0
M  V30 203 H 16.9501 4.38357 2.75796 0
M  V30 204 H 13.6271 1.97301 3.67938 0
M  V30 205 H 15.0171 5.97028 3.08232 0
M  V30 206 N 17.7372 -0.778329 1.37039 0
M  V30 207 C 18.9832 -1.53817 1.33086 0
M  V30 208 C 19.3382 -1.92208 -0.0860346 0
M  V30 209 O 18.6312 -1.60713 -1.04316 0
M  V30 210 C 18.8252 -2.81845 2.19768 0
M  V30 211 C 18.6542 -2.55967 3.69744 0
M  V30 212 C 17.4242 -2.50428 4.38878 0
M  V30 213 C 19.6222 -2.2441 4.62758 0
M  V30 214 N 17.6042 -2.16564 5.74433 0
M  V30 215 C 18.9752 -2.0063 5.86641 0
M  V30 216 C 21.0302 -2.1051 4.5121 0
M  V30 217 C 19.7332 -1.64354 7.00272 0
M  V30 218 C 21.7592 -1.75634 5.64718 0
M  V30 219 C 21.1212 -1.52709 6.87648 0
M  V30 220 H 17.2202 -0.563434 0.542279 0
M  V30 221 H 19.8042 -0.908617 1.72198 0
M  V30 222 H 17.9752 -3.42649 1.82883 0
M  V30 223 H 19.7072 -3.47682 2.07122 0
M  V30 224 H 16.4622 -2.66056 3.91805 0
M  V30 225 H 16.8862 -2.02348 6.46053 0
M  V30 226 H 21.5282 -2.26919 3.56746 0
M  V30 227 H 19.2462 -1.46683 7.94676 0
M  V30 228 H 22.8322 -1.65546 5.57751 0
M  V30 229 H 21.7122 -1.2612 7.73992 0
M  V30 230 N 19.2153 -1.21501 -1.00376 0
M  V30 231 C 20.1253 -0.991447 -2.12621 0
M  V30 232 C 21.1413 0.0568446 -1.73907 0
M  V30 233 O 22.3173 -0.13348 -2.00957 0
M  V30 234 C 19.3823 -0.560312 -3.42142 0
M  V30 235 C 18.4433 -1.68096 -3.95022 0
M  V30 236 C 17.6763 -1.2703 -5.18362 0
M  V30 237 O 17.8993 -0.144438 -5.70217 0
M  V30 238 O 16.8333 -2.08269 -5.64719 0
M  V30 239 H 20.6593 -1.93158 -2.34358 0
M  V30 240 H 18.2443 -0.999999 -1.10997 0
M  V30 241 H 20.1263 -0.329724 -4.20108 0
M  V30 242 H 18.8013 0.351089 -3.2179 0
M  V30 243 H 17.7083 -1.96597 -3.18278 0
M  V30 244 H 19.0413 -2.56983 -4.19786 0
M  V30 245 N 20.6934 1.19889 -1.02296 0
M  V30 246 C 21.9404 1.8942 -0.715972 0
M  V30 247 C 22.2684 1.79251 0.754944 0
M  V30 248 O 21.5234 1.17526 1.56481 0
M  V30 249 C 21.8224 3.39883 -1.10518 0
M  V30 250 C 21.4884 3.70254 -2.57337 0
M  V30 251 C 20.1504 3.78254 -2.97452 0
M  V30 252 C 22.5024 3.84052 -3.52354 0
M  V30 253 C 19.8304 3.97514 -4.31509 0
M  V30 254 C 22.1824 4.04824 -4.86108 0
M  V30 255 C 20.8464 4.11054 -5.25919 0
M  V30 256 H 20.1164 0.693138 -0.261993 0
M  V30 257 H 22.7634 1.42012 -1.28472 0
M  V30 258 H 21.0684 3.8915 -0.454953 0
M  V30 259 H 22.7654 3.9199 -0.845261 0
M  V30 260 H 19.3554 3.64632 -2.25258 0
M  V30 261 H 23.5394 3.77221 -3.22518 0
M  V30 262 H 18.7954 4.00574 -4.61898 0
M  V30 263 H 22.9694 4.14442 -5.59653 0
M  V30 264 H 20.5964 4.2573 -6.29808 0
M  V30 265 N 22.1715 0.800033 1.35784 0
M  V30 266 C 23.4205 0.37387 1.98205 0
M  V30 267 C 23.7335 -1.06302 1.64193 0
M  V30 268 O 24.9395 -1.59198 2.19928 0
M  V30 269 C 23.3955 0.617532 3.54562 0
M  V30 270 C 23.0035 2.06654 3.9749 0
M  V30 271 C 24.7475 0.256401 4.23725 0
M  V30 272 C 22.6545 2.2563 5.46667 0
M  V30 273 H 21.5845 0.136055 0.741623 0
M  V30 274 H 24.2355 0.983166 1.54939 0
M  V30 275 H 22.6175 -0.0616248 3.95952 0
M  V30 276 H 23.7915 2.78296 3.67271 0
M  V30 277 H 22.1065 2.38691 3.41197 0
M  V30 278 H 24.7035 0.376318 5.33374 0
M  V30 279 H 25.0465 -0.796692 4.08606 0
M  V30 280 H 25.5795 0.889214 3.87734 0
M  V30 281 H 22.3185 3.2936 5.66747 0
M  V30 282 H 21.8385 1.58504 5.78478 0
M  V30 283 H 23.5175 2.06861 6.1304 0
M  V30 284 N 23.6496 -1.47581 0.552962 0
M  V30 285 C 24.8796 -2.06575 0.0320091 0
M  V30 286 C 25.2876 -1.4067 -1.26525 0
M  V30 287 O 24.6306 -0.495808 -1.76883 0
M  V30 288 C 24.6926 -3.58705 -0.238913 0
M  V30 289 C 24.3566 -4.46625 0.968272 0
M  V30 290 C 25.3536 -4.85 1.87274 0
M  V30 291 C 23.0386 -4.88201 1.18175 0
M  V30 292 C 25.0326 -5.63745 2.9744 0
M  V30 293 C 22.7196 -5.66712 2.28651 0
M  V30 294 C 23.7176 -6.04394 3.18114 0
M  V30 295 O 23.4056 -6.81324 4.26676 0
M  V30 296 H 23.1376 -0.674763 0.0408689 0
M  V30 297 H 25.6916 -1.90634 0.764719 0
M  V30 298 H 23.9216 -3.72844 -1.02588 0
M  V30 299 H 25.6106 -3.99735 -0.704731 0
M  V30 300 H 26.3766 -4.53482 1.71984 0
M  V30 301 H 22.2556 -4.58339 0.494593 0
M  V30 302 H 25.7996 -5.93077 3.67296 0
M  V30 303 H 21.6966 -5.97642 2.43915 0
M  V30 304 H 22.4646 -6.99712 4.24671 0
M  V30 305 N 25.1277 -0.289203 -1.54924 0
M  V30 306 C 26.3737 0.323998 -2.00195 0
M  V30 307 C 26.7067 1.54441 -1.17735 0
M  V30 308 O 25.9817 1.92875 -0.250878 0
M  V30 309 C 26.2647 0.692276 -3.53383 0
M  V30 310 C 26.1177 -0.536457 -4.46589 0
M  V30 311 C 27.4367 1.52335 -4.12895 0
M  V30 312 H 24.5557 0.116289 -0.727768 0
M  V30 313 H 27.1977 -0.398954 -1.85764 0
M  V30 314 H 25.3477 1.30822 -3.65811 0
M  V30 315 H 27.0197 -1.17499 -4.46085 0
M  V30 316 H 25.2627 -1.17192 -4.1767 0
M  V30 317 H 25.9337 -0.234806 -5.515 0
M  V30 318 H 28.4097 1.00302 -4.0383 0
M  V30 319 H 27.2857 1.74982 -5.20262 0
M  V30 320 H 27.5467 2.50886 -3.64018 0
M  V30 321 N 26.6058 1.57591 -0.0167156 0
M  V30 322 C 27.8548 1.90461 0.663877 0
M  V30 323 C 28.1678 0.893515 1.73999 0
M  V30 324 O 29.3738 1.11302 2.47637 0
M  V30 325 C 27.8298 3.38155 1.23204 0
M  V30 326 C 27.4378 4.47597 0.189866 0
M  V30 327 C 29.1818 3.80111 1.88986 0
M  V30 328 C 27.0888 5.86379 0.768964 0
M  V30 329 H 26.0188 0.710738 0.251729 0
M  V30 330 H 28.6698 1.83326 -0.0799926 0
M  V30 331 H 27.0518 3.40182 2.02712 0
M  V30 332 H 28.2258 4.57112 -0.581846 0
M  V30 333 H 26.5408 4.14766 -0.368475 0
M  V30 334 H 29.1378 4.81145 2.33247 0
M  V30 335 H 29.4808 3.14511 2.72743 0
M  V30 336 H 30.0138 3.80454 1.16187 0
M  V30 337 H 26.7528 6.55493 -0.0301957 0
M  V30 338 H 26.2728 5.80496 1.50945 0
M  V30 339 H 27.9518 6.34563 1.26251 0
M  V30 340 N 28.0839 -0.256276 1.55502 0
M  V30 341 C 29.3119 -1.00342 1.8094 0
M  V30 342 C 29.7269 -1.79307 0.59114 0
M  V30 343 O 29.0839 -1.77114 -0.440081 0
M  V30 344 C 29.1349 -1.94875 3.04476 0
M  V30 345 O 28.8559 -1.19107 4.21598 0
M  V30 346 C 30.3569 -2.81266 3.42644 0
M  V30 347 H 27.5769 -0.295685 0.602338 0
M  V30 348 H 30.1209 -0.281998 2.02546 0
M  V30 349 H 28.2759 -2.62457 2.84947 0
M  V30 350 H 28.6899 -1.82969 4.91551 0
M  V30 351 H 30.1639 -3.43362 4.32211 0
M  V30 352 H 30.6409 -3.51897 2.62802 0
M  V30 353 H 31.2469 -2.1915 3.64491 0
M  V30 354 N 29.562 -1.4872 -0.521534 0
M  V30 355 C 30.525 -1.63379 -1.60748 0
M  V30 356 C 31.525 -0.50661 -1.52611 0
M  V30 357 O 32.715 -0.772601 -1.5613 0
M  V30 358 C 29.847 -1.61192 -3.00383 0
M  V30 359 H 31.04 -2.60217 -1.49087 0
M  V30 360 H 28.593 -1.37444 -0.744235 0
M  V30 361 H 29.328 -0.65863 -3.17541 0
M  V30 362 H 29.113 -2.43032 -3.07698 0
M  V30 363 H 30.603 -1.7466 -3.7932 0
M  V30 364 N 31.0401 0.771051 -1.3745 0
M  V30 365 C 32.2871 1.52963 -1.32697 0
M  V30 366 C 32.6151 1.94299 0.0883274 0
M  V30 367 O 31.8701 1.64397 1.0617 0
M  V30 368 C 32.1691 2.80676 -2.2126 0
M  V30 369 C 31.8351 2.58389 -3.69521 0
M  V30 370 C 30.4971 2.52019 -4.09927 0
M  V30 371 C 32.8491 2.38469 -4.63446 0
M  V30 372 C 30.1771 2.23721 -5.42371 0
M  V30 373 C 32.5291 2.11694 -5.96128 0
M  V30 374 C 31.1931 2.03769 -6.35637 0
M  V30 375 H 30.4631 0.559732 -0.485573 0
M  V30 376 H 33.1101 0.888083 -1.69662 0
M  V30 377 H 31.4151 3.49392 -1.77291 0
M  V30 378 H 33.1121 3.38557 -2.14895 0
M  V30 379 H 29.7021 2.6421 -3.37478 0
M  V30 380 H 33.8861 2.4238 -4.33089 0
M  V30 381 H 29.1421 2.16081 -5.71943 0
M  V30 382 H 33.3161 1.9528 -6.6846 0
M  V30 383 H 30.9431 1.81606 -7.38189 0
M  V30 384 N 32.5182 1.22032 0.997298 0
M  V30 385 C 33.4662 0.983634 2.10778 0
M  V30 386 C 34.4602 -0.0717564 1.69248 0
M  V30 387 O 35.6662 0.080304 1.79821 0
M  V30 388 H 32.0412 0.300877 0.689186 0
M  V30 389 H 34.0122 1.92606 2.27916 0
M  V30 390 C 32.7612 0.57326 3.42942 0
M  V30 391 H 32.0842 1.37702 3.75338 0
M  V30 392 H 33.5242 0.447031 4.21637 0
M  V30 393 C 31.9832 -0.7167 3.29188 0
M  V30 394 O 32.5132 -1.77027 3.60589 0
M  V30 395 N 30.7192 -0.686167 2.82383 0
M  V30 396 H 30.2662 0.171507 2.57028 0
M  V30 397 H 30.2242 -1.54955 2.73562 0
M  V30 398 N 33.9963 -1.19345 1.0293 0
M  V30 399 C 34.9263 -2.2481 0.631105 0
M  V30 400 C 35.9073 -1.66245 -0.360104 0
M  V30 401 O 37.0923 -1.92677 -0.242726 0
M  V30 402 C 34.2223 -3.47295 -0.0184607 0
M  V30 403 C 33.1763 -4.18536 0.895073 0
M  V30 404 C 32.5023 -5.34586 0.110592 0
M  V30 405 C 33.8023 -4.73287 2.209 0
M  V30 406 H 35.4963 -2.58372 1.51275 0
M  V30 407 H 33.0423 -1.24194 0.728818 0
M  V30 408 H 34.9953 -4.20268 -0.308675 0
M  V30 409 H 33.7193 -3.12933 -0.934907 0
M  V30 410 H 32.3783 -3.47446 1.16949 0
M  V30 411 H 32.0263 -4.96469 -0.807902 0
M  V30 412 H 31.7263 -5.83183 0.719087 0
M  V30 413 H 33.2503 -6.10355 -0.172871 0
M  V30 414 H 34.6643 -5.38013 1.98028 0
M  V30 415 H 33.0613 -5.32373 2.76946 0
M  V30 416 H 34.1313 -3.91331 2.86336 0
M  V30 417 N 35.4744 -0.807222 -1.35358 0
M  V30 418 C 36.6994 -0.399309 -2.0352 0
M  V30 419 C 37.1244 0.981986 -1.60433 0
M  V30 420 O 36.4824 1.63601 -0.781299 0
M  V30 421 C 36.5304 -0.491552 -3.57234 0
M  V30 422 O 35.6344 0.494754 -4.09421 0
M  V30 423 H 34.9754 -0.166682 -0.642739 0
M  V30 424 H 37.5054 -1.09328 -1.72941 0
M  V30 425 H 37.5154 -0.361588 -4.06395 0
M  V30 426 H 36.1904 -1.49907 -3.87944 0
M  V30 427 H 34.7674 0.324977 -3.71481 0
M  V30 428 N 36.9525 1.47285 -0.560781 0
M  V30 429 C 38.1825 2.06555 -0.0429638 0
M  V30 430 C 38.5905 1.41339 1.25777 0
M  V30 431 O 37.9335 0.505182 1.76617 0
M  V30 432 C 37.9955 3.58827 0.219887 0
M  V30 433 C 37.6595 4.46105 -0.991944 0
M  V30 434 C 38.6565 4.84 -1.89843 0
M  V30 435 C 36.3415 4.87567 -1.20762 0
M  V30 436 C 38.3355 5.6216 -3.00425 0
M  V30 437 C 36.0225 5.65491 -2.31653 0
M  V30 438 C 37.0205 6.02699 -3.21315 0
M  V30 439 O 36.7085 6.79052 -4.30283 0
M  V30 440 H 36.4405 0.674537 -0.0444468 0
M  V30 441 H 38.9945 1.90225 -0.774818 0
M  V30 442 H 37.2245 3.73383 1.00609 0
M  V30 443 H 38.9135 4.00103 0.683522 0
M  V30 444 H 39.6795 4.52564 -1.74387 0
M  V30 445 H 35.5585 4.5807 -0.518893 0
M  V30 446 H 39.1025 5.9112 -3.70436 0
M  V30 447 H 34.9995 5.9634 -2.47081 0
M  V30 448 H 35.7675 6.9745 -4.28376 0
M  V30 449 N 38.4306 0.297415 1.54768 0
M  V30 450 C 39.8416 -0.195947 1.85669 0
M  V30 451 C 40.1926 -1.53707 1.21937 0
M  V30 452 O 39.3176 -2.10164 0.515754 0
M  V30 453 C 39.9126 -0.362318 3.36857 0
M  V30 454 C 38.4716 -0.799901 3.67802 0
M  V30 455 C 37.6186 0.0938578 2.77141 0
M  V30 456 H 40.5696 0.518538 1.4999 0
M  V30 457 H 40.5906 -1.19745 3.61167 0
M  V30 458 H 40.1026 0.613921 3.83214 0
M  V30 459 H 38.2036 -1.78682 3.26961 0
M  V30 460 H 38.3166 -0.621773 4.75048 0
M  V30 461 H 36.6806 -0.426254 2.51108 0
M  V30 462 H 37.4636 1.06639 3.26318 0
M  V30 463 N 39.9087 -1.5758 0.0250728 0
M  V30 464 C 41.1577 -1.90811 -0.653767 0
M  V30 465 C 41.4707 -0.90273 -1.73523 0
M  V30 466 O 42.6767 -1.12614 -2.47043 0
M  V30 467 C 41.1327 -3.38804 -1.21409 0
M  V30 468 C 40.7407 -4.47692 -0.166126 0
M  V30 469 C 42.4847 -3.81108 -1.86967 0
M  V30 470 C 40.3917 -5.86779 -0.737856 0
M  V30 471 H 39.3217 -0.712063 -0.247956 0
M  V30 472 H 41.9727 -1.83281 0.0897137 0
M  V30 473 H 40.3547 -3.41252 -2.00905 0
M  V30 474 H 41.5287 -4.56797 0.606079 0
M  V30 475 H 39.8437 -4.14565 0.390466 0
M  V30 476 H 42.4407 -4.82375 -2.30692 0
M  V30 477 H 42.7837 -3.15953 -2.71071 0
M  V30 478 H 43.3167 -3.81065 -1.14167 0
M  V30 479 H 40.0557 -6.55468 0.0649577 0
M  V30 480 H 39.5757 -5.81288 -1.47864 0
M  V30 481 H 41.2547 -6.35223 -1.22884 0
M  V30 482 N 41.3868 0.248026 -1.55636 0
M  V30 483 C 42.6148 0.993808 -1.81469 0
M  V30 484 C 43.0298 1.78991 -0.60064 0
M  V30 485 O 42.3868 1.77345 0.430682 0
M  V30 486 C 42.4378 1.93258 -3.05506 0
M  V30 487 O 42.1588 1.16869 -4.22224 0
M  V30 488 C 43.6598 2.79444 -3.4413 0
M  V30 489 H 40.8798 0.292486 -0.603898 0
M  V30 490 H 43.4238 0.271253 -2.02693 0
M  V30 491 H 41.5788 2.60943 -2.86335 0
M  V30 492 H 41.9928 1.80359 -4.92515 0
M  V30 493 H 43.4668 3.41066 -4.34026 0
M  V30 494 H 43.9438 3.50499 -2.64665 0
M  V30 495 H 44.5498 2.17214 -3.65648 0
M  V30 496 N 42.8649 1.48995 0.513639 0
M  V30 497 C 44.2759 1.5119 1.09537 0
M  V30 498 C 44.6269 0.290906 1.94031 0
M  V30 499 O 43.7519 -0.60049 2.07902 0
M  V30 500 C 44.3469 2.73964 1.99322 0
M  V30 501 C 42.9059 2.78978 2.52682 0
M  V30 502 C 42.0529 2.44934 1.30009 0
M  V30 503 H 45.0039 1.55875 0.298125 0
M  V30 504 H 45.0249 2.53409 2.83838 0
M  V30 505 H 44.5369 3.62813 1.37799 0
M  V30 506 H 42.6379 1.94378 3.1788 0
M  V30 507 H 42.7509 3.8083 2.90698 0
M  V30 508 H 41.1149 1.9644 1.62122 0
M  V30 509 H 41.8979 3.36043 0.702131 0
M  V30 510 N 44.343 -0.763751 1.37857 0
M  V30 511 C 45.589 -1.52396 1.3471 0
M  V30 512 C 45.944 -1.92288 -0.0656435 0
M  V30 513 O 45.237 -1.6181 -1.02606 0
M  V30 514 C 45.431 -2.79499 2.22745 0
M  V30 515 C 45.26 -2.52031 3.72438 0
M  V30 516 C 44.03 -2.45759 4.4151 0
M  V30 517 C 46.228 -2.19489 4.65112 0
M  V30 518 N 44.21 -2.1046 5.76697 0
M  V30 519 C 45.581 -1.94396 5.88736 0
M  V30 520 C 47.636 -2.05712 4.53417 0
M  V30 521 C 46.339 -1.56917 7.01975 0
M  V30 522 C 48.365 -1.69634 5.66549 0
M  V30 523 C 47.727 -1.45407 6.89229 0
M  V30 524 H 43.826 -0.55765 0.548225 0
M  V30 525 H 46.41 -0.890302 1.73152 0
M  V30 526 H 44.581 -3.4069 1.86507 0
M  V30 527 H 46.313 -3.45465 2.10798 0
M  V30 528 H 43.068 -2.61885 3.94605 0
M  V30 529 H 43.492 -1.95484 6.48163 0
M  V30 530 H 48.134 -2.23123 3.59133 0
M  V30 531 H 45.852 -1.38246 7.96187 0
M  V30 532 H 49.438 -1.59621 5.59475 0
M  V30 533 H 48.318 -1.17904 7.75286 0
M  V30 534 N 45.8211 -1.22559 -0.990812 0
M  V30 535 C 47.2371 -0.985996 -1.255 0
M  V30 536 C 47.4371 0.319173 -1.98956 0
M  V30 537 O 46.4931 1.04127 -2.3003 0
M  V30 538 C 47.8061 -2.18607 -2.06474 0
M  V30 539 C 49.3541 -2.22985 -2.19651 0
M  V30 540 C 49.8291 -3.4255 -3.04012 0
M  V30 541 N 51.3201 -3.42725 -3.11599 0
M  V30 542 C 52.0551 -4.31892 -3.7717 0
M  V30 543 N 51.5511 -5.31279 -4.44651 0
M  V30 544 N 53.3441 -4.19662 -3.73952 0
M  V30 545 H 45.4951 -2.06469 -0.49841 0
M  V30 546 H 47.7581 -0.904853 -0.282747 0
M  V30 547 H 47.4641 -3.13267 -1.59865 0
M  V30 548 H 47.3381 -2.18838 -3.07229 0
M  V30 549 H 49.7251 -1.28871 -2.65474 0
M  V30 550 H 49.8061 -2.26791 -1.18319 0
M  V30 551 H 49.4501 -4.36965 -2.58889 0
M  V30 552 H 49.3801 -3.35984 -4.0549 0
M  V30 553 H 51.8711 -2.70807 -2.63575 0
M  V30 554 H 52.1841 -5.95593 -4.92431 0
M  V30 555 H 50.5291 -5.3519 -4.43392 0
M  V30 556 H 53.7201 -3.41268 -3.20396 0
M  V30 557 H 53.8931 -4.89358 -4.24774 0
M  V30 558 N 47.2992 1.18797 -1.03562 0
M  V30 559 C 48.5462 1.8865 -0.736023 0
M  V30 560 C 48.8742 1.80041 0.735889 0
M  V30 561 O 48.1292 1.19179 1.55225 0
M  V30 562 C 48.4282 3.38692 -1.14117 0
M  V30 563 C 48.0942 3.67504 -2.6125 0
M  V30 564 C 46.7562 3.75078 -3.01447 0
M  V30 565 C 49.1082 3.80293 -3.56408 0
M  V30 566 C 46.4362 3.92915 -4.35701 0
M  V30 567 C 48.7882 3.99645 -4.90374 0
M  V30 568 C 47.4522 4.05453 -5.30249 0
M  V30 569 H 46.7222 0.690321 -0.26933 0
M  V30 570 H 49.3692 1.40641 -1.29971 0
M  V30 571 H 47.6742 3.88645 -0.496202 0
M  V30 572 H 49.3712 3.91072 -0.886789 0
M  V30 573 H 45.9612 3.62223 -2.29113 0
M  V30 574 H 50.1452 3.73779 -3.26501 0
M  V30 575 H 45.4012 3.95653 -4.66121 0
M  V30 576 H 49.5752 4.08482 -5.64017 0
M  V30 577 H 47.2022 4.19027 -6.34288 0
M  V30 578 N 48.7773 0.814389 1.34928 0
M  V30 579 C 49.7243 0.22822 2.29669 0
M  V30 580 C 50.6943 -0.642164 1.53184 0
M  V30 581 O 51.8793 -0.585605 1.81591 0
M  V30 582 C 49.0193 -0.61089 3.3965 0
M  V30 583 C 48.1323 0.280792 4.31086 0
M  V30 584 C 47.2673 -0.567067 5.28165 0
M  V30 585 C 46.3063 0.324531 6.11239 0
M  V30 586 N 45.4433 -0.483756 7.00431 0
M  V30 587 H 50.2833 1.04153 2.79206 0
M  V30 588 H 47.8203 0.525133 1.37407 0
M  V30 589 H 49.7783 -1.11263 4.0209 0
M  V30 590 H 48.4083 -1.38939 2.91369 0
M  V30 591 H 47.4603 0.900688 3.69583 0
M  V30 592 H 48.7723 0.966723 4.89342 0
M  V30 593 H 47.9263 -1.13363 5.96015 0
M  V30 594 H 46.6653 -1.28654 4.70425 0
M  V30 595 H 45.6703 0.903298 5.42329 0
M  V30 596 H 46.8953 1.04198 6.71059 0
M  V30 597 H 44.8413 -1.18706 6.45171 0
M  V30 598 H 44.7583 0.143965 7.55863 0
M  V30 599 H 46.0263 -1.03334 7.7262 0
M  V30 600 N 50.2554 -1.46986 0.568584 0
M  V30 601 C 51.1854 -2.32946 -0.160753 0
M  V30 602 C 52.1664 -1.44487 -0.897631 0
M  V30 603 O 53.3514 -1.73327 -0.875867 0
M  V30 604 C 50.4814 -3.26494 -1.18403 0
M  V30 605 C 49.4354 -4.24282 -0.562895 0
M  V30 606 C 48.7614 -5.07236 -1.69163 0
M  V30 607 C 50.0614 -5.19989 0.490761 0
M  V30 608 H 51.7554 -2.94175 0.556916 0
M  V30 609 H 49.3014 -1.4146 0.26927 0
M  V30 610 H 51.2544 -3.85477 -1.70251 0
M  V30 611 H 49.9784 -2.63343 -1.93179 0
M  V30 612 H 48.6374 -3.66541 -0.0656164 0
M  V30 613 H 48.2854 -4.4048 -2.42871 0
M  V30 614 H 47.9854 -5.7345 -1.28174 0
M  V30 615 H 49.5094 -5.6908 -2.21314 0
M  V30 616 H 50.9234 -5.73271 0.0579047 0
M  V30 617 H 49.3204 -5.94469 0.820165 0
M  V30 618 H 50.3904 -4.64777 1.3824 0
M  V30 619 N 51.7335 -0.305618 -1.54608 0
M  V30 620 C 52.9585 0.307562 -2.05107 0
M  V30 621 C 53.3835 1.46385 -1.18123 0
M  V30 622 O 52.7415 1.8034 -0.186324 0
M  V30 623 C 52.7895 0.73704 -3.52987 0
M  V30 624 O 51.8935 1.84134 -3.6901 0
M  V30 625 H 51.2345 0.0589143 -0.661381 0
M  V30 626 H 53.7645 -0.448807 -1.99617 0
M  V30 627 H 53.7745 1.02459 -3.94925 0
M  V30 628 H 52.4495 -0.108773 -4.15758 0
M  V30 629 H 51.0265 1.55398 -3.38978 0
M  V30 630 N 53.2116 1.57565 -0.0334293 0
M  V30 631 C 54.4516 1.93844 0.648379 0
M  V30 632 C 54.8156 0.910387 1.69044 0
M  V30 633 O 56.0166 1.15952 2.42505 0
M  V30 634 C 54.2876 3.35017 1.24492 0
M  V30 635 S 55.8466 3.93229 1.94721 0
M  V30 636 H 52.6646 0.678231 0.213364 0
M  V30 637 H 55.2666 1.95254 -0.0981253 0
M  V30 638 H 53.9706 4.07652 0.474128 0
M  V30 639 H 53.5016 3.37061 2.02864 0
M  V30 640 H 55.5166 3.77014 3.22606 0
M  V30 641 N 54.6897 -0.239769 1.55765 0
M  V30 642 C 55.6227 -1.32356 1.85895 0
M  V30 643 C 56.6007 -1.46053 0.714662 0
M  V30 644 O 57.7847 -1.62154 0.961157 0
M  V30 645 C 54.9117 -2.6962 2.04994 0
M  V30 646 C 53.9577 -2.73036 3.27648 0
M  V30 647 S 54.7907 -2.28929 4.84099 0
M  V30 648 C 55.9467 -3.68103 5.06212 0
M  V30 649 H 56.1797 -1.06601 2.77531 0
M  V30 650 H 53.7127 -0.441112 1.47965 0
M  V30 651 H 55.6707 -3.48653 2.16682 0
M  V30 652 H 54.3317 -2.92609 1.14188 0
M  V30 653 H 53.5247 -3.7386 3.38 0
M  V30 654 H 53.1267 -2.02052 3.14723 0
M  V30 655 H 55.4187 -4.63656 4.93993 0
M  V30 656 H 56.3617 -3.6268 6.08168 0
M  V30 657 H 56.7697 -3.60947 4.34025 0
M  V30 658 N 56.1678 -1.49265 -0.50573 0
M  V30 659 C 57.5788 -1.51769 -1.08734 0
M  V30 660 C 57.9298 -0.301192 -1.93874 0
M  V30 661 O 57.0548 0.589456 -2.08217 0
M  V30 662 C 57.6498 -2.75017 -1.97867 0
M  V30 663 C 56.2088 -2.80314 -2.51199 0
M  V30 664 C 55.3558 -2.4562 -1.28709 0
M  V30 665 H 58.3068 -1.56031 -0.289855 0
M  V30 666 H 58.3278 -2.5491 -2.82491 0
M  V30 667 H 57.8398 -3.63539 -1.35873 0
M  V30 668 H 55.9408 -1.96061 -3.16845 0
M  V30 669 H 56.0538 -3.82366 -2.88675 0
M  V30 670 H 54.4178 -1.97297 -1.61078 0
M  V30 671 H 55.2008 -3.36411 -0.6843 0
M  V30 672 N 57.6459 0.756429 -1.3826 0
M  V30 673 C 59.0569 1.33359 -1.30661 0
M  V30 674 C 59.4079 1.96161 0.0388875 0
M  V30 675 O 58.5329 1.94874 0.940918 0
M  V30 676 C 59.1279 2.42477 -2.36622 0
M  V30 677 C 57.6869 2.95922 -2.3261 0
M  V30 678 C 56.8339 1.69275 -2.19639 0
M  V30 679 H 59.7849 0.55552 -1.4866 0
M  V30 680 H 59.8059 3.22345 -2.02174 0
M  V30 681 H 59.3179 1.96739 -3.34538 0
M  V30 682 H 57.4189 3.45996 -1.38267 0
M  V30 683 H 57.5319 3.50494 -3.26636 0
M  V30 684 H 55.8959 1.92793 -1.66442 0
M  V30 685 H 56.6789 1.25619 -3.19491 0
M  V30 686 N 59.124 1.23083 0.984299 0
M  V30 687 C 60.072 1.00593 2.09723 0
M  V30 688 C 61.066 -0.0538014 1.69315 0
M  V30 689 O 62.272 0.0993719 1.79725 0
M  V30 690 H 58.647 0.30817 0.685956 0
M  V30 691 H 60.618 1.95012 2.2586 0
M  V30 692 C 59.367 0.609601 3.42314 0
M  V30 693 H 58.69 1.41675 3.73856 0
M  V30 694 H 60.13 0.491726 4.21139 0
M  V30 695 C 58.589 -0.681745 3.2993 0
M  V30 696 O 59.119 -1.73192 3.62446 0
M  V30 697 N 57.325 -0.656178 2.83095 0
M  V30 698 H 56.872 0.198759 2.56832 0
M  V30 699 H 56.83 -1.52044 2.75191 0
M  V30 700 N 60.6021 -1.18246 1.0419 0
M  V30 701 C 61.8271 -1.92736 0.765996 0
M  V30 702 C 62.2521 -1.75728 -0.67091 0
M  V30 703 O 61.6101 -1.06825 -1.46486 0
M  V30 704 C 61.6581 -3.42148 1.13875 0
M  V30 705 O 60.7621 -4.11548 0.264954 0
M  V30 706 H 60.1031 -0.601238 0.281797 0
M  V30 707 H 62.6331 -1.49942 1.39207 0
M  V30 708 H 62.6431 -3.92858 1.1012 0
M  V30 709 H 61.3181 -3.53848 2.18551 0
M  V30 710 H 59.8951 -3.71137 0.362226 0
M  V30 711 N 62.0802 -0.821533 -1.34494 0
M  V30 712 C 63.3082 -0.421884 -2.02553 0
M  V30 713 C 63.7232 0.971745 -1.61872 0
M  V30 714 O 63.0802 1.62864 -0.823496 0
M  V30 715 C 63.1312 -0.51285 -3.57844 0
M  V30 716 O 62.8522 -1.85155 -3.97051 0
M  V30 717 C 64.3532 -0.107921 -4.43169 0
M  V30 718 H 61.5732 -0.169482 -0.649243 0
M  V30 719 H 64.1172 -1.1093 -1.71798 0
M  V30 720 H 62.2722 0.126474 -3.87193 0
M  V30 721 H 62.6862 -1.82482 -4.91732 0
M  V30 722 H 64.1602 -0.222657 -5.51551 0
M  V30 723 H 64.6372 0.948401 -4.28838 0
M  V30 724 H 65.2432 -0.720989 -4.19144 0
M  V30 725 N 63.5583 1.46682 -0.576371 0
M  V30 726 C 64.7883 2.06498 -0.0648694 0
M  V30 727 C 65.1963 1.42665 1.24271 0
M  V30 728 O 64.5393 0.523886 1.76071 0
M  V30 729 C 64.6013 3.5904 0.181816 0
M  V30 730 C 64.2653 4.45028 -1.0392 0
M  V30 731 C 65.2623 4.81959 -1.94966 0
M  V30 732 C 62.9473 4.86259 -1.25927 0
M  V30 733 C 64.9413 5.58942 -3.06371 0
M  V30 734 C 62.6283 5.63002 -2.37638 0
M  V30 735 C 63.6263 5.99257 -3.2769 0
M  V30 736 O 63.3143 6.7445 -4.37461 0
M  V30 737 H 63.0463 0.674028 -0.0515987 0
M  V30 738 H 65.6003 1.89393 -0.794951 0
M  V30 739 H 63.8303 3.74429 0.966436 0
M  V30 740 H 65.5193 4.00806 0.641047 0
M  V30 741 H 66.2853 4.50689 -1.79177 0
M  V30 742 H 62.1643 4.57494 -0.567448 0
M  V30 743 H 65.7083 5.87158 -3.76684 0
M  V30 744 H 61.6053 5.93686 -2.53392 0
M  V30 745 H 62.3733 6.92867 -4.35749 0
M  V30 746 N 65.0364 0.313813 1.54444 0
M  V30 747 C 66.3134 -0.345447 1.92525 0
M  V30 748 C 66.6934 -1.70667 1.24242 0
M  V30 749 O 66.0414 -2.25273 0.382654 0
M  V30 750 C 66.2514 -0.44737 3.46121 0
M  V30 751 C 67.5994 -0.712238 4.18584 0
M  V30 752 O 68.6234 -0.530678 3.52225 0
M  V30 753 O 67.4824 -1.06183 5.36085 0
M  V30 754 H 64.5764 -0.195407 0.803583 0
M  V30 755 H 67.1224 0.362813 1.65776 0
M  V30 756 H 65.8944 0.509043 3.87975 0
M  V30 757 H 65.5174 -1.20359 3.78945 0
M  V30 758 N 66.5145 -1.57545 0.0417849 0
M  V30 759 C 67.7445 -1.96339 -0.642995 0
M  V30 760 C 68.1525 -0.917536 -1.65463 0
M  V30 761 O 67.4955 0.107747 -1.83384 0
M  V30 762 C 67.5575 -3.31333 -1.39494 0
M  V30 763 C 67.2215 -4.53796 -0.540204 0
M  V30 764 C 68.2185 -5.19553 0.189806 0
M  V30 765 C 65.9035 -5.0006 -0.473886 0
M  V30 766 C 67.8975 -6.29904 0.974674 0
M  V30 767 C 65.5845 -6.10289 0.314677 0
M  V30 768 C 66.5825 -6.75072 1.03765 0
M  V30 769 O 66.2705 -7.83183 1.81327 0
M  V30 770 H 66.0025 -0.651241 -0.181277 0
M  V30 771 H 68.5565 -2.05148 0.101665 0
M  V30 772 H 66.7865 -3.19052 -2.18502 0
M  V30 773 H 68.4755 -3.54942 -1.96904 0
M  V30 774 H 69.2415 -4.84774 0.147981 0
M  V30 775 H 65.1205 -4.49433 -1.0262 0
M  V30 776 H 68.6645 -6.80401 1.5395 0
M  V30 777 H 64.5615 -6.44506 0.358174 0
M  V30 778 H 65.3295 -7.99913 1.73438 0
M  V30 779 N 67.9926 0.231505 -1.5589 0
M  V30 780 C 69.2396 0.957352 -1.78441 0
M  V30 781 C 69.5676 1.84726 -0.60882 0
M  V30 782 O 68.8226 1.91416 0.40725 0
M  V30 783 C 69.1216 1.83577 -3.0665 0
M  V30 784 C 68.7876 1.09993 -4.37278 0
M  V30 785 C 67.4496 0.896629 -4.72773 0
M  V30 786 C 69.8016 0.579558 -5.17968 0
M  V30 787 C 67.1296 0.160896 -5.86479 0
M  V30 788 C 69.4816 -0.142783 -6.32439 0
M  V30 789 C 68.1456 -0.357427 -6.66542 0
M  V30 790 H 67.4156 0.35032 -0.65296 0
M  V30 791 H 70.0626 0.226259 -1.90159 0
M  V30 792 H 68.3676 2.63441 -2.90011 0
M  V30 793 H 70.0646 2.39934 -3.21298 0
M  V30 794 H 66.6546 1.26835 -4.09403 0
M  V30 795 H 70.8386 0.724125 -4.90989 0
M  V30 796 H 66.0946 -0.0157293 -6.11398 0
M  V30 797 H 70.2686 -0.553559 -6.94196 0
M  V30 798 H 67.8956 -0.929466 -7.54497 0
M  V30 799 N 69.4707 1.49531 0.497807 0
M  V30 800 C 70.4007 1.6935 1.60757 0
M  V30 801 C 71.3817 0.542218 1.61227 0
M  V30 802 O 72.5667 0.778417 1.77917 0
M  V30 803 C 69.6967 1.76298 2.99226 0
M  V30 804 C 68.6507 2.91248 3.13622 0
M  V30 805 C 67.9767 2.83312 4.53474 0
M  V30 806 C 69.2767 4.3214 2.93346 0
M  V30 807 H 70.9707 2.62263 1.44425 0
M  V30 808 H 68.5167 1.26208 0.693367 0
M  V30 809 H 70.4697 1.88749 3.76765 0
M  V30 810 H 69.1937 0.799871 3.16654 0
M  V30 811 H 67.8527 2.78404 2.38509 0
M  V30 812 H 67.5007 1.84902 4.67782 0
M  V30 813 H 67.2007 3.60465 4.64046 0
M  V30 814 H 68.7247 2.97775 5.33069 0
M  V30 815 H 70.1387 4.45649 3.60652 0
M  V30 816 H 68.5357 5.1054 3.15387 0
M  V30 817 H 69.6057 4.46363 1.89441 0
M  V30 818 N 70.9488 -0.749086 1.3866 0
M  V30 819 C 71.8788 -1.8764 1.38973 0
M  V30 820 C 72.8598 -1.68178 0.255004 0
M  V30 821 O 74.0448 -1.88704 0.458754 0
M  V30 822 C 71.1748 -3.25222 1.21851 0
M  V30 823 C 70.1288 -3.59295 2.32575 0
M  V30 824 C 69.4548 -4.95663 2.00555 0
M  V30 825 C 70.7548 -3.63709 3.7485 0
M  V30 826 H 72.4488 -1.87635 2.3331 0
M  V30 827 H 69.9948 -0.901329 1.12303 0
M  V30 828 H 71.9478 -4.03746 1.20695 0
M  V30 829 H 70.6718 -3.25719 0.239775 0
M  V30 830 H 69.3308 -2.83093 2.32925 0
M  V30 831 H 68.9788 -4.92724 1.01154 0
M  V30 832 H 68.6788 -5.19429 2.74714 0
M  V30 833 H 70.2028 -5.7656 2.01024 0
M  V30 834 H 71.6168 -4.32338 3.76506 0
M  V30 835 H 70.0138 -3.98986 4.48252 0
M  V30 836 H 71.0838 -2.63834 4.06841 0
M  V30 837 N 72.4269 -1.23603 -0.977757 0
M  V30 838 C 73.8379 -1.06424 -1.53398 0
M  V30 839 C 74.1889 0.367578 -1.92726 0
M  V30 840 O 73.3139 1.25465 -1.76316 0
M  V30 841 C 73.9089 -1.92568 -2.78753 0
M  V30 842 C 72.4679 -1.79642 -3.30765 0
M  V30 843 C 71.6149 -1.88111 -2.03739 0
M  V30 844 H 74.5659 -1.37227 -0.797152 0
M  V30 845 H 74.5869 -1.45203 -3.51705 0
M  V30 846 H 74.0989 -2.96771 -2.50098 0
M  V30 847 H 72.1999 -0.782325 -3.64294 0
M  V30 848 H 72.3129 -2.63174 -4.00345 0
M  V30 849 H 70.6769 -1.31723 -2.17994 0
M  V30 850 H 71.4599 -2.93875 -1.77461 0
M  V30 851 N 73.905 1.17692 -1.04816 0
M  V30 852 C 74.868 2.19787 -0.650117 0
M  V30 853 C 75.868 1.58044 0.296427 0
M  V30 854 O 77.058 1.74012 0.0808097 0
M  V30 855 C 74.19 3.40869 0.0456987 0
M  V30 856 H 75.383 2.56516 -1.5537 0
M  V30 857 H 72.936 1.31708 -0.841594 0
M  V30 858 H 73.671 3.09681 0.962726 0
M  V30 859 H 73.456 3.86928 -0.634727 0
M  V30 860 H 74.946 4.16445 0.310432 0
M  V30 861 N 75.3831 0.828654 1.34056 0
M  V30 862 C 76.6311 0.41863 1.97717 0
M  V30 863 C 76.9521 -1.02314 1.66002 0
M  V30 864 O 76.2221 -1.71119 0.953683 0
M  V30 865 H 74.8021 0.151809 0.731412 0
M  V30 866 H 77.4641 1.05936 1.63596 0
M  V30 867 H 76.5601 0.542318 3.07352 0
M  V30 868 N 76.8612 -1.46375 0.584142 0
M  V30 869 C 77.7912 -2.33103 -0.136037 0
M  V30 870 C 78.7722 -1.45431 -0.882255 0
M  V30 871 O 79.9572 -1.74246 -0.857434 0
M  V30 872 C 77.0872 -3.27731 -1.14933 0
M  V30 873 C 76.0412 -4.24855 -0.517862 0
M  V30 874 C 75.3672 -5.09001 -1.63773 0
M  V30 875 C 76.6672 -5.19439 0.545886 0
M  V30 876 H 78.3612 -2.93568 0.588086 0
M  V30 877 H 75.9072 -1.41166 0.284259 0
M  V30 878 H 77.8602 -3.87261 -1.66153 0
M  V30 879 H 76.5842 -2.65377 -1.90375 0
M  V30 880 H 75.2432 -3.6659 -0.0267361 0
M  V30 881 H 74.8912 -4.43031 -2.38185 0
M  V30 882 H 74.5912 -5.74777 -1.22085 0
M  V30 883 H 76.1152 -5.71396 -2.15266 0
M  V30 884 H 77.5292 -5.73177 0.118704 0
M  V30 885 H 75.9262 -5.93566 0.88317 0
M  V30 886 H 76.9962 -4.63285 1.43162 0
M  V30 887 N 78.3393 -0.321999 -1.54275 0
M  V30 888 C 79.5643 0.285791 -2.05422 0
M  V30 889 C 79.9893 1.45124 -1.19669 0
M  V30 890 O 79.3473 1.80132 -0.205441 0
M  V30 891 C 79.3953 0.69956 -3.53749 0
M  V30 892 O 78.4993 1.8021 -3.70942 0
M  V30 893 H 77.8403 0.0518962 -0.661969 0
M  V30 894 H 80.3703 -0.469954 -1.9913 0
M  V30 895 H 80.3803 0.982649 -3.9599 0
M  V30 896 H 79.0553 -0.152864 -4.15619 0
M  V30 897 H 77.6323 1.51794 -3.40607 0
M  V30 898 N 79.8174 1.5752 -0.0501392 0
M  V30 899 C 80.7644 2.1147 0.924603 0
M  V30 900 C 81.7344 1.02182 1.30951 0
M  V30 901 O 82.9194 1.29723 1.39916 0
M  V30 902 C 80.0594 2.66337 2.19451 0
M  V30 903 C 79.1724 3.89708 1.86418 0
M  V30 904 C 78.3074 4.32893 3.07859 0
M  V30 905 C 77.3464 5.48967 2.70742 0
M  V30 906 N 76.4834 5.87211 3.84874 0
M  V30 907 H 81.3234 2.94465 0.457639 0
M  V30 908 H 78.8604 1.45531 0.214266 0
M  V30 909 H 80.8184 2.96247 2.93758 0
M  V30 910 H 79.4484 1.86141 2.63726 0
M  V30 911 H 78.5004 3.66396 1.02264 0
M  V30 912 H 79.8124 4.74074 1.55096 0
M  V30 913 H 78.9664 4.6435 3.90466 0
M  V30 914 H 77.7054 3.47336 3.42358 0
M  V30 915 H 76.7104 5.17183 1.86551 0
M  V30 916 H 77.9354 6.3624 2.37436 0
M  V30 917 H 75.8814 5.04607 4.19175 0
M  V30 918 H 75.7984 6.66266 3.57247 0
M  V30 919 H 77.0664 6.23282 4.68123 0
M  V30 920 N 81.2955 -0.223234 1.56011 0
M  V30 921 C 82.2435 -1.29627 1.93131 0
M  V30 922 C 83.2375 -1.48608 0.813146 0
M  V30 923 O 84.4435 -1.49802 0.997966 0
M  V30 924 H 80.8185 -0.434563 0.613726 0
M  V30 925 H 82.7895 -0.955995 2.82672 0
M  V30 926 C 81.5385 -2.63983 2.26292 0
M  V30 927 H 80.8615 -2.50185 3.11846 0
M  V30 928 H 82.3015 -3.3788 2.56151 0
M  V30 929 C 80.7605 -3.18866 1.08747 0
M  V30 930 O 81.2905 -4.00192 0.347727 0
M  V30 931 N 79.4965 -2.77217 0.871743 0
M  V30 932 H 79.0435 -2.1119 1.47501 0
M  V30 933 H 79.0015 -3.1428 0.0869905 0
M  V30 934 N 82.7736 -1.49793 -0.48987 0
M  V30 935 C 84.0016 -1.63568 -1.26701 0
M  V30 936 C 84.4166 -0.311465 -1.86213 0
M  V30 937 O 83.7736 0.704416 -1.68357 0
M  V30 938 C 83.8246 -2.71284 -2.38929 0
M  V30 939 O 83.5456 -3.9857 -1.81861 0
M  V30 940 C 85.0466 -2.95864 -3.3012 0
M  V30 941 H 82.2666 -0.550342 -0.383881 0
M  V30 942 H 84.8106 -1.95898 -0.586864 0
M  V30 943 H 82.9656 -2.417 -3.02753 0
M  V30 944 H 83.3796 -4.57993 -2.55622 0
M  V30 945 H 84.8536 -3.74941 -4.05121 0
M  V30 946 H 85.3306 -2.06206 -3.87783 0
M  V30 947 H 85.9366 -3.26907 -2.72051 0
M  V30 948 N 84.2517 0.741722 -1.39055 0
M  V30 949 C 85.4767 1.53607 -1.39354 0
M  V30 950 C 85.9017 1.88096 0.0116905 0
M  V30 951 O 85.2597 1.5143 0.996924 0
M  V30 952 C 85.3077 2.80441 -2.26682 0
M  V30 953 O 84.4117 3.76088 -1.69208 0
M  V30 954 H 83.7527 0.464142 -0.474835 0
M  V30 955 H 86.2827 0.915665 -1.82967 0
M  V30 956 H 86.2927 3.29246 -2.40959 0
M  V30 957 H 84.9677 2.5467 -3.2881 0
M  V30 958 H 83.5447 3.34833 -1.64138 0
M  V30 959 N 85.7298 1.2412 0.971189 0
M  V30 960 C 86.6778 1.02812 2.08644 0
M  V30 961 C 87.6718 -0.0358403 1.69362 0
M  V30 962 O 88.8778 0.118429 1.7961 0
M  V30 963 H 85.2528 0.315428 0.682649 0
M  V30 964 H 87.2238 1.97397 2.23779 0
M  V30 965 C 85.9728 0.645874 3.41649 0
M  V30 966 H 85.2958 1.45632 3.72332 0
M  V30 967 H 86.7358 0.536366 4.20594 0
M  V30 968 C 85.1948 -0.646713 3.30635 0
M  V30 969 O 85.7248 -1.69338 3.64263 0
M  V30 970 N 83.9308 -0.626115 2.83775 0
M  V30 971 H 83.4778 0.225988 2.56607 0
M  V30 972 H 83.4358 -1.49117 2.76788 0
M  V30 973 N 87.2079 -1.17134 1.05439 0
M  V30 974 C 88.4329 -1.91913 0.786396 0
M  V30 975 C 88.8579 -1.7643 -0.652234 0
M  V30 976 O 88.2159 -1.08372 -1.45345 0
M  V30 977 C 88.2639 -3.40921 1.17497 0
M  V30 978 O 87.3679 -4.11244 0.308589 0
M  V30 979 H 86.7089 -0.598215 0.288158 0
M  V30 980 H 89.2389 -1.48457 1.4079 0
M  V30 981 H 89.2489 -3.91668 1.14281 0
M  V30 982 H 87.9239 -3.5151 2.22292 0
M  V30 983 H 86.5009 -3.70731 0.40157 0
M  V30 984 N 88.686 -0.835752 -1.33615 0
M  V30 985 C 89.634 -0.255238 -2.31195 0
M  V30 986 C 90.628 0.61107 -1.57995 0
M  V30 987 O 91.834 0.500979 -1.72888 0
M  V30 988 H 88.209 -0.0638085 -0.749288 0
M  V30 989 H 90.18 -1.09283 -2.77669 0
M  V30 990 C 88.929 0.55754 -3.43201 0
M  V30 991 H 88.252 -0.0997553 -3.99676 0
M  V30 992 H 89.692 0.929622 -4.13683 0
M  V30 993 C 88.151 1.73515 -2.88781 0
M  V30 994 O 88.681 2.83376 -2.84712 0
M  V30 995 N 86.887 1.55603 -2.4543 0
M  V30 996 H 86.434 0.662354 -2.48939 0
M  V30 997 H 86.392 2.34545 -2.09371 0
M  V30 998 N 90.1641 1.46063 -0.591896 0
M  V30 999 C 91.4121 2.01938 -0.0808391 0
M  V30 1000 C 91.7331 1.46475 1.28725 0
M  V30 1001 O 91.0031 0.652944 1.84698 0
M  V30 1002 H 89.5831 0.746516 -0.0268938 0
M  V30 1003 H 92.2451 1.79055 -0.769752 0
M  V30 1004 H 91.3411 3.12094 -0.0187578 0
M  V30 1005 N 91.6422 0.330177 1.54103 0
M  V30 1006 C 92.5922 -0.548456 2.21305 0
M  V30 1007 C 93.5762 -1.07651 1.19583 0
M  V30 1008 O 94.7682 -1.01243 1.45186 0
M  V30 1009 C 91.8972 -1.70559 2.97934 0
M  V30 1010 C 90.9832 -1.19212 4.07 0
M  V30 1011 N 91.3742 -0.398831 5.04225 0
M  V30 1012 C 89.6722 -1.47024 4.2107 0
M  V30 1013 C 90.3732 -0.121761 5.81573 0
M  V30 1014 N 89.3492 -0.709722 5.38947 0
M  V30 1015 H 93.1512 0.0648483 2.93828 0
M  V30 1016 H 90.6652 0.136363 1.61826 0
M  V30 1017 H 92.6622 -2.34688 3.44568 0
M  V30 1018 H 91.3222 -2.32231 2.26934 0
M  V30 1019 H 92.3332 -0.0410869 5.17884 0
M  V30 1020 H 89.0102 -2.09232 3.61287 0
M  V30 1021 H 90.4002 0.517298 6.69906 0
M  V30 1022 N 93.1203 -1.57491 0.0584922 0
M  V30 1023 C 94.3503 -1.9701 -0.622134 0
M  V30 1024 C 94.7583 -0.935034 -1.6448 0
M  V30 1025 O 94.1013 0.0882904 -1.83488 0
M  V30 1026 C 94.1633 -3.32794 -1.35972 0
M  V30 1027 C 93.8273 -4.54343 -0.492043 0
M  V30 1028 C 94.8243 -5.19323 0.244901 0
M  V30 1029 C 92.5093 -5.00534 -0.420821 0
M  V30 1030 C 94.5033 -6.28835 1.04143 0
M  V30 1031 C 92.1903 -6.09921 0.379389 0
M  V30 1032 C 93.1883 -6.73933 1.10919 0
M  V30 1033 O 92.8763 -7.81216 1.89623 0
M  V30 1034 H 92.6083 -0.653127 -0.174359 0
M  V30 1035 H 95.1623 -2.05029 0.123418 0
M  V30 1036 H 93.3923 -3.21351 -2.15105 0
M  V30 1037 H 95.0813 -3.5701 -1.93129 0
M  V30 1038 H 95.8473 -4.8459 0.19939 0
M  V30 1039 H 91.7263 -4.50496 -0.978474 0
M  V30 1040 H 95.2703 -6.7873 1.61157 0
M  V30 1041 H 91.1673 -6.44089 0.426512 0
M  V30 1042 H 91.9353 -7.98029 1.81913 0
M  V30 1043 N 94.5984 0.214957 -1.56127 0
M  V30 1044 C 95.5084 1.28727 -1.96129 0
M  V30 1045 C 96.5244 1.50916 -0.866044 0
M  V30 1046 O 97.7004 1.63918 -1.17016 0
M  V30 1047 C 94.7654 2.61569 -2.27558 0
M  V30 1048 C 93.8264 2.47625 -3.50685 0
M  V30 1049 C 93.0594 3.74132 -3.80606 0
M  V30 1050 O 93.2824 4.77438 -3.12104 0
M  V30 1051 O 92.2164 3.70849 -4.74083 0
M  V30 1052 H 96.0424 0.977855 -2.87527 0
M  V30 1053 H 93.6274 0.418358 -1.43423 0
M  V30 1054 H 95.5094 3.40012 -2.48938 0
M  V30 1055 H 94.1844 2.92178 -1.39332 0
M  V30 1056 H 93.0914 1.67361 -3.34576 0
M  V30 1057 H 94.4244 2.21954 -4.39315 0
M  V30 1058 N 96.0765 1.50051 0.48192 0
M  V30 1059 C 97.3045 1.64237 1.25832 0
M  V30 1060 C 97.7195 0.321336 1.86045 0
M  V30 1061 O 97.0765 -0.695478 1.68729 0
M  V30 1062 C 97.1275 2.72548 2.37487 0
M  V30 1063 O 96.8485 3.99529 1.79745 0
M  V30 1064 C 98.3495 2.9761 3.28547 0
M  V30 1065 H 95.5695 0.55237 0.380957 0
M  V30 1066 H 98.1135 1.96207 0.576467 0
M  V30 1067 H 96.2685 2.43303 3.01467 0
M  V30 1068 H 96.6825 4.59342 2.5319 0
M  V30 1069 H 98.1565 3.77084 4.03127 0
M  V30 1070 H 98.6335 2.0826 3.86684 0
M  V30 1071 H 99.2395 3.28345 2.70314 0
M  V30 1072 N 97.5546 -0.734337 1.39446 0
M  V30 1073 C 98.5176 -1.83004 1.37994 0
M  V30 1074 C 99.5176 -1.58397 0.276938 0
M  V30 1075 O 100.708 -1.65785 0.534875 0
M  V30 1076 C 97.8396 -3.20802 1.1532 0
M  V30 1077 H 99.0326 -1.85694 2.35494 0
M  V30 1078 H 96.5856 -0.938059 1.25021 0
M  V30 1079 H 97.3206 -3.23772 0.185036 0
M  V30 1080 H 97.1056 -3.4006 1.95197 0
M  V30 1081 H 98.5956 -4.00862 1.17046 0
M  V30 1082 N 99.0327 -1.24633 -0.964593 0
M  V30 1083 C 100.279 -1.08949 -1.71049 0
M  V30 1084 C 100.612 0.370302 -1.90637 0
M  V30 1085 O 99.8867 1.27349 -1.47011 0
M  V30 1086 C 100.17 -1.83329 -3.0994 0
M  V30 1087 C 100.023 -3.37077 -2.97824 0
M  V30 1088 C 101.342 -1.60846 -4.09654 0
M  V30 1089 H 98.4607 -0.397178 -0.620821 0
M  V30 1090 H 101.103 -1.5334 -1.12191 0
M  V30 1091 H 99.2527 -1.45597 -3.60186 0
M  V30 1092 H 100.925 -3.84425 -2.5498 0
M  V30 1093 H 99.1677 -3.65298 -2.33965 0
M  V30 1094 H 99.8387 -3.84324 -3.96231 0
M  V30 1095 H 102.315 -1.93674 -3.68279 0
M  V30 1096 H 101.191 -2.1534 -5.04896 0
M  V30 1097 H 101.452 -0.547434 -4.38698 0
M  V30 1098 N 100.511 1.16574 -1.06058 0
M  V30 1099 C 101.421 2.2452 -0.680282 0
M  V30 1100 C 102.437 1.71348 0.302604 0
M  V30 1101 O 103.613 2.00822 0.152513 0
M  V30 1102 C 100.678 3.46629 -0.0700315 0
M  V30 1103 C 99.7388 4.14849 -1.10448 0
M  V30 1104 C 98.9718 5.31129 -0.523256 0
M  V30 1105 O 99.1948 5.66514 0.664709 0
M  V30 1106 O 98.1288 5.88526 -1.26179 0
M  V30 1107 H 101.955 2.59355 -1.58015 0
M  V30 1108 H 99.5398 1.24043 -0.832694 0
M  V30 1109 H 101.422 4.20543 0.268667 0
M  V30 1110 H 100.097 3.13573 0.803353 0
M  V30 1111 H 99.0038 3.42916 -1.49532 0
M  V30 1112 H 100.337 4.51954 -1.94931 0
M  V30 1113 N 101.989 0.842826 1.3317 0
M  V30 1114 C 103.4 0.496651 1.79973 0
M  V30 1115 C 103.751 -0.984641 1.69703 0
M  V30 1116 O 102.876 -1.76743 1.24863 0
M  V30 1117 C 103.471 0.894727 3.26772 0
M  V30 1118 C 102.03 0.600629 3.71577 0
M  V30 1119 C 101.177 1.10091 2.5451 0
M  V30 1120 H 104.128 1.03116 1.20635 0
M  V30 1121 H 104.149 0.206347 3.7994 0
M  V30 1122 H 103.661 1.97287 3.34215 0
M  V30 1123 H 101.762 -0.467284 3.69658 0
M  V30 1124 H 101.875 1.15863 4.64879 0
M  V30 1125 H 100.239 0.52162 2.49301 0
M  V30 1126 H 101.022 2.18591 2.64713 0
M  V30 1127 N 103.467 -1.45747 0.599634 0
M  V30 1128 C 104.414 -2.30467 -0.123849 0
M  V30 1129 C 105.384 -1.41632 -0.86774 0
M  V30 1130 O 106.569 -1.70568 -0.855056 0
M  V30 1131 C 103.709 -3.26402 -1.12051 0
M  V30 1132 C 102.822 -4.3034 -0.37832 0
M  V30 1133 C 101.957 -5.13389 -1.364 0
M  V30 1134 C 100.996 -6.09061 -0.609171 0
M  V30 1135 N 100.133 -6.84918 -1.54374 0
M  V30 1136 H 104.973 -2.91802 0.604627 0
M  V30 1137 H 102.51 -1.43797 0.309972 0
M  V30 1138 H 104.468 -3.80482 -1.7114 0
M  V30 1139 H 103.098 -2.66839 -1.8165 0
M  V30 1140 H 102.15 -3.78984 0.327929 0
M  V30 1141 H 103.462 -4.98354 0.210997 0
M  V30 1142 H 102.616 -5.7183 -2.02719 0
M  V30 1143 H 101.355 -4.45376 -1.98725 0
M  V30 1144 H 100.36 -5.49758 0.0676979 0
M  V30 1145 H 101.585 -6.79099 0.00891991 0
M  V30 1146 H 99.531 -6.19601 -2.15478 0
M  V30 1147 H 99.448 -7.49254 -1.00766 0
M  V30 1148 H 100.716 -7.47906 -2.19676 0
M  V30 1149 N 104.945 -0.338344 -1.53925 0
M  V30 1150 C 106.192 0.259758 -2.00827 0
M  V30 1151 C 106.52 1.50973 -1.22628 0
M  V30 1152 O 105.775 1.93379 -0.300509 0
M  V30 1153 C 106.074 0.62448 -3.51902 0
M  V30 1154 C 105.74 -0.528006 -4.47798 0
M  V30 1155 C 104.402 -0.844298 -4.73735 0
M  V30 1156 C 106.754 -1.30143 -5.0469 0
M  V30 1157 C 104.082 -1.93648 -5.53821 0
M  V30 1158 C 106.434 -2.38382 -5.85967 0
M  V30 1159 C 105.098 -2.70576 -6.10201 0
M  V30 1160 H 104.368 0.0950523 -0.734878 0
M  V30 1161 H 107.015 -0.465182 -1.85764 0
M  V30 1162 H 105.32 1.43006 -3.64769 0
M  V30 1163 H 107.017 1.09905 -3.85645 0
M  V30 1164 H 103.607 -0.271421 -4.2774 0
M  V30 1165 H 107.791 -1.07033 -4.84621 0
M  V30 1166 H 103.047 -2.19021 -5.70824 0
M  V30 1167 H 107.221 -2.98746 -6.29066 0
M  V30 1168 H 104.848 -3.55333 -6.72044 0
M  V30 1169 N 106.423 1.57458 -0.0668435 0
M  V30 1170 C 107.371 2.13639 0.919851 0
M  V30 1171 C 108.365 1.07204 1.31163 0
M  V30 1172 O 109.571 1.25591 1.28945 0
M  V30 1173 H 105.946 0.683048 0.314562 0
M  V30 1174 H 107.917 2.95415 0.421047 0
M  V30 1175 C 106.666 2.70892 2.17975 0
M  V30 1176 H 105.989 3.5246 1.88711 0
M  V30 1177 H 107.429 3.13803 2.85138 0
M  V30 1178 C 105.888 1.65414 2.93496 0
M  V30 1179 O 106.418 1.07619 3.87015 0
M  V30 1180 N 104.624 1.36564 2.56512 0
M  V30 1181 H 104.171 1.83751 1.80536 0
M  V30 1182 H 104.129 0.66223 3.07347 0
M  V30 1183 N 107.901 -0.206675 1.56239 0
M  V30 1184 C 109.126 -0.949474 1.8439 0
M  V30 1185 C 109.551 -1.76549 0.649016 0
M  V30 1186 O 108.909 -1.76782 -0.402231 0
M  V30 1187 C 108.957 -1.83078 3.10668 0
M  V30 1188 O 108.061 -2.9281 2.90407 0
M  V30 1189 H 107.402 -0.268033 0.607499 0
M  V30 1190 H 109.932 -0.215488 2.03462 0
M  V30 1191 H 109.942 -2.2377 3.41161 0
M  V30 1192 H 108.617 -1.23112 3.97261 0
M  V30 1193 H 107.194 -2.55956 2.71184 0
M  V30 1194 N 109.379 -1.50304 -0.473955 0
M  V30 1195 C 110.604 -1.65175 -1.25427 0
M  V30 1196 C 111.029 -0.333673 -1.85117 0
M  V30 1197 O 110.387 0.702114 -1.67153 0
M  V30 1198 C 110.435 -2.74295 -2.34082 0
M  V30 1199 O 109.539 -2.35349 -3.38651 0
M  V30 1200 H 108.88 -0.551944 -0.369126 0
M  V30 1201 H 111.41 -1.96662 -0.564364 0
M  V30 1202 H 111.42 -2.97285 -2.79438 0
M  V30 1203 H 110.095 -3.69959 -1.90008 0
M  V30 1204 H 108.672 -2.22794 -2.99027 0
M  V30 1205 N 110.857 0.726932 -1.39834 0
M  V30 1206 C 112.105 1.4837 -1.37225 0
M  V30 1207 C 112.426 1.94979 0.0284857 0
M  V30 1208 O 111.696 1.69555 0.981213 0
M  V30 1209 H 110.276 0.55043 -0.505011 0
M  V30 1210 H 112.938 0.862468 -1.74778 0
M  V30 1211 H 112.034 2.36198 -2.04003 0
M  V30 1212 N 112.336 1.25143 0.95797 0
M  V30 1213 C 113.564 1.12424 1.73691 0
M  V30 1214 C 113.979 -0.322304 1.86029 0
M  V30 1215 O 113.336 -1.22186 1.35561 0
M  V30 1216 C 113.387 1.76933 3.15241 0
M  V30 1217 O 113.108 3.15932 3.03511 0
M  V30 1218 C 114.609 1.6995 4.09429 0
M  V30 1219 H 111.829 0.3923 0.544373 0
M  V30 1220 H 114.373 1.6544 1.20207 0
M  V30 1221 H 112.528 1.27895 3.6568 0
M  V30 1222 H 112.942 3.47598 3.9278 0
M  V30 1223 H 114.416 2.19753 5.06372 0
M  V30 1224 H 114.893 0.662619 4.34173 0
M  V30 1225 H 115.499 2.18461 3.64904 0
M  V30 1226 N 113.814 -1.1601 1.06675 0
M  V30 1227 C 114.764 -2.18512 0.650888 0
M  V30 1228 C 115.748 -1.57677 -0.320441 0
M  V30 1229 O 116.94 -1.76482 -0.135266 0
M  V30 1230 C 114.069 -3.43273 0.0429255 0
M  V30 1231 C 113.155 -4.11176 1.03898 0
M  V30 1232 N 113.546 -4.54672 2.216 0
M  V30 1233 C 111.844 -4.37417 0.870779 0
M  V30 1234 C 112.545 -5.07248 2.84736 0
M  V30 1235 N 111.521 -5.0037 2.12441 0
M  V30 1236 H 115.323 -2.49863 1.54745 0
M  V30 1237 H 112.837 -1.32503 0.938975 0
M  V30 1238 H 114.834 -4.16006 -0.272857 0
M  V30 1239 H 113.494 -3.13408 -0.84884 0
M  V30 1240 H 114.505 -4.4828 2.59356 0
M  V30 1241 H 111.182 -4.17488 0.0313293 0
M  V30 1242 H 112.572 -5.50912 3.84636 0
M  V30 1243 N 115.292 -0.849877 -1.32721 0
M  V30 1244 C 116.539 -0.450923 -1.97416 0
M  V30 1245 C 116.867 0.992376 -1.67279 0
M  V30 1246 O 116.122 1.71048 -0.950845 0
M  V30 1247 C 116.421 -0.631272 -3.51781 0
M  V30 1248 C 116.087 -2.04432 -4.01894 0
M  V30 1249 C 114.749 -2.4308 -4.1529 0
M  V30 1250 C 117.101 -2.96679 -4.28522 0
M  V30 1251 C 114.429 -3.73257 -4.52654 0
M  V30 1252 C 116.781 -4.26349 -4.67343 0
M  V30 1253 C 115.445 -4.64939 -4.78945 0
M  V30 1254 H 114.715 -0.165004 -0.722395 0
M  V30 1255 H 117.362 -1.07901 -1.58207 0
M  V30 1256 H 115.667 0.0800767 -3.91718 0
M  V30 1257 H 117.364 -0.302709 -3.99856 0
M  V30 1258 H 113.954 -1.73419 -3.91949 0
M  V30 1259 H 118.138 -2.68054 -4.17685 0
M  V30 1260 H 113.394 -4.02946 -4.59831 0
M  V30 1261 H 117.568 -4.97895 -4.86902 0
M  V30 1262 H 115.195 -5.65855 -5.07654 0
M  V30 1263 N 116.77 1.45427 -0.607355 0
M  V30 1264 C 117.995 2.07124 -0.107006 0
M  V30 1265 C 118.42 1.44906 1.19933 0
M  V30 1266 O 117.778 0.541687 1.73019 0
M  V30 1267 C 117.826 3.60595 0.0194119 0
M  V30 1268 O 116.93 3.98285 1.0697 0
M  V30 1269 H 116.271 0.659868 -0.0739597 0
M  V30 1270 H 118.801 1.86683 -0.837297 0
M  V30 1271 H 118.811 4.07419 0.2177 0
M  V30 1272 H 117.486 4.05266 -0.934453 0
M  V30 1273 H 116.063 3.63133 0.847889 0
M  V30 1274 N 118.248 0.346503 1.53744 0
M  V30 1275 C 119.196 -0.52422 2.26616 0
M  V30 1276 C 120.19 -1.09948 1.28871 0
M  V30 1277 O 121.396 -1.04488 1.46568 0
M  V30 1278 H 117.771 -0.187743 0.728187 0
M  V30 1279 H 119.742 0.11239 2.98188 0
M  V30 1280 C 118.491 -1.66186 3.05414 0
M  V30 1281 H 117.814 -1.22848 3.80458 0
M  V30 1282 H 119.254 -2.24622 3.59612 0
M  V30 1283 C 117.713 -2.59302 2.1509 0
M  V30 1284 O 118.243 -3.61628 1.74895 0
M  V30 1285 N 116.449 -2.28055 1.8011 0
M  V30 1286 H 115.996 -1.44883 2.12994 0
M  V30 1287 H 115.954 -2.90615 1.19958 0
M  V30 1288 N 119.726 -1.57421 0.075193 0
M  V30 1289 C 120.656 -2.15942 -0.888324 0
M  V30 1290 C 121.637 -1.08737 -1.30806 0
M  V30 1291 O 122.822 -1.36787 -1.37851 0
M  V30 1292 C 119.952 -2.72379 -2.1547 0
M  V30 1293 C 118.906 -3.8478 -1.87425 0
M  V30 1294 C 118.232 -4.27834 -3.20721 0
M  V30 1295 C 119.532 -5.08869 -1.17684 0
M  V30 1296 H 121.226 -2.96705 -0.400799 0
M  V30 1297 H 118.772 -1.42723 -0.191342 0
M  V30 1298 H 120.725 -3.11965 -2.83295 0
M  V30 1299 H 119.449 -1.88841 -2.6647 0
M  V30 1300 H 118.108 -3.45703 -1.22004 0
M  V30 1301 H 117.756 -3.41214 -3.6957 0
M  V30 1302 H 117.456 -5.03605 -3.02746 0
M  V30 1303 H 118.98 -4.70039 -3.89738 0
M  V30 1304 H 120.394 -5.4575 -1.75584 0
M  V30 1305 H 118.791 -5.8994 -1.09956 0
M  V30 1306 H 119.861 -4.84648 -0.156453 0
M  V30 1307 N 121.204 0.198386 -1.56346 0
M  V30 1308 C 122.429 0.939682 -1.84891 0
M  V30 1309 C 122.854 1.76202 -0.658369 0
M  V30 1310 O 122.212 1.76993 0.392851 0
M  V30 1311 C 122.26 1.81428 -3.11635 0
M  V30 1312 O 121.364 2.91265 -2.91956 0
M  V30 1313 H 120.705 0.264807 -0.608912 0
M  V30 1314 H 123.235 0.204695 -2.03573 0
M  V30 1315 H 123.245 2.21958 -3.42343 0
M  V30 1316 H 121.92 1.21004 -3.97908 0
M  V30 1317 H 120.497 2.54514 -2.72538 0
M  V30 1318 N 122.682 1.50554 0.465978 0
M  V30 1319 C 123.629 1.6979 1.56333 0
M  V30 1320 C 124.599 0.539239 1.57103 0
M  V30 1321 O 125.784 0.770401 1.74555 0
M  V30 1322 C 122.924 1.80273 2.94271 0
M  V30 1323 C 122.037 3.07674 3.0325 0
M  V30 1324 C 121.172 3.08922 4.32135 0
M  V30 1325 C 120.211 4.30755 4.34875 0
M  V30 1326 N 119.348 4.29714 5.55239 0
M  V30 1327 H 124.188 2.63472 1.39235 0
M  V30 1328 H 121.725 1.30602 0.676873 0
M  V30 1329 H 123.683 1.84332 3.74269 0
M  V30 1330 H 122.313 0.900258 3.09992 0
M  V30 1331 H 121.365 3.13062 2.16094 0
M  V30 1332 H 122.677 3.97642 3.01135 0
M  V30 1333 H 121.831 3.11738 5.20485 0
M  V30 1334 H 120.57 2.16792 4.36866 0
M  V30 1335 H 119.575 4.28146 3.44922 0
M  V30 1336 H 120.8 5.24117 4.31831 0
M  V30 1337 H 118.746 3.4044 5.60746 0
M  V30 1338 H 118.663 5.13456 5.54886 0
M  V30 1339 H 119.931 4.36683 6.457 0
M  V30 1340 N 124.16 -0.719506 1.40217 0
M  V30 1341 C 125.388 -1.50864 1.41589 0
M  V30 1342 C 125.803 -1.88794 0.0145275 0
M  V30 1343 O 125.16 -1.55174 -0.960594 0
M  V30 1344 C 125.211 -2.78646 2.30302 0
M  V30 1345 O 124.932 -2.42321 3.64983 0
M  V30 1346 C 126.433 -3.72569 2.40224 0
M  V30 1347 H 123.653 -0.465709 0.48307 0
M  V30 1348 H 126.197 -0.88785 1.84221 0
M  V30 1349 H 124.352 -3.37019 1.91042 0
M  V30 1350 H 124.766 -3.24514 4.12057 0
M  V30 1351 H 126.24 -4.5908 3.06512 0
M  V30 1352 H 126.717 -4.15403 1.42608 0
M  V30 1353 H 127.323 -3.20109 2.80019 0
M  V30 1354 N 125.638 -1.25649 -0.95132 0
M  V30 1355 C 126.866 -1.13343 -1.73092 0
M  V30 1356 C 127.281 0.312434 -1.86197 0
M  V30 1357 O 126.638 1.21465 -1.36207 0
M  V30 1358 C 126.689 -1.78602 -3.14299 0
M  V30 1359 O 126.41 -3.17537 -3.01831 0
M  V30 1360 C 127.911 -1.72119 -4.08522 0
M  V30 1361 H 125.131 -0.395181 -0.542285 0
M  V30 1362 H 127.675 -1.66076 -1.19328 0
M  V30 1363 H 125.83 -1.29832 -3.64996 0
M  V30 1364 H 126.244 -3.49676 -3.90931 0
M  V30 1365 H 127.718 -2.22435 -5.052 0
M  V30 1366 H 128.195 -0.685635 -4.33815 0
M  V30 1367 H 128.801 -2.20393 -3.63741 0
M  V30 1368 N 127.117 1.15442 -1.07289 0
M  V30 1369 C 128.364 1.86213 -0.795668 0
M  V30 1370 C 128.692 1.82291 0.678238 0
M  V30 1371 O 127.947 1.24057 1.51355 0
M  V30 1372 C 128.246 3.3489 -1.24834 0
M  V30 1373 C 127.912 3.59007 -2.72809 0
M  V30 1374 C 126.574 3.65298 -3.13227 0
M  V30 1375 C 128.926 3.68762 -3.68326 0
M  V30 1376 C 126.254 3.78854 -4.4798 0
M  V30 1377 C 128.606 3.83842 -5.0284 0
M  V30 1378 C 127.27 3.88378 -5.4288 0
M  V30 1379 H 126.54 0.681403 -0.291155 0
M  V30 1380 H 129.187 1.36435 -1.34379 0
M  V30 1381 H 127.492 3.8687 -0.619595 0
M  V30 1382 H 129.189 3.88052 -1.01076 0
M  V30 1383 H 125.779 3.5475 -2.40521 0
M  V30 1384 H 129.963 3.63202 -3.38227 0
M  V30 1385 H 125.219 3.80623 -4.78472 0
M  V30 1386 H 129.393 3.90332 -5.76727 0
M  V30 1387 H 127.02 3.98635 -6.47298 0
M  V30 1388 N 128.595 0.856903 1.32268 0
M  V30 1389 C 129.545 0.274899 2.26337 0
M  V30 1390 C 130.529 -0.580543 1.50062 0
M  V30 1391 O 131.721 -0.429559 1.71708 0
M  V30 1392 C 128.85 -0.533841 3.39124 0
M  V30 1393 C 127.936 0.334114 4.22782 0
M  V30 1394 N 128.327 1.42143 4.85416 0
M  V30 1395 C 126.625 0.124256 4.45827 0
M  V30 1396 C 127.326 1.95559 5.47843 0
M  V30 1397 N 126.302 1.25444 5.28928 0
M  V30 1398 H 130.104 1.10612 2.72291 0
M  V30 1399 H 127.618 0.703258 1.46383 0
M  V30 1400 H 129.615 -0.96722 4.05525 0
M  V30 1401 H 128.275 -1.36283 2.94715 0
M  V30 1402 H 129.286 1.80436 4.85451 0
M  V30 1403 H 125.963 -0.669837 4.12092 0
M  V30 1404 H 127.353 2.86714 6.07655 0
M  V30 1405 N 130.073 -1.45103 0.615059 0
M  V30 1406 C 131.313 -2.04069 0.116282 0
M  V30 1407 C 131.677 -1.4721 -1.2326 0
M  V30 1408 O 132.878 -1.97577 -1.82255 0
M  V30 1409 C 131.149 -3.57298 0.085482 0
M  V30 1410 S 132.708 -4.37394 -0.351015 0
M  V30 1411 H 129.526 -0.709006 0.0532183 0
M  V30 1412 H 132.128 -1.77709 0.81484 0
M  V30 1413 H 130.832 -3.9619 1.0706 0
M  V30 1414 H 130.363 -3.88244 -0.634835 0
M  V30 1415 H 132.378 -4.69734 -1.59889 0
M  V30 1416 N 131.551 -0.354651 -1.53558 0
M  V30 1417 C 132.791 0.238651 -2.03002 0
M  V30 1418 C 133.155 1.46878 -1.23656 0
M  V30 1419 O 134.356 2.13699 -1.63053 0
M  V30 1420 C 132.627 0.534175 -3.53386 0
M  V30 1421 S 134.186 1.10271 -4.24719 0
M  V30 1422 H 131.004 0.0702908 -0.707517 0
M  V30 1423 H 133.606 -0.494987 -1.8913 0
M  V30 1424 H 132.31 -0.368765 -4.0874 0
M  V30 1425 H 131.841 1.29718 -3.71398 0
M  V30 1426 H 133.856 2.38772 -4.34974 0
M  V30 1427 N 133.029 1.57378 -0.0835403 0
M  V30 1428 C 134.276 1.9393 0.58287 0
M  V30 1429 C 134.604 0.964455 1.68904 0
M  V30 1430 O 133.859 -0.0179474 1.95692 0
M  V30 1431 C 134.158 3.37063 1.1884 0
M  V30 1432 C 133.824 4.50424 0.207194 0
M  V30 1433 C 132.486 4.81159 -0.0627115 0
M  V30 1434 C 134.838 5.19136 -0.463426 0
M  V30 1435 C 132.166 5.77939 -1.01012 0
M  V30 1436 C 134.518 6.16931 -1.39924 0
M  V30 1437 C 133.182 6.46078 -1.67749 0
M  V30 1438 H 132.452 0.70964 0.213287 0
M  V30 1439 H 135.099 1.90856 -0.156916 0
M  V30 1440 H 133.404 3.3666 2.00418 0
M  V30 1441 H 135.101 3.6264 1.71153 0
M  V30 1442 H 131.691 4.2646 0.427747 0
M  V30 1443 H 135.875 4.95576 -0.268034 0
M  V30 1444 H 131.131 5.98842 -1.23283 0
M  V30 1445 H 135.305 6.69273 -1.92476 0
M  V30 1446 H 132.932 7.2088 -2.41321 0
M  V30 1447 N 134.507 -0.190092 1.56449 0
M  V30 1448 C 135.923 -0.54113 1.50146 0
M  V30 1449 C 136.123 -1.85603 0.784465 0
M  V30 1450 O 135.179 -2.5024 0.337051 0
M  V30 1451 C 136.492 -0.591241 2.9483 0
M  V30 1452 C 138.04 -0.679732 3.0553 0
M  V30 1453 C 138.515 -0.760908 4.51635 0
M  V30 1454 N 140.006 -0.824302 4.55806 0
M  V30 1455 C 140.741 -0.907365 5.66175 0
M  V30 1456 N 140.237 -0.952422 6.86222 0
M  V30 1457 N 142.03 -0.94494 5.541 0
M  V30 1458 H 134.181 0.67235 2.01478 0
M  V30 1459 H 136.444 0.240127 0.917084 0
M  V30 1460 H 136.15 0.305905 3.50367 0
M  V30 1461 H 136.024 -1.44422 3.48457 0
M  V30 1462 H 138.411 -1.56731 2.50039 0
M  V30 1463 H 138.492 0.199549 2.5502 0
M  V30 1464 H 138.136 0.122336 5.07753 0
M  V30 1465 H 138.066 -1.65606 4.99882 0
M  V30 1466 H 140.557 -0.798526 3.69367 0
M  V30 1467 H 140.87 -1.01645 7.66086 0
M  V30 1468 H 139.215 -0.921014 6.8887 0
M  V30 1469 H 142.406 -0.906612 4.59236 0
M  V30 1470 H 142.579 -1.00622 6.4014 0
M  V30 1471 N 135.985 -1.50799 -0.457987 0
M  V30 1472 C 137.21 -1.66496 -1.23668 0
M  V30 1473 C 137.635 -0.353288 -1.84752 0
M  V30 1474 O 136.993 0.684346 -1.67888 0
M  V30 1475 C 137.041 -2.76763 -2.3116 0
M  V30 1476 O 136.145 -2.38928 -3.36136 0
M  V30 1477 H 135.486 -0.555828 -0.363252 0
M  V30 1478 H 138.016 -1.9725 -0.543474 0
M  V30 1479 H 138.026 -3.00232 -2.76269 0
M  V30 1480 H 136.701 -3.71954 -1.86073 0
M  V30 1481 H 135.278 -2.25953 -2.96647 0
M  V30 1482 N 137.463 0.71206 -1.40597 0
M  V30 1483 C 138.373 1.8562 -1.43466 0
M  V30 1484 C 139.389 1.70902 -0.326902 0
M  V30 1485 O 140.565 1.93105 -0.572043 0
M  V30 1486 C 137.63 3.21451 -1.29884 0
M  V30 1487 C 136.691 3.48398 -2.50833 0
M  V30 1488 C 135.924 4.77749 -2.3789 0
M  V30 1489 O 136.147 5.53089 -1.39459 0
M  V30 1490 O 135.081 5.05111 -3.27333 0
M  V30 1491 H 138.907 1.86155 -2.39958 0
M  V30 1492 H 136.492 0.86295 -1.21957 0
M  V30 1493 H 138.374 4.02579 -1.24531 0
M  V30 1494 H 137.049 3.21636 -0.364997 0
M  V30 1495 H 135.956 2.67265 -2.61763 0
M  V30 1496 H 137.289 3.53014 -3.4299 0
M  V30 1497 N 138.941 1.26152 0.944643 0
M  V30 1498 C 139.873 1.03199 2.04652 0
M  V30 1499 C 140.886 -0.00642356 1.62799 0
M  V30 1500 O 142.075 0.233263 1.76969 0
M  V30 1501 C 139.175 0.540111 3.34568 0
M  V30 1502 C 138.348 1.64697 4.05208 0
M  V30 1503 C 137.407 1.15374 5.13396 0
M  V30 1504 O 136.433 1.85013 5.38293 0
M  V30 1505 N 137.635 0.00031529 5.805 0
M  V30 1506 H 140.4 1.9808 2.2491 0
M  V30 1507 H 137.961 1.17491 1.11389 0
M  V30 1508 H 139.953 0.194401 4.04233 0
M  V30 1509 H 138.523 -0.315021 3.11009 0
M  V30 1510 H 137.743 2.16379 3.29506 0
M  V30 1511 H 139.031 2.3903 4.49157 0
M  V30 1512 H 138.429 -0.581336 5.62705 0
M  V30 1513 H 136.986 -0.286346 6.51171 0
M  V30 1514 N 140.419 -1.14872 1.07899 0
M  V30 1515 C 141.696 -1.81928 0.71845 0
M  V30 1516 C 142.076 -1.95417 -0.798455 0
M  V30 1517 O 141.424 -1.50997 -1.715 0
M  V30 1518 C 141.634 -3.17937 1.43935 0
M  V30 1519 C 142.982 -3.93501 1.59506 0
M  V30 1520 O 144.006 -3.27509 1.40058 0
M  V30 1521 O 142.865 -5.1183 1.91551 0
M  V30 1522 H 139.959 -0.78628 0.256305 0
M  V30 1523 H 142.505 -1.21934 1.18026 0
M  V30 1524 H 141.277 -3.0325 2.47295 0
M  V30 1525 H 140.9 -3.85619 0.968687 0
M  V30 1526 N 141.898 -0.863906 -1.31812 0
M  V30 1527 C 143.314 -0.555004 -1.49639 0
M  V30 1528 C 143.514 0.912266 -1.79666 0
M  V30 1529 O 142.57 1.69479 -1.87171 0
M  V30 1530 C 143.883 -1.44998 -2.63431 0
M  V30 1531 C 145.431 -1.45138 -2.77316 0
M  V30 1532 C 145.906 -2.33179 -3.94197 0
M  V30 1533 N 147.397 -2.31025 -4.01474 0
M  V30 1534 C 148.132 -2.95871 -4.9117 0
M  V30 1535 N 147.628 -3.69863 -5.8581 0
M  V30 1536 N 149.421 -2.85211 -4.84367 0
M  V30 1537 H 141.572 -1.81339 -1.10589 0
M  V30 1538 H 143.835 -0.77505 -0.545895 0
M  V30 1539 H 143.541 -2.49377 -2.48 0
M  V30 1540 H 143.415 -1.14409 -3.59431 0
M  V30 1541 H 145.802 -0.415201 -2.92164 0
M  V30 1542 H 145.883 -1.79747 -1.82001 0
M  V30 1543 H 145.527 -3.3687 -3.80107 0
M  V30 1544 H 145.457 -1.95897 -4.88807 0
M  V30 1545 H 147.948 -1.77238 -3.33759 0
M  V30 1546 H 148.261 -4.16486 -6.50968 0
M  V30 1547 H 146.606 -3.73971 -5.85808 0
M  V30 1548 H 149.797 -2.26948 -4.09405 0
M  V30 1549 H 149.97 -3.36027 -5.54066 0
M  V30 1550 N 143.376 1.44774 -0.622745 0
M  V30 1551 C 144.324 2.32387 0.0994683 0
M  V30 1552 C 145.318 1.46859 0.844326 0
M  V30 1553 O 146.524 1.63254 0.758174 0
M  V30 1554 H 142.899 0.750273 0.0509291 0
M  V30 1555 H 144.87 2.91062 -0.65767 0
M  V30 1556 C 143.619 3.30723 1.07319 0
M  V30 1557 H 142.942 3.96541 0.509462 0
M  V30 1558 H 144.382 3.94725 1.54817 0
M  V30 1559 C 142.841 2.59021 2.15429 0
M  V30 1560 O 143.371 2.38286 3.23393 0
M  V30 1561 N 141.577 2.189 1.91131 0
M  V30 1562 H 141.124 2.35964 1.03337 0
M  V30 1563 H 141.082 1.71251 2.63668 0
M  V30 1564 N 144.854 0.36279 1.53368 0
M  V30 1565 C 146.094 -0.227882 2.03126 0
M  V30 1566 C 146.458 -1.4622 1.24434 0
M  V30 1567 O 147.659 -2.12831 1.64184 0
M  V30 1568 C 145.93 -0.515427 3.53664 0
M  V30 1569 S 147.489 -1.08017 4.25297 0
M  V30 1570 H 144.307 -0.0665377 0.70788 0
M  V30 1571 H 146.909 0.50501 1.88865 0
M  V30 1572 H 145.613 0.390436 4.08539 0
M  V30 1573 H 145.144 -1.27747 3.72081 0
M  V30 1574 H 147.159 -2.36462 4.36234 0
M  V30 1575 N 146.332 -1.57332 0.0918853 0
M  V30 1576 C 147.557 -1.98995 -0.584442 0
M  V30 1577 C 147.982 -0.970528 -1.61128 0
M  V30 1578 O 147.34 0.0613904 -1.81196 0
M  V30 1579 C 147.388 -3.39636 -1.21161 0
M  V30 1580 O 146.492 -3.40447 -2.32744 0
M  V30 1581 H 145.833 -0.647165 -0.148572 0
M  V30 1582 H 148.363 -2.03873 0.172347 0
M  V30 1583 H 148.373 -3.7726 -1.55367 0
M  V30 1584 H 147.048 -4.13356 -0.459313 0
M  V30 1585 H 145.625 -3.14614 -2.0018 0
M  V30 1586 N 147.81 0.181792 -1.56548 0
M  V30 1587 C 148.74 1.22765 -1.98623 0
M  V30 1588 C 149.721 1.46747 -0.860189 0
M  V30 1589 O 150.906 1.58259 -1.12551 0
M  V30 1590 C 148.036 2.56894 -2.33715 0
M  V30 1591 C 146.99 2.475 -3.49182 0
M  V30 1592 C 146.316 3.86023 -3.69986 0
M  V30 1593 C 147.616 1.98866 -4.82959 0
M  V30 1594 H 149.31 0.877942 -2.86239 0
M  V30 1595 H 146.856 0.42088 -1.37712 0
M  V30 1596 H 148.809 3.30253 -2.61746 0
M  V30 1597 H 147.533 2.93632 -1.42997 0
M  V30 1598 H 146.192 1.76596 -3.21262 0
M  V30 1599 H 145.84 4.20136 -2.76576 0
M  V30 1600 H 145.54 3.80609 -4.47672 0
M  V30 1601 H 147.064 4.60984 -4.00407 0
M  V30 1602 H 148.478 2.61992 -5.09934 0
M  V30 1603 H 146.875 2.04424 -5.64208 0
M  V30 1604 H 147.945 0.942465 -4.75653 0
M  V30 1605 N 149.288 1.51039 0.449983 0
M  V30 1606 C 150.528 1.64732 1.21007 0
M  V30 1607 C 150.892 0.349865 1.88785 0
M  V30 1608 O 152.093 0.362431 2.66345 0
M  V30 1609 C 150.364 2.80902 2.20973 0
M  V30 1610 S 151.923 3.14851 3.05638 0
M  V30 1611 H 148.741 0.5805 0.410538 0
M  V30 1612 H 151.343 1.88901 0.503634 0
M  V30 1613 H 150.047 3.73627 1.69796 0
M  V30 1614 H 149.578 2.58882 2.96215 0
M  V30 1615 H 151.593 2.60306 4.22439 0
M  V30 1616 N 150.766 -0.704594 1.40972 0
M  V30 1617 C 151.729 -1.80035 1.41845 0
M  V30 1618 C 152.729 -1.57774 0.310474 0
M  V30 1619 O 153.919 -1.64613 0.56992 0
M  V30 1620 C 151.051 -3.18284 1.22098 0
M  V30 1621 H 152.244 -1.80658 2.3938 0
M  V30 1622 H 149.797 -0.911329 1.26982 0
M  V30 1623 H 150.532 -3.23306 0.253672 0
M  V30 1624 H 150.317 -3.35843 2.02366 0
M  V30 1625 H 151.807 -3.98289 1.25522 0
M  V30 1626 N 152.244 -1.26651 -0.937939 0
M  V30 1627 C 153.521 -1.0313 -1.66204 0
M  V30 1628 C 153.901 0.437256 -2.06522 0
M  V30 1629 O 153.249 1.41831 -1.79154 0
M  V30 1630 C 153.459 -1.98314 -2.87181 0
M  V30 1631 C 154.807 -2.27107 -3.58758 0
M  V30 1632 O 155.831 -1.96205 -2.97291 0
M  V30 1633 O 154.69 -2.79736 -4.69479 0
M  V30 1634 H 151.784 -0.392384 -0.727986 0
M  V30 1635 H 154.33 -1.37874 -0.989382 0
M  V30 1636 H 153.102 -2.97399 -2.54302 0
M  V30 1637 H 152.725 -1.64068 -3.6217 0
M  V30 1638 N 153.722 1.14298 -1.08507 0
M  V30 1639 C 154.67 2.21483 -0.710483 0
M  V30 1640 C 155.664 1.66998 0.284234 0
M  V30 1641 O 156.87 1.79401 0.146692 0
M  V30 1642 H 153.245 0.721578 -0.211729 0
M  V30 1643 H 155.216 2.50348 -1.62384 0
M  V30 1644 C 153.965 3.4743 -0.137007 0
M  V30 1645 H 153.288 3.89686 -0.893592 0
M  V30 1646 H 154.728 4.2391 0.0872789 0
M  V30 1647 C 153.187 3.17548 1.12538 0
M  V30 1648 O 153.717 3.35437 2.21009 0
M  V30 1649 N 151.923 2.71499 1.03617 0
M  V30 1650 H 151.47 2.57143 0.153403 0
M  V30 1651 H 151.428 2.51881 1.88158 0
M  V30 1652 N 155.201 0.870884 1.31352 0
M  V30 1653 C 156.45 0.478408 1.95944 0
M  V30 1654 C 156.763 -0.974493 1.69597 0
M  V30 1655 O 157.969 -1.47316 2.28058 0
M  V30 1656 C 156.425 0.804609 3.50791 0
M  V30 1657 C 156.033 2.27433 3.85977 0
M  V30 1658 C 157.777 0.480648 4.2177 0
M  V30 1659 C 155.684 2.5429 5.33939 0
M  V30 1660 H 154.614 0.175175 0.733369 0
M  V30 1661 H 157.265 1.06391 1.4951 0
M  V30 1662 H 155.647 0.148347 3.95722 0
M  V30 1663 H 156.821 2.97373 3.52002 0
M  V30 1664 H 155.136 2.56442 3.28065 0
M  V30 1665 H 157.733 0.658519 5.30629 0
M  V30 1666 H 158.076 -0.578979 4.12254 0
M  V30 1667 H 158.609 1.09349 3.82476 0
M  V30 1668 H 155.348 3.58939 5.48491 0
M  V30 1669 H 154.868 1.88945 5.69263 0
M  V30 1670 H 156.547 2.39066 6.01212 0
M  V30 1671 N 156.679 -1.44442 0.630414 0
M  V30 1672 C 157.589 -2.34476 -0.0761693 0
M  V30 1673 C 158.605 -1.52576 -0.836449 0
M  V30 1674 O 159.781 -1.85307 -0.788874 0
M  V30 1675 C 156.846 -3.30545 -1.04599 0
M  V30 1676 C 155.907 -4.28352 -0.28516 0
M  V30 1677 C 155.14 -5.19831 -1.20878 0
M  V30 1678 O 155.363 -5.15223 -2.44747 0
M  V30 1679 O 154.297 -5.97892 -0.693491 0
M  V30 1680 H 158.123 -2.96345 0.664324 0
M  V30 1681 H 155.708 -1.44203 0.39061 0
M  V30 1682 H 157.59 -3.89681 -1.60396 0
M  V30 1683 H 156.265 -2.7121 -1.76711 0
M  V30 1684 H 155.172 -3.72764 0.315837 0
M  V30 1685 H 156.505 -4.90605 0.395924 0
M  V30 1686 N 158.157 -0.370918 -1.53173 0
M  V30 1687 C 159.405 0.216673 -2.00935 0
M  V30 1688 C 159.726 1.48845 -1.25977 0
M  V30 1689 O 158.996 1.92286 -0.374551 0
M  V30 1690 H 157.576 0.0830565 -0.742368 0
M  V30 1691 H 160.238 -0.49838 -1.8842 0
M  V30 1692 H 159.334 0.439893 -3.08984 0
M  V30 1693 N 159.635 1.57281 -0.100228 0
M  V30 1694 C 160.582 2.14305 0.856858 0
M  V30 1695 C 161.552 1.06296 1.27634 0
M  V30 1696 O 162.737 1.34109 1.35718 0
M  V30 1697 C 159.877 2.73184 2.10866 0
M  V30 1698 C 158.99 3.95442 1.73925 0
M  V30 1699 C 158.125 4.42468 2.93931 0
M  V30 1700 C 157.164 5.57303 2.5314 0
M  V30 1701 N 156.301 5.99158 3.65997 0
M  V30 1702 H 161.141 2.95772 0.363726 0
M  V30 1703 H 158.678 1.46139 0.167858 0
M  V30 1704 H 160.636 3.05442 2.84185 0
M  V30 1705 H 159.266 1.94437 2.57671 0
M  V30 1706 H 158.318 3.69464 0.905554 0
M  V30 1707 H 159.63 4.78769 1.39935 0
M  V30 1708 H 158.784 4.76537 3.75496 0
M  V30 1709 H 157.523 3.58052 3.31134 0
M  V30 1710 H 156.528 5.22857 1.70003 0
M  V30 1711 H 157.753 6.43471 2.17075 0
M  V30 1712 H 155.699 5.17687 4.02909 0
M  V30 1713 H 155.616 6.77295 3.35869 0
M  V30 1714 H 156.884 6.3786 4.48057 0
M  V30 1715 N 161.113 -0.173488 1.56642 0
M  V30 1716 C 162.341 -0.906095 1.86004 0
M  V30 1717 C 162.756 -1.75921 0.685355 0
M  V30 1718 O 162.113 -1.79198 -0.345578 0
M  V30 1719 C 162.164 -1.78462 3.14378 0
M  V30 1720 O 161.885 -0.965914 4.27319 0
M  V30 1721 C 163.386 -2.62707 3.57071 0
M  V30 1722 H 160.606 -0.263341 0.617165 0
M  V30 1723 H 163.15 -0.174236 2.03756 0
M  V30 1724 H 161.305 -2.46984 2.98459 0
M  V30 1725 H 161.719 -1.56655 5.00559 0
M  V30 1726 H 163.193 -3.19969 4.49804 0
M  V30 1727 H 163.67 -3.37472 2.81086 0
M  V30 1728 H 164.276 -1.99521 3.75595 0
M  V30 1729 N 162.591 -1.51276 -0.441967 0
M  V30 1730 C 163.838 -1.63715 -1.19179 0
M  V30 1731 C 164.166 -0.351175 -1.91303 0
M  V30 1732 O 163.421 0.664524 -1.84072 0
M  V30 1733 C 163.72 -2.78746 -2.23686 0
M  V30 1734 C 163.386 -4.18189 -1.68607 0
M  V30 1735 C 162.048 -4.56125 -1.53308 0
M  V30 1736 C 164.4 -5.05222 -1.28062 0
M  V30 1737 C 161.728 -5.78804 -0.959317 0
M  V30 1738 C 164.08 -6.28476 -0.721162 0
M  V30 1739 C 162.744 -6.65188 -0.55504 0
M  V30 1740 H 162.014 -0.599076 -0.436106 0
M  V30 1741 H 164.661 -1.85296 -0.48351 0
M  V30 1742 H 162.966 -2.51369 -3.00535 0
M  V30 1743 H 164.663 -2.8557 -2.81515 0
M  V30 1744 H 161.253 -3.88277 -1.8149 0
M  V30 1745 H 165.437 -4.76524 -1.38704 0
M  V30 1746 H 160.693 -6.05899 -0.81833 0
M  V30 1747 H 164.867 -6.95259 -0.398458 0
M  V30 1748 H 162.494 -7.60123 -0.108311 0
M  V30 1749 N 164.069 0.697108 -1.41344 0
M  V30 1750 C 165.315 1.4593 -1.40827 0
M  V30 1751 C 165.648 1.94193 -0.0167098 0
M  V30 1752 O 164.923 1.69425 0.955263 0
M  V30 1753 C 165.206 2.67229 -2.41373 0
M  V30 1754 C 165.059 2.24741 -3.8963 0
M  V30 1755 C 166.378 3.69423 -2.39196 0
M  V30 1756 H 163.497 0.529303 -0.512842 0
M  V30 1757 H 166.139 0.794112 -1.72609 0
M  V30 1758 H 164.289 3.23982 -2.14401 0
M  V30 1759 H 165.961 1.73327 -4.27499 0
M  V30 1760 H 164.204 1.56542 -4.0457 0
M  V30 1761 H 164.875 3.1177 -4.55525 0
M  V30 1762 H 167.351 3.2234 -2.63128 0
M  V30 1763 H 166.227 4.51907 -3.11563 0
M  V30 1764 H 166.488 4.19012 -1.41001 0
M  V30 1765 N 165.547 1.27147 0.931209 0
M  V30 1766 C 166.772 1.16191 1.71797 0
M  V30 1767 C 167.197 -0.278004 1.86034 0
M  V30 1768 O 166.555 -1.20137 1.35782 0
M  V30 1769 C 166.603 1.84673 3.09723 0
M  V30 1770 O 165.707 1.14231 3.96264 0
M  V30 1771 H 165.048 0.404303 0.526721 0
M  V30 1772 H 167.578 1.68152 1.1656 0
M  V30 1773 H 167.588 1.91893 3.60057 0
M  V30 1774 H 166.263 2.89421 2.98677 0
M  V30 1775 H 164.84 1.15056 3.54706 0
M  V30 1776 N 167.025 -1.13721 1.09112 0
M  V30 1777 C 168.253 -1.88773 0.846899 0
M  V30 1778 C 168.668 -1.7896 -0.601572 0
M  V30 1779 O 168.025 -1.15394 -1.41388 0
M  V30 1780 C 168.076 -3.3849 1.26913 0
M  V30 1781 O 167.797 -3.48043 2.66079 0
M  V30 1782 C 169.298 -4.30518 1.05682 0
M  V30 1783 H 166.518 -0.59772 0.304914 0
M  V30 1784 H 169.062 -1.43977 1.45227 0
M  V30 1785 H 167.217 -3.80881 0.707723 0
M  V30 1786 H 167.631 -4.4109 2.83795 0
M  V30 1787 H 169.105 -5.3391 1.40156 0
M  V30 1788 H 169.582 -4.392 -0.00563416 0
M  V30 1789 H 170.188 -3.93893 1.60402 0
M  V30 1790 N 168.503 -0.877838 -1.30888 0
M  V30 1791 C 169.749 -0.493426 -1.96706 0
M  V30 1792 C 170.082 0.953504 -1.6918 0
M  V30 1793 O 169.357 1.67266 -0.992594 0
M  V30 1794 C 169.64 -0.760429 -3.51979 0
M  V30 1795 C 169.493 -2.25747 -3.89048 0
M  V30 1796 C 170.812 -0.232148 -4.39487 0
M  V30 1797 H 167.931 -0.180746 -0.714493 0
M  V30 1798 H 170.573 -1.10052 -1.54882 0
M  V30 1799 H 168.723 -0.243715 -3.87735 0
M  V30 1800 H 170.395 -2.84204 -3.63354 0
M  V30 1801 H 168.638 -2.72694 -3.37373 0
M  V30 1802 H 169.309 -2.39491 -4.97341 0
M  V30 1803 H 171.785 -0.674314 -4.106 0
M  V30 1804 H 170.661 -0.448355 -5.47066 0
M  V30 1805 H 170.922 0.866297 -4.33529 0
M  V30 1806 N 169.982 1.44106 -0.638065 0
M  V30 1807 C 170.93 2.3248 0.0748149 0
M  V30 1808 C 171.924 1.47746 0.828702 0
M  V30 1809 O 173.13 1.64049 0.740816 0
M  V30 1810 H 169.505 0.750771 0.0429686 0
M  V30 1811 H 171.476 2.90348 -0.688504 0
M  V30 1812 C 170.225 3.31843 1.03805 0
M  V30 1813 H 169.548 3.97059 0.467375 0
M  V30 1814 H 170.988 3.96345 1.50622 0
M  V30 1815 C 169.447 2.61291 2.1267 0
M  V30 1816 O 169.977 2.41702 3.20847 0
M  V30 1817 N 168.183 2.20915 1.88798 0
M  V30 1818 H 167.73 2.37047 1.00829 0
M  V30 1819 H 167.688 1.74038 2.61836 0
M  V30 1820 N 171.46 0.379036 1.52974 0
M  V30 1821 C 172.685 -0.209353 2.06341 0
M  V30 1822 C 173.11 -1.40583 1.24972 0
M  V30 1823 O 172.468 -1.79246 0.272155 0
M  V30 1824 C 172.516 -0.567786 3.56102 0
M  V30 1825 O 171.62 -1.66318 3.77375 0
M  V30 1826 H 170.961 -0.0272919 0.663439 0
M  V30 1827 H 173.491 0.543536 1.97248 0
M  V30 1828 H 173.501 -0.835003 3.99364 0
M  V30 1829 H 172.176 0.307013 4.14765 0
M  V30 1830 H 170.753 -1.39048 3.46006 0
M  V30 1831 N 172.938 -1.57226 0.108567 0
M  V30 1832 C 173.868 -2.17778 -0.84232 0
M  V30 1833 C 174.849 -1.11487 -1.2847 0
M  V30 1834 O 176.034 -1.39681 -1.34918 0
M  V30 1835 C 173.164 -2.76888 -2.09644 0
M  V30 1836 C 172.118 -3.88669 -1.79221 0
M  V30 1837 C 171.444 -4.34541 -3.11574 0
M  V30 1838 C 172.744 -5.11251 -1.06864 0
M  V30 1839 H 174.438 -2.97489 -0.337774 0
M  V30 1840 H 171.984 -1.43097 -0.161025 0
M  V30 1841 H 173.937 -3.17904 -2.76614 0
M  V30 1842 H 172.661 -1.94451 -2.62405 0
M  V30 1843 H 171.32 -3.48213 -1.14644 0
M  V30 1844 H 170.968 -3.48977 -3.62249 0
M  V30 1845 H 170.668 -5.09914 -2.91996 0
M  V30 1846 H 172.192 -4.782 -3.7968 0
M  V30 1847 H 173.606 -5.49352 -1.63968 0
M  V30 1848 H 172.003 -5.9214 -0.974178 0
M  V30 1849 H 173.073 -4.8487 -0.0536168 0
M  V30 1850 N 174.416 0.165178 -1.56732 0
M  V30 1851 C 175.662 0.882112 -1.82611 0
M  V30 1852 C 175.995 1.81628 -0.687378 0
M  V30 1853 O 175.27 1.92009 0.310267 0
M  V30 1854 C 175.553 1.67245 -3.18906 0
M  V30 1855 C 175.406 0.760987 -4.43316 0
M  V30 1856 C 176.725 2.63884 -3.52212 0
M  V30 1857 H 173.844 0.319242 -0.664269 0
M  V30 1858 H 176.486 0.148052 -1.89422 0
M  V30 1859 H 174.636 2.29824 -3.1323 0
M  V30 1860 H 176.308 0.147596 -4.61064 0
M  V30 1861 H 174.551 0.0694102 -4.33744 0
M  V30 1862 H 175.222 1.34962 -5.35247 0
M  V30 1863 H 177.698 2.11429 -3.58381 0
M  V30 1864 H 176.574 3.16245 -4.48643 0
M  V30 1865 H 176.835 3.44377 -2.77231 0
M  V30 1866 N 175.894 1.51508 0.433938 0
M  V30 1867 C 177.141 1.64345 1.18309 0
M  V30 1868 C 177.469 0.361315 1.91115 0
M  V30 1869 O 176.724 -0.654753 1.84422 0
M  V30 1870 C 177.023 2.79928 2.22205 0
M  V30 1871 C 176.689 4.19078 1.66387 0
M  V30 1872 C 175.351 4.56932 1.50887 0
M  V30 1873 C 177.703 5.05894 1.25381 0
M  V30 1874 C 175.031 5.79305 0.928608 0
M  V30 1875 C 177.383 6.2885 0.687823 0
M  V30 1876 C 176.047 6.65473 0.519755 0
M  V30 1877 H 175.317 0.601381 0.432923 0
M  V30 1878 H 177.964 1.85549 0.473676 0
M  V30 1879 H 176.269 2.52959 2.99197 0
M  V30 1880 H 177.966 2.87059 2.79997 0
M  V30 1881 H 174.556 3.89234 1.79428 0
M  V30 1882 H 178.74 4.77253 1.36175 0
M  V30 1883 H 173.996 6.06324 0.786186 0
M  V30 1884 H 178.17 6.95461 0.361581 0
M  V30 1885 H 175.797 7.6017 0.0679979 0
M  V30 1886 N 177.372 -0.689602 1.41712 0
M  V30 1887 C 178.304 -1.815 1.39966 0
M  V30 1888 C 179.317 -1.59995 0.300917 0
M  V30 1889 O 180.506 -1.69387 0.563039 0
M  V30 1890 C 177.606 -3.18364 1.16179 0
M  V30 1891 C 176.779 -3.66847 2.38206 0
M  V30 1892 C 175.838 -4.82398 2.10186 0
M  V30 1893 O 174.864 -4.93706 2.83272 0
M  V30 1894 N 176.066 -5.70064 1.0958 0
M  V30 1895 H 178.831 -1.83488 2.36965 0
M  V30 1896 H 176.392 -0.872149 1.36401 0
M  V30 1897 H 178.384 -3.93301 0.953756 0
M  V30 1898 H 176.954 -3.11365 0.27756 0
M  V30 1899 H 176.174 -2.82751 2.74673 0
M  V30 1900 H 177.462 -3.95978 3.19498 0
M  V30 1901 H 176.86 -5.63565 0.491019 0
M  V30 1902 H 175.417 -6.44874 0.947656 0
M  V30 1903 N 178.85 -1.27639 -0.924453 0
M  V30 1904 C 179.782 -1.06442 -2.02985 0
M  V30 1905 C 180.795 -0.0194771 -1.62788 0
M  V30 1906 O 181.984 -0.261388 -1.76576 0
M  V30 1907 C 179.084 -0.59327 -3.33667 0
M  V30 1908 C 178.257 -1.71123 -4.02537 0
M  V30 1909 C 177.316 -1.23527 -5.11495 0
M  V30 1910 O 176.342 -1.93553 -5.35281 0
M  V30 1911 N 177.544 -0.0926678 -5.80426 0
M  V30 1912 H 180.309 -2.01633 -2.2173 0
M  V30 1913 H 177.87 -1.19248 -1.09505 0
M  V30 1914 H 179.862 -0.258686 -4.03872 0
M  V30 1915 H 178.432 0.265502 -3.1147 0
M  V30 1916 H 177.652 -2.21593 -3.26022 0
M  V30 1917 H 178.94 -2.46145 -4.45298 0
M  V30 1918 H 178.338 0.491741 -5.63559 0
M  V30 1919 H 176.895 0.182714 -6.51544 0
M  V30 1920 N 180.328 1.1314 -1.09713 0
M  V30 1921 C 181.577 1.83838 -0.829851 0
M  V30 1922 C 181.89 1.84599 0.646728 0
M  V30 1923 O 183.096 2.51218 1.02965 0
M  V30 1924 C 181.552 3.30069 -1.43466 0
M  V30 1925 C 181.16 3.37688 -2.94399 0
M  V30 1926 C 182.904 4.05788 -1.24645 0
M  V30 1927 C 180.811 4.78209 -3.47952 0
M  V30 1928 H 179.741 0.68877 -0.306777 0
M  V30 1929 H 182.392 1.27448 -1.3202 0
M  V30 1930 H 180.774 3.8628 -0.871996 0
M  V30 1931 H 181.948 2.91456 -3.56918 0
M  V30 1932 H 180.263 2.75436 -3.12289 0
M  V30 1933 H 182.86 5.09535 -1.62107 0
M  V30 1934 H 183.203 4.15878 -0.187357 0
M  V30 1935 H 183.736 3.55915 -1.77678 0
M  V30 1936 H 180.475 4.73311 -4.53495 0
M  V30 1937 H 179.995 5.24924 -2.90198 0
M  V30 1938 H 181.674 5.47133 -3.45332 0
M  V30 1939 N 181.806 0.884767 1.30421 0
M  V30 1940 C 183.083 0.423185 1.90967 0
M  V30 1941 C 183.463 -1.09605 1.80416 0
M  V30 1942 O 182.811 -1.93126 1.22125 0
M  V30 1943 C 183.021 0.921056 3.36627 0
M  V30 1944 C 184.369 0.955903 4.137 0
M  V30 1945 O 185.393 0.867706 3.4547 0
M  V30 1946 O 184.252 1.08614 5.35598 0
M  V30 1947 H 181.346 0.129369 0.816819 0
M  V30 1948 H 183.892 0.973653 1.3899 0
M  V30 1949 H 182.664 1.96489 3.3839 0
M  V30 1950 H 182.287 0.349741 3.96059 0
M  V30 1951 N 183.284 -1.43765 0.645699 0
M  V30 1952 C 184.247 -2.29163 -0.0409488 0
M  V30 1953 C 185.247 -1.41813 -0.757996 0
M  V30 1954 O 186.437 -1.63527 -0.600382 0
M  V30 1955 C 183.569 -3.23716 -1.06869 0
M  V30 1956 H 184.762 -2.91366 0.710345 0
M  V30 1957 H 182.315 -1.5092 0.406547 0
M  V30 1958 H 183.05 -2.66393 -1.84947 0
M  V30 1959 H 182.835 -3.88105 -0.558277 0
M  V30 1960 H 184.325 -3.87831 -1.54845 0
M  V30 1961 N 184.763 -0.387143 -1.52771 0
M  V30 1962 C 185.711 0.463953 -2.27926 0
M  V30 1963 C 186.705 1.06493 -1.31741 0
M  V30 1964 O 187.911 1.00565 -1.49287 0
M  V30 1965 H 184.286 0.16837 -0.732909 0
M  V30 1966 H 186.257 -0.19141 -2.97785 0
M  V30 1967 C 185.006 1.5803 -3.09713 0
M  V30 1968 H 184.329 1.12718 -3.83581 0
M  V30 1969 H 185.769 2.15008 -3.65442 0
M  V30 1970 C 184.228 2.53509 -2.2189 0
M  V30 1971 O 184.758 3.56863 -1.84422 0
M  V30 1972 N 182.964 2.23199 -1.86093 0
M  V30 1973 H 182.511 1.39185 -2.16761 0
M  V30 1974 H 182.469 2.87333 -1.27621 0
M  V30 1975 N 186.241 1.57166 -0.116904 0
M  V30 1976 C 187.487 1.96206 0.536166 0
M  V30 1977 C 187.842 0.99915 1.64422 0
M  V30 1978 O 187.135 0.0288195 1.91578 0
M  V30 1979 C 187.329 3.39508 1.11664 0
M  V30 1980 C 187.158 4.49651 0.0663474 0
M  V30 1981 C 185.928 5.03982 -0.36474 0
M  V30 1982 C 188.126 5.09322 -0.713829 0
M  V30 1983 N 186.108 5.97699 -1.40102 0
M  V30 1984 C 187.479 5.98963 -1.60136 0
M  V30 1985 C 189.534 4.91989 -0.764948 0
M  V30 1986 C 188.237 6.73128 -2.53556 0
M  V30 1987 C 190.263 5.66833 -1.68685 0
M  V30 1988 C 189.625 6.56158 -2.56196 0
M  V30 1989 H 185.724 0.764203 0.165886 0
M  V30 1990 H 188.308 1.93623 -0.204535 0
M  V30 1991 H 186.479 3.42743 1.82707 0
M  V30 1992 H 188.211 3.65677 1.73386 0
M  V30 1993 H 184.966 4.73592 0.027252 0
M  V30 1994 H 185.39 6.49262 -1.91802 0
M  V30 1995 H 190.032 4.22676 -0.102501 0
M  V30 1996 H 187.75 7.41689 -3.20816 0
M  V30 1997 H 191.336 5.55427 -1.73181 0
M  V30 1998 H 190.216 7.13057 -3.26372 0
M  V30 1999 N 187.719 -0.156864 1.56817 0
M  V30 2000 C 188.667 -1.21319 1.98455 0
M  V30 2001 C 189.661 -1.45025 0.875444 0
M  V30 2002 O 190.867 -1.45435 1.0606 0
M  V30 2003 H 187.242 -0.408142 0.631605 0
M  V30 2004 H 189.213 -0.835244 2.86472 0
M  V30 2005 C 187.962 -2.54148 2.37285 0
M  V30 2006 H 187.285 -2.36733 3.22176 0
M  V30 2007 H 188.725 -3.26712 2.70251 0
M  V30 2008 C 187.184 -3.13967 1.22173 0
M  V30 2009 O 187.714 -3.98357 0.517149 0
M  V30 2010 N 185.92 -2.7327 0.988536 0
M  V30 2011 H 185.467 -2.04744 1.56326 0
M  V30 2012 H 185.425 -3.13628 0.220209 0
M  V30 2013 N 189.197 -1.51736 -0.425897 0
M  V30 2014 C 190.446 -1.64201 -1.17136 0
M  V30 2015 C 190.759 -0.369705 -1.92074 0
M  V30 2016 O 191.965 -0.373898 -2.68913 0
M  V30 2017 C 190.421 -2.90035 -2.13091 0
M  V30 2018 C 190.029 -4.24312 -1.43747 0
M  V30 2019 C 191.773 -3.1186 -2.87999 0
M  V30 2020 C 189.68 -5.41285 -2.38253 0
M  V30 2021 H 188.61 -0.611624 -0.440944 0
M  V30 2022 H 191.261 -1.78212 -0.437328 0
M  V30 2023 H 189.643 -2.69684 -2.89977 0
M  V30 2024 H 190.817 -4.55086 -0.723408 0
M  V30 2025 H 189.132 -4.08456 -0.809465 0
M  V30 2026 H 191.729 -3.96427 -3.58817 0
M  V30 2027 H 192.072 -2.25403 -3.49999 0
M  V30 2028 H 192.605 -3.32605 -2.18217 0
M  V30 2029 H 189.344 -6.30037 -1.80925 0
M  V30 2030 H 188.864 -5.14872 -3.0768 0
M  V30 2031 H 190.543 -5.73694 -2.99139 0
M  V30 2032 N 190.675 0.682077 -1.42076 0
M  V30 2033 C 191.607 1.80755 -1.40926 0
M  V30 2034 C 192.62 1.59833 -0.309398 0
M  V30 2035 O 193.809 1.69087 -0.572014 0
M  V30 2036 C 190.909 3.17744 -1.17865 0
M  V30 2037 C 190.082 3.65578 -2.40149 0
M  V30 2038 C 189.141 4.81277 -2.12742 0
M  V30 2039 O 188.167 4.92197 -2.85887 0
M  V30 2040 N 189.369 5.69474 -1.12602 0
M  V30 2041 H 192.134 1.82229 -2.37935 0
M  V30 2042 H 189.695 0.864903 -1.36861 0
M  V30 2043 H 191.687 3.9279 -0.9746 0
M  V30 2044 H 190.257 3.11214 -0.294068 0
M  V30 2045 H 189.477 2.81291 -2.76169 0
M  V30 2046 H 190.765 3.94278 -3.21593 0
M  V30 2047 H 190.163 5.63297 -0.520899 0
M  V30 2048 H 188.72 6.44363 -0.981842 0
M  V30 2049 N 192.153 1.28127 0.917671 0
M  V30 2050 C 193.393 1.163 1.68088 0
M  V30 2051 C 193.757 -0.284515 1.8988 0
M  V30 2052 O 194.958 -0.525413 2.63615 0
M  V30 2053 C 193.229 1.93546 3.00457 0
M  V30 2054 S 194.788 1.98048 3.91564 0
M  V30 2055 H 191.606 0.415005 0.577315 0
M  V30 2056 H 194.208 1.62173 1.09179 0
M  V30 2057 H 192.912 2.97888 2.82295 0
M  V30 2058 H 192.443 1.48207 3.64415 0
M  V30 2059 H 194.458 1.08415 4.84211 0
M  V30 2060 N 193.631 -1.12557 1.10312 0
M  V30 2061 C 194.877 -1.84515 0.855901 0
M  V30 2062 C 195.232 -1.82409 -0.611936 0
M  V30 2063 O 194.525 -1.25778 -1.44535 0
M  V30 2064 C 194.719 -3.31462 1.33669 0
M  V30 2065 C 194.548 -3.47879 2.84974 0
M  V30 2066 C 193.318 -3.61589 3.52961 0
M  V30 2067 C 195.516 -3.43152 3.83081 0
M  V30 2068 N 193.498 -3.66359 4.926 0
M  V30 2069 C 194.869 -3.54401 5.08724 0
M  V30 2070 C 196.924 -3.2661 3.75807 0
M  V30 2071 C 195.627 -3.50815 6.2795 0
M  V30 2072 C 197.653 -3.24335 4.94531 0
M  V30 2073 C 197.015 -3.36144 6.19021 0
M  V30 2074 H 193.114 -0.690967 0.366182 0
M  V30 2075 H 195.698 -1.34763 1.40524 0
M  V30 2076 H 193.869 -3.7976 0.814686 0
M  V30 2077 H 195.601 -3.91272 1.03385 0
M  V30 2078 H 192.356 -3.63652 3.03404 0
M  V30 2079 H 192.78 -3.72411 5.65366 0
M  V30 2080 H 197.422 -3.16375 2.80476 0
M  V30 2081 H 195.14 -3.5982 7.23571 0
M  V30 2082 H 198.726 -3.12719 4.9061 0
M  V30 2083 H 197.606 -3.34357 7.09348 0
M  V30 2084 N 195.109 -0.891671 -1.2995 0
M  V30 2085 C 196.039 -0.379797 -2.30391 0
M  V30 2086 C 197.02 0.540919 -1.6127 0
M  V30 2087 O 198.205 0.453352 -1.88834 0
M  V30 2088 C 195.335 0.400654 -3.44981 0
M  V30 2089 C 194.289 -0.428905 -4.25846 0
M  V30 2090 C 193.615 0.478557 -5.32554 0
M  V30 2091 C 194.915 -1.67458 -4.94727 0
M  V30 2092 H 196.609 -1.21914 -2.73454 0
M  V30 2093 H 194.155 -0.587675 -1.31462 0
M  V30 2094 H 196.108 0.769434 -4.14316 0
M  V30 2095 H 194.832 1.27371 -3.0074 0
M  V30 2096 H 193.491 -0.779911 -3.58208 0
M  V30 2097 H 193.139 1.34951 -4.84559 0
M  V30 2098 H 192.839 -0.0727433 -5.87555 0
M  V30 2099 H 194.363 0.843705 -6.04743 0
M  V30 2100 H 195.777 -1.376 -5.56542 0
M  V30 2101 H 194.174 -2.16659 -5.59624 0
M  V30 2102 H 195.244 -2.41518 -4.20473 0
M  V30 2103 N 196.587 1.43421 -0.653314 0
M  V30 2104 C 197.534 2.30768 0.0382271 0
M  V30 2105 C 198.504 1.44755 0.814576 0
M  V30 2106 O 199.689 1.73624 0.791162 0
M  V30 2107 C 196.829 3.30336 0.998599 0
M  V30 2108 C 195.942 4.31448 0.218342 0
M  V30 2109 C 195.077 5.18098 1.17252 0
M  V30 2110 C 194.116 6.10902 0.382702 0
M  V30 2111 N 193.253 6.90176 1.28848 0
M  V30 2112 H 198.093 2.89357 -0.712511 0
M  V30 2113 H 195.63 1.42548 -0.363128 0
M  V30 2114 H 197.588 3.86572 1.56901 0
M  V30 2115 H 196.218 2.73397 1.71621 0
M  V30 2116 H 195.27 3.77506 -0.46836 0
M  V30 2117 H 196.582 4.97227 -0.395812 0
M  V30 2118 H 195.736 5.7896 1.81356 0
M  V30 2119 H 194.475 4.52444 1.82058 0
M  V30 2120 H 193.48 5.49128 -0.27169 0
M  V30 2121 H 194.705 6.78598 -0.260957 0
M  V30 2122 H 192.651 6.27171 1.92334 0
M  V30 2123 H 192.568 7.52478 0.728887 0
M  V30 2124 H 193.836 7.55543 1.91766 0
M  V30 2125 N 198.065 0.39524 1.52563 0
M  V30 2126 C 199.313 -0.184678 2.01254 0
M  V30 2127 C 199.634 -1.46822 1.28329 0
M  V30 2128 O 198.904 -1.91666 0.405094 0
M  V30 2129 H 197.484 -0.0712355 0.743596 0
M  V30 2130 H 200.146 0.528293 1.87603 0
M  V30 2131 H 199.242 -0.390681 3.09645 0
M  V30 2132 N 199.544 -1.57102 0.125237 0
M  V30 2133 C 200.821 -1.86953 -0.575142 0
M  V30 2134 C 201.201 -1.02749 -1.84407 0
M  V30 2135 O 200.549 -0.108144 -2.28244 0
M  V30 2136 C 200.759 -3.38198 -0.861583 0
M  V30 2137 C 202.107 -4.06937 -1.21192 0
M  V30 2138 O 203.131 -3.43252 -0.951645 0
M  V30 2139 O 201.99 -5.19364 -1.70068 0
M  V30 2140 H 199.084 -0.774147 -0.290906 0
M  V30 2141 H 201.63 -1.68942 0.160211 0
M  V30 2142 H 200.402 -3.91282 0.0373647 0
M  V30 2143 H 200.025 -3.61661 -1.65188 0
M  V30 2144 N 201.022 0.148545 -1.56898 0
M  V30 2145 C 201.952 1.18524 -2.01182 0
M  V30 2146 C 202.933 1.4489 -0.891123 0
M  V30 2147 O 204.118 1.55836 -1.15882 0
M  V30 2148 C 201.248 2.51879 -2.39112 0
M  V30 2149 C 200.202 2.40038 -3.54353 0
M  V30 2150 C 199.528 3.78089 -3.78091 0
M  V30 2151 C 200.828 1.88577 -4.87069 0
M  V30 2152 H 202.522 0.817029 -2.88036 0
M  V30 2153 H 200.068 0.391575 -1.38574 0
M  V30 2154 H 202.021 3.24627 -2.68692 0
M  V30 2155 H 200.745 2.90532 -1.49193 0
M  V30 2156 H 199.404 1.69742 -3.24936 0
M  V30 2157 H 199.052 4.14175 -2.85426 0
M  V30 2158 H 198.752 3.71028 -4.55645 0
M  V30 2159 H 200.276 4.52387 -4.10095 0
M  V30 2160 H 201.69 2.51117 -5.15377 0
M  V30 2161 H 200.087 1.9241 -5.68417 0
M  V30 2162 H 201.157 0.84136 -4.77545 0
M  V30 2163 N 202.5 1.5196 0.417844 0
M  V30 2164 C 203.447 1.74678 1.50852 0
M  V30 2165 C 204.417 0.588947 1.55308 0
M  V30 2166 O 205.602 0.825544 1.72016 0
M  V30 2167 C 202.742 1.89544 2.88387 0
M  V30 2168 C 201.855 3.17166 2.93309 0
M  V30 2169 C 200.99 3.22513 4.22088 0
M  V30 2170 C 200.029 4.44372 4.20951 0
M  V30 2171 N 199.166 4.47161 5.41287 0
M  V30 2172 H 204.006 2.67768 1.30783 0
M  V30 2173 H 201.543 1.32689 0.63498 0
M  V30 2174 H 203.501 1.96146 3.68216 0
M  V30 2175 H 202.131 0.998424 3.06971 0
M  V30 2176 H 201.183 3.19778 2.06024 0
M  V30 2177 H 202.495 4.07021 2.88332 0
M  V30 2178 H 201.649 3.28139 5.10303 0
M  V30 2179 H 200.388 2.30581 4.29748 0
M  V30 2180 H 199.393 4.38902 3.31127 0
M  V30 2181 H 200.618 5.3759 4.14938 0
M  V30 2182 H 198.564 3.58108 5.49632 0
M  V30 2183 H 198.481 5.3085 5.3827 0
M  V30 2184 H 199.749 4.57005 6.3148 0
M  V30 2185 N 203.978 -0.674533 1.42435 0
M  V30 2186 C 204.908 -1.80009 1.48724 0
M  V30 2187 C 205.889 -1.6659 0.343793 0
M  V30 2188 O 207.074 -1.86007 0.558137 0
M  V30 2189 C 204.204 -3.18306 1.38919 0
M  V30 2190 C 203.158 -3.46461 2.51294 0
M  V30 2191 C 202.484 -4.84335 2.26547 0
M  V30 2192 C 203.784 -3.43328 3.93603 0
M  V30 2193 H 205.478 -1.75004 2.42928 0
M  V30 2194 H 203.024 -0.840533 1.16923 0
M  V30 2195 H 204.977 -3.9678 1.41927 0
M  V30 2196 H 203.701 -3.2399 0.412094 0
M  V30 2197 H 202.36 -2.70348 2.47604 0
M  V30 2198 H 202.008 -4.86669 1.2713 0
M  V30 2199 H 201.708 -5.04136 3.01861 0
M  V30 2200 H 203.232 -5.65094 2.31304 0
M  V30 2201 H 204.646 -4.11772 3.98894 0
M  V30 2202 H 203.043 -3.74664 4.68771 0
M  V30 2203 H 204.113 -2.41897 4.20255 0
M  V30 2204 N 205.456 -1.28612 -0.910864 0
M  V30 2205 C 206.703 -1.15934 -1.66029 0
M  V30 2206 C 207.031 0.291483 -1.92303 0
M  V30 2207 O 206.286 1.22816 -1.52364 0
M  V30 2208 C 206.585 -1.90624 -3.0232 0
M  V30 2209 C 206.251 -3.40405 -2.95695 0
M  V30 2210 C 204.913 -3.81255 -2.93595 0
M  V30 2211 C 207.265 -4.359 -2.85728 0
M  V30 2212 C 204.593 -5.15936 -2.79334 0
M  V30 2213 C 206.945 -5.70657 -2.73007 0
M  V30 2214 C 205.609 -6.10779 -2.69267 0
M  V30 2215 H 204.879 -0.424234 -0.607541 0
M  V30 2216 H 207.526 -1.5942 -1.06101 0
M  V30 2217 H 205.831 -1.39696 -3.6605 0
M  V30 2218 H 207.528 -1.78228 -3.59215 0
M  V30 2219 H 204.118 -3.07927 -2.98125 0
M  V30 2220 H 208.302 -4.053 -2.86436 0
M  V30 2221 H 203.558 -5.46146 -2.74835 0
M  V30 2222 H 207.732 -6.44311 -2.64264 0
M  V30 2223 H 205.359 -7.1509 -2.57974 0
M  V30 2224 N 206.934 1.1197 -1.10907 0
M  V30 2225 C 208.183 1.82947 -0.849302 0
M  V30 2226 C 208.496 1.85275 0.627112 0
M  V30 2227 O 209.702 2.52296 1.00295 0
M  V30 2228 C 208.158 3.28529 -1.46959 0
M  V30 2229 C 207.766 3.34546 -2.97965 0
M  V30 2230 C 209.51 4.04443 -1.28942 0
M  V30 2231 C 207.417 4.74491 -3.53004 0
M  V30 2232 H 206.347 0.685477 -0.314065 0
M  V30 2233 H 208.998 1.2604 -1.33365 0
M  V30 2234 H 207.38 3.85333 -0.912917 0
M  V30 2235 H 208.554 2.87654 -3.59989 0
M  V30 2236 H 206.869 2.72108 -3.15192 0
M  V30 2237 H 209.466 5.07787 -1.67502 0
M  V30 2238 H 209.809 4.15656 -0.231456 0
M  V30 2239 H 210.342 3.5401 -1.81443 0
M  V30 2240 H 207.081 4.68474 -4.58489 0
M  V30 2241 H 206.601 5.21816 -2.9575 0
M  V30 2242 H 208.28 5.4344 -3.51115 0
M  V30 2243 N 208.412 0.89855 1.29475 0
M  V30 2244 C 209.652 0.530771 1.97388 0
M  V30 2245 C 210.016 -0.905832 1.69289 0
M  V30 2246 O 211.217 -1.38042 2.30646 0
M  V30 2247 C 209.488 0.81369 3.48014 0
M  V30 2248 S 211.047 0.550048 4.35339 0
M  V30 2249 H 207.865 0.196956 0.683176 0
M  V30 2250 H 210.467 1.16074 1.57312 0
M  V30 2251 H 209.171 1.85749 3.65958 0
M  V30 2252 H 208.702 0.171795 3.93025 0
M  V30 2253 H 210.717 -0.605423 4.92493 0
M  V30 2254 N 209.89 -1.43072 0.660911 0
M  V30 2255 C 211.12 -2.05769 0.185153 0
M  V30 2256 C 211.528 -1.49668 -1.15742 0
M  V30 2257 O 210.871 -0.625649 -1.72717 0
M  V30 2258 C 210.933 -3.59489 0.0278237 0
M  V30 2259 C 210.597 -4.38212 1.2969 0
M  V30 2260 C 211.594 -4.69772 2.22734 0
M  V30 2261 C 209.279 -4.7809 1.54063 0
M  V30 2262 C 211.273 -5.40129 3.38437 0
M  V30 2263 C 208.96 -5.4819 2.70058 0
M  V30 2264 C 209.958 -5.79132 3.62071 0
M  V30 2265 O 209.646 -6.47798 4.76039 0
M  V30 2266 H 209.378 -0.669873 0.0908086 0
M  V30 2267 H 211.932 -1.84436 0.90402 0
M  V30 2268 H 210.162 -3.79426 -0.746489 0
M  V30 2269 H 211.851 -4.03862 -0.406275 0
M  V30 2270 H 212.617 -4.39476 2.05149 0
M  V30 2271 H 208.496 -4.53408 0.833215 0
M  V30 2272 H 212.04 -5.64198 4.10277 0
M  V30 2273 H 207.937 -5.77902 2.87574 0
M  V30 2274 H 208.705 -6.66283 4.75404 0
M  V30 2275 N 211.368 -0.403325 -1.52352 0
M  V30 2276 C 212.614 0.174605 -2.02047 0
M  V30 2277 C 212.947 1.45282 -1.28867 0
M  V30 2278 O 212.222 1.90483 -0.393257 0
M  V30 2279 C 212.505 0.428238 -3.57545 0
M  V30 2280 C 212.358 -0.866248 -4.4138 0
M  V30 2281 C 213.677 1.21287 -4.23057 0
M  V30 2282 H 210.796 0.0619851 -0.734389 0
M  V30 2283 H 213.438 -0.53565 -1.82293 0
M  V30 2284 H 211.588 1.03327 -3.74507 0
M  V30 2285 H 213.26 -1.50265 -4.3614 0
M  V30 2286 H 211.503 -1.47851 -4.07827 0
M  V30 2287 H 212.174 -0.643249 -5.48239 0
M  V30 2288 H 214.65 0.700703 -4.10158 0
M  V30 2289 H 213.526 1.35909 -5.31808 0
M  V30 2290 H 213.787 2.23193 -3.81625 0
M  V30 2291 N 212.846 1.57033 -0.133567 0
M  V30 2292 C 213.756 2.19632 0.824564 0
M  V30 2293 C 214.772 1.17666 1.28182 0
M  V30 2294 O 215.948 1.50193 1.3418 0
M  V30 2295 C 213.013 2.79499 2.05137 0
M  V30 2296 C 212.074 3.96548 1.64464 0
M  V30 2297 C 211.307 4.5355 2.81297 0
M  V30 2298 O 211.53 4.09438 3.97136 0
M  V30 2299 O 210.464 5.44018 2.57542 0
M  V30 2300 H 214.29 3.01991 0.321766 0
M  V30 2301 H 211.875 1.49112 0.0927889 0
M  V30 2302 H 213.757 3.17602 2.7696 0
M  V30 2303 H 212.432 2.00162 2.54395 0
M  V30 2304 H 211.339 3.63186 0.897048 0
M  V30 2305 H 212.672 4.77364 1.19934 0
M  V30 2306 N 214.325 -0.140222 1.56975 0
M  V30 2307 C 215.55 -0.870414 1.88251 0
M  V30 2308 C 215.975 -1.73637 0.723312 0
M  V30 2309 O 215.333 -1.78329 -0.32689 0
M  V30 2310 C 215.381 -1.69737 3.18154 0
M  V30 2311 O 214.485 -2.80229 3.02565 0
M  V30 2312 H 213.826 -0.242025 0.61832 0
M  V30 2313 H 216.356 -0.128999 2.04193 0
M  V30 2314 H 216.366 -2.09099 3.50345 0
M  V30 2315 H 215.041 -1.06152 4.02125 0
M  V30 2316 H 213.618 -2.44224 2.81796 0
M  V30 2317 N 215.803 -1.52179 -0.40978 0
M  V30 2318 C 216.733 -1.78435 -1.5061 0
M  V30 2319 C 217.714 -0.635295 -1.57791 0
M  V30 2320 O 218.899 -0.880823 -1.73076 0
M  V30 2321 C 216.029 -1.93444 -2.88439 0
M  V30 2322 C 214.983 -3.09038 -2.96108 0
M  V30 2323 C 214.309 -3.09268 -4.36185 0
M  V30 2324 C 215.609 -4.48508 -2.67652 0
M  V30 2325 H 217.303 -2.70237 -1.28889 0
M  V30 2326 H 214.849 -1.30036 -0.618605 0
M  V30 2327 H 216.802 -2.10394 -3.65119 0
M  V30 2328 H 215.526 -0.983129 -3.11452 0
M  V30 2329 H 214.185 -2.91837 -2.21872 0
M  V30 2330 H 213.833 -2.11861 -4.56206 0
M  V30 2331 H 213.533 -3.86907 -4.42241 0
M  V30 2332 H 215.057 -3.28348 -5.14801 0
M  V30 2333 H 216.471 -4.65918 -3.34056 0
M  V30 2334 H 214.868 -5.28059 -2.85085 0
M  V30 2335 H 215.938 -4.56649 -1.63095 0
M  V30 2336 N 217.281 0.66697 -1.42791 0
M  V30 2337 C 218.528 1.42699 -1.43678 0
M  V30 2338 C 218.856 1.94419 -0.0560425 0
M  V30 2339 O 218.111 1.7182 0.936831 0
M  V30 2340 C 218.41 2.6349 -2.4147 0
M  V30 2341 C 218.076 2.30267 -3.8767 0
M  V30 2342 C 216.738 2.20918 -4.27491 0
M  V30 2343 C 219.09 2.03435 -4.79858 0
M  V30 2344 C 216.418 1.82873 -5.57471 0
M  V30 2345 C 218.77 1.66892 -6.10188 0
M  V30 2346 C 217.434 1.56058 -6.49001 0
M  V30 2347 H 216.704 0.522171 -0.525755 0
M  V30 2348 H 219.351 0.759785 -1.75783 0
M  V30 2349 H 217.656 3.35279 -2.0272 0
M  V30 2350 H 219.353 3.21684 -2.39417 0
M  V30 2351 H 215.943 2.38449 -3.56146 0
M  V30 2352 H 220.127 2.09586 -4.49875 0
M  V30 2353 H 215.383 1.7306 -5.86396 0
M  V30 2354 H 219.557 1.45157 -6.81104 0
M  V30 2355 H 217.184 1.26348 -7.49627 0
M  V30 2356 N 218.759 1.29093 0.90403 0
M  V30 2357 C 219.706 1.13853 2.00764 0
M  V30 2358 C 220.676 0.0330084 1.66067 0
M  V30 2359 O 221.861 0.199733 1.89752 0
M  V30 2360 C 219.001 0.816537 3.35301 0
M  V30 2361 C 218.114 2.00206 3.82807 0
M  V30 2362 C 217.249 1.61983 5.059 0
M  V30 2363 C 216.288 2.77143 5.45764 0
M  V30 2364 N 215.425 2.39346 6.60044 0
M  V30 2365 H 220.265 2.08276 2.13132 0
M  V30 2366 H 217.802 1.03648 1.04381 0
M  V30 2367 H 219.76 0.610557 4.12708 0
M  V30 2368 H 218.39 -0.090779 3.22672 0
M  V30 2369 H 217.442 2.31988 3.01473 0
M  V30 2370 H 218.754 2.86512 4.08304 0
M  V30 2371 H 217.908 1.37649 5.90879 0
M  V30 2372 H 216.647 0.728202 4.82233 0
M  V30 2373 H 215.652 3.02165 4.59322 0
M  V30 2374 H 216.877 3.66964 5.71414 0
M  V30 2375 H 214.823 1.52665 6.37989 0
M  V30 2376 H 214.74 3.19185 6.85315 0
M  V30 2377 H 216.008 2.1832 7.48303 0
M  V30 2378 N 220.237 -1.11381 1.11499 0
M  V30 2379 C 221.185 -2.19522 0.768956 0
M  V30 2380 C 222.179 -1.67693 -0.239857 0
M  V30 2381 O 223.385 -1.79727 -0.0990755 0
M  V30 2382 H 219.76 -0.715711 0.230786 0
M  V30 2383 H 221.731 -2.45954 1.68964 0
M  V30 2384 C 220.48 -3.46945 0.229073 0
M  V30 2385 H 219.803 -3.8718 0.996596 0
M  V30 2386 H 221.243 -4.23993 0.0251441 0
M  V30 2387 C 219.702 -3.2042 -1.04079 0
M  V30 2388 O 220.232 -3.41178 -2.12038 0
M  V30 2389 N 218.438 -2.74151 -0.963823 0
M  V30 2390 H 217.985 -2.57459 -0.0851722 0
M  V30 2391 H 217.943 -2.56781 -1.81414 0
M  V30 2392 N 221.715 -0.905404 -1.28997 0
M  V30 2393 C 222.645 -0.404212 -2.29975 0
M  V30 2394 C 223.626 0.523784 -1.61835 0
M  V30 2395 O 224.811 0.433298 -1.89304 0
M  V30 2396 C 221.941 0.364042 -3.45387 0
M  V30 2397 C 220.895 -0.474048 -4.25367 0
M  V30 2398 C 220.221 0.422045 -5.33032 0
M  V30 2399 C 221.521 -1.72696 -4.92923 0
M  V30 2400 H 223.215 -1.24807 -2.72146 0
M  V30 2401 H 220.761 -0.601585 -1.30832 0
M  V30 2402 H 222.714 0.725447 -4.15109 0
M  V30 2403 H 221.438 1.24174 -3.02074 0
M  V30 2404 H 220.097 -0.81786 -3.57361 0
M  V30 2405 H 219.745 1.29804 -4.85963 0
M  V30 2406 H 219.445 -0.135057 -5.87445 0
M  V30 2407 H 220.969 0.779517 -6.05604 0
M  V30 2408 H 222.383 -1.43495 -5.55051 0
M  V30 2409 H 220.78 -2.22582 -5.57295 0
M  V30 2410 H 221.85 -2.45964 -4.17887 0
M  V30 2411 N 223.193 1.4272 -0.668489 0
M  V30 2412 C 224.44 2.01624 -0.18814 0
M  V30 2413 C 224.768 1.5282 1.20317 0
M  V30 2414 O 224.023 0.718323 1.8204 0
M  V30 2415 C 224.322 3.57021 -0.164499 0
M  V30 2416 C 223.988 4.25232 -1.49962 0
M  V30 2417 C 222.65 4.4358 -1.8652 0
M  V30 2418 C 225.002 4.63727 -2.37921 0
M  V30 2419 C 222.33 4.97694 -3.10674 0
M  V30 2420 C 224.682 5.19218 -3.6138 0
M  V30 2421 C 223.346 5.3578 -3.98115 0
M  V30 2422 H 222.616 0.737795 -0.0688454 0
M  V30 2423 H 225.263 1.70991 -0.862225 0
M  V30 2424 H 223.568 3.87285 0.593079 0
M  V30 2425 H 225.265 4.00372 0.224271 0
M  V30 2426 H 221.855 4.11306 -1.20522 0
M  V30 2427 H 226.039 4.4923 -2.10964 0
M  V30 2428 H 221.295 5.08702 -3.39164 0
M  V30 2429 H 225.469 5.4799 -4.29743 0
M  V30 2430 H 223.096 5.77475 -4.94395 0
M  V30 2431 N 224.671 0.411399 1.52136 0
M  V30 2432 C 226.087 0.0623865 1.59478 0
M  V30 2433 C 226.287 -1.42554 1.4241 0
M  V30 2434 O 225.343 -2.19263 1.2522 0
M  V30 2435 C 226.656 0.559331 2.95452 0
M  V30 2436 C 228.204 0.517503 3.08692 0
M  V30 2437 C 228.679 0.990994 4.4715 0
M  V30 2438 N 230.17 0.947908 4.53397 0
M  V30 2439 C 230.905 1.28544 5.58806 0
M  V30 2440 N 230.401 1.69454 6.71757 0
M  V30 2441 N 232.194 1.20526 5.49026 0
M  V30 2442 H 224.345 1.37982 1.61477 0
M  V30 2443 H 226.608 0.566977 0.759764 0
M  V30 2444 H 226.314 1.59938 3.1323 0
M  V30 2445 H 226.188 -0.0298014 3.77188 0
M  V30 2446 H 228.575 -0.513505 2.90598 0
M  V30 2447 H 228.656 1.14272 2.28857 0
M  V30 2448 H 228.3 2.02034 4.65988 0
M  V30 2449 H 228.23 0.34257 5.25485 0
M  V30 2450 H 230.721 0.647157 3.72317 0
M  V30 2451 H 231.034 1.93513 7.48179 0
M  V30 2452 H 229.379 1.73359 6.73032 0
M  V30 2453 H 232.57 0.884505 4.59667 0
M  V30 2454 H 232.743 1.47161 6.31069 0
M  V30 2455 N 226.149 -1.5696 0.141893 0
M  V30 2456 C 227.097 -2.17784 -0.816874 0
M  V30 2457 C 228.091 -1.1334 -1.25899 0
M  V30 2458 O 229.297 -1.316 -1.22806 0
M  V30 2459 H 225.672 -0.697278 -0.281615 0
M  V30 2460 H 227.643 -2.97087 -0.279621 0
M  V30 2461 C 226.392 -2.80983 -2.04802 0
M  V30 2462 H 225.715 -3.61062 -1.7168 0
M  V30 2463 H 227.155 -3.2705 -2.69841 0
M  V30 2464 C 225.614 -1.79228 -2.8527 0
M  V30 2465 O 226.144 -1.25962 -3.8144 0
M  V30 2466 N 224.35 -1.48647 -2.49704 0
M  V30 2467 H 223.897 -1.92155 -1.71564 0
M  V30 2468 H 223.855 -0.808115 -3.03837 0
M  V30 2469 N 227.627 0.131896 -1.57047 0
M  V30 2470 C 228.857 0.855219 -1.88068 0
M  V30 2471 C 229.265 1.74557 -0.729817 0
M  V30 2472 O 228.608 1.81083 0.308962 0
M  V30 2473 C 228.67 1.75119 -3.13964 0
M  V30 2474 C 228.334 1.03646 -4.45091 0
M  V30 2475 C 229.331 0.383276 -5.18485 0
M  V30 2476 C 227.016 1.02148 -4.91804 0
M  V30 2477 C 229.01 -0.275347 -6.36805 0
M  V30 2478 C 226.697 0.359047 -6.10044 0
M  V30 2479 C 227.695 -0.288222 -6.82392 0
M  V30 2480 O 227.383 -0.94011 -7.98384 0
M  V30 2481 H 227.115 0.251864 -0.627328 0
M  V30 2482 H 229.669 0.124782 -2.05021 0
M  V30 2483 H 227.899 2.52295 -2.9306 0
M  V30 2484 H 229.588 2.3478 -3.31109 0
M  V30 2485 H 230.354 0.386562 -4.83457 0
M  V30 2486 H 226.233 1.5147 -4.35405 0
M  V30 2487 H 229.777 -0.781148 -6.93213 0
M  V30 2488 H 225.674 0.35348 -6.44531 0
M  V30 2489 H 226.442 -0.84329 -8.14144 0
M  V30 2490 N 229.106 1.52395 0.401703 0
M  V30 2491 C 230.054 1.7689 1.51039 0
M  V30 2492 C 231.048 0.636298 1.56996 0
M  V30 2493 O 232.254 0.818507 1.60314 0
M  V30 2494 H 228.629 0.559502 0.502456 0
M  V30 2495 H 230.6 2.69757 1.27568 0
M  V30 2496 C 229.349 1.94331 2.88324 0
M  V30 2497 H 228.672 2.80905 2.84486 0
M  V30 2498 H 230.112 2.15466 3.65172 0
M  V30 2499 C 228.571 0.712396 3.29282 0
M  V30 2500 O 229.101 -0.116218 4.01532 0
M  V30 2501 N 227.307 0.546154 2.85422 0
M  V30 2502 H 226.854 1.22156 2.26794 0
M  V30 2503 H 226.812 -0.276113 3.13185 0
M  V30 2504 N 230.584 -0.659388 1.43143 0
M  V30 2505 C 231.814 -1.44513 1.47646 0
M  V30 2506 C 232.222 -1.88981 0.0910095 0
M  V30 2507 O 231.565 -1.59702 -0.907789 0
M  V30 2508 C 231.627 -2.71663 2.35456 0
M  V30 2509 C 231.291 -2.49175 3.83094 0
M  V30 2510 C 232.288 -2.1279 4.74359 0
M  V30 2511 C 229.973 -2.63691 4.27519 0
M  V30 2512 C 231.967 -1.9121 6.08044 0
M  V30 2513 C 229.654 -2.41726 5.61259 0
M  V30 2514 C 230.652 -2.0554 6.51339 0
M  V30 2515 O 230.34 -1.838 7.82606 0
M  V30 2516 H 230.072 -0.45064 0.503884 0
M  V30 2517 H 232.626 -0.816248 1.88485 0
M  V30 2518 H 230.856 -3.37089 1.89493 0
M  V30 2519 H 232.545 -3.33595 2.31235 0
M  V30 2520 H 233.311 -2.01157 4.41317 0
M  V30 2521 H 229.19 -2.90832 3.57684 0
M  V30 2522 H 232.734 -1.62889 6.78316 0
M  V30 2523 H 228.631 -2.52959 5.9387 0
M  V30 2524 H 229.399 -1.98275 7.94122 0
M  V30 2525 N 232.062 -1.29571 -0.897171 0
M  V30 2526 C 233.009 -1.14916 -2.00158 0
M  V30 2527 C 233.979 -0.0418149 -1.66047 0
M  V30 2528 O 235.164 -0.209793 -1.89643 0
M  V30 2529 C 232.304 -0.834307 -3.34863 0
M  V30 2530 C 231.417 -2.02234 -3.8174 0
M  V30 2531 C 230.552 -1.64664 -5.05034 0
M  V30 2532 C 229.591 -2.80033 -5.44286 0
M  V30 2533 N 228.728 -2.42843 -6.58765 0
M  V30 2534 H 233.568 -2.09403 -2.12025 0
M  V30 2535 H 231.105 -1.042 -1.0383 0
M  V30 2536 H 233.063 -0.632436 -4.12379 0
M  V30 2537 H 231.693 0.0736656 -3.22716 0
M  V30 2538 H 230.745 -2.33583 -3.00238 0
M  V30 2539 H 232.057 -2.88673 -4.06779 0
M  V30 2540 H 231.211 -1.4078 -5.9014 0
M  V30 2541 H 229.95 -0.753766 -4.8184 0
M  V30 2542 H 228.955 -3.04596 -4.57713 0
M  V30 2543 H 230.18 -3.69989 -5.6946 0
M  V30 2544 H 228.126 -1.56046 -6.3717 0
M  V30 2545 H 228.043 -3.22815 -6.83613 0
M  V30 2546 H 229.311 -2.22285 -7.47134 0
M  V30 2547 N 233.54 1.10788 -1.12088 0
M  V30 2548 C 234.786 1.82942 -0.875226 0
M  V30 2549 C 235.119 1.84779 0.597538 0
M  V30 2550 O 234.394 1.30578 1.44152 0
M  V30 2551 C 234.677 3.29789 -1.44606 0
M  V30 2552 C 234.53 3.36307 -2.98693 0
M  V30 2553 C 235.849 4.26064 -1.10261 0
M  V30 2554 H 232.968 0.664195 -0.319397 0
M  V30 2555 H 235.61 1.29867 -1.38689 0
M  V30 2556 H 233.76 3.75118 -1.01089 0
M  V30 2557 H 235.432 2.99487 -3.50864 0
M  V30 2558 H 233.675 2.76318 -3.34411 0
M  V30 2559 H 234.346 4.39694 -3.33726 0
M  V30 2560 H 236.822 3.88951 -1.4784 0
M  V30 2561 H 235.698 5.27183 -1.52869 0
M  V30 2562 H 235.959 4.42098 -0.0142953 0
M  V30 2563 N 235.018 0.912232 1.28515 0
M  V30 2564 C 235.968 0.370649 2.24967 0
M  V30 2565 C 236.952 -0.516375 1.52389 0
M  V30 2566 O 238.144 -0.356345 1.73376 0
M  V30 2567 C 235.273 -0.389526 3.41083 0
M  V30 2568 C 234.359 0.51313 4.20984 0
M  V30 2569 N 234.75 1.62604 4.78951 0
M  V30 2570 C 233.048 0.313235 4.44899 0
M  V30 2571 C 233.749 2.18619 5.39055 0
M  V30 2572 N 232.725 1.47765 5.23132 0
M  V30 2573 H 236.527 1.22061 2.67354 0
M  V30 2574 H 234.041 0.764712 1.43269 0
M  V30 2575 H 236.038 -0.794353 4.09262 0
M  V30 2576 H 234.698 -1.2366 3.0023 0
M  V30 2577 H 235.709 2.00864 4.77362 0
M  V30 2578 H 232.386 -0.494452 4.14562 0
M  V30 2579 H 233.776 3.12228 5.94948 0
M  V30 2580 N 236.496 -1.42363 0.676048 0
M  V30 2581 C 237.426 -2.33497 0.0124832 0
M  V30 2582 C 238.407 -1.50748 -0.787981 0
M  V30 2583 O 239.592 -1.79346 -0.744884 0
M  V30 2584 C 236.722 -3.34377 -0.938582 0
M  V30 2585 C 235.676 -4.27289 -0.246622 0
M  V30 2586 C 235.002 -5.18386 -1.31071 0
M  V30 2587 C 236.302 -5.14916 0.875125 0
M  V30 2588 H 237.996 -2.89233 0.773593 0
M  V30 2589 H 235.542 -1.39073 0.37346 0
M  V30 2590 H 237.495 -3.97044 -1.41188 0
M  V30 2591 H 236.219 -2.76947 -1.73113 0
M  V30 2592 H 234.878 -3.66018 0.206456 0
M  V30 2593 H 234.526 -4.57282 -2.09528 0
M  V30 2594 H 234.226 -5.81378 -0.852839 0
M  V30 2595 H 235.75 -5.83929 -1.78492 0
M  V30 2596 H 237.164 -5.71262 0.482983 0
M  V30 2597 H 235.561 -5.86747 1.25887 0
M  V30 2598 H 236.631 -4.53242 1.72335 0
M  V30 2599 N 237.974 -0.419461 -1.51915 0
M  V30 2600 C 238.904 0.391813 -2.30189 0
M  V30 2601 C 239.885 1.03699 -1.34836 0
M  V30 2602 O 241.07 1.04403 -1.63748 0
M  V30 2603 C 238.2 1.50312 -3.13087 0
M  V30 2604 C 237.154 0.9824 -4.16573 0
M  V30 2605 C 236.48 2.18809 -4.8788 0
M  V30 2606 C 237.78 0.0292356 -5.22292 0
M  V30 2607 H 239.474 -0.26135 -2.98257 0
M  V30 2608 H 237.02 -0.127134 -1.43438 0
M  V30 2609 H 238.973 2.07773 -3.66617 0
M  V30 2610 H 237.697 2.18431 -2.42807 0
M  V30 2611 H 236.356 0.430119 -3.64068 0
M  V30 2612 H 236.004 2.85507 -4.14119 0
M  V30 2613 H 235.704 1.84615 -5.57845 0
M  V30 2614 H 237.228 2.76858 -5.44226 0
M  V30 2615 H 238.642 0.512976 -5.71 0
M  V30 2616 H 237.039 -0.2244 -5.9968 0
M  V30 2617 H 238.109 -0.912931 -4.76228 0
M  V30 2618 N 239.452 1.56882 -0.150215 0
M  V30 2619 C 240.682 2.00302 0.506213 0
M  V30 2620 C 241.09 1.02934 1.58749 0
M  V30 2621 O 240.433 0.0188384 1.8369 0
M  V30 2622 C 240.495 3.40156 1.16337 0
M  V30 2623 C 240.159 4.56439 0.226311 0
M  V30 2624 C 241.156 5.17012 -0.547265 0
M  V30 2625 C 238.841 5.02136 0.128279 0
M  V30 2626 C 240.835 6.21693 -1.40629 0
M  V30 2627 C 238.522 6.06672 -0.734345 0
M  V30 2628 C 239.52 6.6632 -1.50023 0
M  V30 2629 O 239.208 7.68831 -2.34848 0
M  V30 2630 H 238.94 0.662182 0.135984 0
M  V30 2631 H 241.494 2.03961 -0.242746 0
M  V30 2632 H 239.724 3.33346 1.96004 0
M  V30 2633 H 241.413 3.67663 1.71985 0
M  V30 2634 H 242.179 4.82603 -0.48158 0
M  V30 2635 H 238.058 4.55435 0.714157 0
M  V30 2636 H 241.602 6.68179 -2.00455 0
M  V30 2637 H 237.499 6.40507 -0.801309 0
M  V30 2638 H 238.267 7.86065 -2.28131 0
M  V30 2639 N 240.93 -0.123565 1.57115 0
M  V30 2640 C 242.176 -0.833386 1.84885 0
M  V30 2641 C 242.509 -1.79742 0.735292 0
M  V30 2642 O 241.784 -1.92764 -0.25925 0
M  V30 2643 C 242.067 -1.5873 3.23228 0
M  V30 2644 C 241.92 -0.643183 4.45178 0
M  V30 2645 C 243.239 -2.54453 3.59085 0
M  V30 2646 H 240.358 -0.301518 0.6725 0
M  V30 2647 H 243 -0.097778 1.89748 0
M  V30 2648 H 241.15 -2.21438 3.19214 0
M  V30 2649 H 242.822 -0.0253015 4.61293 0
M  V30 2650 H 241.065 0.0456139 4.33776 0
M  V30 2651 H 241.736 -1.20724 5.38637 0
M  V30 2652 H 244.212 -2.01853 3.63861 0
M  V30 2653 H 243.088 -3.04238 4.5687 0
M  V30 2654 H 243.349 -3.36906 2.86264 0
M  V30 2655 N 242.408 -1.52605 -0.393616 0
M  V30 2656 C 243.338 -1.80022 -1.48709 0
M  V30 2657 C 244.319 -0.651995 -1.57108 0
M  V30 2658 O 245.504 -0.89913 -1.72132 0
M  V30 2659 C 242.634 -1.96492 -2.86371 0
M  V30 2660 C 241.588 -3.12161 -2.92813 0
M  V30 2661 C 240.914 -3.13877 -4.3288 0
M  V30 2662 C 242.214 -4.51322 -2.6288 0
M  V30 2663 H 243.908 -2.71589 -1.26015 0
M  V30 2664 H 241.454 -1.30684 -0.604778 0
M  V30 2665 H 243.407 -2.14255 -3.62867 0
M  V30 2666 H 242.131 -1.01611 -3.10391 0
M  V30 2667 H 240.79 -2.94173 -2.18764 0
M  V30 2668 H 240.438 -2.16687 -4.53933 0
M  V30 2669 H 240.138 -3.91576 -4.38112 0
M  V30 2670 H 241.662 -3.33789 -5.1129 0
M  V30 2671 H 243.076 -4.69435 -3.29096 0
M  V30 2672 H 241.473 -5.31053 -2.79468 0
M  V30 2673 H 242.543 -4.58353 -1.58242 0
M  V30 2674 N 243.887 0.651787 -1.4349 0
M  V30 2675 C 245.298 1.233 -1.40193 0
M  V30 2676 C 245.649 1.9591 -0.106727 0
M  V30 2677 O 244.774 2.01316 0.793773 0
M  V30 2678 C 245.369 2.24257 -2.53957 0
M  V30 2679 C 243.928 2.77852 -2.5392 0
M  V30 2680 C 243.075 1.52517 -2.3159 0
M  V30 2681 H 246.026 0.443717 -1.52371 0
M  V30 2682 H 246.047 3.0646 -2.25528 0
M  V30 2683 H 245.559 1.71382 -3.4821 0
M  V30 2684 H 243.66 3.34786 -1.63551 0
M  V30 2685 H 243.773 3.25299 -3.51735 0
M  V30 2686 H 242.137 1.79915 -1.80285 0
M  V30 2687 H 242.92 1.01574 -3.27929 0
M  V30 2688 N 245.365 1.30045 0.890287 0
M  V30 2689 C 246.275 1.17885 2.02831 0
M  V30 2690 C 247.291 0.0999609 1.73713 0
M  V30 2691 O 248.467 0.313867 1.98939 0
M  V30 2692 C 245.532 0.866079 3.35708 0
M  V30 2693 C 244.593 2.02979 3.78283 0
M  V30 2694 C 243.826 1.73184 5.0482 0
M  V30 2695 O 244.049 0.657237 5.66601 0
M  V30 2696 O 242.983 2.58267 5.43674 0
M  V30 2697 H 246.809 2.13474 2.16015 0
M  V30 2698 H 244.394 1.09587 1.01543 0
M  V30 2699 H 246.276 0.706623 4.15433 0
M  V30 2700 H 244.951 -0.0599443 3.23644 0
M  V30 2701 H 243.858 2.24454 2.99285 0
M  V30 2702 H 245.191 2.93734 3.94944 0
M  V30 2703 N 246.843 -1.10192 1.12674 0
M  V30 2704 C 248.089 -1.82475 0.884915 0
M  V30 2705 C 248.422 -1.85093 -0.58773 0
M  V30 2706 O 247.697 -1.3134 -1.43457 0
M  V30 2707 C 247.98 -3.29018 1.46353 0
M  V30 2708 C 247.833 -3.34718 3.00473 0
M  V30 2709 C 249.152 -4.25473 1.12519 0
M  V30 2710 H 246.271 -0.662492 0.322915 0
M  V30 2711 H 248.913 -1.2913 1.39375 0
M  V30 2712 H 247.063 -3.74576 1.03077 0
M  V30 2713 H 248.735 -2.97622 3.52447 0
M  V30 2714 H 246.978 -2.74541 3.35872 0
M  V30 2715 H 247.649 -4.37918 3.36053 0
M  V30 2716 H 250.125 -3.88161 1.499 0
M  V30 2717 H 249.001 -5.26365 1.55663 0
M  V30 2718 H 249.262 -4.42084 0.0377407 0
M  V30 2719 N 248.321 -0.919034 -1.28029 0
M  V30 2720 C 249.251 -0.428581 -2.29533 0
M  V30 2721 C 250.232 0.50659 -1.62381 0
M  V30 2722 O 251.417 0.413195 -1.89753 0
M  V30 2723 C 248.547 0.327388 -3.45753 0
M  V30 2724 C 247.501 -0.519137 -4.2484 0
M  V30 2725 C 246.827 0.365486 -5.33449 0
M  V30 2726 C 248.127 -1.77914 -4.91064 0
M  V30 2727 H 249.821 -1.27687 -2.70807 0
M  V30 2728 H 247.367 -0.615428 -1.30186 0
M  V30 2729 H 249.32 0.681378 -4.15855 0
M  V30 2730 H 248.044 1.20963 -3.03374 0
M  V30 2731 H 246.703 -0.855717 -3.56473 0
M  V30 2732 H 246.351 1.24642 -4.87312 0
M  V30 2733 H 246.051 -0.197356 -5.87268 0
M  V30 2734 H 247.575 0.715241 -6.06396 0
M  V30 2735 H 248.989 -1.49374 -5.53498 0
M  V30 2736 H 247.386 -2.2848 -5.54903 0
M  V30 2737 H 248.456 -2.50382 -4.15255 0
M  V30 2738 N 249.799 1.42003 -0.683588 0
M  V30 2739 C 250.709 2.34597 -0.0109075 0
M  V30 2740 C 251.725 1.55576 0.779245 0
M  V30 2741 O 252.901 1.88107 0.719555 0
M  V30 2742 C 249.966 3.34199 0.922588 0
M  V30 2743 C 249.027 4.29115 0.125984 0
M  V30 2744 C 248.26 5.23959 1.01502 0
M  V30 2745 O 248.483 5.23952 2.25456 0
M  V30 2746 O 247.417 6.00053 0.47111 0
M  V30 2747 H 251.243 2.93675 -0.773853 0
M  V30 2748 H 248.828 1.42654 -0.443861 0
M  V30 2749 H 250.71 3.95365 1.45823 0
M  V30 2750 H 249.385 2.77582 1.66523 0
M  V30 2751 H 248.292 3.71335 -0.453969 0
M  V30 2752 H 249.625 4.88798 -0.577736 0
M  V30 2753 N 251.277 0.427512 1.51691 0
M  V30 2754 C 252.554 -0.201684 1.94557 0
M  V30 2755 C 252.934 -1.60981 1.36559 0
M  V30 2756 O 252.282 -2.21814 0.548702 0
M  V30 2757 C 252.492 -0.189394 3.48486 0
M  V30 2758 C 253.84 -0.39978 4.22714 0
M  V30 2759 O 254.864 -0.267945 3.55191 0
M  V30 2760 O 253.723 -0.661249 5.42485 0
M  V30 2761 H 250.817 -0.135261 0.815864 0
M  V30 2762 H 253.363 0.484782 1.62628 0
M  V30 2763 H 252.135 0.795431 3.8313 0
M  V30 2764 H 251.758 -0.919187 3.86829 0
M  V30 2765 N 252.755 -1.56801 0.158532 0
M  V30 2766 C 253.98 -2.01295 -0.499516 0
M  V30 2767 C 254.405 -1.03799 -1.56867 0
M  V30 2768 O 253.763 -0.0155162 -1.81293 0
M  V30 2769 C 253.811 -3.44469 -1.06647 0
M  V30 2770 O 252.915 -3.50012 -2.18095 0
M  V30 2771 H 252.256 -0.652884 -0.12099 0
M  V30 2772 H 254.786 -2.02958 0.258661 0
M  V30 2773 H 254.796 -3.8351 -1.39227 0
M  V30 2774 H 253.471 -4.14932 -0.283581 0
M  V30 2775 H 252.048 -3.22822 -1.86656 0
M  V30 2776 N 254.233 0.115231 -1.57178 0
M  V30 2777 C 255.644 0.67197 -1.74188 0
M  V30 2778 C 255.995 1.80125 -0.777777 0
M  V30 2779 O 255.12 2.16346 0.0484376 0
M  V30 2780 C 255.715 1.22573 -3.1585 0
M  V30 2781 C 254.274 1.72872 -3.34353 0
M  V30 2782 C 253.421 0.629972 -2.70049 0
M  V30 2783 H 256.372 -0.110712 -1.58313 0
M  V30 2784 H 256.393 2.09535 -3.17609 0
M  V30 2785 H 255.905 0.403598 -3.85996 0
M  V30 2786 H 254.006 2.5755 -2.69256 0
M  V30 2787 H 254.119 1.83557 -4.42542 0
M  V30 2788 H 252.483 1.0645 -2.31388 0
M  V30 2789 H 253.266 -0.181241 -3.42821 0
M  V30 2790 N 255.711 1.52812 0.385517 0
M  V30 2791 C 256.641 1.80808 1.47752 0
M  V30 2792 C 257.622 0.660318 1.5676 0
M  V30 2793 O 258.807 0.908246 1.71652 0
M  V30 2794 C 255.937 1.98008 2.85324 0
M  V30 2795 C 254.891 3.13709 2.91154 0
M  V30 2796 C 254.217 3.16169 4.31209 0
M  V30 2797 C 255.517 4.52709 2.60483 0
M  V30 2798 H 257.211 2.72253 1.24573 0
M  V30 2799 H 254.757 1.31003 0.597839 0
M  V30 2800 H 256.71 2.16176 3.61726 0
M  V30 2801 H 255.434 1.03255 3.09848 0
M  V30 2802 H 254.093 2.95329 2.17201 0
M  V30 2803 H 253.741 2.19092 4.52778 0
M  V30 2804 H 253.441 3.93894 4.36029 0
M  V30 2805 H 254.965 3.36496 5.09512 0
M  V30 2806 H 256.379 4.71173 3.26602 0
M  V30 2807 H 254.776 5.32528 2.76648 0
M  V30 2808 H 255.846 4.59186 1.55809 0
M  V30 2809 N 257.189 -0.644168 1.43834 0
M  V30 2810 C 258.435 -1.40603 1.46146 0
M  V30 2811 C 258.768 -1.93997 0.0887717 0
M  V30 2812 O 258.043 -1.72854 -0.891724 0
M  V30 2813 C 258.326 -2.58086 2.51124 0
M  V30 2814 C 258.179 -2.10126 3.97702 0
M  V30 2815 C 259.498 -3.60291 2.52742 0
M  V30 2816 H 256.617 -0.509905 0.532134 0
M  V30 2817 H 259.259 -0.729502 1.75437 0
M  V30 2818 H 257.409 -3.15801 2.26278 0
M  V30 2819 H 259.081 -1.57342 4.33637 0
M  V30 2820 H 257.324 -1.41419 4.10101 0
M  V30 2821 H 257.995 -2.94649 4.66783 0
M  V30 2822 H 260.471 -3.12352 2.7491 0
M  V30 2823 H 259.347 -4.40032 3.28121 0
M  V30 2824 H 259.608 -4.1349 1.56455 0
M  V30 2825 N 258.668 -1.30515 -0.883378 0
M  V30 2826 C 260.079 -1.17509 -1.45081 0
M  V30 2827 C 260.43 0.223605 -1.94922 0
M  V30 2828 O 259.555 1.12041 -1.85137 0
M  V30 2829 C 260.15 -2.12715 -2.63701 0
M  V30 2830 C 258.709 -2.03682 -3.16529 0
M  V30 2831 C 257.856 -2.02706 -1.89224 0
M  V30 2832 H 260.807 -1.42762 -0.693165 0
M  V30 2833 H 260.828 -1.70891 -3.39965 0
M  V30 2834 H 260.34 -3.14505 -2.27395 0
M  V30 2835 H 258.441 -1.05039 -3.57488 0
M  V30 2836 H 258.554 -2.92146 -3.7972 0
M  V30 2837 H 256.918 -1.4753 -2.07622 0
M  V30 2838 H 257.701 -3.06229 -1.55174 0
M  V30 2839 N 260.146 1.09593 -1.13257 0
M  V30 2840 C 261.078 2.16015 -0.766167 0
M  V30 2841 C 262.091 1.61423 0.211303 0
M  V30 2842 O 263.28 1.78498 -0.00863946 0
M  V30 2843 C 260.38 3.38706 -0.114662 0
M  V30 2844 C 259.553 4.22717 -1.12379 0
M  V30 2845 C 258.612 5.23835 -0.498301 0
M  V30 2846 O 257.638 5.573 -1.15781 0
M  V30 2847 N 258.84 5.75886 0.730417 0
M  V30 2848 H 261.605 2.48055 -1.68193 0
M  V30 2849 H 259.166 1.25292 -1.02535 0
M  V30 2850 H 261.158 4.03464 0.315991 0
M  V30 2851 H 259.728 3.04569 0.704011 0
M  V30 2852 H 258.948 3.54122 -1.73179 0
M  V30 2853 H 260.236 4.75673 -1.80589 0
M  V30 2854 H 259.634 5.50911 1.28504 0
M  V30 2855 H 258.191 6.42387 1.10376 0
M  V30 2856 N 261.624 0.925811 1.2754 0
M  V30 2857 C 262.571 0.422045 2.26908 0
M  V30 2858 C 263.541 -0.510029 1.58076 0
M  V30 2859 O 264.726 -0.429599 1.85901 0
M  V30 2860 C 261.866 -0.320837 3.43605 0
M  V30 2861 C 260.979 0.64513 4.27156 0
M  V30 2862 C 260.114 -0.117405 5.3107 0
M  V30 2863 C 259.153 0.841391 6.0629 0
M  V30 2864 N 258.29 0.111604 7.02011 0
M  V30 2865 H 263.13 1.27441 2.69375 0
M  V30 2866 H 260.667 0.639697 1.32462 0
M  V30 2867 H 262.625 -0.76785 4.10073 0
M  V30 2868 H 261.255 -1.13745 3.02096 0
M  V30 2869 H 260.307 1.21067 3.6062 0
M  V30 2870 H 261.619 1.37797 4.79389 0
M  V30 2871 H 260.773 -0.624422 6.03478 0
M  V30 2872 H 259.512 -0.883219 4.79636 0
M  V30 2873 H 258.517 1.35967 5.32722 0
M  V30 2874 H 259.742 1.60696 6.59813 0
M  V30 2875 H 257.688 -0.635999 6.5291 0
M  V30 2876 H 257.605 0.784044 7.51923 0
M  V30 2877 H 258.873 -0.374823 7.78598 0
M  V30 2878 N 263.102 -1.41638 0.69111 0
M  V30 2879 C 264.35 -2.00902 0.219758 0
M  V30 2880 C 264.671 -1.54994 -1.18329 0
M  V30 2881 O 263.941 -0.778628 -1.79762 0
M  V30 2882 H 262.521 -0.74289 0.0782558 0
M  V30 2883 H 265.183 -1.73327 0.891271 0
M  V30 2884 H 264.279 -3.11224 0.233708 0
M  V30 2885 N 264.58 -0.43555 -1.51462 0
M  V30 2886 C 265.805 0.132627 -2.06976 0
M  V30 2887 C 266.23 1.35848 -1.30104 0
M  V30 2888 O 265.588 1.78112 -0.338493 0
M  V30 2889 C 265.636 0.43523 -3.57964 0
M  V30 2890 O 264.74 1.52198 -3.83288 0
M  V30 2891 H 264.081 0.00265 -0.663995 0
M  V30 2892 H 266.611 -0.616369 -1.95095 0
M  V30 2893 H 266.621 0.686206 -4.02188 0
M  V30 2894 H 265.296 -0.460739 -4.1334 0
M  V30 2895 H 263.873 1.2611 -3.50928 0
M  V30 2896 N 266.058 1.56714 -0.166846 0
M  V30 2897 C 267.305 1.96747 0.479252 0
M  V30 2898 C 267.633 1.05263 1.63554 0
M  V30 2899 O 266.888 0.0858098 1.95512 0
M  V30 2900 C 267.187 3.42889 1.00806 0
M  V30 2901 C 266.853 4.50889 -0.0318574 0
M  V30 2902 C 265.515 4.8015 -0.317675 0
M  V30 2903 C 267.867 5.15949 -0.737956 0
M  V30 2904 C 265.195 5.71772 -1.31506 0
M  V30 2905 C 267.547 6.08647 -1.72429 0
M  V30 2906 C 266.211 6.36277 -2.0176 0
M  V30 2907 H 265.481 0.719949 0.175371 0
M  V30 2908 H 268.128 1.89756 -0.257864 0
M  V30 2909 H 266.433 3.4681 1.82291 0
M  V30 2910 H 268.13 3.71203 1.51689 0
M  V30 2911 H 264.72 4.28128 0.201088 0
M  V30 2912 H 268.904 4.93458 -0.530351 0
M  V30 2913 H 264.16 5.91465 -1.54853 0
M  V30 2914 H 268.334 6.58129 -2.27682 0
M  V30 2915 H 265.961 7.07075 -2.79194 0
M  V30 2916 N 267.536 -0.106894 1.57237 0
M  V30 2917 C 268.468 -1.15646 1.97885 0
M  V30 2918 C 269.481 -1.36981 0.879779 0
M  V30 2919 O 270.67 -1.35841 1.15799 0
M  V30 2920 C 267.77 -2.51425 2.27241 0
M  V30 2921 C 266.943 -2.50529 3.58545 0
M  V30 2922 C 266.002 -3.68145 3.75973 0
M  V30 2923 O 265.028 -3.51176 4.47956 0
M  V30 2924 N 266.23 -4.87177 3.15656 0
M  V30 2925 H 268.995 -0.81059 2.8853 0
M  V30 2926 H 266.556 -0.296024 1.59171 0
M  V30 2927 H 268.548 -3.28689 2.36105 0
M  V30 2928 H 267.118 -2.78147 1.42663 0
M  V30 2929 H 266.338 -1.58894 3.60758 0
M  V30 2930 H 267.626 -2.46997 4.44826 0
M  V30 2931 H 267.024 -5.03868 2.57165 0
M  V30 2932 H 265.581 -5.62075 3.30023 0
M  V30 2933 N 269.014 -1.53014 -0.377408 0
M  V30 2934 C 269.947 -1.73382 -1.48371 0
M  V30 2935 C 270.925 -0.581879 -1.51832 0
M  V30 2936 O 272.109 -0.81307 -1.70063 0
M  V30 2937 C 269.236 -1.80192 -2.8679 0
M  V30 2938 C 268.282 -3.02056 -3.01105 0
M  V30 2939 S 269.115 -4.61811 -2.71093 0
M  V30 2940 C 270.271 -4.71453 -4.11683 0
M  V30 2941 H 270.504 -2.66946 -1.30872 0
M  V30 2942 H 268.037 -1.43453 -0.571012 0
M  V30 2943 H 269.995 -1.84802 -3.6655 0
M  V30 2944 H 268.656 -0.877008 -3.01608 0
M  V30 2945 H 267.849 -3.03396 -4.02451 0
M  V30 2946 H 267.451 -2.95498 -2.29253 0
M  V30 2947 H 269.743 -4.50781 -5.0577 0
M  V30 2948 H 270.686 -5.73487 -4.15353 0
M  V30 2949 H 271.094 -4.00189 -3.98132 0
M  V30 2950 N 270.492 0.636531 -1.44174 0
M  V30 2951 C 271.738 1.39826 -1.4689 0
M  V30 2952 C 272.071 1.93947 -0.0990585 0
M  V30 2953 O 271.346 1.73325 0.882544 0
M  V30 2954 C 271.629 2.56751 -2.5249 0
M  V30 2955 C 271.482 2.08014 -3.98811 0
M  V30 2956 C 272.801 3.58946 -2.54649 0
M  V30 2957 H 269.92 0.507075 -0.53483 0
M  V30 2958 H 272.562 0.720188 -1.75822 0
M  V30 2959 H 270.712 3.14597 -2.2795 0
M  V30 2960 H 272.384 1.5504 -4.34466 0
M  V30 2961 H 270.627 1.39242 -4.10846 0
M  V30 2962 H 271.298 2.92169 -4.68339 0
M  V30 2963 H 273.774 3.1089 -2.76563 0
M  V30 2964 H 272.65 4.38286 -3.3045 0
M  V30 2965 H 272.911 4.12655 -1.58646 0
M  V30 2966 N 271.97 1.30982 0.876444 0
M  V30 2967 C 272.92 1.14688 1.97055 0
M  V30 2968 C 273.904 0.0596593 1.60789 0
M  V30 2969 O 275.096 0.283892 1.74708 0
M  V30 2970 C 272.225 0.849627 3.3262 0
M  V30 2971 C 271.311 1.97752 3.75173 0
M  V30 2972 N 271.702 3.22384 3.89746 0
M  V30 2973 C 270 1.8758 4.04635 0
M  V30 2974 C 270.701 3.96121 4.25985 0
M  V30 2975 N 269.677 3.24237 4.36315 0
M  V30 2976 H 273.479 2.09204 2.06424 0
M  V30 2977 H 270.993 1.22445 1.06682 0
M  V30 2978 H 272.99 0.713895 4.10742 0
M  V30 2979 H 271.65 -0.087376 3.24582 0
M  V30 2980 H 272.661 3.57575 3.74647 0
M  V30 2981 H 269.338 1.01303 4.05024 0
M  V30 2982 H 270.728 5.03491 4.44911 0
M  V30 2983 N 273.449 -1.08991 1.13837 0
M  V30 2984 C 274.689 -1.82867 0.913183 0
M  V30 2985 C 275.053 -1.83936 -0.550604 0
M  V30 2986 O 276.254 -2.53515 -0.893515 0
M  V30 2987 C 274.525 -3.24843 1.49036 0
M  V30 2988 S 276.084 -4.15669 1.40588 0
M  V30 2989 H 272.902 -0.630278 0.329046 0
M  V30 2990 H 275.504 -1.31049 1.45073 0
M  V30 2991 H 274.208 -3.21644 2.54899 0
M  V30 2992 H 273.739 -3.81734 0.950947 0
M  V30 2993 H 275.754 -4.94686 0.387353 0
M  V30 2994 N 274.927 -0.932562 -1.27047 0
M  V30 2995 C 275.875 -0.42603 -2.28665 0
M  V30 2996 C 276.869 0.49219 -1.62092 0
M  V30 2997 O 278.075 0.371355 -1.76128 0
M  V30 2998 H 274.45 -0.119213 -0.742491 0
M  V30 2999 H 276.421 -1.29579 -2.68797 0
M  V30 3000 C 275.17 0.301426 -3.46391 0
M  V30 3001 H 274.493 -0.39595 -3.97834 0
M  V30 3002 H 275.933 0.6202 -4.1944 0
M  V30 3003 C 274.392 1.51616 -3.00856 0
M  V30 3004 O 274.922 2.61476 -3.04948 0
M  V30 3005 N 273.128 1.36969 -2.56296 0
M  V30 3006 H 272.675 0.475873 -2.53166 0
M  V30 3007 H 272.633 2.18368 -2.26192 0
M  V30 3008 N 276.405 1.4127 -0.698611 0
M  V30 3009 C 277.645 2.03044 -0.235062 0
M  V30 3010 C 278.009 1.54146 1.14468 0
M  V30 3011 O 279.21 2.07867 1.70425 0
M  V30 3012 C 277.481 3.56192 -0.293651 0
M  V30 3013 S 279.04 4.38696 0.0954053 0
M  V30 3014 H 275.858 0.704697 -0.0944648 0
M  V30 3015 H 278.46 1.72656 -0.917064 0
M  V30 3016 H 277.164 3.89274 -1.29977 0
M  V30 3017 H 276.695 3.91285 0.407397 0
M  V30 3018 H 278.71 4.78257 1.3223 0
M  V30 3019 N 277.883 0.443576 1.51229 0
M  V30 3020 C 279.108 -0.121648 2.07043 0
M  V30 3021 C 279.533 -1.35156 1.30823 0
M  V30 3022 O 278.891 -1.7793 0.347934 0
M  V30 3023 C 278.939 -0.41624 3.5819 0
M  V30 3024 O 278.043 -1.50163 3.8409 0
M  V30 3025 H 277.384 0.000871367 0.663999 0
M  V30 3026 H 279.914 0.626706 1.94765 0
M  V30 3027 H 279.924 -0.664867 4.02546 0
M  V30 3028 H 278.599 0.482653 4.1309 0
M  V30 3029 H 277.176 -1.24248 3.51592 0
M  V30 3030 N 279.361 -1.56624 0.175154 0
M  V30 3031 C 280.607 -1.9729 -0.469506 0
M  V30 3032 C 280.94 -1.06128 -1.62636 0
M  V30 3033 O 280.215 -0.109183 -1.94193 0
M  V30 3034 C 280.498 -3.47375 -0.948804 0
M  V30 3035 C 280.351 -4.49317 0.208491 0
M  V30 3036 C 281.67 -4.00652 -1.82116 0
M  V30 3037 H 278.789 -0.717317 -0.16919 0
M  V30 3038 H 281.431 -1.88184 0.262062 0
M  V30 3039 H 279.581 -3.55267 -1.57219 0
M  V30 3040 H 281.253 -4.53482 0.845682 0
M  V30 3041 H 279.496 -4.25121 0.863395 0
M  V30 3042 H 280.167 -5.51741 -0.169059 0
M  V30 3043 H 282.643 -3.95416 -1.2956 0
M  V30 3044 H 281.519 -5.06075 -2.12554 0
M  V30 3045 H 281.78 -3.44699 -2.7683 0
M  V30 3046 N 280.839 0.0985539 -1.57292 0
M  V30 3047 C 281.789 1.1261 -1.9825 0
M  V30 3048 C 282.773 1.35961 -0.860426 0
M  V30 3049 O 283.965 1.36711 -1.12424 0
M  V30 3050 C 281.094 2.44727 -2.40757 0
M  V30 3051 C 280.18 2.24764 -3.59642 0
M  V30 3052 N 280.571 1.74661 -4.74687 0
M  V30 3053 C 278.869 2.55344 -3.65672 0
M  V30 3054 C 279.57 1.68887 -5.56644 0
M  V30 3055 N 278.546 2.13976 -4.99715 0
M  V30 3056 H 282.348 0.731604 -2.84648 0
M  V30 3057 H 279.862 0.306029 -1.59491 0
M  V30 3058 H 281.859 3.19072 -2.68326 0
M  V30 3059 H 280.519 2.84917 -1.55733 0
M  V30 3060 H 281.53 1.43908 -4.97505 0
M  V30 3061 H 278.207 2.99081 -2.91302 0
M  V30 3062 H 279.597 1.3123 -6.5896 0
M  V30 3063 N 282.317 1.53212 0.369288 0
M  V30 3064 C 283.227 1.82342 1.47609 0
M  V30 3065 C 284.243 0.711532 1.58787 0
M  V30 3066 O 285.419 1.0012 1.74751 0
M  V30 3067 C 282.484 2.00393 2.8292 0
M  V30 3068 C 281.545 3.24297 2.81301 0
M  V30 3069 C 280.778 3.41478 4.10157 0
M  V30 3070 O 281.001 2.63033 5.06132 0
M  V30 3071 O 279.935 4.34817 4.16194 0
M  V30 3072 H 283.761 2.76366 1.25918 0
M  V30 3073 H 281.346 1.38547 0.559034 0
M  V30 3074 H 283.228 2.13859 3.63101 0
M  V30 3075 H 281.903 1.09559 3.04596 0
M  V30 3076 H 280.81 3.16257 1.99831 0
M  V30 3077 H 282.143 4.15041 2.64578 0
M  V30 3078 N 283.795 -0.628877 1.44509 0
M  V30 3079 C 285.035 -1.39993 1.48934 0
M  V30 3080 C 285.399 -1.91627 0.119604 0
M  V30 3081 O 286.6 -2.68772 0.0385283 0
M  V30 3082 C 284.871 -2.53241 2.52198 0
M  V30 3083 S 286.43 -3.41383 2.75687 0
M  V30 3084 H 283.248 -0.477558 0.526744 0
M  V30 3085 H 285.85 -0.727804 1.81448 0
M  V30 3086 H 284.554 -2.13622 3.50419 0
M  V30 3087 H 284.085 -3.25278 2.21264 0
M  V30 3088 H 286.1 -4.50752 2.07453 0
M  V30 3089 N 285.273 -1.31445 -0.869486 0
M  V30 3090 C 286.513 -1.22458 -1.63656 0
M  V30 3091 C 286.877 0.213846 -1.90805 0
M  V30 3092 O 288.078 0.427212 -2.65383 0
M  V30 3093 C 286.349 -2.04564 -2.93067 0
M  V30 3094 S 287.908 -2.12445 -3.83944 0
M  V30 3095 H 284.726 -0.436145 -0.561514 0
M  V30 3096 H 287.328 -1.66114 -1.03085 0
M  V30 3097 H 286.032 -3.0816 -2.71045 0
M  V30 3098 H 285.563 -1.6163 -3.58663 0
M  V30 3099 H 287.578 -1.26312 -4.79854 0
M  V30 3100 N 286.751 1.08385 -1.14413 0
M  V30 3101 C 287.661 2.18856 -0.844951 0
M  V30 3102 C 288.677 1.73121 0.174668 0
M  V30 3103 O 289.853 2.014 0.00312857 0
M  V30 3104 C 286.918 3.45155 -0.32696 0
M  V30 3105 C 285.979 4.05513 -1.40916 0
M  V30 3106 C 285.212 5.25784 -0.915793 0
M  V30 3107 O 285.435 5.69884 0.242651 0
M  V30 3108 O 284.369 5.77545 -1.69487 0
M  V30 3109 H 288.195 2.46919 -1.76818 0
M  V30 3110 H 285.78 1.17524 -0.922411 0
M  V30 3111 H 287.662 4.21377 -0.0440211 0
M  V30 3112 H 286.337 3.18668 0.568539 0
M  V30 3113 H 285.244 3.30879 -1.74556 0
M  V30 3114 H 286.577 4.3625 -2.27919 0
M  V30 3115 N 288.23 0.939286 1.26551 0
M  V30 3116 C 289.47 0.5933 1.956 0
M  V30 3117 C 289.834 -0.851515 1.72085 0
M  V30 3118 O 291.035 -1.30634 2.34921 0
M  V30 3119 C 289.306 0.923996 3.45249 0
M  V30 3120 S 290.865 0.688269 4.33369 0
M  V30 3121 H 287.683 0.218591 0.676564 0
M  V30 3122 H 290.285 1.2102 1.5354 0
M  V30 3123 H 288.989 1.97297 3.59864 0
M  V30 3124 H 288.52 0.296746 3.92279 0
M  V30 3125 H 290.535 -0.448434 4.9417 0
M  V30 3126 N 289.708 -1.40897 0.706093 0
M  V30 3127 C 290.638 -2.33418 0.0620085 0
M  V30 3128 C 291.619 -1.52385 -0.755827 0
M  V30 3129 O 292.804 -1.80886 -0.706674 0
M  V30 3130 C 289.934 -3.36293 -0.867445 0
M  V30 3131 C 288.888 -4.27716 -0.155932 0
M  V30 3132 C 288.214 -5.2105 -1.20046 0
M  V30 3133 C 289.514 -5.12944 0.984149 0
M  V30 3134 H 291.208 -2.87527 0.83477 0
M  V30 3135 H 288.754 -1.38249 0.402875 0
M  V30 3136 H 290.707 -3.99949 -1.32735 0
M  V30 3137 H 289.431 -2.80556 -1.67199 0
M  V30 3138 H 288.09 -3.65498 0.284047 0
M  V30 3139 H 287.738 -4.61624 -1.99781 0
M  V30 3140 H 287.438 -5.83056 -0.729328 0
M  V30 3141 H 288.962 -5.87584 -1.66066 0
M  V30 3142 H 290.376 -5.70109 0.604048 0
M  V30 3143 H 288.773 -5.83945 1.38304 0
M  V30 3144 H 289.843 -4.49485 1.81911 0
M  V30 3145 N 291.186 -0.45159 -1.50991 0
M  V30 3146 C 292.432 0.110237 -2.025 0
M  V30 3147 C 292.765 1.41109 -1.33424 0
M  V30 3148 O 292.04 1.89135 -0.453659 0
M  V30 3149 C 292.323 0.314271 -3.58726 0
M  V30 3150 C 292.176 -1.00623 -4.38401 0
M  V30 3151 C 293.495 1.07767 -4.26702 0
M  V30 3152 H 290.614 0.0385897 -0.735989 0
M  V30 3153 H 293.256 -0.593374 -1.80497 0
M  V30 3154 H 291.406 0.913601 -3.77605 0
M  V30 3155 H 293.078 -1.64064 -4.31139 0
M  V30 3156 H 291.321 -1.6075 -4.02917 0
M  V30 3157 H 291.992 -0.817341 -5.45915 0
M  V30 3158 H 294.468 0.56986 -4.12179 0
M  V30 3159 H 293.344 1.18921 -5.35863 0
M  V30 3160 H 293.605 2.10939 -3.88532 0
M  V30 3161 N 292.664 1.56529 -0.183458 0
M  V30 3162 C 294.075 1.83739 0.331177 0
M  V30 3163 C 294.426 1.10373 1.62211 0
M  V30 3164 O 293.551 0.36071 2.13373 0
M  V30 3165 C 294.146 3.33306 0.607646 0
M  V30 3166 C 292.705 3.60969 1.06668 0
M  V30 3167 C 291.852 2.77086 0.109029 0
M  V30 3168 H 294.803 1.53379 -0.407484 0
M  V30 3169 H 294.824 3.51444 1.45832 0
M  V30 3170 H 294.336 3.86677 -0.332086 0
M  V30 3171 H 292.437 3.13021 2.0211 0
M  V30 3172 H 292.55 4.69231 0.967447 0
M  V30 3173 H 290.914 2.47319 0.608714 0
M  V30 3174 H 291.697 3.33241 -0.82494 0
M  V30 3175 N 294.142 -0.090211 1.57342 0
M  V30 3176 C 295.388 -0.793982 1.86611 0
M  V30 3177 C 295.721 -1.78142 0.773252 0
M  V30 3178 O 294.996 -1.93271 -0.218304 0
M  V30 3179 C 295.279 -1.51839 3.26523 0
M  V30 3180 C 295.132 -0.548609 4.46442 0
M  V30 3181 C 296.451 -2.46779 3.64401 0
M  V30 3182 H 293.57 -0.287186 0.678744 0
M  V30 3183 H 296.212 -0.0575076 1.89913 0
M  V30 3184 H 294.362 -2.14617 3.23839 0
M  V30 3185 H 296.034 0.0725513 4.61243 0
M  V30 3186 H 294.277 0.137614 4.33582 0
M  V30 3187 H 294.948 -1.09271 5.41076 0
M  V30 3188 H 297.424 -1.94089 3.68061 0
M  V30 3189 H 296.3 -2.94479 4.63221 0
M  V30 3190 H 296.561 -3.30758 2.93346 0
M  V30 3191 N 295.62 -1.53406 -0.361157 0
M  V30 3192 C 297.031 -1.61442 -0.937728 0
M  V30 3193 C 297.382 -0.48461 -1.90121 0
M  V30 3194 O 296.507 0.388312 -2.12888 0
M  V30 3195 C 297.102 -2.92624 -1.70753 0
M  V30 3196 C 295.661 -3.02981 -2.23337 0
M  V30 3197 C 294.808 -2.5677 -1.04712 0
M  V30 3198 H 297.759 -1.58083 -0.139816 0
M  V30 3199 H 297.78 -2.80675 -2.56908 0
M  V30 3200 H 297.292 -3.74834 -1.00604 0
M  V30 3201 H 295.393 -2.25368 -2.96715 0
M  V30 3202 H 295.506 -4.0814 -2.50916 0
M  V30 3203 H 293.87 -2.11752 -1.41539 0
M  V30 3204 H 294.653 -3.41402 -0.360539 0
M  V30 3205 N 297.098 0.621204 -1.44841 0
M  V30 3206 C 298.326 1.40752 -1.51646 0
M  V30 3207 C 298.741 1.88246 -0.144549 0
M  V30 3208 O 298.098 1.61422 0.851416 0
M  V30 3209 C 298.149 2.62119 -2.4895 0
M  V30 3210 O 297.87 2.16602 -3.80808 0
M  V30 3211 C 299.371 3.55135 -2.65319 0
M  V30 3212 H 296.591 0.431325 -0.514004 0
M  V30 3213 H 299.135 0.758835 -1.899 0
M  V30 3214 H 297.29 3.23058 -2.13805 0
M  V30 3215 H 297.704 2.95358 -4.33433 0
M  V30 3216 H 299.178 4.36874 -3.37409 0
M  V30 3217 H 299.655 4.04592 -1.70886 0
M  V30 3218 H 300.261 3.00058 -3.01405 0
M  V30 3219 N 298.576 1.31904 0.862503 0
M  V30 3220 C 299.539 1.20131 1.95195 0
M  V30 3221 C 300.539 0.126409 1.60302 0
M  V30 3222 O 301.729 0.376234 1.70089 0
M  V30 3223 C 298.861 0.845691 3.30244 0
M  V30 3224 H 300.054 2.16943 2.07064 0
M  V30 3225 H 297.607 1.15622 1.05172 0
M  V30 3226 H 298.342 -0.120957 3.24074 0
M  V30 3227 H 298.127 1.62276 3.56944 0
M  V30 3228 H 299.617 0.787418 4.10109 0
M  V30 3229 N 300.054 -1.07777 1.14986 0
M  V30 3230 C 301.001 -2.14867 0.842672 0
M  V30 3231 C 301.971 -1.6486 -0.202552 0
M  V30 3232 O 303.156 -1.90668 -0.0710568 0
M  V30 3233 C 300.296 -3.43486 0.333363 0
M  V30 3234 C 299.409 -4.07306 1.43965 0
M  V30 3235 C 298.544 -5.23744 0.886914 0
M  V30 3236 C 297.583 -5.79517 1.97043 0
M  V30 3237 N 296.72 -6.87291 1.4344 0
M  V30 3238 H 301.56 -2.40485 1.75986 0
M  V30 3239 H 299.097 -1.1801 0.878179 0
M  V30 3240 H 301.055 -4.17195 0.0198163 0
M  V30 3241 H 299.685 -3.18133 -0.546916 0
M  V30 3242 H 298.737 -3.31293 1.86946 0
M  V30 3243 H 300.049 -4.44771 2.25788 0
M  V30 3244 H 299.203 -6.04419 0.525651 0
M  V30 3245 H 297.942 -4.87685 0.0377957 0
M  V30 3246 H 296.947 -4.97491 2.34057 0
M  V30 3247 H 298.172 -6.17632 2.82325 0
M  V30 3248 H 296.118 -6.5318 0.607567 0
M  V30 3249 H 296.035 -7.23617 2.18895 0
M  V30 3250 H 297.303 -7.71682 1.10124 0
M  V30 3251 N 301.532 -0.945985 -1.26051 0
M  V30 3252 C 302.462 -0.477172 -2.28572 0
M  V30 3253 C 303.443 0.472032 -1.63419 0
M  V30 3254 O 304.628 0.372853 -1.90587 0
M  V30 3255 C 301.758 0.253975 -3.4637 0
M  V30 3256 C 300.712 -0.609135 -4.23643 0
M  V30 3257 C 300.038 0.252252 -5.34105 0
M  V30 3258 C 301.338 -1.8829 -4.8718 0
M  V30 3259 H 303.032 -1.33402 -2.68038 0
M  V30 3260 H 300.578 -0.642904 -1.28852 0
M  V30 3261 H 302.531 0.593016 -4.17207 0
M  V30 3262 H 301.255 1.145 -3.05871 0
M  V30 3263 H 299.914 -0.931138 -3.54578 0
M  V30 3264 H 299.562 1.14278 -4.89846 0
M  V30 3265 H 299.262 -0.32188 -5.86718 0
M  V30 3266 H 300.786 0.586454 -6.07777 0
M  V30 3267 H 302.2 -1.61081 -5.50205 0
M  V30 3268 H 300.597 -2.40199 -5.49931 0
M  V30 3269 H 301.667 -2.59134 -4.09851 0
M  V30 3270 N 303.011 1.40521 -0.713556 0
M  V30 3271 C 303.959 2.32549 -0.0485227 0
M  V30 3272 C 304.953 1.51931 0.74922 0
M  V30 3273 O 306.159 1.67745 0.652816 0
M  V30 3274 H 302.534 0.751994 0.00311138 0
M  V30 3275 H 304.505 2.86291 -0.841443 0
M  V30 3276 C 303.254 3.36879 0.860687 0
M  V30 3277 H 302.577 3.98978 0.256246 0
M  V30 3278 H 304.017 4.03772 1.294 0
M  V30 3279 C 302.476 2.72197 1.9852 0
M  V30 3280 O 303.006 2.5837 3.07584 0
M  V30 3281 N 301.212 2.30612 1.76823 0
M  V30 3282 H 300.759 2.42059 0.881217 0
M  V30 3283 H 300.717 1.87672 2.52243 0
M  V30 3284 N 304.489 0.459591 1.5075 0
M  V30 3285 C 305.766 -0.160371 1.94941 0
M  V30 3286 C 306.146 -1.58048 1.39943 0
M  V30 3287 O 305.494 -2.206 0.595629 0
M  V30 3288 C 305.704 -0.115432 3.48809 0
M  V30 3289 C 307.052 -0.310026 4.23467 0
M  V30 3290 O 308.076 -0.192543 3.55679 0
M  V30 3291 O 306.935 -0.546031 5.43765 0
M  V30 3292 H 304.029 -0.117925 0.818549 0
M  V30 3293 H 306.575 0.519169 1.61563 0
M  V30 3294 H 305.347 0.87652 3.81357 0
M  V30 3295 H 304.97 -0.836928 3.88692 0
M  V30 3296 N 305.967 -1.56429 0.191757 0
M  V30 3297 C 307.195 -2.01867 -0.453586 0
M  V30 3298 C 307.61 -1.07191 -1.5542 0
M  V30 3299 O 306.967 -0.0762108 -1.82341 0
M  V30 3300 C 307.018 -3.47017 -1.013 0
M  V30 3301 O 306.739 -4.38078 0.0437005 0
M  V30 3302 C 308.24 -4.07956 -1.73456 0
M  V30 3303 H 305.46 -0.661211 -0.114199 0
M  V30 3304 H 308.004 -2.02295 0.299483 0
M  V30 3305 H 306.159 -3.47298 -1.71647 0
M  V30 3306 H 306.573 -5.23178 -0.372212 0
M  V30 3307 H 308.047 -5.1138 -2.07833 0
M  V30 3308 H 308.524 -3.51222 -2.63704 0
M  V30 3309 H 309.13 -4.11437 -1.07702 0
M  V30 3310 N 307.445 0.0818655 -1.57387 0
M  V30 3311 C 308.375 1.09885 -2.06028 0
M  V30 3312 C 309.356 1.4098 -0.951774 0
M  V30 3313 O 310.541 1.50781 -1.22387 0
M  V30 3314 C 307.671 2.4151 -2.4958 0
M  V30 3315 C 306.625 2.24792 -3.64215 0
M  V30 3316 C 305.951 3.61712 -3.93787 0
M  V30 3317 C 307.251 1.67749 -4.94629 0
M  V30 3318 H 308.945 0.694128 -2.91243 0
M  V30 3319 H 306.491 0.332448 -1.4011 0
M  V30 3320 H 308.444 3.12939 -2.82219 0
M  V30 3321 H 307.168 2.83943 -1.61381 0
M  V30 3322 H 305.827 1.55807 -3.31843 0
M  V30 3323 H 305.475 4.01697 -3.02735 0
M  V30 3324 H 305.175 3.51368 -4.70971 0
M  V30 3325 H 306.699 4.34587 -4.28913 0
M  V30 3326 H 308.113 2.29032 -5.25564 0
M  V30 3327 H 306.51 1.68128 -5.76067 0
M  V30 3328 H 307.58 0.638059 -4.80684 0
M  V30 3329 N 308.923 1.53595 0.353017 0
M  V30 3330 C 309.853 1.83902 1.43883 0
M  V30 3331 C 310.834 0.693421 1.55324 0
M  V30 3332 O 312.019 0.944452 1.69687 0
M  V30 3333 C 309.149 2.04016 2.8106 0
M  V30 3334 C 308.103 3.19814 2.84434 0
M  V30 3335 C 307.429 3.25244 4.24406 0
M  V30 3336 C 308.729 4.58133 2.50822 0
M  V30 3337 H 310.423 2.74835 1.1877 0
M  V30 3338 H 307.969 1.32242 0.569917 0
M  V30 3339 H 309.922 2.238 3.57059 0
M  V30 3340 H 308.646 1.09804 3.07588 0
M  V30 3341 H 307.305 2.9987 2.10887 0
M  V30 3342 H 306.953 2.28646 4.48029 0
M  V30 3343 H 306.653 4.03054 4.27576 0
M  V30 3344 H 308.177 3.47228 5.0226 0
M  V30 3345 H 309.591 4.77995 3.16534 0
M  V30 3346 H 307.988 5.38276 2.6529 0
M  V30 3347 H 309.058 4.62387 1.46034 0
M  V30 3348 N 310.401 -0.613514 1.45168 0
M  V30 3349 C 311.334 -1.73809 1.47871 0
M  V30 3350 C 312.312 -1.59097 0.33568 0
M  V30 3351 O 313.496 -1.8074 0.535299 0
M  V30 3352 C 310.623 -3.11574 1.32813 0
M  V30 3353 C 309.669 -3.4489 2.50905 0
M  V30 3354 S 310.502 -3.40393 4.13392 0
M  V30 3355 C 311.658 -4.80749 4.00789 0
M  V30 3356 H 311.891 -1.71252 2.43023 0
M  V30 3357 H 309.424 -0.789658 1.32679 0
M  V30 3358 H 311.382 -3.91065 1.24812 0
M  V30 3359 H 310.043 -3.11652 0.391418 0
M  V30 3360 H 309.236 -4.45183 2.36279 0
M  V30 3361 H 308.838 -2.72901 2.55736 0
M  V30 3362 H 311.13 -5.7041 3.65567 0
M  V30 3363 H 312.073 -5.00431 5.00974 0
M  V30 3364 H 312.481 -4.56151 3.32545 0
M  V30 3365 N 311.879 -1.3236 -0.855495 0
M  V30 3366 C 313.119 -1.24187 -1.62348 0
M  V30 3367 C 313.483 0.193597 -1.91021 0
M  V30 3368 O 314.684 0.39904 -2.65822 0
M  V30 3369 C 312.955 -2.07661 -2.90881 0
M  V30 3370 S 314.514 -2.16505 -3.81669 0
M  V30 3371 H 311.332 -0.442076 -0.556857 0
M  V30 3372 H 313.934 -1.67198 -1.01317 0
M  V30 3373 H 312.638 -3.11018 -2.67761 0
M  V30 3374 H 312.169 -1.65425 -3.56929 0
M  V30 3375 H 314.184 -1.31394 -4.78487 0
M  V30 3376 N 313.357 1.07166 -1.15556 0
M  V30 3377 C 314.287 2.16403 -0.877046 0
M  V30 3378 C 315.268 1.69217 0.173111 0
M  V30 3379 O 316.453 1.94181 0.027084 0
M  V30 3380 C 313.583 3.45349 -0.367632 0
M  V30 3381 C 312.537 4.05995 -1.35468 0
M  V30 3382 C 311.863 5.30045 -0.704038 0
M  V30 3383 C 313.163 4.45804 -2.72132 0
M  V30 3384 H 314.857 2.39959 -1.79053 0
M  V30 3385 H 312.403 1.15325 -0.862331 0
M  V30 3386 H 314.356 4.21095 -0.160317 0
M  V30 3387 H 313.08 3.21385 0.581326 0
M  V30 3388 H 311.739 3.32296 -1.54839 0
M  V30 3389 H 311.387 5.02373 0.251128 0
M  V30 3390 H 311.087 5.71579 -1.36277 0
M  V30 3391 H 312.611 6.08495 -0.50654 0
M  V30 3392 H 314.025 5.12671 -2.56595 0
M  V30 3393 H 312.422 4.98296 -3.34397 0
M  V30 3394 H 313.492 3.57083 -3.28054 0
M  V30 3395 N 314.835 0.952656 1.25548 0
M  V30 3396 C 315.782 0.47008 2.25962 0
M  V30 3397 C 316.752 -0.476384 1.59122 0
M  V30 3398 O 317.937 -0.39007 1.8677 0
M  V30 3399 C 315.077 -0.247881 3.44209 0
M  V30 3400 C 314.19 0.735591 4.25691 0
M  V30 3401 C 313.325 -0.0047306 5.312 0
M  V30 3402 C 312.364 0.969805 6.04368 0
M  V30 3403 N 311.501 0.260486 7.01617 0
M  V30 3404 H 316.341 1.33126 2.66611 0
M  V30 3405 H 313.878 0.66765 1.31076 0
M  V30 3406 H 315.836 -0.680695 4.1161 0
M  V30 3407 H 314.466 -1.07312 3.0444 0
M  V30 3408 H 313.518 1.28689 3.57971 0
M  V30 3409 H 314.83 1.47934 4.76358 0
M  V30 3410 H 313.984 -0.496275 6.04667 0
M  V30 3411 H 312.723 -0.781282 4.81401 0
M  V30 3412 H 311.728 1.47237 5.29718 0
M  V30 3413 H 312.953 1.74655 6.56256 0
M  V30 3414 H 310.899 -0.497364 6.54112 0
M  V30 3415 H 310.816 0.943362 7.50091 0
M  V30 3416 H 312.084 -0.209587 7.79218 0
M  V30 3417 N 316.313 -1.40141 0.720998 0
M  V30 3418 C 317.562 -2.0002 0.259804 0
M  V30 3419 C 317.875 -1.57839 -1.15526 0
M  V30 3420 O 319.081 -2.10455 -1.71525 0
M  V30 3421 C 317.537 -3.57516 0.413566 0
M  V30 3422 C 317.145 -4.08667 1.83562 0
M  V30 3423 C 318.889 -4.24498 0.0134387 0
M  V30 3424 C 316.796 -5.58686 1.93968 0
M  V30 3425 H 315.726 -0.748195 0.0933806 0
M  V30 3426 H 318.377 -1.60313 0.892866 0
M  V30 3427 H 316.759 -3.9495 -0.288169 0
M  V30 3428 H 317.933 -3.82598 2.56817 0
M  V30 3429 H 316.248 -3.543 2.1877 0
M  V30 3430 H 318.845 -5.34654 0.0703954 0
M  V30 3431 H 319.188 -4.03375 -1.02927 0
M  V30 3432 H 319.721 -3.92188 0.665815 0
M  V30 3433 H 316.46 -5.8467 2.96379 0
M  V30 3434 H 315.98 -5.86602 1.25131 0
M  V30 3435 H 317.659 -6.23875 1.71431 0
M  V30 3436 N 317.792 -0.46758 -1.50504 0
M  V30 3437 C 319.02 0.0864133 -2.06719 0
M  V30 3438 C 319.435 1.33819 -1.33184 0
M  V30 3439 O 318.792 1.78061 -0.400083 0
M  V30 3440 C 318.843 0.378079 -3.59517 0
M  V30 3441 O 318.564 -0.824044 -4.3028 0
M  V30 3442 C 320.065 0.979426 -4.32345 0
M  V30 3443 H 317.285 -0.00551697 -0.670977 0
M  V30 3444 H 319.829 -0.655354 -1.93715 0
M  V30 3445 H 317.984 1.06977 -3.72337 0
M  V30 3446 H 318.398 -0.566518 -5.21432 0
M  V30 3447 H 319.872 1.1333 -5.40241 0
M  V30 3448 H 320.349 1.9686 -3.9261 0
M  V30 3449 H 320.955 0.326216 -4.24047 0
M  V30 3450 N 319.27 1.56325 -0.20005 0
M  V30 3451 C 320.495 2.02548 0.44597 0
M  V30 3452 C 320.92 1.07922 1.5406 0
M  V30 3453 O 320.278 0.0635775 1.81188 0
M  V30 3454 C 320.326 3.47175 0.974761 0
M  V30 3455 O 319.43 3.55671 2.08739 0
M  V30 3456 H 318.771 0.655862 0.103638 0
M  V30 3457 H 321.301 2.02201 -0.312381 0
M  V30 3458 H 321.311 3.87067 1.2901 0
M  V30 3459 H 319.986 4.15538 0.17347 0
M  V30 3460 H 318.563 3.27657 1.78032 0
M  V30 3461 N 320.748 -0.0735177 1.57428 0
M  V30 3462 C 321.996 -0.771472 1.86796 0
M  V30 3463 C 322.317 -1.78201 0.791804 0
M  V30 3464 O 321.587 -1.95074 -0.179718 0
M  V30 3465 H 320.167 -0.28791 0.689287 0
M  V30 3466 H 322.829 -0.0500161 1.94836 0
M  V30 3467 H 321.925 -1.28874 2.8425 0
M  V30 3468 N 322.226 -1.5378 -0.344866 0
M  V30 3469 C 323.474 -1.70625 -1.08311 0
M  V30 3470 C 323.795 -0.471447 -1.89215 0
M  V30 3471 O 323.065 0.514616 -1.8902 0
M  V30 3472 H 321.645 -0.629058 -0.402859 0
M  V30 3473 H 324.307 -1.9103 -0.386459 0
M  V30 3474 H 323.403 -2.57656 -1.76124 0
M  V30 3475 N 323.704 0.605807 -1.45491 0
M  V30 3476 C 324.95 1.36679 -1.49823 0
M  V30 3477 C 325.283 1.93693 -0.140175 0
M  V30 3478 O 324.558 1.75158 0.845581 0
M  V30 3479 C 324.841 2.51337 -2.57879 0
M  V30 3480 C 324.694 1.99508 -4.03134 0
M  V30 3481 C 326.013 3.53463 -2.62205 0
M  V30 3482 H 323.132 0.495617 -0.545466 0
M  V30 3483 H 325.774 0.682732 -1.7731 0
M  V30 3484 H 323.924 3.09691 -2.34571 0
M  V30 3485 H 325.596 1.45789 -4.37656 0
M  V30 3486 H 323.839 1.30496 -4.13707 0
M  V30 3487 H 324.51 2.82169 -4.74431 0
M  V30 3488 H 326.986 3.04953 -2.83095 0
M  V30 3489 H 325.862 4.31178 -3.39672 0
M  V30 3490 H 326.123 4.09197 -1.67363 0
M  V30 3491 N 325.182 1.32811 0.848464 0
M  V30 3492 C 326.431 1.23075 1.59798 0
M  V30 3493 C 326.744 -0.204419 1.94529 0
M  V30 3494 O 327.95 -0.423701 2.68173 0
M  V30 3495 C 326.406 2.15594 2.88179 0
M  V30 3496 C 326.014 3.64228 2.60849 0
M  V30 3497 C 327.758 2.14709 3.66197 0
M  V30 3498 C 325.665 4.48689 3.85269 0
M  V30 3499 H 324.595 0.457091 0.599653 0
M  V30 3500 H 327.246 1.57813 0.936342 0
M  V30 3501 H 325.628 1.73778 3.55833 0
M  V30 3502 H 326.802 4.14424 2.01467 0
M  V30 3503 H 325.117 3.67306 1.96151 0
M  V30 3504 H 327.714 2.75046 4.58534 0
M  V30 3505 H 328.057 1.13966 4.00397 0
M  V30 3506 H 328.59 2.54837 3.05455 0
M  V30 3507 H 325.329 5.5027 3.56207 0
M  V30 3508 H 324.849 4.03241 4.44024 0
M  V30 3509 H 326.528 4.62006 4.52946 0
M  V30 3510 N 326.66 -1.06551 1.16123 0
M  V30 3511 C 327.907 -1.79302 0.941126 0
M  V30 3512 C 328.235 -1.87105 -0.531235 0
M  V30 3513 O 327.49 -1.35692 -1.41018 0
M  V30 3514 C 327.789 -3.23911 1.51052 0
M  V30 3515 C 327.455 -3.36193 3.00475 0
M  V30 3516 C 326.117 -3.39252 3.41265 0
M  V30 3517 C 328.469 -3.38326 3.96465 0
M  V30 3518 C 325.797 -3.42057 4.76669 0
M  V30 3519 C 328.149 -3.4267 5.31752 0
M  V30 3520 C 326.813 -3.4401 5.72026 0
M  V30 3521 H 326.083 -0.656111 0.344382 0
M  V30 3522 H 328.73 -1.25325 1.44796 0
M  V30 3523 H 327.035 -3.80723 0.925063 0
M  V30 3524 H 328.732 -3.78793 1.31593 0
M  V30 3525 H 325.322 -3.34516 2.6795 0
M  V30 3526 H 329.506 -3.35176 3.6602 0
M  V30 3527 H 324.762 -3.41398 5.07206 0
M  V30 3528 H 328.936 -3.43268 6.05921 0
M  V30 3529 H 326.563 -3.45937 6.76928 0
M  V30 3530 N 328.138 -0.959301 -1.25041 0
M  V30 3531 C 329.07 -0.440543 -2.24926 0
M  V30 3532 C 330.083 0.446131 -1.56568 0
M  V30 3533 O 331.272 0.253657 -1.76689 0
M  V30 3534 C 328.372 0.38412 -3.36716 0
M  V30 3535 C 327.545 -0.490658 -4.34639 0
M  V30 3536 C 326.604 0.276587 -5.25473 0
M  V30 3537 O 325.63 -0.326614 -5.68262 0
M  V30 3538 N 326.832 1.56844 -5.5891 0
M  V30 3539 H 329.597 -1.29931 -2.70071 0
M  V30 3540 H 327.158 -0.830181 -1.38995 0
M  V30 3541 H 329.15 0.905228 -3.94446 0
M  V30 3542 H 327.72 1.14377 -2.90924 0
M  V30 3543 H 326.94 -1.19282 -3.7572 0
M  V30 3544 H 328.228 -1.08756 -4.97041 0
M  V30 3545 H 327.626 2.08036 -5.26059 0
M  V30 3546 H 326.183 2.03541 -6.19205 0
M  V30 3547 N 329.616 1.39756 -0.72842 0
M  V30 3548 C 330.841 2.05472 -0.282159 0
M  V30 3549 C 331.266 1.54549 1.07221 0
M  V30 3550 O 330.624 0.686372 1.67805 0
M  V30 3551 C 330.672 3.59462 -0.286264 0
M  V30 3552 O 329.776 4.05918 0.728298 0
M  V30 3553 H 329.117 0.651226 -0.129618 0
M  V30 3554 H 331.647 1.78915 -0.992499 0
M  V30 3555 H 331.657 4.07798 -0.128373 0
M  V30 3556 H 330.332 3.95889 -1.27456 0
M  V30 3557 H 328.909 3.69012 0.537081 0
M  V30 3558 N 331.094 0.475555 1.50254 0
M  V30 3559 C 332.505 0.0215174 1.86688 0
M  V30 3560 C 332.856 -1.38467 1.39001 0
M  V30 3561 O 331.981 -2.02732 0.756894 0
M  V30 3562 C 332.576 0.0322715 3.38785 0
M  V30 3563 C 331.135 -0.366314 3.74613 0
M  V30 3564 C 330.282 0.415832 2.74164 0
M  V30 3565 H 333.233 0.689612 1.42934 0
M  V30 3566 H 333.254 -0.76889 3.7265 0
M  V30 3567 H 332.766 1.05584 3.73462 0
M  V30 3568 H 330.867 -1.39406 3.45538 0
M  V30 3569 H 330.98 -0.064555 4.79057 0
M  V30 3570 H 329.344 -0.131048 2.54363 0
M  V30 3571 H 330.127 1.43899 3.11686 0
M  V30 3572 N 332.573 -1.56217 0.208337 0
M  V30 3573 C 333.503 -2.22694 -0.702116 0
M  V30 3574 C 334.484 -1.19432 -1.2112 0
M  V30 3575 O 335.669 -1.47978 -1.25762 0
M  V30 3576 C 332.799 -2.8966 -1.9161 0
M  V30 3577 C 331.753 -3.9928 -1.5414 0
M  V30 3578 C 331.079 -4.53476 -2.83308 0
M  V30 3579 C 332.379 -5.17012 -0.741339 0
M  V30 3580 H 334.073 -2.99034 -0.147898 0
M  V30 3581 H 331.619 -1.43831 -0.0696951 0
M  V30 3582 H 333.572 -3.34852 -2.55836 0
M  V30 3583 H 332.296 -2.10746 -2.49507 0
M  V30 3584 H 330.955 -3.54799 -0.922668 0
M  V30 3585 H 330.603 -3.71308 -3.39322 0
M  V30 3586 H 330.303 -5.27451 -2.58976 0
M  V30 3587 H 331.827 -5.01378 -3.485 0
M  V30 3588 H 333.241 -5.58667 -1.28699 0
M  V30 3589 H 331.638 -5.97137 -0.595627 0
M  V30 3590 H 332.708 -4.8423 0.254851 0
M  V30 3591 N 334.051 0.0651679 -1.57465 0
M  V30 3592 C 334.984 1.10876 -1.99453 0
M  V30 3593 C 335.962 1.37205 -0.872555 0
M  V30 3594 O 337.146 1.50468 -1.13542 0
M  V30 3595 C 334.273 2.45167 -2.3369 0
M  V30 3596 C 333.319 2.3493 -3.55964 0
M  V30 3597 S 334.152 1.73708 -5.06543 0
M  V30 3598 C 335.308 3.09563 -5.43987 0
M  V30 3599 H 335.541 0.750967 -2.87659 0
M  V30 3600 H 333.074 0.273933 -1.51951 0
M  V30 3601 H 335.032 3.22412 -2.54088 0
M  V30 3602 H 333.693 2.78105 -1.46001 0
M  V30 3603 H 332.886 3.3398 -3.77457 0
M  V30 3604 H 332.488 1.65823 -3.3523 0
M  V30 3605 H 334.78 4.05882 -5.42463 0
M  V30 3606 H 335.723 2.92843 -6.44708 0
M  V30 3607 H 336.131 3.10474 -4.71451 0
M  V30 3608 N 335.529 1.53961 0.336706 0
M  V30 3609 C 336.754 1.75797 1.10046 0
M  V30 3610 C 337.179 0.498985 1.81361 0
M  V30 3611 O 336.537 -0.548769 1.72795 0
M  V30 3612 C 336.585 2.94257 2.08436 0
M  V30 3613 O 335.689 2.64883 3.16087 0
M  V30 3614 H 335.03 0.582936 0.317934 0
M  V30 3615 H 337.56 2.00945 0.38501 0
M  V30 3616 H 337.57 3.21237 2.51537 0
M  V30 3617 H 336.245 3.85564 1.55927 0
M  V30 3618 H 334.822 2.48812 2.77753 0
M  V30 3619 N 337.007 -0.598083 1.45811 0
M  V30 3620 C 338.253 -1.35882 1.50545 0
M  V30 3621 C 338.586 -1.93616 0.150445 0
M  V30 3622 O 337.861 -1.75604 -0.83628 0
M  V30 3623 C 338.144 -2.49966 2.59208 0
M  V30 3624 C 337.997 -1.97367 4.04186 0
M  V30 3625 C 339.316 -3.52068 2.64076 0
M  V30 3626 H 336.435 -0.492717 0.548087 0
M  V30 3627 H 339.077 -0.673319 1.77669 0
M  V30 3628 H 337.227 -3.08443 2.3621 0
M  V30 3629 H 338.899 -1.43466 4.38423 0
M  V30 3630 H 337.142 -1.283 4.14393 0
M  V30 3631 H 337.813 -2.79649 4.75921 0
M  V30 3632 H 340.289 -3.03448 2.84708 0
M  V30 3633 H 339.165 -4.2937 3.41954 0
M  V30 3634 H 339.426 -4.08304 1.69531 0
M  V30 3635 N 338.485 -1.33259 -0.841409 0
M  V30 3636 C 339.417 -1.19136 -1.95804 0
M  V30 3637 C 340.43 -0.122965 -1.62335 0
M  V30 3638 O 341.619 -0.373154 -1.74556 0
M  V30 3639 C 338.719 -0.804268 -3.29218 0
M  V30 3640 C 337.892 -1.96376 -3.90839 0
M  V30 3641 C 336.951 -1.55806 -5.02604 0
M  V30 3642 O 335.977 -2.27203 -5.21888 0
M  V30 3643 N 337.179 -0.461609 -5.78662 0
M  V30 3644 H 339.944 -2.15326 -2.08458 0
M  V30 3645 H 337.505 -1.25971 -1.017 0
M  V30 3646 H 339.497 -0.51501 -4.0141 0
M  V30 3647 H 338.067 0.0668809 -3.12528 0
M  V30 3648 H 337.287 -2.41879 -3.11269 0
M  V30 3649 H 338.575 -2.73966 -4.28742 0
M  V30 3650 H 337.973 0.132343 -5.65545 0
M  V30 3651 H 336.53 -0.232013 -6.51387 0
M  V30 3652 N 339.963 1.05934 -1.16686 0
M  V30 3653 C 341.374 1.60263 -0.957745 0
M  V30 3654 C 341.725 1.89789 0.49745 0
M  V30 3655 O 340.85 1.67401 1.37135 0
M  V30 3656 C 341.445 2.91172 -1.73218 0
M  V30 3657 C 340.004 3.42188 -1.56794 0
M  V30 3658 C 339.151 2.16028 -1.73859 0
M  V30 3659 H 342.102 0.888392 -1.31504 0
M  V30 3660 H 342.123 3.60744 -1.21014 0
M  V30 3661 H 341.635 2.6965 -2.79124 0
M  V30 3662 H 339.736 3.68762 -0.533437 0
M  V30 3663 H 339.849 4.17273 -2.35414 0
M  V30 3664 H 338.213 2.26426 -1.16633 0
M  V30 3665 H 338.996 1.96985 -2.81161 0
M  V30 3666 N 341.441 0.965919 1.2453 0
M  V30 3667 C 342.69 0.622437 1.91856 0
M  V30 3668 C 343.003 -0.846006 1.76358 0
M  V30 3669 O 344.209 -1.29993 2.38357 0
M  V30 3670 C 342.665 1.0626 3.43856 0
M  V30 3671 C 342.273 2.55437 3.68043 0
M  V30 3672 C 344.017 0.792183 4.17043 0
M  V30 3673 C 341.924 2.93196 5.13605 0
M  V30 3674 H 340.854 0.229092 0.718354 0
M  V30 3675 H 343.505 1.17189 1.41206 0
M  V30 3676 H 341.887 0.441476 3.93531 0
M  V30 3677 H 343.061 3.22665 3.28974 0
M  V30 3678 H 341.376 2.8007 3.08139 0
M  V30 3679 H 343.973 1.05031 5.24283 0
M  V30 3680 H 344.316 -0.271584 4.15413 0
M  V30 3681 H 344.849 1.37419 3.73311 0
M  V30 3682 H 341.588 3.98636 5.20355 0
M  V30 3683 H 341.108 2.30651 5.53679 0
M  V30 3684 H 342.787 2.83004 5.81823 0
M  V30 3685 N 342.919 -1.39368 0.735821 0
M  V30 3686 C 343.867 -2.32443 0.0855131 0
M  V30 3687 C 344.861 -1.53104 -0.724954 0
M  V30 3688 O 346.067 -1.68762 -0.626047 0
M  V30 3689 H 342.442 -0.751948 0.00885257 0
M  V30 3690 H 344.413 -2.84916 0.886883 0
M  V30 3691 C 343.162 -3.38206 -0.806983 0
M  V30 3692 H 342.485 -3.99335 -0.19274 0
M  V30 3693 H 343.925 -4.05779 -1.2296 0
M  V30 3694 C 342.384 -2.75321 -1.94165 0
M  V30 3695 O 342.914 -2.63231 -3.03435 0
M  V30 3696 N 341.12 -2.33396 -1.73132 0
M  V30 3697 H 340.667 -2.4343 -0.842596 0
M  V30 3698 H 340.625 -1.91661 -2.49225 0
M  V30 3699 N 344.397 -0.483516 -1.5 0
M  V30 3700 C 345.33 0.350427 -2.25493 0
M  V30 3701 C 346.308 0.985549 -1.29328 0
M  V30 3702 O 347.492 1.01906 -1.58579 0
M  V30 3703 C 344.619 1.49202 -3.04066 0
M  V30 3704 C 343.665 0.973036 -4.15252 0
M  V30 3705 S 344.498 -0.122237 -5.3536 0
M  V30 3706 C 345.654 1.02294 -6.17484 0
M  V30 3707 H 345.887 -0.290381 -2.95878 0
M  V30 3708 H 343.42 -0.268562 -1.52046 0
M  V30 3709 H 345.378 2.14623 -3.49925 0
M  V30 3710 H 344.039 2.10438 -2.33183 0
M  V30 3711 H 343.232 1.82804 -4.69679 0
M  V30 3712 H 342.834 0.396335 -3.71894 0
M  V30 3713 H 345.126 1.93195 -6.49371 0
M  V30 3714 H 346.069 0.517664 -7.06205 0
M  V30 3715 H 346.477 1.28238 -5.49741 0
M  V30 3716 N 345.875 1.56104 -0.216619 0
M  V30 3717 C 347.121 1.98466 0.417033 0
M  V30 3718 C 347.454 1.10403 1.59765 0
M  V30 3719 O 346.729 0.160632 1.93836 0
M  V30 3720 C 347.012 3.49769 0.85637 0
M  V30 3721 C 346.865 4.48606 -0.327546 0
M  V30 3722 C 348.184 4.05339 1.7143 0
M  V30 3723 H 345.303 0.721551 0.150112 0
M  V30 3724 H 347.945 1.87423 -0.311864 0
M  V30 3725 H 346.095 3.5931 1.47745 0
M  V30 3726 H 347.767 4.5108 -0.965618 0
M  V30 3727 H 346.01 4.22682 -0.975805 0
M  V30 3728 H 346.681 5.51995 0.0227149 0
M  V30 3729 H 349.157 3.98712 1.19031 0
M  V30 3730 H 348.033 5.11533 1.99061 0
M  V30 3731 H 348.294 3.51918 2.67593 0
M  V30 3732 N 347.353 -0.0568162 1.57498 0
M  V30 3733 C 348.3 -1.06591 2.04712 0
M  V30 3734 C 349.27 -1.3758 0.930644 0
M  V30 3735 O 350.455 -1.48392 1.19935 0
M  V30 3736 C 347.595 -2.3701 2.50839 0
M  V30 3737 C 346.708 -2.12421 3.76167 0
M  V30 3738 C 345.843 -3.36511 4.11015 0
M  V30 3739 C 344.882 -3.07353 5.2934 0
M  V30 3740 N 344.019 -4.23816 5.59754 0
M  V30 3741 H 348.859 -0.65631 2.90683 0
M  V30 3742 H 346.396 -0.312481 1.43743 0
M  V30 3743 H 348.354 -3.13175 2.7564 0
M  V30 3744 H 346.984 -2.75744 1.67825 0
M  V30 3745 H 346.036 -1.2688 3.58616 0
M  V30 3746 H 347.348 -1.86894 4.62463 0
M  V30 3747 H 346.502 -4.21062 4.36797 0
M  V30 3748 H 345.241 -3.65128 3.23315 0
M  V30 3749 H 344.246 -2.212 5.03339 0
M  V30 3750 H 345.471 -2.80043 6.1867 0
M  V30 3751 H 343.417 -4.52436 4.75014 0
M  V30 3752 H 343.334 -4.01614 6.40501 0
M  V30 3753 H 344.602 -5.0932 5.90096 0
M  V30 3754 N 348.832 -1.54138 -0.328536 0
M  V30 3755 C 350.243 -1.63395 -0.903272 0
M  V30 3756 C 350.594 -0.524828 -1.8905 0
M  V30 3757 O 349.719 0.343068 -2.13663 0
M  V30 3758 C 350.314 -2.9618 -1.64507 0
M  V30 3759 C 348.873 -3.0765 -2.1686 0
M  V30 3760 C 348.02 -2.58933 -0.992416 0
M  V30 3761 H 350.971 -1.58344 -0.106253 0
M  V30 3762 H 350.992 -2.86061 -2.50897 0
M  V30 3763 H 350.504 -3.76884 -0.926302 0
M  V30 3764 H 348.605 -2.31611 -2.91868 0
M  V30 3765 H 348.718 -4.1337 -2.42202 0
M  V30 3766 H 347.082 -2.14706 -1.37016 0
M  V30 3767 H 347.865 -3.42089 -0.288041 0
M  V30 3768 N 350.31 0.590341 -1.46126 0
M  V30 3769 C 351.587 1.35029 -1.41515 0
M  V30 3770 C 351.967 2.10888 -0.0946472 0
M  V30 3771 O 351.315 2.08998 0.923693 0
M  V30 3772 C 351.525 2.28269 -2.63997 0
M  V30 3773 C 352.873 2.90338 -3.09821 0
M  V30 3774 O 353.897 2.38585 -2.64492 0
M  V30 3775 O 352.756 3.84321 -3.88535 0
M  V30 3776 H 349.85 0.606317 -0.562413 0
M  V30 3777 H 352.396 0.611994 -1.58281 0
M  V30 3778 H 351.168 1.71591 -3.51671 0
M  V30 3779 H 350.791 3.0945 -2.49652 0
M  V30 3780 N 351.788 1.33704 0.83433 0
M  V30 3781 C 353.199 1.22813 1.4062 0
M  V30 3782 C 353.55 -0.151107 1.95617 0
M  V30 3783 O 352.675 -1.05092 1.89168 0
M  V30 3784 C 353.27 2.22355 2.55624 0
M  V30 3785 C 351.829 2.1529 3.08751 0
M  V30 3786 C 350.976 2.09589 1.8157 0
M  V30 3787 H 353.927 1.45236 0.639702 0
M  V30 3788 H 353.948 1.83391 3.33389 0
M  V30 3789 H 353.46 3.22728 2.15566 0
M  V30 3790 H 351.561 1.18235 3.53343 0
M  V30 3791 H 351.674 3.06038 3.68616 0
M  V30 3792 H 350.038 1.55134 2.02004 0
M  V30 3793 H 350.821 3.11777 1.43701 0
M  V30 3794 N 353.266 -1.05314 1.17247 0
M  V30 3795 C 354.677 -1.59753 0.96623 0
M  V30 3796 C 355.028 -1.9005 -0.487378 0
M  V30 3797 O 354.153 -1.68126 -1.36245 0
M  V30 3798 C 354.748 -2.90249 1.74759 0
M  V30 3799 C 353.307 -3.41352 1.58606 0
M  V30 3800 C 352.454 -2.15103 1.75002 0
M  V30 3801 H 355.405 -0.881406 1.31973 0
M  V30 3802 H 355.426 -3.60097 1.22925 0
M  V30 3803 H 354.938 -2.68166 2.8055 0
M  V30 3804 H 353.039 -3.68474 0.552985 0
M  V30 3805 H 353.152 -4.16019 2.37624 0
M  V30 3806 H 351.516 -2.25804 1.17833 0
M  V30 3807 H 352.299 -1.95491 2.82202 0
M  V30 3808 N 354.744 -0.972509 -1.24016 0
M  V30 3809 C 355.674 -0.525548 -2.27509 0
M  V30 3810 C 356.655 0.437262 -1.64384 0
M  V30 3811 O 357.84 0.332343 -1.91335 0
M  V30 3812 C 354.97 0.180448 -3.46831 0
M  V30 3813 C 353.924 -0.698859 -4.22256 0
M  V30 3814 C 353.25 0.138903 -5.3452 0
M  V30 3815 C 354.55 -1.98582 -4.83076 0
M  V30 3816 H 356.244 -1.39058 -2.65148 0
M  V30 3817 H 353.79 -0.67009 -1.27459 0
M  V30 3818 H 355.743 0.504387 -4.18371 0
M  V30 3819 H 354.467 1.07987 -3.08231 0
M  V30 3820 H 353.126 -1.00614 -3.52523 0
M  V30 3821 H 352.774 1.03862 -4.9216 0
M  V30 3822 H 352.474 -0.446259 -5.85903 0
M  V30 3823 H 353.998 0.457404 -6.08884 0
M  V30 3824 H 355.412 -1.72715 -5.46665 0
M  V30 3825 H 353.809 -2.5181 -5.44713 0
M  V30 3826 H 354.879 -2.67769 -4.04262 0
M  V30 3827 N 356.222 1.38976 -0.743202 0
M  V30 3828 C 357.47 1.99948 -0.29417 0
M  V30 3829 C 357.791 1.59279 1.12495 0
M  V30 3830 O 357.061 0.844808 1.76748 0
M  V30 3831 H 355.641 0.739473 -0.105774 0
M  V30 3832 H 358.303 1.699 -0.954986 0
M  V30 3833 H 357.399 3.10142 -0.349056 0
M  V30 3834 N 357.7 0.491464 1.49741 0
M  V30 3835 C 358.63 -0.28154 2.31796 0
M  V30 3836 C 359.611 -0.971473 1.3963 0
M  V30 3837 O 360.796 -0.964719 1.68543 0
M  V30 3838 C 357.926 -1.35203 3.19902 0
M  V30 3839 C 356.88 -0.782529 4.20786 0
M  V30 3840 C 356.206 -1.95283 4.97764 0
M  V30 3841 C 357.506 0.21999 5.21837 0
M  V30 3842 H 359.2 0.403355 2.96671 0
M  V30 3843 H 356.746 0.195425 1.42668 0
M  V30 3844 H 358.699 -1.90045 3.76113 0
M  V30 3845 H 357.423 -2.06598 2.52953 0
M  V30 3846 H 356.082 -0.255928 3.65706 0
M  V30 3847 H 355.73 -2.65423 4.2727 0
M  V30 3848 H 355.43 -1.57789 5.66018 0
M  V30 3849 H 356.954 -2.50577 5.56816 0
M  V30 3850 H 358.368 -0.23996 5.72798 0
M  V30 3851 H 356.765 0.51026 5.97927 0
M  V30 3852 H 357.835 1.13911 4.7133 0
M  V30 3853 N 359.178 -1.55987 0.224894 0
M  V30 3854 C 360.128 -2.17076 -0.697296 0
M  V30 3855 C 361.112 -1.12006 -1.15514 0
M  V30 3856 O 362.304 -1.37985 -1.10857 0
M  V30 3857 C 359.433 -2.85679 -1.90374 0
M  V30 3858 C 358.519 -3.97977 -1.46543 0
M  V30 3859 N 358.91 -5.00359 -0.739909 0
M  V30 3860 C 357.208 -4.10128 -1.75245 0
M  V30 3861 C 357.909 -5.79407 -0.515939 0
M  V30 3862 N 356.885 -5.32892 -1.07364 0
M  V30 3863 H 360.687 -2.93592 -0.134594 0
M  V30 3864 H 358.201 -1.62379 0.0262885 0
M  V30 3865 H 360.198 -3.27857 -2.57518 0
M  V30 3866 H 358.858 -2.1066 -2.47088 0
M  V30 3867 H 359.869 -5.16412 -0.392253 0
M  V30 3868 H 356.546 -3.46263 -2.33255 0
M  V30 3869 H 357.936 -6.71872 0.0617349 0
M  V30 3870 N 360.656 0.0484629 -1.57525 0
M  V30 3871 C 361.589 1.08755 -2.00618 0
M  V30 3872 C 362.567 1.36272 -0.887058 0
M  V30 3873 O 363.751 1.49255 -1.15131 0
M  V30 3874 C 360.878 2.42675 -2.36277 0
M  V30 3875 C 359.924 2.31142 -3.58435 0
M  V30 3876 S 360.757 1.68326 -5.08357 0
M  V30 3877 C 361.913 3.03776 -5.47239 0
M  V30 3878 H 362.146 0.720415 -2.88439 0
M  V30 3879 H 359.679 0.257801 -1.52233 0
M  V30 3880 H 361.637 3.19699 -2.57494 0
M  V30 3881 H 360.298 2.76541 -1.48942 0
M  V30 3882 H 359.491 3.29957 -3.80978 0
M  V30 3883 H 359.093 1.62258 -3.36969 0
M  V30 3884 H 361.385 4.00106 -5.46737 0
M  V30 3885 H 362.328 2.85988 -6.47778 0
M  V30 3886 H 362.736 3.05456 -4.74718 0
M  V30 3887 N 362.134 1.5431 0.320358 0
M  V30 3888 C 363.044 1.86946 1.41734 0
M  V30 3889 C 364.06 0.761689 1.56443 0
M  V30 3890 O 365.236 1.05629 1.71477 0
M  V30 3891 C 362.301 2.09293 2.76401 0
M  V30 3892 C 361.362 3.33082 2.70841 0
M  V30 3893 C 360.595 3.54353 3.99086 0
M  V30 3894 O 360.818 2.79002 4.97508 0
M  V30 3895 O 359.752 4.47838 4.0215 0
M  V30 3896 H 363.578 2.80232 1.17062 0
M  V30 3897 H 361.163 1.40255 0.514673 0
M  V30 3898 H 363.045 2.25303 3.56113 0
M  V30 3899 H 361.72 1.19194 3.00956 0
M  V30 3900 H 360.627 3.22454 1.89668 0
M  V30 3901 H 361.96 4.23249 2.5124 0
M  V30 3902 N 363.613 -0.582584 1.46437 0
M  V30 3903 C 364.862 -1.337 1.5102 0
M  V30 3904 C 365.175 -1.94891 0.166359 0
M  V30 3905 O 366.381 -2.71351 0.0899954 0
M  V30 3906 C 364.837 -2.42315 2.66104 0
M  V30 3907 C 364.445 -1.87427 4.06909 0
M  V30 3908 C 366.189 -3.19099 2.79958 0
M  V30 3909 C 364.096 -2.93672 5.13333 0
M  V30 3910 H 363.026 -0.502619 0.562041 0
M  V30 3911 H 365.677 -0.621701 1.72647 0
M  V30 3912 H 364.059 -3.16645 2.37807 0
M  V30 3913 H 365.233 -1.19639 4.44998 0
M  V30 3914 H 363.548 -1.2331 3.97723 0
M  V30 3915 H 366.145 -3.9839 3.56636 0
M  V30 3916 H 366.488 -3.71695 1.87479 0
M  V30 3917 H 367.021 -2.51875 3.07902 0
M  V30 3918 H 363.76 -2.45962 6.07604 0
M  V30 3919 H 363.28 -3.59948 4.79789 0
M  V30 3920 H 364.959 -3.5762 5.39182 0
M  V30 3921 N 365.091 -1.34144 -0.827227 0
M  V30 3922 C 366.319 -1.29325 -1.61501 0
M  V30 3923 C 366.734 0.13354 -1.88327 0
M  V30 3924 O 366.091 1.0793 -1.47164 0
M  V30 3925 C 366.142 -2.07746 -2.95844 0
M  V30 3926 O 365.863 -3.4486 -2.70191 0
M  V30 3927 C 367.364 -2.10273 -3.90256 0
M  V30 3928 H 364.584 -0.445069 -0.50215 0
M  V30 3929 H 367.128 -1.76693 -1.02955 0
M  V30 3930 H 365.283 -1.6403 -3.5096 0
M  V30 3931 H 365.697 -3.85345 -3.55822 0
M  V30 3932 H 367.171 -2.69575 -4.81698 0
M  V30 3933 H 367.648 -1.096 -4.25305 0
M  V30 3934 H 368.254 -2.54059 -3.41078 0
M  V30 3935 N 366.569 1.04691 -1.17803 0
M  V30 3936 C 367.846 1.7472 -0.879328 0
M  V30 3937 C 368.226 2.01812 0.619271 0
M  V30 3938 O 367.574 1.65824 1.57209 0
M  V30 3939 C 367.784 3.03686 -1.71976 0
M  V30 3940 C 369.132 3.77542 -1.94286 0
M  V30 3941 O 370.156 3.13569 -1.68976 0
M  V30 3942 O 369.015 4.92506 -2.36855 0
M  V30 3943 H 366.109 0.760011 -0.326056 0
M  V30 3944 H 368.655 1.10813 -1.28525 0
M  V30 3945 H 367.427 2.79754 -2.73594 0
M  V30 3946 H 367.05 3.75332 -1.31194 0
M  V30 3947 N 368.047 0.979072 1.23499 0
M  V30 3948 C 369.324 0.563674 1.87302 0
M  V30 3949 C 369.704 -0.959199 1.88049 0
M  V30 3950 O 369.052 -1.83535 1.36114 0
M  V30 3951 C 369.262 1.16822 3.28867 0
M  V30 3952 C 370.61 1.26014 4.0547 0
M  V30 3953 O 371.634 1.12158 3.38082 0
M  V30 3954 O 370.493 1.48044 5.26066 0
M  V30 3955 H 367.587 0.189602 0.804972 0
M  V30 3956 H 370.133 1.07407 1.31384 0
M  V30 3957 H 368.905 2.21049 3.22883 0
M  V30 3958 H 368.528 0.642564 3.92373 0
M  V30 3959 N 369.525 -1.3858 0.750561 0
M  V30 3960 C 370.773 -1.99789 0.30477 0
M  V30 3961 C 371.094 -1.59874 -1.11649 0
M  V30 3962 O 370.364 -0.85417 -1.76297 0
M  V30 3963 H 368.944 -0.738902 0.109694 0
M  V30 3964 H 371.606 -1.69391 0.963983 0
M  V30 3965 H 370.702 -3.09952 0.365499 0
M  V30 3966 N 371.003 -0.499398 -1.49478 0
M  V30 3967 C 371.951 0.293604 -2.3074 0
M  V30 3968 C 372.945 0.96427 -1.39277 0
M  V30 3969 O 374.151 0.892141 -1.56336 0
M  V30 3970 H 370.526 0.113541 -0.743379 0
M  V30 3971 H 372.497 -0.411772 -2.95545 0
M  V30 3972 C 371.246 1.3462 -3.20582 0
M  V30 3973 H 370.569 0.83954 -3.90886 0
M  V30 3974 H 372.009 1.87308 -3.80384 0
M  V30 3975 C 370.468 2.36351 -2.40083 0
M  V30 3976 O 370.998 3.422 -2.10385 0
M  V30 3977 N 369.204 2.0878 -2.02137 0
M  V30 3978 H 368.751 1.22723 -2.26488 0
M  V30 3979 H 368.709 2.77075 -1.48583 0
M  V30 3980 N 372.481 1.55866 -0.233164 0
M  V30 3981 C 373.411 2.23783 0.666599 0
M  V30 3982 C 374.392 1.21343 1.19205 0
M  V30 3983 O 375.577 1.4996 1.23392 0
M  V30 3984 C 372.707 2.92671 1.86978 0
M  V30 3985 C 371.661 4.01682 1.47768 0
M  V30 3986 C 370.987 4.57926 2.76058 0
M  V30 3987 C 372.287 5.18126 0.658993 0
M  V30 3988 H 373.981 2.99232 0.100306 0
M  V30 3989 H 371.527 1.43924 0.046804 0
M  V30 3990 H 373.48 3.3888 2.50476 0
M  V30 3991 H 372.204 2.14688 2.46123 0
M  V30 3992 H 370.863 3.56222 0.866106 0
M  V30 3993 H 370.511 3.76659 3.33372 0
M  V30 3994 H 370.211 5.31505 2.50552 0
M  V30 3995 H 371.735 5.06859 3.40479 0
M  V30 3996 H 373.149 5.60644 1.19795 0
M  V30 3997 H 371.546 5.98009 0.500552 0
M  V30 3998 H 372.616 4.83763 -0.331856 0
M  V30 3999 N 373.959 -0.0401083 1.57549 0
M  V30 4000 C 374.906 -1.04413 2.05831 0
M  V30 4001 C 375.876 -1.36585 0.945184 0
M  V30 4002 O 377.061 -1.47112 1.21502 0
M  V30 4003 C 374.201 -2.34336 2.53339 0
M  V30 4004 C 373.314 -2.08419 3.78398 0
M  V30 4005 C 372.449 -3.32133 4.14561 0
M  V30 4006 C 371.488 -3.01721 5.3257 0
M  V30 4007 N 370.625 -4.17855 5.64218 0
M  V30 4008 H 375.465 -0.625442 2.91363 0
M  V30 4009 H 373.002 -0.297218 1.44066 0
M  V30 4010 H 374.96 -3.10234 2.78946 0
M  V30 4011 H 373.59 -2.73948 1.7074 0
M  V30 4012 H 372.642 -1.23069 3.59942 0
M  V30 4013 H 373.954 -1.81978 4.64419 0
M  V30 4014 H 373.108 -4.16406 4.41238 0
M  V30 4015 H 371.847 -3.61678 3.2717 0
M  V30 4016 H 370.852 -2.15849 5.05657 0
M  V30 4017 H 372.077 -2.73466 6.21605 0
M  V30 4018 H 370.023 -4.47372 4.79786 0
M  V30 4019 H 369.94 -3.94798 6.44725 0
M  V30 4020 H 371.208 -5.03033 5.95465 0
M  V30 4021 N 375.437 -1.54477 -0.31217 0
M  V30 4022 C 376.686 -1.72438 -1.04633 0
M  V30 4023 C 376.999 -0.511163 -1.88803 0
M  V30 4024 O 378.205 -0.572341 -2.65399 0
M  V30 4025 C 376.661 -3.05043 -1.9099 0
M  V30 4026 C 376.269 -4.33806 -1.11877 0
M  V30 4027 C 378.013 -3.32364 -2.64073 0
M  V30 4028 C 375.92 -5.57467 -1.97445 0
M  V30 4029 H 374.85 -0.642647 -0.394361 0
M  V30 4030 H 377.501 -1.80966 -0.303929 0
M  V30 4031 H 375.883 -2.90451 -2.69173 0
M  V30 4032 H 377.057 -4.59199 -0.383843 0
M  V30 4033 H 375.372 -4.13336 -0.504252 0
M  V30 4034 H 377.969 -4.21951 -3.28423 0
M  V30 4035 H 378.312 -2.50745 -3.32314 0
M  V30 4036 H 378.845 -3.47875 -1.92944 0
M  V30 4037 H 375.584 -6.41722 -1.33692 0
M  V30 4038 H 375.104 -5.36277 -2.6864 0
M  V30 4039 H 376.783 -5.94303 -2.5576 0
M  V30 4040 N 376.915 0.57481 -1.46744 0
M  V30 4041 C 378.14 1.36341 -1.56288 0
M  V30 4042 C 378.565 1.86954 -0.207347 0
M  V30 4043 O 377.923 1.62006 0.813871 0
M  V30 4044 C 377.971 2.52147 -2.57787 0
M  V30 4045 O 377.075 3.53834 -2.11838 0
M  V30 4046 H 376.416 0.405713 -0.525636 0
M  V30 4047 H 378.946 0.696453 -1.92382 0
M  V30 4048 H 378.956 2.98958 -2.77648 0
M  V30 4049 H 377.631 2.14663 -3.5622 0
M  V30 4050 H 376.208 3.1345 -2.01999 0
M  V30 4051 N 378.394 1.34581 0.820102 0
M  V30 4052 C 379.64 1.28294 1.57836 0
M  V30 4053 C 379.995 -0.145099 1.91852 0
M  V30 4054 O 379.288 -1.09209 1.57429 0
M  V30 4055 C 379.482 2.10997 2.8847 0
M  V30 4056 C 379.311 3.61698 2.67216 0
M  V30 4057 C 378.081 4.3097 2.63805 0
M  V30 4058 C 380.279 4.55638 2.38534 0
M  V30 4059 N 378.261 5.67502 2.34126 0
M  V30 4060 C 379.632 5.80194 2.18574 0
M  V30 4061 C 381.687 4.44523 2.24285 0
M  V30 4062 C 380.39 6.94886 1.8581 0
M  V30 4063 C 382.416 5.5905 1.92916 0
M  V30 4064 C 381.778 6.82627 1.73782 0
M  V30 4065 H 377.877 0.524697 0.579842 0
M  V30 4066 H 380.461 1.69323 0.961139 0
M  V30 4067 H 378.632 1.7226 3.48111 0
M  V30 4068 H 380.364 1.96333 3.53886 0
M  V30 4069 H 377.119 3.83438 2.77978 0
M  V30 4070 H 377.543 6.39525 2.22118 0
M  V30 4071 H 382.185 3.49599 2.37782 0
M  V30 4072 H 379.903 7.89789 1.7105 0
M  V30 4073 H 383.489 5.52396 1.82619 0
M  V30 4074 H 382.369 7.69748 1.49861 0
M  V30 4075 N 379.872 -1.04064 1.18357 0
M  V30 4076 C 381.097 -1.81454 1.00445 0
M  V30 4077 C 381.522 -1.82823 -0.442423 0
M  V30 4078 O 380.88 -1.24555 -1.31741 0
M  V30 4079 C 380.928 -3.24925 1.56384 0
M  V30 4080 O 380.032 -4.04856 0.785209 0
M  V30 4081 H 379.373 -0.560604 0.355835 0
M  V30 4082 H 381.903 -1.31059 1.57114 0
M  V30 4083 H 381.913 -3.75702 1.59097 0
M  V30 4084 H 380.588 -3.23244 2.61699 0
M  V30 4085 H 379.165 -3.63537 0.830399 0
M  V30 4086 N 381.35 -0.985608 -1.22978 0
M  V30 4087 C 382.575 -0.675254 -1.961 0
M  V30 4088 C 383 0.752154 -1.72407 0
M  V30 4089 O 382.358 1.5131 -0.998751 0
M  V30 4090 C 382.406 -0.977899 -3.47087 0
M  V30 4091 O 381.51 -0.072685 -4.12336 0
M  V30 4092 H 380.851 -0.253443 -0.613728 0
M  V30 4093 H 383.381 -1.32061 -1.56272 0
M  V30 4094 H 383.391 -0.916739 -3.97567 0
M  V30 4095 H 382.066 -2.01807 -3.63657 0
M  V30 4096 H 380.643 -0.188703 -3.72422 0
M  V30 4097 N 382.828 1.3818 -0.7579 0
M  V30 4098 C 384.239 1.82726 -0.383134 0
M  V30 4099 C 384.59 1.63214 1.08884 0
M  V30 4100 O 383.715 1.13566 1.84205 0
M  V30 4101 C 384.31 3.31728 -0.688631 0
M  V30 4102 C 382.869 3.74606 -0.367091 0
M  V30 4103 C 382.016 2.60896 -0.939599 0
M  V30 4104 H 384.967 1.26847 -0.953699 0
M  V30 4105 H 384.988 3.80487 0.0316492 0
M  V30 4106 H 384.5 3.45898 -1.76001 0
M  V30 4107 H 382.601 3.66013 0.697532 0
M  V30 4108 H 382.714 4.71215 -0.865658 0
M  V30 4109 H 381.078 2.52075 -0.3647 0
M  V30 4110 H 381.861 2.77864 -2.0161 0
M  V30 4111 N 384.306 0.507319 1.49211 0
M  V30 4112 C 385.717 0.0611118 1.866 0
M  V30 4113 C 386.068 -1.35488 1.41907 0
M  V30 4114 O 385.193 -2.0108 0.799726 0
M  V30 4115 C 385.788 0.104125 3.3864 0
M  V30 4116 C 384.347 -0.28677 3.75306 0
M  V30 4117 C 383.494 0.473893 2.73221 0
M  V30 4118 H 386.445 0.719775 1.41439 0
M  V30 4119 H 386.466 -0.689672 3.74198 0
M  V30 4120 H 385.978 1.13482 3.71138 0
M  V30 4121 H 384.079 -1.32046 3.48417 0
M  V30 4122 H 384.192 0.0370745 4.79086 0
M  V30 4123 H 382.556 -0.0770644 2.54583 0
M  V30 4124 H 383.339 1.50478 3.08563 0
M  V30 4125 N 385.784 -1.5574 0.241426 0
M  V30 4126 C 386.714 -2.24133 -0.654722 0
M  V30 4127 C 387.695 -1.21974 -1.1856 0
M  V30 4128 O 388.88 -1.50612 -1.22595 0
M  V30 4129 C 386.01 -2.93659 -1.85423 0
M  V30 4130 C 384.964 -4.0246 -1.45636 0
M  V30 4131 C 384.29 -4.59383 -2.73626 0
M  V30 4132 C 385.59 -5.18468 -0.631506 0
M  V30 4133 H 387.284 -2.99281 -0.0844353 0
M  V30 4134 H 384.83 -1.43947 -0.0391707 0
M  V30 4135 H 386.783 -3.40203 -2.48676 0
M  V30 4136 H 385.507 -2.15991 -2.44981 0
M  V30 4137 H 384.166 -3.56676 -0.847202 0
M  V30 4138 H 383.814 -3.78422 -3.3137 0
M  V30 4139 H 383.514 -5.32826 -2.4773 0
M  V30 4140 H 385.038 -5.08658 -3.37786 0
M  V30 4141 H 386.452 -5.61272 -1.1682 0
M  V30 4142 H 384.849 -5.98266 -0.468831 0
M  V30 4143 H 385.919 -4.8358 0.357506 0
M  V30 4144 N 387.262 0.0317525 -1.57568 0
M  V30 4145 C 388.508 0.724175 -1.8943 0
M  V30 4146 C 388.841 1.75149 -0.838836 0
M  V30 4147 O 388.116 1.93948 0.146422 0
M  V30 4148 C 388.399 1.39615 -3.31933 0
M  V30 4149 C 388.252 0.382537 -4.4817 0
M  V30 4150 C 389.571 2.33084 -3.73309 0
M  V30 4151 H 386.69 0.261797 -0.688935 0
M  V30 4152 H 389.332 -0.013017 -1.89996 0
M  V30 4153 H 387.482 2.02451 -3.31581 0
M  V30 4154 H 389.154 -0.243689 -4.60656 0
M  V30 4155 H 387.397 -0.29844 -4.32772 0
M  V30 4156 H 388.068 0.891145 -5.44759 0
M  V30 4157 H 390.544 1.80295 -3.7501 0
M  V30 4158 H 389.42 2.77084 -4.73831 0
M  V30 4159 H 389.681 3.19643 -3.05419 0
M  V30 4160 N 388.74 1.54641 0.303973 0
M  V30 4161 C 390.151 1.64811 0.877163 0
M  V30 4162 C 390.502 0.554838 1.88191 0
M  V30 4163 O 389.627 -0.309033 2.14182 0
M  V30 4164 C 390.222 2.9876 1.59775 0
M  V30 4165 C 388.781 3.11061 2.11938 0
M  V30 4166 C 387.928 2.60479 0.951097 0
M  V30 4167 H 390.879 1.58493 0.0810486 0
M  V30 4168 H 390.9 2.90017 2.46314 0
M  V30 4169 H 390.412 3.7831 0.866226 0
M  V30 4170 H 388.513 2.36225 2.88146 0
M  V30 4171 H 388.626 4.17171 2.35595 0
M  V30 4172 H 386.99 2.16859 1.33583 0
M  V30 4173 H 387.773 3.42504 0.233581 0
M  V30 4174 N 390.218 -0.567019 1.47046 0
M  V30 4175 C 391.465 -1.32462 1.53167 0
M  V30 4176 C 391.793 -1.93571 0.189841 0
M  V30 4177 O 391.048 -1.77865 -0.816243 0
M  V30 4178 C 391.347 -2.4623 2.59047 0
M  V30 4179 C 391.013 -2.03014 4.02612 0
M  V30 4180 C 389.675 -1.90944 4.41694 0
M  V30 4181 C 392.027 -1.69895 4.92732 0
M  V30 4182 C 389.355 -1.44035 5.68745 0
M  V30 4183 C 391.707 -1.2446 6.20236 0
M  V30 4184 C 390.371 -1.10979 6.5821 0
M  V30 4185 H 389.641 -0.484713 0.560477 0
M  V30 4186 H 392.288 -0.636888 1.80599 0
M  V30 4187 H 390.593 -3.20517 2.25335 0
M  V30 4188 H 392.29 -3.04427 2.61008 0
M  V30 4189 H 388.88 -2.13348 3.71726 0
M  V30 4190 H 393.064 -1.78098 4.63244 0
M  V30 4191 H 388.32 -1.32254 5.96925 0
M  V30 4192 H 392.494 -0.978924 6.89485 0
M  V30 4193 H 390.121 -0.744078 7.5655 0
M  V30 4194 N 391.696 -1.35014 -0.812953 0
M  V30 4195 C 393.107 -1.25035 -1.38648 0
M  V30 4196 C 393.458 0.119967 -1.95833 0
M  V30 4197 O 392.583 1.02069 -1.90816 0
M  V30 4198 C 393.178 -2.26394 -2.52054 0
M  V30 4199 C 391.737 -2.20175 -3.05287 0
M  V30 4200 C 390.884 -2.12451 -1.78213 0
M  V30 4201 H 393.835 -1.46235 -0.616516 0
M  V30 4202 H 393.856 -1.88672 -3.30429 0
M  V30 4203 H 393.368 -3.26116 -2.10404 0
M  V30 4204 H 391.469 -1.23841 -3.51417 0
M  V30 4205 H 391.582 -3.11863 -3.63701 0
M  V30 4206 H 389.946 -1.58328 -1.9951 0
M  V30 4207 H 390.729 -3.14024 -1.38723 0
M  V30 4208 N 393.175 1.03435 -1.18907 0
M  V30 4209 C 394.105 2.13503 -0.945448 0
M  V30 4210 C 395.086 1.69682 0.119189 0
M  V30 4211 O 396.271 1.94169 -0.034707 0
M  V30 4212 C 393.401 3.44004 -0.477316 0
M  V30 4213 C 392.355 4.0148 -1.48316 0
M  V30 4214 C 391.681 5.27537 -0.872311 0
M  V30 4215 C 392.981 4.36921 -2.86177 0
M  V30 4216 H 394.675 2.34141 -1.86597 0
M  V30 4217 H 392.221 1.12523 -0.898584 0
M  V30 4218 H 394.174 4.20372 -0.294204 0
M  V30 4219 H 392.898 3.23072 0.478786 0
M  V30 4220 H 391.557 3.27201 -1.65332 0
M  V30 4221 H 391.205 5.02917 0.0911752 0
M  V30 4222 H 390.905 5.66954 -1.54393 0
M  V30 4223 H 392.429 6.06576 -0.699871 0
M  V30 4224 H 393.843 5.04248 -2.72776 0
M  V30 4225 H 392.24 4.87405 -3.50081 0
M  V30 4226 H 393.31 3.46466 -3.39248 0
M  V30 4227 N 394.653 0.992116 1.22453 0
M  V30 4228 C 395.585 0.500024 2.23679 0
M  V30 4229 C 396.598 -0.404463 1.57696 0
M  V30 4230 O 397.787 -0.206722 1.77299 0
M  V30 4231 C 394.887 -0.294711 3.37616 0
M  V30 4232 C 394.06 0.605723 4.33186 0
M  V30 4233 C 393.119 -0.13717 5.26021 0
M  V30 4234 O 392.145 0.477164 5.67196 0
M  V30 4235 N 393.347 -1.4197 5.62872 0
M  V30 4236 H 396.112 1.37045 2.66531 0
M  V30 4237 H 393.673 0.866741 1.36745 0
M  V30 4238 H 395.665 -0.800329 3.96707 0
M  V30 4239 H 394.235 -1.06623 2.93854 0
M  V30 4240 H 393.455 1.29202 3.72425 0
M  V30 4241 H 394.743 1.21896 4.93983 0
M  V30 4242 H 394.141 -1.94015 5.31389 0
M  V30 4243 H 392.698 -1.87052 6.24383 0
M  V30 4244 N 396.131 -1.37776 0.765217 0
M  V30 4245 C 397.361 -2.03828 0.337277 0
M  V30 4246 C 397.769 -1.57841 -1.04321 0
M  V30 4247 O 397.112 -0.752043 -1.67601 0
M  V30 4248 C 397.174 -3.58292 0.294407 0
M  V30 4249 C 396.838 -4.27384 1.61838 0
M  V30 4250 C 397.835 -4.51956 2.56967 0
M  V30 4251 C 395.52 -4.65345 1.89102 0
M  V30 4252 C 397.514 -5.13536 3.77571 0
M  V30 4253 C 395.201 -5.26647 3.09978 0
M  V30 4254 C 396.199 -5.50679 4.04032 0
M  V30 4255 O 395.887 -6.10702 5.2278 0
M  V30 4256 H 395.619 -0.661292 0.140248 0
M  V30 4257 H 398.173 -1.77222 1.03834 0
M  V30 4258 H 396.403 -3.83918 -0.462983 0
M  V30 4259 H 398.092 -4.05763 -0.105581 0
M  V30 4260 H 398.858 -4.23048 2.37183 0
M  V30 4261 H 394.737 -4.45978 1.16725 0
M  V30 4262 H 398.281 -5.3221 4.50997 0
M  V30 4263 H 394.178 -5.54979 3.29649 0
M  V30 4264 H 394.946 -6.29183 5.23517 0
M  V30 4265 N 397.609 -0.515225 -1.4894 0
M  V30 4266 C 398.541 0.292481 -2.27326 0
M  V30 4267 C 399.554 0.917838 -1.3446 0
M  V30 4268 O 400.743 0.798772 -1.5963 0
M  V30 4269 C 397.843 1.42803 -3.07344 0
M  V30 4270 C 397.016 0.907347 -4.27885 0
M  V30 4271 C 396.075 1.92222 -4.89834 0
M  V30 4272 O 395.101 1.48506 -5.49486 0
M  V30 4273 N 396.303 3.25355 -4.80754 0
M  V30 4274 H 399.068 -0.379721 -2.97285 0
M  V30 4275 H 396.629 -0.348638 -1.58102 0
M  V30 4276 H 398.621 2.10481 -3.45658 0
M  V30 4277 H 397.191 2.00414 -2.39902 0
M  V30 4278 H 396.411 0.0550218 -3.94162 0
M  V30 4279 H 397.699 0.538108 -5.05946 0
M  V30 4280 H 397.097 3.6355 -4.33414 0
M  V30 4281 H 395.654 3.88707 -5.23211 0
M  V30 4282 N 399.087 1.5561 -0.249682 0
M  V30 4283 C 400.333 1.99306 0.374841 0
M  V30 4284 C 400.666 1.13767 1.57387 0
M  V30 4285 O 399.941 0.201711 1.93451 0
M  V30 4286 C 400.224 3.51507 0.781986 0
M  V30 4287 C 400.077 4.4781 -0.422629 0
M  V30 4288 C 401.396 4.08884 1.62793 0
M  V30 4289 H 398.515 0.724572 0.134773 0
M  V30 4290 H 401.157 1.86719 -0.351549 0
M  V30 4291 H 399.307 3.62363 1.4009 0
M  V30 4292 H 400.979 4.48931 -1.06108 0
M  V30 4293 H 399.222 4.20518 -1.06524 0
M  V30 4294 H 399.893 5.51919 -0.0943766 0
M  V30 4295 H 402.369 4.01147 1.10547 0
M  V30 4296 H 401.245 5.1564 1.88166 0
M  V30 4297 H 401.506 3.57515 2.60068 0
M  V30 4298 N 400.565 -0.0233959 1.57583 0
M  V30 4299 C 401.512 -1.02224 2.06927 0
M  V30 4300 C 402.482 -1.35575 0.959617 0
M  V30 4301 O 403.667 -1.45815 1.23055 0
M  V30 4302 C 400.807 -2.31636 2.5581 0
M  V30 4303 C 399.92 -2.04394 3.80588 0
M  V30 4304 C 399.055 -3.27717 4.18061 0
M  V30 4305 C 398.094 -2.96056 5.3574 0
M  V30 4306 N 397.231 -4.11847 5.68618 0
M  V30 4307 H 402.071 -0.594504 2.9201 0
M  V30 4308 H 399.608 -0.281921 1.44373 0
M  V30 4309 H 401.566 -3.07258 2.82221 0
M  V30 4310 H 400.196 -2.72122 1.73636 0
M  V30 4311 H 399.248 -1.19244 3.61227 0
M  V30 4312 H 400.56 -1.77042 4.66323 0
M  V30 4313 H 399.714 -4.11702 4.4563 0
M  V30 4314 H 398.453 -3.58188 3.30988 0
M  V30 4315 H 397.458 -2.10474 5.07918 0
M  V30 4316 H 398.683 -2.66857 6.24471 0
M  V30 4317 H 396.629 -4.42258 4.84504 0
M  V30 4318 H 396.546 -3.87938 6.48876 0
M  V30 4319 H 397.814 -4.96689 6.00766 0
M  V30 4320 N 402.043 -1.548 -0.295768 0
M  V30 4321 C 403.273 -1.78069 -1.04762 0
M  V30 4322 C 403.681 -0.542847 -1.81245 0
M  V30 4323 O 403.024 0.497051 -1.76848 0
M  V30 4324 C 403.086 -2.93881 -2.07061 0
M  V30 4325 C 402.75 -4.31777 -1.49725 0
M  V30 4326 C 403.747 -5.11613 -0.924581 0
M  V30 4327 C 401.432 -4.78389 -1.5313 0
M  V30 4328 C 403.426 -6.36184 -0.393594 0
M  V30 4329 C 401.113 -6.02921 -0.996447 0
M  V30 4330 C 402.111 -6.81654 -0.428569 0
M  V30 4331 O 401.799 -8.0384 0.0981593 0
M  V30 4332 H 401.531 -0.597475 -0.316226 0
M  V30 4333 H 404.085 -2.02584 -0.338973 0
M  V30 4334 H 402.315 -2.65003 -2.81621 0
M  V30 4335 H 404.004 -3.04679 -2.6819 0
M  V30 4336 H 404.77 -4.76743 -0.891136 0
M  V30 4337 H 400.649 -4.17132 -1.9627 0
M  V30 4338 H 404.193 -6.97582 0.0503014 0
M  V30 4339 H 400.09 -6.37277 -1.02706 0
M  V30 4340 H 400.858 -8.18499 -0.0146455 0
M  V30 4341 N 403.521 0.559213 -1.47345 0
M  V30 4342 C 404.746 1.34676 -1.57725 0
M  V30 4343 C 405.171 1.86723 -0.227164 0
M  V30 4344 O 404.529 1.6286 0.796642 0
M  V30 4345 C 404.577 2.49399 -2.60447 0
M  V30 4346 O 403.681 3.51567 -2.15578 0
M  V30 4347 H 403.022 0.400115 -0.52991 0
M  V30 4348 H 405.552 0.676009 -1.93109 0
M  V30 4349 H 405.562 2.95996 -2.80803 0
M  V30 4350 H 404.237 2.10873 -3.58477 0
M  V30 4351 H 402.814 3.11289 -2.05313 0
M  V30 4352 N 404.999 1.35443 0.805782 0
M  V30 4353 C 405.909 1.30546 1.94923 0
M  V30 4354 C 406.925 0.210233 1.72725 0
M  V30 4355 O 408.101 0.43975 1.9654 0
M  V30 4356 C 405.166 1.07782 3.29521 0
M  V30 4357 C 404.227 2.26625 3.64609 0
M  V30 4358 C 403.46 2.04938 4.92784 0
M  V30 4359 O 403.683 1.01624 5.61274 0
M  V30 4360 O 402.617 2.9232 5.26149 0
M  V30 4361 H 406.443 2.26779 2.02002 0
M  V30 4362 H 404.028 1.15823 0.943682 0
M  V30 4363 H 405.91 0.969392 4.10098 0
M  V30 4364 H 404.585 0.146003 3.23371 0
M  V30 4365 H 403.492 2.43033 2.84404 0
M  V30 4366 H 404.825 3.18257 3.75464 0
M  V30 4367 N 406.477 -1.02803 1.19454 0
M  V30 4368 C 407.425 -2.13213 0.929673 0
M  V30 4369 C 408.419 -1.69011 -0.114806 0
M  V30 4370 O 409.625 -1.79967 0.0345147 0
M  V30 4371 H 406 -0.69662 0.28324 0
M  V30 4372 H 407.971 -2.32744 1.86743 0
M  V30 4373 C 406.72 -3.4429 0.485797 0
M  V30 4374 H 406.043 -3.7872 1.28105 0
M  V30 4375 H 407.483 -4.22638 0.339582 0
M  V30 4376 C 405.942 -3.27258 -0.800244 0
M  V30 4377 O 406.472 -3.55967 -1.86146 0
M  V30 4378 N 404.678 -2.80545 -0.75781 0
M  V30 4379 H 404.225 -2.57382 0.106039 0
M  V30 4380 H 404.183 -2.6953 -1.61867 0
M  V30 4381 N 407.956 -0.998596 -1.21925 0
M  V30 4382 C 409.181 -0.696015 -1.95372 0
M  V30 4383 C 409.606 0.733826 -1.73195 0
M  V30 4384 O 408.964 1.50242 -1.01474 0
M  V30 4385 C 409.012 -1.01466 -3.4603 0
M  V30 4386 O 408.116 -0.116415 -4.12236 0
M  V30 4387 H 407.457 -0.259938 -0.611006 0
M  V30 4388 H 409.987 -1.33711 -1.54863 0
M  V30 4389 H 409.997 -0.958855 -3.96573 0
M  V30 4390 H 408.672 -2.05653 -3.61497 0
M  V30 4391 H 407.249 -0.228193 -3.72201 0
M  V30 4392 N 409.434 1.37368 -0.772513 0
M  V30 4393 C 410.662 2.03942 -0.348588 0
M  V30 4394 C 411.077 1.58264 1.02947 0
M  V30 4395 O 410.434 0.764246 1.65727 0
M  V30 4396 C 410.485 3.5946 -0.38351 0
M  V30 4397 O 410.206 4.03468 -1.70721 0
M  V30 4398 C 411.707 4.4327 0.0519152 0
M  V30 4399 H 408.927 0.654931 -0.145966 0
M  V30 4400 H 411.471 1.75686 -1.04665 0
M  V30 4401 H 409.626 3.86486 0.265978 0
M  V30 4402 H 410.04 4.97991 -1.64636 0
M  V30 4403 H 411.514 5.51995 -0.0236733 0
M  V30 4404 H 411.991 4.2514 1.10238 0
M  V30 4405 H 412.597 4.21471 -0.569415 0
M  V30 4406 N 410.912 0.523116 1.48665 0
M  V30 4407 C 412.14 -0.0096312 2.06898 0
M  V30 4408 C 412.555 -1.28784 1.38059 0
M  V30 4409 O 411.912 -1.76453 0.465893 0
M  V30 4410 C 411.963 -0.244386 3.60673 0
M  V30 4411 O 411.684 0.983172 4.26925 0
M  V30 4412 C 413.185 -0.818289 4.35682 0
M  V30 4413 H 410.405 0.0304161 0.67031 0
M  V30 4414 H 412.949 0.726799 1.91149 0
M  V30 4415 H 411.104 -0.930847 3.76051 0
M  V30 4416 H 411.518 0.759653 5.1897 0
M  V30 4417 H 412.992 -0.93201 5.44075 0
M  V30 4418 H 413.469 -1.82153 3.99646 0
M  V30 4419 H 414.075 -0.168609 4.24966 0
M  V30 4420 N 412.39 -1.55475 0.257931 0
M  V30 4421 C 413.636 -1.99502 -0.364266 0
M  V30 4422 C 413.969 -1.146 -1.56782 0
M  V30 4423 O 413.244 -0.211968 -1.93342 0
M  V30 4424 C 413.527 -3.51917 -0.763333 0
M  V30 4425 C 413.38 -4.4758 0.446371 0
M  V30 4426 C 414.699 -4.09742 -1.60623 0
M  V30 4427 H 411.818 -0.725277 -0.130929 0
M  V30 4428 H 414.46 -1.8653 0.361446 0
M  V30 4429 H 412.61 -3.63101 -1.38166 0
M  V30 4430 H 414.282 -4.48362 1.08487 0
M  V30 4431 H 412.525 -4.19947 1.08753 0
M  V30 4432 H 413.196 -5.51862 0.123645 0
M  V30 4433 H 415.672 -4.01727 -1.08418 0
M  V30 4434 H 414.548 -5.16631 -1.85429 0
M  V30 4435 H 414.809 -3.58889 -2.58169 0
M  V30 4436 N 413.868 0.0150385 -1.57593 0
M  V30 4437 C 415.117 0.702115 -1.89085 0
M  V30 4438 C 415.43 1.75764 -0.858277 0
M  V30 4439 O 416.636 2.49829 -1.0629 0
M  V30 4440 C 415.092 1.29992 -3.35604 0
M  V30 4441 C 414.7 0.280007 -4.47124 0
M  V30 4442 C 416.444 1.96606 -3.76227 0
M  V30 4443 C 414.351 0.886949 -5.84711 0
M  V30 4444 H 413.281 0.265997 -0.705522 0
M  V30 4445 H 415.932 -0.0430408 -1.8345 0
M  V30 4446 H 414.314 2.09525 -3.36029 0
M  V30 4447 H 415.488 -0.489631 -4.58191 0
M  V30 4448 H 413.803 -0.284835 -4.15425 0
M  V30 4449 H 416.4 2.42893 -4.76347 0
M  V30 4450 H 416.743 2.79024 -3.08952 0
M  V30 4451 H 417.276 1.23828 -3.78036 0
M  V30 4452 H 414.015 0.101876 -6.55421 0
M  V30 4453 H 413.535 1.6261 -5.77337 0
M  V30 4454 H 415.214 1.39011 -6.3189 0
M  V30 4455 N 415.346 1.54954 0.287554 0
M  V30 4456 C 416.762 1.46469 0.633964 0
M  V30 4457 C 416.962 0.666865 1.90145 0
M  V30 4458 O 416.018 0.179906 2.51858 0
M  V30 4459 C 417.331 2.90556 0.774454 0
M  V30 4460 C 418.879 3.00681 0.869462 0
M  V30 4461 C 419.354 4.45993 1.04184 0
M  V30 4462 N 420.845 4.4976 1.10772 0
M  V30 4463 C 421.58 5.59393 1.25964 0
M  V30 4464 N 421.076 6.78923 1.37968 0
M  V30 4465 N 422.869 5.47107 1.28959 0
M  V30 4466 H 415.02 2.05288 -0.545041 0
M  V30 4467 H 417.283 0.930305 -0.182308 0
M  V30 4468 H 416.989 3.51594 -0.086207 0
M  V30 4469 H 416.863 3.38743 1.6593 0
M  V30 4470 H 419.25 2.39749 1.7206 0
M  V30 4471 H 419.331 2.55769 -0.0396831 0
M  V30 4472 H 418.975 5.07524 0.195422 0
M  V30 4473 H 418.905 4.88548 1.96542 0
M  V30 4474 H 421.396 3.63651 1.02794 0
M  V30 4475 H 421.709 7.58231 1.49353 0
M  V30 4476 H 420.054 6.81763 1.34999 0
M  V30 4477 H 423.245 4.52668 1.19202 0
M  V30 4478 H 423.418 6.32595 1.40455 0
M  V30 4479 N 416.824 -0.551391 1.4764 0
M  V30 4480 C 417.734 -1.68525 1.63207 0
M  V30 4481 C 418.75 -1.6621 0.514815 0
M  V30 4482 O 419.926 -1.85551 0.783113 0
M  V30 4483 C 416.991 -3.05025 1.64805 0
M  V30 4484 C 416.052 -3.18362 2.88 0
M  V30 4485 C 415.285 -4.4835 2.89513 0
M  V30 4486 O 415.508 -5.34163 2.00065 0
M  V30 4487 O 414.442 -4.65602 3.81443 0
M  V30 4488 H 418.268 -1.58333 2.59161 0
M  V30 4489 H 415.853 -0.722063 1.30792 0
M  V30 4490 H 417.735 -3.86245 1.68502 0
M  V30 4491 H 416.41 -3.15587 0.720197 0
M  V30 4492 H 415.317 -2.36518 2.89845 0
M  V30 4493 H 416.65 -3.12707 3.80099 0
M  V30 4494 N 418.302 -1.35869 -0.798587 0
M  V30 4495 C 419.265 -1.29307 -1.89242 0
M  V30 4496 C 420.265 -0.202747 -1.59517 0
M  V30 4497 O 421.455 -0.456957 -1.681 0
M  V30 4498 C 418.587 -1.00229 -3.25833 0
M  V30 4499 H 419.78 -2.26576 -1.96478 0
M  V30 4500 H 417.333 -1.20509 -0.995358 0
M  V30 4501 H 418.068 -0.033801 -3.24282 0
M  V30 4502 H 417.853 -1.79121 -3.48795 0
M  V30 4503 H 419.343 -0.98219 -4.05885 0
M  V30 4504 N 419.78 1.02168 -1.19998 0
M  V30 4505 C 421.057 1.72816 -0.916191 0
M  V30 4506 C 421.437 2.03081 0.576325 0
M  V30 4507 O 420.785 1.69122 1.53656 0
M  V30 4508 C 420.995 2.9997 -1.78378 0
M  V30 4509 C 422.343 3.73336 -2.02251 0
M  V30 4510 O 423.367 3.09914 -1.75589 0
M  V30 4511 O 422.226 4.87371 -2.47249 0
M  V30 4512 H 419.32 0.752924 -0.342103 0
M  V30 4513 H 421.866 1.08062 -1.30846 0
M  V30 4514 H 420.638 2.73888 -2.79466 0
M  V30 4515 H 420.261 3.72464 -1.39126 0
M  V30 4516 N 421.258 1.00505 1.21394 0
M  V30 4517 C 422.205 0.565496 2.23765 0
M  V30 4518 C 423.175 -0.408466 1.60999 0
M  V30 4519 O 424.36 -0.310503 1.88257 0
M  V30 4520 C 421.5 -0.101667 3.4495 0
M  V30 4521 C 420.613 0.915479 4.22188 0
M  V30 4522 C 419.748 0.220574 5.30742 0
M  V30 4523 C 418.787 1.22527 5.99711 0
M  V30 4524 N 417.924 0.557831 6.9988 0
M  V30 4525 H 422.764 1.44314 2.60725 0
M  V30 4526 H 420.301 0.722643 1.28126 0
M  V30 4527 H 422.259 -0.505504 4.14126 0
M  V30 4528 H 420.889 -0.94303 3.08718 0
M  V30 4529 H 419.941 1.43756 3.52191 0
M  V30 4530 H 421.253 1.68005 4.69655 0
M  V30 4531 H 420.407 -0.239368 6.06228 0
M  V30 4532 H 419.146 -0.576401 4.84282 0
M  V30 4533 H 418.151 1.69571 5.22997 0
M  V30 4534 H 419.376 2.02332 6.48258 0
M  V30 4535 H 417.322 -0.219486 6.55633 0
M  V30 4536 H 417.239 1.26065 7.45415 0
M  V30 4537 H 418.507 0.121095 7.79406 0
M  V30 4538 N 422.737 -1.36956 0.779787 0
M  V30 4539 C 423.986 -1.98738 0.344405 0
M  V30 4540 C 424.299 -1.62596 -1.08728 0
M  V30 4541 O 425.505 -2.1754 -1.62445 0
M  V30 4542 C 423.961 -3.5544 0.564829 0
M  V30 4543 C 423.569 -4.00514 2.0073 0
M  V30 4544 C 425.313 -4.24059 0.193471 0
M  V30 4545 C 423.22 -5.49957 2.17489 0
M  V30 4546 H 422.15 -0.743561 0.12503 0
M  V30 4547 H 424.801 -1.56381 0.960057 0
M  V30 4548 H 423.183 -3.95817 -0.120397 0
M  V30 4549 H 424.357 -3.71362 2.72814 0
M  V30 4550 H 422.672 -3.44703 2.336 0
M  V30 4551 H 425.269 -5.33874 0.297097 0
M  V30 4552 H 425.612 -4.07378 -0.857263 0
M  V30 4553 H 426.145 -3.89012 0.831556 0
M  V30 4554 H 422.884 -5.71574 3.2091 0
M  V30 4555 H 422.404 -5.80767 1.49899 0
M  V30 4556 H 424.083 -6.16043 1.97738 0
M  V30 4557 N 424.215 -0.530993 -1.48385 0
M  V30 4558 C 425.461 0.00274135 -2.028 0
M  V30 4559 C 425.794 1.33838 -1.40716 0
M  V30 4560 O 425.069 1.86465 -0.553277 0
M  V30 4561 C 425.352 0.123676 -3.59888 0
M  V30 4562 C 425.205 -1.2372 -4.3245 0
M  V30 4563 C 426.524 0.849967 -4.31814 0
M  V30 4564 H 423.643 -0.000477758 -0.737 0
M  V30 4565 H 426.285 -0.688217 -1.77098 0
M  V30 4566 H 424.435 0.712157 -3.81917 0
M  V30 4567 H 426.107 -1.86687 -4.21836 0
M  V30 4568 H 424.35 -1.81882 -3.93829 0
M  V30 4569 H 425.021 -1.10557 -5.40815 0
M  V30 4570 H 427.497 0.350572 -4.14621 0
M  V30 4571 H 426.373 0.903486 -5.41413 0
M  V30 4572 H 426.634 1.90047 -3.99167 0
M  V30 4573 N 425.693 1.55336 -0.266172 0
M  V30 4574 C 426.918 2.04258 0.359661 0
M  V30 4575 C 427.343 1.14359 1.49344 0
M  V30 4576 O 426.701 0.140369 1.80756 0
M  V30 4577 C 426.749 3.50997 0.826635 0
M  V30 4578 O 425.853 3.64204 1.93466 0
M  V30 4579 H 425.194 0.659668 0.075727 0
M  V30 4580 H 427.724 2.00694 -0.39786 0
M  V30 4581 H 427.734 3.9219 1.12477 0
M  V30 4582 H 426.409 4.159 -0.00293032 0
M  V30 4583 H 424.986 3.34913 1.63974 0
M  V30 4584 N 427.171 -0.0066808 1.57599 0
M  V30 4585 C 428.134 -0.985035 2.06953 0
M  V30 4586 C 429.134 -1.27663 0.977687 0
M  V30 4587 O 430.324 -1.22293 1.24057 0
M  V30 4588 C 427.456 -2.3118 2.50536 0
M  V30 4589 H 428.649 -0.558255 2.94658 0
M  V30 4590 H 426.202 -0.254011 1.54222 0
M  V30 4591 H 426.937 -2.78561 1.66054 0
M  V30 4592 H 426.722 -2.11338 3.3027 0
M  V30 4593 H 428.212 -3.01377 2.8907 0
M  V30 4594 N 428.649 -1.55105 -0.279332 0
M  V30 4595 C 429.877 -1.7943 -1.03017 0
M  V30 4596 C 430.292 -0.564456 -1.80165 0
M  V30 4597 O 429.649 0.466326 -1.76442 0
M  V30 4598 C 429.7 -3.0155 -1.99374 0
M  V30 4599 O 429.421 -4.19784 -1.25352 0
M  V30 4600 C 430.922 -3.3843 -2.86321 0
M  V30 4601 H 428.142 -0.597882 -0.304594 0
M  V30 4602 H 430.686 -2.02105 -0.312035 0
M  V30 4603 H 428.841 -2.81019 -2.66659 0
M  V30 4604 H 429.255 -4.88781 -1.90246 0
M  V30 4605 H 430.729 -4.27066 -3.49741 0
M  V30 4606 H 431.206 -2.57549 -3.5576 0
M  V30 4607 H 431.812 -3.61197 -2.24536 0
M  V30 4608 N 430.127 0.543554 -1.4793 0
M  V30 4609 C 431.352 1.32995 -1.59145 0
M  V30 4610 C 431.777 1.86472 -0.246956 0
M  V30 4611 O 431.135 1.63696 0.779324 0
M  V30 4612 C 431.183 2.46623 -2.63077 0
M  V30 4613 O 430.287 3.49261 -2.19295 0
M  V30 4614 H 429.628 0.394472 -0.534124 0
M  V30 4615 H 432.158 0.655489 -1.93816 0
M  V30 4616 H 432.168 2.93001 -2.83926 0
M  V30 4617 H 430.843 2.07059 -3.60693 0
M  V30 4618 H 429.42 3.09094 -2.08603 0
M  V30 4619 N 431.605 1.3629 0.791371 0
M  V30 4620 C 432.535 1.33137 1.91825 0
M  V30 4621 C 433.516 0.203168 1.68882 0
M  V30 4622 O 434.701 0.400509 1.90025 0
M  V30 4623 C 431.831 1.11793 3.28816 0
M  V30 4624 C 430.785 2.21417 3.66277 0
M  V30 4625 C 430.111 1.85218 5.01596 0
M  V30 4626 C 431.411 3.63489 3.75064 0
M  V30 4627 H 433.105 2.2743 1.9472 0
M  V30 4628 H 430.651 1.09479 0.935437 0
M  V30 4629 H 432.604 1.08222 4.07266 0
M  V30 4630 H 431.328 0.139501 3.26302 0
M  V30 4631 H 429.987 2.2411 2.90121 0
M  V30 4632 H 429.635 0.859544 4.95602 0
M  V30 4633 H 429.335 2.58611 5.27631 0
M  V30 4634 H 430.859 1.832 5.82469 0
M  V30 4635 H 432.273 3.63034 4.43711 0
M  V30 4636 H 430.67 4.35771 4.12582 0
M  V30 4637 H 431.74 3.98536 2.76219 0
M  V30 4638 N 433.083 -1.0153 1.20538 0
M  V30 4639 C 434.013 -2.11972 0.979295 0
M  V30 4640 C 434.994 -1.6985 -0.0921787 0
M  V30 4641 O 436.179 -1.94089 0.0655932 0
M  V30 4642 C 433.309 -3.43201 0.531984 0
M  V30 4643 C 432.263 -3.9907 1.54685 0
M  V30 4644 C 431.589 -5.26082 0.956127 0
M  V30 4645 C 432.889 -4.32313 2.93092 0
M  V30 4646 H 434.583 -2.31143 1.90298 0
M  V30 4647 H 432.129 -1.11079 0.916372 0
M  V30 4648 H 434.082 -4.1985 0.361044 0
M  V30 4649 H 432.806 -3.23792 -0.427327 0
M  V30 4650 H 431.465 -3.2453 1.70517 0
M  V30 4651 H 431.113 -5.02999 -0.0111538 0
M  V30 4652 H 430.813 -5.64426 1.63393 0
M  V30 4653 H 432.337 -6.05386 0.796284 0
M  V30 4654 H 433.751 -4.99845 2.80763 0
M  V30 4655 H 432.148 -4.81774 3.57791 0
M  V30 4656 H 433.218 -3.41025 3.44717 0
M  V30 4657 N 434.561 -1.01147 -1.20859 0
M  V30 4658 C 435.807 -0.698899 -1.90377 0
M  V30 4659 C 436.14 0.76904 -1.78324 0
M  V30 4660 O 435.415 1.55817 -1.16409 0
M  V30 4661 C 435.698 -1.12878 -3.41951 0
M  V30 4662 C 435.551 -2.65665 -3.62963 0
M  V30 4663 C 436.87 -0.696114 -4.3456 0
M  V30 4664 H 433.989 -0.255372 -0.691342 0
M  V30 4665 H 436.631 -1.25831 -1.42361 0
M  V30 4666 H 434.781 -0.652827 -3.82976 0
M  V30 4667 H 436.453 -3.21074 -3.31224 0
M  V30 4668 H 434.696 -3.06878 -3.06608 0
M  V30 4669 H 435.367 -2.90797 -4.69192 0
M  V30 4670 H 437.843 -1.10521 -4.01154 0
M  V30 4671 H 436.719 -1.025 -5.39245 0
M  V30 4672 H 436.98 0.402465 -4.40264 0
M  V30 4673 N 436.039 1.36541 -0.78704 0
M  V30 4674 C 437.316 1.9355 -0.282424 0
M  V30 4675 C 437.696 1.71919 1.22503 0
M  V30 4676 O 437.044 1.07677 2.01539 0
M  V30 4677 C 437.254 3.4246 -0.672462 0
M  V30 4678 C 438.602 4.19582 -0.650863 0
M  V30 4679 O 439.626 3.50889 -0.612789 0
M  V30 4680 O 438.485 5.42106 -0.691623 0
M  V30 4681 H 435.579 0.824091 -0.0693 0
M  V30 4682 H 438.125 1.45736 -0.869423 0
M  V30 4683 H 436.897 3.51851 -1.71221 0
M  V30 4684 H 436.52 3.97556 -0.0592211 0
M  V30 4685 N 437.518 0.538854 1.48102 0
M  V30 4686 C 438.743 0.0102694 2.07397 0
M  V30 4687 C 439.168 -1.26562 1.39153 0
M  V30 4688 O 438.526 -1.75357 0.460387 0
M  V30 4689 C 438.574 -0.187602 3.60112 0
M  V30 4690 O 437.678 -1.25432 3.92862 0
M  V30 4691 H 437.019 0.0430975 0.6626 0
M  V30 4692 H 439.549 0.749301 1.90385 0
M  V30 4693 H 439.559 -0.407517 4.0596 0
M  V30 4694 H 438.234 0.744386 4.09184 0
M  V30 4695 H 436.811 -1.01636 3.58782 0
M  V30 4696 N 438.996 -1.55193 0.274407 0
M  V30 4697 C 440.245 -1.98758 -0.343213 0
M  V30 4698 C 440.558 -1.16624 -1.5703 0
M  V30 4699 O 441.764 -1.5033 -2.26082 0
M  V30 4700 C 440.22 -3.53759 -0.661996 0
M  V30 4701 C 439.828 -4.4467 0.54524 0
M  V30 4702 C 441.572 -4.05916 -1.24228 0
M  V30 4703 C 439.479 -5.91058 0.201084 0
M  V30 4704 H 438.409 -0.742353 -0.132014 0
M  V30 4705 H 441.06 -1.79545 0.378948 0
M  V30 4706 H 439.442 -3.68772 -1.44304 0
M  V30 4707 H 440.616 -4.41426 1.32212 0
M  V30 4708 H 438.931 -4.03143 1.04232 0
M  V30 4709 H 441.528 -5.12831 -1.51357 0
M  V30 4710 H 441.871 -3.54908 -2.17592 0
M  V30 4711 H 442.404 -3.9434 -0.523542 0
M  V30 4712 H 439.143 -6.46161 1.10258 0
M  V30 4713 H 438.663 -5.97373 -0.539045 0
M  V30 4714 H 440.342 -6.46669 -0.206954 0
M  V30 4715 N 440.474 -0.00167713 -1.576 0
M  V30 4716 C 441.404 0.988091 -2.11563 0
M  V30 4717 C 442.385 1.35736 -1.02517 0
M  V30 4718 O 443.57 1.44082 -1.30208 0
M  V30 4719 C 440.7 2.27941 -2.62031 0
M  V30 4720 C 439.654 2.0517 -3.75619 0
M  V30 4721 C 438.98 3.4033 -4.12407 0
M  V30 4722 C 440.28 1.41294 -5.02825 0
M  V30 4723 H 441.974 0.538771 -2.94513 0
M  V30 4724 H 439.52 0.257712 -1.41675 0
M  V30 4725 H 441.473 2.97539 -2.9841 0
M  V30 4726 H 440.197 2.74989 -1.76205 0
M  V30 4727 H 438.856 1.37998 -3.39635 0
M  V30 4728 H 438.504 3.85085 -3.23603 0
M  V30 4729 H 438.204 3.25909 -4.88935 0
M  V30 4730 H 439.728 4.1124 -4.51347 0
M  V30 4731 H 441.142 2.00851 -5.36965 0
M  V30 4732 H 439.539 1.37356 -5.84169 0
M  V30 4733 H 440.609 0.382362 -4.8339 0
M  V30 4734 N 441.952 1.55251 0.271103 0
M  V30 4735 C 443.363 1.66635 0.842007 0
M  V30 4736 C 443.714 0.594631 1.86972 0
M  V30 4737 O 442.839 -0.263532 2.14789 0
M  V30 4738 C 443.434 3.02082 1.53401 0
M  V30 4739 C 441.993 3.15487 2.05293 0
M  V30 4740 C 441.14 2.62438 0.895631 0
M  V30 4741 H 444.091 1.58629 0.0474117 0
M  V30 4742 H 444.112 2.95176 2.40107 0
M  V30 4743 H 443.624 3.80062 0.785786 0
M  V30 4744 H 441.725 2.42284 2.83071 0
M  V30 4745 H 441.838 4.22075 2.26693 0
M  V30 4746 H 440.202 2.19644 1.28953 0
M  V30 4747 H 440.985 3.42923 0.160878 0
M  V30 4748 N 443.43 -0.535701 1.48216 0
M  V30 4749 C 444.678 -1.28928 1.55634 0
M  V30 4750 C 444.999 -1.93645 0.229514 0
M  V30 4751 O 444.269 -1.81038 -0.74846 0
M  V30 4752 H 442.849 -0.47884 0.573342 0
M  V30 4753 H 445.511 -0.623853 1.84646 0
M  V30 4754 H 444.607 -2.07157 2.33436 0
M  V30 4755 N 444.908 -1.36708 -0.784132 0
M  V30 4756 C 446.133 -1.34565 -1.5782 0
M  V30 4757 C 446.558 0.0695257 -1.87971 0
M  V30 4758 O 445.916 1.04302 -1.48293 0
M  V30 4759 C 445.964 -2.17952 -2.87279 0
M  V30 4760 O 445.068 -1.57563 -3.81114 0
M  V30 4761 H 444.409 -0.460337 -0.478524 0
M  V30 4762 H 446.939 -1.80064 -0.971495 0
M  V30 4763 H 446.949 -2.30721 -3.365 0
M  V30 4764 H 445.624 -3.20823 -2.64661 0
M  V30 4765 H 444.201 -1.53764 -3.39722 0
M  V30 4766 N 446.386 1.0089 -1.21074 0
M  V30 4767 C 447.611 1.78727 -1.05221 0
M  V30 4768 C 448.036 1.83932 0.393795 0
M  V30 4769 O 447.394 1.28004 1.28393 0
M  V30 4770 C 447.442 3.20665 -1.64944 0
M  V30 4771 O 446.546 4.02632 -0.892273 0
M  V30 4772 H 445.887 0.550973 -0.370574 0
M  V30 4773 H 448.417 1.26847 -1.60534 0
M  V30 4774 H 448.427 3.71352 -1.69002 0
M  V30 4775 H 447.102 3.16191 -2.70177 0
M  V30 4776 H 445.679 3.61207 -0.926492 0
M  V30 4777 N 447.864 1.01787 1.20321 0
M  V30 4778 C 449.094 0.72614 1.93419 0
M  V30 4779 C 449.502 -0.717317 1.75075 0
M  V30 4780 O 448.845 -1.49836 1.06278 0
M  V30 4781 C 448.907 0.983621 3.45782 0
M  V30 4782 C 448.571 2.41645 3.87888 0
M  V30 4783 C 449.568 3.39732 3.93545 0
M  V30 4784 C 447.253 2.75752 4.19841 0
M  V30 4785 C 449.247 4.69988 4.30569 0
M  V30 4786 C 446.934 4.06221 4.56539 0
M  V30 4787 C 447.932 5.0315 4.61876 0
M  V30 4788 O 447.62 6.31284 4.97731 0
M  V30 4789 H 447.352 0.265824 0.621541 0
M  V30 4790 H 449.906 1.3623 1.53722 0
M  V30 4791 H 448.136 0.290301 3.85609 0
M  V30 4792 H 449.825 0.683279 4.00108 0
M  V30 4793 H 450.591 3.14718 3.69022 0
M  V30 4794 H 446.47 2.00993 4.14877 0
M  V30 4795 H 450.014 5.45642 4.3465 0
M  V30 4796 H 445.911 4.31013 4.80518 0
M  V30 4797 H 446.679 6.35591 5.15719 0
M  V30 4798 N 449.342 -1.36122 0.79427 0
M  V30 4799 C 450.252 -2.33769 0.197296 0
M  V30 4800 C 451.268 -1.61276 -0.653153 0
M  V30 4801 O 452.444 -1.9323 -0.5678 0
M  V30 4802 C 449.509 -3.40474 -0.654098 0
M  V30 4803 C 448.57 -4.28759 0.215411 0
M  V30 4804 C 447.803 -5.30368 -0.595443 0
M  V30 4805 O 448.026 -5.40211 -1.83107 0
M  V30 4806 O 446.96 -6.019 0.00721351 0
M  V30 4807 H 450.786 -2.86597 1.00478 0
M  V30 4808 H 448.371 -1.38676 0.555818 0
M  V30 4809 H 450.253 -4.05703 -1.13944 0
M  V30 4810 H 448.928 -2.89937 -1.43938 0
M  V30 4811 H 447.835 -3.66554 0.747615 0
M  V30 4812 H 449.168 -4.82661 0.964332 0
M  V30 4813 N 450.82 -0.546701 -1.47814 0
M  V30 4814 C 452.066 -0.0187684 -2.02791 0
M  V30 4815 C 452.399 1.32338 -1.42128 0
M  V30 4816 O 451.674 1.85867 -0.573023 0
M  V30 4817 C 451.957 0.0854985 -3.59998 0
M  V30 4818 C 451.81 -1.283 -4.31114 0
M  V30 4819 C 453.129 0.80412 -4.32691 0
M  V30 4820 H 450.248 -0.0082946 -0.736953 0
M  V30 4821 H 452.89 -0.706962 -1.76358 0
M  V30 4822 H 451.04 0.671609 -3.82651 0
M  V30 4823 H 452.712 -1.91151 -4.19832 0
M  V30 4824 H 450.955 -1.86049 -3.91878 0
M  V30 4825 H 451.626 -1.16287 -5.39612 0
M  V30 4826 H 454.102 0.306576 -4.14969 0
M  V30 4827 H 452.978 0.846011 -5.42341 0
M  V30 4828 H 453.239 1.85802 -4.01161 0
M  V30 4829 N 452.299 1.55045 -0.282633 0
M  V30 4830 C 453.231 2.2023 0.634924 0
M  V30 4831 C 454.244 1.18931 1.11172 0
M  V30 4832 O 455.433 1.4562 1.03233 0
M  V30 4833 C 452.533 2.82041 1.87899 0
M  V30 4834 C 451.706 4.091 1.54776 0
M  V30 4835 C 450.765 4.54887 2.64507 0
M  V30 4836 O 449.791 5.20496 2.30375 0
M  V30 4837 N 450.993 4.25659 3.94709 0
M  V30 4838 H 453.758 2.99601 0.0769811 0
M  V30 4839 H 451.319 1.61565 -0.104048 0
M  V30 4840 H 453.311 3.09613 2.60619 0
M  V30 4841 H 451.881 2.06618 2.3458 0
M  V30 4842 H 451.101 3.88736 0.654049 0
M  V30 4843 H 452.389 4.9187 1.30158 0
M  V30 4844 H 451.787 3.7306 4.25256 0
M  V30 4845 H 450.344 4.57984 4.63782 0
M  V30 4846 N 453.777 0.010035 1.57597 0
M  V30 4847 C 455.023 -0.673697 1.91283 0
M  V30 4848 C 455.356 -1.72863 0.884979 0
M  V30 4849 O 454.631 -1.94268 -0.0949487 0
M  V30 4850 C 454.914 -1.30766 3.35518 0
M  V30 4851 C 454.767 -0.263578 4.49027 0
M  V30 4852 C 456.086 -2.23105 3.79358 0
M  V30 4853 H 453.205 -0.243439 0.695634 0
M  V30 4854 H 455.847 0.0633864 1.89894 0
M  V30 4855 H 453.997 -1.93588 3.36832 0
M  V30 4856 H 455.669 0.365738 4.59848 0
M  V30 4857 H 453.912 0.413077 4.31829 0
M  V30 4858 H 454.583 -0.746398 5.4693 0
M  V30 4859 H 457.059 -1.70289 3.79659 0
M  V30 4860 H 455.935 -2.64424 4.81011 0
M  V30 4861 H 456.196 -3.11433 3.13787 0
M  V30 4862 N 455.255 -1.55392 -0.262866 0
M  V30 4863 C 456.671 -1.47459 -0.610582 0
M  V30 4864 C 456.871 -0.697031 -1.8906 0
M  V30 4865 O 455.927 -0.219952 -2.5154 0
M  V30 4866 C 457.24 -2.91751 -0.728131 0
M  V30 4867 C 458.788 -3.02027 -0.821517 0
M  V30 4868 C 459.263 -4.47594 -0.97076 0
M  V30 4869 N 460.754 -4.51465 -1.03603 0
M  V30 4870 C 461.489 -5.61326 -1.17049 0
M  V30 4871 N 460.985 -6.81032 -1.2715 0
M  V30 4872 N 462.778 -5.49089 -1.20239 0
M  V30 4873 H 454.929 -2.04395 0.577632 0
M  V30 4874 H 457.192 -0.927287 0.197086 0
M  V30 4875 H 456.898 -3.51413 0.142132 0
M  V30 4876 H 456.772 -3.4134 -1.6052 0
M  V30 4877 H 459.159 -2.42456 -1.68224 0
M  V30 4878 H 459.24 -2.55674 0.0803688 0
M  V30 4879 H 458.884 -5.07771 -0.114655 0
M  V30 4880 H 458.814 -4.91613 -1.88745 0
M  V30 4881 H 461.305 -3.6524 -0.96996 0
M  V30 4882 H 461.618 -7.60511 -1.37271 0
M  V30 4883 H 459.963 -6.83824 -1.24136 0
M  V30 4884 H 463.154 -4.54507 -1.11985 0
M  V30 4885 H 463.327 -6.34749 -1.30373 0
M  V30 4886 N 456.733 0.527833 -1.48498 0
M  V30 4887 C 457.981 1.28101 -1.56316 0
M  V30 4888 C 458.302 1.9352 -0.239781 0
M  V30 4889 O 457.572 1.81433 0.738849 0
M  V30 4890 H 456.152 0.475793 -0.575873 0
M  V30 4891 H 458.814 0.614052 -1.84974 0
M  V30 4892 H 457.91 2.05916 -2.34532 0
M  V30 4893 N 458.211 1.37122 0.776871 0
M  V30 4894 C 459.158 1.3247 1.88998 0
M  V30 4895 C 460.128 0.191143 1.64997 0
M  V30 4896 O 461.313 0.379683 1.86984 0
M  V30 4897 C 458.453 1.13241 3.25992 0
M  V30 4898 C 457.566 2.35782 3.61982 0
M  V30 4899 C 456.701 2.09465 4.88158 0
M  V30 4900 C 455.74 3.279 5.16864 0
M  V30 4901 N 454.877 3.01167 6.34226 0
M  V30 4902 H 459.717 2.27642 1.9231 0
M  V30 4903 H 457.254 1.13125 0.94027 0
M  V30 4904 H 459.212 1.00115 4.0501 0
M  V30 4905 H 457.842 0.217186 3.22069 0
M  V30 4906 H 456.894 2.59666 2.77989 0
M  V30 4907 H 458.206 3.24125 3.79137 0
M  V30 4908 H 457.36 1.93341 5.75069 0
M  V30 4909 H 456.099 1.18452 4.73097 0
M  V30 4910 H 455.104 3.44569 4.2843 0
M  V30 4911 H 456.329 4.19757 5.33836 0
M  V30 4912 H 454.275 2.12779 6.20533 0
M  V30 4913 H 454.192 3.83052 6.51772 0
M  V30 4914 H 455.46 2.88649 7.24087 0
M  V30 4915 N 459.689 -1.00246 1.21608 0
M  V30 4916 C 461.105 -1.26435 0.973975 0
M  V30 4917 C 461.305 -1.98642 -0.338143 0
M  V30 4918 O 460.361 -2.29026 -1.06317 0
M  V30 4919 C 461.674 -2.08551 2.16626 0
M  V30 4920 C 463.222 -2.21769 2.20879 0
M  V30 4921 C 463.697 -3.07267 3.39633 0
M  V30 4922 N 465.188 -3.14855 3.39736 0
M  V30 4923 C 465.923 -3.81274 4.28273 0
M  V30 4924 N 465.419 -4.497 5.27012 0
M  V30 4925 N 467.212 -3.7794 4.16074 0
M  V30 4926 H 459.363 -0.518089 2.05984 0
M  V30 4927 H 461.626 -0.291368 0.902113 0
M  V30 4928 H 461.332 -1.62847 3.11727 0
M  V30 4929 H 461.206 -3.09303 2.15897 0
M  V30 4930 H 463.593 -2.66691 1.26332 0
M  V30 4931 H 463.674 -1.20478 2.25652 0
M  V30 4932 H 463.318 -2.63047 4.34475 0
M  V30 4933 H 463.248 -4.08678 3.321 0
M  V30 4934 H 465.739 -2.66147 2.6828 0
M  V30 4935 H 466.052 -4.98092 5.90867 0
M  V30 4936 H 464.397 -4.48479 5.30935 0
M  V30 4937 H 467.588 -3.23638 3.38195 0
M  V30 4938 H 467.761 -4.29424 4.85282 0
M  V30 4939 N 461.167 -1.02423 -1.1978 0
M  V30 4940 C 462.097 -0.62157 -2.25075 0
M  V30 4941 C 463.078 0.367148 -1.6609 0
M  V30 4942 O 464.263 0.250892 -1.92573 0
M  V30 4943 C 461.393 0.0331826 -3.47284 0
M  V30 4944 C 460.347 -0.877323 -4.18912 0
M  V30 4945 C 459.673 -0.0879296 -5.34628 0
M  V30 4946 C 460.973 -2.18892 -4.74219 0
M  V30 4947 H 462.667 -1.50179 -2.59011 0
M  V30 4948 H 460.213 -0.723547 -1.24502 0
M  V30 4949 H 462.166 0.326488 -4.20133 0
M  V30 4950 H 460.89 0.948164 -3.12534 0
M  V30 4951 H 459.549 -1.15475 -3.47938 0
M  V30 4952 H 459.197 0.828941 -4.96123 0
M  V30 4953 H 458.897 -0.694359 -5.83483 0
M  V30 4954 H 460.421 0.198743 -6.10276 0
M  V30 4955 H 461.835 -1.95746 -5.38847 0
M  V30 4956 H 460.232 -2.74686 -5.33542 0
M  V30 4957 H 461.302 -2.84674 -3.92541 0
M  V30 4958 N 462.645 1.35699 -0.801477 0
M  V30 4959 C 463.922 1.9324 -0.302937 0
M  V30 4960 C 464.302 1.73209 1.20672 0
M  V30 4961 O 463.65 1.09809 2.00385 0
M  V30 4962 C 463.86 3.41728 -0.708747 0
M  V30 4963 C 465.208 4.18868 -0.695328 0
M  V30 4964 O 466.232 3.5022 -0.649971 0
M  V30 4965 O 465.091 5.41342 -0.749081 0
M  V30 4966 H 462.185 0.82331 -0.0780367 0
M  V30 4967 H 464.731 1.44806 -0.884832 0
M  V30 4968 H 463.503 3.50015 -1.74944 0
M  V30 4969 H 463.126 3.97471 -0.101384 0
M  V30 4970 N 464.123 0.554532 1.47522 0
M  V30 4971 C 465.371 0.0294208 2.02079 0
M  V30 4972 C 465.692 -1.32411 1.43151 0
M  V30 4973 O 464.962 -1.863 0.605728 0
M  V30 4974 H 463.542 0.00788672 0.746958 0
M  V30 4975 H 466.204 0.723934 1.80956 0
M  V30 4976 H 465.3 -0.0606745 3.12041 0
M  V30 4977 N 465.601 -1.54893 0.290851 0
M  V30 4978 C 467.012 -1.85584 -0.203816 0
M  V30 4979 C 467.363 -1.21285 -1.54222 0
M  V30 4980 O 466.488 -0.506841 -2.10381 0
M  V30 4981 C 467.083 -3.367 -0.376595 0
M  V30 4982 C 465.642 -3.6746 -0.815485 0
M  V30 4983 C 464.789 -2.77178 0.0821087 0
M  V30 4984 H 467.74 -1.50208 0.512175 0
M  V30 4985 H 467.761 -3.60656 -1.21275 0
M  V30 4986 H 467.273 -3.8347 0.59767 0
M  V30 4987 H 465.374 -3.26201 -1.80066 0
M  V30 4988 H 465.487 -4.7478 -0.641905 0
M  V30 4989 H 463.851 -2.50925 -0.436895 0
M  V30 4990 H 464.634 -3.26767 1.05254 0
M  V30 4991 N 467.08 -0.0183926 -1.57589 0
M  V30 4992 C 468.328 0.661253 -1.90976 0
M  V30 4993 C 468.649 1.73281 -0.894353 0
M  V30 4994 O 467.919 1.9579 0.0656788 0
M  V30 4995 H 466.499 0.247233 -0.704901 0
M  V30 4996 H 469.161 -0.0636639 -1.94796 0
M  V30 4997 H 468.257 1.12083 -2.9128 0
M  V30 4998 N 468.558 1.5553 0.254621 0
M  V30 4999 C 469.807 1.76202 0.981612 0
M  V30 5000 C 470.12 0.580883 1.86776 0
M  V30 5001 O 471.326 0.670448 2.63092 0
M  V30 5002 C 469.782 3.11921 1.79537 0
M  V30 5003 C 469.39 4.37659 0.956991 0
M  V30 5004 C 471.134 3.41936 2.51555 0
M  V30 5005 C 469.041 5.64411 1.76619 0
M  V30 5006 H 467.971 0.656841 0.370237 0
M  V30 5007 H 470.622 1.81969 0.236556 0
M  V30 5008 H 469.004 3.00241 2.58208 0
M  V30 5009 H 470.178 4.60307 0.21315 0
M  V30 5010 H 468.493 4.14922 0.350497 0
M  V30 5011 H 471.09 4.33849 3.12536 0
M  V30 5012 H 471.433 2.62905 3.22779 0
M  V30 5013 H 471.966 3.54797 1.799 0
M  V30 5014 H 468.705 6.46241 1.09783 0
M  V30 5015 H 468.225 5.45877 2.48551 0
M  V30 5016 H 469.904 6.03386 2.33527 0
M  V30 5017 N 470.036 -0.519951 1.48776 0
M  V30 5018 C 471.282 -1.27456 1.58514 0
M  V30 5019 C 471.637 -1.90634 0.260057 0
M  V30 5020 O 470.93 -1.76815 -0.738036 0
M  V30 5021 C 471.124 -2.37864 2.6675 0
M  V30 5022 C 470.953 -1.85509 4.09654 0
M  V30 5023 C 469.723 -1.67661 4.76674 0
M  V30 5024 C 471.921 -1.37783 4.955 0
M  V30 5025 N 469.903 -1.10037 6.03958 0
M  V30 5026 C 471.274 -0.921714 6.1311 0
M  V30 5027 C 473.329 -1.26179 4.81646 0
M  V30 5028 C 472.032 -0.361057 7.18393 0
M  V30 5029 C 474.058 -0.715121 5.8706 0
M  V30 5030 C 473.42 -0.269132 7.03886 0
M  V30 5031 H 469.519 -0.457049 0.634531 0
M  V30 5032 H 472.103 -0.585073 1.85701 0
M  V30 5033 H 470.274 -3.04296 2.41367 0
M  V30 5034 H 472.006 -3.04901 2.66116 0
M  V30 5035 H 468.761 -1.91478 4.33166 0
M  V30 5036 H 469.185 -0.832067 6.71867 0
M  V30 5037 H 473.827 -1.59263 3.91657 0
M  V30 5038 H 471.545 -0.0179127 8.08098 0
M  V30 5039 H 475.131 -0.628376 5.78397 0
M  V30 5040 H 474.011 0.14729 7.84062 0
M  V30 5041 N 471.514 -1.37532 -0.769588 0
M  V30 5042 C 472.739 -1.36231 -1.56384 0
M  V30 5043 C 473.164 0.0495849 -1.88035 0
M  V30 5044 O 472.522 1.02723 -1.49391 0
M  V30 5045 C 472.57 -2.20986 -2.84952 0
M  V30 5046 O 471.674 -1.61597 -3.79421 0
M  V30 5047 H 471.015 -0.465387 -0.473615 0
M  V30 5048 H 473.545 -1.81085 -0.952342 0
M  V30 5049 H 473.555 -2.34277 -3.34034 0
M  V30 5050 H 472.23 -3.23612 -2.61243 0
M  V30 5051 H 470.807 -1.57359 -3.38072 0
M  V30 5052 N 472.992 0.995999 -1.22138 0
M  V30 5053 C 474.269 1.70834 -0.952642 0
M  V30 5054 C 474.649 2.04257 0.533119 0
M  V30 5055 O 473.997 1.72343 1.50034 0
M  V30 5056 C 474.207 2.96119 -1.84701 0
M  V30 5057 C 475.555 3.68962 -2.10124 0
M  V30 5058 O 476.579 3.0612 -1.82124 0
M  V30 5059 O 475.438 4.82017 -2.57531 0
M  V30 5060 H 472.532 0.745498 -0.357997 0
M  V30 5061 H 475.078 1.05262 -1.33109 0
M  V30 5062 H 473.85 2.67898 -2.85213 0
M  V30 5063 H 473.473 3.6943 -1.46995 0
M  V30 5064 N 474.47 1.03057 1.19235 0
M  V30 5065 C 475.716 0.738841 1.89506 0
M  V30 5066 C 476.071 -0.724807 1.78225 0
M  V30 5067 O 475.364 -1.52118 1.16494 0
M  V30 5068 C 475.558 1.1268 3.39172 0
M  V30 5069 C 475.387 2.62662 3.65019 0
M  V30 5070 C 474.157 3.29658 3.82954 0
M  V30 5071 C 476.355 3.60873 3.66436 0
M  V30 5072 N 474.337 4.68726 3.96446 0
M  V30 5073 C 475.708 4.85566 3.8552 0
M  V30 5074 C 477.763 3.54647 3.49471 0
M  V30 5075 C 476.466 6.04783 3.89397 0
M  V30 5076 C 478.492 4.73281 3.54625 0
M  V30 5077 C 477.854 5.96789 3.74196 0
M  V30 5078 H 473.953 0.322256 0.712513 0
M  V30 5079 H 476.537 1.31822 1.43287 0
M  V30 5080 H 474.708 0.575612 3.84111 0
M  V30 5081 H 476.44 0.787145 3.96971 0
M  V30 5082 H 473.195 2.8007 3.81913 0
M  V30 5083 H 473.619 5.40971 4.07037 0
M  V30 5084 H 478.261 2.60143 3.33295 0
M  V30 5085 H 475.979 6.99654 4.04364 0
M  V30 5086 H 479.565 4.70094 3.42787 0
M  V30 5087 H 478.445 6.87051 3.78061 0
M  V30 5088 N 475.948 -1.35272 0.808662 0
M  V30 5089 C 477.173 -2.03477 0.401475 0
M  V30 5090 C 477.598 -1.60537 -0.980279 0
M  V30 5091 O 476.956 -0.78304 -1.63518 0
M  V30 5092 C 477.004 -3.57181 0.495354 0
M  V30 5093 O 476.108 -4.09474 -0.490397 0
M  V30 5094 H 475.449 -0.642561 0.167366 0
M  V30 5095 H 477.979 -1.72824 1.09512 0
M  V30 5096 H 477.989 -4.06356 0.365912 0
M  V30 5097 H 476.664 -3.87784 1.5032 0
M  V30 5098 H 475.241 -3.71516 -0.321023 0
M  V30 5099 N 477.426 -0.562348 -1.47226 0
M  V30 5100 C 478.654 -0.0452275 -2.06851 0
M  V30 5101 C 479.069 1.25078 -1.41424 0
M  V30 5102 O 478.426 1.75156 -0.512513 0
M  V30 5103 C 478.477 0.148674 -3.61194 0
M  V30 5104 O 478.198 -1.09602 -4.24169 0
M  V30 5105 C 479.699 0.702488 -4.37699 0
M  V30 5106 H 476.919 -0.0481775 -0.669268 0
M  V30 5107 H 479.463 -0.777223 -1.89155 0
M  V30 5108 H 477.618 0.830817 -3.78386 0
M  V30 5109 H 478.032 -0.896982 -5.16773 0
M  V30 5110 H 479.506 0.78743 -5.46355 0
M  V30 5111 H 479.983 1.71493 -4.04335 0
M  V30 5112 H 480.589 0.0558772 -4.25263 0
M  V30 5113 N 478.904 1.54736 -0.299062 0
M  V30 5114 C 480.315 1.8569 0.193971 0
M  V30 5115 C 480.666 1.22101 1.53577 0
M  V30 5116 O 479.791 0.51799 2.10109 0
M  V30 5117 C 480.386 3.36895 0.358733 0
M  V30 5118 C 478.945 3.67887 0.795986 0
M  V30 5119 C 478.092 2.77131 -0.096807 0
M  V30 5120 H 481.043 1.49934 -0.520134 0
M  V30 5121 H 481.064 3.61294 1.19361 0
M  V30 5122 H 480.576 3.83148 -0.617998 0
M  V30 5123 H 478.677 3.27151 1.78334 0
M  V30 5124 H 478.79 4.75114 0.616718 0
M  V30 5125 H 477.154 2.51153 0.423581 0
M  V30 5126 H 477.937 3.26204 -1.06986 0
M  V30 5127 N 480.382 0.0267497 1.57577 0
M  V30 5128 C 481.798 -0.32962 1.56159 0
M  V30 5129 C 481.998 -1.73059 1.03213 0
M  V30 5130 O 481.054 -2.43233 0.677804 0
M  V30 5131 C 482.367 -0.18039 3.00158 0
M  V30 5132 C 483.915 -0.253334 3.11973 0
M  V30 5133 C 484.39 -0.132921 4.57807 0
M  V30 5134 N 485.881 -0.189979 4.6281 0
M  V30 5135 C 486.616 -0.120554 5.73273 0
M  V30 5136 N 486.112 -0.000180315 6.928 0
M  V30 5137 N 487.905 -0.174369 5.61829 0
M  V30 5138 H 480.056 0.942896 1.90324 0
M  V30 5139 H 482.319 0.3639 0.875375 0
M  V30 5140 H 482.025 0.784576 3.42837 0
M  V30 5141 H 481.899 -0.951565 3.65 0
M  V30 5142 H 484.286 -1.20876 2.69208 0
M  V30 5143 H 484.367 0.548177 2.49857 0
M  V30 5144 H 484.011 0.819073 5.01252 0
M  V30 5145 H 483.941 -0.953264 5.179 0
M  V30 5146 H 486.432 -0.283257 3.76837 0
M  V30 5147 H 486.745 0.0461666 7.72786 0
M  V30 5148 H 485.09 0.034569 6.94991 0
M  V30 5149 H 488.281 -0.266794 4.67339 0
M  V30 5150 H 488.454 -0.116802 6.47895 0
M  V30 5151 N 481.861 -1.55662 -0.24637 0
M  V30 5152 C 483.107 -1.77782 -0.975779 0
M  V30 5153 C 483.44 -0.592103 -1.84953 0
M  V30 5154 O 482.715 0.409588 -1.90138 0
M  V30 5155 C 482.998 -3.09788 -1.83584 0
M  V30 5156 C 482.851 -4.38764 -0.990241 0
M  V30 5157 C 484.17 -3.38029 -2.81823 0
M  V30 5158 H 481.289 -0.646789 -0.353317 0
M  V30 5159 H 483.931 -1.88398 -0.246248 0
M  V30 5160 H 482.081 -3.00869 -2.45784 0
M  V30 5161 H 483.753 -4.59675 -0.386897 0
M  V30 5162 H 481.996 -4.32798 -0.294626 0
M  V30 5163 H 482.667 -5.27514 -1.62584 0
M  V30 5164 H 485.143 -3.46915 -2.2976 0
M  V30 5165 H 484.019 -4.3161 -3.39122 0
M  V30 5166 H 484.28 -2.58968 -3.58313 0
M  V30 5167 N 483.339 0.512053 -1.4905 0
M  V30 5168 C 484.586 1.26686 -1.57978 0
M  V30 5169 C 484.914 1.92733 -0.261553 0
M  V30 5170 O 484.169 1.80772 0.749667 0
M  V30 5171 C 484.468 2.36446 -2.68008 0
M  V30 5172 C 484.134 1.87932 -4.09869 0
M  V30 5173 C 482.796 1.74419 -4.48477 0
M  V30 5174 C 485.148 1.5149 -4.98698 0
M  V30 5175 C 482.476 1.22827 -5.73699 0
M  V30 5176 C 484.828 1.01355 -6.24428 0
M  V30 5177 C 483.492 0.864735 -6.61875 0
M  V30 5178 H 482.762 0.463577 -0.578081 0
M  V30 5179 H 485.409 0.569421 -1.82838 0
M  V30 5180 H 483.714 3.11933 -2.37076 0
M  V30 5181 H 485.411 2.9453 -2.72127 0
M  V30 5182 H 482.001 1.99405 -3.79389 0
M  V30 5183 H 486.185 1.60782 -4.69535 0
M  V30 5184 H 481.441 1.10008 -6.01422 0
M  V30 5185 H 485.615 0.722351 -6.92644 0
M  V30 5186 H 483.242 0.462777 -7.5879 0
M  V30 5187 N 484.817 1.37938 0.762283 0
M  V30 5188 C 486.045 1.36883 1.55147 0
M  V30 5189 C 486.46 -0.0435348 1.8875 0
M  V30 5190 O 485.817 -1.00786 1.52146 0
M  V30 5191 C 485.868 2.21624 2.85596 0
M  V30 5192 O 485.589 3.57358 2.5343 0
M  V30 5193 C 487.09 2.28653 3.7978 0
M  V30 5194 H 484.31 0.468521 0.480343 0
M  V30 5195 H 486.854 1.81404 0.944079 0
M  V30 5196 H 485.009 1.80588 3.42734 0
M  V30 5197 H 485.423 4.01883 3.37032 0
M  V30 5198 H 486.897 2.9225 4.68288 0
M  V30 5199 H 487.374 1.29767 4.19592 0
M  V30 5200 H 487.98 2.70043 3.28568 0
M  V30 5201 N 486.295 -0.989507 1.22664 0
M  V30 5202 C 487.523 -1.76496 1.07967 0
M  V30 5203 C 487.938 -1.85148 -0.369543 0
M  V30 5204 O 487.295 -1.32408 -1.25596 0
M  V30 5205 C 487.346 -3.19642 1.68853 0
M  V30 5206 O 487.067 -3.11453 3.08105 0
M  V30 5207 C 488.568 -4.13621 1.59475 0
M  V30 5208 H 485.788 -0.55418 0.378319 0
M  V30 5209 H 488.332 -1.24378 1.62328 0
M  V30 5210 H 486.487 -3.68816 1.18547 0
M  V30 5211 H 486.901 -4.01499 3.37489 0
M  V30 5212 H 488.375 -5.11801 2.06795 0
M  V30 5213 H 488.852 -4.35718 0.55191 0
M  V30 5214 H 489.458 -3.70346 2.09103 0
M  V30 5215 N 487.773 -1.03688 -1.18687 0
M  V30 5216 C 488.705 -0.582696 -2.21669 0
M  V30 5217 C 489.718 0.345656 -1.59088 0
M  V30 5218 O 490.907 0.140776 -1.77944 0
M  V30 5219 C 488.007 0.169204 -3.38477 0
M  V30 5220 C 487.18 -0.766079 -4.30639 0
M  V30 5221 C 486.239 -0.0581541 -5.26168 0
M  V30 5222 O 485.265 -0.687346 -5.65035 0
M  V30 5223 N 486.467 1.20981 -5.67753 0
M  V30 5224 H 489.232 -1.46843 -2.61261 0
M  V30 5225 H 486.793 -0.916896 -1.33434 0
M  V30 5226 H 488.785 0.652543 -3.99405 0
M  V30 5227 H 487.355 0.956435 -2.97609 0
M  V30 5228 H 486.575 -1.42935 -3.67373 0
M  V30 5229 H 487.863 -1.40146 -4.89118 0
M  V30 5230 H 487.261 1.74159 -5.38224 0
M  V30 5231 H 485.818 1.6375 -6.30896 0
M  V30 5232 N 489.251 1.34841 -0.815825 0
M  V30 5233 C 490.528 1.92908 -0.323416 0
M  V30 5234 C 490.908 1.74479 1.18828 0
M  V30 5235 O 490.256 1.11928 1.99209 0
M  V30 5236 C 490.466 3.40957 -0.744952 0
M  V30 5237 C 491.814 4.18107 -0.739716 0
M  V30 5238 O 492.838 3.49511 -0.68708 0
M  V30 5239 O 491.697 5.40517 -0.806456 0
M  V30 5240 H 488.791 0.822436 -0.0867646 0
M  V30 5241 H 491.337 1.4386 -0.90014 0
M  V30 5242 H 490.109 3.4814 -1.78646 0
M  V30 5243 H 489.732 3.97341 -0.143535 0
M  V30 5244 N 490.729 0.570148 1.46925 0
M  V30 5245 C 491.975 0.0510284 2.02736 0
M  V30 5246 C 492.308 -1.3006 1.44215 0
M  V30 5247 O 491.583 -1.84932 0.602521 0
M  V30 5248 C 491.866 -0.028215 3.60089 0
M  V30 5249 C 491.719 1.35142 4.29018 0
M  V30 5250 C 493.038 -0.735181 4.33916 0
M  V30 5251 H 490.157 0.0200178 0.736728 0
M  V30 5252 H 492.799 0.73493 1.75211 0
M  V30 5253 H 490.949 -0.610648 3.83671 0
M  V30 5254 H 492.621 1.97806 4.16738 0
M  V30 5255 H 490.864 1.9226 3.88868 0
M  V30 5256 H 491.535 1.24857 5.37694 0
M  V30 5257 H 494.011 -0.240519 4.15404 0
M  V30 5258 H 492.887 -0.759622 5.43618 0
M  V30 5259 H 493.148 -1.79397 4.04066 0
M  V30 5260 N 492.207 -1.54576 0.307264 0
M  V30 5261 C 493.456 -1.99442 -0.300976 0
M  V30 5262 C 493.769 -1.19928 -1.5452 0
M  V30 5263 O 494.975 -1.55092 -2.22842 0
M  V30 5264 C 493.431 -3.55084 -0.586809 0
M  V30 5265 C 493.039 -4.43413 0.639438 0
M  V30 5266 C 494.783 -4.0846 -1.1559 0
M  V30 5267 C 492.69 -5.90499 0.326411 0
M  V30 5268 H 491.62 -0.744986 -0.116238 0
M  V30 5269 H 494.271 -1.787 0.416947 0
M  V30 5270 H 492.653 -3.71749 -1.36449 0
M  V30 5271 H 493.827 -4.38522 1.41545 0
M  V30 5272 H 492.142 -4.00842 1.1276 0
M  V30 5273 H 494.739 -5.15926 -1.40445 0
M  V30 5274 H 495.082 -3.59443 -2.10015 0
M  V30 5275 H 495.615 -3.95362 -0.439778 0
M  V30 5276 H 492.354 -6.43676 1.23939 0
M  V30 5277 H 491.874 -5.98382 -0.412212 0
M  V30 5278 H 493.553 -6.46962 -0.0697393 0
M  V30 5279 N 493.685 -0.035106 -1.57561 0
M  V30 5280 C 494.915 0.651312 -1.96065 0
M  V30 5281 C 495.323 1.6585 -0.910514 0
M  V30 5282 O 494.666 1.83336 0.11552 0
M  V30 5283 C 494.728 1.40897 -3.30739 0
M  V30 5284 C 494.392 0.559436 -4.53563 0
M  V30 5285 C 495.389 -0.16778 -5.19629 0
M  V30 5286 C 493.074 0.495079 -4.99854 0
M  V30 5287 C 495.068 -0.947963 -6.30311 0
M  V30 5288 C 492.755 -0.288804 -6.10417 0
M  V30 5289 C 493.753 -1.00903 -6.75505 0
M  V30 5290 O 493.441 -1.78005 -7.83945 0
M  V30 5291 H 493.173 0.184036 -0.650467 0
M  V30 5292 H 495.727 -0.0929677 -2.05189 0
M  V30 5293 H 493.957 2.19852 -3.18123 0
M  V30 5294 H 495.646 1.98407 -3.54104 0
M  V30 5295 H 496.412 -0.12743 -4.84833 0
M  V30 5296 H 492.291 1.04524 -4.48994 0
M  V30 5297 H 495.835 -1.51064 -6.81047 0
M  V30 5298 H 491.732 -0.33085 -6.44652 0
M  V30 5299 H 492.5 -1.70046 -8.00641 0
M  V30 5300 N 495.163 1.55791 0.238111 0
M  V30 5301 C 496.41 1.78033 0.964907 0
M  V30 5302 C 496.738 0.600984 1.84982 0
M  V30 5303 O 495.993 -0.41536 1.91241 0
M  V30 5304 C 496.292 3.05869 1.84875 0
M  V30 5305 C 495.958 4.36808 1.11846 0
M  V30 5306 C 494.62 4.72388 0.916662 0
M  V30 5307 C 496.972 5.17717 0.60151 0
M  V30 5308 C 494.3 5.86406 0.185756 0
M  V30 5309 C 496.652 6.32494 -0.115972 0
M  V30 5310 C 495.316 6.66688 -0.329168 0
M  V30 5311 H 494.586 0.651469 0.353085 0
M  V30 5312 H 497.233 1.90061 0.234318 0
M  V30 5313 H 495.538 2.88891 2.64668 0
M  V30 5314 H 497.235 3.20278 2.41294 0
M  V30 5315 H 493.825 4.08862 1.28569 0
M  V30 5316 H 498.009 4.90678 0.744932 0
M  V30 5317 H 493.265 6.11399 0.0101886 0
M  V30 5318 H 497.439 6.94425 -0.524127 0
M  V30 5319 H 495.066 7.54884 -0.897474 0
M  V30 5320 N 496.642 -0.504142 1.49319 0
M  V30 5321 C 498.053 -1.08572 1.51885 0
M  V30 5322 C 498.404 -1.93842 0.303255 0
M  V30 5323 O 497.529 -2.0828 -0.58724 0
M  V30 5324 C 498.124 -1.97574 2.75227 0
M  V30 5325 C 496.683 -2.509 2.80581 0
M  V30 5326 C 495.83 -1.28447 2.45757 0
M  V30 5327 H 498.781 -0.288194 1.56061 0
M  V30 5328 H 498.802 -2.82219 2.55211 0
M  V30 5329 H 498.314 -1.35486 3.63683 0
M  V30 5330 H 496.415 -3.16636 1.96398 0
M  V30 5331 H 496.528 -2.88268 3.82673 0
M  V30 5332 H 494.892 -1.60868 1.97468 0
M  V30 5333 H 495.675 -0.68072 3.36483 0
M  V30 5334 N 498.12 -1.38341 -0.754957 0
M  V30 5335 C 499.531 -1.30803 -1.3322 0
M  V30 5336 C 499.882 0.0368 -1.96165 0
M  V30 5337 O 499.007 0.938844 -1.94974 0
M  V30 5338 C 499.602 -2.3688 -2.42225 0
M  V30 5339 C 498.161 -2.32925 -2.95674 0
M  V30 5340 C 497.308 -2.19819 -1.69042 0
M  V30 5341 H 500.259 -1.48719 -0.553937 0
M  V30 5342 H 500.28 -2.02517 -3.22129 0
M  V30 5343 H 499.792 -3.34747 -1.96383 0
M  V30 5344 H 497.893 -1.38635 -3.45848 0
M  V30 5345 H 498.006 -3.27008 -3.50146 0
M  V30 5346 H 496.37 -1.66648 -1.92615 0
M  V30 5347 H 497.153 -3.19625 -1.25279 0
M  V30 5348 N 499.598 0.982988 -1.23187 0
M  V30 5349 C 500.545 2.07491 -1.01075 0
M  V30 5350 C 501.515 1.65949 0.070905 0
M  V30 5351 O 502.7 1.90629 -0.0806822 0
M  V30 5352 C 499.84 3.39751 -0.605261 0
M  V30 5353 C 498.953 3.94578 -1.75876 0
M  V30 5354 C 498.088 5.15039 -1.3003 0
M  V30 5355 C 497.127 5.62027 -2.42472 0
M  V30 5356 N 496.264 6.73719 -1.97602 0
M  V30 5357 H 501.104 2.25739 -1.9454 0
M  V30 5358 H 498.641 1.10659 -0.969179 0
M  V30 5359 H 500.599 4.15719 -0.351279 0
M  V30 5360 H 499.229 3.21473 0.292382 0
M  V30 5361 H 498.281 3.1539 -2.12681 0
M  V30 5362 H 499.593 4.25422 -2.60418 0
M  V30 5363 H 498.747 5.9833 -1.00429 0
M  V30 5364 H 497.486 4.85843 -0.425216 0
M  V30 5365 H 496.491 4.77318 -2.7285 0
M  V30 5366 H 497.716 5.93244 -3.30512 0
M  V30 5367 H 495.662 6.46287 -1.1247 0
M  V30 5368 H 495.579 7.03934 -2.75705 0
M  V30 5369 H 496.847 7.6049 -1.71098 0
M  V30 5370 N 501.076 1.04316 1.18135 0
M  V30 5371 C 502.325 0.74319 1.87509 0
M  V30 5372 C 502.638 -0.732136 1.81381 0
M  V30 5373 O 503.844 -1.14572 2.46141 0
M  V30 5374 C 502.3 1.27913 3.36402 0
M  V30 5375 C 501.908 2.78326 3.51053 0
M  V30 5376 C 503.652 1.0558 4.11161 0
M  V30 5377 C 501.559 3.25266 4.93919 0
M  V30 5378 H 500.489 0.274313 0.702331 0
M  V30 5379 H 503.14 1.25931 1.33467 0
M  V30 5380 H 501.522 0.690853 3.89927 0
M  V30 5381 H 502.696 3.42933 3.07788 0
M  V30 5382 H 501.011 2.991 2.89704 0
M  V30 5383 H 503.608 1.38161 5.16542 0
M  V30 5384 H 503.951 -0.00684729 4.16299 0
M  V30 5385 H 504.484 1.60882 3.63816 0
M  V30 5386 H 501.223 4.30922 4.9395 0
M  V30 5387 H 500.743 2.65396 5.3789 0
M  V30 5388 H 502.422 3.19433 5.62647 0
M  V30 5389 N 502.554 -1.34406 0.822964 0
M  V30 5390 C 503.484 -2.32052 0.259608 0
M  V30 5391 C 504.465 -1.58243 -0.623961 0
M  V30 5392 O 505.65 -1.86224 -0.55083 0
M  V30 5393 C 502.78 -3.42434 -0.579314 0
M  V30 5394 C 501.734 -4.27499 0.20712 0
M  V30 5395 C 501.06 -5.29349 -0.754547 0
M  V30 5396 C 502.36 -5.02758 1.41533 0
M  V30 5397 H 504.054 -2.79418 1.07545 0
M  V30 5398 H 501.6 -1.34338 0.518593 0
M  V30 5399 H 503.553 -4.0976 -0.983612 0
M  V30 5400 H 502.277 -2.93717 -1.4282 0
M  V30 5401 H 500.936 -3.61776 0.592787 0
M  V30 5402 H 500.584 -4.76895 -1.59939 0
M  V30 5403 H 500.284 -5.8714 -0.232561 0
M  V30 5404 H 501.808 -5.99544 -1.1567 0
M  V30 5405 H 503.222 -5.62938 1.08504 0
M  V30 5406 H 501.619 -5.70123 1.87296 0
M  V30 5407 H 502.689 -4.32451 2.1935 0
M  V30 5408 N 504.032 -0.577932 -1.46621 0
M  V30 5409 C 505.26 -0.0671642 -2.06791 0
M  V30 5410 C 505.675 1.23571 -1.42743 0
M  V30 5411 O 505.032 1.74602 -0.531062 0
M  V30 5412 C 505.083 0.110357 -3.61332 0
M  V30 5413 O 504.804 -1.14095 -4.22982 0
M  V30 5414 C 506.305 0.656025 -4.38419 0
M  V30 5415 H 503.525 -0.0552732 -0.66872 0
M  V30 5416 H 506.069 -0.797242 -1.8832 0
M  V30 5417 H 504.224 0.790637 -3.79246 0
M  V30 5418 H 504.638 -0.951742 -5.15793 0
M  V30 5419 H 506.112 0.729438 -5.47159 0
M  V30 5420 H 506.589 1.67195 -4.06131 0
M  V30 5421 H 507.195 0.0107692 -4.25299 0
M  V30 5422 N 505.51 1.54411 -0.315457 0
M  V30 5423 C 506.735 2.05299 0.294496 0
M  V30 5424 C 507.16 1.19052 1.4563 0
M  V30 5425 O 506.518 0.197804 1.80218 0
M  V30 5426 C 506.566 3.5345 0.714549 0
M  V30 5427 O 505.67 3.70175 1.81781 0
M  V30 5428 H 505.011 0.661743 0.0547019 0
M  V30 5429 H 507.541 1.99327 -0.461508 0
M  V30 5430 H 507.551 3.9557 0.999426 0
M  V30 5431 H 506.226 4.1568 -0.135244 0
M  V30 5432 H 504.803 3.3996 1.53236 0
M  V30 5433 N 506.988 0.0434614 1.5754 0
M  V30 5434 C 508.234 -0.632971 1.92669 0
M  V30 5435 C 508.567 -1.70947 0.921446 0
M  V30 5436 O 507.842 -1.94426 -0.0537202 0
M  V30 5437 C 508.125 -1.23619 3.38216 0
M  V30 5438 C 507.978 -0.168274 4.49485 0
M  V30 5439 C 509.297 -2.15008 3.84005 0
M  V30 5440 H 506.416 -0.228629 0.700641 0
M  V30 5441 H 509.058 0.103651 1.89717 0
M  V30 5442 H 507.208 -1.864 3.40863 0
M  V30 5443 H 508.88 0.463196 4.58969 0
M  V30 5444 H 507.123 0.504581 4.30855 0
M  V30 5445 H 507.794 -0.630218 5.48391 0
M  V30 5446 H 510.27 -1.62198 3.83185 0
M  V30 5447 H 509.146 -2.54161 4.86511 0
M  V30 5448 H 509.407 -3.04707 3.20322 0
M  V30 5449 N 508.466 -1.55915 -0.229846 0
M  V30 5450 C 509.714 -1.7819 -0.953565 0
M  V30 5451 C 510.035 -0.610504 -1.85197 0
M  V30 5452 O 509.305 0.372988 -1.92316 0
M  V30 5453 H 507.885 -0.657208 -0.355087 0
M  V30 5454 H 510.547 -1.9337 -0.243693 0
M  V30 5455 H 509.643 -2.70011 -1.56527 0
M  V30 5456 N 509.944 0.496216 -1.49584 0
M  V30 5457 C 511.169 1.27865 -1.63295 0
M  V30 5458 C 511.594 1.85592 -0.306156 0
M  V30 5459 O 510.952 1.66092 0.726851 0
M  V30 5460 C 511 2.38128 -2.7079 0
M  V30 5461 O 510.104 3.42108 -2.30296 0
M  V30 5462 H 509.445 0.377279 -0.546403 0
M  V30 5463 H 511.975 0.593497 -1.95803 0
M  V30 5464 H 511.985 2.8382 -2.93104 0
M  V30 5465 H 510.66 1.95479 -3.67098 0
M  V30 5466 H 509.237 3.02301 -2.18331 0
M  V30 5467 N 511.423 1.38739 0.74761 0
M  V30 5468 C 512.371 1.36573 1.88283 0
M  V30 5469 C 513.365 0.250712 1.67534 0
M  V30 5470 O 514.571 0.420073 1.7503 0
M  V30 5471 H 510.946 0.42619 0.619569 0
M  V30 5472 H 512.917 2.32356 1.87226 0
M  V30 5473 C 511.666 1.21361 3.25832 0
M  V30 5474 H 510.989 2.06424 3.42388 0
M  V30 5475 H 512.429 1.23901 4.05493 0
M  V30 5476 C 510.888 -0.0790099 3.36807 0
M  V30 5477 O 511.418 -1.05385 3.8763 0
M  V30 5478 N 509.624 -0.13785 2.90273 0
M  V30 5479 H 509.171 0.656128 2.49104 0
M  V30 5480 H 509.129 -1.00228 2.97996 0
M  V30 5481 N 512.901 -0.976442 1.23707 0
M  V30 5482 C 514.147 -1.72081 1.07312 0
M  V30 5483 C 514.48 -1.90275 -0.388476 0
M  V30 5484 O 513.755 -1.4579 -1.28746 0
M  V30 5485 C 514.038 -3.11675 1.80363 0
M  V30 5486 C 513.891 -3.01027 3.3422 0
M  V30 5487 C 515.21 -4.1117 1.5693 0
M  V30 5488 H 512.329 -0.624583 0.391236 0
M  V30 5489 H 514.971 -1.13649 1.52263 0
M  V30 5490 H 513.121 -3.61559 1.42153 0
M  V30 5491 H 514.793 -2.58637 3.81975 0
M  V30 5492 H 513.036 -2.3744 3.63049 0
M  V30 5493 H 513.707 -3.9988 3.80525 0
M  V30 5494 H 516.183 -3.7011 1.90151 0
M  V30 5495 H 515.059 -5.06928 2.10513 0
M  V30 5496 H 515.32 -4.392 0.505548 0
M  V30 5497 N 514.379 -1.04941 -1.1758 0
M  V30 5498 C 515.604 -0.778253 -1.92245 0
M  V30 5499 C 516.029 0.659707 -1.76152 0
M  V30 5500 O 515.387 1.45803 -1.07755 0
M  V30 5501 C 515.435 -1.16051 -3.41416 0
M  V30 5502 O 514.539 -0.291153 -4.11371 0
M  V30 5503 H 513.88 -0.285619 -0.599431 0
M  V30 5504 H 516.41 -1.40159 -1.49052 0
M  V30 5505 H 516.42 -1.12619 -3.92149 0
M  V30 5506 H 515.095 -2.208 -3.52449 0
M  V30 5507 H 513.672 -0.385851 -3.70898 0
M  V30 5508 N 515.857 1.33968 -0.830081 0
M  V30 5509 C 517.104 1.98063 -0.421566 0
M  V30 5510 C 517.432 1.65787 1.0171 0
M  V30 5511 O 516.687 0.925348 1.72441 0
M  V30 5512 C 516.986 3.52679 -0.57898 0
M  V30 5513 C 516.652 4.04884 -1.98443 0
M  V30 5514 C 515.314 4.18852 -2.36888 0
M  V30 5515 C 517.666 4.32879 -2.90285 0
M  V30 5516 C 514.994 4.58145 -3.66497 0
M  V30 5517 C 517.346 4.7362 -4.19364 0
M  V30 5518 C 516.01 4.85794 -4.57778 0
M  V30 5519 H 515.28 0.724765 -0.154262 0
M  V30 5520 H 517.927 1.59792 -1.05541 0
M  V30 5521 H 516.232 3.91556 0.138219 0
M  V30 5522 H 517.929 4.00261 -0.243317 0
M  V30 5523 H 514.519 3.9448 -1.67581 0
M  V30 5524 H 518.703 4.21619 -2.61823 0
M  V30 5525 H 513.959 4.65762 -3.96075 0
M  V30 5526 H 518.133 4.9424 -4.90612 0
M  V30 5527 H 515.76 5.15998 -5.58256 0
M  V30 5528 N 517.335 0.585699 1.46312 0
M  V30 5529 C 518.285 -0.166813 2.27389 0
M  V30 5530 C 519.269 -0.859076 1.36047 0
M  V30 5531 O 520.461 -0.752678 1.60199 0
M  V30 5532 C 517.59 -1.17791 3.2246 0
M  V30 5533 C 516.676 -0.487605 4.21288 0
M  V30 5534 N 517.067 0.45849 5.03718 0
M  V30 5535 C 515.365 -0.737971 4.39852 0
M  V30 5536 C 516.066 0.862213 5.75275 0
M  V30 5537 N 515.042 0.210707 5.43191 0
M  V30 5538 H 518.844 0.560167 2.88512 0
M  V30 5539 H 516.358 0.407715 1.57199 0
M  V30 5540 H 518.355 -1.73122 3.79255 0
M  V30 5541 H 517.015 -1.90568 2.62896 0
M  V30 5542 H 518.026 0.834163 5.11138 0
M  V30 5543 H 514.703 -1.45209 3.91434 0
M  V30 5544 H 516.093 1.64128 6.51546 0
M  V30 5545 N 518.813 -1.54241 0.323641 0
M  V30 5546 C 520.053 -2.0248 -0.279502 0
M  V30 5547 C 520.417 -1.20672 -1.49339 0
M  V30 5548 O 521.618 -1.58715 -2.1694 0
M  V30 5549 C 519.889 -3.52238 -0.605266 0
M  V30 5550 S 521.448 -4.22411 -1.18805 0
M  V30 5551 H 518.266 -0.705957 -0.0845313 0
M  V30 5552 H 520.868 -1.90089 0.456781 0
M  V30 5553 H 519.572 -4.094 0.286339 0
M  V30 5554 H 519.103 -3.6871 -1.37174 0
M  V30 5555 H 521.118 -4.30075 -2.47487 0
M  V30 5556 N 520.291 -0.0518155 -1.57515 0
M  V30 5557 C 521.54 0.621286 -1.91893 0
M  V30 5558 C 521.853 1.71966 -0.932052 0
M  V30 5559 O 523.059 2.45096 -1.16791 0
M  V30 5560 C 521.515 1.15641 -3.40816 0
M  V30 5561 C 521.123 0.0901146 -4.47909 0
M  V30 5562 C 522.867 1.80472 -3.84227 0
M  V30 5563 C 520.774 0.638154 -5.87947 0
M  V30 5564 H 519.704 0.235835 -0.716169 0
M  V30 5565 H 522.355 -0.120809 -1.83102 0
M  V30 5566 H 520.737 1.95084 -3.44613 0
M  V30 5567 H 521.911 -0.683525 -4.55702 0
M  V30 5568 H 520.226 -0.460774 -4.13843 0
M  V30 5569 H 522.823 2.22471 -4.86221 0
M  V30 5570 H 523.166 2.65669 -3.20508 0
M  V30 5571 H 523.699 1.07683 -3.82948 0
M  V30 5572 H 520.438 -0.176202 -6.55263 0
M  V30 5573 H 519.958 1.37976 -5.83714 0
M  V30 5574 H 521.637 1.12085 -6.37217 0
M  V30 5575 N 521.769 1.56035 0.221574 0
M  V30 5576 C 522.999 1.82864 0.961468 0
M  V30 5577 C 523.407 0.628703 1.78449 0
M  V30 5578 O 522.75 -0.412109 1.79018 0
M  V30 5579 C 522.812 3.03425 1.92804 0
M  V30 5580 C 522.476 4.38429 1.28954 0
M  V30 5581 C 523.473 5.15441 0.679431 0
M  V30 5582 C 521.158 4.85151 1.30131 0
M  V30 5583 C 523.152 6.37337 0.0896148 0
M  V30 5584 C 520.839 6.06989 0.707651 0
M  V30 5585 C 521.837 6.82923 0.102855 0
M  V30 5586 O 521.525 8.02456 -0.48157 0
M  V30 5587 H 521.257 0.611883 0.28736 0
M  V30 5588 H 523.811 2.0397 0.241932 0
M  V30 5589 H 522.041 2.78138 2.68656 0
M  V30 5590 H 523.73 3.17127 2.53348 0
M  V30 5591 H 524.496 4.80452 0.662661 0
M  V30 5592 H 520.375 4.26021 1.76145 0
M  V30 5593 H 523.919 6.96547 -0.383069 0
M  V30 5594 H 519.816 6.41451 0.721834 0
M  V30 5595 H 520.584 8.17636 -0.375887 0
M  V30 5596 N 523.247 -0.488276 1.49845 0
M  V30 5597 C 524.194 -1.58836 1.67451 0
M  V30 5598 C 525.164 -1.57886 0.515857 0
M  V30 5599 O 526.349 -1.75679 0.744403 0
M  V30 5600 C 523.489 -2.96915 1.75885 0
M  V30 5601 C 522.602 -3.07784 3.03138 0
M  V30 5602 C 521.737 -4.36673 3.02473 0
M  V30 5603 C 520.776 -4.41222 4.24252 0
M  V30 5604 N 519.913 -5.61557 4.21424 0
M  V30 5605 H 524.753 -1.43131 2.61376 0
M  V30 5606 H 522.29 -0.696186 1.29583 0
M  V30 5607 H 524.248 -3.76965 1.78755 0
M  V30 5608 H 522.878 -3.11295 0.85414 0
M  V30 5609 H 521.93 -2.20717 3.09819 0
M  V30 5610 H 523.242 -3.07005 3.93128 0
M  V30 5611 H 522.396 -5.25055 3.03977 0
M  V30 5612 H 521.135 -4.40037 2.10283 0
M  V30 5613 H 520.14 -3.5124 4.22978 0
M  V30 5614 H 521.365 -4.39564 5.17649 0
M  V30 5615 H 519.311 -5.65738 3.32078 0
M  V30 5616 H 519.228 -5.62447 5.05163 0
M  V30 5617 H 520.496 -6.52111 4.2705 0
M  V30 5618 N 524.725 -1.39134 -0.740242 0
M  V30 5619 C 525.672 -1.37434 -1.8542 0
M  V30 5620 C 526.642 -0.234822 -1.64432 0
M  V30 5621 O 527.827 -0.429125 -1.85912 0
M  V30 5622 C 524.967 -1.21844 -3.22875 0
M  V30 5623 C 524.08 -2.45296 -3.55603 0
M  V30 5624 C 523.215 -2.22334 -4.82432 0
M  V30 5625 C 522.254 -3.41488 -5.07988 0
M  V30 5626 N 521.391 -3.17877 -6.26018 0
M  V30 5627 H 526.231 -2.3266 -1.86207 0
M  V30 5628 H 523.768 -1.15578 -0.909946 0
M  V30 5629 H 525.726 -1.10818 -4.02213 0
M  V30 5630 H 524.356 -0.3025 -3.21379 0
M  V30 5631 H 523.408 -2.66945 -2.71006 0
M  V30 5632 H 524.72 -3.34063 -3.7041 0
M  V30 5633 H 523.874 -2.0852 -5.69741 0
M  V30 5634 H 522.613 -1.30954 -4.6979 0
M  V30 5635 H 521.618 -3.55807 -4.19144 0
M  V30 5636 H 522.843 -4.33763 -5.22519 0
M  V30 5637 H 520.789 -2.29156 -6.14673 0
M  V30 5638 H 520.706 -4.00198 -6.41387 0
M  V30 5639 H 521.974 -3.07746 -7.16179 0
M  V30 5640 N 526.204 0.969867 -1.24223 0
M  V30 5641 C 527.114 2.09806 -1.0497 0
M  V30 5642 C 528.13 1.73998 0.00886455 0
M  V30 5643 O 529.306 2.00513 -0.188848 0
M  V30 5644 C 526.371 3.40467 -0.654452 0
M  V30 5645 C 525.432 3.90236 -1.78926 0
M  V30 5646 C 524.665 5.14662 -1.41277 0
M  V30 5647 O 524.888 5.69602 -0.301632 0
M  V30 5648 O 523.822 5.58761 -2.23763 0
M  V30 5649 H 527.648 2.28942 -1.99548 0
M  V30 5650 H 525.233 1.08197 -1.03023 0
M  V30 5651 H 527.115 4.19039 -0.445452 0
M  V30 5652 H 525.79 3.22636 0.262216 0
M  V30 5653 H 524.697 3.12735 -2.05299 0
M  V30 5654 H 526.03 4.1254 -2.68462 0
M  V30 5655 N 527.682 1.05563 1.17022 0
M  V30 5656 C 528.63 0.653887 2.2322 0
M  V30 5657 C 529.624 -0.326642 1.66221 0
M  V30 5658 O 530.83 -0.192301 1.7897 0
M  V30 5659 H 527.205 0.193297 0.726733 0
M  V30 5660 H 529.176 1.5596 2.54399 0
M  V30 5661 C 527.925 0.0485434 3.47666 0
M  V30 5662 H 527.248 0.79413 3.91834 0
M  V30 5663 H 528.688 -0.195133 4.23551 0
M  V30 5664 C 527.147 -1.20583 3.14581 0
M  V30 5665 O 527.677 -2.29475 3.29703 0
M  V30 5666 N 525.883 -1.10493 2.68774 0
M  V30 5667 H 525.43 -0.218795 2.56669 0
M  V30 5668 H 525.388 -1.94507 2.47011 0
M  V30 5669 N 529.16 -1.33526 0.837174 0
M  V30 5670 C 530.107 -2.29248 0.267169 0
M  V30 5671 C 531.077 -1.54252 -0.616071 0
M  V30 5672 O 532.262 -1.82559 -0.554699 0
M  V30 5673 C 529.402 -3.40638 -0.553152 0
M  V30 5674 C 528.515 -4.30548 0.353921 0
M  V30 5675 C 527.65 -5.29051 -0.477339 0
M  V30 5676 C 526.689 -6.106 0.42823 0
M  V30 5677 N 525.826 -7.01152 -0.364801 0
M  V30 5678 H 530.666 -2.77398 1.08877 0
M  V30 5679 H 528.203 -1.36496 0.54838 0
M  V30 5680 H 530.161 -4.03921 -1.04422 0
M  V30 5681 H 528.791 -2.93685 -1.33973 0
M  V30 5682 H 527.843 -3.68001 0.963289 0
M  V30 5683 H 529.155 -4.87631 1.04964 0
M  V30 5684 H 528.309 -5.97853 -1.0323 0
M  V30 5685 H 527.048 -4.72541 -1.2065 0
M  V30 5686 H 526.053 -5.40718 0.995219 0
M  V30 5687 H 527.278 -6.69193 1.15573 0
M  V30 5688 H 525.224 -6.47092 -1.07738 0
M  V30 5689 H 525.141 -7.5551 0.272238 0
M  V30 5690 H 526.409 -7.74263 -0.902054 0
M  V30 5691 N 530.638 -0.59345 -1.46 0
M  V30 5692 C 531.887 -0.0808084 -2.01538 0
M  V30 5693 C 532.2 1.29112 -1.46934 0
M  V30 5694 O 533.406 1.8957 -1.94359 0
M  V30 5695 C 531.862 -0.0938311 -3.59778 0
M  V30 5696 C 531.47 -1.46474 -4.23379 0
M  V30 5697 C 533.214 0.364306 -4.22934 0
M  V30 5698 C 531.121 -1.4349 -5.73729 0
M  V30 5699 H 530.051 -0.0264407 -0.753536 0
M  V30 5700 H 532.702 -0.746689 -1.67621 0
M  V30 5701 H 531.084 0.638427 -3.9082 0
M  V30 5702 H 532.258 -2.21758 -4.03931 0
M  V30 5703 H 530.573 -1.86379 -3.7236 0
M  V30 5704 H 533.17 0.405584 -5.3316 0
M  V30 5705 H 533.513 1.38409 -3.92618 0
M  V30 5706 H 534.046 -0.31423 -3.96557 0
M  V30 5707 H 530.785 -2.43184 -6.08722 0
M  V30 5708 H 530.305 -0.724431 -5.95409 0
M  V30 5709 H 531.984 -1.15243 -6.36654 0
M  V30 5710 N 532.116 1.54067 -0.331816 0
M  V30 5711 C 533.362 2.01012 0.268667 0
M  V30 5712 C 533.695 1.2195 1.51136 0
M  V30 5713 O 532.97 0.303972 1.9211 0
M  V30 5714 C 533.253 3.55158 0.59456 0
M  V30 5715 C 533.106 4.4494 -0.659409 0
M  V30 5716 C 534.425 4.16939 1.4089 0
M  V30 5717 H 531.544 0.730698 0.0961756 0
M  V30 5718 H 534.186 1.84593 -0.450031 0
M  V30 5719 H 532.336 3.6928 1.20685 0
M  V30 5720 H 534.008 4.42675 -1.29756 0
M  V30 5721 H 532.251 4.1428 -1.28665 0
M  V30 5722 H 532.922 5.50643 -0.386804 0
M  V30 5723 H 535.398 4.06443 0.891272 0
M  V30 5724 H 534.274 5.24889 1.60569 0
M  V30 5725 H 534.535 3.70798 2.40752 0
M  V30 5726 N 533.594 0.0601682 1.57485 0
M  V30 5727 C 535.005 -0.474217 1.80577 0
M  V30 5728 C 535.356 -1.70365 0.973147 0
M  V30 5729 O 534.481 -2.15544 0.192306 0
M  V30 5730 C 535.076 -0.867102 3.27516 0
M  V30 5731 C 533.635 -1.34642 3.51495 0
M  V30 5732 C 532.782 -0.32594 2.75378 0
M  V30 5733 H 535.733 0.285973 1.56102 0
M  V30 5734 H 535.754 -1.72938 3.38929 0
M  V30 5735 H 535.266 0.0278927 3.8809 0
M  V30 5736 H 533.367 -2.2603 2.96212 0
M  V30 5737 H 533.48 -1.33237 4.60201 0
M  V30 5738 H 531.844 -0.800749 2.41785 0
M  V30 5739 H 532.627 0.561125 3.38683 0
M  V30 5740 N 535.072 -1.5615 -0.213296 0
M  V30 5741 C 536.297 -1.83986 -0.957282 0
M  V30 5742 C 536.722 -0.641526 -1.76822 0
M  V30 5743 O 536.08 0.409722 -1.7661 0
M  V30 5744 C 536.128 -3.09889 -1.84393 0
M  V30 5745 O 535.232 -2.89163 -2.94038 0
M  V30 5746 H 534.573 -0.606357 -0.270605 0
M  V30 5747 H 537.103 -2.03369 -0.224111 0
M  V30 5748 H 537.113 -3.40209 -2.25215 0
M  V30 5749 H 535.788 -3.96735 -1.24795 0
M  V30 5750 H 534.365 -2.70097 -2.57103 0
M  V30 5751 N 536.55 0.480323 -1.50102 0
M  V30 5752 C 537.497 1.57946 -1.6829 0
M  V30 5753 C 538.467 1.57611 -0.524223 0
M  V30 5754 O 539.652 1.75282 -0.753709 0
M  V30 5755 C 536.792 2.95978 -1.77457 0
M  V30 5756 C 535.905 3.06173 -3.04766 0
M  V30 5757 C 535.04 4.35063 -3.04784 0
M  V30 5758 C 534.079 4.38966 -4.26586 0
M  V30 5759 N 533.216 5.59314 -4.24396 0
M  V30 5760 H 538.056 1.41743 -2.62131 0
M  V30 5761 H 535.593 0.689304 -1.2995 0
M  V30 5762 H 537.551 3.76011 -1.80752 0
M  V30 5763 H 536.181 3.10837 -0.870637 0
M  V30 5764 H 535.233 2.19071 -3.10986 0
M  V30 5765 H 536.545 3.04916 -3.9475 0
M  V30 5766 H 535.699 5.23436 -3.06757 0
M  V30 5767 H 534.438 4.38915 -2.12614 0
M  V30 5768 H 533.443 3.48992 -4.24835 0
M  V30 5769 H 534.668 4.36813 -5.19972 0
M  V30 5770 H 532.614 5.63969 -3.35074 0
M  V30 5771 H 532.531 5.5976 -5.08138 0
M  V30 5772 H 533.799 6.49837 -4.30502 0
M  V30 5773 N 538.028 1.39524 0.732853 0
M  V30 5774 C 538.938 1.40695 1.87729 0
M  V30 5775 C 539.954 0.301496 1.71368 0
M  V30 5776 O 541.13 0.543313 1.93933 0
M  V30 5777 C 538.195 1.25098 3.23344 0
M  V30 5778 C 537.256 2.45634 3.52083 0
M  V30 5779 C 536.489 2.30772 4.81228 0
M  V30 5780 O 536.712 1.31233 5.55098 0
M  V30 5781 O 535.646 3.19799 5.09914 0
M  V30 5782 H 539.472 2.37168 1.89697 0
M  V30 5783 H 537.057 1.20663 0.880959 0
M  V30 5784 H 538.939 1.18541 4.04383 0
M  V30 5785 H 537.614 0.317209 3.22142 0
M  V30 5786 H 536.521 2.57767 2.71122 0
M  V30 5787 H 537.854 3.37712 3.58066 0
M  V30 5788 N 539.506 -0.963266 1.24736 0
M  V30 5789 C 540.755 -1.70115 1.08369 0
M  V30 5790 C 541.068 -1.91939 -0.376688 0
M  V30 5791 O 542.274 -2.6334 -0.660624 0
M  V30 5792 C 540.73 -3.06218 1.89099 0
M  V30 5793 C 540.338 -2.92221 3.39574 0
M  V30 5794 C 542.082 -3.83848 1.81275 0
M  V30 5795 C 539.989 -4.23662 4.12631 0
M  V30 5796 H 538.919 -0.637944 0.401924 0
M  V30 5797 H 541.57 -1.07304 1.48856 0
M  V30 5798 H 539.952 -3.69884 1.41429 0
M  V30 5799 H 541.126 -2.37541 3.94856 0
M  V30 5800 H 539.441 -2.28054 3.48397 0
M  V30 5801 H 542.038 -4.81188 2.33158 0
M  V30 5802 H 542.381 -4.08949 0.778895 0
M  V30 5803 H 542.914 -3.26918 2.26649 0
M  V30 5804 H 539.653 -4.03753 5.16395 0
M  V30 5805 H 539.173 -4.78141 3.62135 0
M  V30 5806 H 540.852 -4.92256 4.19873 0
M  V30 5807 N 540.985 -1.06182 -1.16461 0
M  V30 5808 C 542.231 -0.779015 -1.87241 0
M  V30 5809 C 542.564 0.692715 -1.81425 0
M  V30 5810 O 541.839 1.5074 -1.22913 0
M  V30 5811 C 542.122 -1.2728 -3.36856 0
M  V30 5812 C 541.975 -2.80821 -3.51368 0
M  V30 5813 C 543.294 -0.879799 -4.31216 0
M  V30 5814 H 540.413 -0.284464 -0.679889 0
M  V30 5815 H 543.055 -1.31755 -1.36896 0
M  V30 5816 H 541.205 -0.814673 -3.79862 0
M  V30 5817 H 542.877 -3.34833 -3.17308 0
M  V30 5818 H 541.12 -3.19606 -2.93316 0
M  V30 5819 H 541.791 -3.10435 -4.56436 0
M  V30 5820 H 544.267 -1.27436 -3.96105 0
M  V30 5821 H 543.143 -1.25278 -5.34412 0
M  V30 5822 H 543.404 0.215372 -4.41575 0
M  V30 5823 N 542.463 1.3308 -0.844243 0
M  V30 5824 C 543.709 1.98304 -0.452453 0
M  V30 5825 C 544.064 1.65645 0.978746 0
M  V30 5826 O 543.357 0.928849 1.6758 0
M  V30 5827 C 543.551 3.52045 -0.616354 0
M  V30 5828 C 543.38 3.99643 -2.06193 0
M  V30 5829 C 542.15 4.27224 -2.69829 0
M  V30 5830 C 544.348 4.15471 -3.03131 0
M  V30 5831 N 542.33 4.60998 -4.05406 0
M  V30 5832 C 543.701 4.52665 -4.23668 0
M  V30 5833 C 545.756 3.97776 -2.99465 0
M  V30 5834 C 544.459 4.74011 -5.41023 0
M  V30 5835 C 546.485 4.20301 -4.16055 0
M  V30 5836 C 545.847 4.57801 -5.35348 0
M  V30 5837 H 541.946 0.752122 -0.214096 0
M  V30 5838 H 544.53 1.61096 -1.09344 0
M  V30 5839 H 542.701 3.884 -0.00513205 0
M  V30 5840 H 544.433 4.04228 -0.19548 0
M  V30 5841 H 541.188 4.18911 -2.20931 0
M  V30 5842 H 541.612 4.82087 -4.75312 0
M  V30 5843 H 546.254 3.67893 -2.08362 0
M  V30 5844 H 543.972 5.02753 -6.32665 0
M  V30 5845 H 547.558 4.08122 -4.14641 0
M  V30 5846 H 546.438 4.74884 -6.24063 0
M  V30 5847 N 543.941 0.601185 1.45683 0
M  V30 5848 C 545.187 0.102425 2.03142 0
M  V30 5849 C 545.542 -1.25066 1.46207 0
M  V30 5850 O 544.835 -1.81126 0.624806 0
M  V30 5851 C 545.029 -0.00222425 3.574 0
M  V30 5852 C 544.858 1.33917 4.29298 0
M  V30 5853 C 543.628 1.91818 4.67476 0
M  V30 5854 C 545.826 2.26652 4.61664 0
M  V30 5855 N 543.808 3.19504 5.24204 0
M  V30 5856 C 545.179 3.38933 5.19157 0
M  V30 5857 C 547.234 2.26103 4.43601 0
M  V30 5858 C 545.937 4.50823 5.60492 0
M  V30 5859 C 547.963 3.37036 4.85964 0
M  V30 5860 C 547.325 4.48039 5.43545 0
M  V30 5861 H 543.424 0.0806974 0.777825 0
M  V30 5862 H 546.008 0.798134 1.77589 0
M  V30 5863 H 544.179 -0.66714 3.82627 0
M  V30 5864 H 545.911 -0.507058 4.01511 0
M  V30 5865 H 542.666 1.45097 4.50826 0
M  V30 5866 H 543.09 3.84705 5.57073 0
M  V30 5867 H 547.732 1.41547 3.98402 0
M  V30 5868 H 545.45 5.36108 6.0466 0
M  V30 5869 H 549.036 3.37752 4.73725 0
M  V30 5870 H 547.916 5.32459 5.75723 0
M  V30 5871 N 545.419 -1.53889 0.339982 0
M  V30 5872 C 546.352 -2.21187 -0.561405 0
M  V30 5873 C 547.33 -1.19463 -1.10306 0
M  V30 5874 O 548.514 -1.48268 -1.164 0
M  V30 5875 C 545.641 -2.8865 -1.77198 0
M  V30 5876 C 544.687 -4.04232 -1.3601 0
M  V30 5877 S 545.52 -5.34129 -0.382909 0
M  V30 5878 C 546.676 -6.05094 -1.60039 0
M  V30 5879 H 546.909 -2.97298 0.0102092 0
M  V30 5880 H 544.442 -1.53901 0.124056 0
M  V30 5881 H 546.4 -3.28138 -2.4665 0
M  V30 5882 H 545.061 -2.12311 -2.3148 0
M  V30 5883 H 544.254 -4.50358 -2.2626 0
M  V30 5884 H 543.856 -3.66503 -0.745098 0
M  V30 5885 H 546.148 -6.2827 -2.53541 0
M  V30 5886 H 547.091 -6.98182 -1.18099 0
M  V30 5887 H 547.499 -5.35207 -1.79483 0
M  V30 5888 N 546.897 -0.0685191 -1.57451 0
M  V30 5889 C 547.845 0.917577 -2.13736 0
M  V30 5890 C 548.839 1.31049 -1.07344 0
M  V30 5891 O 550.045 1.28811 -1.25728 0
M  V30 5892 H 546.42 0.313835 -0.683382 0
M  V30 5893 H 548.391 0.417903 -2.95459 0
M  V30 5894 C 547.14 2.17686 -2.71123 0
M  V30 5895 H 546.463 1.88336 -3.52661 0
M  V30 5896 H 547.903 2.84803 -3.14107 0
M  V30 5897 C 546.362 2.9332 -1.65726 0
M  V30 5898 O 546.892 3.86901 -1.08031 0
M  V30 5899 N 545.098 2.56367 -1.36837 0
M  V30 5900 H 544.645 1.80341 -1.83943 0
M  V30 5901 H 544.603 3.07276 -0.665501 0
M  V30 5902 N 548.375 1.56261 0.205012 0
M  V30 5903 C 549.305 1.96779 1.257 0
M  V30 5904 C 550.286 0.838309 1.48008 0
M  V30 5905 O 551.471 1.10189 1.59913 0
M  V30 5906 C 548.601 2.29876 2.60335 0
M  V30 5907 C 547.555 3.45469 2.52656 0
M  V30 5908 C 546.881 3.64215 3.91473 0
M  V30 5909 C 548.181 4.79954 2.06014 0
M  V30 5910 H 549.875 2.84904 0.920338 0
M  V30 5911 H 547.421 1.37072 0.441277 0
M  V30 5912 H 549.374 2.56814 3.34102 0
M  V30 5913 H 548.098 1.38622 2.95722 0
M  V30 5914 H 546.757 3.18605 1.81345 0
M  V30 5915 H 546.405 2.70309 4.24196 0
M  V30 5916 H 546.105 4.41973 3.87213 0
M  V30 5917 H 547.629 3.93519 4.66878 0
M  V30 5918 H 549.043 5.05989 2.69533 0
M  V30 5919 H 547.44 5.61111 2.12777 0
M  V30 5920 H 548.51 4.74201 1.01297 0
M  V30 5921 N 549.853 -0.472356 1.50355 0
M  V30 5922 C 550.816 -1.5529 1.68576 0
M  V30 5923 C 551.816 -1.50863 0.556511 0
M  V30 5924 O 553.006 -1.53505 0.823516 0
M  V30 5925 C 550.138 -2.94921 1.70981 0
M  V30 5926 H 551.331 -1.40451 2.64978 0
M  V30 5927 H 548.884 -0.698645 1.39816 0
M  V30 5928 H 549.619 -3.15204 0.762675 0
M  V30 5929 H 549.404 -2.99541 2.53017 0
M  V30 5930 H 550.894 -3.73372 1.87037 0
M  V30 5931 N 551.331 -1.39911 -0.725443 0
M  V30 5932 C 552.241 -1.41688 -1.8698 0
M  V30 5933 C 553.257 -0.310579 -1.71206 0
M  V30 5934 O 554.433 -0.55359 -1.93642 0
M  V30 5935 C 551.498 -1.26811 -3.22676 0
M  V30 5936 C 550.559 -2.47497 -3.50776 0
M  V30 5937 C 549.792 -2.3332 -4.79997 0
M  V30 5938 O 550.015 -1.34175 -5.54394 0
M  V30 5939 O 548.949 -3.22498 -5.08211 0
M  V30 5940 H 552.775 -2.38171 -1.88436 0
M  V30 5941 H 550.36 -1.21128 -0.874548 0
M  V30 5942 H 552.242 -1.20684 -4.03749 0
M  V30 5943 H 550.917 -0.334289 -3.21969 0
M  V30 5944 H 549.824 -2.59201 -2.69751 0
M  V30 5945 H 551.157 -3.39606 -3.5627 0
M  V30 5946 N 552.809 0.956637 -1.25245 0
M  V30 5947 C 553.756 2.053 -1.05454 0
M  V30 5948 C 554.726 1.66062 0.0356889 0
M  V30 5949 O 555.911 1.90415 -0.121099 0
M  V30 5950 C 553.051 3.38391 -0.677191 0
M  V30 5951 C 552.164 3.90758 -1.84206 0
M  V30 5952 C 551.299 5.12165 -1.40926 0
M  V30 5953 C 550.338 5.56757 -2.54338 0
M  V30 5954 N 549.475 6.69376 -2.11848 0
M  V30 5955 H 554.315 2.21562 -1.99284 0
M  V30 5956 H 551.852 1.08578 -0.992434 0
M  V30 5957 H 553.81 4.1488 -0.43938 0
M  V30 5958 H 552.44 3.22021 0.224127 0
M  V30 5959 H 551.492 3.10808 -2.19323 0
M  V30 5960 H 552.804 4.19802 -2.69383 0
M  V30 5961 H 551.958 5.96065 -1.13098 0
M  V30 5962 H 550.697 4.84832 -0.528175 0
M  V30 5963 H 549.702 4.71423 -2.82913 0
M  V30 5964 H 550.927 5.861 -3.43022 0
M  V30 5965 H 548.873 6.43756 -1.26153 0
M  V30 5966 H 548.79 6.97927 -2.90574 0
M  V30 5967 H 550.058 7.5669 -1.87191 0
M  V30 5968 N 554.287 1.06798 1.15896 0
M  V30 5969 C 555.536 0.782796 1.8589 0
M  V30 5970 C 555.849 -0.693498 1.82893 0
M  V30 5971 O 557.055 -1.09325 2.48516 0
M  V30 5972 C 555.511 1.3502 3.33613 0
M  V30 5973 C 555.119 2.8571 3.45071 0
M  V30 5974 C 556.863 1.14278 4.08829 0
M  V30 5975 C 554.77 3.35669 4.86909 0
M  V30 5976 H 553.7 0.289149 0.696354 0
M  V30 5977 H 556.351 1.28734 1.30766 0
M  V30 5978 H 554.733 0.773407 3.88374 0
M  V30 5979 H 555.907 3.49385 3.00445 0
M  V30 5980 H 554.222 3.05178 2.83294 0
M  V30 5981 H 556.819 1.49087 5.13495 0
M  V30 5982 H 557.162 0.0814575 4.1622 0
M  V30 5983 H 557.695 1.68563 3.60321 0
M  V30 5984 H 554.434 4.41302 4.84698 0
M  V30 5985 H 553.954 2.76745 5.32139 0
M  V30 5986 H 555.633 3.31296 5.55745 0
M  V30 5987 N 555.766 -1.3263 0.851289 0
M  V30 5988 C 557.177 -1.79653 0.5081 0
M  V30 5989 C 557.528 -1.70327 -0.973815 0
M  V30 5990 O 556.653 -1.25986 -1.75944 0
M  V30 5991 C 557.248 -3.26196 0.915515 0
M  V30 5992 C 555.807 -3.71187 0.624277 0
M  V30 5993 C 554.954 -2.53804 1.11709 0
M  V30 5994 H 557.905 -1.19976 1.03882 0
M  V30 5995 H 557.926 -3.79801 0.230535 0
M  V30 5996 H 557.438 -3.32952 1.99411 0
M  V30 5997 H 555.539 -3.69948 -0.443737 0
M  V30 5998 H 555.652 -4.64132 1.18821 0
M  V30 5999 H 554.016 -2.48964 0.537484 0
M  V30 6000 H 554.799 -2.63315 2.20272 0
M  V30 6001 N 557.244 -0.608902 -1.45362 0
M  V30 6002 C 558.176 0.147318 -2.28726 0
M  V30 6003 C 559.189 0.830468 -1.40025 0
M  V30 6004 O 560.378 0.695636 -1.64387 0
M  V30 6005 C 557.478 1.22968 -3.15804 0
M  V30 6006 C 556.651 0.633391 -4.3279 0
M  V30 6007 C 555.71 1.60682 -5.01067 0
M  V30 6008 O 554.736 1.13261 -5.57818 0
M  V30 6009 N 555.938 2.94123 -5.00472 0
M  V30 6010 H 558.703 -0.568014 -2.94268 0
M  V30 6011 H 556.264 -0.448479 -1.55564 0
M  V30 6012 H 558.256 1.88072 -3.58345 0
M  V30 6013 H 556.826 1.84752 -2.52162 0
M  V30 6014 H 556.046 -0.195762 -3.93714 0
M  V30 6015 H 557.334 0.215255 -5.08344 0
M  V30 6016 H 556.732 3.3525 -4.55657 0
M  V30 6017 H 555.289 3.54646 -5.46872 0
M  V30 6018 N 558.722 1.53707 -0.348139 0
M  V30 6019 C 559.947 2.05877 0.250883 0
M  V30 6020 C 560.372 1.22115 1.43072 0
M  V30 6021 O 559.73 0.235986 1.79758 0
M  V30 6022 C 559.778 3.54886 0.639416 0
M  V30 6023 O 558.882 3.73948 1.73888 0
M  V30 6024 H 558.223 0.662754 0.040653 0
M  V30 6025 H 560.753 1.98303 -0.503685 0
M  V30 6026 H 560.763 3.97601 0.915295 0
M  V30 6027 H 559.438 4.153 -0.223386 0
M  V30 6028 H 558.015 3.43134 1.45991 0
M  V30 6029 N 560.2 0.0768682 1.57412 0
M  V30 6030 C 561.132 -0.918248 2.10002 0
M  V30 6031 C 562.145 -1.25808 1.03325 0
M  V30 6032 O 563.334 -1.21438 1.30824 0
M  V30 6033 C 560.434 -2.23263 2.54964 0
M  V30 6034 C 559.607 -2.07088 3.8527 0
M  V30 6035 C 558.666 -3.21876 4.16272 0
M  V30 6036 O 557.692 -2.96643 4.8579 0
M  V30 6037 N 558.894 -4.4712 3.70221 0
M  V30 6038 H 561.659 -0.469209 2.96004 0
M  V30 6039 H 559.22 -0.108725 1.61535 0
M  V30 6040 H 561.212 -2.9897 2.72762 0
M  V30 6041 H 559.782 -2.59649 1.74072 0
M  V30 6042 H 559.002 -1.15818 3.76802 0
M  V30 6043 H 560.29 -1.93537 4.70554 0
M  V30 6044 H 559.688 -4.70506 3.1407 0
M  V30 6045 H 558.245 -5.19837 3.93209 0
M  V30 6046 N 561.678 -1.56367 -0.196722 0
M  V30 6047 C 562.908 -1.84371 -0.932254 0
M  V30 6048 C 563.316 -0.657013 -1.77426 0
M  V30 6049 O 562.659 0.383576 -1.79651 0
M  V30 6050 C 562.721 -3.06454 -1.87952 0
M  V30 6051 C 562.385 -4.40425 -1.21962 0
M  V30 6052 C 563.382 -5.16457 -0.597343 0
M  V30 6053 C 561.067 -4.8716 -1.22396 0
M  V30 6054 C 563.061 -6.37399 0.0117913 0
M  V30 6055 C 560.748 -6.08038 -0.610995 0
M  V30 6056 C 561.746 -6.83 0.00580487 0
M  V30 6057 O 561.434 -8.01589 0.609173 0
M  V30 6058 H 561.166 -0.616377 -0.277589 0
M  V30 6059 H 563.72 -2.04329 -0.209452 0
M  V30 6060 H 561.95 -2.82377 -2.64197 0
M  V30 6061 H 563.639 -3.21118 -2.48271 0
M  V30 6062 H 564.405 -4.81445 -0.586142 0
M  V30 6063 H 560.284 -4.2877 -1.69345 0
M  V30 6064 H 563.828 -6.9585 0.493836 0
M  V30 6065 H 559.725 -6.42519 -0.619693 0
M  V30 6066 H 560.493 -8.16935 0.505919 0
M  V30 6067 N 563.156 0.464375 -1.50603 0
M  V30 6068 C 564.433 1.22549 -1.5245 0
M  V30 6069 C 564.813 2.09327 -0.273035 0
M  V30 6070 O 564.161 2.16074 0.743242 0
M  V30 6071 C 564.371 2.05074 -2.82393 0
M  V30 6072 C 565.719 2.63036 -3.33313 0
M  V30 6073 O 566.743 2.1531 -2.8376 0
M  V30 6074 O 565.602 3.5001 -4.19709 0
M  V30 6075 H 562.696 0.556471 -0.611775 0
M  V30 6076 H 565.242 0.475648 -1.62898 0
M  V30 6077 H 564.014 1.41169 -3.64948 0
M  V30 6078 H 563.637 2.87179 -2.7498 0
M  V30 6079 N 564.634 1.40294 0.718013 0
M  V30 6080 C 565.88 1.38645 1.48005 0
M  V30 6081 C 566.213 -0.0121202 1.94196 0
M  V30 6082 O 565.488 -0.980309 1.67989 0
M  V30 6083 C 565.771 2.37379 2.70782 0
M  V30 6084 C 565.624 3.8625 2.30501 0
M  V30 6085 C 566.943 2.33685 3.72933 0
M  V30 6086 H 564.062 0.504928 0.536858 0
M  V30 6087 H 566.704 1.71411 0.819649 0
M  V30 6088 H 564.854 2.09568 3.27129 0
M  V30 6089 H 566.526 4.24879 1.79655 0
M  V30 6090 H 564.769 4.02202 1.6253 0
M  V30 6091 H 565.44 4.50847 3.18498 0
M  V30 6092 H 567.916 2.58314 3.2621 0
M  V30 6093 H 566.792 3.0482 4.56482 0
M  V30 6094 H 567.053 1.34765 4.21059 0
M  V30 6095 N 566.112 -0.949982 1.2575 0
M  V30 6096 C 567.358 -1.69766 1.10938 0
M  V30 6097 C 567.691 -1.91056 -0.348028 0
M  V30 6098 O 566.966 -1.48488 -1.25625 0
M  V30 6099 C 567.249 -3.07779 1.86933 0
M  V30 6100 C 567.102 -2.9387 3.4053 0
M  V30 6101 C 568.421 -4.07749 1.65616 0
M  V30 6102 H 565.54 -0.616144 0.404396 0
M  V30 6103 H 568.182 -1.10394 1.54639 0
M  V30 6104 H 566.332 -3.58462 1.4979 0
M  V30 6105 H 568.004 -2.50476 3.87375 0
M  V30 6106 H 566.247 -2.29686 3.68004 0
M  V30 6107 H 566.918 -3.91719 3.88922 0
M  V30 6108 H 569.394 -3.65994 1.97959 0
M  V30 6109 H 568.27 -5.02348 2.21218 0
M  V30 6110 H 568.531 -4.38029 0.598595 0
M  V30 6111 N 567.59 -1.07411 -1.15328 0
M  V30 6112 C 568.815 -0.818856 -1.90551 0
M  V30 6113 C 569.24 0.622194 -1.77512 0
M  V30 6114 O 568.598 1.43484 -1.10824 0
M  V30 6115 C 568.646 -1.23267 -3.38877 0
M  V30 6116 O 567.75 -0.378345 -4.10661 0
M  V30 6117 H 567.091 -0.29827 -0.593238 0
M  V30 6118 H 569.621 -1.43289 -1.46046 0
M  V30 6119 H 569.631 -1.20912 -3.89672 0
M  V30 6120 H 568.306 -2.28226 -3.47686 0
M  V30 6121 H 566.883 -0.464437 -3.69996 0
M  V30 6122 N 569.068 1.32177 -0.85831 0
M  V30 6123 C 570.345 1.91781 -0.384624 0
M  V30 6124 C 570.725 1.78171 1.13217 0
M  V30 6125 O 570.073 1.18209 1.95548 0
M  V30 6126 C 570.283 3.38414 -0.853047 0
M  V30 6127 C 571.631 4.15542 -0.872359 0
M  V30 6128 O 572.655 3.47148 -0.797926 0
M  V30 6129 O 571.514 5.37678 -0.978009 0
M  V30 6130 H 568.608 0.819259 -0.112886 0
M  V30 6131 H 571.154 1.40923 -0.945453 0
M  V30 6132 H 569.926 3.4228 -1.89632 0
M  V30 6133 H 569.549 3.96683 -0.269874 0
M  V30 6134 N 570.547 0.616602 1.45037 0
M  V30 6135 C 571.497 -0.118543 2.27692 0
M  V30 6136 C 572.481 -0.830025 1.37838 0
M  V30 6137 O 573.673 -0.718528 1.6176 0
M  V30 6138 C 570.802 -1.10924 3.24886 0
M  V30 6139 C 569.888 -0.398134 4.22227 0
M  V30 6140 N 570.279 0.565233 5.02632 0
M  V30 6141 C 568.577 -0.644506 4.41319 0
M  V30 6142 C 569.278 0.984043 5.73316 0
M  V30 6143 N 568.254 0.325879 5.42622 0
M  V30 6144 H 572.056 0.621239 2.87259 0
M  V30 6145 H 569.57 0.440968 1.56299 0
M  V30 6146 H 571.567 -1.65038 3.82842 0
M  V30 6147 H 570.227 -1.84948 2.66879 0
M  V30 6148 H 571.238 0.942395 5.09254 0
M  V30 6149 H 567.915 -1.36873 3.94426 0
M  V30 6150 H 569.305 1.77911 6.47918 0
M  V30 6151 N 572.025 -1.5352 0.356285 0
M  V30 6152 C 573.271 -2.01414 -0.236653 0
M  V30 6153 C 573.604 -1.24339 -1.49176 0
M  V30 6154 O 572.879 -0.334496 -1.91602 0
M  V30 6155 C 573.162 -3.56059 -0.537982 0
M  V30 6156 C 573.015 -4.43835 0.730112 0
M  V30 6157 C 574.334 -4.19127 -1.34239 0
M  V30 6158 H 571.453 -0.732135 -0.0845386 0
M  V30 6159 H 574.095 -1.83854 0.479341 0
M  V30 6160 H 572.245 -3.71153 -1.14795 0
M  V30 6161 H 573.917 -4.40555 1.36782 0
M  V30 6162 H 572.16 -4.1218 1.3524 0
M  V30 6163 H 572.831 -5.49958 0.474358 0
M  V30 6164 H 575.307 -4.07809 -0.826498 0
M  V30 6165 H 574.183 -5.27378 -1.52198 0
M  V30 6166 H 574.444 -3.74581 -2.34822 0
M  V30 6167 N 573.503 -0.0852151 -1.57369 0
M  V30 6168 C 574.728 0.592872 -1.98746 0
M  V30 6169 C 575.153 1.61538 -0.963689 0
M  V30 6170 O 574.511 1.81168 0.069071 0
M  V30 6171 C 574.559 1.22599 -3.39119 0
M  V30 6172 O 573.663 2.34185 -3.39457 0
M  V30 6173 H 573.004 0.151314 -0.646529 0
M  V30 6174 H 575.534 -0.163703 -2.03944 0
M  V30 6175 H 575.544 1.56965 -3.76598 0
M  V30 6176 H 574.219 0.476831 -4.13158 0
M  V30 6177 H 572.796 2.01512 -3.13763 0
M  V30 6178 N 574.981 1.5647 0.188427 0
M  V30 6179 C 575.928 1.95073 1.23349 0
M  V30 6180 C 576.898 0.812238 1.44886 0
M  V30 6181 O 578.083 1.07095 1.57909 0
M  V30 6182 C 575.223 2.30124 2.57171 0
M  V30 6183 C 574.336 3.57069 2.43157 0
M  V30 6184 C 573.471 3.81411 3.69729 0
M  V30 6185 C 572.51 5.0176 3.50575 0
M  V30 6186 N 571.647 5.22321 4.69175 0
M  V30 6187 H 576.487 2.84171 0.89728 0
M  V30 6188 H 574.024 1.40623 0.431683 0
M  V30 6189 H 575.982 2.48463 3.35145 0
M  V30 6190 H 574.612 1.44159 2.88822 0
M  V30 6191 H 573.664 3.4674 1.56447 0
M  V30 6192 H 574.976 4.452 2.24942 0
M  V30 6193 H 574.13 4.00026 4.56141 0
M  V30 6194 H 572.869 2.91624 3.90905 0
M  V30 6195 H 571.874 4.83061 2.62549 0
M  V30 6196 H 573.099 5.93063 3.30837 0
M  V30 6197 H 571.045 4.35483 4.90602 0
M  V30 6198 H 570.962 6.04643 4.53809 0
M  V30 6199 H 572.23 5.45401 5.56919 0
M  V30 6200 N 576.459 -0.456382 1.50847 0
M  V30 6201 C 577.705 -1.20914 1.62811 0
M  V30 6202 C 578.038 -1.91301 0.334304 0
M  V30 6203 O 577.313 -1.82775 -0.665098 0
M  V30 6204 C 577.596 -2.24122 2.81853 0
M  V30 6205 C 577.449 -1.57944 4.21158 0
M  V30 6206 C 578.768 -3.25295 2.96431 0
M  V30 6207 H 575.887 -0.438233 0.592554 0
M  V30 6208 H 578.529 -0.50091 1.83278 0
M  V30 6209 H 576.679 -2.84524 2.64534 0
M  V30 6210 H 578.351 -1.01025 4.50102 0
M  V30 6211 H 576.594 -0.882185 4.24735 0
M  V30 6212 H 577.265 -2.33014 5.00408 0
M  V30 6213 H 579.741 -2.7493 3.12335 0
M  V30 6214 H 578.617 -3.94822 3.81322 0
M  V30 6215 H 578.878 -3.90286 2.07676 0
M  V30 6216 N 577.937 -1.40673 -0.710563 0
M  V30 6217 C 579.165 -1.42547 -1.4996 0
M  V30 6218 C 579.58 -0.0265485 -1.88781 0
M  V30 6219 O 578.937 0.950694 -1.55782 0
M  V30 6220 C 578.988 -2.32071 -2.77173 0
M  V30 6221 O 578.709 -3.66518 -2.39992 0
M  V30 6222 C 580.21 -2.42591 -3.71032 0
M  V30 6223 H 577.43 -0.486025 -0.462623 0
M  V30 6224 H 579.974 -1.84783 -0.876102 0
M  V30 6225 H 578.129 -1.93184 -3.35795 0
M  V30 6226 H 578.543 -4.14115 -3.21884 0
M  V30 6227 H 580.017 -3.09429 -4.57119 0
M  V30 6228 H 580.494 -1.4525 -4.14486 0
M  V30 6229 H 581.1 -2.82051 -3.18319 0
M  V30 6230 N 579.415 0.9433 -1.26252 0
M  V30 6231 C 580.662 1.68925 -1.11672 0
M  V30 6232 C 580.99 1.91499 0.340329 0
M  V30 6233 O 580.245 1.49189 1.26653 0
M  V30 6234 C 580.544 3.07073 -1.82868 0
M  V30 6235 C 580.21 3.04262 -3.32769 0
M  V30 6236 C 578.872 3.03203 -3.7366 0
M  V30 6237 C 581.224 2.96729 -4.28487 0
M  V30 6238 C 578.552 2.92373 -5.0866 0
M  V30 6239 C 580.904 2.87442 -5.63525 0
M  V30 6240 C 579.568 2.84724 -6.03729 0
M  V30 6241 H 578.838 0.618141 -0.408635 0
M  V30 6242 H 581.485 1.10124 -1.56668 0
M  V30 6243 H 579.79 3.69486 -1.30335 0
M  V30 6244 H 581.487 3.63635 -1.69029 0
M  V30 6245 H 578.077 3.05865 -3.00241 0
M  V30 6246 H 582.261 2.96658 -3.97879 0
M  V30 6247 H 577.517 2.88645 -5.38975 0
M  V30 6248 H 581.691 2.80576 -6.37377 0
M  V30 6249 H 579.318 2.76089 -7.08293 0
M  V30 6250 N 580.893 1.08022 1.14757 0
M  V30 6251 C 582.14 0.807509 1.85703 0
M  V30 6252 C 582.468 -0.666617 1.8272 0
M  V30 6253 O 581.723 -1.50562 1.25018 0
M  V30 6254 C 582.022 1.26964 3.34088 0
M  V30 6255 C 581.688 2.7509 3.57262 0
M  V30 6256 C 580.35 3.15547 3.63296 0
M  V30 6257 C 582.702 3.70667 3.66409 0
M  V30 6258 C 580.03 4.50384 3.75994 0
M  V30 6259 C 582.382 5.05274 3.80632 0
M  V30 6260 C 581.046 5.45342 3.84913 0
M  V30 6261 H 580.316 0.295488 0.679535 0
M  V30 6262 H 582.963 1.35245 1.35577 0
M  V30 6263 H 581.268 0.644216 3.86467 0
M  V30 6264 H 582.965 1.03544 3.87401 0
M  V30 6265 H 579.555 2.42775 3.53212 0
M  V30 6266 H 583.739 3.40533 3.61041 0
M  V30 6267 H 578.995 4.80886 3.77569 0
M  V30 6268 H 583.169 5.79201 3.86652 0
M  V30 6269 H 580.796 6.49823 3.94505 0
M  V30 6270 N 582.371 -1.3172 0.865308 0
M  V30 6271 C 583.319 -2.30569 0.306674 0
M  V30 6272 C 584.313 -1.59317 -0.575724 0
M  V30 6273 O 585.519 -1.73961 -0.462343 0
M  V30 6274 H 581.894 -0.747681 0.0804834 0
M  V30 6275 H 583.865 -2.75165 1.15441 0
M  V30 6276 C 582.614 -3.44358 -0.480952 0
M  V30 6277 H 581.937 -3.99354 0.18876 0
M  V30 6278 H 583.377 -4.15652 -0.837241 0
M  V30 6279 C 581.836 -2.92574 -1.67039 0
M  V30 6280 O 582.366 -2.90954 -2.76964 0
M  V30 6281 N 580.572 -2.48835 -1.50097 0
M  V30 6282 H 580.119 -2.50353 -0.606738 0
M  V30 6283 H 580.077 -2.14543 -2.29823 0
M  V30 6284 N 583.85 -0.624285 -1.44708 0
M  V30 6285 C 584.779 0.0717025 -2.3339 0
M  V30 6286 C 585.76 0.841814 -1.47809 0
M  V30 6287 O 586.946 0.809056 -1.76544 0
M  V30 6288 C 584.076 1.05852 -3.30776 0
M  V30 6289 C 583.029 0.400503 -4.26122 0
M  V30 6290 C 582.356 1.49674 -5.13324 0
M  V30 6291 C 583.656 -0.688924 -5.17737 0
M  V30 6292 H 585.35 -0.668819 -2.91834 0
M  V30 6293 H 582.896 -0.32308 -1.40329 0
M  V30 6294 H 584.849 1.5541 -3.91696 0
M  V30 6295 H 583.572 1.82984 -2.70526 0
M  V30 6296 H 582.231 -0.0743687 -3.66525 0
M  V30 6297 H 581.88 2.25877 -4.49431 0
M  V30 6298 H 581.58 1.06188 -5.77926 0
M  V30 6299 H 583.104 1.99427 -5.77115 0
M  V30 6300 H 584.518 -0.276724 -5.72632 0
M  V30 6301 H 582.915 -1.04652 -5.90904 0
M  V30 6302 H 583.985 -1.55884 -4.5916 0
M  V30 6303 N 585.328 1.53329 -0.364422 0
M  V30 6304 C 586.276 2.27212 0.497737 0
M  V30 6305 C 587.27 1.30146 1.08437 0
M  V30 6306 O 588.476 1.47778 1.0277 0
M  V30 6307 H 584.851 0.730329 0.179232 0
M  V30 6308 H 586.822 2.98037 -0.147182 0
M  V30 6309 C 585.571 3.07333 1.6261 0
M  V30 6310 H 584.894 3.81866 1.184 0
M  V30 6311 H 586.334 3.62209 2.20409 0
M  V30 6312 C 584.793 2.18102 2.56775 0
M  V30 6313 O 585.323 1.79104 3.59562 0
M  V30 6314 N 583.529 1.82759 2.25937 0
M  V30 6315 H 583.076 2.14671 1.42387 0
M  V30 6316 H 583.034 1.23342 2.89196 0
M  V30 6317 N 586.806 0.0935595 1.57322 0
M  V30 6318 C 587.716 -0.880192 2.17462 0
M  V30 6319 C 588.732 -1.31135 1.14366 0
M  V30 6320 O 589.908 -1.37958 1.46729 0
M  V30 6321 C 586.973 -2.12184 2.74188 0
M  V30 6322 C 586.034 -1.74503 3.92234 0
M  V30 6323 C 585.267 -2.92748 4.46245 0
M  V30 6324 O 585.49 -4.07427 3.99198 0
M  V30 6325 O 584.424 -2.71303 5.37288 0
M  V30 6326 H 588.25 -0.398516 3.01074 0
M  V30 6327 H 585.835 -0.130707 1.48827 0
M  V30 6328 H 587.717 -2.84953 3.10451 0
M  V30 6329 H 586.392 -2.59407 1.93623 0
M  V30 6330 H 585.299 -0.989186 3.60785 0
M  V30 6331 H 586.632 -1.32044 4.74157 0
M  V30 6332 N 588.284 -1.56567 -0.180126 0
M  V30 6333 C 589.512 -1.85618 -0.913972 0
M  V30 6334 C 589.927 -0.677892 -1.7621 0
M  V30 6335 O 589.284 0.353171 -1.7905 0
M  V30 6336 C 589.335 -3.13619 -1.79793 0
M  V30 6337 O 589.056 -4.26906 -0.98402 0
M  V30 6338 C 590.557 -3.55954 -2.64219 0
M  V30 6339 H 587.777 -0.616043 -0.265954 0
M  V30 6340 H 590.321 -2.03681 -0.182872 0
M  V30 6341 H 588.476 -2.97409 -2.48247 0
M  V30 6342 H 588.89 -4.9989 -1.58776 0
M  V30 6343 H 590.364 -4.48444 -3.21873 0
M  V30 6344 H 590.841 -2.79653 -3.38661 0
M  V30 6345 H 591.447 -3.74746 -2.01111 0
M  V30 6346 N 589.762 0.448376 -1.51087 0
M  V30 6347 C 590.709 1.54341 -1.71603 0
M  V30 6348 C 591.679 1.56463 -0.557536 0
M  V30 6349 O 592.864 1.73644 -0.79072 0
M  V30 6350 C 590.004 2.92148 -1.83695 0
M  V30 6351 C 589.117 2.99639 -3.11192 0
M  V30 6352 C 588.252 4.285 -3.13944 0
M  V30 6353 C 587.291 4.29819 -4.35801 0
M  V30 6354 N 586.428 5.50186 -4.36164 0
M  V30 6355 H 591.268 1.36151 -2.65079 0
M  V30 6356 H 588.805 0.661585 -1.31383 0
M  V30 6357 H 590.763 3.72093 -1.88687 0
M  V30 6358 H 589.393 3.0892 -0.936374 0
M  V30 6359 H 588.445 2.12425 -3.15562 0
M  V30 6360 H 589.757 2.96474 -4.01129 0
M  V30 6361 H 588.911 5.16811 -3.17791 0
M  V30 6362 H 587.65 4.34307 -2.21876 0
M  V30 6363 H 586.655 3.39902 -4.32142 0
M  V30 6364 H 587.88 4.25685 -5.29121 0
M  V30 6365 H 585.826 5.56735 -3.46961 0
M  V30 6366 H 585.743 5.48856 -5.19897 0
M  V30 6367 H 587.011 6.40559 -4.44189 0
M  V30 6368 N 591.24 1.41047 0.703093 0
M  V30 6369 C 592.651 1.35657 1.28274 0
M  V30 6370 C 593.002 0.0360309 1.96167 0
M  V30 6371 O 592.127 -0.865833 1.98324 0
M  V30 6372 C 592.722 2.45707 2.33267 0
M  V30 6373 C 591.281 2.43738 2.86825 0
M  V30 6374 C 590.428 2.25941 1.60767 0
M  V30 6375 H 593.379 1.50672 0.49836 0
M  V30 6376 H 593.4 2.14333 3.14391 0
M  V30 6377 H 592.912 3.41805 1.83824 0
M  V30 6378 H 591.013 1.51375 3.40465 0
M  V30 6379 H 591.126 3.39779 3.37768 0
M  V30 6380 H 589.49 1.73681 1.86298 0
M  V30 6381 H 590.273 3.24054 1.1333 0
M  V30 6382 N 592.718 -0.936591 1.26751 0
M  V30 6383 C 594.134 -1.21095 1.03963 0
M  V30 6384 C 594.334 -2.00156 -0.232372 0
M  V30 6385 O 593.39 -2.3434 -0.940274 0
M  V30 6386 C 594.703 -1.96775 2.27377 0
M  V30 6387 C 596.251 -2.09749 2.32324 0
M  V30 6388 C 596.726 -2.88832 3.55443 0
M  V30 6389 N 598.217 -2.96404 3.55948 0
M  V30 6390 C 598.952 -3.58036 4.47881 0
M  V30 6391 N 598.448 -4.21132 5.50109 0
M  V30 6392 N 600.241 -3.55353 4.35523 0
M  V30 6393 H 592.392 -0.408173 2.08441 0
M  V30 6394 H 594.655 -0.243139 0.91629 0
M  V30 6395 H 594.361 -1.46094 3.19921 0
M  V30 6396 H 594.235 -2.97424 2.31989 0
M  V30 6397 H 596.622 -2.5962 1.40291 0
M  V30 6398 H 596.703 -1.08347 2.31721 0
M  V30 6399 H 596.347 -2.39647 4.47808 0
M  V30 6400 H 596.277 -3.90499 3.53296 0
M  V30 6401 H 598.768 -2.51552 2.82011 0
M  V30 6402 H 599.081 -4.66071 6.16439 0
M  V30 6403 H 597.426 -4.19705 5.53961 0
M  V30 6404 H 600.617 -3.05256 3.54875 0
M  V30 6405 H 600.79 -4.03097 5.07363 0
M  V30 6406 N 594.196 -1.08629 -1.14182 0
M  V30 6407 C 595.444 -0.815731 -1.84906 0
M  V30 6408 C 595.765 0.660441 -1.83475 0
M  V30 6409 O 595.035 1.47888 -1.28476 0
M  V30 6410 H 593.615 -0.298773 -0.684648 0
M  V30 6411 H 596.277 -1.37274 -1.38354 0
M  V30 6412 H 595.373 -1.16193 -2.89665 0
M  V30 6413 N 595.674 1.31259 -0.872281 0
M  V30 6414 C 596.621 2.28459 -0.327857 0
M  V30 6415 C 597.591 1.55831 0.574957 0
M  V30 6416 O 598.776 1.83965 0.506101 0
M  V30 6417 C 595.916 3.41985 0.462644 0
M  V30 6418 C 595.029 4.29458 -0.467949 0
M  V30 6419 C 594.164 5.30131 0.336903 0
M  V30 6420 C 593.203 6.0925 -0.58997 0
M  V30 6421 N 592.34 7.01872 0.178775 0
M  V30 6422 H 597.18 2.74414 -1.16193 0
M  V30 6423 H 594.717 1.34994 -0.584376 0
M  V30 6424 H 596.675 4.06547 0.936759 0
M  V30 6425 H 595.305 2.97134 1.2614 0
M  V30 6426 H 594.357 3.65318 -1.06052 0
M  V30 6427 H 595.669 4.84677 -1.17856 0
M  V30 6428 H 594.823 6.0038 0.873427 0
M  V30 6429 H 593.562 4.75573 1.08079 0
M  V30 6430 H 592.567 5.37889 -1.13823 0
M  V30 6431 H 593.792 6.65894 -1.33275 0
M  V30 6432 H 591.738 6.49721 0.905435 0
M  V30 6433 H 591.655 7.54522 -0.472452 0
M  V30 6434 H 592.923 7.76382 0.696454 0
M  V30 6435 N 597.152 0.631951 1.44375 0
M  V30 6436 C 598.399 0.136767 2.02038 0
M  V30 6437 C 598.727 -1.24168 1.49709 0
M  V30 6438 O 597.982 -1.83809 0.671763 0
M  V30 6439 C 598.281 0.0735861 3.57324 0
M  V30 6440 C 597.947 1.39092 4.28911 0
M  V30 6441 C 596.609 1.75171 4.48184 0
M  V30 6442 C 598.961 2.26042 4.69632 0
M  V30 6443 C 596.289 2.97907 5.05439 0
M  V30 6444 C 598.641 3.4805 5.28246 0
M  V30 6445 C 597.305 3.84351 5.45738 0
M  V30 6446 H 596.575 0.0500466 0.739308 0
M  V30 6447 H 599.222 0.818429 1.7313 0
M  V30 6448 H 597.527 -0.691449 3.8565 0
M  V30 6449 H 599.224 -0.326091 3.99672 0
M  V30 6450 H 595.814 1.10015 4.1424 0
M  V30 6451 H 599.998 1.99463 4.54454 0
M  V30 6452 H 595.254 3.26108 5.17169 0
M  V30 6453 H 599.428 4.15658 5.5875 0
M  V30 6454 H 597.055 4.79538 5.8987 0
M  V30 6455 N 598.631 -1.53133 0.372548 0
M  V30 6456 C 599.859 -2.05774 -0.215515 0
M  V30 6457 C 600.274 -1.24555 -1.41886 0
M  V30 6458 O 599.631 -0.287951 -1.80214 0
M  V30 6459 C 599.682 -3.5645 -0.602161 0
M  V30 6460 O 599.403 -4.34591 0.553359 0
M  V30 6461 C 600.904 -4.25374 -1.24787 0
M  V30 6462 H 598.124 -0.670009 -0.0364529 0
M  V30 6463 H 600.668 -1.97434 0.532934 0
M  V30 6464 H 598.823 -3.64918 -1.30052 0
M  V30 6465 H 599.237 -5.23954 0.239336 0
M  V30 6466 H 600.711 -5.32097 -1.46891 0
M  V30 6467 H 601.188 -3.79531 -2.21026 0
M  V30 6468 H 601.794 -4.21177 -0.590752 0
M  V30 6469 N 600.109 -0.101901 -1.5727 0
M  V30 6470 C 601.339 0.567568 -1.98651 0
M  V30 6471 C 601.747 1.61839 -0.980037 0
M  V30 6472 O 601.09 1.83661 0.0376564 0
M  V30 6473 C 601.152 1.26742 -3.36417 0
M  V30 6474 C 600.816 0.366561 -4.55528 0
M  V30 6475 C 601.813 -0.388022 -5.1845 0
M  V30 6476 C 599.498 0.282629 -5.01504 0
M  V30 6477 C 601.492 -1.21445 -6.25724 0
M  V30 6478 C 599.179 -0.547443 -6.08643 0
M  V30 6479 C 600.177 -1.29462 -6.70618 0
M  V30 6480 O 599.865 -2.11095 -7.7569 0
M  V30 6481 H 599.597 0.156282 -0.657687 0
M  V30 6482 H 602.151 -0.179912 -2.04611 0
M  V30 6483 H 600.381 2.06162 -3.27161 0
M  V30 6484 H 602.07 1.8321 -3.622 0
M  V30 6485 H 602.836 -0.332949 -4.83856 0
M  V30 6486 H 598.715 0.853868 -4.53023 0
M  V30 6487 H 602.259 -1.79814 -6.74027 0
M  V30 6488 H 598.156 -0.603971 -6.42668 0
M  V30 6489 H 598.924 -2.03851 -7.92709 0
M  V30 6490 N 601.587 1.56661 0.17182 0
M  V30 6491 C 602.864 1.72838 0.915778 0
M  V30 6492 C 603.244 0.66316 2.00413 0
M  V30 6493 O 602.592 -0.322123 2.26218 0
M  V30 6494 C 602.802 3.16019 1.48097 0
M  V30 6495 C 604.15 3.76962 1.95408 0
M  V30 6496 O 605.174 3.19294 1.57892 0
M  V30 6497 O 604.033 4.78219 2.64516 0
M  V30 6498 H 601.127 0.705797 0.431021 0
M  V30 6499 H 603.673 1.68947 0.159689 0
M  V30 6500 H 602.445 3.85031 0.697618 0
M  V30 6501 H 602.068 3.24234 2.30126 0
M  V30 6502 N 603.065 -0.440357 1.51323 0
M  V30 6503 C 604.028 -1.51679 1.71832 0
M  V30 6504 C 605.028 -1.49648 0.588386 0
M  V30 6505 O 606.218 -1.51724 0.855891 0
M  V30 6506 C 603.35 -2.91228 1.77199 0
M  V30 6507 H 604.543 -1.34799 2.67898 0
M  V30 6508 H 602.096 -0.66883 1.41267 0
M  V30 6509 H 602.831 -3.13516 0.829363 0
M  V30 6510 H 602.616 -2.94107 2.59314 0
M  V30 6511 H 604.106 -3.69321 1.94915 0
M  V30 6512 N 604.543 -1.41418 -0.695603 0
M  V30 6513 C 605.789 -1.40982 -1.4578 0
M  V30 6514 C 606.122 -0.0187763 -1.94191 0
M  V30 6515 O 605.397 0.95346 -1.69527 0
M  V30 6516 C 605.68 -2.41657 -2.66972 0
M  V30 6517 C 605.533 -3.89869 -2.24327 0
M  V30 6518 C 606.852 -2.39589 -3.69168 0
M  V30 6519 H 603.971 -0.513405 -0.528757 0
M  V30 6520 H 606.613 -1.72693 -0.792275 0
M  V30 6521 H 604.763 -2.14746 -3.23754 0
M  V30 6522 H 606.435 -4.27683 -1.72872 0
M  V30 6523 H 604.678 -4.04737 -1.56111 0
M  V30 6524 H 605.349 -4.55857 -3.11285 0
M  V30 6525 H 607.825 -2.63471 -3.2206 0
M  V30 6526 H 606.701 -3.12044 -4.51575 0
M  V30 6527 H 606.962 -1.41447 -4.18862 0
M  V30 6528 N 606.021 0.929856 -1.27246 0
M  V30 6529 C 607.251 1.70895 -1.16096 0
M  V30 6530 C 607.659 1.87039 0.285122 0
M  V30 6531 O 607.002 1.38557 1.20614 0
M  V30 6532 C 607.064 3.12919 -1.7698 0
M  V30 6533 C 606.728 3.2012 -3.26148 0
M  V30 6534 C 607.725 3.02533 -4.22812 0
M  V30 6535 C 605.41 3.43148 -3.66817 0
M  V30 6536 C 607.404 3.07861 -5.58122 0
M  V30 6537 C 605.091 3.48109 -5.02258 0
M  V30 6538 C 606.089 3.30483 -5.97721 0
M  V30 6539 O 605.777 3.35175 -7.30694 0
M  V30 6540 H 605.509 0.54152 -0.404639 0
M  V30 6541 H 608.063 1.17342 -1.68582 0
M  V30 6542 H 606.293 3.67945 -1.18969 0
M  V30 6543 H 607.982 3.72787 -1.60576 0
M  V30 6544 H 608.748 2.84586 -3.92728 0
M  V30 6545 H 604.627 3.55918 -2.9299 0
M  V30 6546 H 608.171 2.94021 -6.32612 0
M  V30 6547 H 604.068 3.65579 -5.31998 0
M  V30 6548 H 604.836 3.51644 -7.39114 0
M  V30 6549 N 607.499 1.09233 1.13605 0
M  V30 6550 C 608.739 0.836786 1.86487 0
M  V30 6551 C 609.103 -0.626191 1.81502 0
M  V30 6552 O 610.304 -0.99758 2.49603 0
M  V30 6553 C 608.575 1.35476 3.30728 0
M  V30 6554 S 610.134 1.2328 4.21126 0
M  V30 6555 H 606.952 0.302702 0.643345 0
M  V30 6556 H 609.554 1.3953 1.36936 0
M  V30 6557 H 608.258 2.41381 3.31909 0
M  V30 6558 H 607.789 0.792286 3.85339 0
M  V30 6559 H 609.804 0.182468 4.95864 0
M  V30 6560 N 608.977 -1.30795 0.87923 0
M  V30 6561 C 610.217 -1.98155 0.50141 0
M  V30 6562 C 610.581 -1.67925 -0.930863 0
M  V30 6563 O 611.782 -2.28572 -1.41451 0
M  V30 6564 C 610.053 -3.49184 0.761937 0
M  V30 6565 S 611.612 -4.36107 0.485361 0
M  V30 6566 H 608.43 -0.686025 0.186792 0
M  V30 6567 H 611.032 -1.59018 1.13726 0
M  V30 6568 H 609.736 -3.68676 1.80295 0
M  V30 6569 H 609.267 -3.93236 0.113432 0
M  V30 6570 H 611.282 -4.9154 -0.678467 0
M  V30 6571 N 610.455 -0.639598 -1.44038 0
M  V30 6572 C 611.403 0.0723409 -2.32487 0
M  V30 6573 C 612.397 0.827129 -1.47834 0
M  V30 6574 O 613.603 0.73907 -1.64127 0
M  V30 6575 H 609.978 0.0421696 -0.750817 0
M  V30 6576 H 611.949 -0.691593 -2.90275 0
M  V30 6577 C 610.698 1.03452 -3.31953 0
M  V30 6578 H 610.021 0.46315 -3.97108 0
M  V30 6579 H 611.461 1.502 -3.96505 0
M  V30 6580 C 609.92 2.12392 -2.61518 0
M  V30 6581 O 610.45 3.2059 -2.42044 0
M  V30 6582 N 608.656 1.88563 -2.21116 0
M  V30 6583 H 608.203 1.00577 -2.37154 0
M  V30 6584 H 608.161 2.61651 -1.74316 0
M  V30 6585 N 611.933 1.52934 -0.380664 0
M  V30 6586 C 612.843 2.29921 0.466192 0
M  V30 6587 C 613.859 1.36488 1.07922 0
M  V30 6588 O 615.035 1.69553 1.0869 0
M  V30 6589 C 612.1 3.08468 1.58266 0
M  V30 6590 C 611.161 4.17595 0.995627 0
M  V30 6591 C 610.394 4.92387 2.05889 0
M  V30 6592 O 610.617 4.67184 3.27254 0
M  V30 6593 O 609.551 5.77949 1.68102 0
M  V30 6594 H 613.377 3.03274 -0.160735 0
M  V30 6595 H 610.962 1.48698 -0.144617 0
M  V30 6596 H 612.844 3.57469 2.23145 0
M  V30 6597 H 611.519 2.37937 2.19471 0
M  V30 6598 H 610.426 3.72811 0.310332 0
M  V30 6599 H 611.759 4.90336 0.427918 0
M  V30 6600 N 613.412 0.11024 1.57214 0
M  V30 6601 C 614.362 -0.854147 2.11396 0
M  V30 6602 C 615.346 -1.23394 1.03261 0
M  V30 6603 O 616.538 -1.20649 1.2951 0
M  V30 6604 C 613.667 -2.10752 2.70995 0
M  V30 6605 C 612.753 -1.75249 3.86198 0
M  V30 6606 N 613.144 -1.10377 4.9361 0
M  V30 6607 C 611.442 -2.04763 3.96217 0
M  V30 6608 C 612.143 -0.938199 5.74084 0
M  V30 6609 N 611.119 -1.46039 5.23616 0
M  V30 6610 H 614.921 -0.348897 2.91822 0
M  V30 6611 H 612.435 -0.0925071 1.62136 0
M  V30 6612 H 614.432 -2.80801 3.0815 0
M  V30 6613 H 613.092 -2.61829 1.9203 0
M  V30 6614 H 614.103 -0.768785 5.12162 0
M  V30 6615 H 610.78 -2.57948 3.28282 0
M  V30 6616 H 612.17 -0.429678 6.70525 0
M  V30 6617 N 614.89 -1.56749 -0.16351 0
M  V30 6618 C 615.8 -2.00255 -1.2221 0
M  V30 6619 C 616.816 -0.915194 -1.47987 0
M  V30 6620 O 617.992 -1.22342 -1.59982 0
M  V30 6621 C 615.057 -2.36035 -2.53946 0
M  V30 6622 C 614.118 -3.58637 -2.35962 0
M  V30 6623 C 613.351 -3.92701 -3.61416 0
M  V30 6624 O 613.574 -3.27632 -4.66919 0
M  V30 6625 O 612.508 -4.86019 -3.55062 0
M  V30 6626 H 616.334 -2.90586 -0.882794 0
M  V30 6627 H 613.919 -1.44721 -0.370978 0
M  V30 6628 H 615.801 -2.59982 -3.31643 0
M  V30 6629 H 614.476 -1.48863 -2.8744 0
M  V30 6630 H 613.383 -3.39898 -1.5627 0
M  V30 6631 H 614.716 -4.46374 -2.0739 0
M  V30 6632 N 616.368 0.432326 -1.51554 0
M  V30 6633 C 617.608 1.19076 -1.66133 0
M  V30 6634 C 617.972 1.88364 -0.371873 0
M  V30 6635 O 619.173 2.65904 -0.39349 0
M  V30 6636 C 617.444 2.1768 -2.83461 0
M  V30 6637 S 619.003 3.01943 -3.18396 0
M  V30 6638 H 615.821 0.403735 -0.585251 0
M  V30 6639 H 618.423 0.481554 -1.89476 0
M  V30 6640 H 617.127 1.65424 -3.75583 0
M  V30 6641 H 616.658 2.93174 -2.62322 0
M  V30 6642 H 618.673 4.19373 -2.65219 0
M  V30 6643 N 617.846 1.41785 0.688094 0
M  V30 6644 C 618.796 1.40684 1.79421 0
M  V30 6645 C 619.78 0.280096 1.58443 0
M  V30 6646 O 620.972 0.521332 1.69148 0
M  V30 6647 C 618.101 1.29874 3.17785 0
M  V30 6648 C 617.187 2.47442 3.44432 0
M  V30 6649 N 617.578 3.72895 3.41736 0
M  V30 6650 C 615.876 2.41416 3.75013 0
M  V30 6651 C 616.577 4.50912 3.67496 0
M  V30 6652 N 615.553 3.81131 3.87608 0
M  V30 6653 H 619.355 2.35591 1.7571 0
M  V30 6654 H 616.869 1.35946 0.888393 0
M  V30 6655 H 618.866 1.27168 3.97031 0
M  V30 6656 H 617.526 0.359587 3.22703 0
M  V30 6657 H 618.537 4.05676 3.21943 0
M  V30 6658 H 615.214 1.56011 3.87256 0
M  V30 6659 H 616.604 5.59865 3.71484 0
M  V30 6660 N 619.324 -0.923095 1.27737 0
M  V30 6661 C 620.274 -2.01061 1.0751 0
M  V30 6662 C 621.258 -1.609 0.00165451 0
M  V30 6663 O 622.45 -1.75618 0.220724 0
M  V30 6664 C 619.579 -3.35467 0.729162 0
M  V30 6665 C 618.665 -3.82059 1.84098 0
M  V30 6666 N 619.056 -4.01115 3.08124 0
M  V30 6667 C 617.354 -4.11135 1.7287 0
M  V30 6668 C 618.055 -4.39989 3.80506 0
M  V30 6669 N 617.031 -4.47721 3.08297 0
M  V30 6670 H 620.833 -2.13832 2.01626 0
M  V30 6671 H 618.347 -1.11027 1.18519 0
M  V30 6672 H 620.344 -4.13049 0.565355 0
M  V30 6673 H 619.004 -3.24056 -0.204334 0
M  V30 6674 H 620.015 -3.87294 3.43836 0
M  V30 6675 H 616.692 -4.08412 0.866352 0
M  V30 6676 H 618.082 -4.62773 4.87125 0
M  V30 6677 N 620.802 -1.09834 -1.13024 0
M  V30 6678 C 622.218 -0.828875 -1.36388 0
M  V30 6679 C 622.418 0.554756 -1.93713 0
M  V30 6680 O 621.474 1.30882 -2.15931 0
M  V30 6681 C 622.787 -1.92352 -2.3113 0
M  V30 6682 C 624.335 -1.95124 -2.44735 0
M  V30 6683 C 624.81 -3.03745 -3.42787 0
M  V30 6684 N 626.301 -3.03012 -3.5034 0
M  V30 6685 C 627.036 -3.83699 -4.26101 0
M  V30 6686 N 626.532 -4.74306 -5.04981 0
M  V30 6687 N 628.325 -3.71942 -4.21445 0
M  V30 6688 H 620.476 -1.99029 -0.74169 0
M  V30 6689 H 622.739 -0.864557 -0.388903 0
M  V30 6690 H 622.445 -2.91906 -1.96172 0
M  V30 6691 H 622.319 -1.80536 -3.3119 0
M  V30 6692 H 624.706 -0.962069 -2.78977 0
M  V30 6693 H 624.787 -2.11018 -1.44586 0
M  V30 6694 H 624.431 -4.02878 -3.09276 0
M  V30 6695 H 624.361 -2.85094 -4.42752 0
M  V30 6696 H 626.852 -2.37352 -2.94062 0
M  V30 6697 H 627.165 -5.32446 -5.60108 0
M  V30 6698 H 625.51 -4.78339 -5.04199 0
M  V30 6699 H 628.701 -3.00513 -3.589 0
M  V30 6700 H 628.874 -4.35062 -4.80235 0
M  V30 6701 N 622.28 1.30327 -0.886154 0
M  V30 6702 C 623.51 1.99964 -0.519421 0
M  V30 6703 C 623.918 1.66593 0.89686 0
M  V30 6704 O 623.261 0.899886 1.60149 0
M  V30 6705 C 623.323 3.54187 -0.615795 0
M  V30 6706 C 622.987 4.11078 -1.9966 0
M  V30 6707 C 623.984 4.26985 -2.96614 0
M  V30 6708 C 621.669 4.46429 -2.30231 0
M  V30 6709 C 623.663 4.77456 -4.22273 0
M  V30 6710 C 621.35 4.966 -3.56135 0
M  V30 6711 C 622.348 5.12066 -4.5197 0
M  V30 6712 O 622.036 5.61154 -5.7564 0
M  V30 6713 H 621.768 0.645979 -0.199217 0
M  V30 6714 H 624.322 1.67154 -1.19368 0
M  V30 6715 H 622.552 3.86528 0.115448 0
M  V30 6716 H 624.241 4.05065 -0.26017 0
M  V30 6717 H 625.007 3.99975 -2.74308 0
M  V30 6718 H 620.886 4.33658 -1.56404 0
M  V30 6719 H 624.43 4.89444 -4.97082 0
M  V30 6720 H 620.327 5.23045 -3.78277 0
M  V30 6721 H 621.095 5.79494 -5.78039 0
M  V30 6722 N 623.758 0.647228 1.43697 0
M  V30 6723 C 624.721 -0.0385101 2.29168 0
M  V30 6724 C 625.721 -0.756487 1.41894 0
M  V30 6725 O 626.911 -0.598641 1.63591 0
M  V30 6726 C 624.043 -1.06524 3.23829 0
M  V30 6727 H 625.236 0.713445 2.9129 0
M  V30 6728 H 622.789 0.408153 1.50877 0
M  V30 6729 H 623.524 -1.84664 2.66589 0
M  V30 6730 H 623.309 -0.554147 3.88164 0
M  V30 6731 H 624.799 -1.54432 3.87996 0
M  V30 6732 N 625.236 -1.5273 0.388769 0
M  V30 6733 C 626.146 -2.30165 -0.453993 0
M  V30 6734 C 627.162 -1.37058 -1.07197 0
M  V30 6735 O 628.338 -1.70127 -1.0779 0
M  V30 6736 C 625.403 -3.09303 -1.56628 0
M  V30 6737 C 624.464 -4.18117 -0.973467 0
M  V30 6738 C 623.697 -4.93472 -2.03275 0
M  V30 6739 O 623.92 -4.68913 -3.24772 0
M  V30 6740 O 622.854 -5.78833 -1.65034 0
M  V30 6741 H 626.68 -3.03185 0.176816 0
M  V30 6742 H 624.265 -1.4862 0.152501 0
M  V30 6743 H 626.147 -3.58648 -2.21246 0
M  V30 6744 H 624.822 -2.39098 -2.18206 0
M  V30 6745 H 623.729 -3.7297 -0.290556 0
M  V30 6746 H 625.062 -4.90556 -0.401908 0
M  V30 6747 N 626.714 -0.118576 -1.57153 0
M  V30 6748 C 627.644 0.828436 -2.1831 0
M  V30 6749 C 628.625 1.27758 -1.12303 0
M  V30 6750 O 629.81 1.34026 -1.40537 0
M  V30 6751 C 626.94 2.07876 -2.78217 0
M  V30 6752 C 625.894 1.76742 -3.89803 0
M  V30 6753 C 625.22 3.08801 -4.36516 0
M  V30 6754 C 626.52 1.03606 -5.11921 0
M  V30 6755 H 628.214 0.318824 -2.97698 0
M  V30 6756 H 625.76 0.151911 -1.43196 0
M  V30 6757 H 627.713 2.74584 -3.19659 0
M  V30 6758 H 626.437 2.61161 -1.96118 0
M  V30 6759 H 625.096 1.12424 -3.48936 0
M  V30 6760 H 624.744 3.6002 -3.51276 0
M  V30 6761 H 624.444 2.88743 -5.11763 0
M  V30 6762 H 625.968 3.76627 -4.80608 0
M  V30 6763 H 627.382 1.60467 -5.50385 0
M  V30 6764 H 625.779 0.936454 -5.92748 0
M  V30 6765 H 626.849 0.0227421 -4.84895 0
M  V30 6766 N 628.193 1.56834 0.155195 0
M  V30 6767 C 629.423 1.86778 0.883044 0
M  V30 6768 C 629.831 0.703824 1.75622 0
M  V30 6769 O 629.174 -0.33581 1.80605 0
M  V30 6770 C 629.236 3.1133 1.79761 0
M  V30 6771 C 628.9 4.43504 1.10242 0
M  V30 6772 C 629.897 5.17859 0.460204 0
M  V30 6773 C 627.582 4.90233 1.09437 0
M  V30 6774 C 629.576 6.37144 -0.180782 0
M  V30 6775 C 627.263 6.09444 0.449569 0
M  V30 6776 C 628.261 6.82744 -0.186888 0
M  V30 6777 O 627.949 7.99692 -0.821486 0
M  V30 6778 H 627.681 0.62352 0.261149 0
M  V30 6779 H 630.235 2.04813 0.155204 0
M  V30 6780 H 628.465 2.89282 2.56618 0
M  V30 6781 H 630.154 3.27587 2.39669 0
M  V30 6782 H 630.92 4.8283 0.458289 0
M  V30 6783 H 626.799 4.33109 1.57917 0
M  V30 6784 H 630.343 6.94296 -0.678154 0
M  V30 6785 H 626.24 6.43936 0.449123 0
M  V30 6786 H 627.008 8.15306 -0.722337 0
M  V30 6787 N 629.671 -0.424282 1.51781 0
M  V30 6788 C 630.917 -1.17434 1.6534 0
M  V30 6789 C 631.25 -1.90549 0.374806 0
M  V30 6790 O 630.525 -1.84145 -0.626179 0
M  V30 6791 C 630.808 -2.18093 2.86544 0
M  V30 6792 C 630.661 -1.48975 4.24413 0
M  V30 6793 C 631.98 -3.18934 3.03264 0
M  V30 6794 H 629.099 -0.425566 0.601716 0
M  V30 6795 H 631.741 -0.461921 1.84299 0
M  V30 6796 H 629.891 -2.78849 2.7051 0
M  V30 6797 H 631.563 -0.914551 4.52143 0
M  V30 6798 H 629.806 -0.791893 4.26511 0
M  V30 6799 H 630.477 -2.22347 5.05238 0
M  V30 6800 H 632.953 -2.68243 3.18096 0
M  V30 6801 H 631.829 -3.86645 3.89611 0
M  V30 6802 H 632.09 -3.85793 2.15908 0
M  V30 6803 N 631.149 -1.42148 -0.680565 0
M  V30 6804 C 632.398 -1.41604 -1.43636 0
M  V30 6805 C 632.711 -0.0337887 -1.95571 0
M  V30 6806 O 633.917 0.0942588 -2.71336 0
M  V30 6807 C 632.373 -2.49056 -2.59806 0
M  V30 6808 C 631.981 -3.9326 -2.14594 0
M  V30 6809 C 633.725 -2.5767 -3.37352 0
M  V30 6810 C 631.632 -4.92232 -3.27813 0
M  V30 6811 H 630.562 -0.526656 -0.539583 0
M  V30 6812 H 633.213 -1.68033 -0.737369 0
M  V30 6813 H 631.595 -2.15782 -3.32045 0
M  V30 6814 H 632.769 -4.35858 -1.49546 0
M  V30 6815 H 631.084 -3.88443 -1.50002 0
M  V30 6816 H 633.681 -3.28794 -4.21662 0
M  V30 6817 H 634.024 -1.61837 -3.83555 0
M  V30 6818 H 634.557 -2.90109 -2.72179 0
M  V30 6819 H 631.296 -5.89522 -2.86607 0
M  V30 6820 H 630.816 -4.5427 -3.91661 0
M  V30 6821 H 632.495 -5.13684 -3.93367 0
M  V30 6822 N 632.627 0.916307 -1.28225 0
M  V30 6823 C 633.904 1.64429 -1.05936 0
M  V30 6824 C 634.284 2.07234 0.402139 0
M  V30 6825 O 633.632 1.81535 1.3877 0
M  V30 6826 C 633.842 2.83773 -2.03159 0
M  V30 6827 C 635.19 3.54852 -2.33164 0
M  V30 6828 O 636.214 2.93918 -2.01223 0
M  V30 6829 O 635.073 4.64663 -2.87664 0
M  V30 6830 H 632.167 0.721221 -0.404683 0
M  V30 6831 H 634.713 0.965838 -1.39534 0
M  V30 6832 H 633.485 2.49217 -3.01673 0
M  V30 6833 H 633.108 3.59333 -1.70192 0
M  V30 6834 N 634.105 1.10431 1.1244 0
M  V30 6835 C 635.351 0.847972 1.84221 0
M  V30 6836 C 635.684 -0.624903 1.83871 0
M  V30 6837 O 634.959 -1.46074 1.28423 0
M  V30 6838 C 635.242 1.39695 3.319 0
M  V30 6839 C 635.095 2.93668 3.40704 0
M  V30 6840 C 636.414 1.03924 4.27654 0
M  V30 6841 H 633.533 0.309502 0.668863 0
M  V30 6842 H 636.175 1.36745 1.31912 0
M  V30 6843 H 634.325 0.955095 3.76577 0
M  V30 6844 H 635.997 3.46379 3.04662 0
M  V30 6845 H 634.24 3.30272 2.81252 0
M  V30 6846 H 634.911 3.27162 4.446 0
M  V30 6847 H 637.387 1.42049 3.91102 0
M  V30 6848 H 636.263 1.45027 5.29394 0
M  V30 6849 H 636.524 -0.051336 4.4207 0
M  V30 6850 N 635.583 -1.29855 0.893053 0
M  V30 6851 C 636.531 -2.29867 0.355512 0
M  V30 6852 C 637.525 -1.60502 -0.541801 0
M  V30 6853 O 638.731 -1.74902 -0.425339 0
M  V30 6854 H 635.106 -0.745805 0.0963247 0
M  V30 6855 H 637.077 -2.72655 1.21252 0
M  V30 6856 C 635.826 -3.453 -0.407801 0
M  V30 6857 H 635.149 -3.98864 0.273426 0
M  V30 6858 H 636.589 -4.17334 -0.748887 0
M  V30 6859 C 635.048 -2.96051 -1.60795 0
M  V30 6860 O 635.578 -2.96763 -2.7073 0
M  V30 6861 N 633.784 -2.51963 -1.44786 0
M  V30 6862 H 633.331 -2.51583 -0.553498 0
M  V30 6863 H 633.289 -2.1937 -2.2522 0
M  V30 6864 N 637.061 -0.65484 -1.43351 0
M  V30 6865 C 638.31 -0.166215 -2.01014 0
M  V30 6866 C 638.623 1.22764 -1.52278 0
M  V30 6867 O 639.829 1.81156 -2.02224 0
M  V30 6868 C 638.285 -0.246341 -3.59056 0
M  V30 6869 C 637.893 -1.64299 -4.16785 0
M  V30 6870 C 639.637 0.184597 -4.24098 0
M  V30 6871 C 637.544 -1.67695 -5.67126 0
M  V30 6872 H 636.474 -0.0583769 -0.751737 0
M  V30 6873 H 639.125 -0.817111 -1.64303 0
M  V30 6874 H 637.507 0.472092 -3.93176 0
M  V30 6875 H 638.681 -2.3869 -3.94162 0
M  V30 6876 H 636.996 -2.02004 -3.6412 0
M  V30 6877 H 639.593 0.179088 -5.344 0
M  V30 6878 H 639.936 1.21632 -3.98135 0
M  V30 6879 H 640.469 -0.482141 -3.94867 0
M  V30 6880 H 637.208 -2.68783 -5.9786 0
M  V30 6881 H 636.728 -0.976313 -5.91801 0
M  V30 6882 H 638.407 -1.42142 -6.31193 0
M  V30 6883 N 638.539 1.52521 -0.396863 0
M  V30 6884 C 639.487 2.28217 0.44943 0
M  V30 6885 C 640.481 1.32416 1.05652 0
M  V30 6886 O 641.687 1.49925 0.996124 0
M  V30 6887 H 638.062 0.733966 0.1637 0
M  V30 6888 H 640.033 2.97658 -0.210367 0
M  V30 6889 C 638.782 3.10713 1.56054 0
M  V30 6890 H 638.105 3.84291 1.10273 0
M  V30 6891 H 639.545 3.66803 2.12677 0
M  V30 6892 C 638.004 2.23499 2.52091 0
M  V30 6893 O 638.534 1.8669 3.55682 0
M  V30 6894 N 636.74 1.8751 2.2201 0
M  V30 6895 H 636.287 2.17643 1.37802 0
M  V30 6896 H 636.245 1.29448 2.86514 0
M  V30 6897 N 640.017 0.126909 1.57088 0
M  V30 6898 C 641.266 -0.529024 1.94639 0
M  V30 6899 C 641.579 -1.67323 1.01304 0
M  V30 6900 O 642.785 -2.39245 1.28352 0
M  V30 6901 C 641.241 -0.992483 3.45945 0
M  V30 6902 C 640.849 0.123691 4.47829 0
M  V30 6903 C 642.593 -1.61934 3.924 0
M  V30 6904 C 640.5 -0.356911 5.90322 0
M  V30 6905 H 639.43 -0.201397 0.726605 0
M  V30 6906 H 642.081 0.208032 1.82317 0
M  V30 6907 H 640.463 -1.7842 3.53528 0
M  V30 6908 H 641.637 0.900168 4.51922 0
M  V30 6909 H 639.952 0.657699 4.11173 0
M  V30 6910 H 642.549 -1.9902 4.96281 0
M  V30 6911 H 642.892 -2.50075 3.32819 0
M  V30 6912 H 643.425 -0.892894 3.8765 0
M  V30 6913 H 640.164 0.488636 6.53676 0
M  V30 6914 H 639.684 -1.0997 5.89633 0
M  V30 6915 H 641.363 -0.815547 6.41839 0
M  V30 6916 N 641.495 -1.56914 -0.146875 0
M  V30 6917 C 642.72 -1.87881 -0.878386 0
M  V30 6918 C 643.145 -0.715945 -1.73942 0
M  V30 6919 O 642.503 0.334447 -1.78189 0
M  V30 6920 C 642.551 -3.17431 -1.71084 0
M  V30 6921 O 641.655 -3.01374 -2.81509 0
M  V30 6922 H 640.996 -0.617289 -0.244644 0
M  V30 6923 H 643.526 -2.04136 -0.137654 0
M  V30 6924 H 643.536 -3.49455 -2.10582 0
M  V30 6925 H 642.211 -4.01671 -1.07856 0
M  V30 6926 H 640.788 -2.80758 -2.45416 0
M  V30 6927 N 642.974 0.416227 -1.52004 0
M  V30 6928 C 644.214 1.17307 -1.67387 0
M  V30 6929 C 644.578 1.87959 -0.39183 0
M  V30 6930 O 645.779 2.65472 -0.421671 0
M  V30 6931 C 644.05 2.14661 -2.85754 0
M  V30 6932 S 645.609 2.98549 -3.21581 0
M  V30 6933 H 642.427 0.397505 -0.5895 0
M  V30 6934 H 645.029 0.461431 -1.89976 0
M  V30 6935 H 643.733 1.61431 -3.77317 0
M  V30 6936 H 643.264 2.90375 -2.65417 0
M  V30 6937 H 645.279 4.16536 -2.69652 0
M  V30 6938 N 644.452 1.42507 0.673017 0
M  V30 6939 C 645.362 1.4853 1.81593 0
M  V30 6940 C 646.378 0.373907 1.69935 0
M  V30 6941 O 647.554 0.625078 1.91454 0
M  V30 6942 C 644.619 1.387 3.17747 0
M  V30 6943 C 643.68 2.60346 3.41348 0
M  V30 6944 C 642.913 2.50975 4.71007 0
M  V30 6945 O 643.136 1.54659 5.49033 0
M  V30 6946 O 642.07 3.41138 4.95892 0
M  V30 6947 H 645.896 2.45001 1.79467 0
M  V30 6948 H 643.481 1.2429 0.82899 0
M  V30 6949 H 645.363 1.35586 3.98992 0
M  V30 6950 H 644.038 0.453555 3.20507 0
M  V30 6951 H 642.945 2.69034 2.59945 0
M  V30 6952 H 644.278 3.52595 3.43421 0
M  V30 6953 N 645.93 -0.909495 1.28709 0
M  V30 6954 C 647.158 -1.69272 1.18973 0
M  V30 6955 C 647.573 -1.87123 -0.251048 0
M  V30 6956 O 646.93 -1.40127 -1.16922 0
M  V30 6957 C 646.981 -3.08257 1.88839 0
M  V30 6958 O 646.702 -2.91228 3.27289 0
M  V30 6959 C 648.203 -4.02642 1.85457 0
M  V30 6960 H 645.423 -0.528999 0.412797 0
M  V30 6961 H 647.967 -1.13803 1.69909 0
M  V30 6962 H 646.122 -3.6053 1.41762 0
M  V30 6963 H 646.536 -3.79223 3.6234 0
M  V30 6964 H 648.01 -4.97613 2.38925 0
M  V30 6965 H 648.487 -4.31327 0.827893 0
M  V30 6966 H 649.093 -3.56298 2.32233 0
M  V30 6967 N 647.408 -1.11026 -1.11852 0
M  V30 6968 C 648.685 -0.768347 -1.79877 0
M  V30 6969 C 649.065 0.744261 -1.97545 0
M  V30 6970 O 648.413 1.67271 -1.55669 0
M  V30 6971 C 648.623 -1.52648 -3.13846 0
M  V30 6972 C 649.971 -1.70297 -3.88953 0
M  V30 6973 O 650.995 -1.49037 -3.23522 0
M  V30 6974 O 649.854 -2.05593 -5.06353 0
M  V30 6975 H 646.948 -0.277891 -0.778913 0
M  V30 6976 H 649.494 -1.21343 -1.18633 0
M  V30 6977 H 648.266 -2.55564 -2.96315 0
M  V30 6978 H 647.889 -1.07466 -3.82801 0
M  V30 6979 N 648.886 1.2938 -0.899927 0
M  V30 6980 C 650.134 1.95164 -0.524924 0
M  V30 6981 C 650.455 1.71292 0.931888 0
M  V30 6982 O 649.725 1.04481 1.65712 0
M  V30 6983 H 648.305 0.722133 -0.191135 0
M  V30 6984 H 650.967 1.57628 -1.14627 0
M  V30 6985 H 650.063 3.0397 -0.707711 0
M  V30 6986 N 650.364 0.662433 1.43002 0
M  V30 6987 C 651.594 0.187343 2.05749 0
M  V30 6988 C 652.002 -1.15582 1.49791 0
M  V30 6989 O 651.345 -1.72651 0.627487 0
M  V30 6990 C 651.407 0.0316493 3.59486 0
M  V30 6991 C 651.071 1.30156 4.38073 0
M  V30 6992 C 652.068 2.23234 4.69535 0
M  V30 6993 C 649.753 1.54572 4.77926 0
M  V30 6994 C 651.747 3.39012 5.39768 0
M  V30 6995 C 649.434 2.70641 5.47902 0
M  V30 6996 C 650.432 3.62687 5.78746 0
M  V30 6997 O 650.12 4.76728 6.47291 0
M  V30 6998 H 649.852 0.0915214 0.669776 0
M  V30 6999 H 652.406 0.905982 1.8434 0
M  V30 7000 H 650.636 -0.742451 3.79506 0
M  V30 7001 H 652.325 -0.401977 4.03905 0
M  V30 7002 H 653.091 2.05616 4.39257 0
M  V30 7003 H 648.97 0.83804 4.53319 0
M  V30 7004 H 652.514 4.10877 5.63761 0
M  V30 7005 H 648.411 2.88189 5.77596 0
M  V30 7006 H 649.179 4.76113 6.65777 0
M  V30 7007 N 651.842 -1.52309 0.404946 0
M  V30 7008 C 652.772 -2.29805 -0.41376 0
M  V30 7009 C 653.753 -1.3384 -1.0498 0
M  V30 7010 O 654.938 -1.62745 -1.05961 0
M  V30 7011 C 652.068 -3.11639 -1.53292 0
M  V30 7012 C 651.022 -4.15616 -1.02211 0
M  V30 7013 C 650.348 -4.8577 -2.23455 0
M  V30 7014 C 651.648 -5.2224 -0.0790725 0
M  V30 7015 H 653.342 -2.98493 0.232878 0
M  V30 7016 H 650.888 -1.43552 0.113441 0
M  V30 7017 H 652.841 -3.64618 -2.11262 0
M  V30 7018 H 651.565 -2.40712 -2.20738 0
M  V30 7019 H 650.224 -3.63641 -0.46484 0
M  V30 7020 H 649.872 -4.11376 -2.89445 0
M  V30 7021 H 649.572 -5.56058 -1.89929 0
M  V30 7022 H 651.096 -5.4156 -2.82038 0
M  V30 7023 H 652.51 -5.70485 -0.567438 0
M  V30 7024 H 650.907 -5.99867 0.167167 0
M  V30 7025 H 651.977 -4.77078 0.867447 0
M  V30 7026 N 653.32 -0.135238 -1.57019 0
M  V30 7027 C 654.548 0.526066 -2.001 0
M  V30 7028 C 654.963 1.59184 -1.01519 0
M  V30 7029 O 654.32 1.82497 -0.0104258 0
M  V30 7030 C 654.371 1.13744 -3.43139 0
M  V30 7031 O 654.092 0.114259 -4.37951 0
M  V30 7032 C 655.593 1.8805 -4.01438 0
M  V30 7033 H 652.813 0.137962 -0.656664 0
M  V30 7034 H 655.357 -0.226359 -2.03243 0
M  V30 7035 H 653.512 1.84056 -3.40885 0
M  V30 7036 H 653.926 0.56058 -5.21496 0
M  V30 7037 H 655.4 2.26133 -5.03555 0
M  V30 7038 H 655.877 2.76194 -3.41487 0
M  V30 7039 H 656.483 1.22464 -4.07287 0
M  V30 7040 N 654.798 1.5699 0.138552 0
M  V30 7041 C 655.745 1.98899 1.17081 0
M  V30 7042 C 656.715 0.857922 1.42228 0
M  V30 7043 O 657.9 1.12065 1.54422 0
M  V30 7044 C 655.04 2.38189 2.4972 0
M  V30 7045 C 654.153 3.64624 2.31674 0
M  V30 7046 C 653.288 3.9298 3.57407 0
M  V30 7047 C 652.327 5.1266 3.34435 0
M  V30 7048 N 651.464 5.36983 4.5232 0
M  V30 7049 H 656.304 2.86881 0.80642 0
M  V30 7050 H 653.841 1.41925 0.386727 0
M  V30 7051 H 655.799 2.59 3.2707 0
M  V30 7052 H 654.429 1.53275 2.84089 0
M  V30 7053 H 653.481 3.51542 1.45337 0
M  V30 7054 H 654.793 4.52131 2.10664 0
M  V30 7055 H 653.947 4.14335 4.43183 0
M  V30 7056 H 652.686 3.03912 3.8143 0
M  V30 7057 H 651.691 4.9117 2.47048 0
M  V30 7058 H 652.916 6.03288 3.11802 0
M  V30 7059 H 650.862 4.50871 4.76499 0
M  V30 7060 H 650.779 6.18775 4.34343 0
M  V30 7061 H 652.047 5.62842 5.39285 0
M  V30 7062 N 656.276 -0.40816 1.52223 0
M  V30 7063 C 657.209 -1.51834 1.70357 0
M  V30 7064 C 658.187 -1.52973 0.551171 0
M  V30 7065 O 659.371 -1.71667 0.778642 0
M  V30 7066 C 656.498 -2.90362 1.74378 0
M  V30 7067 C 655.544 -3.0713 2.95928 0
M  V30 7068 S 656.377 -2.80342 4.56255 0
M  V30 7069 C 657.533 -4.21098 4.63063 0
M  V30 7070 H 657.766 -1.36223 2.64255 0
M  V30 7071 H 655.299 -0.599798 1.42274 0
M  V30 7072 H 657.257 -3.70199 1.77379 0
M  V30 7073 H 655.918 -3.03314 0.816063 0
M  V30 7074 H 655.111 -4.08482 2.95226 0
M  V30 7075 H 654.713 -2.3516 2.90819 0
M  V30 7076 H 657.005 -5.14749 4.40499 0
M  V30 7077 H 657.948 -4.26823 5.65002 0
M  V30 7078 H 658.356 -4.06114 3.92086 0
M  V30 7079 N 657.755 -1.42862 -0.66545 0
M  V30 7080 C 658.983 -1.47246 -1.45349 0
M  V30 7081 C 659.398 -0.0865944 -1.88601 0
M  V30 7082 O 658.755 0.900652 -1.58728 0
M  V30 7083 C 658.806 -2.40772 -2.6965 0
M  V30 7084 O 658.527 -3.73968 -2.2821 0
M  V30 7085 C 660.028 -2.54272 -3.63126 0
M  V30 7086 H 657.248 -0.500497 -0.446927 0
M  V30 7087 H 659.792 -1.87477 -0.816871 0
M  V30 7088 H 657.947 -2.0377 -3.29479 0
M  V30 7089 H 658.361 -4.24146 -3.08546 0
M  V30 7090 H 659.835 -3.23815 -4.47043 0
M  V30 7091 H 660.312 -1.58364 -4.09656 0
M  V30 7092 H 660.918 -2.92036 -3.09185 0
M  V30 7093 N 659.233 0.902656 -1.29189 0
M  V30 7094 C 660.473 1.6672 -1.18254 0
M  V30 7095 C 660.837 1.90199 0.262336 0
M  V30 7096 O 662.038 2.6421 0.494612 0
M  V30 7097 C 660.309 2.98178 -1.9704 0
M  V30 7098 S 661.868 3.89226 -2.02605 0
M  V30 7099 H 658.686 0.572432 -0.421714 0
M  V30 7100 H 661.288 1.07279 -1.63436 0
M  V30 7101 H 659.992 2.788 -3.01163 0
M  V30 7102 H 659.523 3.62661 -1.5245 0
M  V30 7103 H 661.538 4.82913 -1.14059 0
M  V30 7104 N 660.711 1.11618 1.11262 0
M  V30 7105 C 662.127 0.850468 1.35053 0
M  V30 7106 C 662.327 -0.523868 1.94571 0
M  V30 7107 O 661.383 -1.2743 2.17986 0
M  V30 7108 C 662.696 1.96005 2.28041 0
M  V30 7109 C 664.244 1.98993 2.416 0
M  V30 7110 C 664.719 3.0916 3.37911 0
M  V30 7111 N 666.21 3.08547 3.45475 0
M  V30 7112 C 666.945 3.9043 4.19943 0
M  V30 7113 N 666.441 4.8228 4.97371 0
M  V30 7114 N 668.234 3.786 4.15474 0
M  V30 7115 H 660.385 2.00184 0.709932 0
M  V30 7116 H 662.648 0.870635 0.375099 0
M  V30 7117 H 662.354 2.9499 1.91503 0
M  V30 7118 H 662.228 1.85782 3.28275 0
M  V30 7119 H 664.615 1.00633 2.77411 0
M  V30 7120 H 664.696 2.13292 1.4121 0
M  V30 7121 H 664.34 4.07748 3.02827 0
M  V30 7122 H 664.27 2.92102 4.3816 0
M  V30 7123 H 666.761 2.42 2.90249 0
M  V30 7124 H 667.074 5.41289 5.51567 0
M  V30 7125 H 665.419 4.863 4.96525 0
M  V30 7126 H 668.61 3.06185 3.54074 0
M  V30 7127 H 668.783 4.42647 4.73253 0
M  V30 7128 N 662.189 -1.289 0.906776 0
M  V30 7129 C 663.435 -1.95919 0.546551 0
M  V30 7130 C 663.79 -1.70126 -0.8986 0
M  V30 7131 O 663.083 -1.00775 -1.62957 0
M  V30 7132 C 663.277 -3.48704 0.783617 0
M  V30 7133 C 663.106 -3.8935 2.25026 0
M  V30 7134 C 661.876 -4.13864 2.89905 0
M  V30 7135 C 664.074 -4.00535 3.22608 0
M  V30 7136 N 662.056 -4.41131 4.26939 0
M  V30 7137 C 663.427 -4.31936 4.44783 0
M  V30 7138 C 665.482 -3.83035 3.18102 0
M  V30 7139 C 664.185 -4.47659 5.63022 0
M  V30 7140 C 666.211 -3.99971 4.35634 0
M  V30 7141 C 665.573 -4.31738 5.5658 0
M  V30 7142 H 661.672 -0.74105 0.249737 0
M  V30 7143 H 664.256 -1.55696 1.16906 0
M  V30 7144 H 662.427 -3.87933 0.190437 0
M  V30 7145 H 664.159 -4.02835 0.38812 0
M  V30 7146 H 660.914 -4.07893 2.40666 0
M  V30 7147 H 661.338 -4.5886 4.97771 0
M  V30 7148 H 665.98 -3.57533 2.25677 0
M  V30 7149 H 663.698 -4.71995 6.55932 0
M  V30 7150 H 667.284 -3.87874 4.33641 0
M  V30 7151 H 666.164 -4.44568 6.4601 0
M  V30 7152 N 663.667 -0.670007 -1.42649 0
M  V30 7153 C 664.892 -0.196955 -2.06463 0
M  V30 7154 C 665.317 1.1352 -1.49983 0
M  V30 7155 O 664.675 1.705 -0.616397 0
M  V30 7156 C 664.723 -0.137381 -3.60338 0
M  V30 7157 O 663.827 0.895523 -4.02559 0
M  V30 7158 H 663.168 -0.102579 -0.656029 0
M  V30 7159 H 665.698 -0.917669 -1.82866 0
M  V30 7160 H 665.708 0.0403625 -4.0798 0
M  V30 7161 H 664.383 -1.10977 -4.0082 0
M  V30 7162 H 662.96 0.689209 -3.66476 0
M  V30 7163 N 665.145 1.52092 -0.413018 0
M  V30 7164 C 666.373 2.06274 0.160881 0
M  V30 7165 C 666.788 1.28273 1.38533 0
M  V30 7166 O 666.145 0.33563 1.79387 0
M  V30 7167 C 666.196 3.57921 0.507443 0
M  V30 7168 O 665.917 4.32971 -0.668388 0
M  V30 7169 C 667.418 4.28533 1.13465 0
M  V30 7170 H 664.638 0.67074 0.0186759 0
M  V30 7171 H 667.182 1.95951 -0.585092 0
M  V30 7172 H 665.337 3.68238 1.20331 0
M  V30 7173 H 665.751 5.23135 -0.378169 0
M  V30 7174 H 667.225 5.35804 1.32732 0
M  V30 7175 H 667.702 3.85258 2.10886 0
M  V30 7176 H 668.308 4.22595 0.478876 0
M  V30 7177 N 666.623 0.143563 1.56945 0
M  V30 7178 C 667.848 -0.518701 2.00809 0
M  V30 7179 C 668.273 -1.5785 1.02298 0
M  V30 7180 O 667.631 -1.813 -0.0017839 0
M  V30 7181 C 667.679 -1.09929 3.43436 0
M  V30 7182 O 666.783 -2.21425 3.47915 0
M  V30 7183 H 666.124 -0.127215 0.6517 0
M  V30 7184 H 668.654 0.239283 2.03196 0
M  V30 7185 H 668.664 -1.4288 3.82164 0
M  V30 7186 H 667.339 -0.323162 4.14643 0
M  V30 7187 H 665.916 -1.89728 3.21026 0
M  V30 7188 N 668.101 -1.57061 -0.130224 0
M  V30 7189 C 669.329 -1.88432 -0.854456 0
M  V30 7190 C 669.744 -0.733608 -1.73964 0
M  V30 7191 O 669.101 0.296029 -1.80083 0
M  V30 7192 C 669.152 -3.1918 -1.69724 0
M  V30 7193 O 668.873 -4.2982 -0.847705 0
M  V30 7194 C 670.374 -3.6418 -2.5276 0
M  V30 7195 H 667.594 -0.624193 -0.246221 0
M  V30 7196 H 670.138 -2.04159 -0.11798 0
M  V30 7197 H 668.293 -3.05156 -2.3866 0
M  V30 7198 H 668.707 -5.04689 -1.42792 0
M  V30 7199 H 670.181 -4.58457 -3.07443 0
M  V30 7200 H 670.658 -2.90285 -3.29592 0
M  V30 7201 H 671.264 -3.80954 -1.89087 0
M  V30 7202 N 669.579 0.400081 -1.52437 0
M  V30 7203 C 670.828 1.14332 -1.66166 0
M  V30 7204 C 671.141 1.91419 -0.402253 0
M  V30 7205 O 672.347 2.6824 -0.419487 0
M  V30 7206 C 670.803 2.08137 -2.9361 0
M  V30 7207 C 670.411 1.36524 -4.26691 0
M  V30 7208 C 672.155 2.82664 -3.16703 0
M  V30 7209 C 670.062 2.29031 -5.45251 0
M  V30 7210 H 668.992 0.430499 -0.61902 0
M  V30 7211 H 671.643 0.407017 -1.78929 0
M  V30 7212 H 670.025 2.85358 -2.74567 0
M  V30 7213 H 671.199 0.646061 -4.56249 0
M  V30 7214 H 669.514 0.74002 -4.09771 0
M  V30 7215 H 672.111 3.52037 -4.0246 0
M  V30 7216 H 672.454 3.46122 -2.31312 0
M  V30 7217 H 672.987 2.12541 -3.36261 0
M  V30 7218 H 669.726 1.70206 -6.33017 0
M  V30 7219 H 669.246 2.98896 -5.2002 0
M  V30 7220 H 670.925 2.89359 -5.78689 0
M  V30 7221 N 671.057 1.43213 0.657864 0
M  V30 7222 C 671.989 1.43974 1.78337 0
M  V30 7223 C 673.002 0.336482 1.59285 0
M  V30 7224 O 674.191 0.600631 1.68091 0
M  V30 7225 C 671.291 1.23242 3.15697 0
M  V30 7226 C 670.464 2.46319 3.61449 0
M  V30 7227 C 669.523 2.2088 4.77597 0
M  V30 7228 O 668.549 2.942 4.87273 0
M  V30 7229 N 669.751 1.22251 5.67481 0
M  V30 7230 H 672.516 2.40993 1.78164 0
M  V30 7231 H 670.077 1.3831 0.841549 0
M  V30 7232 H 672.069 1.04113 3.91079 0
M  V30 7233 H 670.639 0.346849 3.1067 0
M  V30 7234 H 669.859 2.80904 2.76563 0
M  V30 7235 H 671.147 3.28239 3.88763 0
M  V30 7236 H 670.545 0.616433 5.62331 0
M  V30 7237 H 669.102 1.09107 6.42603 0
M  V30 7238 N 672.536 -0.895792 1.29666 0
M  V30 7239 C 673.761 -1.68528 1.20885 0
M  V30 7240 C 674.186 -1.8673 -0.226595 0
M  V30 7241 O 673.544 -1.39044 -1.16347 0
M  V30 7242 C 673.592 -3.04512 1.93144 0
M  V30 7243 O 672.696 -3.92963 1.25115 0
M  V30 7244 H 672.037 -0.515371 0.418675 0
M  V30 7245 H 674.567 -1.11878 1.71302 0
M  V30 7246 H 674.577 -3.54628 2.0175 0
M  V30 7247 H 673.252 -2.90582 2.97548 0
M  V30 7248 H 671.829 -3.51399 1.24794 0
M  V30 7249 N 674.014 -1.12206 -1.10668 0
M  V30 7250 C 674.944 -0.810086 -2.18997 0
M  V30 7251 C 675.925 0.225065 -1.68604 0
M  V30 7252 O 677.11 0.086783 -1.94006 0
M  V30 7253 C 674.24 -0.261262 -3.46316 0
M  V30 7254 C 673.194 -1.2292 -4.09969 0
M  V30 7255 C 672.52 -0.540713 -5.31959 0
M  V30 7256 C 673.82 -2.58295 -4.53962 0
M  V30 7257 H 675.514 -1.7159 -2.45352 0
M  V30 7258 H 673.06 -0.82646 -1.17922 0
M  V30 7259 H 675.013 -0.0307522 -4.21389 0
M  V30 7260 H 673.737 0.679879 -3.19445 0
M  V30 7261 H 672.396 -1.44548 -3.369 0
M  V30 7262 H 672.044 0.405492 -5.01363 0
M  V30 7263 H 671.744 -1.18637 -5.75499 0
M  V30 7264 H 673.268 -0.319184 -6.09765 0
M  V30 7265 H 674.682 -2.40709 -5.20319 0
M  V30 7266 H 673.079 -3.18916 -5.08343 0
M  V30 7267 H 674.149 -3.16918 -3.67002 0
M  V30 7268 N 675.492 1.28418 -0.913599 0
M  V30 7269 C 676.455 2.25564 -0.406624 0
M  V30 7270 C 677.455 1.5387 0.466965 0
M  V30 7271 O 678.645 1.72094 0.270042 0
M  V30 7272 C 675.777 3.38339 0.417053 0
M  V30 7273 H 676.97 2.71926 -1.26477 0
M  V30 7274 H 674.523 1.40098 -0.692986 0
M  V30 7275 H 675.258 2.97339 1.29461 0
M  V30 7276 H 675.043 3.91542 -0.209102 0
M  V30 7277 H 676.533 4.10578 0.762602 0
M  V30 7278 N 676.97 0.677563 1.42291 0
M  V30 7279 C 677.88 0.000962654 2.346 0
M  V30 7280 C 678.896 -0.785833 1.55244 0
M  V30 7281 O 680.072 -0.727523 1.87801 0
M  V30 7282 C 677.137 -0.936746 3.33805 0
M  V30 7283 C 676.198 -0.144173 4.29058 0
M  V30 7284 C 675.431 -1.03722 5.23524 0
M  V30 7285 O 675.654 -2.27675 5.22992 0
M  V30 7286 O 674.588 -0.496542 5.99848 0
M  V30 7287 H 678.414 0.761397 2.94001 0
M  V30 7288 H 675.999 0.43781 1.42841 0
M  V30 7289 H 677.881 -1.47497 3.94744 0
M  V30 7290 H 676.556 -1.67698 2.76874 0
M  V30 7291 H 675.463 0.438224 3.71524 0
M  V30 7292 H 676.796 0.55701 4.89038 0
M  V30 7293 N 678.448 -1.51871 0.421078 0
M  V30 7294 C 679.673 -2.0684 -0.152371 0
M  V30 7295 C 680.098 -1.28802 -1.37083 0
M  V30 7296 O 679.456 -0.321482 -1.78427 0
M  V30 7297 C 679.504 -3.57532 -0.469368 0
M  V30 7298 O 678.608 -3.81818 -1.55848 0
M  V30 7299 H 677.949 -0.663939 -0.00898586 0
M  V30 7300 H 680.479 -1.95674 0.597724 0
M  V30 7301 H 680.489 -4.01515 -0.724553 0
M  V30 7302 H 679.164 -4.13761 0.421276 0
M  V30 7303 H 677.741 -3.49709 -1.29453 0
M  V30 7304 N 679.926 -0.151884 -1.56866 0
M  V30 7305 C 681.154 0.504813 -2.00647 0
M  V30 7306 C 681.569 1.58098 -1.03201 0
M  V30 7307 O 680.926 1.82476 -0.0297814 0
M  V30 7308 C 680.977 1.10099 -3.44326 0
M  V30 7309 O 680.698 0.0678021 -4.38048 0
M  V30 7310 C 682.199 1.83782 -4.03409 0
M  V30 7311 H 679.419 0.130989 -0.65809 0
M  V30 7312 H 681.963 -0.247903 -2.02992 0
M  V30 7313 H 680.118 1.8043 -3.42817 0
M  V30 7314 H 680.532 0.505237 -5.22061 0
M  V30 7315 H 682.006 2.2078 -5.05925 0
M  V30 7316 H 682.483 2.72557 -3.44397 0
M  V30 7317 H 683.089 1.18138 -4.08563 0
M  V30 7318 N 681.404 1.57128 0.121893 0
M  V30 7319 C 682.334 2.03165 1.15092 0
M  V30 7320 C 683.315 0.915587 1.43356 0
M  V30 7321 O 684.5 1.1851 1.53847 0
M  V30 7322 C 681.63 2.43352 2.47784 0
M  V30 7323 C 680.584 3.58376 2.33989 0
M  V30 7324 C 679.91 3.84454 3.71617 0
M  V30 7325 C 681.21 4.90199 1.80283 0
M  V30 7326 H 682.904 2.89382 0.768023 0
M  V30 7327 H 680.45 1.39218 0.367998 0
M  V30 7328 H 682.403 2.74163 3.20019 0
M  V30 7329 H 681.127 1.54103 2.87958 0
M  V30 7330 H 679.786 3.2777 1.64202 0
M  V30 7331 H 679.434 2.92414 4.09271 0
M  V30 7332 H 679.134 4.61877 3.6324 0
M  V30 7333 H 680.658 4.17714 4.45362 0
M  V30 7334 H 682.072 5.19565 2.42333 0
M  V30 7335 H 680.469 5.71601 1.82735 0
M  V30 7336 H 681.539 4.78904 0.760184 0
M  V30 7337 N 682.882 -0.391992 1.52647 0
M  V30 7338 C 683.814 -1.49811 1.73463 0
M  V30 7339 C 684.827 -1.50734 0.615078 0
M  V30 7340 O 686.016 -1.5469 0.890696 0
M  V30 7341 C 683.116 -2.88667 1.77552 0
M  V30 7342 C 682.289 -3.11743 3.06815 0
M  V30 7343 C 681.348 -4.30564 3.02491 0
M  V30 7344 O 680.374 -4.27014 3.76361 0
M  V30 7345 N 681.576 -5.36593 2.21468 0
M  V30 7346 H 684.341 -1.32343 2.68897 0
M  V30 7347 H 681.902 -0.581475 1.51098 0
M  V30 7348 H 683.894 -3.66251 1.7217 0
M  V30 7349 H 682.464 -2.99508 0.895181 0
M  V30 7350 H 681.684 -2.2205 3.25711 0
M  V30 7351 H 682.972 -3.24013 3.92292 0
M  V30 7352 H 682.37 -5.42332 1.60913 0
M  V30 7353 H 680.927 -6.12855 2.21928 0
M  V30 7354 N 684.36 -1.4356 -0.65026 0
M  V30 7355 C 685.29 -1.51758 -1.77459 0
M  V30 7356 C 686.271 -0.372019 -1.65982 0
M  V30 7357 O 687.456 -0.589627 -1.85033 0
M  V30 7358 C 684.586 -1.44302 -3.15902 0
M  V30 7359 C 683.54 -2.57138 -3.42146 0
M  V30 7360 C 682.866 -2.34735 -4.8042 0
M  V30 7361 C 684.166 -3.99373 -3.36598 0
M  V30 7362 H 685.86 -2.45863 -1.70855 0
M  V30 7363 H 683.406 -1.18333 -0.820566 0
M  V30 7364 H 685.359 -1.48641 -3.94314 0
M  V30 7365 H 684.083 -0.467026 -3.23244 0
M  V30 7366 H 682.742 -2.52157 -2.66106 0
M  V30 7367 H 682.39 -1.35372 -4.84441 0
M  V30 7368 H 682.09 -3.10375 -4.9894 0
M  V30 7369 H 683.614 -2.40862 -5.61086 0
M  V30 7370 H 685.028 -4.05826 -4.04942 0
M  V30 7371 H 683.425 -4.75063 -3.66654 0
M  V30 7372 H 684.495 -4.243 -2.34729 0
M  V30 7373 N 685.838 0.888903 -1.30139 0
M  V30 7374 C 687.254 1.17153 -1.08385 0
M  V30 7375 C 687.454 2.0088 0.157925 0
M  V30 7376 O 686.51 2.37668 0.852652 0
M  V30 7377 C 687.823 1.882 -2.34523 0
M  V30 7378 C 689.371 2.00981 -2.39949 0
M  V30 7379 C 689.846 2.75441 -3.65918 0
M  V30 7380 N 691.337 2.82989 -3.66704 0
M  V30 7381 C 692.072 3.41167 -4.60861 0
M  V30 7382 N 691.568 4.00425 -5.6536 0
M  V30 7383 N 693.361 3.38944 -4.48412 0
M  V30 7384 H 685.512 0.33053 -2.09812 0
M  V30 7385 H 687.775 0.208964 -0.924683 0
M  V30 7386 H 687.481 1.34119 -3.25123 0
M  V30 7387 H 687.355 2.88609 -2.42868 0
M  V30 7388 H 689.742 2.54234 -1.4983 0
M  V30 7389 H 689.823 0.996725 -2.35582 0
M  V30 7390 H 689.467 2.22861 -4.56394 0
M  V30 7391 H 689.397 3.77118 -3.67546 0
M  V30 7392 H 691.888 2.40912 -2.91153 0
M  V30 7393 H 692.201 4.42871 -6.33313 0
M  V30 7394 H 690.546 3.98856 -5.69157 0
M  V30 7395 H 693.737 2.91875 -3.6596 0
M  V30 7396 H 693.91 3.83989 -5.21974 0
M  V30 7397 N 687.317 1.12792 1.10072 0
M  V30 7398 C 688.547 0.907189 1.85617 0
M  V30 7399 C 688.955 -0.547181 1.81115 0
M  V30 7400 O 688.298 -1.39024 1.20075 0
M  V30 7401 C 688.36 1.30872 3.34832 0
M  V30 7402 C 688.024 2.77516 3.6309 0
M  V30 7403 C 689.021 3.75696 3.59373 0
M  V30 7404 C 686.706 3.14513 3.91646 0
M  V30 7405 C 688.7 5.08888 3.83812 0
M  V30 7406 C 686.387 4.47886 4.15742 0
M  V30 7407 C 687.385 5.44882 4.11816 0
M  V30 7408 O 687.073 6.7585 4.35295 0
M  V30 7409 H 686.805 0.323855 0.593375 0
M  V30 7410 H 689.359 1.50262 1.40038 0
M  V30 7411 H 687.589 0.656518 3.81086 0
M  V30 7412 H 689.278 1.06153 3.91773 0
M  V30 7413 H 690.044 3.48458 3.37345 0
M  V30 7414 H 685.923 2.39622 3.93831 0
M  V30 7415 H 689.467 5.84586 3.80663 0
M  V30 7416 H 685.364 4.74851 4.37249 0
M  V30 7417 H 686.132 6.81853 4.52791 0
M  V30 7418 N 688.795 -1.27931 0.920396 0
M  V30 7419 C 689.745 -2.24727 0.384966 0
M  V30 7420 C 690.729 -1.52715 -0.506661 0
M  V30 7421 O 691.921 -1.73599 -0.345298 0
M  V30 7422 C 689.05 -3.41324 -0.3678 0
M  V30 7423 C 688.136 -4.20649 0.539925 0
M  V30 7424 N 688.527 -4.77906 1.6565 0
M  V30 7425 C 686.825 -4.4469 0.341557 0
M  V30 7426 C 687.526 -5.37652 2.22047 0
M  V30 7427 N 686.502 -5.2218 1.51093 0
M  V30 7428 H 690.304 -2.66572 1.23761 0
M  V30 7429 H 687.818 -1.42779 0.773819 0
M  V30 7430 H 689.815 -4.0976 -0.768277 0
M  V30 7431 H 688.475 -3.01012 -1.21746 0
M  V30 7432 H 689.486 -4.76073 2.03899 0
M  V30 7433 H 686.163 -4.14868 -0.468045 0
M  V30 7434 H 687.553 -5.92948 3.1601 0
M  V30 7435 N 690.273 -0.685099 -1.4193 0
M  V30 7436 C 691.689 -0.355632 -1.55587 0
M  V30 7437 C 691.889 1.13823 -1.66273 0
M  V30 7438 O 690.945 1.92387 -1.63534 0
M  V30 7439 C 692.258 -1.09498 -2.80055 0
M  V30 7440 C 693.806 -1.07831 -2.93839 0
M  V30 7441 C 694.281 -1.79919 -4.21181 0
M  V30 7442 N 695.772 -1.76837 -4.28115 0
M  V30 7443 C 696.507 -2.29463 -5.25485 0
M  V30 7444 N 696.003 -2.90516 -6.28945 0
M  V30 7445 N 697.796 -2.19779 -5.17353 0
M  V30 7446 H 689.947 -1.65412 -1.33239 0
M  V30 7447 H 692.21 -0.697453 -0.642078 0
M  V30 7448 H 691.916 -2.14997 -2.78333 0
M  V30 7449 H 691.79 -0.666813 -3.71259 0
M  V30 7450 H 694.177 -0.0316152 -2.95083 0
M  V30 7451 H 694.258 -1.54545 -2.03837 0
M  V30 7452 H 693.902 -2.84562 -4.20698 0
M  V30 7453 H 693.832 -1.30647 -5.10136 0
M  V30 7454 H 696.323 -1.32315 -3.53979 0
M  V30 7455 H 696.636 -3.28266 -6.99615 0
M  V30 7456 H 694.981 -2.94589 -6.29478 0
M  V30 7457 H 698.172 -1.71763 -4.35448 0
M  V30 7458 H 698.345 -2.61097 -5.9307 0
M  V30 7459 N 691.751 1.51645 -0.429126 0
M  V30 7460 C 692.976 2.06917 0.141399 0
M  V30 7461 C 693.401 1.29527 1.36398 0
M  V30 7462 O 692.759 0.33094 1.78254 0
M  V30 7463 C 692.807 3.57776 0.4504 0
M  V30 7464 O 691.911 3.82639 1.53821 0
M  V30 7465 H 691.252 0.663978 0.0054647 0
M  V30 7466 H 693.782 1.95355 -0.608093 0
M  V30 7467 H 693.792 4.01894 0.703249 0
M  V30 7468 H 692.467 4.13532 -0.443213 0
M  V30 7469 H 691.044 3.5039 1.27597 0
M  V30 7470 N 693.229 0.160201 1.56784 0
M  V30 7471 C 694.454 -0.497373 2.01348 0
M  V30 7472 C 694.879 -1.56757 1.03966 0
M  V30 7473 O 694.237 -1.81292 0.0174455 0
M  V30 7474 C 694.285 -1.0628 3.44582 0
M  V30 7475 O 693.389 -2.17723 3.50244 0
M  V30 7476 H 692.73 -0.120295 0.653012 0
M  V30 7477 H 695.26 0.260821 2.02931 0
M  V30 7478 H 695.27 -1.38819 3.83658 0
M  V30 7479 H 693.945 -0.279166 4.14962 0
M  V30 7480 H 692.522 -1.86313 3.2302 0
M  V30 7481 N 694.707 -1.5719 -0.113559 0
M  V30 7482 C 695.637 -2.03772 -1.14013 0
M  V30 7483 C 696.618 -0.923176 -1.42869 0
M  V30 7484 O 697.803 -1.19325 -1.53216 0
M  V30 7485 C 694.933 -2.44663 -2.4649 0
M  V30 7486 C 693.887 -3.59612 -2.32085 0
M  V30 7487 C 693.213 -3.8642 -3.69573 0
M  V30 7488 C 694.513 -4.91149 -1.7768 0
M  V30 7489 H 696.207 -2.89785 -0.752665 0
M  V30 7490 H 693.753 -1.39412 -0.360609 0
M  V30 7491 H 695.706 -2.75857 -3.18561 0
M  V30 7492 H 694.43 -1.55628 -2.87137 0
M  V30 7493 H 693.089 -3.28636 -1.62461 0
M  V30 7494 H 692.737 -2.94581 -4.07715 0
M  V30 7495 H 692.437 -4.63797 -3.60786 0
M  V30 7496 H 693.961 -4.2007 -4.4314 0
M  V30 7497 H 695.375 -5.20843 -2.39574 0
M  V30 7498 H 693.772 -5.72562 -1.79701 0
M  V30 7499 H 694.842 -4.79301 -0.734776 0
M  V30 7500 N 696.185 0.383891 -1.52853 0
M  V30 7501 C 697.415 1.14783 -1.7178 0
M  V30 7502 C 697.823 1.84055 -0.438211 0
M  V30 7503 O 697.166 1.73713 0.597465 0
M  V30 7504 C 697.228 2.23543 -2.81547 0
M  V30 7505 C 696.892 1.74195 -4.22499 0
M  V30 7506 C 697.889 1.21591 -5.05481 0
M  V30 7507 C 695.574 1.80262 -4.6884 0
M  V30 7508 C 697.568 0.757104 -6.32888 0
M  V30 7509 C 695.255 1.33993 -5.96229 0
M  V30 7510 C 696.253 0.818049 -6.78083 0
M  V30 7511 O 695.941 0.362123 -8.03084 0
M  V30 7512 H 695.673 0.349908 -0.578395 0
M  V30 7513 H 698.227 0.454377 -2.00311 0
M  V30 7514 H 696.457 2.96328 -2.48449 0
M  V30 7515 H 698.146 2.8519 -2.88828 0
M  V30 7516 H 698.912 1.16257 -4.7086 0
M  V30 7517 H 694.791 2.19825 -4.05213 0
M  V30 7518 H 698.335 0.34908 -6.96726 0
M  V30 7519 H 694.232 1.39015 -6.30353 0
M  V30 7520 H 695 0.483134 -8.17073 0
M  V30 7521 N 697.663 1.43903 0.642637 0
M  V30 7522 C 698.903 1.47591 1.41408 0
M  V30 7523 C 699.267 0.101313 1.91733 0
M  V30 7524 O 700.468 0.0128797 2.68797 0
M  V30 7525 C 698.739 2.4977 2.55636 0
M  V30 7526 S 700.298 2.72417 3.43998 0
M  V30 7527 H 697.116 0.522163 0.482563 0
M  V30 7528 H 699.718 1.80745 0.745085 0
M  V30 7529 H 698.422 3.48365 2.16956 0
M  V30 7530 H 697.953 2.1815 3.27375 0
M  V30 7531 H 699.968 2.03142 4.52712 0
M  V30 7532 N 699.141 -0.881989 1.30609 0
M  V30 7533 C 700.366 -1.67236 1.22665 0
M  V30 7534 C 700.791 -1.8696 -0.206777 0
M  V30 7535 O 700.149 -1.4027 -1.14865 0
M  V30 7536 C 700.197 -3.02446 1.96363 0
M  V30 7537 O 699.301 -3.91614 1.29276 0
M  V30 7538 H 698.642 -0.510902 0.424117 0
M  V30 7539 H 701.172 -1.10055 1.72479 0
M  V30 7540 H 701.182 -3.52468 2.055 0
M  V30 7541 H 699.857 -2.8741 3.00613 0
M  V30 7542 H 698.434 -3.50055 1.28514 0
M  V30 7543 N 700.619 -1.13374 -1.09472 0
M  V30 7544 C 701.896 -0.806329 -1.78207 0
M  V30 7545 C 702.276 0.702191 -1.99079 0
M  V30 7546 O 701.624 1.63931 -1.59182 0
M  V30 7547 C 701.834 -1.59271 -3.10538 0
M  V30 7548 C 703.182 -1.78509 -3.85253 0
M  V30 7549 O 704.206 -1.55866 -3.20288 0
M  V30 7550 O 703.065 -2.16287 -5.01879 0
M  V30 7551 H 700.159 -0.29435 -0.772843 0
M  V30 7552 H 702.705 -1.23833 -1.16033 0
M  V30 7553 H 701.477 -2.61792 -2.90828 0
M  V30 7554 H 701.1 -1.15562 -3.80436 0
M  V30 7555 N 702.098 1.27442 -0.927168 0
M  V30 7556 C 703.347 1.93679 -0.563146 0
M  V30 7557 C 703.66 1.73673 0.899837 0
M  V30 7558 O 704.866 2.34247 1.37262 0
M  V30 7559 C 703.322 3.46961 -0.95636 0
M  V30 7560 C 702.93 3.75724 -2.43999 0
M  V30 7561 C 704.674 4.19282 -0.663565 0
M  V30 7562 C 702.581 5.22378 -2.77263 0
M  V30 7563 H 701.511 0.725059 -0.206894 0
M  V30 7564 H 704.162 1.44743 -1.12791 0
M  V30 7565 H 702.544 3.94703 -0.320254 0
M  V30 7566 H 703.718 3.38741 -3.12396 0
M  V30 7567 H 702.033 3.16605 -2.70463 0
M  V30 7568 H 704.63 5.27265 -0.888596 0
M  V30 7569 H 704.973 4.14382 0.399198 0
M  V30 7570 H 705.506 3.7736 -1.25875 0
M  V30 7571 H 702.245 5.32367 -3.82446 0
M  V30 7572 H 701.765 5.6051 -2.13516 0
M  V30 7573 H 703.444 5.9025 -2.64979 0
M  V30 7574 N 703.576 0.692616 1.41565 0
M  V30 7575 C 704.987 0.297478 1.84315 0
M  V30 7576 C 705.338 -1.16379 1.57957 0
M  V30 7577 O 704.463 -1.89303 1.0485 0
M  V30 7578 C 705.058 0.533136 3.34579 0
M  V30 7579 C 703.617 0.191944 3.7591 0
M  V30 7580 C 702.764 0.816873 2.64995 0
M  V30 7581 H 705.715 0.893488 1.31158 0
M  V30 7582 H 705.736 -0.209105 3.79925 0
M  V30 7583 H 705.248 1.59674 3.53731 0
M  V30 7584 H 703.349 -0.867512 3.6236 0
M  V30 7585 H 703.462 0.644902 4.7474 0
M  V30 7586 H 701.826 0.246715 2.53502 0
M  V30 7587 H 702.609 1.88429 2.86966 0
M  V30 7588 N 705.054 -1.51416 0.437162 0
M  V30 7589 C 706.279 -2.0699 -0.130424 0
M  V30 7590 C 706.704 -1.30249 -1.35709 0
M  V30 7591 O 706.062 -0.340388 -1.78076 0
M  V30 7592 C 706.11 -3.5801 -0.43142 0
M  V30 7593 O 705.214 -3.8345 -1.5179 0
M  V30 7594 H 704.555 -0.663997 -0.00194339 0
M  V30 7595 H 707.085 -1.95029 0.618445 0
M  V30 7596 H 707.095 -4.02261 -0.681926 0
M  V30 7597 H 705.77 -4.13291 0.465137 0
M  V30 7598 H 704.347 -3.51062 -1.25737 0
M  V30 7599 N 706.532 -0.168513 -1.56696 0
M  V30 7600 C 707.781 0.477233 -1.95973 0
M  V30 7601 C 708.094 1.64578 -1.05704 0
M  V30 7602 O 709.3 2.35758 -1.3465 0
M  V30 7603 C 707.756 0.900413 -3.48455 0
M  V30 7604 C 707.364 -0.242382 -4.47344 0
M  V30 7605 C 709.108 1.51474 -3.96555 0
M  V30 7606 C 707.015 0.200272 -5.91061 0
M  V30 7607 H 705.945 0.182061 -0.73169 0
M  V30 7608 H 708.596 -0.256297 -1.81701 0
M  V30 7609 H 706.978 1.68984 -3.58135 0
M  V30 7610 H 708.152 -1.01967 -4.49377 0
M  V30 7611 H 706.467 -0.766484 -4.09285 0
M  V30 7612 H 709.064 1.85792 -5.01384 0
M  V30 7613 H 709.407 2.41163 -3.39332 0
M  V30 7614 H 709.94 0.789802 -3.89881 0
M  V30 7615 H 706.679 -0.661775 -6.52151 0
M  V30 7616 H 706.199 0.942979 -5.92341 0
M  V30 7617 H 707.878 0.645088 -6.43776 0
M  V30 7618 N 708.01 1.57248 0.105221 0
M  V30 7619 C 708.96 1.9777 1.1345 0
M  V30 7620 C 709.944 0.854654 1.36325 0
M  V30 7621 O 711.136 1.11844 1.37186 0
M  V30 7622 C 708.265 2.39717 2.45745 0
M  V30 7623 C 707.351 3.58686 2.26286 0
M  V30 7624 N 707.742 4.73942 1.76671 0
M  V30 7625 C 706.04 3.64586 2.56891 0
M  V30 7626 C 706.741 5.55923 1.71245 0
M  V30 7627 N 705.717 4.98803 2.16093 0
M  V30 7628 H 709.519 2.84336 0.743664 0
M  V30 7629 H 707.033 1.59359 0.312787 0
M  V30 7630 H 709.03 2.66971 3.20206 0
M  V30 7631 H 707.69 1.54523 2.85574 0
M  V30 7632 H 708.701 4.9689 1.46016 0
M  V30 7633 H 705.378 2.90031 3.00314 0
M  V30 7634 H 706.768 6.58398 1.34022 0
M  V30 7635 N 709.488 -0.375779 1.53054 0
M  V30 7636 C 710.899 -0.95309 1.6054 0
M  V30 7637 C 711.25 -1.90575 0.466446 0
M  V30 7638 O 710.375 -2.12507 -0.408609 0
M  V30 7639 C 710.97 -1.73537 2.90982 0
M  V30 7640 C 709.529 -2.26218 3.00836 0
M  V30 7641 C 708.676 -1.07157 2.55759 0
M  V30 7642 H 711.627 -0.154895 1.57942 0
M  V30 7643 H 711.648 -2.59574 2.78211 0
M  V30 7644 H 711.16 -1.04176 3.73857 0
M  V30 7645 H 709.261 -2.98852 2.22527 0
M  V30 7646 H 709.374 -2.54799 4.05727 0
M  V30 7647 H 707.738 -1.43553 2.10391 0
M  V30 7648 H 708.521 -0.393099 3.41042 0
M  V30 7649 N 710.966 -1.44241 -0.634997 0
M  V30 7650 C 712.215 -1.46102 -1.39058 0
M  V30 7651 C 712.528 -0.0959909 -1.95364 0
M  V30 7652 O 713.734 0.00788751 -2.71499 0
M  V30 7653 C 712.19 -2.57195 -2.51751 0
M  V30 7654 C 711.798 -3.99888 -2.01974 0
M  V30 7655 C 713.542 -2.68272 -3.28984 0
M  V30 7656 C 711.449 -5.02412 -3.11987 0
M  V30 7657 H 710.379 -0.543556 -0.522554 0
M  V30 7658 H 713.03 -1.70294 -0.683538 0
M  V30 7659 H 711.412 -2.26237 -3.25012 0
M  V30 7660 H 712.586 -4.40396 -1.35604 0
M  V30 7661 H 710.901 -3.93019 -1.37568 0
M  V30 7662 H 713.498 -3.42042 -4.10988 0
M  V30 7663 H 713.841 -1.73957 -3.78212 0
M  V30 7664 H 714.374 -2.98622 -2.62812 0
M  V30 7665 H 711.113 -5.98342 -2.67707 0
M  V30 7666 H 710.633 -4.66501 -3.77011 0
M  V30 7667 H 712.312 -5.25939 -3.76825 0
M  V30 7668 N 712.444 0.87505 -1.31075 0
M  V30 7669 C 713.669 1.66583 -1.23551 0
M  V30 7670 C 714.094 1.87067 0.19686 0
M  V30 7671 O 713.452 1.40877 1.1412 0
M  V30 7672 C 713.5 3.01401 -1.97965 0
M  V30 7673 O 712.604 3.90923 -1.31351 0
M  V30 7674 H 711.945 0.508645 -0.426821 0
M  V30 7675 H 714.475 1.09139 -1.7306 0
M  V30 7676 H 714.485 3.51374 -2.07366 0
M  V30 7677 H 713.16 2.85812 -3.02133 0
M  V30 7678 H 711.737 3.49369 -1.30368 0
M  V30 7679 N 713.922 1.13953 1.08869 0
M  V30 7680 C 714.832 0.835666 2.19212 0
M  V30 7681 C 715.848 -0.182005 1.73045 0
M  V30 7682 O 717.024 -0.0116661 2.01397 0
M  V30 7683 C 714.089 0.312325 3.4529 0
M  V30 7684 C 713.15 1.39196 4.06107 0
M  V30 7685 C 712.383 0.893496 5.26168 0
M  V30 7686 O 712.606 -0.266807 5.69776 0
M  V30 7687 O 711.54 1.67037 5.78258 0
M  V30 7688 H 715.366 1.75769 2.47667 0
M  V30 7689 H 712.951 0.917421 1.17914 0
M  V30 7690 H 714.833 0.0261582 4.21392 0
M  V30 7691 H 713.508 -0.582042 3.18424 0
M  V30 7692 H 712.415 1.73152 3.31616 0
M  V30 7693 H 713.748 2.26068 4.37212 0
M  V30 7694 N 715.4 -1.26948 0.933913 0
M  V30 7695 C 716.811 -1.76058 0.621324 0
M  V30 7696 C 717.162 -1.76175 -0.863522 0
M  V30 7697 O 716.287 -1.36921 -1.67576 0
M  V30 7698 C 716.882 -3.19713 1.12111 0
M  V30 7699 C 715.441 -3.66465 0.859074 0
M  V30 7700 C 714.588 -2.46186 1.27624 0
M  V30 7701 H 717.539 -1.13127 1.11301 0
M  V30 7702 H 717.56 -3.77566 0.471608 0
M  V30 7703 H 717.072 -3.19596 2.20182 0
M  V30 7704 H 715.173 -3.72021 -0.207566 0
M  V30 7705 H 715.286 -4.55636 1.48098 0
M  V30 7706 H 713.65 -2.45042 0.694727 0
M  V30 7707 H 714.433 -2.48774 2.36572 0
M  V30 7708 N 716.879 -0.700114 -1.41195 0
M  V30 7709 C 717.826 -0.0376652 -2.30769 0
M  V30 7710 C 718.796 0.766544 -1.47354 0
M  V30 7711 O 719.981 0.73365 -1.76131 0
M  V30 7712 C 717.121 0.889452 -3.33441 0
M  V30 7713 C 716.234 0.076373 -4.31932 0
M  V30 7714 C 715.369 1.00155 -5.21673 0
M  V30 7715 C 714.408 0.181644 -6.1183 0
M  V30 7716 N 713.545 1.06087 -6.94039 0
M  V30 7717 H 718.385 -0.80726 -2.86858 0
M  V30 7718 H 715.922 -0.409798 -1.41277 0
M  V30 7719 H 717.88 1.44107 -3.91522 0
M  V30 7720 H 716.51 1.6254 -2.78892 0
M  V30 7721 H 715.562 -0.592223 -3.75762 0
M  V30 7722 H 716.874 -0.559076 -4.95657 0
M  V30 7723 H 716.028 1.62223 -5.8461 0
M  V30 7724 H 714.767 1.67085 -4.58186 0
M  V30 7725 H 713.772 -0.452085 -5.47938 0
M  V30 7726 H 714.997 -0.483925 -6.77374 0
M  V30 7727 H 712.943 1.7161 -6.33156 0
M  V30 7728 H 712.86 0.481094 -7.54468 0
M  V30 7729 H 714.128 1.66822 -7.6144 0
M  V30 7730 N 718.357 1.51182 -0.445186 0
M  V30 7731 C 719.634 1.9478 0.178965 0
M  V30 7732 C 720.014 1.38428 1.59376 0
M  V30 7733 O 719.362 0.574552 2.21159 0
M  V30 7734 C 719.572 3.48683 0.148711 0
M  V30 7735 C 720.92 4.23152 0.35042 0
M  V30 7736 O 721.944 3.55479 0.226474 0
M  V30 7737 O 720.803 5.4322 0.597893 0
M  V30 7738 H 717.897 0.817387 0.12573 0
M  V30 7739 H 720.443 1.62051 -0.503729 0
M  V30 7740 H 719.215 3.82176 -0.84009 0
M  V30 7741 H 718.838 3.87875 0.873979 0
M  V30 7742 N 719.835 0.176821 1.56605 0
M  V30 7743 C 721.075 -0.469104 1.98944 0
M  V30 7744 C 721.439 -1.60048 1.06059 0
M  V30 7745 O 722.64 -2.30934 1.3756 0
M  V30 7746 C 720.911 -0.934571 3.44965 0
M  V30 7747 S 722.47 -1.58091 4.09332 0
M  V30 7748 H 719.288 -0.150695 0.694847 0
M  V30 7749 H 721.89 0.27558 1.93548 0
M  V30 7750 H 720.594 -0.100814 4.10276 0
M  V30 7751 H 720.125 -1.71316 3.54139 0
M  V30 7752 H 722.14 -2.86922 4.04834 0
M  V30 7753 N 721.313 -1.57302 -0.09688 0
M  V30 7754 C 722.543 -1.89926 -0.813114 0
M  V30 7755 C 722.951 -0.76852 -1.72888 0
M  V30 7756 O 722.294 0.268549 -1.81726 0
M  V30 7757 C 722.356 -3.17787 -1.68082 0
M  V30 7758 C 722.02 -4.4729 -0.937061 0
M  V30 7759 C 723.017 -5.1921 -0.267687 0
M  V30 7760 C 720.702 -4.93957 -0.911671 0
M  V30 7761 C 722.696 -6.36034 0.417129 0
M  V30 7762 C 720.383 -6.10693 -0.223068 0
M  V30 7763 C 721.381 -6.8158 0.440155 0
M  V30 7764 O 721.069 -7.96092 1.11772 0
M  V30 7765 H 720.801 -0.632783 -0.237828 0
M  V30 7766 H 723.355 -2.05248 -0.0790818 0
M  V30 7767 H 721.585 -2.98607 -2.45705 0
M  V30 7768 H 723.274 -3.36257 -2.27346 0
M  V30 7769 H 724.04 -4.84198 -0.278774 0
M  V30 7770 H 719.919 -4.38671 -1.41734 0
M  V30 7771 H 723.463 -6.91301 0.93537 0
M  V30 7772 H 719.36 -6.45159 -0.209821 0
M  V30 7773 H 720.128 -8.12064 1.02443 0
M  V30 7774 N 722.791 0.367657 -1.53252 0
M  V30 7775 C 723.721 1.45632 -1.8252 0
M  V30 7776 C 724.702 1.55979 -0.678568 0
M  V30 7777 O 725.887 1.70581 -0.928217 0
M  V30 7778 C 723.017 2.82994 -2.01325 0
M  V30 7779 C 721.971 2.87473 -3.17086 0
M  V30 7780 C 721.297 4.2749 -3.21179 0
M  V30 7781 C 722.597 2.55182 -4.55719 0
M  V30 7782 H 724.291 1.21387 -2.73689 0
M  V30 7783 H 721.837 0.58251 -1.31692 0
M  V30 7784 H 723.79 3.59179 -2.20383 0
M  V30 7785 H 722.514 3.08622 -1.06864 0
M  V30 7786 H 721.173 2.13739 -2.97844 0
M  V30 7787 H 720.821 4.5019 -2.24361 0
M  V30 7788 H 720.521 4.31403 -3.98955 0
M  V30 7789 H 722.045 5.0555 -3.42419 0
M  V30 7790 H 723.459 3.21081 -4.74953 0
M  V30 7791 H 721.856 2.70414 -5.3572 0
M  V30 7792 H 722.926 1.5044 -4.60973 0
M  V30 7793 N 724.269 1.44576 0.627338 0
M  V30 7794 C 725.201 1.47724 1.75243 0
M  V30 7795 C 726.214 0.370193 1.58535 0
M  V30 7796 O 727.403 0.636151 1.66779 0
M  V30 7797 C 724.503 1.2991 3.13012 0
M  V30 7798 C 723.676 2.5393 3.56143 0
M  V30 7799 C 722.735 2.30961 4.72804 0
M  V30 7800 O 721.761 3.04469 4.80923 0
M  V30 7801 N 722.963 1.34261 5.6476 0
M  V30 7802 H 725.728 2.44718 1.73012 0
M  V30 7803 H 723.289 1.40064 0.812022 0
M  V30 7804 H 725.281 1.12385 3.88782 0
M  V30 7805 H 723.851 0.412668 3.09864 0
M  V30 7806 H 723.071 2.86707 2.70542 0
M  V30 7807 H 724.359 3.36411 3.81713 0
M  V30 7808 H 723.757 0.735573 5.60897 0
M  V30 7809 H 722.314 1.22713 6.40144 0
M  V30 7810 N 725.747 -0.868086 1.31537 0
M  V30 7811 C 726.972 -1.65926 1.24432 0
M  V30 7812 C 727.397 -1.87169 -0.186936 0
M  V30 7813 O 726.755 -1.4148 -1.13371 0
M  V30 7814 C 726.803 -3.00347 1.9956 0
M  V30 7815 O 725.907 -3.90221 1.33422 0
M  V30 7816 H 725.248 -0.506375 0.429512 0
M  V30 7817 H 727.778 -1.0822 1.73637 0
M  V30 7818 H 727.788 -3.50269 2.09226 0
M  V30 7819 H 726.463 -2.84205 3.03645 0
M  V30 7820 H 725.04 -3.48672 1.32219 0
M  V30 7821 N 727.225 -1.14528 -1.08264 0
M  V30 7822 C 728.502 -0.825185 -1.77342 0
M  V30 7823 C 728.882 0.681037 -1.99813 0
M  V30 7824 O 728.23 1.62234 -1.60912 0
M  V30 7825 C 728.44 -1.62556 -3.08831 0
M  V30 7826 C 729.788 -1.82585 -3.83338 0
M  V30 7827 O 730.812 -1.59254 -3.18617 0
M  V30 7828 O 729.671 -2.21598 -4.99556 0
M  V30 7829 H 726.765 -0.302531 -0.769678 0
M  V30 7830 H 729.311 -1.25056 -1.14713 0
M  V30 7831 H 728.083 -2.64862 -2.88035 0
M  V30 7832 H 727.706 -1.1959 -3.79189 0
M  V30 7833 N 728.703 1.26451 -0.940633 0
M  V30 7834 C 729.951 1.93395 -0.586748 0
M  V30 7835 C 730.272 1.7417 0.876921 0
M  V30 7836 O 729.542 1.097 1.62304 0
M  V30 7837 H 728.122 0.715687 -0.214012 0
M  V30 7838 H 730.784 1.53902 -1.19584 0
M  V30 7839 H 729.88 3.01565 -0.804059 0
M  V30 7840 N 730.181 0.707592 1.40822 0
M  V30 7841 C 731.428 0.243671 2.01029 0
M  V30 7842 C 731.756 -1.16057 1.5608 0
M  V30 7843 O 731.011 -1.7999 0.768251 0
M  V30 7844 C 731.31 0.262892 3.56432 0
M  V30 7845 C 730.976 1.61632 4.20935 0
M  V30 7846 C 729.638 1.98682 4.38268 0
M  V30 7847 C 731.99 2.50619 4.5699 0
M  V30 7848 C 729.318 3.2428 4.88937 0
M  V30 7849 C 731.67 3.75562 5.09054 0
M  V30 7850 C 730.334 4.12739 5.24598 0
M  V30 7851 H 729.604 0.0891654 0.735616 0
M  V30 7852 H 732.251 0.909051 1.68548 0
M  V30 7853 H 730.556 -0.486052 3.88773 0
M  V30 7854 H 732.253 -0.113775 4.00839 0
M  V30 7855 H 728.843 1.31818 4.07826 0
M  V30 7856 H 733.027 2.23272 4.43242 0
M  V30 7857 H 728.283 3.53064 4.99155 0
M  V30 7858 H 732.457 4.44692 5.35931 0
M  V30 7859 H 730.084 5.10132 5.63622 0
M  V30 7860 N 731.66 -1.50943 0.453197 0
M  V30 7861 C 732.89 -2.06328 -0.105981 0
M  V30 7862 C 733.298 -1.31909 -1.35634 0
M  V30 7863 O 732.641 -0.376607 -1.79798 0
M  V30 7864 C 732.703 -3.5631 -0.477868 0
M  V30 7865 C 732.367 -4.52093 0.667925 0
M  V30 7866 C 733.364 -4.96421 1.54475 0
M  V30 7867 C 731.049 -4.95001 0.853168 0
M  V30 7868 C 733.043 -5.82346 2.59138 0
M  V30 7869 C 730.73 -5.80713 1.90305 0
M  V30 7870 C 731.728 -6.24284 2.77053 0
M  V30 7871 O 731.416 -7.08291 3.80236 0
M  V30 7872 H 731.148 -0.675986 -0.00427247 0
M  V30 7873 H 733.702 -1.95314 0.635738 0
M  V30 7874 H 731.932 -3.65163 -1.27252 0
M  V30 7875 H 733.621 -3.94138 -0.970039 0
M  V30 7876 H 734.387 -4.63953 1.41324 0
M  V30 7877 H 730.266 -4.60619 0.187482 0
M  V30 7878 H 733.81 -6.16276 3.2688 0
M  V30 7879 H 729.707 -6.12593 2.03469 0
M  V30 7880 H 730.475 -7.26504 3.77007 0
M  V30 7881 N 733.138 -0.185124 -1.56509 0
M  V30 7882 C 734.048 0.751908 -2.22224 0
M  V30 7883 C 735.064 1.24244 -1.21817 0
M  V30 7884 O 736.24 1.29169 -1.54523 0
M  V30 7885 C 733.305 1.95837 -2.86092 0
M  V30 7886 C 732.366 1.51337 -4.01741 0
M  V30 7887 C 731.599 2.66233 -4.62554 0
M  V30 7888 O 731.822 3.8346 -4.22273 0
M  V30 7889 O 730.756 2.39517 -5.52191 0
M  V30 7890 H 734.582 0.222304 -3.02885 0
M  V30 7891 H 732.167 0.0437141 -1.49336 0
M  V30 7892 H 734.049 2.66368 -3.26536 0
M  V30 7893 H 732.724 2.47677 -2.08417 0
M  V30 7894 H 731.631 0.777155 -3.65939 0
M  V30 7895 H 732.964 1.04175 -4.81049 0
M  V30 7896 N 734.616 1.57351 0.0885366 0
M  V30 7897 C 735.856 1.88248 0.796362 0
M  V30 7898 C 736.22 0.776915 1.75579 0
M  V30 7899 O 737.421 0.968485 2.50747 0
M  V30 7900 C 735.692 3.24385 1.50031 0
M  V30 7901 S 737.251 3.76991 2.24551 0
M  V30 7902 H 734.069 0.659697 0.265181 0
M  V30 7903 H 736.671 1.95428 0.0531843 0
M  V30 7904 H 735.375 4.02764 0.788 0
M  V30 7905 H 734.906 3.20361 2.28325 0
M  V30 7906 H 736.921 3.50933 3.508 0
M  V30 7907 N 736.094 -0.359525 1.53444 0
M  V30 7908 C 737.343 -1.09886 1.69139 0
M  V30 7909 C 737.656 -1.90285 0.452863 0
M  V30 7910 O 738.862 -2.67033 0.490459 0
M  V30 7911 C 737.318 -2.0028 2.99025 0
M  V30 7912 C 736.926 -1.25164 4.30161 0
M  V30 7913 C 738.67 -2.74168 3.24086 0
M  V30 7914 C 736.577 -2.14494 5.51132 0
M  V30 7915 H 735.507 -0.413936 0.630217 0
M  V30 7916 H 738.158 -0.359434 1.79945 0
M  V30 7917 H 736.54 -2.77978 2.82036 0
M  V30 7918 H 737.714 -0.524867 4.57801 0
M  V30 7919 H 736.029 -0.631116 4.11589 0
M  V30 7920 H 738.626 -3.41243 4.11652 0
M  V30 7921 H 738.969 -3.39868 2.40407 0
M  V30 7922 H 739.502 -2.0355 3.41778 0
M  V30 7923 H 736.241 -1.53362 6.37307 0
M  V30 7924 H 735.761 -2.85004 5.27762 0
M  V30 7925 H 737.44 -2.73914 5.86157 0
M  V30 7926 N 737.572 -1.44907 -0.619662 0
M  V30 7927 C 738.819 -1.48292 -1.37898 0
M  V30 7928 C 739.147 -0.119933 -1.9413 0
M  V30 7929 O 738.402 0.879834 -1.74807 0
M  V30 7930 C 738.701 -2.50002 -2.55409 0
M  V30 7931 C 738.367 -3.95031 -2.17397 0
M  V30 7932 C 737.029 -4.34524 -2.06743 0
M  V30 7933 C 739.381 -4.86287 -1.87548 0
M  V30 7934 C 736.709 -5.63183 -1.64445 0
M  V30 7935 C 739.061 -6.15346 -1.4674 0
M  V30 7936 C 737.725 -6.53781 -1.34636 0
M  V30 7937 H 736.995 -0.542638 -0.504603 0
M  V30 7938 H 739.642 -1.78186 -0.701581 0
M  V30 7939 H 737.947 -2.13634 -3.28433 0
M  V30 7940 H 739.644 -2.49864 -3.13639 0
M  V30 7941 H 736.234 -3.63793 -2.26611 0
M  V30 7942 H 740.418 -4.56522 -1.94682 0
M  V30 7943 H 735.674 -5.91769 -1.53687 0
M  V30 7944 H 739.848 -6.85508 -1.22685 0
M  V30 7945 H 737.475 -7.53375 -1.01634 0
M  V30 7946 N 739.05 0.861098 -1.31996 0
M  V30 7947 C 739.982 1.97551 -1.16216 0
M  V30 7948 C 740.995 1.625 -0.0988527 0
M  V30 7949 O 742.184 1.75091 -0.3472 0
M  V30 7950 C 739.284 3.30376 -0.755307 0
M  V30 7951 C 738.457 3.93711 -1.90552 0
M  V30 7952 C 737.516 5.04862 -1.48328 0
M  V30 7953 O 736.542 5.25204 -2.19431 0
M  V30 7954 N 737.744 5.79283 -0.375656 0
M  V30 7955 H 740.509 2.11632 -2.12208 0
M  V30 7956 H 738.07 1.03559 -1.24448 0
M  V30 7957 H 740.062 4.0213 -0.455364 0
M  V30 7958 H 738.632 3.12395 0.113269 0
M  V30 7959 H 737.852 3.14825 -2.37231 0
M  V30 7960 H 739.14 4.32762 -2.67571 0
M  V30 7961 H 738.538 5.65286 0.216284 0
M  V30 7962 H 737.095 6.5166 -0.135289 0
M  V30 7963 N 740.528 1.15101 1.07655 0
M  V30 7964 C 741.939 0.933848 1.61667 0
M  V30 7965 C 742.29 -0.525569 1.8903 0
M  V30 7966 O 741.415 -1.39605 1.65346 0
M  V30 7967 C 742.01 1.68876 2.93711 0
M  V30 7968 C 740.569 1.51697 3.44478 0
M  V30 7969 C 739.716 1.70633 2.18586 0
M  V30 7970 H 742.667 1.30171 0.907816 0
M  V30 7971 H 742.688 1.15645 3.625 0
M  V30 7972 H 742.2 2.7509 2.73764 0
M  V30 7973 H 740.301 0.478635 3.69513 0
M  V30 7974 H 740.414 2.29194 4.20722 0
M  V30 7975 H 738.778 1.13259 2.28132 0
M  V30 7976 H 739.561 2.78206 2.01137 0
M  V30 7977 N 742.006 -1.2595 0.947325 0
M  V30 7978 C 743.255 -1.92759 0.593887 0
M  V30 7979 C 743.568 -1.75083 -0.872093 0
M  V30 7980 O 744.774 -2.36401 -1.33518 0
M  V30 7981 C 743.23 -3.45395 1.01144 0
M  V30 7982 C 742.838 -3.71795 2.49946 0
M  V30 7983 C 744.582 -4.18173 0.730185 0
M  V30 7984 C 742.489 -5.17901 2.85539 0
M  V30 7985 H 741.419 -0.721676 0.218403 0
M  V30 7986 H 744.07 -1.4293 1.15079 0
M  V30 7987 H 742.452 -3.94143 0.383007 0
M  V30 7988 H 743.626 -3.33728 3.17746 0
M  V30 7989 H 741.941 -3.12263 2.75465 0
M  V30 7990 H 744.538 -5.25784 0.972367 0
M  V30 7991 H 744.881 -4.14964 -0.333223 0
M  V30 7992 H 745.414 -3.75309 1.31862 0
M  V30 7993 H 742.153 -5.26216 3.90867 0
M  V30 7994 H 741.673 -5.57042 2.22406 0
M  V30 7995 H 743.352 -5.8596 2.74336 0
M  V30 7996 N 743.484 -0.715051 -1.40445 0
M  V30 7997 C 744.731 -0.254328 -2.00897 0
M  V30 7998 C 745.059 1.15228 -1.56693 0
M  V30 7999 O 744.314 1.7958 -0.777786 0
M  V30 8000 C 744.613 -0.281791 -3.56287 0
M  V30 8001 C 744.279 -1.63862 -4.20071 0
M  V30 8002 C 742.941 -2.01003 -4.37208 0
M  V30 8003 C 745.293 -2.53039 -4.55654 0
M  V30 8004 C 742.621 -3.26869 -4.8721 0
M  V30 8005 C 744.973 -3.78256 -5.07055 0
M  V30 8006 C 743.637 -4.15515 -5.22401 0
M  V30 8007 H 742.907 -0.0930652 -0.735133 0
M  V30 8008 H 745.554 -0.917977 -1.68064 0
M  V30 8009 H 743.859 0.465428 -3.89026 0
M  V30 8010 H 745.556 0.0925158 -4.00893 0
M  V30 8011 H 742.146 -1.33979 -4.07121 0
M  V30 8012 H 746.33 -2.2562 -4.42051 0
M  V30 8013 H 741.586 -3.55706 -4.97276 0
M  V30 8014 H 745.76 -4.47528 -5.33565 0
M  V30 8015 H 743.387 -5.13114 -5.60909 0
M  V30 8016 N 744.962 1.50701 -0.461195 0
M  V30 8017 C 745.892 2.31182 0.328184 0
M  V30 8018 C 746.873 1.37644 0.999408 0
M  V30 8019 O 748.058 1.66565 0.99848 0
M  V30 8020 C 745.188 3.17113 1.41621 0
M  V30 8021 C 744.142 4.19124 0.867148 0
M  V30 8022 C 743.468 4.93728 2.05272 0
M  V30 8023 C 744.768 5.22174 -0.114808 0
M  V30 8024 H 746.462 2.97423 -0.343501 0
M  V30 8025 H 744.008 1.43033 -0.166641 0
M  V30 8026 H 745.961 3.72208 1.97584 0
M  V30 8027 H 744.685 2.48739 2.11652 0
M  V30 8028 H 743.344 3.65116 0.329557 0
M  V30 8029 H 742.992 4.21835 2.73978 0
M  V30 8030 H 742.692 5.62724 1.69161 0
M  V30 8031 H 744.216 5.51654 2.61744 0
M  V30 8032 H 745.63 5.72198 0.355316 0
M  V30 8033 H 744.027 5.98833 -0.389689 0
M  V30 8034 H 745.097 4.7353 -1.04391 0
M  V30 8035 N 746.441 0.193421 1.56409 0
M  V30 8036 C 747.371 -0.723334 2.22014 0
M  V30 8037 C 748.352 -1.22254 1.1827 0
M  V30 8038 O 749.537 -1.27168 1.46771 0
M  V30 8039 C 746.667 -1.94366 2.87818 0
M  V30 8040 C 745.621 -1.57943 3.97791 0
M  V30 8041 C 744.947 -2.87623 4.50752 0
M  V30 8042 C 746.247 -0.790639 5.16281 0
M  V30 8043 H 747.941 -0.176426 2.9888 0
M  V30 8044 H 745.487 -0.0834166 1.43758 0
M  V30 8045 H 747.44 -2.5902 3.32396 0
M  V30 8046 H 746.164 -2.51507 2.08355 0
M  V30 8047 H 744.823 -0.956482 3.53903 0
M  V30 8048 H 744.471 -3.4285 3.68053 0
M  V30 8049 H 744.171 -2.63998 5.24956 0
M  V30 8050 H 745.695 -3.53268 4.9803 0
M  V30 8051 H 747.109 -1.34024 5.57414 0
M  V30 8052 H 745.506 -0.65258 5.96541 0
M  V30 8053 H 746.576 0.208633 4.84451 0
M  V30 8054 N 747.919 -1.57396 -0.0801906 0
M  V30 8055 C 749.144 -1.91437 -0.797909 0
M  V30 8056 C 749.569 -0.789075 -1.70749 0
M  V30 8057 O 748.927 0.25857 -1.79447 0
M  V30 8058 C 748.975 -3.24402 -1.57467 0
M  V30 8059 O 748.079 -3.13043 -2.68473 0
M  V30 8060 H 747.42 -0.627109 -0.218243 0
M  V30 8061 H 749.95 -2.04537 -0.050949 0
M  V30 8062 H 749.96 -3.58072 -1.95571 0
M  V30 8063 H 748.635 -4.05884 -0.907229 0
M  V30 8064 H 747.212 -2.90915 -2.33287 0
M  V30 8065 N 749.397 0.351382 -1.53633 0
M  V30 8066 C 750.645 1.09034 -1.70165 0
M  V30 8067 C 750.966 1.89413 -0.463422 0
M  V30 8068 O 750.236 1.888 0.522624 0
M  V30 8069 H 748.816 0.405522 -0.627344 0
M  V30 8070 H 751.478 0.394554 -1.90865 0
M  V30 8071 H 750.574 1.77215 -2.56907 0
M  V30 8072 N 750.875 1.45233 0.611969 0
M  V30 8073 C 752.105 1.52318 1.39581 0
M  V30 8074 C 752.513 0.153093 1.8858 0
M  V30 8075 O 751.856 -0.854792 1.62601 0
M  V30 8076 C 751.918 2.4426 2.63775 0
M  V30 8077 C 751.582 3.91079 2.36445 0
M  V30 8078 C 752.579 4.81099 1.97079 0
M  V30 8079 C 750.264 4.35958 2.49492 0
M  V30 8080 C 752.258 6.14002 1.71115 0
M  V30 8081 C 749.945 5.68903 2.23142 0
M  V30 8082 C 750.943 6.57744 1.84015 0
M  V30 8083 O 750.631 7.88226 1.5797 0
M  V30 8084 H 750.363 0.518428 0.43383 0
M  V30 8085 H 752.917 1.91067 0.753837 0
M  V30 8086 H 751.147 2.00474 3.30677 0
M  V30 8087 H 752.836 2.42077 3.25812 0
M  V30 8088 H 753.602 4.47692 1.86539 0
M  V30 8089 H 749.481 3.67053 2.78914 0
M  V30 8090 H 753.025 6.83305 1.405 0
M  V30 8091 H 748.922 6.01866 2.33297 0
M  V30 8092 H 749.69 8.00211 1.72058 0
M  V30 8093 N 752.353 -0.854086 1.3245 0
M  V30 8094 C 753.581 -1.64074 1.26045 0
M  V30 8095 C 753.996 -1.8802 -0.171456 0
M  V30 8096 O 753.353 -1.4496 -1.10873 0
M  V30 8097 C 753.404 -2.9997 2.01743 0
M  V30 8098 O 753.125 -2.77084 3.39346 0
M  V30 8099 C 754.626 -3.94414 2.02368 0
M  V30 8100 H 751.846 -0.511015 0.434862 0
M  V30 8101 H 754.39 -1.06494 1.74583 0
M  V30 8102 H 752.545 -3.54193 1.56926 0
M  V30 8103 H 752.959 -3.63514 3.78098 0
M  V30 8104 H 754.433 -4.87032 2.59815 0
M  V30 8105 H 754.91 -4.27427 1.01009 0
M  V30 8106 H 755.516 -3.46127 2.47135 0
M  V30 8107 N 753.831 -1.1567 -1.07043 0
M  V30 8108 C 754.764 -0.799867 -2.13723 0
M  V30 8109 C 755.742 0.225098 -1.61034 0
M  V30 8110 O 756.926 0.11093 -1.88173 0
M  V30 8111 C 754.053 -0.18997 -3.38167 0
M  V30 8112 C 753.099 -1.18733 -4.0964 0
M  V30 8113 S 753.932 -2.73074 -4.60642 0
M  V30 8114 C 755.088 -2.13512 -5.88356 0
M  V30 8115 H 755.321 -1.70342 -2.43661 0
M  V30 8116 H 752.854 -0.979377 -1.19363 0
M  V30 8117 H 754.812 0.155471 -4.10205 0
M  V30 8118 H 753.473 0.691229 -3.064 0
M  V30 8119 H 752.666 -0.708873 -4.9899 0
M  V30 8120 H 752.268 -1.47747 -3.43579 0
M  V30 8121 H 754.56 -1.49911 -6.60706 0
M  V30 8122 H 755.503 -3.01042 -6.40921 0
M  V30 8123 H 755.911 -1.57693 -5.42027 0
M  V30 8124 N 755.309 1.25446 -0.953992 0
M  V30 8125 C 756.555 1.93756 -0.618888 0
M  V30 8126 C 756.91 1.73344 0.83484 0
M  V30 8127 O 756.203 1.06753 1.59105 0
M  V30 8128 C 756.397 3.45555 -0.912496 0
M  V30 8129 C 756.226 3.8073 -2.39321 0
M  V30 8130 C 754.996 4.02819 -3.05065 0
M  V30 8131 C 757.194 3.88286 -3.37251 0
M  V30 8132 N 755.176 4.24981 -4.43017 0
M  V30 8133 C 756.547 4.1513 -4.60507 0
M  V30 8134 C 758.602 3.70965 -3.32099 0
M  V30 8135 C 757.305 4.26454 -5.79249 0
M  V30 8136 C 759.331 3.83528 -4.50178 0
M  V30 8137 C 758.693 4.10783 -5.72221 0
M  V30 8138 H 754.792 0.731271 -0.277069 0
M  V30 8139 H 757.376 1.5125 -1.22604 0
M  V30 8140 H 755.547 3.86959 -0.334284 0
M  V30 8141 H 757.279 4.01117 -0.537362 0
M  V30 8142 H 754.034 3.9868 -2.55639 0
M  V30 8143 H 754.458 4.4007 -5.14459 0
M  V30 8144 H 759.1 3.4891 -2.38791 0
M  V30 8145 H 756.818 4.47325 -6.72998 0
M  V30 8146 H 760.404 3.71513 -4.47738 0
M  V30 8147 H 759.284 4.20285 -6.62065 0
M  V30 8148 N 756.787 0.722489 1.40064 0
M  V30 8149 C 758.036 0.261932 1.99992 0
M  V30 8150 C 758.349 -1.15358 1.57961 0
M  V30 8151 O 759.555 -1.71301 2.10637 0
M  V30 8152 C 758.011 0.41737 3.57472 0
M  V30 8153 C 757.619 1.83997 4.08472 0
M  V30 8154 C 759.363 0.0179561 4.24496 0
M  V30 8155 C 757.27 1.94563 5.5848 0
M  V30 8156 H 756.2 0.0941768 0.748095 0
M  V30 8157 H 758.851 0.894572 1.60218 0
M  V30 8158 H 757.233 -0.283965 3.94981 0
M  V30 8159 H 758.407 2.57224 3.82325 0
M  V30 8160 H 756.722 2.19147 3.54067 0
M  V30 8161 H 759.319 0.076085 5.34646 0
M  V30 8162 H 759.662 -1.02498 4.03485 0
M  V30 8163 H 760.195 0.669988 3.92117 0
M  V30 8164 H 756.934 2.97001 5.84355 0
M  V30 8165 H 756.454 1.25756 5.86469 0
M  V30 8166 H 758.133 1.72095 6.23692 0
M  V30 8167 N 758.265 -1.50454 0.469181 0
M  V30 8168 C 759.681 -1.59124 0.123226 0
M  V30 8169 C 759.881 -1.47749 -1.37013 0
M  V30 8170 O 758.937 -1.335 -2.14322 0
M  V30 8171 C 760.25 -2.93101 0.67172 0
M  V30 8172 C 761.798 -3.06491 0.634978 0
M  V30 8173 C 762.273 -4.43041 1.16098 0
M  V30 8174 N 763.764 -4.49448 1.12031 0
M  V30 8175 C 764.499 -5.53491 1.49784 0
M  V30 8176 N 763.995 -6.64798 1.94976 0
M  V30 8177 N 765.788 -5.44025 1.41399 0
M  V30 8178 H 757.939 -1.56091 1.44046 0
M  V30 8179 H 760.202 -0.737564 0.59557 0
M  V30 8180 H 759.908 -3.06895 1.7178 0
M  V30 8181 H 759.782 -3.77027 0.114222 0
M  V30 8182 H 762.169 -2.92346 -0.402187 0
M  V30 8183 H 762.25 -2.24328 1.22926 0
M  V30 8184 H 761.894 -4.57935 2.19677 0
M  V30 8185 H 761.824 -5.23794 0.542939 0
M  V30 8186 H 764.315 -3.69575 0.788828 0
M  V30 8187 H 764.628 -7.40246 2.21936 0
M  V30 8188 H 762.973 -6.65923 1.98927 0
M  V30 8189 H 766.164 -4.55955 1.05935 0
M  V30 8190 H 766.337 -6.2499 1.71147 0
M  V30 8191 N 759.743 -0.201713 -1.56304 0
M  V30 8192 C 760.992 0.435557 -1.96941 0
M  V30 8193 C 761.305 1.62299 -1.09172 0
M  V30 8194 O 762.511 2.32849 -1.3962 0
M  V30 8195 C 760.967 0.826298 -3.50286 0
M  V30 8196 C 760.575 -0.337216 -4.46729 0
M  V30 8197 C 762.319 1.43028 -3.99679 0
M  V30 8198 C 760.226 0.0748539 -5.91353 0
M  V30 8199 H 759.156 0.1665 -0.735387 0
M  V30 8200 H 761.807 -0.294781 -1.81117 0
M  V30 8201 H 760.189 1.61349 -3.61639 0
M  V30 8202 H 761.363 -1.11476 -4.47113 0
M  V30 8203 H 759.678 -0.853126 -4.07567 0
M  V30 8204 H 762.275 1.75115 -5.05212 0
M  V30 8205 H 762.618 2.33911 -3.44371 0
M  V30 8206 H 763.151 0.706924 -3.91468 0
M  V30 8207 H 759.89 -0.799957 -6.506 0
M  V30 8208 H 759.41 0.817122 -5.94208 0
M  V30 8209 H 761.089 0.508389 -6.45 0
M  V30 8210 N 761.222 1.57436 0.0718424 0
M  V30 8211 C 762.17 2.04725 1.10411 0
M  V30 8212 C 763.164 0.952579 1.4008 0
M  V30 8213 O 764.37 1.13769 1.39487 0
M  V30 8214 H 760.745 0.652749 0.373393 0
M  V30 8215 H 762.716 2.90569 0.679126 0
M  V30 8216 C 761.465 2.5068 2.40946 0
M  V30 8217 H 760.788 3.34505 2.18967 0
M  V30 8218 H 762.228 2.87521 3.11621 0
M  V30 8219 C 760.687 1.38971 3.06902 0
M  V30 8220 O 761.217 0.731786 3.94978 0
M  V30 8221 N 759.423 1.13485 2.67525 0
M  V30 8222 H 758.97 1.67168 1.95991 0
M  V30 8223 H 758.928 0.389467 3.11978 0
M  V30 8224 N 762.7 -0.34323 1.53817 0
M  V30 8225 C 763.65 -1.42217 1.78208 0
M  V30 8226 C 764.634 -1.4774 0.637304 0
M  V30 8227 O 765.826 -1.52605 0.896705 0
M  V30 8228 C 762.955 -2.79354 1.9954 0
M  V30 8229 C 762.041 -2.78222 3.20084 0
M  V30 8230 N 762.432 -2.46719 4.41547 0
M  V30 8231 C 760.73 -3.09368 3.21259 0
M  V30 8232 C 761.431 -2.53828 5.23399 0
M  V30 8233 N 760.407 -2.89464 4.60121 0
M  V30 8234 H 764.209 -1.16759 2.69712 0
M  V30 8235 H 761.723 -0.551592 1.52746 0
M  V30 8236 H 763.72 -3.57095 2.15148 0
M  V30 8237 H 762.38 -3.05759 1.09278 0
M  V30 8238 H 763.391 -2.19912 4.68891 0
M  V30 8239 H 760.068 -3.40942 2.40966 0
M  V30 8240 H 761.458 -2.32629 6.30344 0
M  V30 8241 N 764.178 -1.45556 -0.604258 0
M  V30 8242 C 765.403 -1.53509 -1.39462 0
M  V30 8243 C 765.828 -0.169638 -1.87333 0
M  V30 8244 O 765.186 0.846346 -1.60333 0
M  V30 8245 C 765.234 -2.52654 -2.5729 0
M  V30 8246 O 764.338 -2.04666 -3.5803 0
M  V30 8247 H 763.679 -0.517355 -0.416221 0
M  V30 8248 H 766.209 -1.90939 -0.735072 0
M  V30 8249 H 766.219 -2.71568 -3.04491 0
M  V30 8250 H 764.894 -3.51823 -2.21797 0
M  V30 8251 H 763.471 -1.95643 -3.17456 0
M  V30 8252 N 765.656 0.84705 -1.32902 0
M  V30 8253 C 766.586 1.97166 -1.25091 0
M  V30 8254 C 767.567 1.69578 -0.133161 0
M  V30 8255 O 768.752 1.91519 -0.321591 0
M  V30 8256 C 765.882 3.33157 -0.981006 0
M  V30 8257 C 764.836 3.75119 -2.06082 0
M  V30 8258 C 764.162 5.08826 -1.64318 0
M  V30 8259 C 765.462 3.89774 -3.47669 0
M  V30 8260 H 767.156 2.03958 -2.19184 0
M  V30 8261 H 764.702 0.979907 -1.05517 0
M  V30 8262 H 766.655 4.11393 -0.912891 0
M  V30 8263 H 765.379 3.266 -0.00445559 0
M  V30 8264 H 764.038 2.9914 -2.11921 0
M  V30 8265 H 763.686 4.98732 -0.653876 0
M  V30 8266 H 763.386 5.37873 -2.36572 0
M  V30 8267 H 764.91 5.89546 -1.58958 0
M  V30 8268 H 766.324 4.58343 -3.44376 0
M  V30 8269 H 764.721 4.30248 -4.18338 0
M  V30 8270 H 765.791 2.92463 -3.86773 0
M  V30 8271 N 767.134 1.16236 1.06428 0
M  V30 8272 C 768.382 0.941171 1.78847 0
M  V30 8273 C 768.703 -0.53248 1.87589 0
M  V30 8274 O 767.973 -1.38686 1.38358 0
M  V30 8275 H 766.553 0.345228 0.66244 0
M  V30 8276 H 769.215 1.46479 1.28569 0
M  V30 8277 H 768.311 1.35871 2.80972 0
M  V30 8278 N 768.612 -1.24939 0.960631 0
M  V30 8279 C 769.837 -1.9742 0.635608 0
M  V30 8280 C 770.262 -1.70857 -0.786737 0
M  V30 8281 O 769.62 -0.968063 -1.53291 0
M  V30 8282 C 769.668 -3.48987 0.907771 0
M  V30 8283 O 768.772 -4.12399 -0.0104053 0
M  V30 8284 H 768.113 -0.61871 0.241027 0
M  V30 8285 H 770.643 -1.58901 1.28886 0
M  V30 8286 H 770.653 -3.99334 0.836453 0
M  V30 8287 H 769.328 -3.6765 1.94439 0
M  V30 8288 H 767.905 -3.72727 0.113631 0
M  V30 8289 N 770.09 -0.729906 -1.39679 0
M  V30 8290 C 771.02 -0.101618 -2.33279 0
M  V30 8291 C 772.001 0.729854 -1.53646 0
M  V30 8292 O 773.186 0.67587 -1.82059 0
M  V30 8293 C 770.316 0.81024 -3.37716 0
M  V30 8294 C 769.27 0.0833126 -4.27919 0
M  V30 8295 C 768.596 1.11185 -5.23012 0
M  V30 8296 C 769.896 -1.07107 -5.112 0
M  V30 8297 H 771.59 -0.883452 -2.86069 0
M  V30 8298 H 769.136 -0.426283 -1.37546 0
M  V30 8299 H 771.089 1.25927 -4.02145 0
M  V30 8300 H 769.813 1.62413 -2.83354 0
M  V30 8301 H 768.472 -0.346043 -3.64963 0
M  V30 8302 H 768.12 1.91917 -4.64948 0
M  V30 8303 H 767.82 0.63026 -5.8421 0
M  V30 8304 H 769.344 1.56068 -5.90318 0
M  V30 8305 H 770.758 -0.700726 -5.69002 0
M  V30 8306 H 769.155 -1.48196 -5.81514 0
M  V30 8307 H 770.225 -1.89513 -4.46332 0
M  V30 8308 N 771.568 1.50203 -0.477153 0
M  V30 8309 C 772.845 1.95115 0.137609 0
M  V30 8310 C 773.225 1.41778 1.56404 0
M  V30 8311 O 772.573 0.621333 2.1989 0
M  V30 8312 C 772.783 3.4892 0.0747168 0
M  V30 8313 C 774.131 4.238 0.260585 0
M  V30 8314 O 775.155 3.5588 0.151021 0
M  V30 8315 O 774.014 5.44366 0.482534 0
M  V30 8316 H 771.108 0.81987 0.108364 0
M  V30 8317 H 773.654 1.60946 -0.537989 0
M  V30 8318 H 772.426 3.80308 -0.920966 0
M  V30 8319 H 772.049 3.89642 0.791509 0
M  V30 8320 N 773.046 0.209999 1.56195 0
M  V30 8321 C 774.271 -0.433064 2.02828 0
M  V30 8322 C 774.696 -1.5337 1.08901 0
M  V30 8323 O 774.054 -1.81144 0.0751132 0
M  V30 8324 C 774.102 -0.952635 3.47789 0
M  V30 8325 O 773.206 -2.0647 3.56993 0
M  V30 8326 H 772.547 -0.0994594 0.656509 0
M  V30 8327 H 775.077 0.32525 2.01998 0
M  V30 8328 H 775.087 -1.26542 3.8788 0
M  V30 8329 H 773.762 -0.147007 4.1564 0
M  V30 8330 H 772.339 -1.75942 3.28784 0
M  V30 8331 N 774.524 -1.57472 -0.0634922 0
M  V30 8332 C 775.935 -1.76303 -0.614337 0
M  V30 8333 C 776.286 -0.836578 -1.77471 0
M  V30 8334 O 775.411 -0.0227184 -2.16388 0
M  V30 8335 C 776.006 -3.19709 -1.12122 0
M  V30 8336 C 774.565 -3.39856 -1.61786 0
M  V30 8337 C 773.712 -2.71975 -0.540845 0
M  V30 8338 H 776.663 -1.57864 0.162702 0
M  V30 8339 H 776.684 -3.24326 -1.98979 0
M  V30 8340 H 776.196 -3.87114 -0.276472 0
M  V30 8341 H 774.297 -2.77578 -2.48558 0
M  V30 8342 H 774.41 -4.48338 -1.68908 0
M  V30 8343 H 772.774 -2.34763 -0.987854 0
M  V30 8344 H 773.557 -3.4204 0.293856 0
M  V30 8345 N 776.003 0.335068 -1.53997 0
M  V30 8346 C 777.414 0.910191 -1.6301 0
M  V30 8347 C 777.765 1.89271 -0.516809 0
M  V30 8348 O 776.89 2.13516 0.352123 0
M  V30 8349 C 777.485 1.65761 -2.9548 0
M  V30 8350 C 776.044 2.18163 -3.06728 0
M  V30 8351 C 775.191 1.00338 -2.5851 0
M  V30 8352 H 778.142 0.112965 -1.58297 0
M  V30 8353 H 778.163 2.52107 -2.84995 0
M  V30 8354 H 777.675 0.94227 -3.76488 0
M  V30 8355 H 775.776 2.92847 -2.30372 0
M  V30 8356 H 775.889 2.43952 -4.1234 0
M  V30 8357 H 774.253 1.37925 -2.14124 0
M  V30 8358 H 775.036 0.30254 -3.41964 0
M  V30 8359 N 777.481 1.45874 0.596531 0
M  V30 8360 C 778.709 1.54013 1.38158 0
M  V30 8361 C 779.124 0.17648 1.87973 0
M  V30 8362 O 778.481 -0.823895 1.62844 0
M  V30 8363 C 778.532 2.53363 2.57855 0
M  V30 8364 O 778.253 3.8443 2.10108 0
M  V30 8365 C 779.754 2.71308 3.50581 0
M  V30 8366 H 776.974 0.521251 0.422538 0
M  V30 8367 H 779.518 1.9116 0.726493 0
M  V30 8368 H 777.673 2.19257 3.19382 0
M  V30 8369 H 778.087 4.38384 2.87958 0
M  V30 8370 H 779.561 3.44776 4.31084 0
M  V30 8371 H 780.038 1.77728 4.01633 0
M  V30 8372 H 780.644 3.06455 2.94899 0
M  V30 8373 N 778.959 -0.83999 1.33349 0
M  V30 8374 C 780.199 -1.60888 1.26073 0
M  V30 8375 C 780.563 -1.91234 -0.17129 0
M  V30 8376 O 781.764 -2.66269 -0.36799 0
M  V30 8377 C 780.035 -2.88438 2.11042 0
M  V30 8378 S 781.594 -3.79116 2.20944 0
M  V30 8379 H 778.412 -0.55166 0.448545 0
M  V30 8380 H 781.014 -0.99359 1.68369 0
M  V30 8381 H 779.718 -2.64113 3.14121 0
M  V30 8382 H 779.249 -3.54974 1.69579 0
M  V30 8383 H 781.264 -4.76921 1.36969 0
M  V30 8384 N 780.437 -1.16799 -1.0581 0
M  V30 8385 C 781.683 -0.953935 -1.78963 0
M  V30 8386 C 782.016 0.516638 -1.87202 0
M  V30 8387 O 781.291 1.38338 -1.36721 0
M  V30 8388 C 781.574 -1.58808 -3.23191 0
M  V30 8389 C 781.427 -3.13032 -3.23003 0
M  V30 8390 C 782.746 -1.2868 -4.20867 0
M  V30 8391 H 779.865 -0.347972 -0.64968 0
M  V30 8392 H 782.507 -1.44204 -1.23715 0
M  V30 8393 H 780.657 -1.17303 -3.70368 0
M  V30 8394 H 782.329 -3.63553 -2.83949 0
M  V30 8395 H 780.572 -3.46108 -2.61518 0
M  V30 8396 H 781.243 -3.52527 -4.24769 0
M  V30 8397 H 783.719 -1.6461 -3.82155 0
M  V30 8398 H 782.595 -1.75645 -5.20038 0
M  V30 8399 H 782.856 -0.206491 -4.41618 0
M  V30 8400 N 781.915 1.24427 -0.967243 0
M  V30 8401 C 782.845 2.2773 -0.515899 0
M  V30 8402 C 783.826 1.64197 0.444227 0
M  V30 8403 O 785.011 1.91193 0.340451 0
M  V30 8404 C 782.141 3.46751 0.195149 0
M  V30 8405 C 781.095 4.22548 -0.680953 0
M  V30 8406 C 780.421 5.34456 0.161561 0
M  V30 8407 C 781.721 4.83914 -1.96532 0
M  V30 8408 H 783.415 2.65735 -1.37933 0
M  V30 8409 H 780.961 1.27742 -0.664681 0
M  V30 8410 H 782.914 4.18153 0.522117 0
M  V30 8411 H 781.638 3.07771 1.09292 0
M  V30 8412 H 780.297 3.52946 -0.991186 0
M  V30 8413 H 779.945 4.91716 1.05947 0
M  V30 8414 H 779.645 5.86087 -0.421418 0
M  V30 8415 H 781.169 6.08685 0.483211 0
M  V30 8416 H 782.583 5.47392 -1.70396 0
M  V30 8417 H 780.98 5.45775 -2.49499 0
M  V30 8418 H 782.05 4.05393 -2.66053 0
M  V30 8419 N 783.393 0.737304 1.3929 0
M  V30 8420 C 784.804 0.355966 1.83275 0
M  V30 8421 C 785.155 -1.11295 1.6158 0
M  V30 8422 O 784.28 -1.85871 1.10819 0
M  V30 8423 C 784.875 0.63931 3.32713 0
M  V30 8424 C 783.434 0.31144 3.75109 0
M  V30 8425 C 782.581 0.900765 2.62262 0
M  V30 8426 H 785.532 0.934763 1.28249 0
M  V30 8427 H 785.553 -0.0881293 3.80398 0
M  V30 8428 H 785.065 1.70847 3.48472 0
M  V30 8429 H 783.166 -0.751791 3.64937 0
M  V30 8430 H 783.279 0.795611 4.72448 0
M  V30 8431 H 781.643 0.327239 2.52589 0
M  V30 8432 H 782.426 1.97463 2.80826 0
M  V30 8433 N 784.871 -1.49948 0.485112 0
M  V30 8434 C 786.148 -1.95186 -0.12726 0
M  V30 8435 C 786.528 -1.42605 -1.5565 0
M  V30 8436 O 785.876 -0.632986 -2.19558 0
M  V30 8437 C 786.086 -3.48955 -0.0562117 0
M  V30 8438 C 787.434 -4.23932 -0.238106 0
M  V30 8439 O 788.458 -3.55955 -0.132145 0
M  V30 8440 O 787.317 -5.44614 -0.453658 0
M  V30 8441 H 784.411 -0.820433 -0.104014 0
M  V30 8442 H 786.957 -1.60659 0.546517 0
M  V30 8443 H 785.729 -3.79814 0.941122 0
M  V30 8444 H 785.352 -3.90056 -0.770834 0
M  V30 8445 N 786.349 -0.21828 -1.56081 0
M  V30 8446 C 787.574 0.422302 -2.03055 0
M  V30 8447 C 787.999 1.5279 -1.09713 0
M  V30 8448 O 787.357 1.81102 -0.0847187 0
M  V30 8449 C 787.405 0.934177 -3.48289 0
M  V30 8450 O 786.509 2.04574 -3.58083 0
M  V30 8451 H 785.85 0.0959764 -0.657027 0
M  V30 8452 H 788.38 -0.335958 -2.01823 0
M  V30 8453 H 788.39 1.24484 -3.88546 0
M  V30 8454 H 787.065 0.124963 -4.15712 0
M  V30 8455 H 785.642 1.74196 -3.29712 0
M  V30 8456 N 787.827 1.57504 0.0551401 0
M  V30 8457 C 789.073 1.88334 0.752216 0
M  V30 8458 C 789.406 0.812742 1.76375 0
M  V30 8459 O 788.681 -0.175198 1.93709 0
M  V30 8460 C 788.964 3.29824 1.44528 0
M  V30 8461 C 788.817 4.47553 0.449026 0
M  V30 8462 C 790.136 3.69808 2.38601 0
M  V30 8463 H 787.255 0.684973 0.271995 0
M  V30 8464 H 789.897 1.89994 0.0151895 0
M  V30 8465 H 788.047 3.28539 2.07351 0
M  V30 8466 H 789.719 4.60967 -0.175277 0
M  V30 8467 H 787.962 4.33168 -0.234162 0
M  V30 8468 H 788.633 5.43376 0.971917 0
M  V30 8469 H 791.109 3.72293 1.85842 0
M  V30 8470 H 789.985 4.69665 2.84088 0
M  V30 8471 H 790.246 3.00641 3.24141 0
M  V30 8472 N 789.305 -0.326896 1.54172 0
M  V30 8473 C 790.551 -1.06681 1.72473 0
M  V30 8474 C 790.884 -1.87779 0.49523 0
M  V30 8475 O 790.159 -1.87754 -0.507803 0
M  V30 8476 C 790.442 -1.99429 2.99834 0
M  V30 8477 C 790.295 -1.21682 4.33028 0
M  V30 8478 C 791.614 -2.99002 3.22933 0
M  V30 8479 H 788.733 -0.386438 0.627563 0
M  V30 8480 H 791.375 -0.343779 1.86864 0
M  V30 8481 H 789.525 -2.61081 2.87696 0
M  V30 8482 H 791.197 -0.625153 4.57044 0
M  V30 8483 H 789.44 -0.519045 4.30684 0
M  V30 8484 H 790.111 -1.89766 5.18356 0
M  V30 8485 H 792.587 -2.4747 3.34511 0
M  V30 8486 H 791.463 -3.61085 4.13412 0
M  V30 8487 H 791.724 -3.71281 2.40006 0
M  V30 8488 N 790.784 -1.46188 -0.588786 0
M  V30 8489 C 791.731 -1.56292 -1.69828 0
M  V30 8490 C 792.701 -0.407581 -1.61022 0
M  V30 8491 O 793.886 -0.623532 -1.80324 0
M  V30 8492 C 791.026 -1.55341 -3.08161 0
M  V30 8493 C 790.139 -2.81564 -3.27636 0
M  V30 8494 C 789.274 -2.72158 -4.56183 0
M  V30 8495 C 788.313 -3.93348 -4.68981 0
M  V30 8496 N 787.45 -3.82365 -5.88848 0
M  V30 8497 H 792.29 -2.51066 -1.6053 0
M  V30 8498 H 789.827 -1.24562 -0.782474 0
M  V30 8499 H 791.785 -1.52776 -3.88221 0
M  V30 8500 H 790.415 -0.641034 -3.16371 0
M  V30 8501 H 789.467 -2.94136 -2.41223 0
M  V30 8502 H 790.779 -3.714 -3.32962 0
M  V30 8503 H 789.933 -2.67665 -5.44464 0
M  V30 8504 H 788.672 -1.79953 -4.53286 0
M  V30 8505 H 787.677 -3.98181 -3.7912 0
M  V30 8506 H 788.902 -4.86643 -4.73662 0
M  V30 8507 H 786.848 -2.92942 -5.86959 0
M  V30 8508 H 786.765 -4.65851 -5.95415 0
M  V30 8509 H 788.033 -3.81836 -6.79575 0
M  V30 8510 N 792.262 0.832906 -1.33792 0
M  V30 8511 C 793.673 1.40489 -1.22963 0
M  V30 8512 C 794.024 1.95633 0.149026 0
M  V30 8513 O 793.149 1.8928 1.04891 0
M  V30 8514 C 793.744 2.55387 -2.22627 0
M  V30 8515 C 792.303 3.08522 -2.15618 0
M  V30 8516 C 791.45 1.81347 -2.09782 0
M  V30 8517 H 794.401 0.638156 -1.45304 0
M  V30 8518 H 794.422 3.33193 -1.83746 0
M  V30 8519 H 793.934 2.15222 -3.22957 0
M  V30 8520 H 792.035 3.53217 -1.18611 0
M  V30 8521 H 792.148 3.6829 -3.0643 0
M  V30 8522 H 790.512 2.01839 -1.55349 0
M  V30 8523 H 791.295 1.43369 -3.1193 0
M  V30 8524 N 793.74 1.17359 1.05189 0
M  V30 8525 C 794.67 0.91365 2.14883 0
M  V30 8526 C 795.651 -0.144365 1.69486 0
M  V30 8527 O 796.836 0.00587861 1.94199 0
M  V30 8528 C 793.966 0.426196 3.44675 0
M  V30 8529 C 792.92 1.4234 4.03638 0
M  V30 8530 C 792.246 0.793902 5.28773 0
M  V30 8531 C 793.546 2.7966 4.41121 0
M  V30 8532 H 795.24 1.831 2.36885 0
M  V30 8533 H 792.786 0.881781 1.13845 0
M  V30 8534 H 794.739 0.231767 4.20762 0
M  V30 8535 H 793.463 -0.526693 3.22325 0
M  V30 8536 H 792.122 1.60457 3.2962 0
M  V30 8537 H 791.77 -0.165824 5.02727 0
M  V30 8538 H 791.47 1.45959 5.69183 0
M  V30 8539 H 792.994 0.609747 6.07548 0
M  V30 8540 H 794.408 2.6526 5.08242 0
M  V30 8541 H 792.805 3.42807 4.92548 0
M  V30 8542 H 793.875 3.34068 3.51464 0
M  V30 8543 N 795.218 -1.23913 0.973828 0
M  V30 8544 C 796.629 -1.73992 0.677021 0
M  V30 8545 C 796.98 -1.78833 -0.807036 0
M  V30 8546 O 796.105 -1.42183 -1.63135 0
M  V30 8547 C 796.7 -3.15985 1.22226 0
M  V30 8548 C 795.259 -3.63547 0.975228 0
M  V30 8549 C 794.406 -2.42001 1.35392 0
M  V30 8550 H 797.357 -1.09529 1.14844 0
M  V30 8551 H 797.378 -3.75875 0.591489 0
M  V30 8552 H 796.89 -3.12429 2.30238 0
M  V30 8553 H 794.991 -3.72493 -0.0891047 0
M  V30 8554 H 795.104 -4.50693 1.62518 0
M  V30 8555 H 793.468 -2.42708 0.772334 0
M  V30 8556 H 794.251 -2.41122 2.44367 0
M  V30 8557 N 796.696 -0.74468 -1.38897 0
M  V30 8558 C 798.107 -0.36568 -1.83084 0
M  V30 8559 C 798.458 1.10436 -1.62168 0
M  V30 8560 O 797.583 1.85281 -1.11804 0
M  V30 8561 C 798.178 -0.656946 -3.3237 0
M  V30 8562 C 796.737 -0.331329 -3.74939 0
M  V30 8563 C 795.884 -0.914661 -2.61781 0
M  V30 8564 H 798.835 -0.941551 -1.27752 0
M  V30 8565 H 798.856 0.0679546 -3.80439 0
M  V30 8566 H 798.368 -1.72693 -3.47561 0
M  V30 8567 H 796.469 0.732426 -3.6533 0
M  V30 8568 H 796.582 -0.820655 -4.72019 0
M  V30 8569 H 794.946 -0.34063 -2.52412 0
M  V30 8570 H 795.729 -1.98949 -2.79775 0
M  V30 8571 N 798.174 1.49689 -0.493057 0
M  V30 8572 C 799.399 2.07331 0.0535114 0
M  V30 8573 C 799.824 1.35196 1.30781 0
M  V30 8574 O 799.182 0.406246 1.7669 0
M  V30 8575 C 799.23 3.59364 0.29825 0
M  V30 8576 O 798.334 3.88819 1.37454 0
M  V30 8577 H 797.675 0.663612 -0.0227018 0
M  V30 8578 H 800.205 1.926 -0.690402 0
M  V30 8579 H 800.215 4.04515 0.532159 0
M  V30 8580 H 798.89 4.1128 -0.618207 0
M  V30 8581 H 797.467 3.55487 1.12621 0
M  V30 8582 N 799.652 0.226554 1.55963 0
M  V30 8583 C 800.877 -0.411527 2.03276 0
M  V30 8584 C 801.302 -1.52206 1.10521 0
M  V30 8585 O 800.66 -1.81054 0.0943217 0
M  V30 8586 C 800.708 -0.915694 3.4878 0
M  V30 8587 O 799.812 -2.02672 3.59163 0
M  V30 8588 H 799.153 -0.0924907 0.657527 0
M  V30 8589 H 801.683 0.346656 2.01642 0
M  V30 8590 H 801.693 -1.22421 3.892 0
M  V30 8591 H 800.368 -0.102915 4.15773 0
M  V30 8592 H 798.945 -1.72445 3.30632 0
M  V30 8593 N 801.13 -1.57531 -0.0467866 0
M  V30 8594 C 802.376 -1.8873 -0.742218 0
M  V30 8595 C 802.709 -0.822084 -1.75941 0
M  V30 8596 O 801.984 0.164922 -1.938 0
M  V30 8597 C 802.267 -3.30586 -1.42776 0
M  V30 8598 C 802.12 -4.47785 -0.425285 0
M  V30 8599 C 803.439 -3.71068 -2.36636 0
M  V30 8600 H 800.558 -0.686406 -0.268359 0
M  V30 8601 H 803.2 -1.89999 -0.00511341 0
M  V30 8602 H 801.35 -3.29634 -2.05605 0
M  V30 8603 H 803.022 -4.60867 0.199721 0
M  V30 8604 H 801.265 -4.33037 0.25713 0
M  V30 8605 H 801.936 -5.43884 -0.943086 0
M  V30 8606 H 804.412 -3.73273 -1.83866 0
M  V30 8607 H 803.288 -4.71165 -2.81593 0
M  V30 8608 H 803.549 -3.02355 -3.22542 0
M  V30 8609 N 802.608 0.318715 -1.54344 0
M  V30 8610 C 803.555 1.39242 -1.84066 0
M  V30 8611 C 804.525 1.51175 -0.688134 0
M  V30 8612 O 805.71 1.66318 -0.935039 0
M  V30 8613 C 802.85 2.75528 -2.07794 0
M  V30 8614 C 801.963 2.72187 -3.35467 0
M  V30 8615 C 801.098 4.00352 -3.4913 0
M  V30 8616 C 800.137 3.91338 -4.7066 0
M  V30 8617 N 799.274 5.11242 -4.81224 0
M  V30 8618 H 804.114 1.13196 -2.75664 0
M  V30 8619 H 801.651 0.547857 -1.36517 0
M  V30 8620 H 803.609 3.54763 -2.19543 0
M  V30 8621 H 802.239 2.99873 -1.19482 0
M  V30 8622 H 801.291 1.84917 -3.3243 0
M  V30 8623 H 802.603 2.61411 -4.24812 0
M  V30 8624 H 801.757 4.88019 -3.60448 0
M  V30 8625 H 800.496 4.1394 -2.57886 0
M  V30 8626 H 799.501 3.02055 -4.59394 0
M  V30 8627 H 800.726 3.7931 -5.63294 0
M  V30 8628 H 798.672 5.25327 -3.92897 0
M  V30 8629 H 798.589 5.0282 -5.64543 0
M  V30 8630 H 799.857 6.0061 -4.96879 0
M  V30 8631 N 804.086 1.46499 0.581025 0
M  V30 8632 C 805.049 1.5677 1.672 0
M  V30 8633 C 806.049 0.444716 1.54528 0
M  V30 8634 O 807.239 0.709074 1.59116 0
M  V30 8635 C 804.371 1.4896 3.06633 0
M  V30 8636 H 805.564 2.54 1.5945 0
M  V30 8637 H 803.117 1.34334 0.799003 0
M  V30 8638 H 803.852 0.530168 3.19937 0
M  V30 8639 H 803.637 2.30439 3.17239 0
M  V30 8640 H 805.127 1.59237 3.86048 0
M  V30 8641 N 805.565 -0.825799 1.34232 0
M  V30 8642 C 806.475 -1.9684 1.27638 0
M  V30 8643 C 807.491 -1.73018 0.184569 0
M  V30 8644 O 808.667 -1.97172 0.410525 0
M  V30 8645 C 805.732 -3.31084 1.02879 0
M  V30 8646 C 804.793 -3.67933 2.21188 0
M  V30 8647 C 804.026 -4.95772 1.976 0
M  V30 8648 O 804.249 -5.62721 0.93281 0
M  V30 8649 O 803.183 -5.30431 2.84477 0
M  V30 8650 H 807.009 -2.05346 2.23756 0
M  V30 8651 H 804.594 -0.960772 1.1441 0
M  V30 8652 H 806.476 -4.11492 0.908406 0
M  V30 8653 H 805.151 -3.23552 0.0979821 0
M  V30 8654 H 804.058 -2.87981 2.38784 0
M  V30 8655 H 805.391 -3.80147 3.12648 0
M  V30 8656 N 807.043 -1.17915 -1.04565 0
M  V30 8657 C 808.292 -0.965816 -1.77073 0
M  V30 8658 C 808.605 0.506005 -1.88942 0
M  V30 8659 O 809.811 0.837717 -2.58253 0
M  V30 8660 C 808.267 -1.67894 -3.18339 0
M  V30 8661 C 807.875 -3.18972 -3.1458 0
M  V30 8662 C 809.619 -1.54823 -3.9526 0
M  V30 8663 C 807.526 -3.82946 -4.50674 0
M  V30 8664 H 806.456 -0.357729 -0.663736 0
M  V30 8665 H 809.107 -1.41235 -1.17153 0
M  V30 8666 H 807.489 -1.16016 -3.78624 0
M  V30 8667 H 808.663 -3.77835 -2.63776 0
M  V30 8668 H 806.978 -3.32127 -2.51159 0
M  V30 8669 H 809.575 -1.99984 -4.95894 0
M  V30 8670 H 809.918 -0.499727 -4.1329 0
M  V30 8671 H 810.451 -2.03953 -3.41538 0
M  V30 8672 H 807.19 -4.8782 -4.37849 0
M  V30 8673 H 806.71 -3.2887 -5.01602 0
M  V30 8674 H 808.389 -3.85518 -5.196 0
M  V30 8675 N 808.521 1.23394 -0.980386 0
M  V30 8676 C 809.749 1.95844 -0.667286 0
M  V30 8677 C 810.164 1.72574 0.765735 0
M  V30 8678 O 809.521 1.01715 1.51526 0
M  V30 8679 C 809.572 3.48844 -0.948151 0
M  V30 8680 O 809.293 3.71325 -2.32485 0
M  V30 8681 C 810.794 4.38494 -0.651002 0
M  V30 8682 H 808.014 0.623535 -0.247882 0
M  V30 8683 H 810.558 1.56885 -1.31176 0
M  V30 8684 H 808.713 3.85819 -0.349681 0
M  V30 8685 H 809.127 4.65619 -2.41452 0
M  V30 8686 H 810.601 5.44648 -0.897887 0
M  V30 8687 H 811.078 4.37236 0.414922 0
M  V30 8688 H 811.684 4.07127 -1.22995 0
M  V30 8689 N 809.999 0.752036 1.385 0
M  V30 8690 C 811.248 0.304294 1.99391 0
M  V30 8691 C 811.561 -1.11982 1.60373 0
M  V30 8692 O 812.767 -1.66795 2.14223 0
M  V30 8693 C 811.223 0.493101 3.56506 0
M  V30 8694 C 810.831 1.9262 4.04477 0
M  V30 8695 C 812.575 0.107994 4.24363 0
M  V30 8696 C 810.482 2.06365 5.54227 0
M  V30 8697 H 809.412 0.110024 0.745929 0
M  V30 8698 H 812.063 0.928355 1.58284 0
M  V30 8699 H 810.445 -0.20012 3.95494 0
M  V30 8700 H 811.619 2.65276 3.76783 0
M  V30 8701 H 809.934 2.26608 3.49339 0
M  V30 8702 H 812.531 0.189474 5.34364 0
M  V30 8703 H 812.874 -0.939165 4.05568 0
M  V30 8704 H 813.407 0.753011 3.90608 0
M  V30 8705 H 810.146 3.0933 5.77923 0
M  V30 8706 H 809.666 1.38167 5.83669 0
M  V30 8707 H 811.345 1.85286 6.19902 0
M  V30 8708 N 811.477 -1.49425 0.500989 0
M  V30 8709 C 812.425 -2.30771 -0.291149 0
M  V30 8710 C 813.419 -1.3938 -0.962787 0
M  V30 8711 O 814.625 -1.56431 -0.890477 0
M  V30 8712 H 811 -0.743499 -0.11275 0
M  V30 8713 H 812.971 -2.95501 0.414917 0
M  V30 8714 C 811.72 -3.20725 -1.34279 0
M  V30 8715 H 811.043 -3.90975 -0.83538 0
M  V30 8716 H 812.483 -3.80583 -1.86903 0
M  V30 8717 C 810.942 -2.40334 -2.36095 0
M  V30 8718 O 811.472 -2.10749 -3.41976 0
M  V30 8719 N 809.678 -2.02359 -2.08565 0
M  V30 8720 H 809.225 -2.26619 -1.22482 0
M  V30 8721 H 809.183 -1.48878 -2.76916 0
M  V30 8722 N 812.955 -0.234822 -1.55841 0
M  V30 8723 C 814.204 0.393685 -1.97821 0
M  V30 8724 C 814.517 1.59947 -1.1259 0
M  V30 8725 O 815.723 2.29835 -1.44528 0
M  V30 8726 C 814.179 0.751811 -3.5196 0
M  V30 8727 C 813.787 -0.431898 -4.45913 0
M  V30 8728 C 815.531 1.34518 -4.02623 0
M  V30 8729 C 813.438 -0.0505976 -5.91378 0
M  V30 8730 H 812.368 0.150864 -0.738753 0
M  V30 8731 H 815.019 -0.333132 -1.80451 0
M  V30 8732 H 813.401 1.53642 -3.6498 0
M  V30 8733 H 814.575 -1.20935 -4.44647 0
M  V30 8734 H 812.89 -0.939385 -4.05666 0
M  V30 8735 H 815.487 1.64359 -5.08813 0
M  V30 8736 H 815.83 2.26554 -3.49255 0
M  V30 8737 H 816.363 0.623729 -3.9288 0
M  V30 8738 H 813.102 -0.937779 -6.48757 0
M  V30 8739 H 812.622 0.690898 -5.95808 0
M  V30 8740 H 814.301 0.37146 -6.45933 0
M  V30 8741 N 814.433 1.57553 0.0384317 0
M  V30 8742 C 815.681 1.88468 0.729672 0
M  V30 8743 C 816.002 0.831302 1.76393 0
M  V30 8744 O 815.272 -0.13622 1.95426 0
M  V30 8745 H 813.852 0.695529 0.272485 0
M  V30 8746 H 816.514 1.94899 0.0066032 0
M  V30 8747 H 815.61 2.8705 1.22511 0
M  V30 8748 N 815.911 -0.310526 1.54511 0
M  V30 8749 C 816.841 -1.38757 1.878 0
M  V30 8750 C 817.822 -1.53353 0.735991 0
M  V30 8751 O 819.007 -1.67018 0.990887 0
M  V30 8752 C 816.137 -2.75327 2.11689 0
M  V30 8753 C 815.091 -2.75506 3.27537 0
M  V30 8754 C 814.417 -4.15275 3.36824 0
M  V30 8755 C 815.717 -2.38093 4.64875 0
M  V30 8756 H 817.411 -1.11146 2.78005 0
M  V30 8757 H 814.957 -0.533232 1.33763 0
M  V30 8758 H 816.91 -3.50752 2.33562 0
M  V30 8759 H 815.634 -3.04443 1.18245 0
M  V30 8760 H 814.293 -2.02538 3.05572 0
M  V30 8761 H 813.941 -4.41553 2.40915 0
M  V30 8762 H 813.641 -4.16299 4.14692 0
M  V30 8763 H 815.165 -4.92493 3.60947 0
M  V30 8764 H 816.579 -3.03232 4.86542 0
M  V30 8765 H 814.976 -2.50345 5.45387 0
M  V30 8766 H 816.046 -1.33227 4.66239 0
M  V30 8767 N 817.389 -1.46805 -0.573248 0
M  V30 8768 C 818.319 -1.60951 -1.69165 0
M  V30 8769 C 819.3 -0.45948 -1.63777 0
M  V30 8770 O 820.485 -0.68688 -1.81647 0
M  V30 8771 C 817.615 -1.60844 -3.07809 0
M  V30 8772 C 816.569 -2.74913 -3.28035 0
M  V30 8773 C 815.895 -2.59871 -4.67302 0
M  V30 8774 C 817.195 -4.16654 -3.14955 0
M  V30 8775 H 818.889 -2.54574 -1.57582 0
M  V30 8776 H 816.435 -1.22516 -0.756686 0
M  V30 8777 H 818.388 -1.69334 -3.85881 0
M  V30 8778 H 817.112 -0.637714 -3.20314 0
M  V30 8779 H 815.771 -2.65908 -2.52366 0
M  V30 8780 H 815.419 -1.60861 -4.76585 0
M  V30 8781 H 815.119 -3.36386 -4.81786 0
M  V30 8782 H 816.643 -2.70265 -5.4753 0
M  V30 8783 H 818.057 -4.26721 -3.82861 0
M  V30 8784 H 816.454 -4.93831 -3.40956 0
M  V30 8785 H 817.524 -4.36146 -2.11908 0
M  V30 8786 N 818.867 0.818669 -1.34668 0
M  V30 8787 C 819.814 1.92983 -1.26595 0
M  V30 8788 C 820.784 1.65506 -0.140315 0
M  V30 8789 O 821.969 1.88063 -0.322005 0
M  V30 8790 C 819.109 3.2932 -1.03163 0
M  V30 8791 C 818.222 3.69061 -2.24539 0
M  V30 8792 C 817.357 4.94368 -1.94355 0
M  V30 8793 C 816.396 5.26702 -3.11851 0
M  V30 8794 N 815.533 6.43187 -2.81522 0
M  V30 8795 H 820.373 1.99219 -2.2162 0
M  V30 8796 H 817.91 0.974612 -1.1018 0
M  V30 8797 H 819.868 4.07897 -0.87613 0
M  V30 8798 H 818.498 3.22584 -0.118045 0
M  V30 8799 H 817.55 2.85842 -2.50995 0
M  V30 8800 H 818.862 3.88924 -3.12313 0
M  V30 8801 H 818.016 5.80742 -1.75566 0
M  V30 8802 H 816.755 4.76515 -1.03848 0
M  V30 8803 H 815.76 4.38823 -3.31231 0
M  V30 8804 H 816.985 5.46492 -4.03142 0
M  V30 8805 H 814.931 6.26783 -1.93596 0
M  V30 8806 H 814.848 6.63243 -3.62829 0
M  V30 8807 H 816.116 7.32621 -2.66247 0
M  V30 8808 N 820.346 1.18468 1.03938 0
M  V30 8809 C 821.595 0.975193 1.76558 0
M  V30 8810 C 821.908 -0.495978 1.89207 0
M  V30 8811 O 823.114 -0.824009 2.58694 0
M  V30 8812 C 821.57 1.69579 3.17444 0
M  V30 8813 C 821.178 3.20636 3.12884 0
M  V30 8814 C 822.922 1.56917 3.94433 0
M  V30 8815 C 820.829 3.8533 4.48636 0
M  V30 8816 H 819.759 0.361244 0.66183 0
M  V30 8817 H 822.41 1.41854 1.16403 0
M  V30 8818 H 820.792 1.18022 3.78004 0
M  V30 8819 H 821.966 3.79228 2.61768 0
M  V30 8820 H 820.281 3.33454 2.49394 0
M  V30 8821 H 822.878 2.02611 4.94826 0
M  V30 8822 H 823.221 0.521638 4.13019 0
M  V30 8823 H 823.754 2.05762 3.40451 0
M  V30 8824 H 820.493 4.90136 4.35255 0
M  V30 8825 H 820.013 3.31526 4.99851 0
M  V30 8826 H 821.692 3.88269 5.17549 0
M  V30 8827 N 821.824 -1.22873 0.986916 0
M  V30 8828 C 823.049 -1.96028 0.677341 0
M  V30 8829 C 823.474 -1.72487 -0.750319 0
M  V30 8830 O 822.832 -1.00036 -1.51203 0
M  V30 8831 C 822.88 -3.46983 0.981593 0
M  V30 8832 O 821.984 -4.12328 0.0770729 0
M  V30 8833 H 821.325 -0.613458 0.254096 0
M  V30 8834 H 823.855 -1.56132 1.32227 0
M  V30 8835 H 823.865 -3.9747 0.920969 0
M  V30 8836 H 822.54 -3.63442 2.02194 0
M  V30 8837 H 821.117 -3.72402 0.192666 0
M  V30 8838 N 823.302 -0.75937 -1.38099 0
M  V30 8839 C 824.548 -0.327559 -2.00745 0
M  V30 8840 C 824.903 1.08042 -1.592 0
M  V30 8841 O 824.196 1.7306 -0.822236 0
M  V30 8842 C 824.39 -0.394999 -3.55211 0
M  V30 8843 C 824.219 -1.80798 -4.11755 0
M  V30 8844 C 822.989 -2.42585 -4.43262 0
M  V30 8845 C 825.187 -2.76556 -4.33614 0
M  V30 8846 N 823.169 -3.75784 -4.85448 0
M  V30 8847 C 824.54 -3.94532 -4.78273 0
M  V30 8848 C 826.595 -2.74004 -4.15724 0
M  V30 8849 C 825.298 -5.10322 -5.06916 0
M  V30 8850 C 827.324 -3.88957 -4.45496 0
M  V30 8851 C 826.686 -5.05672 -4.90383 0
M  V30 8852 H 822.785 -0.166644 -0.764038 0
M  V30 8853 H 825.369 -0.99056 -1.67619 0
M  V30 8854 H 823.54 0.237761 -3.87672 0
M  V30 8855 H 825.272 0.0576828 -4.04659 0
M  V30 8856 H 822.027 -1.94302 -4.31907 0
M  V30 8857 H 822.451 -4.44234 -5.10867 0
M  V30 8858 H 827.093 -1.84948 -3.80203 0
M  V30 8859 H 824.811 -5.99988 -5.41332 0
M  V30 8860 H 828.397 -3.88308 -4.33253 0
M  V30 8861 H 827.277 -5.93146 -5.1298 0
M  V30 8862 N 824.78 1.49157 -0.508906 0
M  V30 8863 C 825.69 2.33045 0.269656 0
M  V30 8864 C 826.706 1.45143 0.959662 0
M  V30 8865 O 827.882 1.78155 0.939295 0
M  V30 8866 C 824.947 3.20772 1.31554 0
M  V30 8867 C 824.008 4.24531 0.638131 0
M  V30 8868 C 823.241 5.08065 1.63418 0
M  V30 8869 O 823.464 4.93238 2.86483 0
M  V30 8870 O 822.398 5.90117 1.18516 0
M  V30 8871 H 826.224 3.00821 -0.417183 0
M  V30 8872 H 823.809 1.46938 -0.270119 0
M  V30 8873 H 825.691 3.75095 1.92047 0
M  V30 8874 H 824.366 2.55681 1.98516 0
M  V30 8875 H 823.273 3.74099 -0.00674357 0
M  V30 8876 H 824.606 4.92199 0.0108155 0
M  V30 8877 N 826.258 0.243083 1.55714 0
M  V30 8878 C 827.205 -0.658078 2.21219 0
M  V30 8879 C 828.175 -1.1742 1.17481 0
M  V30 8880 O 829.36 -1.22937 1.45915 0
M  V30 8881 C 826.5 -1.85104 2.91257 0
M  V30 8882 C 825.613 -1.3718 4.09641 0
M  V30 8883 C 824.748 -2.52403 4.67404 0
M  V30 8884 C 823.787 -2.01321 5.78045 0
M  V30 8885 N 822.924 -3.09896 6.30007 0
M  V30 8886 H 827.764 -0.0927854 2.97856 0
M  V30 8887 H 825.301 -0.0340375 1.47061 0
M  V30 8888 H 827.259 -2.55179 3.3006 0
M  V30 8889 H 825.889 -2.38887 2.17101 0
M  V30 8890 H 824.941 -0.565232 3.76177 0
M  V30 8891 H 826.253 -0.957409 4.89525 0
M  V30 8892 H 825.407 -3.30525 5.08761 0
M  V30 8893 H 824.146 -2.97142 3.86728 0
M  V30 8894 H 823.151 -1.21667 5.36169 0
M  V30 8895 H 824.376 -1.57556 6.6057 0
M  V30 8896 H 822.322 -3.54077 5.52237 0
M  V30 8897 H 822.239 -2.72776 7.05074 0
M  V30 8898 H 823.507 -3.8809 6.76023 0
M  V30 8899 N 827.736 -1.57571 -0.0300757 0
M  V30 8900 C 829.147 -1.77567 -0.576802 0
M  V30 8901 C 829.498 -0.874034 -1.75656 0
M  V30 8902 O 828.623 -0.0686124 -2.16291 0
M  V30 8903 C 829.218 -3.22016 -1.05315 0
M  V30 8904 C 827.777 -3.43212 -1.5454 0
M  V30 8905 C 826.924 -2.73061 -0.483033 0
M  V30 8906 H 829.875 -1.57483 0.196151 0
M  V30 8907 H 829.896 -3.28474 -1.92055 0
M  V30 8908 H 829.408 -3.87613 -0.194298 0
M  V30 8909 H 827.509 -2.82788 -2.42615 0
M  V30 8910 H 827.622 -4.5182 -1.5936 0
M  V30 8911 H 825.986 -2.36805 -0.937835 0
M  V30 8912 H 826.769 -3.4134 0.366341 0
M  V30 8913 N 829.214 0.302327 -1.54673 0
M  V30 8914 C 830.46 1.03924 -1.74149 0
M  V30 8915 C 830.793 1.86968 -0.525041 0
M  V30 8916 O 830.068 1.88538 0.477868 0
M  V30 8917 C 830.351 1.94633 -3.02969 0
M  V30 8918 C 830.204 1.14778 -4.34909 0
M  V30 8919 C 831.523 2.93826 -3.27649 0
M  V30 8920 H 828.642 0.376405 -0.633631 0
M  V30 8921 H 831.284 0.314007 -1.87387 0
M  V30 8922 H 829.434 2.56471 -2.91813 0
M  V30 8923 H 831.106 0.552363 -4.57981 0
M  V30 8924 H 829.349 0.450462 -4.31455 0
M  V30 8925 H 830.02 1.81495 -5.21309 0
M  V30 8926 H 832.496 2.42117 -3.38406 0
M  V30 8927 H 831.372 3.54462 -4.19104 0
M  V30 8928 H 831.633 3.67416 -2.45882 0
M  V30 8929 N 830.692 1.47107 0.565454 0
M  V30 8930 C 831.939 1.53308 1.32299 0
M  V30 8931 C 832.267 0.1919 1.93551 0
M  V30 8932 O 831.522 -0.81435 1.77952 0
M  V30 8933 C 831.821 2.59309 2.45954 0
M  V30 8934 C 831.487 4.02827 2.02586 0
M  V30 8935 C 830.149 4.41897 1.90474 0
M  V30 8936 C 832.501 4.92913 1.6937 0
M  V30 8937 C 829.829 5.68898 1.4343 0
M  V30 8938 C 832.181 6.20368 1.238 0
M  V30 8939 C 830.845 6.58327 1.10278 0
M  V30 8940 H 830.115 0.560993 0.484116 0
M  V30 8941 H 832.762 1.80667 0.634965 0
M  V30 8942 H 831.067 2.25676 3.20277 0
M  V30 8943 H 832.764 2.61332 3.04149 0
M  V30 8944 H 829.354 3.71953 2.12952 0
M  V30 8945 H 833.538 4.63433 1.77605 0
M  V30 8946 H 828.794 5.97065 1.31618 0
M  V30 8947 H 832.968 6.89589 0.971586 0
M  V30 8948 H 830.595 7.56628 0.736027 0
M  V30 8949 N 832.17 -0.811516 1.35101 0
M  V30 8950 C 833.581 -1.38515 1.25182 0
M  V30 8951 C 833.932 -1.95846 -0.117883 0
M  V30 8952 O 833.057 -1.90925 -1.01866 0
M  V30 8953 C 833.652 -2.51813 2.26662 0
M  V30 8954 C 832.211 -3.05052 2.20499 0
M  V30 8955 C 831.358 -1.77987 2.12641 0
M  V30 8956 H 834.309 -0.614959 1.46301 0
M  V30 8957 H 834.33 -3.30228 1.89023 0
M  V30 8958 H 833.842 -2.10057 3.2634 0
M  V30 8959 H 831.943 -3.51285 1.24215 0
M  V30 8960 H 832.056 -3.63368 3.1225 0
M  V30 8961 H 830.42 -1.99342 1.5854 0
M  V30 8962 H 831.203 -1.38389 3.14171 0
M  V30 8963 N 833.648 -1.19017 -1.03309 0
M  V30 8964 C 834.558 -0.939303 -2.14975 0
M  V30 8965 C 835.574 0.0992359 -1.73717 0
M  V30 8966 O 836.75 -0.0844362 -2.01223 0
M  V30 8967 C 833.815 -0.476712 -3.43407 0
M  V30 8968 C 832.876 -1.58413 -3.99003 0
M  V30 8969 C 832.109 -1.14352 -5.21305 0
M  V30 8970 O 832.332 -0.00534408 -5.704 0
M  V30 8971 O 831.266 -1.94436 -5.6963 0
M  V30 8972 H 835.092 -1.87386 -2.38998 0
M  V30 8973 H 832.677 -0.972635 -1.13403 0
M  V30 8974 H 834.559 -0.22718 -4.20787 0
M  V30 8975 H 833.234 0.429455 -3.20839 0
M  V30 8976 H 832.141 -1.88777 -3.22977 0
M  V30 8977 H 833.474 -2.4667 -4.25928 0
M  V30 8978 N 835.127 1.22348 -0.993418 0
M  V30 8979 C 836.075 2.26315 -0.537052 0
M  V30 8980 C 837.069 1.643 0.412545 0
M  V30 8981 O 838.275 1.77729 0.285008 0
M  V30 8982 H 834.65 0.735792 -0.155286 0
M  V30 8983 H 836.621 2.62157 -1.42535 0
M  V30 8984 C 835.37 3.47449 0.132118 0
M  V30 8985 H 834.693 3.9543 -0.589519 0
M  V30 8986 H 836.133 4.21965 0.414884 0
M  V30 8987 C 834.592 3.07893 1.36761 0
M  V30 8988 O 835.122 3.17338 2.46291 0
M  V30 8989 N 833.328 2.62672 1.24305 0
M  V30 8990 H 832.875 2.55186 0.351826 0
M  V30 8991 H 832.833 2.36574 2.07076 0
M  V30 8992 N 836.605 0.766683 1.37694 0
M  V30 8993 C 837.553 0.137269 2.32195 0
M  V30 8994 C 838.547 -0.69067 1.54681 0
M  V30 8995 O 839.753 -0.588299 1.70115 0
M  V30 8996 H 836.128 0.0256003 0.751564 0
M  V30 8997 H 838.099 0.950129 2.82869 0
M  V30 8998 C 836.848 -0.731446 3.39919 0
M  V30 8999 H 836.171 -0.103738 3.99665 0
M  V30 9000 H 837.611 -1.13891 4.08417 0
M  V30 9001 C 836.07 -1.87984 2.79578 0
M  V30 9002 O 836.6 -2.97496 2.69924 0
M  V30 9003 N 834.806 -1.6789 2.37195 0
M  V30 9004 H 834.353 -0.788162 2.45246 0
M  V30 9005 H 834.311 -2.44894 1.97165 0
M  V30 9006 N 838.083 -1.48885 0.516809 0
M  V30 9007 C 839.013 -2.32241 -0.242157 0
M  V30 9008 C 839.994 -1.41258 -0.947633 0
M  V30 9009 O 841.179 -1.70156 -0.935973 0
M  V30 9010 C 838.309 -3.22151 -1.29754 0
M  V30 9011 C 837.263 -4.22053 -0.710995 0
M  V30 9012 C 836.589 -5.01007 -1.86806 0
M  V30 9013 C 837.889 -5.21388 0.30853 0
M  V30 9014 H 839.583 -2.95943 0.453651 0
M  V30 9015 H 837.129 -1.42316 0.219612 0
M  V30 9016 H 839.082 -3.79284 -1.83634 0
M  V30 9017 H 837.806 -2.56423 -2.02274 0
M  V30 9018 H 836.465 -3.66087 -0.193819 0
M  V30 9019 H 836.113 -4.31713 -2.58133 0
M  V30 9020 H 835.813 -5.68615 -1.48159 0
M  V30 9021 H 837.337 -5.60989 -2.4109 0
M  V30 9022 H 838.751 -5.73122 -0.142703 0
M  V30 9023 H 837.148 -5.96975 0.611673 0
M  V30 9024 H 838.218 -4.69329 1.21894 0
M  V30 9025 N 839.561 -0.251338 -1.55583 0
M  V30 9026 C 840.493 0.679167 -2.18906 0
M  V30 9027 C 841.506 1.13545 -1.16667 0
M  V30 9028 O 842.695 1.06146 -1.4351 0
M  V30 9029 C 839.795 1.93544 -2.78198 0
M  V30 9030 C 838.968 1.62987 -4.05899 0
M  V30 9031 C 838.027 2.73618 -4.49466 0
M  V30 9032 O 837.053 2.40815 -5.15749 0
M  V30 9033 N 838.255 4.03204 -4.1762 0
M  V30 9034 H 841.02 0.137328 -2.99385 0
M  V30 9035 H 838.581 -0.0714754 -1.61742 0
M  V30 9036 H 840.573 2.66804 -3.04299 0
M  V30 9037 H 839.143 2.38695 -2.0185 0
M  V30 9038 H 838.363 0.732237 -3.8734 0
M  V30 9039 H 839.651 1.40041 -4.89148 0
M  V30 9040 H 839.049 4.32686 -3.64416 0
M  V30 9041 H 837.606 4.72916 -4.48547 0
M  V30 9042 N 841.039 1.57585 0.0217189 0
M  V30 9043 C 842.286 1.89606 0.711045 0
M  V30 9044 C 842.614 0.849535 1.74966 0
M  V30 9045 O 841.869 -0.14856 1.95135 0
M  V30 9046 C 842.168 3.28377 1.41079 0
M  V30 9047 C 841.834 4.48035 0.507454 0
M  V30 9048 C 840.496 4.80504 0.258672 0
M  V30 9049 C 842.848 5.21071 -0.115793 0
M  V30 9050 C 840.176 5.83393 -0.622013 0
M  V30 9051 C 842.528 6.24897 -0.984224 0
M  V30 9052 C 841.192 6.55836 -1.2424 0
M  V30 9053 H 840.462 0.693817 0.26019 0
M  V30 9054 H 843.109 1.91478 -0.0291424 0
M  V30 9055 H 841.414 3.22528 2.22448 0
M  V30 9056 H 843.111 3.50404 1.94982 0
M  V30 9057 H 839.701 4.22653 0.711516 0
M  V30 9058 H 843.885 4.96259 0.0634327 0
M  V30 9059 H 839.141 6.05736 -0.830267 0
M  V30 9060 H 843.315 6.8063 -1.47363 0
M  V30 9061 H 840.942 7.35383 -1.92653 0
M  V30 9062 N 842.517 -0.29412 1.54831 0
M  V30 9063 C 843.449 -1.38476 1.82639 0
M  V30 9064 C 844.462 -1.46517 0.709694 0
M  V30 9065 O 845.651 -1.48712 0.987269 0
M  V30 9066 C 842.751 -2.76791 1.95551 0
M  V30 9067 C 841.924 -2.91599 3.26019 0
M  V30 9068 C 840.983 -4.10456 3.29261 0
M  V30 9069 O 840.009 -4.02214 4.02756 0
M  V30 9070 N 841.211 -5.21422 2.55145 0
M  V30 9071 H 843.976 -1.14974 2.76769 0
M  V30 9072 H 841.537 -0.484206 1.5449 0
M  V30 9073 H 843.529 -3.5456 1.95113 0
M  V30 9074 H 842.099 -2.93209 1.08384 0
M  V30 9075 H 841.319 -2.00886 3.39173 0
M  V30 9076 H 842.607 -2.98409 4.12104 0
M  V30 9077 H 842.005 -5.31 1.95078 0
M  V30 9078 H 840.562 -5.97501 2.60454 0
M  V30 9079 N 843.995 -1.47404 -0.557645 0
M  V30 9080 C 845.244 -1.53268 -1.31118 0
M  V30 9081 C 845.557 -0.199414 -1.94581 0
M  V30 9082 O 846.763 -0.136039 -2.71159 0
M  V30 9083 C 845.219 -2.70178 -2.37764 0
M  V30 9084 C 844.827 -4.10032 -1.80493 0
M  V30 9085 C 846.571 -2.85334 -3.14301 0
M  V30 9086 C 844.478 -5.18244 -2.84916 0
M  V30 9087 H 843.408 -0.570491 -0.493007 0
M  V30 9088 H 846.059 -1.73678 -0.592308 0
M  V30 9089 H 844.441 -2.43147 -3.12563 0
M  V30 9090 H 845.615 -4.46964 -1.12069 0
M  V30 9091 H 843.93 -3.99759 -1.16542 0
M  V30 9092 H 846.527 -3.63347 -3.92279 0
M  V30 9093 H 846.87 -1.93761 -3.68459 0
M  V30 9094 H 847.403 -3.12133 -2.46613 0
M  V30 9095 H 844.142 -6.11691 -2.35614 0
M  V30 9096 H 843.662 -4.85829 -3.51753 0
M  V30 9097 H 845.341 -5.45174 -3.48417 0
M  V30 9098 N 845.473 0.80434 -1.35529 0
M  V30 9099 C 846.889 1.10023 -1.15616 0
M  V30 9100 C 847.089 2.01478 0.0298535 0
M  V30 9101 O 846.145 2.42609 0.699778 0
M  V30 9102 C 847.458 1.72905 -2.46017 0
M  V30 9103 C 849.006 1.85315 -2.52245 0
M  V30 9104 C 849.481 2.51612 -3.82695 0
M  V30 9105 N 850.972 2.59095 -3.83958 0
M  V30 9106 C 851.707 3.11167 -4.81625 0
M  V30 9107 N 851.203 3.63659 -5.89681 0
M  V30 9108 N 852.996 3.09741 -4.6906 0
M  V30 9109 H 845.147 0.196428 -2.1149 0
M  V30 9110 H 847.41 0.149735 -0.9361 0
M  V30 9111 H 847.116 1.13171 -3.32994 0
M  V30 9112 H 846.99 2.72579 -2.6073 0
M  V30 9113 H 849.377 2.44191 -1.65695 0
M  V30 9114 H 849.458 0.844886 -2.41444 0
M  V30 9115 H 849.102 1.93385 -4.69643 0
M  V30 9116 H 849.032 3.5298 -3.90785 0
M  V30 9117 H 851.523 2.21908 -3.05884 0
M  V30 9118 H 851.836 4.01699 -6.60195 0
M  V30 9119 H 850.181 3.61852 -5.9337 0
M  V30 9120 H 853.372 2.68011 -3.83781 0
M  V30 9121 H 853.545 3.50016 -5.45338 0
M  V30 9122 N 846.951 1.19563 1.02676 0
M  V30 9123 C 848.181 1.0234 1.79472 0
M  V30 9124 C 848.589 -0.430891 1.84228 0
M  V30 9125 O 847.932 -1.31106 1.28674 0
M  V30 9126 C 847.994 1.51901 3.25832 0
M  V30 9127 C 847.658 3.00045 3.44706 0
M  V30 9128 C 848.655 3.9779 3.34752 0
M  V30 9129 C 846.34 3.38784 3.70851 0
M  V30 9130 C 848.334 5.32267 3.50672 0
M  V30 9131 C 846.021 4.73419 3.86416 0
M  V30 9132 C 847.019 5.69969 3.7633 0
M  V30 9133 O 846.707 7.02165 3.91432 0
M  V30 9134 H 846.439 0.360936 0.571578 0
M  V30 9135 H 848.993 1.58863 1.30198 0
M  V30 9136 H 847.223 0.897546 3.7614 0
M  V30 9137 H 848.912 1.30853 3.84229 0
M  V30 9138 H 849.678 3.69207 3.14502 0
M  V30 9139 H 845.557 2.64183 3.77794 0
M  V30 9140 H 849.101 6.07612 3.42715 0
M  V30 9141 H 844.998 5.01697 4.06165 0
M  V30 9142 H 845.766 7.09268 4.08511 0
M  V30 9143 N 848.429 -1.21819 0.999893 0
M  V30 9144 C 849.677 -1.90375 0.678351 0
M  V30 9145 C 849.998 -1.78155 -0.792824 0
M  V30 9146 O 849.268 -1.17319 -1.56885 0
M  V30 9147 H 847.848 -0.704661 0.247915 0
M  V30 9148 H 850.51 -1.48021 1.2679 0
M  V30 9149 H 849.606 -2.97385 0.947023 0
M  V30 9150 N 849.908 -0.773975 -1.37286 0
M  V30 9151 C 850.838 -0.175782 -2.32837 0
M  V30 9152 C 851.819 0.680603 -1.5589 0
M  V30 9153 O 853.004 0.617607 -1.84117 0
M  V30 9154 C 850.134 0.702388 -3.40123 0
M  V30 9155 C 849.088 -0.0528687 -4.27967 0
M  V30 9156 C 848.414 0.944891 -5.26285 0
M  V30 9157 C 849.714 -1.23316 -5.07534 0
M  V30 9158 H 851.408 -0.974016 -2.83114 0
M  V30 9159 H 848.954 -0.469826 -1.3612 0
M  V30 9160 H 850.907 1.13069 -4.05947 0
M  V30 9161 H 849.631 1.53316 -2.88378 0
M  V30 9162 H 848.29 -0.461978 -3.63678 0
M  V30 9163 H 847.938 1.77028 -4.70819 0
M  V30 9164 H 847.638 0.444079 -5.8592 0
M  V30 9165 H 849.162 1.37209 -5.94984 0
M  V30 9166 H 850.576 -0.881395 -5.66484 0
M  V30 9167 H 848.973 -1.66621 -5.76504 0
M  V30 9168 H 850.043 -2.03617 -4.40077 0
M  V30 9169 N 851.386 1.48609 -0.524698 0
M  V30 9170 C 852.611 2.07398 0.00952139 0
M  V30 9171 C 853.036 1.37939 1.27884 0
M  V30 9172 O 852.394 0.443633 1.75788 0
M  V30 9173 C 852.442 3.59916 0.221956 0
M  V30 9174 O 851.546 3.91647 1.29175 0
M  V30 9175 H 850.887 0.662981 -0.0367729 0
M  V30 9176 H 853.417 1.91092 -0.7311 0
M  V30 9177 H 853.427 4.05552 0.446236 0
M  V30 9178 H 852.102 4.09876 -0.705306 0
M  V30 9179 H 850.679 3.57796 1.05055 0
M  V30 9180 N 852.864 0.259585 1.55447 0
M  V30 9181 C 854.112 -0.360893 1.98852 0
M  V30 9182 C 854.433 -1.57535 1.14924 0
M  V30 9183 O 853.703 -1.94485 0.235025 0
M  V30 9184 H 852.283 -0.136332 0.734454 0
M  V30 9185 H 854.945 0.361319 1.91522 0
M  V30 9186 H 854.041 -0.661388 3.05012 0
M  V30 9187 N 854.342 -1.57594 -0.0133615 0
M  V30 9188 C 855.289 -2.07574 -1.00905 0
M  V30 9189 C 856.259 -0.968231 -1.34961 0
M  V30 9190 O 857.444 -1.23981 -1.45028 0
M  V30 9191 C 854.584 -2.5728 -2.30002 0
M  V30 9192 C 853.697 -3.81881 -2.01967 0
M  V30 9193 C 852.832 -4.20139 -3.25049 0
M  V30 9194 C 851.871 -5.37614 -2.92639 0
M  V30 9195 N 851.008 -5.71229 -4.08218 0
M  V30 9196 H 855.848 -2.92382 -0.575899 0
M  V30 9197 H 853.385 -1.4455 -0.272722 0
M  V30 9198 H 855.343 -2.84171 -3.05454 0
M  V30 9199 H 853.973 -1.75365 -2.71011 0
M  V30 9200 H 853.025 -3.61979 -1.16942 0
M  V30 9201 H 854.337 -4.67441 -1.74069 0
M  V30 9202 H 853.491 -4.48242 -4.08857 0
M  V30 9203 H 852.23 -3.33262 -3.56073 0
M  V30 9204 H 851.235 -5.09248 -2.07235 0
M  V30 9205 H 852.46 -6.26157 -2.62876 0
M  V30 9206 H 850.406 -4.8731 -4.39164 0
M  V30 9207 H 850.323 -6.51333 -3.83799 0
M  V30 9208 H 851.591 -6.03917 -4.92854 0
M  V30 9209 N 855.82 0.285905 -1.54985 0
M  V30 9210 C 856.73 1.37534 -1.90057 0
M  V30 9211 C 857.746 1.54707 -0.796348 0
M  V30 9212 O 858.922 1.69082 -1.09423 0
M  V30 9213 C 855.987 2.7167 -2.15398 0
M  V30 9214 C 855.048 2.63354 -3.39033 0
M  V30 9215 C 854.281 3.91093 -3.63155 0
M  V30 9216 O 854.504 4.91169 -2.90015 0
M  V30 9217 O 853.438 3.92075 -4.56685 0
M  V30 9218 H 857.264 1.10791 -2.8277 0
M  V30 9219 H 854.849 0.483303 -1.41367 0
M  V30 9220 H 856.731 3.51006 -2.33179 0
M  V30 9221 H 855.406 2.98226 -1.25868 0
M  V30 9222 H 854.313 1.82438 -3.26599 0
M  V30 9223 H 855.646 2.41749 -4.2874 0
M  V30 9224 N 857.298 1.47698 0.54982 0
M  V30 9225 C 858.544 1.54931 1.30859 0
M  V30 9226 C 858.877 0.214021 1.93017 0
M  V30 9227 O 858.152 -0.778093 1.78258 0
M  V30 9228 C 858.435 2.67286 2.41309 0
M  V30 9229 C 858.288 4.10457 1.83971 0
M  V30 9230 C 859.607 2.75509 3.43195 0
M  V30 9231 H 856.726 0.56399 0.474431 0
M  V30 9232 H 859.368 1.79787 0.614541 0
M  V30 9233 H 857.518 2.46224 3.0051 0
M  V30 9234 H 859.19 4.42903 1.28974 0
M  V30 9235 H 857.433 4.18387 1.14606 0
M  V30 9236 H 858.104 4.84857 2.63851 0
M  V30 9237 H 860.58 2.94531 2.93923 0
M  V30 9238 H 859.456 3.55886 4.17895 0
M  V30 9239 H 859.717 1.82863 4.02509 0
M  V30 9240 N 858.776 -0.797141 1.35954 0
M  V30 9241 C 859.708 -1.91782 1.25509 0
M  V30 9242 C 860.721 -1.61843 0.176271 0
M  V30 9243 O 861.91 -1.73235 0.430343 0
M  V30 9244 C 859.01 -3.26396 0.912073 0
M  V30 9245 C 858.183 -3.84171 2.0912 0
M  V30 9246 C 857.242 -4.9721 1.72246 0
M  V30 9247 O 856.268 -5.14136 2.44239 0
M  V30 9248 N 857.47 -5.76831 0.651611 0
M  V30 9249 H 860.235 -2.01266 2.22063 0
M  V30 9250 H 857.796 -0.975033 1.29247 0
M  V30 9251 H 859.788 -3.99499 0.646707 0
M  V30 9252 H 858.358 -3.12579 0.0359079 0
M  V30 9253 H 857.578 -3.03148 2.51982 0
M  V30 9254 H 858.866 -4.19503 2.87914 0
M  V30 9255 H 858.264 -5.65675 0.0536678 0
M  V30 9256 H 856.821 -6.50272 0.44605 0
M  V30 9257 N 860.254 -1.20106 -1.0204 0
M  V30 9258 C 861.5 -1.02042 -1.75951 0
M  V30 9259 C 861.855 0.443229 -1.87225 0
M  V30 9260 O 861.148 1.32477 -1.38421 0
M  V30 9261 C 861.342 -1.63308 -3.17908 0
M  V30 9262 C 861.171 -3.15478 -3.20474 0
M  V30 9263 C 859.941 -3.84432 -3.27933 0
M  V30 9264 C 862.139 -4.12747 -3.06829 0
M  V30 9265 N 860.121 -5.23925 -3.19963 0
M  V30 9266 C 861.492 -5.38892 -3.06586 0
M  V30 9267 C 863.547 -4.03996 -2.91018 0
M  V30 9268 C 862.25 -6.57296 -2.92154 0
M  V30 9269 C 864.276 -5.22019 -2.77938 0
M  V30 9270 C 863.638 -6.47067 -2.78358 0
M  V30 9271 H 859.737 -0.427602 -0.654737 0
M  V30 9272 H 862.321 -1.52216 -1.21402 0
M  V30 9273 H 860.492 -1.15723 -3.7076 0
M  V30 9274 H 862.224 -1.38597 -3.80227 0
M  V30 9275 H 858.979 -3.35269 -3.34502 0
M  V30 9276 H 859.403 -5.9694 -3.19362 0
M  V30 9277 H 864.045 -3.0813 -2.8951 0
M  V30 9278 H 861.763 -7.5334 -2.92412 0
M  V30 9279 H 865.349 -5.17057 -2.66728 0
M  V30 9280 H 864.229 -7.36857 -2.6835 0
M  V30 9281 N 861.732 1.21287 -1.00634 0
M  V30 9282 C 862.679 2.23705 -0.567876 0
M  V30 9283 C 863.649 1.61043 0.406753 0
M  V30 9284 O 864.834 1.88289 0.308499 0
M  V30 9285 C 861.974 3.44961 0.097996 0
M  V30 9286 C 861.087 4.22091 -0.919972 0
M  V30 9287 C 860.222 5.30718 -0.226222 0
M  V30 9288 C 859.261 5.99581 -1.23165 0
M  V30 9289 N 858.398 6.99821 -0.565278 0
M  V30 9290 H 863.238 2.60571 -1.44592 0
M  V30 9291 H 860.775 1.28049 -0.724006 0
M  V30 9292 H 862.733 4.1418 0.501097 0
M  V30 9293 H 861.363 3.08818 0.939744 0
M  V30 9294 H 860.415 3.52038 -1.44131 0
M  V30 9295 H 861.727 4.69476 -1.68505 0
M  V30 9296 H 860.881 6.06253 0.232917 0
M  V30 9297 H 859.62 4.84343 0.571247 0
M  V30 9298 H 858.625 5.22816 -1.70128 0
M  V30 9299 H 859.85 6.48042 -2.03022 0
M  V30 9300 H 857.796 6.55656 0.212508 0
M  V30 9301 H 857.713 7.4528 -1.26858 0
M  V30 9302 H 858.981 7.79393 -0.129389 0
M  V30 9303 N 863.21 0.781244 1.36873 0
M  V30 9304 C 864.143 0.120106 2.27884 0
M  V30 9305 C 865.121 -0.698961 1.4681 0
M  V30 9306 O 866.305 -0.671694 1.76126 0
M  V30 9307 C 863.432 -0.835804 3.28226 0
M  V30 9308 C 862.478 -0.0995527 4.26384 0
M  V30 9309 S 863.311 1.21903 5.2144 0
M  V30 9310 C 864.467 0.266904 6.25331 0
M  V30 9311 H 864.7 0.891796 2.83609 0
M  V30 9312 H 862.233 0.575075 1.43291 0
M  V30 9313 H 864.191 -1.3819 3.86541 0
M  V30 9314 H 862.852 -1.58068 2.71428 0
M  V30 9315 H 862.045 -0.82457 4.97209 0
M  V30 9316 H 861.647 0.375818 3.72107 0
M  V30 9317 H 863.939 -0.55725 6.75204 0
M  V30 9318 H 864.882 0.943603 7.01785 0
M  V30 9319 H 865.29 -0.126121 5.64359 0
M  V30 9320 N 864.689 -1.48329 0.532571 0
M  V30 9321 C 865.919 -2.066 0.00353785 0
M  V30 9322 C 866.327 -1.38913 -1.28451 0
M  V30 9323 O 865.67 -0.471385 -1.77549 0
M  V30 9324 C 865.732 -3.58342 -0.288324 0
M  V30 9325 C 865.396 -4.47917 0.906631 0
M  V30 9326 C 866.393 -4.87534 1.80572 0
M  V30 9327 C 864.078 -4.89783 1.11436 0
M  V30 9328 C 866.072 -5.6779 2.89642 0
M  V30 9329 C 863.759 -5.69809 2.20819 0
M  V30 9330 C 864.757 -6.08721 3.09755 0
M  V30 9331 O 864.445 -6.8714 4.17246 0
M  V30 9332 H 864.177 -0.675263 0.0315661 0
M  V30 9333 H 866.731 -1.91669 0.738375 0
M  V30 9334 H 864.961 -3.71395 -1.07717 0
M  V30 9335 H 866.65 -3.98726 -0.759752 0
M  V30 9336 H 867.416 -4.5581 1.65719 0
M  V30 9337 H 863.295 -4.58977 0.431382 0
M  V30 9338 H 866.839 -5.98082 3.59087 0
M  V30 9339 H 862.736 -6.00947 2.35655 0
M  V30 9340 H 863.504 -7.05498 4.14988 0
M  V30 9341 N 866.167 -0.267825 -1.55308 0
M  V30 9342 C 867.077 0.633055 -2.25897 0
M  V30 9343 C 868.093 1.17613 -1.28231 0
M  V30 9344 O 869.269 1.20797 -1.61153 0
M  V30 9345 C 866.334 1.80397 -2.96071 0
M  V30 9346 C 865.395 1.29829 -4.09198 0
M  V30 9347 C 864.628 2.4134 -4.76016 0
M  V30 9348 O 864.851 3.60537 -4.42006 0
M  V30 9349 O 863.785 2.09909 -5.64111 0
M  V30 9350 H 867.611 0.0614381 -3.03638 0
M  V30 9351 H 865.196 -0.0355072 -1.49358 0
M  V30 9352 H 867.078 2.48685 -3.40197 0
M  V30 9353 H 865.753 2.36281 -2.21253 0
M  V30 9354 H 864.66 0.582086 -3.69544 0
M  V30 9355 H 865.993 0.785288 -4.85895 0
M  V30 9356 N 867.645 1.57599 0.00500368 0
M  V30 9357 C 868.891 1.90631 0.691919 0
M  V30 9358 C 869.224 0.868443 1.737 0
M  V30 9359 O 868.499 -0.113482 1.94169 0
M  V30 9360 C 868.782 3.34255 1.33961 0
M  V30 9361 C 868.635 4.48755 0.306413 0
M  V30 9362 C 869.954 3.77211 2.26715 0
M  V30 9363 H 867.073 0.693279 0.250066 0
M  V30 9364 H 869.715 1.89946 -0.0452634 0
M  V30 9365 H 867.865 3.3497 1.96793 0
M  V30 9366 H 869.537 4.60176 -0.321841 0
M  V30 9367 H 867.78 4.32203 -0.371852 0
M  V30 9368 H 868.451 5.46193 0.798554 0
M  V30 9369 H 870.927 3.78017 1.73904 0
M  V30 9370 H 869.803 4.78466 2.69002 0
M  V30 9371 H 870.064 3.10801 3.14413 0
M  V30 9372 N 869.123 -0.277682 1.55134 0
M  V30 9373 C 870.353 -1.02677 1.79279 0
M  V30 9374 C 870.761 -1.80599 0.563962 0
M  V30 9375 O 870.104 -1.77416 -0.476378 0
M  V30 9376 C 870.166 -2.03617 2.96277 0
M  V30 9377 C 869.83 -1.44676 4.33495 0
M  V30 9378 C 870.827 -0.864811 5.12657 0
M  V30 9379 C 868.512 -1.47537 4.80144 0
M  V30 9380 C 870.506 -0.319322 6.366 0
M  V30 9381 C 868.193 -0.926016 6.04043 0
M  V30 9382 C 869.191 -0.348988 6.82108 0
M  V30 9383 O 868.879 0.191964 8.03671 0
M  V30 9384 H 868.611 -0.309232 0.601125 0
M  V30 9385 H 871.165 -0.315308 2.02965 0
M  V30 9386 H 869.395 -2.78509 2.68272 0
M  V30 9387 H 871.084 -2.64616 3.07788 0
M  V30 9388 H 871.85 -0.835438 4.7775 0
M  V30 9389 H 867.729 -1.91389 4.19394 0
M  V30 9390 H 871.273 0.131709 6.97476 0
M  V30 9391 H 867.17 -0.952613 6.38432 0
M  V30 9392 H 867.938 0.0808779 8.1846 0
M  V30 9393 N 870.601 -1.47988 -0.541979 0
M  V30 9394 C 871.878 -1.45878 -1.30303 0
M  V30 9395 C 872.258 -0.163931 -2.10463 0
M  V30 9396 O 871.606 0.854479 -2.11922 0
M  V30 9397 C 871.816 -2.71359 -2.19466 0
M  V30 9398 C 873.164 -3.19199 -2.79995 0
M  V30 9399 O 874.188 -2.72193 -2.2976 0
M  V30 9400 O 873.047 -4.00961 -3.71339 0
M  V30 9401 H 870.141 -0.582043 -0.587498 0
M  V30 9402 H 872.687 -1.60207 -0.559623 0
M  V30 9403 H 871.459 -3.57122 -1.59936 0
M  V30 9404 H 871.082 -2.59692 -3.01075 0
M  V30 9405 N 872.079 0.78992 -1.36375 0
M  V30 9406 C 873.042 1.88414 -1.30509 0
M  V30 9407 C 874.042 1.59384 -0.2129 0
M  V30 9408 O 875.232 1.67805 -0.467651 0
M  V30 9409 C 872.364 3.25188 -1.02302 0
M  V30 9410 H 873.557 1.95031 -2.27822 0
M  V30 9411 H 871.11 0.987664 -1.2114 0
M  V30 9412 H 871.845 3.24254 -0.0544486 0
M  V30 9413 H 871.63 3.47647 -1.81338 0
M  V30 9414 H 873.12 4.05252 -1.00801 0
M  V30 9415 N 873.557 1.20646 1.01402 0
M  V30 9416 C 874.504 0.957618 2.09996 0
M  V30 9417 C 875.474 -0.113115 1.65714 0
M  V30 9418 O 876.659 0.032142 1.90773 0
M  V30 9419 C 873.799 0.5186 3.41181 0
M  V30 9420 C 872.912 1.65777 3.98926 0
M  V30 9421 C 872.047 1.16881 5.18182 0
M  V30 9422 C 871.086 2.2809 5.68015 0
M  V30 9423 N 870.223 1.80392 6.7853 0
M  V30 9424 H 875.063 1.88732 2.30617 0
M  V30 9425 H 872.6 0.940703 1.13089 0
M  V30 9426 H 874.558 0.245367 4.16478 0
M  V30 9427 H 873.188 -0.3741 3.20625 0
M  V30 9428 H 872.24 2.04586 3.207 0
M  V30 9429 H 873.552 2.49507 4.31912 0
M  V30 9430 H 872.706 0.851694 6.00692 0
M  V30 9431 H 871.445 0.301434 4.86768 0
M  V30 9432 H 870.45 2.60614 4.84108 0
M  V30 9433 H 871.675 3.15308 6.01463 0
M  V30 9434 H 869.621 0.959856 6.4894 0
M  V30 9435 H 869.538 2.57701 7.10722 0
M  V30 9436 H 870.806 1.51688 7.64598 0
M  V30 9437 N 875.035 -1.20752 1.01276 0
M  V30 9438 C 876.26 -1.94547 0.718769 0
M  V30 9439 C 876.685 -1.7404 -0.713563 0
M  V30 9440 O 876.043 -1.03221 -1.49047 0
M  V30 9441 C 876.091 -3.44823 1.05497 0
M  V30 9442 O 875.195 -4.12072 0.164516 0
M  V30 9443 H 874.536 -0.607931 0.267051 0
M  V30 9444 H 877.066 -1.53292 1.35509 0
M  V30 9445 H 877.076 -3.95427 1.00507 0
M  V30 9446 H 875.751 -3.59072 2.09858 0
M  V30 9447 H 874.328 -3.71909 0.271615 0
M  V30 9448 N 876.513 -0.788492 -1.36457 0
M  V30 9449 C 877.46 -0.18435 -2.30063 0
M  V30 9450 C 878.43 0.67128 -1.51931 0
M  V30 9451 O 879.615 0.620152 -1.8044 0
M  V30 9452 C 876.755 0.675596 -3.38422 0
M  V30 9453 C 875.868 -0.198475 -4.31544 0
M  V30 9454 C 875.003 0.667757 -5.26986 0
M  V30 9455 C 874.042 -0.207825 -6.11747 0
M  V30 9456 N 873.179 0.617335 -6.99381 0
M  V30 9457 H 878.019 -0.988056 -2.81143 0
M  V30 9458 H 875.556 -0.498815 -1.38384 0
M  V30 9459 H 877.514 1.18916 -3.99894 0
M  V30 9460 H 876.144 1.44474 -2.88664 0
M  V30 9461 H 875.196 -0.829995 -3.71235 0
M  V30 9462 H 876.508 -0.873163 -4.91098 0
M  V30 9463 H 875.662 1.24716 -5.93743 0
M  V30 9464 H 874.401 1.37607 -4.67884 0
M  V30 9465 H 873.406 -0.799638 -5.43954 0
M  V30 9466 H 874.631 -0.913729 -6.72925 0
M  V30 9467 H 872.577 1.30996 -6.42788 0
M  V30 9468 H 872.494 0.000307255 -7.56 0
M  V30 9469 H 873.762 1.1806 -7.70508 0
M  V30 9470 N 877.991 1.48044 -0.54043 0
M  V30 9471 C 879.216 2.07396 -0.0124765 0
M  V30 9472 C 879.641 1.39288 1.26414 0
M  V30 9473 O 878.999 0.462252 1.75308 0
M  V30 9474 C 879.047 3.60131 0.18377 0
M  V30 9475 O 878.151 3.92995 1.25014 0
M  V30 9476 H 877.492 0.662554 -0.0438026 0
M  V30 9477 H 880.022 1.90306 -0.751327 0
M  V30 9478 H 880.032 4.06003 0.403197 0
M  V30 9479 H 878.707 4.09105 -0.74874 0
M  V30 9480 H 877.284 3.5889 1.01254 0
M  V30 9481 N 879.47 0.276058 1.55163 0
M  V30 9482 C 880.716 -0.340959 1.99913 0
M  V30 9483 C 881.049 -1.55434 1.16422 0
M  V30 9484 O 880.324 -1.93081 0.234517 0
M  V30 9485 C 880.607 -0.722211 3.52783 0
M  V30 9486 C 880.46 0.498575 4.47028 0
M  V30 9487 C 881.779 -1.5583 4.11589 0
M  V30 9488 H 878.898 -0.122455 0.726756 0
M  V30 9489 H 881.54 0.38319 1.86096 0
M  V30 9490 H 879.69 -1.33919 3.64689 0
M  V30 9491 H 881.362 1.13713 4.47065 0
M  V30 9492 H 879.605 1.13646 4.18649 0
M  V30 9493 H 880.276 0.188041 5.5168 0
M  V30 9494 H 882.752 -1.03722 4.02965 0
M  V30 9495 H 881.628 -1.79387 5.1876 0
M  V30 9496 H 881.889 -2.53963 3.61877 0
M  V30 9497 N 880.948 -1.576 0.00335426 0
M  V30 9498 C 882.173 -1.95398 -0.695311 0
M  V30 9499 C 882.598 -0.878476 -1.66326 0
M  V30 9500 O 881.956 0.163086 -1.80565 0
M  V30 9501 C 882.004 -3.32293 -1.40049 0
M  V30 9502 O 881.108 -3.26834 -2.51502 0
M  V30 9503 H 880.449 -0.637796 -0.184694 0
M  V30 9504 H 882.979 -2.04519 0.057543 0
M  V30 9505 H 882.989 -3.67936 -1.76316 0
M  V30 9506 H 881.664 -4.10123 -0.690803 0
M  V30 9507 H 880.241 -3.02872 -2.17539 0
M  V30 9508 N 882.426 0.269451 -1.5528 0
M  V30 9509 C 883.356 1.33729 -1.91413 0
M  V30 9510 C 884.337 1.51348 -0.776391 0
M  V30 9511 O 885.522 1.64332 -1.03482 0
M  V30 9512 C 882.652 2.69618 -2.18914 0
M  V30 9513 C 881.606 2.66725 -3.34726 0
M  V30 9514 C 880.932 4.06199 -3.47716 0
M  V30 9515 C 882.232 2.25684 -4.71025 0
M  V30 9516 H 883.926 1.03736 -2.80854 0
M  V30 9517 H 881.472 0.497579 -1.3513 0
M  V30 9518 H 883.425 3.44436 -2.42779 0
M  V30 9519 H 882.149 3.01201 -1.26275 0
M  V30 9520 H 880.808 1.94365 -3.10834 0
M  V30 9521 H 880.456 4.3501 -2.52537 0
M  V30 9522 H 880.156 4.05157 -4.25583 0
M  V30 9523 H 881.68 4.8275 -3.73877 0
M  V30 9524 H 883.094 2.90225 -4.94411 0
M  V30 9525 H 881.491 2.35797 -5.51833 0
M  V30 9526 H 882.561 1.20819 -4.69607 0
M  V30 9527 N 883.904 1.48273 0.534124 0
M  V30 9528 C 885.315 1.49667 1.1161 0
M  V30 9529 C 885.666 0.264139 1.94414 0
M  V30 9530 O 884.791 -0.629084 2.07054 0
M  V30 9531 C 885.386 2.71191 2.03079 0
M  V30 9532 C 883.945 2.7547 2.56502 0
M  V30 9533 C 883.092 2.43119 1.33373 0
M  V30 9534 H 886.043 1.55449 0.319578 0
M  V30 9535 H 886.064 2.49473 2.87304 0
M  V30 9536 H 885.576 3.60879 1.42785 0
M  V30 9537 H 883.677 1.89979 3.20529 0
M  V30 9538 H 883.79 3.76787 2.95919 0
M  V30 9539 H 882.154 1.94187 1.64813 0
M  V30 9540 H 882.937 3.35044 0.748375 0
M  V30 9541 N 885.382 -0.782676 1.36792 0
M  V30 9542 C 886.628 -1.54311 1.3159 0
M  V30 9543 C 886.961 -1.93928 -0.102696 0
M  V30 9544 O 886.236 -1.63233 -1.05761 0
M  V30 9545 C 886.519 -2.81561 2.24489 0
M  V30 9546 C 886.372 -2.48268 3.75078 0
M  V30 9547 C 887.691 -3.83428 2.16034 0
M  V30 9548 H 884.81 -0.559828 0.479335 0
M  V30 9549 H 887.452 -0.898717 1.67401 0
M  V30 9550 H 885.602 -3.36549 1.9408 0
M  V30 9551 H 887.274 -1.99279 4.16036 0
M  V30 9552 H 885.517 -1.81116 3.94182 0
M  V30 9553 H 886.188 -3.39183 4.35499 0
M  V30 9554 H 888.664 -3.37905 2.42815 0
M  V30 9555 H 887.54 -4.70204 2.83194 0
M  V30 9556 H 887.801 -4.26887 1.14976 0
M  V30 9557 N 886.86 -1.21182 -1.00761 0
M  V30 9558 C 888.271 -1.02652 -1.55947 0
M  V30 9559 C 888.622 0.414466 -1.91772 0
M  V30 9560 O 887.747 1.29727 -1.73204 0
M  V30 9561 C 888.342 -1.85713 -2.83366 0
M  V30 9562 C 886.901 -1.71523 -3.35048 0
M  V30 9563 C 886.048 -1.83087 -2.08265 0
M  V30 9564 H 888.999 -1.35242 -0.830379 0
M  V30 9565 H 889.02 -1.36583 -3.55141 0
M  V30 9566 H 888.532 -2.90584 -2.5726 0
M  V30 9567 H 886.633 -0.693257 -3.66094 0
M  V30 9568 H 886.746 -2.53333 -4.06644 0
M  V30 9569 H 885.11 -1.26367 -2.21141 0
M  V30 9570 H 885.893 -2.8946 -1.84575 0
M  V30 9571 N 888.338 1.20213 -1.01915 0
M  V30 9572 C 889.615 1.85348 -0.62495 0
M  V30 9573 C 889.995 1.91101 0.896854 0
M  V30 9574 O 889.343 1.42075 1.78961 0
M  V30 9575 C 889.553 3.24849 -1.27571 0
M  V30 9576 C 890.901 4.01107 -1.39277 0
M  V30 9577 O 891.925 3.34211 -1.23212 0
M  V30 9578 O 890.784 5.20914 -1.6526 0
M  V30 9579 H 887.878 0.798303 -0.215965 0
M  V30 9580 H 890.424 1.27782 -1.11669 0
M  V30 9581 H 889.196 3.1544 -2.31545 0
M  V30 9582 H 888.819 3.90049 -0.77122 0
M  V30 9583 N 889.816 0.795718 1.36037 0
M  V30 9584 C 890.746 0.212803 2.32528 0
M  V30 9585 C 891.727 -0.655716 1.56953 0
M  V30 9586 O 892.912 -0.588238 1.85077 0
M  V30 9587 C 890.042 -0.648189 3.41198 0
M  V30 9588 C 888.996 0.120948 4.27829 0
M  V30 9589 C 888.322 -0.861044 5.27722 0
M  V30 9590 C 889.622 1.31375 5.05508 0
M  V30 9591 H 891.316 1.01893 2.81528 0
M  V30 9592 H 888.862 0.491422 1.35355 0
M  V30 9593 H 890.815 -1.06597 4.07695 0
M  V30 9594 H 889.539 -1.48709 2.9078 0
M  V30 9595 H 888.198 0.519777 3.62897 0
M  V30 9596 H 887.846 -1.69515 4.73575 0
M  V30 9597 H 887.546 -0.350808 5.86552 0
M  V30 9598 H 889.07 -1.27726 5.97092 0
M  V30 9599 H 890.484 0.971406 5.6501 0
M  V30 9600 H 888.881 1.75772 5.73781 0
M  V30 9601 H 889.951 2.10593 4.36782 0
M  V30 9602 N 891.294 -1.47756 0.548274 0
M  V30 9603 C 892.534 -2.04387 0.0231354 0
M  V30 9604 C 892.898 -1.41438 -1.29843 0
M  V30 9605 O 894.099 -1.89064 -1.91072 0
M  V30 9606 C 892.37 -3.57316 -0.077482 0
M  V30 9607 S 893.929 -4.35339 -0.550038 0
M  V30 9608 H 890.747 -0.710694 0.0208428 0
M  V30 9609 H 893.349 -1.81239 0.732984 0
M  V30 9610 H 892.053 -4.00658 0.88888 0
M  V30 9611 H 891.584 -3.84947 -0.811157 0
M  V30 9612 H 893.599 -4.61957 -1.81135 0
M  V30 9613 N 892.772 -0.284283 -1.55015 0
M  V30 9614 C 893.735 0.586182 -2.21577 0
M  V30 9615 C 894.735 1.07427 -1.1965 0
M  V30 9616 O 895.925 0.972977 -1.44495 0
M  V30 9617 C 893.057 1.80973 -2.88897 0
M  V30 9618 H 894.25 0.00487253 -2.999 0
M  V30 9619 H 891.803 -0.0349696 -1.56261 0
M  V30 9620 H 892.538 2.43131 -2.14611 0
M  V30 9621 H 892.323 1.46757 -3.636 0
M  V30 9622 H 893.813 2.42853 -3.39724 0
M  V30 9623 N 894.251 1.57596 -0.0117121 0
M  V30 9624 C 895.497 1.91355 0.671661 0
M  V30 9625 C 895.83 0.886818 1.72769 0
M  V30 9626 O 895.105 -0.0928813 1.94278 0
M  V30 9627 C 895.388 3.35657 1.30409 0
M  V30 9628 C 895.241 4.49055 0.2588 0
M  V30 9629 C 896.56 3.79595 2.22701 0
M  V30 9630 H 893.679 0.695893 0.242698 0
M  V30 9631 H 896.321 1.89887 -0.0654071 0
M  V30 9632 H 894.471 3.37038 1.9323 0
M  V30 9633 H 896.143 4.59809 -0.370631 0
M  V30 9634 H 894.386 4.31785 -0.417672 0
M  V30 9635 H 895.057 5.4701 0.740578 0
M  V30 9636 H 897.533 3.7984 1.69885 0
M  V30 9637 H 896.409 4.81292 2.63912 0
M  V30 9638 H 896.67 3.14118 3.11098 0
M  V30 9639 N 895.729 -0.261212 1.5542 0
M  V30 9640 C 896.959 -1.00769 1.80358 0
M  V30 9641 C 897.367 -1.79991 0.583085 0
M  V30 9642 O 896.71 -1.77911 -0.457534 0
M  V30 9643 C 896.772 -2.00463 2.9842 0
M  V30 9644 C 896.436 -1.4007 4.35005 0
M  V30 9645 C 897.433 -0.810388 5.13545 0
M  V30 9646 C 895.118 -1.42436 4.81682 0
M  V30 9647 C 897.112 -0.251784 6.36903 0
M  V30 9648 C 894.799 -0.861897 6.04991 0
M  V30 9649 C 895.797 -0.276622 6.8244 0
M  V30 9650 O 895.485 0.277194 8.03422 0
M  V30 9651 H 895.217 -0.302839 0.604371 0
M  V30 9652 H 897.771 -0.293763 2.03288 0
M  V30 9653 H 896.001 -2.75648 2.71211 0
M  V30 9654 H 897.69 -2.61336 3.10577 0
M  V30 9655 H 898.456 -0.784719 4.7861 0
M  V30 9656 H 894.335 -1.8693 4.214 0
M  V30 9657 H 897.879 0.205678 6.97297 0
M  V30 9658 H 893.776 -0.884846 6.39407 0
M  V30 9659 H 894.544 0.167682 8.18328 0
M  V30 9660 N 897.207 -1.48554 -0.526253 0
M  V30 9661 C 898.17 -1.62868 -1.61266 0
M  V30 9662 C 899.17 -0.501762 -1.52771 0
M  V30 9663 O 900.36 -0.76764 -1.56374 0
M  V30 9664 C 897.492 -1.60238 -3.00893 0
M  V30 9665 H 898.685 -2.59742 -1.49913 0
M  V30 9666 H 896.238 -1.37207 -0.748595 0
M  V30 9667 H 896.973 -0.648545 -3.17749 0
M  V30 9668 H 896.758 -2.42054 -3.08468 0
M  V30 9669 H 898.248 -1.73455 -3.79872 0
M  V30 9670 N 898.685 0.775411 -1.37205 0
M  V30 9671 C 899.931 1.53611 -1.32407 0
M  V30 9672 C 900.264 1.9398 0.0924103 0
M  V30 9673 O 899.539 1.63791 1.04893 0
M  V30 9674 C 899.822 2.80367 -2.25979 0
M  V30 9675 C 899.675 2.46275 -3.76389 0
M  V30 9676 C 900.994 3.82277 -2.18064 0
M  V30 9677 H 898.113 0.557278 -0.482297 0
M  V30 9678 H 900.755 0.889826 -1.67875 0
M  V30 9679 H 898.905 3.35515 -1.95862 0
M  V30 9680 H 900.577 1.9707 -4.17087 0
M  V30 9681 H 898.82 1.79023 -3.95137 0
M  V30 9682 H 899.491 3.36868 -4.37291 0
M  V30 9683 H 901.967 3.36613 -2.44604 0
M  V30 9684 H 900.843 4.68696 -2.85684 0
M  V30 9685 H 901.104 4.26272 -1.17239 0
M  V30 9686 N 900.163 1.21714 1.00117 0
M  V30 9687 C 901.095 0.937627 2.09144 0
M  V30 9688 C 902.108 -0.0806291 1.626 0
M  V30 9689 O 903.297 0.152348 1.77849 0
M  V30 9690 C 900.397 0.387036 3.36683 0
M  V30 9691 C 899.57 1.46054 4.12295 0
M  V30 9692 C 898.629 0.918505 5.18122 0
M  V30 9693 O 897.655 1.60282 5.46167 0
M  V30 9694 N 898.857 -0.264308 5.79898 0
M  V30 9695 H 901.622 1.87622 2.33705 0
M  V30 9696 H 899.183 1.12291 1.16629 0
M  V30 9697 H 901.175 0.00992825 4.04699 0
M  V30 9698 H 899.745 -0.456467 3.09249 0
M  V30 9699 H 898.965 2.01133 3.39027 0
M  V30 9700 H 900.253 2.18306 4.59587 0
M  V30 9701 H 899.651 -0.837242 5.5947 0
M  V30 9702 H 898.208 -0.582886 6.49188 0
M  V30 9703 N 901.641 -1.19671 1.02551 0
M  V30 9704 C 902.887 -1.89548 0.721069 0
M  V30 9705 C 903.22 -1.79209 -0.748176 0
M  V30 9706 O 902.495 -1.1822 -1.54448 0
M  V30 9707 C 902.778 -3.4061 1.16861 0
M  V30 9708 C 902.631 -3.59838 2.69883 0
M  V30 9709 C 903.95 -4.33718 0.746782 0
M  V30 9710 H 901.069 -0.688315 0.263422 0
M  V30 9711 H 903.711 -1.40883 1.27483 0
M  V30 9712 H 901.861 -3.82188 0.697477 0
M  V30 9713 H 903.533 -3.27454 3.24917 0
M  V30 9714 H 901.776 -3.03005 3.10435 0
M  V30 9715 H 902.447 -4.65766 2.96253 0
M  V30 9716 H 904.923 -3.99837 1.15195 0
M  V30 9717 H 903.799 -5.38012 1.08786 0
M  V30 9718 H 904.06 -4.40704 -0.351057 0
M  V30 9719 N 903.119 -0.802921 -1.35613 0
M  V30 9720 C 904.535 -0.486214 -1.52014 0
M  V30 9721 C 904.735 0.993219 -1.75321 0
M  V30 9722 O 903.791 1.77835 -1.79251 0
M  V30 9723 C 905.104 -1.32839 -2.69767 0
M  V30 9724 C 906.652 -1.32346 -2.83643 0
M  V30 9725 C 907.127 -2.14967 -4.04417 0
M  V30 9726 N 908.618 -2.12484 -4.11588 0
M  V30 9727 C 909.353 -2.73173 -5.04147 0
M  V30 9728 N 908.849 -3.42774 -6.02061 0
M  V30 9729 N 910.642 -2.62834 -4.96865 0
M  V30 9730 H 902.793 -1.76109 -1.18741 0
M  V30 9731 H 905.056 -0.74936 -0.580658 0
M  V30 9732 H 904.762 -2.37813 -2.5911 0
M  V30 9733 H 904.636 -0.979058 -3.64272 0
M  V30 9734 H 907.023 -0.281586 -2.93753 0
M  V30 9735 H 907.104 -1.71264 -1.90006 0
M  V30 9736 H 906.748 -3.19193 -3.95068 0
M  V30 9737 H 906.678 -1.73411 -4.97228 0
M  V30 9738 H 909.169 -1.61839 -3.41492 0
M  V30 9739 H 909.482 -3.86378 -6.69277 0
M  V30 9740 H 907.827 -3.46878 -6.02246 0
M  V30 9741 H 911.018 -2.08049 -4.19325 0
M  V30 9742 H 911.191 -3.10421 -5.68808 0
M  V30 9743 N 904.597 1.47463 -0.556102 0
M  V30 9744 C 905.837 2.04372 -0.0339743 0
M  V30 9745 C 906.201 1.42125 1.29091 0
M  V30 9746 O 907.402 1.90074 1.90066 0
M  V30 9747 C 905.673 3.57352 0.0585316 0
M  V30 9748 S 907.232 4.35625 0.526943 0
M  V30 9749 H 904.05 0.710574 -0.0246115 0
M  V30 9750 H 906.652 1.80848 -0.742585 0
M  V30 9751 H 905.356 4.00181 -0.910116 0
M  V30 9752 H 904.887 3.85371 0.790731 0
M  V30 9753 H 906.902 4.62911 1.78683 0
M  V30 9754 N 906.075 0.2925 1.54862 0
M  V30 9755 C 907.022 -0.587365 2.23201 0
M  V30 9756 C 907.992 -1.13623 1.21157 0
M  V30 9757 O 909.177 -1.18233 1.49752 0
M  V30 9758 C 906.317 -1.75745 2.96998 0
M  V30 9759 C 905.43 -1.24078 4.13798 0
M  V30 9760 C 904.565 -2.37405 4.75197 0
M  V30 9761 C 903.604 -1.82829 5.84157 0
M  V30 9762 N 902.741 -2.89696 6.39547 0
M  V30 9763 H 907.581 0.00202207 2.98 0
M  V30 9764 H 905.118 0.012766 1.47094 0
M  V30 9765 H 907.076 -2.44549 3.38011 0
M  V30 9766 H 905.706 -2.3186 2.24591 0
M  V30 9767 H 904.758 -0.445268 3.77785 0
M  V30 9768 H 906.07 -0.801186 4.92324 0
M  V30 9769 H 905.224 -3.14172 5.19019 0
M  V30 9770 H 903.963 -2.84688 3.95985 0
M  V30 9771 H 902.968 -1.04548 5.39768 0
M  V30 9772 H 904.193 -1.36461 6.65248 0
M  V30 9773 H 902.139 -3.36328 5.63222 0
M  V30 9774 H 902.056 -2.50206 7.13395 0
M  V30 9775 H 903.324 -3.66386 6.88027 0
M  V30 9776 N 907.553 -1.57587 0.0200696 0
M  V30 9777 C 908.969 -1.56018 -0.336237 0
M  V30 9778 C 909.169 -1.02478 -1.73495 0
M  V30 9779 O 908.225 -0.667487 -2.43518 0
M  V30 9780 C 909.538 -3.00079 -0.193112 0
M  V30 9781 C 911.086 -3.11863 -0.266557 0
M  V30 9782 C 911.561 -4.57747 -0.152326 0
M  V30 9783 N 913.052 -4.62726 -0.209596 0
M  V30 9784 C 913.787 -5.73217 -0.144855 0
M  V30 9785 N 913.283 -6.92794 -0.0295487 0
M  V30 9786 N 915.076 -5.61751 -0.198184 0
M  V30 9787 H 907.227 -1.90722 0.93482 0
M  V30 9788 H 909.49 -0.876909 0.360186 0
M  V30 9789 H 909.196 -3.43167 0.770036 0
M  V30 9790 H 909.07 -3.64593 -0.967029 0
M  V30 9791 H 911.457 -2.68693 -1.22016 0
M  V30 9792 H 911.538 -2.50087 0.53758 0
M  V30 9793 H 911.182 -5.01595 0.797817 0
M  V30 9794 H 911.112 -5.17491 -0.97521 0
M  V30 9795 H 913.603 -3.76713 -0.299229 0
M  V30 9796 H 913.916 -7.72799 0.0134071 0
M  V30 9797 H 912.261 -6.95 0.00510737 0
M  V30 9798 H 915.452 -4.67222 -0.286603 0
M  V30 9799 H 915.625 -6.47839 -0.144266 0
M  V30 9800 N 909.032 0.252966 -1.55557 0
M  V30 9801 C 909.962 1.31691 -1.9282 0
M  V30 9802 C 910.943 1.50516 -0.7924 0
M  V30 9803 O 912.128 1.63225 -1.05219 0
M  V30 9804 C 909.258 2.67281 -2.21762 0
M  V30 9805 C 908.212 2.6316 -3.37536 0
M  V30 9806 C 907.538 4.02488 -3.52005 0
M  V30 9807 C 908.838 2.20675 -4.73392 0
M  V30 9808 H 910.532 1.00751 -2.81939 0
M  V30 9809 H 908.078 0.483219 -1.3565 0
M  V30 9810 H 910.031 3.41842 -2.46419 0
M  V30 9811 H 908.755 2.99845 -1.29463 0
M  V30 9812 H 907.414 1.91057 -3.12878 0
M  V30 9813 H 907.062 4.32307 -2.57137 0
M  V30 9814 H 906.762 4.00621 -4.29857 0
M  V30 9815 H 908.286 4.78758 -3.78977 0
M  V30 9816 H 909.7 2.84965 -4.97461 0
M  V30 9817 H 908.097 2.29931 -5.54303 0
M  V30 9818 H 909.167 1.15831 -4.70862 0
M  V30 9819 N 910.51 1.48831 0.518367 0
M  V30 9820 C 911.787 1.47933 1.27966 0
M  V30 9821 C 912.167 0.197393 2.10175 0
M  V30 9822 O 911.515 -0.820656 2.13255 0
M  V30 9823 C 911.725 2.74816 2.15121 0
M  V30 9824 C 913.073 3.23613 2.74881 0
M  V30 9825 O 914.097 2.75814 2.254 0
M  V30 9826 O 912.956 4.06818 3.64913 0
M  V30 9827 H 910.05 0.591316 0.578164 0
M  V30 9828 H 912.596 1.61077 0.534065 0
M  V30 9829 H 911.368 3.59621 1.54234 0
M  V30 9830 H 910.991 2.64449 2.96905 0
M  V30 9831 N 911.988 -0.768124 1.37614 0
M  V30 9832 C 913.236 -1.52379 1.3276 0
M  V30 9833 C 913.557 -1.94809 -0.0863564 0
M  V30 9834 O 912.827 -1.66568 -1.03112 0
M  V30 9835 H 911.407 -0.565179 0.488448 0
M  V30 9836 H 914.069 -0.913974 1.72141 0
M  V30 9837 H 913.165 -2.4215 1.96901 0
M  V30 9838 N 913.466 -1.22244 -0.994698 0
M  V30 9839 C 914.396 -1.01513 -2.10279 0
M  V30 9840 C 915.377 0.0633365 -1.69982 0
M  V30 9841 O 916.562 -0.0985268 -1.9395 0
M  V30 9842 C 913.692 -0.59016 -3.42249 0
M  V30 9843 C 912.646 -1.61436 -3.96387 0
M  V30 9844 C 911.972 -1.04528 -5.24383 0
M  V30 9845 C 913.272 -3.00388 -4.27276 0
M  V30 9846 H 914.966 -1.94194 -2.2788 0
M  V30 9847 H 912.512 -0.935094 -1.09508 0
M  V30 9848 H 914.465 -0.432254 -4.19177 0
M  V30 9849 H 913.189 0.372308 -3.24471 0
M  V30 9850 H 911.848 -1.76001 -3.21589 0
M  V30 9851 H 911.496 -0.0742225 -5.02945 0
M  V30 9852 H 911.196 -1.72949 -5.61571 0
M  V30 9853 H 912.72 -0.898922 -6.03947 0
M  V30 9854 H 914.134 -2.89207 -4.95007 0
M  V30 9855 H 912.531 -3.65916 -4.75631 0
M  V30 9856 H 913.601 -3.50456 -3.35125 0
M  V30 9857 N 914.944 1.19125 -1.03184 0
M  V30 9858 C 916.192 1.8851 -0.728587 0
M  V30 9859 C 916.513 1.80195 0.74531 0
M  V30 9860 O 915.783 1.21437 1.5372 0
M  V30 9861 H 914.363 0.69784 -0.266511 0
M  V30 9862 H 917.025 1.44607 -1.3067 0
M  V30 9863 H 916.121 2.9477 -1.02554 0
M  V30 9864 N 916.422 0.810101 1.35185 0
M  V30 9865 C 917.652 0.404109 2.02609 0
M  V30 9866 C 918.06 -0.990748 1.61186 0
M  V30 9867 O 917.403 -1.65038 0.80674 0
M  V30 9868 C 917.465 0.412047 3.57131 0
M  V30 9869 C 917.129 1.75802 4.21832 0
M  V30 9870 C 918.126 2.71687 4.43263 0
M  V30 9871 C 915.811 2.04299 4.58876 0
M  V30 9872 C 917.805 3.9425 5.00845 0
M  V30 9873 C 915.492 3.27125 5.16171 0
M  V30 9874 C 916.49 4.21918 5.37098 0
M  V30 9875 O 916.178 5.42576 5.93184 0
M  V30 9876 H 915.91 0.161914 0.656323 0
M  V30 9877 H 918.464 1.09605 1.73712 0
M  V30 9878 H 916.694 -0.336509 3.85233 0
M  V30 9879 H 918.383 0.0278817 4.0589 0
M  V30 9880 H 919.149 2.50964 4.15021 0
M  V30 9881 H 915.028 1.31324 4.41899 0
M  V30 9882 H 918.572 4.68251 5.17094 0
M  V30 9883 H 914.469 3.47718 5.43841 0
M  V30 9884 H 915.237 5.43921 6.11631 0
M  V30 9885 N 917.9 -1.47166 0.563914 0
M  V30 9886 C 919.146 -2.03337 0.0506932 0
M  V30 9887 C 919.501 -1.42976 -1.28746 0
M  V30 9888 O 918.794 -0.578508 -1.82658 0
M  V30 9889 C 918.988 -3.57279 -0.0931797 0
M  V30 9890 C 918.817 -4.32567 1.22948 0
M  V30 9891 C 917.587 -4.72206 1.79859 0
M  V30 9892 C 919.785 -4.67282 2.14829 0
M  V30 9893 N 917.767 -5.32166 3.0606 0
M  V30 9894 C 919.138 -5.27615 3.25611 0
M  V30 9895 C 921.193 -4.49211 2.14741 0
M  V30 9896 C 919.896 -5.71784 4.36412 0
M  V30 9897 C 921.922 -4.94384 3.24559 0
M  V30 9898 C 921.284 -5.54771 4.34061 0
M  V30 9899 H 917.383 -0.779627 0.0608761 0
M  V30 9900 H 919.967 -1.79563 0.75268 0
M  V30 9901 H 918.138 -3.80806 -0.764301 0
M  V30 9902 H 919.87 -4.0009 -0.609075 0
M  V30 9903 H 916.625 -4.54372 1.33577 0
M  V30 9904 H 917.049 -5.66684 3.70404 0
M  V30 9905 H 921.691 -4.01875 1.31362 0
M  V30 9906 H 919.409 -6.18108 5.20546 0
M  V30 9907 H 922.995 -4.82167 3.25586 0
M  V30 9908 H 921.875 -5.89087 5.17635 0
M  V30 9909 N 919.378 -0.300708 -1.54705 0
M  V30 9910 C 920.603 0.314073 -2.05008 0
M  V30 9911 C 921.028 1.46759 -1.17657 0
M  V30 9912 O 920.386 1.80398 -0.180598 0
M  V30 9913 C 920.434 0.748243 -3.52752 0
M  V30 9914 O 919.538 1.85305 -3.68424 0
M  V30 9915 H 918.879 0.0610139 -0.661191 0
M  V30 9916 H 921.409 -0.442467 -1.99758 0
M  V30 9917 H 921.419 1.03713 -3.94598 0
M  V30 9918 H 920.094 -0.095573 -4.1579 0
M  V30 9919 H 918.671 1.56473 -3.38483 0
M  V30 9920 N 920.856 1.57574 -0.0284266 0
M  V30 9921 C 921.804 2.11332 0.971675 0
M  V30 9922 C 922.798 1.03974 1.33738 0
M  V30 9923 O 924.004 1.22409 1.31969 0
M  V30 9924 H 920.379 0.675174 0.331125 0
M  V30 9925 H 922.35 2.943 0.49296 0
M  V30 9926 C 921.099 2.65496 2.24516 0
M  V30 9927 H 920.422 3.47753 1.9725 0
M  V30 9928 H 921.862 3.06757 2.92705 0
M  V30 9929 C 920.321 1.58207 2.97443 0
M  V30 9930 O 920.851 0.981496 3.89525 0
M  V30 9931 N 919.057 1.30269 2.59766 0
M  V30 9932 H 918.604 1.79294 1.84963 0
M  V30 9933 H 918.562 0.587085 3.0887 0
M  V30 9934 N 922.334 -0.244713 1.55689 0
M  V30 9935 C 923.58 -0.969623 1.78801 0
M  V30 9936 C 923.935 -1.8288 0.597716 0
M  V30 9937 O 923.228 -1.87184 -0.408978 0
M  V30 9938 C 923.422 -1.8617 3.05083 0
M  V30 9939 C 923.251 -1.09036 4.36281 0
M  V30 9940 C 922.021 -0.794585 4.99013 0
M  V30 9941 C 924.219 -0.466883 5.12176 0
M  V30 9942 N 922.201 0.000579944 6.139 0
M  V30 9943 C 923.572 0.192755 6.197 0
M  V30 9944 C 925.627 -0.377571 4.96466 0
M  V30 9945 C 924.33 0.933132 7.13222 0
M  V30 9946 C 926.356 0.349281 5.90368 0
M  V30 9947 C 925.718 0.997549 6.97301 0
M  V30 9948 H 921.817 -0.335845 0.70621 0
M  V30 9949 H 924.401 -0.242559 1.93183 0
M  V30 9950 H 922.572 -2.56077 2.92026 0
M  V30 9951 H 924.304 -2.52234 3.16481 0
M  V30 9952 H 921.059 -1.10691 4.60483 0
M  V30 9953 H 921.483 0.38632 6.75897 0
M  V30 9954 H 926.125 -0.86443 4.13869 0
M  V30 9955 H 923.843 1.43159 7.95318 0
M  V30 9956 H 927.429 0.419082 5.80289 0
M  V30 9957 H 926.309 1.551 7.68709 0
M  V30 9958 N 923.813 -1.49104 -0.510467 0
M  V30 9959 C 925.038 -1.62068 -1.29417 0
M  V30 9960 C 925.463 -0.288432 -1.85875 0
M  V30 9961 O 924.821 0.742667 -1.65391 0
M  V30 9962 C 924.869 -2.68506 -2.40701 0
M  V30 9963 O 923.973 -2.27021 -3.4429 0
M  V30 9964 H 923.314 -0.542778 -0.382476 0
M  V30 9965 H 925.844 -1.95228 -0.612154 0
M  V30 9966 H 925.854 -2.90383 -2.86604 0
M  V30 9967 H 924.529 -3.65216 -1.98973 0
M  V30 9968 H 923.106 -2.15436 -3.04371 0
M  V30 9969 N 925.291 0.760815 -1.38019 0
M  V30 9970 C 926.239 1.89578 -1.34771 0
M  V30 9971 C 927.233 1.67766 -0.234714 0
M  V30 9972 O 928.439 1.75423 -0.403352 0
M  V30 9973 H 924.814 0.623608 -0.420258 0
M  V30 9974 H 926.785 1.89434 -2.30558 0
M  V30 9975 C 925.534 3.26976 -1.18246 0
M  V30 9976 H 924.857 3.44342 -2.03147 0
M  V30 9977 H 926.297 4.06657 -1.20026 0
M  V30 9978 C 924.756 3.36717 0.111145 0
M  V30 9979 O 925.286 3.86607 1.09079 0
M  V30 9980 N 923.492 2.90128 0.165542 0
M  V30 9981 H 923.039 2.49719 -0.632328 0
M  V30 9982 H 922.997 2.97026 1.03067 0
M  V30 9983 N 926.769 1.22769 0.988202 0
M  V30 9984 C 928.18 1.0512 1.54294 0
M  V30 9985 C 928.531 -0.383904 1.92407 0
M  V30 9986 O 927.656 -1.26955 1.75246 0
M  V30 9987 C 928.251 1.90198 2.80375 0
M  V30 9988 C 926.81 1.76831 3.32276 0
M  V30 9989 C 925.957 1.86377 2.05326 0
M  V30 9990 H 928.908 1.36546 0.808758 0
M  V30 9991 H 928.929 1.42216 3.52923 0
M  V30 9992 H 928.441 2.9464 2.52605 0
M  V30 9993 H 926.542 0.751412 3.64945 0
M  V30 9994 H 926.655 2.59771 4.02562 0
M  V30 9995 H 925.019 1.2987 2.19103 0
M  V30 9996 H 925.802 2.9236 1.79946 0
M  V30 9997 N 928.247 -1.18576 1.03814 0
M  V30 9998 C 929.21 -2.2033 0.63146 0
M  V30 9999 C 930.21 -1.57787 -0.309816 0
M  V30 10000 O 931.4 -1.73938 -0.0955598 0
M  V30 10001 C 928.532 -3.40818 -0.0745963 0
M  V30 10002 H 929.725 -2.57824 1.53189 0
M  V30 10003 H 927.278 -1.32416 0.830398 0
M  V30 10004 H 928.013 -3.08853 -0.988947 0
M  V30 10005 H 927.798 -3.87453 0.6019 0
M  V30 10006 H 929.288 -4.16166 -0.345727 0
M  V30 10007 N 929.725 -0.817259 -1.34754 0
M  V30 10008 C 930.955 -0.414849 -2.02392 0
M  V30 10009 C 931.363 0.982186 -1.61709 0
M  V30 10010 O 930.706 1.64607 -0.815481 0
M  V30 10011 C 930.768 -0.430981 -3.56907 0
M  V30 10012 C 930.432 -1.78037 -4.20894 0
M  V30 10013 C 931.429 -2.74034 -4.41816 0
M  V30 10014 C 929.114 -2.0673 -4.57786 0
M  V30 10015 C 931.108 -3.96901 -4.98747 0
M  V30 10016 C 928.795 -3.29858 -5.14429 0
M  V30 10017 C 929.793 -4.24761 -5.34853 0
M  V30 10018 O 929.481 -5.45714 -5.90298 0
M  V30 10019 H 929.213 -0.165392 -0.655455 0
M  V30 10020 H 931.767 -1.10524 -1.73129 0
M  V30 10021 H 929.997 0.316074 -3.85406 0
M  V30 10022 H 931.686 -0.0494067 -4.0587 0
M  V30 10023 H 932.452 -2.53161 -4.13684 0
M  V30 10024 H 928.331 -1.33666 -4.41197 0
M  V30 10025 H 931.875 -4.70987 -5.14604 0
M  V30 10026 H 927.772 -3.50597 -5.41989 0
M  V30 10027 H 928.54 -5.47157 -6.08738 0
M  V30 10028 N 931.203 1.46865 -0.571711 0
M  V30 10029 C 932.431 2.06818 -0.0583975 0
M  V30 10030 C 932.846 1.42218 1.24175 0
M  V30 10031 O 932.203 0.523655 1.74826 0
M  V30 10032 C 932.254 3.61281 0.125673 0
M  V30 10033 O 931.975 4.23462 -1.123 0
M  V30 10034 C 933.476 4.38137 0.674604 0
M  V30 10035 H 930.696 0.668948 -0.052438 0
M  V30 10036 H 933.24 1.88656 -0.789251 0
M  V30 10037 H 931.395 3.78908 0.806707 0
M  V30 10038 H 931.809 5.16192 -0.929869 0
M  V30 10039 H 933.283 5.46845 0.752626 0
M  V30 10040 H 933.76 4.05419 1.68915 0
M  V30 10041 H 934.366 4.2529 0.0287979 0
M  V30 10042 N 932.681 0.308908 1.54543 0
M  V30 10043 C 933.927 -0.298478 2.00592 0
M  V30 10044 C 934.26 -1.52929 1.19692 0
M  V30 10045 O 933.535 -1.9254 0.27542 0
M  V30 10046 C 933.818 -0.647218 3.54236 0
M  V30 10047 C 933.671 0.593284 4.4587 0
M  V30 10048 C 934.99 -1.47064 4.14801 0
M  V30 10049 H 932.109 -0.107012 0.72919 0
M  V30 10050 H 934.751 0.422578 1.85241 0
M  V30 10051 H 932.901 -1.26153 3.67447 0
M  V30 10052 H 934.573 1.2317 4.44552 0
M  V30 10053 H 932.816 1.22501 4.16144 0
M  V30 10054 H 933.487 0.305018 5.51157 0
M  V30 10055 H 935.963 -0.951511 4.05075 0
M  V30 10056 H 934.839 -1.68343 5.22448 0
M  V30 10057 H 935.1 -2.4623 3.67183 0
M  V30 10058 N 934.159 -1.57557 0.0367827 0
M  V30 10059 C 935.405 -1.92399 -0.641133 0
M  V30 10060 C 935.738 -0.914191 -1.71336 0
M  V30 10061 O 935.013 0.0619616 -1.94401 0
M  V30 10062 C 935.296 -3.37689 -1.25052 0
M  V30 10063 C 935.149 -4.4941 -0.187326 0
M  V30 10064 C 936.468 -3.8309 -2.16634 0
M  V30 10065 H 933.587 -0.699666 -0.231597 0
M  V30 10066 H 936.229 -1.89759 0.0956083 0
M  V30 10067 H 934.379 -3.40069 -1.87843 0
M  V30 10068 H 936.051 -4.59161 0.443736 0
M  V30 10069 H 934.294 -4.31065 0.486313 0
M  V30 10070 H 934.965 -5.48119 -0.653459 0
M  V30 10071 H 937.441 -3.82494 -1.63821 0
M  V30 10072 H 936.317 -4.85429 -2.56222 0
M  V30 10073 H 936.578 -3.19028 -3.06062 0
M  V30 10074 N 935.637 0.236453 -1.55816 0
M  V30 10075 C 936.57 1.3196 -1.86177 0
M  V30 10076 C 937.548 1.459 -0.717769 0
M  V30 10077 O 938.732 1.61949 -0.964606 0
M  V30 10078 C 935.859 2.69183 -2.05568 0
M  V30 10079 C 934.905 2.72338 -3.28229 0
M  V30 10080 S 935.738 2.27898 -4.84585 0
M  V30 10081 C 936.894 3.67025 -5.06994 0
M  V30 10082 H 937.127 1.06011 -2.77757 0
M  V30 10083 H 934.66 0.437961 -1.48058 0
M  V30 10084 H 936.618 3.48191 -2.17423 0
M  V30 10085 H 935.279 2.92365 -1.14811 0
M  V30 10086 H 934.472 3.7314 -3.38795 0
M  V30 10087 H 934.074 2.01382 -3.15153 0
M  V30 10088 H 936.366 4.62604 -4.94979 0
M  V30 10089 H 937.309 3.61385 -6.08939 0
M  V30 10090 H 937.717 3.60022 -4.34792 0
M  V30 10091 N 937.115 1.49373 0.502552 0
M  V30 10092 C 938.392 1.49282 1.26389 0
M  V30 10093 C 938.772 0.219674 2.09954 0
M  V30 10094 O 938.12 -0.797991 2.14113 0
M  V30 10095 C 938.33 2.77083 2.12194 0
M  V30 10096 C 939.678 3.26511 2.71433 0
M  V30 10097 O 940.702 2.78189 2.22462 0
M  V30 10098 O 939.561 4.10665 3.60578 0
M  V30 10099 H 936.655 0.597415 0.57186 0
M  V30 10100 H 939.201 1.61634 0.516951 0
M  V30 10101 H 937.973 3.61237 1.50411 0
M  V30 10102 H 937.596 2.67583 2.94084 0
M  V30 10103 N 938.594 -0.753485 1.38421 0
M  V30 10104 C 939.843 -1.50797 1.33952 0
M  V30 10105 C 940.156 -1.95482 -0.0678464 0
M  V30 10106 O 941.362 -2.7048 -0.235078 0
M  V30 10107 C 939.818 -2.72393 2.35224 0
M  V30 10108 C 939.426 -2.34733 3.81582 0
M  V30 10109 C 941.17 -3.50281 2.39798 0
M  V30 10110 C 939.077 -3.52939 4.7454 0
M  V30 10111 H 938.007 -0.566211 0.497916 0
M  V30 10112 H 940.658 -0.823659 1.63976 0
M  V30 10113 H 939.04 -3.42806 1.98243 0
M  V30 10114 H 940.214 -1.71985 4.27502 0
M  V30 10115 H 938.529 -1.69978 3.80127 0
M  V30 10116 H 941.126 -4.38172 3.06447 0
M  V30 10117 H 941.469 -3.91444 1.41695 0
M  V30 10118 H 942.002 -2.86881 2.75579 0
M  V30 10119 H 938.741 -3.16843 5.73839 0
M  V30 10120 H 938.261 -4.1473 4.33312 0
M  V30 10121 H 939.94 -4.19519 4.92557 0
M  V30 10122 N 940.072 -1.23292 -0.981677 0
M  V30 10123 C 941.019 -1.01296 -2.07383 0
M  V30 10124 C 941.989 0.069139 -1.65956 0
M  V30 10125 O 943.174 -0.0827108 -1.90621 0
M  V30 10126 C 940.314 -0.608876 -3.39686 0
M  V30 10127 C 939.427 -1.76296 -3.9439 0
M  V30 10128 C 938.562 -1.30578 -5.14901 0
M  V30 10129 C 937.601 -2.4307 -5.61768 0
M  V30 10130 N 936.738 -1.98319 -6.73509 0
M  V30 10131 H 941.578 -1.9478 -2.25532 0
M  V30 10132 H 939.115 -0.970356 -1.10555 0
M  V30 10133 H 941.073 -0.355702 -4.15681 0
M  V30 10134 H 939.703 0.288961 -3.21504 0
M  V30 10135 H 938.755 -2.13017 -3.15163 0
M  V30 10136 H 940.067 -2.60871 -4.25145 0
M  V30 10137 H 939.221 -1.01066 -5.98223 0
M  V30 10138 H 937.96 -0.430386 -4.85797 0
M  V30 10139 H 936.965 -2.73358 -4.77028 0
M  V30 10140 H 938.19 -3.31144 -5.92892 0
M  V30 10141 H 936.136 -1.13157 -6.46167 0
M  V30 10142 H 936.053 -2.76454 -7.0364 0
M  V30 10143 H 937.321 -1.71907 -7.60308 0
M  V30 10144 N 941.55 1.18024 -1.04442 0
M  V30 10145 C 942.796 1.88377 -0.751133 0
M  V30 10146 C 943.129 1.80377 0.719571 0
M  V30 10147 O 942.404 1.20662 1.52548 0
M  V30 10148 C 942.687 3.38708 -1.22265 0
M  V30 10149 C 942.54 3.55499 -2.75574 0
M  V30 10150 C 943.859 4.32475 -0.815688 0
M  V30 10151 H 940.978 0.684037 -0.27434 0
M  V30 10152 H 943.62 1.38837 -1.29709 0
M  V30 10153 H 941.77 3.8103 -0.758192 0
M  V30 10154 H 943.442 3.22244 -3.30086 0
M  V30 10155 H 941.685 2.98028 -3.15217 0
M  V30 10156 H 942.356 4.60994 -3.03625 0
M  V30 10157 H 944.832 3.97953 -1.21542 0
M  V30 10158 H 943.708 5.36213 -1.17331 0
M  V30 10159 H 943.969 4.41207 0.280901 0
M  V30 10160 N 943.028 0.824394 1.34319 0
M  V30 10161 C 944.439 0.471802 1.8064 0
M  V30 10162 C 944.79 -1.00793 1.6833 0
M  V30 10163 O 943.915 -1.78447 1.22416 0
M  V30 10164 C 944.51 0.849609 3.27974 0
M  V30 10165 C 943.069 0.549365 3.72369 0
M  V30 10166 C 942.216 1.06573 2.56003 0
M  V30 10167 H 945.167 1.01443 1.22045 0
M  V30 10168 H 945.188 0.153968 3.80188 0
M  V30 10169 H 944.7 1.92663 3.36902 0
M  V30 10170 H 942.801 -0.518182 3.68979 0
M  V30 10171 H 942.914 1.09446 4.66432 0
M  V30 10172 H 941.278 0.487214 2.49997 0
M  V30 10173 H 942.061 2.14923 2.677 0
M  V30 10174 N 944.506 -1.46559 0.579492 0
M  V30 10175 C 945.439 -2.27287 -0.203894 0
M  V30 10176 C 946.417 -1.3543 -0.899865 0
M  V30 10177 O 947.601 -1.64836 -0.914398 0
M  V30 10178 C 944.728 -3.13077 -1.2923 0
M  V30 10179 C 943.774 -4.20675 -0.702505 0
M  V30 10180 S 944.607 -5.3345 0.468136 0
M  V30 10181 C 945.763 -6.22806 -0.621544 0
M  V30 10182 H 945.996 -2.93382 0.481083 0
M  V30 10183 H 943.529 -1.49992 0.366311 0
M  V30 10184 H 945.487 -3.63069 -1.91548 0
M  V30 10185 H 944.148 -2.46302 -1.94921 0
M  V30 10186 H 943.341 -4.80516 -1.52053 0
M  V30 10187 H 942.943 -3.73678 -0.155046 0
M  V30 10188 H 945.235 -6.60503 -1.50803 0
M  V30 10189 H 946.178 -7.08075 -0.059961 0
M  V30 10190 H 946.586 -5.56882 -0.924242 0
M  V30 10191 N 945.984 -0.3171 -1.54377 0
M  V30 10192 C 947.4 0.035766 -1.5956 0
M  V30 10193 C 947.6 1.51038 -1.33378 0
M  V30 10194 O 946.656 2.26546 -1.11505 0
M  V30 10195 C 947.969 -0.376652 -2.98332 0
M  V30 10196 C 949.517 -0.326765 -3.1129 0
M  V30 10197 C 949.992 -0.714247 -4.52396 0
M  V30 10198 N 951.483 -0.667402 -4.58367 0
M  V30 10199 C 952.218 -0.939494 -5.65651 0
M  V30 10200 N 951.714 -1.27839 -6.80903 0
M  V30 10201 N 953.507 -0.865484 -5.55397 0
M  V30 10202 H 945.658 -1.27794 -1.69654 0
M  V30 10203 H 947.921 -0.5192 -0.79318 0
M  V30 10204 H 947.627 -1.40381 -3.22469 0
M  V30 10205 H 947.501 0.261611 -3.76292 0
M  V30 10206 H 949.888 0.69117 -2.86892 0
M  V30 10207 H 949.969 -0.999873 -2.35449 0
M  V30 10208 H 949.613 -1.73007 -4.77526 0
M  V30 10209 H 949.543 -0.0188962 -5.26597 0
M  V30 10210 H 952.034 -0.417062 -3.75592 0
M  V30 10211 H 952.347 -1.47155 -7.5866 0
M  V30 10212 H 950.692 -1.31658 -6.82416 0
M  V30 10213 H 953.883 -0.600265 -4.64235 0
M  V30 10214 H 954.056 -1.0809 -6.38921 0
M  V30 10215 N 947.462 1.57535 -0.0451378 0
M  V30 10216 C 948.71 1.92071 0.628743 0
M  V30 10217 C 949.031 0.923635 1.71738 0
M  V30 10218 O 948.301 -0.0324376 1.95873 0
M  V30 10219 H 946.881 0.708995 0.235233 0
M  V30 10220 H 949.543 1.9466 -0.0967177 0
M  V30 10221 H 948.639 2.9314 1.07123 0
M  V30 10222 N 948.94 -0.228186 1.55939 0
M  V30 10223 C 950.351 -0.795734 1.68893 0
M  V30 10224 C 950.702 -1.85261 0.645967 0
M  V30 10225 O 949.827 -2.15434 -0.2042 0
M  V30 10226 C 950.422 -1.45013 3.06197 0
M  V30 10227 C 948.981 -1.96514 3.21028 0
M  V30 10228 C 948.128 -0.822918 2.64808 0
M  V30 10229 H 951.079 -0.0036485 1.587 0
M  V30 10230 H 951.1 -2.31875 3.01685 0
M  V30 10231 H 950.612 -0.680678 3.82084 0
M  V30 10232 H 948.713 -2.76282 2.49998 0
M  V30 10233 H 948.826 -2.14967 4.28166 0
M  V30 10234 H 947.19 -1.22846 2.23116 0
M  V30 10235 H 947.973 -0.0662493 3.43236 0
M  V30 10236 N 950.418 -1.49637 -0.494624 0
M  V30 10237 C 951.328 -1.69522 -1.62172 0
M  V30 10238 C 952.344 -0.577894 -1.64123 0
M  V30 10239 O 953.52 -0.853382 -1.82426 0
M  V30 10240 C 950.585 -1.7633 -2.9851 0
M  V30 10241 C 949.646 -2.99944 -3.07135 0
M  V30 10242 C 948.879 -3.06419 -4.36971 0
M  V30 10243 O 949.102 -2.20312 -5.26136 0
M  V30 10244 O 948.036 -3.9894 -4.507 0
M  V30 10245 H 951.862 -2.65017 -1.48324 0
M  V30 10246 H 949.447 -1.33454 -0.671603 0
M  V30 10247 H 951.329 -1.83125 -3.7953 0
M  V30 10248 H 950.004 -0.840155 -3.12607 0
M  V30 10249 H 948.911 -2.98664 -2.2528 0
M  V30 10250 H 950.244 -3.9176 -2.97968 0
M  V30 10251 N 951.896 0.746133 -1.38819 0
M  V30 10252 C 953.143 1.50545 -1.35434 0
M  V30 10253 C 953.471 1.94427 0.0532669 0
M  V30 10254 O 952.726 1.66285 1.03188 0
M  V30 10255 C 953.025 2.76639 -2.26286 0
M  V30 10256 C 952.691 2.51682 -3.74122 0
M  V30 10257 C 951.353 2.44584 -4.14406 0
M  V30 10258 C 953.705 2.30071 -4.67672 0
M  V30 10259 C 951.033 2.13902 -5.46318 0
M  V30 10260 C 953.385 2.00907 -5.99849 0
M  V30 10261 C 952.049 1.92271 -6.39209 0
M  V30 10262 H 951.319 0.550883 -0.49559 0
M  V30 10263 H 953.966 0.857337 -1.71237 0
M  V30 10264 H 952.271 3.46138 -1.83564 0
M  V30 10265 H 953.968 3.34626 -2.20967 0
M  V30 10266 H 950.558 2.5808 -3.42188 0
M  V30 10267 H 954.742 2.34528 -4.3739 0
M  V30 10268 H 949.998 2.0573 -5.75748 0
M  V30 10269 H 954.172 1.83191 -6.71874 0
M  V30 10270 H 951.799 1.68261 -7.41345 0
M  V30 10271 N 953.375 1.23811 0.975125 0
M  V30 10272 C 954.621 1.08502 1.72043 0
M  V30 10273 C 954.976 -0.373437 1.88741 0
M  V30 10274 O 954.269 -1.27248 1.43243 0
M  V30 10275 C 954.463 1.74994 3.11628 0
M  V30 10276 C 954.292 3.27155 3.08544 0
M  V30 10277 C 953.062 3.96338 3.1344 0
M  V30 10278 C 955.26 4.23851 2.91299 0
M  V30 10279 N 953.242 5.35439 3.00297 0
M  V30 10280 C 954.613 5.499 2.86375 0
M  V30 10281 C 956.668 4.14519 2.75824 0
M  V30 10282 C 955.371 6.67687 2.67558 0
M  V30 10283 C 957.397 5.31975 2.58372 0
M  V30 10284 C 956.759 6.56953 2.5415 0
M  V30 10285 H 952.858 0.451607 0.638416 0
M  V30 10286 H 955.442 1.56617 1.15669 0
M  V30 10287 H 953.613 1.29404 3.66209 0
M  V30 10288 H 955.345 1.52614 3.74822 0
M  V30 10289 H 952.1 3.47453 3.21828 0
M  V30 10290 H 952.524 6.08381 2.96987 0
M  V30 10291 H 957.166 3.18662 2.77874 0
M  V30 10292 H 954.884 7.63673 2.64251 0
M  V30 10293 H 958.47 5.266 2.47354 0
M  V30 10294 H 957.35 7.46309 2.40817 0
M  V30 10295 N 954.853 -1.17469 1.05066 0
M  V30 10296 C 956.269 -1.39699 0.771769 0
M  V30 10297 C 956.469 -1.91253 -0.634382 0
M  V30 10298 O 955.525 -2.10334 -1.39699 0
M  V30 10299 C 956.838 -2.38886 1.82631 0
M  V30 10300 C 958.386 -2.52595 1.84838 0
M  V30 10301 C 958.861 -3.55054 2.89311 0
M  V30 10302 N 960.352 -3.6257 2.88266 0
M  V30 10303 C 961.087 -4.41603 3.65752 0
M  V30 10304 N 960.583 -5.24162 4.53019 0
M  V30 10305 N 962.376 -4.36464 3.54197 0
M  V30 10306 H 954.527 -0.823355 1.95792 0
M  V30 10307 H 956.79 -0.42432 0.847736 0
M  V30 10308 H 956.496 -2.08075 2.83545 0
M  V30 10309 H 956.37 -3.38371 1.66687 0
M  V30 10310 H 958.757 -2.82717 0.845888 0
M  V30 10311 H 958.838 -1.53188 2.04859 0
M  V30 10312 H 958.482 -3.2567 3.89745 0
M  V30 10313 H 958.412 -4.54162 2.66542 0
M  V30 10314 H 960.903 -3.03625 2.24989 0
M  V30 10315 H 961.216 -5.81646 5.0883 0
M  V30 10316 H 959.561 -5.23547 4.57081 0
M  V30 10317 H 962.752 -3.7102 2.85416 0
M  V30 10318 H 962.925 -4.97814 4.14832 0
M  V30 10319 N 956.331 -0.831506 -1.3388 0
M  V30 10320 C 957.58 -0.420028 -1.97278 0
M  V30 10321 C 957.893 1.02441 -1.66629 0
M  V30 10322 O 959.099 1.54021 -2.23584 0
M  V30 10323 C 957.555 -0.700116 -3.53025 0
M  V30 10324 C 957.163 -2.15874 -3.92559 0
M  V30 10325 C 958.907 -0.355226 -4.23011 0
M  V30 10326 C 956.814 -2.38327 -5.41252 0
M  V30 10327 H 955.744 -0.153326 -0.738246 0
M  V30 10328 H 958.395 -1.01906 -1.52602 0
M  V30 10329 H 956.777 -0.0308044 -3.95988 0
M  V30 10330 H 957.951 -2.86792 -3.60675 0
M  V30 10331 H 956.266 -2.4659 -3.35533 0
M  V30 10332 H 958.863 -0.500701 -5.32351 0
M  V30 10333 H 959.206 0.70111 -4.10354 0
M  V30 10334 H 959.739 -0.979466 -3.85553 0
M  V30 10335 H 956.478 -3.42498 -5.58906 0
M  V30 10336 H 955.998 -1.71962 -5.74621 0
M  V30 10337 H 957.677 -2.21113 -6.08045 0
M  V30 10338 N 957.809 1.4625 -0.587256 0
M  V30 10339 C 959.058 2.01571 -0.0722643 0
M  V30 10340 C 959.371 1.46385 1.29733 0
M  V30 10341 O 960.577 1.93554 1.90392 0
M  V30 10342 C 959.033 3.59814 -0.078579 0
M  V30 10343 C 958.641 4.23996 -1.44678 0
M  V30 10344 C 960.385 4.22776 0.382231 0
M  V30 10345 C 958.292 5.74332 -1.41057 0
M  V30 10346 H 957.222 0.753642 -0.0232461 0
M  V30 10347 H 959.873 1.67936 -0.739577 0
M  V30 10348 H 958.255 3.90546 0.654988 0
M  V30 10349 H 959.429 4.04867 -2.20043 0
M  V30 10350 H 957.744 3.73147 -1.84799 0
M  V30 10351 H 960.341 5.32983 0.428182 0
M  V30 10352 H 960.684 3.92027 1.40072 0
M  V30 10353 H 961.217 3.96687 -0.297417 0
M  V30 10354 H 957.956 6.09747 -2.40601 0
M  V30 10355 H 957.476 5.95711 -0.699185 0
M  V30 10356 H 959.155 6.37137 -1.12543 0
M  V30 10357 N 959.287 0.325282 1.54207 0
M  V30 10358 C 960.235 -0.5554 2.25872 0
M  V30 10359 C 961.229 -1.11714 1.27344 0
M  V30 10360 O 962.435 -1.06498 1.45115 0
M  V30 10361 H 958.81 -0.19776 0.725531 0
M  V30 10362 H 960.781 0.0712858 2.98315 0
M  V30 10363 C 959.53 -1.70379 3.03095 0
M  V30 10364 H 958.853 -1.2808 3.78729 0
M  V30 10365 H 960.293 -2.29556 3.56483 0
M  V30 10366 C 958.752 -2.62242 2.11496 0
M  V30 10367 O 959.282 -3.64003 1.69895 0
M  V30 10368 N 957.488 -2.30515 1.7695 0
M  V30 10369 H 957.035 -1.47805 2.10978 0
M  V30 10370 H 956.993 -2.92241 1.15942 0
M  V30 10371 N 960.765 -1.57509 0.0534917 0
M  V30 10372 C 962.013 -1.92402 -0.618548 0
M  V30 10373 C 962.334 -0.93273 -1.71246 0
M  V30 10374 O 961.604 0.0220495 -1.95888 0
M  V30 10375 H 960.184 -0.710233 -0.23147 0
M  V30 10376 H 962.846 -1.94606 0.10704 0
M  V30 10377 H 961.942 -2.93704 -1.05566 0
M  V30 10378 N 962.243 0.219913 -1.56058 0
M  V30 10379 C 963.52 0.968493 -1.6994 0
M  V30 10380 C 963.9 2.02358 -0.601219 0
M  V30 10381 O 963.248 2.25121 0.391534 0
M  V30 10382 C 963.458 1.57745 -3.11316 0
M  V30 10383 C 964.806 2.06908 -3.70775 0
M  V30 10384 O 965.83 1.67636 -3.14288 0
M  V30 10385 O 964.689 2.79096 -4.69859 0
M  V30 10386 H 961.783 0.452521 -0.692209 0
M  V30 10387 H 964.329 0.211566 -1.68376 0
M  V30 10388 H 963.101 0.815687 -3.82704 0
M  V30 10389 H 962.724 2.39987 -3.17005 0
M  V30 10390 N 963.721 1.49897 0.486681 0
M  V30 10391 C 964.949 1.63837 1.26353 0
M  V30 10392 C 965.364 0.315428 1.86146 0
M  V30 10393 O 964.721 -0.700831 1.68507 0
M  V30 10394 C 964.772 2.71792 2.38351 0
M  V30 10395 O 964.493 3.98956 1.81013 0
M  V30 10396 C 965.994 2.96566 3.2949 0
M  V30 10397 H 963.214 0.551158 0.382709 0
M  V30 10398 H 965.758 1.96023 0.582694 0
M  V30 10399 H 963.913 2.42344 3.02238 0
M  V30 10400 H 964.327 4.58536 2.54647 0
M  V30 10401 H 965.801 3.75803 4.04322 0
M  V30 10402 H 966.278 2.07031 3.87343 0
M  V30 10403 H 966.884 3.27485 2.71355 0
M  V30 10404 N 965.199 -0.738761 1.39212 0
M  V30 10405 C 966.132 -1.86135 1.32018 0
M  V30 10406 C 967.11 -1.61432 0.194512 0
M  V30 10407 O 968.294 -1.84746 0.374331 0
M  V30 10408 C 965.421 -3.22044 1.04907 0
M  V30 10409 C 964.467 -3.65612 2.19613 0
M  V30 10410 S 965.3 -3.75418 3.81866 0
M  V30 10411 C 966.456 -5.14122 3.56972 0
M  V30 10412 H 966.689 -1.91954 2.27027 0
M  V30 10413 H 964.222 -0.903244 1.25223 0
M  V30 10414 H 966.18 -4.00524 0.899491 0
M  V30 10415 H 964.841 -3.13886 0.115918 0
M  V30 10416 H 964.034 -4.64232 1.96227 0
M  V30 10417 H 963.636 -2.94327 2.30755 0
M  V30 10418 H 965.928 -6.00339 3.14005 0
M  V30 10419 H 966.871 -5.42535 4.55039 0
M  V30 10420 H 967.279 -4.8362 2.91156 0
M  V30 10421 N 966.677 -1.24326 -0.968545 0
M  V30 10422 C 967.624 -1.0349 -2.06297 0
M  V30 10423 C 968.594 0.0515333 -1.6602 0
M  V30 10424 O 969.779 -0.102924 -1.90522 0
M  V30 10425 C 966.919 -0.64487 -3.39021 0
M  V30 10426 C 966.032 -1.80469 -3.92498 0
M  V30 10427 C 965.167 -1.36032 -5.13487 0
M  V30 10428 C 964.206 -2.49014 -5.59159 0
M  V30 10429 N 963.343 -2.05451 -6.71367 0
M  V30 10430 H 968.183 -1.97161 -2.23454 0
M  V30 10431 H 965.72 -0.982028 -1.0952 0
M  V30 10432 H 967.678 -0.399771 -4.1528 0
M  V30 10433 H 966.308 0.254845 -3.21792 0
M  V30 10434 H 965.36 -2.16348 -3.12886 0
M  V30 10435 H 966.672 -2.65365 -4.22354 0
M  V30 10436 H 965.826 -1.07405 -5.97117 0
M  V30 10437 H 964.565 -0.481887 -4.85313 0
M  V30 10438 H 963.57 -2.78402 -4.74102 0
M  V30 10439 H 964.795 -3.37413 -5.89346 0
M  V30 10440 H 962.741 -1.20004 -6.4493 0
M  V30 10441 H 962.658 -2.83901 -7.00668 0
M  V30 10442 H 963.926 -1.79962 -7.58442 0
M  V30 10443 N 968.156 1.1691 -1.05688 0
M  V30 10444 C 969.103 2.21095 -0.662246 0
M  V30 10445 C 970.073 1.62623 0.338083 0
M  V30 10446 O 971.258 1.89428 0.228362 0
M  V30 10447 C 968.398 3.45066 -0.0484018 0
M  V30 10448 C 967.511 4.17809 -1.09817 0
M  V30 10449 C 966.646 5.29281 -0.451114 0
M  V30 10450 C 965.685 5.93817 -1.48484 0
M  V30 10451 N 964.822 6.96793 -0.861588 0
M  V30 10452 H 969.662 2.54204 -1.55513 0
M  V30 10453 H 967.199 1.24863 -0.777665 0
M  V30 10454 H 969.157 4.15932 0.324978 0
M  V30 10455 H 967.787 3.12526 0.807918 0
M  V30 10456 H 966.839 3.45608 -1.58932 0
M  V30 10457 H 968.151 4.61907 -1.88265 0
M  V30 10458 H 967.305 6.06695 -0.0244251 0
M  V30 10459 H 966.044 4.8633 0.365306 0
M  V30 10460 H 965.049 5.1513 -1.92149 0
M  V30 10461 H 966.274 6.38848 -2.30325 0
M  V30 10462 H 964.22 6.55967 -0.0657688 0
M  V30 10463 H 964.137 7.39229 -1.58354 0
M  V30 10464 H 965.405 7.78142 -0.45984 0
M  V30 10465 N 969.634 0.838594 1.33437 0
M  V30 10466 C 970.544 0.274048 2.32994 0
M  V30 10467 C 971.56 -0.599776 1.63336 0
M  V30 10468 O 972.736 -0.503963 1.94993 0
M  V30 10469 C 969.801 -0.541804 3.4244 0
M  V30 10470 C 968.862 0.356262 4.27819 0
M  V30 10471 C 968.095 -0.420747 5.32039 0
M  V30 10472 O 968.318 -1.65247 5.45939 0
M  V30 10473 O 967.252 0.205101 6.0155 0
M  V30 10474 H 971.078 1.09846 2.83139 0
M  V30 10475 H 968.663 0.601111 1.36774 0
M  V30 10476 H 970.545 -1.00544 4.0923 0
M  V30 10477 H 969.22 -1.34328 2.94513 0
M  V30 10478 H 968.127 0.867726 3.63897 0
M  V30 10479 H 969.46 1.1225 4.79229 0
M  V30 10480 N 971.112 -1.45937 0.595003 0
M  V30 10481 C 972.059 -2.30427 -0.131165 0
M  V30 10482 C 973.029 -1.41355 -0.872232 0
M  V30 10483 O 974.214 -1.70296 -0.860467 0
M  V30 10484 C 971.354 -3.26045 -1.13087 0
M  V30 10485 C 970.467 -4.30218 -0.391982 0
M  V30 10486 C 969.602 -5.12953 -1.3803 0
M  V30 10487 C 968.641 -6.08865 -0.628505 0
M  V30 10488 N 967.778 -6.84425 -1.56548 0
M  V30 10489 H 972.618 -2.91992 0.595359 0
M  V30 10490 H 970.155 -1.43895 0.305405 0
M  V30 10491 H 972.113 -3.79937 -1.72348 0
M  V30 10492 H 970.743 -2.66261 -1.82496 0
M  V30 10493 H 969.795 -3.79086 0.315895 0
M  V30 10494 H 971.107 -4.98418 0.195173 0
M  V30 10495 H 970.261 -5.71184 -2.04534 0
M  V30 10496 H 969 -4.44743 -2.00138 0
M  V30 10497 H 968.005 -5.49777 0.0502431 0
M  V30 10498 H 969.23 -6.79099 -0.012641 0
M  V30 10499 H 967.176 -6.18913 -2.17444 0
M  V30 10500 H 967.093 -7.48931 -1.03145 0
M  V30 10501 H 968.361 -7.47204 -2.22049 0
M  V30 10502 N 972.59 -0.333456 -1.54032 0
M  V30 10503 C 973.538 0.543414 -2.26163 0
M  V30 10504 C 974.532 1.11037 -1.27934 0
M  V30 10505 O 975.738 1.05727 -1.45677 0
M  V30 10506 H 972.113 0.19391 -0.726569 0
M  V30 10507 H 974.084 -0.0871052 -2.98273 0
M  V30 10508 C 972.833 1.68769 -3.03994 0
M  V30 10509 H 972.156 1.26069 -3.79403 0
M  V30 10510 H 973.596 2.27662 -3.57695 0
M  V30 10511 C 972.055 2.61117 -2.12884 0
M  V30 10512 O 972.585 3.63097 -1.71823 0
M  V30 10513 N 970.791 2.29573 -1.7817 0
M  V30 10514 H 970.338 1.46684 -2.11759 0
M  V30 10515 H 970.296 2.91622 -1.1749 0
M  V30 10516 N 974.068 1.57479 -0.061844 0
M  V30 10517 C 975.314 1.93395 0.610443 0
M  V30 10518 C 975.647 0.941334 1.6986 0
M  V30 10519 O 974.922 -0.0310262 1.94475 0
M  V30 10520 C 975.205 3.39636 1.19664 0
M  V30 10521 C 975.058 4.49651 0.115805 0
M  V30 10522 C 976.377 3.86488 2.10512 0
M  V30 10523 H 973.496 0.703262 0.220436 0
M  V30 10524 H 976.138 1.89583 -0.125785 0
M  V30 10525 H 974.288 3.43015 1.82409 0
M  V30 10526 H 975.96 4.58397 -0.516728 0
M  V30 10527 H 974.203 4.30237 -0.55483 0
M  V30 10528 H 974.874 5.49089 0.566176 0
M  V30 10529 H 977.35 3.85052 1.57715 0
M  V30 10530 H 976.226 4.89444 2.48466 0
M  V30 10531 H 976.487 3.23856 3.00948 0
M  V30 10532 N 975.546 -0.211634 1.56173 0
M  V30 10533 C 976.774 -0.951184 1.83739 0
M  V30 10534 C 977.189 -1.7754 0.642252 0
M  V30 10535 O 976.546 -1.78302 -0.389174 0
M  V30 10536 C 976.597 -1.86075 3.09933 0
M  V30 10537 O 976.318 -1.06983 4.24837 0
M  V30 10538 C 977.819 -2.71337 3.50559 0
M  V30 10539 H 975.039 -0.278312 0.61056 0
M  V30 10540 H 977.583 -0.223871 2.03271 0
M  V30 10541 H 975.738 -2.54189 2.92347 0
M  V30 10542 H 976.152 -1.68815 4.9659 0
M  V30 10543 H 977.626 -3.30843 4.41868 0
M  V30 10544 H 978.103 -3.44226 2.72773 0
M  V30 10545 H 978.709 -2.0862 3.70618 0
M  V30 10546 N 977.024 -1.50153 -0.478725 0
M  V30 10547 C 977.954 -1.71384 -1.58587 0
M  V30 10548 C 978.935 -0.562705 -1.60523 0
M  V30 10549 O 980.12 -0.80101 -1.76911 0
M  V30 10550 C 977.25 -1.80094 -2.96957 0
M  V30 10551 C 976.204 -2.95218 -3.09888 0
M  V30 10552 C 975.53 -2.89063 -4.49829 0
M  V30 10553 C 976.83 -4.35841 -2.8782 0
M  V30 10554 H 978.524 -2.64081 -1.41073 0
M  V30 10555 H 976.07 -1.27081 -0.677239 0
M  V30 10556 H 978.023 -1.93531 -3.74331 0
M  V30 10557 H 976.747 -0.840131 -3.1561 0
M  V30 10558 H 975.406 -2.81419 -2.34944 0
M  V30 10559 H 975.054 -1.90844 -4.6539 0
M  V30 10560 H 974.754 -3.66345 -4.59418 0
M  V30 10561 H 976.278 -3.04539 -5.29234 0
M  V30 10562 H 977.692 -4.50205 -3.54948 0
M  V30 10563 H 976.089 -5.14515 -3.0886 0
M  V30 10564 H 977.159 -4.48739 -1.83742 0
M  V30 10565 N 978.502 0.731368 -1.39602 0
M  V30 10566 C 979.432 1.85855 -1.41351 0
M  V30 10567 C 980.413 1.67839 -0.2764 0
M  V30 10568 O 981.598 1.88104 -0.482747 0
M  V30 10569 C 978.728 3.23644 -1.25983 0
M  V30 10570 C 977.682 3.56304 -2.37132 0
M  V30 10571 C 977.008 4.93069 -2.0685 0
M  V30 10572 C 978.308 3.58906 -3.79452 0
M  V30 10573 H 980.002 1.84648 -2.3568 0
M  V30 10574 H 977.548 0.886955 -1.13442 0
M  V30 10575 H 979.501 4.02176 -1.25826 0
M  V30 10576 H 978.225 3.25387 -0.281234 0
M  V30 10577 H 976.884 2.80104 -2.36511 0
M  V30 10578 H 976.532 4.91396 -1.0742 0
M  V30 10579 H 976.232 5.15888 -2.81306 0
M  V30 10580 H 977.756 5.73953 -2.0835 0
M  V30 10581 H 979.17 4.27508 -3.81982 0
M  V30 10582 H 977.567 3.93246 -4.53297 0
M  V30 10583 H 978.637 2.58631 -4.10168 0
M  V30 10584 N 979.98 1.24838 0.961938 0
M  V30 10585 C 981.226 1.10321 1.70883 0
M  V30 10586 C 981.581 -0.353397 1.89127 0
M  V30 10587 O 980.874 -1.25721 1.44584 0
M  V30 10588 C 981.068 1.78289 3.09754 0
M  V30 10589 C 980.897 3.30409 3.05057 0
M  V30 10590 C 979.667 3.9964 3.09218 0
M  V30 10591 C 981.865 4.26916 2.86787 0
M  V30 10592 N 979.847 5.38594 2.94601 0
M  V30 10593 C 981.218 5.52906 2.80526 0
M  V30 10594 C 983.273 4.17421 2.71412 0
M  V30 10595 C 981.976 6.70487 2.60461 0
M  V30 10596 C 984.002 5.34686 2.52715 0
M  V30 10597 C 983.364 6.59611 2.47168 0
M  V30 10598 H 979.463 0.458353 0.63359 0
M  V30 10599 H 982.047 1.57835 1.14001 0
M  V30 10600 H 980.218 1.33281 3.64816 0
M  V30 10601 H 981.95 1.5658 3.73182 0
M  V30 10602 H 978.705 3.50847 3.18125 0
M  V30 10603 H 979.129 6.11497 2.90517 0
M  V30 10604 H 983.771 3.21592 2.74479 0
M  V30 10605 H 981.489 7.66433 2.56136 0
M  V30 10606 H 985.075 5.29194 2.41754 0
M  V30 10607 H 983.955 7.48821 2.32888 0
M  V30 10608 N 981.458 -1.16348 1.06306 0
M  V30 10609 C 982.405 -2.20741 0.673962 0
M  V30 10610 C 983.375 -1.628 -0.329454 0
M  V30 10611 O 984.56 -1.89547 -0.218313 0
M  V30 10612 C 981.7 -3.45036 0.0667008 0
M  V30 10613 C 980.813 -4.17221 1.12031 0
M  V30 10614 C 979.948 -5.29034 0.479176 0
M  V30 10615 C 978.987 -5.93021 1.51631 0
M  V30 10616 N 978.124 -6.96327 0.898528 0
M  V30 10617 H 982.964 -2.53376 1.56859 0
M  V30 10618 H 980.501 -1.24449 0.784276 0
M  V30 10619 H 982.459 -4.16099 -0.302916 0
M  V30 10620 H 981.089 -3.1295 -0.791333 0
M  V30 10621 H 980.141 -3.4476 1.60763 0
M  V30 10622 H 981.453 -4.60902 1.90712 0
M  V30 10623 H 980.607 -6.06674 0.0565993 0
M  V30 10624 H 979.346 -4.86517 -0.33951 0
M  V30 10625 H 978.351 -5.14104 1.94878 0
M  V30 10626 H 979.576 -6.37618 2.3371 0
M  V30 10627 H 977.522 -6.55923 0.100555 0
M  V30 10628 H 977.439 -7.38379 1.62272 0
M  V30 10629 H 978.707 -7.77888 0.5011 0
M  V30 10630 N 982.937 -0.845659 -1.3299 0
M  V30 10631 C 984.348 -0.50048 -1.79867 0
M  V30 10632 C 984.699 0.981027 -1.69913 0
M  V30 10633 O 983.824 1.76477 -1.25239 0
M  V30 10634 C 984.419 -0.901679 -3.26581 0
M  V30 10635 C 982.978 -0.608536 -3.71448 0
M  V30 10636 C 982.125 -1.10632 -2.54275 0
M  V30 10637 H 985.076 -1.03372 -1.20416 0
M  V30 10638 H 985.097 -0.214433 -3.79895 0
M  V30 10639 H 984.609 -1.97998 -3.33794 0
M  V30 10640 H 982.71 0.459416 -3.69757 0
M  V30 10641 H 982.823 -1.16853 -4.64631 0
M  V30 10642 H 981.187 -0.526925 -2.4919 0
M  V30 10643 H 981.97 -2.19154 -2.64247 0
M  V30 10644 N 984.415 1.45619 -0.602734 0
M  V30 10645 C 985.345 2.33258 0.106342 0
M  V30 10646 C 986.326 1.46543 0.863664 0
M  V30 10647 O 987.511 1.75324 0.835175 0
M  V30 10648 C 984.641 3.29168 1.10751 0
M  V30 10649 C 983.595 4.25481 0.463717 0
M  V30 10650 C 982.921 5.11046 1.57278 0
M  V30 10651 C 984.221 5.18702 -0.61199 0
M  V30 10652 H 985.915 2.92795 -0.625423 0
M  V30 10653 H 983.461 1.40793 -0.302213 0
M  V30 10654 H 985.414 3.89346 1.61208 0
M  V30 10655 H 984.138 2.6778 1.8698 0
M  V30 10656 H 982.797 3.66595 -0.0199496 0
M  V30 10657 H 982.445 4.46029 2.32524 0
M  V30 10658 H 982.145 5.76286 1.14755 0
M  V30 10659 H 983.669 5.74091 2.07972 0
M  V30 10660 H 985.083 5.72979 -0.191686 0
M  V30 10661 H 983.48 5.92393 -0.958686 0
M  V30 10662 H 984.55 4.61424 -1.4905 0
M  V30 10663 N 985.893 0.34162 1.53853 0
M  V30 10664 C 986.826 -0.559051 2.21246 0
M  V30 10665 C 987.804 -1.10179 1.1958 0
M  V30 10666 O 988.988 -1.16242 1.48392 0
M  V30 10667 C 986.115 -1.7689 2.88838 0
M  V30 10668 C 985.161 -1.3558 4.04377 0
M  V30 10669 S 985.994 -0.377225 5.3417 0
M  V30 10670 C 987.15 -1.59395 6.05264 0
M  V30 10671 H 987.383 0.013373 2.97297 0
M  V30 10672 H 984.916 0.125694 1.53888 0
M  V30 10673 H 986.874 -2.463 3.284 0
M  V30 10674 H 985.535 -2.31254 2.12557 0
M  V30 10675 H 984.728 -2.25781 4.50599 0
M  V30 10676 H 984.33 -0.741197 3.66582 0
M  V30 10677 H 986.622 -2.52872 6.2854 0
M  V30 10678 H 987.565 -1.17356 6.98307 0
M  V30 10679 H 987.973 -1.78913 5.35397 0
M  V30 10680 N 987.371 -1.57444 0.0701946 0
M  V30 10681 C 988.318 -2.12631 -0.897599 0
M  V30 10682 C 989.288 -1.03841 -1.29639 0
M  V30 10683 O 990.473 -1.31495 -1.38253 0
M  V30 10684 C 987.613 -2.6911 -2.16041 0
M  V30 10685 C 986.726 -3.9205 -1.8144 0
M  V30 10686 C 985.861 -4.36778 -3.02321 0
M  V30 10687 C 984.9 -5.52371 -2.63729 0
M  V30 10688 N 984.037 -5.92065 -3.77364 0
M  V30 10689 H 988.877 -2.95024 -0.420104 0
M  V30 10690 H 986.414 -1.45792 -0.195716 0
M  V30 10691 H 988.372 -2.99963 -2.89962 0
M  V30 10692 H 987.002 -1.89484 -2.61334 0
M  V30 10693 H 986.054 -3.67669 -0.975896 0
M  V30 10694 H 987.366 -4.76011 -1.49046 0
M  V30 10695 H 986.52 -4.69285 -3.84521 0
M  V30 10696 H 985.259 -3.51668 -3.37907 0
M  V30 10697 H 984.264 -5.19517 -1.7995 0
M  V30 10698 H 985.489 -6.39212 -2.29315 0
M  V30 10699 H 983.435 -5.09904 -4.12715 0
M  V30 10700 H 983.352 -6.70762 -3.48733 0
M  V30 10701 H 984.62 -6.29193 -4.60148 0
M  V30 10702 N 988.849 0.203349 -1.56283 0
M  V30 10703 C 989.797 1.27157 -1.94766 0
M  V30 10704 C 990.791 1.4756 -0.832005 0
M  V30 10705 O 991.997 1.48519 -1.01696 0
M  V30 10706 H 988.372 0.426712 -0.61921 0
M  V30 10707 H 990.343 0.919921 -2.83866 0
M  V30 10708 C 989.092 2.6108 -2.29636 0
M  V30 10709 H 988.415 2.46193 -3.15006 0
M  V30 10710 H 989.855 3.34591 -2.60433 0
M  V30 10711 C 988.314 3.17456 -1.12799 0
M  V30 10712 O 988.844 3.99717 -0.398661 0
M  V30 10713 N 987.05 2.76084 -0.906975 0
M  V30 10714 H 986.597 2.09294 -1.50179 0
M  V30 10715 H 986.555 3.14143 -0.127005 0
M  V30 10716 N 990.327 1.50405 0.470755 0
M  V30 10717 C 991.604 1.51929 1.23195 0
M  V30 10718 C 991.984 0.264159 2.09441 0
M  V30 10719 O 991.332 -0.752395 2.15757 0
M  V30 10720 C 991.542 2.81521 2.06269 0
M  V30 10721 C 992.89 3.32195 2.64446 0
M  V30 10722 O 993.914 2.82845 2.16511 0
M  V30 10723 O 992.773 4.18221 3.51786 0
M  V30 10724 H 989.867 0.609411 0.559059 0
M  V30 10725 H 992.413 1.62695 0.482549 0
M  V30 10726 H 991.185 3.64346 1.42715 0
M  V30 10727 H 990.808 2.7376 2.88342 0
M  V30 10728 N 991.805 -0.723954 1.39988 0
M  V30 10729 C 993.03 -1.5182 1.41299 0
M  V30 10730 C 993.455 -1.88096 0.0122636 0
M  V30 10731 O 992.813 -1.52687 -0.977559 0
M  V30 10732 C 992.861 -2.77532 2.30235 0
M  V30 10733 O 991.965 -3.73903 1.73984 0
M  V30 10734 H 991.306 -0.458058 0.480707 0
M  V30 10735 H 993.836 -0.892291 1.84118 0
M  V30 10736 H 993.846 -3.2615 2.45132 0
M  V30 10737 H 992.521 -2.50462 3.32026 0
M  V30 10738 H 991.098 -3.32715 1.68389 0
M  V30 10739 N 993.283 -1.25346 -0.955304 0
M  V30 10740 C 994.213 -1.08152 -2.06943 0
M  V30 10741 C 995.194 0.00922598 -1.70097 0
M  V30 10742 O 996.379 -0.160181 -1.93538 0
M  V30 10743 C 993.509 -0.698745 -3.40198 0
M  V30 10744 C 992.463 -1.73965 -3.9105 0
M  V30 10745 C 991.789 -1.21158 -5.20792 0
M  V30 10746 C 993.089 -3.13829 -4.17503 0
M  V30 10747 H 994.783 -2.01345 -2.21586 0
M  V30 10748 H 992.329 -0.969459 -1.06478 0
M  V30 10749 H 994.282 -0.565394 -4.1759 0
M  V30 10750 H 993.006 0.268892 -3.25491 0
M  V30 10751 H 991.665 -1.86143 -3.15827 0
M  V30 10752 H 991.313 -0.234193 -5.02455 0
M  V30 10753 H 991.013 -1.90728 -5.55785 0
M  V30 10754 H 992.537 -1.09061 -6.00781 0
M  V30 10755 H 993.951 -3.04809 -4.85556 0
M  V30 10756 H 992.348 -3.80863 -4.63749 0
M  V30 10757 H 993.418 -3.6094 -3.23806 0
M  V30 10758 N 994.761 1.15782 -1.06922 0
M  V30 10759 C 996.001 1.88135 -0.799043 0
M  V30 10760 C 996.365 1.80203 0.662632 0
M  V30 10761 O 997.566 2.47543 1.04767 0
M  V30 10762 C 995.837 3.3339 -1.28786 0
M  V30 10763 S 997.396 4.23525 -1.1477 0
M  V30 10764 H 994.214 0.649313 -0.289679 0
M  V30 10765 H 996.816 1.3972 -1.36743 0
M  V30 10766 H 995.52 3.36705 -2.34645 0
M  V30 10767 H 995.051 3.86857 -0.714489 0
M  V30 10768 H 997.066 4.96131 -0.0825264 0
M  V30 10769 N 996.239 0.8527 1.3254 0
M  V30 10770 C 997.464 0.468157 2.02047 0
M  V30 10771 C 997.889 -0.926967 1.63673 0
M  V30 10772 O 997.247 -1.60855 0.836378 0
M  V30 10773 C 997.295 0.612519 3.5536 0
M  V30 10774 O 996.399 -0.355506 4.10865 0
M  V30 10775 H 995.74 0.188401 0.636711 0
M  V30 10776 H 998.27 1.15135 1.6913 0
M  V30 10777 H 998.28 0.499315 4.04933 0
M  V30 10778 H 996.955 1.62988 3.82632 0
M  V30 10779 H 995.532 -0.198703 3.7237 0
M  V30 10780 N 997.718 -1.45297 0.610449 0
M  V30 10781 C 998.964 -2.02518 0.106917 0
M  V30 10782 C 999.297 -1.47747 -1.26034 0
M  V30 10783 O 998.572 -0.65329 -1.832 0
M  V30 10784 C 998.855 -3.6003 0.0710975 0
M  V30 10785 C 998.708 -4.25128 1.46922 0
M  V30 10786 C 1000.03 -4.35778 -0.61524 0
M  V30 10787 H 997.146 -0.735896 0.040327 0
M  V30 10788 H 999.788 -1.73117 0.782968 0
M  V30 10789 H 997.938 -3.85209 -0.504611 0
M  V30 10790 H 999.61 -4.11125 2.09223 0
M  V30 10791 H 997.853 -3.83418 2.02911 0
M  V30 10792 H 998.524 -5.34046 1.39637 0
M  V30 10793 H 1001 -4.1591 -0.125871 0
M  V30 10794 H 999.876 -5.45506 -0.609419 0
M  V30 10795 H 1000.14 -4.08859 -1.68186 0
M  V30 10796 N 999.196 -0.349774 -1.5367 0
M  V30 10797 C 1000.13 0.538575 -2.22782 0
M  V30 10798 C 1001.14 1.05896 -1.23652 0
M  V30 10799 O 1002.33 0.968045 -1.4997 0
M  V30 10800 C 999.43 1.7546 -2.89943 0
M  V30 10801 C 998.603 1.36843 -4.15443 0
M  V30 10802 C 997.662 2.4448 -4.65957 0
M  V30 10803 O 996.688 2.07528 -5.3002 0
M  V30 10804 N 997.89 3.75829 -4.42417 0
M  V30 10805 H 1000.65 -0.053348 -2.99653 0
M  V30 10806 H 998.216 -0.174193 -1.6096 0
M  V30 10807 H 1000.21 2.46911 -3.20651 0
M  V30 10808 H 998.778 2.25375 -2.16622 0
M  V30 10809 H 997.998 0.484421 -3.91212 0
M  V30 10810 H 999.286 1.0865 -4.97064 0
M  V30 10811 H 998.684 4.08635 -3.91196 0
M  V30 10812 H 997.241 4.43432 -4.77714 0
M  V30 10813 N 1000.67 1.57404 -0.0785433 0
M  V30 10814 C 1002.09 1.57158 0.2781 0
M  V30 10815 C 1002.29 1.08847 1.69572 0
M  V30 10816 O 1001.35 0.757407 2.40873 0
M  V30 10817 C 1002.66 3.00589 0.0816067 0
M  V30 10818 C 1004.21 3.12637 0.150627 0
M  V30 10819 C 1004.68 4.57997 -0.0176685 0
M  V30 10820 N 1006.17 4.63185 0.0377145 0
M  V30 10821 C 1006.91 5.7336 -0.0679907 0
M  V30 10822 N 1006.4 6.92426 -0.227598 0
M  V30 10823 N 1008.2 5.62099 -0.0104424 0
M  V30 10824 H 1000.35 1.87121 -1.00496 0
M  V30 10825 H 1002.61 0.862937 -0.392484 0
M  V30 10826 H 1002.32 3.40072 -0.896869 0
M  V30 10827 H 1002.19 3.67931 0.831046 0
M  V30 10828 H 1004.58 2.73037 1.11959 0
M  V30 10829 H 1004.66 2.4792 -0.630028 0
M  V30 10830 H 1004.3 4.98288 -0.983431 0
M  V30 10831 H 1004.23 5.20754 0.782475 0
M  V30 10832 H 1006.72 3.77564 0.159208 0
M  V30 10833 H 1007.04 7.72217 -0.300217 0
M  V30 10834 H 1005.38 6.94502 -0.263049 0
M  V30 10835 H 1008.57 4.67964 0.112999 0
M  V30 10836 H 1008.75 6.47928 -0.0962747 0
M  V30 10837 N 1002.15 -0.195058 1.56388 0
M  V30 10838 C 1003.38 -0.930291 1.8447 0
M  V30 10839 C 1003.79 -1.77356 0.658901 0
M  V30 10840 O 1003.13 -1.79691 -0.381664 0
M  V30 10841 C 1003.19 -1.87626 3.06654 0
M  V30 10842 C 1002.86 -1.21494 4.40555 0
M  V30 10843 C 1003.86 -0.591847 5.1652 0
M  V30 10844 C 1001.54 -1.21878 4.8729 0
M  V30 10845 C 1003.53 0.0185743 6.37397 0
M  V30 10846 C 1001.22 -0.604524 6.08103 0
M  V30 10847 C 1002.22 0.0130731 6.82999 0
M  V30 10848 O 1001.91 0.617703 8.01523 0
M  V30 10849 H 1001.64 -0.276933 0.616672 0
M  V30 10850 H 1004.19 -0.207277 2.04351 0
M  V30 10851 H 1002.42 -2.63897 2.82658 0
M  V30 10852 H 1004.11 -2.47929 3.21382 0
M  V30 10853 H 1004.88 -0.581018 4.81507 0
M  V30 10854 H 1000.76 -1.68888 4.2895 0
M  V30 10855 H 1004.3 0.50124 6.95797 0
M  V30 10856 H 1000.2 -0.612855 6.42584 0
M  V30 10857 H 1000.97 0.514612 8.16881 0
M  V30 10858 N 1003.63 -1.50653 -0.462772 0
M  V30 10859 C 1004.88 -1.62297 -1.21603 0
M  V30 10860 C 1005.21 -0.326191 -1.91441 0
M  V30 10861 O 1004.48 0.67284 -1.82491 0
M  V30 10862 C 1004.77 -2.80901 -2.25315 0
M  V30 10863 C 1004.62 -4.20484 -1.59728 0
M  V30 10864 C 1005.94 -2.95049 -3.26549 0
M  V30 10865 H 1003.06 -0.590691 -0.440741 0
M  V30 10866 H 1005.7 -1.83064 -0.508675 0
M  V30 10867 H 1003.85 -2.63325 -2.85643 0
M  V30 10868 H 1005.52 -4.49669 -1.02932 0
M  V30 10869 H 1003.76 -4.24357 -0.900181 0
M  V30 10870 H 1004.44 -4.99416 -2.35133 0
M  V30 10871 H 1006.91 -3.11166 -2.76251 0
M  V30 10872 H 1005.79 -3.79645 -3.96435 0
M  V30 10873 H 1006.05 -2.06019 -3.91163 0
M  V30 10874 N 1005.11 0.71652 -1.4037 0
M  V30 10875 C 1006.36 1.47193 -1.37903 0
M  V30 10876 C 1006.67 1.95593 0.0159939 0
M  V30 10877 O 1007.88 2.71009 0.163282 0
M  V30 10878 C 1006.33 2.6606 -2.42363 0
M  V30 10879 C 1005.94 2.24533 -3.87671 0
M  V30 10880 C 1007.68 3.438 -2.49001 0
M  V30 10881 C 1005.59 3.40234 -4.8373 0
M  V30 10882 H 1004.52 0.552811 -0.512753 0
M  V30 10883 H 1007.17 0.779894 -1.66102 0
M  V30 10884 H 1005.55 3.37429 -2.07262 0
M  V30 10885 H 1006.73 1.6059 -4.31911 0
M  V30 10886 H 1005.04 1.59839 -3.845 0
M  V30 10887 H 1007.64 4.29893 -3.17956 0
M  V30 10888 H 1007.98 3.8755 -1.52023 0
M  V30 10889 H 1008.52 2.79474 -2.83088 0
M  V30 10890 H 1005.26 3.01517 -5.82037 0
M  V30 10891 H 1004.78 4.03095 -4.44156 0
M  V30 10892 H 1006.45 4.06312 -5.03507 0
M  V30 10893 N 1006.59 1.25851 0.948643 0
M  V30 10894 C 1007.53 1.06559 2.06756 0
M  V30 10895 C 1008.53 -0.00528632 1.69399 0
M  V30 10896 O 1009.73 0.150806 1.79367 0
M  V30 10897 H 1006.11 0.327689 0.676848 0
M  V30 10898 H 1008.08 2.01401 2.20182 0
M  V30 10899 C 1006.83 0.707392 3.40428 0
M  V30 10900 H 1006.15 1.52324 3.69645 0
M  V30 10901 H 1007.59 0.612142 4.19558 0
M  V30 10902 C 1006.05 -0.58697 3.31747 0
M  V30 10903 O 1006.58 -1.62741 3.67258 0
M  V30 10904 N 1004.79 -0.574828 2.84858 0
M  V30 10905 H 1004.33 0.272236 2.56157 0
M  V30 10906 H 1004.29 -1.441 2.79432 0
M  V30 10907 N 1008.06 -1.15214 1.07534 0
M  V30 10908 C 1009.01 -2.18022 0.667108 0
M  V30 10909 C 1010 -1.57911 -0.308714 0
M  V30 10910 O 1011.19 -1.76578 -0.122147 0
M  V30 10911 C 1008.32 -3.43232 0.0684348 0
M  V30 10912 C 1007.41 -4.10393 1.06951 0
M  V30 10913 N 1007.8 -4.53013 2.24973 0
M  V30 10914 C 1006.09 -4.36758 0.903262 0
M  V30 10915 C 1006.8 -5.05118 2.88498 0
M  V30 10916 N 1005.77 -4.98777 2.16153 0
M  V30 10917 H 1009.57 -2.48706 1.56597 0
M  V30 10918 H 1007.09 -1.31801 0.948796 0
M  V30 10919 H 1009.08 -4.16197 -0.241934 0
M  V30 10920 H 1007.74 -3.14031 -0.825525 0
M  V30 10921 H 1008.76 -4.4634 2.6268 0
M  V30 10922 H 1005.43 -4.17453 0.0623543 0
M  V30 10923 H 1006.82 -5.48039 3.8872 0
M  V30 10924 N 1009.54 -0.859717 -1.32086 0
M  V30 10925 C 1010.49 -0.279715 -2.26278 0
M  V30 10926 C 1011.48 0.577348 -1.50185 0
M  V30 10927 O 1012.67 0.425903 -1.71799 0
M  V30 10928 C 1009.8 0.526622 -3.39237 0
M  V30 10929 C 1008.88 -0.343112 -4.2271 0
M  V30 10930 N 1009.27 -1.43176 -4.85113 0
M  V30 10931 C 1007.57 -0.133744 -4.45799 0
M  V30 10932 C 1008.27 -1.96725 -5.47425 0
M  V30 10933 N 1007.25 -1.26569 -5.2866 0
M  V30 10934 H 1011.05 -1.11191 -2.72055 0
M  V30 10935 H 1008.57 -0.706372 -1.46233 0
M  V30 10936 H 1010.56 0.958587 -4.0573 0
M  V30 10937 H 1009.22 1.35655 -2.95005 0
M  V30 10938 H 1010.23 -1.81469 -4.85066 0
M  V30 10939 H 1006.91 0.661064 -4.12233 0
M  V30 10940 H 1008.3 -2.88006 -6.07044 0
M  V30 10941 N 1011.02 1.44971 -0.618145 0
M  V30 10942 C 1012.25 2.06527 -0.124165 0
M  V30 10943 C 1012.66 1.46097 1.19588 0
M  V30 10944 O 1012.02 0.57901 1.73071 0
M  V30 10945 C 1012.07 3.61498 0.0106701 0
M  V30 10946 O 1011.79 4.19675 -1.25716 0
M  V30 10947 C 1013.29 4.40061 0.534872 0
M  V30 10948 H 1010.51 0.666941 -0.0736935 0
M  V30 10949 H 1013.06 1.8605 -0.848871 0
M  V30 10950 H 1011.21 3.81282 0.685752 0
M  V30 10951 H 1011.63 5.12972 -1.09362 0
M  V30 10952 H 1013.1 5.48963 0.57827 0
M  V30 10953 H 1013.58 4.10587 1.55931 0
M  V30 10954 H 1014.18 4.25167 -0.10652 0
M  V30 10955 N 1012.5 0.357919 1.53482 0
M  V30 10956 C 1013.72 -0.237769 2.06033 0
M  V30 10957 C 1014.15 -1.42292 1.23023 0
M  V30 10958 O 1013.51 -1.79604 0.247427 0
M  V30 10959 C 1013.55 -0.616806 3.55286 0
M  V30 10960 O 1012.66 -1.71503 3.75047 0
M  V30 10961 H 1012 -0.0364322 0.663 0
M  V30 10962 H 1014.53 0.516301 1.97979 0
M  V30 10963 H 1014.54 -0.88996 3.98175 0
M  V30 10964 H 1013.21 0.249825 4.15149 0
M  V30 10965 H 1011.79 -1.43803 3.44057 0
M  V30 10966 N 1013.98 -1.5736 0.0868897 0
M  V30 10967 C 1015.22 -1.95933 -0.582212 0
M  V30 10968 C 1015.58 -0.967238 -1.65857 0
M  V30 10969 O 1016.78 -1.24116 -2.3843 0
M  V30 10970 C 1015.05 -3.39049 -1.1305 0
M  V30 10971 S 1016.61 -3.99612 -1.81262 0
M  V30 10972 H 1013.43 -0.685082 -0.190221 0
M  V30 10973 H 1016.03 -1.94808 0.164341 0
M  V30 10974 H 1014.74 -4.09026 -0.335492 0
M  V30 10975 H 1014.27 -3.43752 -1.91307 0
M  V30 10976 H 1016.28 -3.87747 -3.09624 0
M  V30 10977 N 1015.45 0.186762 -1.56489 0
M  V30 10978 C 1016.4 1.25084 -1.96104 0
M  V30 10979 C 1017.4 1.4667 -0.847609 0
M  V30 10980 O 1018.6 1.47432 -1.03266 0
M  V30 10981 H 1014.98 0.420121 -0.623701 0
M  V30 10982 H 1016.95 0.889761 -2.84826 0
M  V30 10983 C 1015.7 2.5863 -2.32392 0
M  V30 10984 H 1015.02 2.42838 -3.176 0
M  V30 10985 H 1016.46 3.3181 -2.63967 0
M  V30 10986 C 1014.92 3.16241 -1.16159 0
M  V30 10987 O 1015.45 3.99272 -0.441034 0
M  V30 10988 N 1013.66 2.75106 -0.936206 0
M  V30 10989 H 1013.2 2.0769 -1.5239 0
M  V30 10990 H 1013.16 3.13991 -0.160317 0
M  V30 10991 N 1016.93 1.50896 0.454776 0
M  V30 10992 C 1018.18 1.62378 1.20324 0
M  V30 10993 C 1018.5 0.333883 1.9212 0
M  V30 10994 O 1017.77 -0.649477 1.8482 0
M  V30 10995 H 1016.35 0.598395 0.447139 0
M  V30 10996 H 1019.01 1.87749 0.523102 0
M  V30 10997 H 1018.11 2.44296 1.94232 0
M  V30 10998 N 1018.41 -0.709066 1.40748 0
M  V30 10999 C 1019.64 -1.49808 1.42707 0
M  V30 11000 C 1020.05 -1.88778 0.0285574 0
M  V30 11001 O 1019.41 -1.55883 -0.949035 0
M  V30 11002 C 1019.46 -2.76926 2.32366 0
M  V30 11003 O 1019.18 -2.39602 3.66773 0
M  V30 11004 C 1020.68 -3.70773 2.42986 0
M  V30 11005 H 1017.9 -0.462106 0.486517 0
M  V30 11006 H 1020.45 -0.874135 1.84876 0
M  V30 11007 H 1018.6 -3.3559 1.93541 0
M  V30 11008 H 1019.02 -3.21443 4.14457 0
M  V30 11009 H 1020.49 -4.56789 3.09916 0
M  V30 11010 H 1020.97 -4.14332 1.45691 0
M  V30 11011 H 1021.57 -3.18019 2.8239 0
M  V30 11012 N 1019.89 -1.26353 -0.941956 0
M  V30 11013 C 1021.14 -1.13026 -1.69106 0
M  V30 11014 C 1021.49 0.323264 -1.89665 0
M  V30 11015 O 1020.78 1.23405 -1.46566 0
M  V30 11016 C 1020.98 -1.83195 -3.06879 0
M  V30 11017 C 1020.81 -3.35221 -2.99762 0
M  V30 11018 C 1019.58 -4.04509 -3.02821 0
M  V30 11019 C 1021.77 -4.31425 -2.79959 0
M  V30 11020 N 1019.76 -5.43212 -2.85995 0
M  V30 11021 C 1021.13 -5.57299 -2.71694 0
M  V30 11022 C 1023.18 -4.21686 -2.64736 0
M  V30 11023 C 1021.89 -6.74546 -2.49761 0
M  V30 11024 C 1023.91 -5.38639 -2.44177 0
M  V30 11025 C 1023.27 -6.6346 -2.36643 0
M  V30 11026 H 1019.37 -0.468375 -0.626218 0
M  V30 11027 H 1021.96 -1.59629 -1.11476 0
M  V30 11028 H 1020.13 -1.39068 -3.62649 0
M  V30 11029 H 1021.86 -1.62498 -3.70644 0
M  V30 11030 H 1018.61 -3.55863 -3.12503 0
M  V30 11031 H 1019.04 -6.16042 -2.80752 0
M  V30 11032 H 1023.68 -3.25918 -2.69328 0
M  V30 11033 H 1021.4 -7.70411 -2.4391 0
M  V30 11034 H 1024.98 -5.32973 -2.33305 0
M  V30 11035 H 1023.86 -7.52431 -2.20945 0
M  V30 11036 N 1021.37 1.14642 -1.08144 0
M  V30 11037 C 1022.59 1.90025 -0.830972 0
M  V30 11038 C 1023.02 1.77904 0.610879 0
M  V30 11039 O 1022.38 1.11735 1.42776 0
M  V30 11040 C 1022.42 3.38085 -1.25422 0
M  V30 11041 O 1021.53 4.10412 -0.404486 0
M  V30 11042 H 1020.87 0.591327 -0.302041 0
M  V30 11043 H 1023.4 1.4513 -1.44216 0
M  V30 11044 H 1023.41 3.88894 -1.23391 0
M  V30 11045 H 1022.08 3.46226 -2.30435 0
M  V30 11046 H 1020.66 3.69693 -0.487987 0
M  V30 11047 N 1022.85 0.866709 1.31628 0
M  V30 11048 C 1023.76 0.323408 2.3236 0
M  V30 11049 C 1024.77 -0.564995 1.64572 0
M  V30 11050 O 1025.95 -0.462489 1.96018 0
M  V30 11051 C 1023.01 -0.469045 3.43513 0
M  V30 11052 C 1022.07 0.446928 4.26967 0
M  V30 11053 C 1021.31 -0.307799 5.32812 0
M  V30 11054 O 1021.53 -1.5363 5.49321 0
M  V30 11055 O 1020.46 0.332653 6.0098 0
M  V30 11056 H 1024.29 1.15827 2.80745 0
M  V30 11057 H 1021.87 0.629987 1.35468 0
M  V30 11058 H 1023.76 -0.918405 4.1127 0
M  V30 11059 H 1022.43 -1.28051 2.97296 0
M  V30 11060 H 1021.34 0.944719 3.61975 0
M  V30 11061 H 1022.67 1.2239 4.76741 0
M  V30 11062 N 1024.32 -1.44642 0.625825 0
M  V30 11063 C 1025.6 -1.9551 0.0593587 0
M  V30 11064 C 1025.98 -1.56792 -1.41349 0
M  V30 11065 O 1025.33 -0.839373 -2.12525 0
M  V30 11066 C 1025.54 -3.47902 0.276647 0
M  V30 11067 C 1026.89 -4.24271 0.167044 0
M  V30 11068 O 1027.91 -3.55594 0.207731 0
M  V30 11069 O 1026.77 -5.46458 0.0675 0
M  V30 11070 H 1023.86 -0.826612 -0.0253422 0
M  V30 11071 H 1026.41 -1.54718 0.697159 0
M  V30 11072 H 1025.18 -3.69115 1.29885 0
M  V30 11073 H 1024.8 -3.95628 -0.395547 0
M  V30 11074 N 1025.8 -0.366053 -1.5329 0
M  V30 11075 C 1027.05 0.223824 -2.01561 0
M  V30 11076 C 1027.38 1.48382 -1.25286 0
M  V30 11077 O 1026.66 1.91385 -0.34669 0
M  V30 11078 C 1026.94 0.5153 -3.56394 0
M  V30 11079 C 1026.79 -0.758357 -4.43361 0
M  V30 11080 C 1028.11 1.31568 -4.19974 0
M  V30 11081 H 1025.23 0.0798751 -0.732659 0
M  V30 11082 H 1027.87 -0.491038 -1.83545 0
M  V30 11083 H 1026.02 1.12429 -3.71876 0
M  V30 11084 H 1027.69 -1.39584 -4.39675 0
M  V30 11085 H 1025.94 -1.37862 -4.11311 0
M  V30 11086 H 1026.61 -0.509366 -5.49645 0
M  V30 11087 H 1029.08 0.800514 -4.08327 0
M  V30 11088 H 1027.96 1.48837 -5.28336 0
M  V30 11089 H 1028.22 2.32432 -3.76069 0
M  V30 11090 N 1027.28 1.57312 -0.0952337 0
M  V30 11091 C 1028.53 1.93974 0.567319 0
M  V30 11092 C 1028.85 0.977805 1.68713 0
M  V30 11093 O 1028.12 0.0298944 1.95877 0
M  V30 11094 H 1026.7 0.71612 0.212558 0
M  V30 11095 H 1029.36 1.94254 -0.158598 0
M  V30 11096 H 1028.46 2.964 0.977423 0
M  V30 11097 N 1028.76 -0.17846 1.56586 0
M  V30 11098 C 1029.71 -1.24042 1.96765 0
M  V30 11099 C 1030.7 -1.46218 0.855375 0
M  V30 11100 O 1031.91 -1.46882 1.04046 0
M  V30 11101 H 1028.28 -0.416807 0.62592 0
M  V30 11102 H 1030.25 -0.874644 2.85294 0
M  V30 11103 C 1029 -2.57394 2.3376 0
M  V30 11104 H 1028.32 -2.41151 3.18883 0
M  V30 11105 H 1029.76 -3.30405 2.65723 0
M  V30 11106 C 1028.22 -3.15621 1.17835 0
M  V30 11107 O 1028.75 -3.99032 0.462202 0
M  V30 11108 N 1026.96 -2.74606 0.950783 0
M  V30 11109 H 1026.51 -2.06878 1.5349 0
M  V30 11110 H 1026.46 -3.13902 0.176967 0
M  V30 11111 N 1030.24 -1.51135 -0.446768 0
M  V30 11112 C 1031.19 -1.68152 -1.53977 0
M  V30 11113 C 1032.17 -0.53563 -1.51723 0
M  V30 11114 O 1033.36 -0.791134 -1.58335 0
M  V30 11115 C 1030.49 -1.80133 -2.92245 0
M  V30 11116 C 1029.58 -3.00476 -2.99291 0
M  V30 11117 N 1029.97 -4.23796 -2.76099 0
M  V30 11118 C 1028.27 -2.99536 -3.30445 0
M  V30 11119 C 1028.97 -5.04977 -2.88744 0
M  V30 11120 N 1027.94 -4.39428 -3.20006 0
M  V30 11121 H 1031.74 -2.61172 -1.34784 0
M  V30 11122 H 1029.26 -1.48653 -0.653923 0
M  V30 11123 H 1031.26 -1.90432 -3.70866 0
M  V30 11124 H 1029.92 -0.882879 -3.12467 0
M  V30 11125 H 1030.93 -4.52896 -2.51209 0
M  V30 11126 H 1027.6 -2.17286 -3.56501 0
M  V30 11127 H 1028.99 -6.13114 -2.74847 0
M  V30 11128 N 1031.71 0.701592 -1.41122 0
M  V30 11129 C 1032.94 1.49049 -1.43499 0
M  V30 11130 C 1033.36 1.88761 -0.0385684 0
M  V30 11131 O 1032.71 1.56384 0.940755 0
M  V30 11132 C 1032.76 2.7569 -2.33832 0
M  V30 11133 O 1032.49 2.37653 -3.68039 0
M  V30 11134 C 1033.99 3.69479 -2.44949 0
M  V30 11135 H 1031.21 0.459519 -0.488961 0
M  V30 11136 H 1033.75 0.864318 -1.85337 0
M  V30 11137 H 1031.91 3.34559 -1.95318 0
M  V30 11138 H 1032.32 3.19241 -4.16156 0
M  V30 11139 H 1033.79 4.55139 -3.12334 0
M  V30 11140 H 1034.27 4.13553 -1.47887 0
M  V30 11141 H 1034.88 3.16517 -2.84072 0
M  V30 11142 N 1033.19 1.2685 0.935242 0
M  V30 11143 C 1034.14 1.08923 2.03481 0
M  V30 11144 C 1035.11 -0.00749786 1.66098 0
M  V30 11145 O 1036.29 0.153401 1.90182 0
M  V30 11146 C 1033.43 0.734529 3.37192 0
M  V30 11147 C 1032.55 1.90812 3.87576 0
M  V30 11148 C 1031.68 1.49599 5.097 0
M  V30 11149 C 1030.72 2.63752 5.5236 0
M  V30 11150 N 1029.86 2.23179 6.65684 0
M  V30 11151 H 1034.7 2.03016 2.18148 0
M  V30 11152 H 1032.23 1.01072 1.06878 0
M  V30 11153 H 1034.19 0.509734 4.14074 0
M  V30 11154 H 1032.82 -0.169438 3.22355 0
M  V30 11155 H 1031.87 2.24567 3.0704 0
M  V30 11156 H 1033.19 2.7647 4.1517 0
M  V30 11157 H 1032.34 1.23199 5.9406 0
M  V30 11158 H 1031.08 0.61039 4.83865 0
M  V30 11159 H 1030.08 2.90874 4.66554 0
M  V30 11160 H 1031.31 3.5292 5.80193 0
M  V30 11161 H 1029.26 1.37061 6.41522 0
M  V30 11162 H 1029.17 3.02379 6.92895 0
M  V30 11163 H 1030.44 2.00007 7.53404 0
M  V30 11164 N 1034.67 -1.14067 1.0875 0
M  V30 11165 C 1035.92 -1.85185 0.819317 0
M  V30 11166 C 1036.25 -1.8314 -0.654969 0
M  V30 11167 O 1035.5 -1.25974 -1.49763 0
M  V30 11168 C 1035.8 -3.33273 1.29089 0
M  V30 11169 C 1035.47 -3.55504 2.77359 0
M  V30 11170 C 1034.13 -3.61279 3.17853 0
M  V30 11171 C 1036.48 -3.64041 3.72992 0
M  V30 11172 C 1033.81 -3.73119 4.52768 0
M  V30 11173 C 1036.16 -3.77407 5.07687 0
M  V30 11174 C 1034.82 -3.81433 5.47782 0
M  V30 11175 H 1034.09 -0.67764 0.299809 0
M  V30 11176 H 1036.74 -1.34713 1.36106 0
M  V30 11177 H 1035.05 -3.86049 0.668811 0
M  V30 11178 H 1036.74 -3.86734 1.06009 0
M  V30 11179 H 1033.33 -3.51659 2.45019 0
M  V30 11180 H 1037.52 -3.58866 3.42825 0
M  V30 11181 H 1032.77 -3.74499 4.83281 0
M  V30 11182 H 1036.95 -3.82956 5.81651 0
M  V30 11183 H 1034.57 -3.9036 6.52321 0
M  V30 11184 N 1036.15 -0.873678 -1.31166 0
M  V30 11185 C 1037.38 -0.501043 -2.00742 0
M  V30 11186 C 1037.79 0.907477 -1.65561 0
M  V30 11187 O 1037.15 1.59507 -0.886771 0
M  V30 11188 C 1037.2 -0.652877 -3.55556 0
M  V30 11189 O 1036.92 -2.00593 -3.89479 0
M  V30 11190 C 1038.42 -0.281742 -4.42404 0
M  V30 11191 H 1035.64 -0.194829 -0.642092 0
M  V30 11192 H 1038.19 -1.17587 -1.67313 0
M  V30 11193 H 1036.34 -0.0255627 -3.87392 0
M  V30 11194 H 1036.75 -2.01638 -4.84193 0
M  V30 11195 H 1038.23 -0.43892 -5.50252 0
M  V30 11196 H 1038.71 0.779389 -4.32229 0
M  V30 11197 H 1039.31 -0.88491 -4.15992 0
M  V30 11198 N 1037.63 1.44308 -0.633487 0
M  V30 11199 C 1038.87 2.02023 -0.138917 0
M  V30 11200 C 1039.2 1.49841 1.24008 0
M  V30 11201 O 1038.46 0.673718 1.83738 0
M  V30 11202 C 1038.76 3.57316 -0.0773886 0
M  V30 11203 C 1038.42 4.28762 -1.39548 0
M  V30 11204 C 1037.08 4.47997 -1.75648 0
M  V30 11205 C 1039.44 4.69391 -2.26542 0
M  V30 11206 C 1036.76 5.05121 -2.98445 0
M  V30 11207 C 1039.12 5.27876 -3.48612 0
M  V30 11208 C 1037.78 5.45329 -3.84932 0
M  V30 11209 H 1037.05 0.739254 -0.0508333 0
M  V30 11210 H 1039.7 1.73043 -0.820271 0
M  V30 11211 H 1038 3.85724 0.687345 0
M  V30 11212 H 1039.7 3.99706 0.321837 0
M  V30 11213 H 1036.29 4.14122 -1.10456 0
M  V30 11214 H 1040.47 4.54241 -1.99946 0
M  V30 11215 H 1035.73 5.16821 -3.26658 0
M  V30 11216 H 1039.9 5.58307 -4.16253 0
M  V30 11217 H 1037.53 5.8936 -4.80166 0
M  V30 11218 N 1039.1 0.374177 1.53094 0
M  V30 11219 C 1040.03 -0.459976 2.28925 0
M  V30 11220 C 1041.02 -1.07656 1.31698 0
M  V30 11221 O 1042.2 -1.09219 1.60577 0
M  V30 11222 C 1039.33 -1.5954 3.08487 0
M  V30 11223 C 1038.28 -1.10563 4.13473 0
M  V30 11224 C 1037.61 -2.33196 4.81169 0
M  V30 11225 C 1038.91 -0.184275 5.21975 0
M  V30 11226 H 1040.6 0.172692 2.98902 0
M  V30 11227 H 1038.15 0.0844956 1.43752 0
M  V30 11228 H 1040.1 -2.18565 3.60288 0
M  V30 11229 H 1038.83 -2.25543 2.36216 0
M  V30 11230 H 1037.49 -0.53801 3.62631 0
M  V30 11231 H 1037.13 -2.97675 4.05461 0
M  V30 11232 H 1036.83 -2.01094 5.52119 0
M  V30 11233 H 1038.36 -2.92892 5.35767 0
M  V30 11234 H 1039.77 -0.682262 5.69226 0
M  V30 11235 H 1038.17 0.0462746 6.00082 0
M  V30 11236 H 1039.24 0.771152 4.78729 0
M  V30 11237 N 1040.58 -1.57259 0.103575 0
M  V30 11238 C 1041.83 -1.95744 -0.552781 0
M  V30 11239 C 1042.18 -0.985175 -1.65264 0
M  V30 11240 O 1041.48 -0.0125763 -1.91596 0
M  V30 11241 C 1041.67 -3.38549 -1.14538 0
M  V30 11242 C 1041.5 -4.49579 -0.104467 0
M  V30 11243 C 1040.27 -5.04273 0.321999 0
M  V30 11244 C 1042.47 -5.09909 0.670622 0
M  V30 11245 N 1040.45 -5.98866 1.3503 0
M  V30 11246 C 1041.82 -6.00299 1.55052 0
M  V30 11247 C 1043.88 -4.9262 0.723209 0
M  V30 11248 C 1042.58 -6.75254 2.4784 0
M  V30 11249 C 1044.6 -5.68243 1.63873 0
M  V30 11250 C 1043.97 -6.58306 2.50624 0
M  V30 11251 H 1040.07 -0.762769 -0.172359 0
M  V30 11252 H 1042.65 -1.93789 0.188113 0
M  V30 11253 H 1040.82 -3.41182 -1.85606 0
M  V30 11254 H 1042.55 -3.64194 -1.7648 0
M  V30 11255 H 1039.31 -4.73552 -0.0674026 0
M  V30 11256 H 1039.73 -6.50865 1.86291 0
M  V30 11257 H 1044.37 -4.22747 0.0666625 0
M  V30 11258 H 1042.09 -7.44383 3.14516 0
M  V30 11259 H 1045.68 -5.56876 1.68466 0
M  V30 11260 H 1044.56 -7.15799 3.20315 0
M  V30 11261 N 1042.06 0.170153 -1.56679 0
M  V30 11262 C 1043.29 0.902134 -1.86197 0
M  V30 11263 C 1043.7 1.75775 -0.689098 0
M  V30 11264 O 1043.06 1.79271 0.341763 0
M  V30 11265 C 1043.11 1.77792 -3.14757 0
M  V30 11266 O 1042.83 0.956817 -4.27524 0
M  V30 11267 C 1044.33 2.61947 -3.57629 0
M  V30 11268 H 1041.55 0.262026 -0.617724 0
M  V30 11269 H 1044.1 0.169899 -2.03793 0
M  V30 11270 H 1042.25 2.46348 -2.98984 0
M  V30 11271 H 1042.67 1.5559 -5.00891 0
M  V30 11272 H 1044.14 3.19011 -4.50484 0
M  V30 11273 H 1044.62 3.36873 -2.81803 0
M  V30 11274 H 1045.22 1.98721 -3.76019 0
M  V30 11275 N 1043.54 1.5137 0.438746 0
M  V30 11276 C 1044.45 1.75424 1.55768 0
M  V30 11277 C 1045.46 0.638409 1.61865 0
M  V30 11278 O 1046.64 0.9205 1.79133 0
M  V30 11279 C 1043.71 1.87288 2.9176 0
M  V30 11280 C 1042.77 3.11137 2.95791 0
M  V30 11281 C 1042 3.22425 4.25297 0
M  V30 11282 O 1042.22 2.39688 5.17596 0
M  V30 11283 O 1041.16 4.15393 4.35583 0
M  V30 11284 H 1044.98 2.70339 1.38386 0
M  V30 11285 H 1042.57 1.35854 0.621609 0
M  V30 11286 H 1044.45 1.97085 3.72472 0
M  V30 11287 H 1043.12 0.955599 3.09273 0
M  V30 11288 H 1042.03 3.06819 2.1404 0
M  V30 11289 H 1043.36 4.02549 2.83223 0
M  V30 11290 N 1045.02 -0.694098 1.41492 0
M  V30 11291 C 1045.95 -1.81943 1.39389 0
M  V30 11292 C 1046.96 -1.6009 0.295836 0
M  V30 11293 O 1048.15 -1.69565 0.557658 0
M  V30 11294 C 1045.25 -3.18731 1.15167 0
M  V30 11295 C 1044.42 -3.67601 2.37041 0
M  V30 11296 C 1043.48 -4.83063 2.08654 0
M  V30 11297 O 1042.51 -4.94603 2.81704 0
M  V30 11298 N 1043.71 -5.70409 1.0777 0
M  V30 11299 H 1046.48 -1.84239 2.36381 0
M  V30 11300 H 1044.04 -0.876475 1.36123 0
M  V30 11301 H 1046.03 -3.93602 0.941264 0
M  V30 11302 H 1044.6 -3.11452 0.267673 0
M  V30 11303 H 1043.82 -2.83622 2.73774 0
M  V30 11304 H 1045.11 -3.96991 3.18239 0
M  V30 11305 H 1044.5 -5.63718 0.473123 0
M  V30 11306 H 1043.06 -6.45172 0.927177 0
M  V30 11307 N 1046.49 -1.27344 -0.928501 0
M  V30 11308 C 1047.46 -1.10043 -2.01055 0
M  V30 11309 C 1048.46 -0.0446793 -1.60738 0
M  V30 11310 O 1049.65 -0.289202 -1.71783 0
M  V30 11311 C 1046.78 -0.676559 -3.34119 0
M  V30 11312 H 1047.97 -2.06126 -2.17835 0
M  V30 11313 H 1045.53 -1.10121 -1.10919 0
M  V30 11314 H 1046.26 0.285697 -3.23039 0
M  V30 11315 H 1046.05 -1.43903 -3.64739 0
M  V30 11316 H 1047.54 -0.577725 -4.13584 0
M  V30 11317 N 1047.97 1.13488 -1.09353 0
M  V30 11318 C 1048.92 2.16933 -0.701709 0
M  V30 11319 C 1049.91 1.58382 0.283553 0
M  V30 11320 O 1051.1 1.7675 0.0940391 0
M  V30 11321 C 1048.23 3.43079 -0.123031 0
M  V30 11322 C 1047.31 4.08639 -1.13466 0
M  V30 11323 N 1047.7 4.49377 -2.32152 0
M  V30 11324 C 1046 4.35265 -0.972632 0
M  V30 11325 C 1046.7 5.00464 -2.96497 0
M  V30 11326 N 1045.68 4.95275 -2.24061 0
M  V30 11327 H 1049.48 2.46183 -1.60534 0
M  V30 11328 H 1047 1.30275 -0.969644 0
M  V30 11329 H 1048.99 4.1653 0.17569 0
M  V30 11330 H 1047.65 3.15304 0.775461 0
M  V30 11331 H 1048.66 4.42105 -2.69748 0
M  V30 11332 H 1045.34 4.17301 -0.12876 0
M  V30 11333 H 1046.73 5.41785 -3.9739 0
M  V30 11334 N 1049.45 0.880621 1.30701 0
M  V30 11335 C 1050.68 0.511682 2.00473 0
M  V30 11336 C 1051.09 -0.898684 1.6604 0
M  V30 11337 O 1050.45 -1.59035 0.895218 0
M  V30 11338 C 1050.5 0.671723 3.55204 0
M  V30 11339 O 1050.22 2.02656 3.8841 0
M  V30 11340 C 1051.72 0.3052 4.42248 0
M  V30 11341 H 1048.94 0.198231 0.64105 0
M  V30 11342 H 1051.49 1.18472 1.66687 0
M  V30 11343 H 1049.64 0.0461066 3.87373 0
M  V30 11344 H 1050.06 2.04202 4.83117 0
M  V30 11345 H 1051.53 0.468095 5.50012 0
M  V30 11346 H 1052.01 -0.756456 4.32637 0
M  V30 11347 H 1052.61 0.906959 4.15517 0
M  V30 11348 N 1050.93 -1.4397 0.641131 0
M  V30 11349 C 1052.18 -2.02246 0.14985 0
M  V30 11350 C 1052.51 -1.50387 -1.22871 0
M  V30 11351 O 1051.78 -0.692003 -1.81773 0
M  V30 11352 C 1052.07 -3.59798 0.147449 0
M  V30 11353 C 1051.92 -4.21916 1.55907 0
M  V30 11354 C 1053.24 -4.36985 -0.522667 0
M  V30 11355 H 1050.36 -0.734875 0.0559274 0
M  V30 11356 H 1053 -1.71418 0.819513 0
M  V30 11357 H 1051.15 -3.86193 -0.422789 0
M  V30 11358 H 1052.82 -4.06594 2.17896 0
M  V30 11359 H 1051.06 -3.79028 2.10998 0
M  V30 11360 H 1051.74 -5.30964 1.50934 0
M  V30 11361 H 1054.21 -4.16083 -0.0376226 0
M  V30 11362 H 1053.09 -5.46676 -0.493572 0
M  V30 11363 H 1053.35 -4.12335 -1.59475 0
M  V30 11364 N 1052.41 -0.382291 -1.52893 0
M  V30 11365 C 1053.64 0.202408 -2.05908 0
M  V30 11366 C 1054.05 1.4109 -1.25456 0
M  V30 11367 O 1053.41 1.80027 -0.29942 0
M  V30 11368 C 1053.46 0.579452 -3.56826 0
M  V30 11369 O 1053.18 -0.58102 -4.3423 0
M  V30 11370 C 1054.68 1.22076 -4.2616 0
M  V30 11371 H 1051.9 0.0321859 -0.670228 0
M  V30 11372 H 1054.44 -0.545494 -1.9709 0
M  V30 11373 H 1052.6 1.27726 -3.65739 0
M  V30 11374 H 1053.01 -0.272693 -5.23791 0
M  V30 11375 H 1054.49 1.435 -5.33021 0
M  V30 11376 H 1054.96 2.18605 -3.80931 0
M  V30 11377 H 1055.57 0.563922 -4.21545 0
M  V30 11378 N 1053.89 1.57202 -0.111913 0
M  V30 11379 C 1055.13 1.95239 0.548607 0
M  V30 11380 C 1055.46 0.994897 1.6678 0
M  V30 11381 O 1054.74 0.0308603 1.94476 0
M  V30 11382 C 1055.02 3.43271 1.08798 0
M  V30 11383 C 1054.88 4.49792 -0.0273064 0
M  V30 11384 C 1056.19 3.92989 1.98109 0
M  V30 11385 H 1053.31 0.709919 0.197951 0
M  V30 11386 H 1055.96 1.89087 -0.186036 0
M  V30 11387 H 1054.11 3.48644 1.71404 0
M  V30 11388 H 1055.78 4.56521 -0.662302 0
M  V30 11389 H 1054.02 4.28254 -0.691426 0
M  V30 11390 H 1054.69 5.50612 0.391201 0
M  V30 11391 H 1057.17 3.89875 1.45385 0
M  V30 11392 H 1056.04 4.97101 2.32769 0
M  V30 11393 H 1056.3 3.33267 2.90492 0
M  V30 11394 N 1055.36 -0.161842 1.56767 0
M  V30 11395 C 1056.29 -1.20226 2.0017 0
M  V30 11396 C 1057.27 -1.4564 0.878807 0
M  V30 11397 O 1058.46 -1.56813 1.14557 0
M  V30 11398 C 1055.59 -2.53897 2.36968 0
M  V30 11399 C 1054.54 -2.43033 3.52305 0
M  V30 11400 C 1053.87 -3.81281 3.74872 0
M  V30 11401 C 1055.17 -1.927 4.85453 0
M  V30 11402 H 1056.86 -0.84142 2.87333 0
M  V30 11403 H 1054.41 -0.403309 1.38237 0
M  V30 11404 H 1056.36 -3.26893 2.6593 0
M  V30 11405 H 1055.09 -2.91787 1.46724 0
M  V30 11406 H 1053.75 -1.7249 3.23485 0
M  V30 11407 H 1053.39 -4.1658 2.81904 0
M  V30 11408 H 1053.09 -3.74877 4.52483 0
M  V30 11409 H 1054.62 -4.55848 4.06245 0
M  V30 11410 H 1056.03 -2.55477 5.13229 0
M  V30 11411 H 1054.43 -1.97222 5.66766 0
M  V30 11412 H 1055.5 -0.881816 4.76814 0
M  V30 11413 N 1056.84 -1.516 -0.430713 0
M  V30 11414 C 1057.8 -1.72794 -1.50582 0
M  V30 11415 C 1058.8 -0.597903 -1.49271 0
M  V30 11416 O 1059.99 -0.865535 -1.51176 0
M  V30 11417 C 1057.13 -1.79049 -2.90093 0
M  V30 11418 H 1058.32 -2.68751 -1.33091 0
M  V30 11419 H 1055.87 -1.4169 -0.659822 0
M  V30 11420 H 1056.61 -0.849309 -3.12981 0
M  V30 11421 H 1056.39 -2.61181 -2.92449 0
M  V30 11422 H 1057.88 -1.97262 -3.68072 0
M  V30 11423 N 1058.32 0.686584 -1.41858 0
M  V30 11424 C 1059.57 1.44235 -1.40994 0
M  V30 11425 C 1059.88 1.95583 -0.0254979 0
M  V30 11426 O 1061.09 2.71294 0.10576 0
M  V30 11427 C 1059.54 2.6086 -2.47952 0
M  V30 11428 C 1059.15 2.16259 -3.92347 0
M  V30 11429 C 1060.9 3.38441 -2.56237 0
M  V30 11430 C 1058.8 3.29896 -4.90838 0
M  V30 11431 H 1057.73 0.54181 -0.524364 0
M  V30 11432 H 1060.38 0.744486 -1.67719 0
M  V30 11433 H 1058.77 3.32957 -2.14373 0
M  V30 11434 H 1059.94 1.51392 -4.35221 0
M  V30 11435 H 1058.25 1.51648 -3.87804 0
M  V30 11436 H 1060.85 4.23052 -3.27003 0
M  V30 11437 H 1061.19 3.84238 -1.6021 0
M  V30 11438 H 1061.73 2.73406 -2.88953 0
M  V30 11439 H 1058.47 2.89104 -5.88302 0
M  V30 11440 H 1057.99 3.93584 -4.52606 0
M  V30 11441 H 1059.67 3.95541 -5.12012 0
M  V30 11442 N 1059.8 1.27835 0.921735 0
M  V30 11443 C 1060.75 1.1092 2.04449 0
M  V30 11444 C 1061.74 0.0306469 1.69372 0
M  V30 11445 O 1062.95 0.188818 1.79007 0
M  V30 11446 H 1059.32 0.341973 0.669745 0
M  V30 11447 H 1061.29 2.06026 2.1586 0
M  V30 11448 C 1060.04 0.779443 3.38851 0
M  V30 11449 H 1059.36 1.60131 3.66331 0
M  V30 11450 H 1060.8 0.700999 4.18165 0
M  V30 11451 C 1059.26 -0.51647 3.32918 0
M  V30 11452 O 1059.79 -1.54914 3.70627 0
M  V30 11453 N 1058 -0.514276 2.86013 0
M  V30 11454 H 1057.55 0.32651 2.55522 0
M  V30 11455 H 1057.5 -1.38141 2.82426 0
M  V30 11456 N 1061.28 -1.12907 1.09954 0
M  V30 11457 C 1062.5 -1.88679 0.861099 0
M  V30 11458 C 1062.93 -1.78853 -0.582499 0
M  V30 11459 O 1062.28 -1.13992 -1.4098 0
M  V30 11460 C 1062.33 -3.36047 1.30785 0
M  V30 11461 O 1061.44 -4.09716 0.469728 0
M  V30 11462 H 1060.78 -0.586447 0.31141 0
M  V30 11463 H 1063.31 -1.42818 1.46507 0
M  V30 11464 H 1063.32 -3.86882 1.29562 0
M  V30 11465 H 1061.99 -3.42516 2.35914 0
M  V30 11466 H 1060.57 -3.6887 0.54674 0
M  V30 11467 N 1062.75 -0.88754 -1.30232 0
M  V30 11468 C 1064 -0.503322 -1.95319 0
M  V30 11469 C 1064.32 0.952817 -1.70824 0
M  V30 11470 O 1065.52 1.444 -2.29915 0
M  V30 11471 C 1063.98 -0.849216 -3.49738 0
M  V30 11472 C 1063.59 -2.3233 -3.83049 0
M  V30 11473 C 1065.33 -0.53432 -4.21124 0
M  V30 11474 C 1063.24 -2.61069 -5.30657 0
M  V30 11475 H 1062.17 -0.1845 -0.731078 0
M  V30 11476 H 1064.82 -1.08287 -1.48143 0
M  V30 11477 H 1063.2 -0.198729 -3.95501 0
M  V30 11478 H 1064.37 -3.01832 -3.48187 0
M  V30 11479 H 1062.69 -2.60599 -3.24773 0
M  V30 11480 H 1065.29 -0.726039 -5.29748 0
M  V30 11481 H 1065.63 0.526434 -4.12958 0
M  V30 11482 H 1066.16 -1.14211 -3.81052 0
M  V30 11483 H 1062.9 -3.65895 -5.43876 0
M  V30 11484 H 1062.42 -1.96179 -5.6681 0
M  V30 11485 H 1064.1 -2.46703 -5.98119 0
M  V30 11486 N 1064.23 1.43628 -0.648757 0
M  V30 11487 C 1065.48 2.01465 -0.16002 0
M  V30 11488 C 1065.8 1.51413 1.22878 0
M  V30 11489 O 1065.07 0.724919 1.81994 0
M  V30 11490 H 1063.65 0.744885 -0.0561672 0
M  V30 11491 H 1066.31 1.75897 -0.839422 0
M  V30 11492 H 1065.41 3.1178 -0.141213 0
M  V30 11493 N 1065.71 0.390394 1.52688 0
M  V30 11494 C 1066.67 -0.432149 2.25089 0
M  V30 11495 C 1067.67 -0.989296 1.26766 0
M  V30 11496 O 1068.86 -0.871126 1.50854 0
M  V30 11497 C 1066 -1.60642 3.00678 0
M  V30 11498 H 1067.19 0.201734 2.99221 0
M  V30 11499 H 1064.74 0.142531 1.55649 0
M  V30 11500 H 1065.48 -2.2777 2.3085 0
M  V30 11501 H 1065.26 -1.21361 3.72846 0
M  V30 11502 H 1066.75 -2.18873 3.55647 0
M  V30 11503 N 1067.19 -1.57141 0.120249 0
M  V30 11504 C 1068.41 -2.00017 -0.548454 0
M  V30 11505 C 1068.84 -0.999433 -1.59352 0
M  V30 11506 O 1068.2 0.0286978 -1.81277 0
M  V30 11507 C 1068.24 -3.41766 -1.15015 0
M  V30 11508 O 1067.35 -3.44589 -2.26566 0
M  V30 11509 H 1066.69 -0.649739 -0.136875 0
M  V30 11510 H 1069.22 -2.03529 0.209092 0
M  V30 11511 H 1069.23 -3.80001 -1.48537 0
M  V30 11512 H 1067.9 -4.14117 -0.384681 0
M  V30 11513 H 1066.48 -3.18174 -1.94473 0
M  V30 11514 N 1068.67 0.153526 -1.5685 0
M  V30 11515 C 1069.91 0.868517 -1.83261 0
M  V30 11516 C 1070.25 1.81112 -0.700857 0
M  V30 11517 O 1069.52 1.92235 0.295989 0
M  V30 11518 C 1069.8 1.6487 -3.2014 0
M  V30 11519 C 1069.66 0.728021 -4.43869 0
M  V30 11520 C 1070.98 2.61259 -3.54163 0
M  V30 11521 H 1068.09 0.314297 -0.666623 0
M  V30 11522 H 1070.74 0.133971 -1.89527 0
M  V30 11523 H 1068.89 2.2749 -3.1493 0
M  V30 11524 H 1070.56 0.113328 -4.61161 0
M  V30 11525 H 1068.8 0.0371744 -4.33784 0
M  V30 11526 H 1069.47 1.30981 -5.36235 0
M  V30 11527 H 1071.95 2.0876 -3.59942 0
M  V30 11528 H 1070.82 3.12902 -4.50981 0
M  V30 11529 H 1071.09 3.42307 -2.79782 0
M  V30 11530 N 1070.14 1.51827 0.422667 0
M  V30 11531 C 1071.11 1.7359 1.49663 0
M  V30 11532 C 1072.11 0.605811 1.48952 0
M  V30 11533 O 1073.3 0.87354 1.50715 0
M  V30 11534 C 1070.43 1.80585 2.8914 0
M  V30 11535 H 1071.62 2.69453 1.31664 0
M  V30 11536 H 1069.18 1.42038 0.652298 0
M  V30 11537 H 1069.91 0.865895 3.12526 0
M  V30 11538 H 1069.7 2.62729 2.9106 0
M  V30 11539 H 1071.19 1.99212 3.67021 0
M  V30 11540 N 1071.62 -0.679052 1.4222 0
M  V30 11541 C 1072.57 -1.81398 1.45594 0
M  V30 11542 C 1073.56 -1.66112 0.332127 0
M  V30 11543 O 1074.77 -1.72772 0.504942 0
M  V30 11544 H 1071.15 -0.598045 0.455902 0
M  V30 11545 H 1073.12 -1.7567 2.41211 0
M  V30 11546 C 1071.87 -3.19525 1.37109 0
M  V30 11547 H 1071.19 -3.31912 2.22878 0
M  V30 11548 H 1072.63 -3.98967 1.43531 0
M  V30 11549 C 1071.09 -3.36792 0.0853593 0
M  V30 11550 O 1071.62 -3.92309 -0.863532 0
M  V30 11551 N 1069.82 -2.906 0.00389229 0
M  V30 11552 H 1069.37 -2.45607 0.776846 0
M  V30 11553 H 1069.33 -3.0253 -0.855742 0
M  V30 11554 N 1073.1 -1.28322 -0.914942 0
M  V30 11555 C 1074.35 -1.15407 -1.66396 0
M  V30 11556 C 1074.68 0.297587 -1.9221 0
M  V30 11557 O 1073.93 1.23299 -1.51973 0
M  V30 11558 C 1074.23 -1.89663 -3.02924 0
M  V30 11559 C 1073.9 -3.39464 -2.96774 0
M  V30 11560 C 1072.56 -3.80321 -2.94804 0
M  V30 11561 C 1074.91 -4.3499 -2.87111 0
M  V30 11562 C 1072.24 -5.15046 -2.8097 0
M  V30 11563 C 1074.59 -5.69788 -2.74818 0
M  V30 11564 C 1073.25 -6.09921 -2.71205 0
M  V30 11565 H 1072.52 -0.422303 -0.608885 0
M  V30 11566 H 1075.17 -1.59082 -1.06607 0
M  V30 11567 H 1073.48 -1.38533 -3.66491 0
M  V30 11568 H 1075.17 -1.77087 -3.59779 0
M  V30 11569 H 1071.76 -3.06979 -2.99101 0
M  V30 11570 H 1075.95 -4.04389 -2.87721 0
M  V30 11571 H 1071.2 -5.45271 -2.76568 0
M  V30 11572 H 1075.38 -6.43469 -2.66309 0
M  V30 11573 H 1073 -7.14267 -2.60243 0
M  V30 11574 N 1074.58 1.12322 -1.10551 0
M  V30 11575 C 1075.53 2.20166 -0.750317 0
M  V30 11576 C 1076.52 1.67484 0.254066 0
M  V30 11577 O 1077.73 1.79637 0.114309 0
M  V30 11578 H 1074.1 0.717642 -0.22471 0
M  V30 11579 H 1076.07 2.47378 -1.66873 0
M  V30 11580 C 1074.82 3.47126 -0.199651 0
M  V30 11581 H 1074.14 3.88011 -0.963735 0
M  V30 11582 H 1075.58 4.23999 0.0108033 0
M  V30 11583 C 1074.04 3.19526 1.06792 0
M  V30 11584 O 1074.57 3.39368 2.14923 0
M  V30 11585 N 1072.78 2.73324 0.987032 0
M  V30 11586 H 1072.33 2.57378 0.106997 0
M  V30 11587 H 1072.28 2.55234 1.83584 0
M  V30 11588 N 1076.06 0.894434 1.2976 0
M  V30 11589 C 1076.99 0.3847 2.30309 0
M  V30 11590 C 1077.97 -0.537486 1.61385 0
M  V30 11591 O 1079.15 -0.449332 1.8893 0
M  V30 11592 C 1076.28 -0.393311 3.45066 0
M  V30 11593 C 1075.24 0.437968 4.25753 0
M  V30 11594 C 1074.56 -0.467221 5.32655 0
M  V30 11595 C 1075.86 1.6851 4.9437 0
M  V30 11596 H 1077.56 1.22496 2.73194 0
M  V30 11597 H 1075.1 0.590471 1.31337 0
M  V30 11598 H 1077.06 -0.760614 4.14479 0
M  V30 11599 H 1075.78 -1.2673 3.0101 0
M  V30 11600 H 1074.44 0.787533 3.58041 0
M  V30 11601 H 1074.09 -1.33919 4.84845 0
M  V30 11602 H 1073.79 0.0852482 5.87538 0
M  V30 11603 H 1075.31 -0.830833 6.04921 0
M  V30 11604 H 1076.72 1.38784 5.56248 0
M  V30 11605 H 1075.12 2.17849 5.59162 0
M  V30 11606 H 1076.19 2.42412 4.19958 0
M  V30 11607 N 1077.53 -1.43282 0.656365 0
M  V30 11608 C 1078.76 -2.06125 0.178879 0
M  V30 11609 C 1079.18 -1.49216 -1.15672 0
M  V30 11610 O 1078.53 -0.624693 -1.71475 0
M  V30 11611 C 1078.59 -3.614 0.0851785 0
M  V30 11612 O 1078.31 -4.16194 1.36798 0
M  V30 11613 C 1079.81 -4.41325 -0.41801 0
M  V30 11614 H 1077.03 -0.664753 0.0913504 0
M  V30 11615 H 1079.57 -1.83733 0.897901 0
M  V30 11616 H 1077.73 -3.82966 -0.584421 0
M  V30 11617 H 1078.14 -5.09892 1.22924 0
M  V30 11618 H 1079.61 -5.50303 -0.432519 0
M  V30 11619 H 1080.09 -4.14577 -1.44991 0
M  V30 11620 H 1080.7 -4.24735 0.219208 0
M  V30 11621 N 1079.01 -0.398486 -1.52479 0
M  V30 11622 C 1080.26 0.180752 -2.01692 0
M  V30 11623 C 1080.59 1.46044 -1.28457 0
M  V30 11624 O 1079.84 1.92051 -0.376162 0
M  V30 11625 C 1080.14 0.485909 -3.54081 0
M  V30 11626 C 1079.81 -0.703321 -4.45381 0
M  V30 11627 C 1078.47 -1.02955 -4.70057 0
M  V30 11628 C 1080.82 -1.49848 -4.99194 0
M  V30 11629 C 1078.15 -2.15231 -5.45795 0
M  V30 11630 C 1080.5 -2.61192 -5.76161 0
M  V30 11631 C 1079.17 -2.94313 -5.99113 0
M  V30 11632 H 1078.44 0.0661417 -0.738042 0
M  V30 11633 H 1081.08 -0.53772 -1.83796 0
M  V30 11634 H 1079.39 1.28582 -3.701 0
M  V30 11635 H 1081.09 0.946872 -3.89661 0
M  V30 11636 H 1077.68 -0.439062 -4.26345 0
M  V30 11637 H 1081.86 -1.25968 -4.80048 0
M  V30 11638 H 1077.12 -2.41252 -5.61789 0
M  V30 11639 H 1081.29 -3.23201 -6.16858 0
M  V30 11640 H 1078.92 -3.81431 -6.57583 0
M  V30 11641 N 1080.49 1.57075 -0.12858 0
M  V30 11642 C 1081.72 2.00305 0.537839 0
M  V30 11643 C 1082.14 1.00787 1.58819 0
M  V30 11644 O 1081.5 -0.0190839 1.8129 0
M  V30 11645 C 1081.55 3.42371 1.13201 0
M  V30 11646 O 1080.65 3.45786 2.24735 0
M  V30 11647 H 1079.99 0.650456 0.133428 0
M  V30 11648 H 1082.52 2.03415 -0.219882 0
M  V30 11649 H 1082.53 3.80783 1.4652 0
M  V30 11650 H 1081.21 4.14315 0.362713 0
M  V30 11651 H 1079.78 3.19201 1.92783 0
M  V30 11652 N 1081.97 -0.145205 1.5693 0
M  V30 11653 C 1083.22 -0.85395 1.84606 0
M  V30 11654 C 1083.57 -1.78709 0.712811 0
M  V30 11655 O 1082.86 -1.89406 -0.289108 0
M  V30 11656 C 1083.06 -1.66391 3.16305 0
M  V30 11657 C 1082.89 -0.810698 4.42332 0
M  V30 11658 C 1081.66 -0.475623 5.03057 0
M  V30 11659 C 1083.85 -0.140213 5.14109 0
M  V30 11660 N 1081.84 0.390996 6.12654 0
M  V30 11661 C 1083.21 0.586471 6.1722 0
M  V30 11662 C 1085.26 -0.0610725 4.97863 0
M  V30 11663 C 1083.97 1.38483 7.05844 0
M  V30 11664 C 1085.99 0.724026 5.86951 0
M  V30 11665 C 1085.35 1.43899 6.89545 0
M  V30 11666 H 1081.45 -0.290253 0.726138 0
M  V30 11667 H 1084.04 -0.119211 1.94335 0
M  V30 11668 H 1082.21 -2.36987 3.0772 0
M  V30 11669 H 1083.94 -2.31596 3.31882 0
M  V30 11670 H 1080.69 -0.811824 4.6659 0
M  V30 11671 H 1081.12 0.815383 6.72072 0
M  V30 11672 H 1085.76 -0.599475 4.18529 0
M  V30 11673 H 1083.48 1.93448 7.84604 0
M  V30 11674 H 1087.06 0.787276 5.76449 0
M  V30 11675 H 1085.94 2.03674 7.57289 0
M  V30 11676 N 1083.45 -1.52049 -0.414609 0
M  V30 11677 C 1084.86 -1.58062 -0.993638 0
M  V30 11678 C 1085.21 -0.417795 -1.917 0
M  V30 11679 O 1084.33 0.462558 -2.11399 0
M  V30 11680 C 1084.93 -2.86471 -1.80886 0
M  V30 11681 C 1083.49 -2.94981 -2.33801 0
M  V30 11682 C 1082.64 -2.52949 -1.13631 0
M  V30 11683 H 1085.59 -1.57497 -0.19504 0
M  V30 11684 H 1085.61 -2.71515 -2.66571 0
M  V30 11685 H 1085.12 -3.71085 -1.13657 0
M  V30 11686 H 1083.22 -2.14849 -3.04419 0
M  V30 11687 H 1083.33 -3.99111 -2.65042 0
M  V30 11688 H 1081.7 -2.0667 -1.48861 0
M  V30 11689 H 1082.48 -3.39931 -0.479765 0
M  V30 11690 N 1084.93 0.6715 -1.42579 0
M  V30 11691 C 1085.86 1.79625 -1.40749 0
M  V30 11692 C 1086.84 1.6032 -0.271312 0
M  V30 11693 O 1088.02 1.82749 -0.46205 0
M  V30 11694 C 1085.15 3.16672 -1.20153 0
M  V30 11695 C 1084.19 3.54718 -2.36807 0
M  V30 11696 S 1085.03 3.56771 -3.99343 0
M  V30 11697 C 1086.18 4.96505 -3.81095 0
M  V30 11698 H 1086.42 1.80903 -2.35926 0
M  V30 11699 H 1083.95 0.842469 -1.2939 0
M  V30 11700 H 1085.91 3.95776 -1.08956 0
M  V30 11701 H 1084.57 3.12976 -0.265545 0
M  V30 11702 H 1083.76 4.54341 -2.18152 0
M  V30 11703 H 1083.36 2.82982 -2.44535 0
M  V30 11704 H 1085.65 5.84674 -3.4229 0
M  V30 11705 H 1086.6 5.20207 -4.80406 0
M  V30 11706 H 1087.01 4.69178 -3.13898 0
M  V30 11707 N 1086.4 1.28806 0.908124 0
M  V30 11708 C 1087.63 1.19271 1.69674 0
M  V30 11709 C 1088.05 -0.244403 1.86505 0
M  V30 11710 O 1087.41 -1.17668 1.37927 0
M  V30 11711 C 1087.46 1.9023 3.06341 0
M  V30 11712 O 1086.56 1.2136 3.94139 0
M  V30 11713 H 1085.9 0.413738 0.519343 0
M  V30 11714 H 1088.43 1.70227 1.13508 0
M  V30 11715 H 1088.44 1.98356 3.56537 0
M  V30 11716 H 1087.12 2.94762 2.93408 0
M  V30 11717 H 1085.7 1.21435 3.52573 0
M  V30 11718 N 1087.88 -1.11734 1.11145 0
M  V30 11719 C 1088.83 -2.17683 0.766979 0
M  V30 11720 C 1089.8 -1.64051 -0.260108 0
M  V30 11721 O 1090.98 -1.90302 -0.137723 0
M  V30 11722 C 1088.12 -3.44442 0.212982 0
M  V30 11723 C 1087.24 -4.12094 1.29626 0
M  V30 11724 C 1086.37 -5.26526 0.703127 0
M  V30 11725 C 1085.41 -5.86057 1.76647 0
M  V30 11726 N 1084.55 -6.91889 1.19306 0
M  V30 11727 H 1089.39 -2.46495 1.67465 0
M  V30 11728 H 1086.92 -1.21011 0.836353 0
M  V30 11729 H 1088.88 -4.17009 -0.126162 0
M  V30 11730 H 1087.51 -3.16025 -0.657888 0
M  V30 11731 H 1086.56 -3.37631 1.75241 0
M  V30 11732 H 1087.88 -4.52398 2.10089 0
M  V30 11733 H 1087.03 -6.05888 0.313859 0
M  V30 11734 H 1085.77 -4.87519 -0.132856 0
M  V30 11735 H 1084.77 -5.05375 2.16508 0
M  V30 11736 H 1086 -6.27132 2.60543 0
M  V30 11737 H 1083.95 -6.54906 0.378664 0
M  V30 11738 H 1083.86 -7.30832 1.93443 0
M  V30 11739 H 1085.13 -7.75062 0.830578 0
M  V30 11740 N 1089.36 -0.901303 -1.29284 0
M  V30 11741 C 1090.61 -0.528826 -1.95784 0
M  V30 11742 C 1090.94 0.922833 -1.70873 0
M  V30 11743 O 1090.21 1.65448 -1.0226 0
M  V30 11744 C 1090.5 -0.823793 -3.50551 0
M  V30 11745 C 1090.35 -2.32727 -3.84913 0
M  V30 11746 C 1091.67 -0.311382 -4.38997 0
M  V30 11747 H 1088.79 -0.193604 -0.711116 0
M  V30 11748 H 1091.43 -1.12828 -1.52872 0
M  V30 11749 H 1089.58 -0.313612 -3.87232 0
M  V30 11750 H 1091.25 -2.90712 -3.58168 0
M  V30 11751 H 1089.49 -2.78735 -3.32399 0
M  V30 11752 H 1090.17 -2.48423 -4.9294 0
M  V30 11753 H 1092.64 -0.748265 -4.09317 0
M  V30 11754 H 1091.52 -0.546957 -5.46168 0
M  V30 11755 H 1091.78 0.787959 -4.35021 0
M  V30 11756 N 1090.84 1.42931 -0.663954 0
M  V30 11757 C 1091.79 2.32577 0.03287 0
M  V30 11758 C 1092.78 1.49217 0.801918 0
M  V30 11759 O 1093.99 1.65358 0.711106 0
M  V30 11760 H 1090.36 0.751424 0.0294198 0
M  V30 11761 H 1092.33 2.89059 -0.740763 0
M  V30 11762 C 1091.08 3.33661 0.978025 0
M  V30 11763 H 1090.4 3.97837 0.395681 0
M  V30 11764 H 1091.84 3.98997 1.43448 0
M  V30 11765 C 1090.3 2.65085 2.07922 0
M  V30 11766 O 1090.83 2.4745 3.16435 0
M  V30 11767 N 1089.04 2.24285 1.84783 0
M  V30 11768 H 1088.59 2.38827 0.965368 0
M  V30 11769 H 1088.54 1.78732 2.58655 0
M  V30 11770 N 1092.32 0.406567 1.52266 0
M  V30 11771 C 1093.56 -0.171391 2.00971 0
M  V30 11772 C 1093.88 -1.46443 1.29668 0
M  V30 11773 O 1095.08 -2.12348 1.69176 0
M  V30 11774 C 1093.54 -0.35599 3.58135 0
M  V30 11775 C 1093.15 0.924803 4.38351 0
M  V30 11776 C 1094.89 -0.889378 4.15079 0
M  V30 11777 C 1092.8 0.707534 5.87152 0
M  V30 11778 H 1091.73 -0.0678253 0.750943 0
M  V30 11779 H 1094.38 0.531619 1.7563 0
M  V30 11780 H 1092.76 -1.12127 3.79794 0
M  V30 11781 H 1093.94 1.69603 4.28452 0
M  V30 11782 H 1092.25 1.38442 3.92712 0
M  V30 11783 H 1094.85 -1.06792 5.23927 0
M  V30 11784 H 1095.19 -1.86334 3.7227 0
M  V30 11785 H 1095.72 -0.183224 3.97378 0
M  V30 11786 H 1092.46 1.65299 6.34316 0
M  V30 11787 H 1091.98 -0.024446 5.99795 0
M  V30 11788 H 1093.66 0.348721 6.4606 0
M  V30 11789 N 1093.79 -1.57004 0.136909 0
M  V30 11790 C 1095.04 -1.96087 -0.517477 0
M  V30 11791 C 1095.37 -1.0213 -1.65176 0
M  V30 11792 O 1094.65 -0.0617958 -1.94402 0
M  V30 11793 C 1094.93 -3.44958 -1.03323 0
M  V30 11794 C 1094.78 -4.49691 0.0988609 0
M  V30 11795 C 1096.1 -3.96091 -1.91832 0
M  V30 11796 H 1093.22 -0.712978 -0.186632 0
M  V30 11797 H 1095.86 -1.88767 0.216095 0
M  V30 11798 H 1094.01 -3.51327 -1.65836 0
M  V30 11799 H 1095.69 -4.55409 0.734847 0
M  V30 11800 H 1093.93 -4.271 0.75947 0
M  V30 11801 H 1094.6 -5.51165 -0.303554 0
M  V30 11802 H 1097.08 -3.92139 -1.39164 0
M  V30 11803 H 1095.95 -5.00742 -2.24831 0
M  V30 11804 H 1096.21 -3.37846 -2.85153 0
M  V30 11805 N 1095.27 0.136881 -1.57004 0
M  V30 11806 C 1096.2 1.19402 -1.95642 0
M  V30 11807 C 1097.22 1.38635 -0.853478 0
M  V30 11808 O 1098.41 1.38027 -1.13185 0
M  V30 11809 C 1095.51 2.55716 -2.22402 0
M  V30 11810 C 1094.68 2.57325 -3.53698 0
M  V30 11811 C 1093.74 3.75253 -3.68879 0
M  V30 11812 O 1092.76 3.5966 -4.41173 0
M  V30 11813 N 1093.97 4.93112 -3.06302 0
M  V30 11814 H 1096.73 0.865504 -2.8693 0
M  V30 11815 H 1094.29 0.326346 -1.58577 0
M  V30 11816 H 1096.28 3.33135 -2.29789 0
M  V30 11817 H 1094.85 2.80819 -1.37329 0
M  V30 11818 H 1094.07 1.65749 -3.5766 0
M  V30 11819 H 1095.36 2.55441 -4.40031 0
M  V30 11820 H 1094.76 5.08684 -2.47502 0
M  V30 11821 H 1093.32 5.68271 -3.19236 0
M  V30 11822 N 1096.75 1.52266 0.40654 0
M  V30 11823 C 1097.98 1.70598 1.17945 0
M  V30 11824 C 1098.4 0.415793 1.83447 0
M  V30 11825 O 1097.76 -0.626968 1.70114 0
M  V30 11826 C 1097.81 2.84449 2.21633 0
M  V30 11827 O 1096.91 2.50199 3.27833 0
M  V30 11828 H 1096.25 0.567837 0.344177 0
M  V30 11829 H 1098.78 1.98981 0.476211 0
M  V30 11830 H 1098.79 3.09436 2.65919 0
M  V30 11831 H 1097.47 3.78055 1.73341 0
M  V30 11832 H 1096.04 2.35892 2.88807 0
M  V30 11833 N 1098.23 -0.663929 1.42933 0
M  V30 11834 C 1099.16 -1.78899 1.50058 0
M  V30 11835 C 1100.14 -1.66329 0.356164 0
M  V30 11836 O 1101.32 -1.85587 0.571944 0
M  V30 11837 C 1098.45 -3.17265 1.41281 0
M  V30 11838 C 1097.41 -3.44584 2.53861 0
M  V30 11839 C 1096.73 -4.82638 2.3014 0
M  V30 11840 C 1098.03 -3.40394 3.96143 0
M  V30 11841 H 1099.73 -1.73194 2.44222 0
M  V30 11842 H 1097.27 -0.83182 1.17545 0
M  V30 11843 H 1099.23 -3.95715 1.44872 0
M  V30 11844 H 1097.95 -3.23675 0.43616 0
M  V30 11845 H 1096.61 -2.685 2.49606 0
M  V30 11846 H 1096.26 -4.85711 1.30743 0
M  V30 11847 H 1095.96 -5.01879 3.056 0
M  V30 11848 H 1097.48 -5.63359 2.35497 0
M  V30 11849 H 1098.9 -4.08796 4.01943 0
M  V30 11850 H 1097.29 -3.7117 4.71543 0
M  V30 11851 H 1098.36 -2.38767 4.22041 0
M  V30 11852 N 1099.71 -1.29285 -0.901281 0
M  V30 11853 C 1100.93 -1.20169 -1.69039 0
M  V30 11854 C 1101.36 0.234509 -1.86632 0
M  V30 11855 O 1100.71 1.16935 -1.38549 0
M  V30 11856 C 1100.76 -1.91852 -3.05328 0
M  V30 11857 O 1099.87 -1.23448 -3.9349 0
M  V30 11858 H 1099.21 -0.416486 -0.517141 0
M  V30 11859 H 1101.74 -1.70826 -1.12603 0
M  V30 11860 H 1101.75 -2.00244 -3.5548 0
M  V30 11861 H 1100.42 -2.96313 -2.91841 0
M  V30 11862 H 1099 -1.23303 -3.51924 0
M  V30 11863 N 1101.18 1.11143 -1.11736 0
M  V30 11864 C 1102.15 2.15456 -0.78174 0
M  V30 11865 C 1103.15 1.59547 0.200383 0
M  V30 11866 O 1104.34 1.74183 -0.0244893 0
M  V30 11867 C 1101.47 3.40523 -0.160364 0
M  V30 11868 H 1102.66 2.46658 -1.70586 0
M  V30 11869 H 1100.22 1.26381 -0.919644 0
M  V30 11870 H 1100.95 3.14932 0.773835 0
M  V30 11871 H 1100.74 3.82386 -0.867378 0
M  V30 11872 H 1102.23 4.17559 0.0582175 0
M  V30 11873 N 1102.66 0.908147 1.28804 0
M  V30 11874 C 1103.89 0.553287 1.99054 0
M  V30 11875 C 1104.3 -0.868455 1.68091 0
M  V30 11876 O 1103.64 -1.58599 0.926939 0
M  V30 11877 C 1103.71 0.675823 3.5309 0
M  V30 11878 C 1103.37 2.06608 4.0763 0
M  V30 11879 C 1104.37 3.03819 4.21889 0
M  V30 11880 C 1102.05 2.37775 4.42457 0
M  V30 11881 C 1104.05 4.30316 4.7022 0
M  V30 11882 C 1101.73 3.64512 4.90484 0
M  V30 11883 C 1102.73 4.60597 5.04321 0
M  V30 11884 O 1102.42 5.85082 5.51302 0
M  V30 11885 H 1102.15 0.210152 0.642504 0
M  V30 11886 H 1104.7 1.22188 1.65104 0
M  V30 11887 H 1102.93 -0.0498253 3.86668 0
M  V30 11888 H 1104.62 0.328884 4.04565 0
M  V30 11889 H 1105.39 2.81057 3.95262 0
M  V30 11890 H 1101.27 1.63742 4.3094 0
M  V30 11891 H 1104.81 5.05318 4.80936 0
M  V30 11892 H 1100.71 3.87101 5.1655 0
M  V30 11893 H 1101.48 5.87791 5.69599 0
M  V30 11894 N 1104.14 -1.42577 0.671525 0
M  V30 11895 C 1105.55 -1.84736 0.270084 0
M  V30 11896 C 1105.9 -1.56212 -1.18711 0
M  V30 11897 O 1105.03 -1.02028 -1.90838 0
M  V30 11898 C 1105.62 -3.35334 0.483409 0
M  V30 11899 C 1104.18 -3.76154 0.136119 0
M  V30 11900 C 1103.33 -2.66179 0.777444 0
M  V30 11901 H 1106.28 -1.3247 0.873919 0
M  V30 11902 H 1106.3 -3.79573 -0.265483 0
M  V30 11903 H 1105.81 -3.56063 1.54405 0
M  V30 11904 H 1103.91 -3.61033 -0.921209 0
M  V30 11905 H 1104.03 -4.75645 0.574356 0
M  V30 11906 H 1102.39 -2.53841 0.209055 0
M  V30 11907 H 1103.17 -2.89732 1.84148 0
M  V30 11908 N 1105.62 -0.414636 -1.52048 0
M  V30 11909 C 1106.55 0.399119 -2.30064 0
M  V30 11910 C 1107.53 1.04126 -1.34506 0
M  V30 11911 O 1108.71 1.04923 -1.63416 0
M  V30 11912 C 1105.84 1.51305 -3.12608 0
M  V30 11913 C 1104.8 0.995621 -4.16259 0
M  V30 11914 C 1104.12 2.20357 -4.87183 0
M  V30 11915 C 1105.42 0.0458178 -5.2228 0
M  V30 11916 H 1107.12 -0.251879 -2.98339 0
M  V30 11917 H 1104.66 -0.122579 -1.43477 0
M  V30 11918 H 1106.62 2.08936 -3.65956 0
M  V30 11919 H 1105.34 2.19201 -2.42113 0
M  V30 11920 H 1104 0.441676 -3.6393 0
M  V30 11921 H 1103.65 2.8682 -4.13211 0
M  V30 11922 H 1103.35 1.86385 -5.57256 0
M  V30 11923 H 1104.87 2.78584 -5.43345 0
M  V30 11924 H 1106.29 0.531102 -5.70835 0
M  V30 11925 H 1104.68 -0.20536 -5.99749 0
M  V30 11926 H 1105.75 -0.897807 -4.76516 0
M  V30 11927 N 1107.1 1.56929 -0.145233 0
M  V30 11928 C 1108.04 2.17958 0.812237 0
M  V30 11929 C 1109.04 1.13608 1.25657 0
M  V30 11930 O 1110.24 1.31861 1.22526 0
M  V30 11931 H 1106.62 0.697876 0.28013 0
M  V30 11932 H 1108.59 2.97146 0.273297 0
M  V30 11933 C 1107.34 2.81418 2.04203 0
M  V30 11934 H 1106.66 3.61427 1.70911 0
M  V30 11935 H 1108.1 3.27624 2.69144 0
M  V30 11936 C 1106.56 1.79835 2.84888 0
M  V30 11937 O 1107.09 1.26773 3.81171 0
M  V30 11938 N 1105.3 1.49179 2.49387 0
M  V30 11939 H 1104.84 1.9252 1.71154 0
M  V30 11940 H 1104.8 0.81458 3.03664 0
M  V30 11941 N 1108.58 -0.128553 1.57075 0
M  V30 11942 C 1109.8 -0.8564 1.88893 0
M  V30 11943 C 1110.23 -1.73095 0.736196 0
M  V30 11944 O 1109.58 -1.78567 -0.313629 0
M  V30 11945 C 1109.63 -1.67368 3.19406 0
M  V30 11946 O 1108.74 -2.77973 3.04639 0
M  V30 11947 H 1108.08 -0.237424 0.620102 0
M  V30 11948 H 1110.61 -0.113821 2.04283 0
M  V30 11949 H 1110.62 -2.0649 3.51889 0
M  V30 11950 H 1109.29 -1.03161 4.02903 0
M  V30 11951 H 1107.87 -2.42123 2.83603 0
M  V30 11952 N 1110.05 -1.5248 -0.398459 0
M  V30 11953 C 1111.28 -1.71221 -1.17039 0
M  V30 11954 C 1111.7 -0.425515 -1.83224 0
M  V30 11955 O 1111.06 0.617938 -1.70444 0
M  V30 11956 C 1111.11 -2.8562 -2.20121 0
M  V30 11957 O 1110.21 -2.51934 -3.26501 0
M  V30 11958 H 1109.55 -0.569654 -0.34116 0
M  V30 11959 H 1112.08 -1.99231 -0.465652 0
M  V30 11960 H 1112.09 -3.10842 -2.64275 0
M  V30 11961 H 1110.77 -3.78969 -1.71334 0
M  V30 11962 H 1109.35 -2.3742 -2.87552 0
M  V30 11963 N 1111.53 0.65634 -1.43283 0
M  V30 11964 C 1112.77 1.4281 -1.46235 0
M  V30 11965 C 1113.14 1.9182 -0.0830126 0
M  V30 11966 O 1114.34 2.68797 0.0127701 0
M  V30 11967 C 1112.61 2.58008 -2.47319 0
M  V30 11968 S 1114.17 3.46582 -2.69122 0
M  V30 11969 H 1110.98 0.487523 -0.517534 0
M  V30 11970 H 1113.59 0.762298 -1.80026 0
M  V30 11971 H 1112.29 2.20271 -3.46279 0
M  V30 11972 H 1111.82 3.29441 -2.15016 0
M  V30 11973 H 1113.84 4.54629 -1.98813 0
M  V30 11974 N 1113.01 1.29761 0.894412 0
M  V30 11975 C 1114.26 1.18214 1.64782 0
M  V30 11976 C 1114.59 -0.264635 1.92388 0
M  V30 11977 O 1113.86 -1.19051 1.53809 0
M  V30 11978 C 1114.15 2.00138 2.99361 0
M  V30 11979 C 1114 3.52984 2.78787 0
M  V30 11980 C 1115.32 1.83187 4.00163 0
M  V30 11981 H 1112.44 0.430802 0.597979 0
M  V30 11982 H 1115.08 1.59292 1.03566 0
M  V30 11983 H 1113.23 1.65233 3.51611 0
M  V30 11984 H 1114.9 3.97898 2.33398 0
M  V30 11985 H 1113.14 3.77642 2.13469 0
M  V30 11986 H 1113.82 4.05585 3.7444 0
M  V30 11987 H 1116.29 2.13684 3.57041 0
M  V30 11988 H 1115.17 2.42849 4.92255 0
M  V30 11989 H 1115.43 0.788469 4.35012 0
M  V30 11990 N 1114.49 -1.10549 1.12324 0
M  V30 11991 C 1115.74 -1.81851 0.872531 0
M  V30 11992 C 1116.05 -1.86058 -0.603468 0
M  V30 11993 O 1117.26 -2.53553 -0.970736 0
M  V30 11994 C 1115.71 -3.26631 1.51131 0
M  V30 11995 C 1115.32 -3.30725 3.02201 0
M  V30 11996 C 1117.06 -4.02768 1.34082 0
M  V30 11997 C 1114.97 -4.69957 3.59018 0
M  V30 11998 H 1113.9 -0.681422 0.322769 0
M  V30 11999 H 1116.55 -1.24332 1.34959 0
M  V30 12000 H 1114.93 -3.8414 0.961913 0
M  V30 12001 H 1116.11 -2.83046 3.63623 0
M  V30 12002 H 1114.42 -2.68072 3.18632 0
M  V30 12003 H 1117.02 -5.05612 1.73955 0
M  V30 12004 H 1117.36 -4.15328 0.284369 0
M  V30 12005 H 1117.9 -3.51671 1.85937 0
M  V30 12006 H 1114.63 -4.62597 4.64418 0
M  V30 12007 H 1114.15 -5.18008 3.02371 0
M  V30 12008 H 1115.83 -5.38925 3.58007 0
M  V30 12009 N 1115.97 -0.914965 -1.28321 0
M  V30 12010 C 1117.21 -0.549562 -1.95212 0
M  V30 12011 C 1117.54 0.904658 -1.71842 0
M  V30 12012 O 1116.82 1.64354 -1.04009 0
M  V30 12013 C 1117.1 -0.860927 -3.49657 0
M  V30 12014 C 1116.96 -2.36797 -3.82423 0
M  V30 12015 C 1118.27 -0.357926 -4.38642 0
M  V30 12016 H 1115.39 -0.201136 -0.709023 0
M  V30 12017 H 1118.04 -1.14443 -1.51667 0
M  V30 12018 H 1116.19 -0.354665 -3.86878 0
M  V30 12019 H 1117.86 -2.94494 -3.55065 0
M  V30 12020 H 1116.1 -2.82245 -3.29424 0
M  V30 12021 H 1116.77 -2.53637 -4.90278 0
M  V30 12022 H 1119.25 -0.791636 -4.085 0
M  V30 12023 H 1118.12 -0.604855 -5.45557 0
M  V30 12024 H 1118.38 0.741775 -4.35833 0
M  V30 12025 N 1117.44 1.42219 -0.679077 0
M  V30 12026 C 1118.67 2.06333 -0.210097 0
M  V30 12027 C 1119.09 1.50703 1.12562 0
M  V30 12028 O 1118.45 0.627241 1.70104 0
M  V30 12029 C 1118.5 3.60243 -0.160322 0
M  V30 12030 O 1117.6 4.03122 0.869872 0
M  V30 12031 H 1116.94 0.655362 -0.106754 0
M  V30 12032 H 1119.47 1.82278 -0.929294 0
M  V30 12033 H 1119.48 4.07997 0.014384 0
M  V30 12034 H 1118.16 4.00106 -1.13526 0
M  V30 12035 H 1116.74 3.66907 0.66586 0
M  V30 12036 N 1118.92 0.422693 1.51826 0
M  V30 12037 C 1120.17 -0.141187 2.02909 0
M  V30 12038 C 1120.52 -1.41649 1.30205 0
M  V30 12039 O 1119.82 -1.87297 0.403769 0
M  V30 12040 C 1120.01 -0.429516 3.5481 0
M  V30 12041 C 1119.84 0.816291 4.42229 0
M  V30 12042 C 1118.61 1.34551 4.87057 0
M  V30 12043 C 1120.81 1.69829 4.85451 0
M  V30 12044 N 1118.79 2.54538 5.58644 0
M  V30 12045 C 1120.16 2.74431 5.55956 0
M  V30 12046 C 1122.21 1.71445 4.67452 0
M  V30 12047 C 1120.92 3.80576 6.10372 0
M  V30 12048 C 1122.94 2.76516 5.22774 0
M  V30 12049 C 1122.31 3.79839 5.93213 0
M  V30 12050 H 1118.4 -0.0128783 0.781894 0
M  V30 12051 H 1120.99 0.580083 1.85858 0
M  V30 12052 H 1119.16 -1.11982 3.71907 0
M  V30 12053 H 1120.89 -0.983467 3.92568 0
M  V30 12054 H 1117.65 0.901554 4.6494 0
M  V30 12055 H 1118.07 3.15342 5.99073 0
M  V30 12056 H 1122.71 0.92899 4.12468 0
M  V30 12057 H 1120.43 4.59969 6.6442 0
M  V30 12058 H 1124.02 2.7869 5.10708 0
M  V30 12059 H 1122.9 4.59806 6.35254 0
M  V30 12060 N 1120.4 -1.5685 0.153553 0
M  V30 12061 C 1121.65 -1.95509 -0.495911 0
M  V30 12062 C 1121.96 -1.04129 -1.65579 0
M  V30 12063 O 1123.17 -1.32394 -2.37032 0
M  V30 12064 C 1121.62 -3.47579 -0.933622 0
M  V30 12065 C 1121.23 -4.47555 0.199684 0
M  V30 12066 C 1122.98 -3.95092 -1.55251 0
M  V30 12067 C 1120.88 -5.90843 -0.256663 0
M  V30 12068 H 1119.81 -0.729919 -0.189035 0
M  V30 12069 H 1122.46 -1.81938 0.238947 0
M  V30 12070 H 1120.85 -3.56506 -1.72394 0
M  V30 12071 H 1122.02 -4.50329 0.976744 0
M  V30 12072 H 1120.33 -4.09997 0.727394 0
M  V30 12073 H 1122.93 -4.99588 -1.90567 0
M  V30 12074 H 1123.27 -3.37015 -2.4439 0
M  V30 12075 H 1123.81 -3.89109 -0.826969 0
M  V30 12076 H 1120.55 -6.52753 0.599515 0
M  V30 12077 H 1120.07 -5.91414 -0.999458 0
M  V30 12078 H 1121.75 -6.43131 -0.70649 0
M  V30 12079 N 1121.88 0.120221 -1.57141 0
M  V30 12080 C 1122.81 1.14876 -2.03287 0
M  V30 12081 C 1123.79 1.43259 -0.917112 0
M  V30 12082 O 1124.97 1.53721 -1.18674 0
M  V30 12083 C 1122.1 2.47525 -2.43616 0
M  V30 12084 C 1121.06 2.33607 -3.58625 0
M  V30 12085 C 1120.38 3.71207 -3.84849 0
M  V30 12086 C 1121.68 1.79761 -4.90391 0
M  V30 12087 H 1123.38 0.764943 -2.89463 0
M  V30 12088 H 1120.92 0.366516 -1.39258 0
M  V30 12089 H 1122.88 3.19728 -2.74504 0
M  V30 12090 H 1121.6 2.87794 -1.54409 0
M  V30 12091 H 1120.26 1.63853 -3.27945 0
M  V30 12092 H 1119.91 4.0896 -2.9285 0
M  V30 12093 H 1119.61 3.62749 -4.62263 0
M  V30 12094 H 1121.13 4.44917 -4.18188 0
M  V30 12095 H 1122.55 2.4178 -5.19822 0
M  V30 12096 H 1120.94 1.82126 -5.71795 0
M  V30 12097 H 1122.01 0.755087 -4.78985 0
M  V30 12098 N 1123.36 1.52689 0.390367 0
M  V30 12099 C 1124.58 1.71839 1.16129 0
M  V30 12100 C 1125.01 0.435226 1.82996 0
M  V30 12101 O 1124.36 -0.60889 1.70769 0
M  V30 12102 C 1124.41 2.86784 2.18603 0
M  V30 12103 O 1123.52 2.53662 3.25161 0
M  V30 12104 H 1122.86 0.571455 0.338135 0
M  V30 12105 H 1125.39 1.99475 0.45508 0
M  V30 12106 H 1125.4 3.12239 2.62622 0
M  V30 12107 H 1124.07 3.79872 1.69322 0
M  V30 12108 H 1122.65 2.38942 2.86289 0
M  V30 12109 N 1124.83 -0.648732 1.43629 0
M  V30 12110 C 1126.25 -1.23001 1.40455 0
M  V30 12111 C 1126.6 -1.95886 0.110897 0
M  V30 12112 O 1125.72 -2.01485 -0.789487 0
M  V30 12113 C 1126.32 -2.23716 2.54434 0
M  V30 12114 C 1124.88 -2.77311 2.54511 0
M  V30 12115 C 1124.02 -1.52024 2.31914 0
M  V30 12116 H 1126.97 -0.440473 1.52465 0
M  V30 12117 H 1126.99 -3.05979 2.26179 0
M  V30 12118 H 1126.51 -1.7064 3.48574 0
M  V30 12119 H 1124.61 -3.34437 1.64263 0
M  V30 12120 H 1124.72 -3.2455 3.52426 0
M  V30 12121 H 1123.08 -1.79531 1.80667 0
M  V30 12122 H 1123.87 -1.00876 3.28145 0
M  V30 12123 N 1126.31 -1.30234 -0.887518 0
M  V30 12124 C 1127.54 -1.21955 -1.67755 0
M  V30 12125 C 1127.96 0.214701 -1.86871 0
M  V30 12126 O 1127.32 1.15459 -1.39782 0
M  V30 12127 C 1127.37 -1.95079 -3.03276 0
M  V30 12128 O 1126.47 -1.27615 -3.92158 0
M  V30 12129 H 1125.81 -0.421948 -0.512695 0
M  V30 12130 H 1128.34 -1.72011 -1.10785 0
M  V30 12131 H 1128.35 -2.04004 -3.53336 0
M  V30 12132 H 1127.03 -2.99392 -2.88682 0
M  V30 12133 H 1125.61 -1.27029 -3.50597 0
M  V30 12134 N 1127.79 1.09952 -1.12909 0
M  V30 12135 C 1129.07 1.78547 -0.798767 0
M  V30 12136 C 1129.45 1.9878 0.710624 0
M  V30 12137 O 1128.8 1.58485 1.64604 0
M  V30 12138 C 1129.01 3.1121 -1.57953 0
M  V30 12139 C 1130.35 3.86006 -1.76874 0
M  V30 12140 O 1131.38 3.20946 -1.54506 0
M  V30 12141 O 1130.24 5.02791 -2.14158 0
M  V30 12142 H 1127.33 0.774084 -0.291072 0
M  V30 12143 H 1129.88 1.16557 -1.2334 0
M  V30 12144 H 1128.65 2.91935 -2.60557 0
M  V30 12145 H 1128.27 3.80922 -1.13948 0
M  V30 12146 N 1129.27 0.921757 1.27833 0
M  V30 12147 C 1130.5 0.574368 1.98455 0
M  V30 12148 C 1130.91 -0.850577 1.69002 0
M  V30 12149 O 1130.25 -1.57607 0.943708 0
M  V30 12150 C 1130.31 0.713235 3.52354 0
M  V30 12151 C 1129.98 2.1092 4.05415 0
M  V30 12152 C 1130.97 3.08276 4.18643 0
M  V30 12153 C 1128.66 2.42454 4.3991 0
M  V30 12154 C 1130.65 4.35279 4.6563 0
M  V30 12155 C 1128.34 3.69694 4.8659 0
M  V30 12156 C 1129.34 4.6592 4.99407 0
M  V30 12157 O 1129.02 5.90896 5.45066 0
M  V30 12158 H 1128.76 0.216955 0.640239 0
M  V30 12159 H 1131.31 1.23932 1.63798 0
M  V30 12160 H 1129.54 -0.00881115 3.86699 0
M  V30 12161 H 1131.23 0.371776 4.04194 0
M  V30 12162 H 1132 2.85234 3.92258 0
M  V30 12163 H 1127.87 1.68303 4.2918 0
M  V30 12164 H 1131.42 5.10391 4.75549 0
M  V30 12165 H 1127.32 3.92557 5.12415 0
M  V30 12166 H 1128.08 5.938 5.63333 0
M  V30 12167 N 1130.75 -1.41857 0.686609 0
M  V30 12168 C 1131.69 -2.30795 0.015643 0
M  V30 12169 C 1132.66 -1.46616 -0.780569 0
M  V30 12170 O 1133.85 -1.75423 -0.750424 0
M  V30 12171 C 1130.99 -3.32577 -0.921229 0
M  V30 12172 C 1130.1 -4.3184 -0.117585 0
M  V30 12173 C 1129.24 -5.20693 -1.05128 0
M  V30 12174 C 1128.28 -6.11629 -0.240018 0
M  V30 12175 N 1127.41 -6.92995 -1.12704 0
M  V30 12176 H 1132.25 -2.87615 0.77985 0
M  V30 12177 H 1129.79 -1.41661 0.396298 0
M  V30 12178 H 1131.75 -3.90129 -1.47836 0
M  V30 12179 H 1130.38 -2.77328 -1.65193 0
M  V30 12180 H 1129.43 -3.7631 0.55634 0
M  V30 12181 H 1130.74 -4.96168 0.511753 0
M  V30 12182 H 1129.9 -5.83035 -1.67795 0
M  V30 12183 H 1128.63 -4.5657 -1.71449 0
M  V30 12184 H 1127.64 -5.48345 0.399779 0
M  V30 12185 H 1128.86 -6.77805 0.419266 0
M  V30 12186 H 1126.81 -6.31489 -1.77644 0
M  V30 12187 H 1126.73 -7.53974 -0.553065 0
M  V30 12188 H 1128 -7.59813 -1.7408 0
M  V30 12189 N 1132.22 -0.430739 -1.51599 0
M  V30 12190 C 1133.15 0.374695 -2.30474 0
M  V30 12191 C 1134.14 1.02694 -1.35602 0
M  V30 12192 O 1135.32 1.03184 -1.6452 0
M  V30 12193 C 1132.45 1.47981 -3.14196 0
M  V30 12194 C 1131.4 0.951415 -4.17291 0
M  V30 12195 C 1130.73 2.15177 -4.89492 0
M  V30 12196 C 1132.03 -0.00957951 -5.22299 0
M  V30 12197 H 1133.72 -0.283508 -2.98055 0
M  V30 12198 H 1131.27 -0.13779 -1.43339 0
M  V30 12199 H 1133.22 2.05043 -3.68151 0
M  V30 12200 H 1131.95 2.16621 -2.44424 0
M  V30 12201 H 1130.61 0.403052 -3.64378 0
M  V30 12202 H 1130.25 2.82421 -4.1623 0
M  V30 12203 H 1129.95 1.80464 -5.59202 0
M  V30 12204 H 1131.48 2.72806 -5.46269 0
M  V30 12205 H 1132.89 0.470527 -5.71366 0
M  V30 12206 H 1131.29 -0.268959 -5.99497 0
M  V30 12207 H 1132.36 -0.948297 -4.75537 0
M  V30 12208 N 1133.7 1.56767 -0.161869 0
M  V30 12209 C 1134.64 2.13321 0.810527 0
M  V30 12210 C 1135.61 1.06073 1.23237 0
M  V30 12211 O 1136.8 1.33993 1.32583 0
M  V30 12212 C 1133.92 2.66506 2.09027 0
M  V30 12213 C 1132.97 3.86038 1.8132 0
M  V30 12214 S 1133.8 5.26253 0.990873 0
M  V30 12215 C 1134.96 5.82837 2.28149 0
M  V30 12216 H 1135.19 2.95467 0.32965 0
M  V30 12217 H 1132.73 1.5431 0.052655 0
M  V30 12218 H 1134.68 2.97797 2.82537 0
M  V30 12219 H 1133.34 1.84463 2.54229 0
M  V30 12220 H 1132.54 4.21547 2.7625 0
M  V30 12221 H 1132.14 3.55585 1.1591 0
M  V30 12222 H 1134.43 5.95175 3.23686 0
M  V30 12223 H 1135.37 6.80109 1.97123 0
M  V30 12224 H 1135.78 5.11186 2.39477 0
M  V30 12225 N 1135.18 -0.111886 1.57202 0
M  V30 12226 C 1136.41 -0.8312 1.89142 0
M  V30 12227 C 1136.82 -1.73614 0.751987 0
M  V30 12228 O 1136.16 -1.81462 -0.285877 0
M  V30 12229 C 1136.22 -1.71107 3.16169 0
M  V30 12230 C 1135.89 -0.9797 4.46375 0
M  V30 12231 C 1136.88 -0.317219 5.18931 0
M  V30 12232 C 1134.57 -0.958764 4.93065 0
M  V30 12233 C 1136.56 0.356419 6.36403 0
M  V30 12234 C 1134.25 -0.281332 6.10452 0
M  V30 12235 C 1135.25 0.375098 6.81969 0
M  V30 12236 O 1134.94 1.0417 7.97122 0
M  V30 12237 H 1134.67 -0.243855 0.630484 0
M  V30 12238 H 1137.22 -0.0986634 2.05163 0
M  V30 12239 H 1135.45 -2.48543 2.96249 0
M  V30 12240 H 1137.14 -2.30544 3.34072 0
M  V30 12241 H 1137.91 -0.324965 4.8391 0
M  V30 12242 H 1133.79 -1.45913 4.37299 0
M  V30 12243 H 1137.33 0.869362 6.92162 0
M  V30 12244 H 1133.23 -0.271374 6.44929 0
M  V30 12245 H 1134 0.946899 8.13004 0
M  V30 12246 N 1136.66 -1.52894 -0.382264 0
M  V30 12247 C 1137.91 -1.68266 -1.12663 0
M  V30 12248 C 1138.23 -0.425974 -1.89778 0
M  V30 12249 O 1137.49 0.59178 -1.86538 0
M  V30 12250 C 1137.79 -2.87309 -2.12576 0
M  V30 12251 C 1137.45 -4.24484 -1.52067 0
M  V30 12252 C 1136.12 -4.6179 -1.35292 0
M  V30 12253 C 1138.47 -5.09858 -1.08138 0
M  V30 12254 C 1135.8 -5.82123 -0.731449 0
M  V30 12255 C 1138.15 -6.30822 -0.473986 0
M  V30 12256 C 1136.81 -6.66854 -0.293585 0
M  V30 12257 H 1136.08 -0.615728 -0.412262 0
M  V30 12258 H 1138.73 -1.8705 -0.410425 0
M  V30 12259 H 1137.03 -2.62968 -2.90439 0
M  V30 12260 H 1138.73 -2.96397 -2.70092 0
M  V30 12261 H 1135.32 -3.951 -1.66114 0
M  V30 12262 H 1139.5 -4.816 -1.19898 0
M  V30 12263 H 1134.76 -6.08643 -0.579938 0
M  V30 12264 H 1138.93 -6.96287 -0.125324 0
M  V30 12265 H 1136.56 -7.59962 0.190054 0
M  V30 12266 N 1138.14 0.641106 -1.43971 0
M  V30 12267 C 1139.39 1.39676 -1.45511 0
M  V30 12268 C 1139.7 1.95403 -0.0877084 0
M  V30 12269 O 1140.91 2.71493 0.0193965 0
M  V30 12270 C 1139.36 2.52839 -2.56126 0
M  V30 12271 C 1138.97 2.03668 -3.99028 0
M  V30 12272 C 1140.71 3.30118 -2.66875 0
M  V30 12273 C 1138.62 3.14114 -5.01085 0
M  V30 12274 H 1137.55 0.524854 -0.541336 0
M  V30 12275 H 1140.2 0.69075 -1.70003 0
M  V30 12276 H 1138.58 3.25968 -2.24857 0
M  V30 12277 H 1139.76 1.3747 -4.39817 0
M  V30 12278 H 1138.07 1.39233 -3.92432 0
M  V30 12279 H 1140.67 4.12434 -3.40297 0
M  V30 12280 H 1141.01 3.78946 -1.72353 0
M  V30 12281 H 1141.55 2.64075 -2.97505 0
M  V30 12282 H 1138.28 2.70241 -5.97202 0
M  V30 12283 H 1137.8 3.78985 -4.64898 0
M  V30 12284 H 1139.48 3.79051 -5.24337 0
M  V30 12285 N 1139.62 1.30703 0.880598 0
M  V30 12286 C 1140.86 1.19142 1.62752 0
M  V30 12287 C 1141.18 -0.251795 1.93973 0
M  V30 12288 O 1142.38 -0.488971 2.67061 0
M  V30 12289 C 1140.84 2.08503 2.93351 0
M  V30 12290 C 1140.45 3.57758 2.69653 0
M  V30 12291 C 1142.19 2.05715 3.71324 0
M  V30 12292 C 1140.1 4.39161 3.96096 0
M  V30 12293 H 1139.03 0.442332 0.610622 0
M  V30 12294 H 1141.68 1.55483 0.974547 0
M  V30 12295 H 1140.06 1.65049 3.59965 0
M  V30 12296 H 1141.24 4.09388 2.11513 0
M  V30 12297 H 1139.55 3.62414 2.0505 0
M  V30 12298 H 1142.15 2.63783 4.65105 0
M  V30 12299 H 1142.49 1.04168 4.03057 0
M  V30 12300 H 1143.02 2.47313 3.11579 0
M  V30 12301 H 1139.76 5.4142 3.69519 0
M  V30 12302 H 1139.28 3.92293 4.53725 0
M  V30 12303 H 1140.96 4.50823 4.64077 0
M  V30 12304 N 1141.09 -1.09351 1.1349 0
M  V30 12305 C 1142 -2.19564 0.826366 0
M  V30 12306 C 1143.02 -1.72967 -0.189339 0
M  V30 12307 O 1144.2 -2.0139 -0.0202033 0
M  V30 12308 C 1141.26 -3.4542 0.297685 0
M  V30 12309 C 1140.32 -4.06694 1.37473 0
M  V30 12310 C 1139.55 -5.26542 0.871183 0
M  V30 12311 O 1139.78 -5.69657 -0.290958 0
M  V30 12312 O 1138.71 -5.78961 1.64584 0
M  V30 12313 H 1142.54 -2.4841 1.74718 0
M  V30 12314 H 1140.12 -1.18302 0.912414 0
M  V30 12315 H 1142 -4.21399 0.00829479 0
M  V30 12316 H 1140.68 -3.18175 -0.595536 0
M  V30 12317 H 1139.59 -3.32347 1.71745 0
M  V30 12318 H 1140.92 -4.38166 2.24212 0
M  V30 12319 N 1142.57 -0.928524 -1.27343 0
M  V30 12320 C 1143.82 -0.579726 -1.94963 0
M  V30 12321 C 1144.17 0.869595 -1.71627 0
M  V30 12322 O 1143.47 1.61223 -1.03526 0
M  V30 12323 C 1143.66 -0.84269 -3.47323 0
M  V30 12324 C 1143.49 -2.31602 -3.85474 0
M  V30 12325 C 1142.26 -2.96888 -4.08884 0
M  V30 12326 C 1144.46 -3.2936 -3.95002 0
M  V30 12327 N 1142.44 -4.34365 -4.33821 0
M  V30 12328 C 1143.81 -4.5205 -4.24324 0
M  V30 12329 C 1145.86 -3.24557 -3.7758 0
M  V30 12330 C 1144.57 -5.70539 -4.38038 0
M  V30 12331 C 1146.59 -4.4236 -3.9252 0
M  V30 12332 C 1145.96 -5.63828 -4.22229 0
M  V30 12333 H 1142.05 -0.262279 -0.736705 0
M  V30 12334 H 1144.64 -1.19531 -1.53689 0
M  V30 12335 H 1142.81 -0.256254 -3.87554 0
M  V30 12336 H 1144.54 -0.456438 -4.02118 0
M  V30 12337 H 1141.3 -2.47555 -4.03749 0
M  V30 12338 H 1141.72 -5.05488 -4.50345 0
M  V30 12339 H 1146.36 -2.31713 -3.53651 0
M  V30 12340 H 1144.08 -6.63849 -4.60793 0
M  V30 12341 H 1147.67 -4.40162 -3.80458 0
M  V30 12342 H 1146.55 -6.53463 -4.33539 0
M  V30 12343 N 1144.05 1.41491 -0.694123 0
M  V30 12344 C 1145 2.30783 -0.0278824 0
M  V30 12345 C 1145.97 1.47028 0.772783 0
M  V30 12346 O 1147.15 1.75819 0.74111 0
M  V30 12347 C 1144.29 3.33061 0.903579 0
M  V30 12348 C 1143.4 4.31896 0.0946823 0
M  V30 12349 C 1142.54 5.21243 1.02365 0
M  V30 12350 C 1141.58 6.11748 0.207578 0
M  V30 12351 N 1140.72 6.93583 1.09028 0
M  V30 12352 H 1145.56 2.87197 -0.795092 0
M  V30 12353 H 1143.09 1.41449 -0.403806 0
M  V30 12354 H 1145.05 3.90907 1.45765 0
M  V30 12355 H 1143.68 2.782 1.6372 0
M  V30 12356 H 1142.73 3.76009 -0.576289 0
M  V30 12357 H 1144.04 4.95889 -0.538059 0
M  V30 12358 H 1143.2 5.83917 1.647 0
M  V30 12359 H 1141.94 4.57473 1.69025 0
M  V30 12360 H 1140.94 5.48125 -0.428854 0
M  V30 12361 H 1142.17 6.77573 -0.455206 0
M  V30 12362 H 1140.11 6.32422 1.74292 0
M  V30 12363 H 1140.03 7.54257 0.513073 0
M  V30 12364 H 1141.3 7.60726 1.70048 0
M  V30 12365 N 1145.53 0.438773 1.51369 0
M  V30 12366 C 1146.48 -0.386324 2.29369 0
M  V30 12367 C 1147.47 -1.0196 1.3528 0
M  V30 12368 O 1148.68 -0.9544 1.52615 0
M  V30 12369 H 1145.05 -0.143397 0.738201 0
M  V30 12370 H 1147.02 0.292372 2.96964 0
M  V30 12371 C 1145.77 -1.47426 3.14898 0
M  V30 12372 H 1145.09 -0.996335 3.87186 0
M  V30 12373 H 1146.53 -2.02481 3.72529 0
M  V30 12374 C 1144.99 -2.45831 2.30366 0
M  V30 12375 O 1145.52 -3.50398 1.96428 0
M  V30 12376 N 1143.73 -2.16754 1.93561 0
M  V30 12377 H 1143.28 -1.31748 2.2136 0
M  V30 12378 H 1143.23 -2.82836 1.373 0
M  V30 12379 N 1147.01 -1.56678 0.170181 0
M  V30 12380 C 1147.94 -2.20916 -0.756213 0
M  V30 12381 C 1148.92 -1.16442 -1.23997 0
M  V30 12382 O 1150.1 -1.44867 -1.29333 0
M  V30 12383 C 1147.23 -2.84901 -1.98617 0
M  V30 12384 C 1146.19 -3.95403 -1.63831 0
M  V30 12385 C 1145.51 -4.46432 -2.94282 0
M  V30 12386 C 1146.81 -5.15051 -0.867195 0
M  V30 12387 H 1148.51 -2.98585 -0.220776 0
M  V30 12388 H 1146.05 -1.43619 -0.104748 0
M  V30 12389 H 1148 -3.28514 -2.63926 0
M  V30 12390 H 1146.73 -2.04598 -2.54572 0
M  V30 12391 H 1145.39 -3.52444 -1.00891 0
M  V30 12392 H 1145.04 -3.62923 -3.48276 0
M  V30 12393 H 1144.74 -5.20979 -2.71762 0
M  V30 12394 H 1146.26 -4.92731 -3.60622 0
M  V30 12395 H 1147.67 -5.55363 -1.42285 0
M  V30 12396 H 1146.07 -5.95507 -0.741065 0
M  V30 12397 H 1147.14 -4.84707 0.136693 0
M  V30 12398 N 1148.48 0.103547 -1.57259 0
M  V30 12399 C 1149.43 1.14513 -2.02459 0
M  V30 12400 C 1150.43 1.4197 -0.924163 0
M  V30 12401 O 1151.63 1.41751 -1.10936 0
M  V30 12402 H 1148.01 0.386469 -0.645094 0
M  V30 12403 H 1149.98 0.737531 -2.89142 0
M  V30 12404 C 1148.73 2.45948 -2.45775 0
M  V30 12405 H 1148.05 2.25662 -3.30026 0
M  V30 12406 H 1149.49 3.17351 -2.81184 0
M  V30 12407 C 1147.95 3.09639 -1.32759 0
M  V30 12408 O 1148.48 3.96372 -0.652059 0
M  V30 12409 N 1146.68 2.69757 -1.08072 0
M  V30 12410 H 1146.23 1.9932 -1.63185 0
M  V30 12411 H 1146.19 3.127 -0.326532 0
M  V30 12412 N 1149.96 1.53094 0.37415 0
M  V30 12413 C 1150.87 1.81872 1.48188 0
M  V30 12414 C 1151.89 0.706487 1.59012 0
M  V30 12415 O 1153.06 0.995648 1.75068 0
M  V30 12416 C 1150.13 1.99494 2.83554 0
M  V30 12417 C 1149.19 3.23402 2.82329 0
M  V30 12418 C 1148.42 3.40174 4.11239 0
M  V30 12419 O 1148.65 2.61425 5.06965 0
M  V30 12420 O 1147.58 4.33493 4.17573 0
M  V30 12421 H 1151.41 2.75965 1.26795 0
M  V30 12422 H 1148.99 1.38368 0.56343 0
M  V30 12423 H 1150.87 2.12705 3.63778 0
M  V30 12424 H 1149.55 1.08591 3.04942 0
M  V30 12425 H 1148.45 3.15621 2.00834 0
M  V30 12426 H 1149.79 4.14199 2.65894 0
M  V30 12427 N 1151.44 -0.633461 1.44309 0
M  V30 12428 C 1152.72 -1.3917 1.37444 0
M  V30 12429 C 1153.1 -2.11076 0.0319994 0
M  V30 12430 O 1152.44 -2.06164 -0.98533 0
M  V30 12431 C 1152.65 -2.36005 2.57104 0
M  V30 12432 C 1154 -2.99407 3.01065 0
M  V30 12433 O 1155.03 -2.46331 2.57292 0
M  V30 12434 O 1153.89 -3.95686 3.76954 0
M  V30 12435 H 1150.98 -0.622746 0.544166 0
M  V30 12436 H 1153.53 -0.658712 1.56394 0
M  V30 12437 H 1152.3 -1.81955 3.46422 0
M  V30 12438 H 1151.92 -3.16725 2.40356 0
M  V30 12439 N 1152.92 -1.31168 -0.873655 0
M  V30 12440 C 1154.17 -1.20404 -1.62319 0
M  V30 12441 C 1154.49 0.238829 -1.93532 0
M  V30 12442 O 1153.76 1.15854 -1.57971 0
M  V30 12443 H 1152.34 -0.442632 -0.601736 0
M  V30 12444 H 1155 -1.64445 -1.04613 0
M  V30 12445 H 1154.1 -1.77309 -2.56842 0
M  V30 12446 N 1154.4 1.08748 -1.14068 0
M  V30 12447 C 1155.31 2.19123 -0.837998 0
M  V30 12448 C 1156.32 1.73065 0.180164 0
M  V30 12449 O 1157.5 2.01398 0.00952285 0
M  V30 12450 C 1154.56 3.45257 -0.316 0
M  V30 12451 C 1153.62 4.05959 -1.39628 0
M  V30 12452 C 1152.86 5.26072 -0.899095 0
M  V30 12453 O 1153.08 5.69804 0.260744 0
M  V30 12454 O 1152.01 5.7808 -1.67652 0
M  V30 12455 H 1155.84 2.4748 -1.76033 0
M  V30 12456 H 1153.43 1.17816 -0.918675 0
M  V30 12457 H 1155.31 4.21389 -0.0306425 0
M  V30 12458 H 1153.98 3.18486 0.578654 0
M  V30 12459 H 1152.89 3.31432 -1.73505 0
M  V30 12460 H 1154.22 4.36971 -2.26533 0
M  V30 12461 N 1155.87 0.935264 1.26849 0
M  V30 12462 C 1157.12 0.575467 1.93317 0
M  V30 12463 C 1157.44 -0.88876 1.74242 0
M  V30 12464 O 1158.64 -1.35767 2.35116 0
M  V30 12465 C 1157.1 0.978433 3.46345 0
M  V30 12466 C 1156.71 2.46386 3.74163 0
M  V30 12467 C 1158.45 0.690249 4.18851 0
M  V30 12468 C 1156.36 2.80584 5.20602 0
M  V30 12469 H 1155.29 0.211506 0.723727 0
M  V30 12470 H 1157.94 1.1371 1.44022 0
M  V30 12471 H 1156.32 0.345379 3.94491 0
M  V30 12472 H 1157.49 3.14547 3.36745 0
M  V30 12473 H 1155.81 2.72473 3.14877 0
M  V30 12474 H 1158.41 0.922151 5.26688 0
M  V30 12475 H 1158.75 -0.372805 4.14627 0
M  V30 12476 H 1159.28 1.28275 3.76551 0
M  V30 12477 H 1156.02 3.85828 5.29921 0
M  V30 12478 H 1155.54 2.1708 5.59139 0
M  V30 12479 H 1157.22 2.68732 5.88551 0
M  V30 12480 N 1157.35 -1.41121 0.701616 0
M  V30 12481 C 1158.3 -2.30765 0.040121 0
M  V30 12482 C 1159.27 -1.47436 -0.764975 0
M  V30 12483 O 1160.45 -1.76209 -0.731775 0
M  V30 12484 C 1157.59 -3.33535 -0.885903 0
M  V30 12485 C 1156.71 -4.3194 -0.0717765 0
M  V30 12486 C 1155.84 -5.21779 -0.995996 0
M  V30 12487 C 1154.88 -6.11849 -0.175133 0
M  V30 12488 N 1154.02 -6.94151 -1.05348 0
M  V30 12489 H 1158.86 -2.86772 0.810312 0
M  V30 12490 H 1156.4 -1.41233 0.411301 0
M  V30 12491 H 1158.35 -3.91675 -1.4369 0
M  V30 12492 H 1156.98 -2.79065 -1.62243 0
M  V30 12493 H 1156.04 -3.75698 0.596221 0
M  V30 12494 H 1157.35 -4.95597 0.56435 0
M  V30 12495 H 1156.5 -5.84782 -1.61601 0
M  V30 12496 H 1155.24 -4.58363 -1.66597 0
M  V30 12497 H 1154.25 -5.4789 0.457916 0
M  V30 12498 H 1155.47 -6.77322 0.491133 0
M  V30 12499 H 1153.42 -6.33338 -1.70936 0
M  V30 12500 H 1153.33 -7.54518 -0.473065 0
M  V30 12501 H 1154.6 -7.61617 -1.66012 0
M  V30 12502 N 1158.83 -0.446794 -1.51134 0
M  V30 12503 C 1160.08 0.108888 -2.03108 0
M  V30 12504 C 1160.43 1.3956 -1.32442 0
M  V30 12505 O 1159.72 1.86631 -0.433515 0
M  V30 12506 C 1159.92 0.373015 -3.55448 0
M  V30 12507 C 1159.75 -0.886542 -4.40875 0
M  V30 12508 C 1158.52 -1.42283 -4.84854 0
M  V30 12509 C 1160.72 -1.77531 -4.82688 0
M  V30 12510 N 1158.7 -2.63394 -5.54524 0
M  V30 12511 C 1160.07 -2.83241 -5.5152 0
M  V30 12512 C 1162.12 -1.7886 -4.64665 0
M  V30 12513 C 1160.83 -3.90239 -6.0424 0
M  V30 12514 C 1162.85 -2.84798 -5.18309 0
M  V30 12515 C 1162.21 -3.89228 -5.87095 0
M  V30 12516 H 1158.31 0.000437421 -0.782 0
M  V30 12517 H 1160.9 -0.609578 -1.84911 0
M  V30 12518 H 1159.07 1.06052 -3.73641 0
M  V30 12519 H 1160.8 0.920889 -3.94083 0
M  V30 12520 H 1157.56 -0.975408 -4.63447 0
M  V30 12521 H 1157.98 -3.24833 -5.9398 0
M  V30 12522 H 1162.62 -0.994493 -4.10938 0
M  V30 12523 H 1160.34 -4.70482 -6.57018 0
M  V30 12524 H 1163.93 -2.8678 -5.0621 0
M  V30 12525 H 1162.81 -4.69854 -6.27859 0
M  V30 12526 N 1160.31 1.56586 -0.178487 0
M  V30 12527 C 1161.24 2.21313 0.744486 0
M  V30 12528 C 1162.22 1.17098 1.23377 0
M  V30 12529 O 1163.4 1.45551 1.28563 0
M  V30 12530 C 1160.53 2.8595 1.97103 0
M  V30 12531 C 1159.49 3.96266 1.61732 0
M  V30 12532 C 1158.81 4.47987 2.91911 0
M  V30 12533 C 1160.11 5.15503 0.839868 0
M  V30 12534 H 1161.81 2.98698 0.204938 0
M  V30 12535 H 1159.35 1.43672 0.0971306 0
M  V30 12536 H 1161.31 3.29909 2.6218 0
M  V30 12537 H 1160.03 2.05946 2.53484 0
M  V30 12538 H 1158.69 3.52974 0.990208 0
M  V30 12539 H 1158.34 3.64765 3.46346 0
M  V30 12540 H 1158.04 5.22413 2.68995 0
M  V30 12541 H 1159.56 4.94637 3.58004 0
M  V30 12542 H 1160.98 5.5611 1.39337 0
M  V30 12543 H 1159.37 5.95891 0.709473 0
M  V30 12544 H 1160.44 4.84628 -0.162396 0
M  V30 12545 N 1161.79 -0.095206 1.57312 0
M  V30 12546 C 1163.2 -0.449411 1.53142 0
M  V30 12547 C 1163.4 -1.80523 0.895187 0
M  V30 12548 O 1162.46 -2.47746 0.487649 0
M  V30 12549 C 1163.77 -0.412002 2.97864 0
M  V30 12550 C 1165.32 -0.493866 3.09079 0
M  V30 12551 C 1165.79 -0.486606 4.55408 0
M  V30 12552 N 1167.29 -0.547363 4.59955 0
M  V30 12553 C 1168.02 -0.563582 5.70624 0
M  V30 12554 N 1167.52 -0.536015 6.90723 0
M  V30 12555 N 1169.31 -0.608385 5.58798 0
M  V30 12556 H 1161.46 0.792869 1.97047 0
M  V30 12557 H 1163.72 0.295106 0.900898 0
M  V30 12558 H 1163.43 0.517064 3.47878 0
M  V30 12559 H 1163.3 -1.23102 3.56547 0
M  V30 12560 H 1165.69 -1.41335 2.59053 0
M  V30 12561 H 1165.77 0.353286 2.53349 0
M  V30 12562 H 1165.42 0.428935 5.06086 0
M  V30 12563 H 1165.35 -1.35097 5.08976 0
M  V30 12564 H 1167.84 -0.573867 3.73517 0
M  V30 12565 H 1168.15 -0.551671 7.70828 0
M  V30 12566 H 1166.49 -0.503064 6.93177 0
M  V30 12567 H 1169.69 -0.627451 4.63876 0
M  V30 12568 H 1169.86 -0.617556 6.45051 0
M  V30 12569 N 1163.26 -1.53291 -0.366026 0
M  V30 12570 C 1164.51 -1.68671 -1.10602 0
M  V30 12571 C 1164.83 -0.444793 -1.90476 0
M  V30 12572 O 1166.03 -0.479135 -2.67239 0
M  V30 12573 C 1164.49 -2.98174 -2.01545 0
M  V30 12574 C 1164.1 -4.29626 -1.26986 0
M  V30 12575 C 1165.84 -3.22921 -2.7554 0
M  V30 12576 C 1163.75 -5.50218 -2.16828 0
M  V30 12577 H 1162.68 -0.628456 -0.416604 0
M  V30 12578 H 1165.33 -1.79791 -0.367058 0
M  V30 12579 H 1163.71 -2.80855 -2.79171 0
M  V30 12580 H 1164.88 -4.57574 -0.544269 0
M  V30 12581 H 1163.2 -4.11318 -0.648558 0
M  V30 12582 H 1165.8 -4.10202 -3.42985 0
M  V30 12583 H 1166.14 -2.38964 -3.40884 0
M  V30 12584 H 1166.67 -3.40912 -2.04997 0
M  V30 12585 H 1163.41 -6.36651 -1.56063 0
M  V30 12586 H 1162.93 -5.26549 -2.87238 0
M  V30 12587 H 1164.61 -5.84991 -2.76396 0
M  V30 12588 N 1164.74 0.6258 -1.44643 0
M  V30 12589 C 1165.97 1.41726 -1.51422 0
M  V30 12590 C 1166.39 1.87565 -0.14181 0
M  V30 12591 O 1165.75 1.59059 0.870054 0
M  V30 12592 C 1165.8 2.61012 -2.48807 0
M  V30 12593 O 1164.9 3.61029 -1.99328 0
M  V30 12594 H 1164.24 0.423855 -0.511119 0
M  V30 12595 H 1166.77 0.763336 -1.89827 0
M  V30 12596 H 1166.78 3.08489 -2.67018 0
M  V30 12597 H 1165.46 2.26995 -3.48491 0
M  V30 12598 H 1164.04 3.20325 -1.90909 0
M  V30 12599 N 1166.22 1.31629 0.866686 0
M  V30 12600 C 1167.45 1.24609 1.65793 0
M  V30 12601 C 1167.87 -0.184944 1.87189 0
M  V30 12602 O 1167.23 -1.1322 1.41601 0
M  V30 12603 C 1167.28 1.9988 3.00134 0
M  V30 12604 O 1166.38 1.33838 3.90079 0
M  V30 12605 H 1165.72 0.430051 0.505917 0
M  V30 12606 H 1168.25 1.73752 1.08035 0
M  V30 12607 H 1168.26 2.09599 3.50046 0
M  V30 12608 H 1166.94 3.03947 2.83882 0
M  V30 12609 H 1165.51 1.3259 3.48532 0
M  V30 12610 N 1167.7 -1.08142 1.14644 0
M  V30 12611 C 1168.92 -1.84857 0.940349 0
M  V30 12612 C 1169.35 -1.81163 -0.506117 0
M  V30 12613 O 1168.71 -1.19869 -1.36019 0
M  V30 12614 C 1168.76 -3.30198 1.4492 0
M  V30 12615 O 1167.86 -4.07355 0.64308 0
M  V30 12616 H 1167.2 -0.572711 0.336003 0
M  V30 12617 H 1169.73 -1.36475 1.52432 0
M  V30 12618 H 1169.74 -3.81039 1.45854 0
M  V30 12619 H 1168.42 -3.32202 2.50229 0
M  V30 12620 H 1166.99 -3.66219 0.702698 0
M  V30 12621 N 1169.18 -0.941978 -1.26351 0
M  V30 12622 C 1170.42 -0.590845 -1.94002 0
M  V30 12623 C 1170.76 0.868004 -1.73722 0
M  V30 12624 O 1170.03 1.62111 -1.07472 0
M  V30 12625 C 1170.31 -0.934901 -3.47752 0
M  V30 12626 C 1170.17 -2.44855 -3.77314 0
M  V30 12627 C 1171.49 -0.450888 -4.37784 0
M  V30 12628 H 1168.61 -0.21613 -0.704597 0
M  V30 12629 H 1171.25 -1.17634 -1.49205 0
M  V30 12630 H 1169.4 -0.436648 -3.86038 0
M  V30 12631 H 1171.07 -3.01959 -3.48738 0
M  V30 12632 H 1169.31 -2.89169 -3.23363 0
M  V30 12633 H 1169.98 -2.6398 -4.84787 0
M  V30 12634 H 1172.46 -0.878107 -4.06729 0
M  V30 12635 H 1171.34 -0.720439 -5.44152 0
M  V30 12636 H 1171.6 0.649162 -4.37308 0
M  V30 12637 N 1170.66 1.40747 -0.709091 0
M  V30 12638 C 1171.6 2.30741 -0.0523584 0
M  V30 12639 C 1172.57 1.4784 0.757145 0
M  V30 12640 O 1173.76 1.76595 0.72242 0
M  V30 12641 C 1170.9 3.34 0.868203 0
M  V30 12642 C 1170.01 4.31972 0.0488686 0
M  V30 12643 C 1169.15 5.223 0.968311 0
M  V30 12644 C 1168.18 6.11934 0.142682 0
M  V30 12645 N 1167.32 6.947 1.01665 0
M  V30 12646 H 1172.16 2.86338 -0.825509 0
M  V30 12647 H 1169.7 1.41013 -0.418785 0
M  V30 12648 H 1171.66 3.92431 1.41611 0
M  V30 12649 H 1170.29 2.79921 1.6076 0
M  V30 12650 H 1169.34 3.75377 -0.616137 0
M  V30 12651 H 1170.65 4.95291 -0.590625 0
M  V30 12652 H 1169.8 5.85631 1.58498 0
M  V30 12653 H 1168.54 4.5924 1.64164 0
M  V30 12654 H 1167.55 5.47639 -0.486965 0
M  V30 12655 H 1168.77 6.77052 -0.527046 0
M  V30 12656 H 1166.72 6.34236 1.67575 0
M  V30 12657 H 1166.64 7.54759 0.433045 0
M  V30 12658 H 1167.9 7.62487 1.6197 0
M  V30 12659 N 1172.13 0.454803 1.50895 0
M  V30 12660 C 1173.08 -0.347769 2.28165 0
M  V30 12661 C 1174.05 -1.00158 1.32505 0
M  V30 12662 O 1175.24 -1.01715 1.61427 0
M  V30 12663 C 1172.38 -1.43315 3.13934 0
M  V30 12664 C 1171.49 -0.795736 4.24608 0
M  V30 12665 C 1170.62 -1.85763 4.9766 0
M  V30 12666 C 1169.66 -1.19959 6.0023 0
M  V30 12667 N 1168.8 -2.20361 6.66622 0
M  V30 12668 H 1173.64 0.317493 2.96304 0
M  V30 12669 H 1171.18 0.168418 1.46133 0
M  V30 12670 H 1173.13 -2.07391 3.62001 0
M  V30 12671 H 1171.76 -2.0678 2.47875 0
M  V30 12672 H 1170.82 -0.0428173 3.80376 0
M  V30 12673 H 1172.13 -0.275477 4.98039 0
M  V30 12674 H 1171.28 -2.5746 5.49363 0
M  V30 12675 H 1170.02 -2.41166 4.23899 0
M  V30 12676 H 1169.03 -0.46817 5.47803 0
M  V30 12677 H 1170.25 -0.652666 6.75956 0
M  V30 12678 H 1168.2 -2.74812 5.95663 0
M  V30 12679 H 1168.11 -1.73275 7.35875 0
M  V30 12680 H 1169.38 -2.91488 7.22949 0
M  V30 12681 N 1173.61 -1.56489 0.186789 0
M  V30 12682 C 1174.84 -2.01429 -0.459326 0
M  V30 12683 C 1175.25 -1.06611 -1.56303 0
M  V30 12684 O 1174.59 -0.0617053 -1.83596 0
M  V30 12685 C 1174.65 -3.42778 -1.08367 0
M  V30 12686 C 1174.32 -4.56843 -0.119719 0
M  V30 12687 C 1175.32 -5.15594 0.667782 0
M  V30 12688 C 1173 -5.02299 -0.0110494 0
M  V30 12689 C 1174.99 -6.18242 1.551 0
M  V30 12690 C 1172.68 -6.04793 0.875738 0
M  V30 12691 C 1173.68 -6.62637 1.65534 0
M  V30 12692 O 1173.37 -7.63141 2.52728 0
M  V30 12693 H 1173.1 -0.665175 -0.120492 0
M  V30 12694 H 1175.65 -2.03338 0.290283 0
M  V30 12695 H 1173.88 -3.3783 -1.8817 0
M  V30 12696 H 1175.57 -3.71577 -1.63357 0
M  V30 12697 H 1176.34 -4.81348 0.594085 0
M  V30 12698 H 1172.22 -4.56977 -0.607667 0
M  V30 12699 H 1175.76 -6.63319 2.15995 0
M  V30 12700 H 1171.66 -6.38462 0.950581 0
M  V30 12701 H 1172.43 -7.80527 2.46415 0
M  V30 12702 N 1175.09 0.086862 -1.5736 0
M  V30 12703 C 1176.32 0.801004 -1.9044 0
M  V30 12704 C 1176.73 1.72396 -0.779513 0
M  V30 12705 O 1176.07 1.81894 0.256972 0
M  V30 12706 C 1176.13 1.66055 -3.18851 0
M  V30 12707 C 1175.8 0.908561 -4.47877 0
M  V30 12708 C 1176.79 0.234621 -5.1937 0
M  V30 12709 C 1174.48 0.8802 -4.94528 0
M  V30 12710 C 1176.47 -0.45762 -6.35755 0
M  V30 12711 C 1174.16 0.184179 -6.10822 0
M  V30 12712 C 1175.16 -0.483545 -6.81286 0
M  V30 12713 O 1174.85 -1.16839 -7.95364 0
M  V30 12714 H 1174.58 0.233794 -0.634284 0
M  V30 12715 H 1177.13 0.0660113 -2.05294 0
M  V30 12716 H 1175.36 2.43798 -3.00165 0
M  V30 12717 H 1177.05 2.252 -3.37698 0
M  V30 12718 H 1177.82 0.247938 -4.84366 0
M  V30 12719 H 1173.7 1.38938 -4.39565 0
M  V30 12720 H 1177.24 -0.979369 -6.90691 0
M  V30 12721 H 1173.14 0.168737 -6.45279 0
M  V30 12722 H 1173.9 -1.07612 -8.11395 0
M  V30 12723 N 1176.57 1.53483 0.357892 0
M  V30 12724 C 1177.82 1.69256 1.09706 0
M  V30 12725 C 1178.13 0.454888 1.90237 0
M  V30 12726 O 1179.34 0.4933 2.66981 0
M  V30 12727 C 1177.79 2.99238 1.99961 0
M  V30 12728 C 1177.4 4.30293 1.24706 0
M  V30 12729 C 1179.14 3.24378 2.73823 0
M  V30 12730 C 1177.05 5.5136 2.13907 0
M  V30 12731 H 1175.98 0.630657 0.413265 0
M  V30 12732 H 1178.63 1.79983 0.357518 0
M  V30 12733 H 1177.01 2.82332 2.77677 0
M  V30 12734 H 1178.19 4.57857 0.519995 0
M  V30 12735 H 1176.5 4.11656 0.626736 0
M  V30 12736 H 1179.1 4.12015 3.40805 0
M  V30 12737 H 1179.44 2.40769 3.39612 0
M  V30 12738 H 1179.98 3.41994 2.03187 0
M  V30 12739 H 1176.71 6.3747 1.52684 0
M  V30 12740 H 1176.23 5.28065 2.84442 0
M  V30 12741 H 1177.91 5.86448 2.7329 0
M  V30 12742 N 1178.05 -0.61812 1.44973 0
M  V30 12743 C 1179 -1.72346 1.49268 0
M  V30 12744 C 1179.98 -1.56889 0.357042 0
M  V30 12745 O 1181.17 -1.66404 0.603212 0
M  V30 12746 C 1178.3 -3.11073 1.4522 0
M  V30 12747 C 1177.39 -3.31953 2.63947 0
M  V30 12748 N 1177.78 -3.23141 3.89119 0
M  V30 12749 C 1176.08 -3.62791 2.59419 0
M  V30 12750 C 1176.78 -3.45066 4.683 0
M  V30 12751 N 1175.75 -3.68558 3.99582 0
M  V30 12752 H 1179.55 -1.6401 2.43881 0
M  V30 12753 H 1177.07 -0.821029 1.40117 0
M  V30 12754 H 1179.07 -3.90356 1.46381 0
M  V30 12755 H 1177.73 -3.20565 0.516555 0
M  V30 12756 H 1178.74 -3.01773 4.20896 0
M  V30 12757 H 1175.41 -3.79185 1.74713 0
M  V30 12758 H 1176.8 -3.43735 5.77318 0
M  V30 12759 N 1179.52 -1.32087 -0.859693 0
M  V30 12760 C 1180.8 -1.12984 -1.59668 0
M  V30 12761 C 1181.18 0.311661 -2.08787 0
M  V30 12762 O 1180.53 1.30746 -1.87397 0
M  V30 12763 C 1180.74 -2.15305 -2.74672 0
M  V30 12764 C 1182.09 -2.48371 -3.44379 0
M  V30 12765 O 1183.11 -2.13811 -2.84891 0
M  V30 12766 O 1181.97 -3.07594 -4.51717 0
M  V30 12767 H 1179.06 -0.435657 -0.702945 0
M  V30 12768 H 1181.61 -1.43601 -0.90426 0
M  V30 12769 H 1180.38 -3.12223 -2.35866 0
M  V30 12770 H 1180 -1.85653 -3.51594 0
M  V30 12771 N 1181 1.07532 -1.15215 0
M  V30 12772 C 1181.95 2.12909 -0.815714 0
M  V30 12773 C 1182.94 1.59662 0.1992 0
M  V30 12774 O 1184.13 1.77 0.000215597 0
M  V30 12775 C 1181.26 3.41945 -0.304717 0
M  V30 12776 C 1180.34 4.0205 -1.34968 0
M  V30 12777 N 1180.73 4.36439 -2.55646 0
M  V30 12778 C 1179.03 4.29498 -1.20199 0
M  V30 12779 C 1179.73 4.84044 -3.22609 0
M  V30 12780 N 1178.71 4.82702 -2.5 0
M  V30 12781 H 1182.51 2.37327 -1.73358 0
M  V30 12782 H 1180.02 1.24952 -1.03734 0
M  V30 12783 H 1182.02 4.16875 -0.0453503 0
M  V30 12784 H 1180.68 3.18971 0.607235 0
M  V30 12785 H 1181.69 4.27184 -2.92804 0
M  V30 12786 H 1178.37 4.16032 -0.349781 0
M  V30 12787 H 1179.76 5.19959 -4.2555 0
M  V30 12788 N 1182.48 0.948665 1.2585 0
M  V30 12789 C 1183.73 0.600236 1.934 0
M  V30 12790 C 1184.06 -0.86185 1.74363 0
M  V30 12791 O 1183.31 -1.63294 1.07858 0
M  V30 12792 C 1183.61 0.89784 3.45939 0
M  V30 12793 C 1183.28 2.345 3.85124 0
M  V30 12794 C 1181.94 2.74058 3.95532 0
M  V30 12795 C 1184.29 3.2851 4.04636 0
M  V30 12796 C 1181.62 4.06707 4.22855 0
M  V30 12797 C 1183.97 4.60764 4.3345 0
M  V30 12798 C 1182.63 5.00127 4.42074 0
M  V30 12799 H 1181.9 0.219642 0.707699 0
M  V30 12800 H 1184.55 1.19658 1.49513 0
M  V30 12801 H 1182.86 0.219037 3.91187 0
M  V30 12802 H 1184.55 0.606916 3.96381 0
M  V30 12803 H 1181.14 2.02819 3.77574 0
M  V30 12804 H 1185.33 2.99141 3.96015 0
M  V30 12805 H 1180.58 4.36856 4.27746 0
M  V30 12806 H 1184.76 5.33594 4.47493 0
M  V30 12807 H 1182.38 6.02939 4.63 0
M  V30 12808 N 1183.96 -1.40369 0.716545 0
M  V30 12809 C 1185.21 -2.00101 0.253452 0
M  V30 12810 C 1185.52 -1.57471 -1.16027 0
M  V30 12811 O 1186.73 -2.09909 -1.72193 0
M  V30 12812 C 1185.18 -3.57645 0.402213 0
M  V30 12813 C 1184.79 -4.09248 1.82264 0
M  V30 12814 C 1186.53 -4.245 -3.88526e-05 0
M  V30 12815 C 1184.44 -5.59299 1.92193 0
M  V30 12816 H 1183.37 -0.748488 0.0910047 0
M  V30 12817 H 1186.02 -1.60595 0.887772 0
M  V30 12818 H 1184.4 -3.94857 -0.300706 0
M  V30 12819 H 1185.58 -3.83412 2.55601 0
M  V30 12820 H 1183.89 -3.54993 2.17644 0
M  V30 12821 H 1186.49 -5.34673 0.0534202 0
M  V30 12822 H 1186.83 -4.03046 -1.04208 0
M  V30 12823 H 1187.37 -3.92398 0.65336 0
M  V30 12824 H 1184.11 -5.85608 2.94522 0
M  V30 12825 H 1183.63 -5.86997 1.23268 0
M  V30 12826 H 1185.3 -6.24416 1.6945 0
M  V30 12827 N 1185.44 -0.462799 -1.50652 0
M  V30 12828 C 1186.85 -0.00568907 -1.86699 0
M  V30 12829 C 1187.2 1.39641 -1.37822 0
M  V30 12830 O 1186.32 2.03366 -0.739679 0
M  V30 12831 C 1186.92 -0.00354783 -3.388 0
M  V30 12832 C 1185.48 0.398061 -3.74289 0
M  V30 12833 C 1184.62 -0.392574 -2.74507 0
M  V30 12834 H 1187.58 -0.677469 -1.43513 0
M  V30 12835 H 1187.6 0.800456 -3.71985 0
M  V30 12836 H 1187.11 -1.02414 -3.74344 0
M  V30 12837 H 1185.21 1.42331 -3.44344 0
M  V30 12838 H 1185.32 0.105168 -4.78985 0
M  V30 12839 H 1183.69 0.152608 -2.54242 0
M  V30 12840 H 1184.47 -1.41252 -3.12894 0
M  V30 12841 N 1186.91 1.56388 -0.195085 0
M  V30 12842 C 1188.16 1.96755 0.443901 0
M  V30 12843 C 1188.48 1.08483 1.6276 0
M  V30 12844 O 1189.68 1.38632 2.33438 0
M  V30 12845 C 1188.14 3.49933 0.841139 0
M  V30 12846 C 1187.75 4.46868 -0.318275 0
M  V30 12847 C 1189.49 3.99069 1.44721 0
M  V30 12848 C 1187.4 5.91316 0.0999211 0
M  V30 12849 H 1186.33 0.734674 0.169616 0
M  V30 12850 H 1188.98 1.8124 -0.287101 0
M  V30 12851 H 1187.36 3.60951 1.62881 0
M  V30 12852 H 1188.53 4.47581 -1.0958 0
M  V30 12853 H 1186.85 4.07925 -0.835842 0
M  V30 12854 H 1189.45 5.04465 1.77255 0
M  V30 12855 H 1189.79 3.43376 2.35369 0
M  V30 12856 H 1190.32 3.91165 0.723513 0
M  V30 12857 H 1187.06 6.50934 -0.77237 0
M  V30 12858 H 1186.58 5.93856 0.842304 0
M  V30 12859 H 1188.26 6.44778 0.535726 0
M  V30 12860 N 1188.39 -0.0785156 1.57404 0
M  V30 12861 C 1189.3 -1.11203 2.0657 0
M  V30 12862 C 1190.32 -1.42822 0.993872 0
M  V30 12863 O 1191.49 -1.53133 1.30814 0
M  V30 12864 C 1188.56 -2.40812 2.4942 0
M  V30 12865 C 1187.62 -2.16225 3.70871 0
M  V30 12866 C 1186.85 -3.39654 4.11668 0
M  V30 12867 O 1187.08 -4.48521 3.524 0
M  V30 12868 O 1186.01 -3.28263 5.04507 0
M  V30 12869 H 1189.84 -0.724381 2.94935 0
M  V30 12870 H 1187.42 -0.292184 1.46515 0
M  V30 12871 H 1189.3 -3.17101 2.77534 0
M  V30 12872 H 1187.98 -2.7897 1.64187 0
M  V30 12873 H 1186.89 -1.37663 3.4785 0
M  V30 12874 H 1188.22 -1.82951 4.56935 0
M  V30 12875 N 1189.87 -1.5367 -0.349747 0
M  V30 12876 C 1190.82 -1.81223 -1.42922 0
M  V30 12877 C 1191.79 -0.657536 -1.52531 0
M  V30 12878 O 1192.97 -0.90134 -1.68168 0
M  V30 12879 C 1190.11 -2.022 -2.79659 0
M  V30 12880 C 1189.23 -3.29915 -2.78891 0
M  V30 12881 C 1188.36 -3.40993 -4.07305 0
M  V30 12882 C 1187.4 -4.6268 -4.00741 0
M  V30 12883 N 1186.54 -4.70826 -5.20833 0
M  V30 12884 H 1191.38 -2.73328 -1.18727 0
M  V30 12885 H 1188.91 -1.35386 -0.57525 0
M  V30 12886 H 1190.87 -2.12351 -3.59114 0
M  V30 12887 H 1189.5 -1.13416 -3.0222 0
M  V30 12888 H 1188.55 -3.28637 -1.91577 0
M  V30 12889 H 1189.87 -4.19459 -2.69917 0
M  V30 12890 H 1189.02 -3.50542 -4.95182 0
M  V30 12891 H 1187.76 -2.49493 -4.19052 0
M  V30 12892 H 1186.76 -4.53215 -3.11249 0
M  V30 12893 H 1187.99 -5.55538 -3.90582 0
M  V30 12894 H 1185.93 -3.82233 -5.33136 0
M  V30 12895 H 1185.85 -5.54297 -5.14092 0
M  V30 12896 H 1187.12 -4.84677 -6.10499 0
M  V30 12897 N 1191.35 0.610423 -1.45298 0
M  V30 12898 C 1192.58 1.39419 -1.52466 0
M  V30 12899 C 1192.99 1.88563 -0.1551 0
M  V30 12900 O 1192.33 1.62692 0.853061 0
M  V30 12901 C 1192.39 2.63515 -2.44541 0
M  V30 12902 C 1192.06 2.36028 -3.91331 0
M  V30 12903 C 1193.05 1.96567 -4.81308 0
M  V30 12904 C 1190.74 2.49028 -4.36223 0
M  V30 12905 C 1192.73 1.70461 -6.14184 0
M  V30 12906 C 1190.42 2.22536 -5.6914 0
M  V30 12907 C 1191.42 1.83314 -6.5794 0
M  V30 12908 O 1191.1 1.57131 -7.88394 0
M  V30 12909 H 1190.84 0.433278 -0.518889 0
M  V30 12910 H 1193.39 0.751803 -1.91147 0
M  V30 12911 H 1191.62 3.30463 -2.00826 0
M  V30 12912 H 1193.31 3.25554 -2.42424 0
M  V30 12913 H 1194.08 1.86062 -4.4789 0
M  V30 12914 H 1189.95 2.78524 -3.67349 0
M  V30 12915 H 1193.5 1.39773 -6.83454 0
M  V30 12916 H 1189.4 2.32657 -6.02114 0
M  V30 12917 H 1190.16 1.71207 -8.00394 0
M  V30 12918 N 1192.83 1.32541 0.852676 0
M  V30 12919 C 1193.76 1.17471 1.96807 0
M  V30 12920 C 1194.77 0.109198 1.62433 0
M  V30 12921 O 1195.96 0.358342 1.74866 0
M  V30 12922 C 1193.06 0.776328 3.29888 0
M  V30 12923 C 1192.23 1.93055 3.9249 0
M  V30 12924 C 1191.29 1.51539 5.03907 0
M  V30 12925 O 1190.32 2.22771 5.23796 0
M  V30 12926 N 1191.52 0.412533 5.79032 0
M  V30 12927 H 1194.29 2.13551 2.10276 0
M  V30 12928 H 1191.85 1.25104 1.02764 0
M  V30 12929 H 1193.84 0.48096 4.01832 0
M  V30 12930 H 1192.41 -0.0933749 3.12461 0
M  V30 12931 H 1191.63 2.39231 3.13309 0
M  V30 12932 H 1192.92 2.70321 4.3105 0
M  V30 12933 H 1192.31 -0.180286 5.65413 0
M  V30 12934 H 1190.87 0.17678 6.5156 0
M  V30 12935 N 1194.3 -1.0692 1.15784 0
M  V30 12936 C 1195.55 -1.796 0.935429 0
M  V30 12937 C 1195.88 -1.86935 -0.537173 0
M  V30 12938 O 1195.13 -1.35244 -1.41448 0
M  V30 12939 C 1195.43 -3.24389 1.50022 0
M  V30 12940 C 1195.1 -3.37145 2.99406 0
M  V30 12941 C 1193.76 -3.40334 3.40186 0
M  V30 12942 C 1196.11 -3.39584 3.95389 0
M  V30 12943 C 1193.44 -3.43569 4.75581 0
M  V30 12944 C 1195.79 -3.44356 5.30661 0
M  V30 12945 C 1194.46 -3.45824 5.70931 0
M  V30 12946 H 1193.73 -0.657201 0.342298 0
M  V30 12947 H 1196.37 -1.25784 1.44397 0
M  V30 12948 H 1194.68 -3.81015 0.91297 0
M  V30 12949 H 1196.38 -3.79209 1.30389 0
M  V30 12950 H 1192.97 -3.35365 2.66887 0
M  V30 12951 H 1197.15 -3.36337 3.64954 0
M  V30 12952 H 1192.41 -3.43006 5.06119 0
M  V30 12953 H 1196.58 -3.4519 6.04828 0
M  V30 12954 H 1194.21 -3.48084 6.75826 0
M  V30 12955 N 1195.78 -0.955326 -1.25345 0
M  V30 12956 C 1197.01 -0.627233 -1.97688 0
M  V30 12957 C 1197.43 0.793973 -1.70522 0
M  V30 12958 O 1196.79 1.537 -0.961556 0
M  V30 12959 C 1196.84 -0.892969 -3.49369 0
M  V30 12960 O 1195.94 0.0278871 -4.12391 0
M  V30 12961 H 1195.28 -0.238402 -0.619726 0
M  V30 12962 H 1197.81 -1.28211 -1.59446 0
M  V30 12963 H 1197.82 -0.819517 -3.99685 0
M  V30 12964 H 1196.5 -1.92879 -3.6847 0
M  V30 12965 H 1195.08 -0.0978295 -3.72772 0
M  V30 12966 N 1197.26 1.39987 -0.723979 0
M  V30 12967 C 1198.19 2.3332 -0.0917282 0
M  V30 12968 C 1199.17 1.53335 0.736361 0
M  V30 12969 O 1200.36 1.81771 0.683582 0
M  V30 12970 C 1197.49 3.3737 0.824549 0
M  V30 12971 C 1196.44 4.2788 0.101452 0
M  V30 12972 C 1195.77 5.22536 1.13401 0
M  V30 12973 C 1197.07 5.11649 -1.04939 0
M  V30 12974 H 1198.76 2.86441 -0.871318 0
M  V30 12975 H 1196.31 1.37725 -0.420448 0
M  V30 12976 H 1198.26 4.01607 1.27631 0
M  V30 12977 H 1196.98 2.82663 1.63613 0
M  V30 12978 H 1195.64 3.65107 -0.330569 0
M  V30 12979 H 1195.29 4.64131 1.93886 0
M  V30 12980 H 1194.99 5.83938 0.65502 0
M  V30 12981 H 1196.52 5.89651 1.58569 0
M  V30 12982 H 1197.93 5.69293 -0.6766 0
M  V30 12983 H 1196.33 5.82137 -1.45729 0
M  V30 12984 H 1197.4 4.47132 -1.8762 0
M  V30 12985 N 1198.74 0.470782 1.50404 0
M  V30 12986 C 1199.97 -0.0818945 2.06438 0
M  V30 12987 C 1200.38 -1.34085 1.33483 0
M  V30 12988 O 1199.72 -1.79346 0.397565 0
M  V30 12989 C 1199.78 -0.436252 3.56843 0
M  V30 12990 C 1199.45 0.720641 4.51282 0
M  V30 12991 C 1200.44 1.60258 4.94584 0
M  V30 12992 C 1198.13 0.910879 4.93972 0
M  V30 12993 C 1200.12 2.65916 5.79282 0
M  V30 12994 C 1197.81 1.97069 5.78452 0
M  V30 12995 C 1198.81 2.84319 6.21008 0
M  V30 12996 O 1198.5 3.88476 7.03805 0
M  V30 12997 H 1198.23 0.00361688 0.67599 0
M  V30 12998 H 1200.78 0.658488 1.94559 0
M  V30 12999 H 1199.01 -1.22982 3.66623 0
M  V30 13000 H 1200.7 -0.923976 3.95244 0
M  V30 13001 H 1201.47 1.46729 4.62272 0
M  V30 13002 H 1197.35 0.241225 4.60368 0
M  V30 13003 H 1200.89 3.3405 6.12419 0
M  V30 13004 H 1196.79 2.10605 6.10177 0
M  V30 13005 H 1197.55 3.8546 7.22054 0
M  V30 13006 N 1200.22 -1.56282 0.203376 0
M  V30 13007 C 1201.63 -1.84146 -0.307752 0
M  V30 13008 C 1201.98 -1.12429 -1.60792 0
M  V30 13009 O 1201.1 -0.387852 -2.12896 0
M  V30 13010 C 1201.7 -3.34053 -0.565152 0
M  V30 13011 C 1200.26 -3.62298 -1.02063 0
M  V30 13012 C 1199.41 -2.77202 -0.0737343 0
M  V30 13013 H 1202.36 -1.52848 0.426983 0
M  V30 13014 H 1202.38 -3.53273 -1.41345 0
M  V30 13015 H 1201.89 -3.86222 0.381301 0
M  V30 13016 H 1199.99 -3.1557 -1.98107 0
M  V30 13017 H 1200.1 -4.70424 -0.907614 0
M  V30 13018 H 1198.47 -2.48074 -0.577169 0
M  V30 13019 H 1199.25 -3.32164 0.86731 0
M  V30 13020 N 1201.7 0.070167 -1.57444 0
M  V30 13021 C 1202.94 0.767842 -1.86513 0
M  V30 13022 C 1203.26 1.78659 -0.796257 0
M  V30 13023 O 1204.46 2.53395 -0.974845 0
M  V30 13024 C 1202.92 1.41654 -3.30851 0
M  V30 13025 C 1202.53 0.436273 -4.45871 0
M  V30 13026 C 1204.27 2.09649 -3.69117 0
M  V30 13027 C 1202.18 1.09098 -5.8125 0
M  V30 13028 H 1201.11 0.290519 -0.695784 0
M  V30 13029 H 1203.76 0.0211697 -1.83488 0
M  V30 13030 H 1202.14 2.21153 -3.28493 0
M  V30 13031 H 1203.32 -0.329022 -4.59624 0
M  V30 13032 H 1201.63 -0.139314 -4.16167 0
M  V30 13033 H 1204.23 2.59411 -4.67558 0
M  V30 13034 H 1204.57 2.89663 -2.99 0
M  V30 13035 H 1205.1 1.36979 -3.73472 0
M  V30 13036 H 1201.84 0.331128 -6.54663 0
M  V30 13037 H 1201.36 1.8271 -5.71294 0
M  V30 13038 H 1203.04 1.61034 -6.2664 0
M  V30 13039 N 1203.17 1.53854 0.341593 0
M  V30 13040 C 1204.42 1.71194 1.08162 0
M  V30 13041 C 1204.75 0.47614 1.88582 0
M  V30 13042 O 1204 -0.542115 1.88041 0
M  V30 13043 C 1204.3 2.92844 2.04884 0
M  V30 13044 C 1203.97 4.28366 1.40759 0
M  V30 13045 C 1202.63 4.65214 1.23 0
M  V30 13046 C 1204.98 5.12546 0.945819 0
M  V30 13047 C 1202.31 5.83857 0.576852 0
M  V30 13048 C 1204.66 6.31857 0.306568 0
M  V30 13049 C 1203.33 6.67398 0.116677 0
M  V30 13050 H 1202.6 0.626442 0.395792 0
M  V30 13051 H 1205.24 1.88073 0.360688 0
M  V30 13052 H 1203.55 2.70576 2.83365 0
M  V30 13053 H 1205.25 3.03454 2.62139 0
M  V30 13054 H 1201.84 3.99366 1.5558 0
M  V30 13055 H 1206.02 4.84609 1.07087 0
M  V30 13056 H 1201.28 6.09967 0.418363 0
M  V30 13057 H 1205.45 6.96375 -0.0593285 0
M  V30 13058 H 1203.08 7.59191 -0.391477 0
M  V30 13059 N 1204.65 -0.602709 1.4562 0
M  V30 13060 C 1205.58 -1.72705 1.49159 0
M  V30 13061 C 1206.56 -1.58843 0.347494 0
M  V30 13062 O 1207.75 -1.80337 0.548716 0
M  V30 13063 C 1204.87 -3.10579 1.35125 0
M  V30 13064 C 1203.92 -3.43016 2.53461 0
M  V30 13065 S 1204.75 -3.37311 4.1591 0
M  V30 13066 C 1205.91 -4.77757 4.0435 0
M  V30 13067 H 1206.14 -1.69441 2.44289 0
M  V30 13068 H 1203.67 -0.779776 1.33262 0
M  V30 13069 H 1205.63 -3.90127 1.27715 0
M  V30 13070 H 1204.29 -3.11352 0.414568 0
M  V30 13071 H 1203.49 -4.43415 2.39581 0
M  V30 13072 H 1203.09 -2.70993 2.57757 0
M  V30 13073 H 1205.38 -5.67677 3.69796 0
M  V30 13074 H 1206.32 -4.96694 5.04679 0
M  V30 13075 H 1206.73 -4.53667 3.35926 0
M  V30 13076 N 1206.13 -1.32992 -0.845635 0
M  V30 13077 C 1207.04 -1.24701 -1.98713 0
M  V30 13078 C 1208.06 -0.158864 -1.73273 0
M  V30 13079 O 1209.23 -0.381209 -1.97759 0
M  V30 13080 C 1206.3 -0.979524 -3.32575 0
M  V30 13081 C 1205.36 -2.15701 -3.71176 0
M  V30 13082 C 1204.59 -1.90219 -4.98651 0
M  V30 13083 O 1204.81 -0.849171 -5.64044 0
M  V30 13084 O 1203.75 -2.76571 -5.34595 0
M  V30 13085 H 1207.57 -2.20683 -2.08645 0
M  V30 13086 H 1205.16 -1.12971 -0.97765 0
M  V30 13087 H 1207.04 -0.847219 -4.12796 0
M  V30 13088 H 1205.72 -0.0499398 -3.23661 0
M  V30 13089 H 1204.62 -2.34483 -2.91494 0
M  V30 13090 H 1205.96 -3.0697 -3.84747 0
M  V30 13091 N 1207.61 1.06304 -1.1635 0
M  V30 13092 C 1208.86 1.78747 -0.943074 0
M  V30 13093 C 1209.18 1.87646 0.530483 0
M  V30 13094 O 1208.45 1.38506 1.38538 0
M  V30 13095 H 1207.03 0.662072 -0.345932 0
M  V30 13096 H 1209.69 1.28413 -1.46615 0
M  V30 13097 H 1208.78 2.80828 -1.3617 0
M  V30 13098 N 1209.09 0.96196 1.24836 0
M  V30 13099 C 1210.33 0.621634 1.93038 0
M  V30 13100 C 1210.66 -0.840257 1.75081 0
M  V30 13101 O 1209.94 -1.60381 1.10038 0
M  V30 13102 C 1210.22 0.990107 3.46221 0
M  V30 13103 C 1210.08 2.50827 3.73371 0
M  V30 13104 C 1211.39 0.520478 4.37011 0
M  V30 13105 H 1208.51 0.227312 0.701069 0
M  V30 13106 H 1211.16 1.19993 1.47315 0
M  V30 13107 H 1209.31 0.498008 3.85295 0
M  V30 13108 H 1210.98 3.07469 3.4389 0
M  V30 13109 H 1209.22 2.94277 3.18722 0
M  V30 13110 H 1209.89 2.71659 4.80526 0
M  V30 13111 H 1212.37 0.942703 4.05281 0
M  V30 13112 H 1211.24 0.806918 5.42937 0
M  V30 13113 H 1211.5 -0.579507 4.38285 0
M  V30 13114 N 1210.56 -1.39601 0.731392 0
M  V30 13115 C 1211.81 -2.0019 0.277208 0
M  V30 13116 C 1212.13 -1.5832 -1.13841 0
M  V30 13117 O 1211.4 -0.829793 -1.77458 0
M  V30 13118 H 1209.98 -0.740344 0.0995006 0
M  V30 13119 H 1212.64 -1.70704 0.940547 0
M  V30 13120 H 1211.74 -3.10427 0.322749 0
M  V30 13121 N 1212.04 -0.478751 -1.50152 0
M  V30 13122 C 1212.99 0.311426 -2.28689 0
M  V30 13123 C 1213.96 0.980375 -1.34082 0
M  V30 13124 O 1215.14 0.991337 -1.63025 0
M  V30 13125 C 1212.28 1.38302 -3.16175 0
M  V30 13126 C 1211.4 0.728084 -4.2582 0
M  V30 13127 C 1210.53 1.77822 -5.00552 0
M  V30 13128 C 1209.57 1.10395 -6.02063 0
M  V30 13129 N 1208.71 2.09728 -6.70044 0
M  V30 13130 H 1213.55 -0.364592 -2.95761 0
M  V30 13131 H 1211.09 -0.191645 -1.45846 0
M  V30 13132 H 1213.04 2.01606 -3.65255 0
M  V30 13133 H 1211.67 2.0281 -2.51133 0
M  V30 13134 H 1210.73 -0.0177026 -3.80396 0
M  V30 13135 H 1212.04 0.196209 -4.98414 0
M  V30 13136 H 1211.19 2.48687 -5.53389 0
M  V30 13137 H 1209.93 2.34392 -4.27682 0
M  V30 13138 H 1208.94 0.38096 -5.48479 0
M  V30 13139 H 1210.16 0.545045 -6.76909 0
M  V30 13140 H 1208.11 2.65301 -5.9996 0
M  V30 13141 H 1208.02 1.61546 -7.38538 0
M  V30 13142 H 1209.29 2.7995 -7.27495 0
M  V30 13143 N 1213.52 1.56172 -0.211661 0
M  V30 13144 C 1214.93 1.84307 0.297982 0
M  V30 13145 C 1215.28 1.1328 1.60194 0
M  V30 13146 O 1214.41 0.399137 2.12687 0
M  V30 13147 C 1215 3.34348 0.547428 0
M  V30 13148 C 1213.56 3.62835 1.0014 0
M  V30 13149 C 1212.71 2.77237 0.0590326 0
M  V30 13150 H 1215.66 1.5262 -0.435083 0
M  V30 13151 H 1215.68 3.54018 1.39469 0
M  V30 13152 H 1215.19 3.86015 -0.401778 0
M  V30 13153 H 1213.29 3.16616 1.96431 0
M  V30 13154 H 1213.41 4.70899 0.882653 0
M  V30 13155 H 1211.77 2.48377 0.564005 0
M  V30 13156 H 1212.55 3.31699 -0.884913 0
M  V30 13157 N 1215 -0.0618163 1.57479 0
M  V30 13158 C 1215.95 -1.0724 2.04373 0
M  V30 13159 C 1216.92 -1.37875 0.926271 0
M  V30 13160 O 1218.1 -1.48772 1.19463 0
M  V30 13161 C 1215.24 -2.37805 2.50085 0
M  V30 13162 C 1214.35 -2.13614 3.7549 0
M  V30 13163 C 1213.49 -3.37814 4.09945 0
M  V30 13164 C 1212.53 -3.09032 5.28361 0
M  V30 13165 N 1211.66 -4.25591 5.58406 0
M  V30 13166 H 1216.5 -0.665536 2.90473 0
M  V30 13167 H 1214.04 -0.317043 1.43643 0
M  V30 13168 H 1216 -3.14048 2.74644 0
M  V30 13169 H 1214.63 -2.76275 1.66948 0
M  V30 13170 H 1213.68 -1.28017 3.58212 0
M  V30 13171 H 1214.99 -1.88361 4.61867 0
M  V30 13172 H 1214.15 -4.22447 4.35458 0
M  V30 13173 H 1212.89 -3.66153 3.22154 0
M  V30 13174 H 1211.89 -2.22797 5.02635 0
M  V30 13175 H 1213.12 -2.82006 6.17778 0
M  V30 13176 H 1211.06 -4.53941 4.73575 0
M  V30 13177 H 1210.98 -4.03646 6.39223 0
M  V30 13178 H 1212.25 -5.11191 5.88476 0
M  V30 13179 N 1216.48 -1.54033 -0.333429 0
M  V30 13180 C 1217.73 -1.70979 -1.07 0
M  V30 13181 C 1218.04 -0.485095 -1.89489 0
M  V30 13182 O 1219.24 -0.535712 -2.66162 0
M  V30 13183 C 1217.7 -3.02382 -1.95175 0
M  V30 13184 C 1217.31 -4.32223 -1.17844 0
M  V30 13185 C 1219.05 -3.28693 -2.68628 0
M  V30 13186 C 1216.96 -5.54693 -2.05109 0
M  V30 13187 H 1215.89 -0.637152 -0.403179 0
M  V30 13188 H 1218.54 -1.80529 -0.328839 0
M  V30 13189 H 1216.92 -2.86714 -2.73151 0
M  V30 13190 H 1218.1 -4.58626 -0.447089 0
M  V30 13191 H 1216.41 -4.12601 -0.561166 0
M  V30 13192 H 1219.01 -4.17385 -3.34207 0
M  V30 13193 H 1219.35 -2.46141 -3.35738 0
M  V30 13194 H 1219.88 -3.45183 -1.9772 0
M  V30 13195 H 1216.62 -6.39818 -1.42523 0
M  V30 13196 H 1216.14 -5.32524 -2.76005 0
M  V30 13197 H 1217.82 -5.90722 -2.63926 0
M  V30 13198 N 1217.95 0.594978 -1.45938 0
M  V30 13199 C 1219.2 1.34976 -1.49881 0
M  V30 13200 C 1219.52 1.95025 -0.14983 0
M  V30 13201 O 1220.72 2.71417 -0.0669868 0
M  V30 13202 C 1219.18 2.44563 -2.6404 0
M  V30 13203 C 1218.79 1.9087 -4.05306 0
M  V30 13204 C 1220.53 3.21461 -2.77242 0
M  V30 13205 C 1218.44 2.98013 -5.10825 0
M  V30 13206 H 1217.37 0.507366 -0.55776 0
M  V30 13207 H 1220.02 0.636316 -1.72114 0
M  V30 13208 H 1218.4 3.1865 -2.35114 0
M  V30 13209 H 1219.57 1.23408 -4.43968 0
M  V30 13210 H 1217.89 1.26678 -3.96663 0
M  V30 13211 H 1220.49 4.01399 -3.53246 0
M  V30 13212 H 1220.83 3.73271 -1.84321 0
M  V30 13213 H 1221.36 2.54477 -3.05756 0
M  V30 13214 H 1218.1 2.51104 -6.05497 0
M  V30 13215 H 1217.62 3.64003 -4.7672 0
M  V30 13216 H 1219.3 3.62178 -5.36131 0
M  V30 13217 N 1219.43 1.33438 0.838571 0
M  V30 13218 C 1220.38 1.23698 1.96981 0
M  V30 13219 C 1221.37 0.138299 1.68835 0
M  V30 13220 O 1222.58 0.302278 1.77444 0
M  V30 13221 H 1218.96 0.383874 0.646641 0
M  V30 13222 H 1220.93 2.19337 2.02321 0
M  V30 13223 C 1219.68 0.993362 3.33208 0
M  V30 13224 H 1219 1.83104 3.55405 0
M  V30 13225 H 1220.44 0.965517 4.1286 0
M  V30 13226 C 1218.9 -0.303701 3.35528 0
M  V30 13227 O 1219.43 -1.3103 3.79729 0
M  V30 13228 N 1217.63 -0.331342 2.88705 0
M  V30 13229 H 1217.18 0.488351 2.52929 0
M  V30 13230 H 1217.14 -1.199 2.9064 0
M  V30 13231 N 1220.91 -1.05686 1.16912 0
M  V30 13232 C 1222.14 -1.82821 0.979348 0
M  V30 13233 C 1222.56 -1.82196 -0.467575 0
M  V30 13234 O 1221.92 -1.22727 -1.33445 0
M  V30 13235 C 1221.97 -3.2705 1.51891 0
M  V30 13236 O 1221.07 -4.05899 0.729341 0
M  V30 13237 H 1220.41 -0.565455 0.348076 0
M  V30 13238 H 1222.94 -1.33211 1.55293 0
M  V30 13239 H 1222.95 -3.77859 1.53904 0
M  V30 13240 H 1221.63 -3.26819 2.5722 0
M  V30 13241 H 1220.2 -3.64646 0.780221 0
M  V30 13242 N 1222.39 -0.968567 -1.24324 0
M  V30 13243 C 1223.64 -0.630928 -1.9242 0
M  V30 13244 C 1223.96 0.834001 -1.75712 0
M  V30 13245 O 1223.22 1.61558 -1.10442 0
M  V30 13246 C 1223.52 -0.952762 -3.44467 0
M  V30 13247 C 1223.18 -2.40597 -3.81345 0
M  V30 13248 C 1221.85 -2.80316 -3.91122 0
M  V30 13249 C 1224.2 -3.34906 -3.99359 0
M  V30 13250 C 1221.53 -4.13383 -4.16331 0
M  V30 13251 C 1223.88 -4.67602 -4.26065 0
M  V30 13252 C 1222.54 -5.07097 -4.34061 0
M  V30 13253 H 1221.81 -0.230873 -0.704116 0
M  V30 13254 H 1224.46 -1.22022 -1.47591 0
M  V30 13255 H 1222.76 -0.281244 -3.90789 0
M  V30 13256 H 1224.46 -0.6699 -3.95365 0
M  V30 13257 H 1221.05 -2.088 -3.743 0
M  V30 13258 H 1225.23 -3.05404 -3.91206 0
M  V30 13259 H 1220.49 -4.43606 -4.20742 0
M  V30 13260 H 1224.66 -5.40646 -4.38948 0
M  V30 13261 H 1222.29 -6.10229 -4.53349 0
M  V30 13262 N 1223.87 1.39211 -0.738786 0
M  V30 13263 C 1225.09 2.04732 -0.298751 0
M  V30 13264 C 1225.51 1.55706 1.06776 0
M  V30 13265 O 1224.87 0.723605 1.67542 0
M  V30 13266 C 1224.92 3.60288 -0.29574 0
M  V30 13267 O 1224.64 4.07511 -1.60831 0
M  V30 13268 C 1226.14 4.43011 0.159994 0
M  V30 13269 H 1223.36 0.658296 -0.129952 0
M  V30 13270 H 1225.9 1.78186 -1.0035 0
M  V30 13271 H 1224.06 3.85722 0.360146 0
M  V30 13272 H 1224.47 5.01858 -1.52443 0
M  V30 13273 H 1225.95 5.51889 0.110941 0
M  V30 13274 H 1226.42 4.22325 1.20573 0
M  V30 13275 H 1227.03 4.22734 -0.466467 0
M  V30 13276 N 1225.34 0.486708 1.49896 0
M  V30 13277 C 1226.28 -0.335809 2.26727 0
M  V30 13278 C 1227.29 -0.94333 1.32684 0
M  V30 13279 O 1228.48 -0.82909 1.58077 0
M  V30 13280 C 1225.58 -1.48642 3.04563 0
M  V30 13281 C 1224.75 -0.988837 4.26076 0
M  V30 13282 C 1223.81 -2.01535 4.86076 0
M  V30 13283 O 1222.84 -1.58966 5.46552 0
M  V30 13284 N 1224.04 -3.34471 4.74457 0
M  V30 13285 H 1226.8 0.322919 2.97955 0
M  V30 13286 H 1224.36 0.318403 1.58738 0
M  V30 13287 H 1226.36 -2.17039 3.41579 0
M  V30 13288 H 1224.93 -2.04956 2.36033 0
M  V30 13289 H 1224.15 -0.130232 3.93985 0
M  V30 13290 H 1225.43 -0.634562 5.04827 0
M  V30 13291 H 1224.83 -3.71755 4.26398 0
M  V30 13292 H 1223.39 -3.98621 5.15698 0
M  V30 13293 N 1226.82 -1.56058 0.219941 0
M  V30 13294 C 1228.1 -1.90087 -0.46112 0
M  V30 13295 C 1228.48 -1.13705 -1.77861 0
M  V30 13296 O 1227.83 -0.245868 -2.27173 0
M  V30 13297 C 1228.04 -3.42786 -0.655644 0
M  V30 13298 C 1229.39 -4.13517 -0.963803 0
M  V30 13299 O 1230.41 -3.48376 -0.742488 0
M  V30 13300 O 1229.27 -5.28692 -1.38374 0
M  V30 13301 H 1226.36 -0.790311 -0.243595 0
M  V30 13302 H 1228.91 -1.67665 0.262005 0
M  V30 13303 H 1227.68 -3.90341 0.273738 0
M  V30 13304 H 1227.3 -3.70982 -1.43032 0
M  V30 13305 N 1228.3 0.053464 -1.57509 0
M  V30 13306 C 1229.58 0.783141 -1.79238 0
M  V30 13307 C 1229.96 1.94855 -0.812069 0
M  V30 13308 O 1229.31 2.28 0.151006 0
M  V30 13309 C 1229.52 1.239 -3.26266 0
M  V30 13310 C 1230.86 1.66492 -3.90596 0
M  V30 13311 O 1231.89 1.33421 -3.30269 0
M  V30 13312 O 1230.75 2.27785 -4.96766 0
M  V30 13313 H 1227.84 0.376696 -0.736226 0
M  V30 13314 H 1230.39 0.0321229 -1.6967 0
M  V30 13315 H 1229.16 0.405948 -3.89189 0
M  V30 13316 H 1228.78 2.05078 -3.4063 0
M  V30 13317 N 1229.78 1.54207 0.325255 0
M  V30 13318 C 1231.03 1.71544 1.06091 0
M  V30 13319 C 1231.34 0.495137 1.89229 0
M  V30 13320 O 1232.55 0.54982 2.65874 0
M  V30 13321 C 1231 3.03412 1.93569 0
M  V30 13322 C 1230.61 4.32842 1.1555 0
M  V30 13323 C 1232.36 3.30113 2.66881 0
M  V30 13324 C 1230.26 5.55773 2.02164 0
M  V30 13325 H 1229.19 0.639281 0.399795 0
M  V30 13326 H 1231.84 1.80701 0.319261 0
M  V30 13327 H 1230.23 2.88158 2.71626 0
M  V30 13328 H 1231.4 4.58857 0.42276 0
M  V30 13329 H 1229.71 4.12893 0.539277 0
M  V30 13330 H 1232.31 4.19151 3.31988 0
M  V30 13331 H 1232.65 2.47918 3.34428 0
M  V30 13332 H 1233.19 3.46227 1.95887 0
M  V30 13333 H 1229.93 6.40565 1.39128 0
M  V30 13334 H 1229.45 5.3398 2.73177 0
M  V30 13335 H 1231.13 5.92113 2.60789 0
M  V30 13336 N 1231.26 -0.58723 1.46251 0
M  V30 13337 C 1232.17 -1.72455 1.59048 0
M  V30 13338 C 1233.18 -1.67416 0.47413 0
M  V30 13339 O 1234.36 -1.87406 0.737633 0
M  V30 13340 C 1231.42 -3.08953 1.57318 0
M  V30 13341 C 1230.49 -3.25291 2.80151 0
M  V30 13342 C 1229.72 -4.55277 2.78493 0
M  V30 13343 O 1229.94 -5.38883 1.8698 0
M  V30 13344 O 1228.88 -4.74765 3.69975 0
M  V30 13345 H 1232.7 -1.64606 2.55223 0
M  V30 13346 H 1230.29 -0.753742 1.28993 0
M  V30 13347 H 1232.17 -3.90239 1.59033 0
M  V30 13348 H 1230.84 -3.17249 0.643025 0
M  V30 13349 H 1229.75 -2.43515 2.83991 0
M  V30 13350 H 1231.08 -3.21883 3.7236 0
M  V30 13351 N 1232.74 -1.33881 -0.831482 0
M  V30 13352 C 1233.68 -1.24748 -1.94182 0
M  V30 13353 C 1234.65 -0.124516 -1.65633 0
M  V30 13354 O 1235.84 -0.304045 -1.88362 0
M  V30 13355 C 1232.98 -1.00016 -3.30289 0
M  V30 13356 C 1232.09 -2.21007 -3.71187 0
M  V30 13357 C 1231.23 -1.89629 -4.962 0
M  V30 13358 C 1230.26 -3.06811 -5.29654 0
M  V30 13359 N 1229.4 -2.75372 -6.45844 0
M  V30 13360 H 1234.24 -2.19709 -2.01325 0
M  V30 13361 H 1231.78 -1.09245 -0.985081 0
M  V30 13362 H 1233.74 -0.837167 -4.08714 0
M  V30 13363 H 1232.37 -0.0872582 -3.22682 0
M  V30 13364 H 1231.42 -2.48256 -2.88224 0
M  V30 13365 H 1232.73 -3.08587 -3.91887 0
M  V30 13366 H 1231.88 -1.70016 -5.82391 0
M  V30 13367 H 1230.62 -0.992964 -4.77485 0
M  V30 13368 H 1229.63 -3.27029 -4.41964 0
M  V30 13369 H 1230.85 -3.97909 -5.50314 0
M  V30 13370 H 1228.8 -1.87607 -6.28601 0
M  V30 13371 H 1228.72 -3.56483 -6.66675 0
M  V30 13372 H 1229.98 -2.59244 -7.35128 0
M  V30 13373 N 1234.21 1.05064 -1.1747 0
M  V30 13374 C 1235.16 2.11131 -0.860692 0
M  V30 13375 C 1236.15 1.60049 0.165288 0
M  V30 13376 O 1237.34 1.76961 -0.0373288 0
M  V30 13377 C 1234.47 3.41222 -0.37718 0
M  V30 13378 C 1233.55 3.99097 -1.43466 0
M  V30 13379 N 1233.95 4.30918 -2.64846 0
M  V30 13380 C 1232.24 4.26851 -1.29282 0
M  V30 13381 C 1232.94 4.77092 -3.32804 0
M  V30 13382 N 1231.92 4.77291 -2.60182 0
M  V30 13383 H 1235.72 2.33597 -1.78353 0
M  V30 13384 H 1233.24 1.22724 -1.06361 0
M  V30 13385 H 1235.23 4.16685 -0.133766 0
M  V30 13386 H 1233.89 3.20188 0.53944 0
M  V30 13387 H 1234.9 4.20877 -3.01799 0
M  V30 13388 H 1231.58 4.15197 -0.437949 0
M  V30 13389 H 1232.97 5.10815 -4.36483 0
M  V30 13390 N 1235.69 0.975146 1.23809 0
M  V30 13391 C 1236.62 0.469151 2.24347 0
M  V30 13392 C 1237.64 -0.426156 1.57123 0
M  V30 13393 O 1238.83 -0.231136 1.76997 0
M  V30 13394 C 1235.93 -0.34121 3.37178 0
M  V30 13395 C 1235.1 0.545968 4.33979 0
M  V30 13396 C 1234.16 -0.209648 5.25782 0
M  V30 13397 O 1233.18 0.398953 5.678 0
M  V30 13398 N 1234.39 -1.49713 5.60862 0
M  V30 13399 H 1237.15 1.33359 2.68394 0
M  V30 13400 H 1234.71 0.847814 1.37927 0
M  V30 13401 H 1236.7 -0.854924 3.95567 0
M  V30 13402 H 1235.27 -1.10663 2.92357 0
M  V30 13403 H 1234.49 1.24057 3.7417 0
M  V30 13404 H 1235.78 1.15077 4.95615 0
M  V30 13405 H 1235.18 -2.0132 5.28665 0
M  V30 13406 H 1233.74 -1.95639 6.21746 0
M  V30 13407 N 1237.17 -1.38817 0.746158 0
M  V30 13408 C 1238.39 -2.05096 0.308302 0
M  V30 13409 C 1238.82 -1.55902 -1.05244 0
M  V30 13410 O 1238.18 -0.707685 -1.66918 0
M  V30 13411 C 1238.23 -3.59068 0.332016 0
M  V30 13412 O 1237.33 -4.06813 -0.676547 0
M  V30 13413 H 1236.67 -0.649523 0.1379 0
M  V30 13414 H 1239.2 -1.77637 1.0152 0
M  V30 13415 H 1239.21 -4.07601 0.180293 0
M  V30 13416 H 1237.89 -3.94234 1.32487 0
M  V30 13417 H 1236.46 -3.69666 -0.490046 0
M  V30 13418 N 1238.65 -0.49465 -1.49636 0
M  V30 13419 C 1239.92 0.114829 -1.95263 0
M  V30 13420 C 1240.3 1.54739 -1.43593 0
M  V30 13421 O 1239.65 2.1915 -0.646953 0
M  V30 13422 C 1239.86 0.0339912 -3.48983 0
M  V30 13423 C 1241.21 0.211108 -4.24075 0
M  V30 13424 O 1242.23 0.109478 -3.56032 0
M  V30 13425 O 1241.09 0.418971 -5.44892 0
M  V30 13426 H 1238.19 0.0987883 -0.821078 0
M  V30 13427 H 1240.73 -0.556736 -1.60308 0
M  V30 13428 H 1239.51 -0.965287 -3.79207 0
M  V30 13429 H 1239.13 0.745982 -3.90539 0
M  V30 13430 N 1240.13 1.55939 -0.228214 0
M  V30 13431 C 1241.09 2.1932 0.665681 0
M  V30 13432 C 1242.09 1.15699 1.11671 0
M  V30 13433 O 1243.28 1.40893 1.02444 0
M  V30 13434 C 1240.41 2.82185 1.9127 0
M  V30 13435 H 1241.6 2.99687 0.112986 0
M  V30 13436 H 1239.16 1.56285 0.0213865 0
M  V30 13437 H 1239.89 2.05706 2.5071 0
M  V30 13438 H 1239.68 3.58073 1.5977 0
M  V30 13439 H 1241.17 3.30748 2.54942 0
M  V30 13440 N 1241.6 -0.0451101 1.57535 0
M  V30 13441 C 1242.85 -0.737654 1.88157 0
M  V30 13442 C 1243.17 -1.76743 0.823817 0
M  V30 13443 O 1242.44 -1.95366 -0.144503 0
M  V30 13444 H 1241.02 -0.275431 0.694368 0
M  V30 13445 H 1243.69 -0.0148651 1.94894 0
M  V30 13446 H 1242.78 -1.23726 2.86528 0
M  V30 13447 N 1243.08 -1.54377 -0.317073 0
M  V30 13448 C 1244.01 -1.8721 -1.39552 0
M  V30 13449 C 1244.99 -0.729483 -1.53664 0
M  V30 13450 O 1246.18 -0.983799 -1.67437 0
M  V30 13451 C 1243.31 -2.1052 -2.76222 0
M  V30 13452 C 1242.26 -3.26366 -2.76892 0
M  V30 13453 C 1241.59 -3.35061 -4.16699 0
M  V30 13454 C 1242.89 -4.63862 -2.40061 0
M  V30 13455 H 1244.58 -2.77532 -1.12323 0
M  V30 13456 H 1242.13 -1.33536 -0.538897 0
M  V30 13457 H 1244.08 -2.32073 -3.51739 0
M  V30 13458 H 1242.81 -1.16953 -3.04942 0
M  V30 13459 H 1241.46 -3.0471 -2.03831 0
M  V30 13460 H 1241.11 -2.39041 -4.4257 0
M  V30 13461 H 1240.81 -4.12923 -4.18053 0
M  V30 13462 H 1242.34 -3.58856 -4.94019 0
M  V30 13463 H 1243.75 -4.85252 -3.05292 0
M  V30 13464 H 1242.15 -5.44321 -2.52655 0
M  V30 13465 H 1243.22 -4.6567 -1.35202 0
M  V30 13466 N 1244.56 0.579466 -1.4656 0
M  V30 13467 C 1245.79 1.36153 -1.55389 0
M  V30 13468 C 1246.2 1.88192 -0.195062 0
M  V30 13469 O 1245.54 1.64464 0.81836 0
M  V30 13470 C 1245.6 2.58269 -2.50075 0
M  V30 13471 C 1245.27 2.27675 -3.96249 0
M  V30 13472 C 1246.26 1.86313 -4.85369 0
M  V30 13473 C 1243.95 2.39719 -4.41407 0
M  V30 13474 C 1245.94 1.57395 -6.17661 0
M  V30 13475 C 1243.63 2.10414 -5.73733 0
M  V30 13476 C 1244.63 1.69317 -6.6168 0
M  V30 13477 O 1244.32 1.40373 -7.9155 0
M  V30 13478 H 1244.05 0.422174 -0.527963 0
M  V30 13479 H 1246.6 0.711089 -1.92698 0
M  V30 13480 H 1244.83 3.26129 -2.0779 0
M  V30 13481 H 1246.52 3.20339 -2.49275 0
M  V30 13482 H 1247.29 1.7652 -4.51736 0
M  V30 13483 H 1243.17 2.70669 -3.73175 0
M  V30 13484 H 1246.71 1.25244 -6.86265 0
M  V30 13485 H 1242.61 2.19833 -6.06913 0
M  V30 13486 H 1243.38 1.54191 -8.03845 0
M  V30 13487 N 1246.04 1.3432 0.824371 0
M  V30 13488 C 1247.28 1.26783 1.58284 0
M  V30 13489 C 1247.62 -0.162282 1.93521 0
M  V30 13490 O 1246.89 -1.1073 1.59903 0
M  V30 13491 C 1247.18 2.15725 2.88331 0
M  V30 13492 C 1247.03 3.67266 2.59684 0
M  V30 13493 C 1248.35 2.04141 3.8989 0
M  V30 13494 H 1245.47 0.461893 0.574303 0
M  V30 13495 H 1248.11 1.64558 0.949769 0
M  V30 13496 H 1246.26 1.83639 3.42358 0
M  V30 13497 H 1247.93 4.09711 2.11978 0
M  V30 13498 H 1246.17 3.88426 1.93151 0
M  V30 13499 H 1246.84 4.24863 3.52414 0
M  V30 13500 H 1249.32 2.3231 3.45212 0
M  V30 13501 H 1248.2 2.68601 4.7869 0
M  V30 13502 H 1248.46 1.01795 4.30221 0
M  V30 13503 N 1247.52 -1.0444 1.18026 0
M  V30 13504 C 1248.77 -1.7697 0.9677 0
M  V30 13505 C 1249.08 -1.88995 -0.503994 0
M  V30 13506 O 1250.28 -2.58342 -0.834968 0
M  V30 13507 C 1248.74 -3.1816 1.68232 0
M  V30 13508 C 1248.35 -3.14241 3.19307 0
M  V30 13509 C 1250.09 -3.95095 1.55244 0
M  V30 13510 C 1248 -4.50266 3.83425 0
M  V30 13511 H 1246.93 -0.663355 0.358436 0
M  V30 13512 H 1249.58 -1.17003 1.4136 0
M  V30 13513 H 1247.96 -3.78501 1.16418 0
M  V30 13514 H 1249.14 -2.63373 3.78115 0
M  V30 13515 H 1247.45 -2.50805 3.32394 0
M  V30 13516 H 1250.05 -4.95681 2.00511 0
M  V30 13517 H 1250.39 -4.13236 0.504125 0
M  V30 13518 H 1250.92 -3.4132 2.04317 0
M  V30 13519 H 1247.66 -4.37329 4.88286 0
M  V30 13520 H 1247.18 -5.01251 3.29404 0
M  V30 13521 H 1248.86 -5.1919 3.86071 0
M  V30 13522 N 1248.99 -0.981699 -1.2329 0
M  V30 13523 C 1250.24 -0.652266 -1.92024 0
M  V30 13524 C 1250.57 0.812297 -1.76396 0
M  V30 13525 O 1249.85 1.5861 -1.12575 0
M  V30 13526 C 1250.13 -1.04506 -3.44602 0
M  V30 13527 C 1249.98 -2.56735 -3.69333 0
M  V30 13528 C 1251.3 -0.589937 -4.36128 0
M  V30 13529 H 1248.42 -0.238437 -0.697364 0
M  V30 13530 H 1251.06 -1.22322 -1.45387 0
M  V30 13531 H 1249.21 -0.559242 -3.84454 0
M  V30 13532 H 1250.89 -3.12901 -3.38955 0
M  V30 13533 H 1249.13 -2.9931 -3.14 0
M  V30 13534 H 1249.8 -2.79269 -4.76144 0
M  V30 13535 H 1252.28 -1.00706 -4.0373 0
M  V30 13536 H 1251.15 -0.893192 -5.41584 0
M  V30 13537 H 1251.41 0.509707 -4.39152 0
M  V30 13538 N 1250.47 1.3842 -0.753509 0
M  V30 13539 C 1251.88 1.82847 -0.377331 0
M  V30 13540 C 1252.23 1.62867 1.09401 0
M  V30 13541 O 1251.36 1.12981 1.84565 0
M  V30 13542 C 1251.95 3.31945 -0.678095 0
M  V30 13543 C 1250.51 3.7472 -0.355196 0
M  V30 13544 C 1249.66 2.61193 -0.931311 0
M  V30 13545 H 1252.61 1.2715 -0.949667 0
M  V30 13546 H 1252.63 3.80475 0.0437292 0
M  V30 13547 H 1252.14 3.46455 -1.74902 0
M  V30 13548 H 1250.25 3.65789 0.70915 0
M  V30 13549 H 1250.36 4.71487 -0.850693 0
M  V30 13550 H 1248.72 2.5219 -0.356695 0
M  V30 13551 H 1249.51 2.78503 -2.00727 0
M  V30 13552 N 1251.95 0.502579 1.49372 0
M  V30 13553 C 1253.2 -0.0414423 2.02758 0
M  V30 13554 C 1253.53 -1.36499 1.38136 0
M  V30 13555 O 1252.8 -1.87487 0.517593 0
M  V30 13556 C 1253.09 -0.192333 3.59586 0
M  V30 13557 C 1252.94 1.15445 4.34733 0
M  V30 13558 C 1254.26 -0.932218 4.30114 0
M  V30 13559 H 1251.38 -0.0135869 0.736875 0
M  V30 13560 H 1254.02 0.654296 1.78379 0
M  V30 13561 H 1252.17 -0.78491 3.80488 0
M  V30 13562 H 1253.84 1.78603 4.25322 0
M  V30 13563 H 1252.09 1.74333 3.97228 0
M  V30 13564 H 1252.76 1.00216 5.42827 0
M  V30 13565 H 1255.23 -0.429632 4.13876 0
M  V30 13566 H 1254.11 -1.00664 5.39591 0
M  V30 13567 H 1254.37 -1.9763 3.95468 0
M  V30 13568 N 1253.43 -1.55816 0.23648 0
M  V30 13569 C 1254.68 -1.97862 -0.391579 0
M  V30 13570 C 1254.99 -1.1276 -1.59827 0
M  V30 13571 O 1256.2 -1.44772 -2.29681 0
M  V30 13572 C 1254.65 -3.5204 -0.748065 0
M  V30 13573 C 1254.26 -4.45867 0.436643 0
M  V30 13574 C 1256 -4.02766 -1.3409 0
M  V30 13575 C 1253.91 -5.91373 0.0568909 0
M  V30 13576 H 1252.84 -0.738913 -0.150078 0
M  V30 13577 H 1255.49 -1.80415 0.335052 0
M  V30 13578 H 1253.87 -3.65143 -1.53254 0
M  V30 13579 H 1255.05 -4.44519 1.21408 0
M  V30 13580 H 1253.36 -4.05565 0.943702 0
M  V30 13581 H 1255.96 -5.08987 -1.63817 0
M  V30 13582 H 1256.3 -3.49496 -2.26182 0
M  V30 13583 H 1256.84 -3.92946 -0.619548 0
M  V30 13584 H 1253.58 -6.48657 0.944682 0
M  V30 13585 H 1253.1 -5.95881 -0.684557 0
M  V30 13586 H 1254.77 -6.45972 -0.364586 0
M  V30 13587 N 1254.91 0.036755 -1.57557 0
M  V30 13588 C 1256.16 0.728107 -1.881 0
M  V30 13589 C 1256.47 1.7693 -0.833974 0
M  V30 13590 O 1257.67 2.5127 -1.02837 0
M  V30 13591 C 1256.13 1.34604 -3.33781 0
M  V30 13592 C 1255.74 0.341599 -4.46696 0
M  V30 13593 C 1257.48 2.01772 -3.73481 0
M  V30 13594 C 1255.39 0.967444 -5.83433 0
M  V30 13595 H 1254.32 0.275695 -0.701789 0
M  V30 13596 H 1256.97 -0.0177555 -1.83491 0
M  V30 13597 H 1255.35 2.14135 -3.3311 0
M  V30 13598 H 1256.53 -0.426441 -4.58823 0
M  V30 13599 H 1254.84 -0.227558 -4.15778 0
M  V30 13600 H 1257.44 2.49435 -4.72955 0
M  V30 13601 H 1257.78 2.83255 -3.05077 0
M  V30 13602 H 1258.31 1.29026 -3.76294 0
M  V30 13603 H 1255.05 0.19219 -6.55218 0
M  V30 13604 H 1254.57 1.70551 -5.75041 0
M  V30 13605 H 1256.25 1.47705 -6.29914 0
M  V30 13606 N 1256.39 1.54543 0.308881 0
M  V30 13607 C 1257.61 1.77753 1.06857 0
M  V30 13608 C 1258.04 0.531616 1.80431 0
M  V30 13609 O 1257.39 -0.517513 1.73757 0
M  V30 13610 C 1257.44 2.97968 2.03094 0
M  V30 13611 O 1256.55 2.70541 3.11257 0
M  V30 13612 H 1255.89 0.588576 0.307368 0
M  V30 13613 H 1258.42 2.01607 0.348703 0
M  V30 13614 H 1258.43 3.25722 2.45702 0
M  V30 13615 H 1257.1 3.88314 1.48948 0
M  V30 13616 H 1255.68 2.53781 2.7322 0
M  V30 13617 N 1257.86 -0.571685 1.46866 0
M  V30 13618 C 1259.09 -1.36008 1.56578 0
M  V30 13619 C 1259.51 -1.86909 0.211326 0
M  V30 13620 O 1258.87 -1.62179 -0.810421 0
M  V30 13621 C 1258.92 -2.51598 2.58323 0
M  V30 13622 O 1258.02 -3.53383 2.1259 0
M  V30 13623 H 1257.36 -0.404593 0.526498 0
M  V30 13624 H 1259.89 -0.692357 1.92529 0
M  V30 13625 H 1259.9 -2.98366 2.78283 0
M  V30 13626 H 1258.58 -2.13904 3.56676 0
M  V30 13627 H 1257.16 -3.13019 2.02666 0
M  V30 13628 N 1259.34 -1.34755 -0.817236 0
M  V30 13629 C 1260.57 -1.30676 -1.61054 0
M  V30 13630 C 1260.99 0.115343 -1.87746 0
M  V30 13631 O 1260.35 1.07887 -1.45705 0
M  V30 13632 C 1260.4 -2.10881 -2.92509 0
M  V30 13633 O 1259.5 -1.48223 -3.84842 0
M  V30 13634 H 1258.84 -0.448531 -0.489608 0
M  V30 13635 H 1261.37 -1.77642 -1.01512 0
M  V30 13636 H 1261.38 -2.22446 -3.42026 0
M  V30 13637 H 1260.06 -3.14274 -2.72406 0
M  V30 13638 H 1258.63 -1.45434 -3.4337 0
M  V30 13639 N 1260.82 1.03812 -1.18578 0
M  V30 13640 C 1262.07 1.76455 -0.977071 0
M  V30 13641 C 1262.38 1.8926 0.493964 0
M  V30 13642 O 1263.59 2.58781 0.821256 0
M  V30 13643 C 1262.04 3.17264 -1.69917 0
M  V30 13644 C 1261.65 3.12543 -3.20969 0
M  V30 13645 C 1263.4 3.94266 -1.57337 0
M  V30 13646 C 1261.3 4.48226 -3.85807 0
M  V30 13647 H 1260.23 0.661445 -0.361949 0
M  V30 13648 H 1262.88 1.16252 -1.41978 0
M  V30 13649 H 1261.27 3.77878 -1.18424 0
M  V30 13650 H 1262.44 2.61364 -3.79507 0
M  V30 13651 H 1260.75 2.49039 -3.33719 0
M  V30 13652 H 1263.35 4.9461 -2.03137 0
M  V30 13653 H 1263.69 4.12963 -0.526033 0
M  V30 13654 H 1264.23 3.40232 -2.06124 0
M  V30 13655 H 1260.97 4.34734 -4.90599 0
M  V30 13656 H 1260.49 4.99497 -3.32058 0
M  V30 13657 H 1262.17 5.17135 -3.88819 0
M  V30 13658 N 1262.3 0.988223 1.22768 0
M  V30 13659 C 1263.23 0.554478 2.26821 0
M  V30 13660 C 1264.21 -0.416293 1.64927 0
M  V30 13661 O 1265.39 -0.30795 1.91743 0
M  V30 13662 C 1262.52 -0.136266 3.47033 0
M  V30 13663 C 1261.48 0.752575 4.21332 0
M  V30 13664 C 1260.8 -0.0708236 5.34653 0
M  V30 13665 C 1262.1 2.04717 4.80508 0
M  V30 13666 H 1263.8 1.42423 2.63355 0
M  V30 13667 H 1261.34 0.686267 1.26595 0
M  V30 13668 H 1263.3 -0.451068 4.18979 0
M  V30 13669 H 1262.02 -1.04053 3.09581 0
M  V30 13670 H 1260.68 1.05095 3.51213 0
M  V30 13671 H 1260.33 -0.975859 4.93443 0
M  V30 13672 H 1260.03 0.520835 5.85287 0
M  V30 13673 H 1261.55 -0.379828 6.09417 0
M  V30 13674 H 1262.97 1.79663 5.44421 0
M  V30 13675 H 1261.36 2.58726 5.41462 0
M  V30 13676 H 1262.43 2.72896 4.00819 0
M  V30 13677 N 1263.78 -1.38018 0.760839 0
M  V30 13678 C 1264.71 -2.32995 0.153557 0
M  V30 13679 C 1265.69 -1.55234 -0.695448 0
M  V30 13680 O 1266.87 -1.8352 -0.635148 0
M  V30 13681 C 1264 -3.39437 -0.734811 0
M  V30 13682 C 1262.96 -4.27998 0.0120287 0
M  V30 13683 C 1262.28 -5.25359 -0.995067 0
M  V30 13684 C 1263.58 -5.08687 1.18468 0
M  V30 13685 H 1265.28 -2.8403 0.946956 0
M  V30 13686 H 1262.82 -1.36562 0.456816 0
M  V30 13687 H 1264.77 -4.0485 -1.16938 0
M  V30 13688 H 1263.5 -2.86901 -1.56061 0
M  V30 13689 H 1262.16 -3.64102 0.427254 0
M  V30 13690 H 1261.81 -4.69108 -1.81512 0
M  V30 13691 H 1261.51 -5.85469 -0.499969 0
M  V30 13692 H 1263.03 -5.93648 -1.4288 0
M  V30 13693 H 1264.44 -5.67299 0.8273 0
M  V30 13694 H 1262.84 -5.78068 1.61112 0
M  V30 13695 H 1263.91 -4.42 1.99409 0
M  V30 13696 N 1265.25 -0.510493 -1.49103 0
M  V30 13697 C 1266.18 0.251999 -2.32136 0
M  V30 13698 C 1267.16 0.953613 -1.40855 0
M  V30 13699 O 1268.35 0.943178 -1.69758 0
M  V30 13700 C 1265.48 1.31118 -3.21598 0
M  V30 13701 C 1264.43 0.72888 -4.21748 0
M  V30 13702 C 1263.76 1.88928 -5.0021 0
M  V30 13703 C 1265.06 -0.286425 -5.21514 0
M  V30 13704 H 1266.75 -0.441102 -2.96133 0
M  V30 13705 H 1264.3 -0.213577 -1.42407 0
M  V30 13706 H 1266.25 1.8524 -3.78503 0
M  V30 13707 H 1264.98 2.0336 -2.55563 0
M  V30 13708 H 1263.64 0.209336 -3.66002 0
M  V30 13709 H 1263.28 2.59961 -4.30615 0
M  V30 13710 H 1262.98 1.50568 -5.67981 0
M  V30 13711 H 1264.51 2.43465 -5.59962 0
M  V30 13712 H 1265.92 0.166997 -5.73057 0
M  V30 13713 H 1264.32 -0.586361 -5.97228 0
M  V30 13714 H 1265.39 -1.19904 -4.69842 0
M  V30 13715 N 1266.73 1.55688 -0.24474 0
M  V30 13716 C 1267.98 1.98498 0.379852 0
M  V30 13717 C 1268.3 1.13416 1.58625 0
M  V30 13718 O 1267.57 0.216456 1.947 0
M  V30 13719 H 1266.15 0.73312 0.143334 0
M  V30 13720 H 1268.81 1.91858 -0.343027 0
M  V30 13721 H 1267.91 3.04367 0.690463 0
M  V30 13722 N 1268.21 -0.0283989 1.57574 0
M  V30 13723 C 1269.44 -0.730831 1.93563 0
M  V30 13724 C 1269.85 -1.68857 0.844556 0
M  V30 13725 O 1269.21 -1.8162 -0.178971 0
M  V30 13726 C 1269.26 -1.48731 3.29486 0
M  V30 13727 O 1268.98 -0.568017 4.34402 0
M  V30 13728 C 1270.48 -2.28684 3.79761 0
M  V30 13729 H 1267.7 -0.205346 0.638807 0
M  V30 13730 H 1270.25 0.0142728 2.04495 0
M  V30 13731 H 1268.4 -2.18429 3.19949 0
M  V30 13732 H 1268.82 -1.09861 5.12865 0
M  V30 13733 H 1270.29 -2.77157 4.77376 0
M  V30 13734 H 1270.77 -3.10133 3.10989 0
M  V30 13735 H 1271.37 -1.64059 3.92383 0
M  V30 13736 N 1269.69 -1.54705 -0.300681 0
M  V30 13737 C 1270.62 -1.88679 -1.37559 0
M  V30 13738 C 1271.6 -0.74574 -1.52881 0
M  V30 13739 O 1272.78 -1.0015 -1.66384 0
M  V30 13740 C 1269.91 -2.13438 -2.73974 0
M  V30 13741 C 1268.87 -3.29284 -2.73415 0
M  V30 13742 C 1268.19 -3.39462 -4.13122 0
M  V30 13743 C 1269.49 -4.66382 -2.35128 0
M  V30 13744 H 1271.19 -2.78707 -1.09373 0
M  V30 13745 H 1268.73 -1.341 -0.524704 0
M  V30 13746 H 1270.69 -2.35791 -3.49257 0
M  V30 13747 H 1269.41 -1.20181 -3.03684 0
M  V30 13748 H 1268.07 -3.06855 -2.00588 0
M  V30 13749 H 1267.72 -2.43721 -4.4001 0
M  V30 13750 H 1267.42 -4.17334 -4.1365 0
M  V30 13751 H 1268.94 -3.64075 -4.90185 0
M  V30 13752 H 1270.36 -4.88463 -3.00128 0
M  V30 13753 H 1268.75 -5.4697 -2.46867 0
M  V30 13754 H 1269.82 -4.67078 -1.30256 0
M  V30 13755 N 1271.17 0.563888 -1.47167 0
M  V30 13756 C 1272.1 1.68137 -1.62025 0
M  V30 13757 C 1273.08 1.63481 -0.469899 0
M  V30 13758 O 1274.26 1.81206 -0.698432 0
M  V30 13759 C 1271.39 3.06779 -1.62801 0
M  V30 13760 C 1270.35 3.26278 -2.76996 0
M  V30 13761 C 1269.67 4.65638 -2.62841 0
M  V30 13762 C 1270.97 3.12295 -4.18651 0
M  V30 13763 H 1272.67 1.55958 -2.55573 0
M  V30 13764 H 1270.21 0.74887 -1.22996 0
M  V30 13765 H 1272.17 3.84795 -1.71787 0
M  V30 13766 H 1270.89 3.19901 -0.658097 0
M  V30 13767 H 1269.55 2.50668 -2.67509 0
M  V30 13768 H 1269.2 4.75551 -1.63892 0
M  V30 13769 H 1268.9 4.79635 -3.39447 0
M  V30 13770 H 1270.42 5.45798 -2.73746 0
M  V30 13771 H 1271.83 3.80136 -4.2915 0
M  V30 13772 H 1270.23 3.37805 -4.95992 0
M  V30 13773 H 1271.3 2.09126 -4.37486 0
M  V30 13774 N 1272.64 1.35187 0.810078 0
M  V30 13775 C 1273.89 1.27602 1.56207 0
M  V30 13776 C 1274.21 -0.148621 1.95035 0
M  V30 13777 O 1275.41 -0.346721 2.69277 0
M  V30 13778 C 1273.87 2.23759 2.81886 0
M  V30 13779 C 1273.48 3.71549 2.5031 0
M  V30 13780 C 1275.22 2.25109 3.59898 0
M  V30 13781 C 1273.13 4.5954 3.7226 0
M  V30 13782 H 1272.06 0.474078 0.586316 0
M  V30 13783 H 1274.71 1.6043 0.890759 0
M  V30 13784 H 1273.09 1.83898 3.5071 0
M  V30 13785 H 1274.26 4.20025 1.89515 0
M  V30 13786 H 1272.58 3.72773 1.85551 0
M  V30 13787 H 1275.18 2.88066 4.50469 0
M  V30 13788 H 1275.52 1.25387 3.96968 0
M  V30 13789 H 1276.05 2.63481 2.98031 0
M  V30 13790 H 1272.79 5.60246 3.403 0
M  V30 13791 H 1272.31 4.15792 4.32293 0
M  V30 13792 H 1273.99 4.74789 4.39528 0
M  V30 13793 N 1274.12 -1.03182 1.19127 0
M  V30 13794 C 1275.35 -1.80703 1.01791 0
M  V30 13795 C 1275.77 -1.83147 -0.428824 0
M  V30 13796 O 1275.13 -1.2553 -1.30812 0
M  V30 13797 C 1275.18 -3.23754 1.58794 0
M  V30 13798 O 1274.28 -4.04261 0.815274 0
M  V30 13799 H 1273.62 -0.557944 0.359992 0
M  V30 13800 H 1276.15 -1.29887 1.58084 0
M  V30 13801 H 1276.16 -3.7451 1.61884 0
M  V30 13802 H 1274.84 -3.2129 2.64094 0
M  V30 13803 H 1273.42 -3.62909 0.857392 0
M  V30 13804 N 1275.6 -0.99472 -1.22242 0
M  V30 13805 C 1276.55 -0.517696 -2.22045 0
M  V30 13806 C 1277.53 0.415108 -1.55453 0
M  V30 13807 O 1278.73 0.241632 -1.75343 0
M  V30 13808 C 1275.86 0.164524 -3.42906 0
M  V30 13809 C 1274.94 -0.788692 -4.16702 0
M  V30 13810 N 1275.33 -1.93729 -4.67229 0
M  V30 13811 C 1273.63 -0.604946 -4.41878 0
M  V30 13812 C 1274.33 -2.53573 -5.23522 0
M  V30 13813 N 1273.31 -1.81825 -5.12289 0
M  V30 13814 H 1277.11 -1.39368 -2.58754 0
M  V30 13815 H 1274.62 -0.857215 -1.37933 0
M  V30 13816 H 1276.62 0.523668 -4.13598 0
M  V30 13817 H 1275.28 1.03662 -3.07708 0
M  V30 13818 H 1276.29 -2.31802 -4.63129 0
M  V30 13819 H 1272.97 0.220932 -4.16915 0
M  V30 13820 H 1274.36 -3.50653 -5.73142 0
M  V30 13821 N 1277.08 1.37613 -0.768148 0
M  V30 13822 C 1278.01 2.28935 -0.110234 0
M  V30 13823 C 1279.02 1.48459 0.668122 0
M  V30 13824 O 1280.21 1.71154 0.506808 0
M  V30 13825 C 1277.31 3.27606 0.867598 0
M  V30 13826 C 1276.49 4.37163 0.143819 0
M  V30 13827 C 1275.54 5.15931 1.03449 0
M  V30 13828 O 1274.57 5.67003 0.499605 0
M  V30 13829 N 1275.77 5.30311 2.36114 0
M  V30 13830 H 1278.54 2.86037 -0.894585 0
M  V30 13831 H 1276.1 1.4955 -0.620185 0
M  V30 13832 H 1278.09 3.77183 1.4668 0
M  V30 13833 H 1276.66 2.71298 1.55294 0
M  V30 13834 H 1275.88 3.89031 -0.636257 0
M  V30 13835 H 1277.17 5.0755 -0.356446 0
M  V30 13836 H 1276.57 4.90394 2.82011 0
M  V30 13837 H 1275.12 5.83209 2.9105 0
M  V30 13838 N 1278.56 0.518393 1.4883 0
M  V30 13839 C 1279.97 0.175476 1.58632 0
M  V30 13840 C 1280.17 -1.32081 1.52174 0
M  V30 13841 O 1279.23 -2.09817 1.40474 0
M  V30 13842 C 1280.54 0.767722 2.90734 0
M  V30 13843 C 1282.09 0.735402 3.04238 0
M  V30 13844 C 1282.56 1.30602 4.38984 0
M  V30 13845 N 1284.06 1.26748 4.45521 0
M  V30 13846 C 1284.79 1.679 5.48267 0
M  V30 13847 N 1284.29 2.16728 6.58028 0
M  V30 13848 N 1286.08 1.59209 5.39082 0
M  V30 13849 H 1278.23 1.491 1.51271 0
M  V30 13850 H 1280.49 0.619497 0.717584 0
M  V30 13851 H 1280.2 1.81777 3.01081 0
M  V30 13852 H 1280.07 0.238119 3.76448 0
M  V30 13853 H 1282.46 -0.305852 2.93511 0
M  V30 13854 H 1282.54 1.30235 2.20165 0
M  V30 13855 H 1282.19 2.34614 4.50465 0
M  V30 13856 H 1282.12 0.714858 5.21725 0
M  V30 13857 H 1284.61 0.90991 3.66782 0
M  V30 13858 H 1284.92 2.46154 7.32549 0
M  V30 13859 H 1283.26 2.20714 6.59022 0
M  V30 13860 H 1286.46 1.20869 4.52226 0
M  V30 13861 H 1286.63 1.91602 6.19025 0
M  V30 13862 N 1280.03 -1.55556 0.252993 0
M  V30 13863 C 1280.97 -2.17683 -0.684776 0
M  V30 13864 C 1281.95 -1.13077 -1.16843 0
M  V30 13865 O 1283.13 -1.41495 -1.24545 0
M  V30 13866 C 1280.26 -2.78239 -1.93134 0
M  V30 13867 C 1279.3 -3.95953 -1.58504 0
M  V30 13868 S 1280.14 -5.31135 -0.682367 0
M  V30 13869 C 1281.29 -5.95147 -1.93779 0
M  V30 13870 H 1281.52 -2.96886 -0.156823 0
M  V30 13871 H 1279.06 -1.54355 0.0374019 0
M  V30 13872 H 1281.02 -3.13763 -2.64694 0
M  V30 13873 H 1279.68 -1.98971 -2.43042 0
M  V30 13874 H 1278.87 -4.36936 -2.51203 0
M  V30 13875 H 1278.47 -3.61738 -0.949815 0
M  V30 13876 H 1280.76 -6.13035 -2.88435 0
M  V30 13877 H 1281.71 -6.90445 -1.57135 0
M  V30 13878 H 1282.11 -5.24279 -2.09266 0
M  V30 13879 N 1281.51 0.0200419 -1.57587 0
M  V30 13880 C 1282.46 1.01784 -2.07144 0
M  V30 13881 C 1283.43 1.3537 -0.962501 0
M  V30 13882 O 1284.61 1.45553 -1.23365 0
M  V30 13883 C 1281.75 2.31091 -2.56302 0
M  V30 13884 C 1280.87 2.03584 -3.81022 0
M  V30 13885 C 1280 3.26827 -4.18757 0
M  V30 13886 C 1279.04 2.94915 -5.36369 0
M  V30 13887 N 1278.18 4.10636 -5.69493 0
M  V30 13888 H 1283.02 0.588288 -2.92136 0
M  V30 13889 H 1280.56 0.278848 -1.44433 0
M  V30 13890 H 1282.51 3.06656 -2.82874 0
M  V30 13891 H 1281.14 2.71752 -1.74215 0
M  V30 13892 H 1280.2 1.18475 -3.6148 0
M  V30 13893 H 1281.51 1.76049 -4.66699 0
M  V30 13894 H 1280.66 4.10753 -4.46505 0
M  V30 13895 H 1279.4 3.57483 -3.31749 0
M  V30 13896 H 1278.41 2.09392 -5.08365 0
M  V30 13897 H 1279.63 2.65528 -6.25037 0
M  V30 13898 H 1277.58 4.41226 -4.85444 0
M  V30 13899 H 1277.49 3.86556 -6.497 0
M  V30 13900 H 1278.76 4.95409 -6.01822 0
M  V30 13901 N 1282.99 1.54862 0.292472 0
M  V30 13902 C 1283.94 1.86403 1.36098 0
M  V30 13903 C 1284.91 0.713694 1.49985 0
M  V30 13904 O 1286.09 0.963134 1.64707 0
M  V30 13905 C 1283.23 2.1244 2.71962 0
M  V30 13906 C 1282.35 3.40038 2.66454 0
M  V30 13907 C 1281.48 3.55875 3.94368 0
M  V30 13908 C 1280.52 4.77235 3.83293 0
M  V30 13909 N 1279.66 4.89832 5.03 0
M  V30 13910 H 1284.5 2.77546 1.085 0
M  V30 13911 H 1282.03 1.37427 0.524607 0
M  V30 13912 H 1283.99 2.25533 3.50985 0
M  V30 13913 H 1282.62 1.24554 2.97802 0
M  V30 13914 H 1281.67 3.35521 1.79248 0
M  V30 13915 H 1282.99 4.29188 2.54163 0
M  V30 13916 H 1282.14 3.68679 4.8183 0
M  V30 13917 H 1280.88 2.64874 4.09503 0
M  V30 13918 H 1279.88 4.64455 2.94214 0
M  V30 13919 H 1281.11 5.69651 3.69695 0
M  V30 13920 H 1279.05 4.01756 5.18582 0
M  V30 13921 H 1278.97 5.72996 4.93165 0
M  V30 13922 H 1280.24 5.07001 5.92089 0
M  V30 13923 N 1284.47 -0.556076 1.47464 0
M  V30 13924 C 1285.4 -1.67275 1.62915 0
M  V30 13925 C 1286.38 -1.63229 0.478562 0
M  V30 13926 O 1287.56 -1.80833 0.708032 0
M  V30 13927 C 1284.69 -3.05911 1.64426 0
M  V30 13928 C 1283.65 -3.24804 2.78722 0
M  V30 13929 C 1282.97 -4.64238 2.65307 0
M  V30 13930 C 1284.27 -3.10071 4.20302 0
M  V30 13931 H 1285.97 -1.54601 2.56396 0
M  V30 13932 H 1283.51 -0.742337 1.23391 0
M  V30 13933 H 1285.47 -3.83878 1.73826 0
M  V30 13934 H 1284.19 -3.19547 0.675053 0
M  V30 13935 H 1282.85 -2.49246 2.68835 0
M  V30 13936 H 1282.5 -4.74675 1.66412 0
M  V30 13937 H 1282.2 -4.77828 3.41986 0
M  V30 13938 H 1283.72 -5.44339 2.76637 0
M  V30 13939 H 1285.14 -3.77855 4.3116 0
M  V30 13940 H 1283.53 -3.3517 4.97776 0
M  V30 13941 H 1284.6 -2.06803 4.38589 0
M  V30 13942 N 1285.95 -1.35615 -0.802897 0
M  V30 13943 C 1287.19 -1.29094 -1.56016 0
M  V30 13944 C 1287.52 0.133617 -1.9404 0
M  V30 13945 O 1286.78 1.09975 -1.61876 0
M  V30 13946 C 1287.08 -2.14653 -2.8576 0
M  V30 13947 C 1286.74 -3.63395 -2.66936 0
M  V30 13948 C 1285.4 -4.03937 -2.61511 0
M  V30 13949 C 1287.76 -4.57758 -2.49212 0
M  V30 13950 C 1285.08 -5.37006 -2.36309 0
M  V30 13951 C 1287.44 -5.91029 -2.25539 0
M  V30 13952 C 1286.1 -6.30712 -2.18538 0
M  V30 13953 H 1285.37 -0.472387 -0.570904 0
M  V30 13954 H 1288.02 -1.67545 -0.92741 0
M  V30 13955 H 1286.32 -1.69095 -3.53432 0
M  V30 13956 H 1288.02 -2.06941 -3.43477 0
M  V30 13957 H 1284.61 -3.31224 -2.72009 0
M  V30 13958 H 1288.79 -4.27318 -2.52414 0
M  V30 13959 H 1284.05 -5.66748 -2.29361 0
M  V30 13960 H 1288.22 -6.63724 -2.10816 0
M  V30 13961 H 1285.85 -7.33753 -1.98772 0
M  V30 13962 N 1287.43 1.02549 -1.19673 0
M  V30 13963 C 1288.67 1.76382 -1.01296 0
M  V30 13964 C 1289.03 1.87036 0.451162 0
M  V30 13965 O 1288.32 1.37859 1.33062 0
M  V30 13966 C 1288.51 3.18597 -1.61959 0
M  V30 13967 C 1288.34 3.21808 -3.14117 0
M  V30 13968 C 1287.11 3.2956 -3.83038 0
M  V30 13969 C 1289.31 3.08576 -4.11443 0
M  V30 13970 N 1287.29 3.22181 -5.22564 0
M  V30 13971 C 1288.66 3.08868 -5.37588 0
M  V30 13972 C 1290.72 2.92728 -4.02759 0
M  V30 13973 C 1289.42 2.94938 -6.56052 0
M  V30 13974 C 1291.45 2.80149 -5.20837 0
M  V30 13975 C 1290.81 2.81098 -6.45882 0
M  V30 13976 H 1286.91 0.656544 -0.424822 0
M  V30 13977 H 1289.49 1.22046 -1.517 0
M  V30 13978 H 1287.66 3.71247 -1.14151 0
M  V30 13979 H 1289.4 3.80812 -1.36984 0
M  V30 13980 H 1286.15 3.3592 -3.33848 0
M  V30 13981 H 1286.57 3.21889 -5.95581 0
M  V30 13982 H 1291.22 2.90814 -3.069 0
M  V30 13983 H 1288.93 2.95603 -7.52093 0
M  V30 13984 H 1292.52 2.68917 -5.15921 0
M  V30 13985 H 1291.4 2.71471 -7.35713 0
M  V30 13986 N 1288.9 1.00119 1.21713 0
M  V30 13987 C 1289.81 0.567582 2.27631 0
M  V30 13988 C 1290.83 -0.387593 1.69628 0
M  V30 13989 O 1292.01 -0.252372 1.99813 0
M  V30 13990 C 1289.07 -0.102745 3.46548 0
M  V30 13991 C 1288.13 0.896433 4.19836 0
M  V30 13992 C 1287.36 0.258 5.33076 0
M  V30 13993 O 1287.59 -0.946118 5.62499 0
M  V30 13994 O 1286.52 0.967021 5.94081 0
M  V30 13995 H 1290.35 1.44898 2.66905 0
M  V30 13996 H 1287.93 0.769862 1.28037 0
M  V30 13997 H 1289.81 -0.477846 4.18682 0
M  V30 13998 H 1288.49 -0.958576 3.09181 0
M  V30 13999 H 1287.4 1.32262 3.49939 0
M  V30 14000 H 1288.73 1.72173 4.61104 0
M  V30 14001 N 1290.38 -1.37203 0.775435 0
M  V30 14002 C 1291.66 -1.93783 0.266005 0
M  V30 14003 C 1292.04 -1.70875 -1.23956 0
M  V30 14004 O 1291.39 -1.05965 -2.02444 0
M  V30 14005 C 1291.6 -3.43018 0.643404 0
M  V30 14006 C 1292.94 -4.20119 0.615267 0
M  V30 14007 O 1293.97 -3.51396 0.583018 0
M  V30 14008 O 1292.83 -5.42673 0.645637 0
M  V30 14009 H 1289.92 -0.824649 0.0623107 0
M  V30 14010 H 1292.47 -1.46468 0.857036 0
M  V30 14011 H 1291.24 -3.5329 1.68232 0
M  V30 14012 H 1290.86 -3.97592 0.0255138 0
M  V30 14013 N 1291.86 -0.526279 -1.48553 0
M  V30 14014 C 1293.11 0.00918008 -2.02798 0
M  V30 14015 C 1293.44 1.34284 -1.4029 0
M  V30 14016 O 1292.71 1.86639 -0.547355 0
M  V30 14017 C 1293 0.135102 -3.59846 0
M  V30 14018 C 1292.85 -1.22347 -4.32841 0
M  V30 14019 C 1294.17 0.863673 -4.31542 0
M  V30 14020 H 1291.29 0.00186216 -0.736998 0
M  V30 14021 H 1293.93 -0.682591 -1.77315 0
M  V30 14022 H 1292.08 0.724279 -3.81689 0
M  V30 14023 H 1293.75 -1.85347 -4.22427 0
M  V30 14024 H 1291.99 -1.80631 -3.94405 0
M  V30 14025 H 1292.67 -1.08839 -5.41164 0
M  V30 14026 H 1295.14 0.363734 -4.14507 0
M  V30 14027 H 1294.02 0.92067 -5.41124 0
M  V30 14028 H 1294.28 1.91313 -3.98562 0
M  V30 14029 N 1293.34 1.5542 -0.261239 0
M  V30 14030 C 1294.75 1.85161 0.239195 0
M  V30 14031 C 1295.1 1.18319 1.56509 0
M  V30 14032 O 1294.22 0.4666 2.1131 0
M  V30 14033 C 1294.82 3.3592 0.440781 0
M  V30 14034 C 1293.38 3.65837 0.885461 0
M  V30 14035 C 1292.53 2.77285 -0.0291982 0
M  V30 14036 H 1295.48 1.51158 -0.483417 0
M  V30 14037 H 1295.5 3.58276 1.28136 0
M  V30 14038 H 1295.01 3.84541 -0.524382 0
M  V30 14039 H 1293.11 3.22705 1.86259 0
M  V30 14040 H 1293.22 4.73469 0.732394 0
M  V30 14041 H 1291.59 2.50045 0.484701 0
M  V30 14042 H 1292.37 3.28716 -0.989992 0
M  V30 14043 N 1294.82 -0.0116844 1.57596 0
M  V30 14044 C 1295.76 -1.02514 2.08791 0
M  V30 14045 C 1296.76 -1.36341 1.00536 0
M  V30 14046 O 1297.96 -1.35042 1.19011 0
M  V30 14047 H 1294.34 -0.348201 0.666528 0
M  V30 14048 H 1296.31 -0.567698 2.9295 0
M  V30 14049 C 1295.06 -2.312 2.59696 0
M  V30 14050 H 1294.38 -2.06036 3.42621 0
M  V30 14051 H 1295.82 -3.00417 2.99208 0
M  V30 14052 C 1294.28 -3.01372 1.50586 0
M  V30 14053 O 1294.81 -3.91896 0.882046 0
M  V30 14054 N 1293.02 -2.62997 1.23616 0
M  V30 14055 H 1292.56 -1.89466 1.74529 0
M  V30 14056 H 1292.52 -3.10264 0.508289 0
M  V30 14057 N 1296.29 -1.55015 -0.284256 0
M  V30 14058 C 1297.7 -1.65915 -0.856104 0
M  V30 14059 C 1298.06 -0.578758 -1.8747 0
M  V30 14060 O 1297.18 0.281733 -2.14558 0
M  V30 14061 C 1297.78 -3.0077 -1.55957 0
M  V30 14062 C 1296.33 -3.13735 -2.0796 0
M  V30 14063 C 1295.48 -2.61669 -0.917849 0
M  V30 14064 H 1298.43 -1.58583 -0.0608587 0
M  V30 14065 H 1298.45 -2.9313 -2.42601 0
M  V30 14066 H 1297.97 -3.79382 -0.81798 0
M  V30 14067 H 1296.07 -2.39875 -2.85115 0
M  V30 14068 H 1296.18 -4.20138 -2.30263 0
M  V30 14069 H 1294.54 -2.18542 -1.3081 0
M  V30 14070 H 1295.33 -3.42774 -0.189946 0
M  V30 14071 N 1297.77 0.548248 -1.47757 0
M  V30 14072 C 1298.72 1.65453 -1.60916 0
M  V30 14073 C 1299.69 1.59836 -0.451831 0
M  V30 14074 O 1300.87 1.78536 -0.673023 0
M  V30 14075 C 1298.01 3.0376 -1.6378 0
M  V30 14076 C 1297.13 3.19747 -2.90492 0
M  V30 14077 C 1296.26 4.48505 -2.84635 0
M  V30 14078 C 1295.3 4.57956 -4.06132 0
M  V30 14079 N 1294.44 5.78079 -3.98458 0
M  V30 14080 H 1299.28 1.53545 -2.55398 0
M  V30 14081 H 1296.81 0.747826 -1.26673 0
M  V30 14082 H 1298.77 3.8386 -1.63424 0
M  V30 14083 H 1297.4 3.14483 -0.728036 0
M  V30 14084 H 1296.45 2.3302 -3.00676 0
M  V30 14085 H 1297.77 3.22594 -3.8044 0
M  V30 14086 H 1296.92 5.36875 -2.82577 0
M  V30 14087 H 1295.66 4.48151 -1.92385 0
M  V30 14088 H 1294.66 3.67995 -4.08484 0
M  V30 14089 H 1295.89 4.60062 -4.9952 0
M  V30 14090 H 1293.84 5.78657 -3.09017 0
M  V30 14091 H 1293.75 5.82342 -4.82093 0
M  V30 14092 H 1295.02 6.68786 -4.00431 0
M  V30 14093 N 1299.25 1.36039 0.795694 0
M  V30 14094 C 1300.2 1.29902 1.92946 0
M  V30 14095 C 1301.19 0.191943 1.68309 0
M  V30 14096 O 1302.4 0.358577 1.76392 0
M  V30 14097 H 1298.77 0.404252 0.634101 0
M  V30 14098 H 1300.74 2.25663 1.95241 0
M  V30 14099 C 1299.49 1.09887 3.29879 0
M  V30 14100 H 1298.82 1.94318 3.494 0
M  V30 14101 H 1300.26 1.09638 4.0958 0
M  V30 14102 C 1298.71 -0.196802 3.36325 0
M  V30 14103 O 1299.24 -1.18883 3.83705 0
M  V30 14104 N 1297.45 -0.239325 2.89613 0
M  V30 14105 H 1297 0.568571 2.51247 0
M  V30 14106 H 1296.96 -1.10593 2.94307 0
M  V30 14107 N 1300.73 -1.01913 1.20215 0
M  V30 14108 C 1301.97 -1.77015 1.02202 0
M  V30 14109 C 1302.33 -1.86927 -0.43845 0
M  V30 14110 O 1303.53 -2.58451 -0.73869 0
M  V30 14111 C 1301.8 -3.15244 1.68393 0
M  V30 14112 S 1303.36 -4.06414 1.65449 0
M  V30 14113 H 1300.18 -0.609242 0.366531 0
M  V30 14114 H 1302.78 -1.22044 1.52727 0
M  V30 14115 H 1301.49 -3.05653 2.73869 0
M  V30 14116 H 1301.02 -3.7529 1.17988 0
M  V30 14117 H 1303.03 -4.91441 0.685571 0
M  V30 14118 N 1302.21 -1.00763 -1.2118 0
M  V30 14119 C 1303.43 -0.710515 -1.9485 0
M  V30 14120 C 1303.86 0.720934 -1.73736 0
M  V30 14121 O 1303.21 1.49484 -1.02588 0
M  V30 14122 C 1303.26 -1.04035 -3.45267 0
M  V30 14123 O 1302.37 -0.147047 -4.12138 0
M  V30 14124 H 1301.71 -0.264472 -0.609057 0
M  V30 14125 H 1304.24 -1.34858 -1.53865 0
M  V30 14126 H 1304.25 -0.9883 -3.95849 0
M  V30 14127 H 1302.92 -2.08334 -3.59958 0
M  V30 14128 H 1301.5 -0.255847 -3.72021 0
M  V30 14129 N 1303.68 1.3679 -0.7827 0
M  V30 14130 C 1304.93 2.0016 -0.361585 0
M  V30 14131 C 1305.29 1.61011 1.05324 0
M  V30 14132 O 1304.58 0.851491 1.7164 0
M  V30 14133 C 1304.77 3.54489 -0.455232 0
M  V30 14134 C 1304.6 4.08627 -1.87761 0
M  V30 14135 C 1303.37 4.3908 -2.50073 0
M  V30 14136 C 1305.57 4.28858 -2.83876 0
M  V30 14137 N 1303.55 4.79 -3.8397 0
M  V30 14138 C 1304.92 4.71507 -4.02593 0
M  V30 14139 C 1306.98 4.11013 -2.81021 0
M  V30 14140 C 1305.68 4.98181 -5.18852 0
M  V30 14141 C 1307.71 4.3883 -3.96463 0
M  V30 14142 C 1307.07 4.81729 -5.13922 0
M  V30 14143 H 1303.17 0.761099 -0.179588 0
M  V30 14144 H 1305.75 1.65913 -1.01887 0
M  V30 14145 H 1303.92 3.88019 0.171926 0
M  V30 14146 H 1305.65 4.04699 -0.0110089 0
M  V30 14147 H 1302.41 4.28547 -2.01605 0
M  V30 14148 H 1302.83 5.03253 -4.52841 0
M  V30 14149 H 1307.48 3.77009 -1.91375 0
M  V30 14150 H 1305.19 5.3107 -6.0909 0
M  V30 14151 H 1308.78 4.266 -3.95606 0
M  V30 14152 H 1307.66 5.02838 -6.01767 0
M  V30 14153 N 1305.16 0.53415 1.48272 0
M  V30 14154 C 1306.13 -0.215641 2.28183 0
M  V30 14155 C 1307.13 -0.863966 1.35618 0
M  V30 14156 O 1308.32 -0.723375 1.58471 0
M  V30 14157 C 1305.45 -1.31251 3.1462 0
M  V30 14158 H 1306.64 0.486014 2.95936 0
M  V30 14159 H 1304.19 0.290237 1.53582 0
M  V30 14160 H 1304.93 -2.04729 2.51508 0
M  V30 14161 H 1304.71 -0.852706 3.82716 0
M  V30 14162 H 1306.2 -1.83978 3.74889 0
M  V30 14163 N 1306.64 -1.55279 0.269478 0
M  V30 14164 C 1307.57 -2.19684 -0.653573 0
M  V30 14165 C 1308.59 -1.17985 -1.12176 0
M  V30 14166 O 1309.77 -1.44739 -1.04464 0
M  V30 14167 C 1306.87 -2.80438 -1.90284 0
M  V30 14168 C 1306.05 -4.07774 -1.58239 0
M  V30 14169 C 1305.11 -4.52629 -2.68354 0
M  V30 14170 O 1304.13 -5.18524 -2.3478 0
M  V30 14171 N 1305.33 -4.22297 -3.98303 0
M  V30 14172 H 1308.1 -2.99525 -0.102379 0
M  V30 14173 H 1305.66 -1.61648 0.0903465 0
M  V30 14174 H 1307.65 -3.07392 -2.63234 0
M  V30 14175 H 1306.22 -2.04622 -2.36323 0
M  V30 14176 H 1305.44 -3.88168 -0.686983 0
M  V30 14177 H 1306.73 -4.90749 -1.34323 0
M  V30 14178 H 1306.13 -3.69441 -4.28404 0
M  V30 14179 H 1304.69 -4.54035 -4.67649 0
M  V30 14180 N 1308.12 0.00332656 -1.576 0
M  V30 14181 C 1309.37 0.687508 -1.90047 0
M  V30 14182 C 1309.69 1.74497 -0.870388 0
M  V30 14183 O 1308.96 1.95681 0.0926544 0
M  V30 14184 H 1307.54 0.256924 -0.701426 0
M  V30 14185 H 1310.2 -0.0368129 -1.94865 0
M  V30 14186 H 1309.3 1.16086 -2.89707 0
M  V30 14187 N 1309.6 1.55164 0.276031 0
M  V30 14188 C 1310.53 1.90844 1.34539 0
M  V30 14189 C 1311.51 0.769968 1.51676 0
M  V30 14190 O 1312.69 1.02785 1.64769 0
M  V30 14191 C 1309.82 2.17769 2.70543 0
M  V30 14192 C 1308.78 3.33592 2.68142 0
M  V30 14193 C 1308.1 3.45991 4.07669 0
M  V30 14194 C 1309.4 4.70064 2.27678 0
M  V30 14195 H 1311.1 2.80412 1.04926 0
M  V30 14196 H 1308.64 1.34918 0.503303 0
M  V30 14197 H 1310.6 2.41317 3.45462 0
M  V30 14198 H 1309.32 1.24997 3.01734 0
M  V30 14199 H 1307.98 3.10007 1.95681 0
M  V30 14200 H 1307.63 2.50691 4.36077 0
M  V30 14201 H 1307.33 4.23862 4.06958 0
M  V30 14202 H 1308.85 3.71828 4.84331 0
M  V30 14203 H 1310.26 4.93176 2.92319 0
M  V30 14204 H 1308.66 5.50829 2.38134 0
M  V30 14205 H 1309.73 4.69091 1.22808 0
M  V30 14206 N 1311.07 -0.540404 1.48045 0
M  V30 14207 C 1312.02 -1.66695 1.62221 0
M  V30 14208 C 1313.02 -1.6219 0.488943 0
M  V30 14209 O 1314.22 -1.67173 0.66732 0
M  V30 14210 H 1310.6 -0.551868 0.510828 0
M  V30 14211 H 1312.57 -1.51879 2.56856 0
M  V30 14212 C 1311.32 -3.05002 1.6694 0
M  V30 14213 H 1310.64 -3.09157 2.53499 0
M  V30 14214 H 1312.08 -3.8347 1.80904 0
M  V30 14215 C 1310.54 -3.34445 0.40598 0
M  V30 14216 O 1311.07 -3.98753 -0.485676 0
M  V30 14217 N 1309.28 -2.8924 0.280857 0
M  V30 14218 H 1308.82 -2.37085 1.00741 0
M  V30 14219 H 1308.78 -3.09309 -0.563493 0
M  V30 14220 N 1312.55 -1.36459 -0.788468 0
M  V30 14221 C 1313.8 -1.30741 -1.54638 0
M  V30 14222 C 1314.13 0.113029 -1.94171 0
M  V30 14223 O 1313.38 1.08252 -1.63034 0
M  V30 14224 C 1313.68 -2.17672 -2.83467 0
M  V30 14225 C 1313.35 -3.66205 -2.63067 0
M  V30 14226 C 1312.01 -4.06688 -2.57212 0
M  V30 14227 C 1314.36 -4.60376 -2.44343 0
M  V30 14228 C 1311.69 -5.39482 -2.306 0
M  V30 14229 C 1314.04 -5.93388 -2.19258 0
M  V30 14230 C 1312.71 -6.32994 -2.11836 0
M  V30 14231 H 1311.98 -0.478416 -0.565862 0
M  V30 14232 H 1314.62 -1.68519 -0.909588 0
M  V30 14233 H 1312.93 -1.72834 -3.51619 0
M  V30 14234 H 1314.62 -2.10573 -3.41263 0
M  V30 14235 H 1311.21 -3.3409 -2.6848 0
M  V30 14236 H 1315.4 -4.29971 -2.47868 0
M  V30 14237 H 1310.65 -5.69149 -2.23337 0
M  V30 14238 H 1314.83 -6.65923 -2.03765 0
M  V30 14239 H 1312.46 -7.3582 -1.90978 0
M  V30 14240 N 1314.03 1.01274 -1.20754 0
M  V30 14241 C 1314.96 2.10029 -0.917628 0
M  V30 14242 C 1315.98 1.62516 0.0961411 0
M  V30 14243 O 1317.16 1.77986 -0.135371 0
M  V30 14244 C 1314.26 3.37037 -0.354891 0
M  V30 14245 C 1313.44 4.1367 -1.42113 0
M  V30 14246 C 1312.5 5.18974 -0.869023 0
M  V30 14247 O 1311.52 5.47671 -1.55063 0
M  V30 14248 N 1312.72 5.79619 0.319631 0
M  V30 14249 H 1315.49 2.35485 -1.85383 0
M  V30 14250 H 1313.05 1.17695 -1.11173 0
M  V30 14251 H 1315.04 4.0469 0.0286895 0
M  V30 14252 H 1313.61 3.088 0.485956 0
M  V30 14253 H 1312.83 3.40931 -1.97889 0
M  V30 14254 H 1314.12 4.61649 -2.13911 0
M  V30 14255 H 1313.52 5.58646 0.89059 0
M  V30 14256 H 1312.08 6.48603 0.644807 0
M  V30 14257 N 1315.51 1.01404 1.20644 0
M  V30 14258 C 1316.46 0.582109 2.23339 0
M  V30 14259 C 1317.43 -0.39649 1.61298 0
M  V30 14260 O 1318.61 -0.296504 1.88482 0
M  V30 14261 C 1315.75 -0.076029 3.45016 0
M  V30 14262 C 1314.86 0.946829 4.21496 0
M  V30 14263 C 1314 0.26001 5.30563 0
M  V30 14264 C 1313.04 1.2698 5.98784 0
M  V30 14265 N 1312.18 0.609827 6.99447 0
M  V30 14266 H 1317.02 1.46248 2.59645 0
M  V30 14267 H 1314.55 0.732145 1.27585 0
M  V30 14268 H 1316.51 -0.474714 4.1449 0
M  V30 14269 H 1315.14 -0.920062 3.0941 0
M  V30 14270 H 1314.19 1.4637 3.51113 0
M  V30 14271 H 1315.5 1.71491 4.68393 0
M  V30 14272 H 1314.66 -0.19431 6.06389 0
M  V30 14273 H 1313.4 -0.540395 4.84697 0
M  V30 14274 H 1312.4 1.73453 5.21722 0
M  V30 14275 H 1313.63 2.07144 6.46737 0
M  V30 14276 H 1311.57 -0.170756 6.55778 0
M  V30 14277 H 1311.49 1.31601 7.44458 0
M  V30 14278 H 1312.76 0.179014 7.79294 0
M  V30 14279 N 1316.99 -1.36373 0.789944 0
M  V30 14280 C 1318.4 -1.81783 0.425677 0
M  V30 14281 C 1318.75 -1.65711 -1.05045 0
M  V30 14282 O 1317.87 -1.17835 -1.81505 0
M  V30 14283 C 1318.47 -3.3003 0.765866 0
M  V30 14284 C 1317.03 -3.73647 0.454421 0
M  V30 14285 C 1316.18 -2.58632 1.00023 0
M  V30 14286 H 1319.13 -1.24587 0.983044 0
M  V30 14287 H 1319.15 -3.80457 0.0571624 0
M  V30 14288 H 1318.66 -3.41696 1.84026 0
M  V30 14289 H 1316.76 -3.67541 -0.611918 0
M  V30 14290 H 1316.87 -4.69066 0.975401 0
M  V30 14291 H 1315.24 -2.51156 0.423434 0
M  V30 14292 H 1316.02 -2.73083 2.0804 0
M  V30 14293 N 1318.47 -0.542005 -1.47987 0
M  V30 14294 C 1319.38 0.217677 -2.33588 0
M  V30 14295 C 1320.39 0.927093 -1.47245 0
M  V30 14296 O 1321.57 0.899378 -1.80203 0
M  V30 14297 C 1318.63 1.24376 -3.23622 0
M  V30 14298 C 1317.69 0.543407 -4.25847 0
M  V30 14299 C 1316.93 1.5206 -5.11579 0
M  V30 14300 O 1317.15 2.75425 -4.99497 0
M  V30 14301 O 1316.08 1.05341 -5.9261 0
M  V30 14302 H 1319.91 -0.484089 -2.99817 0
M  V30 14303 H 1317.49 -0.302783 -1.463 0
M  V30 14304 H 1319.38 1.83644 -3.7928 0
M  V30 14305 H 1318.05 1.92772 -2.6004 0
M  V30 14306 H 1316.96 -0.090074 -3.73992 0
M  V30 14307 H 1318.29 -0.0988264 -4.92101 0
M  V30 14308 N 1319.94 1.55134 -0.277709 0
M  V30 14309 C 1321.17 2.04061 0.341601 0
M  V30 14310 C 1321.59 1.15597 1.49274 0
M  V30 14311 O 1320.94 0.176625 1.81643 0
M  V30 14312 C 1320.99 3.52074 0.820139 0
M  V30 14313 O 1320.72 4.37171 -0.28516 0
M  V30 14314 C 1322.22 4.16899 1.507 0
M  V30 14315 H 1319.44 0.666501 0.0775708 0
M  V30 14316 H 1321.98 2.00336 -0.410559 0
M  V30 14317 H 1320.14 3.56233 1.52238 0
M  V30 14318 H 1320.55 5.24434 0.0832022 0
M  V30 14319 H 1322.02 5.22061 1.79323 0
M  V30 14320 H 1322.5 3.65227 2.43939 0
M  V30 14321 H 1323.11 4.16749 0.848541 0
M  V30 14322 N 1321.42 0.00503138 1.57599 0
M  V30 14323 C 1322.67 -0.678761 1.90785 0
M  V30 14324 C 1323 -1.73499 0.87911 0
M  V30 14325 O 1322.25 -1.95359 -0.115418 0
M  V30 14326 C 1322.55 -1.35485 3.30724 0
M  V30 14327 C 1322.22 -0.431335 4.48832 0
M  V30 14328 C 1320.88 -0.177078 4.80874 0
M  V30 14329 C 1323.23 0.204219 5.208 0
M  V30 14330 C 1320.56 0.720944 5.82254 0
M  V30 14331 C 1322.91 1.09015 6.23136 0
M  V30 14332 C 1321.57 1.35353 6.53633 0
M  V30 14333 H 1320.84 -0.248376 0.698133 0
M  V30 14334 H 1323.49 0.061638 1.91401 0
M  V30 14335 H 1321.8 -2.16942 3.26257 0
M  V30 14336 H 1323.49 -1.89007 3.53663 0
M  V30 14337 H 1320.08 -0.639676 4.238 0
M  V30 14338 H 1324.27 0.0208074 4.96296 0
M  V30 14339 H 1319.52 0.93296 6.0424 0
M  V30 14340 H 1323.7 1.58894 6.78031 0
M  V30 14341 H 1321.32 2.05107 7.32008 0
M  V30 14342 N 1322.9 -1.55308 -0.267798 0
M  V30 14343 C 1323.81 -1.91649 -1.35307 0
M  V30 14344 C 1324.83 -0.814349 -1.53767 0
M  V30 14345 O 1326 -1.11388 -1.67793 0
M  V30 14346 C 1323.07 -2.18553 -2.69138 0
M  V30 14347 C 1322.13 -3.42083 -2.5938 0
M  V30 14348 C 1321.36 -3.67695 -3.86828 0
M  V30 14349 O 1321.58 -2.95728 -4.87751 0
M  V30 14350 O 1320.52 -4.61229 -3.86718 0
M  V30 14351 H 1324.34 -2.84044 -1.07483 0
M  V30 14352 H 1321.93 -1.41921 -0.466772 0
M  V30 14353 H 1323.81 -2.3726 -3.48261 0
M  V30 14354 H 1322.49 -1.2934 -2.96737 0
M  V30 14355 H 1321.39 -3.28706 -1.78614 0
M  V30 14356 H 1322.73 -4.31532 -2.36729 0
M  V30 14357 N 1324.38 0.532545 -1.4833 0
M  V30 14358 C 1325.33 1.6335 -1.59062 0
M  V30 14359 C 1326.31 1.5454 -0.447905 0
M  V30 14360 O 1327.5 1.62604 -0.699205 0
M  V30 14361 C 1324.63 3.02077 -1.63109 0
M  V30 14362 C 1323.72 3.16 -2.82851 0
M  V30 14363 N 1324.11 2.99905 -4.07297 0
M  V30 14364 C 1322.41 3.47049 -2.8013 0
M  V30 14365 C 1323.11 3.17176 -4.87621 0
M  V30 14366 N 1322.08 3.44634 -4.20391 0
M  V30 14367 H 1325.89 1.49512 -2.53028 0
M  V30 14368 H 1323.4 0.73794 -1.44666 0
M  V30 14369 H 1325.4 3.81158 -1.68891 0
M  V30 14370 H 1324.06 3.17008 -0.702574 0
M  V30 14371 H 1325.07 2.76721 -4.37774 0
M  V30 14372 H 1321.75 3.68354 -1.96524 0
M  V30 14373 H 1323.14 3.09491 -5.96376 0
M  V30 14374 N 1325.86 1.36875 0.78122 0
M  V30 14375 C 1326.79 1.34559 1.9083 0
M  V30 14376 C 1327.77 0.215713 1.68727 0
M  V30 14377 O 1328.95 0.41462 1.89722 0
M  V30 14378 C 1326.08 1.14233 3.27976 0
M  V30 14379 C 1325.04 2.24132 3.64621 0
M  V30 14380 C 1324.36 1.8894 5.00206 0
M  V30 14381 C 1325.66 3.66266 3.72353 0
M  V30 14382 H 1327.36 2.28871 1.93025 0
M  V30 14383 H 1324.9 1.10171 0.927275 0
M  V30 14384 H 1326.85 1.11246 4.06451 0
M  V30 14385 H 1325.58 0.163747 3.26189 0
M  V30 14386 H 1324.24 2.26259 2.88448 0
M  V30 14387 H 1323.89 0.896351 4.94949 0
M  V30 14388 H 1323.59 2.62525 5.25694 0
M  V30 14389 H 1325.11 1.87523 5.81092 0
M  V30 14390 H 1326.52 3.66321 4.41001 0
M  V30 14391 H 1324.92 4.38825 4.09332 0
M  V30 14392 H 1325.99 4.00578 2.7325 0
M  V30 14393 N 1327.33 -1.00632 1.21289 0
M  V30 14394 C 1328.58 -1.74388 1.02932 0
M  V30 14395 C 1328.91 -1.8952 -0.437327 0
M  V30 14396 O 1328.16 -1.42551 -1.3408 0
M  V30 14397 C 1328.46 -3.1598 1.67007 0
M  V30 14398 C 1328.13 -3.208 3.16857 0
M  V30 14399 C 1326.79 -3.21823 3.57748 0
M  V30 14400 C 1329.14 -3.18147 4.12834 0
M  V30 14401 C 1326.47 -3.17877 4.93124 0
M  V30 14402 C 1328.82 -3.15743 5.48169 0
M  V30 14403 C 1327.49 -3.15074 5.88459 0
M  V30 14404 H 1326.76 -0.638133 0.376653 0
M  V30 14405 H 1329.4 -1.17953 1.50862 0
M  V30 14406 H 1327.71 -3.75639 1.11365 0
M  V30 14407 H 1329.41 -3.71764 1.50307 0
M  V30 14408 H 1326 -3.20746 2.84289 0
M  V30 14409 H 1330.18 -3.16519 3.82269 0
M  V30 14410 H 1325.44 -3.15696 5.2359 0
M  V30 14411 H 1329.61 -3.12644 6.22275 0
M  V30 14412 H 1327.24 -3.11771 6.93327 0
M  V30 14413 N 1328.81 -1.02043 -1.20104 0
M  V30 14414 C 1330.06 -0.707271 -1.88893 0
M  V30 14415 C 1330.37 0.766617 -1.79951 0
M  V30 14416 O 1331.58 1.19248 -2.4391 0
M  V30 14417 C 1330.04 -1.2147 -3.38782 0
M  V30 14418 C 1329.64 -2.71576 -3.56301 0
M  V30 14419 C 1331.39 -0.977146 -4.13101 0
M  V30 14420 C 1329.29 -3.15781 -5.00037 0
M  V30 14421 H 1328.22 -0.26086 -0.707438 0
M  V30 14422 H 1330.88 -1.23361 -1.35846 0
M  V30 14423 H 1329.26 -0.616315 -3.91175 0
M  V30 14424 H 1330.43 -3.36997 -3.14276 0
M  V30 14425 H 1328.75 -2.93517 -2.95359 0
M  V30 14426 H 1331.34 -1.28278 -5.19085 0
M  V30 14427 H 1331.69 0.0862909 -4.16211 0
M  V30 14428 H 1332.22 -1.5391 -3.6682 0
M  V30 14429 H 1328.96 -4.21417 -5.02084 0
M  V30 14430 H 1328.48 -2.55083 -5.42856 0
M  V30 14431 H 1330.16 -3.08637 -5.6864 0
M  V30 14432 N 1330.29 1.35952 -0.797165 0
M  V30 14433 C 1331.24 2.29941 -0.198995 0
M  V30 14434 C 1332.21 1.52355 0.661592 0
M  V30 14435 O 1333.39 1.80832 0.60865 0
M  V30 14436 C 1330.53 3.38846 0.654033 0
M  V30 14437 C 1329.65 4.31409 -0.225949 0
M  V30 14438 C 1328.78 5.27401 0.634188 0
M  V30 14439 C 1327.82 6.11602 -0.246773 0
M  V30 14440 N 1326.96 6.9976 0.57279 0
M  V30 14441 H 1331.8 2.80508 -1.00594 0
M  V30 14442 H 1329.33 1.38064 -0.507617 0
M  V30 14443 H 1331.29 4.00643 1.16367 0
M  V30 14444 H 1329.92 2.89578 1.42633 0
M  V30 14445 H 1328.97 3.70699 -0.853616 0
M  V30 14446 H 1330.29 4.90532 -0.904416 0
M  V30 14447 H 1329.44 5.94525 1.20933 0
M  V30 14448 H 1328.18 4.68751 1.34625 0
M  V30 14449 H 1327.18 5.43434 -0.834258 0
M  V30 14450 H 1328.41 6.72329 -0.956559 0
M  V30 14451 H 1326.35 6.43609 1.26901 0
M  V30 14452 H 1326.27 7.55985 -0.0478303 0
M  V30 14453 H 1327.54 7.71244 1.13151 0
M  V30 14454 N 1331.77 0.549846 1.47697 0
M  V30 14455 C 1332.72 -0.222213 2.26915 0
M  V30 14456 C 1333.7 -0.891996 1.33911 0
M  V30 14457 O 1334.89 -0.791519 1.58316 0
M  V30 14458 C 1332.02 -1.25619 3.19491 0
M  V30 14459 C 1331.11 -0.590193 4.19973 0
M  V30 14460 N 1331.5 0.335519 5.04686 0
M  V30 14461 C 1329.8 -0.845012 4.37922 0
M  V30 14462 C 1330.5 0.721672 5.77206 0
M  V30 14463 N 1329.48 0.078184 5.43544 0
M  V30 14464 H 1333.28 0.489645 2.89792 0
M  V30 14465 H 1330.79 0.36926 1.58146 0
M  V30 14466 H 1332.79 -1.82319 3.74921 0
M  V30 14467 H 1331.45 -1.96922 2.5817 0
M  V30 14468 H 1332.46 0.709271 5.1302 0
M  V30 14469 H 1329.14 -1.54711 3.87777 0
M  V30 14470 H 1330.53 1.48191 6.55354 0
M  V30 14471 N 1333.25 -1.54984 0.285932 0
M  V30 14472 C 1334.47 -2.04239 -0.330774 0
M  V30 14473 C 1334.89 -1.16387 -1.48659 0
M  V30 14474 O 1334.25 -0.186255 -1.81547 0
M  V30 14475 C 1334.3 -3.52504 -0.801456 0
M  V30 14476 O 1334.02 -4.37014 0.30834 0
M  V30 14477 C 1335.52 -4.17692 -1.48487 0
M  V30 14478 H 1332.74 -0.666903 -0.0740351 0
M  V30 14479 H 1335.28 -2.00116 0.421178 0
M  V30 14480 H 1333.44 -3.57036 -1.50347 0
M  V30 14481 H 1333.85 -5.24471 -0.0553891 0
M  V30 14482 H 1335.33 -5.23004 -1.76552 0
M  V30 14483 H 1335.8 -3.66515 -2.41999 0
M  V30 14484 H 1336.41 -4.17193 -0.826428 0
M  V30 14485 N 1334.72 -0.0133892 -1.57594 0
M  V30 14486 C 1335.69 0.958601 -2.08191 0
M  V30 14487 C 1336.69 1.26408 -0.993865 0
M  V30 14488 O 1337.88 1.20703 -1.25604 0
M  V30 14489 C 1335.01 2.27971 -2.5346 0
M  V30 14490 H 1336.2 0.520686 -2.95345 0
M  V30 14491 H 1333.76 0.234351 -1.54533 0
M  V30 14492 H 1334.49 2.76424 -1.69588 0
M  V30 14493 H 1334.28 2.07116 -3.32935 0
M  V30 14494 H 1335.77 2.97672 -2.92884 0
M  V30 14495 N 1336.2 1.55448 0.259558 0
M  V30 14496 C 1337.43 1.81063 1.01148 0
M  V30 14497 C 1337.85 0.58875 1.78649 0
M  V30 14498 O 1337.21 -0.461971 1.75315 0
M  V30 14499 C 1337.26 3.04279 1.93512 0
M  V30 14500 O 1336.36 2.80307 3.02493 0
M  V30 14501 H 1335.7 0.598056 0.288487 0
M  V30 14502 H 1338.23 2.02614 0.284387 0
M  V30 14503 H 1338.24 3.33373 2.35215 0
M  V30 14504 H 1336.92 3.92856 1.36518 0
M  V30 14505 H 1335.5 2.62345 2.65008 0
M  V30 14506 N 1337.68 -0.524672 1.4861 0
M  V30 14507 C 1338.93 -1.28211 1.5713 0
M  V30 14508 C 1339.26 -1.92626 0.246751 0
M  V30 14509 O 1338.53 -1.79553 -0.747725 0
M  V30 14510 C 1338.82 -2.36737 2.71344 0
M  V30 14511 C 1338.67 -1.76978 4.1352 0
M  V30 14512 C 1339.99 -3.3847 2.81294 0
M  V30 14513 H 1337.11 -0.46479 0.571961 0
M  V30 14514 H 1339.75 -0.583937 1.80804 0
M  V30 14515 H 1337.9 -2.96287 2.51289 0
M  V30 14516 H 1339.57 -1.21438 4.45029 0
M  V30 14517 H 1337.82 -1.07488 4.20272 0
M  V30 14518 H 1338.49 -2.55583 4.89266 0
M  V30 14519 H 1340.96 -2.88882 2.99477 0
M  V30 14520 H 1339.84 -4.11795 3.62928 0
M  V30 14521 H 1340.1 -3.99347 1.89669 0
M  V30 14522 N 1339.16 -1.37287 -0.77395 0
M  V30 14523 C 1340.39 -1.35563 -1.56302 0
M  V30 14524 C 1340.8 0.0595356 -1.88706 0
M  V30 14525 O 1340.16 1.02072 -1.51286 0
M  V30 14526 C 1340.21 -2.19195 -2.87464 0
M  V30 14527 O 1339.93 -3.55197 -2.5645 0
M  V30 14528 C 1341.43 -2.25425 -3.81704 0
M  V30 14529 H 1338.65 -0.464431 -0.484298 0
M  V30 14530 H 1341.2 -1.80597 -0.959425 0
M  V30 14531 H 1339.35 -1.77676 -3.44253 0
M  V30 14532 H 1339.76 -3.99011 -3.40427 0
M  V30 14533 H 1341.24 -2.8827 -4.70749 0
M  V30 14534 H 1341.72 -1.26205 -4.20677 0
M  V30 14535 H 1342.32 -2.67247 -3.30846 0
M  V30 14536 N 1340.64 0.999871 -1.21821 0
M  V30 14537 C 1341.88 1.75366 -1.05005 0
M  V30 14538 C 1342.24 1.87601 0.408656 0
M  V30 14539 O 1343.44 2.59593 0.697479 0
M  V30 14540 C 1341.71 3.12525 -1.73387 0
M  V30 14541 S 1343.27 4.0373 -1.71894 0
M  V30 14542 H 1340.09 0.603334 -0.376177 0
M  V30 14543 H 1342.69 1.19598 -1.5465 0
M  V30 14544 H 1341.4 3.01258 -2.78697 0
M  V30 14545 H 1340.93 3.73365 -1.23944 0
M  V30 14546 H 1342.94 4.90288 -0.763668 0
M  V30 14547 N 1342.11 1.02678 1.19562 0
M  V30 14548 C 1343.36 0.72059 1.88817 0
M  V30 14549 C 1343.68 -0.752942 1.79877 0
M  V30 14550 O 1342.95 -1.54233 1.20785 0
M  V30 14551 H 1341.53 0.26355 0.698964 0
M  V30 14552 H 1344.2 1.30056 1.4516 0
M  V30 14553 H 1343.29 1.01303 2.95202 0
M  V30 14554 N 1343.59 -1.35528 0.804364 0
M  V30 14555 C 1345 -1.81321 0.444933 0
M  V30 14556 C 1345.35 -1.66816 -1.03281 0
M  V30 14557 O 1344.48 -1.19753 -1.80245 0
M  V30 14558 C 1345.07 -3.29199 0.800827 0
M  V30 14559 C 1343.63 -3.73144 0.494026 0
M  V30 14560 C 1342.78 -2.57557 1.02761 0
M  V30 14561 H 1345.73 -1.23537 0.996203 0
M  V30 14562 H 1345.75 -3.80375 0.0975117 0
M  V30 14563 H 1345.26 -3.39725 1.8764 0
M  V30 14564 H 1343.37 -3.68169 -0.572901 0
M  V30 14565 H 1343.48 -4.68005 1.0251 0
M  V30 14566 H 1341.84 -2.50692 0.450048 0
M  V30 14567 H 1342.63 -2.70861 2.10925 0
M  V30 14568 N 1345.07 -0.557671 -1.47404 0
M  V30 14569 C 1346 0.178019 -2.3282 0
M  V30 14570 C 1346.98 0.908318 -1.43818 0
M  V30 14571 O 1348.17 0.888693 -1.72673 0
M  V30 14572 C 1345.3 1.2082 -3.25607 0
M  V30 14573 C 1344.25 0.594335 -4.23853 0
M  V30 14574 C 1343.58 1.72919 -5.05968 0
M  V30 14575 C 1344.88 -0.452196 -5.20339 0
M  V30 14576 H 1346.57 -0.535091 -2.9458 0
M  V30 14577 H 1344.12 -0.258775 -1.41656 0
M  V30 14578 H 1346.07 1.73104 -3.84204 0
M  V30 14579 H 1344.79 1.95126 -2.61903 0
M  V30 14580 H 1343.45 0.0927898 -3.66483 0
M  V30 14581 H 1343.1 2.4613 -4.38668 0
M  V30 14582 H 1342.8 1.32422 -5.72484 0
M  V30 14583 H 1344.33 2.25527 -5.67424 0
M  V30 14584 H 1345.74 -0.0154011 -5.73298 0
M  V30 14585 H 1344.14 -0.776068 -5.95061 0
M  V30 14586 H 1345.21 -1.34791 -4.65789 0
M  V30 14587 N 1346.55 1.54831 -0.294147 0
M  V30 14588 C 1347.48 2.26226 0.57827 0
M  V30 14589 C 1348.46 1.25928 1.14351 0
M  V30 14590 O 1349.65 1.54687 1.17412 0
M  V30 14591 C 1346.78 2.99783 1.75349 0
M  V30 14592 C 1345.73 4.07171 1.31892 0
M  V30 14593 C 1345.06 4.68406 2.57876 0
M  V30 14594 C 1346.36 5.20313 0.455167 0
M  V30 14595 H 1348.05 2.99395 -0.0171936 0
M  V30 14596 H 1345.6 1.43997 -0.00970944 0
M  V30 14597 H 1347.55 3.48448 2.36986 0
M  V30 14598 H 1346.27 2.24181 2.37509 0
M  V30 14599 H 1344.93 3.59346 0.725653 0
M  V30 14600 H 1344.58 3.89451 3.18335 0
M  V30 14601 H 1344.28 5.40927 2.29502 0
M  V30 14602 H 1345.8 5.1983 3.20327 0
M  V30 14603 H 1347.22 5.64913 0.977026 0
M  V30 14604 H 1345.61 5.99512 0.265501 0
M  V30 14605 H 1346.68 4.82088 -0.521434 0
M  V30 14606 N 1348.03 0.0217466 1.57585 0
M  V30 14607 C 1348.96 -0.961069 2.12804 0
M  V30 14608 C 1349.94 -1.3442 1.04237 0
M  V30 14609 O 1351.12 -1.42412 1.32032 0
M  V30 14610 C 1348.25 -2.24586 2.64912 0
M  V30 14611 C 1347.21 -2.0037 3.78201 0
M  V30 14612 C 1346.53 -3.35051 4.16708 0
M  V30 14613 C 1347.83 -1.34879 5.04584 0
M  V30 14614 H 1349.53 -0.501222 2.95175 0
M  V30 14615 H 1347.07 -0.239649 1.41992 0
M  V30 14616 H 1349.03 -2.93715 3.02175 0
M  V30 14617 H 1347.75 -2.72723 1.79693 0
M  V30 14618 H 1346.41 -1.33662 3.41365 0
M  V30 14619 H 1346.06 -3.80932 3.28481 0
M  V30 14620 H 1345.76 -3.19656 4.93045 0
M  V30 14621 H 1347.28 -4.05459 4.56547 0
M  V30 14622 H 1348.7 -1.93997 5.3948 0
M  V30 14623 H 1347.09 -1.29906 5.85871 0
M  V30 14624 H 1348.16 -0.320774 4.83838 0
M  V30 14625 N 1349.51 -1.55583 -0.251311 0
M  V30 14626 C 1350.42 -1.93073 -1.33266 0
M  V30 14627 C 1351.43 -0.830612 -1.52895 0
M  V30 14628 O 1352.61 -1.13162 -1.66602 0
M  V30 14629 C 1349.67 -2.21396 -2.66805 0
M  V30 14630 C 1348.73 -3.44815 -2.55737 0
M  V30 14631 C 1347.97 -3.71777 -3.82907 0
M  V30 14632 O 1348.19 -3.00884 -4.84587 0
M  V30 14633 O 1347.12 -4.65305 -3.81805 0
M  V30 14634 H 1350.95 -2.85168 -1.04465 0
M  V30 14635 H 1348.53 -1.42408 -0.451693 0
M  V30 14636 H 1350.42 -2.4094 -3.45725 0
M  V30 14637 H 1349.09 -1.3248 -2.95348 0
M  V30 14638 H 1348 -3.30582 -1.75118 0
M  V30 14639 H 1349.33 -4.34019 -2.32139 0
M  V30 14640 N 1350.98 0.516783 -1.48886 0
M  V30 14641 C 1352.39 1.09856 -1.50959 0
M  V30 14642 C 1352.75 1.94092 -0.28681 0
M  V30 14643 O 1351.87 2.07774 0.604877 0
M  V30 14644 C 1352.47 1.999 -2.73542 0
M  V30 14645 C 1351.02 2.5327 -2.78444 0
M  V30 14646 C 1350.17 1.30526 -2.44659 0
M  V30 14647 H 1353.12 0.301415 -1.55811 0
M  V30 14648 H 1353.14 2.84373 -2.52809 0
M  V30 14649 H 1352.66 1.38564 -3.62521 0
M  V30 14650 H 1350.76 3.1829 -1.93707 0
M  V30 14651 H 1350.87 2.91502 -3.80215 0
M  V30 14652 H 1349.23 1.62536 -1.96097 0
M  V30 14653 H 1350.02 0.709223 -3.35894 0
M  V30 14654 N 1352.46 1.37696 0.766659 0
M  V30 14655 C 1353.37 1.36075 1.91104 0
M  V30 14656 C 1354.39 0.259617 1.72052 0
M  V30 14657 O 1355.56 0.49586 1.952 0
M  V30 14658 C 1352.63 1.17176 3.26298 0
M  V30 14659 C 1351.69 2.36975 3.57968 0
M  V30 14660 C 1350.92 2.18968 4.86712 0
M  V30 14661 O 1351.15 1.17658 5.58133 0
M  V30 14662 O 1350.08 3.07269 5.17561 0
M  V30 14663 H 1353.91 2.32472 1.95424 0
M  V30 14664 H 1351.49 1.18478 0.910122 0
M  V30 14665 H 1353.37 1.08645 4.07154 0
M  V30 14666 H 1352.05 0.238559 3.2282 0
M  V30 14667 H 1350.95 2.51079 2.77327 0
M  V30 14668 H 1352.29 3.2888 3.66195 0
M  V30 14669 N 1353.94 -0.993397 1.22349 0
M  V30 14670 C 1355.17 -1.76838 1.07406 0
M  V30 14671 C 1355.58 -1.8503 -0.37542 0
M  V30 14672 O 1354.94 -1.32008 -1.26016 0
M  V30 14673 C 1354.99 -3.20177 1.67837 0
M  V30 14674 O 1354.71 -3.12429 3.07115 0
M  V30 14675 C 1356.21 -4.14125 1.58161 0
M  V30 14676 H 1353.43 -0.555379 0.376557 0
M  V30 14677 H 1355.98 -1.24893 1.61932 0
M  V30 14678 H 1354.13 -3.69191 1.17375 0
M  V30 14679 H 1354.55 -4.02568 3.36213 0
M  V30 14680 H 1356.02 -5.12455 2.05169 0
M  V30 14681 H 1356.5 -4.35892 0.538073 0
M  V30 14682 H 1357.1 -3.71008 2.07926 0
M  V30 14683 N 1355.42 -1.03311 -1.19015 0
M  V30 14684 C 1356.67 -0.727266 -1.88132 0
M  V30 14685 C 1356.98 0.747488 -1.80754 0
M  V30 14686 O 1358.19 1.16654 -2.45161 0
M  V30 14687 C 1356.64 -1.25056 -3.37474 0
M  V30 14688 C 1356.25 -2.7534 -3.534 0
M  V30 14689 C 1357.99 -1.02091 -4.12041 0
M  V30 14690 C 1355.9 -3.21066 -4.96659 0
M  V30 14691 H 1354.83 -0.268349 -0.704631 0
M  V30 14692 H 1357.48 -1.24795 -1.3453 0
M  V30 14693 H 1355.86 -0.65777 -3.90499 0
M  V30 14694 H 1357.04 -3.40311 -3.10684 0
M  V30 14695 H 1355.35 -2.96633 -2.92229 0
M  V30 14696 H 1357.95 -1.33777 -5.17695 0
M  V30 14697 H 1358.29 0.0421413 -4.16279 0
M  V30 14698 H 1358.83 -1.57792 -3.65166 0
M  V30 14699 H 1355.56 -4.26719 -4.97586 0
M  V30 14700 H 1355.08 -2.60826 -5.4012 0
M  V30 14701 H 1356.76 -3.14651 -5.65335 0
M  V30 14702 N 1356.9 1.35099 -0.81154 0
M  V30 14703 C 1358.12 2.03391 -0.405805 0
M  V30 14704 C 1358.55 1.60745 0.97686 0
M  V30 14705 O 1357.9 0.786518 1.63351 0
M  V30 14706 C 1357.95 3.57075 -0.502954 0
M  V30 14707 O 1357.06 4.09577 0.481681 0
M  V30 14708 H 1356.4 0.642203 -0.168733 0
M  V30 14709 H 1358.93 1.72591 -1.0988 0
M  V30 14710 H 1358.94 4.06277 -0.37456 0
M  V30 14711 H 1357.61 3.87463 -1.51145 0
M  V30 14712 H 1356.19 3.71583 0.313115 0
M  V30 14713 N 1358.37 0.56548 1.47106 0
M  V30 14714 C 1359.28 -0.180488 2.33905 0
M  V30 14715 C 1360.3 -0.90355 1.48701 0
M  V30 14716 O 1361.48 -0.870595 1.81611 0
M  V30 14717 C 1358.54 -1.19212 3.2556 0
M  V30 14718 C 1357.6 -0.475589 4.26658 0
M  V30 14719 C 1356.83 -1.43902 5.13934 0
M  V30 14720 O 1357.06 -2.67443 5.03816 0
M  V30 14721 O 1355.99 -0.958998 5.94211 0
M  V30 14722 H 1359.82 0.531726 2.99009 0
M  V30 14723 H 1357.4 0.32602 1.45799 0
M  V30 14724 H 1359.28 -1.77586 3.82153 0
M  V30 14725 H 1357.96 -1.8861 2.63074 0
M  V30 14726 H 1356.87 0.149561 3.73801 0
M  V30 14727 H 1358.2 0.177103 4.91881 0
M  V30 14728 N 1359.85 -1.54672 0.302354 0
M  V30 14729 C 1361.13 -1.92264 -0.359711 0
M  V30 14730 C 1361.51 -1.22973 -1.71583 0
M  V30 14731 O 1360.86 -0.365942 -2.25551 0
M  V30 14732 C 1361.07 -3.4578 -0.473019 0
M  V30 14733 C 1362.42 -4.18044 -0.743252 0
M  V30 14734 O 1363.44 -3.51822 -0.556778 0
M  V30 14735 O 1362.3 -5.35283 -1.10155 0
M  V30 14736 H 1359.39 -0.802112 -0.201359 0
M  V30 14737 H 1361.94 -1.66041 0.350513 0
M  V30 14738 H 1360.71 -3.88342 0.480265 0
M  V30 14739 H 1360.33 -3.78042 -1.23166 0
M  V30 14740 N 1361.33 -0.0301034 -1.57571 0
M  V30 14741 C 1362.58 0.647672 -1.91019 0
M  V30 14742 C 1362.89 1.73234 -0.908265 0
M  V30 14743 O 1364.1 2.46682 -1.13402 0
M  V30 14744 C 1362.55 1.20327 -3.3919 0
M  V30 14745 C 1362.16 0.151833 -4.47743 0
M  V30 14746 C 1363.91 1.8575 -3.81703 0
M  V30 14747 C 1361.81 0.719119 -5.87012 0
M  V30 14748 H 1360.74 0.245682 -0.712851 0
M  V30 14749 H 1363.39 -0.0955645 -1.83251 0
M  V30 14750 H 1361.78 1.99814 -3.41892 0
M  V30 14751 H 1362.95 -0.620659 -4.56601 0
M  V30 14752 H 1361.27 -0.403699 -4.14438 0
M  V30 14753 H 1363.86 2.29151 -4.83109 0
M  V30 14754 H 1364.21 2.70061 -3.16817 0
M  V30 14755 H 1364.74 1.1295 -3.81428 0
M  V30 14756 H 1361.48 -0.0858832 -6.55444 0
M  V30 14757 H 1361 1.46008 -5.81758 0
M  V30 14758 H 1362.68 1.20856 -6.35612 0
M  V30 14759 N 1362.81 1.55714 0.243056 0
M  V30 14760 C 1364.03 1.82126 0.992219 0
M  V30 14761 C 1364.46 0.607665 1.78014 0
M  V30 14762 O 1363.82 -0.443351 1.75796 0
M  V30 14763 C 1363.86 3.06314 1.90274 0
M  V30 14764 O 1362.97 2.83499 2.99503 0
M  V30 14765 H 1362.31 0.601082 0.282128 0
M  V30 14766 H 1364.84 2.02904 0.262881 0
M  V30 14767 H 1364.85 3.35849 2.31666 0
M  V30 14768 H 1363.52 3.94282 1.32344 0
M  V30 14769 H 1362.1 2.65141 2.62211 0
M  V30 14770 N 1364.29 -0.50888 1.49158 0
M  V30 14771 C 1365.53 -1.26537 1.58481 0
M  V30 14772 C 1365.87 -1.92353 0.267168 0
M  V30 14773 O 1365.14 -1.80336 -0.728639 0
M  V30 14774 C 1365.42 -2.33846 2.73839 0
M  V30 14775 C 1365.28 -1.72582 4.15374 0
M  V30 14776 C 1366.6 -3.35467 2.84868 0
M  V30 14777 H 1363.71 -0.458697 0.576859 0
M  V30 14778 H 1366.36 -0.564728 1.81413 0
M  V30 14779 H 1364.51 -2.93605 2.54417 0
M  V30 14780 H 1366.18 -1.16711 4.46292 0
M  V30 14781 H 1364.42 -1.03025 4.21389 0
M  V30 14782 H 1365.09 -2.5038 4.91949 0
M  V30 14783 H 1367.57 -2.85689 3.02524 0
M  V30 14784 H 1366.44 -4.07922 3.67275 0
M  V30 14785 H 1366.71 -3.97313 1.93894 0
M  V30 14786 N 1365.76 -1.381 -0.759346 0
M  V30 14787 C 1367.04 -1.24517 -1.50847 0
M  V30 14788 C 1367.42 0.155929 -2.10523 0
M  V30 14789 O 1366.77 1.16485 -1.96579 0
M  V30 14790 C 1366.98 -2.35086 -2.57945 0
M  V30 14791 C 1368.33 -2.73232 -3.25007 0
M  V30 14792 O 1369.35 -2.34355 -2.68247 0
M  V30 14793 O 1368.21 -3.40254 -4.27656 0
M  V30 14794 H 1365.3 -0.486599 -0.668693 0
M  V30 14795 H 1367.85 -1.49913 -0.795249 0
M  V30 14796 H 1366.62 -3.28858 -2.12056 0
M  V30 14797 H 1366.25 -2.11222 -3.36854 0
M  V30 14798 N 1367.24 0.986894 -1.22875 0
M  V30 14799 C 1368.47 1.76266 -1.08342 0
M  V30 14800 C 1368.89 1.85226 0.365602 0
M  V30 14801 O 1368.24 1.32675 1.25314 0
M  V30 14802 C 1368.29 3.19282 -1.69533 0
M  V30 14803 O 1368.01 3.10796 -3.08768 0
M  V30 14804 C 1369.52 4.13281 -1.60355 0
M  V30 14805 H 1366.74 0.553374 -0.379497 0
M  V30 14806 H 1369.28 1.24033 -1.62592 0
M  V30 14807 H 1367.43 3.68563 -1.19332 0
M  V30 14808 H 1367.85 4.0078 -3.38343 0
M  V30 14809 H 1369.32 5.11359 -2.07884 0
M  V30 14810 H 1369.8 4.356 -0.561182 0
M  V30 14811 H 1370.41 3.699 -2.09891 0
M  V30 14812 N 1368.72 1.0394 1.18466 0
M  V30 14813 C 1369.95 0.761926 1.92897 0
M  V30 14814 C 1370.37 -0.674618 1.75586 0
M  V30 14815 O 1369.73 -1.46711 1.06515 0
M  V30 14816 C 1369.78 1.13152 3.42387 0
M  V30 14817 O 1368.88 0.256266 4.11603 0
M  V30 14818 H 1368.22 0.280527 0.601831 0
M  V30 14819 H 1370.75 1.3889 1.50235 0
M  V30 14820 H 1370.76 1.0929 3.9309 0
M  V30 14821 H 1369.44 2.17804 3.54308 0
M  V30 14822 H 1368.01 0.354392 3.71212 0
M  V30 14823 N 1370.2 -1.34667 0.818693 0
M  V30 14824 C 1371.44 -1.99131 0.414527 0
M  V30 14825 C 1371.8 -1.63747 -1.01018 0
M  V30 14826 O 1371.09 -0.896699 -1.69322 0
M  V30 14827 C 1371.29 -3.53157 0.549059 0
M  V30 14828 C 1371.12 -4.03505 1.98529 0
M  V30 14829 C 1369.89 -4.32296 2.61627 0
M  V30 14830 C 1372.08 -4.2118 2.95147 0
M  V30 14831 N 1370.07 -4.68651 3.96534 0
M  V30 14832 C 1371.44 -4.60668 4.14952 0
M  V30 14833 C 1373.49 -4.03418 2.91819 0
M  V30 14834 C 1372.19 -4.8425 5.31878 0
M  V30 14835 C 1374.22 -4.28164 4.07958 0
M  V30 14836 C 1373.58 -4.67934 5.26514 0
M  V30 14837 H 1369.68 -0.75607 0.199704 0
M  V30 14838 H 1372.27 -1.63154 1.0625 0
M  V30 14839 H 1370.44 -3.88339 -0.0689894 0
M  V30 14840 H 1372.17 -4.04527 0.118304 0
M  V30 14841 H 1368.92 -4.23051 2.12896 0
M  V30 14842 H 1369.35 -4.9107 4.66025 0
M  V30 14843 H 1373.99 -3.71802 2.01303 0
M  V30 14844 H 1371.71 -5.14734 6.22956 0
M  V30 14845 H 1375.29 -4.15961 4.06777 0
M  V30 14846 H 1374.17 -4.86707 6.14887 0
M  V30 14847 N 1371.68 -0.573274 -1.46804 0
M  V30 14848 C 1372.62 0.165358 -2.30207 0
M  V30 14849 C 1373.59 0.89312 -1.40045 0
M  V30 14850 O 1374.78 0.885653 -1.68999 0
M  V30 14851 C 1371.92 1.17915 -3.2433 0
M  V30 14852 C 1371.03 0.455805 -4.29589 0
M  V30 14853 C 1370.17 1.45629 -5.10848 0
M  V30 14854 C 1369.21 0.718822 -6.07865 0
M  V30 14855 N 1368.34 1.66691 -6.82025 0
M  V30 14856 H 1373.18 -0.551947 -2.92844 0
M  V30 14857 H 1370.72 -0.28401 -1.44332 0
M  V30 14858 H 1372.68 1.77969 -3.77337 0
M  V30 14859 H 1371.31 1.86429 -2.63523 0
M  V30 14860 H 1370.36 -0.259584 -3.79513 0
M  V30 14861 H 1371.67 -0.121161 -4.98653 0
M  V30 14862 H 1370.83 2.1299 -5.68084 0
M  V30 14863 H 1369.56 2.06718 -4.41723 0
M  V30 14864 H 1368.57 0.0313773 -5.49791 0
M  V30 14865 H 1369.79 0.113452 -6.79005 0
M  V30 14866 H 1367.74 2.26608 -6.15617 0
M  V30 14867 H 1367.66 1.14251 -7.47317 0
M  V30 14868 H 1368.93 2.33117 -7.43826 0
M  V30 14869 N 1373.15 1.5451 -0.310553 0
M  V30 14870 C 1374.1 2.25332 0.576928 0
M  V30 14871 C 1375.1 1.26272 1.12924 0
M  V30 14872 O 1376.3 1.44092 1.07878 0
M  V30 14873 H 1372.68 0.723611 0.204674 0
M  V30 14874 H 1374.65 2.98369 -0.0428167 0
M  V30 14875 C 1373.4 3.01455 1.73263 0
M  V30 14876 H 1372.72 3.7749 1.31688 0
M  V30 14877 H 1374.16 3.54276 2.32947 0
M  V30 14878 C 1372.62 2.08984 2.64248 0
M  V30 14879 O 1373.15 1.66414 3.65608 0
M  V30 14880 N 1371.36 1.74742 2.32193 0
M  V30 14881 H 1370.9 2.09558 1.49811 0
M  V30 14882 H 1370.86 1.13148 2.93334 0
M  V30 14883 N 1374.63 0.0384594 1.57553 0
M  V30 14884 C 1375.58 -0.940256 2.10779 0
M  V30 14885 C 1376.55 -1.31705 1.01208 0
M  V30 14886 O 1377.74 -1.40874 1.28683 0
M  V30 14887 C 1374.88 -2.21419 2.64703 0
M  V30 14888 C 1373.99 -1.89302 3.88315 0
M  V30 14889 C 1373.12 -3.1106 4.30599 0
M  V30 14890 C 1372.16 -2.74805 5.46945 0
M  V30 14891 N 1371.3 -3.89217 5.84341 0
M  V30 14892 H 1376.14 -0.479458 2.94118 0
M  V30 14893 H 1373.68 -0.22505 1.45368 0
M  V30 14894 H 1375.63 -2.95946 2.94061 0
M  V30 14895 H 1374.26 -2.65099 1.84181 0
M  V30 14896 H 1373.32 -1.04977 3.65628 0
M  V30 14897 H 1374.63 -1.58607 4.72912 0
M  V30 14898 H 1373.78 -3.93898 4.61442 0
M  V30 14899 H 1372.52 -3.44924 3.44788 0
M  V30 14900 H 1371.53 -1.9038 5.15786 0
M  V30 14901 H 1372.75 -2.42147 6.34462 0
M  V30 14902 H 1370.7 -4.22905 5.01485 0
M  V30 14903 H 1370.61 -3.62177 6.63599 0
M  V30 14904 H 1371.88 -4.72732 6.19794 0
M  V30 14905 N 1376.11 -1.55841 -0.234795 0
M  V30 14906 C 1377.39 -1.69008 -0.984665 0
M  V30 14907 C 1377.77 -0.581882 -2.02922 0
M  V30 14908 O 1377.12 0.412998 -2.24737 0
M  V30 14909 C 1377.33 -3.09796 -1.60708 0
M  V30 14910 C 1378.67 -3.68784 -2.10436 0
M  V30 14911 O 1379.7 -3.12674 -1.70627 0
M  V30 14912 O 1378.56 -4.67175 -2.83567 0
M  V30 14913 H 1375.65 -0.68786 -0.459105 0
M  V30 14914 H 1378.2 -1.68166 -0.227623 0
M  V30 14915 H 1376.97 -3.81908 -0.852169 0
M  V30 14916 H 1376.59 -3.147 -2.43001 0
M  V30 14917 N 1377.59 0.500963 -1.49426 0
M  V30 14918 C 1378.5 1.62889 -1.68833 0
M  V30 14919 C 1379.52 1.64367 -0.570932 0
M  V30 14920 O 1380.69 1.82786 -0.845641 0
M  V30 14921 C 1377.76 2.99255 -1.75063 0
M  V30 14922 C 1376.82 3.08404 -2.9864 0
M  V30 14923 C 1376.05 4.38266 -3.04564 0
M  V30 14924 O 1376.27 5.27065 -2.1808 0
M  V30 14925 O 1375.21 4.52387 -3.97026 0
M  V30 14926 H 1379.03 1.49446 -2.64385 0
M  V30 14927 H 1376.62 0.677254 -1.33168 0
M  V30 14928 H 1378.5 3.80303 -1.81515 0
M  V30 14929 H 1377.18 3.1296 -0.826896 0
M  V30 14930 H 1376.08 2.26544 -2.97706 0
M  V30 14931 H 1377.42 2.99626 -3.90494 0
M  V30 14932 N 1379.07 1.38501 0.752011 0
M  V30 14933 C 1380 1.30236 1.87387 0
M  V30 14934 C 1380.98 0.179099 1.61611 0
M  V30 14935 O 1382.16 0.356686 1.85095 0
M  V30 14936 C 1379.29 1.01829 3.2303 0
M  V30 14937 C 1378.34 2.16114 3.67691 0
M  V30 14938 S 1379.17 3.78266 3.79044 0
M  V30 14939 C 1380.32 3.5205 5.17505 0
M  V30 14940 H 1380.56 2.25185 1.94111 0
M  V30 14941 H 1378.09 1.24356 0.915152 0
M  V30 14942 H 1380.05 0.861231 4.01364 0
M  V30 14943 H 1378.71 0.0859612 3.13982 0
M  V30 14944 H 1377.9 1.91788 4.66083 0
M  V30 14945 H 1377.5 2.27936 2.96515 0
M  V30 14946 H 1379.8 3.08262 6.03308 0
M  V30 14947 H 1380.74 4.49842 5.46853 0
M  V30 14948 H 1381.15 2.86528 4.86377 0
M  V30 14949 N 1380.55 -0.980364 1.23396 0
M  V30 14950 C 1381.48 -2.07099 0.958403 0
M  V30 14951 C 1382.46 -1.62272 -0.1033 0
M  V30 14952 O 1383.64 -1.88475 0.0309639 0
M  V30 14953 C 1380.77 -3.35779 0.443864 0
M  V30 14954 C 1379.81 -3.99545 1.49218 0
M  V30 14955 S 1380.65 -4.3879 3.06958 0
M  V30 14956 C 1381.8 -5.70624 2.57174 0
M  V30 14957 H 1382.04 -2.30154 1.88192 0
M  V30 14958 H 1379.57 -1.11656 1.06641 0
M  V30 14959 H 1381.53 -4.10213 0.153603 0
M  V30 14960 H 1380.19 -3.10732 -0.458738 0
M  V30 14961 H 1379.38 -4.92242 1.0823 0
M  V30 14962 H 1378.98 -3.31489 1.73179 0
M  V30 14963 H 1381.27 -6.47555 1.99197 0
M  V30 14964 H 1382.22 -6.16454 3.48411 0
M  V30 14965 H 1382.63 -5.28626 1.98028 0
M  V30 14966 N 1382.02 -1.04567 -1.17913 0
M  V30 14967 C 1383.43 -0.779118 -1.69666 0
M  V30 14968 C 1383.79 0.699448 -1.83309 0
M  V30 14969 O 1382.91 1.54407 -1.51616 0
M  V30 14970 C 1383.51 -1.40769 -3.08171 0
M  V30 14971 C 1382.06 -1.18933 -3.57116 0
M  V30 14972 C 1381.21 -1.49519 -2.33536 0
M  V30 14973 H 1384.16 -1.21144 -1.02518 0
M  V30 14974 H 1384.18 -0.813584 -3.717 0
M  V30 14975 H 1383.7 -2.4838 -2.9821 0
M  V30 14976 H 1381.8 -0.132184 -3.72365 0
M  V30 14977 H 1381.91 -1.88987 -4.40251 0
M  V30 14978 H 1380.27 -0.915056 -2.37695 0
M  V30 14979 H 1381.06 -2.5825 -2.26189 0
M  V30 14980 N 1383.5 1.34231 -0.825823 0
M  V30 14981 C 1384.73 2.02417 -0.428348 0
M  V30 14982 C 1385.14 1.62181 0.966573 0
M  V30 14983 O 1384.5 0.828691 1.62601 0
M  V30 14984 C 1384.55 3.57678 -0.524271 0
M  V30 14985 O 1384.27 3.96458 -1.86422 0
M  V30 14986 C 1385.77 4.43132 -0.122069 0
M  V30 14987 H 1382.99 0.648699 -0.171554 0
M  V30 14988 H 1385.54 1.71443 -1.11478 0
M  V30 14989 H 1383.69 3.87232 0.114112 0
M  V30 14990 H 1384.11 4.91147 -1.84051 0
M  V30 14991 H 1385.58 5.51477 -0.240264 0
M  V30 14992 H 1386.06 4.29139 0.934705 0
M  V30 14993 H 1386.66 4.18912 -0.734366 0
M  V30 14994 N 1384.98 0.581051 1.46498 0
M  V30 14995 C 1386.21 0.0715652 2.06776 0
M  V30 14996 C 1386.62 -1.23267 1.43006 0
M  V30 14997 O 1385.98 -1.74489 0.534776 0
M  V30 14998 C 1386.03 -0.102666 3.61354 0
M  V30 14999 O 1385.75 1.14995 4.22739 0
M  V30 15000 C 1387.25 -0.646692 4.38558 0
M  V30 15001 H 1384.47 0.0566964 0.6686 0
M  V30 15002 H 1387.02 0.801248 1.8815 0
M  V30 15003 H 1385.17 -0.782564 3.79414 0
M  V30 15004 H 1385.59 0.962718 5.15589 0
M  V30 15005 H 1387.06 -0.717791 5.47313 0
M  V30 15006 H 1387.54 -1.6633 4.06486 0
M  V30 15007 H 1388.14 -0.00171739 4.253 0
M  V30 15008 N 1386.46 -1.54343 0.318742 0
M  V30 15009 C 1387.7 -2.00777 -0.285699 0
M  V30 15010 C 1388.04 -1.20664 -1.52164 0
M  V30 15011 O 1387.31 -0.287674 -1.92361 0
M  V30 15012 C 1387.59 -3.54641 -0.624649 0
M  V30 15013 C 1387.45 -4.45483 0.621663 0
M  V30 15014 C 1388.77 -4.15729 -1.4442 0
M  V30 15015 H 1385.89 -0.729856 -0.102367 0
M  V30 15016 H 1388.53 -1.84968 0.434364 0
M  V30 15017 H 1386.68 -3.68243 -1.23811 0
M  V30 15018 H 1388.35 -4.43759 1.25998 0
M  V30 15019 H 1386.59 -4.15356 1.25148 0
M  V30 15020 H 1387.26 -5.50951 0.340106 0
M  V30 15021 H 1389.74 -4.05672 -0.925699 0
M  V30 15022 H 1388.62 -5.23509 -1.65013 0
M  V30 15023 H 1388.88 -3.68743 -2.43887 0
M  V30 15024 N 1387.94 -0.0468143 -1.5753 0
M  V30 15025 C 1389.18 0.628869 -1.92803 0
M  V30 15026 C 1389.51 1.70751 -0.925083 0
M  V30 15027 O 1388.79 1.94437 0.0495821 0
M  V30 15028 C 1389.07 1.22899 -3.38479 0
M  V30 15029 C 1388.93 0.158707 -4.4952 0
M  V30 15030 C 1390.24 2.1419 -3.84461 0
M  V30 15031 H 1387.36 0.227137 -0.701126 0
M  V30 15032 H 1390.01 -0.107689 -1.89695 0
M  V30 15033 H 1388.16 1.85674 -3.41259 0
M  V30 15034 H 1389.83 -0.472963 -4.58869 0
M  V30 15035 H 1388.07 -0.51375 -4.30747 0
M  V30 15036 H 1388.74 0.618545 -5.48523 0
M  V30 15037 H 1391.22 1.61382 -3.8353 0
M  V30 15038 H 1390.09 2.53125 -4.87051 0
M  V30 15039 H 1390.35 3.04024 -3.2097 0
M  V30 15040 N 1389.41 1.55964 0.226527 0
M  V30 15041 C 1390.64 1.83168 0.972846 0
M  V30 15042 C 1391.06 0.626512 1.7736 0
M  V30 15043 O 1390.42 -0.42468 1.76256 0
M  V30 15044 C 1390.47 3.08315 1.87014 0
M  V30 15045 O 1389.57 2.8666 2.96479 0
M  V30 15046 H 1388.92 0.604041 0.275736 0
M  V30 15047 H 1391.45 2.03172 0.241345 0
M  V30 15048 H 1391.46 3.38288 2.28091 0
M  V30 15049 H 1390.13 3.95663 1.28154 0
M  V30 15050 H 1388.71 2.67907 2.59384 0
M  V30 15051 N 1390.89 -0.493031 1.4969 0
M  V30 15052 C 1391.82 -1.60215 1.69863 0
M  V30 15053 C 1392.8 -1.61053 0.547362 0
M  V30 15054 O 1393.99 -1.77667 0.784093 0
M  V30 15055 C 1391.12 -2.98662 1.77252 0
M  V30 15056 C 1390.07 -3.1269 2.92248 0
M  V30 15057 C 1389.4 -4.52567 2.84758 0
M  V30 15058 C 1390.7 -2.91965 4.33074 0
M  V30 15059 H 1392.39 -1.43587 2.62723 0
M  V30 15060 H 1389.94 -0.689334 1.26429 0
M  V30 15061 H 1391.89 -3.7616 1.89951 0
M  V30 15062 H 1390.62 -3.16397 0.809976 0
M  V30 15063 H 1389.27 -2.37619 2.79164 0
M  V30 15064 H 1388.92 -4.6719 1.86394 0
M  V30 15065 H 1388.62 -4.62893 3.61944 0
M  V30 15066 H 1390.15 -5.32116 2.99475 0
M  V30 15067 H 1391.56 -3.59228 4.46798 0
M  V30 15068 H 1389.96 -3.13756 5.11544 0
M  V30 15069 H 1391.03 -1.88015 4.46966 0
M  V30 15070 N 1392.37 -1.38898 -0.744656 0
M  V30 15071 C 1393.3 -1.39571 -1.87195 0
M  V30 15072 C 1394.28 -0.260372 -1.68095 0
M  V30 15073 O 1395.47 -0.464776 -1.88556 0
M  V30 15074 C 1392.6 -1.22889 -3.24832 0
M  V30 15075 C 1391.55 -2.33721 -3.58551 0
M  V30 15076 C 1390.88 -2.02136 -4.9502 0
M  V30 15077 C 1392.18 -3.7601 -3.62511 0
M  V30 15078 H 1393.87 -2.33908 -1.86889 0
M  V30 15079 H 1391.42 -1.12591 -0.897739 0
M  V30 15080 H 1393.37 -1.21983 -4.03359 0
M  V30 15081 H 1392.09 -0.250172 -3.2564 0
M  V30 15082 H 1390.75 -2.33828 -2.82348 0
M  V30 15083 H 1390.4 -1.02726 -4.92399 0
M  V30 15084 H 1390.1 -2.76371 -5.18549 0
M  V30 15085 H 1391.62 -2.02864 -5.75915 0
M  V30 15086 H 1393.04 -3.77885 -4.31133 0
M  V30 15087 H 1391.44 -4.49524 -3.97553 0
M  V30 15088 H 1392.51 -4.07682 -2.62533 0
M  V30 15089 N 1393.85 0.973806 -1.23914 0
M  V30 15090 C 1395.07 1.7564 -1.10296 0
M  V30 15091 C 1395.5 1.84984 0.340954 0
M  V30 15092 O 1394.86 1.31629 1.24674 0
M  V30 15093 C 1394.9 3.15809 -1.7406 0
M  V30 15094 O 1394.01 3.99911 -1.00722 0
M  V30 15095 H 1393.35 0.540133 -0.386202 0
M  V30 15096 H 1395.88 1.22197 -1.64101 0
M  V30 15097 H 1395.89 3.66359 -1.79568 0
M  V30 15098 H 1394.56 3.08324 -2.79122 0
M  V30 15099 H 1393.14 3.58405 -1.02956 0
M  V30 15100 N 1395.33 1.05191 1.17357 0
M  V30 15101 C 1396.55 0.782373 1.91537 0
M  V30 15102 C 1396.97 -0.661935 1.76816 0
M  V30 15103 O 1396.33 -1.45221 1.10531 0
M  V30 15104 C 1396.38 1.15357 3.426 0
M  V30 15105 O 1396.1 2.54119 3.56869 0
M  V30 15106 C 1397.6 0.910167 4.33856 0
M  V30 15107 H 1394.82 0.284461 0.607719 0
M  V30 15108 H 1397.36 1.40259 1.48821 0
M  V30 15109 H 1395.52 0.578107 3.83062 0
M  V30 15110 H 1395.93 2.68668 4.50464 0
M  V30 15111 H 1397.41 1.21964 5.38358 0
M  V30 15112 H 1397.88 -0.154624 4.38928 0
M  V30 15113 H 1398.49 1.46947 3.99107 0
M  V30 15114 N 1396.8 -1.33791 0.83293 0
M  V30 15115 C 1398.03 -2.02187 0.439077 0
M  V30 15116 C 1398.45 -1.62692 -0.957958 0
M  V30 15117 O 1397.8 -0.837302 -1.62159 0
M  V30 15118 C 1397.86 -3.57395 0.543232 0
M  V30 15119 O 1397.58 -3.95463 1.88522 0
M  V30 15120 C 1399.08 -4.43061 0.145567 0
M  V30 15121 H 1396.3 -0.64778 0.174992 0
M  V30 15122 H 1398.84 -1.7085 1.12386 0
M  V30 15123 H 1397 -3.87287 -0.0935746 0
M  V30 15124 H 1397.41 -4.90164 1.86653 0
M  V30 15125 H 1398.88 -5.51342 0.269507 0
M  V30 15126 H 1399.36 -4.29628 -0.911934 0
M  V30 15127 H 1399.97 -4.18517 0.756572 0
M  V30 15128 N 1398.28 -0.588812 -1.46187 0
M  V30 15129 C 1399.56 -0.00958331 -1.95598 0
M  V30 15130 C 1399.94 1.45294 -1.53144 0
M  V30 15131 O 1399.29 2.14592 -0.785015 0
M  V30 15132 C 1399.5 -0.188018 -3.48493 0
M  V30 15133 C 1400.85 -0.0590152 -4.24559 0
M  V30 15134 O 1401.87 -0.117167 -3.56007 0
M  V30 15135 O 1400.73 0.0715924 -5.46453 0
M  V30 15136 H 1397.82 0.0463708 -0.825699 0
M  V30 15137 H 1400.37 -0.657558 -1.56443 0
M  V30 15138 H 1399.14 -1.20449 -3.723 0
M  V30 15139 H 1398.76 0.496103 -3.94493 0
M  V30 15140 N 1399.76 1.54172 -0.326923 0
M  V30 15141 C 1400.69 2.27402 0.530154 0
M  V30 15142 C 1401.67 1.28325 1.11655 0
M  V30 15143 O 1402.86 1.57142 1.14105 0
M  V30 15144 C 1399.99 3.03435 1.68951 0
M  V30 15145 C 1398.94 4.09877 1.23226 0
M  V30 15146 C 1398.27 4.7377 2.47882 0
M  V30 15147 C 1399.57 5.21161 0.344698 0
M  V30 15148 H 1401.26 2.99291 -0.0806959 0
M  V30 15149 H 1398.81 1.43944 -0.0402511 0
M  V30 15150 H 1400.76 3.53396 2.29541 0
M  V30 15151 H 1399.48 2.29169 2.327 0
M  V30 15152 H 1398.14 3.60805 0.649267 0
M  V30 15153 H 1397.79 3.96116 3.10002 0
M  V30 15154 H 1397.49 5.45674 2.17977 0
M  V30 15155 H 1399.01 5.26507 3.09229 0
M  V30 15156 H 1400.43 5.66859 0.856979 0
M  V30 15157 H 1398.83 5.99941 0.138276 0
M  V30 15158 H 1399.9 4.80874 -0.623575 0
M  V30 15159 N 1401.24 0.0551678 1.57503 0
M  V30 15160 C 1402.15 -0.932959 2.15251 0
M  V30 15161 C 1403.16 -1.33885 1.11134 0
M  V30 15162 O 1404.34 -1.41495 1.43321 0
M  V30 15163 C 1401.41 -2.18807 2.68932 0
M  V30 15164 C 1400.47 -1.84016 3.87862 0
M  V30 15165 C 1399.7 -3.03543 4.38973 0
M  V30 15166 O 1399.92 -4.17041 3.89144 0
M  V30 15167 O 1398.86 -2.84325 5.30512 0
M  V30 15168 H 1402.68 -0.471816 3.00013 0
M  V30 15169 H 1400.27 -0.16696 1.48464 0
M  V30 15170 H 1402.15 -2.92439 3.0341 0
M  V30 15171 H 1400.82 -2.64051 1.87239 0
M  V30 15172 H 1399.73 -1.07687 3.58266 0
M  V30 15173 H 1401.06 -1.43567 4.70796 0
M  V30 15174 N 1402.72 -1.56081 -0.218252 0
M  V30 15175 C 1403.66 -1.92684 -1.27049 0
M  V30 15176 C 1404.63 -0.784441 -1.46409 0
M  V30 15177 O 1405.82 -1.04062 -1.59924 0
M  V30 15178 C 1402.96 -2.25174 -2.61516 0
M  V30 15179 C 1402.07 -3.52364 -2.49927 0
M  V30 15180 C 1401.21 -3.74286 -3.7694 0
M  V30 15181 C 1400.25 -4.94979 -3.60087 0
M  V30 15182 N 1399.38 -5.13273 -4.79057 0
M  V30 15183 H 1404.22 -2.82406 -0.951347 0
M  V30 15184 H 1401.76 -1.39774 -0.458441 0
M  V30 15185 H 1403.72 -2.42022 -3.39825 0
M  V30 15186 H 1402.35 -1.38621 -2.9152 0
M  V30 15187 H 1401.4 -3.43691 -1.63036 0
M  V30 15188 H 1402.71 -4.40826 -2.33397 0
M  V30 15189 H 1401.87 -3.91248 -4.63692 0
M  V30 15190 H 1400.6 -2.84111 -3.96399 0
M  V30 15191 H 1399.61 -4.77963 -2.71719 0
M  V30 15192 H 1400.83 -5.86641 -3.42095 0
M  V30 15193 H 1398.78 -4.26041 -4.98824 0
M  V30 15194 H 1398.7 -5.95873 -4.65265 0
M  V30 15195 H 1399.97 -5.34673 -5.67226 0
M  V30 15196 N 1404.2 0.485086 -1.49949 0
M  V30 15197 C 1405.44 1.23571 -1.5992 0
M  V30 15198 C 1405.76 1.92754 -0.295108 0
M  V30 15199 O 1405.03 1.83474 0.686582 0
M  V30 15200 H 1403.61 0.459104 -0.589264 0
M  V30 15201 H 1406.28 0.560822 -1.86657 0
M  V30 15202 H 1405.37 1.99114 -2.40333 0
M  V30 15203 N 1405.67 1.39291 0.737279 0
M  V30 15204 C 1406.9 1.39844 1.53162 0
M  V30 15205 C 1407.32 -0.00568546 1.88099 0
M  V30 15206 O 1406.68 -0.992085 1.51748 0
M  V30 15207 C 1406.73 2.27577 2.79716 0
M  V30 15208 O 1405.83 1.70408 3.75546 0
M  V30 15209 H 1405.17 0.476314 0.462624 0
M  V30 15210 H 1407.7 1.83258 0.909819 0
M  V30 15211 H 1407.71 2.42009 3.28475 0
M  V30 15212 H 1406.39 3.29621 2.53619 0
M  V30 15213 H 1404.97 1.65206 3.34307 0
M  V30 15214 N 1407.15 -0.967221 1.24429 0
M  V30 15215 C 1408.4 -1.71279 1.08588 0
M  V30 15216 C 1408.73 -1.90558 -0.374325 0
M  V30 15217 O 1408.01 -1.46742 -1.27659 0
M  V30 15218 C 1408.29 -3.10326 1.82674 0
M  V30 15219 C 1408.14 -2.98535 3.36447 0
M  V30 15220 C 1409.46 -4.09993 1.59981 0
M  V30 15221 H 1406.58 -0.621658 0.395867 0
M  V30 15222 H 1409.22 -1.12514 1.53103 0
M  V30 15223 H 1407.37 -3.60492 1.44836 0
M  V30 15224 H 1409.04 -2.55791 3.83886 0
M  V30 15225 H 1407.29 -2.34736 3.64803 0
M  V30 15226 H 1407.96 -3.97041 3.83487 0
M  V30 15227 H 1410.43 -3.68687 1.92897 0
M  V30 15228 H 1409.31 -5.05349 2.14274 0
M  V30 15229 H 1409.57 -4.38812 0.538173 0
M  V30 15230 N 1408.63 -1.05812 -1.16797 0
M  V30 15231 C 1409.87 -0.781055 -1.88889 0
M  V30 15232 C 1410.23 0.679797 -1.79563 0
M  V30 15233 O 1411.43 1.07124 -2.46532 0
M  V30 15234 C 1409.71 -1.25598 -3.34604 0
M  V30 15235 S 1411.26 -1.10724 -4.24601 0
M  V30 15236 H 1408.08 -0.28347 -0.652047 0
M  V30 15237 H 1410.68 -1.35404 -1.41018 0
M  V30 15238 H 1409.39 -2.31421 -3.38928 0
M  V30 15239 H 1408.92 -0.677541 -3.87522 0
M  V30 15240 H 1410.93 -0.0351807 -4.96188 0
M  V30 15241 N 1410.11 1.33347 -0.840014 0
M  V30 15242 C 1411.36 1.97007 -0.432581 0
M  V30 15243 C 1411.67 1.67278 1.01378 0
M  V30 15244 O 1412.88 2.2456 1.52595 0
M  V30 15245 C 1411.33 3.52572 -0.72258 0
M  V30 15246 C 1410.94 3.91176 -2.1837 0
M  V30 15247 C 1412.68 4.22776 -0.382153 0
M  V30 15248 C 1410.59 5.39724 -2.41768 0
M  V30 15249 H 1409.52 0.737255 -0.158024 0
M  V30 15250 H 1412.17 1.5195 -1.02876 0
M  V30 15251 H 1410.55 3.9596 -0.0560179 0
M  V30 15252 H 1411.73 3.58842 -2.89083 0
M  V30 15253 H 1410.04 3.33956 -2.48721 0
M  V30 15254 H 1412.64 5.32021 -0.534588 0
M  V30 15255 H 1412.98 4.10792 0.674967 0
M  V30 15256 H 1413.52 3.84922 -1.004 0
M  V30 15257 H 1410.25 5.56713 -3.4605 0
M  V30 15258 H 1409.77 5.73514 -1.75617 0
M  V30 15259 H 1411.45 6.06624 -2.2498 0
M  V30 15260 N 1411.59 0.596556 1.45873 0
M  V30 15261 C 1412.81 0.0916466 2.07197 0
M  V30 15262 C 1413.24 -1.21004 1.44012 0
M  V30 15263 O 1412.59 -1.73415 0.528844 0
M  V30 15264 C 1412.64 -0.0461457 3.6057 0
M  V30 15265 O 1411.75 -1.09919 3.97481 0
M  V30 15266 H 1411.09 0.0690655 0.660398 0
M  V30 15267 H 1413.62 0.823434 1.87299 0
M  V30 15268 H 1413.63 -0.2479 4.07246 0
M  V30 15269 H 1412.3 0.904381 4.05948 0
M  V30 15270 H 1410.88 -0.874788 3.62494 0
M  V30 15271 N 1413.06 -1.53996 0.335095 0
M  V30 15272 C 1414.34 -1.92984 -0.318848 0
M  V30 15273 C 1414.72 -1.26585 -1.68936 0
M  V30 15274 O 1414.07 -0.413702 -2.24724 0
M  V30 15275 C 1414.28 -3.46705 -0.399568 0
M  V30 15276 C 1415.63 -4.19527 -0.654411 0
M  V30 15277 O 1416.65 -3.52923 -0.482026 0
M  V30 15278 O 1415.51 -5.37499 -0.987756 0
M  V30 15279 H 1412.6 -0.806202 -0.1843 0
M  V30 15280 H 1415.15 -1.6526 0.385653 0
M  V30 15281 H 1413.92 -3.87235 0.56253 0
M  V30 15282 H 1413.54 -3.8057 -1.15119 0
M  V30 15283 N 1414.54 -0.0635198 -1.57472 0
M  V30 15284 C 1415.47 0.93602 -2.09216 0
M  V30 15285 C 1416.49 1.2668 -1.02255 0
M  V30 15286 O 1417.68 1.22543 -1.2979 0
M  V30 15287 C 1414.78 2.25417 -2.53062 0
M  V30 15288 C 1413.95 2.10347 -3.83501 0
M  V30 15289 C 1413.01 3.25394 -4.13528 0
M  V30 15290 O 1412.03 3.00751 -4.83257 0
M  V30 15291 N 1413.24 4.50243 -3.66417 0
M  V30 15292 H 1416 0.494288 -2.95596 0
M  V30 15293 H 1413.56 0.122416 -1.61437 0
M  V30 15294 H 1415.55 3.01272 -2.70217 0
M  V30 15295 H 1414.12 2.61116 -1.71864 0
M  V30 15296 H 1413.34 1.19009 -3.75807 0
M  V30 15297 H 1414.63 1.97519 -4.68896 0
M  V30 15298 H 1414.03 4.73152 -3.1007 0
M  V30 15299 H 1412.59 5.23152 -3.88787 0
M  V30 15300 N 1416.02 1.56195 0.209972 0
M  V30 15301 C 1417.27 1.79745 0.932638 0
M  V30 15302 C 1417.59 0.634252 1.83868 0
M  V30 15303 O 1416.85 -0.380798 1.91959 0
M  V30 15304 C 1417.15 3.09154 1.79328 0
M  V30 15305 C 1416.81 4.38754 1.03949 0
M  V30 15306 C 1415.48 4.73965 0.831308 0
M  V30 15307 C 1417.83 5.18718 0.508031 0
M  V30 15308 C 1415.16 5.86646 0.0799547 0
M  V30 15309 C 1417.51 6.32182 -0.230037 0
M  V30 15310 C 1416.17 6.65986 -0.449366 0
M  V30 15311 H 1415.44 0.657732 0.341276 0
M  V30 15312 H 1418.09 1.90453 0.199998 0
M  V30 15313 H 1416.39 2.93618 2.59414 0
M  V30 15314 H 1418.09 3.24578 2.35478 0
M  V30 15315 H 1414.68 4.11114 1.21174 0
M  V30 15316 H 1418.87 4.91941 0.656306 0
M  V30 15317 H 1414.12 6.11318 -0.100092 0
M  V30 15318 H 1418.3 6.93367 -0.649296 0
M  V30 15319 H 1415.92 7.53142 -1.03349 0
M  V30 15320 N 1417.5 -0.477127 1.50204 0
M  V30 15321 C 1418.45 -1.59664 1.69145 0
M  V30 15322 C 1419.44 -1.59971 0.557294 0
M  V30 15323 O 1420.65 -1.64192 0.737623 0
M  V30 15324 H 1417.02 -0.529706 0.533775 0
M  V30 15325 H 1418.99 -1.40848 2.63067 0
M  V30 15326 C 1417.74 -2.97647 1.79726 0
M  V30 15327 H 1417.06 -2.98127 2.66383 0
M  V30 15328 H 1418.5 -3.75453 1.97006 0
M  V30 15329 C 1416.96 -3.32422 0.547464 0
M  V30 15330 O 1417.49 -4.00454 -0.316115 0
M  V30 15331 N 1415.7 -2.87788 0.40328 0
M  V30 15332 H 1415.25 -2.32598 1.10706 0
M  V30 15333 H 1415.2 -3.11421 -0.431797 0
M  V30 15334 N 1418.98 -1.3968 -0.729882 0
M  V30 15335 C 1420.2 -1.40654 -1.52418 0
M  V30 15336 C 1420.63 -0.00428997 -1.881 0
M  V30 15337 O 1419.98 0.984023 -1.52272 0
M  V30 15338 C 1420.03 -2.29057 -2.78506 0
M  V30 15339 O 1419.14 -1.72397 -3.74637 0
M  V30 15340 H 1418.48 -0.478761 -0.460091 0
M  V30 15341 H 1421.01 -1.83738 -0.900087 0
M  V30 15342 H 1421.02 -2.43748 -3.27187 0
M  V30 15343 H 1419.69 -3.30961 -2.51868 0
M  V30 15344 H 1418.27 -1.66977 -3.33426 0
M  V30 15345 N 1420.45 0.960609 -1.2494 0
M  V30 15346 C 1421.7 1.70701 -1.09495 0
M  V30 15347 C 1422.03 1.90754 0.364214 0
M  V30 15348 O 1421.31 1.47417 1.26879 0
M  V30 15349 C 1421.59 3.09353 -1.84317 0
M  V30 15350 C 1421.44 2.96747 -3.38026 0
M  V30 15351 C 1422.76 4.09139 -1.62153 0
M  V30 15352 H 1419.88 0.61955 -0.399158 0
M  V30 15353 H 1422.52 1.11701 -1.53698 0
M  V30 15354 H 1420.67 3.59719 -1.46746 0
M  V30 15355 H 1422.35 2.53752 -3.85237 0
M  V30 15356 H 1420.59 2.32798 -3.66043 0
M  V30 15357 H 1421.26 3.95002 -3.85587 0
M  V30 15358 H 1423.74 3.67659 -1.94849 0
M  V30 15359 H 1422.61 5.04206 -2.16951 0
M  V30 15360 H 1422.87 4.38521 -0.561437 0
M  V30 15361 N 1421.93 1.0643 1.16234 0
M  V30 15362 C 1422.88 0.670457 2.22728 0
M  V30 15363 C 1423.87 -0.31428 1.66459 0
M  V30 15364 O 1425.08 -0.178996 1.79108 0
M  V30 15365 H 1421.46 0.198692 0.725276 0
M  V30 15366 H 1423.43 1.57846 2.53233 0
M  V30 15367 C 1422.18 0.074379 3.4762 0
M  V30 15368 H 1421.5 0.823227 3.91233 0
M  V30 15369 H 1422.94 -0.163652 4.23684 0
M  V30 15370 C 1421.4 -1.18242 3.15469 0
M  V30 15371 O 1421.93 -2.27018 3.314 0
M  V30 15372 N 1420.13 -1.08493 2.69588 0
M  V30 15373 H 1419.68 -0.199714 2.56825 0
M  V30 15374 H 1419.64 -1.92666 2.48449 0
M  V30 15375 N 1423.41 -1.329 0.847073 0
M  V30 15376 C 1424.66 -1.9751 0.446755 0
M  V30 15377 C 1424.99 -1.67069 -0.995905 0
M  V30 15378 O 1424.24 -0.947232 -1.71248 0
M  V30 15379 C 1424.54 -3.51913 0.623845 0
M  V30 15380 C 1424.21 -4.02324 2.03583 0
M  V30 15381 C 1422.87 -4.15802 2.42203 0
M  V30 15382 C 1425.22 -4.29147 2.95774 0
M  V30 15383 C 1422.55 -4.53441 3.72301 0
M  V30 15384 C 1424.9 -4.68242 4.25362 0
M  V30 15385 C 1423.56 -4.79925 4.63927 0
M  V30 15386 H 1422.83 -0.722742 0.163479 0
M  V30 15387 H 1425.48 -1.58435 1.07567 0
M  V30 15388 H 1423.79 -3.917 -0.0883447 0
M  V30 15389 H 1425.48 -3.99919 0.294268 0
M  V30 15390 H 1422.07 -3.92314 1.72591 0
M  V30 15391 H 1426.26 -4.1825 2.67171 0
M  V30 15392 H 1421.51 -4.60681 4.01974 0
M  V30 15393 H 1425.69 -4.87952 4.96866 0
M  V30 15394 H 1423.31 -5.08847 5.64782 0
M  V30 15395 N 1424.89 -0.604284 -1.45555 0
M  V30 15396 C 1426.11 -0.102634 -2.07146 0
M  V30 15397 C 1426.54 1.20239 -1.44652 0
M  V30 15398 O 1425.9 1.73133 -0.538033 0
M  V30 15399 C 1425.94 0.0270231 -3.6059 0
M  V30 15400 O 1425.05 1.0781 -3.98059 0
M  V30 15401 H 1424.39 -0.0725667 -0.660023 0
M  V30 15402 H 1426.92 -0.833355 -1.86859 0
M  V30 15403 H 1426.93 0.226299 -4.07372 0
M  V30 15404 H 1425.6 -0.925896 -4.05463 0
M  V30 15405 H 1424.18 0.855552 -3.62953 0
M  V30 15406 N 1426.37 1.53816 -0.343257 0
M  V30 15407 C 1427.28 2.28716 0.522121 0
M  V30 15408 C 1428.29 1.33815 1.11218 0
M  V30 15409 O 1429.47 1.66853 1.12793 0
M  V30 15410 C 1426.53 3.04517 1.65741 0
M  V30 15411 C 1425.59 4.15043 1.09716 0
M  V30 15412 C 1424.83 4.8722 2.17835 0
M  V30 15413 O 1425.05 4.59065 3.38549 0
M  V30 15414 O 1423.98 5.73678 1.82145 0
M  V30 15415 H 1427.81 3.03576 -0.086732 0
M  V30 15416 H 1425.4 1.49007 -0.108313 0
M  V30 15417 H 1427.28 3.51921 2.31796 0
M  V30 15418 H 1425.95 2.32514 2.25208 0
M  V30 15419 H 1424.86 3.71943 0.401152 0
M  V30 15420 H 1426.19 4.89147 0.547362 0
M  V30 15421 N 1427.84 0.0718701 1.57436 0
M  V30 15422 C 1428.81 -0.880671 2.11605 0
M  V30 15423 C 1429.81 -1.22632 1.0401 0
M  V30 15424 O 1431 -1.15958 1.29997 0
M  V30 15425 C 1428.13 -2.18407 2.61746 0
M  V30 15426 H 1429.32 -0.410712 2.97074 0
M  V30 15427 H 1426.88 -0.176836 1.55296 0
M  V30 15428 H 1427.61 -2.6994 1.79731 0
M  V30 15429 H 1427.4 -1.94616 3.40392 0
M  V30 15430 H 1428.89 -2.86596 3.03731 0
M  V30 15431 N 1429.32 -1.56304 -0.201686 0
M  V30 15432 C 1430.23 -1.97215 -1.27057 0
M  V30 15433 C 1431.25 -0.878834 -1.50175 0
M  V30 15434 O 1432.42 -1.18405 -1.62918 0
M  V30 15435 C 1429.49 -2.29772 -2.59626 0
M  V30 15436 C 1428.55 -3.52776 -2.44637 0
M  V30 15437 C 1427.78 -3.83771 -3.70885 0
M  V30 15438 O 1428.01 -3.16149 -4.7477 0
M  V30 15439 O 1426.94 -4.77216 -3.66808 0
M  V30 15440 H 1430.77 -2.88347 -0.953393 0
M  V30 15441 H 1428.35 -1.43773 -0.406158 0
M  V30 15442 H 1430.23 -2.51817 -3.37885 0
M  V30 15443 H 1428.91 -1.41809 -2.90984 0
M  V30 15444 H 1427.82 -3.35986 -1.64512 0
M  V30 15445 H 1429.15 -4.41184 -2.18214 0
M  V30 15446 N 1430.8 0.469154 -1.50455 0
M  V30 15447 C 1432.05 1.21868 -1.61222 0
M  V30 15448 C 1432.37 1.9243 -0.315535 0
M  V30 15449 O 1431.64 1.84192 0.667083 0
M  V30 15450 H 1430.22 0.452828 -0.594101 0
M  V30 15451 H 1432.88 0.540993 -1.87241 0
M  V30 15452 H 1431.98 1.96554 -2.42431 0
M  V30 15453 N 1432.28 1.40065 0.722464 0
M  V30 15454 C 1433.51 1.41271 1.51163 0
M  V30 15455 C 1433.92 0.0105425 1.88797 0
M  V30 15456 O 1433.28 -0.963867 1.5497 0
M  V30 15457 C 1433.33 2.29713 2.79131 0
M  V30 15458 O 1433.05 3.6447 2.43091 0
M  V30 15459 C 1434.55 2.39437 3.73075 0
M  V30 15460 H 1431.77 0.482086 0.466727 0
M  V30 15461 H 1434.32 1.84033 0.891736 0
M  V30 15462 H 1432.47 1.9033 3.37421 0
M  V30 15463 H 1432.88 4.11371 3.25383 0
M  V30 15464 H 1434.36 3.05543 4.59726 0
M  V30 15465 H 1434.84 1.41731 4.15703 0
M  V30 15466 H 1435.44 2.79342 3.20699 0
M  V30 15467 N 1433.76 -0.95397 1.25448 0
M  V30 15468 C 1434.67 -2.08452 1.07634 0
M  V30 15469 C 1435.68 -1.73995 0.013294 0
M  V30 15470 O 1436.86 -2.00256 0.214367 0
M  V30 15471 C 1433.92 -3.39606 0.697756 0
M  V30 15472 C 1432.99 -3.87926 1.83881 0
M  V30 15473 C 1432.22 -5.12821 1.47819 0
M  V30 15474 O 1432.44 -5.69172 0.374143 0
M  V30 15475 O 1431.38 -5.55866 2.3086 0
M  V30 15476 H 1435.2 -2.26382 2.02447 0
M  V30 15477 H 1432.79 -1.06877 1.04392 0
M  V30 15478 H 1434.67 -4.18438 0.498778 0
M  V30 15479 H 1433.34 -3.22944 -0.221108 0
M  V30 15480 H 1432.25 -3.10095 2.09265 0
M  V30 15481 H 1433.58 -4.09087 2.73694 0
M  V30 15482 N 1435.24 -1.07045 -1.15668 0
M  V30 15483 C 1436.48 -0.792908 -1.86657 0
M  V30 15484 C 1436.81 0.679213 -1.81935 0
M  V30 15485 O 1436.09 1.49822 -1.2403 0
M  V30 15486 C 1436.37 -1.2978 -3.35901 0
M  V30 15487 C 1436.23 -2.83424 -3.49272 0
M  V30 15488 C 1437.54 -0.911821 -4.30551 0
M  V30 15489 H 1434.66 -0.289509 -0.677756 0
M  V30 15490 H 1437.31 -1.32769 -1.35913 0
M  V30 15491 H 1435.46 -0.84288 -3.79246 0
M  V30 15492 H 1437.13 -3.37182 -3.14811 0
M  V30 15493 H 1435.37 -3.21777 -2.90933 0
M  V30 15494 H 1436.04 -3.13819 -4.54116 0
M  V30 15495 H 1438.52 -1.30376 -3.95147 0
M  V30 15496 H 1437.39 -1.29247 -5.33467 0
M  V30 15497 H 1437.65 0.18255 -4.41723 0
M  V30 15498 N 1436.71 1.32449 -0.85411 0
M  V30 15499 C 1437.94 2.01463 -0.471188 0
M  V30 15500 C 1438.36 1.64195 0.931954 0
M  V30 15501 O 1437.71 0.862994 1.60806 0
M  V30 15502 C 1437.76 3.56486 -0.600022 0
M  V30 15503 O 1437.49 3.92414 -1.94789 0
M  V30 15504 C 1438.99 4.42773 -0.216036 0
M  V30 15505 H 1436.21 0.644914 -0.185275 0
M  V30 15506 H 1438.75 1.6904 -1.1509 0
M  V30 15507 H 1436.91 3.87387 0.0319488 0
M  V30 15508 H 1437.32 4.87133 -1.94427 0
M  V30 15509 H 1438.79 5.50843 -0.357186 0
M  V30 15510 H 1439.27 4.31025 0.843468 0
M  V30 15511 H 1439.88 4.1726 -0.823058 0
M  V30 15512 N 1438.19 0.611994 1.45232 0
M  V30 15513 C 1439.42 0.115242 2.06278 0
M  V30 15514 C 1439.83 -1.20752 1.45656 0
M  V30 15515 O 1439.17 -1.7474 0.566697 0
M  V30 15516 C 1439.23 -0.0941449 3.59377 0
M  V30 15517 C 1438.9 1.1475 4.42359 0
M  V30 15518 C 1439.9 2.06669 4.77058 0
M  V30 15519 C 1437.58 1.37756 4.83041 0
M  V30 15520 C 1439.57 3.19919 5.51299 0
M  V30 15521 C 1437.26 2.51306 5.57035 0
M  V30 15522 C 1438.26 3.42216 5.91082 0
M  V30 15523 O 1437.95 4.5379 6.63574 0
M  V30 15524 H 1437.68 0.0680317 0.672568 0
M  V30 15525 H 1440.23 0.840932 1.87397 0
M  V30 15526 H 1438.46 -0.874775 3.76676 0
M  V30 15527 H 1440.15 -0.543047 4.02251 0
M  V30 15528 H 1440.92 1.90122 4.46182 0
M  V30 15529 H 1436.8 0.678922 4.55973 0
M  V30 15530 H 1440.34 3.90901 5.77791 0
M  V30 15531 H 1436.24 2.67804 5.87325 0
M  V30 15532 H 1437.01 4.52527 6.82027 0
M  V30 15533 N 1439.67 -1.53632 0.351409 0
M  V30 15534 C 1440.58 -2.2899 -0.509985 0
M  V30 15535 C 1441.6 -1.34403 -1.10507 0
M  V30 15536 O 1442.77 -1.67448 -1.11906 0
M  V30 15537 C 1439.84 -3.05392 -1.64124 0
M  V30 15538 C 1438.9 -4.15619 -1.07514 0
M  V30 15539 C 1438.13 -4.88369 -2.15248 0
M  V30 15540 O 1438.35 -4.60854 -3.3611 0
M  V30 15541 O 1437.29 -5.74636 -1.79101 0
M  V30 15542 H 1441.11 -3.03526 0.10283 0
M  V30 15543 H 1438.7 -1.48947 0.116214 0
M  V30 15544 H 1440.58 -3.53146 -2.29926 0
M  V30 15545 H 1439.26 -2.33705 -2.23972 0
M  V30 15546 H 1438.16 -3.7215 -0.381421 0
M  V30 15547 H 1439.5 -4.8943 -0.521413 0
M  V30 15548 N 1441.15 -0.0802183 -1.57396 0
M  V30 15549 C 1442.42 0.628419 -1.8523 0
M  V30 15550 C 1442.8 1.87272 -0.974288 0
M  V30 15551 O 1442.15 2.2846 -0.0427687 0
M  V30 15552 C 1442.36 0.958033 -3.35593 0
M  V30 15553 C 1443.71 1.3279 -4.03301 0
M  V30 15554 O 1444.73 1.04951 -3.40388 0
M  V30 15555 O 1443.59 1.84865 -5.14283 0
M  V30 15556 H 1440.69 0.312945 -0.765503 0
M  V30 15557 H 1443.23 -0.111788 -1.69331 0
M  V30 15558 H 1442.01 0.074648 -3.91229 0
M  V30 15559 H 1441.63 1.75472 -3.56785 0
M  V30 15560 N 1442.63 1.56409 0.193394 0
M  V30 15561 C 1443.54 1.97886 1.26009 0
M  V30 15562 C 1444.55 0.886786 1.49707 0
M  V30 15563 O 1445.73 1.19267 1.62288 0
M  V30 15564 C 1442.79 2.31145 2.58404 0
M  V30 15565 C 1441.85 3.54069 2.42763 0
M  V30 15566 C 1441.09 3.85732 3.68845 0
M  V30 15567 O 1441.31 3.18662 4.73086 0
M  V30 15568 O 1440.24 4.79155 3.64272 0
M  V30 15569 H 1444.07 2.88849 0.938087 0
M  V30 15570 H 1441.65 1.43987 0.398528 0
M  V30 15571 H 1443.54 2.53606 3.36544 0
M  V30 15572 H 1442.21 1.4335 2.90228 0
M  V30 15573 H 1441.12 3.36854 1.62728 0
M  V30 15574 H 1442.45 4.42335 2.15871 0
M  V30 15575 N 1444.1 -0.461169 1.50702 0
M  V30 15576 C 1445.33 -1.24019 1.66235 0
M  V30 15577 C 1445.75 -1.84827 0.349388 0
M  V30 15578 O 1445.11 -1.67743 -0.687888 0
M  V30 15579 C 1445.16 -2.31743 2.76274 0
M  V30 15580 O 1444.26 -3.3664 2.38217 0
M  V30 15581 H 1443.6 -0.364424 0.55506 0
M  V30 15582 H 1446.13 -0.547636 1.97135 0
M  V30 15583 H 1446.14 -2.76902 2.99649 0
M  V30 15584 H 1444.82 -1.86858 3.7156 0
M  V30 15585 H 1443.4 -2.97123 2.25327 0
M  V30 15586 N 1445.58 -1.40446 -0.715026 0
M  V30 15587 C 1446.51 -1.36673 -1.83993 0
M  V30 15588 C 1447.53 -0.272038 -1.60511 0
M  V30 15589 O 1448.72 -0.532425 -1.70375 0
M  V30 15590 C 1445.82 -1.10423 -3.20406 0
M  V30 15591 C 1444.99 -2.31557 -3.71079 0
M  V30 15592 C 1444.05 -2.01459 -4.86108 0
M  V30 15593 O 1443.07 -2.7433 -4.9873 0
M  V30 15594 N 1444.28 -0.992899 -5.71946 0
M  V30 15595 H 1447.04 -2.3362 -1.87728 0
M  V30 15596 H 1444.6 -1.34807 -0.896586 0
M  V30 15597 H 1446.59 -0.88273 -3.94956 0
M  V30 15598 H 1445.16 -0.221408 -3.11815 0
M  V30 15599 H 1444.38 -2.69534 -2.87655 0
M  V30 15600 H 1445.67 -3.1231 -4.01671 0
M  V30 15601 H 1445.07 -0.389387 -5.64358 0
M  V30 15602 H 1443.63 -0.831299 -6.46477 0
M  V30 15603 N 1447.06 0.947303 -1.25952 0
M  V30 15604 C 1448.48 1.21972 -1.02932 0
M  V30 15605 C 1448.68 1.99951 0.249333 0
M  V30 15606 O 1447.73 2.33534 0.960108 0
M  V30 15607 C 1449.04 1.98695 -2.257 0
M  V30 15608 C 1450.59 2.11711 -2.30538 0
M  V30 15609 C 1451.07 2.91835 -3.52982 0
M  V30 15610 N 1452.56 2.99411 -3.53422 0
M  V30 15611 C 1453.29 3.6182 -4.4483 0
M  V30 15612 N 1452.79 4.25781 -5.46519 0
M  V30 15613 N 1454.58 3.59033 -4.32495 0
M  V30 15614 H 1446.73 0.42583 -2.08088 0
M  V30 15615 H 1449 0.250899 -0.914196 0
M  V30 15616 H 1448.7 1.48801 -3.18671 0
M  V30 15617 H 1448.58 2.9938 -2.29459 0
M  V30 15618 H 1450.96 2.608 -1.38085 0
M  V30 15619 H 1451.04 1.10308 -2.30794 0
M  V30 15620 H 1450.69 2.43435 -4.4576 0
M  V30 15621 H 1450.62 3.9348 -3.49973 0
M  V30 15622 H 1453.11 2.53934 -2.79868 0
M  V30 15623 H 1453.42 4.71281 -6.12466 0
M  V30 15624 H 1451.77 4.24386 -5.50383 0
M  V30 15625 H 1454.96 3.08254 -3.52274 0
M  V30 15626 H 1455.13 4.07384 -5.03927 0
M  V30 15627 N 1448.54 1.07657 1.15099 0
M  V30 15628 C 1449.47 0.657598 2.19564 0
M  V30 15629 C 1450.48 -0.29146 1.6017 0
M  V30 15630 O 1451.67 -0.0802981 1.78319 0
M  V30 15631 C 1448.77 -0.0542221 3.38857 0
M  V30 15632 C 1447.95 0.911803 4.27791 0
M  V30 15633 C 1447 0.236709 5.25667 0
M  V30 15634 O 1446.03 0.878731 5.62376 0
M  V30 15635 N 1447.23 -1.01641 5.71532 0
M  V30 15636 H 1450 1.55626 2.56126 0
M  V30 15637 H 1447.56 0.961657 1.30245 0
M  V30 15638 H 1449.55 -0.516603 4.01389 0
M  V30 15639 H 1448.12 -0.854871 3.00684 0
M  V30 15640 H 1447.34 1.55322 3.6231 0
M  V30 15641 H 1448.63 1.56667 4.8408 0
M  V30 15642 H 1448.03 -1.55791 5.43825 0
M  V30 15643 H 1446.58 -1.42242 6.3609 0
M  V30 15644 N 1450.02 -1.31994 0.861122 0
M  V30 15645 C 1451.43 -1.79271 0.521437 0
M  V30 15646 C 1451.78 -1.71046 -0.96113 0
M  V30 15647 O 1450.9 -1.2729 -1.75003 0
M  V30 15648 C 1451.5 -3.25507 0.939731 0
M  V30 15649 C 1450.06 -3.70713 0.651845 0
M  V30 15650 C 1449.2 -2.52967 1.13592 0
M  V30 15651 H 1452.16 -1.19201 1.0477 0
M  V30 15652 H 1452.18 -3.79619 0.258754 0
M  V30 15653 H 1451.69 -3.3146 2.0188 0
M  V30 15654 H 1449.79 -3.70268 -0.416232 0
M  V30 15655 H 1449.9 -4.63236 1.22267 0
M  V30 15656 H 1448.27 -2.48558 0.555971 0
M  V30 15657 H 1449.05 -2.61671 2.22223 0
M  V30 15658 N 1451.49 -0.619688 -1.44906 0
M  V30 15659 C 1452.74 -0.119633 -2.02146 0
M  V30 15660 C 1453.07 1.25432 -1.48651 0
M  V30 15661 O 1452.32 1.84372 -0.656155 0
M  V30 15662 C 1452.62 -0.0432891 -3.57374 0
M  V30 15663 C 1452.29 -1.35451 -4.30074 0
M  V30 15664 C 1450.95 -1.71365 -4.49653 0
M  V30 15665 C 1453.3 -2.22053 -4.71532 0
M  V30 15666 C 1450.63 -2.93611 -5.07946 0
M  V30 15667 C 1452.98 -3.43559 -5.31178 0
M  V30 15668 C 1451.65 -3.7971 -5.48977 0
M  V30 15669 H 1450.92 -0.0437769 -0.739706 0
M  V30 15670 H 1453.56 -0.803722 -1.73818 0
M  V30 15671 H 1451.87 0.72412 -3.8505 0
M  V30 15672 H 1453.57 0.359964 -3.99381 0
M  V30 15673 H 1450.16 -1.06499 -4.15158 0
M  V30 15674 H 1454.34 -1.95603 -4.56129 0
M  V30 15675 H 1449.6 -3.21712 -5.19915 0
M  V30 15676 H 1453.77 -4.10906 -5.62254 0
M  V30 15677 H 1451.4 -4.7452 -5.93915 0
M  V30 15678 N 1452.97 1.53444 -0.359552 0
M  V30 15679 C 1454.22 2.01464 0.232366 0
M  V30 15680 C 1454.55 1.24656 1.48911 0
M  V30 15681 O 1453.83 0.338574 1.9153 0
M  V30 15682 C 1454.11 3.56172 0.530403 0
M  V30 15683 C 1453.96 4.43678 -0.739556 0
M  V30 15684 C 1455.28 4.19412 1.33347 0
M  V30 15685 H 1452.4 0.732314 0.0829802 0
M  V30 15686 H 1455.04 1.83752 -0.483253 0
M  V30 15687 H 1453.19 3.71396 1.14004 0
M  V30 15688 H 1454.86 4.40263 -1.37719 0
M  V30 15689 H 1453.11 4.11892 -1.36117 0
M  V30 15690 H 1453.78 5.49856 -0.486062 0
M  V30 15691 H 1456.25 4.07984 0.817816 0
M  V30 15692 H 1455.13 5.277 1.51075 0
M  V30 15693 H 1455.39 3.7508 2.34024 0
M  V30 15694 N 1454.45 0.0885642 1.57351 0
M  V30 15695 C 1455.4 -0.872723 2.13664 0
M  V30 15696 C 1456.37 -1.28418 1.05347 0
M  V30 15697 O 1457.55 -1.36709 1.33099 0
M  V30 15698 C 1454.69 -2.12886 2.71613 0
M  V30 15699 C 1453.81 -1.76852 3.94141 0
M  V30 15700 C 1452.94 -2.97203 4.40277 0
M  V30 15701 C 1451.98 -2.57265 5.55411 0
M  V30 15702 N 1451.12 -3.70429 5.96428 0
M  V30 15703 H 1455.96 -0.385644 2.95494 0
M  V30 15704 H 1453.49 -0.178688 1.46011 0
M  V30 15705 H 1455.45 -2.86441 3.03327 0
M  V30 15706 H 1454.08 -2.59105 1.92521 0
M  V30 15707 H 1453.13 -0.932921 3.68783 0
M  V30 15708 H 1454.45 -1.43481 4.77718 0
M  V30 15709 H 1453.6 -3.79019 4.7374 0
M  V30 15710 H 1452.34 -3.3378 3.55587 0
M  V30 15711 H 1451.34 -1.73875 5.21582 0
M  V30 15712 H 1452.57 -2.21839 6.41844 0
M  V30 15713 H 1450.51 -4.06737 5.14686 0
M  V30 15714 H 1450.43 -3.40881 6.74786 0
M  V30 15715 H 1451.7 -4.52774 6.3452 0
M  V30 15716 N 1455.93 -1.56509 -0.185096 0
M  V30 15717 C 1457.16 -1.85058 -0.918527 0
M  V30 15718 C 1457.57 -0.670181 -1.76933 0
M  V30 15719 O 1456.91 0.370215 -1.79931 0
M  V30 15720 C 1456.97 -3.07843 -1.85669 0
M  V30 15721 C 1456.64 -4.41319 -1.18686 0
M  V30 15722 C 1457.63 -5.16887 -0.558946 0
M  V30 15723 C 1455.32 -4.88056 -1.18773 0
M  V30 15724 C 1457.31 -6.37373 0.0591595 0
M  V30 15725 C 1455 -6.08475 -0.565791 0
M  V30 15726 C 1456 -6.82977 0.0565621 0
M  V30 15727 O 1455.68 -8.01114 0.668726 0
M  V30 15728 H 1455.42 -0.618423 -0.273001 0
M  V30 15729 H 1457.97 -2.04479 -0.194261 0
M  V30 15730 H 1456.2 -2.84332 -2.62092 0
M  V30 15731 H 1457.89 -3.22954 -2.45877 0
M  V30 15732 H 1458.66 -4.81867 -0.550347 0
M  V30 15733 H 1454.53 -4.30016 -1.66154 0
M  V30 15734 H 1458.08 -6.95464 0.545534 0
M  V30 15735 H 1453.98 -6.42961 -0.571927 0
M  V30 15736 H 1454.74 -8.16536 0.566616 0
M  V30 15737 N 1457.41 0.45317 -1.50944 0
M  V30 15738 C 1458.37 1.5313 -1.7054 0
M  V30 15739 C 1459.37 1.50142 -0.575678 0
M  V30 15740 O 1460.56 1.52444 -0.842997 0
M  V30 15741 C 1457.69 2.92719 -1.74723 0
M  V30 15742 H 1458.88 1.37066 -2.66745 0
M  V30 15743 H 1456.44 0.680783 -1.40695 0
M  V30 15744 H 1457.17 3.14208 -0.802753 0
M  V30 15745 H 1456.96 2.96295 -2.56811 0
M  V30 15746 H 1458.45 3.7096 -1.91777 0
M  V30 15747 N 1458.88 1.40823 0.707568 0
M  V30 15748 C 1460.11 1.42866 1.49656 0
M  V30 15749 C 1460.53 0.0305663 1.88775 0
M  V30 15750 O 1459.88 -0.947376 1.55984 0
M  V30 15751 C 1459.94 2.32661 2.76679 0
M  V30 15752 O 1459.66 3.67028 2.39211 0
M  V30 15753 C 1461.16 2.4338 3.70514 0
M  V30 15754 H 1458.38 0.487009 0.461588 0
M  V30 15755 H 1460.92 1.84969 0.872167 0
M  V30 15756 H 1459.08 1.93898 3.35384 0
M  V30 15757 H 1459.49 4.14799 3.21002 0
M  V30 15758 H 1460.96 3.10401 4.56459 0
M  V30 15759 H 1461.44 1.46132 4.14176 0
M  V30 15760 H 1462.05 2.82728 3.17718 0
M  V30 15761 N 1460.36 -0.94061 1.26453 0
M  V30 15762 C 1461.29 -2.05667 1.10559 0
M  V30 15763 C 1462.27 -1.70097 0.0106258 0
M  V30 15764 O 1463.46 -1.93338 0.182756 0
M  V30 15765 C 1460.59 -3.3936 0.7384 0
M  V30 15766 C 1459.54 -3.88993 1.78517 0
M  V30 15767 C 1458.87 -5.19343 1.27228 0
M  V30 15768 C 1460.17 -4.13812 3.1868 0
M  V30 15769 H 1461.86 -2.19221 2.03918 0
M  V30 15770 H 1459.41 -1.05339 0.98182 0
M  V30 15771 H 1461.36 -4.16902 0.61409 0
M  V30 15772 H 1460.09 -3.25783 -0.230887 0
M  V30 15773 H 1458.74 -3.13633 1.89816 0
M  V30 15774 H 1458.39 -5.02147 0.292816 0
M  V30 15775 H 1458.09 -5.53521 1.97201 0
M  V30 15776 H 1459.62 -5.99468 1.16065 0
M  V30 15777 H 1461.03 -4.81966 3.10455 0
M  V30 15778 H 1459.43 -4.59273 3.86249 0
M  V30 15779 H 1460.5 -3.19571 3.64695 0
M  V30 15780 N 1461.84 -1.08266 -1.14527 0
M  V30 15781 C 1463.09 -0.806405 -1.84878 0
M  V30 15782 C 1463.4 0.670151 -1.83762 0
M  V30 15783 O 1464.61 1.06151 -2.49888 0
M  V30 15784 C 1463.06 -1.39257 -3.31867 0
M  V30 15785 C 1462.67 -2.90081 -3.41404 0
M  V30 15786 C 1464.42 -1.19475 -4.0734 0
M  V30 15787 C 1462.32 -3.41842 -4.82595 0
M  V30 15788 H 1461.25 -0.297993 -0.692615 0
M  V30 15789 H 1463.9 -1.30389 -1.29116 0
M  V30 15790 H 1462.29 -0.822802 -3.87358 0
M  V30 15791 H 1463.46 -3.53182 -2.95971 0
M  V30 15792 H 1461.78 -3.08761 -2.79385 0
M  V30 15793 H 1464.37 -1.55614 -5.11555 0
M  V30 15794 H 1464.72 -0.134455 -4.16083 0
M  V30 15795 H 1465.25 -1.73138 -3.58145 0
M  V30 15796 H 1461.99 -4.47439 -4.79039 0
M  V30 15797 H 1461.51 -2.835 -5.28572 0
M  V30 15798 H 1463.19 -3.38346 -5.51481 0
M  V30 15799 N 1463.32 1.31536 -0.86811 0
M  V30 15800 C 1464.54 2.01487 -0.491705 0
M  V30 15801 C 1464.97 1.64744 0.907803 0
M  V30 15802 O 1464.33 0.855093 1.59868 0
M  V30 15803 C 1464.38 3.54621 -0.65395 0
M  V30 15804 O 1463.48 4.11252 0.307532 0
M  V30 15805 H 1462.82 0.634469 -0.195819 0
M  V30 15806 H 1465.35 1.67775 -1.17101 0
M  V30 15807 H 1465.36 4.04323 -0.546539 0
M  V30 15808 H 1464.04 3.80704 -1.67443 0
M  V30 15809 H 1462.61 3.72577 0.155233 0
M  V30 15810 N 1464.8 0.627364 1.44575 0
M  V30 15811 C 1465.75 -0.0920488 2.32418 0
M  V30 15812 C 1466.74 -0.839633 1.47128 0
M  V30 15813 O 1467.95 -0.752958 1.63495 0
M  V30 15814 H 1464.32 -0.0485336 0.750432 0
M  V30 15815 H 1466.29 0.666959 2.90851 0
M  V30 15816 C 1465.04 -1.06262 3.31064 0
M  V30 15817 H 1464.36 -0.4968 3.96701 0
M  V30 15818 H 1465.8 -1.53556 3.95217 0
M  V30 15819 C 1464.26 -2.14601 2.59707 0
M  V30 15820 O 1464.79 -3.2263 2.39317 0
M  V30 15821 N 1463 -1.90431 2.19509 0
M  V30 15822 H 1462.55 -1.02584 2.36293 0
M  V30 15823 H 1462.5 -2.6312 1.72091 0
M  V30 15824 N 1466.28 -1.53251 0.367684 0
M  V30 15825 C 1467.5 -2.0618 -0.224645 0
M  V30 15826 C 1467.93 -1.23927 -1.41505 0
M  V30 15827 O 1467.28 -0.258858 -1.79443 0
M  V30 15828 C 1467.33 -3.55671 -0.594171 0
M  V30 15829 O 1466.44 -3.76132 -1.69112 0
M  V30 15830 H 1465.78 -0.663218 -0.0322099 0
M  V30 15831 H 1468.31 -1.97646 0.528897 0
M  V30 15832 H 1468.32 -3.98734 -0.864589 0
M  V30 15833 H 1466.99 -4.14982 0.276254 0
M  V30 15834 H 1465.57 -3.44965 -1.41609 0
M  V30 15835 N 1467.75 -0.0969077 -1.57302 0
M  V30 15836 C 1468.7 0.861379 -2.14124 0
M  V30 15837 C 1469.67 1.27858 -1.06026 0
M  V30 15838 O 1470.86 1.36001 -1.33822 0
M  V30 15839 C 1468 2.11443 -2.72738 0
M  V30 15840 C 1467.11 1.7476 -3.95074 0
M  V30 15841 C 1466.24 2.94864 -4.41847 0
M  V30 15842 C 1465.28 2.54316 -5.56767 0
M  V30 15843 N 1464.42 3.67261 -5.98384 0
M  V30 15844 H 1469.26 0.369968 -2.95694 0
M  V30 15845 H 1466.8 0.170943 -1.46103 0
M  V30 15846 H 1468.75 2.84829 -3.04842 0
M  V30 15847 H 1467.38 2.5808 -1.93893 0
M  V30 15848 H 1466.44 0.91335 -3.69272 0
M  V30 15849 H 1467.75 1.40946 -4.78472 0
M  V30 15850 H 1466.9 3.76501 -4.75744 0
M  V30 15851 H 1465.64 3.31889 -3.57352 0
M  V30 15852 H 1464.65 1.71106 -5.22497 0
M  V30 15853 H 1465.87 2.18432 -6.43012 0
M  V30 15854 H 1463.82 4.04001 -5.16836 0
M  V30 15855 H 1463.73 3.37298 -6.76584 0
M  V30 15856 H 1465 4.49403 -6.36912 0
M  V30 15857 N 1469.23 1.56605 0.176793 0
M  V30 15858 C 1470.64 1.71418 0.739775 0
M  V30 15859 C 1470.99 0.706527 1.83037 0
M  V30 15860 O 1470.12 -0.133259 2.15989 0
M  V30 15861 C 1470.71 3.10799 1.34867 0
M  V30 15862 C 1469.27 3.27315 1.85854 0
M  V30 15863 C 1468.42 2.67371 0.73541 0
M  V30 15864 H 1471.37 1.58626 -0.0485305 0
M  V30 15865 H 1471.39 3.09146 2.21831 0
M  V30 15866 H 1470.9 3.84116 0.554688 0
M  V30 15867 H 1469 2.58947 2.67913 0
M  V30 15868 H 1469.12 4.35002 2.00774 0
M  V30 15869 H 1467.48 2.27035 1.15444 0
M  V30 15870 H 1468.26 3.43268 -0.0466351 0
M  V30 15871 N 1470.71 -0.445159 1.51182 0
M  V30 15872 C 1471.93 -1.22249 1.67541 0
M  V30 15873 C 1472.36 -1.84446 0.368972 0
M  V30 15874 O 1471.72 -1.68463 -0.670058 0
M  V30 15875 C 1471.77 -2.288 2.78717 0
M  V30 15876 O 1470.87 -3.34094 2.41775 0
M  V30 15877 H 1470.21 -0.358516 0.558894 0
M  V30 15878 H 1472.74 -0.526696 1.97704 0
M  V30 15879 H 1472.75 -2.73708 3.02569 0
M  V30 15880 H 1471.43 -1.82906 3.73521 0
M  V30 15881 H 1470 -2.94717 2.28466 0
M  V30 15882 N 1472.19 -1.41197 -0.700089 0
M  V30 15883 C 1473.1 -1.45038 -1.84394 0
M  V30 15884 C 1474.11 -0.34141 -1.70618 0
M  V30 15885 O 1475.29 -0.588428 -1.92612 0
M  V30 15886 C 1472.35 -1.32611 -3.20336 0
M  V30 15887 C 1471.42 -2.53784 -3.46254 0
M  V30 15888 C 1470.65 -2.4194 -4.75711 0
M  V30 15889 O 1470.87 -1.44153 -5.51884 0
M  V30 15890 O 1469.81 -3.31613 -5.02311 0
M  V30 15891 H 1473.63 -2.41531 -1.8411 0
M  V30 15892 H 1471.22 -1.22686 -0.852558 0
M  V30 15893 H 1473.1 -1.27947 -4.01507 0
M  V30 15894 H 1471.77 -0.392309 -3.21314 0
M  V30 15895 H 1470.68 -2.64024 -2.65032 0
M  V30 15896 H 1472.01 -3.45977 -3.50087 0
M  V30 15897 N 1473.67 0.933891 -1.2695 0
M  V30 15898 C 1474.89 1.71512 -1.15721 0
M  V30 15899 C 1475.31 1.8661 0.286712 0
M  V30 15900 O 1474.67 1.3787 1.19574 0
M  V30 15901 C 1474.72 3.11804 -1.82922 0
M  V30 15902 O 1474.44 2.97421 -3.21672 0
M  V30 15903 C 1475.94 4.06108 -1.7774 0
M  V30 15904 H 1473.16 0.53678 -0.402626 0
M  V30 15905 H 1475.7 1.17025 -1.67706 0
M  V30 15906 H 1473.86 3.6317 -1.34856 0
M  V30 15907 H 1474.27 3.86069 -3.55037 0
M  V30 15908 H 1475.75 5.02082 -2.29385 0
M  V30 15909 H 1476.22 4.32828 -0.74543 0
M  V30 15910 H 1476.83 3.60665 -2.25391 0
M  V30 15911 N 1475.14 1.08871 1.13951 0
M  V30 15912 C 1476.39 0.819665 1.84732 0
M  V30 15913 C 1476.71 -0.656535 1.83615 0
M  V30 15914 O 1475.98 -1.47614 1.28791 0
M  V30 15915 H 1474.56 0.30023 0.684011 0
M  V30 15916 H 1477.22 1.37568 1.38062 0
M  V30 15917 H 1476.32 1.16809 2.89417 0
M  V30 15918 N 1476.62 -1.31073 0.875073 0
M  V30 15919 C 1477.53 -2.3215 0.338196 0
M  V30 15920 C 1478.55 -1.64928 -0.554504 0
M  V30 15921 O 1479.72 -1.96308 -0.449998 0
M  V30 15922 C 1476.79 -3.43804 -0.447163 0
M  V30 15923 C 1475.85 -4.26674 0.474106 0
M  V30 15924 C 1475.08 -5.32997 -0.273867 0
M  V30 15925 O 1475.31 -5.50288 -1.50129 0
M  V30 15926 O 1474.24 -6.00756 0.370913 0
M  V30 15927 H 1478.07 -2.80002 1.17612 0
M  V30 15928 H 1475.65 -1.35064 0.6386 0
M  V30 15929 H 1477.53 -4.11847 -0.892199 0
M  V30 15930 H 1476.21 -2.98105 -1.26155 0
M  V30 15931 H 1475.11 -3.61366 0.967748 0
M  V30 15932 H 1476.45 -4.75952 1.25423 0
M  V30 15933 N 1478.1 -0.635022 -1.4424 0
M  V30 15934 C 1479.01 0.0686832 -2.34499 0
M  V30 15935 C 1480.03 0.831574 -1.52843 0
M  V30 15936 O 1481.2 0.782954 -1.85558 0
M  V30 15937 C 1478.27 1.03543 -3.30877 0
M  V30 15938 C 1477.33 0.271484 -4.28441 0
M  V30 15939 C 1476.56 1.19218 -5.20214 0
M  V30 15940 O 1476.78 2.43101 -5.16002 0
M  V30 15941 O 1475.72 0.6744 -5.9811 0
M  V30 15942 H 1479.54 -0.673781 -2.96132 0
M  V30 15943 H 1477.13 -0.395211 -1.44078 0
M  V30 15944 H 1479.01 1.59151 -3.90191 0
M  V30 15945 H 1477.69 1.75844 -2.71773 0
M  V30 15946 H 1476.59 -0.327736 -3.72662 0
M  V30 15947 H 1477.93 -0.411584 -4.90476 0
M  V30 15948 N 1479.58 1.53054 -0.375806 0
M  V30 15949 C 1480.51 2.23664 0.500685 0
M  V30 15950 C 1481.52 1.25432 1.03782 0
M  V30 15951 O 1482.71 1.51592 0.942451 0
M  V30 15952 C 1479.81 2.9288 1.70513 0
M  V30 15953 C 1478.99 4.17706 1.29772 0
M  V30 15954 C 1478.04 4.7004 2.36536 0
M  V30 15955 O 1477.07 5.33466 1.98502 0
M  V30 15956 N 1478.27 4.48732 3.68266 0
M  V30 15957 H 1481.04 2.99519 -0.104201 0
M  V30 15958 H 1478.6 1.60641 -0.201488 0
M  V30 15959 H 1480.59 3.24795 2.41433 0
M  V30 15960 H 1479.16 2.20416 2.21665 0
M  V30 15961 H 1478.38 3.91978 0.41795 0
M  V30 15962 H 1479.67 4.98837 1.00197 0
M  V30 15963 H 1479.07 3.98075 4.01936 0
M  V30 15964 H 1477.62 4.85172 4.3526 0
M  V30 15965 N 1481.06 0.105248 1.57248 0
M  V30 15966 C 1482.3 -0.554956 1.94331 0
M  V30 15967 C 1482.63 -1.68087 0.988528 0
M  V30 15968 O 1481.9 -1.95854 0.042366 0
M  V30 15969 H 1480.48 -0.207994 0.717459 0
M  V30 15970 H 1483.14 0.170964 1.94149 0
M  V30 15971 H 1482.23 -0.95853 2.97016 0
M  V30 15972 N 1482.53 -1.56697 -0.168486 0
M  V30 15973 C 1483.46 -1.99659 -1.21073 0
M  V30 15974 C 1484.45 -0.872625 -1.46011 0
M  V30 15975 O 1485.63 -1.13891 -1.57297 0
M  V30 15976 C 1482.76 -2.35889 -2.54899 0
M  V30 15977 C 1481.71 -3.51272 -2.44524 0
M  V30 15978 C 1481.04 -3.73253 -3.82866 0
M  V30 15979 C 1482.34 -4.84631 -1.94756 0
M  V30 15980 H 1484.03 -2.86974 -0.853593 0
M  V30 15981 H 1481.58 -1.38065 -0.409165 0
M  V30 15982 H 1483.53 -2.64542 -3.28017 0
M  V30 15983 H 1482.26 -1.45486 -2.92406 0
M  V30 15984 H 1480.92 -3.22751 -1.7386 0
M  V30 15985 H 1480.56 -2.80136 -4.17772 0
M  V30 15986 H 1480.26 -4.5089 -3.76792 0
M  V30 15987 H 1481.79 -4.04309 -4.57566 0
M  V30 15988 H 1483.2 -5.12142 -2.5765 0
M  V30 15989 H 1481.6 -5.65925 -1.99623 0
M  V30 15990 H 1482.67 -4.76436 -0.902021 0
M  V30 15991 N 1484.01 0.437135 -1.51416 0
M  V30 15992 C 1485.26 1.1835 -1.63328 0
M  V30 15993 C 1485.57 1.92343 -0.355455 0
M  V30 15994 O 1486.78 2.69183 -0.353951 0
M  V30 15995 C 1485.24 2.15235 -2.88447 0
M  V30 15996 C 1484.84 1.46889 -4.23235 0
M  V30 15997 C 1486.59 2.90303 -3.09716 0
M  V30 15998 C 1484.5 2.42259 -5.39504 0
M  V30 15999 H 1483.43 0.445467 -0.608338 0
M  V30 16000 H 1486.08 0.450528 -1.77883 0
M  V30 16001 H 1484.46 2.91968 -2.67527 0
M  V30 16002 H 1485.63 0.757128 -4.54537 0
M  V30 16003 H 1483.95 0.839725 -4.07845 0
M  V30 16004 H 1486.54 3.61747 -3.93756 0
M  V30 16005 H 1486.89 3.5166 -2.22802 0
M  V30 16006 H 1487.42 2.20677 -3.30978 0
M  V30 16007 H 1484.16 1.85591 -6.28678 0
M  V30 16008 H 1483.68 3.11488 -5.12577 0
M  V30 16009 H 1485.36 3.03384 -5.7146 0
M  V30 16010 N 1485.49 1.41566 0.692592 0
M  V30 16011 C 1486.44 1.43857 1.82779 0
M  V30 16012 C 1487.43 0.316262 1.66422 0
M  V30 16013 O 1488.64 0.488433 1.73246 0
M  V30 16014 H 1485.01 0.450174 0.602368 0
M  V30 16015 H 1486.98 2.39524 1.77964 0
M  V30 16016 C 1485.73 1.34054 3.20819 0
M  V30 16017 H 1485.06 2.19701 3.34023 0
M  V30 16018 H 1486.5 1.39717 4.00319 0
M  V30 16019 C 1484.96 0.053218 3.36858 0
M  V30 16020 O 1485.49 -0.900928 3.91467 0
M  V30 16021 N 1483.69 -0.0238376 2.9059 0
M  V30 16022 H 1483.24 0.753374 2.46337 0
M  V30 16023 H 1483.2 -0.884571 3.017 0
M  V30 16024 N 1486.97 -0.927146 1.27443 0
M  V30 16025 C 1488.19 -1.71426 1.16739 0
M  V30 16026 C 1488.62 -1.86122 -0.272063 0
M  V30 16027 O 1487.98 -1.36165 -1.19703 0
M  V30 16028 C 1488.02 -3.09131 1.85661 0
M  V30 16029 O 1487.13 -3.95897 1.15495 0
M  V30 16030 H 1486.47 -0.525428 0.405983 0
M  V30 16031 H 1489 -1.16022 1.68523 0
M  V30 16032 H 1489.01 -3.59442 1.93042 0
M  V30 16033 H 1487.68 -2.97752 2.90373 0
M  V30 16034 H 1486.26 -3.54337 1.16187 0
M  V30 16035 N 1488.45 -1.09474 -1.13372 0
M  V30 16036 C 1489.67 -0.853093 -1.89043 0
M  V30 16037 C 1490.1 0.590075 -1.78605 0
M  V30 16038 O 1489.45 1.41462 -1.13394 0
M  V30 16039 C 1489.5 -1.29359 -3.36599 0
M  V30 16040 O 1488.61 -0.452355 -4.09912 0
M  V30 16041 H 1487.95 -0.308922 -0.587761 0
M  V30 16042 H 1490.48 -1.459 -1.43437 0
M  V30 16043 H 1490.49 -1.27921 -3.87428 0
M  V30 16044 H 1489.16 -2.3446 -3.43513 0
M  V30 16045 H 1487.74 -0.531098 -3.69099 0
M  V30 16046 N 1489.92 1.30607 -0.882012 0
M  V30 16047 C 1491.17 1.96547 -0.499703 0
M  V30 16048 C 1491.5 1.69484 0.948098 0
M  V30 16049 O 1490.78 0.997929 1.66948 0
M  V30 16050 C 1491.06 3.51735 -0.771662 0
M  V30 16051 C 1490.91 3.88326 -2.26987 0
M  V30 16052 C 1492.23 4.39411 -0.246178 0
M  V30 16053 H 1489.35 0.713912 -0.183026 0
M  V30 16054 H 1491.99 1.5453 -1.10546 0
M  V30 16055 H 1490.14 3.87655 -0.256092 0
M  V30 16056 H 1491.82 3.62444 -2.85362 0
M  V30 16057 H 1490.06 3.36501 -2.7377 0
M  V30 16058 H 1490.73 4.96574 -2.41078 0
M  V30 16059 H 1493.21 4.10382 -0.687419 0
M  V30 16060 H 1492.08 5.4692 -0.465817 0
M  V30 16061 H 1492.34 4.33804 0.852452 0
M  V30 16062 N 1491.4 0.642663 1.43901 0
M  V30 16063 C 1492.63 0.159202 2.06287 0
M  V30 16064 C 1493.05 -1.17091 1.48105 0
M  V30 16065 O 1492.4 -1.72064 0.608302 0
M  V30 16066 C 1492.45 0.0506891 3.61464 0
M  V30 16067 O 1492.17 1.32821 4.17481 0
M  V30 16068 C 1493.68 -0.460103 4.40906 0
M  V30 16069 H 1490.9 0.085003 0.665594 0
M  V30 16070 H 1493.44 0.880328 1.84582 0
M  V30 16071 H 1491.59 -0.620938 3.82391 0
M  V30 16072 H 1492.01 1.18053 5.11042 0
M  V30 16073 H 1493.48 -0.48501 5.49865 0
M  V30 16074 H 1493.96 -1.4894 4.13175 0
M  V30 16075 H 1494.57 0.178668 4.24925 0
M  V30 16076 N 1492.88 -1.52852 0.383918 0
M  V30 16077 C 1493.83 -2.26294 -0.453826 0
M  V30 16078 C 1494.8 -1.27688 -1.0623 0
M  V30 16079 O 1495.98 -1.56507 -1.09134 0
M  V30 16080 C 1493.12 -3.06907 -1.57803 0
M  V30 16081 C 1492.24 -4.20434 -0.992943 0
M  V30 16082 C 1491.37 -4.88453 -2.08776 0
M  V30 16083 C 1490.41 -5.93981 -1.47828 0
M  V30 16084 N 1489.55 -6.55617 -2.51218 0
M  V30 16085 H 1494.39 -2.97462 0.178927 0
M  V30 16086 H 1491.92 -1.46759 0.100066 0
M  V30 16087 H 1493.88 -3.51933 -2.24052 0
M  V30 16088 H 1492.51 -2.37959 -2.18118 0
M  V30 16089 H 1491.56 -3.79762 -0.22021 0
M  V30 16090 H 1492.88 -4.96211 -0.507504 0
M  V30 16091 H 1492.03 -5.36755 -2.82806 0
M  V30 16092 H 1490.77 -4.12187 -2.60678 0
M  V30 16093 H 1489.77 -5.45023 -0.723202 0
M  V30 16094 H 1491 -6.72176 -0.967278 0
M  V30 16095 H 1488.95 -5.82195 -3.02299 0
M  V30 16096 H 1488.86 -7.26991 -2.07414 0
M  V30 16097 H 1490.13 -7.08564 -3.24895 0
M  V30 16098 N 1494.36 -0.113586 -1.5719 0
M  V30 16099 C 1495.6 0.548872 -1.96893 0
M  V30 16100 C 1495.96 1.64191 -0.99525 0
M  V30 16101 O 1497.16 2.36289 -1.28145 0
M  V30 16102 C 1495.44 1.07279 -3.40919 0
M  V30 16103 S 1496.99 1.74453 -4.02631 0
M  V30 16104 H 1493.81 0.178565 -0.688212 0
M  V30 16105 H 1496.41 -0.197382 -1.94501 0
M  V30 16106 H 1495.12 0.266019 -4.09537 0
M  V30 16107 H 1494.65 1.85444 -3.46949 0
M  V30 16108 H 1496.66 3.02998 -3.92946 0
M  V30 16109 N 1495.84 1.56784 0.160173 0
M  V30 16110 C 1497.08 1.82621 0.874982 0
M  V30 16111 C 1497.41 0.692427 1.81757 0
M  V30 16112 O 1496.67 -0.319535 1.93074 0
M  V30 16113 C 1496.97 3.14703 1.69402 0
M  V30 16114 C 1496.63 4.41839 0.899373 0
M  V30 16115 C 1495.29 4.7637 0.680099 0
M  V30 16116 C 1497.65 5.20072 0.342747 0
M  V30 16117 C 1494.97 5.86603 -0.106723 0
M  V30 16118 C 1497.33 6.3113 -0.431044 0
M  V30 16119 C 1495.99 6.64219 -0.661017 0
M  V30 16120 H 1495.26 0.668256 0.320178 0
M  V30 16121 H 1497.91 1.90993 0.139305 0
M  V30 16122 H 1496.21 3.01723 2.49941 0
M  V30 16123 H 1497.91 3.31906 2.25032 0
M  V30 16124 H 1494.5 4.14761 1.08033 0
M  V30 16125 H 1498.68 4.9378 0.499467 0
M  V30 16126 H 1493.94 6.1069 -0.294528 0
M  V30 16127 H 1498.11 6.9095 -0.869557 0
M  V30 16128 H 1495.74 7.49473 -1.27257 0
M  V30 16129 N 1497.32 -0.429099 1.51646 0
M  V30 16130 C 1498.54 -1.20465 1.68828 0
M  V30 16131 C 1498.97 -1.84044 0.388514 0
M  V30 16132 O 1498.32 -1.69165 -0.652152 0
M  V30 16133 C 1498.37 -2.25831 2.81128 0
M  V30 16134 O 1497.48 -3.31511 2.45305 0
M  V30 16135 H 1496.82 -0.352568 0.562665 0
M  V30 16136 H 1499.35 -0.505698 1.98252 0
M  V30 16137 H 1499.36 -2.70484 3.05455 0
M  V30 16138 H 1498.03 -1.78934 3.7544 0
M  V30 16139 H 1496.61 -2.92277 2.31579 0
M  V30 16140 N 1498.79 -1.41931 -0.685074 0
M  V30 16141 C 1500.02 -1.45432 -1.47866 0
M  V30 16142 C 1500.44 -0.0641302 -1.87991 0
M  V30 16143 O 1499.8 0.935081 -1.55325 0
M  V30 16144 C 1499.85 -2.37801 -2.71077 0
M  V30 16145 O 1498.95 -1.84229 -3.68963 0
M  V30 16146 H 1498.29 -0.493156 -0.444627 0
M  V30 16147 H 1500.82 -1.86508 -0.841177 0
M  V30 16148 H 1500.83 -2.54033 -3.19266 0
M  V30 16149 H 1499.51 -3.38807 -2.41211 0
M  V30 16150 H 1498.09 -1.775 -3.27945 0
M  V30 16151 N 1500.27 0.920374 -1.27933 0
M  V30 16152 C 1501.22 2.02196 -1.1129 0
M  V30 16153 C 1502.19 1.66096 -0.0118871 0
M  V30 16154 O 1503.37 1.8999 -0.175586 0
M  V30 16155 C 1500.51 3.36312 -0.77383 0
M  V30 16156 C 1499.63 3.85322 -1.95322 0
M  V30 16157 C 1498.76 5.07919 -1.55537 0
M  V30 16158 C 1497.8 5.49244 -2.7018 0
M  V30 16159 N 1496.94 6.63034 -2.30933 0
M  V30 16160 H 1501.78 2.15764 -2.05548 0
M  V30 16161 H 1499.31 1.05691 -1.02312 0
M  V30 16162 H 1501.27 4.13451 -0.558024 0
M  V30 16163 H 1499.9 3.22531 0.131806 0
M  V30 16164 H 1498.95 3.04399 -2.28135 0
M  V30 16165 H 1500.27 4.11915 -2.81296 0
M  V30 16166 H 1499.42 5.92581 -1.30123 0
M  V30 16167 H 1498.16 4.8312 -0.666818 0
M  V30 16168 H 1497.16 4.63127 -2.96299 0
M  V30 16169 H 1498.39 5.76035 -3.59667 0
M  V30 16170 H 1496.34 6.39878 -1.44539 0
M  V30 16171 H 1496.25 6.89319 -3.10444 0
M  V30 16172 H 1497.52 7.51018 -2.08786 0
M  V30 16173 N 1501.75 1.10074 1.1279 0
M  V30 16174 C 1502.7 0.740977 2.20482 0
M  V30 16175 C 1503.69 -0.261163 1.67375 0
M  V30 16176 O 1504.9 -0.121923 1.79587 0
M  V30 16177 H 1501.27 0.221666 0.718588 0
M  V30 16178 H 1503.24 1.65823 2.48083 0
M  V30 16179 C 1501.99 0.184934 3.47208 0
M  V30 16180 H 1501.32 0.947278 3.88416 0
M  V30 16181 H 1502.76 -0.0287769 4.2399 0
M  V30 16182 C 1501.21 -1.08145 3.19071 0
M  V30 16183 O 1501.74 -2.1636 3.38454 0
M  V30 16184 N 1499.95 -0.998609 2.72903 0
M  V30 16185 H 1499.5 -0.117906 2.5733 0
M  V30 16186 H 1499.46 -1.84664 2.54453 0
M  V30 16187 N 1503.23 -1.30138 0.888926 0
M  V30 16188 C 1504.45 -2.00679 0.523697 0
M  V30 16189 C 1504.88 -1.66167 -0.881479 0
M  V30 16190 O 1504.24 -0.880418 -1.58488 0
M  V30 16191 C 1504.28 -3.53535 0.710284 0
M  V30 16192 O 1503.39 -4.11689 -0.242066 0
M  V30 16193 H 1502.73 -0.631273 0.205888 0
M  V30 16194 H 1505.26 -1.65891 1.19756 0
M  V30 16195 H 1505.27 -4.03402 0.610794 0
M  V30 16196 H 1503.94 -3.77992 1.73478 0
M  V30 16197 H 1502.52 -3.72777 -0.0959393 0
M  V30 16198 N 1504.71 -0.650285 -1.43559 0
M  V30 16199 C 1506.12 -0.24263 -1.85117 0
M  V30 16200 C 1506.47 1.21017 -1.54432 0
M  V30 16201 O 1505.59 1.92332 -0.991839 0
M  V30 16202 C 1506.19 -0.433575 -3.36014 0
M  V30 16203 C 1504.75 -0.0802635 -3.76314 0
M  V30 16204 C 1503.89 -0.737844 -2.67303 0
M  V30 16205 H 1506.84 -0.854158 -1.33753 0
M  V30 16206 H 1506.87 0.321801 -3.79137 0
M  V30 16207 H 1506.38 -1.49102 -3.58316 0
M  V30 16208 H 1504.48 0.974703 -3.59625 0
M  V30 16209 H 1504.59 -0.503683 -4.76445 0
M  V30 16210 H 1502.96 -0.171349 -2.54123 0
M  V30 16211 H 1503.74 -1.79826 -2.92434 0
M  V30 16212 N 1506.18 1.52647 -0.392018 0
M  V30 16213 C 1507.11 2.29446 0.433228 0
M  V30 16214 C 1508.09 1.32945 1.06111 0
M  V30 16215 O 1509.28 1.61841 1.07337 0
M  V30 16216 C 1506.41 3.10328 1.55929 0
M  V30 16217 C 1505.36 4.14735 1.05731 0
M  V30 16218 C 1504.69 4.83858 2.27565 0
M  V30 16219 C 1505.99 5.22154 0.123346 0
M  V30 16220 H 1507.68 2.9868 -0.207563 0
M  V30 16221 H 1505.23 1.43643 -0.101266 0
M  V30 16222 H 1507.18 3.62814 2.14346 0
M  V30 16223 H 1505.91 2.38832 2.22771 0
M  V30 16224 H 1504.57 3.63234 0.495653 0
M  V30 16225 H 1504.21 4.08907 2.92923 0
M  V30 16226 H 1503.91 5.54428 1.94637 0
M  V30 16227 H 1505.44 5.39149 2.86619 0
M  V30 16228 H 1506.85 5.69983 0.615784 0
M  V30 16229 H 1505.25 5.99987 -0.116304 0
M  V30 16230 H 1506.32 4.77796 -0.826969 0
M  V30 16231 N 1507.66 0.121921 1.57128 0
M  V30 16232 C 1508.61 -0.827205 2.15467 0
M  V30 16233 C 1509.58 -1.26155 1.08047 0
M  V30 16234 O 1510.76 -1.33855 1.35969 0
M  V30 16235 C 1507.9 -2.07077 2.76067 0
M  V30 16236 C 1507.02 -1.68452 3.97804 0
M  V30 16237 C 1506.15 -2.87797 4.46482 0
M  V30 16238 C 1505.19 -2.45426 5.60743 0
M  V30 16239 N 1504.33 -3.57695 6.04151 0
M  V30 16240 H 1509.17 -0.322879 2.96246 0
M  V30 16241 H 1506.71 -0.147677 1.46357 0
M  V30 16242 H 1508.66 -2.79943 3.09335 0
M  V30 16243 H 1507.29 -2.54963 1.97974 0
M  V30 16244 H 1506.35 -0.854487 3.70679 0
M  V30 16245 H 1507.66 -1.33316 4.80654 0
M  V30 16246 H 1506.81 -3.68885 4.81673 0
M  V30 16247 H 1505.55 -3.26162 3.62587 0
M  V30 16248 H 1504.56 -1.62772 5.25153 0
M  V30 16249 H 1505.78 -2.08175 6.46405 0
M  V30 16250 H 1503.73 -3.95728 5.23197 0
M  V30 16251 H 1503.64 -3.26491 6.81865 0
M  V30 16252 H 1504.91 -4.39213 6.43981 0
M  V30 16253 N 1509.14 -1.56867 -0.151857 0
M  V30 16254 C 1510.42 -1.7399 -0.893694 0
M  V30 16255 C 1510.8 -0.688628 -1.99552 0
M  V30 16256 O 1510.15 0.293289 -2.2661 0
M  V30 16257 C 1510.36 -3.1788 -1.44061 0
M  V30 16258 C 1511.7 -3.7942 -1.90592 0
M  V30 16259 O 1512.73 -3.21279 -1.53813 0
M  V30 16260 O 1511.59 -4.81549 -2.58404 0
M  V30 16261 H 1508.68 -0.711229 -0.421998 0
M  V30 16262 H 1511.23 -1.69137 -0.138162 0
M  V30 16263 H 1510 -3.85888 -0.648529 0
M  V30 16264 H 1509.62 -3.27139 -2.25978 0
M  V30 16265 N 1510.62 0.421051 -1.51871 0
M  V30 16266 C 1511.84 1.19568 -1.69465 0
M  V30 16267 C 1512.27 1.83835 -0.398269 0
M  V30 16268 O 1511.63 1.69508 0.643172 0
M  V30 16269 C 1511.67 2.24337 -2.82321 0
M  V30 16270 O 1510.78 3.30205 -2.47059 0
M  V30 16271 H 1510.12 0.349579 -0.564527 0
M  V30 16272 H 1512.65 0.495177 -1.98517 0
M  V30 16273 H 1512.66 2.6886 -3.06885 0
M  V30 16274 H 1511.33 1.76941 -3.76384 0
M  V30 16275 H 1509.91 2.91045 -2.33125 0
M  V30 16276 N 1512.1 1.42293 0.677538 0
M  V30 16277 C 1513.34 1.42616 1.4376 0
M  V30 16278 C 1513.67 0.0416268 1.94455 0
M  V30 16279 O 1512.93 -0.949544 1.7112 0
M  V30 16280 C 1513.23 2.3951 2.65273 0
M  V30 16281 C 1512.89 3.85952 2.33135 0
M  V30 16282 C 1511.55 4.25842 2.24081 0
M  V30 16283 C 1513.91 4.78337 2.06987 0
M  V30 16284 C 1511.23 5.561 1.87001 0
M  V30 16285 C 1513.59 6.08934 1.71411 0
M  V30 16286 C 1512.25 6.47826 1.60865 0
M  V30 16287 H 1511.52 0.521869 0.526055 0
M  V30 16288 H 1514.17 1.75214 0.772797 0
M  V30 16289 H 1512.47 2.00229 3.36773 0
M  V30 16290 H 1514.17 2.37025 3.2345 0
M  V30 16291 H 1510.76 3.54369 2.41083 0
M  V30 16292 H 1514.94 4.48308 2.12916 0
M  V30 16293 H 1510.2 5.85097 1.77403 0
M  V30 16294 H 1514.37 6.80009 1.50203 0
M  V30 16295 H 1512 7.48669 1.31902 0
M  V30 16296 N 1513.57 -0.913576 1.28419 0
M  V30 16297 C 1514.8 -1.70178 1.18551 0
M  V30 16298 C 1515.22 -1.864 -0.252307 0
M  V30 16299 O 1514.58 -1.37427 -1.18252 0
M  V30 16300 C 1514.63 -3.07145 1.8893 0
M  V30 16301 O 1513.73 -3.9465 1.19688 0
M  V30 16302 H 1513.08 -0.521092 0.411533 0
M  V30 16303 H 1515.61 -1.14228 1.69744 0
M  V30 16304 H 1515.62 -3.57375 1.96843 0
M  V30 16305 H 1514.29 -2.94655 2.93515 0
M  V30 16306 H 1512.87 -3.53085 1.19939 0
M  V30 16307 N 1515.05 -1.1067 -1.12204 0
M  V30 16308 C 1516 -0.752659 -2.20086 0
M  V30 16309 C 1516.99 0.252284 -1.67511 0
M  V30 16310 O 1518.2 0.112398 -1.79649 0
M  V30 16311 H 1514.58 -0.225473 -0.717402 0
M  V30 16312 H 1516.55 -1.67136 -2.472 0
M  V30 16313 C 1515.3 -0.203345 -3.47105 0
M  V30 16314 H 1514.62 -0.967864 -3.87908 0
M  V30 16315 H 1516.06 0.00629123 -4.24 0
M  V30 16316 C 1514.52 1.06452 -3.1964 0
M  V30 16317 O 1515.05 2.14562 -3.39597 0
M  V30 16318 N 1513.25 0.984122 -2.73429 0
M  V30 16319 H 1512.8 0.104258 -2.57389 0
M  V30 16320 H 1512.76 1.83312 -2.55429 0
M  V30 16321 N 1516.53 1.29665 -0.895815 0
M  V30 16322 C 1517.76 2.00399 -0.534333 0
M  V30 16323 C 1518.18 1.66632 0.872654 0
M  V30 16324 O 1517.54 0.888811 1.58018 0
M  V30 16325 C 1517.59 3.53154 -0.729023 0
M  V30 16326 O 1516.69 4.11812 0.22023 0
M  V30 16327 H 1516.03 0.630173 -0.209233 0
M  V30 16328 H 1518.56 1.65253 -1.20634 0
M  V30 16329 H 1518.57 4.03073 -0.632179 0
M  V30 16330 H 1517.25 3.77067 -1.75481 0
M  V30 16331 H 1515.82 3.72822 0.0761687 0
M  V30 16332 N 1518.01 0.657889 1.43212 0
M  V30 16333 C 1519.23 0.179444 2.06622 0
M  V30 16334 C 1519.66 -1.14787 1.49015 0
M  V30 16335 O 1519.02 -1.71016 0.60192 0
M  V30 16336 C 1519.06 0.106826 3.60442 0
M  V30 16337 O 1518.17 -0.92962 4.01786 0
M  V30 16338 H 1517.51 0.0970131 0.656875 0
M  V30 16339 H 1520.04 0.902132 1.83638 0
M  V30 16340 H 1520.05 -0.07495 4.07931 0
M  V30 16341 H 1518.72 1.07574 4.01747 0
M  V30 16342 H 1517.3 -0.720255 3.65878 0
M  V30 16343 N 1519.49 -1.52437 0.400108 0
M  V30 16344 C 1520.73 -2.02677 -0.171293 0
M  V30 16345 C 1521.09 -1.28088 -1.43566 0
M  V30 16346 O 1520.38 -0.37592 -1.87876 0
M  V30 16347 C 1520.57 -3.54133 -0.482141 0
M  V30 16348 C 1520.4 -4.43392 0.750551 0
M  V30 16349 C 1519.17 -4.89 1.27306 0
M  V30 16350 C 1521.37 -4.87918 1.62604 0
M  V30 16351 N 1519.35 -5.62361 2.46217 0
M  V30 16352 C 1520.72 -5.59969 2.66148 0
M  V30 16353 C 1522.78 -4.69945 1.64486 0
M  V30 16354 C 1521.48 -6.15955 3.71473 0
M  V30 16355 C 1523.51 -5.26821 2.68725 0
M  V30 16356 C 1522.87 -5.98787 3.7099 0
M  V30 16357 H 1518.97 -0.781617 -0.0244842 0
M  V30 16358 H 1521.55 -1.86698 0.552429 0
M  V30 16359 H 1519.72 -3.70203 -1.17491 0
M  V30 16360 H 1521.46 -3.91065 -1.04164 0
M  V30 16361 H 1518.21 -4.66227 0.832434 0
M  V30 16362 H 1518.64 -6.03688 3.06414 0
M  V30 16363 H 1523.28 -4.13801 0.867657 0
M  V30 16364 H 1521 -6.71175 4.50055 0
M  V30 16365 H 1524.58 -5.14789 2.71078 0
M  V30 16366 H 1523.46 -6.4201 4.50325 0
M  V30 16367 N 1520.96 -0.130252 -1.57061 0
M  V30 16368 C 1521.87 0.829198 -2.19457 0
M  V30 16369 C 1522.89 1.2843 -1.17395 0
M  V30 16370 O 1524.07 1.34496 -1.49909 0
M  V30 16371 C 1521.13 2.05727 -2.79065 0
M  V30 16372 C 1520.19 1.65301 -3.962 0
M  V30 16373 C 1519.43 2.82253 -4.52956 0
M  V30 16374 O 1519.65 3.97999 -4.08598 0
M  V30 16375 O 1518.58 2.5869 -5.43473 0
M  V30 16376 H 1522.41 0.328139 -3.01922 0
M  V30 16377 H 1519.99 0.0959361 -1.49092 0
M  V30 16378 H 1521.88 2.7763 -3.17017 0
M  V30 16379 H 1520.55 2.54817 -1.99624 0
M  V30 16380 H 1519.46 0.904712 -3.62996 0
M  V30 16381 H 1520.79 1.20942 -4.7711 0
M  V30 16382 N 1522.44 1.56945 0.143535 0
M  V30 16383 C 1523.69 1.82728 0.854011 0
M  V30 16384 C 1524.01 0.712048 1.82179 0
M  V30 16385 O 1525.21 0.855579 2.57667 0
M  V30 16386 C 1523.67 3.23882 1.56934 0
M  V30 16387 C 1523.28 4.4335 0.643789 0
M  V30 16388 C 1525.02 3.58936 2.26639 0
M  V30 16389 C 1522.93 5.75528 1.36094 0
M  V30 16390 H 1521.86 0.681474 0.32266 0
M  V30 16391 H 1524.51 1.83189 0.106741 0
M  V30 16392 H 1522.89 3.17819 2.36236 0
M  V30 16393 H 1524.06 4.60658 -0.114257 0
M  V30 16394 H 1522.38 4.16364 0.0549721 0
M  V30 16395 H 1524.98 4.54948 2.80939 0
M  V30 16396 H 1525.32 2.85163 3.03295 0
M  V30 16397 H 1525.85 3.66676 1.54252 0
M  V30 16398 H 1522.59 6.52406 0.636157 0
M  V30 16399 H 1522.11 5.62149 2.09161 0
M  V30 16400 H 1523.79 6.18445 1.9009 0
M  V30 16401 N 1523.92 -0.412991 1.52093 0
M  V30 16402 C 1524.83 -1.52768 1.78042 0
M  V30 16403 C 1525.85 -1.60758 0.665791 0
M  V30 16404 O 1527.02 -1.77545 0.950772 0
M  V30 16405 C 1524.09 -2.8854 1.92213 0
M  V30 16406 C 1523.15 -2.90468 3.16112 0
M  V30 16407 C 1522.38 -4.19763 3.29598 0
M  V30 16408 O 1522.61 -5.13454 2.48438 0
M  V30 16409 O 1521.54 -4.2847 4.22726 0
M  V30 16410 H 1525.37 -1.33777 2.72649 0
M  V30 16411 H 1522.95 -0.598461 1.3689 0
M  V30 16412 H 1524.83 -3.69073 2.03379 0
M  V30 16413 H 1523.51 -3.07607 1.00795 0
M  V30 16414 H 1522.41 -2.08801 3.10408 0
M  V30 16415 H 1523.75 -2.76349 4.07298 0
M  V30 16416 N 1525.4 -1.4265 -0.669982 0
M  V30 16417 C 1526.36 -1.46196 -1.7652 0
M  V30 16418 C 1527.36 -0.348884 -1.5697 0
M  V30 16419 O 1528.55 -0.609921 -1.63174 0
M  V30 16420 C 1525.68 -1.29829 -3.1521 0
M  V30 16421 H 1526.88 -2.43718 -1.74762 0
M  V30 16422 H 1524.43 -1.29168 -0.88007 0
M  V30 16423 H 1525.17 -0.332493 -3.22591 0
M  V30 16424 H 1524.95 -2.10501 -3.30804 0
M  V30 16425 H 1526.44 -1.35205 -3.95107 0
M  V30 16426 N 1526.88 0.906753 -1.28902 0
M  V30 16427 C 1527.81 2.01497 -1.09233 0
M  V30 16428 C 1528.82 1.62746 -0.0419378 0
M  V30 16429 O 1530.01 1.76198 -0.285728 0
M  V30 16430 C 1527.11 3.32816 -0.639255 0
M  V30 16431 C 1526.28 4.00137 -1.76661 0
M  V30 16432 C 1525.34 5.09742 -1.30573 0
M  V30 16433 O 1524.37 5.32559 -2.00921 0
M  V30 16434 N 1525.57 5.80243 -0.17275 0
M  V30 16435 H 1528.34 2.18927 -2.04673 0
M  V30 16436 H 1525.9 1.0785 -1.20748 0
M  V30 16437 H 1527.89 4.03477 -0.31439 0
M  V30 16438 H 1526.46 3.11807 0.222498 0
M  V30 16439 H 1525.68 3.22933 -2.26071 0
M  V30 16440 H 1526.97 4.41859 -2.52266 0
M  V30 16441 H 1526.37 5.64184 0.413931 0
M  V30 16442 H 1524.92 6.51734 0.0927926 0
M  V30 16443 N 1528.36 1.11264 1.11616 0
M  V30 16444 C 1529.32 0.7726 2.15786 0
M  V30 16445 C 1530.32 -0.207145 1.5946 0
M  V30 16446 O 1531.51 0.0171053 1.74192 0
M  V30 16447 C 1528.64 0.145927 3.40588 0
M  V30 16448 H 1529.83 1.69539 2.47379 0
M  V30 16449 H 1527.39 0.914278 1.2677 0
M  V30 16450 H 1528.12 -0.787178 3.14601 0
M  V30 16451 H 1527.91 0.851161 3.8275 0
M  V30 16452 H 1529.4 -0.0759176 4.17531 0
M  V30 16453 N 1529.83 -1.29188 0.902679 0
M  V30 16454 C 1531.08 -1.95438 0.530124 0
M  V30 16455 C 1531.41 -1.71142 -0.924149 0
M  V30 16456 O 1530.66 -1.01901 -1.67077 0
M  V30 16457 C 1530.96 -3.48951 0.772542 0
M  V30 16458 C 1530.63 -3.93328 2.20464 0
M  V30 16459 C 1529.29 -4.05155 2.59621 0
M  V30 16460 C 1531.64 -4.16216 3.13709 0
M  V30 16461 C 1528.97 -4.37242 3.91198 0
M  V30 16462 C 1531.32 -4.49779 4.44839 0
M  V30 16463 C 1529.99 -4.59817 4.83865 0
M  V30 16464 H 1529.26 -0.715158 0.193986 0
M  V30 16465 H 1531.9 -1.5373 1.1419 0
M  V30 16466 H 1530.21 -3.91723 0.0778683 0
M  V30 16467 H 1531.91 -3.98311 0.463623 0
M  V30 16468 H 1528.5 -3.84641 1.89075 0
M  V30 16469 H 1532.68 -4.06542 2.8467 0
M  V30 16470 H 1527.94 -4.43217 4.21152 0
M  V30 16471 H 1532.11 -4.66439 5.17115 0
M  V30 16472 H 1529.74 -4.84435 5.85856 0
M  V30 16473 N 1531.31 -0.665475 -1.42861 0
M  V30 16474 C 1532.56 -0.183884 -2.01663 0
M  V30 16475 C 1532.89 1.2064 -1.52566 0
M  V30 16476 O 1532.14 1.82191 -0.714479 0
M  V30 16477 C 1532.44 -0.156963 -3.57055 0
M  V30 16478 C 1532.11 -1.49065 -4.25547 0
M  V30 16479 C 1530.77 -1.85584 -4.43973 0
M  V30 16480 C 1533.12 -2.36942 -4.64228 0
M  V30 16481 C 1530.45 -3.09622 -4.98348 0
M  V30 16482 C 1532.8 -3.60284 -5.19979 0
M  V30 16483 C 1531.46 -3.96984 -5.36619 0
M  V30 16484 H 1530.73 -0.0672879 -0.737939 0
M  V30 16485 H 1533.38 -0.858614 -1.71173 0
M  V30 16486 H 1531.69 0.601253 -3.87159 0
M  V30 16487 H 1533.38 0.232721 -4.00324 0
M  V30 16488 H 1529.97 -1.19653 -4.11559 0
M  V30 16489 H 1534.16 -2.10015 -4.49675 0
M  V30 16490 H 1529.41 -3.3809 -5.09417 0
M  V30 16491 H 1533.59 -4.28586 -5.48896 0
M  V30 16492 H 1531.21 -4.93175 -5.78518 0
M  V30 16493 N 1532.79 1.52222 -0.408187 0
M  V30 16494 C 1534.04 2.00989 0.169252 0
M  V30 16495 C 1534.35 1.29824 1.46305 0
M  V30 16496 O 1535.56 1.69402 2.12168 0
M  V30 16497 C 1534.01 3.58173 0.352179 0
M  V30 16498 C 1533.62 4.38252 -0.929468 0
M  V30 16499 C 1535.37 4.15173 0.88496 0
M  V30 16500 C 1533.27 5.87077 -0.713781 0
M  V30 16501 H 1532.2 0.751015 0.0670261 0
M  V30 16502 H 1534.85 1.75574 -0.533487 0
M  V30 16503 H 1533.24 3.79913 1.11723 0
M  V30 16504 H 1534.41 4.28272 -1.70059 0
M  V30 16505 H 1532.72 3.92565 -1.38859 0
M  V30 16506 H 1535.32 5.2404 1.06235 0
M  V30 16507 H 1535.66 3.72468 1.85938 0
M  V30 16508 H 1536.2 3.97397 0.178995 0
M  V30 16509 H 1532.94 6.3414 -1.65974 0
M  V30 16510 H 1532.46 5.99797 0.0180631 0
M  V30 16511 H 1534.14 6.46022 -0.355596 0
M  V30 16512 N 1534.27 0.138579 1.5699 0
M  V30 16513 C 1535.2 -0.800568 2.19347 0
M  V30 16514 C 1536.18 -1.26318 1.13921 0
M  V30 16515 O 1537.36 -1.32226 1.42232 0
M  V30 16516 C 1534.49 -2.04317 2.80842 0
M  V30 16517 C 1533.45 -1.71764 3.92022 0
M  V30 16518 C 1532.77 -3.03217 4.40413 0
M  V30 16519 C 1534.07 -0.970789 5.13199 0
M  V30 16520 H 1535.77 -0.280888 2.98079 0
M  V30 16521 H 1533.31 -0.133663 1.43378 0
M  V30 16522 H 1535.27 -2.70491 3.2313 0
M  V30 16523 H 1533.99 -2.58643 1.99428 0
M  V30 16524 H 1532.65 -1.07972 3.50339 0
M  V30 16525 H 1532.3 -3.55517 3.55832 0
M  V30 16526 H 1532 -2.82203 5.15398 0
M  V30 16527 H 1533.52 -3.70477 4.85365 0
M  V30 16528 H 1534.94 -1.53445 5.52384 0
M  V30 16529 H 1533.33 -0.860895 5.93893 0
M  V30 16530 H 1534.4 0.0390088 4.84884 0
M  V30 16531 N 1535.75 -1.57019 -0.13521 0
M  V30 16532 C 1536.97 -1.88528 -0.864399 0
M  V30 16533 C 1537.4 -0.728852 -1.73405 0
M  V30 16534 O 1536.75 0.321196 -1.78432 0
M  V30 16535 C 1536.8 -3.18694 -1.6872 0
M  V30 16536 O 1535.91 -3.03458 -2.79262 0
M  V30 16537 H 1535.25 -0.61909 -0.24005 0
M  V30 16538 H 1537.78 -2.04233 -0.12248 0
M  V30 16539 H 1537.79 -3.51011 -2.0798 0
M  V30 16540 H 1536.46 -4.02462 -1.04868 0
M  V30 16541 H 1535.04 -2.82575 -2.43323 0
M  V30 16542 N 1537.22 0.404919 -1.52309 0
M  V30 16543 C 1538.5 1.16473 -1.57142 0
M  V30 16544 C 1538.88 2.08094 -0.354967 0
M  V30 16545 O 1538.23 2.18825 0.65788 0
M  V30 16546 C 1538.44 1.93834 -2.90223 0
M  V30 16547 C 1539.79 2.49754 -3.43378 0
M  V30 16548 O 1540.81 2.04009 -2.91991 0
M  V30 16549 O 1539.67 3.33271 -4.3312 0
M  V30 16550 H 1536.76 0.532036 -0.633141 0
M  V30 16551 H 1539.31 0.411359 -1.64639 0
M  V30 16552 H 1538.08 1.2674 -3.70206 0
M  V30 16553 H 1537.71 2.76167 -2.86038 0
M  V30 16554 N 1538.7 1.43003 0.662408 0
M  V30 16555 C 1539.63 1.43407 1.78793 0
M  V30 16556 C 1540.65 0.331423 1.59391 0
M  V30 16557 O 1541.84 0.595291 1.68281 0
M  V30 16558 C 1538.94 1.22239 3.16087 0
M  V30 16559 C 1538.11 2.4517 3.6223 0
M  V30 16560 C 1537.17 2.19362 4.78296 0
M  V30 16561 O 1536.19 2.92651 4.88205 0
M  V30 16562 N 1537.4 1.20449 5.67866 0
M  V30 16563 H 1540.16 2.40426 1.78928 0
M  V30 16564 H 1537.72 1.38042 0.845936 0
M  V30 16565 H 1539.71 1.02871 3.91407 0
M  V30 16566 H 1538.28 0.336983 3.10778 0
M  V30 16567 H 1537.5 2.80024 2.77453 0
M  V30 16568 H 1538.79 3.27003 3.89803 0
M  V30 16569 H 1538.19 0.598577 5.62524 0
M  V30 16570 H 1536.75 1.07066 6.42946 0
M  V30 16571 N 1540.18 -0.899904 1.29381 0
M  V30 16572 C 1541.13 -1.9909 1.11119 0
M  V30 16573 C 1542.11 -1.60871 0.030676 0
M  V30 16574 O 1543.31 -1.75192 0.252365 0
M  V30 16575 C 1540.44 -3.34097 0.789552 0
M  V30 16576 C 1539.52 -3.78676 1.90959 0
M  V30 16577 N 1539.91 -3.95492 3.15309 0
M  V30 16578 C 1538.21 -4.0795 1.80258 0
M  V30 16579 C 1538.91 -4.33054 3.8838 0
M  V30 16580 N 1537.89 -4.42087 3.16322 0
M  V30 16581 H 1541.69 -2.1016 2.0545 0
M  V30 16582 H 1539.2 -1.08871 1.20503 0
M  V30 16583 H 1541.2 -4.11962 0.639765 0
M  V30 16584 H 1539.86 -3.24372 -0.14585 0
M  V30 16585 H 1540.87 -3.8103 3.50766 0
M  V30 16586 H 1537.55 -4.06783 0.939877 0
M  V30 16587 H 1538.94 -4.53912 4.95393 0
M  V30 16588 N 1541.66 -1.11854 -1.11024 0
M  V30 16589 C 1543.07 -0.885443 -1.64368 0
M  V30 16590 C 1543.42 0.581455 -1.87386 0
M  V30 16591 O 1542.55 1.44452 -1.61129 0
M  V30 16592 C 1543.14 -1.60082 -2.98595 0
M  V30 16593 C 1541.7 -1.41403 -3.4883 0
M  V30 16594 C 1540.85 -1.64069 -2.23555 0
M  V30 16595 H 1543.8 -1.27418 -0.94606 0
M  V30 16596 H 1543.82 -1.04832 -3.65774 0
M  V30 16597 H 1543.33 -2.66842 -2.8181 0
M  V30 16598 H 1541.43 -0.368727 -3.70771 0
M  V30 16599 H 1541.54 -2.16603 -4.27341 0
M  V30 16600 H 1539.91 -1.06437 -2.31394 0
M  V30 16601 H 1540.69 -2.72112 -2.09308 0
M  V30 16602 N 1543.14 1.28707 -0.909517 0
M  V30 16603 C 1544.08 2.29396 -0.384756 0
M  V30 16604 C 1545.08 1.61179 0.521318 0
M  V30 16605 O 1546.28 1.7543 0.403032 0
M  V30 16606 H 1542.66 0.744518 -0.105814 0
M  V30 16607 H 1544.63 2.71089 -1.24714 0
M  V30 16608 C 1543.38 3.45792 0.363795 0
M  V30 16609 H 1542.7 3.98483 -0.324198 0
M  V30 16610 H 1544.14 4.18254 0.695681 0
M  V30 16611 C 1542.6 2.98075 1.57012 0
M  V30 16612 O 1543.13 3.00187 2.66929 0
M  V30 16613 N 1541.34 2.53787 1.41565 0
M  V30 16614 H 1540.88 2.52268 0.521415 0
M  V30 16615 H 1540.84 2.2222 2.22408 0
M  V30 16616 N 1544.61 0.673042 1.42506 0
M  V30 16617 C 1545.86 0.1918 2.00786 0
M  V30 16618 C 1546.18 -1.20814 1.53829 0
M  V30 16619 O 1547.38 -1.78566 2.04515 0
M  V30 16620 C 1545.84 0.292045 3.58713 0
M  V30 16621 C 1545.45 1.69593 4.14659 0
M  V30 16622 C 1547.19 -0.130575 4.24299 0
M  V30 16623 C 1545.1 1.74904 5.64945 0
M  V30 16624 H 1544.03 0.0679452 0.750932 0
M  V30 16625 H 1546.68 0.837968 1.63249 0
M  V30 16626 H 1545.06 -0.421985 3.93745 0
M  V30 16627 H 1546.23 2.4369 3.9109 0
M  V30 16628 H 1544.55 2.06625 3.61518 0
M  V30 16629 H 1547.15 -0.11102 5.34585 0
M  V30 16630 H 1547.49 -1.16552 3.99651 0
M  V30 16631 H 1548.02 0.532386 3.94221 0
M  V30 16632 H 1544.76 2.76374 5.94388 0
M  V30 16633 H 1544.28 1.0516 5.9051 0
M  V30 16634 H 1545.96 1.50168 6.29332 0
M  V30 16635 N 1546.09 -1.52004 0.416254 0
M  V30 16636 C 1547.34 -2.01076 -0.158591 0
M  V30 16637 C 1547.65 -1.30598 -1.45614 0
M  V30 16638 O 1548.86 -1.70525 -2.11267 0
M  V30 16639 C 1547.32 -3.58354 -0.333179 0
M  V30 16640 C 1546.92 -4.37753 0.952696 0
M  V30 16641 C 1548.67 -4.15637 -0.86293 0
M  V30 16642 C 1546.58 -5.8669 0.744905 0
M  V30 16643 H 1545.51 -0.75136 -0.0630423 0
M  V30 16644 H 1548.16 -1.75288 0.542791 0
M  V30 16645 H 1546.54 -3.805 -1.09706 0
M  V30 16646 H 1547.71 -4.27364 1.72328 0
M  V30 16647 H 1546.03 -3.91823 1.40939 0
M  V30 16648 H 1548.62 -5.24596 -1.03454 0
M  V30 16649 H 1548.97 -3.73449 -1.8396 0
M  V30 16650 H 1549.5 -3.97486 -0.157918 0
M  V30 16651 H 1546.24 -6.3325 1.69334 0
M  V30 16652 H 1545.76 -5.99798 0.0137458 0
M  V30 16653 H 1547.44 -6.45824 0.389851 0
M  V30 16654 N 1547.57 -0.146903 -1.56914 0
M  V30 16655 C 1548.8 0.514426 -2.00919 0
M  V30 16656 C 1549.22 1.57632 -1.02634 0
M  V30 16657 O 1548.58 1.813 -0.00207478 0
M  V30 16658 C 1548.63 1.09197 -3.43669 0
M  V30 16659 O 1547.73 2.20684 -3.48385 0
M  V30 16660 H 1547.07 0.125827 -0.651969 0
M  V30 16661 H 1549.6 -0.243607 -2.03145 0
M  V30 16662 H 1549.61 1.42066 -3.82467 0
M  V30 16663 H 1548.29 0.314336 -4.1471 0
M  V30 16664 H 1546.86 1.89045 -3.21429 0
M  V30 16665 N 1549.05 1.57088 0.126881 0
M  V30 16666 C 1550.46 1.73685 0.684865 0
M  V30 16667 C 1550.81 0.764401 1.80697 0
M  V30 16668 O 1549.94 -0.0644761 2.16304 0
M  V30 16669 C 1550.53 3.14933 1.24911 0
M  V30 16670 C 1549.09 3.33063 1.75346 0
M  V30 16671 C 1548.24 2.69575 0.649976 0
M  V30 16672 H 1551.19 1.58391 -0.0989715 0
M  V30 16673 H 1551.21 3.16047 2.11884 0
M  V30 16674 H 1550.72 3.85686 0.432204 0
M  V30 16675 H 1548.82 2.67339 2.59539 0
M  V30 16676 H 1548.93 4.41169 1.86833 0
M  V30 16677 H 1547.3 2.30592 1.08163 0
M  V30 16678 H 1548.08 3.42946 -0.15582 0
M  V30 16679 N 1550.53 -0.396836 1.52522 0
M  V30 16680 C 1551.48 -1.48365 1.73123 0
M  V30 16681 C 1552.46 -1.4988 0.585224 0
M  V30 16682 O 1553.65 -1.55649 0.842763 0
M  V30 16683 C 1550.78 -2.86165 1.89644 0
M  V30 16684 C 1549.87 -2.8925 3.10153 0
M  V30 16685 N 1550.26 -2.62017 4.32644 0
M  V30 16686 C 1548.56 -3.20419 3.10238 0
M  V30 16687 C 1549.26 -2.71985 5.14197 0
M  V30 16688 N 1548.23 -3.05385 4.49712 0
M  V30 16689 H 1552.04 -1.26124 2.65462 0
M  V30 16690 H 1549.55 -0.604696 1.50722 0
M  V30 16691 H 1551.55 -3.64404 2.02522 0
M  V30 16692 H 1550.21 -3.09395 0.985134 0
M  V30 16693 H 1551.22 -2.36183 4.6091 0
M  V30 16694 H 1547.89 -3.49164 2.2889 0
M  V30 16695 H 1549.28 -2.54541 6.21819 0
M  V30 16696 N 1552.01 -1.43353 -0.654814 0
M  V30 16697 C 1552.94 -1.51194 -1.7794 0
M  V30 16698 C 1553.92 -0.366747 -1.66099 0
M  V30 16699 O 1555.1 -0.58375 -1.85219 0
M  V30 16700 C 1552.23 -1.43298 -3.16359 0
M  V30 16701 C 1551.19 -2.5605 -3.42961 0
M  V30 16702 C 1550.51 -2.33208 -4.81163 0
M  V30 16703 C 1551.81 -3.98303 -3.37864 0
M  V30 16704 H 1553.51 -2.4532 -1.71635 0
M  V30 16705 H 1551.05 -1.18072 -0.824319 0
M  V30 16706 H 1553 -1.47388 -3.94784 0
M  V30 16707 H 1551.73 -0.456761 -3.2339 0
M  V30 16708 H 1550.39 -2.5131 -2.66906 0
M  V30 16709 H 1550.04 -1.33833 -4.84869 0
M  V30 16710 H 1549.74 -3.08789 -4.99923 0
M  V30 16711 H 1551.26 -2.39079 -5.61848 0
M  V30 16712 H 1552.67 -4.04538 -4.06229 0
M  V30 16713 H 1551.07 -4.73897 -3.6816 0
M  V30 16714 H 1552.14 -4.23552 -2.36075 0
M  V30 16715 N 1553.48 0.89303 -1.29857 0
M  V30 16716 C 1554.71 1.67744 -1.21119 0
M  V30 16717 C 1555.13 1.87428 0.227198 0
M  V30 16718 O 1554.48 1.41605 1.15128 0
M  V30 16719 C 1554.53 3.05827 -1.92749 0
M  V30 16720 O 1554.26 2.87036 -3.30971 0
M  V30 16721 C 1555.76 4.00248 -1.9057 0
M  V30 16722 H 1552.98 0.523699 -0.4195 0
M  V30 16723 H 1555.52 1.1163 -1.71344 0
M  V30 16724 H 1553.68 3.58696 -1.46342 0
M  V30 16725 H 1554.09 3.74578 -3.6714 0
M  V30 16726 H 1555.56 4.9453 -2.45242 0
M  V30 16727 H 1556.04 4.30237 -0.882753 0
M  V30 16728 H 1556.65 3.53312 -2.36751 0
M  V30 16729 N 1554.96 1.12442 1.10429 0
M  V30 16730 C 1556.21 0.879758 1.82391 0
M  V30 16731 C 1556.54 -0.594402 1.85195 0
M  V30 16732 O 1555.79 -1.4554 1.3083 0
M  V30 16733 C 1556.09 1.39976 3.28849 0
M  V30 16734 C 1555.76 2.88897 3.46192 0
M  V30 16735 C 1554.42 3.2956 3.50633 0
M  V30 16736 C 1556.77 3.8476 3.51581 0
M  V30 16737 C 1554.1 4.64791 3.58031 0
M  V30 16738 C 1556.45 5.19821 3.60512 0
M  V30 16739 C 1555.11 5.60026 3.63217 0
M  V30 16740 H 1554.38 0.321926 0.667416 0
M  V30 16741 H 1557.03 1.40461 1.30165 0
M  V30 16742 H 1555.34 0.795374 3.83642 0
M  V30 16743 H 1557.03 1.18667 3.83039 0
M  V30 16744 H 1553.62 2.56448 3.43413 0
M  V30 16745 H 1557.81 3.54439 3.474 0
M  V30 16746 H 1553.06 4.95332 3.58408 0
M  V30 16747 H 1557.24 5.93927 3.63625 0
M  V30 16748 H 1554.86 6.64803 3.68702 0
M  V30 16749 N 1556.44 -1.28223 0.91633 0
M  V30 16750 C 1557.66 -1.99523 0.566147 0
M  V30 16751 C 1558.09 -1.68 -0.846034 0
M  V30 16752 O 1557.45 -0.913838 -1.56584 0
M  V30 16753 C 1557.5 -3.51949 0.785114 0
M  V30 16754 O 1556.6 -4.1211 -0.154686 0
M  V30 16755 H 1555.94 -0.626764 0.219232 0
M  V30 16756 H 1558.47 -1.63313 1.23247 0
M  V30 16757 H 1558.48 -4.02016 0.696224 0
M  V30 16758 H 1557.16 -3.74227 1.81457 0
M  V30 16759 H 1555.73 -3.72896 -0.0168463 0
M  V30 16760 N 1557.92 -0.68059 -1.42147 0
M  V30 16761 C 1558.83 -0.00595573 -2.34599 0
M  V30 16762 C 1559.84 0.782528 -1.55411 0
M  V30 16763 O 1561.02 0.723524 -1.87955 0
M  V30 16764 C 1558.08 0.92964 -3.34004 0
M  V30 16765 C 1557.15 0.135041 -4.29088 0
M  V30 16766 C 1556.38 1.02607 -5.23744 0
M  V30 16767 O 1556.6 2.26562 -5.23475 0
M  V30 16768 O 1555.54 0.483774 -5.99953 0
M  V30 16769 H 1559.36 -0.767652 -2.93838 0
M  V30 16770 H 1556.95 -0.440849 -1.42748 0
M  V30 16771 H 1558.83 1.46657 -3.95057 0
M  V30 16772 H 1557.5 1.67109 -2.7723 0
M  V30 16773 H 1556.41 -0.44613 -3.7143 0
M  V30 16774 H 1557.74 -0.567417 -4.88918 0
M  V30 16775 N 1559.4 1.51781 -0.424309 0
M  V30 16776 C 1560.64 2.0157 0.146203 0
M  V30 16777 C 1560.96 1.3111 1.44344 0
M  V30 16778 O 1560.23 0.441631 1.90857 0
M  V30 16779 H 1558.81 0.744821 0.057019 0
M  V30 16780 H 1561.48 1.8656 -0.564031 0
M  V30 16781 H 1560.57 3.10335 0.331464 0
M  V30 16782 N 1560.87 0.155222 1.56834 0
M  V30 16783 C 1561.8 -0.777258 2.20184 0
M  V30 16784 C 1562.78 -1.25102 1.15254 0
M  V30 16785 O 1563.97 -1.3071 1.43627 0
M  V30 16786 C 1561.1 -2.01326 2.82993 0
M  V30 16787 C 1560.05 -1.67596 3.93822 0
M  V30 16788 C 1559.38 -2.98529 4.43604 0
M  V30 16789 C 1560.68 -0.916302 5.142 0
M  V30 16790 H 1562.37 -0.249257 2.98361 0
M  V30 16791 H 1559.92 -0.118448 1.43512 0
M  V30 16792 H 1561.87 -2.67048 3.2598 0
M  V30 16793 H 1560.6 -2.56513 2.0216 0
M  V30 16794 H 1559.26 -1.0425 3.51465 0
M  V30 16795 H 1558.9 -3.51723 3.59583 0
M  V30 16796 H 1558.6 -2.76721 5.18362 0
M  V30 16797 H 1560.13 -3.65308 4.89267 0
M  V30 16798 H 1561.54 -1.47577 5.5398 0
M  V30 16799 H 1559.94 -0.797856 5.94772 0
M  V30 16800 H 1561.01 0.0904351 4.84816 0
M  V30 16801 N 1562.35 -1.57153 -0.118549 0
M  V30 16802 C 1563.63 -1.75846 -0.856587 0
M  V30 16803 C 1564.01 -0.730801 -1.98047 0
M  V30 16804 O 1563.36 0.245156 -2.27181 0
M  V30 16805 C 1563.57 -3.20864 -1.37286 0
M  V30 16806 C 1564.91 -3.83378 -1.82501 0
M  V30 16807 O 1565.94 -3.24469 -1.46964 0
M  V30 16808 O 1564.8 -4.86922 -2.48132 0
M  V30 16809 H 1561.89 -0.72002 -0.406817 0
M  V30 16810 H 1564.44 -1.69392 -0.102254 0
M  V30 16811 H 1563.21 -3.87177 -0.566531 0
M  V30 16812 H 1562.83 -3.31858 -2.18988 0
M  V30 16813 N 1563.83 0.388742 -1.5273 0
M  V30 16814 C 1564.74 1.49916 -1.8045 0
M  V30 16815 C 1565.76 1.59679 -0.691282 0
M  V30 16816 O 1566.93 1.7601 -0.978898 0
M  V30 16817 C 1564 2.85445 -1.96779 0
M  V30 16818 C 1563.06 2.85402 -3.20693 0
M  V30 16819 C 1562.29 4.14466 -3.36234 0
M  V30 16820 O 1562.51 5.09436 -2.56576 0
M  V30 16821 O 1561.45 4.2169 -4.29489 0
M  V30 16822 H 1565.27 1.29423 -2.74743 0
M  V30 16823 H 1562.86 0.576607 -1.37825 0
M  V30 16824 H 1564.74 3.65791 -2.09224 0
M  V30 16825 H 1563.42 3.05964 -1.05676 0
M  V30 16826 H 1562.32 2.03836 -3.1369 0
M  V30 16827 H 1563.66 2.69835 -4.11643 0
M  V30 16828 N 1565.31 1.43698 0.647203 0
M  V30 16829 C 1566.24 1.52135 1.77136 0
M  V30 16830 C 1567.22 0.375551 1.65902 0
M  V30 16831 O 1568.4 0.593564 1.84907 0
M  V30 16832 C 1565.53 1.44974 3.15594 0
M  V30 16833 C 1564.49 2.57866 3.41598 0
M  V30 16834 C 1563.81 2.35757 4.7992 0
M  V30 16835 C 1565.11 4.00089 3.35747 0
M  V30 16836 H 1566.81 2.46227 1.70332 0
M  V30 16837 H 1564.35 1.18507 0.818046 0
M  V30 16838 H 1566.31 1.4948 3.93997 0
M  V30 16839 H 1565.03 0.473905 3.23143 0
M  V30 16840 H 1563.69 2.52722 2.65569 0
M  V30 16841 H 1563.34 1.36403 4.84152 0
M  V30 16842 H 1563.04 3.11436 4.98278 0
M  V30 16843 H 1564.56 2.42055 5.60572 0
M  V30 16844 H 1565.98 4.06687 4.04078 0
M  V30 16845 H 1564.37 4.75842 3.65642 0
M  V30 16846 H 1565.44 4.24798 2.33825 0
M  V30 16847 N 1566.79 -0.886131 1.30328 0
M  V30 16848 C 1567.72 -2.00793 1.19183 0
M  V30 16849 C 1568.7 -1.69899 0.08276 0
M  V30 16850 O 1569.88 -1.92389 0.264593 0
M  V30 16851 C 1567.01 -3.35922 0.881669 0
M  V30 16852 C 1565.97 -3.81072 1.94855 0
M  V30 16853 C 1565.29 -5.1348 1.4914 0
M  V30 16854 C 1566.59 -3.99923 3.35944 0
M  V30 16855 H 1568.29 -2.10375 2.13032 0
M  V30 16856 H 1565.83 -1.0108 1.02561 0
M  V30 16857 H 1567.79 -4.13922 0.790359 0
M  V30 16858 H 1566.51 -3.26469 -0.0925037 0
M  V30 16859 H 1565.17 -3.053 2.02947 0
M  V30 16860 H 1564.82 -5.00453 0.50553 0
M  V30 16861 H 1564.52 -5.44659 2.205 0
M  V30 16862 H 1566.04 -5.94005 1.41386 0
M  V30 16863 H 1567.45 -4.68364 3.30617 0
M  V30 16864 H 1565.85 -4.42477 4.05381 0
M  V30 16865 H 1566.92 -3.03816 3.77921 0
M  V30 16866 N 1568.26 -1.13026 -1.09832 0
M  V30 16867 C 1569.21 -0.803817 -2.1635 0
M  V30 16868 C 1570.18 0.232226 -1.64469 0
M  V30 16869 O 1571.37 0.105403 -1.90509 0
M  V30 16870 C 1568.51 -0.271414 -3.44031 0
M  V30 16871 C 1567.62 -1.36602 -4.09834 0
M  V30 16872 C 1566.75 -0.792393 -5.25257 0
M  V30 16873 C 1565.79 -1.86569 -5.82974 0
M  V30 16874 N 1564.93 -1.31032 -6.89764 0
M  V30 16875 H 1569.77 -1.71624 -2.43617 0
M  V30 16876 H 1567.31 -0.856772 -1.19574 0
M  V30 16877 H 1569.27 0.0553638 -4.17163 0
M  V30 16878 H 1567.9 0.604154 -3.17096 0
M  V30 16879 H 1566.95 -1.80946 -3.34608 0
M  V30 16880 H 1568.26 -2.17737 -4.48767 0
M  V30 16881 H 1567.41 -0.416652 -6.05268 0
M  V30 16882 H 1566.15 0.0500894 -4.87674 0
M  V30 16883 H 1565.16 -2.25054 -5.01628 0
M  V30 16884 H 1566.38 -2.7115 -6.22619 0
M  V30 16885 H 1564.33 -0.489768 -6.54169 0
M  V30 16886 H 1564.25 -2.0582 -7.27444 0
M  V30 16887 H 1565.51 -0.962011 -7.73541 0
M  V30 16888 N 1569.74 1.27735 -0.923117 0
M  V30 16889 C 1570.67 2.29395 -0.435907 0
M  V30 16890 C 1571.65 1.62542 0.501403 0
M  V30 16891 O 1572.84 1.89884 0.407135 0
M  V30 16892 C 1569.97 3.45856 0.316348 0
M  V30 16893 C 1568.92 4.24672 -0.532697 0
M  V30 16894 C 1568.25 5.33563 0.348454 0
M  V30 16895 C 1569.55 4.90494 -1.79481 0
M  V30 16896 H 1571.24 2.70398 -1.28551 0
M  V30 16897 H 1568.79 1.29989 -0.619581 0
M  V30 16898 H 1570.74 4.1607 0.668098 0
M  V30 16899 H 1569.47 3.03758 1.19994 0
M  V30 16900 H 1568.12 3.56198 -0.867093 0
M  V30 16901 H 1567.77 4.87708 1.23086 0
M  V30 16902 H 1567.47 5.87202 -0.216104 0
M  V30 16903 H 1569 6.06622 0.695878 0
M  V30 16904 H 1570.41 5.53019 -1.5114 0
M  V30 16905 H 1568.81 5.5417 -2.30251 0
M  V30 16906 H 1569.88 4.14454 -2.51707 0
M  V30 16907 N 1571.22 0.688118 1.41784 0
M  V30 16908 C 1572.13 0.018397 2.34593 0
M  V30 16909 C 1573.15 -0.774275 1.55824 0
M  V30 16910 O 1574.32 -0.713546 1.88336 0
M  V30 16911 C 1571.39 -0.911914 3.34492 0
M  V30 16912 C 1570.45 -0.112284 4.29153 0
M  V30 16913 C 1569.68 -0.998285 5.2428 0
M  V30 16914 O 1569.9 -2.23782 5.24669 0
M  V30 16915 O 1568.84 -0.451951 6.00201 0
M  V30 16916 H 1572.66 0.783224 2.93427 0
M  V30 16917 H 1570.25 0.448413 1.42512 0
M  V30 16918 H 1572.13 -1.4456 3.95829 0
M  V30 16919 H 1570.81 -1.65636 2.78112 0
M  V30 16920 H 1569.71 0.465822 3.71189 0
M  V30 16921 H 1571.05 0.593338 4.88611 0
M  V30 16922 N 1572.7 -1.51554 0.432352 0
M  V30 16923 C 1573.95 -2.01645 -0.135511 0
M  V30 16924 C 1574.27 -1.31874 -1.43647 0
M  V30 16925 O 1573.54 -0.451746 -1.9062 0
M  V30 16926 H 1572.12 -0.745113 -0.0530683 0
M  V30 16927 H 1574.78 -1.86258 0.573917 0
M  V30 16928 H 1573.88 -3.10506 -0.315001 0
M  V30 16929 N 1574.18 -0.163538 -1.56749 0
M  V30 16930 C 1575.12 0.786745 -2.18891 0
M  V30 16931 C 1576.12 1.24323 -1.15066 0
M  V30 16932 O 1577.32 1.20979 -1.33282 0
M  V30 16933 H 1573.7 0.271967 -0.701098 0
M  V30 16934 H 1575.67 0.2386 -2.97445 0
M  V30 16935 C 1574.42 2.00905 -2.83782 0
M  V30 16936 H 1573.74 1.66681 -3.63397 0
M  V30 16937 H 1575.18 2.65302 -3.30743 0
M  V30 16938 C 1573.64 2.8277 -1.83148 0
M  V30 16939 O 1574.17 3.79666 -1.31213 0
M  V30 16940 N 1572.38 2.47629 -1.52079 0
M  V30 16941 H 1571.92 1.68896 -1.94504 0
M  V30 16942 H 1571.88 3.02693 -0.849963 0
M  V30 16943 N 1575.65 1.57214 0.110213 0
M  V30 16944 C 1576.9 1.85312 0.816439 0
M  V30 16945 C 1577.23 0.749901 1.79462 0
M  V30 16946 O 1576.48 -0.257948 1.93993 0
M  V30 16947 C 1576.78 3.19933 1.59304 0
M  V30 16948 C 1576.45 4.44477 0.75835 0
M  V30 16949 C 1575.11 4.78292 0.528201 0
M  V30 16950 C 1577.46 5.20899 0.177117 0
M  V30 16951 C 1574.79 5.85966 -0.293292 0
M  V30 16952 C 1577.14 6.29439 -0.631615 0
M  V30 16953 C 1575.81 6.6178 -0.871998 0
M  V30 16954 H 1575.08 0.678104 0.298756 0
M  V30 16955 H 1577.72 1.91339 0.0784721 0
M  V30 16956 H 1576.03 3.09522 2.40216 0
M  V30 16957 H 1577.73 3.38897 2.14359 0
M  V30 16958 H 1574.32 4.17988 0.94783 0
M  V30 16959 H 1578.5 4.95119 0.342121 0
M  V30 16960 H 1573.76 6.09444 -0.488665 0
M  V30 16961 H 1577.93 6.87834 -1.08894 0
M  V30 16962 H 1575.56 7.45045 -1.51037 0
M  V30 16963 N 1577.13 -0.380637 1.52934 0
M  V30 16964 C 1578.54 -0.958182 1.60237 0
M  V30 16965 C 1578.89 -1.90722 0.460393 0
M  V30 16966 O 1578.02 -2.12376 -0.415354 0
M  V30 16967 C 1578.61 -1.7446 2.90429 0
M  V30 16968 C 1577.17 -2.27172 3.00116 0
M  V30 16969 C 1576.32 -1.07969 2.55417 0
M  V30 16970 H 1579.27 -0.159908 1.57892 0
M  V30 16971 H 1579.29 -2.60456 2.77385 0
M  V30 16972 H 1578.8 -1.05362 3.73524 0
M  V30 16973 H 1576.91 -2.99557 2.21577 0
M  V30 16974 H 1577.02 -2.56086 4.04916 0
M  V30 16975 H 1575.38 -1.4422 2.09935 0
M  V30 16976 H 1576.17 -0.403925 3.40915 0
M  V30 16977 N 1578.61 -1.44039 -0.639573 0
M  V30 16978 C 1579.52 -1.52728 -1.78077 0
M  V30 16979 C 1580.54 -0.413467 -1.69016 0
M  V30 16980 O 1581.71 -0.669592 -1.89943 0
M  V30 16981 C 1578.78 -1.46078 -3.14424 0
M  V30 16982 C 1577.84 -2.68242 -3.35179 0
M  V30 16983 C 1577.07 -2.61899 -4.65021 0
M  V30 16984 O 1577.29 -1.67431 -5.45273 0
M  V30 16985 O 1576.23 -3.52619 -4.87795 0
M  V30 16986 H 1580.05 -2.49122 -1.737 0
M  V30 16987 H 1577.64 -1.26191 -0.799755 0
M  V30 16988 H 1579.52 -1.44861 -3.95719 0
M  V30 16989 H 1578.2 -0.528236 -3.19361 0
M  V30 16990 H 1577.1 -2.75028 -2.53595 0
M  V30 16991 H 1578.44 -3.60514 -3.35098 0
M  V30 16992 N 1580.09 0.879207 -1.30796 0
M  V30 16993 C 1581 2.01822 -1.19604 0
M  V30 16994 C 1582.01 1.73621 -0.114715 0
M  V30 16995 O 1583.19 1.98665 -0.330757 0
M  V30 16996 C 1580.26 3.3496 -0.894569 0
M  V30 16997 C 1579.32 3.76545 -2.06185 0
M  V30 16998 C 1578.55 5.0333 -1.77467 0
M  V30 16999 O 1578.77 5.66022 -0.70535 0
M  V30 17000 O 1577.71 5.41461 -2.62876 0
M  V30 17001 H 1581.53 2.14194 -2.15301 0
M  V30 17002 H 1579.12 1.00608 -1.10446 0
M  V30 17003 H 1581 4.14818 -0.741891 0
M  V30 17004 H 1579.67 3.23684 0.0324464 0
M  V30 17005 H 1578.58 2.97367 -2.26988 0
M  V30 17006 H 1579.91 3.92434 -2.97079 0
M  V30 17007 N 1581.57 1.13606 1.09231 0
M  V30 17008 C 1582.52 0.810747 2.18013 0
M  V30 17009 C 1583.51 -0.207782 1.68121 0
M  V30 17010 O 1584.72 -0.0647274 1.79884 0
M  V30 17011 H 1581.09 0.244415 0.711172 0
M  V30 17012 H 1583.06 1.73632 2.42682 0
M  V30 17013 C 1581.81 0.295302 3.46444 0
M  V30 17014 H 1581.13 1.07037 3.85205 0
M  V30 17015 H 1582.57 0.106127 4.23867 0
M  V30 17016 C 1581.03 -0.979398 3.2235 0
M  V30 17017 O 1581.56 -2.05483 3.45166 0
M  V30 17018 N 1579.77 -0.911282 2.75942 0
M  V30 17019 H 1579.32 -0.035979 2.57575 0
M  V30 17020 H 1579.27 -1.76476 2.60199 0
M  V30 17021 N 1583.05 -1.27244 0.929878 0
M  V30 17022 C 1583.99 -2.28755 0.421202 0
M  V30 17023 C 1584.99 -1.61988 -0.49561 0
M  V30 17024 O 1586.19 -1.76049 -0.375071 0
M  V30 17025 H 1582.57 -0.742741 0.117646 0
M  V30 17026 H 1584.54 -2.6907 1.29011 0
M  V30 17027 C 1583.29 -3.46327 -0.308737 0
M  V30 17028 H 1582.61 -3.97917 0.387552 0
M  V30 17029 H 1584.05 -4.19308 -0.629052 0
M  V30 17030 C 1582.51 -3.00535 -1.5225 0
M  V30 17031 O 1583.04 -3.04395 -2.62119 0
M  V30 17032 N 1581.25 -2.56007 -1.3751 0
M  V30 17033 H 1580.79 -2.53065 -0.481215 0
M  V30 17034 H 1580.75 -2.25731 -2.18845 0
M  V30 17035 N 1584.52 -0.695628 -1.41417 0
M  V30 17036 C 1585.8 -0.154646 -1.94988 0
M  V30 17037 C 1586.18 1.33534 -1.63499 0
M  V30 17038 O 1585.53 2.08178 -0.942031 0
M  V30 17039 C 1585.74 -0.446004 -3.46138 0
M  V30 17040 C 1587.09 -0.37378 -4.22952 0
M  V30 17041 O 1588.11 -0.380921 -3.54157 0
M  V30 17042 O 1586.97 -0.33395 -5.45479 0
M  V30 17043 H 1584.06 -0.0150053 -0.826864 0
M  V30 17044 H 1586.61 -0.771792 -1.51134 0
M  V30 17045 H 1585.38 -1.47734 -3.6234 0
M  V30 17046 H 1585 0.202111 -3.97086 0
M  V30 17047 N 1586 1.51322 -0.440383 0
M  V30 17048 C 1586.95 2.27823 0.369526 0
M  V30 17049 C 1587.92 1.31543 1.01418 0
M  V30 17050 O 1589.1 1.60449 1.03251 0
M  V30 17051 C 1586.24 3.12553 1.46304 0
M  V30 17052 C 1585.36 4.23829 0.836217 0
M  V30 17053 C 1584.49 4.95865 1.90504 0
M  V30 17054 C 1583.53 5.99058 1.25681 0
M  V30 17055 N 1582.67 6.64489 2.26712 0
M  V30 17056 H 1587.51 2.96593 -0.289205 0
M  V30 17057 H 1585.04 1.46287 -0.154466 0
M  V30 17058 H 1587 3.60006 2.10836 0
M  V30 17059 H 1585.63 2.4589 2.09136 0
M  V30 17060 H 1584.68 3.80318 0.0791116 0
M  V30 17061 H 1586 4.97753 0.322989 0
M  V30 17062 H 1585.15 5.46881 2.6269 0
M  V30 17063 H 1583.89 4.21578 2.452 0
M  V30 17064 H 1582.89 5.47331 0.520422 0
M  V30 17065 H 1584.12 6.75303 0.717138 0
M  V30 17066 H 1582.07 5.93014 2.80483 0
M  V30 17067 H 1581.98 7.34188 1.80289 0
M  V30 17068 H 1583.25 7.20134 2.98373 0
M  V30 17069 N 1587.48 0.171848 1.5666 0
M  V30 17070 C 1588.43 -0.758237 2.17989 0
M  V30 17071 C 1589.4 -1.22654 1.12006 0
M  V30 17072 O 1590.58 -1.29461 1.40159 0
M  V30 17073 C 1587.72 -1.98189 2.82516 0
M  V30 17074 C 1586.83 -1.55711 4.02962 0
M  V30 17075 C 1585.97 -2.73447 4.55412 0
M  V30 17076 C 1585.01 -2.27462 5.68267 0
M  V30 17077 N 1584.15 -3.38293 6.15225 0
M  V30 17078 H 1588.99 -0.228467 2.97123 0
M  V30 17079 H 1586.52 -0.10104 1.46753 0
M  V30 17080 H 1588.48 -2.6996 3.18084 0
M  V30 17081 H 1587.11 -2.48536 2.05985 0
M  V30 17082 H 1586.16 -0.736126 3.7321 0
M  V30 17083 H 1587.47 -1.17957 4.84652 0
M  V30 17084 H 1586.63 -3.53374 4.93165 0
M  V30 17085 H 1585.37 -3.14462 3.7278 0
M  V30 17086 H 1584.37 -1.45982 5.30065 0
M  V30 17087 H 1585.6 -1.87505 6.52701 0
M  V30 17088 H 1583.54 -3.78882 5.35522 0
M  V30 17089 H 1583.46 -3.04633 6.91907 0
M  V30 17090 H 1584.73 -4.18503 6.57629 0
M  V30 17091 N 1588.96 -1.5727 -0.101874 0
M  V30 17092 C 1590.18 -1.90319 -0.824215 0
M  V30 17093 C 1590.61 -0.765469 -1.7182 0
M  V30 17094 O 1589.97 0.283275 -1.79073 0
M  V30 17095 C 1590.01 -3.22201 -1.61922 0
M  V30 17096 O 1589.12 -3.09313 -2.72762 0
M  V30 17097 H 1588.46 -0.624042 -0.226864 0
M  V30 17098 H 1590.99 -2.04447 -0.0791314 0
M  V30 17099 H 1591 -3.55343 -2.00487 0
M  V30 17100 H 1589.67 -4.04596 -0.963078 0
M  V30 17101 H 1588.25 -2.87672 -2.37274 0
M  V30 17102 N 1590.44 0.372521 -1.53134 0
M  V30 17103 C 1591.68 1.11316 -1.68201 0
M  V30 17104 C 1592 1.90662 -0.436714 0
M  V30 17105 O 1593.2 2.67439 -0.467802 0
M  V30 17106 C 1591.66 2.02808 -2.97317 0
M  V30 17107 C 1591.27 1.28806 -4.29084 0
M  V30 17108 C 1593.01 2.76906 -3.2175 0
M  V30 17109 C 1590.92 2.19159 -5.49294 0
M  V30 17110 H 1589.85 0.419264 -0.626685 0
M  V30 17111 H 1592.5 0.374677 -1.79634 0
M  V30 17112 H 1590.88 2.80359 -2.79669 0
M  V30 17113 H 1592.06 0.563661 -4.5734 0
M  V30 17114 H 1590.37 0.665989 -4.1104 0
M  V30 17115 H 1592.97 3.44721 -4.08744 0
M  V30 17116 H 1593.31 3.41894 -2.37517 0
M  V30 17117 H 1593.84 2.06441 -3.4004 0
M  V30 17118 H 1590.58 1.5876 -6.35984 0
M  V30 17119 H 1590.1 2.89468 -5.25327 0
M  V30 17120 H 1591.78 2.78874 -5.83814 0
M  V30 17121 N 1591.91 1.44376 0.631925 0
M  V30 17122 C 1593.14 1.5038 1.41667 0
M  V30 17123 C 1593.55 0.12709 1.88773 0
M  V30 17124 O 1592.89 -0.877119 1.61407 0
M  V30 17125 C 1592.96 2.40602 2.67116 0
M  V30 17126 C 1592.62 3.87784 2.41812 0
M  V30 17127 C 1593.62 4.78337 2.0369 0
M  V30 17128 C 1591.3 4.32478 2.55476 0
M  V30 17129 C 1593.3 6.11586 1.7956 0
M  V30 17130 C 1590.98 5.65774 2.30961 0
M  V30 17131 C 1591.98 6.55146 1.93061 0
M  V30 17132 O 1591.67 7.85974 1.68818 0
M  V30 17133 H 1591.4 0.5124 0.440933 0
M  V30 17134 H 1593.96 1.9001 0.780096 0
M  V30 17135 H 1592.19 1.95898 3.33408 0
M  V30 17136 H 1593.87 2.37564 3.29117 0
M  V30 17137 H 1594.64 4.45079 1.92691 0
M  V30 17138 H 1590.52 3.63174 2.83946 0
M  V30 17139 H 1594.06 6.81304 1.49903 0
M  V30 17140 H 1589.96 5.98594 2.4157 0
M  V30 17141 H 1590.73 7.97764 1.8307 0
M  V30 17142 N 1593.39 -0.872258 1.31261 0
M  V30 17143 C 1594.62 -1.65555 1.23593 0
M  V30 17144 C 1595.03 -1.88124 -0.201532 0
M  V30 17145 O 1594.37 -1.43792 -1.14323 0
M  V30 17146 C 1594.43 -3.04726 1.90742 0
M  V30 17147 C 1594.1 -3.05276 3.40082 0
M  V30 17148 C 1595.1 -2.83401 4.35867 0
M  V30 17149 C 1592.78 -3.26469 3.81737 0
M  V30 17150 C 1594.77 -2.82697 5.71281 0
M  V30 17151 C 1592.46 -3.25393 5.17265 0
M  V30 17152 C 1593.46 -3.03533 6.11847 0
M  V30 17153 O 1593.15 -3.02297 7.44897 0
M  V30 17154 H 1592.88 -0.52296 0.428356 0
M  V30 17155 H 1595.43 -1.09717 1.73641 0
M  V30 17156 H 1593.66 -3.62281 1.35239 0
M  V30 17157 H 1595.35 -3.65265 1.7702 0
M  V30 17158 H 1596.12 -2.66812 4.05014 0
M  V30 17159 H 1592 -3.42515 3.08552 0
M  V30 17160 H 1595.54 -2.65553 6.45079 0
M  V30 17161 H 1591.44 -3.41522 5.47753 0
M  V30 17162 H 1592.21 -3.18375 7.54042 0
M  V30 17163 N 1594.87 -1.14184 -1.08627 0
M  V30 17164 C 1595.8 -0.849455 -2.17501 0
M  V30 17165 C 1596.78 0.194617 -1.68983 0
M  V30 17166 O 1597.97 0.0517757 -1.94131 0
M  V30 17167 C 1595.1 -0.323685 -3.45788 0
M  V30 17168 C 1594.05 -1.30294 -4.07685 0
M  V30 17169 C 1593.38 -0.636575 -5.30897 0
M  V30 17170 C 1594.68 -2.66441 -4.49229 0
M  V30 17171 H 1596.37 -1.75987 -2.42217 0
M  V30 17172 H 1593.92 -0.847595 -1.16412 0
M  V30 17173 H 1595.87 -0.106754 -4.21265 0
M  V30 17174 H 1594.59 0.62215 -3.20619 0
M  V30 17175 H 1593.25 -1.50601 -3.34238 0
M  V30 17176 H 1592.9 0.314995 -5.02013 0
M  V30 17177 H 1592.6 -1.28998 -5.73266 0
M  V30 17178 H 1594.12 -0.429117 -6.0909 0
M  V30 17179 H 1595.54 -2.50055 -5.15893 0
M  V30 17180 H 1593.93 -3.28033 -5.02508 0
M  V30 17181 H 1595 -3.23486 -3.61226 0
M  V30 17182 N 1596.35 1.26749 -0.936613 0
M  V30 17183 C 1597.6 1.9358 -0.580605 0
M  V30 17184 C 1597.92 1.7389 0.882446 0
M  V30 17185 O 1597.19 1.09185 1.62652 0
M  V30 17186 H 1595.77 0.716363 -0.211739 0
M  V30 17187 H 1598.43 1.54281 -1.19095 0
M  V30 17188 H 1597.53 3.01819 -0.79448 0
M  V30 17189 N 1597.83 0.703118 1.41046 0
M  V30 17190 C 1599.07 0.237638 2.01403 0
M  V30 17191 C 1599.41 -1.16217 1.55587 0
M  V30 17192 O 1598.68 -1.78593 0.770377 0
M  V30 17193 C 1598.96 0.303738 3.58817 0
M  V30 17194 C 1598.82 1.74103 4.14739 0
M  V30 17195 C 1600.14 -0.332186 4.38845 0
M  V30 17196 H 1597.25 0.0878243 0.731749 0
M  V30 17197 H 1599.9 0.893264 1.67693 0
M  V30 17198 H 1598.05 -0.254485 3.87666 0
M  V30 17199 H 1599.72 2.35368 3.96736 0
M  V30 17200 H 1597.96 2.27277 3.69496 0
M  V30 17201 H 1598.63 1.73876 5.239 0
M  V30 17202 H 1601.11 0.143312 4.15853 0
M  V30 17203 H 1599.98 -0.255429 5.48305 0
M  V30 17204 H 1600.25 -1.41397 4.18878 0
M  V30 17205 N 1599.3 -1.51086 0.448402 0
M  V30 17206 C 1600.53 -2.06593 -0.112695 0
M  V30 17207 C 1600.95 -1.31471 -1.35502 0
M  V30 17208 O 1600.3 -0.377406 -1.78555 0
M  V30 17209 C 1600.36 -3.59008 -0.423769 0
M  V30 17210 O 1600.08 -4.31293 0.769259 0
M  V30 17211 C 1601.58 -4.31064 -1.03433 0
M  V30 17212 H 1598.8 -0.670993 -0.00301626 0
M  V30 17213 H 1601.34 -1.94532 0.630667 0
M  V30 17214 H 1599.5 -3.70946 -1.11704 0
M  V30 17215 H 1599.91 -5.2211 0.500162 0
M  V30 17216 H 1601.38 -5.38756 -1.20191 0
M  V30 17217 H 1601.86 -3.90075 -2.01837 0
M  V30 17218 H 1602.47 -4.23598 -0.380115 0
M  V30 17219 N 1600.78 -0.180154 -1.56567 0
M  V30 17220 C 1602.01 0.471692 -2.01965 0
M  V30 17221 C 1602.43 1.5542 -1.05954 0
M  V30 17222 O 1601.79 1.81255 -0.0405307 0
M  V30 17223 C 1601.84 1.01883 -3.45908 0
M  V30 17224 O 1600.94 2.13245 -3.52988 0
M  V30 17225 H 1600.28 0.11197 -0.654491 0
M  V30 17226 H 1602.81 -0.286642 -2.02582 0
M  V30 17227 H 1602.82 1.33922 -3.85395 0
M  V30 17228 H 1601.5 0.226299 -4.15284 0
M  V30 17229 H 1600.08 1.82184 -3.25367 0
M  V30 17230 N 1602.26 1.57322 0.0935319 0
M  V30 17231 C 1603.51 1.85353 0.795445 0
M  V30 17232 C 1603.82 0.769647 1.79822 0
M  V30 17233 O 1605.03 0.937121 2.54814 0
M  V30 17234 C 1603.48 3.28711 1.4655 0
M  V30 17235 C 1603.09 4.45174 0.502415 0
M  V30 17236 C 1604.84 3.65965 2.15105 0
M  V30 17237 C 1602.74 5.79566 1.17715 0
M  V30 17238 H 1601.67 0.691394 0.300816 0
M  V30 17239 H 1604.32 1.83436 0.0484063 0
M  V30 17240 H 1602.71 3.25173 2.26005 0
M  V30 17241 H 1603.88 4.60062 -0.260754 0
M  V30 17242 H 1602.2 4.16328 -0.0775186 0
M  V30 17243 H 1604.79 4.63655 2.66323 0
M  V30 17244 H 1605.14 2.94667 2.94069 0
M  V30 17245 H 1605.67 3.71398 1.42508 0
M  V30 17246 H 1602.41 6.54099 0.428277 0
M  V30 17247 H 1601.93 5.68519 1.9117 0
M  V30 17248 H 1603.61 6.2418 1.70318 0
M  V30 17249 N 1603.74 -0.364395 1.53329 0
M  V30 17250 C 1604.69 -1.44645 1.79851 0
M  V30 17251 C 1605.66 -1.53151 0.642951 0
M  V30 17252 O 1606.84 -1.6902 0.885252 0
M  V30 17253 C 1603.98 -2.81575 1.99523 0
M  V30 17254 C 1603.09 -2.82026 3.27239 0
M  V30 17255 C 1602.23 -4.1054 3.37091 0
M  V30 17256 C 1601.27 -4.05138 4.58835 0
M  V30 17257 N 1600.4 -5.25303 4.65834 0
M  V30 17258 H 1605.24 -1.21329 2.72182 0
M  V30 17259 H 1602.78 -0.588143 1.34831 0
M  V30 17260 H 1604.74 -3.61124 2.08915 0
M  V30 17261 H 1603.37 -3.03288 1.10527 0
M  V30 17262 H 1602.42 -1.94704 3.26794 0
M  V30 17263 H 1603.73 -2.73907 4.16865 0
M  V30 17264 H 1602.89 -4.98504 3.45801 0
M  V30 17265 H 1601.63 -4.21413 2.45483 0
M  V30 17266 H 1600.63 -3.1556 4.50224 0
M  V30 17267 H 1601.86 -3.95866 5.51785 0
M  V30 17268 H 1599.8 -5.36759 3.77128 0
M  V30 17269 H 1599.72 -5.19358 5.49367 0
M  V30 17270 H 1600.99 -6.15096 4.78829 0
M  V30 17271 N 1605.22 -1.44709 -0.62426 0
M  V30 17272 C 1606.16 -1.52104 -1.73589 0
M  V30 17273 C 1607.13 -0.368193 -1.61968 0
M  V30 17274 O 1608.32 -0.579374 -1.81791 0
M  V30 17275 C 1605.46 -1.4778 -3.11857 0
M  V30 17276 C 1604.57 -2.73491 -3.34405 0
M  V30 17277 C 1603.71 -2.60953 -4.62685 0
M  V30 17278 C 1602.75 -3.81795 -4.78434 0
M  V30 17279 N 1601.88 -3.67892 -5.97997 0
M  V30 17280 H 1606.72 -2.47077 -1.66604 0
M  V30 17281 H 1604.26 -1.22617 -0.812616 0
M  V30 17282 H 1606.22 -1.43263 -3.91831 0
M  V30 17283 H 1604.85 -0.563694 -3.1784 0
M  V30 17284 H 1603.9 -2.88166 -2.48324 0
M  V30 17285 H 1605.21 -3.6317 -3.4192 0
M  V30 17286 H 1604.37 -2.54308 -5.50829 0
M  V30 17287 H 1603.1 -1.68846 -4.57539 0
M  V30 17288 H 1602.11 -3.88817 -3.88717 0
M  V30 17289 H 1603.33 -4.74947 -4.85388 0
M  V30 17290 H 1601.28 -2.78541 -5.93928 0
M  V30 17291 H 1601.2 -4.51193 -6.06598 0
M  V30 17292 H 1602.47 -3.6515 -6.88684 0
M  V30 17293 N 1606.69 0.865285 -1.31722 0
M  V30 17294 C 1608.11 1.15179 -1.10481 0
M  V30 17295 C 1608.31 2.01132 0.121667 0
M  V30 17296 O 1607.37 2.39167 0.809645 0
M  V30 17297 C 1608.68 1.8394 -2.3788 0
M  V30 17298 C 1610.23 1.96621 -2.43535 0
M  V30 17299 C 1610.7 2.68796 -3.70827 0
M  V30 17300 N 1612.19 2.76329 -3.71748 0
M  V30 17301 C 1612.93 3.32798 -4.6694 0
M  V30 17302 N 1612.42 3.90162 -5.7249 0
M  V30 17303 N 1614.22 3.30801 -4.54453 0
M  V30 17304 H 1606.37 0.292632 -2.10374 0
M  V30 17305 H 1608.63 0.192252 -0.928301 0
M  V30 17306 H 1608.34 1.28233 -3.27489 0
M  V30 17307 H 1608.21 2.84182 -2.48034 0
M  V30 17308 H 1610.6 2.5149 -1.54392 0
M  V30 17309 H 1610.68 0.954071 -2.37342 0
M  V30 17310 H 1610.32 2.14593 -4.60339 0
M  V30 17311 H 1610.25 3.70427 -3.74288 0
M  V30 17312 H 1612.74 2.35621 -2.95451 0
M  V30 17313 H 1613.06 4.31376 -6.41198 0
M  V30 17314 H 1611.4 3.88525 -5.76258 0
M  V30 17315 H 1614.59 2.85227 -3.71165 0
M  V30 17316 H 1614.77 3.74511 -5.28815 0
M  V30 17317 N 1608.17 1.14759 1.0802 0
M  V30 17318 C 1609.08 0.851934 2.18585 0
M  V30 17319 C 1610.1 -0.16914 1.73176 0
M  V30 17320 O 1611.27 0.00330114 2.014 0
M  V30 17321 C 1608.34 0.337977 3.45049 0
M  V30 17322 C 1607.4 1.4221 4.05061 0
M  V30 17323 C 1606.63 0.932574 5.25489 0
M  V30 17324 O 1606.86 -0.224457 5.69958 0
M  V30 17325 O 1605.79 1.7133 5.77001 0
M  V30 17326 H 1609.62 1.77605 2.46354 0
M  V30 17327 H 1607.2 0.926159 1.17229 0
M  V30 17328 H 1609.08 0.0574734 4.21361 0
M  V30 17329 H 1607.76 -0.558363 3.18848 0
M  V30 17330 H 1606.67 1.75612 3.3032 0
M  V30 17331 H 1608 2.29311 4.3552 0
M  V30 17332 N 1609.65 -1.26251 0.943322 0
M  V30 17333 C 1610.88 -1.98278 0.608341 0
M  V30 17334 C 1611.3 -1.69756 -0.810208 0
M  V30 17335 O 1610.66 -0.946846 -1.54611 0
M  V30 17336 C 1610.71 -3.50205 0.859591 0
M  V30 17337 O 1609.81 -4.12345 -0.0672371 0
M  V30 17338 H 1609.15 -0.621973 0.232477 0
M  V30 17339 H 1611.68 -1.60662 1.26684 0
M  V30 17340 H 1611.69 -4.00449 0.781341 0
M  V30 17341 H 1610.37 -3.70294 1.89354 0
M  V30 17342 H 1608.94 -3.72848 0.0622543 0
M  V30 17343 N 1611.13 -0.710588 -1.40671 0
M  V30 17344 C 1612.38 -0.247459 -2.00579 0
M  V30 17345 C 1612.7 1.16179 -1.56612 0
M  V30 17346 O 1611.97 1.7867 -0.803358 0
M  V30 17347 H 1610.55 -0.0884992 -0.741739 0
M  V30 17348 H 1613.21 -0.915103 -1.72081 0
M  V30 17349 H 1612.31 -0.276631 -3.10872 0
M  V30 17350 N 1612.61 1.50847 -0.456408 0
M  V30 17351 C 1613.85 2.02534 0.103772 0
M  V30 17352 C 1614.19 1.33874 1.40682 0
M  V30 17353 O 1613.46 0.459695 1.8899 0
M  V30 17354 C 1613.74 3.58825 0.302817 0
M  V30 17355 C 1613.6 4.38077 -1.02022 0
M  V30 17356 C 1614.92 4.27044 1.06404 0
M  V30 17357 H 1612.04 0.736108 0.0362398 0
M  V30 17358 H 1614.68 1.80306 -0.599134 0
M  V30 17359 H 1612.83 3.77895 0.901542 0
M  V30 17360 H 1614.5 4.30613 -1.6544 0
M  V30 17361 H 1612.74 4.02401 -1.62036 0
M  V30 17362 H 1613.41 5.45652 -0.834766 0
M  V30 17363 H 1615.89 4.12359 0.556698 0
M  V30 17364 H 1614.77 5.3624 1.17209 0
M  V30 17365 H 1615.03 3.89204 2.09697 0
M  V30 17366 N 1614.09 0.188454 1.56469 0
M  V30 17367 C 1615.02 -0.730379 2.21783 0
M  V30 17368 C 1616 -1.22629 1.17882 0
M  V30 17369 O 1617.18 -1.27634 1.46367 0
M  V30 17370 C 1614.31 -1.95278 2.872 0
M  V30 17371 C 1613.27 -1.59205 3.97288 0
M  V30 17372 C 1612.59 -2.89052 4.49836 0
M  V30 17373 C 1613.89 -0.807027 5.16027 0
M  V30 17374 H 1615.59 -0.185914 2.98822 0
M  V30 17375 H 1613.13 -0.0879804 1.43731 0
M  V30 17376 H 1615.08 -2.60074 3.31571 0
M  V30 17377 H 1613.81 -2.52167 2.07556 0
M  V30 17378 H 1612.47 -0.967713 3.53597 0
M  V30 17379 H 1612.12 -3.44017 3.66963 0
M  V30 17380 H 1611.82 -2.65663 5.24115 0
M  V30 17381 H 1613.34 -3.54847 4.96906 0
M  V30 17382 H 1614.75 -1.35794 5.56986 0
M  V30 17383 H 1613.15 -0.671516 5.96331 0
M  V30 17384 H 1614.22 0.193251 4.84515 0
M  V30 17385 N 1615.56 -1.5737 -0.0851874 0
M  V30 17386 C 1616.49 -2.05796 -1.10319 0
M  V30 17387 C 1617.47 -0.948796 -1.4118 0
M  V30 17388 O 1618.66 -1.22069 -1.51039 0
M  V30 17389 C 1615.79 -2.49069 -2.42037 0
M  V30 17390 C 1614.74 -3.6374 -2.25561 0
M  V30 17391 C 1614.07 -3.93023 -3.62543 0
M  V30 17392 C 1615.37 -4.94274 -1.68793 0
M  V30 17393 H 1617.06 -2.91095 -0.700274 0
M  V30 17394 H 1614.61 -1.40039 -0.335405 0
M  V30 17395 H 1616.56 -2.81558 -3.13534 0
M  V30 17396 H 1615.29 -1.60781 -2.84283 0
M  V30 17397 H 1613.95 -3.31513 -1.56507 0
M  V30 17398 H 1613.59 -3.01887 -4.02335 0
M  V30 17399 H 1613.29 -4.70229 -3.52362 0
M  V30 17400 H 1614.82 -4.27995 -4.35491 0
M  V30 17401 H 1616.23 -5.25079 -2.30141 0
M  V30 17402 H 1614.63 -5.75711 -1.69344 0
M  V30 17403 H 1615.7 -4.80548 -0.648204 0
M  V30 17404 N 1617.04 0.356258 -1.53521 0
M  V30 17405 C 1618.27 1.11828 -1.74075 0
M  V30 17406 C 1618.68 1.82753 -0.473998 0
M  V30 17407 O 1618.04 1.73899 0.553649 0
M  V30 17408 C 1618.09 2.14149 -2.91243 0
M  V30 17409 O 1617.81 1.4611 -4.13017 0
M  V30 17410 C 1619.31 3.02826 -3.23746 0
M  V30 17411 H 1616.53 0.334002 -0.581965 0
M  V30 17412 H 1619.08 0.412336 -2.003 0
M  V30 17413 H 1617.23 2.80328 -2.67386 0
M  V30 17414 H 1617.65 2.1436 -4.78696 0
M  V30 17415 H 1619.12 3.70583 -4.09112 0
M  V30 17416 H 1619.6 3.68149 -2.39505 0
M  V30 17417 H 1620.2 2.42252 -3.49563 0
M  V30 17418 N 1618.52 1.45038 0.616577 0
M  V30 17419 C 1619.8 1.39059 1.37557 0
M  V30 17420 C 1620.18 0.0566307 2.11024 0
M  V30 17421 O 1619.52 -0.961203 2.073 0
M  V30 17422 C 1619.73 2.59841 2.32989 0
M  V30 17423 C 1621.08 3.04539 2.95874 0
M  V30 17424 O 1622.11 2.6015 2.43312 0
M  V30 17425 O 1620.97 3.81547 3.9126 0
M  V30 17426 H 1618.06 0.551396 0.616353 0
M  V30 17427 H 1620.61 1.57152 0.640416 0
M  V30 17428 H 1619.38 3.48521 1.779 0
M  V30 17429 H 1619 2.44036 3.13899 0
M  V30 17430 N 1620 -0.858287 1.32179 0
M  V30 17431 C 1620.94 -1.96656 1.20811 0
M  V30 17432 C 1621.91 -1.6585 0.0911199 0
M  V30 17433 O 1623.1 -1.88936 0.266033 0
M  V30 17434 C 1620.24 -3.32237 0.933408 0
M  V30 17435 C 1619.35 -3.75564 2.13484 0
M  V30 17436 C 1618.49 -4.9992 1.79593 0
M  V30 17437 C 1617.53 -5.35728 2.96077 0
M  V30 17438 N 1616.66 -6.51261 2.62304 0
M  V30 17439 H 1621.5 -2.05711 2.15609 0
M  V30 17440 H 1619.04 -1.00689 1.07239 0
M  V30 17441 H 1621 -4.10318 0.754651 0
M  V30 17442 H 1619.63 -3.22792 0.0222279 0
M  V30 17443 H 1618.68 -2.93167 2.42399 0
M  V30 17444 H 1619.99 -3.98025 3.00629 0
M  V30 17445 H 1619.15 -5.85698 1.58248 0
M  V30 17446 H 1617.89 -4.79388 0.896561 0
M  V30 17447 H 1616.89 -4.48463 3.18058 0
M  V30 17448 H 1618.12 -5.58219 3.86741 0
M  V30 17449 H 1616.06 -6.32254 1.74904 0
M  V30 17450 H 1615.98 -6.73722 3.42979 0
M  V30 17451 H 1617.25 -7.40202 2.4438 0
M  V30 17452 N 1621.48 -1.1533 -1.07409 0
M  V30 17453 C 1622.7 -0.952101 -1.84255 0
M  V30 17454 C 1623.13 0.494571 -1.81482 0
M  V30 17455 O 1622.48 1.35253 -1.20733 0
M  V30 17456 C 1622.53 -1.47019 -3.29268 0
M  V30 17457 O 1621.64 -0.669005 -4.06937 0
M  V30 17458 H 1620.98 -0.339643 -0.57056 0
M  V30 17459 H 1623.51 -1.53298 -1.35502 0
M  V30 17460 H 1623.52 -1.48278 -3.80102 0
M  V30 17461 H 1622.19 -2.5234 -3.30602 0
M  V30 17462 H 1620.77 -0.726003 -3.65764 0
M  V30 17463 N 1622.95 1.25748 -0.950004 0
M  V30 17464 C 1624.37 1.45599 -0.653697 0
M  V30 17465 C 1624.57 1.85357 0.790245 0
M  V30 17466 O 1623.63 1.98071 1.56601 0
M  V30 17467 C 1624.94 2.5316 -1.62267 0
M  V30 17468 C 1626.49 2.67004 -1.63334 0
M  V30 17469 C 1626.96 3.77745 -2.58984 0
M  V30 17470 N 1628.45 3.8515 -2.57321 0
M  V30 17471 C 1629.19 4.70315 -3.28011 0
M  V30 17472 N 1628.68 5.59802 -4.08159 0
M  V30 17473 N 1630.48 4.64239 -3.16921 0
M  V30 17474 H 1622.63 0.982321 -1.88319 0
M  V30 17475 H 1624.89 0.492917 -0.809776 0
M  V30 17476 H 1624.6 2.30792 -2.65382 0
M  V30 17477 H 1624.47 3.50988 -1.38158 0
M  V30 17478 H 1626.86 2.88739 -0.609388 0
M  V30 17479 H 1626.94 1.69591 -1.915 0
M  V30 17480 H 1626.58 3.56761 -3.61502 0
M  V30 17481 H 1626.51 4.74633 -2.28103 0
M  V30 17482 H 1629 3.21178 -1.99131 0
M  V30 17483 H 1629.32 6.21701 -4.59029 0
M  V30 17484 H 1627.66 5.59525 -4.12258 0
M  V30 17485 H 1630.85 3.93335 -2.53782 0
M  V30 17486 H 1631.03 5.30389 -3.72279 0
M  V30 17487 N 1624.43 0.718038 1.40292 0
M  V30 17488 C 1625.68 0.258986 2.0114 0
M  V30 17489 C 1626.01 -1.1456 1.56811 0
M  V30 17490 O 1625.29 -1.77766 0.789276 0
M  V30 17491 C 1625.57 0.341778 3.58474 0
M  V30 17492 C 1625.42 1.78492 4.12869 0
M  V30 17493 C 1626.74 -0.285622 4.39172 0
M  V30 17494 H 1623.86 0.0955806 0.730776 0
M  V30 17495 H 1626.5 0.911 1.66736 0
M  V30 17496 H 1624.65 -0.213354 3.87914 0
M  V30 17497 H 1626.32 2.39562 3.94218 0
M  V30 17498 H 1624.57 2.31183 3.67065 0
M  V30 17499 H 1625.24 1.79423 5.22026 0
M  V30 17500 H 1627.71 0.187411 4.15678 0
M  V30 17501 H 1626.59 -0.19726 5.48545 0
M  V30 17502 H 1626.85 -1.36947 4.20355 0
M  V30 17503 N 1625.91 -1.50602 0.464402 0
M  V30 17504 C 1627.14 -2.07191 -0.0930678 0
M  V30 17505 C 1627.56 -1.32675 -1.33338 0
M  V30 17506 O 1626.92 -0.372453 -1.77433 0
M  V30 17507 C 1626.97 -3.5873 -0.366775 0
M  V30 17508 O 1626.07 -3.86125 -1.44849 0
M  V30 17509 H 1625.41 -0.663924 0.0100336 0
M  V30 17510 H 1627.94 -1.93882 0.653522 0
M  V30 17511 H 1627.95 -4.03425 -0.609258 0
M  V30 17512 H 1626.63 -4.12385 0.539608 0
M  V30 17513 H 1625.2 -3.53273 -1.19384 0
M  V30 17514 N 1627.39 -0.19675 -1.56367 0
M  V30 17515 C 1628.63 0.443732 -1.99525 0
M  V30 17516 C 1628.99 1.58685 -1.08088 0
M  V30 17517 O 1630.19 2.29164 -1.4049 0
M  V30 17518 C 1628.46 0.890565 -3.46127 0
M  V30 17519 S 1630.02 1.52865 -4.11312 0
M  V30 17520 H 1626.84 0.141834 -0.69671 0
M  V30 17521 H 1629.44 -0.300205 -1.93181 0
M  V30 17522 H 1628.15 0.0485587 -4.10371 0
M  V30 17523 H 1627.68 1.66793 -3.56292 0
M  V30 17524 H 1629.69 2.81743 -4.08455 0
M  V30 17525 N 1628.87 1.57413 0.0768405 0
M  V30 17526 C 1630.28 1.75776 0.629262 0
M  V30 17527 C 1630.63 0.821502 1.78173 0
M  V30 17528 O 1629.75 0.00437198 2.164 0
M  V30 17529 C 1630.35 3.18747 1.14828 0
M  V30 17530 C 1628.91 3.38472 1.64661 0
M  V30 17531 C 1628.05 2.71506 0.563884 0
M  V30 17532 H 1631.01 1.57996 -0.149312 0
M  V30 17533 H 1631.03 3.22628 2.01722 0
M  V30 17534 H 1630.54 3.86866 0.309282 0
M  V30 17535 H 1628.64 2.75461 2.50903 0
M  V30 17536 H 1628.75 4.4689 1.72703 0
M  V30 17537 H 1627.12 2.33917 1.00772 0
M  V30 17538 H 1627.9 3.42277 -0.264847 0
M  V30 17539 N 1630.34 -0.348112 1.53707 0
M  V30 17540 C 1631.59 -1.08886 1.70734 0
M  V30 17541 C 1631.92 -1.88782 0.468142 0
M  V30 17542 O 1631.17 -1.8781 -0.550081 0
M  V30 17543 C 1631.47 -2.06123 2.91973 0
M  V30 17544 C 1631.14 -1.42574 4.27766 0
M  V30 17545 C 1629.8 -1.24971 4.64689 0
M  V30 17546 C 1632.15 -0.967538 5.12141 0
M  V30 17547 C 1629.48 -0.601597 5.83607 0
M  V30 17548 C 1631.83 -0.33335 6.31721 0
M  V30 17549 C 1630.5 -0.144967 6.67343 0
M  V30 17550 H 1629.77 -0.398444 0.624759 0
M  V30 17551 H 1632.41 -0.368657 1.87918 0
M  V30 17552 H 1630.72 -2.84509 2.69373 0
M  V30 17553 H 1632.42 -2.63423 3.0234 0
M  V30 17554 H 1629.01 -1.57271 3.98702 0
M  V30 17555 H 1633.19 -1.0914 4.84151 0
M  V30 17556 H 1628.45 -0.444216 6.09784 0
M  V30 17557 H 1632.62 0.0298081 6.96394 0
M  V30 17558 H 1630.25 0.359291 7.5935 0
M  V30 17559 N 1631.82 -1.45363 -0.608876 0
M  V30 17560 C 1633.23 -1.43794 -1.19081 0
M  V30 17561 C 1633.58 -0.164874 -1.95506 0
M  V30 17562 O 1632.71 0.733623 -2.03585 0
M  V30 17563 C 1633.3 -2.60506 -2.16615 0
M  V30 17564 C 1631.86 -2.62061 -2.70187 0
M  V30 17565 C 1631.01 -2.36018 -1.4557 0
M  V30 17566 H 1633.96 -1.53622 -0.39826 0
M  V30 17567 H 1633.98 -2.34531 -2.99625 0
M  V30 17568 H 1633.49 -3.53147 -1.60963 0
M  V30 17569 H 1631.6 -1.73423 -3.2978 0
M  V30 17570 H 1631.71 -3.61242 -3.14708 0
M  V30 17571 H 1630.07 -1.8555 -1.74481 0
M  V30 17572 H 1630.86 -3.30802 -0.917884 0
M  V30 17573 N 1633.3 0.851265 -1.32632 0
M  V30 17574 C 1634.26 1.94168 -1.21785 0
M  V30 17575 C 1635.26 1.60189 -0.140023 0
M  V30 17576 O 1636.45 1.69763 -0.390671 0
M  V30 17577 C 1633.59 3.29513 -0.873717 0
M  V30 17578 H 1634.78 2.05214 -2.18695 0
M  V30 17579 H 1632.33 1.04186 -1.16512 0
M  V30 17580 H 1633.07 3.24165 0.0934202 0
M  V30 17581 H 1632.85 3.55552 -1.65302 0
M  V30 17582 H 1634.34 4.09425 -0.822231 0
M  V30 17583 N 1634.78 1.15898 1.06796 0
M  V30 17584 C 1636.19 0.945837 1.60968 0
M  V30 17585 C 1636.54 -0.511507 1.89415 0
M  V30 17586 O 1635.67 -1.38372 1.66379 0
M  V30 17587 C 1636.26 1.71054 2.92448 0
M  V30 17588 C 1634.82 1.54252 3.43341 0
M  V30 17589 C 1633.97 1.72253 2.17311 0
M  V30 17590 H 1636.92 1.30842 0.898118 0
M  V30 17591 H 1636.94 1.18336 3.61631 0
M  V30 17592 H 1636.45 2.77117 2.71712 0
M  V30 17593 H 1634.55 0.506082 3.69147 0
M  V30 17594 H 1634.66 2.32314 4.19007 0
M  V30 17595 H 1633.03 1.14952 2.27284 0
M  V30 17596 H 1633.81 2.79693 1.99064 0
M  V30 17597 N 1636.26 -1.25243 0.956659 0
M  V30 17598 C 1637.5 -1.94763 0.620234 0
M  V30 17599 C 1637.86 -1.73244 -0.827689 0
M  V30 17600 O 1639.06 -2.36702 -1.2738 0
M  V30 17601 C 1637.33 -3.43941 0.971547 0
M  V30 17602 S 1638.89 -4.32378 0.748002 0
M  V30 17603 H 1635.71 -0.673484 0.227906 0
M  V30 17604 H 1638.31 -1.51855 1.23127 0
M  V30 17605 H 1637.02 -3.57107 2.02244 0
M  V30 17606 H 1636.55 -3.91832 0.350847 0
M  V30 17607 H 1638.56 -4.94741 -0.380203 0
M  V30 17608 N 1637.73 -0.725468 -1.3991 0
M  V30 17609 C 1638.66 -0.094211 -2.3331 0
M  V30 17610 C 1639.65 0.734728 -1.53414 0
M  V30 17611 O 1640.83 0.681647 -1.81844 0
M  V30 17612 C 1637.96 0.820958 -3.37457 0
M  V30 17613 C 1636.91 0.0968983 -4.2789 0
M  V30 17614 C 1636.24 1.12845 -5.22657 0
M  V30 17615 C 1637.54 -1.05483 -5.11537 0
M  V30 17616 H 1639.23 -0.874365 -2.86348 0
M  V30 17617 H 1636.78 -0.421913 -1.3768 0
M  V30 17618 H 1638.73 1.27203 -4.01743 0
M  V30 17619 H 1637.46 1.63312 -2.82837 0
M  V30 17620 H 1636.12 -0.334454 -3.65071 0
M  V30 17621 H 1635.76 1.93392 -4.64337 0
M  V30 17622 H 1635.46 0.648805 -5.84007 0
M  V30 17623 H 1636.99 1.57942 -5.89819 0
M  V30 17624 H 1638.4 -0.682657 -5.69221 0
M  V30 17625 H 1636.8 -1.46349 -5.81981 0
M  V30 17626 H 1637.87 -1.88095 -4.46932 0
M  V30 17627 N 1639.21 1.50354 -0.472382 0
M  V30 17628 C 1640.46 2.02333 0.0821629 0
M  V30 17629 C 1640.79 1.35428 1.39605 0
M  V30 17630 O 1640.04 0.469386 1.89988 0
M  V30 17631 C 1640.34 3.5603 0.31263 0
M  V30 17632 C 1640.01 4.41421 -0.919715 0
M  V30 17633 C 1638.67 4.64476 -1.25759 0
M  V30 17634 C 1641.02 4.91292 -1.74017 0
M  V30 17635 C 1638.35 5.34648 -2.41596 0
M  V30 17636 C 1640.7 5.62736 -2.88983 0
M  V30 17637 C 1639.37 5.84045 -3.23184 0
M  V30 17638 H 1638.64 0.74039 0.0300655 0
M  V30 17639 H 1641.28 1.80954 -0.626725 0
M  V30 17640 H 1639.59 3.75931 1.10378 0
M  V30 17641 H 1641.28 3.93815 0.755691 0
M  V30 17642 H 1637.87 4.23696 -0.646486 0
M  V30 17643 H 1642.06 4.73332 -1.49232 0
M  V30 17644 H 1637.31 5.49354 -2.68366 0
M  V30 17645 H 1641.49 6.0036 -3.52903 0
M  V30 17646 H 1639.12 6.38196 -4.1305 0
M  V30 17647 N 1640.69 0.205039 1.56261 0
M  V30 17648 C 1641.92 -0.43642 2.02245 0
M  V30 17649 C 1642.33 -1.54504 1.08508 0
M  V30 17650 O 1641.69 -1.82269 0.0916991 0
M  V30 17651 C 1641.74 -0.983483 3.47865 0
M  V30 17652 O 1641.46 0.0809166 4.38025 0
M  V30 17653 C 1642.96 -1.69983 4.09415 0
M  V30 17654 H 1640.18 -0.108577 0.662157 0
M  V30 17655 H 1642.73 0.316659 2.02033 0
M  V30 17656 H 1640.88 -1.6869 3.48744 0
M  V30 17657 H 1641.3 -0.327751 5.23475 0
M  V30 17658 H 1642.77 -2.03481 5.13127 0
M  V30 17659 H 1643.25 -2.60711 3.5345 0
M  V30 17660 H 1643.85 -1.04202 4.12337 0
M  V30 17661 N 1642.17 -1.57451 -0.0684915 0
M  V30 17662 C 1643.45 -1.78483 -0.800209 0
M  V30 17663 C 1643.83 -0.793438 -1.95621 0
M  V30 17664 O 1643.17 0.172756 -2.27846 0
M  V30 17665 C 1643.38 -3.25069 -1.27008 0
M  V30 17666 C 1644.73 -3.8899 -1.70212 0
M  V30 17667 O 1645.76 -3.2898 -1.36566 0
M  V30 17668 O 1644.62 -4.94569 -2.32515 0
M  V30 17669 H 1641.71 -0.732598 -0.383704 0
M  V30 17670 H 1644.26 -1.69631 -0.0483117 0
M  V30 17671 H 1643.03 -3.88784 -0.443067 0
M  V30 17672 H 1642.65 -3.38657 -2.08319 0
M  V30 17673 N 1643.65 0.339955 -1.5389 0
M  V30 17674 C 1644.9 1.07723 -1.70524 0
M  V30 17675 C 1645.21 1.89693 -0.477058 0
M  V30 17676 O 1646.42 2.66387 -0.524424 0
M  V30 17677 C 1644.87 1.96455 -3.01551 0
M  V30 17678 C 1644.48 1.19675 -4.3172 0
M  V30 17679 C 1646.22 2.70019 -3.27552 0
M  V30 17680 C 1644.13 2.07458 -5.53819 0
M  V30 17681 H 1643.06 0.405877 -0.635437 0
M  V30 17682 H 1645.71 0.336489 -1.80388 0
M  V30 17683 H 1644.09 2.74364 -2.85553 0
M  V30 17684 H 1645.27 0.466526 -4.58432 0
M  V30 17685 H 1643.58 0.578651 -4.1236 0
M  V30 17686 H 1646.18 3.35973 -4.15964 0
M  V30 17687 H 1646.52 3.36779 -2.44716 0
M  V30 17688 H 1647.06 1.99182 -3.44342 0
M  V30 17689 H 1643.79 1.45234 -6.39208 0
M  V30 17690 H 1643.31 2.7826 -5.31349 0
M  V30 17691 H 1644.99 2.66428 -5.89598 0
M  V30 17692 N 1645.13 1.45684 0.601159 0
M  V30 17693 C 1646.54 1.30232 0.922598 0
M  V30 17694 C 1646.74 0.260086 1.99814 0
M  V30 17695 O 1645.8 -0.343753 2.50149 0
M  V30 17696 C 1647.11 2.68318 1.35743 0
M  V30 17697 C 1648.66 2.76264 1.47129 0
M  V30 17698 C 1649.13 4.1489 1.93986 0
M  V30 17699 N 1650.62 4.17216 2.01209 0
M  V30 17700 C 1651.36 5.21354 2.387 0
M  V30 17701 N 1650.86 6.35833 2.75114 0
M  V30 17702 N 1652.65 5.08714 2.39095 0
M  V30 17703 H 1644.8 2.12117 -0.109634 0
M  V30 17704 H 1647.06 0.947902 0.0136129 0
M  V30 17705 H 1646.77 3.45804 0.64127 0
M  V30 17706 H 1646.64 2.97206 2.32268 0
M  V30 17707 H 1649.03 1.99077 2.17835 0
M  V30 17708 H 1649.11 2.51082 0.489028 0
M  V30 17709 H 1648.75 4.92565 1.23864 0
M  V30 17710 H 1648.68 4.37468 2.93137 0
M  V30 17711 H 1651.18 3.34607 1.75632 0
M  V30 17712 H 1651.49 7.11084 3.02622 0
M  V30 17713 H 1649.83 6.39224 2.72795 0
M  V30 17714 H 1653.02 4.18322 2.10057 0
M  V30 17715 H 1653.2 5.89989 2.67987 0
M  V30 17716 N 1646.6 -0.84422 1.33082 0
M  V30 17717 C 1647.85 -1.60149 1.24419 0
M  V30 17718 C 1648.18 -1.93259 -0.190992 0
M  V30 17719 O 1647.46 -1.58242 -1.13092 0
M  V30 17720 C 1647.74 -2.91502 2.11421 0
M  V30 17721 C 1647.59 -2.65108 3.6337 0
M  V30 17722 C 1648.91 -3.92878 1.98331 0
M  V30 17723 H 1646.03 -0.581096 0.453317 0
M  V30 17724 H 1648.67 -0.974093 1.6313 0
M  V30 17725 H 1646.82 -3.45046 1.78537 0
M  V30 17726 H 1648.5 -2.18037 4.06519 0
M  V30 17727 H 1646.74 -1.98896 3.85516 0
M  V30 17728 H 1647.41 -3.58682 4.19584 0
M  V30 17729 H 1649.89 -3.48623 2.27159 0
M  V30 17730 H 1648.76 -4.82625 2.61466 0
M  V30 17731 H 1649.02 -4.31685 0.953972 0
M  V30 17732 N 1648.08 -1.16463 -1.0618 0
M  V30 17733 C 1649.01 -0.895399 -2.1565 0
M  V30 17734 C 1649.99 0.158729 -1.69358 0
M  V30 17735 O 1651.18 0.010586 -1.94197 0
M  V30 17736 C 1648.31 -0.396959 -3.45024 0
M  V30 17737 C 1647.26 -1.38913 -4.0483 0
M  V30 17738 C 1646.59 -0.749043 -5.29427 0
M  V30 17739 C 1647.89 -2.7591 -4.43476 0
M  V30 17740 H 1649.58 -1.81085 -2.38429 0
M  V30 17741 H 1647.13 -0.872098 -1.14588 0
M  V30 17742 H 1649.08 -0.196086 -4.20944 0
M  V30 17743 H 1647.8 0.554002 -3.21867 0
M  V30 17744 H 1646.46 -1.57657 -3.30968 0
M  V30 17745 H 1646.11 0.208439 -5.02568 0
M  V30 17746 H 1645.81 -1.41128 -5.704 0
M  V30 17747 H 1647.34 -0.558217 -6.08043 0
M  V30 17748 H 1648.75 -2.60942 -5.10473 0
M  V30 17749 H 1647.15 -3.38618 -4.95437 0
M  V30 17750 H 1648.22 -3.31076 -3.54284 0
M  V30 17751 N 1649.56 1.24734 -0.963288 0
M  V30 17752 C 1650.49 2.24785 -0.447722 0
M  V30 17753 C 1651.5 1.5671 0.44113 0
M  V30 17754 O 1652.69 1.76769 0.248015 0
M  V30 17755 C 1649.79 3.36837 0.373368 0
M  V30 17756 C 1648.97 4.3448 -0.504532 0
M  V30 17757 C 1648.03 5.25558 0.25981 0
M  V30 17758 O 1647.05 5.68155 -0.344754 0
M  V30 17759 N 1648.25 5.59408 1.55058 0
M  V30 17760 H 1651.02 2.69654 -1.30792 0
M  V30 17761 H 1648.58 1.38729 -0.834614 0
M  V30 17762 H 1650.57 3.94733 0.892631 0
M  V30 17763 H 1649.14 2.91288 1.13447 0
M  V30 17764 H 1648.36 3.75337 -1.20481 0
M  V30 17765 H 1649.65 4.96691 -1.10343 0
M  V30 17766 H 1649.05 5.2672 2.06355 0
M  V30 17767 H 1647.6 6.19851 2.01563 0
M  V30 17768 N 1651.04 0.732878 1.39523 0
M  V30 17769 C 1652.31 0.20629 1.94509 0
M  V30 17770 C 1652.69 -1.29152 1.66982 0
M  V30 17771 O 1652.04 -2.05607 0.996895 0
M  V30 17772 C 1652.25 0.537619 3.44834 0
M  V30 17773 C 1653.6 0.485787 4.21812 0
M  V30 17774 O 1654.62 0.474686 3.53023 0
M  V30 17775 O 1653.48 0.478457 5.44402 0
M  V30 17776 H 1650.58 0.0369228 0.826175 0
M  V30 17777 H 1653.12 0.811591 1.49035 0
M  V30 17778 H 1651.9 1.57289 3.58296 0
M  V30 17779 H 1651.52 -0.0967601 3.97482 0
M  V30 17780 N 1652.52 -1.50101 0.480349 0
M  V30 17781 C 1653.74 -2.07278 -0.0710872 0
M  V30 17782 C 1654.17 -1.34082 -1.31923 0
M  V30 17783 O 1653.52 -0.391251 -1.77028 0
M  V30 17784 C 1653.57 -3.59099 -0.328706 0
M  V30 17785 O 1652.68 -3.8764 -1.40745 0
M  V30 17786 H 1652.02 -0.66378 0.0170748 0
M  V30 17787 H 1654.55 -1.93178 0.674049 0
M  V30 17788 H 1654.56 -4.04049 -0.566435 0
M  V30 17789 H 1653.23 -4.11789 0.583316 0
M  V30 17790 H 1651.81 -3.54519 -1.15631 0
M  V30 17791 N 1653.99 -0.213323 -1.5615 0
M  V30 17792 C 1655.23 0.422545 -1.99985 0
M  V30 17793 C 1655.6 1.57529 -1.09765 0
M  V30 17794 O 1656.8 2.27661 -1.42913 0
M  V30 17795 C 1655.07 0.853804 -3.47052 0
M  V30 17796 S 1656.63 1.48494 -4.1291 0
M  V30 17797 H 1653.45 0.134436 -0.698175 0
M  V30 17798 H 1656.05 -0.320678 -1.92852 0
M  V30 17799 H 1654.75 0.00503066 -4.104 0
M  V30 17800 H 1654.28 1.63004 -3.58041 0
M  V30 17801 H 1656.3 2.77395 -4.1142 0
M  V30 17802 N 1655.47 1.57485 0.0601405 0
M  V30 17803 C 1656.7 1.92438 0.773466 0
M  V30 17804 C 1657.12 0.810755 1.6973 0
M  V30 17805 O 1656.48 -0.235697 1.79761 0
M  V30 17806 C 1656.53 3.26381 1.53323 0
M  V30 17807 O 1655.63 3.16436 2.64465 0
M  V30 17808 H 1654.97 0.629838 0.210239 0
M  V30 17809 H 1657.5 2.04585 0.0248981 0
M  V30 17810 H 1657.51 3.60534 1.90996 0
M  V30 17811 H 1656.19 4.07007 0.855468 0
M  V30 17812 H 1654.77 2.93862 2.29564 0
M  V30 17813 N 1656.95 -0.331789 1.54068 0
M  V30 17814 C 1657.9 -1.40889 1.7926 0
M  V30 17815 C 1658.88 -1.47263 0.648266 0
M  V30 17816 O 1660.08 -1.51934 0.908021 0
M  V30 17817 C 1657.21 -2.77864 2.0161 0
M  V30 17818 C 1656.29 -2.75835 3.22142 0
M  V30 17819 N 1656.68 -2.43431 4.43368 0
M  V30 17820 C 1654.98 -3.06972 3.23549 0
M  V30 17821 C 1655.68 -2.49932 5.2527 0
M  V30 17822 N 1654.66 -2.86037 4.6226 0
M  V30 17823 H 1658.46 -1.14751 2.70572 0
M  V30 17824 H 1655.97 -0.540225 1.53151 0
M  V30 17825 H 1657.97 -3.55486 2.17796 0
M  V30 17826 H 1656.63 -3.04938 1.11547 0
M  V30 17827 H 1657.64 -2.16421 4.70513 0
M  V30 17828 H 1654.32 -3.39142 2.43493 0
M  V30 17829 H 1655.71 -2.27938 6.32055 0
M  V30 17830 N 1658.43 -1.46001 -0.593424 0
M  V30 17831 C 1659.68 -1.50755 -1.352 0
M  V30 17832 C 1660 -0.154929 -1.93882 0
M  V30 17833 O 1659.26 0.848161 -1.76365 0
M  V30 17834 C 1659.56 -2.54568 -2.50858 0
M  V30 17835 C 1659.22 -3.98888 -2.10236 0
M  V30 17836 C 1657.89 -4.38182 -1.98872 0
M  V30 17837 C 1660.24 -4.89591 -1.78746 0
M  V30 17838 C 1657.57 -5.66057 -1.5426 0
M  V30 17839 C 1659.92 -6.17892 -1.35617 0
M  V30 17840 C 1658.58 -6.56103 -1.22822 0
M  V30 17841 H 1657.85 -0.551652 -0.494734 0
M  V30 17842 H 1660.5 -1.79422 -0.669327 0
M  V30 17843 H 1658.8 -2.19523 -3.24526 0
M  V30 17844 H 1660.5 -2.5548 -3.09081 0
M  V30 17845 H 1657.09 -3.67822 -2.20012 0
M  V30 17846 H 1661.27 -4.59959 -1.86416 0
M  V30 17847 H 1656.53 -5.94444 -1.42988 0
M  V30 17848 H 1660.7 -6.87609 -1.10301 0
M  V30 17849 H 1658.33 -7.55086 -0.880285 0
M  V30 17850 N 1659.91 0.83715 -1.33527 0
M  V30 17851 C 1661.15 1.59487 -1.25267 0
M  V30 17852 C 1661.49 1.93357 0.180741 0
M  V30 17853 O 1660.76 1.5884 1.12251 0
M  V30 17854 C 1661.04 2.90376 -2.12964 0
M  V30 17855 C 1660.9 2.63177 -3.64771 0
M  V30 17856 C 1662.22 3.9182 -2.00412 0
M  V30 17857 H 1659.33 0.578684 -0.456392 0
M  V30 17858 H 1661.98 0.965428 -1.63644 0
M  V30 17859 H 1660.13 3.44095 -1.80364 0
M  V30 17860 H 1661.8 2.15878 -4.0767 0
M  V30 17861 H 1660.04 1.96849 -3.86566 0
M  V30 17862 H 1660.71 3.56452 -4.21481 0
M  V30 17863 H 1663.19 3.47413 -2.29005 0
M  V30 17864 H 1662.06 4.81232 -2.64021 0
M  V30 17865 H 1662.33 4.31173 -0.976852 0
M  V30 17866 N 1661.38 1.17024 1.05561 0
M  V30 17867 C 1662.29 0.898107 2.16728 0
M  V30 17868 C 1663.31 -0.132369 1.73496 0
M  V30 17869 O 1664.49 0.0460203 2.01347 0
M  V30 17870 C 1661.55 0.411091 3.44254 0
M  V30 17871 C 1660.61 1.5077 4.01954 0
M  V30 17872 C 1659.85 1.04383 5.23393 0
M  V30 17873 O 1660.07 -0.10351 5.70306 0
M  V30 17874 O 1659 1.8353 5.73237 0
M  V30 17875 H 1662.83 1.82791 2.42531 0
M  V30 17876 H 1660.41 0.950816 1.15238 0
M  V30 17877 H 1662.3 0.146837 4.21144 0
M  V30 17878 H 1660.97 -0.490605 3.19961 0
M  V30 17879 H 1659.88 1.82579 3.26521 0
M  V30 17880 H 1661.21 2.38497 4.30558 0
M  V30 17881 N 1662.86 -1.24221 0.969889 0
M  V30 17882 C 1663.81 -2.27299 0.493765 0
M  V30 17883 C 1664.8 -1.63483 -0.443824 0
M  V30 17884 O 1666.01 -1.77153 -0.318873 0
M  V30 17885 H 1662.39 -0.738622 0.141216 0
M  V30 17886 H 1664.36 -2.6483 1.37506 0
M  V30 17887 C 1663.11 -3.47134 -0.198399 0
M  V30 17888 H 1662.43 -3.96483 0.51395 0
M  V30 17889 H 1663.87 -4.21097 -0.495334 0
M  V30 17890 C 1662.33 -3.05227 -1.42612 0
M  V30 17891 O 1662.86 -3.1258 -2.52302 0
M  V30 17892 N 1661.06 -2.60252 -1.29295 0
M  V30 17893 H 1660.61 -2.54468 -0.400461 0
M  V30 17894 H 1660.57 -2.32579 -2.11553 0
M  V30 17895 N 1664.34 -0.740267 -1.39132 0
M  V30 17896 C 1665.29 -0.0929334 -2.32414 0
M  V30 17897 C 1666.28 0.720062 -1.53334 0
M  V30 17898 O 1667.49 0.620656 -1.68961 0
M  V30 17899 H 1663.86 -0.0112531 -0.751916 0
M  V30 17900 H 1665.83 -0.895975 -2.84631 0
M  V30 17901 C 1664.58 0.796182 -3.38462 0
M  V30 17902 H 1663.91 0.17999 -3.99395 0
M  V30 17903 H 1665.35 1.21664 -4.0617 0
M  V30 17904 C 1663.81 1.93285 -2.75939 0
M  V30 17905 O 1664.34 3.02593 -2.64198 0
M  V30 17906 N 1662.54 1.72386 -2.33948 0
M  V30 17907 H 1662.09 0.834821 -2.43698 0
M  V30 17908 H 1662.05 2.48612 -1.92456 0
M  V30 17909 N 1665.82 1.49844 -0.488302 0
M  V30 17910 C 1667.07 2.01603 0.0624744 0
M  V30 17911 C 1667.38 1.37397 1.39217 0
M  V30 17912 O 1668.59 1.8041 2.0289 0
M  V30 17913 C 1667.04 3.59536 0.161824 0
M  V30 17914 C 1666.65 4.32709 -1.16047 0
M  V30 17915 C 1668.39 4.1928 0.663642 0
M  V30 17916 C 1666.3 5.82468 -1.02397 0
M  V30 17917 H 1665.23 0.753512 0.0271222 0
M  V30 17918 H 1667.88 1.72499 -0.625805 0
M  V30 17919 H 1666.26 3.85301 0.914273 0
M  V30 17920 H 1667.44 4.18655 -1.92522 0
M  V30 17921 H 1665.75 3.84652 -1.59473 0
M  V30 17922 H 1668.35 5.28935 0.783069 0
M  V30 17923 H 1668.69 3.81801 1.65933 0
M  V30 17924 H 1669.23 3.97787 -0.0319078 0
M  V30 17925 H 1665.97 6.2445 -1.99355 0
M  V30 17926 H 1665.49 5.9905 -0.299902 0
M  V30 17927 H 1667.16 6.43229 -0.697538 0
M  V30 17928 N 1667.3 0.221601 1.56034 0
M  V30 17929 C 1668.24 -0.704963 2.2166 0
M  V30 17930 C 1669.24 -1.19966 1.19601 0
M  V30 17931 O 1670.44 -1.15949 1.37681 0
M  V30 17932 H 1666.82 -0.245758 0.710709 0
M  V30 17933 H 1668.79 -0.128041 2.98125 0
M  V30 17934 C 1667.54 -1.90234 2.91043 0
M  V30 17935 H 1666.86 -1.53079 3.69333 0
M  V30 17936 H 1668.3 -2.52844 3.40361 0
M  V30 17937 C 1666.76 -2.75777 1.93516 0
M  V30 17938 O 1667.29 -3.74534 1.45214 0
M  V30 17939 N 1665.5 -2.41815 1.61165 0
M  V30 17940 H 1665.04 -1.61561 2.00639 0
M  V30 17941 H 1665 -2.9933 0.96172 0
M  V30 17942 N 1668.77 -1.57515 -0.0517878 0
M  V30 17943 C 1669.7 -2.0809 -1.05929 0
M  V30 17944 C 1670.69 -0.978529 -1.39136 0
M  V30 17945 O 1671.87 -1.25245 -1.48416 0
M  V30 17946 C 1669 -2.54147 -2.36699 0
M  V30 17947 C 1667.95 -3.68442 -2.17794 0
M  V30 17948 C 1667.28 -4.00624 -3.54125 0
M  V30 17949 C 1668.58 -4.97743 -1.5827 0
M  V30 17950 H 1670.27 -2.92515 -0.638371 0
M  V30 17951 H 1667.82 -1.40719 -0.305625 0
M  V30 17952 H 1669.77 -2.88145 -3.07491 0
M  V30 17953 H 1668.5 -1.66775 -2.80809 0
M  V30 17954 H 1667.16 -3.34758 -1.4944 0
M  V30 17955 H 1666.8 -3.10353 -3.95841 0
M  V30 17956 H 1666.5 -4.77597 -3.42308 0
M  V30 17957 H 1668.03 -4.37136 -4.26315 0
M  V30 17958 H 1669.44 -5.29843 -2.18951 0
M  V30 17959 H 1667.84 -5.79173 -1.57094 0
M  V30 17960 H 1668.91 -4.81815 -0.546127 0
M  V30 17961 N 1670.25 0.323614 -1.54242 0
M  V30 17962 C 1671.5 1.05947 -1.72104 0
M  V30 17963 C 1671.82 1.88547 -0.497512 0
M  V30 17964 O 1671.09 1.89712 0.488485 0
M  V30 17965 H 1669.67 0.394141 -0.634557 0
M  V30 17966 H 1672.33 0.360063 -1.91545 0
M  V30 17967 H 1671.43 1.72552 -2.60062 0
M  V30 17968 N 1671.73 1.46313 0.585673 0
M  V30 17969 C 1672.96 1.55035 1.3701 0
M  V30 17970 C 1673.37 0.190444 1.87837 0
M  V30 17971 O 1672.73 -0.81177 1.63452 0
M  V30 17972 C 1672.78 2.55272 2.55965 0
M  V30 17973 O 1672.5 3.85981 2.07245 0
M  V30 17974 C 1674 2.73906 3.48555 0
M  V30 17975 H 1671.22 0.524377 0.418653 0
M  V30 17976 H 1673.77 1.91695 0.712267 0
M  V30 17977 H 1671.92 2.21625 3.17744 0
M  V30 17978 H 1672.34 4.40512 2.84692 0
M  V30 17979 H 1673.81 3.4797 4.2851 0
M  V30 17980 H 1674.29 1.80708 4.00301 0
M  V30 17981 H 1674.89 3.08638 2.92614 0
M  V30 17982 N 1673.21 -0.830057 1.33969 0
M  V30 17983 C 1674.43 -1.62294 1.29133 0
M  V30 17984 C 1674.86 -1.87627 -0.133253 0
M  V30 17985 O 1674.22 -1.44669 -1.09272 0
M  V30 17986 C 1674.27 -2.94508 2.0808 0
M  V30 17987 O 1673.37 -3.86239 1.44544 0
M  V30 17988 H 1672.71 -0.493865 0.443839 0
M  V30 17989 H 1675.24 -1.03202 1.76665 0
M  V30 17990 H 1675.25 -3.44133 2.19173 0
M  V30 17991 H 1673.93 -2.75392 3.1166 0
M  V30 17992 H 1672.5 -3.44743 1.42151 0
M  V30 17993 N 1674.69 -1.17582 -1.04939 0
M  V30 17994 C 1675.91 -0.99097 -1.82194 0
M  V30 17995 C 1676.34 0.455965 -1.8249 0
M  V30 17996 O 1675.7 1.32661 -1.23575 0
M  V30 17997 C 1675.74 -1.53971 -3.26076 0
M  V30 17998 O 1674.85 -0.755172 -4.05427 0
M  V30 17999 H 1674.19 -0.351669 -0.563227 0
M  V30 18000 H 1676.72 -1.56138 -1.3222 0
M  V30 18001 H 1676.73 -1.56307 -3.76872 0
M  V30 18002 H 1675.4 -2.59295 -3.25175 0
M  V30 18003 H 1673.98 -0.803423 -3.64142 0
M  V30 18004 N 1676.17 1.23705 -0.976463 0
M  V30 18005 C 1677.11 2.25023 -0.513156 0
M  V30 18006 C 1678.08 1.60003 0.445903 0
M  V30 18007 O 1679.27 1.87481 0.354323 0
M  V30 18008 C 1676.41 3.44619 0.182088 0
M  V30 18009 C 1675.52 4.24209 -0.816769 0
M  V30 18010 C 1674.66 5.31112 -0.0967355 0
M  V30 18011 C 1673.69 6.02406 -1.08507 0
M  V30 18012 N 1672.83 7.00991 -0.394455 0
M  V30 18013 H 1677.67 2.64019 -1.38194 0
M  V30 18014 H 1675.21 1.29777 -0.692566 0
M  V30 18015 H 1677.17 4.12835 0.601948 0
M  V30 18016 H 1675.8 3.06435 1.01477 0
M  V30 18017 H 1674.85 3.55448 -1.35503 0
M  V30 18018 H 1676.16 4.73445 -1.57006 0
M  V30 18019 H 1675.31 6.05504 0.380686 0
M  V30 18020 H 1674.05 4.82806 0.689187 0
M  V30 18021 H 1673.06 5.26809 -1.57328 0
M  V30 18022 H 1674.28 6.528 -1.87159 0
M  V30 18023 H 1672.23 6.54943 0.372331 0
M  V30 18024 H 1672.15 7.48152 -1.08647 0
M  V30 18025 H 1673.41 7.79476 0.0607087 0
M  V30 18026 N 1677.64 0.747635 1.38738 0
M  V30 18027 C 1678.59 0.11597 2.30508 0
M  V30 18028 C 1679.56 -0.716088 1.49871 0
M  V30 18029 O 1680.75 -0.673446 1.7852 0
M  V30 18030 C 1677.89 -0.775765 3.36268 0
M  V30 18031 C 1677 0.070275 4.31943 0
M  V30 18032 C 1676.13 -0.823908 5.24772 0
M  V30 18033 C 1675.17 0.0261249 6.12094 0
M  V30 18034 N 1674.31 -0.824688 6.9724 0
M  V30 18035 H 1679.15 0.904158 2.83952 0
M  V30 18036 H 1676.69 0.457513 1.39804 0
M  V30 18037 H 1678.64 -1.30735 3.96187 0
M  V30 18038 H 1677.27 -1.5298 2.84248 0
M  V30 18039 H 1676.33 0.719421 3.73535 0
M  V30 18040 H 1677.64 0.726987 4.93474 0
M  V30 18041 H 1676.79 -1.42287 5.89779 0
M  V30 18042 H 1675.53 -1.51437 4.63593 0
M  V30 18043 H 1674.54 0.637803 5.46088 0
M  V30 18044 H 1675.76 0.713556 6.75341 0
M  V30 18045 H 1673.71 -1.50021 6.38616 0
M  V30 18046 H 1673.62 -0.22474 7.55666 0
M  V30 18047 H 1674.89 -1.40882 7.66663 0
M  V30 18048 N 1679.12 -1.49583 0.496242 0
M  V30 18049 C 1680.35 -2.06847 -0.0469118 0
M  V30 18050 C 1680.76 -1.35715 -1.31251 0
M  V30 18051 O 1680.12 -0.434021 -1.77264 0
M  V30 18052 C 1680.17 -3.60174 -0.309338 0
M  V30 18053 O 1679.89 -4.28628 0.906082 0
M  V30 18054 C 1681.39 -4.34137 -0.896664 0
M  V30 18055 H 1678.61 -0.67075 0.0183324 0
M  V30 18056 H 1681.16 -1.92427 0.692237 0
M  V30 18057 H 1679.31 -3.74312 -0.998459 0
M  V30 18058 H 1679.73 -5.20254 0.666014 0
M  V30 18059 H 1681.2 -5.42307 -1.0299 0
M  V30 18060 H 1681.68 -3.96299 -1.89325 0
M  V30 18061 H 1682.28 -4.24593 -0.245158 0
M  V30 18062 N 1680.6 -0.229873 -1.55915 0
M  V30 18063 C 1681.85 0.399565 -1.98519 0
M  V30 18064 C 1682.17 1.59179 -1.1177 0
M  V30 18065 O 1681.43 1.95007 -0.16454 0
M  V30 18066 C 1681.73 0.869043 -3.46673 0
M  V30 18067 C 1681.39 -0.21356 -4.50394 0
M  V30 18068 C 1680.06 -0.510939 -4.7848 0
M  V30 18069 C 1682.41 -0.945307 -5.12556 0
M  V30 18070 C 1679.74 -1.54444 -5.66007 0
M  V30 18071 C 1682.09 -1.9682 -6.01203 0
M  V30 18072 C 1680.75 -2.27241 -6.27629 0
M  V30 18073 H 1680.02 0.146211 -0.726432 0
M  V30 18074 H 1682.67 -0.334135 -1.88562 0
M  V30 18075 H 1680.97 1.68165 -3.53875 0
M  V30 18076 H 1682.67 1.36605 -3.77015 0
M  V30 18077 H 1679.26 0.0283699 -4.28591 0
M  V30 18078 H 1683.45 -0.728806 -4.9092 0
M  V30 18079 H 1678.7 -1.78566 -5.84743 0
M  V30 18080 H 1682.88 -2.54023 -6.48418 0
M  V30 18081 H 1680.5 -3.07465 -6.95248 0
M  V30 18082 N 1682.08 1.5754 0.0434337 0
M  V30 18083 C 1683.04 2.046 1.03303 0
M  V30 18084 C 1684.04 0.947648 1.29909 0
M  V30 18085 O 1685.23 1.21171 1.25153 0
M  V30 18086 C 1682.36 2.45077 2.36961 0
M  V30 18087 H 1683.56 2.93276 0.626822 0
M  V30 18088 H 1681.11 1.53588 0.289909 0
M  V30 18089 H 1681.84 1.59513 2.82358 0
M  V30 18090 H 1681.63 3.25252 2.18983 0
M  V30 18091 H 1683.12 2.81963 3.08037 0
M  V30 18092 N 1683.56 -0.31543 1.54411 0
M  V30 18093 C 1684.78 -1.0761 1.77299 0
M  V30 18094 C 1685.21 -1.80655 0.523963 0
M  V30 18095 O 1684.56 -1.73536 -0.524874 0
M  V30 18096 C 1684.61 -2.04355 2.97105 0
M  V30 18097 O 1683.72 -3.12401 2.69219 0
M  V30 18098 H 1683.06 -0.30986 0.587267 0
M  V30 18099 H 1685.59 -0.357246 2.01457 0
M  V30 18100 H 1685.6 -2.47081 3.24677 0
M  V30 18101 H 1684.27 -1.50592 3.87679 0
M  V30 18102 H 1682.85 -2.74294 2.52621 0
M  V30 18103 N 1685.03 -1.46622 -0.577906 0
M  V30 18104 C 1686.26 -1.55534 -1.35988 0
M  V30 18105 C 1686.67 -0.197065 -1.88171 0
M  V30 18106 O 1686.02 0.816609 -1.64551 0
M  V30 18107 C 1686.08 -2.5035 -2.58002 0
M  V30 18108 C 1685.74 -3.96491 -2.27253 0
M  V30 18109 C 1686.74 -4.85567 -1.85797 0
M  V30 18110 C 1684.42 -4.41662 -2.39249 0
M  V30 18111 C 1686.42 -6.17828 -1.56738 0
M  V30 18112 C 1684.1 -5.73956 -2.09803 0
M  V30 18113 C 1685.1 -6.6186 -1.68613 0
M  V30 18114 O 1684.79 -7.91698 -1.3953 0
M  V30 18115 H 1684.52 -0.528412 -0.421612 0
M  V30 18116 H 1687.08 -1.92774 -0.709038 0
M  V30 18117 H 1685.31 -2.08137 -3.25908 0
M  V30 18118 H 1687 -2.49616 -3.20073 0
M  V30 18119 H 1687.76 -4.51924 -1.76039 0
M  V30 18120 H 1683.64 -3.73462 -2.70272 0
M  V30 18121 H 1687.18 -6.86398 -1.24514 0
M  V30 18122 H 1683.08 -6.07147 -2.19187 0
M  V30 18123 H 1683.85 -8.04009 -1.53335 0
M  V30 18124 N 1686.51 0.822941 -1.34408 0
M  V30 18125 C 1687.45 1.93899 -1.20326 0
M  V30 18126 C 1688.42 1.62323 -0.0949083 0
M  V30 18127 O 1689.61 1.86698 -0.260056 0
M  V30 18128 C 1686.73 3.27884 -0.849118 0
M  V30 18129 C 1685.78 3.78421 -1.96723 0
M  V30 18130 S 1686.61 3.98182 -3.58066 0
M  V30 18131 C 1687.77 5.35094 -3.24693 0
M  V30 18132 H 1688 2.05547 -2.14797 0
M  V30 18133 H 1685.54 0.978513 -1.19434 0
M  V30 18134 H 1687.49 4.05296 -0.651579 0
M  V30 18135 H 1686.15 3.14005 0.0772533 0
M  V30 18136 H 1685.35 4.75416 -1.67318 0
M  V30 18137 H 1684.95 3.07955 -2.12225 0
M  V30 18138 H 1687.24 6.18507 -2.76507 0
M  V30 18139 H 1688.18 5.69482 -4.20828 0
M  V30 18140 H 1688.59 5.00604 -2.60876 0
M  V30 18141 N 1687.99 1.18137 1.04314 0
M  V30 18142 C 1689.4 0.979768 1.58926 0
M  V30 18143 C 1689.75 -0.471214 1.90457 0
M  V30 18144 O 1688.88 -1.34812 1.69277 0
M  V30 18145 C 1689.47 1.77219 2.88754 0
M  V30 18146 C 1688.03 1.61501 3.39992 0
M  V30 18147 C 1687.18 1.76824 2.13609 0
M  V30 18148 H 1690.13 1.32717 0.870162 0
M  V30 18149 H 1690.15 1.2598 3.59039 0
M  V30 18150 H 1689.66 2.82818 2.65773 0
M  V30 18151 H 1687.76 0.58427 3.67991 0
M  V30 18152 H 1687.88 2.4115 4.13985 0
M  V30 18153 H 1686.24 1.19747 2.24795 0
M  V30 18154 H 1687.02 2.83853 1.93087 0
M  V30 18155 N 1689.47 -1.23186 0.98301 0
M  V30 18156 C 1690.4 -2.24044 0.483426 0
M  V30 18157 C 1691.41 -1.57392 -0.416143 0
M  V30 18158 O 1692.6 -1.77141 -0.219861 0
M  V30 18159 C 1689.7 -3.37388 -0.319733 0
M  V30 18160 C 1688.88 -4.33623 0.57359 0
M  V30 18161 C 1687.93 -5.25905 -0.176165 0
M  V30 18162 O 1686.96 -5.67535 0.435099 0
M  V30 18163 N 1688.16 -5.61804 -1.46139 0
M  V30 18164 H 1690.93 -2.67539 1.35066 0
M  V30 18165 H 1688.49 -1.37384 0.856579 0
M  V30 18166 H 1690.48 -3.96103 -0.829719 0
M  V30 18167 H 1689.05 -2.93056 -1.08799 0
M  V30 18168 H 1688.27 -3.73373 1.26437 0
M  V30 18169 H 1689.56 -4.94873 1.18231 0
M  V30 18170 H 1688.96 -5.29936 -1.97949 0
M  V30 18171 H 1687.51 -6.22979 -1.91676 0
M  V30 18172 N 1690.95 -0.754982 -1.38339 0
M  V30 18173 C 1692.19 -0.311762 -2.00086 0
M  V30 18174 C 1692.52 1.10693 -1.59929 0
M  V30 18175 O 1691.78 1.77279 -0.8289 0
M  V30 18176 C 1692.08 -0.383719 -3.55334 0
M  V30 18177 C 1691.74 -1.75826 -4.15206 0
M  V30 18178 C 1690.4 -2.13443 -4.31272 0
M  V30 18179 C 1692.76 -2.65985 -4.4822 0
M  V30 18180 C 1690.08 -3.40689 -4.77649 0
M  V30 18181 C 1692.44 -3.92623 -4.96014 0
M  V30 18182 C 1691.1 -4.30307 -5.10286 0
M  V30 18183 H 1690.37 -0.114082 -0.732166 0
M  V30 18184 H 1693.02 -0.965735 -1.65366 0
M  V30 18185 H 1691.32 0.353817 -3.90199 0
M  V30 18186 H 1693.02 -0.022341 -4.00994 0
M  V30 18187 H 1689.61 -1.45585 -4.03117 0
M  V30 18188 H 1693.79 -2.38188 -4.35408 0
M  V30 18189 H 1689.05 -3.69802 -4.86884 0
M  V30 18190 H 1693.22 -4.62626 -5.20529 0
M  V30 18191 H 1690.85 -5.28968 -5.45982 0
M  V30 18192 N 1692.42 1.49318 -0.504168 0
M  V30 18193 C 1693.36 2.27103 0.309327 0
M  V30 18194 C 1694.37 1.33776 0.927781 0
M  V30 18195 O 1695.56 1.59034 0.810585 0
M  V30 18196 C 1692.66 3.06277 1.45078 0
M  V30 18197 C 1691.83 4.27201 0.939045 0
M  V30 18198 C 1690.89 4.88395 1.95849 0
M  V30 18199 O 1689.92 5.4837 1.52576 0
M  V30 18200 N 1691.12 4.78328 3.28911 0
M  V30 18201 H 1693.88 2.97558 -0.35767 0
M  V30 18202 H 1691.44 1.58356 -0.336907 0
M  V30 18203 H 1693.44 3.44088 2.13038 0
M  V30 18204 H 1692.01 2.38409 2.02188 0
M  V30 18205 H 1691.23 3.9411 0.0842433 0
M  V30 18206 H 1692.51 5.05534 0.575603 0
M  V30 18207 H 1691.91 4.30707 3.66753 0
M  V30 18208 H 1690.47 5.20315 3.92576 0
M  V30 18209 N 1693.9 0.238138 1.5579 0
M  V30 18210 C 1695.13 -0.393422 2.03125 0
M  V30 18211 C 1695.55 -1.52168 1.11761 0
M  V30 18212 O 1694.9 -1.82034 0.130341 0
M  V30 18213 C 1694.95 -0.909474 3.49873 0
M  V30 18214 O 1694.67 0.17381 4.37755 0
M  V30 18215 C 1696.18 -1.61261 4.12928 0
M  V30 18216 H 1693.4 -0.0945077 0.664311 0
M  V30 18217 H 1695.94 0.359442 2.01316 0
M  V30 18218 H 1694.09 -1.61255 3.52244 0
M  V30 18219 H 1694.51 -0.216641 5.24052 0
M  V30 18220 H 1695.98 -1.92551 5.17328 0
M  V30 18221 H 1696.46 -2.53155 3.589 0
M  V30 18222 H 1697.07 -0.954326 4.14455 0
M  V30 18223 N 1695.38 -1.57561 -0.0350783 0
M  V30 18224 C 1696.62 -1.90843 -0.732009 0
M  V30 18225 C 1696.98 -0.836062 -1.72841 0
M  V30 18226 O 1698.19 -1.05303 -2.47315 0
M  V30 18227 C 1696.46 -3.2929 -1.38934 0
M  V30 18228 S 1698.02 -3.84395 -2.11626 0
M  V30 18229 H 1694.83 -0.668317 -0.242638 0
M  V30 18230 H 1697.44 -1.95496 0.0131773 0
M  V30 18231 H 1696.14 -4.05206 -0.650842 0
M  V30 18232 H 1695.67 -3.27926 -2.1732 0
M  V30 18233 H 1697.69 -3.62638 -3.38686 0
M  V30 18234 N 1696.86 0.307236 -1.54576 0
M  V30 18235 C 1698.08 1.06668 -1.77867 0
M  V30 18236 C 1698.51 1.80375 -0.533536 0
M  V30 18237 O 1697.87 1.73812 0.515663 0
M  V30 18238 C 1697.91 2.02777 -2.98184 0
M  V30 18239 O 1697.02 3.10969 -2.70872 0
M  V30 18240 H 1696.36 0.306741 -0.588902 0
M  V30 18241 H 1698.89 0.346557 -2.01644 0
M  V30 18242 H 1698.9 2.45355 -3.25983 0
M  V30 18243 H 1697.57 1.48534 -3.88472 0
M  V30 18244 H 1696.15 2.7295 -2.54072 0
M  V30 18245 N 1698.34 1.46926 0.570122 0
M  V30 18246 C 1699.56 1.5648 1.35358 0
M  V30 18247 C 1699.98 0.210356 1.87624 0
M  V30 18248 O 1699.34 -0.794388 1.64304 0
M  V30 18249 C 1699.39 2.57973 2.53243 0
M  V30 18250 O 1699.11 3.88157 2.03139 0
M  V30 18251 C 1700.61 2.77587 3.4563 0
M  V30 18252 H 1697.83 0.528787 0.413068 0
M  V30 18253 H 1700.37 1.9244 0.691895 0
M  V30 18254 H 1698.53 2.24982 3.15375 0
M  V30 18255 H 1698.94 4.43506 2.80004 0
M  V30 18256 H 1700.42 3.52495 4.24795 0
M  V30 18257 H 1700.89 1.84944 3.98362 0
M  V30 18258 H 1701.5 3.11724 2.89324 0
M  V30 18259 N 1699.82 -0.815801 1.34842 0
M  V30 18260 C 1700.75 -1.93493 1.22854 0
M  V30 18261 C 1701.76 -1.6207 0.15395 0
M  V30 18262 O 1702.95 -1.73811 0.406428 0
M  V30 18263 C 1700.05 -3.27622 0.867006 0
M  V30 18264 C 1699.22 -3.87017 2.03806 0
M  V30 18265 C 1698.28 -4.99536 1.65378 0
M  V30 18266 O 1697.31 -5.17453 2.37131 0
M  V30 18267 N 1698.51 -5.77674 0.572056 0
M  V30 18268 H 1701.27 -2.04307 2.19269 0
M  V30 18269 H 1698.84 -0.992752 1.27891 0
M  V30 18270 H 1700.83 -4.00353 0.59159 0
M  V30 18271 H 1699.4 -3.12599 -0.00717215 0
M  V30 18272 H 1698.62 -3.06592 2.4778 0
M  V30 18273 H 1699.91 -4.23431 2.82106 0
M  V30 18274 H 1699.3 -5.65695 -0.0242931 0
M  V30 18275 H 1697.86 -6.50825 0.356394 0
M  V30 18276 N 1701.29 -1.18689 -1.03686 0
M  V30 18277 C 1702.52 -1.00961 -1.80595 0
M  V30 18278 C 1702.94 0.44188 -1.83556 0
M  V30 18279 O 1702.29 1.30693 -1.27379 0
M  V30 18280 C 1702.34 -1.56185 -3.26019 0
M  V30 18281 O 1702.07 -2.95652 -3.23298 0
M  V30 18282 C 1703.57 -1.43129 -4.19558 0
M  V30 18283 H 1700.79 -0.356291 -0.568593 0
M  V30 18284 H 1703.33 -1.57324 -1.3065 0
M  V30 18285 H 1701.49 -1.03989 -3.73182 0
M  V30 18286 H 1701.9 -3.21481 -4.14427 0
M  V30 18287 H 1703.37 -1.86561 -5.19518 0
M  V30 18288 H 1703.85 -0.380581 -4.37548 0
M  V30 18289 H 1704.46 -1.94416 -3.78262 0
M  V30 18290 N 1702.77 1.22662 -0.989529 0
M  V30 18291 C 1703.72 2.22262 -0.508279 0
M  V30 18292 C 1704.71 1.55276 0.421694 0
M  V30 18293 O 1705.9 1.75239 0.249062 0
M  V30 18294 C 1703.03 3.42833 0.179058 0
M  V30 18295 C 1702.11 4.17032 -0.771021 0
M  V30 18296 N 1702.5 4.68046 -1.91746 0
M  V30 18297 C 1700.8 4.42131 -0.586208 0
M  V30 18298 C 1701.5 5.24592 -2.51352 0
M  V30 18299 N 1700.48 5.13056 -1.79652 0
M  V30 18300 H 1704.28 2.59343 -1.3827 0
M  V30 18301 H 1701.79 1.38295 -0.85136 0
M  V30 18302 H 1703.79 4.13372 0.541196 0
M  V30 18303 H 1702.45 3.07266 1.04965 0
M  V30 18304 H 1703.46 4.64107 -2.29836 0
M  V30 18305 H 1700.14 4.16818 0.238604 0
M  V30 18306 H 1701.53 5.74623 -3.48221 0
M  V30 18307 N 1704.25 0.762308 1.37937 0
M  V30 18308 C 1705.2 0.140412 2.30372 0
M  V30 18309 C 1706.17 -0.700152 1.50622 0
M  V30 18310 O 1707.35 -0.654474 1.79224 0
M  V30 18311 C 1704.49 -0.740056 3.37071 0
M  V30 18312 C 1703.6 0.116084 4.31844 0
M  V30 18313 C 1702.74 -0.768203 5.25616 0
M  V30 18314 C 1701.78 0.0910442 6.12032 0
M  V30 18315 N 1700.92 -0.75069 6.98075 0
M  V30 18316 H 1705.76 0.934224 2.82977 0
M  V30 18317 H 1703.29 0.472316 1.39311 0
M  V30 18318 H 1705.25 -1.26525 3.97551 0
M  V30 18319 H 1703.88 -1.49956 2.85855 0
M  V30 18320 H 1702.93 0.758999 3.72751 0
M  V30 18321 H 1704.24 0.779285 4.92675 0
M  V30 18322 H 1703.4 -1.36024 5.91255 0
M  V30 18323 H 1702.14 -1.46511 4.65173 0
M  V30 18324 H 1701.14 0.695687 5.45381 0
M  V30 18325 H 1702.37 0.785145 6.74546 0
M  V30 18326 H 1700.31 -1.43239 6.40171 0
M  V30 18327 H 1700.23 -0.144579 7.55862 0
M  V30 18328 H 1701.5 -1.32742 7.68114 0
M  V30 18329 N 1705.73 -1.49049 0.51208 0
M  V30 18330 C 1706.98 -2.01677 -0.0303931 0
M  V30 18331 C 1707.29 -1.39594 -1.37014 0
M  V30 18332 O 1708.5 -1.83615 -1.99994 0
M  V30 18333 C 1706.95 -3.59748 -0.104605 0
M  V30 18334 C 1706.56 -4.30808 1.22916 0
M  V30 18335 C 1708.3 -4.20283 -0.596854 0
M  V30 18336 C 1706.21 -5.80765 1.11651 0
M  V30 18337 H 1705.14 -0.753848 -0.015131 0
M  V30 18338 H 1707.79 -1.71482 0.653169 0
M  V30 18339 H 1706.17 -3.86707 -0.852859 0
M  V30 18340 H 1707.35 -4.15539 1.99158 0
M  V30 18341 H 1705.66 -3.82066 1.65573 0
M  V30 18342 H 1708.26 -5.30114 -0.698821 0
M  V30 18343 H 1708.6 -3.84392 -1.59838 0
M  V30 18344 H 1709.14 -3.97686 0.0951882 0
M  V30 18345 H 1705.87 -6.212 2.09264 0
M  V30 18346 H 1705.39 -5.98497 0.395167 0
M  V30 18347 H 1707.07 -6.42038 0.799782 0
M  V30 18348 N 1707.21 -0.246397 -1.55662 0
M  V30 18349 C 1708.14 0.693998 -2.17391 0
M  V30 18350 C 1709.12 1.17321 -1.12581 0
M  V30 18351 O 1710.3 1.25144 -1.40965 0
M  V30 18352 C 1707.43 1.94311 -2.77418 0
M  V30 18353 C 1706.47 1.60181 -3.95277 0
M  V30 18354 S 1707.31 0.704877 -5.30841 0
M  V30 18355 C 1708.46 1.96301 -5.94321 0
M  V30 18356 H 1708.7 0.169407 -2.96817 0
M  V30 18357 H 1706.23 -0.0308583 -1.54369 0
M  V30 18358 H 1708.19 2.66022 -3.12638 0
M  V30 18359 H 1706.85 2.43883 -1.97939 0
M  V30 18360 H 1706.04 2.53053 -4.35867 0
M  V30 18361 H 1705.64 0.965141 -3.61332 0
M  V30 18362 H 1707.93 2.91031 -6.11806 0
M  V30 18363 H 1708.88 1.6006 -6.89773 0
M  V30 18364 H 1709.29 2.11487 -5.23387 0
M  V30 18365 N 1708.68 1.57577 0.026722 0
M  V30 18366 C 1709.59 2.10114 1.04351 0
M  V30 18367 C 1710.61 1.04029 1.39477 0
M  V30 18368 O 1711.79 1.35778 1.48749 0
M  V30 18369 C 1708.85 2.57203 2.32481 0
M  V30 18370 C 1707.91 3.77779 2.03915 0
M  V30 18371 C 1707.14 4.22613 3.25936 0
M  V30 18372 O 1707.37 3.66955 4.36692 0
M  V30 18373 O 1706.3 5.15026 3.11499 0
M  V30 18374 H 1710.13 2.97157 0.627021 0
M  V30 18375 H 1707.71 1.47396 0.243855 0
M  V30 18376 H 1709.59 2.87809 3.07805 0
M  V30 18377 H 1708.27 1.7327 2.73421 0
M  V30 18378 H 1707.18 3.52188 1.26152 0
M  V30 18379 H 1708.51 4.62703 1.67829 0
M  V30 18380 N 1710.16 -0.299034 1.54737 0
M  V30 18381 C 1711.11 -1.38889 1.86581 0
M  V30 18382 C 1712.1 -1.52396 0.739723 0
M  V30 18383 O 1713.31 -1.5449 0.92374 0
M  V30 18384 H 1709.68 -0.463969 0.591808 0
M  V30 18385 H 1711.66 -1.09268 2.77674 0
M  V30 18386 C 1710.4 -2.74702 2.13152 0
M  V30 18387 H 1709.73 -2.65092 2.99277 0
M  V30 18388 H 1711.17 -3.49967 2.39372 0
M  V30 18389 C 1709.63 -3.23789 0.930706 0
M  V30 18390 O 1710.16 -4.01412 0.152193 0
M  V30 18391 N 1708.36 -2.81137 0.735545 0
M  V30 18392 H 1707.91 -2.1813 1.37029 0
M  V30 18393 H 1707.87 -3.1433 -0.0663452 0
M  V30 18394 N 1711.64 -1.47227 -0.562322 0
M  V30 18395 C 1712.59 -1.59329 -1.66981 0
M  V30 18396 C 1713.56 -0.436558 -1.6026 0
M  V30 18397 O 1714.74 -0.655956 -1.7917 0
M  V30 18398 C 1711.88 -1.60874 -3.05309 0
M  V30 18399 C 1710.99 -2.87428 -3.22505 0
M  V30 18400 C 1710.13 -2.80342 -4.512 0
M  V30 18401 C 1709.17 -4.01744 -4.6181 0
M  V30 18402 N 1708.31 -3.92924 -5.81855 0
M  V30 18403 H 1713.15 -2.53921 -1.55975 0
M  V30 18404 H 1710.68 -1.25953 -0.759879 0
M  V30 18405 H 1712.64 -1.59753 -3.85402 0
M  V30 18406 H 1711.27 -0.697994 -3.15163 0
M  V30 18407 H 1710.32 -2.98439 -2.35878 0
M  V30 18408 H 1711.63 -3.77345 -3.26209 0
M  V30 18409 H 1710.79 -2.77442 -5.39547 0
M  V30 18410 H 1709.53 -1.881 -4.49966 0
M  V30 18411 H 1708.53 -4.04954 -3.71877 0
M  V30 18412 H 1709.76 -4.95107 -4.64807 0
M  V30 18413 H 1707.7 -3.03481 -5.8158 0
M  V30 18414 H 1707.62 -4.76514 -5.86916 0
M  V30 18415 H 1708.89 -3.94031 -6.72577 0
M  V30 18416 N 1713.12 0.808639 -1.35273 0
M  V30 18417 C 1714.05 1.92612 -1.22376 0
M  V30 18418 C 1715.03 1.62213 -0.112119 0
M  V30 18419 O 1716.21 1.86411 -0.279844 0
M  V30 18420 C 1713.34 3.26965 -0.883847 0
M  V30 18421 C 1712.39 3.76313 -2.00725 0
M  V30 18422 S 1713.22 3.94362 -3.62269 0
M  V30 18423 C 1714.37 5.3162 -3.3035 0
M  V30 18424 H 1714.61 2.03257 -2.16965 0
M  V30 18425 H 1712.14 0.96579 -1.20465 0
M  V30 18426 H 1714.1 4.04582 -0.69453 0
M  V30 18427 H 1712.76 3.14069 0.0439446 0
M  V30 18428 H 1711.95 4.73615 -1.72351 0
M  V30 18429 H 1711.55 3.05687 -2.1548 0
M  V30 18430 H 1713.85 6.15539 -2.83051 0
M  V30 18431 H 1714.79 5.64986 -4.26844 0
M  V30 18432 H 1715.2 4.97809 -2.66171 0
M  V30 18433 N 1714.6 1.19237 1.03055 0
M  V30 18434 C 1715.84 1.00508 1.77982 0
M  V30 18435 C 1716.2 -0.456267 1.865 0
M  V30 18436 O 1717.4 -0.763318 2.57734 0
M  V30 18437 C 1715.67 1.65377 3.16836 0
M  V30 18438 S 1717.23 1.61563 4.07974 0
M  V30 18439 H 1714.05 0.3607 0.612712 0
M  V30 18440 H 1716.65 1.51556 1.23495 0
M  V30 18441 H 1715.36 2.7094 3.08253 0
M  V30 18442 H 1714.89 1.14402 3.76399 0
M  V30 18443 H 1716.9 0.638645 4.92073 0
M  V30 18444 N 1716.07 -1.22136 0.99602 0
M  V30 18445 C 1717.35 -1.86506 0.589466 0
M  V30 18446 C 1717.73 -1.89355 -0.933159 0
M  V30 18447 O 1717.08 -1.38634 -1.8164 0
M  V30 18448 C 1717.29 -3.27224 1.21349 0
M  V30 18449 C 1718.64 -4.03692 1.31597 0
M  V30 18450 O 1719.66 -3.36502 1.16812 0
M  V30 18451 O 1718.52 -5.23973 1.55289 0
M  V30 18452 H 1715.61 -0.802279 0.200692 0
M  V30 18453 H 1718.16 -1.2989 1.0921 0
M  V30 18454 H 1716.93 -3.19802 2.25483 0
M  V30 18455 H 1716.56 -3.91449 0.696645 0
M  V30 18456 N 1717.55 -0.769612 -1.37531 0
M  V30 18457 C 1718.48 -0.168389 -2.32892 0
M  V30 18458 C 1719.46 0.685549 -1.55673 0
M  V30 18459 O 1720.65 0.62345 -1.8392 0
M  V30 18460 C 1717.78 0.713183 -3.39898 0
M  V30 18461 C 1716.73 -0.0392808 -4.27982 0
M  V30 18462 C 1716.06 0.961596 -5.25982 0
M  V30 18463 C 1717.36 -1.21704 -5.07923 0
M  V30 18464 H 1719.05 -0.965022 -2.83421 0
M  V30 18465 H 1716.6 -0.465502 -1.36268 0
M  V30 18466 H 1718.55 1.14358 -4.05586 0
M  V30 18467 H 1717.28 1.54231 -2.87889 0
M  V30 18468 H 1715.93 -0.450429 -3.63822 0
M  V30 18469 H 1715.58 1.78522 -4.70254 0
M  V30 18470 H 1715.28 0.462679 -5.85776 0
M  V30 18471 H 1716.81 1.39097 -5.94545 0
M  V30 18472 H 1718.22 -0.863405 -5.66761 0
M  V30 18473 H 1716.62 -1.6479 -5.77031 0
M  V30 18474 H 1717.69 -2.02219 -4.40722 0
M  V30 18475 N 1719.03 1.48775 -0.519977 0
M  V30 18476 C 1720.26 2.06895 0.0139983 0
M  V30 18477 C 1720.67 1.37786 1.29075 0
M  V30 18478 O 1720.03 0.462168 1.76551 0
M  V30 18479 C 1720.08 3.60621 0.251999 0
M  V30 18480 O 1719.8 4.27132 -0.974158 0
M  V30 18481 C 1721.3 4.35508 0.827483 0
M  V30 18482 H 1718.52 0.670373 -0.0290011 0
M  V30 18483 H 1721.07 1.91302 -0.722762 0
M  V30 18484 H 1719.22 3.75853 0.938783 0
M  V30 18485 H 1719.64 5.19129 -0.748697 0
M  V30 18486 H 1721.11 5.43877 0.943492 0
M  V30 18487 H 1721.59 3.99261 1.82996 0
M  V30 18488 H 1722.19 4.24929 0.177578 0
M  V30 18489 N 1720.51 0.254649 1.55529 0
M  V30 18490 C 1721.75 -0.368477 1.99424 0
M  V30 18491 C 1722.09 -1.57023 1.14269 0
M  V30 18492 O 1721.36 -1.93386 0.207886 0
M  V30 18493 C 1721.65 -0.77076 3.51755 0
M  V30 18494 C 1721.5 0.436923 4.47673 0
M  V30 18495 C 1722.82 -1.61487 4.09402 0
M  V30 18496 H 1719.94 -0.132459 0.724999 0
M  V30 18497 H 1722.58 0.357508 1.86606 0
M  V30 18498 H 1720.73 -1.38932 3.62809 0
M  V30 18499 H 1722.4 1.07541 4.4859 0
M  V30 18500 H 1720.64 1.07866 4.20175 0
M  V30 18501 H 1721.31 0.111996 5.51886 0
M  V30 18502 H 1723.79 -1.09265 4.01498 0
M  V30 18503 H 1722.67 -1.86519 5.16238 0
M  V30 18504 H 1722.93 -2.58926 3.58343 0
M  V30 18505 O 1722.03 -1.61057 0.119541 0
M  V30 18506 H 1722.72 -1.87682 -0.479058 0
M  V30 END ATOM
M  V30 BEGIN BOND
M  V30 END BOND
M  V30 END CTAB
M  END
$$$$
