drugbank_target|P48551 Interferon alpha/beta receptor 2 (DB00008; DB00011; DB00018; DB00022; DB00034; DB00060; DB00068; DB00069; DB00105; DB05472; DB06152)
 OpenBabel12092119303D

  0  0  0     0  0            999 V3000
M  V30 BEGIN CTAB
M  V30 COUNTS 7975 8073 0 0 0
M  V30 BEGIN ATOM
M  V30 1 H -0.908 1.98254 -0.117106 0
M  V30 2 N 0 1.576 0 0
M  V30 3 C 0.933 2.03868 1.02534 0
M  V30 4 C 1.911 0.928543 1.3348 0
M  V30 5 O 3.095 1.19667 1.45644 0
M  V30 6 C 0.222 2.43627 2.35294 0
M  V30 7 C -0.732 3.65373 2.2001 0
M  V30 8 S 0.101 5.13292 1.52614 0
M  V30 9 C 1.257 5.56322 2.86805 0
M  V30 10 H 1.49 2.90518 0.631377 0
M  V30 11 H -0.977 1.52953 0.210867 0
M  V30 12 H 0.981 2.67203 3.11629 0
M  V30 13 H -0.358 1.57376 2.7183 0
M  V30 14 H -1.165 3.90944 3.18086 0
M  V30 15 H -1.563 3.418 1.51819 0
M  V30 16 H 0.729 5.58782 3.83104 0
M  V30 17 H 1.672 6.56266 2.65933 0
M  V30 18 H 2.08 4.83886 2.90714 0
M  V30 19 N 1.4781 -0.272755 1.55222 0
M  V30 20 C 2.4081 -1.34136 1.91127 0
M  V30 21 C 3.3891 -1.51513 0.773168 0
M  V30 22 O 4.5741 -1.64552 1.03132 0
M  V30 23 C 1.7041 -2.70083 2.1834 0
M  V30 24 C 0.6581 -2.67437 3.34158 0
M  V30 25 C -0.0159 -4.06938 3.46851 0
M  V30 26 C 1.2841 -2.26686 4.70543 0
M  V30 27 H 2.9781 -1.04333 2.80633 0
M  V30 28 H 0.5241 -0.500454 1.35024 0
M  V30 29 H 2.4771 -3.44952 2.42046 0
M  V30 30 H 1.2011 -3.01469 1.25634 0
M  V30 31 H -0.1399 -1.95026 3.1042 0
M  V30 32 H -0.4919 -4.35547 2.51611 0
M  V30 33 H -0.7919 -4.06062 4.2472 0
M  V30 34 H 0.7321 -4.83545 3.72849 0
M  V30 35 H 2.1461 -2.91277 4.93792 0
M  V30 36 H 0.5431 -2.36971 5.5133 0
M  V30 37 H 1.6131 -1.21818 4.69349 0
M  V30 38 N 2.9562 -1.48159 -0.537278 0
M  V30 39 C 3.8862 -1.65029 -1.6519 0
M  V30 40 C 4.8672 -0.499281 -1.62607 0
M  V30 41 O 6.0522 -0.730972 -1.79918 0
M  V30 42 C 3.1822 -1.68303 -3.03795 0
M  V30 43 C 2.1362 -2.8283 -3.21234 0
M  V30 44 C 1.4622 -2.71189 -4.60826 0
M  V30 45 C 2.7622 -4.24211 -3.04701 0
M  V30 46 H 4.4562 -2.58341 -1.51328 0
M  V30 47 H 2.0022 -1.24325 -0.726585 0
M  V30 48 H 3.9552 -1.78693 -3.81637 0
M  V30 49 H 2.6792 -0.715635 -3.18663 0
M  V30 50 H 1.3382 -2.71983 -2.45807 0
M  V30 51 H 0.9862 -1.72435 -4.7252 0
M  V30 52 H 0.6862 -3.48035 -4.7344 0
M  V30 53 H 2.2102 -2.83537 -5.40777 0
M  V30 54 H 3.6242 -4.3593 -3.72341 0
M  V30 55 H 2.0212 -5.01998 -3.28813 0
M  V30 56 H 3.0912 -4.41184 -2.01209 0
M  V30 57 N 4.4343 0.785586 -1.36625 0
M  V30 58 C 5.6593 1.57963 -1.34397 0
M  V30 59 C 6.0843 1.87964 0.071526 0
M  V30 60 O 5.4423 1.48182 1.0446 0
M  V30 61 C 5.4903 2.87511 -2.17646 0
M  V30 62 O 4.5943 3.81281 -1.57158 0
M  V30 63 H 3.9353 0.479014 -0.459828 0
M  V30 64 H 6.4653 0.973411 -1.79961 0
M  V30 65 H 6.4753 3.36745 -2.30362 0
M  V30 66 H 5.1503 2.65002 -3.20541 0
M  V30 67 H 3.7273 3.39885 -1.53403 0
M  V30 68 N 5.9124 1.20967 1.01018 0
M  V30 69 C 6.8444 0.922059 2.09835 0
M  V30 70 C 7.8574 -0.0927106 1.62536 0
M  V30 71 O 9.0464 0.139127 1.77957 0
M  V30 72 C 6.1464 0.362004 3.36961 0
M  V30 73 C 5.3194 1.42986 4.13369 0
M  V30 74 C 4.3784 0.879976 5.1879 0
M  V30 75 O 3.4044 1.56219 5.47343 0
M  V30 76 N 4.6064 -0.307396 5.79686 0
M  V30 77 H 7.3714 1.8588 2.35093 0
M  V30 78 H 4.9324 1.11422 1.1746 0
M  V30 79 H 6.9244 -0.0201474 4.04695 0
M  V30 80 H 5.4944 -0.479437 3.08902 0
M  V30 81 H 4.7144 1.98608 3.40512 0
M  V30 82 H 6.0024 2.14885 4.61196 0
M  V30 83 H 5.4004 -0.878796 5.58832 0
M  V30 84 H 3.9574 -0.631115 6.48737 0
M  V30 85 N 7.3905 -1.2043 1.01659 0
M  V30 86 C 8.3385 -2.25249 0.580143 0
M  V30 87 C 9.3325 -1.65057 -0.381115 0
M  V30 88 O 10.5385 -1.78241 -0.251039 0
M  V30 89 H 6.9135 -0.732695 0.169299 0
M  V30 90 H 8.8845 -2.59389 1.47512 0
M  V30 91 C 7.6335 -3.47638 -0.065788 0
M  V30 92 H 6.9565 -3.94233 0.664874 0
M  V30 93 H 8.3965 -4.2268 -0.334282 0
M  V30 94 C 6.8555 -3.10447 -1.3086 0
M  V30 95 O 7.3855 -3.21981 -2.4019 0
M  V30 96 N 5.5915 -2.64996 -1.1927 0
M  V30 97 H 5.1385 -2.55811 -0.303064 0
M  V30 98 H 5.0965 -2.40482 -2.02523 0
M  V30 99 N 8.8686 -0.792821 -1.36206 0
M  V30 100 C 9.8316 -0.199459 -2.2833 0
M  V30 101 C 10.8316 0.605189 -1.48977 0
M  V30 102 O 12.0216 0.425685 -1.68919 0
M  V30 103 C 9.1536 0.723523 -3.33134 0
M  V30 104 H 10.3466 -1.01181 -2.82316 0
M  V30 105 H 7.8996 -0.562485 -1.45828 0
M  V30 106 H 8.6346 1.56008 -2.84309 0
M  V30 107 H 8.4196 0.148436 -3.91819 0
M  V30 108 H 9.9096 1.13344 -4.01924 0
M  V30 109 N 10.3467 1.47872 -0.545128 0
M  V30 110 C 11.5937 2.02493 -0.0165858 0
M  V30 111 C 11.9217 1.42073 1.32836 0
M  V30 112 O 11.1767 0.561459 1.87473 0
M  V30 113 C 11.4757 3.57131 0.13867 0
M  V30 114 C 11.1417 4.36411 -1.13384 0
M  V30 115 C 9.8037 4.57792 -1.48256 0
M  V30 116 C 12.1557 4.82223 -1.97764 0
M  V30 117 C 9.4837 5.22233 -2.67376 0
M  V30 118 C 11.8357 5.47977 -3.16076 0
M  V30 119 C 10.4997 5.67593 -3.51275 0
M  V30 120 H 9.7697 0.740975 -0.00606918 0
M  V30 121 H 12.4167 1.77683 -0.714207 0
M  V30 122 H 10.7217 3.80865 0.919172 0
M  V30 123 H 12.4187 3.97031 0.562782 0
M  V30 124 H 9.0087 4.2004 -0.852297 0
M  V30 125 H 13.1927 4.65493 -1.72132 0
M  V30 126 H 8.4487 5.35616 -2.94831 0
M  V30 127 H 12.6227 5.8244 -3.81755 0
M  V30 128 H 10.2497 6.17298 -4.43675 0
M  V30 129 N 11.8248 0.280983 1.55075 0
M  V30 130 C 13.0738 -0.334784 1.98902 0
M  V30 131 C 13.3868 -1.56534 1.17288 0
M  V30 132 O 14.5928 -2.25443 1.51287 0
M  V30 133 C 13.0488 -0.646994 3.54037 0
M  V30 134 C 12.6568 0.564085 4.44435 0
M  V30 135 C 14.4008 -1.22506 4.06439 0
M  V30 136 C 12.3078 0.226137 5.90967 0
M  V30 137 H 11.2378 -0.128866 0.742906 0
M  V30 138 H 13.8888 0.386556 1.79382 0
M  V30 139 H 12.2708 -1.42739 3.6938 0
M  V30 140 H 13.4448 1.34082 4.40861 0
M  V30 141 H 11.7598 1.0594 4.02698 0
M  V30 142 H 14.3568 -1.49182 5.13468 0
M  V30 143 H 14.6998 -2.16085 3.55827 0
M  V30 144 H 15.2328 -0.50682 3.94558 0
M  V30 145 H 11.9718 1.12996 6.45687 0
M  V30 146 H 11.4918 -0.513717 5.97596 0
M  V30 147 H 13.1708 -0.179539 6.46751 0
M  V30 148 N 13.3029 -1.57598 0.00835791 0
M  V30 149 C 14.5499 -1.90928 -0.674732 0
M  V30 150 C 14.8779 -0.88277 -1.73313 0
M  V30 151 O 14.1329 0.111294 -1.95383 0
M  V30 152 C 14.4319 -3.3101 -1.34787 0
M  V30 153 C 14.0979 -4.48922 -0.421861 0
M  V30 154 C 12.7599 -4.8091 -0.166927 0
M  V30 155 C 15.1119 -5.20755 0.215211 0
M  V30 156 C 12.4399 -5.821 0.733232 0
M  V30 157 C 14.7919 -6.22905 1.1033 0
M  V30 158 C 13.4559 -6.53346 1.36733 0
M  V30 159 H 12.7259 -0.698656 -0.246902 0
M  V30 160 H 15.3729 -1.91387 0.0656779 0
M  V30 161 H 13.6779 -3.26714 -2.16253 0
M  V30 162 H 15.3749 -3.54061 -1.8826 0
M  V30 163 H 11.9649 -4.23934 -0.630729 0
M  V30 164 H 16.1489 -4.9629 0.0312829 0
M  V30 165 H 11.4049 -6.04042 0.945712 0
M  V30 166 H 15.5789 -6.77694 1.60325 0
M  V30 167 H 13.2059 -7.31573 2.06652 0
M  V30 168 N 14.781 0.264519 -1.55364 0
M  V30 169 C 16.197 0.61215 -1.47394 0
M  V30 170 C 16.397 1.89134 -0.695018 0
M  V30 171 O 15.453 2.51563 -0.217275 0
M  V30 172 C 16.766 0.731235 -2.91674 0
M  V30 173 C 18.314 0.82473 -3.01939 0
M  V30 174 C 18.789 0.975522 -4.4749 0
M  V30 175 N 20.28 1.04083 -4.51354 0
M  V30 176 C 21.015 1.17646 -5.61201 0
M  V30 177 N 20.511 1.27874 -6.80896 0
M  V30 178 N 22.304 1.20823 -5.48961 0
M  V30 179 H 14.455 -0.575456 -2.04456 0
M  V30 180 H 16.718 -0.196099 -0.927496 0
M  V30 181 H 16.424 -0.138392 -3.51428 0
M  V30 182 H 16.298 1.60883 -3.41169 0
M  V30 183 H 18.685 1.68482 -2.42276 0
M  V30 184 H 18.766 -0.0776479 -2.55682 0
M  V30 185 H 18.41 0.120058 -5.07758 0
M  V30 186 H 18.34 1.89268 -4.91412 0
M  V30 187 H 20.831 0.973846 -3.65136 0
M  V30 188 H 21.144 1.38081 -7.60364 0
M  V30 189 H 19.489 1.24863 -6.83692 0
M  V30 190 H 22.68 1.12469 -4.54388 0
M  V30 191 H 22.853 1.31049 -6.3461 0
M  V30 192 N 16.2591 1.48442 0.529413 0
M  V30 193 C 17.4841 1.60406 1.31471 0
M  V30 194 C 17.9091 0.264738 1.86228 0
M  V30 195 O 17.2671 -0.763668 1.64432 0
M  V30 196 C 17.3151 2.65419 2.44101 0
M  V30 197 O 16.4191 2.22618 3.47153 0
M  V30 198 H 15.7601 0.537863 0.389357 0
M  V30 199 H 18.2901 1.94432 0.636965 0
M  V30 200 H 18.3001 2.86709 2.90279 0
M  V30 201 H 16.9751 3.62652 2.03608 0
M  V30 202 H 15.5521 2.11543 3.0709 0
M  V30 203 N 17.7372 -0.778329 1.37039 0
M  V30 204 C 18.6672 -1.90546 1.34962 0
M  V30 205 C 19.6482 -1.68681 0.219274 0
M  V30 206 O 20.8332 -1.89634 0.418624 0
M  V30 207 C 17.9632 -3.27734 1.14925 0
M  V30 208 C 16.9172 -3.64147 2.24902 0
M  V30 209 C 16.2432 -4.99806 1.89996 0
M  V30 210 C 17.5432 -3.71579 3.67051 0
M  V30 211 H 19.2372 -1.92541 2.29277 0
M  V30 212 H 16.7832 -0.924948 1.10366 0
M  V30 213 H 18.7362 -4.06215 1.12104 0
M  V30 214 H 17.4602 -3.26154 0.170631 0
M  V30 215 H 16.1192 -2.8797 2.26868 0
M  V30 216 H 15.7672 -4.94759 0.906796 0
M  V30 217 H 15.4672 -5.25139 2.63634 0
M  V30 218 H 16.9912 -5.80694 1.88749 0
M  V30 219 H 18.4052 -4.40227 3.67251 0
M  V30 220 H 16.8022 -4.08405 4.39688 0
M  V30 221 H 17.8722 -2.72404 4.01154 0
M  V30 222 N 19.2153 -1.21501 -1.00376 0
M  V30 223 C 20.1633 -0.972442 -2.11297 0
M  V30 224 C 21.1573 0.080731 -1.69208 0
M  V30 225 O 22.3633 -0.0707666 -1.79861 0
M  V30 226 H 18.7383 -0.297218 -0.690772 0
M  V30 227 H 20.7093 -1.91394 -2.28934 0
M  V30 228 C 19.4583 -0.555065 -3.43241 0
M  V30 229 H 18.7813 -1.35709 -3.76062 0
M  V30 230 H 20.2213 -0.424664 -4.21868 0
M  V30 231 C 18.6803 0.734147 -3.28804 0
M  V30 232 O 19.2103 1.78937 -3.59645 0
M  V30 233 N 17.4163 0.701133 -2.82015 0
M  V30 234 H 16.9633 -0.157874 -2.57116 0
M  V30 235 H 16.9213 1.56403 -2.72737 0
M  V30 236 N 20.6934 1.19889 -1.02296 0
M  V30 237 C 21.6234 2.25141 -0.619174 0
M  V30 238 C 22.6044 1.66051 0.368915 0
M  V30 239 O 23.7894 1.92546 0.252941 0
M  V30 240 C 20.9194 3.4728 0.0368783 0
M  V30 241 C 19.8734 4.19005 -0.872865 0
M  V30 242 C 19.1994 5.34637 -0.0822402 0
M  V30 243 C 20.4994 4.74452 -2.18387 0
M  V30 244 H 22.1934 2.59171 -1.49903 0
M  V30 245 H 19.7394 1.24579 -0.722222 0
M  V30 246 H 21.6924 4.20098 0.330958 0
M  V30 247 H 20.4164 3.12433 0.95149 0
M  V30 248 H 19.0754 3.48061 -1.15105 0
M  V30 249 H 18.7234 4.96034 0.83422 0
M  V30 250 H 18.4234 5.83557 -0.688149 0
M  V30 251 H 19.9474 6.10255 0.205238 0
M  V30 252 H 21.3614 5.39055 -1.95172 0
M  V30 253 H 19.7584 5.33834 -2.74119 0
M  V30 254 H 20.8284 3.92844 -2.84257 0
M  V30 255 N 22.1715 0.800033 1.35784 0
M  V30 256 C 23.4175 0.377901 1.99248 0
M  V30 257 C 23.7505 -1.05052 1.63333 0
M  V30 258 O 23.0255 -1.72768 0.893385 0
M  V30 259 C 23.3085 0.553922 3.55814 0
M  V30 260 C 23.1615 2.0268 4.01548 0
M  V30 261 C 24.4805 -0.0244802 4.40093 0
M  V30 262 H 21.5995 0.138782 0.723815 0
M  V30 263 H 24.2415 1.00835 1.61035 0
M  V30 264 H 22.3915 0.0172398 3.88496 0
M  V30 265 H 24.0635 2.62536 3.79305 0
M  V30 266 H 22.3065 2.5256 3.52698 0
M  V30 267 H 22.9775 2.10087 5.10458 0
M  V30 268 H 25.4535 0.433775 4.13833 0
M  V30 269 H 24.3295 0.128637 5.48749 0
M  V30 270 H 24.5905 -1.11758 4.27741 0
M  V30 271 N 23.6496 -1.47581 0.552962 0
M  V30 272 C 24.5796 -2.32762 -0.185451 0
M  V30 273 C 25.5606 -1.43527 -0.912905 0
M  V30 274 O 26.7456 -1.72388 -0.894201 0
M  V30 275 C 23.8756 -3.25219 -1.21859 0
M  V30 276 C 22.8296 -4.23661 -0.607864 0
M  V30 277 C 22.1556 -5.05413 -1.74533 0
M  V30 278 C 23.4556 -5.20481 0.435582 0
M  V30 279 H 25.1496 -2.94749 0.525684 0
M  V30 280 H 22.6956 -1.41738 0.254251 0
M  V30 281 H 24.6486 -3.8365 -1.7433 0
M  V30 282 H 23.3726 -2.61279 -1.95961 0
M  V30 283 H 22.0316 -3.66451 -0.104489 0
M  V30 284 H 21.6796 -4.3788 -2.47529 0
M  V30 285 H 21.3796 -5.72059 -1.34249 0
M  V30 286 H 22.9036 -5.66701 -2.27338 0
M  V30 287 H 24.3176 -5.733 -0.00290157 0
M  V30 288 H 22.7146 -5.95305 0.757067 0
M  V30 289 H 23.7846 -4.66217 1.33303 0
M  V30 290 N 25.1277 -0.289203 -1.54924 0
M  V30 291 C 26.0607 0.633823 -2.19221 0
M  V30 292 C 27.0387 1.14174 -1.15772 0
M  V30 293 O 28.2227 1.21211 -1.44361 0
M  V30 294 C 25.3497 1.86592 -2.82668 0
M  V30 295 C 24.3957 1.49227 -3.99542 0
M  V30 296 S 25.2287 0.558312 -5.32582 0
M  V30 297 C 26.3847 1.79847 -5.99505 0
M  V30 298 H 26.6177 0.0875416 -2.97171 0
M  V30 299 H 24.1507 -0.0733899 -1.54225 0
M  V30 300 H 26.1087 2.57305 -3.19851 0
M  V30 301 H 24.7697 2.38335 -2.04585 0
M  V30 302 H 23.9627 2.40945 -4.42676 0
M  V30 303 H 23.5647 0.865193 -3.63855 0
M  V30 304 H 25.8567 2.7406 -6.19595 0
M  V30 305 H 26.7997 1.4099 -6.93922 0
M  V30 306 H 27.2077 1.96982 -5.29016 0
M  V30 307 N 26.6058 1.57591 -0.0167156 0
M  V30 308 C 27.8518 1.91567 0.665582 0
M  V30 309 C 28.1848 0.892298 1.72487 0
M  V30 310 O 27.4598 -0.0867127 1.94307 0
M  V30 311 C 27.7428 3.36069 1.29342 0
M  V30 312 C 27.5958 4.49135 0.244541 0
M  V30 313 C 28.9148 3.803 2.21495 0
M  V30 314 H 26.0338 0.69666 0.240488 0
M  V30 315 H 28.6758 1.89866 -0.0714356 0
M  V30 316 H 26.8258 3.3765 1.92158 0
M  V30 317 H 28.4978 4.59689 -0.385228 0
M  V30 318 H 26.7408 4.3165 -0.431379 0
M  V30 319 H 27.4118 5.47242 0.723207 0
M  V30 320 H 29.8878 3.80377 1.68678 0
M  V30 321 H 28.7638 4.82127 2.62382 0
M  V30 322 H 29.0248 3.15104 3.101 0
M  V30 323 N 28.0839 -0.256276 1.55502 0
M  V30 324 C 29.3139 -1.00196 1.80677 0
M  V30 325 C 29.7219 -1.79805 0.588797 0
M  V30 326 O 29.0649 -1.78055 -0.451883 0
M  V30 327 C 29.1269 -1.99515 2.99055 0
M  V30 328 C 28.7909 -1.38688 4.35448 0
M  V30 329 C 29.7879 -0.794079 5.138 0
M  V30 330 C 27.4729 -1.40906 4.82132 0
M  V30 331 C 29.4669 -0.231562 6.36979 0
M  V30 332 C 27.1539 -0.842684 6.05262 0
M  V30 333 C 28.1519 -0.254953 6.82524 0
M  V30 334 O 27.8399 0.3027 8.0333 0
M  V30 335 H 27.5719 -0.300919 0.60533 0
M  V30 336 H 30.1259 -0.287307 2.03381 0
M  V30 337 H 28.3559 -2.74785 2.72084 0
M  V30 338 H 30.0449 -2.60349 3.11405 0
M  V30 339 H 30.8109 -0.769519 4.78856 0
M  V30 340 H 26.6899 -1.85591 4.21992 0
M  V30 341 H 30.2339 0.227816 6.97228 0
M  V30 342 H 26.1309 -0.86454 6.39684 0
M  V30 343 H 26.8989 0.193662 8.18271 0
M  V30 344 N 29.562 -1.4872 -0.521534 0
M  V30 345 C 30.811 -1.56419 -1.27341 0
M  V30 346 C 31.124 -0.246805 -1.94037 0
M  V30 347 O 32.33 -0.202122 -2.70747 0
M  V30 348 C 30.786 -2.75896 -2.31105 0
M  V30 349 C 30.394 -4.14311 -1.70441 0
M  V30 350 C 32.138 -2.92913 -3.07249 0
M  V30 351 C 30.045 -5.25038 -2.72194 0
M  V30 352 H 28.975 -0.582344 -0.478949 0
M  V30 353 H 31.626 -1.75071 -0.549779 0
M  V30 354 H 30.008 -2.50697 -3.06541 0
M  V30 355 H 31.182 -4.49564 -1.01136 0
M  V30 356 H 29.497 -4.02482 -1.06759 0
M  V30 357 H 32.094 -3.72805 -3.83302 0
M  V30 358 H 32.437 -2.02689 -3.63625 0
M  V30 359 H 32.97 -3.18054 -2.38928 0
M  V30 360 H 29.709 -6.17255 -2.20627 0
M  V30 361 H 29.229 -4.94263 -3.39801 0
M  V30 362 H 30.908 -5.53508 -3.35019 0
M  V30 363 N 31.0401 0.771051 -1.3745 0
M  V30 364 C 32.2651 1.56529 -1.36065 0
M  V30 365 C 32.6901 1.88029 0.0515859 0
M  V30 366 O 32.0481 1.49282 1.02882 0
M  V30 367 C 32.0961 2.85187 -2.20683 0
M  V30 368 O 31.2001 3.79593 -1.61193 0
M  V30 369 H 30.5411 0.47411 -0.464883 0
M  V30 370 H 33.0711 0.954269 -1.80983 0
M  V30 371 H 33.0811 3.34283 -2.33921 0
M  V30 372 H 31.7561 2.61588 -3.23334 0
M  V30 373 H 30.3331 3.38239 -1.56999 0
M  V30 374 N 32.5182 1.22032 0.997298 0
M  V30 375 C 33.4482 1.01065 2.10495 0
M  V30 376 C 34.4292 -0.0669542 1.69968 0
M  V30 377 O 35.6142 0.0943987 1.9397 0
M  V30 378 C 32.7442 0.582874 3.42374 0
M  V30 379 C 31.6982 1.60592 3.96729 0
M  V30 380 C 31.0242 1.03412 5.24605 0
M  V30 381 C 32.3242 2.99478 4.27914 0
M  V30 382 H 34.0182 1.93708 2.28292 0
M  V30 383 H 31.5642 0.932761 1.09707 0
M  V30 384 H 33.5172 0.423332 4.19268 0
M  V30 385 H 32.2412 -0.379213 3.24391 0
M  V30 386 H 30.9002 1.75316 3.21963 0
M  V30 387 H 30.5482 0.063518 5.0296 0
M  V30 388 H 30.2482 1.71754 5.61938 0
M  V30 389 H 31.7722 0.886066 6.04137 0
M  V30 390 H 33.1862 2.88153 4.95622 0
M  V30 391 H 31.5832 3.64903 4.76409 0
M  V30 392 H 32.6532 3.49742 3.3587 0
M  V30 393 N 33.9963 -1.19345 1.0293 0
M  V30 394 C 35.2423 -1.89318 0.727083 0
M  V30 395 C 35.5753 -1.79446 -0.742483 0
M  V30 396 O 34.8503 -1.1871 -1.54072 0
M  V30 397 C 35.1333 -3.40238 1.17942 0
M  V30 398 C 34.9863 -3.58979 2.71024 0
M  V30 399 C 36.3053 -4.33479 0.760548 0
M  V30 400 H 33.4243 -0.687475 0.265606 0
M  V30 401 H 36.0663 -1.40477 1.2793 0
M  V30 402 H 34.2163 -3.81964 0.709608 0
M  V30 403 H 35.8883 -3.26421 3.25955 0
M  V30 404 H 34.1313 -3.02018 3.11396 0
M  V30 405 H 34.8023 -4.64823 2.9773 0
M  V30 406 H 37.2783 -3.99469 1.16464 0
M  V30 407 H 36.1543 -5.37664 1.10493 0
M  V30 408 H 36.4153 -4.40813 -0.337063 0
M  V30 409 N 35.4744 -0.807222 -1.35358 0
M  V30 410 C 36.7214 -0.387888 -1.9875 0
M  V30 411 C 37.0494 1.04509 -1.64037 0
M  V30 412 O 36.3044 1.73986 -0.895946 0
M  V30 413 C 36.6034 -0.519036 -3.53611 0
M  V30 414 C 36.2694 -1.91542 -4.08194 0
M  V30 415 C 34.9314 -2.29745 -4.22813 0
M  V30 416 C 37.2834 -2.82896 -4.37744 0
M  V30 417 C 34.6114 -3.58668 -4.643 0
M  V30 418 C 36.9634 -4.11265 -4.8067 0
M  V30 419 C 35.6274 -4.49466 -4.93494 0
M  V30 420 H 34.8974 -0.141938 -0.727279 0
M  V30 421 H 37.5444 -1.02814 -1.6156 0
M  V30 422 H 35.8494 0.204658 -3.91265 0
M  V30 423 H 37.5464 -0.175345 -4.00616 0
M  V30 424 H 34.1364 -1.60862 -3.97268 0
M  V30 425 H 38.3204 -2.54629 -4.26002 0
M  V30 426 H 33.5764 -3.88113 -4.72418 0
M  V30 427 H 37.7504 -4.82153 -5.02496 0
M  V30 428 H 35.3774 -5.49418 -5.25399 0
M  V30 429 N 36.9525 1.47285 -0.560781 0
M  V30 430 C 38.2005 2.02064 -0.0379868 0
M  V30 431 C 38.5215 1.43711 1.31803 0
M  V30 432 O 37.7915 0.61362 1.86042 0
M  V30 433 H 36.3715 0.746918 -0.0110531 0
M  V30 434 H 39.0335 1.80648 -0.731598 0
M  V30 435 H 38.1295 3.12064 0.0474463 0
M  V30 436 N 38.4306 0.297415 1.54768 0
M  V30 437 C 39.6796 -0.313669 1.99246 0
M  V30 438 C 39.9926 -1.55281 1.18942 0
M  V30 439 O 41.1986 -2.23825 1.5367 0
M  V30 440 C 39.6546 -0.609407 3.54703 0
M  V30 441 C 39.2626 0.611192 4.43811 0
M  V30 442 C 41.0066 -1.18188 4.07715 0
M  V30 443 C 38.9136 0.288805 5.90694 0
M  V30 444 H 37.8436 -0.120979 0.744231 0
M  V30 445 H 40.4946 0.40556 1.78962 0
M  V30 446 H 38.8766 -1.38813 3.70873 0
M  V30 447 H 40.0506 1.3875 4.39414 0
M  V30 448 H 38.3656 1.10205 4.01552 0
M  V30 449 H 40.9626 -1.43727 5.15021 0
M  V30 450 H 41.3056 -2.12299 3.58099 0
M  V30 451 H 41.8386 -0.464944 3.95074 0
M  V30 452 H 38.5776 1.19838 6.44453 0
M  V30 453 H 38.0976 -0.450305 5.98107 0
M  V30 454 H 39.7766 -0.110933 6.46905 0
M  V30 455 N 39.9087 -1.5758 0.0250728 0
M  V30 456 C 41.1337 -1.96337 -0.668317 0
M  V30 457 C 41.5587 -0.901314 -1.651 0
M  V30 458 O 40.9167 0.138187 -1.80773 0
M  V30 459 C 40.9647 -3.34191 -1.35457 0
M  V30 460 O 40.0687 -3.30269 -2.46974 0
M  V30 461 H 39.4097 -0.640281 -0.175887 0
M  V30 462 H 41.9397 -2.0442 0.0857224 0
M  V30 463 H 41.9497 -3.70331 -1.71228 0
M  V30 464 H 40.6247 -4.11036 -0.634218 0
M  V30 465 H 39.2017 -3.05841 -2.13344 0
M  V30 466 N 41.3868 0.248026 -1.55636 0
M  V30 467 C 42.6168 0.992367 -1.81206 0
M  V30 468 C 43.0248 1.7949 -0.598324 0
M  V30 469 O 42.3678 1.78292 0.442434 0
M  V30 470 C 42.4298 1.97926 -3.00109 0
M  V30 471 C 42.0938 1.36377 -4.36177 0
M  V30 472 C 43.0908 0.76682 -5.14214 0
M  V30 473 C 40.7758 1.38347 -4.82872 0
M  V30 474 C 42.7698 0.197778 -6.37093 0
M  V30 475 C 40.4568 0.810574 -6.057 0
M  V30 476 C 41.4548 0.218754 -6.8265 0
M  V30 477 O 41.1428 -0.345298 -8.03158 0
M  V30 478 H 40.8748 0.297704 -0.606917 0
M  V30 479 H 43.4288 0.276517 -2.0353 0
M  V30 480 H 41.6588 2.73339 -2.73538 0
M  V30 481 H 43.3478 2.58694 -3.12781 0
M  V30 482 H 44.1138 0.744114 -4.79258 0
M  V30 483 H 39.9928 1.8335 -4.2297 0
M  V30 484 H 43.5368 -0.264788 -6.97097 0
M  V30 485 H 39.4338 0.830604 -6.40134 0
M  V30 486 H 40.2018 -0.237055 -8.18157 0
M  V30 487 N 42.8649 1.48995 0.513639 0
M  V30 488 C 44.1419 1.48338 1.27495 0
M  V30 489 C 44.5219 0.204065 2.10111 0
M  V30 490 O 43.8699 -0.813881 2.13514 0
M  V30 491 C 44.0799 2.75498 2.14247 0
M  V30 492 C 45.4279 3.24484 2.73852 0
M  V30 493 O 46.4519 2.76528 2.24523 0
M  V30 494 O 45.3109 4.07974 3.6362 0
M  V30 495 H 42.4049 0.593149 0.576284 0
M  V30 496 H 44.9509 1.61246 0.528948 0
M  V30 497 H 43.7229 3.60109 1.53092 0
M  V30 498 H 43.3459 2.6539 2.96064 0
M  V30 499 N 44.343 -0.763751 1.37857 0
M  V30 500 C 45.568 -1.55805 1.36893 0
M  V30 501 C 45.993 -1.88054 -0.0416135 0
M  V30 502 O 45.351 -1.49825 -1.02089 0
M  V30 503 C 45.399 -2.84012 2.22192 0
M  V30 504 O 44.503 -3.78732 1.63204 0
M  V30 505 H 43.844 -0.471638 0.46739 0
M  V30 506 H 46.374 -0.944657 1.81487 0
M  V30 507 H 46.384 -3.33037 2.35691 0
M  V30 508 H 45.059 -2.59869 3.24716 0
M  V30 509 H 43.636 -3.37402 1.58791 0
M  V30 510 N 45.8211 -1.22559 -0.990812 0
M  V30 511 C 47.2321 -1.04791 -1.54518 0
M  V30 512 C 47.5831 0.387998 -1.92325 0
M  V30 513 O 46.7081 1.27328 -1.74976 0
M  V30 514 C 47.3031 -1.896 -2.80779 0
M  V30 515 C 45.8621 -1.76124 -3.32652 0
M  V30 516 C 45.0091 -1.8594 -2.05722 0
M  V30 517 H 47.9601 -1.36374 -0.811662 0
M  V30 518 H 47.9811 -1.41464 -3.53225 0
M  V30 519 H 47.4931 -2.94101 -2.53231 0
M  V30 520 H 45.5941 -0.743643 -3.65104 0
M  V30 521 H 45.7071 -2.58913 -4.03114 0
M  V30 522 H 44.0711 -1.29403 -2.19379 0
M  V30 523 H 44.8541 -2.91976 -1.80568 0
M  V30 524 N 47.2992 1.18797 -1.03562 0
M  V30 525 C 48.5762 1.84469 -0.650434 0
M  V30 526 C 48.9562 1.92319 0.870433 0
M  V30 527 O 48.3042 1.44528 1.76986 0
M  V30 528 C 48.5142 3.2306 -1.32036 0
M  V30 529 C 49.8622 3.9915 -1.44792 0
M  V30 530 O 50.8862 3.32481 -1.27806 0
M  V30 531 O 49.7452 5.18587 -1.72423 0
M  V30 532 H 46.8392 0.795251 -0.226946 0
M  V30 533 H 49.3852 1.26231 -1.13419 0
M  V30 534 H 48.1572 3.1222 -2.3587 0
M  V30 535 H 47.7802 3.88949 -0.8249 0
M  V30 536 N 48.7773 0.814389 1.34928 0
M  V30 537 C 50.0073 0.41054 2.0248 0
M  V30 538 C 50.4153 -0.985625 1.61499 0
M  V30 539 O 49.7583 -1.64781 0.811976 0
M  V30 540 C 49.8203 0.423384 3.56998 0
M  V30 541 C 49.4843 1.77141 4.21272 0
M  V30 542 C 50.4813 2.73093 4.42398 0
M  V30 543 C 48.1663 2.05755 4.58225 0
M  V30 544 C 50.1603 3.95838 4.9959 0
M  V30 545 C 47.8473 3.28762 5.1513 0
M  V30 546 C 48.8453 4.23621 5.35755 0
M  V30 547 O 48.5333 5.44456 5.91458 0
M  V30 548 H 48.2653 0.163997 0.655806 0
M  V30 549 H 50.8193 1.10155 1.73364 0
M  V30 550 H 49.0493 -0.324276 3.85338 0
M  V30 551 H 50.7383 0.0407683 4.0588 0
M  V30 552 H 51.5043 2.5228 4.14222 0
M  V30 553 H 47.3833 1.32727 4.4148 0
M  V30 554 H 50.9273 4.69891 5.15605 0
M  V30 555 H 46.8243 3.49443 5.42734 0
M  V30 556 H 47.5923 5.4586 6.09901 0
M  V30 557 N 50.2554 -1.46986 0.568584 0
M  V30 558 C 51.4834 -2.0683 0.0539956 0
M  V30 559 C 51.8984 -1.41953 -1.24478 0
M  V30 560 O 51.2554 -0.519933 -1.74937 0
M  V30 561 C 51.3064 -3.61254 -0.133362 0
M  V30 562 O 51.0274 -4.237 1.11399 0
M  V30 563 C 52.5284 -4.37992 -0.683927 0
M  V30 564 H 49.7484 -0.669058 0.0510141 0
M  V30 565 H 52.2924 -1.88824 0.785234 0
M  V30 566 H 50.4474 -3.78735 -0.81477 0
M  V30 567 H 50.8614 -5.16388 0.91888 0
M  V30 568 H 52.3354 -5.46684 -0.764263 0
M  V30 569 H 52.8124 -4.05058 -1.69778 0
M  V30 570 H 53.4184 -4.25283 -0.0378494 0
M  V30 571 N 51.7335 -0.305618 -1.54608 0
M  V30 572 C 53.0105 0.355652 -1.92339 0
M  V30 573 C 53.3905 1.71324 -1.23335 0
M  V30 574 O 52.7385 2.25473 -0.370702 0
M  V30 575 C 52.9485 0.46572 -3.45879 0
M  V30 576 C 54.2965 0.734426 -4.182 0
M  V30 577 O 55.3205 0.54935 -3.51938 0
M  V30 578 O 54.1795 1.09024 -5.35515 0
M  V30 579 H 51.2735 0.199666 -0.802535 0
M  V30 580 H 53.8195 -0.354017 -1.65966 0
M  V30 581 H 52.5915 -0.488461 -3.88239 0
M  V30 582 H 52.2145 1.22367 -3.78301 0
M  V30 583 N 53.2116 1.57565 -0.0334293 0
M  V30 584 C 54.1216 2.13943 0.962572 0
M  V30 585 C 55.1376 1.09276 1.35406 0
M  V30 586 O 56.3136 1.41355 1.4346 0
M  V30 587 C 53.3786 2.65887 2.22497 0
M  V30 588 C 52.4396 3.85286 1.8935 0
M  V30 589 C 51.6726 4.34743 3.09571 0
M  V30 590 O 51.8956 3.83352 4.22371 0
M  V30 591 O 50.8296 5.26538 2.91618 0
M  V30 592 H 54.6556 2.99333 0.513169 0
M  V30 593 H 52.2406 1.4822 0.18743 0
M  V30 594 H 54.1226 2.99346 2.96598 0
M  V30 595 H 52.7976 1.83578 2.6661 0
M  V30 596 H 51.7046 3.56746 1.1262 0
M  V30 597 H 53.0376 4.68771 1.5005 0
M  V30 598 N 54.6897 -0.239769 1.55765 0
M  V30 599 C 55.9147 -0.988373 1.82335 0
M  V30 600 C 56.3397 -1.77886 0.611421 0
M  V30 601 O 55.6977 -1.75889 -0.439639 0
M  V30 602 C 55.7457 -1.89627 3.06715 0
M  V30 603 O 54.8497 -2.98904 2.84131 0
M  V30 604 H 54.1907 -0.280858 0.601677 0
M  V30 605 H 56.7207 -0.258597 2.02959 0
M  V30 606 H 56.7307 -2.30957 3.36338 0
M  V30 607 H 55.4057 -1.31511 3.9456 0
M  V30 608 H 53.9827 -2.61651 2.65694 0
M  V30 609 N 56.1678 -1.49265 -0.50573 0
M  V30 610 C 57.4078 -1.60128 -1.27038 0
M  V30 611 C 57.7718 -0.279557 -1.89954 0
M  V30 612 O 58.9728 -0.263329 -2.67507 0
M  V30 613 C 57.2438 -2.72507 -2.31246 0
M  V30 614 S 58.8028 -3.0329 -3.17113 0
M  V30 615 H 55.6208 -0.564863 -0.4318 0
M  V30 616 H 58.2228 -1.86902 -0.573397 0
M  V30 617 H 56.9268 -3.67068 -1.83546 0
M  V30 618 H 56.4578 -2.4771 -3.05619 0
M  V30 619 H 58.4728 -2.44448 -4.31809 0
M  V30 620 N 57.6459 0.756429 -1.3826 0
M  V30 621 C 58.8739 1.54565 -1.3754 0
M  V30 622 C 59.2889 1.88767 0.0355331 0
M  V30 623 O 58.6459 1.52572 1.0014 0
M  V30 624 C 58.6969 2.84654 -2.22833 0
M  V30 625 O 58.4179 2.51912 -3.5843 0
M  V30 626 C 59.9189 3.78807 -2.30261 0
M  V30 627 H 57.1389 0.478353 -0.470553 0
M  V30 628 H 59.6829 0.936381 -1.81803 0
M  V30 629 H 57.8379 3.41965 -1.8204 0
M  V30 630 H 58.2519 3.35325 -4.03308 0
M  V30 631 H 59.7259 4.67045 -2.94233 0
M  V30 632 H 60.2029 4.19038 -1.31545 0
M  V30 633 H 60.8089 3.2742 -2.71433 0
M  V30 634 N 59.124 1.23083 0.984299 0
M  V30 635 C 60.371 1.06057 1.72505 0
M  V30 636 C 60.699 -0.403105 1.90277 0
M  V30 637 O 59.954 -1.3149 1.44944 0
M  V30 638 C 60.253 1.72673 3.1292 0
M  V30 639 C 59.919 3.22586 3.15038 0
M  V30 640 C 58.581 3.63489 3.15324 0
M  V30 641 C 60.933 4.185 3.10657 0
M  V30 642 C 58.261 4.98772 3.08939 0
M  V30 643 C 60.613 5.53769 3.05814 0
M  V30 644 C 59.277 5.94041 3.04419 0
M  V30 645 H 58.547 0.388091 0.631242 0
M  V30 646 H 61.194 1.52963 1.15215 0
M  V30 647 H 59.499 1.18116 3.73572 0
M  V30 648 H 61.196 1.56982 3.68996 0
M  V30 649 H 57.786 2.90022 3.15571 0
M  V30 650 H 61.97 3.87911 3.09579 0
M  V30 651 H 57.226 5.29193 3.0621 0
M  V30 652 H 61.4 6.27808 3.0138 0
M  V30 653 H 59.027 6.98833 2.99227 0
M  V30 654 N 60.6021 -1.18246 1.0419 0
M  V30 655 C 61.5491 -2.2192 0.634037 0
M  V30 656 C 62.5191 -1.62179 -0.358765 0
M  V30 657 O 63.7041 -1.89122 -0.252466 0
M  V30 658 C 60.8441 -3.451 0.00445535 0
M  V30 659 C 59.9571 -4.19174 1.04487 0
M  V30 660 C 59.0921 -5.29813 0.383676 0
M  V30 661 C 58.1311 -5.9566 1.4091 0
M  V30 662 N 57.2681 -6.97834 0.772784 0
M  V30 663 H 62.1081 -2.56164 1.52263 0
M  V30 664 H 59.6451 -1.25843 0.761701 0
M  V30 665 H 61.6031 -4.15485 -0.377919 0
M  V30 666 H 60.2331 -3.11472 -0.847652 0
M  V30 667 H 59.2851 -3.47604 1.54518 0
M  V30 668 H 60.5971 -4.64267 1.82368 0
M  V30 669 H 59.7511 -6.06677 -0.0528366 0
M  V30 670 H 58.4901 -4.85825 -0.427208 0
M  V30 671 H 57.4951 -5.17535 1.85574 0
M  V30 672 H 58.7201 -6.4173 2.22171 0
M  V30 673 H 56.6661 -6.55998 -0.0177708 0
M  V30 674 H 56.5831 -7.41186 1.48928 0
M  V30 675 H 57.8511 -7.78665 0.36071 0
M  V30 676 N 62.0802 -0.821533 -1.34494 0
M  V30 677 C 63.3292 -0.405355 -1.97585 0
M  V30 678 C 63.6422 1.03677 -1.65863 0
M  V30 679 O 64.8482 1.55679 -2.22433 0
M  V30 680 C 63.3042 -0.673861 -3.53535 0
M  V30 681 C 62.9122 -2.12951 -3.94152 0
M  V30 682 C 64.6562 -0.32378 -4.23263 0
M  V30 683 C 62.5632 -2.34298 -5.43009 0
M  V30 684 H 61.4932 -0.147836 -0.739365 0
M  V30 685 H 64.1442 -1.00769 -1.53355 0
M  V30 686 H 62.5262 -0.00137554 -3.96 0
M  V30 687 H 63.7002 -2.84104 -3.62797 0
M  V30 688 H 62.0152 -2.44089 -3.37356 0
M  V30 689 H 64.6122 -0.461126 -5.32708 0
M  V30 690 H 64.9552 0.731586 -4.09821 0
M  V30 691 H 65.4882 -0.950786 -3.8627 0
M  V30 692 H 62.2272 -3.38335 -5.61435 0
M  V30 693 H 61.7472 -1.67687 -5.75883 0
M  V30 694 H 63.4262 -2.16588 -6.09671 0
M  V30 695 N 63.5583 1.46682 -0.576371 0
M  V30 696 C 64.7833 2.07304 -0.0630475 0
M  V30 697 C 65.2083 1.42329 1.2298 0
M  V30 698 O 64.5663 0.504865 1.74129 0
M  V30 699 C 64.6143 3.60472 0.095895 0
M  V30 700 O 63.7183 3.95927 1.15394 0
M  V30 701 H 63.0593 0.661288 -0.0599463 0
M  V30 702 H 65.5893 1.88417 -0.797511 0
M  V30 703 H 65.5993 4.06865 0.304071 0
M  V30 704 H 64.2743 4.07157 -0.84828 0
M  V30 705 H 62.8513 3.61252 0.924724 0
M  V30 706 N 65.0364 0.313813 1.54444 0
M  V30 707 C 65.9664 -0.549454 2.26943 0
M  V30 708 C 66.9474 -1.12741 1.27372 0
M  V30 709 O 68.1324 -1.15436 1.56167 0
M  V30 710 C 65.2624 -1.71523 3.01989 0
M  V30 711 C 64.2164 -1.26703 4.08816 0
M  V30 712 C 63.5424 -2.51898 4.71647 0
M  V30 713 C 64.8424 -0.388962 5.2085 0
M  V30 714 H 66.5364 0.0552661 2.99349 0
M  V30 715 H 64.0824 0.0280207 1.43973 0
M  V30 716 H 66.0354 -2.32535 3.51433 0
M  V30 717 H 64.7594 -2.34639 2.27183 0
M  V30 718 H 63.4184 -0.679896 3.6024 0
M  V30 719 H 63.0664 -3.13356 3.93468 0
M  V30 720 H 62.7664 -2.22605 5.43802 0
M  V30 721 H 64.2904 -3.1369 5.23861 0
M  V30 722 H 65.7044 -0.905107 5.6611 0
M  V30 723 H 64.1014 -0.18924 5.99802 0
M  V30 724 H 65.1714 0.582699 4.81386 0
M  V30 725 N 66.5145 -1.57545 0.0417849 0
M  V30 726 C 67.9305 -1.56467 -0.314704 0
M  V30 727 C 68.1305 -1.04859 -1.72066 0
M  V30 728 O 67.1865 -0.700983 -2.42575 0
M  V30 729 C 68.4995 -3.00317 -0.15174 0
M  V30 730 C 70.0475 -3.12201 -0.223553 0
M  V30 731 C 70.5225 -4.57913 -0.0892295 0
M  V30 732 N 72.0135 -4.6297 -0.145808 0
M  V30 733 C 72.7485 -5.73362 -0.0658459 0
M  V30 734 N 72.2445 -6.92769 0.0659282 0
M  V30 735 N 74.0375 -5.6197 -0.12075 0
M  V30 736 H 66.1885 -1.89416 0.961014 0
M  V30 737 H 68.4515 -0.871862 0.372237 0
M  V30 738 H 68.1575 -3.42073 0.817254 0
M  V30 739 H 68.0315 -3.65892 -0.916692 0
M  V30 740 H 70.4185 -2.70349 -1.18301 0
M  V30 741 H 70.4995 -2.49323 0.571994 0
M  V30 742 H 70.1435 -5.00448 0.866867 0
M  V30 743 H 70.0735 -5.18786 -0.903802 0
M  V30 744 H 72.5645 -3.7709 -0.247286 0
M  V30 745 H 72.8775 -7.72707 0.119905 0
M  V30 746 H 71.2225 -6.94927 0.100885 0
M  V30 747 H 74.4135 -4.67572 -0.222187 0
M  V30 748 H 74.5865 -6.47977 -0.0549735 0
M  V30 749 N 67.9926 0.231505 -1.5589 0
M  V30 750 C 68.9406 1.30649 -1.92441 0
M  V30 751 C 69.9346 1.49037 -0.805254 0
M  V30 752 O 71.1406 1.50329 -0.990007 0
M  V30 753 H 67.5156 0.437812 -0.611412 0
M  V30 754 H 69.4866 0.970973 -2.82161 0
M  V30 755 C 68.2356 2.65179 -2.24889 0
M  V30 756 H 67.5586 2.51835 -3.10514 0
M  V30 757 H 68.9986 3.39234 -2.54355 0
M  V30 758 C 67.4576 3.19439 -1.07054 0
M  V30 759 O 67.9876 4.00371 -0.326499 0
M  V30 760 N 66.1936 2.77675 -0.85703 0
M  V30 761 H 65.7406 2.11969 -1.46379 0
M  V30 762 H 65.6986 3.14321 -0.0703223 0
M  V30 763 N 69.4707 1.49531 0.497807 0
M  V30 764 C 70.7177 1.59179 1.25173 0
M  V30 765 C 71.0457 0.279932 1.92475 0
M  V30 766 O 70.3007 -0.732383 1.81479 0
M  V30 767 C 70.5997 2.70252 2.33878 0
M  V30 768 C 70.2657 4.11644 1.84012 0
M  V30 769 C 68.9277 4.50121 1.70132 0
M  V30 770 C 71.2797 5.00121 1.46725 0
M  V30 771 C 68.6077 5.74845 1.17348 0
M  V30 772 C 70.9597 6.25366 0.95392 0
M  V30 773 C 69.6237 6.6267 0.801538 0
M  V30 774 H 68.8937 0.582478 0.45804 0
M  V30 775 H 71.5407 1.83373 0.551948 0
M  V30 776 H 69.8457 2.40041 3.09657 0
M  V30 777 H 71.5427 2.74925 2.9192 0
M  V30 778 H 68.1327 3.81274 1.95775 0
M  V30 779 H 72.3167 4.71048 1.56294 0
M  V30 780 H 67.5727 6.02444 1.04264 0
M  V30 781 H 71.7467 6.93301 0.656225 0
M  V30 782 H 69.3737 7.59197 0.390351 0
M  V30 783 N 70.9488 -0.749086 1.3866 0
M  V30 784 C 72.3648 -1.05276 1.19955 0
M  V30 785 C 72.5648 -2.01435 0.05134 0
M  V30 786 O 71.6208 -2.45232 -0.60147 0
M  V30 787 C 72.9338 -1.62853 2.52783 0
M  V30 788 C 74.4818 -1.75002 2.59506 0
M  V30 789 C 74.9568 -2.35991 3.92521 0
M  V30 790 N 76.4478 -2.43416 3.94085 0
M  V30 791 C 77.1828 -2.91511 4.9377 0
M  V30 792 N 76.6788 -3.39608 6.03853 0
M  V30 793 N 78.4718 -2.90592 4.81157 0
M  V30 794 H 70.6228 -0.111066 2.12109 0
M  V30 795 H 72.8858 -0.111901 0.941373 0
M  V30 796 H 72.5918 -0.99664 3.37283 0
M  V30 797 H 72.4658 -2.61854 2.715 0
M  V30 798 H 74.8528 -2.37317 1.75398 0
M  V30 799 H 74.9338 -0.74693 2.44652 0
M  V30 800 H 74.5778 -1.74308 4.77053 0
M  V30 801 H 74.5078 -3.3695 4.04688 0
M  V30 802 H 76.9988 -2.09405 3.14576 0
M  V30 803 H 77.3118 -3.74775 6.75843 0
M  V30 804 H 75.6568 -3.37653 6.07466 0
M  V30 805 H 78.8478 -2.52332 3.94267 0
M  V30 806 H 79.0208 -3.27762 5.58996 0
M  V30 807 N 72.4269 -1.23603 -0.977757 0
M  V30 808 C 73.6519 -1.09735 -1.75991 0
M  V30 809 C 74.0769 0.346858 -1.84874 0
M  V30 810 O 73.4349 1.25093 -1.3123 0
M  V30 811 C 73.4829 -1.73051 -3.16363 0
M  V30 812 O 72.5869 -0.994452 -4.0023 0
M  V30 813 H 71.9279 -0.384476 -0.541364 0
M  V30 814 H 74.4579 -1.6371 -1.2272 0
M  V30 815 H 74.4679 -1.78398 -3.66931 0
M  V30 816 H 73.1429 -2.78137 -3.09213 0
M  V30 817 H 71.7199 -1.01812 -3.58732 0
M  V30 818 N 73.905 1.17692 -1.04816 0
M  V30 819 C 75.154 1.87192 -0.751132 0
M  V30 820 C 75.467 1.8169 0.724441 0
M  V30 821 O 76.673 2.46625 1.13527 0
M  V30 822 C 75.129 3.35857 -1.29338 0
M  V30 823 C 74.737 3.4987 -2.79812 0
M  V30 824 C 76.481 4.10709 -1.07322 0
M  V30 825 C 74.388 4.92536 -3.27356 0
M  V30 826 H 73.318 0.701162 -0.277288 0
M  V30 827 H 75.969 1.32932 -1.26496 0
M  V30 828 H 74.351 3.89631 -0.707376 0
M  V30 829 H 75.525 3.06332 -3.44235 0
M  V30 830 H 73.84 2.88433 -3.00325 0
M  V30 831 H 76.437 5.15952 -1.4035 0
M  V30 832 H 76.78 4.16299 -0.0108001 0
M  V30 833 H 77.313 3.6313 -1.62423 0
M  V30 834 H 74.052 4.92119 -4.33012 0
M  V30 835 H 73.572 5.3676 -2.67673 0
M  V30 836 H 75.251 5.61288 -3.21815 0
M  V30 837 N 75.3831 0.828654 1.34056 0
M  V30 838 C 76.3131 0.269443 2.3194 0
M  V30 839 C 77.2941 -0.617247 1.58506 0
M  V30 840 O 78.4791 -0.542931 1.86456 0
M  V30 841 C 75.6091 -0.564793 3.42677 0
M  V30 842 C 74.5631 0.225241 4.27407 0
M  V30 843 C 73.8891 -0.7321 5.29664 0
M  V30 844 C 75.1891 1.43663 5.02154 0
M  V30 845 H 76.8831 1.08728 2.7896 0
M  V30 846 H 74.4291 0.524283 1.34117 0
M  V30 847 H 76.3821 -0.966233 4.10173 0
M  V30 848 H 75.1061 -1.41574 2.9432 0
M  V30 849 H 73.7651 0.608117 3.61521 0
M  V30 850 H 73.4131 -1.57916 4.77568 0
M  V30 851 H 73.1131 -0.20767 5.87233 0
M  V30 852 H 74.6371 -1.13128 6.00029 0
M  V30 853 H 76.0511 1.1089 5.62473 0
M  V30 854 H 74.4481 1.89711 5.69324 0
M  V30 855 H 75.5181 2.21181 4.31517 0
M  V30 856 N 76.8612 -1.46375 0.584142 0
M  V30 857 C 78.0862 -2.07268 0.0740405 0
M  V30 858 C 78.5112 -1.42979 -1.22223 0
M  V30 859 O 77.8692 -0.514092 -1.73859 0
M  V30 860 C 77.9172 -3.60518 -0.0767769 0
M  V30 861 O 77.0212 -3.96533 -1.13292 0
M  V30 862 H 76.3622 -0.660961 0.0634524 0
M  V30 863 H 78.8922 -1.87991 0.807492 0
M  V30 864 H 78.9022 -4.07021 -0.282489 0
M  V30 865 H 77.5772 -4.06702 0.86986 0
M  V30 866 H 76.1542 -3.61738 -0.905553 0
M  V30 867 N 78.3393 -0.321999 -1.54275 0
M  V30 868 C 79.5853 0.274234 -2.01543 0
M  V30 869 C 79.9403 1.499 -1.20614 0
M  V30 870 O 79.2333 1.89546 -0.279804 0
M  V30 871 C 79.4273 0.661769 -3.5122 0
M  V30 872 C 79.2563 -0.523892 -4.46638 0
M  V30 873 C 78.0263 -1.02251 -4.94846 0
M  V30 874 C 80.2243 -1.37558 -4.95563 0
M  V30 875 N 78.2063 -2.17274 -5.74165 0
M  V30 876 C 79.5773 -2.37301 -5.7279 0
M  V30 877 C 81.6323 -1.40353 -4.77709 0
M  V30 878 C 80.3353 -3.3964 -6.34064 0
M  V30 879 C 82.3613 -2.41562 -5.39817 0
M  V30 880 C 81.7233 -3.40031 -6.16894 0
M  V30 881 H 77.8223 0.0642367 -0.779357 0
M  V30 882 H 80.4063 -0.456683 -1.89268 0
M  V30 883 H 78.5773 1.36182 -3.63743 0
M  V30 884 H 80.3093 1.23934 -3.85256 0
M  V30 885 H 77.0643 -0.594046 -4.6986 0
M  V30 886 H 77.4883 -2.75289 -6.18502 0
M  V30 887 H 82.1303 -0.655907 -4.17681 0
M  V30 888 H 79.8483 -4.15309 -6.93213 0
M  V30 889 H 83.4343 -2.44524 -5.2792 0
M  V30 890 H 82.3143 -4.17063 -6.64099 0
M  V30 891 N 79.8174 1.5752 -0.0501392 0
M  V30 892 C 80.7274 2.14952 0.939827 0
M  V30 893 C 81.7434 1.10706 1.34239 0
M  V30 894 O 82.9194 1.42869 1.41952 0
M  V30 895 C 79.9844 2.68232 2.19665 0
M  V30 896 C 79.0454 3.87272 1.85253 0
M  V30 897 C 78.2784 4.38002 3.04943 0
M  V30 898 O 78.5014 3.87811 4.18281 0
M  V30 899 O 77.4354 5.29602 2.86017 0
M  V30 900 H 81.2614 2.9986 0.481392 0
M  V30 901 H 78.8464 1.4841 0.171699 0
M  V30 902 H 80.7284 3.02475 2.93406 0
M  V30 903 H 79.4034 1.86395 2.64648 0
M  V30 904 H 78.3104 3.5792 1.0883 0
M  V30 905 H 79.6434 4.70336 1.4507 0
M  V30 906 N 81.2955 -0.223234 1.56011 0
M  V30 907 C 82.2255 -1.27988 1.95298 0
M  V30 908 C 83.2065 -1.48976 0.820979 0
M  V30 909 O 84.3915 -1.61188 1.08315 0
M  V30 910 C 81.5215 -2.63 2.26822 0
M  V30 911 C 80.4755 -2.56671 3.42497 0
M  V30 912 C 79.8015 -3.95697 3.59622 0
M  V30 913 C 81.1015 -2.11601 4.77517 0
M  V30 914 H 82.7955 -0.953525 2.8381 0
M  V30 915 H 80.3415 -0.457244 1.36548 0
M  V30 916 H 82.2945 -3.37077 2.52898 0
M  V30 917 H 81.0185 -2.9732 1.35161 0
M  V30 918 H 79.6775 -1.85051 3.16467 0
M  V30 919 H 79.3255 -4.27322 2.6534 0
M  V30 920 H 79.0255 -3.92345 4.37424 0
M  V30 921 H 80.5495 -4.71438 3.88044 0
M  V30 922 H 81.9635 -2.7542 5.02809 0
M  V30 923 H 80.3605 -2.19311 5.5859 0
M  V30 924 H 81.4305 -1.06824 4.72987 0
M  V30 925 N 82.7736 -1.49793 -0.48987 0
M  V30 926 C 83.7206 -1.67281 -1.59014 0
M  V30 927 C 84.6906 -0.514177 -1.57941 0
M  V30 928 O 85.8756 -0.742533 -1.75759 0
M  V30 929 C 83.0156 -1.75569 -2.97102 0
M  V30 930 C 82.1286 -3.0281 -3.08107 0
M  V30 931 C 81.2636 -3.02008 -4.36995 0
M  V30 932 C 80.3026 -4.23782 -4.41673 0
M  V30 933 N 79.4396 -4.20826 -5.62005 0
M  V30 934 H 84.2796 -2.61224 -1.43409 0
M  V30 935 H 81.8166 -1.29508 -0.697565 0
M  V30 936 H 83.7746 -1.78354 -3.77155 0
M  V30 937 H 82.4046 -0.850827 -3.11385 0
M  V30 938 H 81.4566 -3.09584 -2.21047 0
M  V30 939 H 82.7686 -3.92801 -3.07423 0
M  V30 940 H 81.9226 -3.03418 -5.25378 0
M  V30 941 H 80.6616 -2.09815 -4.4026 0
M  V30 942 H 79.6666 -4.22604 -3.5169 0
M  V30 943 H 80.8916 -5.17181 -4.40115 0
M  V30 944 H 78.8376 -3.31476 -5.66091 0
M  V30 945 H 78.7546 -5.04564 -5.62984 0
M  V30 946 H 80.0226 -4.26355 -6.52565 0
M  V30 947 N 84.2517 0.741722 -1.39055 0
M  V30 948 C 85.1997 1.87702 -1.3737 0
M  V30 949 C 86.1937 1.67427 -0.257812 0
M  V30 950 O 87.3997 1.7485 -0.427489 0
M  V30 951 H 83.7747 0.617757 -0.428812 0
M  V30 952 H 85.7457 1.86239 -2.33147 0
M  V30 953 C 84.4947 3.25315 -1.22741 0
M  V30 954 H 83.8177 3.41509 -2.07873 0
M  V30 955 H 85.2577 4.04964 -1.25618 0
M  V30 956 C 83.7167 3.36838 0.0647316 0
M  V30 957 O 84.2467 3.88073 1.03741 0
M  V30 958 N 82.4527 2.90329 0.125544 0
M  V30 959 H 81.9997 2.48823 -0.666682 0
M  V30 960 H 81.9577 2.98418 0.989639 0
M  V30 961 N 85.7298 1.2412 0.971189 0
M  V30 962 C 86.6798 0.997551 2.05019 0
M  V30 963 C 87.6638 -0.0597747 1.60789 0
M  V30 964 O 88.8558 0.153516 1.76333 0
M  V30 965 C 85.9848 0.600557 3.38006 0
M  V30 966 C 85.0708 1.69377 3.88809 0
M  V30 967 N 85.4618 2.92586 4.12586 0
M  V30 968 C 83.7598 1.57048 4.17435 0
M  V30 969 C 84.4608 3.63431 4.54195 0
M  V30 970 N 83.4368 2.90979 4.59165 0
M  V30 971 H 87.2388 1.93316 2.21374 0
M  V30 972 H 84.7528 1.14194 1.1547 0
M  V30 973 H 86.7498 0.40725 4.14906 0
M  V30 974 H 85.4098 -0.327903 3.2304 0
M  V30 975 H 86.4208 3.288 4.00139 0
M  V30 976 H 83.0978 0.709798 4.11422 0
M  V30 977 H 84.4878 4.69102 4.81033 0
M  V30 978 N 87.2079 -1.17134 1.05439 0
M  V30 979 C 88.4329 -1.91913 0.786396 0
M  V30 980 C 88.8579 -1.7643 -0.652234 0
M  V30 981 O 88.2159 -1.08372 -1.45345 0
M  V30 982 C 88.2639 -3.40921 1.17497 0
M  V30 983 O 87.3679 -4.11244 0.308589 0
M  V30 984 H 86.7089 -0.598215 0.288158 0
M  V30 985 H 89.2389 -1.48457 1.4079 0
M  V30 986 H 89.2489 -3.91668 1.14281 0
M  V30 987 H 87.9239 -3.5151 2.22292 0
M  V30 988 H 86.5009 -3.70731 0.40157 0
M  V30 989 N 88.686 -0.835752 -1.33615 0
M  V30 990 C 89.935 -0.426289 -1.97144 0
M  V30 991 C 90.248 1.01912 -1.66953 0
M  V30 992 O 91.454 1.53311 -2.24072 0
M  V30 993 C 89.91 -0.711321 -3.52801 0
M  V30 994 C 89.518 -2.1712 -3.91871 0
M  V30 995 C 91.262 -0.368654 -4.22896 0
M  V30 996 C 89.169 -2.40044 -5.40493 0
M  V30 997 H 88.099 -0.15567 -0.737755 0
M  V30 998 H 90.75 -1.0239 -1.52278 0
M  V30 999 H 89.132 -0.0433766 -3.95976 0
M  V30 1000 H 90.306 -2.87936 -3.59763 0
M  V30 1001 H 88.621 -2.47654 -3.34749 0
M  V30 1002 H 91.218 -0.517601 -5.32189 0
M  V30 1003 H 91.561 0.688078 -4.10574 0
M  V30 1004 H 92.094 -0.991702 -3.8524 0
M  V30 1005 H 88.833 -3.44271 -5.57815 0
M  V30 1006 H 88.353 -1.73785 -5.74072 0
M  V30 1007 H 90.032 -2.23042 -6.0734 0
M  V30 1008 N 90.1641 1.46063 -0.591896 0
M  V30 1009 C 91.4101 2.02638 -0.0811191 0
M  V30 1010 C 91.7431 1.4613 1.27905 0
M  V30 1011 O 91.0181 0.629908 1.84017 0
M  V30 1012 C 91.3011 3.60091 -0.0252436 0
M  V30 1013 C 91.1541 4.26965 -1.41496 0
M  V30 1014 C 92.4731 4.3496 0.670685 0
M  V30 1015 H 89.5921 0.73635 -0.0309524 0
M  V30 1016 H 92.2341 1.741 -0.760859 0
M  V30 1017 H 90.3841 3.84535 0.553624 0
M  V30 1018 H 92.0561 4.13756 -2.0397 0
M  V30 1019 H 90.2991 3.85971 -1.98011 0
M  V30 1020 H 90.9701 5.35781 -1.32825 0
M  V30 1021 H 93.4461 4.15716 0.178825 0
M  V30 1022 H 92.3221 5.44686 0.678837 0
M  V30 1023 H 92.5831 4.06685 1.73379 0
M  V30 1024 N 91.6422 0.330177 1.54103 0
M  V30 1025 C 93.0532 -0.15652 1.86043 0
M  V30 1026 C 93.4042 -1.51086 1.2517 0
M  V30 1027 O 92.5292 -2.09023 0.560217 0
M  V30 1028 C 93.1242 -0.290784 3.3755 0
M  V30 1029 C 91.6832 -0.721705 3.69416 0
M  V30 1030 C 90.8302 0.152622 2.7688 0
M  V30 1031 H 93.7812 0.550237 1.48856 0
M  V30 1032 H 93.8022 -1.12058 3.63625 0
M  V30 1033 H 93.3142 0.695068 3.81825 0
M  V30 1034 H 91.4152 -1.71706 3.30678 0
M  V30 1035 H 91.5282 -0.520869 4.7626 0
M  V30 1036 H 89.8922 -0.372894 2.51956 0
M  V30 1037 H 90.6752 1.13536 3.23982 0
M  V30 1038 N 93.1203 -1.57491 0.0584922 0
M  V30 1039 C 94.3483 -1.97296 -0.623037 0
M  V30 1040 C 94.7633 -0.936338 -1.63946 0
M  V30 1041 O 94.1203 0.0785981 -1.82331 0
M  V30 1042 C 94.1713 -3.37183 -1.30345 0
M  V30 1043 O 93.8923 -4.36872 -0.32773 0
M  V30 1044 C 95.3933 -3.91788 -2.07406 0
M  V30 1045 H 92.6133 -0.649153 -0.169826 0
M  V30 1046 H 95.1573 -2.04106 0.12696 0
M  V30 1047 H 93.3123 -3.31502 -2.00463 0
M  V30 1048 H 93.7263 -5.18141 -0.814269 0
M  V30 1049 H 95.2003 -4.91926 -2.50425 0
M  V30 1050 H 95.6773 -3.27609 -2.92521 0
M  V30 1051 H 96.2833 -4.00829 -1.42184 0
M  V30 1052 N 94.5984 0.214957 -1.56127 0
M  V30 1053 C 95.5484 1.27006 -1.8935 0
M  V30 1054 C 96.5324 1.41969 -0.757202 0
M  V30 1055 O 97.7244 1.44673 -1.01973 0
M  V30 1056 C 94.8534 2.61911 -2.2194 0
M  V30 1057 C 93.9394 2.50822 -3.41978 0
M  V30 1058 N 94.3304 2.09391 -4.60423 0
M  V30 1059 C 92.6284 2.81765 -3.45723 0
M  V30 1060 C 93.3294 2.09712 -5.42582 0
M  V30 1061 N 92.3054 2.50454 -4.82466 0
M  V30 1062 H 96.1074 0.940734 -2.78437 0
M  V30 1063 H 93.6214 0.423492 -1.56781 0
M  V30 1064 H 95.6184 3.38096 -2.43919 0
M  V30 1065 H 94.2784 2.95684 -1.34169 0
M  V30 1066 H 95.2894 1.80416 -4.85459 0
M  V30 1067 H 91.9664 3.19865 -2.68314 0
M  V30 1068 H 93.3564 1.79748 -6.4741 0
M  V30 1069 N 96.0765 1.50051 0.48192 0
M  V30 1070 C 97.3065 1.63999 1.2565 0
M  V30 1071 C 97.7145 0.318288 1.86504 0
M  V30 1072 O 97.0575 -0.708534 1.69486 0
M  V30 1073 C 97.1195 2.66504 2.4128 0
M  V30 1074 C 96.7835 4.10352 2.01148 0
M  V30 1075 C 97.7805 4.96562 1.54021 0
M  V30 1076 C 95.4655 4.56203 2.10199 0
M  V30 1077 C 97.4595 6.26668 1.16473 0
M  V30 1078 C 95.1465 5.86318 1.72264 0
M  V30 1079 C 96.1445 6.71375 1.25477 0
M  V30 1080 O 95.8325 7.99062 0.880626 0
M  V30 1081 H 95.5645 0.55456 0.386574 0
M  V30 1082 H 98.1185 1.96954 0.582944 0
M  V30 1083 H 96.3485 2.28769 3.11772 0
M  V30 1084 H 98.0375 2.69783 3.03268 0
M  V30 1085 H 98.8035 4.62358 1.46458 0
M  V30 1086 H 94.6825 3.90152 2.45566 0
M  V30 1087 H 98.2265 6.93011 0.798841 0
M  V30 1088 H 94.1235 6.20046 1.79482 0
M  V30 1089 H 94.8915 8.12239 1.01043 0
M  V30 1090 N 97.5546 -0.734337 1.39446 0
M  V30 1091 C 98.7826 -1.52358 1.39981 0
M  V30 1092 C 99.1976 -1.88799 -0.0054975 0
M  V30 1093 O 98.5546 -1.54146 -0.976998 0
M  V30 1094 C 98.6056 -2.81072 2.27333 0
M  V30 1095 O 98.3266 -2.46178 3.62392 0
M  V30 1096 C 99.8276 -3.75096 2.36259 0
M  V30 1097 H 97.0476 -0.470806 0.478103 0
M  V30 1098 H 99.5916 -0.907339 1.83269 0
M  V30 1099 H 97.7466 -3.39026 1.87457 0
M  V30 1100 H 98.1606 -3.28866 4.08592 0
M  V30 1101 H 99.6346 -4.62305 3.01626 0
M  V30 1102 H 100.112 -4.16892 1.38194 0
M  V30 1103 H 100.718 -3.23061 2.76608 0
M  V30 1104 N 99.0327 -1.24633 -0.964593 0
M  V30 1105 C 99.9627 -1.06611 -2.07741 0
M  V30 1106 C 100.944 0.0218666 -1.70086 0
M  V30 1107 O 102.129 -0.145793 -1.93652 0
M  V30 1108 C 99.2587 -0.673444 -3.40708 0
M  V30 1109 C 98.2127 -1.71054 -3.92332 0
M  V30 1110 C 97.5387 -1.17285 -5.21678 0
M  V30 1111 C 98.8387 -3.10718 -4.19824 0
M  V30 1112 H 100.533 -1.99693 -2.23076 0
M  V30 1113 H 98.0787 -0.96152 -1.07195 0
M  V30 1114 H 100.032 -0.534345 -4.17998 0
M  V30 1115 H 98.7557 0.293073 -3.25282 0
M  V30 1116 H 97.4147 -1.83791 -3.17201 0
M  V30 1117 H 97.0627 -0.196847 -5.02615 0
M  V30 1118 H 96.7627 -1.86592 -5.57187 0
M  V30 1119 H 98.2867 -1.04593 -6.01575 0
M  V30 1120 H 99.7007 -3.01192 -4.87808 0
M  V30 1121 H 98.0977 -3.77406 -4.66567 0
M  V30 1122 H 99.1677 -3.58524 -3.26479 0
M  V30 1123 N 100.511 1.16574 -1.06058 0
M  V30 1124 C 101.441 2.23057 -0.690488 0
M  V30 1125 C 102.422 1.67141 0.315901 0
M  V30 1126 O 103.607 1.93253 0.191556 0
M  V30 1127 C 100.737 3.47222 -0.073625 0
M  V30 1128 C 99.6908 4.16016 -1.00573 0
M  V30 1129 C 99.0168 5.34104 -0.252289 0
M  V30 1130 C 100.317 4.67264 -2.33371 0
M  V30 1131 H 102.011 2.54271 -1.58072 0
M  V30 1132 H 99.5568 1.22218 -0.76149 0
M  V30 1133 H 101.51 4.20939 0.19714 0
M  V30 1134 H 100.234 3.15302 0.85161 0
M  V30 1135 H 98.8928 3.44223 -1.2612 0
M  V30 1136 H 98.5408 4.98437 0.675988 0
M  V30 1137 H 98.2408 5.81072 -0.873455 0
M  V30 1138 H 99.7648 6.10599 0.0109857 0
M  V30 1139 H 101.179 5.32573 -2.12223 0
M  V30 1140 H 99.5758 5.24843 -2.90963 0
M  V30 1141 H 100.646 3.83602 -2.96611 0
M  V30 1142 N 101.989 0.842826 1.3317 0
M  V30 1143 C 103.219 0.453397 2.01564 0
M  V30 1144 C 103.627 -0.951147 1.63554 0
M  V30 1145 O 102.97 -1.63021 0.846746 0
M  V30 1146 C 103.032 0.499013 3.5602 0
M  V30 1147 C 102.696 1.86037 4.1742 0
M  V30 1148 C 103.693 2.82416 4.36506 0
M  V30 1149 C 101.378 2.15428 4.53757 0
M  V30 1150 C 103.372 4.06346 4.91082 0
M  V30 1151 C 101.059 3.39615 5.0804 0
M  V30 1152 C 102.057 4.3489 5.26649 0
M  V30 1153 O 101.745 5.5688 5.79776 0
M  V30 1154 H 101.477 0.177871 0.652179 0
M  V30 1155 H 104.031 1.13808 1.70988 0
M  V30 1156 H 102.261 -0.242467 3.85939 0
M  V30 1157 H 103.95 0.126852 4.05702 0
M  V30 1158 H 104.716 2.6101 4.08777 0
M  V30 1159 H 100.595 1.42061 4.38565 0
M  V30 1160 H 104.139 4.80722 5.05522 0
M  V30 1161 H 100.036 3.60876 5.352 0
M  V30 1162 H 100.804 5.58674 5.98185 0
M  V30 1163 N 103.467 -1.45747 0.599634 0
M  V30 1164 C 104.695 -2.06668 0.0978551 0
M  V30 1165 C 105.11 -1.44562 -1.21439 0
M  V30 1166 O 104.467 -0.556923 -1.73795 0
M  V30 1167 C 104.518 -3.61456 -0.0567044 0
M  V30 1168 O 104.239 -4.21242 1.20361 0
M  V30 1169 C 105.74 -4.39345 -0.590869 0
M  V30 1170 H 102.96 -0.667825 0.0651943 0
M  V30 1171 H 105.504 -1.87115 0.82511 0
M  V30 1172 H 103.659 -3.80378 -0.734251 0
M  V30 1173 H 104.073 -5.14323 1.02821 0
M  V30 1174 H 105.547 -5.48182 -0.648131 0
M  V30 1175 H 106.024 -4.08568 -1.61147 0
M  V30 1176 H 106.63 -4.25268 0.0523679 0
M  V30 1177 N 104.945 -0.338344 -1.53925 0
M  V30 1178 C 106.194 0.260732 -2.00008 0
M  V30 1179 C 106.507 1.52073 -1.23017 0
M  V30 1180 O 107.713 2.19672 -1.5955 0
M  V30 1181 C 106.169 0.51515 -3.56194 0
M  V30 1182 C 105.777 -0.728645 -4.42035 0
M  V30 1183 C 107.521 1.07337 -4.10706 0
M  V30 1184 C 105.428 -0.445315 -5.89721 0
M  V30 1185 H 104.358 0.101205 -0.747177 0
M  V30 1186 H 107.009 -0.452866 -1.77824 0
M  V30 1187 H 105.391 1.28932 -3.74423 0
M  V30 1188 H 106.565 -1.50352 -4.35581 0
M  V30 1189 H 104.88 -1.20813 -3.98489 0
M  V30 1190 H 107.477 1.30022 -5.18651 0
M  V30 1191 H 107.82 2.0273 -3.63602 0
M  V30 1192 H 108.353 0.360034 -3.96167 0
M  V30 1193 H 105.092 -1.36883 -6.41049 0
M  V30 1194 H 104.612 0.291569 -5.99091 0
M  V30 1195 H 106.291 -0.0606218 -6.46972 0
M  V30 1196 N 106.423 1.57458 -0.0668435 0
M  V30 1197 C 107.356 2.08033 0.93795 0
M  V30 1198 C 108.334 0.984321 1.29421 0
M  V30 1199 O 109.518 1.25736 1.40437 0
M  V30 1200 C 106.645 2.53388 2.24749 0
M  V30 1201 C 105.691 3.74376 2.04315 0
M  V30 1202 S 106.524 5.19303 1.30706 0
M  V30 1203 C 107.68 5.67986 2.62951 0
M  V30 1204 H 107.913 2.92935 0.50759 0
M  V30 1205 H 105.446 1.5371 0.145804 0
M  V30 1206 H 107.404 2.8018 3.00016 0
M  V30 1207 H 106.065 1.68763 2.64911 0
M  V30 1208 H 105.258 4.04083 3.01218 0
M  V30 1209 H 104.86 3.47931 1.37186 0
M  V30 1210 H 107.152 5.74528 3.5906 0
M  V30 1211 H 108.095 6.66955 2.3786 0
M  V30 1212 H 108.503 4.95781 2.69929 0
M  V30 1213 N 107.901 -0.206675 1.56239 0
M  V30 1214 C 109.126 -0.949474 1.8439 0
M  V30 1215 C 109.551 -1.76549 0.649016 0
M  V30 1216 O 108.909 -1.76782 -0.402231 0
M  V30 1217 C 108.957 -1.83078 3.10668 0
M  V30 1218 O 108.061 -2.9281 2.90407 0
M  V30 1219 H 107.402 -0.268033 0.607499 0
M  V30 1220 H 109.932 -0.215488 2.03462 0
M  V30 1221 H 109.942 -2.2377 3.41161 0
M  V30 1222 H 108.617 -1.23112 3.97261 0
M  V30 1223 H 107.194 -2.55956 2.71184 0
M  V30 1224 N 109.379 -1.50304 -0.473955 0
M  V30 1225 C 110.326 -1.68959 -1.57231 0
M  V30 1226 C 111.296 -0.530899 -1.57387 0
M  V30 1227 O 112.481 -0.761133 -1.74961 0
M  V30 1228 C 109.621 -1.7871 -2.95223 0
M  V30 1229 C 108.734 -3.06061 -3.04878 0
M  V30 1230 C 107.869 -3.06626 -4.33767 0
M  V30 1231 C 106.908 -4.28443 -4.37154 0
M  V30 1232 N 106.045 -4.26763 -5.5751 0
M  V30 1233 H 110.885 -2.6273 -1.40631 0
M  V30 1234 H 108.422 -1.30241 -0.683789 0
M  V30 1235 H 110.38 -1.82344 -3.75242 0
M  V30 1236 H 109.01 -0.883806 -3.10465 0
M  V30 1237 H 108.062 -3.11911 -2.17751 0
M  V30 1238 H 109.374 -3.96039 -3.0324 0
M  V30 1239 H 108.528 -3.08973 -5.22131 0
M  V30 1240 H 107.267 -2.14473 -4.3801 0
M  V30 1241 H 106.272 -4.2631 -3.47188 0
M  V30 1242 H 107.497 -5.2182 -4.34605 0
M  V30 1243 H 105.443 -3.37462 -5.62544 0
M  V30 1244 H 105.36 -5.10507 -5.57601 0
M  V30 1245 H 106.628 -4.33253 -6.48006 0
M  V30 1246 N 110.857 0.726932 -1.39834 0
M  V30 1247 C 112.268 1.30558 -1.3346 0
M  V30 1248 C 112.619 1.962 -0.00273003 0
M  V30 1249 O 111.744 1.96826 0.899371 0
M  V30 1250 C 112.339 2.37404 -2.41713 0
M  V30 1251 C 110.898 2.90921 -2.38835 0
M  V30 1252 C 110.045 1.64578 -2.2318 0
M  V30 1253 H 112.996 0.523862 -1.49804 0
M  V30 1254 H 113.017 3.17984 -2.08966 0
M  V30 1255 H 112.529 1.89599 -3.38635 0
M  V30 1256 H 110.63 3.42985 -1.45575 0
M  V30 1257 H 110.743 3.43487 -3.33997 0
M  V30 1258 H 109.107 1.89219 -1.70494 0
M  V30 1259 H 109.89 1.18814 -3.22084 0
M  V30 1260 N 112.336 1.25143 0.95797 0
M  V30 1261 C 113.246 1.06968 2.08794 0
M  V30 1262 C 114.262 0.00773911 1.73998 0
M  V30 1263 O 115.438 0.207972 2.00323 0
M  V30 1264 C 112.503 0.68691 3.39827 0
M  V30 1265 C 111.564 1.82641 3.88511 0
M  V30 1266 C 110.797 1.46181 5.1329 0
M  V30 1267 O 111.02 0.355971 5.69288 0
M  V30 1268 O 109.954 2.29085 5.566 0
M  V30 1269 H 113.78 2.01723 2.27027 0
M  V30 1270 H 111.365 1.04051 1.07209 0
M  V30 1271 H 113.247 0.485417 4.18595 0
M  V30 1272 H 111.922 -0.231417 3.22872 0
M  V30 1273 H 110.829 2.08274 3.10762 0
M  V30 1274 H 112.162 2.72386 4.09959 0
M  V30 1275 N 113.814 -1.1601 1.06675 0
M  V30 1276 C 115.091 -1.82679 0.699114 0
M  V30 1277 C 115.471 -1.94559 -0.819137 0
M  V30 1278 O 114.819 -1.49169 -1.73092 0
M  V30 1279 C 115.029 -3.19445 1.40555 0
M  V30 1280 C 116.377 -3.95171 1.55323 0
M  V30 1281 O 117.401 -3.28976 1.36577 0
M  V30 1282 O 116.26 -5.13833 1.86112 0
M  V30 1283 H 113.354 -0.788954 0.247951 0
M  V30 1284 H 115.9 -1.23179 1.16726 0
M  V30 1285 H 114.672 -3.05856 2.44065 0
M  V30 1286 H 114.295 -3.86625 0.927733 0
M  V30 1287 N 115.292 -0.849877 -1.32721 0
M  V30 1288 C 116.222 -0.306308 -2.31482 0
M  V30 1289 C 117.203 0.591952 -1.59468 0
M  V30 1290 O 118.388 0.513199 -1.87296 0
M  V30 1291 C 115.518 0.510204 -3.43532 0
M  V30 1292 C 114.472 -0.293209 -4.26994 0
M  V30 1293 C 113.798 0.647743 -5.30762 0
M  V30 1294 C 115.098 -1.51634 -4.99804 0
M  V30 1295 H 116.792 -1.13153 -2.77195 0
M  V30 1296 H 114.338 -0.545553 -1.33266 0
M  V30 1297 H 116.291 0.900856 -4.11658 0
M  V30 1298 H 115.015 1.36874 -2.96535 0
M  V30 1299 H 113.674 -0.665555 -3.60508 0
M  V30 1300 H 113.322 1.50299 -4.8002 0
M  V30 1301 H 113.022 0.11422 -5.87489 0
M  V30 1302 H 114.546 1.03567 -6.01753 0
M  V30 1303 H 115.96 -1.19824 -5.60638 0
M  V30 1304 H 114.357 -1.98745 -5.66234 0
M  V30 1305 H 115.427 -2.28018 -4.27943 0
M  V30 1306 N 116.77 1.45427 -0.607355 0
M  V30 1307 C 117.717 2.3053 0.111625 0
M  V30 1308 C 118.687 1.4209 0.860216 0
M  V30 1309 O 119.872 1.71019 0.845998 0
M  V30 1310 C 117.012 3.26992 1.10319 0
M  V30 1311 C 116.125 4.30535 0.355493 0
M  V30 1312 C 115.26 5.14105 1.33676 0
M  V30 1313 C 114.299 6.09376 0.576862 0
M  V30 1314 N 113.436 6.85727 1.5074 0
M  V30 1315 H 118.276 2.91477 -0.620093 0
M  V30 1316 H 115.813 1.43631 -0.317594 0
M  V30 1317 H 117.771 3.81385 1.6912 0
M  V30 1318 H 116.401 2.67799 1.80232 0
M  V30 1319 H 115.453 3.78805 -0.348023 0
M  V30 1320 H 116.765 4.98235 -0.237423 0
M  V30 1321 H 115.919 5.72897 1.99684 0
M  V30 1322 H 114.658 4.46423 1.9636 0
M  V30 1323 H 113.663 5.49715 -0.0968519 0
M  V30 1324 H 114.888 6.79085 -0.0449341 0
M  V30 1325 H 112.834 6.20735 2.12189 0
M  V30 1326 H 112.751 7.49778 0.967913 0
M  V30 1327 H 114.019 7.4906 2.15706 0
M  V30 1328 N 118.248 0.346503 1.53744 0
M  V30 1329 C 119.494 -0.249473 2.0126 0
M  V30 1330 C 119.827 -1.49965 1.23386 0
M  V30 1331 O 119.102 -1.91811 0.32229 0
M  V30 1332 C 119.385 -0.560643 3.55709 0
M  V30 1333 C 119.238 0.701836 4.44291 0
M  V30 1334 C 120.557 -1.36905 4.18264 0
M  V30 1335 H 117.676 -0.0891987 0.731582 0
M  V30 1336 H 120.318 0.467624 1.84156 0
M  V30 1337 H 118.468 -1.17156 3.70414 0
M  V30 1338 H 120.14 1.33974 4.41417 0
M  V30 1339 H 118.383 1.32612 4.13033 0
M  V30 1340 H 119.054 0.43933 5.50249 0
M  V30 1341 H 121.53 -0.852448 4.07275 0
M  V30 1342 H 120.406 -1.55553 5.26398 0
M  V30 1343 H 120.667 -2.37203 3.73078 0
M  V30 1344 N 119.726 -1.57421 0.075193 0
M  V30 1345 C 120.972 -1.93905 -0.594025 0
M  V30 1346 C 121.305 -0.955701 -1.69056 0
M  V30 1347 O 120.58 0.0145373 -1.94495 0
M  V30 1348 C 120.863 -3.40638 -1.1678 0
M  V30 1349 C 120.716 -4.49733 -0.0776792 0
M  V30 1350 C 122.035 -3.88259 -2.07228 0
M  V30 1351 H 119.154 -0.705105 -0.214466 0
M  V30 1352 H 121.796 -1.8947 0.141854 0
M  V30 1353 H 119.946 -3.44549 -1.79494 0
M  V30 1354 H 121.618 -4.57942 0.555573 0
M  V30 1355 H 119.861 -4.29751 0.591286 0
M  V30 1356 H 120.532 -5.49549 -0.519603 0
M  V30 1357 H 123.008 -3.86376 -1.54445 0
M  V30 1358 H 121.884 -4.91533 -2.44308 0
M  V30 1359 H 122.145 -3.26396 -2.98191 0
M  V30 1360 N 121.204 0.198386 -1.56346 0
M  V30 1361 C 122.151 1.24589 -1.94284 0
M  V30 1362 C 123.121 1.454 -0.802997 0
M  V30 1363 O 124.306 1.58588 -1.06087 0
M  V30 1364 C 121.446 2.58631 -2.28482 0
M  V30 1365 C 120.559 2.45426 -3.55514 0
M  V30 1366 C 119.694 3.7215 -3.79049 0
M  V30 1367 C 118.733 3.53763 -4.99518 0
M  V30 1368 N 117.87 4.72491 -5.19323 0
M  V30 1369 H 122.71 0.915356 -2.83593 0
M  V30 1370 H 120.247 0.440629 -1.40346 0
M  V30 1371 H 122.205 3.3672 -2.46324 0
M  V30 1372 H 120.835 2.89734 -1.42317 0
M  V30 1373 H 119.887 1.58652 -3.45737 0
M  V30 1374 H 121.199 2.27772 -4.43758 0
M  V30 1375 H 120.353 4.58679 -3.97113 0
M  V30 1376 H 119.092 3.92754 -2.89129 0
M  V30 1377 H 118.097 2.65619 -4.8138 0
M  V30 1378 H 119.322 3.34607 -5.90944 0
M  V30 1379 H 117.268 4.93365 -4.3235 0
M  V30 1380 H 117.185 4.5765 -6.01741 0
M  V30 1381 H 118.453 5.6038 -5.41843 0
M  V30 1382 N 122.682 1.50554 0.465978 0
M  V30 1383 C 123.63 1.70324 1.58406 0
M  V30 1384 C 124.624 0.569139 1.59553 0
M  V30 1385 O 125.83 0.749776 1.63641 0
M  V30 1386 H 122.205 0.537688 0.525734 0
M  V30 1387 H 124.176 2.64104 1.38894 0
M  V30 1388 C 122.925 1.81928 2.96307 0
M  V30 1389 H 122.248 2.68586 2.96144 0
M  V30 1390 H 123.688 1.99784 3.73982 0
M  V30 1391 C 122.147 0.572095 3.32007 0
M  V30 1392 O 122.677 -0.286416 4.00678 0
M  V30 1393 N 120.883 0.424606 2.87481 0
M  V30 1394 H 120.43 1.12427 2.31771 0
M  V30 1395 H 120.388 -0.408697 3.11732 0
M  V30 1396 N 124.16 -0.719506 1.40217 0
M  V30 1397 C 125.4 -1.49181 1.39729 0
M  V30 1398 C 125.764 -1.92 -0.00250614 0
M  V30 1399 O 126.965 -2.68473 -0.132479 0
M  V30 1400 C 125.236 -2.68767 2.35582 0
M  V30 1401 S 126.795 -3.58224 2.53418 0
M  V30 1402 H 123.613 -0.510091 0.495307 0
M  V30 1403 H 126.215 -0.841724 1.76452 0
M  V30 1404 H 124.919 -2.35475 3.36124 0
M  V30 1405 H 124.45 -3.38691 2.0013 0
M  V30 1406 H 126.465 -4.63033 1.78367 0
M  V30 1407 N 125.638 -1.25649 -0.95132 0
M  V30 1408 C 126.601 -1.06399 -2.03007 0
M  V30 1409 C 127.601 -0.0156794 -1.60792 0
M  V30 1410 O 128.791 -0.25817 -1.72276 0
M  V30 1411 C 125.923 -0.616184 -3.35285 0
M  V30 1412 H 127.116 -2.02164 -2.21517 0
M  V30 1413 H 124.669 -1.08103 -1.12887 0
M  V30 1414 H 125.404 0.343917 -3.22471 0
M  V30 1415 H 125.189 -1.37301 -3.67275 0
M  V30 1416 H 126.679 -0.503032 -4.14559 0
M  V30 1417 N 127.117 1.15442 -1.07289 0
M  V30 1418 C 128.065 2.22225 -0.686952 0
M  V30 1419 C 129.059 1.66688 0.30193 0
M  V30 1420 O 130.265 1.79236 0.165712 0
M  V30 1421 H 126.64 0.723783 -0.204064 0
M  V30 1422 H 128.611 2.52056 -1.5972 0
M  V30 1423 C 127.36 3.47556 -0.100149 0
M  V30 1424 H 126.683 3.90612 -0.852211 0
M  V30 1425 H 128.123 4.23794 0.132235 0
M  V30 1426 C 126.582 3.16337 1.159 0
M  V30 1427 O 127.112 3.33074 2.24555 0
M  V30 1428 N 125.318 2.70385 1.06491 0
M  V30 1429 H 124.865 2.56966 0.180668 0
M  V30 1430 H 124.823 2.49871 1.90819 0
M  V30 1431 N 128.595 0.856903 1.32268 0
M  V30 1432 C 129.823 0.475439 2.01363 0
M  V30 1433 C 130.238 -0.928486 1.64392 0
M  V30 1434 O 129.595 -1.60624 0.866387 0
M  V30 1435 C 129.646 0.607545 3.56358 0
M  V30 1436 O 129.367 1.95617 3.92002 0
M  V30 1437 C 130.868 0.225382 4.42727 0
M  V30 1438 H 128.088 0.186636 0.644521 0
M  V30 1439 H 130.632 1.15446 1.68797 0
M  V30 1440 H 128.787 -0.0237719 3.87393 0
M  V30 1441 H 129.201 1.95455 4.86721 0
M  V30 1442 H 130.675 0.368813 5.50767 0
M  V30 1443 H 131.152 -0.834369 4.31202 0
M  V30 1444 H 131.758 0.831864 4.17085 0
M  V30 1445 N 130.073 -1.45103 0.615059 0
M  V30 1446 C 131.301 -2.06553 0.11977 0
M  V30 1447 C 131.716 -1.45842 -1.19898 0
M  V30 1448 O 131.073 -0.575325 -1.73194 0
M  V30 1449 C 131.124 -3.61495 -0.018364 0
M  V30 1450 O 130.845 -4.19942 1.24822 0
M  V30 1451 C 132.346 -4.39947 -0.544237 0
M  V30 1452 H 129.566 -0.667096 0.0722739 0
M  V30 1453 H 132.11 -1.8623 0.84491 0
M  V30 1454 H 130.265 -3.81135 -0.693865 0
M  V30 1455 H 130.679 -5.13204 1.0827 0
M  V30 1456 H 132.153 -5.48838 -0.589953 0
M  V30 1457 H 132.63 -4.10255 -1.56805 0
M  V30 1458 H 133.236 -4.25188 0.0974703 0
M  V30 1459 N 131.551 -0.354651 -1.53558 0
M  V30 1460 C 132.967 -0.00315426 -1.596 0
M  V30 1461 C 133.167 1.47741 -1.37021 0
M  V30 1462 O 132.223 2.23759 -1.16996 0
M  V30 1463 C 133.536 -0.44929 -2.97325 0
M  V30 1464 C 135.084 -0.402578 -3.104 0
M  V30 1465 C 135.559 -0.824355 -4.5052 0
M  V30 1466 N 137.05 -0.778979 -4.56603 0
M  V30 1467 C 137.785 -1.07715 -5.63192 0
M  V30 1468 N 137.281 -1.44405 -6.77583 0
M  V30 1469 N 139.074 -1.00066 -5.53121 0
M  V30 1470 H 131.225 -1.31893 -1.66487 0
M  V30 1471 H 133.488 -0.538388 -0.780284 0
M  V30 1472 H 133.194 -1.48202 -3.1895 0
M  V30 1473 H 133.068 0.169772 -3.76818 0
M  V30 1474 H 135.455 0.621004 -2.88492 0
M  V30 1475 H 135.536 -1.05699 -2.32941 0
M  V30 1476 H 135.18 -1.846 -4.73165 0
M  V30 1477 H 135.11 -0.147304 -5.26394 0
M  V30 1478 H 137.601 -0.508528 -3.74463 0
M  V30 1479 H 137.914 -1.65612 -7.54846 0
M  V30 1480 H 136.259 -1.4826 -6.79002 0
M  V30 1481 H 139.45 -0.713293 -4.62633 0
M  V30 1482 H 139.623 -1.23638 -6.36096 0
M  V30 1483 N 133.029 1.57378 -0.0835403 0
M  V30 1484 C 134.254 1.98682 0.594987 0
M  V30 1485 C 134.679 0.961969 1.61641 0
M  V30 1486 O 134.037 -0.0709989 1.81161 0
M  V30 1487 C 134.085 3.38988 1.2296 0
M  V30 1488 O 133.189 3.39208 2.34546 0
M  V30 1489 H 132.53 0.646368 0.152002 0
M  V30 1490 H 135.06 2.03961 -0.161533 0
M  V30 1491 H 135.07 3.76431 1.57366 0
M  V30 1492 H 133.745 4.13107 0.481228 0
M  V30 1493 H 132.322 3.13548 2.01846 0
M  V30 1494 N 134.507 -0.190092 1.56449 0
M  V30 1495 C 135.754 -0.909705 1.80916 0
M  V30 1496 C 136.082 -1.83047 0.657583 0
M  V30 1497 O 135.337 -1.92428 -0.356356 0
M  V30 1498 C 135.636 -1.75382 3.1141 0
M  V30 1499 C 135.302 -0.983606 4.40041 0
M  V30 1500 C 133.964 -0.770967 4.74984 0
M  V30 1501 C 136.316 -0.442024 5.19322 0
M  V30 1502 C 133.644 -0.0053448 5.867 0
M  V30 1503 C 135.996 0.310412 6.31838 0
M  V30 1504 C 134.66 0.534023 6.6536 0
M  V30 1505 H 133.93 -0.332885 0.662019 0
M  V30 1506 H 136.577 -0.175762 1.90692 0
M  V30 1507 H 134.882 -2.55659 2.96893 0
M  V30 1508 H 136.579 -2.31331 3.27547 0
M  V30 1509 H 133.169 -1.15936 4.12622 0
M  V30 1510 H 137.353 -0.593693 4.92736 0
M  V30 1511 H 132.609 0.177825 6.11141 0
M  V30 1512 H 136.783 0.737419 6.92485 0
M  V30 1513 H 134.41 1.12918 7.51767 0
M  V30 1514 N 135.985 -1.50799 -0.457987 0
M  V30 1515 C 137.225 -1.64088 -1.21879 0
M  V30 1516 C 137.589 -0.339848 -1.88968 0
M  V30 1517 O 138.79 -0.348301 -2.66534 0
M  V30 1518 C 137.061 -2.79726 -2.2246 0
M  V30 1519 S 138.62 -3.13225 -3.07303 0
M  V30 1520 H 135.438 -0.578314 -0.41361 0
M  V30 1521 H 138.04 -1.88632 -0.513645 0
M  V30 1522 H 136.744 -3.72722 -1.71775 0
M  V30 1523 H 136.275 -2.57308 -2.97584 0
M  V30 1524 H 138.29 -2.58062 -4.23814 0
M  V30 1525 N 137.463 0.71206 -1.40597 0
M  V30 1526 C 138.74 1.46536 -1.29563 0
M  V30 1527 C 139.12 2.10931 0.0844217 0
M  V30 1528 O 138.468 2.00418 1.0975 0
M  V30 1529 C 138.678 2.49821 -2.43701 0
M  V30 1530 C 140.026 3.15551 -2.841 0
M  V30 1531 O 141.05 2.60142 -2.4332 0
M  V30 1532 O 139.909 4.15867 -3.54566 0
M  V30 1533 H 137.003 0.651801 -0.509004 0
M  V30 1534 H 139.549 0.743935 -1.52524 0
M  V30 1535 H 138.321 2.00778 -3.35863 0
M  V30 1536 H 137.944 3.29495 -2.22528 0
M  V30 1537 N 138.941 1.26152 0.944643 0
M  V30 1538 C 139.871 1.09902 2.06019 0
M  V30 1539 C 140.852 0.00519538 1.70099 0
M  V30 1540 O 142.037 0.176583 1.93396 0
M  V30 1541 C 139.167 0.727562 3.39594 0
M  V30 1542 C 138.121 1.77274 3.89561 0
M  V30 1543 C 137.447 1.25569 5.19747 0
M  V30 1544 C 138.747 3.17357 4.14827 0
M  V30 1545 H 140.441 2.03217 2.19871 0
M  V30 1546 H 137.987 0.978452 1.05652 0
M  V30 1547 H 139.94 0.600777 4.17095 0
M  V30 1548 H 138.664 -0.241287 3.25707 0
M  V30 1549 H 137.323 1.88814 3.14237 0
M  V30 1550 H 136.971 0.276783 5.02238 0
M  V30 1551 H 136.671 1.95433 5.54148 0
M  V30 1552 H 138.195 1.1415 5.99835 0
M  V30 1553 H 139.609 3.08914 4.82954 0
M  V30 1554 H 138.006 3.84781 4.60504 0
M  V30 1555 H 139.076 3.63673 3.20734 0
M  V30 1556 N 140.419 -1.14872 1.07899 0
M  V30 1557 C 141.647 -1.89661 0.82683 0
M  V30 1558 C 142.062 -1.78312 -0.620519 0
M  V30 1559 O 141.419 -1.13888 -1.42604 0
M  V30 1560 C 141.47 -3.39817 1.23316 0
M  V30 1561 O 141.191 -3.50845 2.62372 0
M  V30 1562 C 142.692 -4.31615 1.0111 0
M  V30 1563 H 139.912 -0.60092 0.298557 0
M  V30 1564 H 142.456 -1.4551 1.43691 0
M  V30 1565 H 140.611 -3.8161 0.667286 0
M  V30 1566 H 141.025 -4.44076 2.79101 0
M  V30 1567 H 142.499 -5.35367 1.34486 0
M  V30 1568 H 142.976 -4.39169 -0.0522168 0
M  V30 1569 H 143.582 -3.95572 1.56215 0
M  V30 1570 N 141.898 -0.863906 -1.31812 0
M  V30 1571 C 143.175 -0.39275 -1.91616 0
M  V30 1572 C 143.555 1.12461 -1.7865 0
M  V30 1573 O 142.903 1.95045 -1.19037 0
M  V30 1574 C 143.113 -0.867385 -3.38049 0
M  V30 1575 C 144.461 -0.889966 -4.15168 0
M  V30 1576 O 145.485 -0.812635 -3.46806 0
M  V30 1577 O 144.344 -1.00079 -5.37258 0
M  V30 1578 H 141.438 -0.116358 -0.818773 0
M  V30 1579 H 143.984 -0.951418 -1.40521 0
M  V30 1580 H 142.756 -1.91081 -3.41473 0
M  V30 1581 H 142.379 -0.286687 -3.96565 0
M  V30 1582 N 143.376 1.44774 -0.622745 0
M  V30 1583 C 144.286 2.34433 0.0886031 0
M  V30 1584 C 145.302 1.52131 0.844529 0
M  V30 1585 O 146.478 1.84886 0.798691 0
M  V30 1586 C 143.543 3.29986 1.0635 0
M  V30 1587 C 142.604 4.28195 0.307873 0
M  V30 1588 C 141.837 5.19183 1.23633 0
M  V30 1589 O 142.06 5.13918 2.47476 0
M  V30 1590 O 140.994 5.97515 0.725189 0
M  V30 1591 H 144.82 2.96693 -0.648599 0
M  V30 1592 H 142.405 1.44408 -0.382957 0
M  V30 1593 H 144.287 3.88825 1.6246 0
M  V30 1594 H 142.962 2.70269 1.78146 0
M  V30 1595 H 141.869 3.72927 -0.296064 0
M  V30 1596 H 143.202 4.90808 -0.3699 0
M  V30 1597 N 144.854 0.36279 1.53368 0
M  V30 1598 C 146.1 -0.220702 2.02199 0
M  V30 1599 C 146.455 -1.46649 1.24546 0
M  V30 1600 O 145.748 -1.88737 0.32996 0
M  V30 1601 C 145.942 -0.568417 3.52851 0
M  V30 1602 C 145.771 0.642126 4.45092 0
M  V30 1603 C 144.541 1.15335 4.91961 0
M  V30 1604 C 146.739 1.50649 4.91741 0
M  V30 1605 N 144.721 2.3242 5.68202 0
M  V30 1606 C 146.092 2.52404 5.66297 0
M  V30 1607 C 148.147 1.52969 4.73819 0
M  V30 1608 C 146.85 3.56331 6.24836 0
M  V30 1609 C 148.876 2.55789 5.33222 0
M  V30 1610 C 148.238 3.56268 6.07662 0
M  V30 1611 H 144.337 -0.0435508 0.780786 0
M  V30 1612 H 146.921 0.506704 1.87991 0
M  V30 1613 H 145.092 -1.2649 3.67226 0
M  V30 1614 H 146.824 -1.13676 3.88407 0
M  V30 1615 H 143.579 0.718412 4.68119 0
M  V30 1616 H 144.003 2.91591 6.10986 0
M  V30 1617 H 148.645 0.766418 4.15795 0
M  V30 1618 H 146.363 4.33543 6.81958 0
M  V30 1619 H 149.949 2.58435 5.21251 0
M  V30 1620 H 148.829 4.34524 6.52808 0
M  V30 1621 N 146.332 -1.57332 0.0918853 0
M  V30 1622 C 147.748 -1.57389 -0.264766 0
M  V30 1623 C 147.948 -1.10281 -1.68643 0
M  V30 1624 O 147.004 -0.777801 -2.40222 0
M  V30 1625 C 148.317 -3.00648 -0.0561195 0
M  V30 1626 C 149.865 -3.12754 -0.124116 0
M  V30 1627 C 150.34 -4.57965 0.0564972 0
M  V30 1628 N 151.831 -4.632 0.00155611 0
M  V30 1629 C 152.566 -5.73281 0.116598 0
M  V30 1630 N 152.062 -6.92208 0.286294 0
M  V30 1631 N 153.855 -5.6207 0.0580973 0
M  V30 1632 H 146.006 -1.86262 1.02079 0
M  V30 1633 H 148.269 -0.859579 0.399786 0
M  V30 1634 H 147.975 -3.393 0.925669 0
M  V30 1635 H 147.849 -3.68623 -0.799823 0
M  V30 1636 H 150.236 -2.73976 -1.09641 0
M  V30 1637 H 150.317 -2.47377 0.651024 0
M  V30 1638 H 149.961 -4.97436 1.02564 0
M  V30 1639 H 149.891 -5.21399 -0.738297 0
M  V30 1640 H 152.382 -3.77686 -0.127192 0
M  V30 1641 H 152.695 -7.71934 0.365676 0
M  V30 1642 H 151.04 -6.94254 0.32192 0
M  V30 1643 H 154.231 -4.68043 -0.0733204 0
M  V30 1644 H 154.404 -6.47824 0.151203 0
M  V30 1645 N 147.81 0.181792 -1.56548 0
M  V30 1646 C 149.035 0.920019 -1.85877 0
M  V30 1647 C 149.46 1.75494 -0.677021 0
M  V30 1648 O 148.818 1.77399 0.374056 0
M  V30 1649 C 148.866 1.78112 -3.13542 0
M  V30 1650 O 147.97 2.88152 -2.95029 0
M  V30 1651 H 147.311 0.258334 -0.611686 0
M  V30 1652 H 149.841 0.183092 -2.03779 0
M  V30 1653 H 149.851 2.18314 -3.44678 0
M  V30 1654 H 148.526 1.16777 -3.99169 0
M  V30 1655 H 147.103 2.51609 -2.75222 0
M  V30 1656 N 149.288 1.51039 0.449983 0
M  V30 1657 C 150.516 1.66869 1.2232 0
M  V30 1658 C 150.931 0.360727 1.85322 0
M  V30 1659 O 150.288 -0.659531 1.70166 0
M  V30 1660 C 150.339 2.77524 2.31652 0
M  V30 1661 O 150.06 4.03252 1.7123 0
M  V30 1662 C 151.561 3.04512 3.2216 0
M  V30 1663 H 148.781 0.560326 0.369155 0
M  V30 1664 H 151.325 1.97385 0.534719 0
M  V30 1665 H 149.48 2.49642 2.96239 0
M  V30 1666 H 149.894 4.64609 2.43389 0
M  V30 1667 H 151.368 3.85551 3.95038 0
M  V30 1668 H 151.845 2.16415 3.8218 0
M  V30 1669 H 152.451 3.34005 2.63288 0
M  V30 1670 N 150.766 -0.704594 1.40972 0
M  V30 1671 C 151.716 -1.81051 1.38581 0
M  V30 1672 C 152.7 -1.58759 0.261585 0
M  V30 1673 O 153.892 -1.69745 0.501556 0
M  V30 1674 C 151.021 -3.19279 1.26157 0
M  V30 1675 C 150.107 -3.47296 2.43405 0
M  V30 1676 N 150.498 -3.46064 3.68881 0
M  V30 1677 C 148.796 -3.77804 2.37023 0
M  V30 1678 C 149.497 -3.72733 4.46592 0
M  V30 1679 N 148.473 -3.9203 3.76581 0
M  V30 1680 H 152.275 -1.78448 2.33525 0
M  V30 1681 H 149.789 -0.904198 1.349 0
M  V30 1682 H 151.786 -3.98488 1.22526 0
M  V30 1683 H 150.446 -3.231 0.321902 0
M  V30 1684 H 151.457 -3.26656 4.01891 0
M  V30 1685 H 148.134 -3.8905 1.51481 0
M  V30 1686 H 149.524 -3.77993 5.55492 0
M  V30 1687 N 152.244 -1.26651 -0.937939 0
M  V30 1688 C 153.154 -1.10276 -2.07066 0
M  V30 1689 C 154.17 -0.0354197 -1.73964 0
M  V30 1690 O 155.346 -0.239816 -1.99967 0
M  V30 1691 C 152.411 -0.740887 -3.38691 0
M  V30 1692 C 151.472 -1.88799 -3.85556 0
M  V30 1693 C 150.705 -1.54329 -5.10899 0
M  V30 1694 O 150.928 -0.446494 -5.6865 0
M  V30 1695 O 149.862 -2.37911 -5.52885 0
M  V30 1696 H 153.688 -2.05309 -2.23789 0
M  V30 1697 H 151.273 -1.05743 -1.0554 0
M  V30 1698 H 153.155 -0.55195 -4.1777 0
M  V30 1699 H 151.83 0.180022 -3.23199 0
M  V30 1700 H 150.737 -2.13191 -3.07409 0
M  V30 1701 H 152.07 -2.78874 -4.05574 0
M  V30 1702 N 153.722 1.14298 -1.08507 0
M  V30 1703 C 154.685 2.17607 -0.719711 0
M  V30 1704 C 155.685 1.58907 0.245997 0
M  V30 1705 O 156.875 1.74181 0.0254081 0
M  V30 1706 C 154.007 3.40842 -0.0627695 0
M  V30 1707 H 155.2 2.51443 -1.63452 0
M  V30 1708 H 152.753 1.28963 -0.88307 0
M  V30 1709 H 153.488 3.12587 0.863716 0
M  V30 1710 H 153.273 3.84713 -0.757504 0
M  V30 1711 H 154.763 4.17221 0.177786 0
M  V30 1712 N 155.201 0.870884 1.31352 0
M  V30 1713 C 156.431 0.496049 2.00557 0
M  V30 1714 C 156.839 -0.916241 1.65534 0
M  V30 1715 O 156.182 -1.61188 0.881134 0
M  V30 1716 C 156.244 0.574418 3.54881 0
M  V30 1717 C 155.908 1.94849 4.1338 0
M  V30 1718 C 156.905 2.91611 4.30417 0
M  V30 1719 C 154.59 2.25005 4.49086 0
M  V30 1720 C 156.584 4.16672 4.82352 0
M  V30 1721 C 154.271 3.50315 5.00722 0
M  V30 1722 C 155.269 4.45964 5.17306 0
M  V30 1723 O 154.957 5.69052 5.67833 0
M  V30 1724 H 154.689 0.191664 0.64826 0
M  V30 1725 H 157.243 1.17409 1.68536 0
M  V30 1726 H 155.473 -0.160549 3.86367 0
M  V30 1727 H 157.162 0.212879 4.05341 0
M  V30 1728 H 157.928 2.69622 4.03149 0
M  V30 1729 H 153.807 1.51332 4.35453 0
M  V30 1730 H 157.351 4.91336 4.95211 0
M  V30 1731 H 153.248 3.72147 5.27424 0
M  V30 1732 H 154.016 5.71236 5.86201 0
M  V30 1733 N 156.679 -1.44442 0.630414 0
M  V30 1734 C 157.925 -2.02351 0.134816 0
M  V30 1735 C 158.258 -1.4947 -1.23986 0
M  V30 1736 O 157.533 -0.678475 -1.82283 0
M  V30 1737 C 157.816 -3.59898 0.120707 0
M  V30 1738 C 157.669 -4.23063 1.52767 0
M  V30 1739 C 158.988 -4.36585 -0.555127 0
M  V30 1740 H 156.107 -0.73527 0.0504646 0
M  V30 1741 H 158.749 -1.72022 0.806751 0
M  V30 1742 H 156.899 -3.85868 -0.451477 0
M  V30 1743 H 158.571 -4.08202 2.14869 0
M  V30 1744 H 156.814 -3.80586 2.08175 0
M  V30 1745 H 157.485 -5.32071 1.46984 0
M  V30 1746 H 159.961 -4.16044 -0.0685429 0
M  V30 1747 H 158.837 -5.46294 -0.534185 0
M  V30 1748 H 159.098 -4.11138 -1.62535 0
M  V30 1749 N 158.157 -0.370918 -1.53173 0
M  V30 1750 C 159.385 0.217704 -2.05751 0
M  V30 1751 C 159.8 1.42018 -1.24404 0
M  V30 1752 O 159.157 1.80245 -0.286033 0
M  V30 1753 C 159.208 0.605954 -3.56385 0
M  V30 1754 O 158.929 -0.548734 -4.3465 0
M  V30 1755 C 160.43 1.2524 -4.25241 0
M  V30 1756 H 157.65 0.0371659 -0.66997 0
M  V30 1757 H 160.194 -0.530832 -1.9749 0
M  V30 1758 H 158.349 1.3044 -3.6478 0
M  V30 1759 H 158.763 -0.23376 -5.23979 0
M  V30 1760 H 160.237 1.47458 -5.3194 0
M  V30 1761 H 160.714 2.2143 -3.79296 0
M  V30 1762 H 161.32 0.595233 -4.21114 0
M  V30 1763 N 159.635 1.57281 -0.100228 0
M  V30 1764 C 160.881 1.94826 0.563101 0
M  V30 1765 C 161.214 0.982475 1.67514 0
M  V30 1766 O 160.489 0.0164069 1.94493 0
M  V30 1767 C 160.772 3.42453 1.11346 0
M  V30 1768 C 160.625 4.498 0.00612081 0
M  V30 1769 C 161.944 3.91506 2.01024 0
M  V30 1770 H 159.063 0.708428 0.203221 0
M  V30 1771 H 161.705 1.8922 -0.171979 0
M  V30 1772 H 159.855 3.47361 1.7399 0
M  V30 1773 H 161.527 4.57 -0.628357 0
M  V30 1774 H 159.77 4.28756 -0.659581 0
M  V30 1775 H 160.441 5.50306 0.432109 0
M  V30 1776 H 162.917 3.88784 1.48278 0
M  V30 1777 H 161.793 4.95358 2.36457 0
M  V30 1778 H 162.054 3.31099 2.92961 0
M  V30 1779 N 161.113 -0.173488 1.56642 0
M  V30 1780 C 162.043 -1.2171 1.99271 0
M  V30 1781 C 163.024 -1.46289 0.867959 0
M  V30 1782 O 164.209 -1.5766 1.13388 0
M  V30 1783 C 161.339 -2.55651 2.35074 0
M  V30 1784 C 160.293 -2.45645 3.50489 0
M  V30 1785 C 159.619 -3.84056 3.72028 0
M  V30 1786 C 160.919 -1.96302 4.84007 0
M  V30 1787 H 162.613 -0.86275 2.867 0
M  V30 1788 H 160.159 -0.413571 1.37933 0
M  V30 1789 H 162.112 -3.2886 2.63494 0
M  V30 1790 H 160.836 -2.92869 1.44552 0
M  V30 1791 H 159.495 -1.7489 3.22194 0
M  V30 1792 H 159.143 -4.18664 2.788 0
M  V30 1793 H 158.843 -3.7823 4.49684 0
M  V30 1794 H 160.367 -4.58854 4.02846 0
M  V30 1795 H 161.781 -2.59284 5.11317 0
M  V30 1796 H 160.178 -2.01429 5.65284 0
M  V30 1797 H 161.248 -0.917226 4.76146 0
M  V30 1798 N 162.591 -1.51276 -0.441967 0
M  V30 1799 C 163.501 -1.75092 -1.56141 0
M  V30 1800 C 164.517 -0.634963 -1.62001 0
M  V30 1801 O 165.693 -0.916686 -1.79329 0
M  V30 1802 C 162.758 -1.86666 -2.92158 0
M  V30 1803 C 161.819 -3.10506 -2.96453 0
M  V30 1804 C 161.052 -3.21519 -4.25982 0
M  V30 1805 O 161.275 -2.38586 -5.18105 0
M  V30 1806 O 160.209 -4.14465 -4.36466 0
M  V30 1807 H 164.035 -2.70044 -1.38961 0
M  V30 1808 H 161.62 -1.35722 -0.624499 0
M  V30 1809 H 163.502 -1.96292 -3.72891 0
M  V30 1810 H 162.177 -0.949014 -3.09476 0
M  V30 1811 H 161.084 -3.06363 -2.14692 0
M  V30 1812 H 162.417 -4.01945 -2.84079 0
M  V30 1813 N 164.069 0.697108 -1.41344 0
M  V30 1814 C 165.317 1.45426 -1.40341 0
M  V30 1815 C 165.638 1.94996 -0.0128787 0
M  V30 1816 O 164.908 1.71599 0.945027 0
M  V30 1817 H 163.488 0.539594 -0.516573 0
M  V30 1818 H 166.15 0.825201 -1.76569 0
M  V30 1819 H 165.246 2.31817 -2.08967 0
M  V30 1820 N 165.547 1.27147 0.931209 0
M  V30 1821 C 166.794 1.13278 1.67852 0
M  V30 1822 C 167.122 -0.32204 1.91815 0
M  V30 1823 O 166.377 -1.25224 1.50391 0
M  V30 1824 C 166.676 1.8579 3.05314 0
M  V30 1825 C 166.342 3.35657 3.01073 0
M  V30 1826 C 165.004 3.76536 2.99623 0
M  V30 1827 C 167.356 4.31299 2.92627 0
M  V30 1828 C 164.684 5.11426 2.87506 0
M  V30 1829 C 167.036 5.66242 2.82051 0
M  V30 1830 C 165.7 6.06418 2.7895 0
M  V30 1831 H 164.97 0.414515 0.614214 0
M  V30 1832 H 167.617 1.57712 1.08624 0
M  V30 1833 H 165.922 1.33854 3.68226 0
M  V30 1834 H 167.619 1.72491 3.62005 0
M  V30 1835 H 164.209 3.03146 3.02986 0
M  V30 1836 H 168.393 4.00692 2.92848 0
M  V30 1837 H 163.649 5.41705 2.83489 0
M  V30 1838 H 167.823 6.40026 2.74481 0
M  V30 1839 H 165.45 7.10895 2.69318 0
M  V30 1840 N 167.025 -1.13721 1.09112 0
M  V30 1841 C 168.25 -1.89314 0.847053 0
M  V30 1842 C 168.675 -1.78416 -0.595774 0
M  V30 1843 O 168.033 -1.12942 -1.41823 0
M  V30 1844 C 168.081 -3.3701 1.28284 0
M  V30 1845 O 167.185 -4.10054 0.439267 0
M  V30 1846 H 166.526 -0.588745 0.307044 0
M  V30 1847 H 169.056 -1.43902 1.45442 0
M  V30 1848 H 169.066 -3.87834 1.26683 0
M  V30 1849 H 167.741 -3.4426 2.33363 0
M  V30 1850 H 166.318 -3.69266 0.519312 0
M  V30 1851 N 168.503 -0.877838 -1.30888 0
M  V30 1852 C 169.751 -0.491723 -1.96027 0
M  V30 1853 C 170.072 0.960827 -1.69685 0
M  V30 1854 O 169.342 1.67462 -1.01654 0
M  V30 1855 H 167.922 -0.17885 -0.725273 0
M  V30 1856 H 170.584 -1.11935 -1.59551 0
M  V30 1857 H 169.68 -0.656016 -3.05128 0
M  V30 1858 N 169.982 1.44106 -0.638065 0
M  V30 1859 C 170.93 2.3248 0.0748149 0
M  V30 1860 C 171.924 1.47746 0.828702 0
M  V30 1861 O 173.13 1.64049 0.740816 0
M  V30 1862 H 169.505 0.750771 0.0429686 0
M  V30 1863 H 171.476 2.90348 -0.688504 0
M  V30 1864 C 170.225 3.31843 1.03805 0
M  V30 1865 H 169.548 3.97059 0.467375 0
M  V30 1866 H 170.988 3.96345 1.50622 0
M  V30 1867 C 169.447 2.61291 2.1267 0
M  V30 1868 O 169.977 2.41702 3.20847 0
M  V30 1869 N 168.183 2.20915 1.88798 0
M  V30 1870 H 167.73 2.37047 1.00829 0
M  V30 1871 H 167.688 1.74038 2.61836 0
M  V30 1872 N 171.46 0.379036 1.52974 0
M  V30 1873 C 172.688 -0.20679 2.05864 0
M  V30 1874 C 173.103 -1.41356 1.25155 0
M  V30 1875 O 172.46 -1.8009 0.295588 0
M  V30 1876 C 172.511 -0.587045 3.56702 0
M  V30 1877 O 172.232 0.571776 4.34353 0
M  V30 1878 C 173.733 -1.22983 4.25899 0
M  V30 1879 H 170.953 -0.0336123 0.670158 0
M  V30 1880 H 173.497 0.541298 1.97206 0
M  V30 1881 H 171.652 -1.28504 3.65466 0
M  V30 1882 H 172.066 0.261544 5.23847 0
M  V30 1883 H 173.54 -1.44635 5.32715 0
M  V30 1884 H 174.017 -2.19416 3.80465 0
M  V30 1885 H 174.623 -0.572892 4.21424 0
M  V30 1886 N 172.938 -1.57226 0.108567 0
M  V30 1887 C 174.166 -1.99179 -0.559954 0
M  V30 1888 C 174.581 -0.988022 -1.60884 0
M  V30 1889 O 173.938 0.0205512 -1.82488 0
M  V30 1890 C 173.989 -3.41159 -1.19552 0
M  V30 1891 O 173.71 -4.37694 -0.188577 0
M  V30 1892 C 175.211 -3.98188 -1.94837 0
M  V30 1893 H 172.431 -0.654228 -0.149088 0
M  V30 1894 H 174.975 -2.03598 0.19183 0
M  V30 1895 H 173.13 -3.37711 -1.89815 0
M  V30 1896 H 173.544 -5.20469 -0.649014 0
M  V30 1897 H 175.018 -4.99644 -2.34648 0
M  V30 1898 H 175.495 -3.3675 -2.81951 0
M  V30 1899 H 176.101 -4.0515 -1.2936 0
M  V30 1900 N 174.416 0.165178 -1.56732 0
M  V30 1901 C 175.346 1.20651 -1.99914 0
M  V30 1902 C 176.327 1.45827 -0.875705 0
M  V30 1903 O 177.512 1.57057 -1.14223 0
M  V30 1904 C 174.642 2.54401 -2.36427 0
M  V30 1905 C 173.596 2.43782 -3.51787 0
M  V30 1906 C 172.922 3.82078 -3.7406 0
M  V30 1907 C 174.222 1.93732 -4.85041 0
M  V30 1908 H 175.916 0.847534 -2.87154 0
M  V30 1909 H 173.462 0.40625 -1.38151 0
M  V30 1910 H 175.415 3.27458 -2.65234 0
M  V30 1911 H 174.139 2.92098 -1.46103 0
M  V30 1912 H 172.798 1.73178 -3.23117 0
M  V30 1913 H 172.446 4.17179 -2.81017 0
M  V30 1914 H 172.146 3.7584 -4.51684 0
M  V30 1915 H 173.67 4.56712 -4.05274 0
M  V30 1916 H 175.084 2.56569 -5.12684 0
M  V30 1917 H 173.481 1.98428 -5.66345 0
M  V30 1918 H 174.551 0.891962 -4.76626 0
M  V30 1919 N 175.894 1.51508 0.433938 0
M  V30 1920 C 177.141 1.64345 1.18309 0
M  V30 1921 C 177.469 0.361315 1.91115 0
M  V30 1922 O 176.724 -0.654753 1.84422 0
M  V30 1923 C 177.023 2.79928 2.22205 0
M  V30 1924 C 176.689 4.19078 1.66387 0
M  V30 1925 C 175.351 4.56932 1.50887 0
M  V30 1926 C 177.703 5.05894 1.25381 0
M  V30 1927 C 175.031 5.79305 0.928608 0
M  V30 1928 C 177.383 6.2885 0.687823 0
M  V30 1929 C 176.047 6.65473 0.519755 0
M  V30 1930 H 175.317 0.601381 0.432923 0
M  V30 1931 H 177.964 1.85549 0.473676 0
M  V30 1932 H 176.269 2.52959 2.99197 0
M  V30 1933 H 177.966 2.87059 2.79997 0
M  V30 1934 H 174.556 3.89234 1.79428 0
M  V30 1935 H 178.74 4.77253 1.36175 0
M  V30 1936 H 173.996 6.06324 0.786186 0
M  V30 1937 H 178.17 6.95461 0.361581 0
M  V30 1938 H 175.797 7.6017 0.0679979 0
M  V30 1939 N 177.372 -0.689602 1.41712 0
M  V30 1940 C 178.597 -1.48329 1.44959 0
M  V30 1941 C 179.022 -1.8801 0.0581283 0
M  V30 1942 O 178.38 -1.55026 -0.940035 0
M  V30 1943 C 178.428 -2.71835 2.36935 0
M  V30 1944 O 177.532 -3.69549 1.8305 0
M  V30 1945 H 176.873 -0.446199 0.491734 0
M  V30 1946 H 179.403 -0.847127 1.86239 0
M  V30 1947 H 179.413 -3.20076 2.53013 0
M  V30 1948 H 178.088 -2.42291 3.38035 0
M  V30 1949 H 176.665 -3.2851 1.76452 0
M  V30 1950 N 178.85 -1.27639 -0.924453 0
M  V30 1951 C 180.09 -1.15407 -1.68703 0
M  V30 1952 C 180.454 0.294581 -1.89727 0
M  V30 1953 O 181.655 0.539385 -2.63333 0
M  V30 1954 C 179.926 -1.9195 -3.0148 0
M  V30 1955 S 181.485 -1.95969 -3.92609 0
M  V30 1956 H 178.303 -0.411937 -0.579507 0
M  V30 1957 H 180.905 -1.61592 -1.10038 0
M  V30 1958 H 179.609 -2.96387 -2.83871 0
M  V30 1959 H 179.14 -1.46272 -3.65196 0
M  V30 1960 H 181.155 -1.05846 -4.84779 0
M  V30 1961 N 180.328 1.1314 -1.09713 0
M  V30 1962 C 181.553 1.88862 -0.857081 0
M  V30 1963 C 181.978 1.78729 0.586304 0
M  V30 1964 O 181.336 1.13692 1.41222 0
M  V30 1965 C 181.384 3.36325 -1.30069 0
M  V30 1966 O 180.488 4.09815 -0.461007 0
M  V30 1967 H 179.829 0.587108 -0.310162 0
M  V30 1968 H 182.359 1.43129 -1.46203 0
M  V30 1969 H 182.369 3.87157 -1.28738 0
M  V30 1970 H 181.044 3.43017 -2.35185 0
M  V30 1971 H 179.621 3.68986 -0.538888 0
M  V30 1972 N 181.806 0.884767 1.30421 0
M  V30 1973 C 182.756 0.322846 2.25703 0
M  V30 1974 C 183.74 -0.548582 1.51259 0
M  V30 1975 O 184.932 -0.39304 1.72581 0
M  V30 1976 C 182.061 -0.461787 3.4018 0
M  V30 1977 C 181.147 0.423717 4.21978 0
M  V30 1978 N 181.538 1.52408 4.82292 0
M  V30 1979 C 179.836 0.218795 4.45463 0
M  V30 1980 C 180.537 2.07136 5.43571 0
M  V30 1981 N 179.513 1.36635 5.26148 0
M  V30 1982 H 183.315 1.16363 2.69883 0
M  V30 1983 H 180.829 0.73415 1.44859 0
M  V30 1984 H 182.826 -0.880985 4.07485 0
M  V30 1985 H 181.486 -1.30001 2.9754 0
M  V30 1986 H 182.497 1.90693 4.81515 0
M  V30 1987 H 179.174 -0.582275 4.1342 0
M  V30 1988 H 180.564 2.99538 6.01437 0
M  V30 1989 N 183.284 -1.43765 0.645699 0
M  V30 1990 C 184.232 -2.32516 -0.0624849 0
M  V30 1991 C 185.226 -1.48183 -0.820855 0
M  V30 1992 O 186.432 -1.64439 -0.732106 0
M  V30 1993 H 182.807 -0.750989 -0.0389864 0
M  V30 1994 H 184.778 -2.89979 0.703892 0
M  V30 1995 C 183.527 -3.32389 -1.02044 0
M  V30 1996 H 182.85 -3.97301 -0.446312 0
M  V30 1997 H 184.29 -3.97138 -1.48517 0
M  V30 1998 C 182.749 -2.62416 -2.11281 0
M  V30 1999 O 183.279 -2.434 -3.19561 0
M  V30 2000 N 181.485 -2.21913 -1.87624 0
M  V30 2001 H 181.032 -2.37578 -0.995703 0
M  V30 2002 H 180.99 -1.75424 -2.6091 0
M  V30 2003 N 184.763 -0.387143 -1.52771 0
M  V30 2004 C 186.01 0.195735 -2.01552 0
M  V30 2005 C 186.338 1.46995 -1.27369 0
M  V30 2006 O 185.593 1.92325 -0.361879 0
M  V30 2007 C 185.892 0.512209 -3.53711 0
M  V30 2008 C 185.558 -0.670202 -4.45891 0
M  V30 2009 C 184.22 -0.994586 -4.70809 0
M  V30 2010 C 186.572 -1.46134 -5.00294 0
M  V30 2011 C 183.9 -2.11169 -5.4738 0
M  V30 2012 C 186.252 -2.56903 -5.78086 0
M  V30 2013 C 184.916 -2.89852 -6.01284 0
M  V30 2014 H 184.186 0.0716246 -0.73753 0
M  V30 2015 H 186.833 -0.524046 -1.8419 0
M  V30 2016 H 185.138 1.31329 -3.69134 0
M  V30 2017 H 186.835 0.975804 -3.88946 0
M  V30 2018 H 183.425 -0.407366 -4.2666 0
M  V30 2019 H 187.609 -1.22397 -4.80971 0
M  V30 2020 H 182.865 -2.3707 -5.63567 0
M  V30 2021 H 187.039 -3.18608 -6.19243 0
M  V30 2022 H 184.666 -3.76533 -6.60399 0
M  V30 2023 N 186.241 1.57166 -0.116904 0
M  V30 2024 C 187.487 1.96206 0.536166 0
M  V30 2025 C 187.842 0.99915 1.64422 0
M  V30 2026 O 187.135 0.0288195 1.91578 0
M  V30 2027 C 187.329 3.39508 1.11664 0
M  V30 2028 C 187.158 4.49651 0.0663474 0
M  V30 2029 C 185.928 5.03982 -0.36474 0
M  V30 2030 C 188.126 5.09322 -0.713829 0
M  V30 2031 N 186.108 5.97699 -1.40102 0
M  V30 2032 C 187.479 5.98963 -1.60136 0
M  V30 2033 C 189.534 4.91989 -0.764948 0
M  V30 2034 C 188.237 6.73128 -2.53556 0
M  V30 2035 C 190.263 5.66833 -1.68685 0
M  V30 2036 C 189.625 6.56158 -2.56196 0
M  V30 2037 H 185.724 0.764203 0.165886 0
M  V30 2038 H 188.308 1.93623 -0.204535 0
M  V30 2039 H 186.479 3.42743 1.82707 0
M  V30 2040 H 188.211 3.65677 1.73386 0
M  V30 2041 H 184.966 4.73592 0.027252 0
M  V30 2042 H 185.39 6.49262 -1.91802 0
M  V30 2043 H 190.032 4.22676 -0.102501 0
M  V30 2044 H 187.75 7.41689 -3.20816 0
M  V30 2045 H 191.336 5.55427 -1.73181 0
M  V30 2046 H 190.216 7.13057 -3.26372 0
M  V30 2047 N 187.719 -0.156864 1.56817 0
M  V30 2048 C 188.649 -1.19589 2.00551 0
M  V30 2049 C 189.63 -1.4536 0.883426 0
M  V30 2050 O 190.815 -1.56449 1.15054 0
M  V30 2051 C 187.945 -2.53143 2.37773 0
M  V30 2052 C 186.899 -2.41913 3.53075 0
M  V30 2053 C 186.225 -3.80088 3.76081 0
M  V30 2054 C 187.525 -1.91157 4.86062 0
M  V30 2055 H 189.219 -0.832293 2.87599 0
M  V30 2056 H 186.765 -0.398918 1.38364 0
M  V30 2057 H 188.718 -3.26047 2.66967 0
M  V30 2058 H 187.442 -2.91319 1.4765 0
M  V30 2059 H 186.101 -1.71462 3.24031 0
M  V30 2060 H 185.749 -4.15683 2.83225 0
M  V30 2061 H 185.449 -3.73439 4.53671 0
M  V30 2062 H 186.973 -4.54556 4.0769 0
M  V30 2063 H 188.387 -2.53846 5.14038 0
M  V30 2064 H 186.784 -1.95422 5.67389 0
M  V30 2065 H 187.854 -0.866673 4.77092 0
M  V30 2066 N 189.197 -1.51736 -0.425897 0
M  V30 2067 C 190.16 -1.73271 -1.50032 0
M  V30 2068 C 191.16 -0.602639 -1.4908 0
M  V30 2069 O 192.35 -0.87033 -1.509 0
M  V30 2070 C 189.482 -1.79969 -2.89523 0
M  V30 2071 H 190.675 -2.69172 -1.32237 0
M  V30 2072 H 188.228 -1.41899 -0.65532 0
M  V30 2073 H 188.963 -0.859241 -3.1271 0
M  V30 2074 H 188.748 -2.62109 -2.91619 0
M  V30 2075 H 190.238 -1.9843 -3.67444 0
M  V30 2076 N 190.675 0.682077 -1.42076 0
M  V30 2077 C 191.924 1.43786 -1.41451 0
M  V30 2078 C 192.237 1.95574 -0.0317074 0
M  V30 2079 O 193.443 2.71326 0.0971462 0
M  V30 2080 C 191.899 2.60071 -2.48779 0
M  V30 2081 C 191.507 2.15013 -3.93031 0
M  V30 2082 C 193.251 3.37626 -2.57311 0
M  V30 2083 C 191.158 3.28336 -4.91883 0
M  V30 2084 H 190.088 0.540143 -0.526082 0
M  V30 2085 H 192.739 0.739157 -1.67955 0
M  V30 2086 H 191.121 3.32275 -2.15429 0
M  V30 2087 H 192.295 1.5001 -4.35699 0
M  V30 2088 H 190.61 1.50416 -3.88284 0
M  V30 2089 H 193.207 4.22012 -3.28345 0
M  V30 2090 H 193.55 3.83727 -1.61429 0
M  V30 2091 H 194.083 2.72488 -2.89819 0
M  V30 2092 H 190.822 2.87234 -5.89217 0
M  V30 2093 H 190.342 3.92145 -4.53853 0
M  V30 2094 H 192.021 3.93913 -5.13265 0
M  V30 2095 N 192.153 1.28127 0.917671 0
M  V30 2096 C 193.43 1.05761 1.64542 0
M  V30 2097 C 193.81 -0.404344 2.07191 0
M  V30 2098 O 193.158 -1.38963 1.81388 0
M  V30 2099 C 193.368 2.02857 2.83989 0
M  V30 2100 C 194.716 2.32786 3.551 0
M  V30 2101 O 195.74 2.0091 2.94132 0
M  V30 2102 O 194.599 2.87169 4.64969 0
M  V30 2103 H 191.693 0.403916 0.721652 0
M  V30 2104 H 194.239 1.39431 0.967322 0
M  V30 2105 H 193.011 3.01407 2.49538 0
M  V30 2106 H 192.634 1.69809 3.59514 0
M  V30 2107 N 193.631 -1.12557 1.10312 0
M  V30 2108 C 194.564 -2.1737 0.694674 0
M  V30 2109 C 195.542 -1.59745 -0.303373 0
M  V30 2110 O 196.726 -1.87408 -0.202578 0
M  V30 2111 C 193.853 -3.38691 0.0248052 0
M  V30 2112 C 192.899 -4.14943 0.986121 0
M  V30 2113 S 193.732 -4.73413 2.50281 0
M  V30 2114 C 194.888 -5.9807 1.84562 0
M  V30 2115 H 195.121 -2.5168 1.58255 0
M  V30 2116 H 192.654 -1.23998 0.919992 0
M  V30 2117 H 194.612 -4.08959 -0.355361 0
M  V30 2118 H 193.273 -3.02664 -0.839851 0
M  V30 2119 H 192.466 -5.01854 0.464651 0
M  V30 2120 H 192.068 -3.50377 1.30813 0
M  V30 2121 H 194.36 -6.67232 1.17507 0
M  V30 2122 H 195.303 -6.54841 2.69423 0
M  V30 2123 H 195.711 -5.49073 1.31069 0
M  V30 2124 N 195.109 -0.891671 -1.2995 0
M  V30 2125 C 196.334 -0.527932 -2.00568 0
M  V30 2126 C 196.759 0.877969 -1.66353 0
M  V30 2127 O 196.117 1.58301 -0.883762 0
M  V30 2128 C 196.165 -0.717745 -3.53385 0
M  V30 2129 O 195.269 0.233376 -4.11739 0
M  V30 2130 H 194.61 -0.20722 -0.630837 0
M  V30 2131 H 197.14 -1.20105 -1.65638 0
M  V30 2132 H 197.15 -0.619307 -4.03272 0
M  V30 2133 H 195.825 -1.74276 -3.77625 0
M  V30 2134 H 194.402 0.0880706 -3.72796 0
M  V30 2135 N 196.587 1.43421 -0.653314 0
M  V30 2136 C 197.834 2.01812 -0.166745 0
M  V30 2137 C 198.162 1.51535 1.21931 0
M  V30 2138 O 197.417 0.698975 1.82792 0
M  V30 2139 C 197.716 3.57176 -0.126623 0
M  V30 2140 C 197.382 4.26798 -1.45444 0
M  V30 2141 C 196.044 4.45534 -1.81805 0
M  V30 2142 C 198.396 4.66225 -2.32989 0
M  V30 2143 C 195.724 5.00961 -3.05377 0
M  V30 2144 C 198.076 5.23021 -3.55853 0
M  V30 2145 C 196.74 5.39973 -3.9241 0
M  V30 2146 H 196.01 0.738484 -0.0610162 0
M  V30 2147 H 198.657 1.71896 -0.84404 0
M  V30 2148 H 196.962 3.86634 0.634123 0
M  V30 2149 H 198.659 4.00112 0.266723 0
M  V30 2150 H 195.249 4.12561 -1.16153 0
M  V30 2151 H 199.433 4.51443 -2.06187 0
M  V30 2152 H 194.689 5.12271 -3.3375 0
M  V30 2153 H 198.863 5.52518 -4.23907 0
M  V30 2154 H 196.49 5.82687 -4.88242 0
M  V30 2155 N 198.065 0.39524 1.52563 0
M  V30 2156 C 198.975 -0.444232 2.30356 0
M  V30 2157 C 199.991 -1.06615 1.37511 0
M  V30 2158 O 201.167 -1.07067 1.70583 0
M  V30 2159 C 198.232 -1.55315 3.09964 0
M  V30 2160 C 197.293 -0.955734 4.18526 0
M  V30 2161 C 196.526 -2.01181 4.9433 0
M  V30 2162 O 196.749 -3.22781 4.70285 0
M  V30 2163 O 195.683 -1.62579 5.79527 0
M  V30 2164 H 199.509 0.189667 3.03107 0
M  V30 2165 H 197.094 0.1588 1.48554 0
M  V30 2166 H 198.976 -2.19724 3.59582 0
M  V30 2167 H 197.651 -2.17191 2.4002 0
M  V30 2168 H 196.558 -0.274743 3.7309 0
M  V30 2169 H 197.891 -0.381109 4.90722 0
M  V30 2170 N 199.544 -1.57102 0.125237 0
M  V30 2171 C 200.955 -1.82384 -0.399142 0
M  V30 2172 C 201.306 -1.04276 -1.66195 0
M  V30 2173 O 200.431 -0.281269 -2.14564 0
M  V30 2174 C 201.026 -3.30821 -0.730932 0
M  V30 2175 C 199.585 -3.56762 -1.19992 0
M  V30 2176 C 198.732 -2.7649 -0.211792 0
M  V30 2177 H 201.683 -1.54786 0.350277 0
M  V30 2178 H 201.704 -3.4579 -1.58775 0
M  V30 2179 H 201.216 -3.87643 0.188345 0
M  V30 2180 H 199.317 -3.05305 -2.13588 0
M  V30 2181 H 199.43 -4.65317 -1.14093 0
M  V30 2182 H 197.794 -2.4489 -0.700085 0
M  V30 2183 H 198.577 -3.36073 0.700691 0
M  V30 2184 N 201.022 0.148545 -1.56898 0
M  V30 2185 C 202.433 0.708766 -1.72723 0
M  V30 2186 C 202.784 1.81734 -0.739395 0
M  V30 2187 O 201.909 2.16194 0.0943169 0
M  V30 2188 C 202.504 1.29245 -3.13179 0
M  V30 2189 C 201.063 1.79925 -3.30611 0
M  V30 2190 C 200.21 0.687111 -2.68652 0
M  V30 2191 H 203.161 -0.0771063 -1.58513 0
M  V30 2192 H 203.182 2.16224 -3.13093 0
M  V30 2193 H 202.694 0.485382 -3.85053 0
M  V30 2194 H 200.795 2.63203 -2.63732 0
M  V30 2195 H 200.908 1.92903 -4.38549 0
M  V30 2196 H 199.272 1.11335 -2.29078 0
M  V30 2197 H 200.055 -0.108483 -3.43129 0
M  V30 2198 N 202.5 1.5196 0.417844 0
M  V30 2199 C 203.41 1.77554 1.53336 0
M  V30 2200 C 204.426 0.660655 1.6097 0
M  V30 2201 O 205.602 0.945099 1.77848 0
M  V30 2202 C 202.667 1.91291 2.89152 0
M  V30 2203 C 201.728 3.15183 2.91475 0
M  V30 2204 C 200.961 3.28256 4.20813 0
M  V30 2205 O 201.184 2.46798 5.14244 0
M  V30 2206 O 200.118 4.21356 4.29817 0
M  V30 2207 H 203.944 2.7222 1.34647 0
M  V30 2208 H 201.529 1.36698 0.602828 0
M  V30 2209 H 203.411 2.02199 3.69721 0
M  V30 2210 H 202.086 0.998129 3.07927 0
M  V30 2211 H 200.993 3.09739 2.09791 0
M  V30 2212 H 202.326 4.06414 2.77648 0
M  V30 2213 N 203.978 -0.674533 1.42435 0
M  V30 2214 C 205.225 -1.43459 1.42919 0
M  V30 2215 C 205.553 -1.94446 0.0457312 0
M  V30 2216 O 204.808 -1.7132 -0.94593 0
M  V30 2217 C 205.107 -2.64767 2.40069 0
M  V30 2218 C 204.773 -2.3232 3.86443 0
M  V30 2219 C 203.435 -2.23182 4.26314 0
M  V30 2220 C 205.787 -2.05977 4.78773 0
M  V30 2221 C 203.115 -1.85827 5.56494 0
M  V30 2222 C 205.467 -1.70125 6.09295 0
M  V30 2223 C 204.131 -1.59498 6.48164 0
M  V30 2224 H 203.401 -0.524952 0.522978 0
M  V30 2225 H 206.048 -0.769097 1.75377 0
M  V30 2226 H 204.353 -3.36349 2.00939 0
M  V30 2227 H 206.05 -3.22949 2.37707 0
M  V30 2228 H 202.64 -2.40334 3.54877 0
M  V30 2229 H 206.824 -2.11969 4.48757 0
M  V30 2230 H 202.08 -1.76168 5.8547 0
M  V30 2231 H 206.254 -1.48767 6.80324 0
M  V30 2232 H 203.881 -1.30322 7.48946 0
M  V30 2233 N 205.456 -1.28612 -0.910864 0
M  V30 2234 C 206.366 -1.14643 -2.0468 0
M  V30 2235 C 207.382 -0.0723121 -1.7385 0
M  V30 2236 O 208.558 -0.282178 -1.99413 0
M  V30 2237 C 205.623 -0.812561 -3.37044 0
M  V30 2238 C 204.684 -1.96935 -3.81465 0
M  V30 2239 C 203.917 -1.65131 -5.07511 0
M  V30 2240 O 204.14 -0.567013 -5.67575 0
M  V30 2241 O 203.074 -2.49585 -5.47714 0
M  V30 2242 H 206.9 -2.1001 -2.19384 0
M  V30 2243 H 204.485 -1.07958 -1.03274 0
M  V30 2244 H 206.367 -0.640441 -4.16505 0
M  V30 2245 H 205.042 0.111426 -3.23508 0
M  V30 2246 H 203.949 -2.19664 -3.02818 0
M  V30 2247 H 205.282 -2.87414 -3.99567 0
M  V30 2248 N 206.934 1.1197 -1.10907 0
M  V30 2249 C 208.183 1.82947 -0.849302 0
M  V30 2250 C 208.496 1.85275 0.627112 0
M  V30 2251 O 209.702 2.52296 1.00295 0
M  V30 2252 C 208.158 3.28529 -1.46959 0
M  V30 2253 C 207.766 3.34546 -2.97965 0
M  V30 2254 C 209.51 4.04443 -1.28942 0
M  V30 2255 C 207.417 4.74491 -3.53004 0
M  V30 2256 H 206.347 0.685477 -0.314065 0
M  V30 2257 H 208.998 1.2604 -1.33365 0
M  V30 2258 H 207.38 3.85333 -0.912917 0
M  V30 2259 H 208.554 2.87654 -3.59989 0
M  V30 2260 H 206.869 2.72108 -3.15192 0
M  V30 2261 H 209.466 5.07787 -1.67502 0
M  V30 2262 H 209.809 4.15656 -0.231456 0
M  V30 2263 H 210.342 3.5401 -1.81443 0
M  V30 2264 H 207.081 4.68474 -4.58489 0
M  V30 2265 H 206.601 5.21816 -2.9575 0
M  V30 2266 H 208.28 5.4344 -3.51115 0
M  V30 2267 N 208.412 0.89855 1.29475 0
M  V30 2268 C 209.658 0.524658 1.95896 0
M  V30 2269 C 209.991 -0.926468 1.70676 0
M  V30 2270 O 209.266 -1.65665 1.01908 0
M  V30 2271 C 209.549 0.81633 3.50725 0
M  V30 2272 C 209.402 2.31907 3.85408 0
M  V30 2273 C 210.721 0.302038 4.39062 0
M  V30 2274 H 207.84 0.19209 0.711527 0
M  V30 2275 H 210.482 1.12502 1.53112 0
M  V30 2276 H 208.632 0.305369 3.87298 0
M  V30 2277 H 210.304 2.89949 3.58786 0
M  V30 2278 H 208.547 2.78027 3.32992 0
M  V30 2279 H 209.218 2.47373 4.93468 0
M  V30 2280 H 211.694 0.739551 4.09475 0
M  V30 2281 H 210.57 0.535331 5.46283 0
M  V30 2282 H 210.831 -0.797216 4.34853 0
M  V30 2283 N 209.89 -1.43072 0.660911 0
M  V30 2284 C 211.138 -2.01323 0.177094 0
M  V30 2285 C 211.459 -1.5245 -1.2159 0
M  V30 2286 O 210.729 -0.740322 -1.81373 0
M  V30 2287 H 209.309 -0.744382 0.0624804 0
M  V30 2288 H 211.971 -1.75179 0.854305 0
M  V30 2289 H 211.067 -3.11649 0.167641 0
M  V30 2290 N 211.368 -0.403325 -1.52352 0
M  V30 2291 C 212.615 0.174347 -2.01748 0
M  V30 2292 C 212.943 1.45636 -1.2892 0
M  V30 2293 O 212.198 1.9193 -0.382258 0
M  V30 2294 C 212.497 0.474665 -3.54234 0
M  V30 2295 C 212.163 -0.717458 -4.45155 0
M  V30 2296 C 210.825 -1.04447 -4.69728 0
M  V30 2297 C 213.177 -1.51432 -4.98716 0
M  V30 2298 C 210.505 -2.16963 -5.45109 0
M  V30 2299 C 212.857 -2.6302 -5.75329 0
M  V30 2300 C 211.521 -2.96213 -5.98175 0
M  V30 2301 H 210.791 0.0637981 -0.738248 0
M  V30 2302 H 213.438 -0.543553 -1.83624 0
M  V30 2303 H 211.743 1.27406 -3.70506 0
M  V30 2304 H 213.44 0.934496 -3.89959 0
M  V30 2305 H 210.03 -0.452596 -4.26204 0
M  V30 2306 H 214.214 -1.27491 -4.79645 0
M  V30 2307 H 209.47 -2.43034 -5.61021 0
M  V30 2308 H 213.644 -3.25158 -6.15829 0
M  V30 2309 H 211.271 -3.83516 -6.56368 0
M  V30 2310 N 212.846 1.57033 -0.133567 0
M  V30 2311 C 214.074 2.00044 0.528195 0
M  V30 2312 C 214.489 1.01349 1.59291 0
M  V30 2313 O 213.846 0.00848369 1.82498 0
M  V30 2314 C 213.897 3.43018 1.1411 0
M  V30 2315 O 213.618 4.37939 0.11892 0
M  V30 2316 C 215.119 4.01237 1.88477 0
M  V30 2317 H 212.339 0.656517 0.138661 0
M  V30 2318 H 214.883 2.03267 -0.224196 0
M  V30 2319 H 213.038 3.40688 1.84418 0
M  V30 2320 H 213.452 5.21436 0.56613 0
M  V30 2321 H 214.926 5.03314 2.26669 0
M  V30 2322 H 215.403 3.41193 2.76558 0
M  V30 2323 H 216.009 4.07156 1.22898 0
M  V30 2324 N 214.325 -0.140222 1.56975 0
M  V30 2325 C 215.273 -1.19207 1.99731 0
M  V30 2326 C 216.267 -1.44089 0.890777 0
M  V30 2327 O 217.473 -1.44301 1.07597 0
M  V30 2328 H 213.848 -0.40142 0.635898 0
M  V30 2329 H 215.819 -0.804813 2.87342 0
M  V30 2330 C 214.568 -2.51617 2.39967 0
M  V30 2331 H 213.891 -2.33303 3.24669 0
M  V30 2332 H 215.331 -3.23827 2.73701 0
M  V30 2333 C 213.79 -3.12654 1.25496 0
M  V30 2334 O 214.32 -3.97786 0.559371 0
M  V30 2335 N 212.526 -2.72206 1.01746 0
M  V30 2336 H 212.073 -2.03074 1.58489 0
M  V30 2337 H 212.031 -3.13377 0.253461 0
M  V30 2338 N 215.803 -1.52179 -0.40978 0
M  V30 2339 C 216.753 -1.71857 -1.49831 0
M  V30 2340 C 217.737 -0.572469 -1.50372 0
M  V30 2341 O 218.929 -0.829509 -1.56359 0
M  V30 2342 C 216.058 -1.87206 -2.87765 0
M  V30 2343 C 215.144 -3.07685 -2.91875 0
M  V30 2344 N 215.535 -4.30403 -2.65683 0
M  V30 2345 C 213.833 -3.07505 -3.23043 0
M  V30 2346 C 214.534 -5.11868 -2.76344 0
M  V30 2347 N 213.51 -4.47101 -3.09195 0
M  V30 2348 H 217.312 -2.64381 -1.28375 0
M  V30 2349 H 214.826 -1.50203 -0.617479 0
M  V30 2350 H 216.823 -1.99419 -3.66111 0
M  V30 2351 H 215.483 -0.958814 -3.10221 0
M  V30 2352 H 216.494 -4.58887 -2.4009 0
M  V30 2353 H 213.171 -2.25915 -3.51096 0
M  V30 2354 H 214.561 -6.19634 -2.59814 0
M  V30 2355 N 217.281 0.66697 -1.42791 0
M  V30 2356 C 218.53 1.42278 -1.42968 0
M  V30 2357 C 218.843 1.9553 -0.0524489 0
M  V30 2358 O 220.049 2.71414 0.068363 0
M  V30 2359 C 218.505 2.57418 -2.51524 0
M  V30 2360 C 218.113 2.10832 -3.9529 0
M  V30 2361 C 219.857 3.34878 -2.60877 0
M  V30 2362 C 217.764 3.23101 -4.95338 0
M  V30 2363 H 216.694 0.534533 -0.531781 0
M  V30 2364 H 219.345 0.721302 -1.68729 0
M  V30 2365 H 217.727 3.29971 -2.18941 0
M  V30 2366 H 218.901 1.4538 -4.37266 0
M  V30 2367 H 217.216 1.46289 -3.89857 0
M  V30 2368 H 219.813 4.18505 -3.32802 0
M  V30 2369 H 220.156 3.81993 -1.6549 0
M  V30 2370 H 220.689 2.69398 -2.92693 0
M  V30 2371 H 217.428 2.80969 -5.9223 0
M  V30 2372 H 216.948 3.87309 -4.57987 0
M  V30 2373 H 218.627 3.88447 -5.17415 0
M  V30 2374 N 218.759 1.29093 0.90403 0
M  V30 2375 C 219.707 1.13727 2.02901 0
M  V30 2376 C 220.701 0.0539853 1.69314 0
M  V30 2377 O 221.907 0.213469 1.7873 0
M  V30 2378 H 218.282 0.35117 0.664969 0
M  V30 2379 H 220.253 2.08982 2.13001 0
M  V30 2380 C 219.002 0.826066 3.37745 0
M  V30 2381 H 218.325 1.65164 3.64089 0
M  V30 2382 H 219.765 0.758559 4.17159 0
M  V30 2383 C 218.224 -0.470541 3.33598 0
M  V30 2384 O 218.754 -1.49792 3.72727 0
M  V30 2385 N 216.96 -0.474812 2.86695 0
M  V30 2386 H 216.507 0.361692 2.55048 0
M  V30 2387 H 216.465 -1.34236 2.84303 0
M  V30 2388 N 220.237 -1.11381 1.11499 0
M  V30 2389 C 221.483 -1.83403 0.865512 0
M  V30 2390 C 221.816 -1.84459 -0.607329 0
M  V30 2391 O 221.091 -1.29811 -1.44842 0
M  V30 2392 C 221.374 -3.30552 1.42855 0
M  V30 2393 C 221.227 -3.37886 2.96906 0
M  V30 2394 C 222.546 -4.26643 1.08 0
M  V30 2395 H 219.665 -0.665879 0.31587 0
M  V30 2396 H 222.307 -1.30601 1.37998 0
M  V30 2397 H 220.457 -3.75648 0.990985 0
M  V30 2398 H 222.129 -3.01343 3.49271 0
M  V30 2399 H 220.372 -2.78088 3.32941 0
M  V30 2400 H 221.043 -4.41458 3.31389 0
M  V30 2401 H 223.519 -3.89729 1.45775 0
M  V30 2402 H 222.395 -5.27986 1.50072 0
M  V30 2403 H 222.656 -4.42099 -0.00915037 0
M  V30 2404 N 221.715 -0.905404 -1.28997 0
M  V30 2405 C 222.648 -0.331959 -2.25773 0
M  V30 2406 C 223.626 0.559099 -1.52685 0
M  V30 2407 O 224.81 0.50463 -1.8162 0
M  V30 2408 C 221.937 0.526276 -3.34586 0
M  V30 2409 C 220.983 -0.298249 -4.25456 0
M  V30 2410 S 221.816 -1.69968 -5.0781 0
M  V30 2411 C 222.972 -0.848519 -6.20122 0
M  V30 2412 H 223.205 -1.15222 -2.74064 0
M  V30 2413 H 220.738 -0.706112 -1.37308 0
M  V30 2414 H 222.696 1.01565 -3.97737 0
M  V30 2415 H 221.357 1.32084 -2.84978 0
M  V30 2416 H 220.55 0.357607 -5.0273 0
M  V30 2417 H 220.152 -0.720968 -3.66985 0
M  V30 2418 H 222.444 -0.0744325 -6.77459 0
M  V30 2419 H 223.387 -1.59353 -6.89937 0
M  V30 2420 H 223.795 -0.400383 -5.63078 0
M  V30 2421 N 223.193 1.4272 -0.668489 0
M  V30 2422 C 224.439 2.01923 -0.188419 0
M  V30 2423 C 224.772 1.52704 1.19979 0
M  V30 2424 O 224.047 0.726566 1.8042 0
M  V30 2425 C 224.33 3.59451 -0.216085 0
M  V30 2426 C 224.183 4.18864 -1.6393 0
M  V30 2427 C 225.502 4.37903 0.439179 0
M  V30 2428 H 222.621 0.733674 -0.0699412 0
M  V30 2429 H 225.263 1.69822 -0.852076 0
M  V30 2430 H 223.413 3.86929 0.349012 0
M  V30 2431 H 225.085 4.02362 -2.25616 0
M  V30 2432 H 223.328 3.74933 -2.18193 0
M  V30 2433 H 223.999 5.27987 -1.61039 0
M  V30 2434 H 226.475 4.16079 -0.0417878 0
M  V30 2435 H 225.351 5.47519 0.389157 0
M  V30 2436 H 225.612 4.15303 1.51577 0
M  V30 2437 N 224.671 0.411399 1.52136 0
M  V30 2438 C 225.618 -0.412975 2.27075 0
M  V30 2439 C 226.588 -1.03912 1.29582 0
M  V30 2440 O 227.773 -1.06296 1.58448 0
M  V30 2441 C 224.913 -1.52247 3.09701 0
M  V30 2442 C 224.026 -0.917021 4.22155 0
M  V30 2443 C 223.161 -1.9994 4.92135 0
M  V30 2444 C 222.2 -1.37101 5.96548 0
M  V30 2445 N 221.337 -2.39364 6.60038 0
M  V30 2446 H 226.177 0.232499 2.97092 0
M  V30 2447 H 223.714 0.126496 1.46555 0
M  V30 2448 H 225.672 -2.17674 3.55913 0
M  V30 2449 H 224.302 -2.13794 2.41851 0
M  V30 2450 H 223.354 -0.151742 3.80097 0
M  V30 2451 H 224.666 -0.418006 4.97045 0
M  V30 2452 H 223.82 -2.73088 5.41763 0
M  V30 2453 H 222.559 -2.53208 4.16818 0
M  V30 2454 H 221.564 -0.624873 5.46237 0
M  V30 2455 H 222.789 -0.845998 6.7381 0
M  V30 2456 H 220.735 -2.91759 5.87548 0
M  V30 2457 H 220.652 -1.9428 7.3061 0
M  V30 2458 H 221.92 -3.12074 7.14304 0
M  V30 2459 N 226.149 -1.5696 0.141893 0
M  V30 2460 C 227.396 -1.9596 -0.510492 0
M  V30 2461 C 227.724 -1.02648 -1.65208 0
M  V30 2462 O 226.979 -0.0546947 -1.95624 0
M  V30 2463 C 227.278 -3.41242 -1.06249 0
M  V30 2464 C 226.944 -4.50882 -0.0398791 0
M  V30 2465 C 225.606 -4.80595 0.241247 0
M  V30 2466 C 227.958 -5.17058 0.65578 0
M  V30 2467 C 225.286 -5.73792 1.22393 0
M  V30 2468 C 227.638 -6.11313 1.62724 0
M  V30 2469 C 226.302 -6.39407 1.91612 0
M  V30 2470 H 225.572 -0.717068 -0.186802 0
M  V30 2471 H 228.219 -1.90142 0.227643 0
M  V30 2472 H 226.524 -3.43866 -1.87785 0
M  V30 2473 H 228.221 -3.68742 -1.57576 0
M  V30 2474 H 224.811 -4.27754 -0.269174 0
M  V30 2475 H 228.995 -4.94239 0.451779 0
M  V30 2476 H 224.251 -5.93853 1.45424 0
M  V30 2477 H 228.425 -6.61668 2.17183 0
M  V30 2478 H 226.052 -7.11427 2.6791 0
M  V30 2479 N 227.627 0.131896 -1.57047 0
M  V30 2480 C 229.038 0.690407 -1.73465 0
M  V30 2481 C 229.389 1.8094 -0.758629 0
M  V30 2482 O 228.514 2.16282 0.0713813 0
M  V30 2483 C 229.109 1.25916 -3.14532 0
M  V30 2484 C 227.668 1.76409 -3.32501 0
M  V30 2485 C 226.815 0.658579 -2.69366 0
M  V30 2486 H 229.766 -0.0939144 -1.58422 0
M  V30 2487 H 229.787 2.12892 -3.15369 0
M  V30 2488 H 229.299 0.444515 -3.85546 0
M  V30 2489 H 227.4 2.60391 -2.66509 0
M  V30 2490 H 227.513 1.88241 -4.4057 0
M  V30 2491 H 225.877 1.08899 -2.30246 0
M  V30 2492 H 226.66 -0.14487 -3.42994 0
M  V30 2493 N 229.106 1.52395 0.401703 0
M  V30 2494 C 230.331 1.70972 1.17403 0
M  V30 2495 C 230.756 0.421615 1.83314 0
M  V30 2496 O 230.114 -0.621564 1.70312 0
M  V30 2497 C 230.162 2.85151 2.20728 0
M  V30 2498 O 229.266 2.51238 3.27037 0
M  V30 2499 H 228.607 0.568927 0.342372 0
M  V30 2500 H 231.137 1.99131 0.469891 0
M  V30 2501 H 231.147 3.10279 2.64936 0
M  V30 2502 H 229.822 3.78603 1.7214 0
M  V30 2503 H 228.399 2.36808 2.88057 0
M  V30 2504 N 230.584 -0.659388 1.43143 0
M  V30 2505 C 231.833 -1.41518 1.43721 0
M  V30 2506 C 232.146 -1.95499 0.0628176 0
M  V30 2507 O 233.352 -2.71446 -0.0539683 0
M  V30 2508 C 231.808 -2.5608 2.52885 0
M  V30 2509 C 231.416 -2.08733 3.96402 0
M  V30 2510 C 233.16 -3.3349 2.62649 0
M  V30 2511 C 231.067 -3.20469 4.97045 0
M  V30 2512 H 229.997 -0.531705 0.534608 0
M  V30 2513 H 232.648 -0.712343 1.69109 0
M  V30 2514 H 231.03 -3.28805 2.20688 0
M  V30 2515 H 232.204 -1.43059 4.3803 0
M  V30 2516 H 230.519 -1.44219 3.90627 0
M  V30 2517 H 233.116 -4.16734 3.35017 0
M  V30 2518 H 233.459 -3.8111 1.67513 0
M  V30 2519 H 233.992 -2.67842 2.94118 0
M  V30 2520 H 230.731 -2.77824 5.93712 0
M  V30 2521 H 230.251 -3.84874 4.60034 0
M  V30 2522 H 231.93 -3.85698 5.19467 0
M  V30 2523 N 232.062 -1.29571 -0.897171 0
M  V30 2524 C 233.308 -1.17863 -1.65034 0
M  V30 2525 C 233.641 0.268729 -1.92332 0
M  V30 2526 O 232.916 1.19378 -1.53555 0
M  V30 2527 C 233.199 -1.995 -2.99786 0
M  V30 2528 C 233.052 -3.5239 -2.79538 0
M  V30 2529 C 234.371 -1.82335 -4.00552 0
M  V30 2530 H 231.49 -0.429528 -0.598895 0
M  V30 2531 H 234.132 -1.59072 -1.03905 0
M  V30 2532 H 232.282 -1.64485 -3.51962 0
M  V30 2533 H 233.954 -3.97401 -2.34244 0
M  V30 2534 H 232.197 -3.77187 -2.14273 0
M  V30 2535 H 232.868 -4.04787 -3.75302 0
M  V30 2536 H 235.344 -2.12924 -3.57495 0
M  V30 2537 H 234.22 -2.41801 -4.92771 0
M  V30 2538 H 234.481 -0.779209 -4.35179 0
M  V30 2539 N 233.54 1.10788 -1.12088 0
M  V30 2540 C 234.45 2.20599 -0.798338 0
M  V30 2541 C 235.466 1.72712 0.21135 0
M  V30 2542 O 236.642 2.01348 0.0458477 0
M  V30 2543 C 233.707 3.45771 -0.253674 0
M  V30 2544 C 232.768 4.08411 -1.32283 0
M  V30 2545 C 232.001 5.27608 -0.80406 0
M  V30 2546 O 232.224 5.69241 0.363478 0
M  V30 2547 O 231.158 5.8101 -1.57198 0
M  V30 2548 H 234.984 2.50614 -1.7154 0
M  V30 2549 H 232.569 1.19454 -0.897275 0
M  V30 2550 H 234.451 4.21376 0.0453691 0
M  V30 2551 H 233.126 3.1739 0.636005 0
M  V30 2552 H 232.033 3.34507 -1.67499 0
M  V30 2553 H 233.366 4.40986 -2.18614 0
M  V30 2554 N 235.018 0.912232 1.28515 0
M  V30 2555 C 235.928 0.404506 2.31086 0
M  V30 2556 C 236.944 -0.50707 1.66448 0
M  V30 2557 O 238.12 -0.393624 1.97516 0
M  V30 2558 C 235.185 -0.348572 3.44943 0
M  V30 2559 C 234.246 0.59604 4.25142 0
M  V30 2560 C 233.479 -0.121194 5.33562 0
M  V30 2561 O 233.702 -1.34317 5.5436 0
M  V30 2562 O 232.636 0.542716 5.99448 0
M  V30 2563 H 236.462 1.25579 2.76521 0
M  V30 2564 H 234.047 0.676998 1.33181 0
M  V30 2565 H 235.929 -0.77395 4.14232 0
M  V30 2566 H 234.604 -1.17571 3.01594 0
M  V30 2567 H 233.511 1.07079 3.58448 0
M  V30 2568 H 234.844 1.38995 4.72167 0
M  V30 2569 N 236.496 -1.42363 0.676048 0
M  V30 2570 C 237.406 -2.346 -0.00153389 0
M  V30 2571 C 238.422 -1.5516 -0.787485 0
M  V30 2572 O 239.598 -1.87723 -0.729521 0
M  V30 2573 C 236.663 -3.33705 -0.940298 0
M  V30 2574 C 235.724 -4.29042 -0.148739 0
M  V30 2575 C 234.957 -5.23413 -1.04279 0
M  V30 2576 O 235.18 -5.22749 -2.28232 0
M  V30 2577 O 234.114 -5.99795 -0.502925 0
M  V30 2578 H 237.94 -2.94082 0.758268 0
M  V30 2579 H 235.525 -1.42888 0.436289 0
M  V30 2580 H 237.407 -3.94586 -1.47917 0
M  V30 2581 H 236.082 -2.76695 -1.67993 0
M  V30 2582 H 234.989 -3.71571 0.43427 0
M  V30 2583 H 236.322 -4.89097 0.551805 0
M  V30 2584 N 237.974 -0.419461 -1.51915 0
M  V30 2585 C 238.904 0.391813 -2.30189 0
M  V30 2586 C 239.885 1.03699 -1.34836 0
M  V30 2587 O 241.07 1.04403 -1.63748 0
M  V30 2588 C 238.2 1.50312 -3.13087 0
M  V30 2589 C 237.154 0.9824 -4.16573 0
M  V30 2590 C 236.48 2.18809 -4.8788 0
M  V30 2591 C 237.78 0.0292356 -5.22292 0
M  V30 2592 H 239.474 -0.26135 -2.98257 0
M  V30 2593 H 237.02 -0.127134 -1.43438 0
M  V30 2594 H 238.973 2.07773 -3.66617 0
M  V30 2595 H 237.697 2.18431 -2.42807 0
M  V30 2596 H 236.356 0.430119 -3.64068 0
M  V30 2597 H 236.004 2.85507 -4.14119 0
M  V30 2598 H 235.704 1.84615 -5.57845 0
M  V30 2599 H 237.228 2.76858 -5.44226 0
M  V30 2600 H 238.642 0.512976 -5.71 0
M  V30 2601 H 237.039 -0.2244 -5.9968 0
M  V30 2602 H 238.109 -0.912931 -4.76228 0
M  V30 2603 N 239.452 1.56882 -0.150215 0
M  V30 2604 C 240.384 2.14057 0.819286 0
M  V30 2605 C 241.397 1.09082 1.20851 0
M  V30 2606 O 242.586 1.36347 1.15203 0
M  V30 2607 C 239.686 2.65102 2.11127 0
M  V30 2608 C 238.859 3.94511 1.88891 0
M  V30 2609 C 237.918 4.30834 3.02107 0
M  V30 2610 O 236.944 4.99099 2.73659 0
M  V30 2611 N 238.146 3.90676 4.29363 0
M  V30 2612 H 240.911 2.97871 0.330618 0
M  V30 2613 H 238.472 1.61866 0.0332538 0
M  V30 2614 H 240.464 2.86411 2.85921 0
M  V30 2615 H 239.034 1.85994 2.51247 0
M  V30 2616 H 238.254 3.81795 0.981152 0
M  V30 2617 H 239.542 4.7907 1.71376 0
M  V30 2618 H 238.94 3.35677 4.55343 0
M  V30 2619 H 237.497 4.1703 5.00928 0
M  V30 2620 N 240.93 -0.123565 1.57115 0
M  V30 2621 C 242.177 -0.832153 1.84612 0
M  V30 2622 C 242.505 -1.80093 0.734627 0
M  V30 2623 O 241.76 -1.93766 -0.27442 0
M  V30 2624 C 242.059 -1.62016 3.18568 0
M  V30 2625 C 241.725 -0.796084 4.43817 0
M  V30 2626 C 240.387 -0.568816 4.77826 0
M  V30 2627 C 242.739 -0.221364 5.2073 0
M  V30 2628 C 240.067 0.243499 5.86194 0
M  V30 2629 C 242.419 0.578117 6.29953 0
M  V30 2630 C 241.083 0.815744 6.62497 0
M  V30 2631 H 240.353 -0.304507 0.675542 0
M  V30 2632 H 243 -0.0947248 1.91266 0
M  V30 2633 H 241.305 -2.42837 3.0747 0
M  V30 2634 H 243.002 -2.17231 3.37064 0
M  V30 2635 H 239.592 -0.983307 4.17168 0
M  V30 2636 H 243.776 -0.384173 4.94811 0
M  V30 2637 H 239.032 0.436871 6.09837 0
M  V30 2638 H 243.206 1.03046 6.88734 0
M  V30 2639 H 240.833 1.44701 7.46301 0
M  V30 2640 N 242.408 -1.52605 -0.393616 0
M  V30 2641 C 243.685 -1.58001 -1.15304 0
M  V30 2642 C 244.065 -0.370385 -2.07825 0
M  V30 2643 O 243.413 0.641638 -2.19306 0
M  V30 2644 C 243.623 -2.91652 -1.91677 0
M  V30 2645 C 244.971 -3.4522 -2.47201 0
M  V30 2646 O 245.995 -2.93495 -2.01839 0
M  V30 2647 O 244.854 -4.35579 -3.3005 0
M  V30 2648 H 241.948 -0.637068 -0.527327 0
M  V30 2649 H 244.494 -1.64939 -0.399141 0
M  V30 2650 H 243.266 -3.71136 -1.23992 0
M  V30 2651 H 242.889 -2.88077 -2.74039 0
M  V30 2652 N 243.887 0.651787 -1.4349 0
M  V30 2653 C 244.817 1.77621 -1.51569 0
M  V30 2654 C 245.798 1.66022 -0.370253 0
M  V30 2655 O 246.983 1.85095 -0.587658 0
M  V30 2656 C 244.113 3.16056 -1.43966 0
M  V30 2657 C 243.067 3.4242 -2.56774 0
M  V30 2658 C 242.393 4.8067 -2.34223 0
M  V30 2659 C 243.693 3.37023 -3.99015 0
M  V30 2660 H 245.387 1.71117 -2.45681 0
M  V30 2661 H 242.933 0.821825 -1.18246 0
M  V30 2662 H 244.886 3.94472 -1.48221 0
M  V30 2663 H 243.61 3.23293 -0.463586 0
M  V30 2664 H 242.269 2.66375 -2.51873 0
M  V30 2665 H 241.917 4.84585 -1.34856 0
M  V30 2666 H 241.617 4.9927 -3.09844 0
M  V30 2667 H 243.141 5.61342 -2.40265 0
M  V30 2668 H 244.555 4.05374 -4.05395 0
M  V30 2669 H 242.952 3.67159 -4.74673 0
M  V30 2670 H 244.022 2.3518 -4.2405 0
M  V30 2671 N 245.365 1.30045 0.890287 0
M  V30 2672 C 246.59 1.21598 1.68014 0
M  V30 2673 C 247.015 -0.218678 1.86825 0
M  V30 2674 O 246.373 -1.15756 1.39536 0
M  V30 2675 C 246.421 1.94434 3.03691 0
M  V30 2676 O 245.525 1.2678 3.92429 0
M  V30 2677 H 244.866 0.420856 0.513592 0
M  V30 2678 H 247.396 1.71775 1.11151 0
M  V30 2679 H 247.406 2.03251 3.5377 0
M  V30 2680 H 246.081 2.98777 2.89318 0
M  V30 2681 H 244.658 1.26282 3.50866 0
M  V30 2682 N 246.843 -1.10192 1.12674 0
M  V30 2683 C 247.773 -2.18652 0.819362 0
M  V30 2684 C 248.754 -1.68698 -0.217915 0
M  V30 2685 O 249.939 -1.94041 -0.0785581 0
M  V30 2686 C 247.069 -3.46202 0.27594 0
M  V30 2687 C 246.023 -4.09444 1.24656 0
M  V30 2688 C 245.349 -5.31725 0.563258 0
M  V30 2689 C 246.649 -4.52863 2.60217 0
M  V30 2690 H 248.343 -2.44622 1.72628 0
M  V30 2691 H 245.889 -1.17571 0.831451 0
M  V30 2692 H 247.842 -4.21372 0.0486149 0
M  V30 2693 H 246.566 -3.1973 -0.666331 0
M  V30 2694 H 245.225 -3.36284 1.45974 0
M  V30 2695 H 244.873 -5.0153 -0.384235 0
M  V30 2696 H 244.573 -5.74991 1.21075 0
M  V30 2697 H 246.097 -6.09624 0.34503 0
M  V30 2698 H 247.511 -5.19294 2.42913 0
M  V30 2699 H 245.908 -5.06986 3.21068 0
M  V30 2700 H 246.978 -3.65656 3.18471 0
M  V30 2701 N 248.321 -0.919034 -1.28029 0
M  V30 2702 C 249.567 -0.555757 -1.95036 0
M  V30 2703 C 249.9 0.899198 -1.72128 0
M  V30 2704 O 249.175 1.64023 -1.04531 0
M  V30 2705 C 249.458 -0.872024 -3.49382 0
M  V30 2706 C 249.311 -2.3801 -3.81669 0
M  V30 2707 C 250.63 -0.37185 -4.38526 0
M  V30 2708 H 247.749 -0.203386 -0.708381 0
M  V30 2709 H 250.391 -1.14924 -1.51303 0
M  V30 2710 H 248.541 -0.366946 -3.86763 0
M  V30 2711 H 250.213 -2.9562 -3.54128 0
M  V30 2712 H 248.456 -2.83289 -3.28526 0
M  V30 2713 H 249.127 -2.55192 -4.8947 0
M  V30 2714 H 251.603 -0.804602 -4.08247 0
M  V30 2715 H 250.479 -0.622173 -5.45362 0
M  V30 2716 H 250.74 0.727934 -4.36066 0
M  V30 2717 N 249.799 1.42003 -0.683588 0
M  V30 2718 C 251.048 2.00638 -0.206681 0
M  V30 2719 C 251.361 1.5472 1.19671 0
M  V30 2720 O 252.567 2.05833 1.77045 0
M  V30 2721 C 251.023 3.58487 -0.318632 0
M  V30 2722 C 250.631 4.1339 -1.72663 0
M  V30 2723 C 252.375 4.24384 0.0991141 0
M  V30 2724 C 250.282 5.63633 -1.79087 0
M  V30 2725 H 249.212 0.750408 -0.0735107 0
M  V30 2726 H 251.863 1.62624 -0.850048 0
M  V30 2727 H 250.245 3.94047 0.392781 0
M  V30 2728 H 251.419 3.89273 -2.46583 0
M  V30 2729 H 249.734 3.59976 -2.09299 0
M  V30 2730 H 252.331 5.34652 0.0713833 0
M  V30 2731 H 252.674 4.00505 1.13586 0
M  V30 2732 H 253.207 3.93816 -0.561599 0
M  V30 2733 H 249.946 5.92323 -2.80774 0
M  V30 2734 H 249.466 5.89714 -1.09535 0
M  V30 2735 H 251.145 6.28201 -1.5483 0
M  V30 2736 N 251.277 0.427512 1.51691 0
M  V30 2737 C 252.187 -0.39527 2.31246 0
M  V30 2738 C 253.203 -1.03674 1.39742 0
M  V30 2739 O 254.379 -1.03425 1.72816 0
M  V30 2740 C 251.444 -1.48706 3.13189 0
M  V30 2741 C 250.505 -0.866743 4.20459 0
M  V30 2742 C 249.738 -1.90651 4.98486 0
M  V30 2743 O 249.961 -3.12733 4.77026 0
M  V30 2744 O 248.895 -1.5025 5.82845 0
M  V30 2745 H 252.721 0.253918 3.02637 0
M  V30 2746 H 250.306 0.190274 1.48183 0
M  V30 2747 H 252.188 -2.12047 3.64162 0
M  V30 2748 H 250.863 -2.12051 2.44573 0
M  V30 2749 H 249.77 -0.195544 3.73589 0
M  V30 2750 H 251.103 -0.276934 4.9142 0
M  V30 2751 N 252.755 -1.56801 0.158532 0
M  V30 2752 C 253.665 -2.20916 -0.789518 0
M  V30 2753 C 254.681 -1.1969 -1.26294 0
M  V30 2754 O 255.857 -1.52308 -1.31773 0
M  V30 2755 C 252.922 -2.82727 -2.00665 0
M  V30 2756 C 251.983 -3.99114 -1.58134 0
M  V30 2757 C 251.216 -4.57968 -2.74045 0
M  V30 2758 O 251.439 -4.15704 -3.90572 0
M  V30 2759 O 250.373 -5.48047 -2.48855 0
M  V30 2760 H 254.199 -3.02464 -0.273681 0
M  V30 2761 H 251.784 -1.4924 -0.0690548 0
M  V30 2762 H 253.666 -3.21968 -2.71872 0
M  V30 2763 H 252.341 -2.04184 -2.51179 0
M  V30 2764 H 251.248 -3.64567 -0.839155 0
M  V30 2765 H 252.581 -4.79212 -1.12325 0
M  V30 2766 N 254.233 0.115231 -1.57178 0
M  V30 2767 C 255.165 1.16694 -1.97269 0
M  V30 2768 C 256.178 1.37445 -0.872502 0
M  V30 2769 O 257.367 1.36454 -1.15077 0
M  V30 2770 C 254.467 2.52627 -2.25905 0
M  V30 2771 C 253.64 2.52427 -3.57211 0
M  V30 2772 C 252.699 3.70134 -3.74016 0
M  V30 2773 O 251.725 3.53546 -4.46087 0
M  V30 2774 N 252.927 4.88844 -3.13068 0
M  V30 2775 H 255.692 0.82588 -2.88096 0
M  V30 2776 H 253.253 0.304461 -1.59011 0
M  V30 2777 H 255.245 3.29937 -2.34359 0
M  V30 2778 H 253.815 2.789 -1.41186 0
M  V30 2779 H 253.035 1.60805 -3.5991 0
M  V30 2780 H 254.323 2.49353 -4.43509 0
M  V30 2781 H 253.721 5.05225 -2.54489 0
M  V30 2782 H 252.278 5.63817 -3.27037 0
M  V30 2783 N 255.711 1.52812 0.385517 0
M  V30 2784 C 256.936 1.72207 1.15583 0
M  V30 2785 C 257.361 0.441034 1.82857 0
M  V30 2786 O 256.719 -0.603465 1.70962 0
M  V30 2787 C 256.767 2.87476 2.17692 0
M  V30 2788 O 255.871 2.54693 3.24354 0
M  V30 2789 H 255.212 0.572526 0.336319 0
M  V30 2790 H 257.742 1.99618 0.448744 0
M  V30 2791 H 257.752 3.13072 2.6163 0
M  V30 2792 H 256.427 3.80408 1.68115 0
M  V30 2793 H 255.004 2.3985 2.85529 0
M  V30 2794 N 257.189 -0.644168 1.43834 0
M  V30 2795 C 258.099 -1.78563 1.52159 0
M  V30 2796 C 259.115 -1.69147 0.408069 0
M  V30 2797 O 260.291 -1.90156 0.663524 0
M  V30 2798 C 257.356 -3.14888 1.45073 0
M  V30 2799 C 256.417 -3.36034 2.6717 0
M  V30 2800 C 255.65 -4.65855 2.60413 0
M  V30 2801 O 255.873 -5.45805 1.65689 0
M  V30 2802 O 254.807 -4.88918 3.5106 0
M  V30 2803 H 258.633 -1.74494 2.48567 0
M  V30 2804 H 256.218 -0.80378 1.25935 0
M  V30 2805 H 258.1 -3.96179 1.43597 0
M  V30 2806 H 256.775 -3.19528 0.518037 0
M  V30 2807 H 255.682 -2.54472 2.74217 0
M  V30 2808 H 257.015 -3.36247 3.59442 0
M  V30 2809 N 258.668 -1.30515 -0.883378 0
M  V30 2810 C 259.916 -1.19194 -1.63209 0
M  V30 2811 C 260.237 0.253205 -1.93349 0
M  V30 2812 O 259.507 1.17025 -1.57105 0
M  V30 2813 H 258.087 -0.438148 -0.605009 0
M  V30 2814 H 260.749 -1.63663 -1.05832 0
M  V30 2815 H 259.845 -1.75396 -2.58153 0
M  V30 2816 N 260.146 1.09593 -1.13257 0
M  V30 2817 C 261.395 1.81105 -0.887917 0
M  V30 2818 C 261.708 1.86563 0.587672 0
M  V30 2819 O 262.914 2.54367 0.949204 0
M  V30 2820 C 261.37 3.25338 -1.53895 0
M  V30 2821 C 260.978 3.28151 -3.04994 0
M  V30 2822 C 262.722 4.01617 -1.37492 0
M  V30 2823 C 260.629 4.66897 -3.6299 0
M  V30 2824 H 259.559 0.678661 -0.328534 0
M  V30 2825 H 262.21 1.23183 -1.36008 0
M  V30 2826 H 260.592 3.8331 -0.994446 0
M  V30 2827 H 261.766 2.79953 -3.66009 0
M  V30 2828 H 260.081 2.65361 -3.20893 0
M  V30 2829 H 262.678 5.04119 -1.78235 0
M  V30 2830 H 263.021 4.15072 -0.31957 0
M  V30 2831 H 263.554 3.50082 -1.88912 0
M  V30 2832 H 260.293 4.58643 -4.68323 0
M  V30 2833 H 259.813 5.15426 -3.06752 0
M  V30 2834 H 261.492 5.3587 -3.62563 0
M  V30 2835 N 261.624 0.925811 1.2754 0
M  V30 2836 C 262.87 0.566092 1.94739 0
M  V30 2837 C 263.203 -0.890057 1.72603 0
M  V30 2838 O 262.478 -1.63467 1.05399 0
M  V30 2839 C 262.761 0.89054 3.48915 0
M  V30 2840 C 262.614 2.4003 3.80402 0
M  V30 2841 C 263.933 0.395101 4.38323 0
M  V30 2842 H 261.052 0.20714 0.707292 0
M  V30 2843 H 263.694 1.15725 1.50691 0
M  V30 2844 H 261.844 0.387452 3.86563 0
M  V30 2845 H 263.516 2.97494 3.52555 0
M  V30 2846 H 261.759 2.85028 3.2702 0
M  V30 2847 H 262.43 2.57785 4.8811 0
M  V30 2848 H 264.906 0.826241 4.07814 0
M  V30 2849 H 263.782 0.651086 5.45025 0
M  V30 2850 H 264.043 -0.704798 4.36446 0
M  V30 2851 N 263.102 -1.41638 0.69111 0
M  V30 2852 C 264.049 -2.30789 0.0229705 0
M  V30 2853 C 265.019 -1.46863 -0.775911 0
M  V30 2854 O 266.204 -1.75661 -0.74485 0
M  V30 2855 C 263.344 -3.32868 -0.910666 0
M  V30 2856 C 262.457 -4.31875 -0.103874 0
M  V30 2857 C 261.592 -5.21024 -1.03475 0
M  V30 2858 C 260.631 -6.11702 -0.220598 0
M  V30 2859 N 259.768 -6.93349 -1.10504 0
M  V30 2860 H 264.608 -2.87366 0.788978 0
M  V30 2861 H 262.145 -1.41535 0.400794 0
M  V30 2862 H 264.103 -3.90596 -1.46597 0
M  V30 2863 H 262.733 -2.77851 -1.64312 0
M  V30 2864 H 261.785 -3.76131 0.568285 0
M  V30 2865 H 263.097 -4.96003 0.527504 0
M  V30 2866 H 262.251 -5.83565 -1.65943 0
M  V30 2867 H 260.99 -4.57112 -1.69999 0
M  V30 2868 H 259.995 -5.48215 0.417187 0
M  V30 2869 H 261.22 -6.77668 0.440784 0
M  V30 2870 H 259.166 -6.3205 -1.75638 0
M  V30 2871 H 259.083 -7.54146 -0.529125 0
M  V30 2872 H 260.351 -7.60362 -1.71667 0
M  V30 2873 N 264.58 -0.43555 -1.51462 0
M  V30 2874 C 265.527 0.376797 -2.27703 0
M  V30 2875 C 266.497 1.01838 -1.31219 0
M  V30 2876 O 267.682 1.03762 -1.60119 0
M  V30 2877 C 264.822 1.47301 -3.12084 0
M  V30 2878 C 263.935 0.849744 -4.2356 0
M  V30 2879 C 263.07 1.92086 -4.95254 0
M  V30 2880 C 262.109 1.27593 -5.98654 0
M  V30 2881 N 261.246 2.28833 -6.63762 0
M  V30 2882 H 266.086 -0.279734 -2.96684 0
M  V30 2883 H 263.623 -0.149795 -1.46335 0
M  V30 2884 H 265.581 2.11984 -3.59331 0
M  V30 2885 H 264.211 2.0992 -2.45221 0
M  V30 2886 H 263.263 0.0912529 -3.80291 0
M  V30 2887 H 264.575 0.338878 -4.97648 0
M  V30 2888 H 263.729 2.64435 -5.46039 0
M  V30 2889 H 262.468 2.46545 -4.20793 0
M  V30 2890 H 261.473 0.537893 -5.47162 0
M  V30 2891 H 262.698 0.738693 -6.7507 0
M  V30 2892 H 260.644 2.82375 -5.92115 0
M  V30 2893 H 260.561 1.82632 -7.33608 0
M  V30 2894 H 261.829 3.00671 -7.19178 0
M  V30 2895 N 266.058 1.56714 -0.166846 0
M  V30 2896 C 267.008 2.14338 0.777382 0
M  V30 2897 C 267.992 1.07642 1.19591 0
M  V30 2898 O 269.184 1.33775 1.15902 0
M  V30 2899 C 266.313 2.78417 2.00846 0
M  V30 2900 C 265.399 3.92264 1.61212 0
M  V30 2901 N 265.79 4.97268 0.925104 0
M  V30 2902 C 264.088 4.03342 1.90346 0
M  V30 2903 C 264.789 5.77093 0.730627 0
M  V30 2904 N 263.765 5.2854 1.27067 0
M  V30 2905 H 267.567 2.9289 0.243466 0
M  V30 2906 H 265.081 1.62364 0.0339954 0
M  V30 2907 H 267.078 3.18073 2.69509 0
M  V30 2908 H 265.738 2.01344 2.54736 0
M  V30 2909 H 266.749 5.14601 0.583646 0
M  V30 2910 H 263.426 3.37368 2.45946 0
M  V30 2911 H 264.816 6.71638 0.187668 0
M  V30 2912 N 267.536 -0.106894 1.57237 0
M  V30 2913 C 268.483 -1.13049 2.01217 0
M  V30 2914 C 269.453 -1.40471 0.886403 0
M  V30 2915 O 270.638 -1.52133 1.15153 0
M  V30 2916 C 267.778 -2.4487 2.43172 0
M  V30 2917 C 266.891 -2.24281 3.69218 0
M  V30 2918 C 266.026 -3.49417 4.00101 0
M  V30 2919 C 265.065 -3.24038 5.19294 0
M  V30 2920 N 264.202 -4.41409 5.45988 0
M  V30 2921 H 269.042 -0.748456 2.88448 0
M  V30 2922 H 266.579 -0.358054 1.42676 0
M  V30 2923 H 268.537 -3.21786 2.65537 0
M  V30 2924 H 267.167 -2.80944 1.58967 0
M  V30 2925 H 266.219 -1.38224 3.54398 0
M  V30 2926 H 267.531 -2.01512 4.56283 0
M  V30 2927 H 266.685 -4.34746 4.2318 0
M  V30 2928 H 265.424 -3.75229 3.11535 0
M  V30 2929 H 264.429 -2.37102 4.96047 0
M  V30 2930 H 265.654 -2.99584 6.09447 0
M  V30 2931 H 263.6 -4.67319 4.60379 0
M  V30 2932 H 263.517 -4.21788 6.274 0
M  V30 2933 H 264.785 -5.27836 5.73593 0
M  V30 2934 N 269.014 -1.53014 -0.377408 0
M  V30 2935 C 270.425 -1.60438 -0.954798 0
M  V30 2936 C 270.776 -0.464418 -1.90624 0
M  V30 2937 O 269.901 0.41087 -2.12464 0
M  V30 2938 C 270.496 -2.90797 -1.73847 0
M  V30 2939 C 269.055 -3.00595 -2.26538 0
M  V30 2940 C 268.202 -2.55645 -1.07429 0
M  V30 2941 H 271.153 -1.57926 -0.156575 0
M  V30 2942 H 271.174 -2.77935 -2.5987 0
M  V30 2943 H 270.686 -3.73746 -1.04574 0
M  V30 2944 H 268.787 -2.22208 -2.99089 0
M  V30 2945 H 268.9 -4.05456 -2.5523 0
M  V30 2946 H 267.264 -2.10239 -1.43777 0
M  V30 2947 H 268.047 -3.41 -0.396728 0
M  V30 2948 N 270.492 0.636531 -1.44174 0
M  V30 2949 C 271.402 1.77754 -1.53103 0
M  V30 2950 C 272.418 1.68928 -0.417034 0
M  V30 2951 O 273.594 1.89801 -0.6736 0
M  V30 2952 C 270.659 3.14115 -1.46741 0
M  V30 2953 C 269.72 3.34612 -2.68948 0
M  V30 2954 C 268.953 4.64467 -2.6288 0
M  V30 2955 O 269.176 5.44919 -1.68581 0
M  V30 2956 O 268.11 4.87049 -3.53648 0
M  V30 2957 H 271.936 1.73174 -2.49489 0
M  V30 2958 H 269.521 0.79709 -1.2636 0
M  V30 2959 H 271.403 3.95412 -1.45696 0
M  V30 2960 H 270.078 3.19249 -0.534975 0
M  V30 2961 H 268.985 2.53014 -2.75562 0
M  V30 2962 H 270.318 3.34336 -3.61221 0
M  V30 2963 N 271.97 1.30982 0.876444 0
M  V30 2964 C 273.219 1.19658 1.62373 0
M  V30 2965 C 273.532 -0.245636 1.94052 0
M  V30 2966 O 274.738 -0.48049 2.67214 0
M  V30 2967 C 273.194 2.09433 2.92687 0
M  V30 2968 C 272.802 3.58613 2.68516 0
M  V30 2969 C 274.546 2.06893 3.70669 0
M  V30 2970 C 272.453 4.40416 3.94699 0
M  V30 2971 H 271.383 0.444268 0.609214 0
M  V30 2972 H 274.034 1.55791 0.969605 0
M  V30 2973 H 272.416 1.66191 3.59439 0
M  V30 2974 H 273.59 4.10058 2.10212 0
M  V30 2975 H 271.905 3.63063 2.03898 0
M  V30 2976 H 274.502 2.65258 4.64265 0
M  V30 2977 H 274.845 1.05448 4.02724 0
M  V30 2978 H 275.378 2.48301 3.10792 0
M  V30 2979 H 272.117 5.42591 3.67798 0
M  V30 2980 H 271.637 3.93731 4.52477 0
M  V30 2981 H 273.316 4.52294 4.62644 0
M  V30 2982 N 273.449 -1.08991 1.13837 0
M  V30 2983 C 274.396 -2.15748 0.819835 0
M  V30 2984 C 275.366 -1.64636 -0.220026 0
M  V30 2985 O 276.551 -1.90582 -0.0912757 0
M  V30 2986 C 273.691 -3.4382 0.296913 0
M  V30 2987 C 272.804 -4.0881 1.39636 0
M  V30 2988 C 271.939 -5.24655 0.831314 0
M  V30 2989 C 270.978 -5.81575 1.90886 0
M  V30 2990 N 270.115 -6.88774 1.36142 0
M  V30 2991 H 274.955 -2.42338 1.73426 0
M  V30 2992 H 272.492 -1.18935 0.865613 0
M  V30 2993 H 274.45 -4.17193 -0.0244339 0
M  V30 2994 H 273.08 -3.17535 -0.580628 0
M  V30 2995 H 272.132 -3.33258 1.83422 0
M  V30 2996 H 273.444 -4.47141 2.21058 0
M  V30 2997 H 272.598 -6.04942 0.461515 0
M  V30 2998 H 271.337 -4.87698 -0.013932 0
M  V30 2999 H 270.342 -4.99946 2.28767 0
M  V30 3000 H 271.567 -6.20592 2.75758 0
M  V30 3001 H 269.513 -6.53788 0.538254 0
M  V30 3002 H 269.43 -7.25898 2.11208 0
M  V30 3003 H 270.698 -7.72806 1.01933 0
M  V30 3004 N 274.927 -0.932562 -1.27047 0
M  V30 3005 C 276.175 -0.574422 -1.93765 0
M  V30 3006 C 276.496 0.887993 -1.73608 0
M  V30 3007 O 275.766 1.62999 -1.08665 0
M  V30 3008 H 274.346 -0.209451 -0.717035 0
M  V30 3009 H 277.008 -1.18601 -1.5466 0
M  V30 3010 H 276.104 -0.784841 -3.02071 0
M  V30 3011 N 276.405 1.4127 -0.698611 0
M  V30 3012 C 277.353 2.32588 -0.023855 0
M  V30 3013 C 278.347 1.51128 0.765292 0
M  V30 3014 O 279.553 1.67043 0.670571 0
M  V30 3015 H 275.928 0.751918 0.0110871 0
M  V30 3016 H 277.899 2.87167 -0.811031 0
M  V30 3017 C 276.648 3.35947 0.896369 0
M  V30 3018 H 275.971 3.98684 0.298548 0
M  V30 3019 H 277.411 4.02376 1.33676 0
M  V30 3020 C 275.87 2.70076 2.01396 0
M  V30 3021 O 276.4 2.55093 3.10307 0
M  V30 3022 N 274.606 2.28724 1.79259 0
M  V30 3023 H 274.153 2.4111 0.906841 0
M  V30 3024 H 274.111 1.84986 2.54219 0
M  V30 3025 N 277.883 0.443576 1.51229 0
M  V30 3026 C 278.816 -0.410089 2.24485 0
M  V30 3027 C 279.794 -1.01949 1.26669 0
M  V30 3028 O 280.978 -1.06075 1.55821 0
M  V30 3029 C 278.105 -1.57211 3.00004 0
M  V30 3030 C 277.151 -1.08279 4.12526 0
M  V30 3031 S 277.984 -0.0197476 5.35496 0
M  V30 3032 C 279.14 -1.18629 6.14555 0
M  V30 3033 H 279.373 0.211832 2.96544 0
M  V30 3034 H 276.906 0.228156 1.52705 0
M  V30 3035 H 278.864 -2.23825 3.44111 0
M  V30 3036 H 277.525 -2.16547 2.27522 0
M  V30 3037 H 276.718 -1.95193 4.64667 0
M  V30 3038 H 276.32 -0.494797 3.70713 0
M  V30 3039 H 278.612 -2.10344 6.4402 0
M  V30 3040 H 279.555 -0.70472 7.04584 0
M  V30 3041 H 279.963 -1.42768 5.46148 0
M  V30 3042 N 279.361 -1.56624 0.175154 0
M  V30 3043 C 280.586 -2.01813 -0.478137 0
M  V30 3044 C 281.011 -1.05457 -1.55757 0
M  V30 3045 O 280.369 -0.0347439 -1.81267 0
M  V30 3046 C 280.417 -3.45581 -1.02987 0
M  V30 3047 O 279.521 -3.52305 -2.14371 0
M  V30 3048 H 278.862 -0.65413 -0.114059 0
M  V30 3049 H 281.392 -2.02673 0.280173 0
M  V30 3050 H 281.402 -3.84965 -1.35151 0
M  V30 3051 H 280.077 -4.1521 -0.239556 0
M  V30 3052 H 278.654 -3.24783 -1.83222 0
M  V30 3053 N 280.839 0.0985539 -1.57292 0
M  V30 3054 C 282.087 0.801092 -1.85545 0
M  V30 3055 C 282.408 1.79438 -0.763353 0
M  V30 3056 O 281.678 1.94763 0.21073 0
M  V30 3057 H 280.258 0.29884 -0.684619 0
M  V30 3058 H 282.92 0.0810064 -1.94732 0
M  V30 3059 H 282.016 1.3338 -2.82163 0
M  V30 3060 N 282.317 1.53212 0.369288 0
M  V30 3061 C 283.265 1.80054 1.47253 0
M  V30 3062 C 284.259 0.669456 1.55611 0
M  V30 3063 O 285.465 0.852328 1.58541 0
M  V30 3064 H 281.84 0.570034 0.490475 0
M  V30 3065 H 283.811 2.72403 1.21817 0
M  V30 3066 C 282.56 2.00403 2.84137 0
M  V30 3067 H 281.883 2.86876 2.78464 0
M  V30 3068 H 283.323 2.23164 3.60519 0
M  V30 3069 C 281.782 0.782081 3.27697 0
M  V30 3070 O 282.312 -0.0310205 4.01688 0
M  V30 3071 N 280.518 0.606573 2.84199 0
M  V30 3072 H 280.065 1.26939 2.24152 0
M  V30 3073 H 280.023 -0.20962 3.137 0
M  V30 3074 N 283.795 -0.628877 1.44509 0
M  V30 3075 C 285.042 -1.38839 1.47411 0
M  V30 3076 C 285.37 -1.94202 0.10757 0
M  V30 3077 O 284.625 -1.74243 -0.890947 0
M  V30 3078 C 284.924 -2.56995 2.48371 0
M  V30 3079 C 284.59 -2.19908 3.93639 0
M  V30 3080 C 283.252 -2.09506 4.33198 0
M  V30 3081 C 285.604 -1.9064 4.85083 0
M  V30 3082 C 282.932 -1.68028 5.62124 0
M  V30 3083 C 285.284 -1.50655 6.14399 0
M  V30 3084 C 283.948 -1.38796 6.5291 0
M  V30 3085 H 283.218 -0.508048 0.539414 0
M  V30 3086 H 285.865 -0.712913 1.77735 0
M  V30 3087 H 284.17 -3.29786 2.11538 0
M  V30 3088 H 285.867 -3.15223 2.47861 0
M  V30 3089 H 282.457 -2.28922 3.62343 0
M  V30 3090 H 286.641 -1.97585 4.55273 0
M  V30 3091 H 281.897 -1.57452 5.90778 0
M  V30 3092 H 286.071 -1.27048 6.84713 0
M  V30 3093 H 283.698 -1.06429 7.52713 0
M  V30 3094 N 285.273 -1.31445 -0.869486 0
M  V30 3095 C 286.501 -1.24122 -1.65534 0
M  V30 3096 C 286.916 0.193387 -1.87807 0
M  V30 3097 O 286.273 1.12557 -1.43656 0
M  V30 3098 C 286.324 -1.98229 -3.02304 0
M  V30 3099 O 286.045 -3.3609 -2.81026 0
M  V30 3100 C 287.546 -1.97751 -3.96749 0
M  V30 3101 H 284.766 -0.428868 -0.516055 0
M  V30 3102 H 287.31 -1.73328 -1.08525 0
M  V30 3103 H 285.465 -1.52782 -3.56001 0
M  V30 3104 H 285.879 -3.7383 -3.67902 0
M  V30 3105 H 287.353 -2.54114 -4.90031 0
M  V30 3106 H 287.83 -0.960137 -4.28577 0
M  V30 3107 H 288.436 -2.43079 -3.48988 0
M  V30 3108 N 286.751 1.08385 -1.14413 0
M  V30 3109 C 287.981 1.8425 -0.934644 0
M  V30 3110 C 288.389 1.81907 0.520234 0
M  V30 3111 O 287.732 1.22126 1.37226 0
M  V30 3112 C 287.794 3.32853 -1.35828 0
M  V30 3113 C 287.458 3.5893 -2.82875 0
M  V30 3114 C 288.455 3.53756 -3.80989 0
M  V30 3115 C 286.14 3.86934 -3.20293 0
M  V30 3116 C 288.134 3.76216 -5.14529 0
M  V30 3117 C 285.821 4.09047 -4.54008 0
M  V30 3118 C 286.819 4.03682 -5.50936 0
M  V30 3119 O 286.507 4.25214 -6.82238 0
M  V30 3120 H 286.239 0.588502 -0.332628 0
M  V30 3121 H 288.793 1.37792 -1.52324 0
M  V30 3122 H 287.023 3.8007 -0.713019 0
M  V30 3123 H 288.712 3.90154 -1.11957 0
M  V30 3124 H 289.478 3.32135 -3.53428 0
M  V30 3125 H 285.357 3.9023 -2.45442 0
M  V30 3126 H 288.901 3.71943 -5.90173 0
M  V30 3127 H 284.798 4.30151 -4.8129 0
M  V30 3128 H 285.566 4.42619 -6.88499 0
M  V30 3129 N 288.23 0.939286 1.26551 0
M  V30 3130 C 289.479 0.581601 1.93133 0
M  V30 3131 C 289.792 -0.883224 1.74524 0
M  V30 3132 O 290.998 -1.3502 2.35546 0
M  V30 3133 C 289.454 0.989425 3.46032 0
M  V30 3134 C 289.062 2.47573 3.73379 0
M  V30 3135 C 290.806 0.703544 4.18629 0
M  V30 3136 C 288.713 2.82235 5.19709 0
M  V30 3137 H 287.643 0.213803 0.723052 0
M  V30 3138 H 290.294 1.14167 1.4366 0
M  V30 3139 H 288.676 0.357902 3.94379 0
M  V30 3140 H 289.85 3.15614 3.35744 0
M  V30 3141 H 288.165 2.73471 3.1401 0
M  V30 3142 H 290.762 0.938869 5.26393 0
M  V30 3143 H 291.105 -0.359639 4.14744 0
M  V30 3144 H 291.638 1.2947 3.76141 0
M  V30 3145 H 288.377 3.87509 5.28694 0
M  V30 3146 H 287.897 2.18854 5.58447 0
M  V30 3147 H 289.576 2.70599 5.87695 0
M  V30 3148 N 289.708 -1.40897 0.706093 0
M  V30 3149 C 290.957 -2.00284 0.238574 0
M  V30 3150 C 291.27 -1.56604 -1.17194 0
M  V30 3151 O 292.476 -2.08624 -1.73748 0
M  V30 3152 C 290.932 -3.57934 0.375623 0
M  V30 3153 C 290.54 -4.10591 1.79217 0
M  V30 3154 C 292.284 -4.24488 -0.0315857 0
M  V30 3155 C 290.191 -5.60712 1.88032 0
M  V30 3156 H 289.121 -0.749144 0.0854398 0
M  V30 3157 H 291.772 -1.61251 0.875813 0
M  V30 3158 H 290.154 -3.94622 -0.330042 0
M  V30 3159 H 291.328 -3.85301 2.52745 0
M  V30 3160 H 289.643 -3.56601 2.15 0
M  V30 3161 H 292.24 -5.34698 0.0136842 0
M  V30 3162 H 292.583 -4.02261 -1.072 0
M  V30 3163 H 293.116 -3.92873 0.624181 0
M  V30 3164 H 289.855 -5.87781 2.90161 0
M  V30 3165 H 289.375 -5.87896 1.18903 0
M  V30 3166 H 291.054 -6.25658 1.64805 0
M  V30 3167 N 291.186 -0.45159 -1.50991 0
M  V30 3168 C 292.463 0.170707 -1.94854 0
M  V30 3169 C 292.843 1.58788 -1.39103 0
M  V30 3170 O 292.191 2.20913 -0.583921 0
M  V30 3171 C 292.401 0.133929 -3.48743 0
M  V30 3172 C 293.749 0.33248 -4.23296 0
M  V30 3173 O 294.773 0.211403 -3.55572 0
M  V30 3174 O 293.632 0.57486 -5.43468 0
M  V30 3175 H 290.726 0.122264 -0.817912 0
M  V30 3176 H 293.272 -0.510594 -1.61836 0
M  V30 3177 H 292.044 -0.856283 -3.81816 0
M  V30 3178 H 291.667 0.857529 -3.88242 0
M  V30 3179 N 292.664 1.56529 -0.183458 0
M  V30 3180 C 293.611 2.18546 0.742055 0
M  V30 3181 C 294.581 1.12912 1.2182 0
M  V30 3182 O 295.766 1.41115 1.28418 0
M  V30 3183 C 292.906 2.83977 1.96089 0
M  V30 3184 C 292.019 4.04105 1.52719 0
M  V30 3185 C 291.154 4.57427 2.70063 0
M  V30 3186 C 290.193 5.69938 2.23243 0
M  V30 3187 N 289.33 6.17717 3.33722 0
M  V30 3188 H 294.17 2.97284 0.206432 0
M  V30 3189 H 291.707 1.46823 0.0901571 0
M  V30 3190 H 293.665 3.20077 2.67594 0
M  V30 3191 H 292.295 2.07822 2.47002 0
M  V30 3192 H 291.347 3.73745 0.708436 0
M  V30 3193 H 292.659 4.85513 1.1436 0
M  V30 3194 H 291.813 4.95772 3.49708 0
M  V30 3195 H 290.552 3.75101 3.11689 0
M  V30 3196 H 289.557 5.31133 1.42048 0
M  V30 3197 H 290.782 6.54073 1.82661 0
M  V30 3198 H 288.728 5.38317 3.74902 0
M  V30 3199 H 288.645 6.94146 2.99495 0
M  V30 3200 H 289.913 6.60713 4.13616 0
M  V30 3201 N 294.142 -0.090211 1.57342 0
M  V30 3202 C 295.072 -1.10976 2.05443 0
M  V30 3203 C 296.053 -1.41482 0.944284 0
M  V30 3204 O 297.238 -1.51428 1.21586 0
M  V30 3205 C 294.368 -2.42831 2.48295 0
M  V30 3206 C 293.322 -2.26721 3.63018 0
M  V30 3207 C 292.648 -3.63796 3.91863 0
M  V30 3208 C 293.948 -1.7037 4.93732 0
M  V30 3209 H 295.642 -0.709564 2.9087 0
M  V30 3210 H 293.188 -0.339874 1.39932 0
M  V30 3211 H 295.141 -3.14431 2.80555 0
M  V30 3212 H 293.865 -2.84795 1.59873 0
M  V30 3213 H 292.524 -1.57565 3.31012 0
M  V30 3214 H 292.172 -4.03297 3.00601 0
M  V30 3215 H 291.872 -3.53861 4.69101 0
M  V30 3216 H 293.396 -4.36855 4.26603 0
M  V30 3217 H 294.81 -2.31816 5.24342 0
M  V30 3218 H 293.207 -1.71181 5.75167 0
M  V30 3219 H 294.277 -0.663542 4.80339 0
M  V30 3220 N 295.62 -1.53406 -0.361157 0
M  V30 3221 C 296.869 -1.69022 -1.10066 0
M  V30 3222 C 297.182 -0.450838 -1.90333 0
M  V30 3223 O 298.388 -0.487617 -2.67085 0
M  V30 3224 C 296.844 -2.98812 -2.00598 0
M  V30 3225 C 296.452 -4.30027 -1.25621 0
M  V30 3226 C 298.196 -3.23795 -2.74513 0
M  V30 3227 C 296.103 -5.50903 -2.1508 0
M  V30 3228 H 295.033 -0.629776 -0.414606 0
M  V30 3229 H 297.684 -1.79907 -0.361348 0
M  V30 3230 H 296.066 -2.8174 -2.78278 0
M  V30 3231 H 297.24 -4.57745 -0.529739 0
M  V30 3232 H 295.555 -4.11522 -0.635496 0
M  V30 3233 H 298.152 -4.11289 -3.41681 0
M  V30 3234 H 298.495 -2.40045 -3.40123 0
M  V30 3235 H 299.028 -3.41561 -2.03914 0
M  V30 3236 H 295.767 -6.37143 -1.54041 0
M  V30 3237 H 295.287 -5.27459 -2.85565 0
M  V30 3238 H 296.966 -5.85865 -2.74538 0
M  V30 3239 N 297.098 0.621204 -1.44841 0
M  V30 3240 C 298.509 1.20298 -1.42777 0
M  V30 3241 C 298.86 1.95639 -0.148259 0
M  V30 3242 O 297.985 2.02955 0.750892 0
M  V30 3243 C 298.58 2.1882 -2.58657 0
M  V30 3244 C 297.139 2.72403 -2.59756 0
M  V30 3245 C 296.286 1.4757 -2.34773 0
M  V30 3246 H 299.237 0.411297 -1.53278 0
M  V30 3247 H 299.258 3.01607 -2.31977 0
M  V30 3248 H 298.77 1.63957 -3.51766 0
M  V30 3249 H 296.871 3.31242 -1.70615 0
M  V30 3250 H 296.984 3.17765 -3.58556 0
M  V30 3251 H 295.348 1.76051 -1.8406 0
M  V30 3252 H 296.131 0.945954 -3.3001 0
M  V30 3253 N 298.576 1.31904 0.862503 0
M  V30 3254 C 299.524 1.20125 1.9918 0
M  V30 3255 C 300.518 0.107824 1.69056 0
M  V30 3256 O 301.724 0.270223 1.7796 0
M  V30 3257 H 298.099 0.372148 0.65346 0
M  V30 3258 H 300.07 2.15652 2.06244 0
M  V30 3259 C 298.819 0.933099 3.34946 0
M  V30 3260 H 298.142 1.76664 3.5865 0
M  V30 3261 H 299.582 0.890892 4.14535 0
M  V30 3262 C 298.041 -0.364172 3.34926 0
M  V30 3263 O 298.571 -1.37858 3.77304 0
M  V30 3264 N 296.777 -0.383362 2.8806 0
M  V30 3265 H 296.324 0.442651 2.53768 0
M  V30 3266 H 296.282 -1.25123 2.8843 0
M  V30 3267 N 300.054 -1.07777 1.14986 0
M  V30 3268 C 301.282 -1.84018 0.945773 0
M  V30 3269 C 301.697 -1.81897 -0.505863 0
M  V30 3270 O 301.054 -1.22726 -1.35072 0
M  V30 3271 C 301.105 -3.31287 1.44677 0
M  V30 3272 O 300.826 -3.33449 2.84154 0
M  V30 3273 C 302.327 -4.24311 1.28355 0
M  V30 3274 H 299.547 -0.580716 0.336169 0
M  V30 3275 H 302.091 -1.36077 1.52654 0
M  V30 3276 H 300.246 -3.76594 0.908625 0
M  V30 3277 H 300.66 -4.25427 3.06777 0
M  V30 3278 H 302.134 -5.2573 1.68261 0
M  V30 3279 H 302.611 -4.38612 0.227184 0
M  V30 3280 H 303.217 -3.84836 1.81056 0
M  V30 3281 N 301.532 -0.945985 -1.26051 0
M  V30 3282 C 302.48 -0.450259 -2.282 0
M  V30 3283 C 303.474 0.47497 -1.62605 0
M  V30 3284 O 304.68 0.352653 -1.76512 0
M  V30 3285 H 301.055 -0.127081 -0.741184 0
M  V30 3286 H 303.026 -1.32422 -2.67408 0
M  V30 3287 C 301.775 0.26467 -3.46691 0
M  V30 3288 H 301.098 -0.438123 -3.97392 0
M  V30 3289 H 302.538 0.575678 -4.20074 0
M  V30 3290 C 300.997 1.48416 -3.02447 0
M  V30 3291 O 301.527 2.58227 -3.07704 0
M  V30 3292 N 299.733 1.34243 -2.57735 0
M  V30 3293 H 299.28 0.448994 -2.53657 0
M  V30 3294 H 299.238 2.15957 -2.28495 0
M  V30 3295 N 303.011 1.40521 -0.713556 0
M  V30 3296 C 304.241 2.0494 -0.261395 0
M  V30 3297 C 304.649 1.53861 1.10107 0
M  V30 3298 O 303.992 0.689321 1.70276 0
M  V30 3299 C 304.054 3.59138 -0.161227 0
M  V30 3300 C 303.718 4.33096 -1.45865 0
M  V30 3301 C 304.715 4.61182 -2.40016 0
M  V30 3302 C 302.4 4.72043 -1.71701 0
M  V30 3303 C 304.394 5.27196 -3.58251 0
M  V30 3304 C 302.081 5.37789 -2.90218 0
M  V30 3305 C 303.079 5.65295 -3.83315 0
M  V30 3306 O 302.767 6.29683 -4.99754 0
M  V30 3307 H 302.499 0.666041 -0.115608 0
M  V30 3308 H 305.053 1.80954 -0.971849 0
M  V30 3309 H 303.283 3.81936 0.605153 0
M  V30 3310 H 304.972 4.05091 0.256105 0
M  V30 3311 H 305.738 4.31559 -2.21318 0
M  V30 3312 H 301.617 4.50003 -1.00092 0
M  V30 3313 H 305.161 5.48582 -4.30934 0
M  V30 3314 H 301.058 5.66831 -3.08825 0
M  V30 3315 H 301.826 6.4818 -4.99805 0
M  V30 3316 N 304.489 0.459591 1.5075 0
M  V30 3317 C 305.729 -0.09824 2.04164 0
M  V30 3318 C 306.093 -1.3801 1.33481 0
M  V30 3319 O 307.294 -2.01959 1.77387 0
M  V30 3320 C 305.565 -0.289467 3.56226 0
M  V30 3321 S 307.124 -0.807507 4.31306 0
M  V30 3322 H 303.942 -0.0213845 0.710678 0
M  V30 3323 H 306.544 0.624098 1.85271 0
M  V30 3324 H 305.248 0.649461 4.05229 0
M  V30 3325 H 304.779 -1.03825 3.79452 0
M  V30 3326 H 306.794 -2.0824 4.50389 0
M  V30 3327 N 305.967 -1.56429 0.191757 0
M  V30 3328 C 307.213 -1.97777 -0.448554 0
M  V30 3329 C 307.546 -1.07847 -1.61501 0
M  V30 3330 O 306.821 -0.129774 -1.94067 0
M  V30 3331 C 307.104 -3.48362 -0.911906 0
M  V30 3332 C 306.957 -4.4907 0.256136 0
M  V30 3333 C 308.276 -4.02561 -1.77857 0
M  V30 3334 H 305.395 -0.719071 -0.161572 0
M  V30 3335 H 308.037 -1.87896 0.282007 0
M  V30 3336 H 306.187 -3.56914 -1.53442 0
M  V30 3337 H 307.859 -4.5256 0.893733 0
M  V30 3338 H 306.102 -4.24181 0.908436 0
M  V30 3339 H 306.773 -5.51889 -0.11053 0
M  V30 3340 H 309.249 -3.96767 -1.25359 0
M  V30 3341 H 308.125 -5.08301 -2.07174 0
M  V30 3342 H 308.386 -3.47616 -2.73158 0
M  V30 3343 N 307.445 0.0818655 -1.57387 0
M  V30 3344 C 308.67 0.799946 -1.91352 0
M  V30 3345 C 309.095 1.70833 -0.787258 0
M  V30 3346 O 308.453 1.79419 0.26048 0
M  V30 3347 C 308.501 1.57812 -3.24234 0
M  V30 3348 O 307.605 2.68806 -3.12757 0
M  V30 3349 H 306.946 0.21891 -0.626877 0
M  V30 3350 H 309.476 0.0531256 -2.04531 0
M  V30 3351 H 309.486 1.95952 -3.57864 0
M  V30 3352 H 308.161 0.911548 -4.05788 0
M  V30 3353 H 306.738 2.33597 -2.90666 0
M  V30 3354 N 308.923 1.53595 0.353017 0
M  V30 3355 C 310.169 1.70638 1.09593 0
M  V30 3356 C 310.502 0.463286 1.88593 0
M  V30 3357 O 309.777 -0.539597 1.86865 0
M  V30 3358 C 310.06 2.96406 2.04489 0
M  V30 3359 C 309.913 4.30901 1.29014 0
M  V30 3360 C 311.232 3.17812 3.0444 0
M  V30 3361 H 308.351 0.620913 0.397034 0
M  V30 3362 H 310.993 1.86254 0.375446 0
M  V30 3363 H 309.143 2.83223 2.65927 0
M  V30 3364 H 310.815 4.55917 0.702638 0
M  V30 3365 H 309.058 4.29741 0.592071 0
M  V30 3366 H 309.729 5.1506 1.98537 0
M  V30 3367 H 312.205 3.30263 2.53112 0
M  V30 3368 H 311.081 4.07223 3.6805 0
M  V30 3369 H 311.342 2.33669 3.75301 0
M  V30 3370 N 310.401 -0.613514 1.45168 0
M  V30 3371 C 311.631 -1.39743 1.52169 0
M  V30 3372 C 312.039 -1.88596 0.151086 0
M  V30 3373 O 311.382 -1.6251 -0.856521 0
M  V30 3374 C 311.444 -2.64035 2.43979 0
M  V30 3375 C 311.108 -2.36861 3.90827 0
M  V30 3376 C 312.105 -1.97591 4.80889 0
M  V30 3377 C 309.79 -2.49956 4.35692 0
M  V30 3378 C 311.784 -1.71768 6.1382 0
M  V30 3379 C 309.471 -2.23747 5.68665 0
M  V30 3380 C 310.469 -1.84714 6.57548 0
M  V30 3381 O 310.157 -1.58809 7.88058 0
M  V30 3382 H 309.889 -0.434382 0.517966 0
M  V30 3383 H 312.443 -0.75587 1.90986 0
M  V30 3384 H 310.673 -3.3089 2.00122 0
M  V30 3385 H 312.362 -3.26069 2.41731 0
M  V30 3386 H 313.128 -1.87015 4.47493 0
M  V30 3387 H 309.007 -2.79305 3.66756 0
M  V30 3388 H 312.551 -1.41227 6.83155 0
M  V30 3389 H 308.448 -2.33938 6.01617 0
M  V30 3390 H 309.216 -1.7291 8.00028 0
M  V30 3391 N 311.879 -1.3236 -0.855495 0
M  V30 3392 C 312.809 -1.23833 -1.97958 0
M  V30 3393 C 313.79 -0.122361 -1.69659 0
M  V30 3394 O 314.975 -0.30939 -1.9172 0
M  V30 3395 C 312.105 -0.959772 -3.33775 0
M  V30 3396 C 311.059 -2.03689 -3.76424 0
M  V30 3397 C 310.385 -1.61075 -5.09862 0
M  V30 3398 C 311.685 -3.4518 -3.9198 0
M  V30 3399 H 313.379 -2.1788 -2.0535 0
M  V30 3400 H 310.925 -1.04891 -0.986605 0
M  V30 3401 H 312.878 -0.886678 -4.11966 0
M  V30 3402 H 311.602 0.0163404 -3.26596 0
M  V30 3403 H 310.261 -2.10012 -3.00484 0
M  V30 3404 H 309.909 -0.622107 -4.99138 0
M  V30 3405 H 309.609 -2.33143 -5.39368 0
M  V30 3406 H 311.133 -1.55201 -5.90546 0
M  V30 3407 H 312.547 -3.4145 -4.60526 0
M  V30 3408 H 310.944 -4.1559 -4.32903 0
M  V30 3409 H 312.014 -3.84903 -2.94919 0
M  V30 3410 N 313.357 1.07166 -1.15556 0
M  V30 3411 C 314.267 2.17947 -0.868116 0
M  V30 3412 C 315.283 1.73297 0.156297 0
M  V30 3413 O 316.459 2.01392 -0.0182327 0
M  V30 3414 C 313.524 3.44789 -0.36355 0
M  V30 3415 C 312.585 4.03996 -1.45209 0
M  V30 3416 C 311.818 5.24783 -0.971508 0
M  V30 3417 O 312.041 5.70109 0.182194 0
M  V30 3418 O 310.975 5.75715 -1.75603 0
M  V30 3419 H 314.801 2.4503 -1.79427 0
M  V30 3420 H 312.386 1.16539 -0.934824 0
M  V30 3421 H 314.268 4.21307 -0.0887113 0
M  V30 3422 H 312.943 3.19253 0.534708 0
M  V30 3423 H 311.85 3.29009 -1.78056 0
M  V30 3424 H 313.183 4.33808 -2.32533 0
M  V30 3425 N 314.835 0.952656 1.25548 0
M  V30 3426 C 315.785 0.442033 2.23674 0
M  V30 3427 C 316.769 -0.467632 1.53955 0
M  V30 3428 O 317.961 -0.301006 1.74422 0
M  V30 3429 C 315.09 -0.280816 3.4215 0
M  V30 3430 C 314.176 0.646803 4.19139 0
M  V30 3431 N 314.567 1.77759 4.73535 0
M  V30 3432 C 312.865 0.454617 4.43677 0
M  V30 3433 C 313.566 2.35658 5.31827 0
M  V30 3434 N 312.542 1.64333 5.18166 0
M  V30 3435 H 316.344 1.30505 2.63336 0
M  V30 3436 H 313.858 0.809904 1.40763 0
M  V30 3437 H 315.855 -0.663747 4.11582 0
M  V30 3438 H 314.515 -1.14046 3.04012 0
M  V30 3439 H 315.526 2.15949 4.7073 0
M  V30 3440 H 312.203 -0.362312 4.15925 0
M  V30 3441 H 313.593 3.30998 5.84713 0
M  V30 3442 N 316.313 -1.40141 0.720998 0
M  V30 3443 C 317.538 -2.05618 0.271258 0
M  V30 3444 C 317.963 -1.53978 -1.08039 0
M  V30 3445 O 317.321 -0.677463 -1.68167 0
M  V30 3446 C 317.369 -3.59609 0.267197 0
M  V30 3447 O 316.473 -4.05526 -0.749814 0
M  V30 3448 H 315.814 -0.651904 0.126162 0
M  V30 3449 H 318.344 -1.79439 0.982997 0
M  V30 3450 H 318.354 -4.0786 0.106744 0
M  V30 3451 H 317.029 -3.96559 1.25354 0
M  V30 3452 H 315.606 -3.68722 -0.556644 0
M  V30 3453 N 317.792 -0.46758 -1.50504 0
M  V30 3454 C 319.069 0.15003 -1.95024 0
M  V30 3455 C 319.449 1.57304 -1.40779 0
M  V30 3456 O 318.797 2.20281 -0.607319 0
M  V30 3457 C 319.007 0.0969324 -3.48865 0
M  V30 3458 C 320.355 0.287565 -4.23625 0
M  V30 3459 O 321.379 0.173678 -3.55776 0
M  V30 3460 O 320.238 0.517186 -5.44047 0
M  V30 3461 H 317.332 0.113582 -0.819163 0
M  V30 3462 H 319.878 -0.52773 -1.61286 0
M  V30 3463 H 318.65 -0.896732 -3.80886 0
M  V30 3464 H 318.273 0.816303 -3.8913 0
M  V30 3465 N 319.27 1.56325 -0.20005 0
M  V30 3466 C 320.18 2.22931 0.730668 0
M  V30 3467 C 321.196 1.22997 1.23076 0
M  V30 3468 O 322.372 1.55748 1.27689 0
M  V30 3469 C 319.437 2.87948 1.93098 0
M  V30 3470 C 318.498 4.03166 1.47497 0
M  V30 3471 C 317.731 4.65073 2.61807 0
M  V30 3472 O 317.954 4.25913 3.79413 0
M  V30 3473 O 316.888 5.54452 2.34237 0
M  V30 3474 H 320.714 3.03084 0.193391 0
M  V30 3475 H 318.299 1.49371 0.0294621 0
M  V30 3476 H 320.181 3.29063 2.6324 0
M  V30 3477 H 318.856 2.10771 2.45677 0
M  V30 3478 H 317.763 3.66664 0.742201 0
M  V30 3479 H 319.096 4.82022 0.995796 0
M  V30 3480 N 320.748 -0.0735177 1.57428 0
M  V30 3481 C 321.68 -1.11423 2.00294 0
M  V30 3482 C 322.693 -1.35084 0.908637 0
M  V30 3483 O 323.882 -1.33355 1.18654 0
M  V30 3484 C 320.982 -2.46548 2.32523 0
M  V30 3485 C 320.155 -2.42867 3.63778 0
M  V30 3486 C 319.214 -3.60087 3.83697 0
M  V30 3487 O 318.24 -3.41595 4.55304 0
M  V30 3488 N 319.442 -4.80372 3.25919 0
M  V30 3489 H 322.207 -0.749206 2.90184 0
M  V30 3490 H 319.768 -0.262195 1.59763 0
M  V30 3491 H 321.76 -3.23607 2.43024 0
M  V30 3492 H 320.33 -2.75059 1.48531 0
M  V30 3493 H 319.55 -1.51206 3.64047 0
M  V30 3494 H 320.838 -2.37506 4.49965 0
M  V30 3495 H 320.236 -4.983 2.67795 0
M  V30 3496 H 318.793 -5.54948 3.41871 0
M  V30 3497 N 322.226 -1.5378 -0.344866 0
M  V30 3498 C 323.189 -1.80981 -1.40637 0
M  V30 3499 C 324.189 -0.680816 -1.45676 0
M  V30 3500 O 325.379 -0.949095 -1.46075 0
M  V30 3501 C 322.511 -1.95063 -2.79577 0
M  V30 3502 H 323.704 -2.75803 -1.17783 0
M  V30 3503 H 321.257 -1.45173 -0.579181 0
M  V30 3504 H 321.992 -1.02379 -3.07716 0
M  V30 3505 H 321.777 -2.77198 -2.77315 0
M  V30 3506 H 323.267 -2.17629 -3.56409 0
M  V30 3507 N 323.704 0.605807 -1.45491 0
M  V30 3508 C 324.95 1.36679 -1.49823 0
M  V30 3509 C 325.283 1.93693 -0.140175 0
M  V30 3510 O 324.558 1.75158 0.845581 0
M  V30 3511 C 324.841 2.51337 -2.57879 0
M  V30 3512 C 324.694 1.99508 -4.03134 0
M  V30 3513 C 326.013 3.53463 -2.62205 0
M  V30 3514 H 323.132 0.495617 -0.545466 0
M  V30 3515 H 325.774 0.682732 -1.7731 0
M  V30 3516 H 323.924 3.09691 -2.34571 0
M  V30 3517 H 325.596 1.45789 -4.37656 0
M  V30 3518 H 323.839 1.30496 -4.13707 0
M  V30 3519 H 324.51 2.82169 -4.74431 0
M  V30 3520 H 326.986 3.04953 -2.83095 0
M  V30 3521 H 325.862 4.31178 -3.39672 0
M  V30 3522 H 326.123 4.09197 -1.67363 0
M  V30 3523 N 325.182 1.32811 0.848464 0
M  V30 3524 C 326.431 1.23075 1.59798 0
M  V30 3525 C 326.744 -0.204419 1.94529 0
M  V30 3526 O 327.95 -0.423701 2.68173 0
M  V30 3527 C 326.406 2.15594 2.88179 0
M  V30 3528 C 326.014 3.64228 2.60849 0
M  V30 3529 C 327.758 2.14709 3.66197 0
M  V30 3530 C 325.665 4.48689 3.85269 0
M  V30 3531 H 324.595 0.457091 0.599653 0
M  V30 3532 H 327.246 1.57813 0.936342 0
M  V30 3533 H 325.628 1.73778 3.55833 0
M  V30 3534 H 326.802 4.14424 2.01467 0
M  V30 3535 H 325.117 3.67306 1.96151 0
M  V30 3536 H 327.714 2.75046 4.58534 0
M  V30 3537 H 328.057 1.13966 4.00397 0
M  V30 3538 H 328.59 2.54837 3.05455 0
M  V30 3539 H 325.329 5.5027 3.56207 0
M  V30 3540 H 324.849 4.03241 4.44024 0
M  V30 3541 H 326.528 4.62006 4.52946 0
M  V30 3542 N 326.66 -1.06551 1.16123 0
M  V30 3543 C 327.607 -2.13961 0.865414 0
M  V30 3544 C 328.577 -1.65066 -0.185055 0
M  V30 3545 O 329.762 -1.90732 -0.05083 0
M  V30 3546 C 326.902 -3.43113 0.369776 0
M  V30 3547 C 326.015 -4.05756 1.48276 0
M  V30 3548 C 325.15 -5.22773 0.942414 0
M  V30 3549 C 324.189 -5.77395 2.03179 0
M  V30 3550 N 323.326 -6.85731 1.50721 0
M  V30 3551 H 328.166 -2.38605 1.78527 0
M  V30 3552 H 325.703 -1.17072 0.890646 0
M  V30 3553 H 327.661 -4.17151 0.0640643 0
M  V30 3554 H 326.291 -3.18695 -0.513143 0
M  V30 3555 H 325.343 -3.29292 1.9045 0
M  V30 3556 H 326.655 -4.42351 2.30493 0
M  V30 3557 H 325.809 -6.03827 0.589729 0
M  V30 3558 H 324.548 -4.87618 0.0895191 0
M  V30 3559 H 323.553 -4.94981 2.3932 0
M  V30 3560 H 324.778 -6.14603 2.8886 0
M  V30 3561 H 322.724 -6.52499 0.676811 0
M  V30 3562 H 322.641 -7.21254 2.26557 0
M  V30 3563 H 323.909 -7.7047 1.18303 0
M  V30 3564 N 328.138 -0.959301 -1.25041 0
M  V30 3565 C 329.363 -0.633507 -1.97488 0
M  V30 3566 C 329.788 0.788555 -1.70773 0
M  V30 3567 O 329.146 1.53394 -0.966431 0
M  V30 3568 C 329.194 -0.904057 -3.49083 0
M  V30 3569 O 328.298 0.0147939 -4.12397 0
M  V30 3570 H 327.639 -0.240368 -0.618966 0
M  V30 3571 H 330.169 -1.28717 -1.59038 0
M  V30 3572 H 330.179 -0.832203 -3.99423 0
M  V30 3573 H 328.854 -1.94048 -3.67856 0
M  V30 3574 H 327.431 -0.109664 -3.72739 0
M  V30 3575 N 329.616 1.39756 -0.72842 0
M  V30 3576 C 331.027 1.83498 -0.344289 0
M  V30 3577 C 331.378 1.60868 1.12321 0
M  V30 3578 O 330.503 1.09634 1.86573 0
M  V30 3579 C 331.098 3.33114 -0.618112 0
M  V30 3580 C 329.657 3.753 -0.287549 0
M  V30 3581 C 328.804 2.62831 -0.884048 0
M  V30 3582 H 331.755 1.28842 -0.926578 0
M  V30 3583 H 331.776 3.80334 0.112349 0
M  V30 3584 H 331.288 3.49553 -1.68625 0
M  V30 3585 H 329.389 3.64451 0.775012 0
M  V30 3586 H 329.502 4.72945 -0.765512 0
M  V30 3587 H 327.866 2.52792 -0.311149 0
M  V30 3588 H 328.649 2.82078 -1.95671 0
M  V30 3589 N 331.094 0.475555 1.50254 0
M  V30 3590 C 332.024 -0.30611 2.31485 0
M  V30 3591 C 333.005 -0.986228 1.38591 0
M  V30 3592 O 334.19 -0.982541 1.67511 0
M  V30 3593 C 331.32 -1.38588 3.1845 0
M  V30 3594 C 330.274 -0.827115 4.19932 0
M  V30 3595 C 329.6 -2.00551 4.95665 0
M  V30 3596 C 330.9 0.16463 5.2204 0
M  V30 3597 H 332.594 0.371866 2.97082 0
M  V30 3598 H 330.14 0.180282 1.42867 0
M  V30 3599 H 332.093 -1.94023 3.74076 0
M  V30 3600 H 330.817 -2.09269 2.50747 0
M  V30 3601 H 329.476 -0.294702 3.65414 0
M  V30 3602 H 329.124 -2.6994 4.2443 0
M  V30 3603 H 328.824 -1.63784 5.64313 0
M  V30 3604 H 330.348 -2.56468 5.54127 0
M  V30 3605 H 331.762 -0.300699 5.72511 0
M  V30 3606 H 330.159 0.446813 5.98434 0
M  V30 3607 H 331.229 1.08905 4.72512 0
M  V30 3608 N 332.573 -1.56217 0.208337 0
M  V30 3609 C 333.52 -2.19699 -0.707192 0
M  V30 3610 C 334.49 -1.14836 -1.20008 0
M  V30 3611 O 335.675 -1.4314 -1.26157 0
M  V30 3612 C 332.815 -2.87061 -1.91546 0
M  V30 3613 C 331.928 -4.06483 -1.46271 0
M  V30 3614 C 331.063 -4.61665 -2.62752 0
M  V30 3615 C 330.102 -5.73417 -2.14147 0
M  V30 3616 N 329.239 -6.22948 -3.23853 0
M  V30 3617 H 334.079 -2.97575 -0.159111 0
M  V30 3618 H 331.616 -1.46948 -0.0667874 0
M  V30 3619 H 333.574 -3.24294 -2.62468 0
M  V30 3620 H 332.204 -2.11725 -2.43664 0
M  V30 3621 H 331.256 -3.74825 -0.648886 0
M  V30 3622 H 332.568 -4.87271 -1.06622 0
M  V30 3623 H 331.722 -5.01272 -3.41776 0
M  V30 3624 H 330.461 -3.80013 -3.05682 0
M  V30 3625 H 329.466 -5.33326 -1.33581 0
M  V30 3626 H 330.691 -6.56897 -1.72232 0
M  V30 3627 H 328.637 -5.44213 -3.6629 0
M  V30 3628 H 328.554 -6.98823 -2.88414 0
M  V30 3629 H 329.822 -6.6721 -4.03052 0
M  V30 3630 N 334.051 0.0651679 -1.57465 0
M  V30 3631 C 335.291 0.768329 -1.8941 0
M  V30 3632 C 335.655 1.74406 -0.802894 0
M  V30 3633 O 336.856 2.49281 -1.0056 0
M  V30 3634 C 335.127 1.45199 -3.26576 0
M  V30 3635 S 336.686 2.1893 -3.80283 0
M  V30 3636 H 333.504 0.255359 -0.663561 0
M  V30 3637 H 336.106 0.024167 -1.95485 0
M  V30 3638 H 334.81 0.728123 -4.03889 0
M  V30 3639 H 334.341 2.23545 -3.23715 0
M  V30 3640 H 336.356 3.45551 -3.56102 0
M  V30 3641 N 335.529 1.53961 0.336706 0
M  V30 3642 C 336.757 1.75483 1.09605 0
M  V30 3643 C 337.172 0.4972 1.82136 0
M  V30 3644 O 336.529 -0.53149 1.74589 0
M  V30 3645 C 336.58 2.93943 2.10428 0
M  V30 3646 O 336.301 4.14842 1.40846 0
M  V30 3647 C 337.802 3.27571 2.98684 0
M  V30 3648 H 335.022 0.586166 0.326574 0
M  V30 3649 H 337.566 2.00808 0.38683 0
M  V30 3650 H 335.721 2.70929 2.76905 0
M  V30 3651 H 336.135 4.81383 2.08255 0
M  V30 3652 H 337.609 4.13791 3.6535 0
M  V30 3653 H 338.086 2.44168 3.65074 0
M  V30 3654 H 338.692 3.52615 2.37787 0
M  V30 3655 N 337.007 -0.598083 1.45811 0
M  V30 3656 C 337.937 -1.71873 1.58057 0
M  V30 3657 C 338.918 -1.64533 0.431615 0
M  V30 3658 O 340.103 -1.82787 0.65595 0
M  V30 3659 C 337.233 -3.10495 1.55597 0
M  V30 3660 C 336.187 -3.32654 2.69305 0
M  V30 3661 C 335.513 -4.71646 2.51902 0
M  V30 3662 C 336.813 -3.21981 4.11248 0
M  V30 3663 H 338.507 -1.61881 2.51863 0
M  V30 3664 H 336.053 -0.777372 1.21214 0
M  V30 3665 H 338.006 -3.88699 1.6276 0
M  V30 3666 H 336.73 -3.2135 0.583255 0
M  V30 3667 H 335.389 -2.56843 2.61586 0
M  V30 3668 H 335.037 -4.79246 1.52748 0
M  V30 3669 H 334.737 -4.87426 3.2816 0
M  V30 3670 H 336.261 -5.52038 2.60933 0
M  V30 3671 H 337.675 -3.90049 4.20161 0
M  V30 3672 H 336.072 -3.49289 4.87972 0
M  V30 3673 H 337.142 -2.1928 4.32486 0
M  V30 3674 N 338.485 -1.33259 -0.841409 0
M  V30 3675 C 339.415 -1.25926 -1.96634 0
M  V30 3676 C 340.396 -0.140349 -1.6952 0
M  V30 3677 O 341.581 -0.329707 -1.91381 0
M  V30 3678 C 338.711 -0.99512 -3.32738 0
M  V30 3679 C 337.665 -2.0767 -3.74242 0
M  V30 3680 C 336.991 -1.66474 -5.08125 0
M  V30 3681 C 338.291 -3.49318 -3.88297 0
M  V30 3682 H 339.985 -2.20046 -2.03027 0
M  V30 3683 H 337.531 -1.05931 -0.975425 0
M  V30 3684 H 339.484 -0.930323 -4.11002 0
M  V30 3685 H 338.208 -0.0183004 -3.26595 0
M  V30 3686 H 336.867 -2.13187 -2.98239 0
M  V30 3687 H 336.515 -0.675012 -4.9845 0
M  V30 3688 H 336.215 -2.3885 -5.36865 0
M  V30 3689 H 337.739 -1.61455 -5.88867 0
M  V30 3690 H 339.153 -3.46316 -4.56879 0
M  V30 3691 H 337.55 -4.20158 -4.28471 0
M  V30 3692 H 338.62 -3.8801 -2.9082 0
M  V30 3693 N 339.963 1.05934 -1.16686 0
M  V30 3694 C 341.374 1.60263 -0.957745 0
M  V30 3695 C 341.725 1.89789 0.49745 0
M  V30 3696 O 340.85 1.67401 1.37135 0
M  V30 3697 C 341.445 2.91172 -1.73218 0
M  V30 3698 C 340.004 3.42188 -1.56794 0
M  V30 3699 C 339.151 2.16028 -1.73859 0
M  V30 3700 H 342.102 0.888392 -1.31504 0
M  V30 3701 H 342.123 3.60744 -1.21014 0
M  V30 3702 H 341.635 2.6965 -2.79124 0
M  V30 3703 H 339.736 3.68762 -0.533437 0
M  V30 3704 H 339.849 4.17273 -2.35414 0
M  V30 3705 H 338.213 2.26426 -1.16633 0
M  V30 3706 H 338.996 1.96985 -2.81161 0
M  V30 3707 N 341.441 0.965919 1.2453 0
M  V30 3708 C 342.852 0.665929 1.7442 0
M  V30 3709 C 343.203 -0.818407 1.78316 0
M  V30 3710 O 342.328 -1.64037 1.41141 0
M  V30 3711 C 342.923 1.20211 3.16757 0
M  V30 3712 C 341.482 0.952059 3.6416 0
M  V30 3713 C 340.629 1.33848 2.42858 0
M  V30 3714 H 343.58 1.14144 1.10258 0
M  V30 3715 H 343.601 0.567544 3.76244 0
M  V30 3716 H 343.113 2.28244 3.13889 0
M  V30 3717 H 341.214 -0.112821 3.72429 0
M  V30 3718 H 341.327 1.59645 4.51719 0
M  V30 3719 H 339.691 0.756864 2.43195 0
M  V30 3720 H 340.474 2.42827 2.42673 0
M  V30 3721 N 342.919 -1.39368 0.735821 0
M  V30 3722 C 344.167 -2.00101 0.283562 0
M  V30 3723 C 344.488 -1.5868 -1.13338 0
M  V30 3724 O 343.758 -0.835423 -1.77193 0
M  V30 3725 H 342.338 -0.740024 0.101851 0
M  V30 3726 H 345 -1.70404 0.945962 0
M  V30 3727 H 344.096 -3.10323 0.332604 0
M  V30 3728 N 344.397 -0.483516 -1.5 0
M  V30 3729 C 345.329 0.340634 -2.26655 0
M  V30 3730 C 346.342 0.946152 -1.32483 0
M  V30 3731 O 347.531 0.832453 -1.579 0
M  V30 3732 C 344.631 1.4929 -3.04246 0
M  V30 3733 C 343.804 0.997903 -4.25865 0
M  V30 3734 C 342.863 2.02569 -4.85646 0
M  V30 3735 O 341.889 1.60128 -5.46212 0
M  V30 3736 N 343.091 3.3548 -4.73744 0
M  V30 3737 H 345.856 -0.316577 -2.98023 0
M  V30 3738 H 343.417 -0.315024 -1.58806 0
M  V30 3739 H 345.409 2.17766 -3.41116 0
M  V30 3740 H 343.979 2.05458 -2.35597 0
M  V30 3741 H 343.199 0.138617 -3.93956 0
M  V30 3742 H 344.487 0.645305 -5.04691 0
M  V30 3743 H 343.885 3.72661 -4.25605 0
M  V30 3744 H 342.442 3.99718 -5.14848 0
M  V30 3745 N 345.875 1.56104 -0.216619 0
M  V30 3746 C 346.785 2.23694 0.706982 0
M  V30 3747 C 347.801 1.24295 1.21765 0
M  V30 3748 O 348.977 1.57094 1.2603 0
M  V30 3749 C 346.042 2.8998 1.90033 0
M  V30 3750 C 345.103 4.04708 1.43213 0
M  V30 3751 C 344.336 4.67824 2.56859 0
M  V30 3752 O 344.559 4.29913 3.74874 0
M  V30 3753 O 343.493 5.56905 2.28343 0
M  V30 3754 H 347.319 3.03272 0.161235 0
M  V30 3755 H 344.904 1.49394 0.0136177 0
M  V30 3756 H 346.786 3.31837 2.59735 0
M  V30 3757 H 345.461 2.13365 2.43428 0
M  V30 3758 H 344.368 3.6743 0.70327 0
M  V30 3759 H 345.701 4.83051 0.944615 0
M  V30 3760 N 347.353 -0.0568162 1.57498 0
M  V30 3761 C 348.578 -0.769402 1.92601 0
M  V30 3762 C 349.003 -1.69559 0.814336 0
M  V30 3763 O 348.361 -1.79811 -0.231903 0
M  V30 3764 C 348.409 -1.52634 3.26704 0
M  V30 3765 O 347.513 -2.63797 3.16994 0
M  V30 3766 H 346.854 -0.208909 0.63028 0
M  V30 3767 H 349.384 -0.0205798 2.0459 0
M  V30 3768 H 349.394 -1.90234 3.60936 0
M  V30 3769 H 348.069 -0.846875 4.07186 0
M  V30 3770 H 346.646 -2.28943 2.94346 0
M  V30 3771 N 348.832 -1.54138 -0.328536 0
M  V30 3772 C 349.742 -1.86192 -1.42723 0
M  V30 3773 C 350.758 -0.753382 -1.56844 0
M  V30 3774 O 351.934 -1.04718 -1.72035 0
M  V30 3775 C 348.999 -2.07824 -2.77507 0
M  V30 3776 C 348.06 -3.31641 -2.72603 0
M  V30 3777 C 347.293 -3.52232 -4.00959 0
M  V30 3778 O 347.516 -2.7636 -4.9898 0
M  V30 3779 O 346.45 -4.45699 -4.0452 0
M  V30 3780 H 350.276 -2.79608 -1.18547 0
M  V30 3781 H 347.861 -1.3998 -0.522104 0
M  V30 3782 H 349.743 -2.23411 -3.57303 0
M  V30 3783 H 348.418 -1.17596 -3.01584 0
M  V30 3784 H 347.325 -3.21444 -1.91376 0
M  V30 3785 H 348.658 -4.2191 -2.53481 0
M  V30 3786 N 350.31 0.590341 -1.46126 0
M  V30 3787 C 351.535 1.37991 -1.54833 0
M  V30 3788 C 351.96 1.87163 -0.187506 0
M  V30 3789 O 351.318 1.61133 0.831008 0
M  V30 3790 C 351.366 2.54867 -2.55098 0
M  V30 3791 O 350.47 3.56061 -2.08073 0
M  V30 3792 H 349.811 0.411265 -0.521303 0
M  V30 3793 H 352.341 0.716819 -1.91632 0
M  V30 3794 H 352.351 3.01886 -2.74461 0
M  V30 3795 H 351.026 2.18429 -3.53923 0
M  V30 3796 H 349.603 3.15574 -1.98664 0
M  V30 3797 N 351.788 1.33704 0.83433 0
M  V30 3798 C 352.751 1.24244 1.92603 0
M  V30 3799 C 353.751 0.160383 1.59998 0
M  V30 3800 O 354.941 0.412228 1.69252 0
M  V30 3801 C 352.073 0.91555 3.28376 0
M  V30 3802 H 353.266 2.21287 2.02416 0
M  V30 3803 H 350.819 1.17827 1.02696 0
M  V30 3804 H 351.554 -0.0521886 3.24258 0
M  V30 3805 H 351.339 1.69811 3.53422 0
M  V30 3806 H 352.829 0.874231 4.08347 0
M  V30 3807 N 353.266 -1.05314 1.17247 0
M  V30 3808 C 354.176 -2.16538 0.90268 0
M  V30 3809 C 355.192 -1.73523 -0.128707 0
M  V30 3810 O 356.368 -2.01337 0.0502701 0
M  V30 3811 C 353.433 -3.44167 0.418356 0
M  V30 3812 C 352.494 -4.01635 1.51618 0
M  V30 3813 C 351.727 -5.23171 1.05487 0
M  V30 3814 O 351.95 -5.70327 -0.0914715 0
M  V30 3815 O 350.884 -5.72848 1.8474 0
M  V30 3816 H 354.71 -2.42145 1.83302 0
M  V30 3817 H 352.295 -1.15037 0.953246 0
M  V30 3818 H 354.177 -4.21112 0.155726 0
M  V30 3819 H 352.852 -3.20063 -0.48385 0
M  V30 3820 H 351.759 -3.26135 1.83268 0
M  V30 3821 H 353.092 -4.30053 2.39405 0
M  V30 3822 N 354.744 -0.972509 -1.24016 0
M  V30 3823 C 355.969 -0.654417 -1.96805 0
M  V30 3824 C 356.394 0.770398 -1.716 0
M  V30 3825 O 355.752 1.52361 -0.982647 0
M  V30 3826 C 355.8 -0.941031 -3.48105 0
M  V30 3827 O 354.904 -0.0289472 -4.1239 0
M  V30 3828 H 354.245 -0.24692 -0.616382 0
M  V30 3829 H 356.775 -1.30396 -1.57664 0
M  V30 3830 H 356.785 -0.87452 -3.98517 0
M  V30 3831 H 355.46 -1.97939 -3.65777 0
M  V30 3832 H 354.037 -0.149192 -3.72601 0
M  V30 3833 N 356.222 1.38976 -0.743202 0
M  V30 3834 C 357.185 2.28901 -0.117014 0
M  V30 3835 C 358.185 1.46698 0.658503 0
M  V30 3836 O 359.375 1.67274 0.486305 0
M  V30 3837 C 356.507 3.30309 0.84315 0
M  V30 3838 H 357.7 2.8578 -0.909373 0
M  V30 3839 H 355.253 1.47761 -0.509547 0
M  V30 3840 H 355.988 2.785 1.66157 0
M  V30 3841 H 355.773 3.91029 0.289594 0
M  V30 3842 H 357.263 3.97577 1.2776 0
M  V30 3843 N 357.7 0.491464 1.49741 0
M  V30 3844 C 358.647 -0.292027 2.28945 0
M  V30 3845 C 359.617 -0.968973 1.34908 0
M  V30 3846 O 360.802 -0.97748 1.6386 0
M  V30 3847 C 357.942 -1.35617 3.17336 0
M  V30 3848 C 357.055 -0.691957 4.26422 0
M  V30 3849 C 356.19 -1.73572 5.02042 0
M  V30 3850 C 355.229 -1.05286 6.02977 0
M  V30 3851 N 354.366 -2.0404 6.71798 0
M  V30 3852 H 359.206 0.389654 2.95442 0
M  V30 3853 H 356.743 0.204003 1.45679 0
M  V30 3854 H 358.701 -1.98502 3.66951 0
M  V30 3855 H 357.331 -2.00674 2.52844 0
M  V30 3856 H 356.383 0.0499523 3.80367 0
M  V30 3857 H 357.695 -0.153946 4.98562 0
M  V30 3858 H 356.849 -2.43987 5.55478 0
M  V30 3859 H 355.588 -2.30757 4.29654 0
M  V30 3860 H 354.593 -0.334446 5.48782 0
M  V30 3861 H 355.818 -0.487636 6.77347 0
M  V30 3862 H 353.764 -2.60205 6.02187 0
M  V30 3863 H 353.681 -1.55279 7.39881 0
M  V30 3864 H 354.949 -2.73772 7.29842 0
M  V30 3865 N 359.178 -1.55987 0.224894 0
M  V30 3866 C 360.427 -1.97566 -0.406273 0
M  V30 3867 C 360.74 -1.11569 -1.6066 0
M  V30 3868 O 361.946 -1.43062 -2.3075 0
M  V30 3869 C 360.402 -3.51474 -0.774207 0
M  V30 3870 C 360.01 -4.46179 0.403496 0
M  V30 3871 C 361.754 -4.01758 -1.37079 0
M  V30 3872 C 359.661 -5.91399 0.0129412 0
M  V30 3873 H 358.591 -0.737777 -0.155565 0
M  V30 3874 H 361.242 -1.80659 0.321635 0
M  V30 3875 H 359.624 -3.63994 -1.55963 0
M  V30 3876 H 360.798 -4.45409 1.18101 0
M  V30 3877 H 359.113 -4.06255 0.913536 0
M  V30 3878 H 361.71 -5.07756 -1.67596 0
M  V30 3879 H 362.053 -3.47805 -2.28773 0
M  V30 3880 H 362.586 -3.92475 -0.648733 0
M  V30 3881 H 359.325 -6.49341 0.896451 0
M  V30 3882 H 358.845 -5.95356 -0.728821 0
M  V30 3883 H 360.524 -6.45683 -0.412582 0
M  V30 3884 N 360.656 0.0484629 -1.57525 0
M  V30 3885 C 361.904 0.741657 -1.88 0
M  V30 3886 C 362.225 1.76918 -0.820054 0
M  V30 3887 O 361.495 1.95335 0.148661 0
M  V30 3888 H 360.075 0.276908 -0.69378 0
M  V30 3889 H 362.737 0.019013 -1.94891 0
M  V30 3890 H 361.833 1.24336 -2.86264 0
M  V30 3891 N 362.134 1.5431 0.320358 0
M  V30 3892 C 363.382 1.72327 1.05583 0
M  V30 3893 C 363.703 0.50149 1.88441 0
M  V30 3894 O 362.973 -0.48448 1.89815 0
M  V30 3895 H 361.553 0.635387 0.3928 0
M  V30 3896 H 364.215 1.91621 0.356019 0
M  V30 3897 H 363.311 2.60426 1.72003 0
M  V30 3898 N 363.613 -0.582584 1.46437 0
M  V30 3899 C 364.862 -1.337 1.5102 0
M  V30 3900 C 365.175 -1.94891 0.166359 0
M  V30 3901 O 366.381 -2.71351 0.0899954 0
M  V30 3902 C 364.837 -2.42315 2.66104 0
M  V30 3903 C 364.445 -1.87427 4.06909 0
M  V30 3904 C 366.189 -3.19099 2.79958 0
M  V30 3905 C 364.096 -2.93672 5.13333 0
M  V30 3906 H 363.026 -0.502619 0.562041 0
M  V30 3907 H 365.677 -0.621701 1.72647 0
M  V30 3908 H 364.059 -3.16645 2.37807 0
M  V30 3909 H 365.233 -1.19639 4.44998 0
M  V30 3910 H 363.548 -1.2331 3.97723 0
M  V30 3911 H 366.145 -3.9839 3.56636 0
M  V30 3912 H 366.488 -3.71695 1.87479 0
M  V30 3913 H 367.021 -2.51875 3.07902 0
M  V30 3914 H 363.76 -2.45962 6.07604 0
M  V30 3915 H 363.28 -3.59948 4.79789 0
M  V30 3916 H 364.959 -3.5762 5.39182 0
M  V30 3917 N 365.091 -1.34144 -0.827227 0
M  V30 3918 C 366.34 -1.25602 -1.5782 0
M  V30 3919 C 366.653 0.173445 -1.94829 0
M  V30 3920 O 367.859 0.380984 -2.68814 0
M  V30 3921 C 366.315 -2.20151 -2.84713 0
M  V30 3922 C 365.923 -3.68331 -2.55021 0
M  V30 3923 C 367.667 -2.20508 -3.62735 0
M  V30 3924 C 365.574 -4.54762 -3.78082 0
M  V30 3925 H 364.504 -0.466573 -0.592306 0
M  V30 3926 H 367.155 -1.59283 -0.911116 0
M  V30 3927 H 365.537 -1.79417 -3.53023 0
M  V30 3928 H 366.711 -4.17577 -1.94849 0
M  V30 3929 H 365.026 -3.7038 -1.90283 0
M  V30 3930 H 367.623 -2.82306 -4.54101 0
M  V30 3931 H 367.966 -1.20322 -3.98533 0
M  V30 3932 H 368.499 -2.59664 -3.01362 0
M  V30 3933 H 365.238 -5.55867 -3.47407 0
M  V30 3934 H 364.758 -4.10254 -4.37552 0
M  V30 3935 H 366.437 -4.69153 -4.45538 0
M  V30 3936 N 366.569 1.04691 -1.17803 0
M  V30 3937 C 367.797 1.81446 -0.99423 0
M  V30 3938 C 368.212 1.83174 0.457459 0
M  V30 3939 O 367.569 1.26265 1.31771 0
M  V30 3940 C 367.62 3.27334 -1.5341 0
M  V30 3941 O 367.341 3.25798 -2.92895 0
M  V30 3942 C 368.842 4.20759 -1.39559 0
M  V30 3943 H 366.062 0.571599 -0.351447 0
M  V30 3944 H 368.606 1.31982 -1.56208 0
M  V30 3945 H 366.761 3.74052 -1.00815 0
M  V30 3946 H 367.175 4.17144 -3.17949 0
M  V30 3947 H 368.649 5.21084 -1.82141 0
M  V30 3948 H 369.126 4.37856 -0.343394 0
M  V30 3949 H 369.732 3.79901 -1.91195 0
M  V30 3950 N 368.047 0.979072 1.23499 0
M  V30 3951 C 369.293 0.648178 1.92163 0
M  V30 3952 C 369.626 -0.816049 1.76222 0
M  V30 3953 O 368.901 -1.58849 1.12237 0
M  V30 3954 C 369.184 1.03773 3.44824 0
M  V30 3955 C 369.037 2.55948 3.69879 0
M  V30 3956 C 370.356 0.580653 4.36253 0
M  V30 3957 H 367.475 0.236952 0.69787 0
M  V30 3958 H 370.117 1.22012 1.45647 0
M  V30 3959 H 368.267 0.551058 3.84572 0
M  V30 3960 H 369.939 3.12179 3.3962 0
M  V30 3961 H 368.182 2.98641 3.14636 0
M  V30 3962 H 368.853 2.78255 4.76737 0
M  V30 3963 H 371.329 0.998465 4.03943 0
M  V30 3964 H 370.205 0.881663 5.41773 0
M  V30 3965 H 370.466 -0.519052 4.39042 0
M  V30 3966 N 369.525 -1.3858 0.750561 0
M  V30 3967 C 370.772 -2.00184 0.305373 0
M  V30 3968 C 371.1 -1.59575 -1.11203 0
M  V30 3969 O 370.355 -0.823236 -1.77542 0
M  V30 3970 C 370.654 -3.55455 0.372373 0
M  V30 3971 C 370.32 -4.15765 1.745 0
M  V30 3972 C 368.982 -4.31951 2.12065 0
M  V30 3973 C 371.334 -4.49067 2.64553 0
M  V30 3974 C 368.662 -4.78734 3.39162 0
M  V30 3975 C 371.014 -4.97265 3.91038 0
M  V30 3976 C 369.678 -5.11658 4.28676 0
M  V30 3977 H 368.948 -0.732526 0.111744 0
M  V30 3978 H 371.595 -1.65673 0.960451 0
M  V30 3979 H 369.9 -3.90084 -0.366272 0
M  V30 3980 H 371.597 -4.00999 0.00953918 0
M  V30 3981 H 368.187 -4.03579 1.44297 0
M  V30 3982 H 372.371 -4.36166 2.36796 0
M  V30 3983 H 367.627 -4.88062 3.68246 0
M  V30 3984 H 371.801 -5.22003 4.60962 0
M  V30 3985 H 369.428 -5.47668 5.27222 0
M  V30 3986 N 371.003 -0.499398 -1.49478 0
M  V30 3987 C 371.933 0.269244 -2.31943 0
M  V30 3988 C 372.914 0.964054 -1.40143 0
M  V30 3989 O 374.099 0.955767 -1.69052 0
M  V30 3990 C 371.229 1.33504 -3.20615 0
M  V30 3991 C 370.183 0.760202 -4.21195 0
M  V30 3992 C 369.509 1.9264 -4.98792 0
M  V30 3993 C 370.809 -0.247661 -5.21712 0
M  V30 3994 H 372.503 -0.419082 -2.96452 0
M  V30 3995 H 370.049 -0.202988 -1.42562 0
M  V30 3996 H 372.002 1.88048 -3.77115 0
M  V30 3997 H 370.726 2.05253 -2.54045 0
M  V30 3998 H 369.385 0.23653 -3.65836 0
M  V30 3999 H 369.033 2.63154 -4.28671 0
M  V30 4000 H 368.733 1.54785 -5.66847 0
M  V30 4001 H 370.257 2.4762 -5.58137 0
M  V30 4002 H 371.671 0.209579 -5.72917 0
M  V30 4003 H 370.068 -0.541962 -5.97648 0
M  V30 4004 H 371.138 -1.16409 -4.7072 0
M  V30 4005 N 372.481 1.55866 -0.233164 0
M  V30 4006 C 373.73 1.97779 0.39579 0
M  V30 4007 C 374.043 1.12419 1.60066 0
M  V30 4008 O 375.249 1.44283 2.29988 0
M  V30 4009 C 373.705 3.5188 0.755556 0
M  V30 4010 C 373.313 4.45959 -0.427152 0
M  V30 4011 C 375.057 4.02479 1.34946 0
M  V30 4012 C 372.964 5.91383 -0.0443043 0
M  V30 4013 H 371.894 0.738592 0.15165 0
M  V30 4014 H 374.545 1.80486 -0.331212 0
M  V30 4015 H 372.927 3.64816 1.5403 0
M  V30 4016 H 374.101 4.44776 -1.20462 0
M  V30 4017 H 372.416 4.05765 -0.935068 0
M  V30 4018 H 375.013 5.08637 1.649 0
M  V30 4019 H 375.356 3.49014 2.26925 0
M  V30 4020 H 375.889 3.92813 0.62791 0
M  V30 4021 H 372.628 6.48857 -0.930874 0
M  V30 4022 H 372.148 5.95734 0.697238 0
M  V30 4023 H 373.827 6.45893 0.378334 0
M  V30 4024 N 373.959 -0.0401083 1.57549 0
M  V30 4025 C 374.922 -1.02871 2.04817 0
M  V30 4026 C 375.922 -1.29708 0.950388 0
M  V30 4027 O 377.112 -1.24897 1.21435 0
M  V30 4028 C 374.244 -2.36443 2.45576 0
M  V30 4029 H 375.437 -0.620631 2.93408 0
M  V30 4030 H 372.99 -0.286667 1.53649 0
M  V30 4031 H 373.725 -2.82021 1.60108 0
M  V30 4032 H 373.51 -2.18296 3.25713 0
M  V30 4033 H 375 -3.07441 2.82612 0
M  V30 4034 N 375.437 -1.54477 -0.31217 0
M  V30 4035 C 376.367 -1.87652 -1.38957 0
M  V30 4036 C 377.348 -0.734358 -1.53431 0
M  V30 4037 O 378.533 -0.98911 -1.67123 0
M  V30 4038 C 375.663 -2.11396 -2.75552 0
M  V30 4039 C 374.617 -3.27243 -2.75855 0
M  V30 4040 C 373.943 -3.36382 -4.15633 0
M  V30 4041 C 375.243 -4.64622 -2.38587 0
M  V30 4042 H 376.937 -2.77887 -1.11442 0
M  V30 4043 H 374.483 -1.33707 -0.534655 0
M  V30 4044 H 376.436 -2.33189 -3.51 0
M  V30 4045 H 375.16 -1.17921 -3.04569 0
M  V30 4046 H 373.819 -3.05356 -2.02863 0
M  V30 4047 H 373.467 -2.40445 -4.41809 0
M  V30 4048 H 373.167 -4.14249 -4.1674 0
M  V30 4049 H 374.691 -3.60422 -4.92877 0
M  V30 4050 H 376.105 -4.86219 -3.03749 0
M  V30 4051 H 374.502 -5.45121 -2.50925 0
M  V30 4052 H 375.572 -4.66097 -1.33723 0
M  V30 4053 N 376.915 0.57481 -1.46744 0
M  V30 4054 C 378.161 1.3347 -1.52688 0
M  V30 4055 C 378.494 1.93353 -0.181229 0
M  V30 4056 O 377.769 1.76912 0.808237 0
M  V30 4057 C 378.052 2.45811 -2.63152 0
M  V30 4058 C 377.905 1.90912 -4.07275 0
M  V30 4059 C 379.224 3.47822 -2.69644 0
M  V30 4060 H 376.343 0.483935 -0.555856 0
M  V30 4061 H 378.985 0.644968 -1.78718 0
M  V30 4062 H 377.135 3.04646 -2.41088 0
M  V30 4063 H 378.807 1.36473 -4.4065 0
M  V30 4064 H 377.05 1.21691 -4.16382 0
M  V30 4065 H 377.721 2.72042 -4.80309 0
M  V30 4066 H 380.197 2.9888 -2.895 0
M  V30 4067 H 379.073 4.23876 -3.48742 0
M  V30 4068 H 379.334 4.05555 -1.76005 0
M  V30 4069 N 378.394 1.34581 0.820102 0
M  V30 4070 C 379.324 1.29038 1.94606 0
M  V30 4071 C 380.305 0.1673 1.69275 0
M  V30 4072 O 381.49 0.360112 1.90832 0
M  V30 4073 C 378.62 1.04793 3.31113 0
M  V30 4074 C 377.574 2.13597 3.70891 0
M  V30 4075 C 376.9 1.74537 5.05412 0
M  V30 4076 C 378.2 3.55451 3.8269 0
M  V30 4077 H 379.894 2.23248 1.99501 0
M  V30 4078 H 377.44 1.0747 0.958449 0
M  V30 4079 H 379.393 0.995592 4.0947 0
M  V30 4080 H 378.117 0.0702565 3.26524 0
M  V30 4081 H 376.776 2.17905 2.9481 0
M  V30 4082 H 376.424 0.754226 4.97313 0
M  V30 4083 H 376.124 2.47361 5.32997 0
M  V30 4084 H 377.648 1.70803 5.86224 0
M  V30 4085 H 379.062 3.5354 4.51312 0
M  V30 4086 H 377.459 4.26922 4.21732 0
M  V30 4087 H 378.529 3.92587 2.84611 0
M  V30 4088 N 379.872 -1.04064 1.18357 0
M  V30 4089 C 381.1 -1.80916 1.00384 0
M  V30 4090 C 381.515 -1.83414 -0.447738 0
M  V30 4091 O 380.872 -1.26962 -1.31099 0
M  V30 4092 C 380.923 -3.26516 1.55144 0
M  V30 4093 O 380.644 -3.2424 2.94618 0
M  V30 4094 C 382.145 -4.20013 1.41789 0
M  V30 4095 H 379.365 -0.569728 0.354474 0
M  V30 4096 H 381.909 -1.31151 1.56906 0
M  V30 4097 H 380.064 -3.73512 1.02798 0
M  V30 4098 H 380.478 -4.15452 3.20156 0
M  V30 4099 H 381.952 -5.20111 1.84901 0
M  V30 4100 H 382.429 -4.37667 0.36661 0
M  V30 4101 H 383.035 -3.78881 1.93207 0
M  V30 4102 N 381.35 -0.985608 -1.22978 0
M  V30 4103 C 382.575 -0.675254 -1.961 0
M  V30 4104 C 383 0.752154 -1.72407 0
M  V30 4105 O 382.358 1.5131 -0.998751 0
M  V30 4106 C 382.406 -0.977899 -3.47087 0
M  V30 4107 O 381.51 -0.072685 -4.12336 0
M  V30 4108 H 380.851 -0.253443 -0.613728 0
M  V30 4109 H 383.381 -1.32061 -1.56272 0
M  V30 4110 H 383.391 -0.916739 -3.97567 0
M  V30 4111 H 382.066 -2.01807 -3.63657 0
M  V30 4112 H 380.643 -0.188703 -3.72422 0
M  V30 4113 N 382.828 1.3818 -0.7579 0
M  V30 4114 C 384.056 2.04301 -0.326937 0
M  V30 4115 C 384.471 1.57163 1.0462 0
M  V30 4116 O 383.828 0.746626 1.66529 0
M  V30 4117 C 383.879 3.59846 -0.345363 0
M  V30 4118 O 383.6 4.05256 -1.66432 0
M  V30 4119 C 385.101 4.4319 0.098927 0
M  V30 4120 H 382.321 0.656443 -0.139012 0
M  V30 4121 H 384.865 1.76786 -1.02796 0
M  V30 4122 H 383.02 3.86182 0.306955 0
M  V30 4123 H 383.434 4.99709 -1.59345 0
M  V30 4124 H 384.908 5.51989 0.0348745 0
M  V30 4125 H 385.385 4.23947 1.14741 0
M  V30 4126 H 385.991 4.22051 -0.52468 0
M  V30 4127 N 384.306 0.507319 1.49211 0
M  V30 4128 C 385.555 -0.0368315 2.01666 0
M  V30 4129 C 385.868 -1.37459 1.39156 0
M  V30 4130 O 387.074 -2.00579 1.82976 0
M  V30 4131 C 385.53 -0.116089 3.59713 0
M  V30 4132 C 385.138 1.2154 4.31198 0
M  V30 4133 C 386.882 -0.610268 4.2009 0
M  V30 4134 C 384.789 1.09796 5.81119 0
M  V30 4135 H 383.719 -0.0175376 0.753796 0
M  V30 4136 H 386.37 0.647691 1.71689 0
M  V30 4137 H 384.752 -0.8652 3.86433 0
M  V30 4138 H 385.926 1.9783 4.16173 0
M  V30 4139 H 384.241 1.64352 3.82593 0
M  V30 4140 H 386.838 -0.715742 5.29888 0
M  V30 4141 H 387.181 -1.61064 3.8388 0
M  V30 4142 H 387.714 0.0824916 3.97714 0
M  V30 4143 H 384.453 2.0728 6.21864 0
M  V30 4144 H 383.973 0.376058 5.9862 0
M  V30 4145 H 385.652 0.779281 6.4229 0
M  V30 4146 N 385.784 -1.5574 0.241426 0
M  V30 4147 C 387.03 -1.99104 -0.385406 0
M  V30 4148 C 387.363 -1.1293 -1.57988 0
M  V30 4149 O 386.638 -0.191449 -1.93555 0
M  V30 4150 C 386.921 -3.51087 -0.800616 0
M  V30 4151 C 386.774 -4.48028 0.398874 0
M  V30 4152 C 388.093 -4.08015 -1.64959 0
M  V30 4153 H 385.212 -0.723848 -0.138614 0
M  V30 4154 H 387.854 -1.86903 0.341642 0
M  V30 4155 H 386.004 -3.61615 -1.4201 0
M  V30 4156 H 387.676 -4.49487 1.03726 0
M  V30 4157 H 385.919 -4.21077 1.04293 0
M  V30 4158 H 386.59 -5.51962 0.0651056 0
M  V30 4159 H 389.066 -4.00555 -1.12672 0
M  V30 4160 H 387.942 -5.14635 -1.90898 0
M  V30 4161 H 388.203 -3.56131 -2.61961 0
M  V30 4162 N 387.262 0.0317525 -1.57568 0
M  V30 4163 C 388.49 0.734949 -1.93407 0
M  V30 4164 C 388.905 1.69036 -0.84096 0
M  V30 4165 O 388.262 1.81582 0.182836 0
M  V30 4166 C 388.313 1.49432 -3.29169 0
M  V30 4167 O 388.034 0.577261 -4.3428 0
M  V30 4168 C 389.535 2.29492 -3.79273 0
M  V30 4169 H 386.755 0.206706 -0.638368 0
M  V30 4170 H 389.299 -0.00992046 -2.04498 0
M  V30 4171 H 387.454 2.1911 -3.19483 0
M  V30 4172 H 387.868 1.10952 -5.1263 0
M  V30 4173 H 389.342 2.78172 -4.76785 0
M  V30 4174 H 389.819 3.10794 -3.10328 0
M  V30 4175 H 390.425 1.64894 -3.92033 0
M  V30 4176 N 388.74 1.54641 0.303973 0
M  V30 4177 C 389.67 1.88386 1.3796 0
M  V30 4178 C 390.651 0.742485 1.5304 0
M  V30 4179 O 391.836 0.997959 1.66597 0
M  V30 4180 C 388.966 2.12854 2.74427 0
M  V30 4181 C 387.92 3.28702 2.74115 0
M  V30 4182 C 387.246 3.38582 4.13844 0
M  V30 4183 C 388.546 4.65881 2.3612 0
M  V30 4184 H 390.24 2.78474 1.09966 0
M  V30 4185 H 387.786 1.33988 0.527556 0
M  V30 4186 H 389.739 2.35047 3.49758 0
M  V30 4187 H 388.463 1.19535 3.03939 0
M  V30 4188 H 387.122 3.06428 2.0124 0
M  V30 4189 H 386.77 2.42784 4.40528 0
M  V30 4190 H 386.47 4.16453 4.14537 0
M  V30 4191 H 387.994 3.63031 4.90959 0
M  V30 4192 H 389.408 4.87823 3.01167 0
M  V30 4193 H 387.805 5.46444 2.48031 0
M  V30 4194 H 388.875 4.66799 1.3125 0
M  V30 4195 N 390.218 -0.567019 1.47046 0
M  V30 4196 C 391.165 -1.67489 1.58796 0
M  V30 4197 C 392.135 -1.60399 0.43144 0
M  V30 4198 O 393.32 -1.79378 0.650233 0
M  V30 4199 C 390.46 -3.05821 1.59899 0
M  V30 4200 C 389.573 -3.2342 2.86397 0
M  V30 4201 C 388.708 -4.52093 2.789 0
M  V30 4202 C 387.747 -4.6309 4.00267 0
M  V30 4203 N 386.884 -5.83106 3.91064 0
M  V30 4204 H 391.724 -1.56785 2.53422 0
M  V30 4205 H 389.261 -0.763896 1.2571 0
M  V30 4206 H 391.219 -3.8591 1.58522 0
M  V30 4207 H 389.849 -3.15384 0.687929 0
M  V30 4208 H 388.901 -2.3683 2.97684 0
M  V30 4209 H 390.213 -3.27412 3.76301 0
M  V30 4210 H 389.367 -5.4043 2.75718 0
M  V30 4211 H 388.106 -4.50565 1.86662 0
M  V30 4212 H 387.111 -3.73168 4.03765 0
M  V30 4213 H 388.336 -4.66386 4.93621 0
M  V30 4214 H 386.282 -5.82546 3.01623 0
M  V30 4215 H 386.199 -5.88434 4.74638 0
M  V30 4216 H 387.467 -6.73831 3.91882 0
M  V30 4217 N 391.696 -1.35014 -0.812953 0
M  V30 4218 C 392.942 -1.29129 -1.57154 0
M  V30 4219 C 393.297 0.134922 -1.91926 0
M  V30 4220 O 392.59 1.08373 -1.58006 0
M  V30 4221 C 392.784 -2.12524 -2.87347 0
M  V30 4222 C 392.613 -3.6311 -2.65294 0
M  V30 4223 C 391.383 -4.32363 -2.61516 0
M  V30 4224 C 393.581 -4.56897 -2.36114 0
M  V30 4225 N 391.563 -5.68735 -2.31113 0
M  V30 4226 C 392.934 -5.81345 -2.15494 0
M  V30 4227 C 394.989 -4.45706 -2.21925 0
M  V30 4228 C 393.692 -6.95862 -1.82122 0
M  V30 4229 C 395.718 -5.60066 -1.89948 0
M  V30 4230 C 395.08 -6.83539 -1.7016 0
M  V30 4231 H 391.179 -0.527764 -0.577052 0
M  V30 4232 H 393.763 -1.6983 -0.952146 0
M  V30 4233 H 391.934 -1.74104 -3.47192 0
M  V30 4234 H 393.666 -1.98207 -3.5284 0
M  V30 4235 H 390.421 -3.84907 -2.75941 0
M  V30 4236 H 390.845 -6.40694 -2.18724 0
M  V30 4237 H 395.487 -3.50855 -2.35925 0
M  V30 4238 H 393.205 -7.90685 -1.6686 0
M  V30 4239 H 396.791 -5.53357 -1.79687 0
M  V30 4240 H 395.671 -7.70531 -1.45777 0
M  V30 4241 N 393.175 1.03435 -1.18907 0
M  V30 4242 C 394.424 1.76143 -0.982669 0
M  V30 4243 C 394.737 1.89416 0.487953 0
M  V30 4244 O 395.943 2.59041 0.813036 0
M  V30 4245 C 394.399 3.16722 -1.70924 0
M  V30 4246 C 394.007 3.11522 -3.21959 0
M  V30 4247 C 395.751 3.93764 -1.58588 0
M  V30 4248 C 393.658 4.46999 -3.87228 0
M  V30 4249 H 392.588 0.660292 -0.364047 0
M  V30 4250 H 395.239 1.158 -1.42347 0
M  V30 4251 H 393.621 3.775 -1.19623 0
M  V30 4252 H 394.795 2.60158 -3.80335 0
M  V30 4253 H 393.11 2.47978 -3.34508 0
M  V30 4254 H 395.707 4.93963 -2.04707 0
M  V30 4255 H 396.05 4.12794 -0.539142 0
M  V30 4256 H 396.583 3.39576 -2.07203 0
M  V30 4257 H 393.322 4.33174 -4.91976 0
M  V30 4258 H 392.842 4.98441 -3.33642 0
M  V30 4259 H 394.521 5.15898 -3.90459 0
M  V30 4260 N 394.653 0.992116 1.22453 0
M  V30 4261 C 395.901 0.666215 1.90804 0
M  V30 4262 C 396.222 -0.804152 1.77647 0
M  V30 4263 O 395.492 -1.57629 1.16318 0
M  V30 4264 H 394.072 0.243423 0.706225 0
M  V30 4265 H 396.734 1.25845 1.48825 0
M  V30 4266 H 395.83 0.928069 2.97982 0
M  V30 4267 N 396.131 -1.37776 0.765217 0
M  V30 4268 C 397.361 -2.03828 0.337277 0
M  V30 4269 C 397.769 -1.57841 -1.04321 0
M  V30 4270 O 397.112 -0.752043 -1.67601 0
M  V30 4271 C 397.174 -3.58292 0.294407 0
M  V30 4272 C 396.838 -4.27384 1.61838 0
M  V30 4273 C 397.835 -4.51956 2.56967 0
M  V30 4274 C 395.52 -4.65345 1.89102 0
M  V30 4275 C 397.514 -5.13536 3.77571 0
M  V30 4276 C 395.201 -5.26647 3.09978 0
M  V30 4277 C 396.199 -5.50679 4.04032 0
M  V30 4278 O 395.887 -6.10702 5.2278 0
M  V30 4279 H 395.619 -0.661292 0.140248 0
M  V30 4280 H 398.173 -1.77222 1.03834 0
M  V30 4281 H 396.403 -3.83918 -0.462983 0
M  V30 4282 H 398.092 -4.05763 -0.105581 0
M  V30 4283 H 398.858 -4.23048 2.37183 0
M  V30 4284 H 394.737 -4.45978 1.16725 0
M  V30 4285 H 398.281 -5.3221 4.50997 0
M  V30 4286 H 394.178 -5.54979 3.29649 0
M  V30 4287 H 394.946 -6.29183 5.23517 0
M  V30 4288 N 397.609 -0.515225 -1.4894 0
M  V30 4289 C 398.858 0.0261361 -2.01683 0
M  V30 4290 C 399.171 1.36719 -1.39883 0
M  V30 4291 O 400.377 1.99606 -1.84037 0
M  V30 4292 C 398.833 0.0970111 -3.59769 0
M  V30 4293 C 398.441 -1.23825 -4.30548 0
M  V30 4294 C 400.185 0.587981 -4.20408 0
M  V30 4295 C 398.092 -1.12877 -5.80528 0
M  V30 4296 H 397.022 0.0135398 -0.753878 0
M  V30 4297 H 399.673 -0.656787 -1.71343 0
M  V30 4298 H 398.055 0.844694 -3.86886 0
M  V30 4299 H 399.229 -2.00034 -4.15118 0
M  V30 4300 H 397.544 -1.66379 -3.81716 0
M  V30 4301 H 400.141 0.68763 -5.3026 0
M  V30 4302 H 400.484 1.59026 -3.84729 0
M  V30 4303 H 401.017 -0.103582 -3.97665 0
M  V30 4304 H 397.756 -2.10575 -6.20756 0
M  V30 4305 H 397.276 -0.407799 -5.98412 0
M  V30 4306 H 398.955 -0.813332 -6.41868 0
M  V30 4307 N 399.087 1.5561 -0.249682 0
M  V30 4308 C 400.327 2.00916 0.37579 0
M  V30 4309 C 400.691 1.13409 1.54927 0
M  V30 4310 O 401.892 1.48183 2.24266 0
M  V30 4311 C 400.163 3.48949 0.772633 0
M  V30 4312 S 401.722 4.16261 1.38824 0
M  V30 4313 H 398.54 0.70112 0.118117 0
M  V30 4314 H 401.142 1.92052 -0.365567 0
M  V30 4315 H 399.846 4.103 -0.090683 0
M  V30 4316 H 399.377 3.61745 1.5461 0
M  V30 4317 H 401.392 4.17778 2.67724 0
M  V30 4318 N 400.565 -0.0233959 1.57583 0
M  V30 4319 C 401.495 -1.02162 2.09965 0
M  V30 4320 C 402.476 -1.3735 1.00344 0
M  V30 4321 O 403.661 -1.46135 1.27899 0
M  V30 4322 C 400.791 -2.32081 2.58371 0
M  V30 4323 C 399.745 -2.1112 3.72307 0
M  V30 4324 C 399.071 -3.46848 4.06941 0
M  V30 4325 C 400.371 -1.49276 5.00514 0
M  V30 4326 H 402.065 -0.585557 2.93618 0
M  V30 4327 H 399.611 -0.280218 1.41247 0
M  V30 4328 H 401.564 -3.02249 2.93639 0
M  V30 4329 H 400.288 -2.77758 1.71808 0
M  V30 4330 H 398.947 -1.43384 3.37397 0
M  V30 4331 H 398.595 -3.90184 3.17436 0
M  V30 4332 H 398.295 -3.33646 4.83688 0
M  V30 4333 H 399.819 -4.18369 4.44747 0
M  V30 4334 H 401.233 -2.09368 5.33702 0
M  V30 4335 H 399.63 -1.46632 5.8191 0
M  V30 4336 H 400.7 -0.459217 4.82721 0
M  V30 4337 N 402.043 -1.548 -0.295768 0
M  V30 4338 C 403.459 -1.4613 -0.641722 0
M  V30 4339 C 403.659 -0.656771 -1.90496 0
M  V30 4340 O 402.715 -0.166547 -2.5195 0
M  V30 4341 C 404.028 -2.90141 -0.789852 0
M  V30 4342 C 405.576 -3.00216 -0.885396 0
M  V30 4343 C 406.051 -4.45434 -1.06548 0
M  V30 4344 N 407.542 -4.49166 -1.13156 0
M  V30 4345 C 408.277 -5.58717 -1.28929 0
M  V30 4346 N 407.773 -6.78182 -1.41567 0
M  V30 4347 N 409.566 -5.46415 -1.31859 0
M  V30 4348 H 401.717 -2.05574 0.534147 0
M  V30 4349 H 403.98 -0.931259 0.177372 0
M  V30 4350 H 403.686 -3.51635 0.0675598 0
M  V30 4351 H 403.56 -3.37859 -1.67724 0
M  V30 4352 H 405.947 -2.38833 -1.73329 0
M  V30 4353 H 406.028 -2.55787 0.0261185 0
M  V30 4354 H 405.672 -5.07413 -0.222335 0
M  V30 4355 H 405.602 -4.87499 -1.9913 0
M  V30 4356 H 408.093 -3.631 -1.04721 0
M  V30 4357 H 408.406 -7.57428 -1.53372 0
M  V30 4358 H 406.751 -6.81037 -1.38613 0
M  V30 4359 H 409.942 -4.5203 -1.21601 0
M  V30 4360 H 410.115 -6.31841 -1.43808 0
M  V30 4361 N 403.521 0.559213 -1.47345 0
M  V30 4362 C 404.469 1.68747 -1.60085 0
M  V30 4363 C 405.463 1.628 -0.46825 0
M  V30 4364 O 406.669 1.68009 -0.645977 0
M  V30 4365 H 403.044 0.558329 -0.503759 0
M  V30 4366 H 405.015 1.55138 -2.54902 0
M  V30 4367 C 403.764 3.07103 -1.63042 0
M  V30 4368 H 403.087 3.12361 -2.49541 0
M  V30 4369 H 404.527 3.85743 -1.76006 0
M  V30 4370 C 402.986 3.34935 -0.363357 0
M  V30 4371 O 403.516 3.98102 0.536416 0
M  V30 4372 N 401.722 2.89574 -0.244 0
M  V30 4373 H 401.269 2.38348 -0.977133 0
M  V30 4374 H 401.227 3.08566 0.602836 0
M  V30 4375 N 404.999 1.35443 0.805782 0
M  V30 4376 C 406.224 1.32037 1.59941 0
M  V30 4377 C 406.649 -0.0994215 1.87837 0
M  V30 4378 O 406.007 -1.06648 1.46615 0
M  V30 4379 C 406.055 2.13354 2.90711 0
M  V30 4380 O 405.159 1.5148 3.83572 0
M  V30 4381 H 404.5 0.452666 0.485787 0
M  V30 4382 H 407.03 1.78496 1.00002 0
M  V30 4383 H 407.04 2.25338 3.40128 0
M  V30 4384 H 405.715 3.16572 2.69732 0
M  V30 4385 H 404.292 1.4834 3.42125 0
M  V30 4386 N 406.477 -1.02803 1.19454 0
M  V30 4387 C 407.407 -2.12999 0.956758 0
M  V30 4388 C 408.388 -1.69743 -0.110188 0
M  V30 4389 O 409.573 -1.94148 0.0450038 0
M  V30 4390 C 406.703 -3.43746 0.495553 0
M  V30 4391 C 405.657 -4.00688 1.50443 0
M  V30 4392 C 404.983 -5.27067 0.900275 0
M  V30 4393 C 406.283 -4.35397 2.8849 0
M  V30 4394 H 407.977 -2.33148 1.87836 0
M  V30 4395 H 405.523 -1.12045 0.904539 0
M  V30 4396 H 407.476 -4.2021 0.316493 0
M  V30 4397 H 406.2 -3.23321 -0.461646 0
M  V30 4398 H 404.859 -3.2632 1.67065 0
M  V30 4399 H 404.507 -5.02959 -0.064503 0
M  V30 4400 H 404.207 -5.66127 1.57397 0
M  V30 4401 H 405.731 -6.06196 0.73203 0
M  V30 4402 H 407.145 -5.02795 2.75446 0
M  V30 4403 H 405.542 -4.85541 3.52661 0
M  V30 4404 H 406.612 -3.44662 3.41081 0
M  V30 4405 N 407.956 -0.998596 -1.21925 0
M  V30 4406 C 409.367 -0.711939 -1.72593 0
M  V30 4407 C 409.718 0.770842 -1.80423 0
M  V30 4408 O 408.843 1.60237 -1.4544 0
M  V30 4409 C 409.438 -1.28567 -3.13458 0
M  V30 4410 C 407.997 -1.04828 -3.61508 0
M  V30 4411 C 407.144 -1.4024 -2.39224 0
M  V30 4412 H 410.095 -1.17027 -1.07193 0
M  V30 4413 H 410.116 -0.667098 -3.74607 0
M  V30 4414 H 409.628 -2.36486 -3.07727 0
M  V30 4415 H 407.729 0.0140383 -3.72597 0
M  V30 4416 H 407.842 -1.71566 -4.47328 0
M  V30 4417 H 406.206 -0.821077 -2.41103 0
M  V30 4418 H 406.989 -2.49176 -2.36149 0
M  V30 4419 N 409.434 1.37368 -0.772513 0
M  V30 4420 C 410.381 2.30262 -0.157488 0
M  V30 4421 C 411.351 1.51137 0.688965 0
M  V30 4422 O 412.536 1.79704 0.641168 0
M  V30 4423 C 409.676 3.37611 0.715045 0
M  V30 4424 C 408.789 4.31746 -0.148098 0
M  V30 4425 C 407.924 5.26171 0.729213 0
M  V30 4426 C 406.963 6.11948 -0.136418 0
M  V30 4427 N 406.1 6.98613 0.698914 0
M  V30 4428 H 410.94 2.82277 -0.955179 0
M  V30 4429 H 408.477 1.38957 -0.482631 0
M  V30 4430 H 410.435 3.98479 1.23575 0
M  V30 4431 H 409.065 2.86959 1.47833 0
M  V30 4432 H 408.117 3.72178 -0.786613 0
M  V30 4433 H 409.429 4.92084 -0.81579 0
M  V30 4434 H 408.583 5.92247 1.31637 0
M  V30 4435 H 407.322 4.66246 1.43059 0
M  V30 4436 H 406.327 5.4485 -0.736102 0
M  V30 4437 H 407.552 6.73945 -0.835134 0
M  V30 4438 H 405.498 6.41215 1.38489 0
M  V30 4439 H 405.415 7.55948 0.0885358 0
M  V30 4440 H 406.683 7.69077 1.27044 0
M  V30 4441 N 410.912 0.523116 1.48665 0
M  V30 4442 C 412.158 -0.0134963 2.02796 0
M  V30 4443 C 412.491 -1.34582 1.40004 0
M  V30 4444 O 411.766 -1.86756 0.543381 0
M  V30 4445 C 412.049 -0.14276 3.59817 0
M  V30 4446 C 411.902 1.21425 4.331 0
M  V30 4447 C 413.221 -0.872856 4.31357 0
M  V30 4448 H 410.34 -0.00343074 0.736992 0
M  V30 4449 H 412.982 0.678816 1.7746 0
M  V30 4450 H 411.132 -0.732401 3.81534 0
M  V30 4451 H 412.804 1.84447 4.2282 0
M  V30 4452 H 411.047 1.79791 3.94788 0
M  V30 4453 H 411.718 1.07687 5.41394 0
M  V30 4454 H 414.194 -0.372555 4.14429 0
M  V30 4455 H 413.07 -0.932185 5.40927 0
M  V30 4456 H 413.331 -1.92161 3.98154 0
M  V30 4457 N 412.39 -1.55475 0.257931 0
M  V30 4458 C 413.32 -2.24815 -0.630912 0
M  V30 4459 C 414.301 -1.23224 -1.17259 0
M  V30 4460 O 415.486 -1.51904 -1.20991 0
M  V30 4461 C 412.616 -2.95609 -1.82298 0
M  V30 4462 C 411.57 -4.03982 -1.41359 0
M  V30 4463 C 410.896 -4.6226 -2.68738 0
M  V30 4464 C 412.196 -5.19109 -0.57648 0
M  V30 4465 H 413.89 -2.99354 -0.0526878 0
M  V30 4466 H 411.436 -1.4398 -0.023901 0
M  V30 4467 H 413.389 -3.42822 -2.45054 0
M  V30 4468 H 412.113 -2.18577 -2.42676 0
M  V30 4469 H 410.772 -3.57555 -0.809324 0
M  V30 4470 H 410.42 -3.81915 -3.27338 0
M  V30 4471 H 410.12 -5.35424 -2.42065 0
M  V30 4472 H 411.644 -5.12212 -3.32372 0
M  V30 4473 H 413.058 -5.62479 -1.10861 0
M  V30 4474 H 411.455 -5.98729 -0.405351 0
M  V30 4475 H 412.525 -4.83174 0.408776 0
M  V30 4476 N 413.868 0.0150385 -1.57593 0
M  V30 4477 C 414.816 1.02958 -2.08572 0
M  V30 4478 C 415.81 1.36554 -1.00246 0
M  V30 4479 O 417.016 1.35295 -1.18724 0
M  V30 4480 H 413.391 0.349619 -0.665786 0
M  V30 4481 H 415.362 0.573932 -2.92829 0
M  V30 4482 C 414.111 2.31752 -2.59203 0
M  V30 4483 H 413.434 2.06765 -3.42182 0
M  V30 4484 H 414.874 3.01053 -2.98568 0
M  V30 4485 C 413.333 3.01692 -1.49945 0
M  V30 4486 O 413.863 3.92083 -0.873704 0
M  V30 4487 N 412.069 2.6326 -1.23056 0
M  V30 4488 H 411.616 1.89838 -1.74125 0
M  V30 4489 H 411.574 3.10372 -0.501685 0
M  V30 4490 N 415.346 1.54954 0.287554 0
M  V30 4491 C 416.593 1.74873 1.02106 0
M  V30 4492 C 416.921 0.541829 1.86801 0
M  V30 4493 O 416.176 -0.475992 1.89823 0
M  V30 4494 C 416.475 2.99833 1.94512 0
M  V30 4495 C 416.141 4.33029 1.25686 0
M  V30 4496 C 414.803 4.69233 1.06649 0
M  V30 4497 C 417.155 5.15542 0.765913 0
M  V30 4498 C 414.483 5.85518 0.372222 0
M  V30 4499 C 416.835 6.32542 0.0853101 0
M  V30 4500 C 415.499 6.67398 -0.1169 0
M  V30 4501 H 414.769 0.639906 0.373632 0
M  V30 4502 H 417.416 1.89219 0.294665 0
M  V30 4503 H 415.721 2.80325 2.73725 0
M  V30 4504 H 417.418 3.1244 2.51361 0
M  V30 4505 H 414.008 4.04564 1.41512 0
M  V30 4506 H 418.192 4.88059 0.90066 0
M  V30 4507 H 413.448 6.11057 0.204695 0
M  V30 4508 H 417.622 6.95741 -0.302936 0
M  V30 4509 H 415.249 7.57357 -0.656859 0
M  V30 4510 N 416.824 -0.551391 1.4764 0
M  V30 4511 C 417.774 -1.65362 1.56969 0
M  V30 4512 C 418.758 -1.55098 0.428189 0
M  V30 4513 O 419.95 -1.63481 0.678441 0
M  V30 4514 C 417.079 -3.04129 1.59249 0
M  V30 4515 C 416.165 -3.19576 2.78804 0
M  V30 4516 N 416.556 -3.05067 4.03445 0
M  V30 4517 C 414.854 -3.50588 2.75688 0
M  V30 4518 C 415.555 -3.2336 4.83543 0
M  V30 4519 N 414.531 -3.4996 4.15968 0
M  V30 4520 H 418.333 -1.52722 2.51104 0
M  V30 4521 H 415.847 -0.756303 1.43714 0
M  V30 4522 H 417.844 -3.83278 1.64024 0
M  V30 4523 H 416.504 -3.17877 0.662148 0
M  V30 4524 H 417.515 -2.82273 4.34215 0
M  V30 4525 H 414.192 -3.70827 1.91817 0
M  V30 4526 H 415.582 -3.17061 5.92387 0
M  V30 4527 N 418.302 -1.35869 -0.798587 0
M  V30 4528 C 419.25 -1.29491 -1.93222 0
M  V30 4529 C 420.244 -0.18836 -1.6835 0
M  V30 4530 O 421.45 -0.354822 -1.76468 0
M  V30 4531 H 417.825 -0.402901 -0.63496 0
M  V30 4532 H 419.796 -2.25247 -1.9572 0
M  V30 4533 C 418.545 -1.09184 -3.30112 0
M  V30 4534 H 417.868 -1.93574 -3.49813 0
M  V30 4535 H 419.308 -1.08766 -4.09812 0
M  V30 4536 C 417.767 0.203959 -3.36282 0
M  V30 4537 O 418.297 1.19699 -3.83451 0
M  V30 4538 N 416.503 0.245488 -2.89561 0
M  V30 4539 H 416.05 -0.563223 -2.51367 0
M  V30 4540 H 416.008 1.11219 -2.94071 0
M  V30 4541 N 419.78 1.02168 -1.19998 0
M  V30 4542 C 421.027 1.75685 -1.00702 0
M  V30 4543 C 421.355 1.88947 0.461426 0
M  V30 4544 O 420.61 1.40832 1.35885 0
M  V30 4545 C 420.909 3.18081 -1.62969 0
M  V30 4546 C 420.575 3.24809 -3.12746 0
M  V30 4547 C 419.237 3.26352 -3.53621 0
M  V30 4548 C 421.589 3.23379 -4.08749 0
M  V30 4549 C 418.917 3.2413 -4.89036 0
M  V30 4550 C 421.269 3.22698 -5.44104 0
M  V30 4551 C 419.933 3.22542 -5.84399 0
M  V30 4552 H 419.203 0.642877 -0.368496 0
M  V30 4553 H 421.85 1.19865 -1.49348 0
M  V30 4554 H 420.155 3.77027 -1.06573 0
M  V30 4555 H 421.852 3.73648 -1.45561 0
M  V30 4556 H 418.442 3.2434 -2.80181 0
M  V30 4557 H 422.626 3.21361 -3.78207 0
M  V30 4558 H 417.882 3.22338 -5.19527 0
M  V30 4559 H 422.056 3.20543 -6.18244 0
M  V30 4560 H 419.683 3.20575 -6.89301 0
M  V30 4561 N 421.258 1.00505 1.21394 0
M  V30 4562 C 422.188 0.585684 2.26035 0
M  V30 4563 C 423.169 -0.393525 1.65485 0
M  V30 4564 O 424.354 -0.281497 1.92149 0
M  V30 4565 C 421.484 -0.0884283 3.47187 0
M  V30 4566 C 420.438 0.810567 4.20254 0
M  V30 4567 C 419.764 0.00286382 5.347 0
M  V30 4568 C 421.064 2.1132 4.77641 0
M  V30 4569 H 422.758 1.46039 2.61368 0
M  V30 4570 H 420.304 0.703648 1.25638 0
M  V30 4571 H 422.257 -0.393286 4.19561 0
M  V30 4572 H 420.981 -0.997766 3.10986 0
M  V30 4573 H 419.64 1.09925 3.49731 0
M  V30 4574 H 419.288 -0.907765 4.94741 0
M  V30 4575 H 418.988 0.601444 5.84514 0
M  V30 4576 H 420.512 -0.295808 6.09883 0
M  V30 4577 H 421.926 1.87148 5.41893 0
M  V30 4578 H 420.323 2.66164 5.37845 0
M  V30 4579 H 421.393 2.78393 3.9702 0
M  V30 4580 N 422.737 -1.36956 0.779787 0
M  V30 4581 C 423.7 -2.2851 0.177662 0
M  V30 4582 C 424.7 -1.48393 -0.619377 0
M  V30 4583 O 425.89 -1.68505 -0.441785 0
M  V30 4584 C 423.022 -3.32428 -0.755279 0
M  V30 4585 H 424.215 -2.83269 0.984823 0
M  V30 4586 H 421.768 -1.46358 0.548544 0
M  V30 4587 H 422.503 -2.82808 -1.58714 0
M  V30 4588 H 422.288 -3.91659 -0.185817 0
M  V30 4589 H 423.778 -4.00824 -1.17174 0
M  V30 4590 N 424.215 -0.530993 -1.48385 0
M  V30 4591 C 425.461 -0.00538653 -2.03399 0
M  V30 4592 C 425.816 1.31899 -1.40073 0
M  V30 4593 O 425.109 1.83901 -0.537676 0
M  V30 4594 C 425.303 0.172742 -3.56982 0
M  V30 4595 C 425.132 -1.13282 -4.35198 0
M  V30 4596 C 423.902 -1.69296 -4.76096 0
M  V30 4597 C 426.1 -2.04367 -4.71952 0
M  V30 4598 N 424.082 -2.9413 -5.38851 0
M  V30 4599 C 425.453 -3.13777 -5.34737 0
M  V30 4600 C 427.508 -2.04681 -4.53883 0
M  V30 4601 C 426.211 -4.23567 -5.81363 0
M  V30 4602 C 428.237 -3.13466 -5.01491 0
M  V30 4603 C 427.599 -4.21595 -5.64302 0
M  V30 4604 H 423.698 -0.0434945 -0.780789 0
M  V30 4605 H 426.282 -0.712495 -1.81195 0
M  V30 4606 H 424.453 0.848937 -3.79009 0
M  V30 4607 H 426.185 0.698046 -3.98634 0
M  V30 4608 H 422.94 -1.23422 -4.57235 0
M  V30 4609 H 423.364 -3.57689 -5.74794 0
M  V30 4610 H 428.006 -1.22378 -4.04702 0
M  V30 4611 H 425.724 -5.06648 -6.2955 0
M  V30 4612 H 429.31 -3.14765 -4.893 0
M  V30 4613 H 428.19 -5.04384 -6.00472 0
M  V30 4614 N 425.693 1.55336 -0.266172 0
M  V30 4615 C 427.104 1.85236 0.233315 0
M  V30 4616 C 427.455 1.18816 1.56132 0
M  V30 4617 O 426.58 0.473307 2.11161 0
M  V30 4618 C 427.175 3.36059 0.430113 0
M  V30 4619 C 425.734 3.66116 0.873842 0
M  V30 4620 C 424.881 2.77274 -0.0380016 0
M  V30 4621 H 427.832 1.51004 -0.488214 0
M  V30 4622 H 427.853 3.58681 1.26998 0
M  V30 4623 H 427.365 3.84373 -0.536588 0
M  V30 4624 H 425.466 3.23295 1.85233 0
M  V30 4625 H 425.579 4.73699 0.717358 0
M  V30 4626 H 423.943 2.50198 0.476759 0
M  V30 4627 H 424.726 3.284 -1.00042 0
M  V30 4628 N 427.171 -0.0066808 1.57599 0
M  V30 4629 C 428.418 -0.69292 1.90276 0
M  V30 4630 C 428.746 -1.74148 0.866192 0
M  V30 4631 O 428.001 -1.95268 -0.129933 0
M  V30 4632 C 428.3 -1.37939 3.29708 0
M  V30 4633 C 427.966 -0.464679 4.48499 0
M  V30 4634 C 426.628 -0.212809 4.80729 0
M  V30 4635 C 428.98 0.16551 5.20937 0
M  V30 4636 C 426.308 0.677653 5.82773 0
M  V30 4637 C 428.66 1.04381 6.23929 0
M  V30 4638 C 427.324 1.30492 6.54621 0
M  V30 4639 H 426.594 -0.253558 0.696268 0
M  V30 4640 H 429.241 0.0474123 1.91441 0
M  V30 4641 H 427.546 -2.1936 3.24636 0
M  V30 4642 H 429.243 -1.9163 3.52249 0
M  V30 4643 H 425.833 -0.671153 4.23313 0
M  V30 4644 H 430.017 -0.0160756 4.96297 0
M  V30 4645 H 425.273 0.88803 6.04917 0
M  V30 4646 H 429.447 1.53851 6.79193 0
M  V30 4647 H 427.074 1.99662 7.33512 0
M  V30 4648 N 428.649 -1.55105 -0.279332 0
M  V30 4649 C 430.06 -1.66186 -0.850832 0
M  V30 4650 C 430.411 -0.584707 -1.87285 0
M  V30 4651 O 429.536 0.274919 -2.14647 0
M  V30 4652 C 430.131 -3.01264 -1.55001 0
M  V30 4653 C 428.69 -3.14394 -2.06963 0
M  V30 4654 C 427.837 -2.61959 -0.909536 0
M  V30 4655 H 430.788 -1.58602 -0.0558235 0
M  V30 4656 H 430.809 -2.93899 -2.41669 0
M  V30 4657 H 430.321 -3.7964 -0.805931 0
M  V30 4658 H 428.422 -2.4078 -2.84352 0
M  V30 4659 H 428.535 -4.20867 -2.28928 0
M  V30 4660 H 426.899 -2.18957 -1.30116 0
M  V30 4661 H 427.682 -3.42833 -0.179062 0
M  V30 4662 N 430.127 0.543554 -1.4793 0
M  V30 4663 C 431.075 1.67039 -1.61866 0
M  V30 4664 C 432.069 1.62294 -0.48549 0
M  V30 4665 O 433.275 1.67315 -0.66376 0
M  V30 4666 H 429.65 0.552954 -0.509652 0
M  V30 4667 H 431.621 1.52426 -2.56533 0
M  V30 4668 C 430.37 3.05357 -1.6629 0
M  V30 4669 H 429.693 3.09696 -2.5284 0
M  V30 4670 H 431.133 3.83855 -1.80088 0
M  V30 4671 C 429.592 3.34531 -0.398861 0
M  V30 4672 O 430.122 3.98649 0.494162 0
M  V30 4673 N 428.328 2.89299 -0.2747 0
M  V30 4674 H 427.875 2.37298 -1.00236 0
M  V30 4675 H 427.833 3.09188 0.570075 0
M  V30 4676 N 431.605 1.3629 0.791371 0
M  V30 4677 C 432.535 1.33137 1.91825 0
M  V30 4678 C 433.516 0.203168 1.68882 0
M  V30 4679 O 434.701 0.400509 1.90025 0
M  V30 4680 C 431.831 1.11793 3.28816 0
M  V30 4681 C 430.785 2.21417 3.66277 0
M  V30 4682 C 430.111 1.85218 5.01596 0
M  V30 4683 C 431.411 3.63489 3.75064 0
M  V30 4684 H 433.105 2.2743 1.9472 0
M  V30 4685 H 430.651 1.09479 0.935437 0
M  V30 4686 H 432.604 1.08222 4.07266 0
M  V30 4687 H 431.328 0.139501 3.26302 0
M  V30 4688 H 429.987 2.2411 2.90121 0
M  V30 4689 H 429.635 0.859544 4.95602 0
M  V30 4690 H 429.335 2.58611 5.27631 0
M  V30 4691 H 430.859 1.832 5.82469 0
M  V30 4692 H 432.273 3.63034 4.43711 0
M  V30 4693 H 430.67 4.35771 4.12582 0
M  V30 4694 H 431.74 3.98536 2.76219 0
M  V30 4695 N 433.083 -1.0153 1.20538 0
M  V30 4696 C 434.494 -1.56598 1.01657 0
M  V30 4697 C 434.845 -1.91505 -0.426668 0
M  V30 4698 O 433.97 -1.72375 -1.30827 0
M  V30 4699 C 434.565 -2.84542 1.83905 0
M  V30 4700 C 433.124 -3.36133 1.69386 0
M  V30 4701 C 432.271 -2.09427 1.81757 0
M  V30 4702 H 435.222 -0.838974 1.34711 0
M  V30 4703 H 435.243 -3.56004 1.34319 0
M  V30 4704 H 434.755 -2.59105 2.8894 0
M  V30 4705 H 432.856 -3.66528 0.669933 0
M  V30 4706 H 432.969 -4.08248 2.50739 0
M  V30 4707 H 431.333 -2.21941 1.24957 0
M  V30 4708 H 432.116 -1.86414 2.88279 0
M  V30 4709 N 434.561 -1.01147 -1.20859 0
M  V30 4710 C 435.972 -0.730205 -1.71828 0
M  V30 4711 C 436.323 0.751662 -1.8123 0
M  V30 4712 O 435.448 1.58686 -1.47132 0
M  V30 4713 C 436.043 -1.31885 -3.12077 0
M  V30 4714 C 434.602 -1.08656 -3.60376 0
M  V30 4715 C 433.749 -1.42769 -2.37723 0
M  V30 4716 H 436.7 -1.18158 -1.05945 0
M  V30 4717 H 436.721 -0.706793 -3.73878 0
M  V30 4718 H 436.233 -2.39737 -3.05201 0
M  V30 4719 H 434.334 -0.0254814 -3.72591 0
M  V30 4720 H 434.447 -1.76301 -4.45483 0
M  V30 4721 H 432.811 -0.846603 -2.40218 0
M  V30 4722 H 433.594 -2.51666 -2.33493 0
M  V30 4723 N 436.039 1.36541 -0.78704 0
M  V30 4724 C 436.969 2.32659 -0.197992 0
M  V30 4725 C 437.95 1.56533 0.665697 0
M  V30 4726 O 439.135 1.84698 0.60001 0
M  V30 4727 C 436.265 3.40778 0.669901 0
M  V30 4728 C 435.219 4.27897 -0.0937039 0
M  V30 4729 C 434.545 5.27163 0.894629 0
M  V30 4730 C 435.845 5.06334 -1.28154 0
M  V30 4731 H 437.539 2.82171 -1.00099 0
M  V30 4732 H 435.085 1.35665 -0.482793 0
M  V30 4733 H 437.038 4.07008 1.09191 0
M  V30 4734 H 435.762 2.89827 1.50558 0
M  V30 4735 H 434.421 3.6322 -0.49666 0
M  V30 4736 H 434.069 4.72486 1.72527 0
M  V30 4737 H 433.769 5.86317 0.388149 0
M  V30 4738 H 435.293 5.96266 1.31525 0
M  V30 4739 H 436.707 5.65617 -0.93541 0
M  V30 4740 H 435.104 5.74888 -1.72115 0
M  V30 4741 H 436.174 4.38114 -2.07807 0
M  V30 4742 N 437.518 0.538854 1.48102 0
M  V30 4743 C 438.428 -0.222648 2.33541 0
M  V30 4744 C 439.444 -0.930225 1.47047 0
M  V30 4745 O 440.62 -0.903211 1.80011 0
M  V30 4746 C 437.685 -1.25064 3.23357 0
M  V30 4747 C 436.746 -0.552469 4.2573 0
M  V30 4748 C 435.979 -1.53149 5.11254 0
M  V30 4749 O 436.202 -2.76487 4.9891 0
M  V30 4750 O 435.136 -1.06602 5.92385 0
M  V30 4751 H 438.962 0.477707 2.99919 0
M  V30 4752 H 436.547 0.299669 1.46364 0
M  V30 4753 H 438.429 -1.8445 3.78888 0
M  V30 4754 H 437.104 -1.93325 2.59629 0
M  V30 4755 H 436.011 0.082114 3.7401 0
M  V30 4756 H 437.344 0.0883526 4.92121 0
M  V30 4757 N 438.996 -1.55193 0.274407 0
M  V30 4758 C 439.959 -2.212 -0.600279 0
M  V30 4759 C 440.959 -1.18963 -1.08187 0
M  V30 4760 O 442.149 -1.43873 -0.982158 0
M  V30 4761 C 439.281 -2.87739 -1.82809 0
M  V30 4762 H 440.474 -2.9989 -0.0239682 0
M  V30 4763 H 438.027 -1.5628 0.0250192 0
M  V30 4764 H 438.762 -2.13058 -2.44493 0
M  V30 4765 H 438.547 -3.62658 -1.49069 0
M  V30 4766 H 440.037 -3.38171 -2.45011 0
M  V30 4767 N 440.474 -0.00167713 -1.576 0
M  V30 4768 C 441.407 1.02317 -2.03977 0
M  V30 4769 C 442.385 1.33381 -0.929963 0
M  V30 4770 O 443.569 1.45517 -1.19822 0
M  V30 4771 C 440.696 2.35035 -2.43878 0
M  V30 4772 C 439.742 2.19621 -3.65607 0
M  V30 4773 S 440.575 1.52068 -5.13455 0
M  V30 4774 C 441.731 2.86212 -5.56627 0
M  V30 4775 H 441.964 0.628285 -2.90585 0
M  V30 4776 H 439.497 0.209239 -1.52976 0
M  V30 4777 H 441.455 3.11345 -2.67534 0
M  V30 4778 H 440.116 2.71663 -1.57665 0
M  V30 4779 H 439.309 3.1767 -3.91282 0
M  V30 4780 H 438.911 1.51455 -3.41961 0
M  V30 4781 H 441.203 3.82509 -5.59189 0
M  V30 4782 H 442.146 2.65235 -6.56549 0
M  V30 4783 H 442.554 2.90199 -4.84195 0
M  V30 4784 N 441.952 1.55251 0.271103 0
M  V30 4785 C 443.229 1.66664 1.02384 0
M  V30 4786 C 443.609 0.534363 2.04225 0
M  V30 4787 O 442.957 -0.465337 2.23712 0
M  V30 4788 C 443.167 3.05961 1.67895 0
M  V30 4789 C 444.515 3.63772 2.18986 0
M  V30 4790 O 445.539 3.08606 1.77878 0
M  V30 4791 O 444.398 4.60429 2.94393 0
M  V30 4792 H 441.492 0.676957 0.475035 0
M  V30 4793 H 444.038 1.67589 0.26681 0
M  V30 4794 H 442.81 3.79815 0.941071 0
M  V30 4795 H 442.433 3.08943 2.5028 0
M  V30 4796 N 443.43 -0.535701 1.48216 0
M  V30 4797 C 444.363 -1.65726 1.56876 0
M  V30 4798 C 445.341 -1.57094 0.419542 0
M  V30 4799 O 446.525 -1.77648 0.630352 0
M  V30 4800 C 443.652 -3.04096 1.49142 0
M  V30 4801 C 442.698 -3.31105 2.68834 0
M  V30 4802 S 443.531 -3.18001 4.30854 0
M  V30 4803 C 444.687 -4.58828 4.25709 0
M  V30 4804 H 444.92 -1.58129 2.51759 0
M  V30 4805 H 442.453 -0.718218 1.36678 0
M  V30 4806 H 444.411 -3.839 1.45366 0
M  V30 4807 H 443.072 -3.09139 0.556067 0
M  V30 4808 H 442.265 -4.32033 2.59545 0
M  V30 4809 H 441.867 -2.58961 2.69843 0
M  V30 4810 H 444.159 -5.5023 3.95289 0
M  V30 4811 H 445.102 -4.73172 5.26796 0
M  V30 4812 H 445.51 -4.37883 3.56257 0
M  V30 4813 N 444.908 -1.36708 -0.784132 0
M  V30 4814 C 446.154 -1.31426 -1.54451 0
M  V30 4815 C 446.487 0.10476 -1.93917 0
M  V30 4816 O 445.762 1.05934 -1.6312 0
M  V30 4817 C 446.045 -2.24189 -2.818 0
M  V30 4818 C 445.898 -3.74813 -2.48667 0
M  V30 4819 C 447.217 -2.15626 -3.83658 0
M  V30 4820 H 444.336 -0.478739 -0.560337 0
M  V30 4821 H 446.978 -1.67305 -0.900498 0
M  V30 4822 H 445.128 -1.93722 -3.36755 0
M  V30 4823 H 446.8 -4.15823 -1.99722 0
M  V30 4824 H 445.043 -3.93989 -1.81535 0
M  V30 4825 H 445.714 -4.35138 -3.39646 0
M  V30 4826 H 448.19 -2.42456 -3.38163 0
M  V30 4827 H 447.066 -2.82694 -4.70506 0
M  V30 4828 H 447.327 -1.14522 -4.27009 0
M  V30 4829 N 446.386 1.0089 -1.21074 0
M  V30 4830 C 447.296 2.13039 -0.982425 0
M  V30 4831 C 448.312 1.73881 0.0642161 0
M  V30 4832 O 449.488 2.01012 -0.12496 0
M  V30 4833 C 446.553 3.42377 -0.545803 0
M  V30 4834 C 445.614 3.95731 -1.6642 0
M  V30 4835 C 444.847 5.18896 -1.24832 0
M  V30 4836 O 445.07 5.70273 -0.120265 0
M  V30 4837 O 444.004 5.65597 -2.05873 0
M  V30 4838 H 447.83 2.35175 -1.92163 0
M  V30 4839 H 445.415 1.1142 -0.995285 0
M  V30 4840 H 447.297 4.20244 -0.311912 0
M  V30 4841 H 445.972 3.21639 0.364727 0
M  V30 4842 H 444.879 3.19108 -1.95246 0
M  V30 4843 H 446.212 4.20872 -2.55201 0
M  V30 4844 N 447.864 1.01787 1.20321 0
M  V30 4845 C 449.11 0.708985 1.90003 0
M  V30 4846 C 449.443 -0.759572 1.78729 0
M  V30 4847 O 448.718 -1.55198 1.17234 0
M  V30 4848 C 449.001 1.1469 3.41348 0
M  V30 4849 C 448.854 2.67586 3.61549 0
M  V30 4850 C 450.173 0.71915 4.34185 0
M  V30 4851 H 447.292 0.259034 0.689978 0
M  V30 4852 H 449.934 1.26584 1.41692 0
M  V30 4853 H 448.084 0.673128 3.82624 0
M  V30 4854 H 449.756 3.22826 3.29517 0
M  V30 4855 H 447.999 3.085 3.04976 0
M  V30 4856 H 448.67 2.93281 4.67643 0
M  V30 4857 H 451.146 1.12647 4.00562 0
M  V30 4858 H 450.022 1.05358 5.38694 0
M  V30 4859 H 450.283 -0.379111 4.40472 0
M  V30 4860 N 449.342 -1.36122 0.79427 0
M  V30 4861 C 450.591 -1.98361 0.365464 0
M  V30 4862 C 450.904 -1.6374 -1.06997 0
M  V30 4863 O 452.11 -2.19251 -1.60129 0
M  V30 4864 C 450.566 -3.54821 0.602496 0
M  V30 4865 C 450.174 -3.98362 2.04967 0
M  V30 4866 C 451.918 -4.2383 0.238437 0
M  V30 4867 C 449.825 -5.47619 2.2331 0
M  V30 4868 H 448.755 -0.742193 0.13291 0
M  V30 4869 H 451.406 -1.55354 0.976589 0
M  V30 4870 H 449.788 -3.95922 -0.078409 0
M  V30 4871 H 450.962 -3.68447 2.76737 0
M  V30 4872 H 449.277 -3.42206 2.37243 0
M  V30 4873 H 451.874 -5.33529 0.353705 0
M  V30 4874 H 452.217 -4.08264 -0.814006 0
M  V30 4875 H 452.75 -3.88108 0.872769 0
M  V30 4876 H 449.489 -5.68138 3.26955 0
M  V30 4877 H 449.009 -5.79145 1.5605 0
M  V30 4878 H 450.688 -6.13911 2.0426 0
M  V30 4879 N 450.82 -0.546701 -1.47814 0
M  V30 4880 C 452.05 -0.0232519 -2.06587 0
M  V30 4881 C 452.458 1.2712 -1.40133 0
M  V30 4882 O 451.801 1.77091 -0.488305 0
M  V30 4883 C 451.863 0.254117 -3.58601 0
M  V30 4884 C 451.527 -0.949331 -4.47031 0
M  V30 4885 C 452.524 -1.85216 -4.85789 0
M  V30 4886 C 450.209 -1.16104 -4.88697 0
M  V30 4887 C 452.203 -2.95047 -5.65001 0
M  V30 4888 C 449.89 -2.26247 -5.67676 0
M  V30 4889 C 450.888 -3.1555 -6.05737 0
M  V30 4890 O 450.576 -4.23784 -6.83127 0
M  V30 4891 H 450.308 -0.0380082 -0.674931 0
M  V30 4892 H 452.862 -0.756631 -1.90956 0
M  V30 4893 H 451.092 1.04168 -3.72406 0
M  V30 4894 H 452.781 0.72167 -3.99433 0
M  V30 4895 H 453.547 -1.70061 -4.54207 0
M  V30 4896 H 449.426 -0.475159 -4.58545 0
M  V30 4897 H 452.97 -3.64778 -5.94628 0
M  V30 4898 H 448.867 -2.41379 -5.98671 0
M  V30 4899 H 449.635 -4.21701 -7.01506 0
M  V30 4900 N 452.299 1.55045 -0.282633 0
M  V30 4901 C 453.548 1.98938 0.332667 0
M  V30 4902 C 453.861 1.17455 1.56409 0
M  V30 4903 O 455.067 1.51527 2.25282 0
M  V30 4904 C 453.523 3.54105 0.643226 0
M  V30 4905 C 453.131 4.44374 -0.568814 0
M  V30 4906 C 454.875 4.06569 1.22074 0
M  V30 4907 C 452.782 5.90943 -0.232426 0
M  V30 4908 H 451.712 0.743043 0.128075 0
M  V30 4909 H 454.363 1.79341 -0.388464 0
M  V30 4910 H 452.745 3.69532 1.42346 0
M  V30 4911 H 453.919 4.40718 -1.34551 0
M  V30 4912 H 452.234 4.02585 -1.06369 0
M  V30 4913 H 454.831 5.13626 1.48635 0
M  V30 4914 H 455.174 3.56057 2.15707 0
M  V30 4915 H 455.707 3.94612 0.502621 0
M  V30 4916 H 452.446 6.45567 -1.13683 0
M  V30 4917 H 451.966 5.9765 0.507357 0
M  V30 4918 H 453.645 6.4677 0.172657 0
M  V30 4919 N 453.777 0.010035 1.57597 0
M  V30 4920 C 454.725 -0.996272 2.10184 0
M  V30 4921 C 455.719 -1.34942 1.02406 0
M  V30 4922 O 456.925 -1.33389 1.20861 0
M  V30 4923 H 453.3 -0.338982 0.671264 0
M  V30 4924 H 455.271 -0.527272 2.93705 0
M  V30 4925 C 454.02 -2.27599 2.62857 0
M  V30 4926 H 453.343 -2.01295 3.45428 0
M  V30 4927 H 454.783 -2.96265 3.0332 0
M  V30 4928 C 453.242 -2.99269 1.54725 0
M  V30 4929 O 453.772 -3.90644 0.93597 0
M  V30 4930 N 451.978 -2.61269 1.27228 0
M  V30 4931 H 451.525 -1.87043 1.77123 0
M  V30 4932 H 451.483 -3.09534 0.550999 0
M  V30 4933 N 455.255 -1.55392 -0.262866 0
M  V30 4934 C 456.671 -1.47459 -0.610582 0
M  V30 4935 C 456.871 -0.697031 -1.8906 0
M  V30 4936 O 455.927 -0.219952 -2.5154 0
M  V30 4937 C 457.24 -2.91751 -0.728131 0
M  V30 4938 C 458.788 -3.02027 -0.821517 0
M  V30 4939 C 459.263 -4.47594 -0.97076 0
M  V30 4940 N 460.754 -4.51465 -1.03603 0
M  V30 4941 C 461.489 -5.61326 -1.17049 0
M  V30 4942 N 460.985 -6.81032 -1.2715 0
M  V30 4943 N 462.778 -5.49089 -1.20239 0
M  V30 4944 H 454.929 -2.04395 0.577632 0
M  V30 4945 H 457.192 -0.927287 0.197086 0
M  V30 4946 H 456.898 -3.51413 0.142132 0
M  V30 4947 H 456.772 -3.4134 -1.6052 0
M  V30 4948 H 459.159 -2.42456 -1.68224 0
M  V30 4949 H 459.24 -2.55674 0.0803688 0
M  V30 4950 H 458.884 -5.07771 -0.114655 0
M  V30 4951 H 458.814 -4.91613 -1.88745 0
M  V30 4952 H 461.305 -3.6524 -0.96996 0
M  V30 4953 H 461.618 -7.60511 -1.37271 0
M  V30 4954 H 459.963 -6.83824 -1.24136 0
M  V30 4955 H 463.154 -4.54507 -1.11985 0
M  V30 4956 H 463.327 -6.34749 -1.30373 0
M  V30 4957 N 456.733 0.527833 -1.48498 0
M  V30 4958 C 457.68 1.6322 -1.6318 0
M  V30 4959 C 458.65 1.59199 -0.473815 0
M  V30 4960 O 459.835 1.77591 -0.697563 0
M  V30 4961 C 456.975 3.01474 -1.67951 0
M  V30 4962 C 456.088 3.15713 -2.94871 0
M  V30 4963 C 455.223 4.44539 -2.90789 0
M  V30 4964 C 454.262 4.52315 -4.12404 0
M  V30 4965 N 453.399 5.72533 -4.06387 0
M  V30 4966 H 458.239 1.50011 -2.57489 0
M  V30 4967 H 455.776 0.730298 -1.27691 0
M  V30 4968 H 457.734 3.81572 -1.68698 0
M  V30 4969 H 456.364 3.1345 -0.771306 0
M  V30 4970 H 455.416 2.28854 -3.03859 0
M  V30 4971 H 456.728 3.1732 -3.8485 0
M  V30 4972 H 455.882 5.3293 -2.89949 0
M  V30 4973 H 454.621 4.45457 -1.98542 0
M  V30 4974 H 453.626 3.62331 -4.13517 0
M  V30 4975 H 454.851 4.53134 -5.05812 0
M  V30 4976 H 452.797 5.74344 -3.16962 0
M  V30 4977 H 452.714 5.75643 -4.90073 0
M  V30 4978 H 453.982 6.63204 -4.0961 0
M  V30 4979 N 458.211 1.37122 0.776871 0
M  V30 4980 C 459.158 1.3247 1.88998 0
M  V30 4981 C 460.128 0.191143 1.64997 0
M  V30 4982 O 461.313 0.379683 1.86984 0
M  V30 4983 C 458.453 1.13241 3.25992 0
M  V30 4984 C 457.566 2.35782 3.61982 0
M  V30 4985 C 456.701 2.09465 4.88158 0
M  V30 4986 C 455.74 3.279 5.16864 0
M  V30 4987 N 454.877 3.01167 6.34226 0
M  V30 4988 H 459.717 2.27642 1.9231 0
M  V30 4989 H 457.254 1.13125 0.94027 0
M  V30 4990 H 459.212 1.00115 4.0501 0
M  V30 4991 H 457.842 0.217186 3.22069 0
M  V30 4992 H 456.894 2.59666 2.77989 0
M  V30 4993 H 458.206 3.24125 3.79137 0
M  V30 4994 H 457.36 1.93341 5.75069 0
M  V30 4995 H 456.099 1.18452 4.73097 0
M  V30 4996 H 455.104 3.44569 4.2843 0
M  V30 4997 H 456.329 4.19757 5.33836 0
M  V30 4998 H 454.275 2.12779 6.20533 0
M  V30 4999 H 454.192 3.83052 6.51772 0
M  V30 5000 H 455.46 2.88649 7.24087 0
M  V30 5001 N 459.689 -1.00246 1.21608 0
M  V30 5002 C 460.636 -2.09073 0.977613 0
M  V30 5003 C 461.606 -1.65815 -0.097297 0
M  V30 5004 O 462.791 -1.90734 0.0503445 0
M  V30 5005 C 459.931 -3.40671 0.551133 0
M  V30 5006 C 459.044 -3.97326 1.69576 0
M  V30 5007 C 458.179 -5.17043 1.2182 0
M  V30 5008 C 457.218 -5.65813 2.335 0
M  V30 5009 N 456.355 -6.76778 1.86859 0
M  V30 5010 H 461.195 -2.28806 1.90924 0
M  V30 5011 H 458.732 -1.12186 0.951452 0
M  V30 5012 H 460.69 -4.16225 0.285097 0
M  V30 5013 H 459.32 -3.20967 -0.343489 0
M  V30 5014 H 458.372 -3.18734 2.07637 0
M  V30 5015 H 459.684 -4.29511 2.53617 0
M  V30 5016 H 458.838 -5.99852 0.908975 0
M  V30 5017 H 457.577 -4.86458 0.347869 0
M  V30 5018 H 456.582 -4.81599 2.65222 0
M  V30 5019 H 457.807 -5.98427 3.21033 0
M  V30 5020 H 455.753 -6.47994 1.02174 0
M  V30 5021 H 455.67 -7.08231 2.64471 0
M  V30 5022 H 456.938 -7.63116 1.58978 0
M  V30 5023 N 461.167 -1.02423 -1.1978 0
M  V30 5024 C 462.413 -0.719051 -1.89625 0
M  V30 5025 C 462.746 0.750083 -1.7913 0
M  V30 5026 O 462.021 1.54574 -1.18056 0
M  V30 5027 C 462.304 -1.16499 -3.40735 0
M  V30 5028 C 462.157 -2.695 -3.60125 0
M  V30 5029 C 463.476 -0.742166 -4.33797 0
M  V30 5030 H 460.595 -0.26269 -0.688595 0
M  V30 5031 H 463.237 -1.27333 -1.41018 0
M  V30 5032 H 461.387 -0.69341 -3.82262 0
M  V30 5033 H 463.059 -3.24569 -3.278 0
M  V30 5034 H 461.302 -3.10113 -3.03336 0
M  V30 5035 H 461.973 -2.95757 -4.66081 0
M  V30 5036 H 464.449 -1.1477 -3.99959 0
M  V30 5037 H 463.325 -1.08213 -5.38127 0
M  V30 5038 H 463.586 0.355747 -4.40666 0
M  V30 5039 N 462.645 1.35699 -0.801477 0
M  V30 5040 C 463.891 1.99643 -0.389135 0
M  V30 5041 C 464.246 1.62447 1.03095 0
M  V30 5042 O 463.539 0.875064 1.7045 0
M  V30 5043 C 463.733 3.53828 -0.504041 0
M  V30 5044 C 463.562 4.06 -1.93375 0
M  V30 5045 C 462.332 4.35592 -2.561 0
M  V30 5046 C 464.53 4.24905 -2.89759 0
M  V30 5047 N 462.512 4.73663 -3.90534 0
M  V30 5048 C 463.883 4.65914 -4.09052 0
M  V30 5049 C 465.938 4.07101 -2.86658 0
M  V30 5050 C 464.641 4.90984 -5.25669 0
M  V30 5051 C 466.667 4.33324 -4.02472 0
M  V30 5052 C 466.029 4.74601 -5.20512 0
M  V30 5053 H 462.128 0.758552 -0.19006 0
M  V30 5054 H 464.712 1.64493 -1.04164 0
M  V30 5055 H 462.883 3.88219 0.118437 0
M  V30 5056 H 464.615 4.04645 -0.0667794 0
M  V30 5057 H 461.37 4.25728 -2.07492 0
M  V30 5058 H 461.794 4.96965 -4.59734 0
M  V30 5059 H 466.436 3.74335 -1.96552 0
M  V30 5060 H 464.154 5.22626 -6.1635 0
M  V30 5061 H 467.74 4.21107 -4.01447 0
M  V30 5062 H 466.62 4.94497 -6.08639 0
M  V30 5063 N 464.123 0.554532 1.47522 0
M  V30 5064 C 465.4 -0.0360704 1.95567 0
M  V30 5065 C 465.78 -1.48828 1.49711 0
M  V30 5066 O 465.128 -2.16366 0.734717 0
M  V30 5067 C 465.338 0.106631 3.48837 0
M  V30 5068 C 466.686 -0.0400899 4.24581 0
M  V30 5069 O 467.71 0.0340453 3.56184 0
M  V30 5070 O 466.569 -0.199111 5.46137 0
M  V30 5071 H 463.663 -0.0656294 0.824392 0
M  V30 5072 H 466.209 0.620867 1.57935 0
M  V30 5073 H 464.981 1.11727 3.7501 0
M  V30 5074 H 464.604 -0.58804 3.93227 0
M  V30 5075 N 465.601 -1.54893 0.290851 0
M  V30 5076 C 466.831 -2.04047 -0.323818 0
M  V30 5077 C 467.239 -1.16809 -1.48837 0
M  V30 5078 O 466.582 -0.184145 -1.82775 0
M  V30 5079 C 466.644 -3.49248 -0.852395 0
M  V30 5080 C 466.308 -4.56623 0.185557 0
M  V30 5081 C 467.305 -5.09985 1.01053 0
M  V30 5082 C 464.99 -5.01252 0.324332 0
M  V30 5083 C 466.984 -6.06507 1.96031 0
M  V30 5084 C 464.671 -5.97596 1.27757 0
M  V30 5085 C 465.669 -6.50107 2.09405 0
M  V30 5086 O 465.357 -7.44565 3.03114 0
M  V30 5087 H 465.089 -0.671735 -0.0758129 0
M  V30 5088 H 467.643 -2.00947 0.425393 0
M  V30 5089 H 465.873 -3.49639 -1.65195 0
M  V30 5090 H 467.562 -3.81654 -1.38185 0
M  V30 5091 H 468.328 -4.76307 0.914129 0
M  V30 5092 H 464.207 -4.60015 -0.301213 0
M  V30 5093 H 467.751 -6.47418 2.598 0
M  V30 5094 H 463.648 -6.30691 1.37473 0
M  V30 5095 H 464.416 -7.62334 2.97976 0
M  V30 5096 N 467.08 -0.0183926 -1.57589 0
M  V30 5097 C 468.028 0.985111 -2.10709 0
M  V30 5098 C 469.022 1.34397 -1.0312 0
M  V30 5099 O 470.228 1.32746 -1.21567 0
M  V30 5100 H 466.603 0.335418 -0.673052 0
M  V30 5101 H 468.574 0.511689 -2.9398 0
M  V30 5102 C 467.323 2.26202 -2.64061 0
M  V30 5103 H 466.646 1.9946 -3.4649 0
M  V30 5104 H 468.086 2.94652 -3.04887 0
M  V30 5105 C 466.545 2.98444 -1.5631 0
M  V30 5106 O 467.075 3.90142 -0.956674 0
M  V30 5107 N 465.281 2.6059 -1.28612 0
M  V30 5108 H 464.828 1.86101 -1.78112 0
M  V30 5109 H 464.786 3.09238 -0.567406 0
M  V30 5110 N 468.558 1.5553 0.254621 0
M  V30 5111 C 469.788 1.80784 1.00004 0
M  V30 5112 C 470.196 0.59071 1.79742 0
M  V30 5113 O 469.539 -0.449988 1.78103 0
M  V30 5114 C 469.601 2.99268 1.99196 0
M  V30 5115 C 469.265 4.35595 1.38224 0
M  V30 5116 C 470.262 5.13884 0.788611 0
M  V30 5117 C 467.947 4.82281 1.40393 0
M  V30 5118 C 469.941 6.37004 0.224783 0
M  V30 5119 C 467.628 6.05351 0.836243 0
M  V30 5120 C 468.626 6.82551 0.24769 0
M  V30 5121 O 468.314 8.03297 -0.311249 0
M  V30 5122 H 468.046 0.60565 0.300274 0
M  V30 5123 H 470.6 2.03411 0.285143 0
M  V30 5124 H 468.83 2.72377 2.74496 0
M  V30 5125 H 470.519 3.11682 2.60018 0
M  V30 5126 H 471.285 4.78938 0.764423 0
M  V30 5127 H 467.164 4.22189 1.85142 0
M  V30 5128 H 470.708 6.97203 -0.235235 0
M  V30 5129 H 466.605 6.39776 0.857733 0
M  V30 5130 H 467.373 8.1825 -0.20237 0
M  V30 5131 N 470.036 -0.519951 1.48776 0
M  V30 5132 C 471.313 -1.28123 1.47797 0
M  V30 5133 C 471.693 -2.10196 0.195157 0
M  V30 5134 O 471.041 -2.13167 -0.822925 0
M  V30 5135 C 471.251 -2.15413 2.74587 0
M  V30 5136 C 472.599 -2.75225 3.23321 0
M  V30 5137 O 473.623 -2.25694 2.75574 0
M  V30 5138 O 472.482 -3.65346 4.06429 0
M  V30 5139 H 469.576 -0.578793 0.590701 0
M  V30 5140 H 472.122 -0.535779 1.6102 0
M  V30 5141 H 470.894 -1.54617 3.59457 0
M  V30 5142 H 470.517 -2.97186 2.64132 0
M  V30 5143 N 471.514 -1.37532 -0.769588 0
M  V30 5144 C 472.791 -1.23392 -1.51768 0
M  V30 5145 C 473.171 0.17157 -2.10402 0
M  V30 5146 O 472.519 1.17943 -1.95708 0
M  V30 5147 C 472.729 -2.33163 -2.59685 0
M  V30 5148 C 474.077 -2.70809 -3.27028 0
M  V30 5149 O 475.101 -2.32355 -2.69981 0
M  V30 5150 O 473.96 -3.37066 -4.30173 0
M  V30 5151 H 471.054 -0.481617 -0.67229 0
M  V30 5152 H 473.6 -1.49318 -0.806368 0
M  V30 5153 H 472.372 -3.27273 -2.14494 0
M  V30 5154 H 471.995 -2.08713 -3.38415 0
M  V30 5155 N 472.992 0.995999 -1.22138 0
M  V30 5156 C 473.902 2.11985 -1.00496 0
M  V30 5157 C 474.918 1.7394 0.0457701 0
M  V30 5158 O 476.094 2.00868 -0.146273 0
M  V30 5159 C 473.159 3.41779 -0.582086 0
M  V30 5160 C 472.22 3.93943 -1.70608 0
M  V30 5161 C 471.453 5.17542 -1.30328 0
M  V30 5162 O 471.676 5.70114 -0.180743 0
M  V30 5163 O 470.61 5.63382 -2.11861 0
M  V30 5164 H 474.436 2.33123 -1.94647 0
M  V30 5165 H 472.021 1.10358 -1.00705 0
M  V30 5166 H 473.903 4.1989 -0.356467 0
M  V30 5167 H 472.578 3.22007 0.330592 0
M  V30 5168 H 471.485 3.17019 -1.98619 0
M  V30 5169 H 472.818 4.18141 -2.59651 0
M  V30 5170 N 474.47 1.03057 1.19235 0
M  V30 5171 C 475.695 0.74757 1.93458 0
M  V30 5172 C 476.12 -0.687648 1.7508 0
M  V30 5173 O 475.478 -1.47499 1.05422 0
M  V30 5174 C 475.526 1.10604 3.43219 0
M  V30 5175 O 474.63 0.225671 4.11782 0
M  V30 5176 H 473.971 0.276047 0.603899 0
M  V30 5177 H 476.501 1.3777 1.51263 0
M  V30 5178 H 476.511 1.06366 3.93891 0
M  V30 5179 H 475.186 2.15165 3.55917 0
M  V30 5180 H 473.763 0.326795 3.71465 0
M  V30 5181 N 475.948 -1.35272 0.808662 0
M  V30 5182 C 477.225 -1.93077 0.313181 0
M  V30 5183 C 477.605 -1.73847 -1.19752 0
M  V30 5184 O 476.953 -1.1087 -1.998 0
M  V30 5185 C 477.163 -3.41347 0.726859 0
M  V30 5186 C 478.511 -4.18493 0.717532 0
M  V30 5187 O 479.535 -3.4987 0.668535 0
M  V30 5188 O 478.394 -5.40937 0.777779 0
M  V30 5189 H 475.488 -0.822885 0.0824018 0
M  V30 5190 H 478.034 -1.44335 0.892499 0
M  V30 5191 H 476.806 -3.49082 1.76797 0
M  V30 5192 H 476.429 -3.97411 0.122461 0
M  V30 5193 N 477.426 -0.562348 -1.47226 0
M  V30 5194 C 478.651 -0.0432632 -2.07355 0
M  V30 5195 C 479.076 1.24332 -1.41149 0
M  V30 5196 O 478.434 1.74603 -0.488226 0
M  V30 5197 C 478.482 0.130288 -3.60365 0
M  V30 5198 O 477.586 1.19166 -3.94808 0
M  V30 5199 H 476.927 -0.0536334 -0.66183 0
M  V30 5200 H 479.457 -0.779495 -1.89169 0
M  V30 5201 H 479.467 0.342881 -4.06557 0
M  V30 5202 H 478.142 -0.809389 -4.07948 0
M  V30 5203 H 476.719 0.959153 -3.60354 0
M  V30 5204 N 478.904 1.54736 -0.299062 0
M  V30 5205 C 480.181 1.92187 0.363802 0
M  V30 5206 C 480.561 1.22607 1.71845 0
M  V30 5207 O 479.909 0.361141 2.25628 0
M  V30 5208 C 480.119 3.45678 0.480377 0
M  V30 5209 C 481.467 4.17885 0.752147 0
M  V30 5210 O 482.491 3.51702 0.564264 0
M  V30 5211 O 481.35 5.35048 1.11294 0
M  V30 5212 H 478.444 0.801681 0.203066 0
M  V30 5213 H 480.99 1.66115 -0.346978 0
M  V30 5214 H 479.762 3.88443 -0.471999 0
M  V30 5215 H 479.385 3.77779 1.2397 0
M  V30 5216 N 480.382 0.0267497 1.57577 0
M  V30 5217 C 481.61 -0.662661 1.96001 0
M  V30 5218 C 482.025 -1.65799 0.903117 0
M  V30 5219 O 481.382 -1.82135 -0.115317 0
M  V30 5220 C 481.433 -1.37112 3.34488 0
M  V30 5221 O 481.154 -0.415683 4.36123 0
M  V30 5222 C 482.655 -2.15257 3.8753 0
M  V30 5223 H 479.875 -0.18287 0.6456 0
M  V30 5224 H 482.419 0.0858116 2.0432 0
M  V30 5225 H 480.574 -2.07101 3.27395 0
M  V30 5226 H 480.988 -0.918496 5.16395 0
M  V30 5227 H 482.462 -2.60285 4.86781 0
M  V30 5228 H 482.939 -2.99063 3.21649 0
M  V30 5229 H 483.545 -1.50231 3.97883 0
M  V30 5230 N 481.861 -1.55662 -0.24637 0
M  V30 5231 C 482.771 -1.93495 -1.32653 0
M  V30 5232 C 483.787 -0.835462 -1.5263 0
M  V30 5233 O 484.963 -1.1369 -1.66242 0
M  V30 5234 C 482.028 -2.22242 -2.66101 0
M  V30 5235 C 481.089 -3.45625 -2.54641 0
M  V30 5236 C 480.322 -3.72991 -3.81724 0
M  V30 5237 O 480.545 -3.02421 -4.8363 0
M  V30 5238 O 479.479 -4.66515 -3.80325 0
M  V30 5239 H 483.305 -2.85498 -1.03559 0
M  V30 5240 H 480.89 -1.42551 -0.44717 0
M  V30 5241 H 482.772 -2.42037 -3.44958 0
M  V30 5242 H 481.447 -1.33417 -2.94926 0
M  V30 5243 H 480.354 -3.31136 -1.74067 0
M  V30 5244 H 481.687 -4.34754 -2.3076 0
M  V30 5245 N 483.339 0.512053 -1.4905 0
M  V30 5246 C 484.302 1.59704 -1.64399 0
M  V30 5247 C 485.302 1.52285 -0.516317 0
M  V30 5248 O 486.492 1.55635 -0.782527 0
M  V30 5249 C 483.624 2.9935 -1.63102 0
M  V30 5250 H 484.817 1.47428 -2.61161 0
M  V30 5251 H 482.37 0.735469 -1.37915 0
M  V30 5252 H 483.105 3.17116 -0.678836 0
M  V30 5253 H 482.89 3.06144 -2.44986 0
M  V30 5254 H 484.38 3.782 -1.77072 0
M  V30 5255 N 484.817 1.37938 0.762283 0
M  V30 5256 C 485.78 1.34279 1.85747 0
M  V30 5257 C 486.78 0.244969 1.58923 0
M  V30 5258 O 487.97 0.501365 1.66829 0
M  V30 5259 C 485.102 1.08833 3.23061 0
M  V30 5260 H 486.295 2.31705 1.90401 0
M  V30 5261 H 483.848 1.23105 0.963057 0
M  V30 5262 H 484.583 0.119767 3.24079 0
M  V30 5263 H 484.368 1.88306 3.43923 0
M  V30 5264 H 485.858 1.08946 4.03138 0
M  V30 5265 N 486.295 -0.989507 1.22664 0
M  V30 5266 C 487.706 -1.54406 1.04955 0
M  V30 5267 C 488.057 -1.92366 -0.385951 0
M  V30 5268 O 487.182 -1.75111 -1.27142 0
M  V30 5269 C 487.777 -2.80578 1.89899 0
M  V30 5270 C 486.336 -3.32464 1.76478 0
M  V30 5271 C 485.483 -2.05524 1.86159 0
M  V30 5272 H 488.434 -0.810211 1.3646 0
M  V30 5273 H 488.455 -3.53075 1.4184 0
M  V30 5274 H 487.967 -2.52918 2.94371 0
M  V30 5275 H 486.068 -3.65024 0.747528 0
M  V30 5276 H 486.181 -4.02838 2.59342 0
M  V30 5277 H 484.545 -2.19241 1.29636 0
M  V30 5278 H 485.328 -1.80258 2.92168 0
M  V30 5279 N 487.773 -1.03688 -1.18687 0
M  V30 5280 C 489.189 -0.755413 -1.4059 0
M  V30 5281 C 489.389 0.656659 -1.905 0
M  V30 5282 O 488.445 1.42144 -2.08689 0
M  V30 5283 C 489.758 -1.7983 -2.41001 0
M  V30 5284 C 491.306 -1.81877 -2.54735 0
M  V30 5285 C 491.781 -2.85148 -3.58406 0
M  V30 5286 N 493.272 -2.84015 -3.6591 0
M  V30 5287 C 494.007 -3.60573 -4.45841 0
M  V30 5288 N 493.503 -4.46871 -5.29413 0
M  V30 5289 N 495.296 -3.49079 -4.40568 0
M  V30 5290 H 487.447 -1.94818 -0.846148 0
M  V30 5291 H 489.71 -0.842727 -0.434184 0
M  V30 5292 H 489.416 -2.81097 -2.1137 0
M  V30 5293 H 489.29 -1.62727 -3.40294 0
M  V30 5294 H 491.677 -0.812836 -2.83685 0
M  V30 5295 H 491.758 -2.03057 -1.55568 0
M  V30 5296 H 491.402 -3.85918 -3.30197 0
M  V30 5297 H 491.332 -2.61224 -4.57241 0
M  V30 5298 H 493.823 -2.21431 -3.0623 0
M  V30 5299 H 494.136 -5.02007 -5.87545 0
M  V30 5300 H 492.481 -4.5094 -5.28846 0
M  V30 5301 H 495.672 -2.81066 -3.74325 0
M  V30 5302 H 495.845 -4.08994 -5.02621 0
M  V30 5303 N 489.251 1.34841 -0.815825 0
M  V30 5304 C 490.479 2.0273 -0.413294 0
M  V30 5305 C 490.894 1.61459 0.978599 0
M  V30 5306 O 490.251 0.816584 1.63212 0
M  V30 5307 C 490.302 3.58058 -0.497676 0
M  V30 5308 O 490.023 3.97832 -1.8347 0
M  V30 5309 C 491.524 4.4321 -0.0891339 0
M  V30 5310 H 488.744 0.649956 -0.166728 0
M  V30 5311 H 491.288 1.72267 -1.10201 0
M  V30 5312 H 489.443 3.87136 0.142886 0
M  V30 5313 H 489.857 4.92501 -1.80396 0
M  V30 5314 H 491.331 5.5164 -0.199274 0
M  V30 5315 H 491.808 4.28432 0.966571 0
M  V30 5316 H 492.414 4.19446 -0.703214 0
M  V30 5317 N 490.729 0.570148 1.46925 0
M  V30 5318 C 491.954 0.0542592 2.07329 0
M  V30 5319 C 492.379 -1.23582 1.41806 0
M  V30 5320 O 491.737 -1.74341 0.497479 0
M  V30 5321 C 491.785 -0.111175 3.60429 0
M  V30 5322 O 490.889 -1.17071 3.95434 0
M  V30 5323 H 490.23 0.0571425 0.661537 0
M  V30 5324 H 492.76 0.789516 1.88753 0
M  V30 5325 H 492.77 -0.321315 4.06733 0
M  V30 5326 H 491.445 0.831012 4.07513 0
M  V30 5327 H 490.022 -0.940029 3.60857 0
M  V30 5328 N 492.207 -1.54576 0.307264 0
M  V30 5329 C 493.455 -1.99867 -0.299574 0
M  V30 5330 C 493.776 -1.19714 -1.53927 0
M  V30 5331 O 493.046 -0.29472 -1.9367 0
M  V30 5332 H 491.626 -0.738299 -0.113683 0
M  V30 5333 H 494.288 -1.9032 0.420042 0
M  V30 5334 H 493.384 -3.06901 -0.567283 0
M  V30 5335 N 493.685 -0.035106 -1.57561 0
M  V30 5336 C 494.933 0.64096 -1.91667 0
M  V30 5337 C 495.254 1.72323 -0.912681 0
M  V30 5338 O 494.524 1.95849 0.0449089 0
M  V30 5339 H 493.104 0.239743 -0.707483 0
M  V30 5340 H 495.766 -0.084321 -1.94718 0
M  V30 5341 H 494.862 1.08987 -2.92452 0
M  V30 5342 N 495.163 1.55791 0.238111 0
M  V30 5343 C 496.411 1.77681 0.963001 0
M  V30 5344 C 496.732 0.600674 1.85518 0
M  V30 5345 O 496.002 -0.383182 1.92116 0
M  V30 5346 H 494.582 0.655315 0.358568 0
M  V30 5347 H 497.244 1.93239 0.253945 0
M  V30 5348 H 496.34 2.69177 1.57956 0
M  V30 5349 N 496.642 -0.504142 1.49319 0
M  V30 5350 C 497.872 -1.28071 1.62116 0
M  V30 5351 C 498.28 -1.86955 0.290566 0
M  V30 5352 O 497.623 -1.68415 -0.733616 0
M  V30 5353 C 497.685 -2.4521 2.62893 0
M  V30 5354 C 497.349 -2.07218 4.0732 0
M  V30 5355 C 498.346 -1.61375 4.94221 0
M  V30 5356 C 496.031 -2.16949 4.53033 0
M  V30 5357 C 498.025 -1.25763 6.2487 0
M  V30 5358 C 495.712 -1.80949 5.83696 0
M  V30 5359 C 496.71 -1.3543 6.69438 0
M  V30 5360 O 496.398 -0.99915 7.97667 0
M  V30 5361 H 496.13 -0.394763 0.54876 0
M  V30 5362 H 498.684 -0.612118 1.96067 0
M  V30 5363 H 496.914 -3.15134 2.24115 0
M  V30 5364 H 498.603 -3.0724 2.65252 0
M  V30 5365 H 499.369 -1.53306 4.60133 0
M  V30 5366 H 495.248 -2.5133 3.86463 0
M  V30 5367 H 498.792 -0.901631 6.91749 0
M  V30 5368 H 494.689 -1.88667 6.17313 0
M  V30 5369 H 495.457 -1.13089 8.1065 0
M  V30 5370 N 498.12 -1.38341 -0.754957 0
M  V30 5371 C 499.348 -1.37704 -1.54419 0
M  V30 5372 C 499.763 0.0335243 -1.8877 0
M  V30 5373 O 499.12 0.999773 -1.52679 0
M  V30 5374 C 499.171 -2.23136 -2.84416 0
M  V30 5375 O 498.892 -3.58697 -2.51531 0
M  V30 5376 C 500.393 -2.30664 -3.78562 0
M  V30 5377 H 497.613 -0.471061 -0.477852 0
M  V30 5378 H 500.157 -1.81902 -0.934446 0
M  V30 5379 H 498.312 -1.82403 -3.41772 0
M  V30 5380 H 498.726 -4.03665 -3.34896 0
M  V30 5381 H 500.2 -2.9473 -4.66732 0
M  V30 5382 H 500.677 -1.3199 -4.18898 0
M  V30 5383 H 501.283 -2.71781 -3.27131 0
M  V30 5384 N 499.598 0.982988 -1.23187 0
M  V30 5385 C 500.531 2.07302 -0.953993 0
M  V30 5386 C 501.509 1.62249 0.106753 0
M  V30 5387 O 502.693 1.88481 -0.0269525 0
M  V30 5388 C 499.82 3.35873 -0.436716 0
M  V30 5389 C 498.866 3.99862 -1.48367 0
M  V30 5390 S 499.699 4.39443 -3.06023 0
M  V30 5391 C 500.855 5.7117 -2.55959 0
M  V30 5392 H 501.088 2.30554 -1.87702 0
M  V30 5393 H 498.621 1.11883 -1.06403 0
M  V30 5394 H 500.579 4.10244 -0.144872 0
M  V30 5395 H 499.24 3.10634 0.465351 0
M  V30 5396 H 498.433 4.92471 -1.07182 0
M  V30 5397 H 498.035 3.31857 -1.72473 0
M  V30 5398 H 500.327 6.47977 -1.97818 0
M  V30 5399 H 501.27 6.17194 -3.47098 0
M  V30 5400 H 501.678 5.29046 -1.96902 0
M  V30 5401 N 501.076 1.04316 1.18135 0
M  V30 5402 C 502.026 0.606731 2.19779 0
M  V30 5403 C 503.01 -0.352144 1.56999 0
M  V30 5404 O 504.202 -0.170795 1.76174 0
M  V30 5405 C 501.331 -0.0262443 3.4329 0
M  V30 5406 C 500.417 0.955928 4.13186 0
M  V30 5407 N 500.808 2.12395 4.59045 0
M  V30 5408 C 499.106 0.782473 4.39082 0
M  V30 5409 C 499.807 2.74458 5.12882 0
M  V30 5410 N 498.783 2.02316 5.04548 0
M  V30 5411 H 502.585 1.49679 2.5293 0
M  V30 5412 H 500.099 0.912088 1.34368 0
M  V30 5413 H 502.096 -0.356617 4.15372 0
M  V30 5414 H 500.756 -0.911811 3.11635 0
M  V30 5415 H 501.767 2.50272 4.53414 0
M  V30 5416 H 498.444 -0.0527906 4.17467 0
M  V30 5417 H 499.834 3.73459 5.5855 0
M  V30 5418 N 502.554 -1.34406 0.822964 0
M  V30 5419 C 503.802 -1.97892 0.410245 0
M  V30 5420 C 504.123 -1.65567 -1.03017 0
M  V30 5421 O 503.393 -0.94642 -1.71522 0
M  V30 5422 H 501.973 -0.732049 0.148707 0
M  V30 5423 H 504.635 -1.64043 1.05242 0
M  V30 5424 H 503.731 -3.07579 0.529284 0
M  V30 5425 N 504.032 -0.577932 -1.46621 0
M  V30 5426 C 504.962 0.145917 -2.33044 0
M  V30 5427 C 505.943 0.888412 -1.45056 0
M  V30 5428 O 507.128 0.864812 -1.73881 0
M  V30 5429 C 504.258 1.16322 -3.27241 0
M  V30 5430 C 503.212 0.535868 -4.24632 0
M  V30 5431 C 502.538 1.65929 -5.08303 0
M  V30 5432 C 503.838 -0.523861 -5.19666 0
M  V30 5433 H 505.532 -0.575636 -2.93814 0
M  V30 5434 H 503.078 -0.278272 -1.41286 0
M  V30 5435 H 505.031 1.67793 -3.86553 0
M  V30 5436 H 503.755 1.91498 -2.64567 0
M  V30 5437 H 502.414 0.0422759 -3.66576 0
M  V30 5438 H 502.062 2.40061 -4.42018 0
M  V30 5439 H 501.762 1.2452 -5.74255 0
M  V30 5440 H 503.286 2.17686 -5.70478 0
M  V30 5441 H 504.7 -0.0944059 -5.73222 0
M  V30 5442 H 503.097 -0.858 -5.93935 0
M  V30 5443 H 504.167 -1.41197 -4.63887 0
M  V30 5444 N 505.51 1.54411 -0.315457 0
M  V30 5445 C 506.738 2.04833 0.291738 0
M  V30 5446 C 507.153 1.19203 1.46411 0
M  V30 5447 O 506.51 0.220867 1.81159 0
M  V30 5448 C 506.561 3.53969 0.73404 0
M  V30 5449 O 506.282 4.36346 -0.391682 0
M  V30 5450 C 507.783 4.2045 1.40489 0
M  V30 5451 H 505.003 0.668195 0.0612947 0
M  V30 5452 H 507.547 1.99276 -0.45929 0
M  V30 5453 H 505.702 3.5984 1.43506 0
M  V30 5454 H 506.116 5.24481 -0.0447088 0
M  V30 5455 H 507.59 5.26278 1.66539 0
M  V30 5456 H 508.067 3.71067 2.3496 0
M  V30 5457 H 508.673 4.18694 0.746662 0
M  V30 5458 N 506.988 0.0434614 1.5754 0
M  V30 5459 C 508.234 -0.632971 1.92669 0
M  V30 5460 C 508.567 -1.70947 0.921446 0
M  V30 5461 O 507.842 -1.94426 -0.0537202 0
M  V30 5462 C 508.125 -1.23619 3.38216 0
M  V30 5463 C 507.978 -0.168274 4.49485 0
M  V30 5464 C 509.297 -2.15008 3.84005 0
M  V30 5465 H 506.416 -0.228629 0.700641 0
M  V30 5466 H 509.058 0.103651 1.89717 0
M  V30 5467 H 507.208 -1.864 3.40863 0
M  V30 5468 H 508.88 0.463196 4.58969 0
M  V30 5469 H 507.123 0.504581 4.30855 0
M  V30 5470 H 507.794 -0.630218 5.48391 0
M  V30 5471 H 510.27 -1.62198 3.83185 0
M  V30 5472 H 509.146 -2.54161 4.86511 0
M  V30 5473 H 509.407 -3.04707 3.20322 0
M  V30 5474 N 508.466 -1.55915 -0.229846 0
M  V30 5475 C 509.882 -1.48721 -0.579166 0
M  V30 5476 C 510.082 -0.736976 -1.87539 0
M  V30 5477 O 509.138 -0.273258 -2.51017 0
M  V30 5478 C 510.451 -2.9323 -0.666082 0
M  V30 5479 C 511.999 -3.03701 -0.757267 0
M  V30 5480 C 512.474 -4.49552 -0.8756 0
M  V30 5481 N 513.965 -4.53561 -0.940035 0
M  V30 5482 C 514.7 -5.63683 -1.05116 0
M  V30 5483 N 514.196 -6.83576 -1.12675 0
M  V30 5484 N 515.989 -5.51516 -1.08565 0
M  V30 5485 H 508.14 -2.03123 0.620857 0
M  V30 5486 H 510.403 -0.922898 0.21671 0
M  V30 5487 H 510.109 -3.51032 0.21664 0
M  V30 5488 H 509.983 -3.44668 -1.53243 0
M  V30 5489 H 512.37 -2.45969 -1.63043 0
M  V30 5490 H 512.451 -2.55446 0.134583 0
M  V30 5491 H 512.095 -5.079 -0.00692351 0
M  V30 5492 H 512.025 -4.95506 -1.78274 0
M  V30 5493 H 514.516 -3.67215 -0.892269 0
M  V30 5494 H 514.829 -7.63251 -1.21109 0
M  V30 5495 H 513.174 -6.86303 -1.09603 0
M  V30 5496 H 516.365 -4.5678 -1.02319 0
M  V30 5497 H 516.538 -6.37372 -1.1688 0
M  V30 5498 N 509.944 0.496216 -1.49584 0
M  V30 5499 C 511.355 1.07765 -1.52459 0
M  V30 5500 C 511.706 1.93679 -0.31353 0
M  V30 5501 O 510.831 2.08588 0.576186 0
M  V30 5502 C 511.426 1.96111 -2.76271 0
M  V30 5503 C 509.985 2.49409 -2.81908 0
M  V30 5504 C 509.132 1.27142 -2.46435 0
M  V30 5505 H 512.083 0.279914 -1.56212 0
M  V30 5506 H 512.104 2.80862 -2.56704 0
M  V30 5507 H 511.616 1.33555 -3.64396 0
M  V30 5508 H 509.717 3.1559 -1.98074 0
M  V30 5509 H 509.83 2.86234 -3.84196 0
M  V30 5510 H 508.194 1.59818 -1.98319 0
M  V30 5511 H 508.977 0.662866 -3.3684 0
M  V30 5512 N 511.423 1.38739 0.74761 0
M  V30 5513 C 512.353 1.39173 1.87492 0
M  V30 5514 C 513.334 0.256794 1.6815 0
M  V30 5515 O 514.519 0.460762 1.88655 0
M  V30 5516 C 511.649 1.22197 3.25093 0
M  V30 5517 C 510.603 2.32957 3.59047 0
M  V30 5518 C 509.929 2.01082 4.95449 0
M  V30 5519 C 511.229 3.75237 3.6331 0
M  V30 5520 H 512.923 2.3351 1.87386 0
M  V30 5521 H 510.469 1.12399 0.900134 0
M  V30 5522 H 512.422 1.21124 4.03617 0
M  V30 5523 H 511.146 0.243241 3.25693 0
M  V30 5524 H 509.805 2.33226 2.82845 0
M  V30 5525 H 509.453 1.01678 4.92616 0
M  V30 5526 H 509.153 2.75267 5.19136 0
M  V30 5527 H 510.677 2.01638 5.76346 0
M  V30 5528 H 512.091 3.76966 4.31937 0
M  V30 5529 H 510.488 4.48677 3.98509 0
M  V30 5530 H 511.558 4.07122 2.634 0
M  V30 5531 N 512.901 -0.976442 1.23707 0
M  V30 5532 C 514.149 -1.71487 1.06942 0
M  V30 5533 C 514.47 -1.9098 -0.393897 0
M  V30 5534 O 513.74 -1.48128 -1.28198 0
M  V30 5535 H 512.32 -0.635425 0.392739 0
M  V30 5536 H 514.982 -1.17515 1.55487 0
M  V30 5537 H 514.078 -2.70286 1.56051 0
M  V30 5538 N 514.379 -1.04941 -1.1758 0
M  V30 5539 C 515.311 -0.606174 -2.21039 0
M  V30 5540 C 516.324 0.328763 -1.59446 0
M  V30 5541 O 517.513 0.121895 -1.78083 0
M  V30 5542 C 514.613 0.133294 -3.38638 0
M  V30 5543 C 513.786 -0.811711 -4.29802 0
M  V30 5544 C 512.845 -0.113958 -5.26077 0
M  V30 5545 O 511.871 -0.747237 -5.64274 0
M  V30 5546 N 513.073 1.14953 -5.69004 0
M  V30 5547 H 515.838 -1.49606 -2.59689 0
M  V30 5548 H 513.399 -0.930997 -1.32454 0
M  V30 5549 H 515.391 0.610144 -4.00074 0
M  V30 5550 H 513.961 0.924816 -2.98607 0
M  V30 5551 H 513.181 -1.46824 -3.65837 0
M  V30 5552 H 514.469 -1.45326 -4.87604 0
M  V30 5553 H 513.867 1.68441 -5.40041 0
M  V30 5554 H 512.424 1.57049 -6.32597 0
M  V30 5555 N 515.857 1.33968 -0.830081 0
M  V30 5556 C 516.82 2.27694 -0.26235 0
M  V30 5557 C 517.82 1.50589 0.563876 0
M  V30 5558 O 519.01 1.70028 0.378941 0
M  V30 5559 C 516.142 3.35002 0.63138 0
M  V30 5560 H 517.335 2.79419 -1.08928 0
M  V30 5561 H 514.888 1.44221 -0.602486 0
M  V30 5562 H 515.623 2.88504 1.48109 0
M  V30 5563 H 515.408 3.92079 0.0403276 0
M  V30 5564 H 516.898 4.04897 1.02217 0
M  V30 5565 N 517.335 0.585699 1.46312 0
M  V30 5566 C 518.56 0.0762461 2.0726 0
M  V30 5567 C 518.985 -1.22071 1.43109 0
M  V30 5568 O 518.343 -1.73804 0.515942 0
M  V30 5569 C 518.391 -0.0729404 3.60526 0
M  V30 5570 O 517.495 -1.1287 3.96654 0
M  V30 5571 H 516.836 0.0641558 0.660893 0
M  V30 5572 H 519.366 0.809492 1.87905 0
M  V30 5573 H 519.376 -0.278158 4.07051 0
M  V30 5574 H 518.051 0.874188 4.06609 0
M  V30 5575 H 516.628 -0.901703 3.61834 0
M  V30 5576 N 518.813 -1.54241 0.323641 0
M  V30 5577 C 519.776 -2.22997 -0.529602 0
M  V30 5578 C 520.776 -1.22345 -1.04347 0
M  V30 5579 O 521.966 -1.46924 -0.935889 0
M  V30 5580 C 519.098 -2.93409 -1.73562 0
M  V30 5581 H 520.291 -2.99815 0.0714518 0
M  V30 5582 H 517.844 -1.56121 0.0747258 0
M  V30 5583 H 518.579 -2.20729 -2.37591 0
M  V30 5584 H 518.364 -3.67217 -1.37456 0
M  V30 5585 H 519.854 -3.45794 -2.34128 0
M  V30 5586 N 520.291 -0.0518155 -1.57515 0
M  V30 5587 C 521.519 0.631395 -1.9703 0
M  V30 5588 C 521.934 1.64341 -0.92938 0
M  V30 5589 O 521.291 1.82296 0.0863266 0
M  V30 5590 C 521.342 1.31774 -3.36627 0
M  V30 5591 O 521.063 0.346247 -4.3673 0
M  V30 5592 C 522.564 2.09065 -3.90905 0
M  V30 5593 H 519.784 0.172576 -0.648428 0
M  V30 5594 H 522.328 -0.118306 -2.04158 0
M  V30 5595 H 520.483 2.01867 -3.30649 0
M  V30 5596 H 520.897 0.836226 -5.17791 0
M  V30 5597 H 522.371 2.52508 -4.9086 0
M  V30 5598 H 522.848 2.93908 -3.26366 0
M  V30 5599 H 523.454 1.43882 -4.00223 0
M  V30 5600 N 521.769 1.56035 0.221574 0
M  V30 5601 C 522.994 1.83476 0.967026 0
M  V30 5602 C 523.419 0.632139 1.7716 0
M  V30 5603 O 522.777 -0.419082 1.7639 0
M  V30 5604 C 522.825 3.08907 1.86034 0
M  V30 5605 O 521.929 2.876 2.95567 0
M  V30 5606 H 521.27 0.604913 0.273817 0
M  V30 5607 H 523.8 2.03247 0.234893 0
M  V30 5608 H 523.81 3.3901 2.27016 0
M  V30 5609 H 522.485 3.96068 1.26898 0
M  V30 5610 H 521.062 2.6873 2.58532 0
M  V30 5611 N 523.247 -0.488276 1.49845 0
M  V30 5612 C 524.475 -1.26527 1.63702 0
M  V30 5613 C 524.89 -1.8618 0.313447 0
M  V30 5614 O 524.247 -1.68432 -0.702624 0
M  V30 5615 C 524.298 -2.3864 2.71538 0
M  V30 5616 O 524.019 -1.81437 3.98763 0
M  V30 5617 C 525.52 -3.29805 2.96215 0
M  V30 5618 H 522.74 -0.383295 0.55075 0
M  V30 5619 H 525.284 -0.584779 1.95961 0
M  V30 5620 H 523.439 -3.02496 2.42023 0
M  V30 5621 H 523.853 -2.55135 4.58265 0
M  V30 5622 H 525.327 -4.04722 3.75372 0
M  V30 5623 H 525.804 -3.87563 2.06619 0
M  V30 5624 H 526.41 -2.71703 3.27196 0
M  V30 5625 N 524.725 -1.39134 -0.740242 0
M  V30 5626 C 525.635 -1.39697 -1.88473 0
M  V30 5627 C 526.651 -0.292403 -1.71526 0
M  V30 5628 O 527.827 -0.533021 -1.94219 0
M  V30 5629 C 524.892 -1.23382 -3.24003 0
M  V30 5630 C 523.953 -2.43763 -3.53381 0
M  V30 5631 C 523.186 -2.28216 -4.82445 0
M  V30 5632 O 523.409 -1.28288 -5.55786 0
M  V30 5633 O 522.343 -3.1709 -5.11603 0
M  V30 5634 H 526.169 -2.36159 -1.90952 0
M  V30 5635 H 523.754 -1.20194 -0.887346 0
M  V30 5636 H 525.636 -1.16395 -4.05006 0
M  V30 5637 H 524.311 -0.300121 -3.22306 0
M  V30 5638 H 523.218 -2.56325 -2.72485 0
M  V30 5639 H 524.551 -3.35808 -3.59852 0
M  V30 5640 N 526.204 0.969867 -1.24223 0
M  V30 5641 C 527.429 1.75289 -1.10853 0
M  V30 5642 C 527.854 1.85091 0.335079 0
M  V30 5643 O 527.212 1.32024 1.24255 0
M  V30 5644 C 527.26 3.15255 -1.75062 0
M  V30 5645 O 526.364 3.99589 -1.01992 0
M  V30 5646 H 525.705 0.538904 -0.387915 0
M  V30 5647 H 528.235 1.21675 -1.64488 0
M  V30 5648 H 528.245 3.65787 -1.80731 0
M  V30 5649 H 526.92 3.07436 -2.801 0
M  V30 5650 H 525.497 3.58077 -1.04094 0
M  V30 5651 N 527.682 1.05563 1.17022 0
M  V30 5652 C 528.614 0.617888 2.20714 0
M  V30 5653 C 529.627 -0.320303 1.59618 0
M  V30 5654 O 530.816 -0.112449 1.78145 0
M  V30 5655 C 527.916 -0.115333 3.38704 0
M  V30 5656 C 527.089 0.834493 4.29366 0
M  V30 5657 C 526.148 0.141855 5.26009 0
M  V30 5658 O 525.174 0.777151 5.6387 0
M  V30 5659 N 526.376 -1.11934 5.69606 0
M  V30 5660 H 529.141 1.50981 2.58892 0
M  V30 5661 H 526.702 0.938008 1.31958 0
M  V30 5662 H 528.694 -0.588918 4.00392 0
M  V30 5663 H 527.264 -0.908967 2.99093 0
M  V30 5664 H 526.484 1.48762 3.65053 0
M  V30 5665 H 527.772 1.4791 4.86827 0
M  V30 5666 H 527.17 -1.65574 5.40927 0
M  V30 5667 H 525.727 -1.53692 6.33421 0
M  V30 5668 N 529.16 -1.33526 0.837174 0
M  V30 5669 C 530.09 -2.31764 0.284206 0
M  V30 5670 C 531.071 -1.58896 -0.607142 0
M  V30 5671 O 532.256 -1.86798 -0.531047 0
M  V30 5672 C 529.386 -3.43029 -0.542962 0
M  V30 5673 C 528.34 -4.27255 0.252451 0
M  V30 5674 C 527.666 -5.3012 -0.69836 0
M  V30 5675 C 528.966 -5.01229 1.46858 0
M  V30 5676 H 530.66 -2.78262 1.10502 0
M  V30 5677 H 528.206 -1.3378 0.532812 0
M  V30 5678 H 530.159 -4.1078 -0.940096 0
M  V30 5679 H 528.883 -2.95216 -1.39697 0
M  V30 5680 H 527.542 -3.61127 0.631124 0
M  V30 5681 H 527.19 -4.78564 -1.54872 0
M  V30 5682 H 526.89 -5.87353 -0.170274 0
M  V30 5683 H 528.414 -6.00737 -1.09305 0
M  V30 5684 H 529.828 -5.61756 1.14469 0
M  V30 5685 H 528.225 -5.68104 1.93333 0
M  V30 5686 H 529.295 -4.301 2.23924 0
M  V30 5687 N 530.638 -0.59345 -1.46 0
M  V30 5688 C 531.887 -0.0808084 -2.01538 0
M  V30 5689 C 532.2 1.29112 -1.46934 0
M  V30 5690 O 533.406 1.8957 -1.94359 0
M  V30 5691 C 531.862 -0.0938311 -3.59778 0
M  V30 5692 C 531.47 -1.46474 -4.23379 0
M  V30 5693 C 533.214 0.364306 -4.22934 0
M  V30 5694 C 531.121 -1.4349 -5.73729 0
M  V30 5695 H 530.051 -0.0264407 -0.753536 0
M  V30 5696 H 532.702 -0.746689 -1.67621 0
M  V30 5697 H 531.084 0.638427 -3.9082 0
M  V30 5698 H 532.258 -2.21758 -4.03931 0
M  V30 5699 H 530.573 -1.86379 -3.7236 0
M  V30 5700 H 533.17 0.405584 -5.3316 0
M  V30 5701 H 533.513 1.38409 -3.92618 0
M  V30 5702 H 534.046 -0.31423 -3.96557 0
M  V30 5703 H 530.785 -2.43184 -6.08722 0
M  V30 5704 H 530.305 -0.724431 -5.95409 0
M  V30 5705 H 531.984 -1.15243 -6.36654 0
M  V30 5706 N 532.116 1.54067 -0.331816 0
M  V30 5707 C 533.393 1.92915 0.322955 0
M  V30 5708 C 533.773 1.26225 1.69205 0
M  V30 5709 O 533.121 0.408919 2.24811 0
M  V30 5710 C 533.331 3.46619 0.406946 0
M  V30 5711 C 534.679 4.19386 0.663339 0
M  V30 5712 O 535.703 3.5282 0.489536 0
M  V30 5713 O 534.562 5.37288 0.999193 0
M  V30 5714 H 531.656 0.805808 0.186016 0
M  V30 5715 H 534.202 1.65342 -0.382135 0
M  V30 5716 H 532.974 3.87354 -0.554287 0
M  V30 5717 H 532.597 3.80324 1.15929 0
M  V30 5718 N 533.594 0.0601682 1.57485 0
M  V30 5719 C 535.005 -0.474217 1.80577 0
M  V30 5720 C 535.356 -1.70365 0.973147 0
M  V30 5721 O 534.481 -2.15544 0.192306 0
M  V30 5722 C 535.076 -0.867102 3.27516 0
M  V30 5723 C 533.635 -1.34642 3.51495 0
M  V30 5724 C 532.782 -0.32594 2.75378 0
M  V30 5725 H 535.733 0.285973 1.56102 0
M  V30 5726 H 535.754 -1.72938 3.38929 0
M  V30 5727 H 535.266 0.0278927 3.8809 0
M  V30 5728 H 533.367 -2.2603 2.96212 0
M  V30 5729 H 533.48 -1.33237 4.60201 0
M  V30 5730 H 531.844 -0.800749 2.41785 0
M  V30 5731 H 532.627 0.561125 3.38683 0
M  V30 5732 N 535.072 -1.5615 -0.213296 0
M  V30 5733 C 535.982 -1.96265 -1.28519 0
M  V30 5734 C 536.998 -0.86765 -1.50824 0
M  V30 5735 O 538.174 -1.17191 -1.63793 0
M  V30 5736 C 535.239 -2.27836 -2.61327 0
M  V30 5737 C 534.3 -3.50949 -2.47252 0
M  V30 5738 C 533.533 -3.81004 -3.73727 0
M  V30 5739 O 533.756 -3.12612 -4.77106 0
M  V30 5740 O 532.69 -4.74477 -3.70344 0
M  V30 5741 H 536.516 -2.87631 -0.974795 0
M  V30 5742 H 534.101 -1.43467 -0.416832 0
M  V30 5743 H 535.983 -2.49299 -3.39747 0
M  V30 5744 H 534.658 -1.39643 -2.9203 0
M  V30 5745 H 533.565 -3.34754 -1.67004 0
M  V30 5746 H 534.898 -4.39551 -2.21486 0
M  V30 5747 N 536.55 0.480323 -1.50102 0
M  V30 5748 C 537.775 1.26126 -1.64642 0
M  V30 5749 C 538.2 1.85257 -0.325823 0
M  V30 5750 O 537.558 1.66854 0.709194 0
M  V30 5751 C 537.606 2.35243 -2.73301 0
M  V30 5752 O 536.71 3.39646 -2.33911 0
M  V30 5753 H 536.051 0.371463 -0.550374 0
M  V30 5754 H 538.581 0.572696 -1.96421 0
M  V30 5755 H 538.591 2.80695 -2.96098 0
M  V30 5756 H 537.266 1.91574 -3.6915 0
M  V30 5757 H 535.843 2.99969 -2.21525 0
M  V30 5758 N 538.028 1.39524 0.732853 0
M  V30 5759 C 538.938 1.40695 1.87729 0
M  V30 5760 C 539.954 0.301496 1.71368 0
M  V30 5761 O 541.13 0.543313 1.93933 0
M  V30 5762 C 538.195 1.25098 3.23344 0
M  V30 5763 C 537.256 2.45634 3.52083 0
M  V30 5764 C 536.489 2.30772 4.81228 0
M  V30 5765 O 536.712 1.31233 5.55098 0
M  V30 5766 O 535.646 3.19799 5.09914 0
M  V30 5767 H 539.472 2.37168 1.89697 0
M  V30 5768 H 537.057 1.20663 0.880959 0
M  V30 5769 H 538.939 1.18541 4.04383 0
M  V30 5770 H 537.614 0.317209 3.22142 0
M  V30 5771 H 536.521 2.57767 2.71122 0
M  V30 5772 H 537.854 3.37712 3.58066 0
M  V30 5773 N 539.506 -0.963266 1.24736 0
M  V30 5774 C 540.416 -2.09246 1.06082 0
M  V30 5775 C 541.432 -1.74 0.000363101 0
M  V30 5776 O 542.608 -2.0041 0.199479 0
M  V30 5777 C 539.673 -3.40115 0.672498 0
M  V30 5778 C 538.734 -3.89282 1.80993 0
M  V30 5779 C 537.967 -5.13905 1.44004 0
M  V30 5780 O 538.19 -5.69434 0.331835 0
M  V30 5781 O 537.124 -5.57566 2.26723 0
M  V30 5782 H 540.95 -2.27881 2.00759 0
M  V30 5783 H 538.535 -1.07649 1.03595 0
M  V30 5784 H 540.417 -4.18797 0.467668 0
M  V30 5785 H 539.092 -3.22771 -0.245102 0
M  V30 5786 H 537.999 -3.11642 2.06955 0
M  V30 5787 H 539.332 -4.1111 2.70646 0
M  V30 5788 N 540.985 -1.06182 -1.16461 0
M  V30 5789 C 541.895 -0.682671 -2.24448 0
M  V30 5790 C 542.911 0.30078 -1.71381 0
M  V30 5791 O 544.087 0.150376 -2.00838 0
M  V30 5792 C 541.152 -0.0737202 -3.46622 0
M  V30 5793 C 540.213 -1.10889 -4.14731 0
M  V30 5794 C 539.446 -0.528908 -5.31073 0
M  V30 5795 O 539.669 0.65868 -5.66584 0
M  V30 5796 O 538.603 -1.26805 -5.88391 0
M  V30 5797 H 542.429 -1.58291 -2.59187 0
M  V30 5798 H 540.014 -0.834013 -1.23954 0
M  V30 5799 H 541.896 0.264192 -4.20571 0
M  V30 5800 H 540.571 0.800015 -3.13658 0
M  V30 5801 H 539.478 -1.49896 -3.42756 0
M  V30 5802 H 540.811 -1.95412 -4.51747 0
M  V30 5803 N 542.463 1.3308 -0.844243 0
M  V30 5804 C 543.874 1.7992 -0.498566 0
M  V30 5805 C 544.225 1.69808 0.982834 0
M  V30 5806 O 543.35 1.25051 1.7661 0
M  V30 5807 C 543.945 3.26677 -0.898204 0
M  V30 5808 C 542.504 3.71513 -0.604583 0
M  V30 5809 C 541.651 2.54393 -1.10362 0
M  V30 5810 H 544.602 1.20526 -1.03244 0
M  V30 5811 H 544.623 3.79918 -0.21039 0
M  V30 5812 H 544.135 3.34004 -1.97643 0
M  V30 5813 H 542.236 3.69708 0.46335 0
M  V30 5814 H 542.349 4.64755 -1.16358 0
M  V30 5815 H 540.713 2.49246 -0.524273 0
M  V30 5816 H 541.496 2.6448 -2.18873 0
M  V30 5817 N 543.941 0.601185 1.45683 0
M  V30 5818 C 545.218 0.0261659 1.95582 0
M  V30 5819 C 545.598 -1.4399 1.5437 0
M  V30 5820 O 544.946 -2.13919 0.80318 0
M  V30 5821 C 545.156 0.217557 3.48321 0
M  V30 5822 C 546.504 0.0950076 4.24494 0
M  V30 5823 O 547.528 0.147345 3.55895 0
M  V30 5824 O 546.387 -0.025261 5.46494 0
M  V30 5825 H 543.481 -0.0393688 0.826062 0
M  V30 5826 H 546.027 0.670798 1.55879 0
M  V30 5827 H 544.799 1.23601 3.71266 0
M  V30 5828 H 544.422 -0.46264 3.94899 0
M  V30 5829 N 545.419 -1.53889 0.339982 0
M  V30 5830 C 546.349 -2.27843 -0.510856 0
M  V30 5831 C 547.33 -1.29267 -1.10563 0
M  V30 5832 O 548.515 -1.58104 -1.12768 0
M  V30 5833 C 545.645 -3.04857 -1.66372 0
M  V30 5834 C 544.599 -4.10907 -1.19746 0
M  V30 5835 C 543.925 -4.75855 -2.43857 0
M  V30 5836 C 545.225 -5.21435 -0.300501 0
M  V30 5837 H 546.919 -2.99212 0.106067 0
M  V30 5838 H 544.465 -1.43904 0.0524533 0
M  V30 5839 H 546.418 -3.5533 -2.26537 0
M  V30 5840 H 545.142 -2.31133 -2.30749 0
M  V30 5841 H 543.801 -3.61342 -0.618654 0
M  V30 5842 H 543.449 -3.9873 -3.06633 0
M  V30 5843 H 543.149 -5.47502 -2.13343 0
M  V30 5844 H 544.673 -5.2911 -3.04754 0
M  V30 5845 H 546.087 -5.67565 -0.80889 0
M  V30 5846 H 544.484 -6.00036 -0.0874076 0
M  V30 5847 H 545.554 -4.80328 0.664321 0
M  V30 5848 N 546.897 -0.0685191 -1.57451 0
M  V30 5849 C 548.308 0.464634 -1.80826 0
M  V30 5850 C 548.659 1.69847 -0.982169 0
M  V30 5851 O 547.784 2.15439 -0.203734 0
M  V30 5852 C 548.379 0.849721 -3.27971 0
M  V30 5853 C 546.938 1.32776 -3.52204 0
M  V30 5854 C 546.085 0.311332 -2.75547 0
M  V30 5855 H 549.036 -0.294248 -1.55948 0
M  V30 5856 H 549.057 1.71138 -3.39841 0
M  V30 5857 H 548.569 -0.0484736 -3.8807 0
M  V30 5858 H 546.67 2.24456 -2.97406 0
M  V30 5859 H 546.783 1.30794 -4.60901 0
M  V30 5860 H 545.147 0.787915 -2.42206 0
M  V30 5861 H 545.93 -0.579078 -3.38381 0
M  V30 5862 N 548.375 1.56261 0.205012 0
M  V30 5863 C 549.285 1.96944 1.27476 0
M  V30 5864 C 550.301 0.875636 1.50362 0
M  V30 5865 O 551.477 1.18058 1.6317 0
M  V30 5866 C 548.542 2.29219 2.60115 0
M  V30 5867 C 547.603 3.52255 2.45387 0
M  V30 5868 C 546.836 3.8298 3.71701 0
M  V30 5869 O 547.059 3.15138 4.75441 0
M  V30 5870 O 545.993 4.76435 3.67823 0
M  V30 5871 H 549.819 2.88144 0.959527 0
M  V30 5872 H 547.404 1.43686 0.409217 0
M  V30 5873 H 549.286 2.51098 3.3842 0
M  V30 5874 H 547.961 1.4119 2.91285 0
M  V30 5875 H 546.868 3.35635 1.65227 0
M  V30 5876 H 548.201 4.40719 2.19152 0
M  V30 5877 N 549.853 -0.472356 1.50355 0
M  V30 5878 C 551.099 -1.22634 1.6152 0
M  V30 5879 C 551.432 -1.91645 0.313995 0
M  V30 5880 O 550.707 -1.82059 -0.684446 0
M  V30 5881 C 550.99 -2.27099 2.7946 0
M  V30 5882 C 550.843 -1.62402 4.19459 0
M  V30 5883 C 552.162 -3.28421 2.92964 0
M  V30 5884 H 549.281 -0.444494 0.587873 0
M  V30 5885 H 551.923 -0.520321 1.82737 0
M  V30 5886 H 550.073 -2.87314 2.61501 0
M  V30 5887 H 551.745 -1.05793 4.49005 0
M  V30 5888 H 549.988 -0.927184 4.23776 0
M  V30 5889 H 550.659 -2.38309 4.97909 0
M  V30 5890 H 553.135 -2.78227 3.09401 0
M  V30 5891 H 552.011 -3.98845 3.77113 0
M  V30 5892 H 552.272 -3.92467 2.03525 0
M  V30 5893 N 551.331 -1.39911 -0.725443 0
M  V30 5894 C 552.608 -1.28158 -1.47766 0
M  V30 5895 C 552.988 0.104545 -2.10841 0
M  V30 5896 O 552.336 1.11657 -1.99361 0
M  V30 5897 C 552.546 -2.41306 -2.52135 0
M  V30 5898 C 553.894 -2.81076 -3.18247 0
M  V30 5899 O 554.918 -2.40827 -2.62452 0
M  V30 5900 O 553.777 -3.50581 -4.19231 0
M  V30 5901 H 550.871 -0.502761 -0.656628 0
M  V30 5902 H 553.417 -1.51808 -0.758456 0
M  V30 5903 H 552.189 -3.33932 -2.03974 0
M  V30 5904 H 551.812 -2.19374 -3.31603 0
M  V30 5905 N 552.809 0.956637 -1.25245 0
M  V30 5906 C 554.055 1.70352 -1.10036 0
M  V30 5907 C 554.388 1.90869 0.358156 0
M  V30 5908 O 553.663 1.47819 1.26411 0
M  V30 5909 C 553.946 3.08766 -1.85298 0
M  V30 5910 C 553.799 2.95672 -3.38966 0
M  V30 5911 C 555.118 4.08622 -1.63451 0
M  V30 5912 H 552.237 0.618279 -0.401123 0
M  V30 5913 H 554.879 1.11212 -1.54051 0
M  V30 5914 H 553.029 3.59252 -1.47887 0
M  V30 5915 H 554.701 2.52527 -3.86041 0
M  V30 5916 H 552.944 2.31634 -3.6678 0
M  V30 5917 H 553.615 3.93776 -3.86839 0
M  V30 5918 H 556.091 3.67038 -1.96015 0
M  V30 5919 H 554.967 5.03514 -2.18551 0
M  V30 5920 H 555.228 4.3834 -0.575357 0
M  V30 5921 N 554.287 1.06798 1.15896 0
M  V30 5922 C 555.197 0.694564 2.24083 0
M  V30 5923 C 556.213 -0.291687 1.71538 0
M  V30 5924 O 557.389 -0.139723 2.00915 0
M  V30 5925 C 554.454 0.0921014 3.46578 0
M  V30 5926 C 553.515 1.13087 4.14137 0
M  V30 5927 C 552.748 0.557064 5.30785 0
M  V30 5928 O 552.971 -0.628623 5.66925 0
M  V30 5929 O 551.905 1.29924 5.8771 0
M  V30 5930 H 555.731 1.59663 2.58344 0
M  V30 5931 H 553.316 0.840575 1.2351 0
M  V30 5932 H 555.198 -0.241884 4.20705 0
M  V30 5933 H 553.873 -0.78337 3.14078 0
M  V30 5934 H 552.78 1.51712 3.41957 0
M  V30 5935 H 554.113 1.97805 4.50704 0
M  V30 5936 N 555.766 -1.3263 0.851289 0
M  V30 5937 C 556.696 -2.31449 0.308771 0
M  V30 5938 C 557.677 -1.59531 -0.590255 0
M  V30 5939 O 558.862 -1.87351 -0.511205 0
M  V30 5940 C 555.992 -3.43586 -0.506548 0
M  V30 5941 C 554.946 -4.26963 0.297753 0
M  V30 5942 C 554.272 -5.30831 -0.642094 0
M  V30 5943 C 555.572 -4.99643 1.52166 0
M  V30 5944 H 557.266 -2.77074 1.13447 0
M  V30 5945 H 554.812 -1.33207 0.546971 0
M  V30 5946 H 556.765 -4.11754 -0.896474 0
M  V30 5947 H 555.489 -2.96681 -1.36558 0
M  V30 5948 H 554.148 -3.60437 0.669391 0
M  V30 5949 H 553.796 -4.8018 -1.49788 0
M  V30 5950 H 553.496 -5.87501 -0.107968 0
M  V30 5951 H 555.02 -6.01862 -1.02927 0
M  V30 5952 H 556.434 -5.6051 1.20421 0
M  V30 5953 H 554.831 -5.66022 1.99347 0
M  V30 5954 H 555.901 -4.27701 2.28474 0
M  V30 5955 N 557.244 -0.608902 -1.45362 0
M  V30 5956 C 558.655 -0.189511 -1.85736 0
M  V30 5957 C 559.006 1.2539 -1.50903 0
M  V30 5958 O 558.131 1.95094 -0.936347 0
M  V30 5959 C 558.726 -0.33716 -3.37118 0
M  V30 5960 C 557.285 0.0275487 -3.7639 0
M  V30 5961 C 556.432 -0.660983 -2.69307 0
M  V30 5962 H 559.383 -0.815499 -1.36144 0
M  V30 5963 H 559.404 0.430257 -3.7806 0
M  V30 5964 H 558.916 -1.38779 -3.62439 0
M  V30 5965 H 557.017 1.0773 -3.56686 0
M  V30 5966 H 557.13 -0.367018 -4.77692 0
M  V30 5967 H 555.494 -0.0984958 -2.54509 0
M  V30 5968 H 556.277 -1.71377 -2.97464 0
M  V30 5969 N 558.722 1.53707 -0.348139 0
M  V30 5970 C 559.95 2.05406 0.248224 0
M  V30 5971 C 560.365 1.22282 1.43849 0
M  V30 5972 O 559.722 0.259244 1.80649 0
M  V30 5973 C 559.773 3.55446 0.658793 0
M  V30 5974 O 559.494 4.35417 -0.484149 0
M  V30 5975 C 560.995 4.23335 1.31539 0
M  V30 5976 H 558.215 0.669344 0.0471075 0
M  V30 5977 H 560.759 1.98257 -0.501456 0
M  V30 5978 H 558.914 3.62803 1.35841 0
M  V30 5979 H 559.328 5.24268 -0.155949 0
M  V30 5980 H 560.802 5.29692 1.55338 0
M  V30 5981 H 561.279 3.75967 2.27036 0
M  V30 5982 H 561.885 4.20184 0.657683 0
M  V30 5983 N 560.2 0.0768682 1.57412 0
M  V30 5984 C 561.133 -0.924685 2.08626 0
M  V30 5985 C 562.111 -1.28792 0.992542 0
M  V30 5986 O 563.295 -1.39634 1.26628 0
M  V30 5987 C 560.422 -2.23131 2.54814 0
M  V30 5988 C 559.468 -2.01928 3.75669 0
M  V30 5989 S 560.301 -1.27397 5.20125 0
M  V30 5990 C 561.457 -2.59329 5.69648 0
M  V30 5991 H 561.69 -0.488928 2.93252 0
M  V30 5992 H 559.223 -0.136014 1.538 0
M  V30 5993 H 561.181 -2.98226 2.82084 0
M  V30 5994 H 559.842 -2.63831 1.70447 0
M  V30 5995 H 559.035 -2.98639 4.05993 0
M  V30 5996 H 558.637 -1.34967 3.48798 0
M  V30 5997 H 560.929 -3.55394 5.76803 0
M  V30 5998 H 561.872 -2.33608 6.68456 0
M  V30 5999 H 562.28 -2.66767 4.9749 0
M  V30 6000 N 561.678 -1.56367 -0.196722 0
M  V30 6001 C 563.089 -1.70462 -0.761545 0
M  V30 6002 C 563.44 -0.683161 -1.83922 0
M  V30 6003 O 562.565 0.160753 -2.15802 0
M  V30 6004 C 563.16 -3.09057 -1.38814 0
M  V30 6005 C 561.719 -3.24922 -1.90007 0
M  V30 6006 C 560.866 -2.66412 -0.769399 0
M  V30 6007 H 563.817 -1.58675 0.0283263 0
M  V30 6008 H 563.838 -3.06296 -2.2575 0
M  V30 6009 H 563.35 -3.83378 -0.603559 0
M  V30 6010 H 561.451 -2.55514 -2.71189 0
M  V30 6011 H 561.564 -4.3241 -2.06297 0
M  V30 6012 H 559.928 -2.25546 -1.18326 0
M  V30 6013 H 560.711 -3.433 0.00291773 0
M  V30 6014 N 563.156 0.464375 -1.50603 0
M  V30 6015 C 564.103 1.56152 -1.69956 0
M  V30 6016 C 565.073 1.57046 -0.54091 0
M  V30 6017 O 566.258 1.74473 -0.772258 0
M  V30 6018 C 563.398 2.94079 -1.80586 0
M  V30 6019 C 562.511 3.02923 -3.07996 0
M  V30 6020 C 561.646 4.31806 -3.09382 0
M  V30 6021 C 560.685 4.34417 -4.31218 0
M  V30 6022 N 559.822 5.54782 -4.30304 0
M  V30 6023 H 564.662 1.38955 -2.6362 0
M  V30 6024 H 562.199 0.675482 -1.30674 0
M  V30 6025 H 564.157 3.74073 -1.8473 0
M  V30 6026 H 562.787 3.09896 -0.903556 0
M  V30 6027 H 561.839 2.1576 -3.13292 0
M  V30 6028 H 563.151 3.00712 -3.97962 0
M  V30 6029 H 562.305 5.20153 -3.12292 0
M  V30 6030 H 561.044 4.36636 -2.17257 0
M  V30 6031 H 560.049 3.44467 -4.28512 0
M  V30 6032 H 561.274 4.31273 -5.24576 0
M  V30 6033 H 559.22 5.60384 -3.41037 0
M  V30 6034 H 559.137 5.54339 -5.14047 0
M  V30 6035 H 560.405 6.45235 -4.3737 0
M  V30 6036 N 564.634 1.40294 0.718013 0
M  V30 6037 C 565.911 1.2894 1.47084 0
M  V30 6038 C 566.291 -0.0933625 2.10893 0
M  V30 6039 O 565.639 -1.10598 1.99951 0
M  V30 6040 C 565.849 2.4264 2.50852 0
M  V30 6041 C 567.197 2.8276 3.16752 0
M  V30 6042 O 568.221 2.42215 2.61171 0
M  V30 6043 O 567.08 3.528 4.17366 0
M  V30 6044 H 564.174 0.506236 0.653952 0
M  V30 6045 H 566.72 1.52208 0.750394 0
M  V30 6046 H 565.492 3.35009 2.022 0
M  V30 6047 H 565.115 2.21129 3.30435 0
M  V30 6048 N 566.112 -0.949982 1.2575 0
M  V30 6049 C 567.337 -1.73503 1.13628 0
M  V30 6050 C 567.762 -1.85601 -0.30559 0
M  V30 6051 O 567.12 -1.33984 -1.22139 0
M  V30 6052 C 567.168 -3.1243 1.80055 0
M  V30 6053 O 566.272 -3.97916 1.08336 0
M  V30 6054 H 565.613 -0.532665 0.396439 0
M  V30 6055 H 568.143 -1.19043 1.66403 0
M  V30 6056 H 568.153 -3.62866 1.86527 0
M  V30 6057 H 566.828 -3.02941 2.84956 0
M  V30 6058 H 565.405 -3.56375 1.09777 0
M  V30 6059 N 567.59 -1.07411 -1.15328 0
M  V30 6060 C 569.001 -0.820261 -1.67716 0
M  V30 6061 C 569.352 0.654539 -1.8496 0
M  V30 6062 O 568.477 1.50664 -1.55337 0
M  V30 6063 C 569.072 -1.48242 -3.04647 0
M  V30 6064 C 567.631 -1.27606 -3.5411 0
M  V30 6065 C 566.778 -1.5517 -2.29821 0
M  V30 6066 H 569.729 -1.23608 -0.995332 0
M  V30 6067 H 569.75 -0.903984 -3.69606 0
M  V30 6068 H 569.262 -2.55578 -2.92064 0
M  V30 6069 H 567.363 -0.222948 -3.71932 0
M  V30 6070 H 567.476 -1.99667 -4.35511 0
M  V30 6071 H 565.84 -0.972747 -2.35393 0
M  V30 6072 H 566.623 -2.63689 -2.19824 0
M  V30 6073 N 569.068 1.32177 -0.85831 0
M  V30 6074 C 570 2.27688 -0.262835 0
M  V30 6075 C 571.013 1.52588 0.567513 0
M  V30 6076 O 572.202 1.74156 0.391407 0
M  V30 6077 C 569.302 3.32668 0.646937 0
M  V30 6078 C 568.475 4.37148 -0.148372 0
M  V30 6079 C 567.534 5.21686 0.687728 0
M  V30 6080 O 566.56 5.69074 0.119934 0
M  V30 6081 N 567.762 5.44892 2.00182 0
M  V30 6082 H 570.527 2.79426 -1.08356 0
M  V30 6083 H 568.088 1.45076 -0.718647 0
M  V30 6084 H 570.08 3.86134 1.2117 0
M  V30 6085 H 568.65 2.81061 1.36834 0
M  V30 6086 H 567.87 3.83915 -0.894572 0
M  V30 6087 H 569.158 5.04038 -0.694514 0
M  V30 6088 H 568.556 5.08128 2.4864 0
M  V30 6089 H 567.113 6.0134 2.51463 0
M  V30 6090 N 570.547 0.616602 1.45037 0
M  V30 6091 C 571.479 -0.135186 2.28801 0
M  V30 6092 C 572.492 -0.82303 1.40464 0
M  V30 6093 O 573.681 -0.686909 1.64754 0
M  V30 6094 C 570.781 -1.21292 3.16451 0
M  V30 6095 C 569.954 -0.61043 4.3312 0
M  V30 6096 C 569.013 -1.58022 5.01912 0
M  V30 6097 O 568.039 -1.10301 5.58411 0
M  V30 6098 N 569.241 -2.91464 5.02025 0
M  V30 6099 H 572.006 0.583612 2.93963 0
M  V30 6100 H 569.567 0.456723 1.55324 0
M  V30 6101 H 571.559 -1.86169 3.59337 0
M  V30 6102 H 570.129 -1.83412 2.53138 0
M  V30 6103 H 569.349 0.216638 3.93604 0
M  V30 6104 H 570.637 -0.188293 5.08451 0
M  V30 6105 H 570.035 -3.32829 4.57429 0
M  V30 6106 H 568.592 -3.51741 5.48745 0
M  V30 6107 N 572.025 -1.5352 0.356285 0
M  V30 6108 C 572.955 -2.28372 -0.486661 0
M  V30 6109 C 573.936 -1.30432 -1.09185 0
M  V30 6110 O 575.121 -1.59291 -1.11085 0
M  V30 6111 C 572.251 -3.06604 -1.63129 0
M  V30 6112 C 571.205 -4.12154 -1.15381 0
M  V30 6113 C 570.531 -4.78415 -2.38796 0
M  V30 6114 C 571.831 -5.21724 -0.245179 0
M  V30 6115 H 573.525 -2.99083 0.137797 0
M  V30 6116 H 571.071 -1.43841 0.0677134 0
M  V30 6117 H 573.024 -3.57712 -2.22755 0
M  V30 6118 H 571.748 -2.33568 -2.28284 0
M  V30 6119 H 570.407 -3.61978 -0.580294 0
M  V30 6120 H 570.055 -4.01959 -3.02387 0
M  V30 6121 H 569.755 -5.49734 -2.07524 0
M  V30 6122 H 571.279 -5.32313 -2.99125 0
M  V30 6123 H 572.693 -5.68391 -0.748646 0
M  V30 6124 H 571.09 -6.00095 -0.0237608 0
M  V30 6125 H 572.16 -4.79596 0.715229 0
M  V30 6126 N 573.503 -0.0852151 -1.57369 0
M  V30 6127 C 574.413 0.891712 -2.16992 0
M  V30 6128 C 575.429 1.3174 -1.13669 0
M  V30 6129 O 576.605 1.38735 -1.45995 0
M  V30 6130 C 573.67 2.13635 -2.73059 0
M  V30 6131 C 572.731 1.7658 -3.91303 0
M  V30 6132 C 571.964 2.95111 -4.44686 0
M  V30 6133 O 572.187 4.09539 -3.97032 0
M  V30 6134 O 571.121 2.74149 -5.35841 0
M  V30 6135 H 574.947 0.414477 -3.00858 0
M  V30 6136 H 572.532 0.138598 -1.48756 0
M  V30 6137 H 574.414 2.86595 -3.08935 0
M  V30 6138 H 573.089 2.6043 -1.92244 0
M  V30 6139 H 571.996 1.00831 -3.60255 0
M  V30 6140 H 573.329 1.34557 -4.7345 0
M  V30 6141 N 574.981 1.5647 0.188427 0
M  V30 6142 C 575.911 1.98101 1.23606 0
M  V30 6143 C 576.892 0.853961 1.47111 0
M  V30 6144 O 578.077 1.11879 1.58735 0
M  V30 6145 C 575.207 2.32624 2.57882 0
M  V30 6146 C 574.161 3.48129 2.48978 0
M  V30 6147 C 573.487 3.68347 3.87588 0
M  V30 6148 C 574.787 4.82112 2.00911 0
M  V30 6149 H 576.481 2.85864 0.890068 0
M  V30 6150 H 574.027 1.37532 0.426714 0
M  V30 6151 H 575.98 2.60343 3.3136 0
M  V30 6152 H 574.704 1.41751 2.94235 0
M  V30 6153 H 573.363 3.20511 1.77956 0
M  V30 6154 H 573.011 2.74793 4.21305 0
M  V30 6155 H 572.711 4.46055 3.82503 0
M  V30 6156 H 574.235 3.98449 4.62678 0
M  V30 6157 H 575.649 5.08819 2.64151 0
M  V30 6158 H 574.046 5.63337 2.06814 0
M  V30 6159 H 575.116 4.75249 0.96262 0
M  V30 6160 N 576.459 -0.456382 1.50847 0
M  V30 6161 C 577.389 -1.56025 1.73719 0
M  V30 6162 C 578.37 -1.5967 0.586473 0
M  V30 6163 O 579.555 -1.75702 0.827185 0
M  V30 6164 C 576.685 -2.94251 1.84483 0
M  V30 6165 C 575.639 -3.05471 2.99786 0
M  V30 6166 C 574.965 -4.45489 2.95709 0
M  V30 6167 C 576.265 -2.81318 4.40065 0
M  V30 6168 H 577.959 -1.37138 2.66146 0
M  V30 6169 H 575.505 -0.658299 1.28072 0
M  V30 6170 H 577.458 -3.71417 1.99067 0
M  V30 6171 H 576.182 -3.14328 0.886891 0
M  V30 6172 H 574.841 -2.30741 2.84876 0
M  V30 6173 H 574.489 -4.62505 1.97732 0
M  V30 6174 H 574.189 -4.53929 3.73125 0
M  V30 6175 H 575.713 -5.24655 3.12362 0
M  V30 6176 H 577.127 -3.48226 4.55425 0
M  V30 6177 H 575.524 -3.01188 5.19043 0
M  V30 6178 H 576.594 -1.7706 4.51418 0
M  V30 6179 N 577.937 -1.40673 -0.710563 0
M  V30 6180 C 579.162 -1.42741 -1.50465 0
M  V30 6181 C 579.587 -0.0302116 -1.88076 0
M  V30 6182 O 578.945 0.962945 -1.53613 0
M  V30 6183 C 578.993 -2.32873 -2.75322 0
M  V30 6184 O 578.097 -1.77544 -3.72226 0
M  V30 6185 H 577.438 -0.485056 -0.45345 0
M  V30 6186 H 579.968 -1.84961 -0.874681 0
M  V30 6187 H 579.978 -2.48233 -3.23797 0
M  V30 6188 H 578.653 -3.34401 -2.47283 0
M  V30 6189 H 577.23 -1.71556 -3.31093 0
M  V30 6190 N 579.415 0.9433 -1.26252 0
M  V30 6191 C 580.663 1.68592 -1.11451 0
M  V30 6192 C 580.984 1.91957 0.343123 0
M  V30 6193 O 580.254 1.51475 1.24226 0
M  V30 6194 H 578.834 0.624789 -0.409448 0
M  V30 6195 H 581.496 1.13351 -1.58548 0
M  V30 6196 H 580.592 2.66054 -1.63162 0
M  V30 6197 N 580.893 1.08022 1.14757 0
M  V30 6198 C 582.304 0.829144 1.67279 0
M  V30 6199 C 582.655 -0.644721 1.85305 0
M  V30 6200 O 581.78 -1.49838 1.56133 0
M  V30 6201 C 582.375 1.49855 3.03857 0
M  V30 6202 C 580.934 1.29482 3.53428 0
M  V30 6203 C 580.081 1.56386 2.28995 0
M  V30 6204 H 583.032 1.24134 0.988762 0
M  V30 6205 H 583.053 0.923572 3.69121 0
M  V30 6206 H 582.565 2.57123 2.90705 0
M  V30 6207 H 580.666 0.242669 3.71809 0
M  V30 6208 H 580.779 2.01974 4.34446 0
M  V30 6209 H 579.143 0.985217 2.34874 0
M  V30 6210 H 579.926 2.64851 2.18423 0
M  V30 6211 N 582.371 -1.3172 0.865308 0
M  V30 6212 C 583.611 -1.98675 0.480365 0
M  V30 6213 C 583.975 -1.66929 -0.948621 0
M  V30 6214 O 585.176 -2.27059 -1.43867 0
M  V30 6215 C 583.447 -3.49972 0.724858 0
M  V30 6216 S 585.006 -4.36598 0.439078 0
M  V30 6217 H 581.824 -0.687967 0.179506 0
M  V30 6218 H 584.426 -1.60215 1.12033 0
M  V30 6219 H 583.13 -3.70567 1.76375 0
M  V30 6220 H 582.661 -3.93335 0.0717173 0
M  V30 6221 H 584.676 -4.90792 -0.730564 0
M  V30 6222 N 583.85 -0.624285 -1.44708 0
M  V30 6223 C 584.76 0.0861083 -2.34442 0
M  V30 6224 C 585.776 0.84291 -1.5222 0
M  V30 6225 O 586.952 0.796723 -1.84971 0
M  V30 6226 C 584.017 1.05999 -3.30099 0
M  V30 6227 C 583.077 0.303316 -4.28227 0
M  V30 6228 C 582.311 1.23081 -5.19314 0
M  V30 6229 O 582.534 2.46929 -5.14181 0
M  V30 6230 O 581.468 0.71883 -5.97592 0
M  V30 6231 H 585.293 -0.651756 -2.96624 0
M  V30 6232 H 582.879 -0.384493 -1.44368 0
M  V30 6233 H 584.76 1.62046 -3.88997 0
M  V30 6234 H 583.436 1.77859 -2.70459 0
M  V30 6235 H 582.343 -0.300033 -3.72895 0
M  V30 6236 H 583.676 -0.375123 -4.90768 0
M  V30 6237 N 585.328 1.53329 -0.364422 0
M  V30 6238 C 586.744 1.59594 -0.0133165 0
M  V30 6239 C 586.944 1.37959 1.46865 0
M  V30 6240 O 586 1.18418 2.2301 0
M  V30 6241 C 587.313 2.97032 -0.468213 0
M  V30 6242 C 588.861 3.10138 -0.422334 0
M  V30 6243 C 589.336 4.49986 -0.853024 0
M  V30 6244 N 590.827 4.56098 -0.808037 0
M  V30 6245 C 591.562 5.62495 -1.11299 0
M  V30 6246 N 591.058 6.7665 -1.48717 0
M  V30 6247 N 592.851 5.52473 -1.03586 0
M  V30 6248 H 585.002 1.65644 -1.32951 0
M  V30 6249 H 587.265 0.77684 -0.543345 0
M  V30 6250 H 586.971 3.18 -1.5023 0
M  V30 6251 H 586.845 3.76918 0.145775 0
M  V30 6252 H 589.232 2.88881 0.602622 0
M  V30 6253 H 589.313 2.32263 -1.0718 0
M  V30 6254 H 588.957 4.7198 -1.87609 0
M  V30 6255 H 588.887 5.26289 -0.180819 0
M  V30 6256 H 591.378 3.74131 -0.532361 0
M  V30 6257 H 591.691 7.53776 -1.70415 0
M  V30 6258 H 590.036 6.78044 -1.52581 0
M  V30 6259 H 593.227 4.6217 -0.742736 0
M  V30 6260 H 593.4 6.35295 -1.27686 0
M  V30 6261 N 586.806 0.0935595 1.57322 0
M  V30 6262 C 588.222 -0.263091 1.57417 0
M  V30 6263 C 588.422 -1.68526 1.1046 0
M  V30 6264 O 587.478 -2.40139 0.780357 0
M  V30 6265 C 588.791 -0.0529201 3.00653 0
M  V30 6266 C 590.339 -0.120788 3.12767 0
M  V30 6267 C 590.814 0.0613707 4.57959 0
M  V30 6268 N 592.305 0.00648534 4.632 0
M  V30 6269 C 593.04 0.122699 5.73269 0
M  V30 6270 N 592.536 0.29366 6.92177 0
M  V30 6271 N 594.329 0.0640787 5.62063 0
M  V30 6272 H 586.48 1.02277 1.86154 0
M  V30 6273 H 588.743 0.4007 0.859153 0
M  V30 6274 H 588.449 0.929279 3.39201 0
M  V30 6275 H 588.323 -0.795899 3.68708 0
M  V30 6276 H 590.71 -1.09349 2.74093 0
M  V30 6277 H 590.791 0.653656 2.47307 0
M  V30 6278 H 590.435 1.03093 4.97327 0
M  V30 6279 H 590.365 -0.732748 5.21477 0
M  V30 6280 H 592.856 -0.123173 3.77699 0
M  V30 6281 H 593.169 0.37389 7.71895 0
M  V30 6282 H 591.514 0.329307 6.94219 0
M  V30 6283 H 594.705 -0.0683396 4.6805 0
M  V30 6284 H 594.878 0.158097 6.47807 0
M  V30 6285 N 588.284 -1.56567 -0.180126 0
M  V30 6286 C 589.231 -1.95725 -1.22313 0
M  V30 6287 C 590.201 -0.819911 -1.44453 0
M  V30 6288 O 591.386 -1.07931 -1.57339 0
M  V30 6289 C 588.526 -2.31484 -2.55947 0
M  V30 6290 C 587.639 -3.58354 -2.4126 0
M  V30 6291 C 586.774 -3.83366 -3.67701 0
M  V30 6292 C 585.813 -5.03612 -3.47909 0
M  V30 6293 N 584.95 -5.24802 -4.66398 0
M  V30 6294 H 589.79 -2.84642 -0.882198 0
M  V30 6295 H 587.327 -1.4085 -0.42422 0
M  V30 6296 H 589.285 -2.50237 -3.33822 0
M  V30 6297 H 587.915 -1.45689 -2.88053 0
M  V30 6298 H 586.967 -3.47565 -1.54606 0
M  V30 6299 H 588.279 -4.46386 -2.22577 0
M  V30 6300 H 587.433 -4.02439 -4.54013 0
M  V30 6301 H 586.172 -2.93692 -3.89353 0
M  V30 6302 H 585.177 -4.84447 -2.59983 0
M  V30 6303 H 586.402 -5.94809 -3.27688 0
M  V30 6304 H 584.348 -4.38079 -4.88286 0
M  V30 6305 H 584.265 -6.07041 -4.50596 0
M  V30 6306 H 585.533 -5.48346 -5.54019 0
M  V30 6307 N 589.762 0.448376 -1.51087 0
M  V30 6308 C 590.987 1.22605 -1.6728 0
M  V30 6309 C 591.412 1.84524 -0.365045 0
M  V30 6310 O 590.77 1.6832 0.673642 0
M  V30 6311 C 590.818 2.29393 -2.78229 0
M  V30 6312 O 589.922 3.34608 -2.41063 0
M  V30 6313 H 589.263 0.359705 -0.558129 0
M  V30 6314 H 591.793 0.530903 -1.97592 0
M  V30 6315 H 591.803 2.74352 -3.01986 0
M  V30 6316 H 590.478 1.83701 -3.73131 0
M  V30 6317 H 589.055 2.95202 -2.27838 0
M  V30 6318 N 591.24 1.41047 0.703093 0
M  V30 6319 C 592.651 1.35657 1.28274 0
M  V30 6320 C 593.002 0.0360309 1.96167 0
M  V30 6321 O 592.127 -0.865833 1.98324 0
M  V30 6322 C 592.722 2.45707 2.33267 0
M  V30 6323 C 591.281 2.43738 2.86825 0
M  V30 6324 C 590.428 2.25941 1.60767 0
M  V30 6325 H 593.379 1.50672 0.49836 0
M  V30 6326 H 593.4 2.14333 3.14391 0
M  V30 6327 H 592.912 3.41805 1.83824 0
M  V30 6328 H 591.013 1.51375 3.40465 0
M  V30 6329 H 591.126 3.39779 3.37768 0
M  V30 6330 H 589.49 1.73681 1.86298 0
M  V30 6331 H 590.273 3.24054 1.1333 0
M  V30 6332 N 592.718 -0.936591 1.26751 0
M  V30 6333 C 593.648 -2.05315 1.11212 0
M  V30 6334 C 594.629 -1.70092 0.0160262 0
M  V30 6335 O 595.814 -1.93279 0.188894 0
M  V30 6336 C 592.944 -3.39123 0.749171 0
M  V30 6337 C 591.898 -3.88425 1.79751 0
M  V30 6338 C 591.224 -5.18936 1.28876 0
M  V30 6339 C 592.524 -4.12798 3.19992 0
M  V30 6340 H 594.218 -2.18573 2.04613 0
M  V30 6341 H 591.764 -1.05027 0.985159 0
M  V30 6342 H 593.717 -4.16704 0.627323 0
M  V30 6343 H 592.441 -3.25855 -0.220543 0
M  V30 6344 H 591.1 -3.13028 1.90811 0
M  V30 6345 H 590.748 -5.02051 0.308757 0
M  V30 6346 H 590.448 -5.52892 1.98958 0
M  V30 6347 H 591.972 -5.99096 1.17967 0
M  V30 6348 H 593.386 -4.80977 3.11983 0
M  V30 6349 H 591.783 -4.58044 3.87705 0
M  V30 6350 H 592.853 -3.18412 3.65707 0
M  V30 6351 N 594.196 -1.08629 -1.14182 0
M  V30 6352 C 595.128 -0.676189 -2.18998 0
M  V30 6353 C 596.141 0.277871 -1.60411 0
M  V30 6354 O 597.33 0.0651771 -1.78381 0
M  V30 6355 C 594.43 0.0254916 -3.3889 0
M  V30 6356 C 593.603 -0.948039 -4.27002 0
M  V30 6357 C 592.662 -0.281268 -5.25448 0
M  V30 6358 O 591.688 -0.926378 -5.61611 0
M  V30 6359 N 592.89 0.967923 -5.72374 0
M  V30 6360 H 595.655 -1.57792 -2.54798 0
M  V30 6361 H 593.216 -0.972665 -1.29425 0
M  V30 6362 H 595.208 0.482554 -4.01813 0
M  V30 6363 H 593.778 0.829348 -3.01398 0
M  V30 6364 H 592.998 -1.58388 -3.6098 0
M  V30 6365 H 594.286 -1.60765 -4.82734 0
M  V30 6366 H 593.684 1.51175 -5.45126 0
M  V30 6367 H 592.241 1.36844 -6.37273 0
M  V30 6368 N 595.674 1.31259 -0.872281 0
M  V30 6369 C 596.951 1.91362 -0.404943 0
M  V30 6370 C 597.331 1.79362 1.11321 0
M  V30 6371 O 596.679 1.20277 1.94283 0
M  V30 6372 C 596.889 3.3749 -0.888893 0
M  V30 6373 C 598.237 4.14593 -0.916384 0
M  V30 6374 O 599.261 3.46282 -0.834701 0
M  V30 6375 O 598.12 5.3661 -1.03498 0
M  V30 6376 H 595.214 0.818016 -0.121569 0
M  V30 6377 H 597.76 1.39912 -0.960346 0
M  V30 6378 H 596.532 3.40249 -1.93251 0
M  V30 6379 H 596.155 3.96375 -0.311932 0
M  V30 6380 N 597.152 0.631951 1.44375 0
M  V30 6381 C 598.563 0.219036 1.85411 0
M  V30 6382 C 598.914 -1.22974 1.52879 0
M  V30 6383 O 598.039 -1.93579 0.967266 0
M  V30 6384 C 598.634 0.39075 3.36539 0
M  V30 6385 C 597.193 0.0323351 3.76386 0
M  V30 6386 C 596.34 0.703744 2.68221 0
M  V30 6387 H 599.291 0.837056 1.3483 0
M  V30 6388 H 599.312 -0.370056 3.78696 0
M  V30 6389 H 598.824 1.44527 3.60185 0
M  V30 6390 H 596.925 -1.02042 3.58355 0
M  V30 6391 H 597.038 0.442969 4.77048 0
M  V30 6392 H 595.402 0.138974 2.54321 0
M  V30 6393 H 596.185 1.76088 2.947 0
M  V30 6394 N 598.631 -1.53133 0.372548 0
M  V30 6395 C 599.878 -2.01356 -0.214959 0
M  V30 6396 C 600.206 -1.2596 -1.48204 0
M  V30 6397 O 599.461 -0.343511 -1.92662 0
M  V30 6398 C 599.76 -3.53206 -0.545938 0
M  V30 6399 C 599.426 -4.46511 0.627624 0
M  V30 6400 C 598.088 -4.71737 0.949615 0
M  V30 6401 C 600.44 -5.01666 1.41353 0
M  V30 6402 C 597.768 -5.4937 2.05936 0
M  V30 6403 C 600.12 -5.80511 2.51375 0
M  V30 6404 C 598.784 -6.04022 2.84101 0
M  V30 6405 H 598.054 -0.736813 -0.078659 0
M  V30 6406 H 600.701 -1.84682 0.506447 0
M  V30 6407 H 599.006 -3.67864 -1.34845 0
M  V30 6408 H 600.703 -3.87997 -1.01287 0
M  V30 6409 H 597.293 -4.27029 0.366635 0
M  V30 6410 H 601.477 -4.82117 1.17802 0
M  V30 6411 H 596.733 -5.65803 2.31682 0
M  V30 6412 H 600.907 -6.22255 3.12684 0
M  V30 6413 H 598.534 -6.63962 3.70214 0
M  V30 6414 N 600.109 -0.101901 -1.5727 0
M  V30 6415 C 601.52 0.426173 -1.81771 0
M  V30 6416 C 601.871 1.67725 -1.01797 0
M  V30 6417 O 600.996 2.14958 -0.249386 0
M  V30 6418 C 601.591 0.779962 -3.297 0
M  V30 6419 C 600.15 1.25275 -3.54941 0
M  V30 6420 C 599.297 0.252814 -2.76145 0
M  V30 6421 H 602.248 -0.32726 -1.55289 0
M  V30 6422 H 602.269 1.63891 -3.43395 0
M  V30 6423 H 601.781 -0.130778 -3.8788 0
M  V30 6424 H 599.882 2.18097 -3.021 0
M  V30 6425 H 599.995 1.20988 -4.63572 0
M  V30 6426 H 598.359 0.736362 -2.43823 0
M  V30 6427 H 599.142 -0.650724 -3.37076 0
M  V30 6428 N 601.587 1.56661 0.17182 0
M  V30 6429 C 602.497 1.99604 1.2327 0
M  V30 6430 C 603.513 0.907333 1.4847 0
M  V30 6431 O 604.689 1.21492 1.60629 0
M  V30 6432 C 601.754 2.34685 2.55194 0
M  V30 6433 C 600.815 3.57381 2.3786 0
M  V30 6434 C 600.048 3.90779 3.63494 0
M  V30 6435 O 600.271 3.25152 4.6865 0
M  V30 6436 O 599.205 4.84129 3.57634 0
M  V30 6437 H 603.031 2.90114 0.898192 0
M  V30 6438 H 600.616 1.44522 0.378647 0
M  V30 6439 H 602.498 2.5822 3.33017 0
M  V30 6440 H 601.173 1.47336 2.88225 0
M  V30 6441 H 600.08 3.39064 1.5807 0
M  V30 6442 H 601.413 4.45268 2.09754 0
M  V30 6443 N 603.065 -0.440357 1.51323 0
M  V30 6444 C 603.975 -1.55955 1.75258 0
M  V30 6445 C 604.991 -1.61933 0.636687 0
M  V30 6446 O 606.167 -1.79231 0.918593 0
M  V30 6447 C 603.232 -2.9196 1.86977 0
M  V30 6448 C 602.293 -2.96122 3.10822 0
M  V30 6449 C 601.526 -4.2564 3.21973 0
M  V30 6450 O 601.749 -5.17851 2.39137 0
M  V30 6451 O 600.683 -4.36025 4.14929 0
M  V30 6452 H 604.509 -1.38673 2.70191 0
M  V30 6453 H 602.094 -0.623055 1.35788 0
M  V30 6454 H 603.976 -3.72682 1.96688 0
M  V30 6455 H 602.651 -3.09375 0.952307 0
M  V30 6456 H 601.558 -2.14366 3.06591 0
M  V30 6457 H 602.891 -2.83651 4.02247 0
M  V30 6458 N 604.543 -1.41418 -0.695603 0
M  V30 6459 C 605.82 -1.31264 -1.45014 0
M  V30 6460 C 606.2 0.0597994 -2.11015 0
M  V30 6461 O 605.548 1.07403 -2.01685 0
M  V30 6462 C 605.758 -2.466 -2.4696 0
M  V30 6463 C 607.106 -2.87763 -3.12214 0
M  V30 6464 O 608.13 -2.46339 -2.57285 0
M  V30 6465 O 606.989 -3.59395 -4.11701 0
M  V30 6466 H 604.083 -0.516576 -0.645816 0
M  V30 6467 H 606.629 -1.53382 -0.726084 0
M  V30 6468 H 605.401 -3.38183 -1.96845 0
M  V30 6469 H 605.024 -2.26358 -3.26876 0
M  V30 6470 N 606.021 0.929856 -1.27246 0
M  V30 6471 C 607.251 1.70895 -1.16096 0
M  V30 6472 C 607.659 1.87039 0.285122 0
M  V30 6473 O 607.002 1.38557 1.20614 0
M  V30 6474 C 607.064 3.12919 -1.7698 0
M  V30 6475 C 606.728 3.2012 -3.26148 0
M  V30 6476 C 607.725 3.02533 -4.22812 0
M  V30 6477 C 605.41 3.43148 -3.66817 0
M  V30 6478 C 607.404 3.07861 -5.58122 0
M  V30 6479 C 605.091 3.48109 -5.02258 0
M  V30 6480 C 606.089 3.30483 -5.97721 0
M  V30 6481 O 605.777 3.35175 -7.30694 0
M  V30 6482 H 605.509 0.54152 -0.404639 0
M  V30 6483 H 608.063 1.17342 -1.68582 0
M  V30 6484 H 606.293 3.67945 -1.18969 0
M  V30 6485 H 607.982 3.72787 -1.60576 0
M  V30 6486 H 608.748 2.84586 -3.92728 0
M  V30 6487 H 604.627 3.55918 -2.9299 0
M  V30 6488 H 608.171 2.94021 -6.32612 0
M  V30 6489 H 604.068 3.65579 -5.31998 0
M  V30 6490 H 604.836 3.51644 -7.39114 0
M  V30 6491 N 607.499 1.09233 1.13605 0
M  V30 6492 C 608.724 0.849067 1.89224 0
M  V30 6493 C 609.149 -0.593875 1.78479 0
M  V30 6494 O 608.507 -1.41703 1.13092 0
M  V30 6495 C 608.555 1.28642 3.36873 0
M  V30 6496 O 607.659 0.44363 4.10007 0
M  V30 6497 H 607 0.30767 0.588417 0
M  V30 6498 H 609.53 1.45595 1.43748 0
M  V30 6499 H 609.54 1.27096 3.87699 0
M  V30 6500 H 608.215 2.33729 3.44011 0
M  V30 6501 H 606.792 0.523241 3.69211 0
M  V30 6502 N 608.977 -1.30795 0.87923 0
M  V30 6503 C 610.202 -2.01063 0.508769 0
M  V30 6504 C 610.627 -1.65508 -0.893803 0
M  V30 6505 O 609.985 -0.868616 -1.59138 0
M  V30 6506 C 610.033 -3.54054 0.683991 0
M  V30 6507 O 609.137 -4.11498 -0.272654 0
M  V30 6508 H 608.478 -0.632786 0.201191 0
M  V30 6509 H 611.008 -1.66776 1.18519 0
M  V30 6510 H 611.018 -4.03845 0.580798 0
M  V30 6511 H 609.693 -3.79271 1.70665 0
M  V30 6512 H 608.27 -3.72695 -0.12364 0
M  V30 6513 N 610.455 -0.639598 -1.44038 0
M  V30 6514 C 611.683 -0.154811 -2.0632 0
M  V30 6515 C 612.098 1.17406 -1.47856 0
M  V30 6516 O 611.455 1.72193 -0.604638 0
M  V30 6517 C 611.506 -0.0429958 -3.61474 0
M  V30 6518 O 611.227 -1.31932 -4.17763 0
M  V30 6519 C 612.728 0.469486 -4.40807 0
M  V30 6520 H 609.948 -0.0835862 -0.665773 0
M  V30 6521 H 612.492 -0.876397 -1.84769 0
M  V30 6522 H 610.647 0.629075 -3.82258 0
M  V30 6523 H 611.061 -1.16965 -5.11292 0
M  V30 6524 H 612.535 0.496712 -5.49761 0
M  V30 6525 H 613.012 1.49819 -4.12857 0
M  V30 6526 H 613.618 -0.169624 -4.24962 0
M  V30 6527 N 611.933 1.52934 -0.380664 0
M  V30 6528 C 612.843 2.29921 0.466192 0
M  V30 6529 C 613.859 1.36488 1.07922 0
M  V30 6530 O 615.035 1.69553 1.0869 0
M  V30 6531 C 612.1 3.08468 1.58266 0
M  V30 6532 C 611.161 4.17595 0.995627 0
M  V30 6533 C 610.394 4.92387 2.05889 0
M  V30 6534 O 610.617 4.67184 3.27254 0
M  V30 6535 O 609.551 5.77949 1.68102 0
M  V30 6536 H 613.377 3.03274 -0.160735 0
M  V30 6537 H 610.962 1.48698 -0.144617 0
M  V30 6538 H 612.844 3.57469 2.23145 0
M  V30 6539 H 611.519 2.37937 2.19471 0
M  V30 6540 H 610.426 3.72811 0.310332 0
M  V30 6541 H 611.759 4.90336 0.427918 0
M  V30 6542 N 613.412 0.11024 1.57214 0
M  V30 6543 C 614.66 -0.548783 1.94506 0
M  V30 6544 C 614.981 -1.67772 0.99386 0
M  V30 6545 O 614.251 -1.9584 0.0485841 0
M  V30 6546 H 612.831 -0.205715 0.718116 0
M  V30 6547 H 615.493 0.177127 1.94093 0
M  V30 6548 H 614.589 -0.949096 2.97319 0
M  V30 6549 N 614.89 -1.56749 -0.16351 0
M  V30 6550 C 616.115 -1.86938 -0.898264 0
M  V30 6551 C 616.54 -0.697456 -1.74692 0
M  V30 6552 O 615.898 0.353327 -1.77824 0
M  V30 6553 C 615.946 -3.15599 -1.74441 0
M  V30 6554 O 615.05 -2.98371 -2.8469 0
M  V30 6555 H 614.391 -0.614659 -0.251178 0
M  V30 6556 H 616.921 -2.03979 -0.159298 0
M  V30 6557 H 616.931 -3.47202 -2.14277 0
M  V30 6558 H 615.606 -4.00505 -1.1211 0
M  V30 6559 H 614.183 -2.7814 -2.4838 0
M  V30 6560 N 616.368 0.432326 -1.51554 0
M  V30 6561 C 617.616 1.17901 -1.64146 0
M  V30 6562 C 617.937 1.91604 -0.362367 0
M  V30 6563 O 617.207 1.85764 0.621968 0
M  V30 6564 H 615.787 0.438206 -0.604966 0
M  V30 6565 H 618.449 0.495172 -1.88505 0
M  V30 6566 H 617.545 1.90584 -2.47152 0
M  V30 6567 N 617.846 1.41785 0.688094 0
M  V30 6568 C 619.094 1.41264 1.4453 0
M  V30 6569 C 619.415 0.0252946 1.94984 0
M  V30 6570 O 618.685 -0.934081 1.72197 0
M  V30 6571 H 617.265 0.519998 0.536294 0
M  V30 6572 H 619.927 1.7709 0.813941 0
M  V30 6573 H 619.023 2.10439 2.30482 0
M  V30 6574 N 619.324 -0.923095 1.27737 0
M  V30 6575 C 620.74 -1.19985 1.05241 0
M  V30 6576 C 620.94 -2.00391 -0.21113 0
M  V30 6577 O 619.996 -2.35324 -0.915366 0
M  V30 6578 C 621.309 -1.94352 2.29451 0
M  V30 6579 C 622.857 -2.07273 2.34536 0
M  V30 6580 C 623.332 -2.85046 3.58487 0
M  V30 6581 N 624.823 -2.92612 3.59072 0
M  V30 6582 C 625.558 -3.53266 4.51654 0
M  V30 6583 N 625.054 -4.15274 5.54545 0
M  V30 6584 N 626.847 -3.50714 4.39268 0
M  V30 6585 H 618.998 -0.386042 2.08862 0
M  V30 6586 H 621.261 -0.233407 0.918817 0
M  V30 6587 H 620.967 -1.42692 3.21453 0
M  V30 6588 H 620.841 -2.94947 2.3513 0
M  V30 6589 H 623.228 -2.58117 1.43037 0
M  V30 6590 H 623.309 -1.05884 2.32857 0
M  V30 6591 H 622.953 -2.34884 4.50324 0
M  V30 6592 H 622.883 -3.8673 3.57418 0
M  V30 6593 H 625.374 -2.48547 2.84663 0
M  V30 6594 H 625.687 -4.59507 6.21348 0
M  V30 6595 H 624.032 -4.13806 5.58382 0
M  V30 6596 H 627.223 -3.01475 3.58093 0
M  V30 6597 H 627.396 -3.97693 5.1161 0
M  V30 6598 N 620.802 -1.09834 -1.13024 0
M  V30 6599 C 622.051 -0.831806 -1.83749 0
M  V30 6600 C 622.364 0.644763 -1.84668 0
M  V30 6601 O 623.57 1.02697 -2.51327 0
M  V30 6602 C 622.026 -1.43817 -3.29916 0
M  V30 6603 C 621.634 -2.94759 -3.37374 0
M  V30 6604 C 623.378 -1.25077 -4.05655 0
M  V30 6605 C 621.285 -3.48461 -4.77838 0
M  V30 6606 H 620.215 -0.30751 -0.688443 0
M  V30 6607 H 622.866 -1.32156 -1.27307 0
M  V30 6608 H 621.248 -0.876106 -3.86187 0
M  V30 6609 H 622.422 -3.57228 -2.91076 0
M  V30 6610 H 620.737 -3.12581 -2.75103 0
M  V30 6611 H 623.334 -1.62649 -5.09362 0
M  V30 6612 H 623.677 -0.191782 -4.15858 0
M  V30 6613 H 624.21 -1.78057 -3.55725 0
M  V30 6614 H 620.949 -4.53998 -4.72828 0
M  V30 6615 H 620.469 -2.90757 -5.24615 0
M  V30 6616 H 622.148 -3.45914 -5.46766 0
M  V30 6617 N 622.28 1.30327 -0.886154 0
M  V30 6618 C 623.508 2.00254 -0.520176 0
M  V30 6619 C 623.923 1.66419 0.891637 0
M  V30 6620 O 623.28 0.901951 1.58654 0
M  V30 6621 C 623.331 3.54916 -0.686775 0
M  V30 6622 O 623.052 3.87547 -2.04301 0
M  V30 6623 C 624.553 4.42115 -0.323945 0
M  V30 6624 H 621.773 0.640204 -0.200947 0
M  V30 6625 H 624.317 1.66183 -1.19178 0
M  V30 6626 H 622.472 3.8735 -0.0625273 0
M  V30 6627 H 622.886 4.82247 -2.06249 0
M  V30 6628 H 624.36 5.49808 -0.491407 0
M  V30 6629 H 624.837 4.32953 0.73811 0
M  V30 6630 H 625.443 4.15129 -0.924565 0
M  V30 6631 N 623.758 0.647228 1.43697 0
M  V30 6632 C 625.005 0.158188 2.01881 0
M  V30 6633 C 625.333 -1.22573 1.51017 0
M  V30 6634 O 624.588 -1.83086 0.69122 0
M  V30 6635 C 624.887 0.111481 3.57226 0
M  V30 6636 C 624.553 1.43633 4.27411 0
M  V30 6637 C 623.215 1.79915 4.463 0
M  V30 6638 C 625.567 2.31011 4.67208 0
M  V30 6639 C 622.895 3.03251 5.02251 0
M  V30 6640 C 625.247 3.53633 5.24525 0
M  V30 6641 C 623.911 3.90118 5.41631 0
M  V30 6642 H 623.181 0.0578851 0.738736 0
M  V30 6643 H 625.828 0.836746 1.72252 0
M  V30 6644 H 624.133 -0.650507 3.86362 0
M  V30 6645 H 625.83 -0.283682 3.99995 0
M  V30 6646 H 622.42 1.14403 4.1305 0
M  V30 6647 H 626.604 2.04272 4.52313 0
M  V30 6648 H 621.86 3.31575 5.13681 0
M  V30 6649 H 626.034 4.21561 5.5431 0
M  V30 6650 H 623.661 4.85768 5.84751 0
M  V30 6651 N 625.236 -1.5273 0.388769 0
M  V30 6652 C 626.184 -2.27975 -0.461527 0
M  V30 6653 C 627.178 -1.31854 -1.06352 0
M  V30 6654 O 628.384 -1.49394 -1.00406 0
M  V30 6655 H 624.759 -0.733088 -0.16759 0
M  V30 6656 H 626.73 -2.97765 0.194579 0
M  V30 6657 C 625.479 -3.09881 -1.577 0
M  V30 6658 H 624.802 -3.83701 -1.12309 0
M  V30 6659 H 626.242 -3.6567 -2.14619 0
M  V30 6660 C 624.701 -2.22159 -2.53272 0
M  V30 6661 O 625.231 -1.84802 -3.56667 0
M  V30 6662 N 623.437 -1.8633 -2.23001 0
M  V30 6663 H 622.984 -2.16909 -1.38954 0
M  V30 6664 H 622.942 -1.27927 -2.87197 0
M  V30 6665 N 626.714 -0.118576 -1.57153 0
M  V30 6666 C 627.96 0.540326 -1.95469 0
M  V30 6667 C 628.293 1.66356 -1.00196 0
M  V30 6668 O 627.568 1.94461 -0.039104 0
M  V30 6669 C 627.851 1.07342 -3.43729 0
M  V30 6670 C 627.704 -0.0463732 -4.49776 0
M  V30 6671 C 629.023 1.96442 -3.93826 0
M  V30 6672 H 626.142 0.19494 -0.710751 0
M  V30 6673 H 628.784 -0.19405 -1.89006 0
M  V30 6674 H 626.934 1.69925 -3.49368 0
M  V30 6675 H 628.606 -0.681648 -4.56236 0
M  V30 6676 H 626.849 -0.709574 -4.27957 0
M  V30 6677 H 627.52 0.367856 -5.50773 0
M  V30 6678 H 629.996 1.43731 -3.90488 0
M  V30 6679 H 628.872 2.3066 -4.98084 0
M  V30 6680 H 629.133 2.89077 -3.34495 0
M  V30 6681 N 628.193 1.56834 0.155195 0
M  V30 6682 C 629.47 1.73799 0.897395 0
M  V30 6683 C 629.85 0.684379 1.99698 0
M  V30 6684 O 629.198 -0.298111 2.26547 0
M  V30 6685 C 629.408 3.17572 1.44737 0
M  V30 6686 C 630.756 3.79014 1.91399 0
M  V30 6687 O 631.78 3.20951 1.54496 0
M  V30 6688 O 630.639 4.80998 2.59429 0
M  V30 6689 H 627.733 0.710329 0.423511 0
M  V30 6690 H 630.279 1.69107 0.141761 0
M  V30 6691 H 629.051 3.85749 0.656741 0
M  V30 6692 H 628.674 3.26657 2.26674 0
M  V30 6693 N 629.671 -0.424282 1.51781 0
M  V30 6694 C 630.601 -1.52305 1.7699 0
M  V30 6695 C 631.582 -1.5839 0.620209 0
M  V30 6696 O 632.767 -1.73908 0.864268 0
M  V30 6697 C 629.897 -2.90271 1.90683 0
M  V30 6698 C 628.851 -2.99043 3.06198 0
M  V30 6699 C 628.177 -4.39116 3.05092 0
M  V30 6700 C 629.477 -2.7192 4.45934 0
M  V30 6701 H 631.171 -1.31461 2.68995 0
M  V30 6702 H 628.717 -0.630985 1.29439 0
M  V30 6703 H 630.67 -3.6711 2.06901 0
M  V30 6704 H 629.394 -3.12376 0.953365 0
M  V30 6705 H 628.053 -2.24646 2.89706 0
M  V30 6706 H 627.701 -4.58207 2.07498 0
M  V30 6707 H 627.401 -4.45912 3.82669 0
M  V30 6708 H 628.925 -5.17911 3.2342 0
M  V30 6709 H 630.339 -3.38487 4.62709 0
M  V30 6710 H 628.736 -2.90111 5.25315 0
M  V30 6711 H 629.806 -1.67445 4.55072 0
M  V30 6712 N 631.149 -1.42148 -0.680565 0
M  V30 6713 C 632.097 -1.45401 -1.81552 0
M  V30 6714 C 633.091 -0.33036 -1.66147 0
M  V30 6715 O 634.297 -0.503103 -1.72826 0
M  V30 6716 H 630.672 -0.455265 -0.59853 0
M  V30 6717 H 632.643 -2.41024 -1.75926 0
M  V30 6718 C 631.392 -1.36769 -3.19671 0
M  V30 6719 H 630.715 -2.22525 -3.32149 0
M  V30 6720 H 632.155 -1.43106 -3.9912 0
M  V30 6721 C 630.614 -0.0817752 -3.36801 0
M  V30 6722 O 631.144 0.867707 -3.92216 0
M  V30 6723 N 629.35 -0.000799811 -2.906 0
M  V30 6724 H 628.897 -0.774231 -2.4569 0
M  V30 6725 H 628.855 0.858961 -3.02439 0
M  V30 6726 N 632.627 0.916307 -1.28225 0
M  V30 6727 C 633.852 1.7043 -1.18188 0
M  V30 6728 C 634.277 1.86346 0.256274 0
M  V30 6729 O 633.635 1.37175 1.18544 0
M  V30 6730 C 633.683 3.07546 -1.88275 0
M  V30 6731 O 632.787 3.94904 -1.18848 0
M  V30 6732 H 632.128 0.521967 -0.410423 0
M  V30 6733 H 634.658 1.14589 -1.69501 0
M  V30 6734 H 634.668 3.57793 -1.96082 0
M  V30 6735 H 633.343 2.95279 -2.92887 0
M  V30 6736 H 631.92 3.53339 -1.19187 0
M  V30 6737 N 634.105 1.10431 1.1244 0
M  V30 6738 C 635.351 0.847972 1.84221 0
M  V30 6739 C 635.684 -0.624903 1.83871 0
M  V30 6740 O 634.959 -1.46074 1.28423 0
M  V30 6741 C 635.242 1.39695 3.319 0
M  V30 6742 C 635.095 2.93668 3.40704 0
M  V30 6743 C 636.414 1.03924 4.27654 0
M  V30 6744 H 633.533 0.309502 0.668863 0
M  V30 6745 H 636.175 1.36745 1.31912 0
M  V30 6746 H 634.325 0.955095 3.76577 0
M  V30 6747 H 635.997 3.46379 3.04662 0
M  V30 6748 H 634.24 3.30272 2.81252 0
M  V30 6749 H 634.911 3.27162 4.446 0
M  V30 6750 H 637.387 1.42049 3.91102 0
M  V30 6751 H 636.263 1.45027 5.29394 0
M  V30 6752 H 636.524 -0.051336 4.4207 0
M  V30 6753 N 635.583 -1.29855 0.893053 0
M  V30 6754 C 636.83 -1.95826 0.515585 0
M  V30 6755 C 637.158 -1.70451 -0.936842 0
M  V30 6756 O 636.413 -1.00657 -1.67829 0
M  V30 6757 C 636.712 -3.49515 0.746588 0
M  V30 6758 C 636.378 -3.94955 2.17535 0
M  V30 6759 C 635.04 -4.07073 2.56603 0
M  V30 6760 C 637.392 -4.18536 3.10607 0
M  V30 6761 C 634.72 -4.40138 3.87938 0
M  V30 6762 C 637.072 -4.53073 4.41484 0
M  V30 6763 C 635.736 -4.634 4.80434 0
M  V30 6764 H 635.006 -0.71658 0.188666 0
M  V30 6765 H 637.653 -1.54574 1.13045 0
M  V30 6766 H 635.958 -3.9177 0.0487551 0
M  V30 6767 H 637.655 -3.98644 0.434009 0
M  V30 6768 H 634.245 -3.86035 1.86212 0
M  V30 6769 H 638.429 -4.08646 2.81641 0
M  V30 6770 H 633.685 -4.46335 4.17846 0
M  V30 6771 H 637.859 -4.70269 5.13634 0
M  V30 6772 H 635.486 -4.88775 5.82239 0
M  V30 6773 N 637.061 -0.65484 -1.43351 0
M  V30 6774 C 637.991 0.0221809 -2.33489 0
M  V30 6775 C 638.972 0.810272 -1.49561 0
M  V30 6776 O 640.157 0.771426 -1.78221 0
M  V30 6777 C 637.287 0.988117 -3.32947 0
M  V30 6778 C 636.241 0.310026 -4.26876 0
M  V30 6779 C 635.567 1.38752 -5.16384 0
M  V30 6780 C 636.867 -0.798589 -5.16159 0
M  V30 6781 H 638.561 -0.730571 -2.9035 0
M  V30 6782 H 636.107 -0.352773 -1.39612 0
M  V30 6783 H 638.06 1.47067 -3.94904 0
M  V30 6784 H 636.784 1.77205 -2.74346 0
M  V30 6785 H 635.443 -0.152097 -3.66284 0
M  V30 6786 H 635.091 2.16293 -4.54121 0
M  V30 6787 H 634.791 0.939051 -5.80048 0
M  V30 6788 H 636.315 1.87141 -5.81215 0
M  V30 6789 H 637.729 -0.398126 -5.71916 0
M  V30 6790 H 636.126 -1.17163 -5.88552 0
M  V30 6791 H 637.196 -1.65588 -4.55751 0
M  V30 6792 N 638.539 1.52521 -0.396863 0
M  V30 6793 C 639.955 1.5953 -0.0471659 0
M  V30 6794 C 640.155 1.41044 1.43906 0
M  V30 6795 O 639.211 1.23122 2.20448 0
M  V30 6796 C 640.524 2.95972 -0.531113 0
M  V30 6797 C 642.072 3.09172 -0.488024 0
M  V30 6798 C 642.547 4.48075 -0.948281 0
M  V30 6799 N 644.038 4.54281 -0.9046 0
M  V30 6800 C 644.773 5.60007 -1.23205 0
M  V30 6801 N 644.269 6.73343 -1.63036 0
M  V30 6802 N 646.062 5.50151 -1.15282 0
M  V30 6803 H 638.213 1.62786 -1.36435 0
M  V30 6804 H 640.476 0.76514 -0.559701 0
M  V30 6805 H 640.182 3.14741 -1.56942 0
M  V30 6806 H 640.056 3.77143 0.0657922 0
M  V30 6807 H 642.443 2.90095 0.541211 0
M  V30 6808 H 642.524 2.29937 -1.12083 0
M  V30 6809 H 642.168 4.67894 -1.97578 0
M  V30 6810 H 642.098 5.25788 -0.292412 0
M  V30 6811 H 644.589 3.72918 -0.6116 0
M  V30 6812 H 644.902 7.49992 -1.86365 0
M  V30 6813 H 643.247 6.74655 -1.66929 0
M  V30 6814 H 646.438 4.6049 -0.840602 0
M  V30 6815 H 646.611 6.32444 -1.41133 0
M  V30 6816 N 640.017 0.126909 1.57088 0
M  V30 6817 C 641.263 -0.529952 1.95753 0
M  V30 6818 C 641.596 -1.65823 1.01077 0
M  V30 6819 O 640.871 -1.94437 0.0494162 0
M  V30 6820 C 641.154 -1.05517 3.44294 0
M  V30 6821 C 641.007 0.0702253 4.49745 0
M  V30 6822 C 642.326 -1.9435 3.94862 0
M  V30 6823 H 639.445 -0.191168 0.711775 0
M  V30 6824 H 642.087 0.204071 1.88901 0
M  V30 6825 H 640.237 -1.68069 3.50264 0
M  V30 6826 H 641.909 0.705834 4.55868 0
M  V30 6827 H 640.152 0.732259 4.27575 0
M  V30 6828 H 640.823 -0.338642 5.5096 0
M  V30 6829 H 643.299 -1.41658 3.91244 0
M  V30 6830 H 642.175 -2.28015 4.993 0
M  V30 6831 H 642.436 -2.87299 3.36024 0
M  V30 6832 N 641.495 -1.56914 -0.146875 0
M  V30 6833 C 642.425 -2.01308 -1.1831 0
M  V30 6834 C 643.406 -0.892664 -1.44795 0
M  V30 6835 O 644.591 -1.16048 -1.55713 0
M  V30 6836 C 641.721 -2.3938 -2.51624 0
M  V30 6837 C 640.675 -3.54608 -2.3966 0
M  V30 6838 C 640.001 -3.78493 -3.77686 0
M  V30 6839 C 641.301 -4.87269 -1.88058 0
M  V30 6840 H 642.995 -2.88123 -0.813964 0
M  V30 6841 H 640.541 -1.38615 -0.3901 0
M  V30 6842 H 642.494 -2.69037 -3.24341 0
M  V30 6843 H 641.218 -1.49502 -2.90373 0
M  V30 6844 H 639.877 -3.25116 -1.69396 0
M  V30 6845 H 639.525 -2.85866 -4.13871 0
M  V30 6846 H 639.225 -4.56039 -3.70543 0
M  V30 6847 H 640.749 -4.10576 -4.51951 0
M  V30 6848 H 642.163 -5.15644 -2.50568 0
M  V30 6849 H 640.56 -5.68622 -1.91805 0
M  V30 6850 H 641.63 -4.77634 -0.836277 0
M  V30 6851 N 642.974 0.416227 -1.52004 0
M  V30 6852 C 644.251 1.17637 -1.56272 0
M  V30 6853 C 644.631 2.08352 -0.339493 0
M  V30 6854 O 643.979 2.1833 0.674124 0
M  V30 6855 C 644.189 1.95986 -2.88774 0
M  V30 6856 C 645.537 2.52299 -3.41512 0
M  V30 6857 O 646.561 2.06174 -2.90467 0
M  V30 6858 O 645.42 3.3648 -4.30631 0
M  V30 6859 H 642.514 0.536726 -0.629169 0
M  V30 6860 H 645.06 0.423583 -1.64329 0
M  V30 6861 H 643.832 1.29487 -3.69254 0
M  V30 6862 H 643.455 2.78285 -2.83978 0
M  V30 6863 N 644.452 1.42507 0.673017 0
M  V30 6864 C 645.729 1.33554 1.42908 0
M  V30 6865 C 646.109 -0.0262211 2.11084 0
M  V30 6866 O 645.457 -1.04181 2.03368 0
M  V30 6867 C 645.667 2.50498 2.43006 0
M  V30 6868 C 647.015 2.92694 3.07596 0
M  V30 6869 O 648.039 2.50401 2.53333 0
M  V30 6870 O 646.898 3.65899 4.05931 0
M  V30 6871 H 643.992 0.526785 0.637516 0
M  V30 6872 H 646.538 1.54518 0.701591 0
M  V30 6873 H 645.31 3.41272 1.9144 0
M  V30 6874 H 644.933 2.3153 3.23233 0
M  V30 6875 N 645.93 -0.909495 1.28709 0
M  V30 6876 C 646.84 -2.04558 1.14861 0
M  V30 6877 C 647.856 -1.73842 0.0741621 0
M  V30 6878 O 649.032 -1.99383 0.2843 0
M  V30 6879 C 646.097 -3.36957 0.816148 0
M  V30 6880 C 645.158 -3.81255 1.97341 0
M  V30 6881 C 644.391 -5.07335 1.65671 0
M  V30 6882 O 644.614 -5.67514 0.573053 0
M  V30 6883 O 643.548 -5.47449 2.50167 0
M  V30 6884 H 647.374 -2.19161 2.10243 0
M  V30 6885 H 644.959 -1.03159 1.08068 0
M  V30 6886 H 646.841 -4.16436 0.644873 0
M  V30 6887 H 645.516 -3.2352 -0.107983 0
M  V30 6888 H 644.423 -3.02584 2.19986 0
M  V30 6889 H 645.756 -3.99261 2.87839 0
M  V30 6890 N 647.408 -1.11026 -1.11852 0
M  V30 6891 C 648.685 -0.768347 -1.79877 0
M  V30 6892 C 649.065 0.744261 -1.97545 0
M  V30 6893 O 648.413 1.67271 -1.55669 0
M  V30 6894 C 648.623 -1.52648 -3.13846 0
M  V30 6895 C 649.971 -1.70297 -3.88953 0
M  V30 6896 O 650.995 -1.49037 -3.23522 0
M  V30 6897 O 649.854 -2.05593 -5.06353 0
M  V30 6898 H 646.948 -0.277891 -0.778913 0
M  V30 6899 H 649.494 -1.21343 -1.18633 0
M  V30 6900 H 648.266 -2.55564 -2.96315 0
M  V30 6901 H 647.889 -1.07466 -3.82801 0
M  V30 6902 N 648.886 1.2938 -0.899927 0
M  V30 6903 C 650.111 2.00228 -0.540692 0
M  V30 6904 C 650.536 1.66909 0.867359 0
M  V30 6905 O 649.894 0.893824 1.57735 0
M  V30 6906 C 649.942 3.52921 -0.740232 0
M  V30 6907 O 649.046 4.11879 0.207154 0
M  V30 6908 H 648.387 0.629505 -0.211233 0
M  V30 6909 H 650.917 1.6487 -1.21158 0
M  V30 6910 H 650.927 4.0287 -0.644973 0
M  V30 6911 H 649.602 3.76508 -1.76677 0
M  V30 6912 H 648.179 3.72845 0.0643315 0
M  V30 6913 N 650.364 0.662433 1.43002 0
M  V30 6914 C 651.641 0.109096 1.95296 0
M  V30 6915 C 652.021 -1.37313 1.60338 0
M  V30 6916 O 651.369 -2.1032 0.893187 0
M  V30 6917 C 651.579 0.365096 3.47085 0
M  V30 6918 C 652.927 0.274964 4.23709 0
M  V30 6919 O 653.951 0.29816 3.5495 0
M  V30 6920 O 652.81 0.206549 5.4611 0
M  V30 6921 H 649.904 -0.00429724 0.826989 0
M  V30 6922 H 652.45 0.736308 1.52894 0
M  V30 6923 H 651.222 1.39237 3.65689 0
M  V30 6924 H 650.845 -0.294733 3.96506 0
M  V30 6925 N 651.842 -1.52309 0.404946 0
M  V30 6926 C 653.119 -1.94237 -0.230544 0
M  V30 6927 C 653.499 -1.34154 -1.6299 0
M  V30 6928 O 652.847 -0.515713 -2.22604 0
M  V30 6929 C 653.057 -3.48166 -0.241106 0
M  V30 6930 C 654.405 -4.22074 -0.462488 0
M  V30 6931 O 655.429 -3.54754 -0.320644 0
M  V30 6932 O 654.288 -5.41443 -0.741708 0
M  V30 6933 H 651.382 -0.813766 -0.147358 0
M  V30 6934 H 653.928 -1.6333 0.460587 0
M  V30 6935 H 652.7 -3.84269 0.738467 0
M  V30 6936 H 652.323 -3.85422 -0.97651 0
M  V30 6937 N 653.32 -0.135238 -1.57019 0
M  V30 6938 C 654.25 0.805235 -2.19176 0
M  V30 6939 C 655.231 1.2656 -1.13651 0
M  V30 6940 O 656.416 1.32528 -1.4195 0
M  V30 6941 C 653.546 2.04914 -2.80406 0
M  V30 6942 C 652.5 1.72598 -3.91655 0
M  V30 6943 C 651.826 3.04154 -4.39766 0
M  V30 6944 C 653.126 0.981709 -5.12991 0
M  V30 6945 H 654.82 0.287232 -2.98019 0
M  V30 6946 H 652.366 0.136714 -1.4335 0
M  V30 6947 H 654.319 2.71178 -3.22553 0
M  V30 6948 H 653.043 2.59067 -1.98877 0
M  V30 6949 H 651.702 1.08717 -3.50109 0
M  V30 6950 H 651.35 3.56274 -3.55075 0
M  V30 6951 H 651.05 2.83299 -5.14796 0
M  V30 6952 H 652.574 3.71509 -4.84576 0
M  V30 6953 H 653.988 1.5462 -5.52056 0
M  V30 6954 H 652.385 0.873533 -5.93708 0
M  V30 6955 H 653.455 -0.0286887 -4.84892 0
M  V30 6956 N 654.798 1.5699 0.138552 0
M  V30 6957 C 655.708 2.02174 1.19008 0
M  V30 6958 C 656.724 0.938622 1.46512 0
M  V30 6959 O 657.9 1.24872 1.58016 0
M  V30 6960 C 654.965 2.40045 2.50159 0
M  V30 6961 C 654.026 3.62346 2.30226 0
M  V30 6962 C 653.259 3.98401 3.55123 0
M  V30 6963 O 653.482 3.35019 4.61647 0
M  V30 6964 O 652.416 4.91606 3.47285 0
M  V30 6965 H 656.242 2.91954 0.836452 0
M  V30 6966 H 653.827 1.45293 0.347907 0
M  V30 6967 H 655.709 2.65225 3.27465 0
M  V30 6968 H 654.384 1.53417 2.85035 0
M  V30 6969 H 653.291 3.42341 1.50843 0
M  V30 6970 H 654.624 4.49617 2.00262 0
M  V30 6971 N 656.276 -0.40816 1.52223 0
M  V30 6972 C 657.239 -1.48 1.7501 0
M  V30 6973 C 658.239 -1.48367 0.619996 0
M  V30 6974 O 659.429 -1.49874 0.887881 0
M  V30 6975 C 656.561 -2.87403 1.83336 0
M  V30 6976 H 657.754 -1.29086 2.70697 0
M  V30 6977 H 655.307 -0.638715 1.42654 0
M  V30 6978 H 656.042 -3.11686 0.895677 0
M  V30 6979 H 655.827 -2.8854 2.65494 0
M  V30 6980 H 657.317 -3.65103 2.02705 0
M  V30 6981 N 657.755 -1.42862 -0.66545 0
M  V30 6982 C 659.166 -1.3901 -1.24632 0
M  V30 6983 C 659.517 -0.0880285 -1.96002 0
M  V30 6984 O 658.642 0.812947 -2.0055 0
M  V30 6985 C 659.237 -2.51806 -2.2667 0
M  V30 6986 C 657.796 -2.51257 -2.80262 0
M  V30 6987 C 656.943 -2.30124 -1.5472 0
M  V30 6988 H 659.894 -1.5194 -0.458237 0
M  V30 6989 H 659.915 -2.22593 -3.08598 0
M  V30 6990 H 659.427 -3.46558 -1.74697 0
M  V30 6991 H 657.528 -1.60349 -3.36332 0
M  V30 6992 H 657.641 -3.48614 -3.28641 0
M  V30 6993 H 656.005 -1.7856 -1.81627 0
M  V30 6994 H 656.788 -3.26945 -1.04699 0
M  V30 6995 N 659.233 0.902656 -1.29189 0
M  V30 6996 C 660.163 2.02294 -1.16616 0
M  V30 6997 C 661.144 1.6999 -0.0611175 0
M  V30 6998 O 662.329 1.9271 -0.240072 0
M  V30 6999 C 659.459 3.37018 -0.83882 0
M  V30 7000 C 658.413 3.83522 -1.89986 0
M  V30 7001 C 657.739 5.15337 -1.42589 0
M  V30 7002 C 659.039 4.04169 -3.30824 0
M  V30 7003 H 660.733 2.13071 -2.10336 0
M  V30 7004 H 658.279 1.02378 -1.01266 0
M  V30 7005 H 660.232 4.14895 -0.737584 0
M  V30 7006 H 658.956 3.26325 0.134071 0
M  V30 7007 H 657.615 3.07859 -1.99043 0
M  V30 7008 H 657.263 5.01056 -0.441759 0
M  V30 7009 H 656.963 5.47423 -2.13547 0
M  V30 7010 H 658.487 5.95758 -1.3381 0
M  V30 7011 H 659.901 4.72537 -3.24626 0
M  V30 7012 H 658.298 4.47604 -3.99713 0
M  V30 7013 H 659.368 3.08604 -3.74021 0
M  V30 7014 N 660.711 1.11618 1.11262 0
M  V30 7015 C 661.644 0.719995 2.16544 0
M  V30 7016 C 662.622 -0.28471 1.60088 0
M  V30 7017 O 663.806 -0.180693 1.87632 0
M  V30 7018 C 660.933 0.0643302 3.38639 0
M  V30 7019 C 659.979 1.03448 4.13764 0
M  V30 7020 S 660.812 2.55789 4.70459 0
M  V30 7021 C 661.968 1.91529 5.95875 0
M  V30 7022 H 662.201 1.61181 2.49816 0
M  V30 7023 H 659.734 0.934401 1.22916 0
M  V30 7024 H 661.692 -0.307609 4.09346 0
M  V30 7025 H 660.353 -0.804471 3.03623 0
M  V30 7026 H 659.546 0.523188 5.01277 0
M  V30 7027 H 659.148 1.34893 3.48826 0
M  V30 7028 H 661.44 1.25286 6.65815 0
M  V30 7029 H 662.383 2.77047 6.51652 0
M  V30 7030 H 662.791 1.37468 5.47506 0
M  V30 7031 N 662.189 -1.289 0.906776 0
M  V30 7032 C 663.119 -2.29932 0.406659 0
M  V30 7033 C 664.1 -1.6189 -0.522061 0
M  V30 7034 O 665.285 -1.8935 -0.431283 0
M  V30 7035 C 662.415 -3.45425 -0.360366 0
M  V30 7036 C 661.369 -4.25316 0.478574 0
M  V30 7037 C 660.695 -5.33076 -0.416373 0
M  V30 7038 C 661.995 -4.92739 1.7322 0
M  V30 7039 H 663.689 -2.72013 1.25097 0
M  V30 7040 H 661.235 -1.30768 0.602977 0
M  V30 7041 H 663.188 -4.15186 -0.721029 0
M  V30 7042 H 661.912 -3.02206 -1.23852 0
M  V30 7043 H 660.571 -3.57273 0.821662 0
M  V30 7044 H 660.219 -4.86101 -1.29287 0
M  V30 7045 H 659.919 -5.8743 0.141309 0
M  V30 7046 H 661.443 -6.05686 -0.773072 0
M  V30 7047 H 662.857 -5.54898 1.44086 0
M  V30 7048 H 661.254 -5.57057 2.23175 0
M  V30 7049 H 662.324 -4.17625 2.46408 0
M  V30 7050 N 663.667 -0.670007 -1.42649 0
M  V30 7051 C 664.892 -0.196955 -2.06463 0
M  V30 7052 C 665.317 1.1352 -1.49983 0
M  V30 7053 O 664.675 1.705 -0.616397 0
M  V30 7054 C 664.723 -0.137381 -3.60338 0
M  V30 7055 O 663.827 0.895523 -4.02559 0
M  V30 7056 H 663.168 -0.102579 -0.656029 0
M  V30 7057 H 665.698 -0.917669 -1.82866 0
M  V30 7058 H 665.708 0.0403625 -4.0798 0
M  V30 7059 H 664.383 -1.10977 -4.0082 0
M  V30 7060 H 662.96 0.689209 -3.66476 0
M  V30 7061 N 665.145 1.52092 -0.413018 0
M  V30 7062 C 666.37 2.06756 0.163338 0
M  V30 7063 C 666.795 1.28073 1.37764 0
M  V30 7064 O 666.153 0.312015 1.78595 0
M  V30 7065 C 666.201 3.57278 0.488322 0
M  V30 7066 O 665.305 3.80986 1.57871 0
M  V30 7067 H 664.646 0.663882 0.0125068 0
M  V30 7068 H 667.176 1.95988 -0.587339 0
M  V30 7069 H 667.186 4.01125 0.745836 0
M  V30 7070 H 665.861 4.13978 -0.399327 0
M  V30 7071 H 664.438 3.49017 1.31306 0
M  V30 7072 N 666.623 0.143563 1.56945 0
M  V30 7073 C 667.573 -0.809115 2.1316 0
M  V30 7074 C 668.557 -1.21176 1.05855 0
M  V30 7075 O 669.749 -1.17875 1.3204 0
M  V30 7076 C 666.878 -2.04957 2.75405 0
M  V30 7077 C 665.964 -1.67018 3.89828 0
M  V30 7078 N 666.355 -0.998822 4.9584 0
M  V30 7079 C 664.653 -1.96313 4.00471 0
M  V30 7080 C 665.354 -0.816217 5.75945 0
M  V30 7081 N 664.33 -1.349 5.26596 0
M  V30 7082 H 668.132 -0.286919 2.92496 0
M  V30 7083 H 665.646 -0.0580948 1.62296 0
M  V30 7084 H 667.643 -2.74201 3.14037 0
M  V30 7085 H 666.303 -2.57697 1.97541 0
M  V30 7086 H 667.314 -0.659975 5.13678 0
M  V30 7087 H 663.991 -2.50927 3.33679 0
M  V30 7088 H 665.381 -0.287353 6.71285 0
M  V30 7089 N 668.101 -1.57061 -0.130224 0
M  V30 7090 C 669.031 -2.02552 -1.16168 0
M  V30 7091 C 670.012 -0.907971 -1.4384 0
M  V30 7092 O 671.197 -1.17693 -1.54473 0
M  V30 7093 C 668.327 -2.42035 -2.49071 0
M  V30 7094 C 667.281 -3.5713 -2.35886 0
M  V30 7095 C 666.607 -3.82478 -3.7365 0
M  V30 7096 C 667.907 -4.89236 -1.8288 0
M  V30 7097 H 669.601 -2.8897 -0.783359 0
M  V30 7098 H 667.147 -1.39021 -0.375376 0
M  V30 7099 H 669.1 -2.72462 -3.21469 0
M  V30 7100 H 667.824 -1.52573 -2.88771 0
M  V30 7101 H 666.483 -3.26895 -1.65938 0
M  V30 7102 H 666.131 -2.9024 -4.10816 0
M  V30 7103 H 665.831 -4.59944 -3.65685 0
M  V30 7104 H 667.355 -4.15347 -4.47571 0
M  V30 7105 H 668.769 -5.18272 -2.45085 0
M  V30 7106 H 667.166 -5.70624 -1.85763 0
M  V30 7107 H 668.236 -4.78494 -0.785571 0
M  V30 7108 N 669.579 0.400081 -1.52437 0
M  V30 7109 C 670.489 1.51253 -1.79331 0
M  V30 7110 C 671.505 1.60188 -0.679396 0
M  V30 7111 O 672.681 1.76733 -0.965791 0
M  V30 7112 C 669.746 2.869 -1.94652 0
M  V30 7113 C 668.807 2.87777 -3.18564 0
M  V30 7114 C 668.04 4.16954 -3.33145 0
M  V30 7115 O 668.263 5.11329 -2.52783 0
M  V30 7116 O 667.197 4.2487 -4.26343 0
M  V30 7117 H 671.023 1.31461 -2.73773 0
M  V30 7118 H 668.608 0.586834 -1.37392 0
M  V30 7119 H 670.49 3.67336 -2.065 0
M  V30 7120 H 669.165 3.06741 -1.034 0
M  V30 7121 H 668.072 2.06162 -3.12167 0
M  V30 7122 H 669.405 2.72886 -4.09627 0
M  V30 7123 N 671.057 1.43213 0.657864 0
M  V30 7124 C 671.967 1.50448 1.80007 0
M  V30 7125 C 672.983 0.39191 1.69529 0
M  V30 7126 O 674.159 0.645349 1.90781 0
M  V30 7127 C 671.224 1.42062 3.16258 0
M  V30 7128 C 670.285 2.63951 3.38568 0
M  V30 7129 C 669.518 2.55956 4.68318 0
M  V30 7130 O 669.741 1.60473 5.47361 0
M  V30 7131 O 668.675 3.46378 4.92245 0
M  V30 7132 H 672.501 2.4689 1.76858 0
M  V30 7133 H 670.086 1.25163 0.81576 0
M  V30 7134 H 671.968 1.3981 3.97531 0
M  V30 7135 H 670.643 0.487524 3.20008 0
M  V30 7136 H 669.55 2.71776 2.57077 0
M  V30 7137 H 670.883 3.56217 3.39662 0
M  V30 7138 N 672.536 -0.895792 1.29666 0
M  V30 7139 C 673.469 -2.00238 1.09453 0
M  V30 7140 C 674.447 -1.62599 0.00527044 0
M  V30 7141 O 675.631 -1.87847 0.156729 0
M  V30 7142 C 672.758 -3.32066 0.667054 0
M  V30 7143 C 671.804 -3.88691 1.7556 0
M  V30 7144 S 672.637 -4.17317 3.35569 0
M  V30 7145 C 673.793 -5.52181 2.94698 0
M  V30 7146 H 674.026 -2.17076 2.03138 0
M  V30 7147 H 671.559 -1.04287 1.13858 0
M  V30 7148 H 673.517 -4.08272 0.427136 0
M  V30 7149 H 672.178 -3.13101 -0.250256 0
M  V30 7150 H 671.371 -4.83918 1.40853 0
M  V30 7151 H 670.973 -3.19187 1.94924 0
M  V30 7152 H 673.265 -6.3281 2.41986 0
M  V30 7153 H 674.208 -5.91817 3.88791 0
M  V30 7154 H 674.616 -5.14225 2.32879 0
M  V30 7155 N 674.014 -1.12206 -1.10668 0
M  V30 7156 C 675.26 -0.877172 -1.82848 0
M  V30 7157 C 675.593 0.595571 -1.84842 0
M  V30 7158 O 674.868 1.44013 -1.30731 0
M  V30 7159 C 675.151 -1.44957 -3.29635 0
M  V30 7160 C 675.004 -2.99051 -3.35989 0
M  V30 7161 C 676.323 -1.10714 -4.25946 0
M  V30 7162 H 673.442 -0.320103 -0.663854 0
M  V30 7163 H 676.084 -1.38827 -1.2972 0
M  V30 7164 H 674.234 -1.01488 -3.7501 0
M  V30 7165 H 675.906 -3.51182 -2.99113 0
M  V30 7166 H 674.149 -3.34705 -2.75962 0
M  V30 7167 H 674.82 -3.34194 -4.39339 0
M  V30 7168 H 677.296 -1.48254 -3.88793 0
M  V30 7169 H 676.172 -1.5343 -5.2702 0
M  V30 7170 H 676.433 -0.019 -4.42096 0
M  V30 7171 N 675.492 1.28418 -0.913599 0
M  V30 7172 C 676.769 1.89977 -0.465619 0
M  V30 7173 C 677.149 1.82813 1.05559 0
M  V30 7174 O 676.497 1.26397 1.90358 0
M  V30 7175 C 676.707 3.34492 -0.995813 0
M  V30 7176 C 678.055 4.11468 -1.04782 0
M  V30 7177 O 679.079 3.43451 -0.944445 0
M  V30 7178 O 677.938 5.33046 -1.20518 0
M  V30 7179 H 675.032 0.813734 -0.147532 0
M  V30 7180 H 677.578 1.36786 -1.00437 0
M  V30 7181 H 676.35 3.33929 -2.03978 0
M  V30 7182 H 675.973 3.95181 -0.437878 0
M  V30 7183 N 676.97 0.677563 1.42291 0
M  V30 7184 C 678.381 0.277912 1.8462 0
M  V30 7185 C 678.732 -1.18048 1.56714 0
M  V30 7186 O 677.857 -1.90404 1.02836 0
M  V30 7187 C 678.452 0.497619 3.35126 0
M  V30 7188 C 677.011 0.152063 3.76093 0
M  V30 7189 C 676.158 0.78872 2.65847 0
M  V30 7190 H 679.109 0.879527 1.32098 0
M  V30 7191 H 679.13 -0.24939 3.79682 0
M  V30 7192 H 678.642 1.55913 3.55405 0
M  V30 7193 H 676.743 -0.905896 3.6142 0
M  V30 7194 H 676.856 0.594514 4.75397 0
M  V30 7195 H 675.22 0.219813 2.5375 0
M  V30 7196 H 676.003 1.85374 2.88949 0
M  V30 7197 N 678.448 -1.51871 0.421078 0
M  V30 7198 C 679.358 -2.31077 -0.405069 0
M  V30 7199 C 680.374 -1.39301 -1.04265 0
M  V30 7200 O 681.55 -1.72376 -1.04157 0
M  V30 7201 C 678.615 -3.12556 -1.50032 0
M  V30 7202 C 677.676 -4.20088 -0.884559 0
M  V30 7203 C 676.909 -4.97673 -1.92762 0
M  V30 7204 O 677.132 -4.75696 -3.14753 0
M  V30 7205 O 676.066 -5.82203 -1.52719 0
M  V30 7206 H 679.892 -3.02742 0.241086 0
M  V30 7207 H 677.477 -1.48263 0.183991 0
M  V30 7208 H 679.359 -3.6326 -2.13589 0
M  V30 7209 H 678.034 -2.43672 -2.13086 0
M  V30 7210 H 676.941 -3.73502 -0.211379 0
M  V30 7211 H 678.274 -4.91298 -0.297763 0
M  V30 7212 N 679.926 -0.151884 -1.56866 0
M  V30 7213 C 681.203 0.543328 -1.87902 0
M  V30 7214 C 681.583 1.82636 -1.05864 0
M  V30 7215 O 680.931 2.28028 -0.146868 0
M  V30 7216 C 681.141 0.804056 -3.39611 0
M  V30 7217 C 682.489 1.14267 -4.08935 0
M  V30 7218 O 683.513 0.893248 -3.44818 0
M  V30 7219 O 682.372 1.61229 -5.22176 0
M  V30 7220 H 679.466 0.277724 -0.778973 0
M  V30 7221 H 682.012 -0.188862 -1.68646 0
M  V30 7222 H 680.784 -0.103772 -3.91162 0
M  V30 7223 H 680.407 1.59025 -3.64413 0
M  V30 7224 N 681.404 1.57128 0.121893 0
M  V30 7225 C 682.815 1.73902 0.679348 0
M  V30 7226 C 683.166 0.770135 1.80453 0
M  V30 7227 O 682.291 -0.0576083 2.16323 0
M  V30 7228 C 682.886 3.15328 1.2391 0
M  V30 7229 C 681.445 3.33618 1.74288 0
M  V30 7230 C 680.592 2.6978 0.641414 0
M  V30 7231 H 683.543 1.58359 -0.104 0
M  V30 7232 H 683.564 3.16718 2.10879 0
M  V30 7233 H 683.076 3.85821 0.419957 0
M  V30 7234 H 681.177 2.68162 2.58689 0
M  V30 7235 H 681.29 4.4176 1.85432 0
M  V30 7236 H 679.654 2.30935 1.0743 0
M  V30 7237 H 680.437 3.42895 -0.166707 0
M  V30 7238 N 682.882 -0.391992 1.52647 0
M  V30 7239 C 684.159 -1.15136 1.58123 0
M  V30 7240 C 684.539 -2.07786 0.372597 0
M  V30 7241 O 683.887 -2.19374 -0.639304 0
M  V30 7242 C 684.097 -1.91367 2.91856 0
M  V30 7243 C 685.445 -2.46833 3.45483 0
M  V30 7244 O 686.469 -2.01527 2.9371 0
M  V30 7245 O 685.328 -3.29587 4.3593 0
M  V30 7246 H 682.422 -0.526649 0.637629 0
M  V30 7247 H 684.968 -0.397386 1.64982 0
M  V30 7248 H 683.74 -1.23597 3.71268 0
M  V30 7249 H 683.363 -2.73732 2.88369 0
M  V30 7250 N 684.36 -1.4356 -0.65026 0
M  V30 7251 C 685.308 -1.49219 -1.78427 0
M  V30 7252 C 686.302 -0.365528 -1.65409 0
M  V30 7253 O 687.508 -0.539649 -1.7172 0
M  V30 7254 H 683.883 -0.467858 -0.588738 0
M  V30 7255 H 685.854 -2.44701 -1.70774 0
M  V30 7256 C 684.603 -1.43519 -3.16698 0
M  V30 7257 H 683.926 -2.2952 -3.27354 0
M  V30 7258 H 685.366 -1.5154 -3.95995 0
M  V30 7259 C 683.825 -0.153197 -3.36552 0
M  V30 7260 O 684.355 0.784317 -3.93969 0
M  V30 7261 N 682.561 -0.0624402 -2.90533 0
M  V30 7262 H 682.108 -0.826172 -2.43992 0
M  V30 7263 H 682.066 0.794616 -3.04193 0
M  V30 7264 N 685.838 0.888903 -1.30139 0
M  V30 7265 C 687.084 1.6428 -1.18912 0
M  V30 7266 C 687.417 1.92499 0.256477 0
M  V30 7267 O 686.692 1.54312 1.18397 0
M  V30 7268 C 686.975 2.9851 -2.01405 0
M  V30 7269 C 686.828 2.77288 -3.54163 0
M  V30 7270 C 688.147 3.99383 -1.84882 0
M  V30 7271 H 685.266 0.596148 -0.433333 0
M  V30 7272 H 687.908 1.0289 -1.5973 0
M  V30 7273 H 686.058 3.50907 -1.66722 0
M  V30 7274 H 687.73 2.31709 -3.98884 0
M  V30 7275 H 685.973 2.11867 -3.78543 0
M  V30 7276 H 686.644 3.72717 -4.07168 0
M  V30 7277 H 689.12 3.56132 -2.15196 0
M  V30 7278 H 687.996 4.91222 -2.44934 0
M  V30 7279 H 688.257 4.34674 -0.806902 0
M  V30 7280 N 687.317 1.12792 1.10072 0
M  V30 7281 C 688.249 0.757003 2.16338 0
M  V30 7282 C 689.262 -0.218144 1.61332 0
M  V30 7283 O 690.451 0.0010727 1.785 0
M  V30 7284 C 687.551 0.100303 3.38752 0
M  V30 7285 C 686.724 1.10586 4.2319 0
M  V30 7286 C 685.783 0.47609 5.24042 0
M  V30 7287 O 684.809 1.13418 5.57786 0
M  V30 7288 N 686.011 -0.754823 5.75572 0
M  V30 7289 H 688.776 1.6714 2.48766 0
M  V30 7290 H 686.337 1.02003 1.25726 0
M  V30 7291 H 688.329 -0.333092 4.03327 0
M  V30 7292 H 686.899 -0.716915 3.04268 0
M  V30 7293 H 686.119 1.71677 3.54853 0
M  V30 7294 H 687.407 1.78571 4.76435 0
M  V30 7295 H 686.805 -1.30838 5.50362 0
M  V30 7296 H 685.362 -1.13098 6.41913 0
M  V30 7297 N 688.795 -1.27931 0.920396 0
M  V30 7298 C 690.02 -1.99343 0.572478 0
M  V30 7299 C 690.445 -1.68267 -0.840696 0
M  V30 7300 O 689.803 -0.918805 -1.56294 0
M  V30 7301 C 689.851 -3.51698 0.796284 0
M  V30 7302 O 688.955 -4.12157 -0.141602 0
M  V30 7303 H 688.296 -0.626065 0.221221 0
M  V30 7304 H 690.826 -1.62921 1.23765 0
M  V30 7305 H 690.836 -4.01793 0.708984 0
M  V30 7306 H 689.511 -3.73649 1.82644 0
M  V30 7307 H 688.088 -3.729 -0.005007 0
M  V30 7308 N 690.273 -0.685099 -1.4193 0
M  V30 7309 C 691.221 -0.00165985 -2.326 0
M  V30 7310 C 692.215 0.779678 -1.50391 0
M  V30 7311 O 693.421 0.68648 -1.66395 0
M  V30 7312 H 689.796 0.0182616 -0.751778 0
M  V30 7313 H 691.767 -0.783592 -2.87928 0
M  V30 7314 C 690.516 0.928385 -3.35077 0
M  V30 7315 H 689.839 0.336578 -3.98381 0
M  V30 7316 H 691.279 1.37509 -4.01083 0
M  V30 7317 C 689.738 2.03964 -2.68142 0
M  V30 7318 O 690.268 3.12727 -2.5212 0
M  V30 7319 N 688.474 1.81433 -2.27003 0
M  V30 7320 H 688.021 0.929807 -2.40234 0
M  V30 7321 H 687.979 2.55973 -1.82552 0
M  V30 7322 N 691.751 1.51645 -0.429126 0
M  V30 7323 C 692.701 2.24388 0.404217 0
M  V30 7324 C 693.685 1.26294 0.996933 0
M  V30 7325 O 694.877 1.51428 0.916434 0
M  V30 7326 C 692.006 3.08338 1.50938 0
M  V30 7327 C 691.092 4.13857 0.926464 0
M  V30 7328 N 691.483 5.05749 0.0719732 0
M  V30 7329 C 689.781 4.29695 1.19491 0
M  V30 7330 C 690.482 5.81143 -0.254528 0
M  V30 7331 N 689.458 5.42408 0.359763 0
M  V30 7332 H 693.26 2.92794 -0.254697 0
M  V30 7333 H 690.774 1.60606 -0.240712 0
M  V30 7334 H 692.771 3.59022 2.11918 0
M  V30 7335 H 691.431 2.41475 2.17072 0
M  V30 7336 H 692.442 5.17066 -0.293854 0
M  V30 7337 H 689.119 3.74059 1.85434 0
M  V30 7338 H 690.509 6.65159 -0.949365 0
M  V30 7339 N 693.229 0.160201 1.56784 0
M  V30 7340 C 694.159 -0.770264 2.2043 0
M  V30 7341 C 695.14 -1.24736 1.15651 0
M  V30 7342 O 696.325 -1.30253 1.44041 0
M  V30 7343 C 693.455 -2.00427 2.83631 0
M  V30 7344 C 692.409 -1.66345 3.94352 0
M  V30 7345 C 691.735 -2.97119 4.4455 0
M  V30 7346 C 693.035 -0.899972 5.14488 0
M  V30 7347 H 694.729 -0.239783 2.98438 0
M  V30 7348 H 692.275 -0.113891 1.43549 0
M  V30 7349 H 694.228 -2.66012 3.26827 0
M  V30 7350 H 692.952 -2.5587 2.02973 0
M  V30 7351 H 691.611 -1.03133 3.51794 0
M  V30 7352 H 691.259 -3.5058 3.60698 0
M  V30 7353 H 690.959 -2.75073 5.19238 0
M  V30 7354 H 692.483 -3.63753 4.90425 0
M  V30 7355 H 693.897 -1.45818 5.54446 0
M  V30 7356 H 692.294 -0.778968 5.95023 0
M  V30 7357 H 693.364 0.105827 4.84785 0
M  V30 7358 N 694.707 -1.5719 -0.113559 0
M  V30 7359 C 695.637 -2.03772 -1.14013 0
M  V30 7360 C 696.618 -0.923176 -1.42869 0
M  V30 7361 O 697.803 -1.19325 -1.53216 0
M  V30 7362 C 694.933 -2.44663 -2.4649 0
M  V30 7363 C 693.887 -3.59612 -2.32085 0
M  V30 7364 C 693.213 -3.8642 -3.69573 0
M  V30 7365 C 694.513 -4.91149 -1.7768 0
M  V30 7366 H 696.207 -2.89785 -0.752665 0
M  V30 7367 H 693.753 -1.39412 -0.360609 0
M  V30 7368 H 695.706 -2.75857 -3.18561 0
M  V30 7369 H 694.43 -1.55628 -2.87137 0
M  V30 7370 H 693.089 -3.28636 -1.62461 0
M  V30 7371 H 692.737 -2.94581 -4.07715 0
M  V30 7372 H 692.437 -4.63797 -3.60786 0
M  V30 7373 H 693.961 -4.2007 -4.4314 0
M  V30 7374 H 695.375 -5.20843 -2.39574 0
M  V30 7375 H 693.772 -5.72562 -1.79701 0
M  V30 7376 H 694.842 -4.79301 -0.734776 0
M  V30 7377 N 696.185 0.383891 -1.52853 0
M  V30 7378 C 697.148 1.45197 -1.77343 0
M  V30 7379 C 698.148 1.47362 -0.643522 0
M  V30 7380 O 699.338 1.48443 -0.911613 0
M  V30 7381 C 696.47 2.8445 -1.87885 0
M  V30 7382 H 697.663 1.24764 -2.72716 0
M  V30 7383 H 695.216 0.615939 -1.43652 0
M  V30 7384 H 695.951 3.10222 -0.94515 0
M  V30 7385 H 695.736 2.8428 -2.70051 0
M  V30 7386 H 697.226 3.61832 -2.08488 0
M  V30 7387 N 697.663 1.43903 0.642637 0
M  V30 7388 C 698.888 1.49758 1.43483 0
M  V30 7389 C 699.313 0.119911 1.87717 0
M  V30 7390 O 698.671 -0.888558 1.58033 0
M  V30 7391 C 698.719 2.45744 2.63898 0
M  V30 7392 O 697.823 1.95101 3.63331 0
M  V30 7393 H 697.164 0.506138 0.429791 0
M  V30 7394 H 699.694 1.88923 0.785438 0
M  V30 7395 H 699.704 2.63399 3.11584 0
M  V30 7396 H 698.379 3.45818 2.31046 0
M  V30 7397 H 696.956 1.87158 3.22531 0
M  V30 7398 N 699.141 -0.881989 1.30609 0
M  V30 7399 C 700.389 -1.63082 1.19368 0
M  V30 7400 C 700.71 -1.93376 -0.251147 0
M  V30 7401 O 699.98 -1.5723 -1.16857 0
M  V30 7402 H 698.56 -0.604542 0.438791 0
M  V30 7403 H 701.222 -1.05658 1.63776 0
M  V30 7404 H 700.318 -2.57966 1.7567 0
M  V30 7405 N 700.619 -1.13374 -1.09472 0
M  V30 7406 C 701.529 -0.824029 -2.19652 0
M  V30 7407 C 702.545 0.19118 -1.72947 0
M  V30 7408 O 703.721 0.0223464 -2.01388 0
M  V30 7409 C 700.786 -0.294009 -3.45451 0
M  V30 7410 C 699.847 -1.3704 -4.0684 0
M  V30 7411 C 699.08 -0.86558 -5.26634 0
M  V30 7412 O 699.303 0.29702 -5.69626 0
M  V30 7413 O 698.237 -1.63968 -5.79136 0
M  V30 7414 H 702.063 -1.74454 -2.48595 0
M  V30 7415 H 699.648 -0.911155 -1.18399 0
M  V30 7416 H 701.53 -0.00381039 -4.214 0
M  V30 7417 H 700.205 0.598921 -3.18111 0
M  V30 7418 H 699.112 -1.71391 -3.3253 0
M  V30 7419 H 700.445 -2.23746 -4.38405 0
M  V30 7420 N 702.098 1.27442 -0.927168 0
M  V30 7421 C 703.346 1.94007 -0.566203 0
M  V30 7422 C 703.667 1.7323 0.895345 0
M  V30 7423 O 702.937 1.07973 1.63459 0
M  V30 7424 H 701.517 0.717917 -0.206409 0
M  V30 7425 H 704.179 1.55161 -1.17945 0
M  V30 7426 H 703.275 3.02401 -0.772028 0
M  V30 7427 N 703.576 0.692616 1.41565 0
M  V30 7428 C 704.804 0.231279 2.05603 0
M  V30 7429 C 705.219 -1.11837 1.52111 0
M  V30 7430 O 704.576 -1.6983 0.66813 0
M  V30 7431 C 704.627 0.177125 3.61066 0
M  V30 7432 O 704.348 1.47346 4.12578 0
M  V30 7433 C 705.849 -0.30556 4.42246 0
M  V30 7434 H 703.069 0.108238 0.662213 0
M  V30 7435 H 705.613 0.944369 1.81389 0
M  V30 7436 H 703.768 -0.486769 3.8433 0
M  V30 7437 H 704.182 1.35861 5.06599 0
M  V30 7438 H 705.656 -0.29233 5.51225 0
M  V30 7439 H 706.133 -1.34393 4.18133 0
M  V30 7440 H 706.739 0.327229 4.24039 0
M  V30 7441 N 705.054 -1.51416 0.437162 0
M  V30 7442 C 705.986 -2.255 -0.410171 0
M  V30 7443 C 706.999 -1.29511 -0.986444 0
M  V30 7444 O 708.188 -1.55266 -0.880614 0
M  V30 7445 C 705.288 -2.99511 -1.58575 0
M  V30 7446 C 704.461 -4.22595 -1.12839 0
M  V30 7447 C 703.52 -4.79187 -2.17407 0
M  V30 7448 O 702.546 -5.4103 -1.76849 0
M  V30 7449 N 703.748 -4.63204 -3.49889 0
M  V30 7450 H 706.513 -2.98856 0.224783 0
M  V30 7451 H 704.074 -1.59699 0.266041 0
M  V30 7452 H 706.066 -3.34258 -2.28152 0
M  V30 7453 H 704.636 -2.29167 -2.12606 0
M  V30 7454 H 703.856 -3.93344 -0.259695 0
M  V30 7455 H 705.144 -5.02468 -0.800196 0
M  V30 7456 H 704.542 -4.13945 -3.85573 0
M  V30 7457 H 703.099 -5.02313 -4.15361 0
M  V30 7458 N 706.532 -0.168513 -1.56696 0
M  V30 7459 C 707.943 0.348694 -1.83415 0
M  V30 7460 C 708.294 1.63257 -1.0882 0
M  V30 7461 O 707.419 2.13707 -0.340333 0
M  V30 7462 C 708.014 0.639423 -3.32711 0
M  V30 7463 C 706.573 1.10108 -3.59935 0
M  V30 7464 C 705.72 0.135464 -2.76969 0
M  V30 7465 H 708.671 -0.392829 -1.53761 0
M  V30 7466 H 708.692 1.49179 -3.50037 0
M  V30 7467 H 708.204 -0.295173 -3.86976 0
M  V30 7468 H 706.305 2.05088 -3.11079 0
M  V30 7469 H 706.418 1.01218 -4.68286 0
M  V30 7470 H 704.782 0.632286 -2.46727 0
M  V30 7471 H 705.565 -0.793104 -3.34013 0
M  V30 7472 N 708.01 1.57248 0.105221 0
M  V30 7473 C 709.238 1.89768 0.82437 0
M  V30 7474 C 709.653 0.761192 1.72775 0
M  V30 7475 O 709.01 -0.267342 1.80531 0
M  V30 7476 C 709.061 3.2184 1.64625 0
M  V30 7477 O 708.782 4.31115 0.779217 0
M  V30 7478 C 710.283 3.68155 2.46935 0
M  V30 7479 H 707.503 0.628031 0.236259 0
M  V30 7480 H 710.047 2.04321 0.085485 0
M  V30 7481 H 708.202 3.08915 2.33775 0
M  V30 7482 H 708.616 5.06897 1.34745 0
M  V30 7483 H 710.09 4.6329 3.00111 0
M  V30 7484 H 710.567 2.95492 3.24932 0
M  V30 7485 H 711.173 3.83914 1.83002 0
M  V30 7486 N 709.488 -0.375779 1.53054 0
M  V30 7487 C 710.735 -1.11948 1.68742 0
M  V30 7488 C 711.063 -1.89596 0.434015 0
M  V30 7489 O 710.318 -1.86787 -0.583867 0
M  V30 7490 C 710.617 -2.11356 2.88207 0
M  V30 7491 C 710.283 -1.50266 4.25124 0
M  V30 7492 C 708.945 -1.33333 4.62359 0
M  V30 7493 C 711.297 -1.05976 5.10312 0
M  V30 7494 C 708.625 -0.706765 5.82427 0
M  V30 7495 C 710.977 -0.447241 6.31017 0
M  V30 7496 C 709.641 -0.265314 6.66973 0
M  V30 7497 H 708.911 -0.409648 0.61747 0
M  V30 7498 H 711.558 -0.402492 1.87222 0
M  V30 7499 H 709.863 -2.89322 2.64197 0
M  V30 7500 H 711.56 -2.68833 2.97539 0
M  V30 7501 H 708.15 -1.64437 3.95801 0
M  V30 7502 H 712.334 -1.17855 4.82104 0
M  V30 7503 H 707.59 -0.554132 6.08884 0
M  V30 7504 H 711.764 -0.0958064 6.96334 0
M  V30 7505 H 709.391 0.222267 7.59875 0
M  V30 7506 N 710.966 -1.44241 -0.634997 0
M  V30 7507 C 712.377 -1.41622 -1.21655 0
M  V30 7508 C 712.728 -0.129584 -1.95772 0
M  V30 7509 O 711.853 0.770225 -2.02229 0
M  V30 7510 C 712.448 -2.56557 -2.21278 0
M  V30 7511 C 711.007 -2.57145 -2.7487 0
M  V30 7512 C 710.154 -2.33354 -1.49804 0
M  V30 7513 H 713.105 -1.52878 -0.425905 0
M  V30 7514 H 713.126 -2.29089 -3.03807 0
M  V30 7515 H 712.638 -3.50186 -1.67306 0
M  V30 7516 H 710.739 -1.67447 -3.32855 0
M  V30 7517 H 710.852 -3.55507 -3.21172 0
M  V30 7518 H 709.216 -1.82372 -1.77799 0
M  V30 7519 H 709.999 -3.29092 -0.977402 0
M  V30 7520 N 712.444 0.87505 -1.31075 0
M  V30 7521 C 713.669 1.66583 -1.23551 0
M  V30 7522 C 714.094 1.87067 0.19686 0
M  V30 7523 O 713.452 1.40877 1.1412 0
M  V30 7524 C 713.5 3.01401 -1.97965 0
M  V30 7525 O 712.604 3.90923 -1.31351 0
M  V30 7526 H 711.945 0.508645 -0.426821 0
M  V30 7527 H 714.475 1.09139 -1.7306 0
M  V30 7528 H 714.485 3.51374 -2.07366 0
M  V30 7529 H 713.16 2.85812 -3.02133 0
M  V30 7530 H 711.737 3.49369 -1.30368 0
M  V30 7531 N 713.922 1.13953 1.08869 0
M  V30 7532 C 715.333 0.916649 1.62648 0
M  V30 7533 C 715.684 -0.545589 1.88462 0
M  V30 7534 O 714.809 -1.41351 1.63856 0
M  V30 7535 C 715.404 1.65751 2.95486 0
M  V30 7536 C 713.963 1.48034 3.46068 0
M  V30 7537 C 713.11 1.68305 2.20383 0
M  V30 7538 H 716.061 1.292 0.921572 0
M  V30 7539 H 716.082 1.11794 3.63707 0
M  V30 7540 H 715.594 2.72171 2.76667 0
M  V30 7541 H 713.695 0.439416 3.7 0
M  V30 7542 H 713.808 2.24719 4.23129 0
M  V30 7543 H 712.172 1.10833 2.29321 0
M  V30 7544 H 712.955 2.76057 2.04077 0
M  V30 7545 N 715.4 -1.26948 0.933913 0
M  V30 7546 C 716.625 -1.98724 0.593589 0
M  V30 7547 C 717.05 -1.6915 -0.822801 0
M  V30 7548 O 716.408 -0.93533 -1.5531 0
M  V30 7549 C 716.456 -3.50834 0.833542 0
M  V30 7550 O 715.56 -4.12284 -0.0978788 0
M  V30 7551 H 714.901 -0.623683 0.227849 0
M  V30 7552 H 717.431 -1.61599 1.25486 0
M  V30 7553 H 717.441 -4.01018 0.75156 0
M  V30 7554 H 716.116 -3.71691 1.86597 0
M  V30 7555 H 714.693 -3.72884 0.0345443 0
M  V30 7556 N 716.879 -0.700114 -1.41195 0
M  V30 7557 C 718.104 -0.240704 -2.05998 0
M  V30 7558 C 718.529 1.10313 -1.52357 0
M  V30 7559 O 717.887 1.69154 -0.652424 0
M  V30 7560 C 717.935 -0.213783 -3.59966 0
M  V30 7561 O 717.039 0.809933 -4.04368 0
M  V30 7562 H 716.38 -0.116471 -0.653705 0
M  V30 7563 H 718.91 -0.956251 -1.80878 0
M  V30 7564 H 718.92 -0.0461852 -4.07974 0
M  V30 7565 H 717.595 -1.19454 -3.98376 0
M  V30 7566 H 716.172 0.611319 -3.67855 0
M  V30 7567 N 718.357 1.51182 -0.445186 0
M  V30 7568 C 719.267 2.31692 0.368255 0
M  V30 7569 C 720.283 1.40942 1.02036 0
M  V30 7570 O 721.459 1.74011 1.01401 0
M  V30 7571 C 718.524 3.14903 1.45041 0
M  V30 7572 C 717.585 4.21442 0.817615 0
M  V30 7573 C 716.818 5.00677 1.8482 0
M  V30 7574 O 717.041 4.80644 3.07145 0
M  V30 7575 O 715.975 5.84559 1.43438 0
M  V30 7576 H 719.801 3.0232 -0.289219 0
M  V30 7577 H 717.386 1.47951 -0.207555 0
M  V30 7578 H 719.268 3.66612 2.07783 0
M  V30 7579 H 717.943 2.47031 2.09182 0
M  V30 7580 H 716.85 3.73791 0.151931 0
M  V30 7581 H 718.183 4.9171 0.219564 0
M  V30 7582 N 719.835 0.176821 1.56605 0
M  V30 7583 C 721.083 -0.465793 1.96659 0
M  V30 7584 C 721.404 -1.63406 1.06412 0
M  V30 7585 O 720.674 -1.95457 0.131603 0
M  V30 7586 H 719.254 -0.175072 0.726195 0
M  V30 7587 H 721.916 0.25929 1.93168 0
M  V30 7588 H 721.012 -0.822138 3.01077 0
M  V30 7589 N 721.313 -1.57302 -0.09688 0
M  V30 7590 C 722.243 -2.0497 -1.11846 0
M  V30 7591 C 723.224 -0.938278 -1.41882 0
M  V30 7592 O 724.409 -1.20943 -1.51942 0
M  V30 7593 C 721.539 -2.47264 -2.43881 0
M  V30 7594 C 720.493 -3.62053 -2.28257 0
M  V30 7595 C 719.819 -3.90318 -3.65453 0
M  V30 7596 C 721.119 -4.93005 -1.72461 0
M  V30 7597 H 722.813 -2.90567 -0.721888 0
M  V30 7598 H 720.359 -1.39786 -0.345803 0
M  V30 7599 H 722.312 -2.7922 -3.15617 0
M  V30 7600 H 721.036 -1.58664 -2.8547 0
M  V30 7601 H 719.695 -3.30341 -1.58967 0
M  V30 7602 H 719.343 -2.98889 -4.04567 0
M  V30 7603 H 719.043 -4.67597 -3.55846 0
M  V30 7604 H 720.567 -4.24747 -4.3866 0
M  V30 7605 H 721.981 -5.23354 -2.34036 0
M  V30 7606 H 720.378 -5.74436 -1.73618 0
M  V30 7607 H 721.448 -4.80053 -0.683898 0
M  V30 7608 N 722.791 0.367657 -1.53252 0
M  V30 7609 C 724.037 1.10864 -1.70531 0
M  V30 7610 C 724.392 1.87051 -0.4505 0
M  V30 7611 O 723.685 1.83342 0.556431 0
M  V30 7612 C 723.879 2.09825 -2.89324 0
M  V30 7613 C 723.708 1.43361 -4.26237 0
M  V30 7614 C 722.478 1.18861 -4.91121 0
M  V30 7615 C 724.676 0.872409 -5.06847 0
M  V30 7616 N 722.658 0.487258 -6.11963 0
M  V30 7617 C 724.029 0.300301 -6.19272 0
M  V30 7618 C 726.084 0.770895 -4.91896 0
M  V30 7619 C 724.787 -0.363419 -7.18381 0
M  V30 7620 C 726.813 0.12096 -5.91276 0
M  V30 7621 C 726.175 -0.440283 -7.03023 0
M  V30 7622 H 722.274 0.390902 -0.677288 0
M  V30 7623 H 724.858 0.395305 -1.90645 0
M  V30 7624 H 723.029 2.78473 -2.70753 0
M  V30 7625 H 724.761 2.76585 -2.95436 0
M  V30 7626 H 721.516 1.46934 -4.5023 0
M  V30 7627 H 721.94 0.152005 -6.76829 0
M  V30 7628 H 726.582 1.19058 -4.05691 0
M  V30 7629 H 724.3 -0.795057 -8.04179 0
M  V30 7630 H 727.886 0.0433702 -5.81784 0
M  V30 7631 H 726.766 -0.935244 -7.78603 0
M  V30 7632 N 724.269 1.44576 0.627338 0
M  V30 7633 C 725.494 1.51271 1.41887 0
M  V30 7634 C 725.919 0.139814 1.8758 0
M  V30 7635 O 725.277 -0.871746 1.58966 0
M  V30 7636 C 725.325 2.48529 2.61277 0
M  V30 7637 O 724.429 1.98944 3.61241 0
M  V30 7638 H 723.77 0.510668 0.424399 0
M  V30 7639 H 726.3 1.89746 0.765356 0
M  V30 7640 H 726.31 2.66689 3.08773 0
M  V30 7641 H 724.985 3.48249 2.27366 0
M  V30 7642 H 723.562 1.90568 3.20528 0
M  V30 7643 N 725.747 -0.868086 1.31537 0
M  V30 7644 C 726.657 -2.00801 1.21311 0
M  V30 7645 C 727.673 -1.73518 0.129431 0
M  V30 7646 O 728.849 -1.98378 0.347588 0
M  V30 7647 C 725.914 -3.3419 0.922935 0
M  V30 7648 C 724.975 -3.74783 2.0937 0
M  V30 7649 C 724.208 -5.01807 1.81728 0
M  V30 7650 O 724.431 -5.65404 0.753313 0
M  V30 7651 O 723.365 -5.39213 2.67457 0
M  V30 7652 H 727.191 -2.12361 2.17109 0
M  V30 7653 H 724.776 -0.996684 1.11295 0
M  V30 7654 H 726.658 -4.14174 0.777033 0
M  V30 7655 H 725.333 -3.237 -0.00500301 0
M  V30 7656 H 724.24 -2.95432 2.29501 0
M  V30 7657 H 725.573 -3.89902 3.00396 0
M  V30 7658 N 727.225 -1.14528 -1.08264 0
M  V30 7659 C 728.502 -0.825185 -1.77342 0
M  V30 7660 C 728.882 0.681037 -1.99813 0
M  V30 7661 O 728.23 1.62234 -1.60912 0
M  V30 7662 C 728.44 -1.62556 -3.08831 0
M  V30 7663 C 729.788 -1.82585 -3.83338 0
M  V30 7664 O 730.812 -1.59254 -3.18617 0
M  V30 7665 O 729.671 -2.21598 -4.99556 0
M  V30 7666 H 726.765 -0.302531 -0.769678 0
M  V30 7667 H 729.311 -1.25056 -1.14713 0
M  V30 7668 H 728.083 -2.64862 -2.88035 0
M  V30 7669 H 727.706 -1.1959 -3.79189 0
M  V30 7670 N 728.703 1.26451 -0.940633 0
M  V30 7671 C 729.666 2.24651 -0.454378 0
M  V30 7672 C 730.666 1.54826 0.434222 0
M  V30 7673 O 731.856 1.72628 0.233477 0
M  V30 7674 C 728.988 3.39148 0.345192 0
M  V30 7675 H 730.181 2.69182 -1.32217 0
M  V30 7676 H 727.734 1.38596 -0.722547 0
M  V30 7677 H 728.469 3.00018 1.23125 0
M  V30 7678 H 728.254 3.9101 -0.292107 0
M  V30 7679 H 729.744 4.12103 0.675341 0
M  V30 7680 N 730.181 0.707592 1.40822 0
M  V30 7681 C 731.592 0.317011 1.83989 0
M  V30 7682 C 731.943 -1.14697 1.59182 0
M  V30 7683 O 731.068 -1.8818 1.06852 0
M  V30 7684 C 731.663 0.568593 3.33995 0
M  V30 7685 C 730.222 0.231804 3.75686 0
M  V30 7686 C 729.369 0.844933 2.64114 0
M  V30 7687 H 732.32 0.907349 1.30203 0
M  V30 7688 H 732.341 -0.168798 3.80125 0
M  V30 7689 H 731.853 1.63417 3.52018 0
M  V30 7690 H 729.954 -0.82903 3.6326 0
M  V30 7691 H 730.067 0.695219 4.74029 0
M  V30 7692 H 728.431 0.273588 2.53226 0
M  V30 7693 H 729.214 1.91462 2.84951 0
M  V30 7694 N 731.66 -1.50943 0.453197 0
M  V30 7695 C 732.885 -2.07116 -0.108463 0
M  V30 7696 C 733.31 -1.31681 -1.3432 0
M  V30 7697 O 732.668 -0.359256 -1.77705 0
M  V30 7698 C 732.716 -3.58447 -0.393424 0
M  V30 7699 O 731.82 -3.85038 -1.47714 0
M  V30 7700 H 731.161 -0.66398 0.0050993 0
M  V30 7701 H 733.691 -1.94362 0.639095 0
M  V30 7702 H 733.701 -4.02961 -0.639222 0
M  V30 7703 H 732.376 -4.12774 0.508946 0
M  V30 7704 H 730.953 -3.52376 -1.22006 0
M  V30 7705 N 733.138 -0.185124 -1.56509 0
M  V30 7706 C 734.415 0.503348 -1.89013 0
M  V30 7707 C 734.795 1.80349 -1.09715 0
M  V30 7708 O 734.143 2.27665 -0.195203 0
M  V30 7709 C 734.353 0.731839 -3.41241 0
M  V30 7710 C 735.701 1.05568 -4.11267 0
M  V30 7711 O 736.725 0.819906 -3.46635 0
M  V30 7712 O 735.584 1.50116 -5.25478 0
M  V30 7713 H 732.678 0.261139 -0.784688 0
M  V30 7714 H 735.224 -0.224592 -1.68207 0
M  V30 7715 H 733.996 -0.18672 -3.90854 0
M  V30 7716 H 733.619 1.5126 -3.67704 0
M  V30 7717 N 734.616 1.57351 0.0885366 0
M  V30 7718 C 735.548 1.99221 1.13329 0
M  V30 7719 C 736.561 0.895705 1.35945 0
M  V30 7720 O 737.75 1.17376 1.34481 0
M  V30 7721 C 734.85 2.3016 2.48756 0
M  V30 7722 C 734.023 3.61444 2.46327 0
M  V30 7723 C 733.082 3.80244 3.63732 0
M  V30 7724 O 732.108 4.52024 3.45924 0
M  V30 7725 N 733.31 3.2132 4.8346 0
M  V30 7726 H 736.075 2.89456 0.776862 0
M  V30 7727 H 733.636 1.59505 0.277428 0
M  V30 7728 H 735.628 2.39925 3.25911 0
M  V30 7729 H 734.198 1.459 2.76464 0
M  V30 7730 H 733.418 3.62588 1.54673 0
M  V30 7731 H 734.706 4.47678 2.41789 0
M  V30 7732 H 734.104 2.63028 5.00832 0
M  V30 7733 H 732.661 3.3656 5.58185 0
M  V30 7734 N 736.094 -0.359525 1.53444 0
M  V30 7735 C 737.319 -1.12644 1.74144 0
M  V30 7736 C 737.744 -1.82082 0.472007 0
M  V30 7737 O 737.102 -1.71962 -0.57436 0
M  V30 7738 C 737.15 -2.12781 2.9113 0
M  V30 7739 O 736.254 -3.19984 2.60162 0
M  V30 7740 H 735.595 -0.326553 0.578152 0
M  V30 7741 H 738.125 -0.414798 2.00351 0
M  V30 7742 H 738.135 -2.56278 3.17467 0
M  V30 7743 H 736.81 -1.61634 3.83207 0
M  V30 7744 H 735.387 -2.81417 2.44661 0
M  V30 7745 N 737.572 -1.44907 -0.619662 0
M  V30 7746 C 738.849 -1.38766 -1.37852 0
M  V30 7747 C 739.229 -0.0521393 -2.11036 0
M  V30 7748 O 738.577 0.965613 -2.07095 0
M  V30 7749 C 738.787 -2.59344 -2.33541 0
M  V30 7750 C 740.135 -3.03909 -2.96521 0
M  V30 7751 O 741.159 -2.59631 -2.43865 0
M  V30 7752 O 740.018 -3.80713 -3.92071 0
M  V30 7753 H 737.112 -0.550083 -0.617525 0
M  V30 7754 H 739.658 -1.57015 -0.643759 0
M  V30 7755 H 738.43 -3.48142 -1.78642 0
M  V30 7756 H 738.053 -2.43367 -3.14417 0
M  V30 7757 N 739.05 0.861098 -1.31996 0
M  V30 7758 C 740.278 1.6474 -1.25173 0
M  V30 7759 C 740.693 1.87926 0.181425 0
M  V30 7760 O 740.05 1.4437 1.1164 0
M  V30 7761 C 740.101 3.01036 -2.0015 0
M  V30 7762 O 739.822 2.7888 -3.37872 0
M  V30 7763 C 741.323 3.95481 -2.00273 0
M  V30 7764 H 738.543 0.513314 -0.432146 0
M  V30 7765 H 741.087 1.07419 -1.74016 0
M  V30 7766 H 739.242 3.55021 -1.55046 0
M  V30 7767 H 739.656 3.65514 -3.76165 0
M  V30 7768 H 741.13 4.88403 -2.57229 0
M  V30 7769 H 741.607 4.27957 -0.987407 0
M  V30 7770 H 742.213 3.47433 -2.45296 0
M  V30 7771 N 740.528 1.15101 1.07655 0
M  V30 7772 C 741.753 0.948177 1.84457 0
M  V30 7773 C 742.178 -0.498432 1.81376 0
M  V30 7774 O 741.536 -1.35509 1.20445 0
M  V30 7775 C 741.584 1.46318 3.29581 0
M  V30 7776 O 740.688 0.660342 4.07079 0
M  V30 7777 H 740.029 0.338428 0.571281 0
M  V30 7778 H 742.559 1.5301 1.35828 0
M  V30 7779 H 742.569 1.47468 3.80417 0
M  V30 7780 H 741.244 2.51635 3.31138 0
M  V30 7781 H 739.821 0.718216 3.65918 0
M  V30 7782 N 742.006 -1.2595 0.947325 0
M  V30 7783 C 742.916 -2.29883 0.468079 0
M  V30 7784 C 743.932 -1.67783 -0.460975 0
M  V30 7785 O 745.108 -1.98526 -0.339006 0
M  V30 7786 C 742.173 -3.45773 -0.253315 0
M  V30 7787 C 741.234 -4.23337 0.713054 0
M  V30 7788 C 740.467 -5.33694 0.025993 0
M  V30 7789 O 740.69 -5.57853 -1.18978 0
M  V30 7790 O 739.624 -5.97724 0.70782 0
M  V30 7791 H 743.45 -2.72952 1.33156 0
M  V30 7792 H 741.035 -1.31263 0.713468 0
M  V30 7793 H 742.917 -4.16209 -0.659423 0
M  V30 7794 H 741.592 -3.04721 -1.09209 0
M  V30 7795 H 740.499 -3.55359 1.16923 0
M  V30 7796 H 741.832 -4.68154 1.51963 0
M  V30 7797 N 743.484 -0.715051 -1.40445 0
M  V30 7798 C 744.709 -0.26254 -2.05732 0
M  V30 7799 C 745.134 1.08691 -1.53519 0
M  V30 7800 O 744.492 1.68453 -0.670328 0
M  V30 7801 C 744.54 -0.25195 -3.59719 0
M  V30 7802 O 743.644 0.766998 -4.05205 0
M  V30 7803 H 742.985 -0.123398 -0.652433 0
M  V30 7804 H 745.515 -0.975382 -1.79854 0
M  V30 7805 H 745.525 -0.0894537 -4.07902 0
M  V30 7806 H 744.2 -1.23672 -3.97087 0
M  V30 7807 H 742.777 0.572269 -3.68483 0
M  V30 7808 N 744.962 1.50701 -0.461195 0
M  V30 7809 C 746.239 1.94958 0.158296 0
M  V30 7810 C 746.619 1.40111 1.57899 0
M  V30 7811 O 745.967 0.597976 2.20537 0
M  V30 7812 C 746.177 3.48821 0.11172 0
M  V30 7813 C 747.525 4.23499 0.30552 0
M  V30 7814 O 748.549 3.557 0.188758 0
M  V30 7815 O 747.408 5.43823 0.540244 0
M  V30 7816 H 744.502 0.818674 0.117054 0
M  V30 7817 H 747.048 1.61508 -0.520888 0
M  V30 7818 H 745.82 3.81263 -0.880577 0
M  V30 7819 H 745.443 3.88781 0.832791 0
M  V30 7820 N 746.441 0.193421 1.56409 0
M  V30 7821 C 747.687 -0.446449 1.97825 0
M  V30 7822 C 748.02 -1.61386 1.08019 0
M  V30 7823 O 747.295 -1.94053 0.131839 0
M  V30 7824 C 747.578 -0.908199 3.48459 0
M  V30 7825 C 747.431 0.260914 4.49043 0
M  V30 7826 C 748.75 -1.77428 4.0275 0
M  V30 7827 H 745.869 -0.160807 0.719243 0
M  V30 7828 H 748.511 0.284006 1.87865 0
M  V30 7829 H 746.661 -1.53062 3.57077 0
M  V30 7830 H 748.333 0.898548 4.52464 0
M  V30 7831 H 746.576 0.912949 4.24085 0
M  V30 7832 H 747.247 -0.104657 5.51901 0
M  V30 7833 H 749.723 -1.24936 3.96901 0
M  V30 7834 H 748.599 -2.06633 5.08521 0
M  V30 7835 H 748.86 -2.72788 3.47907 0
M  V30 7836 N 747.919 -1.57396 -0.0801906 0
M  V30 7837 C 749.196 -1.77883 -0.813451 0
M  V30 7838 C 749.576 -0.778879 -1.96206 0
M  V30 7839 O 748.924 0.189683 -2.27711 0
M  V30 7840 C 749.134 -3.24116 -1.2942 0
M  V30 7841 C 750.482 -3.87714 -1.73098 0
M  V30 7842 O 751.506 -3.27956 -1.39007 0
M  V30 7843 O 750.365 -4.92828 -2.36184 0
M  V30 7844 H 747.459 -0.729727 -0.389138 0
M  V30 7845 H 750.005 -1.69591 -0.0609166 0
M  V30 7846 H 748.777 -3.88443 -0.471947 0
M  V30 7847 H 748.4 -3.371 -2.1083 0
M  V30 7848 N 749.397 0.351382 -1.53633 0
M  V30 7849 C 750.327 1.43688 -1.84055 0
M  V30 7850 C 751.308 1.55251 -0.695073 0
M  V30 7851 O 752.493 1.69587 -0.946257 0
M  V30 7852 C 749.623 2.80843 -2.04315 0
M  V30 7853 C 748.577 2.84094 -3.20117 0
M  V30 7854 C 747.903 4.2406 -3.25696 0
M  V30 7855 C 749.203 2.50334 -4.58399 0
M  V30 7856 H 750.897 1.18478 -2.74961 0
M  V30 7857 H 748.443 0.568509 -1.32303 0
M  V30 7858 H 750.396 3.56821 -2.2418 0
M  V30 7859 H 749.12 3.07471 -1.10132 0
M  V30 7860 H 747.779 2.10568 -3.00094 0
M  V30 7861 H 747.427 4.47785 -2.29123 0
M  V30 7862 H 747.127 4.27147 -4.03509 0
M  V30 7863 H 748.651 5.0189 -3.47762 0
M  V30 7864 H 750.065 3.16025 -4.78332 0
M  V30 7865 H 748.462 2.64717 -5.38558 0
M  V30 7866 H 749.532 1.45542 -4.62543 0
M  V30 7867 N 750.875 1.45233 0.611969 0
M  V30 7868 C 752.123 1.48727 1.36838 0
M  V30 7869 C 752.444 0.128616 1.94575 0
M  V30 7870 O 751.714 -0.84149 1.76906 0
M  V30 7871 H 750.294 0.547695 0.507976 0
M  V30 7872 H 752.956 1.81156 0.718925 0
M  V30 7873 H 752.052 2.2236 2.19003 0
M  V30 7874 N 752.353 -0.854086 1.3245 0
M  V30 7875 C 753.63 -1.59188 1.1366 0
M  V30 7876 C 754.01 -2.08917 -0.302807 0
M  V30 7877 O 753.358 -1.8795 -1.29951 0
M  V30 7878 C 753.568 -2.73757 2.16467 0
M  V30 7879 C 754.916 -3.43323 2.49829 0
M  V30 7880 O 755.94 -2.83983 2.15017 0
M  V30 7881 O 754.799 -4.50409 3.09506 0
M  V30 7882 H 751.893 -0.701092 0.438633 0
M  V30 7883 H 754.439 -0.898165 1.43983 0
M  V30 7884 H 753.211 -2.3454 3.1322 0
M  V30 7885 H 752.834 -3.50804 1.87142 0
M  V30 7886 N 753.831 -1.1567 -1.07043 0
M  V30 7887 C 755.079 -0.931673 -1.79344 0
M  V30 7888 C 755.4 0.542421 -1.87304 0
M  V30 7889 O 754.67 1.39418 -1.37621 0
M  V30 7890 H 753.25 -0.34171 -0.664262 0
M  V30 7891 H 755.912 -1.45795 -1.29344 0
M  V30 7892 H 755.008 -1.34379 -2.81689 0
M  V30 7893 N 755.309 1.25446 -0.953992 0
M  V30 7894 C 756.539 1.96929 -0.624688 0
M  V30 7895 C 756.947 1.71112 0.807292 0
M  V30 7896 O 756.29 0.983512 1.55154 0
M  V30 7897 C 756.352 3.50425 -0.802676 0
M  V30 7898 C 756.016 3.99916 -2.21169 0
M  V30 7899 C 757.013 4.10662 -3.18831 0
M  V30 7900 C 754.698 4.33598 -2.53571 0
M  V30 7901 C 756.692 4.54401 -4.46988 0
M  V30 7902 C 754.379 4.77024 -3.81958 0
M  V30 7903 C 755.377 4.87388 -4.78478 0
M  V30 7904 O 755.065 5.29851 -6.04577 0
M  V30 7905 H 754.797 0.634511 -0.233179 0
M  V30 7906 H 757.351 1.60591 -1.28061 0
M  V30 7907 H 755.581 3.86596 -0.0896044 0
M  V30 7908 H 757.27 4.03117 -0.47452 0
M  V30 7909 H 758.036 3.84872 -2.95124 0
M  V30 7910 H 753.915 4.24757 -1.79171 0
M  V30 7911 H 757.459 4.62406 -5.22328 0
M  V30 7912 H 753.356 5.02258 -4.05471 0
M  V30 7913 H 754.124 5.48039 -6.07944 0
M  V30 7914 N 756.787 0.722489 1.40064 0
M  V30 7915 C 758.036 0.261932 1.99992 0
M  V30 7916 C 758.349 -1.15358 1.57961 0
M  V30 7917 O 759.555 -1.71301 2.10637 0
M  V30 7918 C 758.011 0.41737 3.57472 0
M  V30 7919 C 757.619 1.83997 4.08472 0
M  V30 7920 C 759.363 0.0179561 4.24496 0
M  V30 7921 C 757.27 1.94563 5.5848 0
M  V30 7922 H 756.2 0.0941768 0.748095 0
M  V30 7923 H 758.851 0.894572 1.60218 0
M  V30 7924 H 757.233 -0.283965 3.94981 0
M  V30 7925 H 758.407 2.57224 3.82325 0
M  V30 7926 H 756.722 2.19147 3.54067 0
M  V30 7927 H 759.319 0.076085 5.34646 0
M  V30 7928 H 759.662 -1.02498 4.03485 0
M  V30 7929 H 760.195 0.669988 3.92117 0
M  V30 7930 H 756.934 2.97001 5.84355 0
M  V30 7931 H 756.454 1.25756 5.86469 0
M  V30 7932 H 758.133 1.72095 6.23692 0
M  V30 7933 N 758.265 -1.50454 0.469181 0
M  V30 7934 C 759.198 -2.25149 -0.371928 0
M  V30 7935 C 760.176 -1.28382 -0.997845 0
M  V30 7936 O 761.36 -1.57599 -1.03415 0
M  V30 7937 C 758.487 -3.02629 -1.52097 0
M  V30 7938 C 757.533 -4.14305 -1.01262 0
M  V30 7939 S 758.366 -5.35453 0.0711459 0
M  V30 7940 C 759.522 -6.1648 -1.08181 0
M  V30 7941 H 759.755 -2.96142 0.262134 0
M  V30 7942 H 757.288 -1.52296 0.254042 0
M  V30 7943 H 759.246 -3.47861 -2.17952 0
M  V30 7944 H 757.907 -2.31165 -2.12654 0
M  V30 7945 H 757.1 -4.67913 -1.87278 0
M  V30 7946 H 756.702 -3.71499 -0.431804 0
M  V30 7947 H 758.994 -6.47497 -1.99382 0
M  V30 7948 H 759.937 -7.05679 -0.585028 0
M  V30 7949 H 760.345 -5.48492 -1.33478 0
M  V30 7950 N 759.743 -0.201713 -1.56304 0
M  V30 7951 C 761.159 0.154025 -1.58855 0
M  V30 7952 C 761.359 1.60516 -1.21807 0
M  V30 7953 O 760.415 2.34193 -0.94393 0
M  V30 7954 C 761.728 -0.154319 -3.00304 0
M  V30 7955 C 763.276 -0.0949578 -3.12856 0
M  V30 7956 C 763.751 -0.376703 -4.56448 0
M  V30 7957 N 765.242 -0.325558 -4.62054 0
M  V30 7958 C 765.977 -0.51732 -5.71062 0
M  V30 7959 N 765.473 -0.769789 -6.8851 0
M  V30 7960 N 767.266 -0.45112 -5.60287 0
M  V30 7961 H 759.417 -1.14858 -1.78666 0
M  V30 7962 H 761.68 -0.458934 -0.829508 0
M  V30 7963 H 761.386 -1.16074 -3.31994 0
M  V30 7964 H 761.26 0.540014 -3.73314 0
M  V30 7965 H 763.647 0.902075 -2.80974 0
M  V30 7966 H 763.728 -0.822468 -2.42217 0
M  V30 7967 H 763.372 -1.37108 -4.89044 0
M  V30 7968 H 763.302 0.371772 -5.25286 0
M  V30 7969 H 765.793 -0.137308 -3.7765 0
M  V30 7970 H 766.106 -0.904744 -7.67486 0
M  V30 7971 H 764.451 -0.806758 -6.90302 0
M  V30 7972 H 767.642 -0.254253 -4.67409 0
M  V30 7973 H 767.815 -0.603982 -6.45179 0
M  V30 7974 O 761.26 1.6137 -0.064807 0
M  V30 7975 H 761.951 1.85948 0.542485 0
M  V30 END ATOM
M  V30 BEGIN BOND
M  V30 END BOND
M  V30 END CTAB
M  END
$$$$
