drugbank_target|P48632 Ferripyoverdine receptor (DB08249)
 OpenBabel12092119523D

  0  0  0     0  0            999 V3000
M  V30 BEGIN CTAB
M  V30 COUNTS 12589 12751 0 0 0
M  V30 BEGIN ATOM
M  V30 1 H -0.908 1.98254 -0.117106 0
M  V30 2 N 0 1.576 0 0
M  V30 3 C 0.933 2.03868 1.02534 0
M  V30 4 C 1.911 0.928543 1.3348 0
M  V30 5 O 3.095 1.19667 1.45644 0
M  V30 6 C 0.222 2.43627 2.35294 0
M  V30 7 C -0.732 3.65373 2.2001 0
M  V30 8 S 0.101 5.13292 1.52614 0
M  V30 9 C 1.257 5.56322 2.86805 0
M  V30 10 H 1.49 2.90518 0.631377 0
M  V30 11 H -0.977 1.52953 0.210867 0
M  V30 12 H 0.981 2.67203 3.11629 0
M  V30 13 H -0.358 1.57376 2.7183 0
M  V30 14 H -1.165 3.90944 3.18086 0
M  V30 15 H -1.563 3.418 1.51819 0
M  V30 16 H 0.729 5.58782 3.83104 0
M  V30 17 H 1.672 6.56266 2.65933 0
M  V30 18 H 2.08 4.83886 2.90714 0
M  V30 19 N 1.4781 -0.272755 1.55222 0
M  V30 20 C 2.8891 -0.84378 1.66545 0
M  V30 21 C 3.2401 -1.87035 0.592641 0
M  V30 22 O 2.3651 -2.14761 -0.265818 0
M  V30 23 C 2.9601 -1.53723 3.01918 0
M  V30 24 C 1.5191 -2.05628 3.15268 0
M  V30 25 C 0.6661 -0.898424 2.62343 0
M  V30 26 H 3.6171 -0.0490998 1.58624 0
M  V30 27 H 3.6381 -2.40421 2.94921 0
M  V30 28 H 3.1501 -0.78983 3.79978 0
M  V30 29 H 1.2511 -2.83329 2.41983 0
M  V30 30 H 1.3641 -2.27142 4.21833 0
M  V30 31 H -0.2719 -1.29186 2.19506 0
M  V30 32 H 0.5111 -0.164528 3.42906 0
M  V30 33 N 2.9562 -1.48159 -0.537278 0
M  V30 34 C 3.9192 -1.61665 -1.62472 0
M  V30 35 C 4.9192 -0.490395 -1.5314 0
M  V30 36 O 6.1092 -0.755998 -1.5694 0
M  V30 37 C 3.2412 -1.57997 -3.02076 0
M  V30 38 H 4.4342 -2.58621 -1.51839 0
M  V30 39 H 1.9872 -1.36647 -0.758771 0
M  V30 40 H 2.7222 -0.624913 -3.18222 0
M  V30 41 H 2.5072 -2.39755 -3.10258 0
M  V30 42 H 3.9972 -1.70627 -3.81151 0
M  V30 43 N 4.4343 0.785586 -1.36625 0
M  V30 44 C 5.8453 1.36101 -1.27803 0
M  V30 45 C 6.1963 1.96035 0.0804875 0
M  V30 46 O 5.3213 1.92834 0.982042 0
M  V30 47 C 5.9163 2.47442 -2.31426 0
M  V30 48 C 4.4753 3.00789 -2.26281 0
M  V30 49 C 3.6223 1.73896 -2.15999 0
M  V30 50 H 6.5733 0.586928 -1.47448 0
M  V30 51 H 6.5943 3.2656 -1.95291 0
M  V30 52 H 6.1063 2.03791 -3.30289 0
M  V30 53 H 4.2073 3.48851 -1.30896 0
M  V30 54 H 4.3203 3.57343 -3.19128 0
M  V30 55 H 2.6843 1.9628 -1.62316 0
M  V30 56 H 3.4673 1.32368 -3.16755 0
M  V30 57 N 5.9124 1.20967 1.01018 0
M  V30 58 C 6.8624 0.93182 2.08089 0
M  V30 59 C 7.8464 -0.110898 1.60517 0
M  V30 60 O 9.0384 0.0973392 1.76732 0
M  V30 61 C 6.1674 0.492719 3.39746 0
M  V30 62 C 5.2534 1.56922 3.94 0
M  V30 63 N 5.6444 2.79312 4.21686 0
M  V30 64 C 3.9424 1.43688 4.2222 0
M  V30 65 C 4.6434 3.48797 4.65527 0
M  V30 66 N 3.6194 2.76224 4.68189 0
M  V30 67 H 7.4214 1.86175 2.27412 0
M  V30 68 H 4.9354 1.10463 1.19045 0
M  V30 69 H 6.9324 0.275044 4.15992 0
M  V30 70 H 5.5924 -0.430509 3.21833 0
M  V30 71 H 6.6034 3.15903 4.10397 0
M  V30 72 H 3.2804 0.578548 4.13472 0
M  V30 73 H 4.6704 4.53561 4.95714 0
M  V30 74 N 7.3905 -1.2043 1.01659 0
M  V30 75 C 8.6385 -1.89423 0.704522 0
M  V30 76 C 8.9595 -1.79231 -0.768197 0
M  V30 77 O 8.2295 -1.1947 -1.55254 0
M  V30 78 H 6.8095 -0.701178 0.257602 0
M  V30 79 H 9.4715 -1.4626 1.28818 0
M  V30 80 H 8.5675 -2.96052 0.987916 0
M  V30 81 N 8.8686 -0.792821 -1.36206 0
M  V30 82 C 9.7986 -0.207853 -2.32573 0
M  V30 83 C 10.7796 0.659055 -1.56813 0
M  V30 84 O 11.9646 0.592176 -1.84951 0
M  V30 85 C 9.0946 0.655449 -3.41059 0
M  V30 86 C 8.0486 -0.111842 -4.27854 0
M  V30 87 C 7.3746 0.872274 -5.27537 0
M  V30 88 C 8.6746 -1.30299 -5.05786 0
M  V30 89 H 10.3686 -1.01294 -2.81744 0
M  V30 90 H 7.9146 -0.48854 -1.3546 0
M  V30 91 H 9.8676 1.07464 -4.07467 0
M  V30 92 H 8.5916 1.49328 -2.90463 0
M  V30 93 H 7.2506 -0.512053 -3.63006 0
M  V30 94 H 6.8986 1.70523 -4.73214 0
M  V30 95 H 6.5986 0.363291 -5.86476 0
M  V30 96 H 8.1226 1.28996 -5.96818 0
M  V30 97 H 9.5366 -0.959379 -5.65216 0
M  V30 98 H 7.9336 -1.7455 -5.74154 0
M  V30 99 H 9.0036 -2.09663 -4.37229 0
M  V30 100 N 10.3467 1.47872 -0.545128 0
M  V30 101 C 11.5717 2.07391 -0.0190611 0
M  V30 102 C 11.9967 1.39688 1.25971 0
M  V30 103 O 11.3547 0.467816 1.7516 0
M  V30 104 C 11.4027 3.60188 0.172335 0
M  V30 105 O 10.5067 3.9339 1.23766 0
M  V30 106 H 9.8477 0.662411 -0.0459059 0
M  V30 107 H 12.3777 1.90066 -0.757365 0
M  V30 108 H 12.3877 4.06129 0.390305 0
M  V30 109 H 11.0627 4.08865 -0.761725 0
M  V30 110 H 9.6397 3.5921 1.00114 0
M  V30 111 N 11.8248 0.280983 1.55075 0
M  V30 112 C 13.2358 -0.215629 1.85451 0
M  V30 113 C 13.5868 -1.54991 1.203 0
M  V30 114 O 12.7118 -2.10699 0.493435 0
M  V30 115 C 13.3068 -0.398026 3.36454 0
M  V30 116 C 11.8658 -0.838866 3.66933 0
M  V30 117 C 11.0128 0.064458 2.77225 0
M  V30 118 H 13.9638 0.502601 1.50531 0
M  V30 119 H 13.9848 -1.23569 3.59876 0
M  V30 120 H 13.4968 0.573241 3.83843 0
M  V30 121 H 11.5978 -1.8214 3.25048 0
M  V30 122 H 11.7108 -0.672123 4.74362 0
M  V30 123 H 10.0748 -0.452863 2.50642 0
M  V30 124 H 10.8578 1.03172 3.2743 0
M  V30 125 N 13.3029 -1.57598 0.00835791 0
M  V30 126 C 14.2329 -2.1198 -0.979113 0
M  V30 127 C 15.2139 -1.03091 -1.35301 0
M  V30 128 O 16.3989 -1.30818 -1.43528 0
M  V30 129 C 13.5289 -2.62995 -2.26828 0
M  V30 130 C 12.4829 -3.76485 -2.03576 0
M  V30 131 C 11.8089 -4.13846 -3.38579 0
M  V30 132 C 13.1089 -5.0342 -1.39161 0
M  V30 133 H 14.8029 -2.94738 -0.526281 0
M  V30 134 H 12.3489 -1.41783 -0.251704 0
M  V30 135 H 14.3019 -2.99669 -2.96271 0
M  V30 136 H 13.0259 -1.7737 -2.7424 0
M  V30 137 H 11.6849 -3.40217 -1.36557 0
M  V30 138 H 11.3329 -3.25232 -3.83709 0
M  V30 139 H 11.0329 -4.90312 -3.23834 0
M  V30 140 H 12.5569 -4.53086 -4.09323 0
M  V30 141 H 13.9709 -5.37812 -1.98573 0
M  V30 142 H 12.3679 -5.84746 -1.34878 0
M  V30 143 H 13.4379 -4.83548 -0.361868 0
M  V30 144 N 14.781 0.264519 -1.55364 0
M  V30 145 C 16.006 1.01726 -1.80739 0
M  V30 146 C 16.431 1.78836 -0.583044 0
M  V30 147 O 15.789 1.75167 0.467566 0
M  V30 148 C 15.837 1.94482 -3.03659 0
M  V30 149 O 14.941 3.03386 -2.7934 0
M  V30 150 H 14.282 0.290395 -0.597132 0
M  V30 151 H 16.812 0.290854 -2.02522 0
M  V30 152 H 16.822 2.36278 -3.32621 0
M  V30 153 H 15.497 1.37772 -3.92418 0
M  V30 154 H 14.074 2.65844 -2.61498 0
M  V30 155 N 16.2591 1.48442 0.529413 0
M  V30 156 C 17.2061 1.63007 1.63394 0
M  V30 157 C 18.1761 0.47212 1.59249 0
M  V30 158 O 19.3611 0.695673 1.77666 0
M  V30 159 C 16.5011 1.6763 3.01653 0
M  V30 160 C 15.6141 2.94535 3.16027 0
M  V30 161 C 14.7491 2.90316 4.44849 0
M  V30 162 C 13.7881 4.11923 4.52754 0
M  V30 163 N 12.9251 4.05777 5.72965 0
M  V30 164 H 17.7651 2.5733 1.50285 0
M  V30 165 H 15.3021 1.27613 0.731656 0
M  V30 166 H 17.2601 1.68292 3.81751 0
M  V30 167 H 15.8901 0.76797 3.13532 0
M  V30 168 H 14.9421 3.03615 2.29177 0
M  V30 169 H 16.2541 3.84512 3.17729 0
M  V30 170 H 15.4081 2.89382 5.33238 0
M  V30 171 H 14.1471 1.98068 4.45668 0
M  V30 172 H 13.1521 4.13131 3.62771 0
M  V30 173 H 14.3771 5.0533 4.53672 0
M  V30 174 H 12.3231 3.16351 5.74681 0
M  V30 175 H 12.2401 4.8946 5.76164 0
M  V30 176 H 13.5081 4.08904 6.6364 0
M  V30 177 N 17.7372 -0.778329 1.37039 0
M  V30 178 C 18.7002 -1.87301 1.32102 0
M  V30 179 C 19.7002 -1.59198 0.226405 0
M  V30 180 O 20.8902 -1.67403 0.481861 0
M  V30 181 C 18.0222 -3.24309 1.05055 0
M  V30 182 H 19.2152 -1.93093 2.29467 0
M  V30 183 H 16.7682 -0.977358 1.21973 0
M  V30 184 H 17.5032 -3.24196 0.0819373 0
M  V30 185 H 17.2882 -3.46098 1.84279 0
M  V30 186 H 18.7782 -4.04382 1.04234 0
M  V30 187 N 19.2153 -1.21501 -1.00376 0
M  V30 188 C 20.4623 -1.03299 -1.74171 0
M  V30 189 C 20.7903 0.433326 -1.89612 0
M  V30 190 O 20.0453 1.33779 -1.42834 0
M  V30 191 C 20.3443 -1.67673 -3.15627 0
M  V30 192 C 20.0103 -3.17533 -3.2013 0
M  V30 193 C 18.6723 -3.58427 -3.21067 0
M  V30 194 C 21.0243 -4.13504 -3.17275 0
M  V30 195 C 18.3523 -4.93794 -3.16835 0
M  V30 196 C 20.7043 -5.48834 -3.14585 0
M  V30 197 C 19.3683 -5.89123 -3.13831 0
M  V30 198 H 18.6383 -0.377999 -0.637336 0
M  V30 199 H 21.2853 -1.51111 -1.17634 0
M  V30 200 H 19.5903 -1.12158 -3.75404 0
M  V30 201 H 21.2873 -1.51091 -3.71446 0
M  V30 202 H 17.8773 -2.84965 -3.20145 0
M  V30 203 H 22.0613 -3.82936 -3.15711 0
M  V30 204 H 17.3173 -5.24255 -3.1459 0
M  V30 205 H 21.4913 -6.22934 -3.1133 0
M  V30 206 H 19.1183 -6.93984 -3.10307 0
M  V30 207 N 20.6934 1.19889 -1.02296 0
M  V30 208 C 21.6234 2.25141 -0.619174 0
M  V30 209 C 22.6044 1.66051 0.368915 0
M  V30 210 O 23.7894 1.92546 0.252941 0
M  V30 211 C 20.9194 3.4728 0.0368783 0
M  V30 212 C 19.8734 4.19005 -0.872865 0
M  V30 213 C 19.1994 5.34637 -0.0822402 0
M  V30 214 C 20.4994 4.74452 -2.18387 0
M  V30 215 H 22.1934 2.59171 -1.49903 0
M  V30 216 H 19.7394 1.24579 -0.722222 0
M  V30 217 H 21.6924 4.20098 0.330958 0
M  V30 218 H 20.4164 3.12433 0.95149 0
M  V30 219 H 19.0754 3.48061 -1.15105 0
M  V30 220 H 18.7234 4.96034 0.83422 0
M  V30 221 H 18.4234 5.83557 -0.688149 0
M  V30 222 H 19.9474 6.10255 0.205238 0
M  V30 223 H 21.3614 5.39055 -1.95172 0
M  V30 224 H 19.7584 5.33834 -2.74119 0
M  V30 225 H 20.8284 3.92844 -2.84257 0
M  V30 226 N 22.1715 0.800033 1.35784 0
M  V30 227 C 23.1045 0.151499 2.27697 0
M  V30 228 C 24.0825 -0.678663 1.4776 0
M  V30 229 O 25.2665 -0.647358 1.77035 0
M  V30 230 C 22.3935 -0.790492 3.29346 0
M  V30 231 C 21.4395 -0.0407832 4.26481 0
M  V30 232 S 22.2725 1.29077 5.19711 0
M  V30 233 C 23.4285 0.353055 6.24903 0
M  V30 234 H 23.6615 0.930796 2.82353 0
M  V30 235 H 21.1945 0.594767 1.42485 0
M  V30 236 H 23.1525 -1.3285 3.88409 0
M  V30 237 H 21.8135 -1.54312 2.73581 0
M  V30 238 H 21.0065 -0.755971 4.98298 0
M  V30 239 H 20.6085 0.427063 3.71554 0
M  V30 240 H 22.9005 -0.464147 6.75908 0
M  V30 241 H 23.8435 1.04023 7.00418 0
M  V30 242 H 24.2515 -0.0483344 5.64479 0
M  V30 243 N 23.6496 -1.47581 0.552962 0
M  V30 244 C 25.0656 -1.5818 0.212424 0
M  V30 245 C 25.2656 -1.55213 -1.28496 0
M  V30 246 O 24.3216 -1.45329 -2.06484 0
M  V30 247 C 25.6346 -2.88865 0.835318 0
M  V30 248 C 27.1826 -3.0244 0.806156 0
M  V30 249 C 27.6576 -4.35819 1.40804 0
M  V30 250 N 29.1486 -4.42444 1.37103 0
M  V30 251 C 29.8836 -5.44202 1.80641 0
M  V30 252 N 29.3796 -6.52795 2.32015 0
M  V30 253 N 31.1726 -5.35222 1.71738 0
M  V30 254 H 23.3236 -1.47753 1.52587 0
M  V30 255 H 25.5866 -0.702941 0.636064 0
M  V30 256 H 25.2926 -2.9676 1.88749 0
M  V30 257 H 25.1666 -3.7579 0.325848 0
M  V30 258 H 27.5536 -2.94144 -0.237317 0
M  V30 259 H 27.6346 -2.17068 1.35334 0
M  V30 260 H 27.2786 -4.44871 2.45056 0
M  V30 261 H 27.2086 -5.19916 0.836338 0
M  V30 262 H 29.6996 -3.6456 0.995202 0
M  V30 263 H 30.0126 -7.26609 2.63171 0
M  V30 264 H 28.3576 -6.53696 2.36023 0
M  V30 265 H 31.5486 -4.49284 1.31382 0
M  V30 266 H 31.7216 -6.14389 2.05987 0
M  V30 267 N 25.1277 -0.289203 -1.54924 0
M  V30 268 C 26.5437 0.0645403 -1.59469 0
M  V30 269 C 26.7437 1.53419 -1.30632 0
M  V30 270 O 25.7997 2.2852 -1.074 0
M  V30 271 C 27.1127 -0.32278 -2.98963 0
M  V30 272 C 28.6607 -0.270564 -3.11828 0
M  V30 273 C 29.1357 -0.632532 -4.53611 0
M  V30 274 N 30.6267 -0.584617 -4.59496 0
M  V30 275 C 31.3617 -0.837314 -5.67254 0
M  V30 276 N 30.8577 -1.15536 -6.83098 0
M  V30 277 N 32.6507 -0.765166 -5.56868 0
M  V30 278 H 24.8017 -1.24714 -1.71931 0
M  V30 279 H 27.0647 -0.504809 -0.802416 0
M  V30 280 H 26.7707 -1.34541 -3.24948 0
M  V30 281 H 26.6447 0.32944 -3.75759 0
M  V30 282 H 29.0317 0.742805 -2.85598 0
M  V30 283 H 29.1127 -0.957242 -2.37214 0
M  V30 284 H 28.7567 -1.64365 -4.80569 0
M  V30 285 H 28.6867 0.07609 -5.26545 0
M  V30 286 H 31.1777 -0.349248 -3.76283 0
M  V30 287 H 31.4907 -1.33447 -7.61191 0
M  V30 288 H 29.8357 -1.19328 -6.84679 0
M  V30 289 H 33.0267 -0.516432 -4.65243 0
M  V30 290 H 33.1997 -0.965477 -6.40767 0
M  V30 291 N 26.6058 1.57591 -0.0167156 0
M  V30 292 C 27.5688 2.08393 0.954204 0
M  V30 293 C 28.5688 0.996531 1.26198 0
M  V30 294 O 29.7588 1.25858 1.20438 0
M  V30 295 C 26.8908 2.5394 2.27436 0
M  V30 296 H 28.0838 2.95455 0.514451 0
M  V30 297 H 25.6368 1.54582 0.231089 0
M  V30 298 H 26.3718 1.70171 2.76066 0
M  V30 299 H 26.1568 3.33371 2.06412 0
M  V30 300 H 27.6468 2.93512 2.97053 0
M  V30 301 N 28.0839 -0.256276 1.55502 0
M  V30 302 C 29.3309 -0.985619 1.76895 0
M  V30 303 C 29.6589 -1.85671 0.579355 0
M  V30 304 O 28.9139 -1.90744 -0.437651 0
M  V30 305 C 29.2129 -1.88432 3.03691 0
M  V30 306 C 28.8789 -1.16936 4.35473 0
M  V30 307 C 27.5409 -0.97173 4.71286 0
M  V30 308 C 29.8929 -0.661889 5.1698 0
M  V30 309 C 27.2209 -0.254179 5.86149 0
M  V30 310 C 29.5729 0.042149 6.32586 0
M  V30 311 C 28.2369 0.25134 6.67027 0
M  V30 312 H 27.5069 -0.360663 0.647304 0
M  V30 313 H 30.1539 -0.256483 1.89775 0
M  V30 314 H 28.4589 -2.68021 2.85783 0
M  V30 315 H 30.1559 -2.45015 3.1744 0
M  V30 316 H 26.7459 -1.33332 4.07333 0
M  V30 317 H 30.9299 -0.802145 4.89775 0
M  V30 318 H 26.1859 -0.0815408 6.11346 0
M  V30 319 H 30.3599 0.443049 6.94989 0
M  V30 320 H 27.9869 0.809314 7.5588 0
M  V30 321 N 29.562 -1.4872 -0.521534 0
M  V30 322 C 30.494 -1.59968 -1.64143 0
M  V30 323 C 31.507 -0.483463 -1.55456 0
M  V30 324 O 32.696 -0.75467 -1.61762 0
M  V30 325 C 29.796 -1.52127 -3.02838 0
M  V30 326 C 28.969 -2.78932 -3.36921 0
M  V30 327 C 28.028 -2.64428 -4.54933 0
M  V30 328 O 27.054 -3.38331 -4.57735 0
M  V30 329 N 28.256 -1.74606 -5.53618 0
M  V30 330 H 31.021 -2.56548 -1.54929 0
M  V30 331 H 28.582 -1.45551 -0.708988 0
M  V30 332 H 30.574 -1.40106 -3.79674 0
M  V30 333 H 29.144 -0.634868 -3.06085 0
M  V30 334 H 28.364 -3.05455 -2.4918 0
M  V30 335 H 29.652 -3.63041 -3.56481 0
M  V30 336 H 29.05 -1.13782 -5.54139 0
M  V30 337 H 27.607 -1.6852 -6.29638 0
M  V30 338 N 31.0401 0.771051 -1.3745 0
M  V30 339 C 32.4561 1.07171 -1.18265 0
M  V30 340 C 32.6561 2.01491 -0.019287 0
M  V30 341 O 31.7121 2.44244 0.640408 0
M  V30 342 C 33.0251 1.66854 -2.50161 0
M  V30 343 C 34.5731 1.79109 -2.56689 0
M  V30 344 C 35.0481 2.42205 -3.88717 0
M  V30 345 N 36.5391 2.49655 -3.90162 0
M  V30 346 C 37.2741 2.9933 -4.8907 0
M  V30 347 N 36.7701 3.49172 -5.98374 0
M  V30 348 N 38.5631 2.9821 -4.76474 0
M  V30 349 H 30.7141 0.144796 -2.11906 0
M  V30 350 H 32.9771 0.126863 -0.939473 0
M  V30 351 H 32.6831 1.05017 -3.35655 0
M  V30 352 H 32.5571 2.6614 -2.673 0
M  V30 353 H 34.9441 2.40077 -1.71601 0
M  V30 354 H 35.0251 0.785757 -2.43433 0
M  V30 355 H 34.6691 1.81875 -4.74219 0
M  V30 356 H 34.5991 3.43345 -3.99276 0
M  V30 357 H 37.0901 2.14383 -3.11205 0
M  V30 358 H 37.4031 3.8548 -6.69795 0
M  V30 359 H 35.7481 3.47275 -6.02018 0
M  V30 360 H 38.9391 2.58572 -3.90203 0
M  V30 361 H 39.1121 3.36613 -5.53711 0
M  V30 362 N 32.5182 1.22032 0.997298 0
M  V30 363 C 33.9342 0.979326 1.26021 0
M  V30 364 C 34.1342 -0.32972 1.98784 0
M  V30 365 O 33.1902 -1.05345 2.29475 0
M  V30 366 C 34.5032 2.17509 2.07631 0
M  V30 367 C 36.0512 2.21817 2.2083 0
M  V30 368 C 36.5262 3.40933 3.05825 0
M  V30 369 N 38.0172 3.41067 3.13412 0
M  V30 370 C 38.7522 4.29885 3.79455 0
M  V30 371 N 38.2482 5.28914 4.47462 0
M  V30 372 N 40.0412 4.17673 3.76173 0
M  V30 373 H 32.1922 2.06202 0.509352 0
M  V30 374 H 34.4552 0.90334 0.287541 0
M  V30 375 H 34.1612 3.12415 1.61524 0
M  V30 376 H 34.0352 2.17206 3.08385 0
M  V30 377 H 36.4222 1.27462 2.66153 0
M  V30 378 H 36.5032 2.2616 1.1952 0
M  V30 379 H 36.1472 4.35586 2.61203 0
M  V30 380 H 36.0772 3.33829 4.07266 0
M  V30 381 H 38.5682 2.69406 2.65007 0
M  V30 382 H 38.8812 5.92973 4.95583 0
M  V30 383 H 37.2262 5.32831 4.46224 0
M  V30 384 H 40.4172 3.39564 3.22202 0
M  V30 385 H 40.5902 4.87098 4.27363 0
M  V30 386 N 33.9963 -1.19345 1.0293 0
M  V30 387 C 35.2453 -1.88363 0.721256 0
M  V30 388 C 35.5583 -1.80514 -0.753254 0
M  V30 389 O 36.7643 -2.44788 -1.17436 0
M  V30 390 C 35.2203 -3.37872 1.23978 0
M  V30 391 C 34.8283 -3.54278 2.74211 0
M  V30 392 C 36.5723 -4.12365 1.00775 0
M  V30 393 C 34.4793 -4.97682 3.19479 0
M  V30 394 H 33.4093 -0.705484 0.266098 0
M  V30 395 H 36.0603 -1.34928 1.24365 0
M  V30 396 H 34.4423 -3.90707 0.6453 0
M  V30 397 H 35.6163 -3.11769 3.39318 0
M  V30 398 H 33.9313 -2.93174 2.95699 0
M  V30 399 H 36.5283 -5.18119 1.32123 0
M  V30 400 H 36.8713 -4.16263 -0.0554308 0
M  V30 401 H 37.4043 -3.65668 1.56625 0
M  V30 402 H 34.1433 -4.98945 4.25128 0
M  V30 403 H 33.6633 -5.4095 2.591 0
M  V30 404 H 35.3423 -5.66337 3.12845 0
M  V30 405 N 35.4744 -0.807222 -1.35358 0
M  V30 406 C 36.4044 -0.232509 -2.3234 0
M  V30 407 C 37.3854 0.642386 -1.57504 0
M  V30 408 O 38.5704 0.572526 -1.85569 0
M  V30 409 C 35.7004 0.619238 -3.41735 0
M  V30 410 C 34.6544 -0.157215 -4.27711 0
M  V30 411 C 33.9804 0.816273 -5.28433 0
M  V30 412 C 35.2804 -1.35656 -5.04376 0
M  V30 413 H 36.9744 -1.04276 -2.80654 0
M  V30 414 H 34.5204 -0.50288 -1.34934 0
M  V30 415 H 36.4734 1.03137 -4.08584 0
M  V30 416 H 35.1974 1.46239 -2.92031 0
M  V30 417 H 33.8564 -0.550525 -3.62443 0
M  V30 418 H 33.5044 1.65494 -4.74996 0
M  V30 419 H 33.2044 0.301067 -5.86828 0
M  V30 420 H 34.7284 1.22659 -5.98153 0
M  V30 421 H 36.1424 -1.01927 -5.64166 0
M  V30 422 H 34.5394 -1.8063 -5.7227 0
M  V30 423 H 35.6094 -2.14288 -4.34981 0
M  V30 424 N 36.9525 1.47285 -0.560781 0
M  V30 425 C 38.3635 1.86258 -0.128343 0
M  V30 426 C 38.7145 1.46699 1.30284 0
M  V30 427 O 37.8395 0.871698 1.98067 0
M  V30 428 C 38.4345 3.38044 -0.22614 0
M  V30 429 C 36.9935 3.76096 0.151283 0
M  V30 430 C 36.1405 2.71335 -0.572084 0
M  V30 431 H 39.0915 1.38752 -0.770297 0
M  V30 432 H 39.1125 3.76441 0.554322 0
M  V30 433 H 38.6245 3.66806 -1.26788 0
M  V30 434 H 36.7255 3.52951 1.19399 0
M  V30 435 H 36.8385 4.78641 -0.209765 0
M  V30 436 H 35.2025 2.54696 -0.0147653 0
M  V30 437 H 35.9855 3.02938 -1.61504 0
M  V30 438 N 38.4306 0.297415 1.54768 0
M  V30 439 C 39.3806 -0.595275 2.20092 0
M  V30 440 C 40.3646 -1.10163 1.17273 0
M  V30 441 O 41.5566 -1.043 1.43006 0
M  V30 442 C 38.6856 -1.7684 2.94249 0
M  V30 443 C 37.7716 -1.27818 4.0438 0
M  V30 444 N 38.1626 -0.505695 5.03266 0
M  V30 445 C 36.4606 -1.55923 4.17857 0
M  V30 446 C 37.1616 -0.245094 5.81183 0
M  V30 447 N 36.1376 -0.823881 5.3732 0
M  V30 448 H 39.9396 0.00250837 2.939 0
M  V30 449 H 37.4536 0.102007 1.62079 0
M  V30 450 H 39.4506 -2.41944 3.39513 0
M  V30 451 H 38.1106 -2.36992 2.21957 0
M  V30 452 H 39.1216 -0.150928 5.1768 0
M  V30 453 H 35.7986 -2.16849 3.56767 0
M  V30 454 H 37.1886 0.375084 6.70852 0
M  V30 455 N 39.9087 -1.5758 0.0250728 0
M  V30 456 C 41.1337 -1.96337 -0.668317 0
M  V30 457 C 41.5587 -0.901314 -1.651 0
M  V30 458 O 40.9167 0.138187 -1.80773 0
M  V30 459 C 40.9647 -3.34191 -1.35457 0
M  V30 460 O 40.0687 -3.30269 -2.46974 0
M  V30 461 H 39.4097 -0.640281 -0.175887 0
M  V30 462 H 41.9397 -2.0442 0.0857224 0
M  V30 463 H 41.9497 -3.70331 -1.71228 0
M  V30 464 H 40.6247 -4.11036 -0.634218 0
M  V30 465 H 39.2017 -3.05841 -2.13344 0
M  V30 466 N 41.3868 0.248026 -1.55636 0
M  V30 467 C 42.3168 1.31079 -1.93237 0
M  V30 468 C 43.2978 1.50264 -0.797174 0
M  V30 469 O 44.4828 1.62891 -1.05737 0
M  V30 470 C 41.6128 2.66575 -2.22609 0
M  V30 471 C 40.5668 2.62087 -3.3837 0
M  V30 472 C 39.8928 4.01369 -3.53281 0
M  V30 473 C 41.1928 2.19171 -4.7409 0
M  V30 474 H 42.8868 0.998556 -2.82257 0
M  V30 475 H 40.4328 0.47891 -1.35803 0
M  V30 476 H 42.3858 3.41057 -2.47503 0
M  V30 477 H 41.1098 2.99432 -1.30414 0
M  V30 478 H 39.7688 1.90063 -3.13483 0
M  V30 479 H 39.4168 4.31489 -2.58508 0
M  V30 480 H 39.1168 3.99254 -4.31127 0
M  V30 481 H 40.6408 4.77552 -3.80495 0
M  V30 482 H 42.0548 2.83384 -4.98363 0
M  V30 483 H 40.4518 2.2817 -5.5503 0
M  V30 484 H 41.5218 1.14336 -4.71227 0
M  V30 485 N 42.8649 1.48995 0.513639 0
M  V30 486 C 43.8279 1.64229 1.59879 0
M  V30 487 C 44.8279 0.514696 1.5234 0
M  V30 488 O 46.0179 0.78087 1.55718 0
M  V30 489 C 43.1499 1.62783 2.99524 0
M  V30 490 H 44.3429 2.61004 1.47705 0
M  V30 491 H 41.8959 1.37837 0.736936 0
M  V30 492 H 42.6309 0.675461 3.17188 0
M  V30 493 H 42.4159 2.4466 3.06404 0
M  V30 494 H 43.9059 1.76669 3.78388 0
M  V30 495 N 44.343 -0.763751 1.37857 0
M  V30 496 C 45.276 -1.88486 1.28639 0
M  V30 497 C 46.254 -1.61757 0.165363 0
M  V30 498 O 47.438 -1.85391 0.340948 0
M  V30 499 C 44.565 -3.23884 0.990811 0
M  V30 500 C 43.611 -3.69514 2.12983 0
M  V30 501 S 44.444 -3.82244 3.75033 0
M  V30 502 C 45.6 -5.20477 3.47641 0
M  V30 503 H 45.833 -1.96017 2.23527 0
M  V30 504 H 43.366 -0.925684 1.23574 0
M  V30 505 H 45.324 -4.02081 0.827101 0
M  V30 506 H 43.985 -3.14044 0.0592832 0
M  V30 507 H 43.178 -4.67696 1.87821 0
M  V30 508 H 42.78 -2.98441 2.25408 0
M  V30 509 H 45.072 -6.05905 3.03125 0
M  V30 510 H 46.015 -5.50655 4.4518 0
M  V30 511 H 46.423 -4.88793 2.82385 0
M  V30 512 N 45.8211 -1.22559 -0.990812 0
M  V30 513 C 46.7841 -0.998863 -2.0629 0
M  V30 514 C 47.7841 0.0354834 -1.60761 0
M  V30 515 O 48.9741 -0.203231 -1.7301 0
M  V30 516 C 46.1061 -0.509203 -3.37076 0
M  V30 517 H 47.2991 -1.95014 -2.27837 0
M  V30 518 H 44.8521 -1.04456 -1.16269 0
M  V30 519 H 45.5871 0.446335 -3.21214 0
M  V30 520 H 45.3721 -1.25547 -3.71457 0
M  V30 521 H 46.8621 -0.370888 -4.1595 0
M  V30 522 N 47.2992 1.18797 -1.03562 0
M  V30 523 C 48.2292 2.24472 -0.643019 0
M  V30 524 C 49.2102 1.66433 0.351283 0
M  V30 525 O 50.3952 1.92803 0.232505 0
M  V30 526 C 47.5252 3.473 4.24935e-05 0
M  V30 527 C 46.4792 4.18055 -0.917257 0
M  V30 528 C 45.8052 5.34519 -0.138941 0
M  V30 529 C 47.1052 4.72109 -2.23407 0
M  V30 530 H 48.7992 2.57566 -1.52643 0
M  V30 531 H 46.3452 1.23806 -0.735394 0
M  V30 532 H 48.2982 4.20426 0.286383 0
M  V30 533 H 47.0222 3.13424 0.918299 0
M  V30 534 H 45.6812 3.46821 -1.1879 0
M  V30 535 H 45.3292 4.96891 0.781562 0
M  V30 536 H 45.0292 5.82794 -0.750005 0
M  V30 537 H 46.5532 6.10438 0.1405 0
M  V30 538 H 47.9672 5.36955 -2.00879 0
M  V30 539 H 46.3642 5.30897 -2.79765 0
M  V30 540 H 47.4342 3.89807 -2.88407 0
M  V30 541 N 48.7773 0.814389 1.34928 0
M  V30 542 C 50.0023 0.410097 2.03305 0
M  V30 543 C 50.4273 -0.973464 1.60951 0
M  V30 544 O 49.7853 -1.63185 0.789964 0
M  V30 545 C 49.8333 0.51049 3.56968 0
M  V30 546 O 48.9373 -0.473035 4.09678 0
M  V30 547 H 48.2783 0.170088 0.641846 0
M  V30 548 H 50.8083 1.10244 1.72358 0
M  V30 549 H 50.8183 0.383135 4.06197 0
M  V30 550 H 49.4933 1.51963 3.87144 0
M  V30 551 H 48.0703 -0.305272 3.71648 0
M  V30 552 N 50.2554 -1.46986 0.568584 0
M  V30 553 C 51.1854 -2.32946 -0.160753 0
M  V30 554 C 52.1664 -1.44487 -0.897631 0
M  V30 555 O 53.3514 -1.73327 -0.875867 0
M  V30 556 C 50.4814 -3.26494 -1.18403 0
M  V30 557 C 49.4354 -4.24282 -0.562895 0
M  V30 558 C 48.7614 -5.07236 -1.69163 0
M  V30 559 C 50.0614 -5.19989 0.490761 0
M  V30 560 H 51.7554 -2.94175 0.556916 0
M  V30 561 H 49.3014 -1.4146 0.26927 0
M  V30 562 H 51.2544 -3.85477 -1.70251 0
M  V30 563 H 49.9784 -2.63343 -1.93179 0
M  V30 564 H 48.6374 -3.66541 -0.0656164 0
M  V30 565 H 48.2854 -4.4048 -2.42871 0
M  V30 566 H 47.9854 -5.7345 -1.28174 0
M  V30 567 H 49.5094 -5.6908 -2.21314 0
M  V30 568 H 50.9234 -5.73271 0.0579047 0
M  V30 569 H 49.3204 -5.94469 0.820165 0
M  V30 570 H 50.3904 -4.64777 1.3824 0
M  V30 571 N 51.7335 -0.305618 -1.54608 0
M  V30 572 C 53.1445 0.186098 -1.8577 0
M  V30 573 C 53.4955 1.53058 -1.22751 0
M  V30 574 O 52.6205 2.09888 -0.526893 0
M  V30 575 C 53.2155 0.344449 -3.37044 0
M  V30 576 C 51.7745 0.780384 -3.68221 0
M  V30 577 C 50.9215 -0.108554 -2.77087 0
M  V30 578 H 53.8725 -0.526485 -1.49712 0
M  V30 579 H 53.8935 1.17828 -3.61796 0
M  V30 580 H 53.4055 -0.634235 -3.82883 0
M  V30 581 H 51.5065 1.76945 -3.27904 0
M  V30 582 H 51.6195 0.596572 -4.75371 0
M  V30 583 H 49.9835 0.412931 -2.5133 0
M  V30 584 H 50.7665 -1.08368 -3.25747 0
M  V30 585 N 53.2116 1.57565 -0.0334293 0
M  V30 586 C 54.1416 2.13511 0.945265 0
M  V30 587 C 55.1226 1.05231 1.33643 0
M  V30 588 O 56.3076 1.33084 1.41429 0
M  V30 589 C 53.4376 2.6657 2.22616 0
M  V30 590 C 52.3916 3.79676 1.97561 0
M  V30 591 C 51.7176 4.1918 3.31952 0
M  V30 592 C 53.0176 5.0557 1.31135 0
M  V30 593 H 54.7116 2.95538 0.479325 0
M  V30 594 H 52.2576 1.42166 0.229115 0
M  V30 595 H 54.2106 3.04344 2.91466 0
M  V30 596 H 52.9346 1.8171 2.71384 0
M  V30 597 H 51.5936 3.42347 1.31127 0
M  V30 598 H 51.2416 3.31296 3.78487 0
M  V30 599 H 50.9416 4.95402 3.15992 0
M  V30 600 H 52.4656 4.59541 4.02063 0
M  V30 601 H 53.8796 5.40903 1.89992 0
M  V30 602 H 52.2766 5.86818 1.25559 0
M  V30 603 H 53.3466 4.84062 0.284894 0
M  V30 604 N 54.6897 -0.239769 1.55765 0
M  V30 605 C 55.6527 -1.28038 1.90103 0
M  V30 606 C 56.6527 -1.40723 0.778055 0
M  V30 607 O 57.8427 -1.39301 1.04599 0
M  V30 608 C 54.9747 -2.65702 2.13577 0
M  V30 609 H 56.1677 -0.988048 2.83157 0
M  V30 610 H 53.7207 -0.479382 1.48767 0
M  V30 611 H 54.4557 -3.00063 1.23015 0
M  V30 612 H 54.2407 -2.57875 2.95369 0
M  V30 613 H 55.7307 -3.40828 2.41301 0
M  V30 614 N 56.1678 -1.49265 -0.50573 0
M  V30 615 C 57.4158 -1.582 -1.25766 0
M  V30 616 C 57.7368 -0.268482 -1.93143 0
M  V30 617 O 57.0068 0.711833 -1.8251 0
M  V30 618 H 55.5868 -0.582873 -0.467191 0
M  V30 619 H 58.2488 -1.85865 -0.586525 0
M  V30 620 H 57.3448 -2.37563 -2.02412 0
M  V30 621 N 57.6459 0.756429 -1.3826 0
M  V30 622 C 58.8759 1.54341 -1.3734 0
M  V30 623 C 59.2839 1.89159 0.0393917 0
M  V30 624 O 58.6269 1.5307 1.01565 0
M  V30 625 C 58.6889 2.87238 -2.16182 0
M  V30 626 C 58.3529 2.74973 -3.65019 0
M  V30 627 C 59.3499 2.44962 -4.58574 0
M  V30 628 C 57.0349 2.92515 -4.08338 0
M  V30 629 C 59.0289 2.32642 -5.93428 0
M  V30 630 C 56.7159 2.79815 -5.43274 0
M  V30 631 C 57.7139 2.49921 -6.35632 0
M  V30 632 O 57.4019 2.37275 -7.68086 0
M  V30 633 H 57.1339 0.484281 -0.471643 0
M  V30 634 H 59.6879 0.944152 -1.82414 0
M  V30 635 H 57.9179 3.49342 -1.65822 0
M  V30 636 H 59.6069 3.48731 -2.07705 0
M  V30 637 H 60.3729 2.31081 -4.26412 0
M  V30 638 H 56.2519 3.14781 -3.368 0
M  V30 639 H 59.7959 2.0923 -6.65484 0
M  V30 640 H 55.6929 2.93269 -5.75034 0
M  V30 641 H 56.4609 2.52509 -7.78577 0
M  V30 642 N 59.124 1.23083 0.984299 0
M  V30 643 C 60.37 1.06214 1.72761 0
M  V30 644 C 60.703 -0.400584 1.90024 0
M  V30 645 O 59.978 -1.29672 1.44967 0
M  V30 646 C 60.261 1.78375 3.12817 0
M  V30 647 C 60.114 3.32296 3.03149 0
M  V30 648 C 61.433 1.54309 4.12161 0
M  V30 649 H 58.552 0.387251 0.627061 0
M  V30 650 H 61.194 1.51536 1.14616 0
M  V30 651 H 59.344 1.39848 3.62457 0
M  V30 652 H 61.016 3.8032 2.61064 0
M  V30 653 H 59.259 3.6153 2.39747 0
M  V30 654 H 59.93 3.77972 4.02295 0
M  V30 655 H 62.406 1.87791 3.71314 0
M  V30 656 H 61.282 2.07281 5.08258 0
M  V30 657 H 61.543 0.477572 4.39513 0
M  V30 658 N 60.6021 -1.18246 1.0419 0
M  V30 659 C 61.5341 -2.2142 0.592088 0
M  V30 660 C 62.5471 -1.59233 -0.338909 0
M  V30 661 O 63.7361 -1.78002 -0.133231 0
M  V30 662 C 60.8361 -3.38546 -0.154854 0
M  V30 663 C 60.0091 -4.3031 0.784328 0
M  V30 664 C 59.0681 -5.26138 0.0804583 0
M  V30 665 O 58.0941 -5.64738 0.711292 0
M  V30 666 N 59.2961 -5.68261 -1.18574 0
M  V30 667 H 62.0611 -2.60636 1.47949 0
M  V30 668 H 59.6221 -1.33044 0.922544 0
M  V30 669 H 61.6141 -3.99678 -0.635606 0
M  V30 670 H 60.1841 -2.98012 -0.943811 0
M  V30 671 H 59.4041 -3.66764 1.44491 0
M  V30 672 H 60.6921 -4.8852 1.42218 0
M  V30 673 H 60.0901 -5.38957 -1.71876 0
M  V30 674 H 58.6471 -6.31584 -1.61074 0
M  V30 675 N 62.0802 -0.821533 -1.34494 0
M  V30 676 C 63.0432 -0.247847 -2.27856 0
M  V30 677 C 64.0432 0.573453 -1.50227 0
M  V30 678 O 65.2332 0.389759 -1.69784 0
M  V30 679 C 62.3652 0.652698 -3.34593 0
M  V30 680 H 63.5582 -1.07146 -2.80107 0
M  V30 681 H 61.1112 -0.593291 -1.44602 0
M  V30 682 H 61.8462 1.49943 -2.87555 0
M  V30 683 H 61.6312 0.065292 -3.92046 0
M  V30 684 H 63.1212 1.04793 -4.04238 0
M  V30 685 N 63.5583 1.46682 -0.576371 0
M  V30 686 C 64.4903 2.28341 0.198231 0
M  V30 687 C 65.5033 1.38141 0.861453 0
M  V30 688 O 66.6923 1.62797 0.732082 0
M  V30 689 C 63.7923 3.12986 1.29972 0
M  V30 690 C 62.9653 4.31271 0.729639 0
M  V30 691 C 62.0243 4.97363 1.71803 0
M  V30 692 O 61.0503 5.55156 1.25658 0
M  V30 693 N 62.2523 4.93796 3.05198 0
M  V30 694 H 65.0173 2.9546 -0.502324 0
M  V30 695 H 62.5783 1.56525 -0.413715 0
M  V30 696 H 64.5703 3.54066 1.96008 0
M  V30 697 H 63.1403 2.47984 1.90323 0
M  V30 698 H 62.3603 3.94052 -0.108012 0
M  V30 699 H 63.6483 5.07739 0.328438 0
M  V30 700 H 63.0463 4.48077 3.45317 0
M  V30 701 H 61.6033 5.38837 3.6674 0
M  V30 702 N 65.0364 0.313813 1.54444 0
M  V30 703 C 65.9464 -0.565714 2.27677 0
M  V30 704 C 66.9624 -1.13754 1.31666 0
M  V30 705 O 68.1384 -1.15959 1.64668 0
M  V30 706 C 65.2034 -1.71528 3.01296 0
M  V30 707 C 64.2644 -1.17624 4.12872 0
M  V30 708 C 63.4974 -2.27102 4.8297 0
M  V30 709 O 63.7204 -3.47256 4.52514 0
M  V30 710 O 62.6544 -1.9307 5.70094 0
M  V30 711 H 66.4804 0.0287296 3.03686 0
M  V30 712 H 64.0654 0.0798312 1.49187 0
M  V30 713 H 65.9474 -2.38476 3.4743 0
M  V30 714 H 64.6224 -2.29608 2.2817 0
M  V30 715 H 63.5294 -0.472124 3.71109 0
M  V30 716 H 64.8624 -0.640695 4.88012 0
M  V30 717 N 66.5145 -1.57545 0.0417849 0
M  V30 718 C 67.7605 -1.92601 -0.635021 0
M  V30 719 C 68.0935 -0.919627 -1.71045 0
M  V30 720 O 67.3685 0.0557892 -1.9442 0
M  V30 721 C 67.6515 -3.38085 -1.23979 0
M  V30 722 C 67.5045 -4.49467 -0.173057 0
M  V30 723 C 68.8235 -3.83776 -2.15416 0
M  V30 724 H 65.9425 -0.700397 -0.229374 0
M  V30 725 H 68.5845 -1.89728 0.101633 0
M  V30 726 H 66.7345 -3.40664 -1.86762 0
M  V30 727 H 68.4065 -4.59018 0.458312 0
M  V30 728 H 66.6495 -4.30909 0.499996 0
M  V30 729 H 67.3205 -5.48323 -0.636054 0
M  V30 730 H 69.7965 -3.83013 -1.62605 0
M  V30 731 H 68.6725 -4.8624 -2.54679 0
M  V30 732 H 68.9335 -3.19998 -3.05047 0
M  V30 733 N 67.9926 0.231505 -1.5589 0
M  V30 734 C 68.9026 1.308 -1.94752 0
M  V30 735 C 69.9186 1.51826 -0.849989 0
M  V30 736 O 71.0946 1.6515 -1.15271 0
M  V30 737 C 68.1596 2.63968 -2.24771 0
M  V30 738 C 67.2206 2.51331 -3.48039 0
M  V30 739 C 66.4536 3.78148 -3.76616 0
M  V30 740 O 66.6766 4.80722 -3.07022 0
M  V30 741 O 65.6106 3.75857 -4.70123 0
M  V30 742 H 69.4366 1.0083 -2.86474 0
M  V30 743 H 67.0216 0.433547 -1.42971 0
M  V30 744 H 68.9036 3.42633 -2.45318 0
M  V30 745 H 67.5786 2.9364 -1.36225 0
M  V30 746 H 66.4856 1.709 -3.32782 0
M  V30 747 H 67.8186 2.26601 -4.36936 0
M  V30 748 N 69.4707 1.49531 0.497807 0
M  V30 749 C 70.7177 1.59179 1.25173 0
M  V30 750 C 71.0457 0.279932 1.92475 0
M  V30 751 O 70.3007 -0.732383 1.81479 0
M  V30 752 C 70.5997 2.70252 2.33878 0
M  V30 753 C 70.2657 4.11644 1.84012 0
M  V30 754 C 68.9277 4.50121 1.70132 0
M  V30 755 C 71.2797 5.00121 1.46725 0
M  V30 756 C 68.6077 5.74845 1.17348 0
M  V30 757 C 70.9597 6.25366 0.95392 0
M  V30 758 C 69.6237 6.6267 0.801538 0
M  V30 759 H 68.8937 0.582478 0.45804 0
M  V30 760 H 71.5407 1.83373 0.551948 0
M  V30 761 H 69.8457 2.40041 3.09657 0
M  V30 762 H 71.5427 2.74925 2.9192 0
M  V30 763 H 68.1327 3.81274 1.95775 0
M  V30 764 H 72.3167 4.71048 1.56294 0
M  V30 765 H 67.5727 6.02444 1.04264 0
M  V30 766 H 71.7467 6.93301 0.656225 0
M  V30 767 H 69.3737 7.59197 0.390351 0
M  V30 768 N 70.9488 -0.749086 1.3866 0
M  V30 769 C 72.2258 -1.4992 1.25632 0
M  V30 770 C 72.6058 -2.10633 -0.140317 0
M  V30 771 O 71.9538 -1.97437 -1.15025 0
M  V30 772 C 72.1638 -2.56195 2.36992 0
M  V30 773 C 73.5118 -3.22972 2.75634 0
M  V30 774 O 74.5358 -2.66502 2.36337 0
M  V30 775 O 73.3948 -4.25122 3.43415 0
M  V30 776 H 70.4888 -0.665067 0.491544 0
M  V30 777 H 73.0348 -0.784113 1.50498 0
M  V30 778 H 71.8068 -2.09612 3.30422 0
M  V30 779 H 71.4298 -3.35279 2.13714 0
M  V30 780 N 72.4269 -1.23603 -0.977757 0
M  V30 781 C 73.6759 -1.06377 -1.71368 0
M  V30 782 C 73.9889 0.399062 -1.91486 0
M  V30 783 O 75.1949 0.691312 -2.62551 0
M  V30 784 C 73.6509 -1.85512 -3.08404 0
M  V30 785 C 73.2589 -3.36141 -2.96164 0
M  V30 786 C 75.0029 -1.76783 -3.85938 0
M  V30 787 C 72.9099 -4.07659 -4.28449 0
M  V30 788 H 71.8399 -0.394452 -0.642591 0
M  V30 789 H 74.4909 -1.47594 -1.09034 0
M  V30 790 H 72.8729 -1.37103 -3.71509 0
M  V30 791 H 74.0469 -3.92056 -2.42133 0
M  V30 792 H 72.3619 -3.45712 -2.32104 0
M  V30 793 H 74.9589 -2.27526 -4.83876 0
M  V30 794 H 75.3019 -0.731116 -4.0983 0
M  V30 795 H 75.8349 -2.22818 -3.2954 0
M  V30 796 H 72.5739 -5.11648 -4.09752 0
M  V30 797 H 72.0939 -3.5653 -4.82334 0
M  V30 798 H 73.7729 -4.141 -4.97122 0
M  V30 799 N 73.905 1.17692 -1.04816 0
M  V30 800 C 75.316 1.69501 -0.782698 0
M  V30 801 C 75.667 1.83456 0.695577 0
M  V30 802 O 74.792 1.51942 1.54086 0
M  V30 803 C 75.387 3.07874 -1.41419 0
M  V30 804 C 73.946 3.56864 -1.19686 0
M  V30 805 C 73.093 2.3322 -1.50012 0
M  V30 806 H 76.044 1.02262 -1.2136 0
M  V30 807 H 76.065 3.71528 -0.821428 0
M  V30 808 H 75.577 2.97685 -2.49009 0
M  V30 809 H 73.678 3.72337 -0.140043 0
M  V30 810 H 73.791 4.39851 -1.89916 0
M  V30 811 H 72.155 2.37501 -0.920071 0
M  V30 812 H 72.938 2.25644 -2.58727 0
M  V30 813 N 75.3831 0.828654 1.34056 0
M  V30 814 C 76.7941 0.477534 1.8049 0
M  V30 815 C 77.1451 -1.00258 1.6865 0
M  V30 816 O 76.2701 -1.78057 1.22982 0
M  V30 817 C 76.8651 0.860018 3.27703 0
M  V30 818 C 75.4241 0.561185 3.72193 0
M  V30 819 C 74.5711 1.07385 2.55663 0
M  V30 820 H 77.5221 1.0183 1.21722 0
M  V30 821 H 77.5431 0.166038 3.80138 0
M  V30 822 H 77.0551 1.93731 3.36288 0
M  V30 823 H 75.1561 -0.506465 3.69142 0
M  V30 824 H 75.2691 1.10926 4.66082 0
M  V30 825 H 73.6331 0.495149 2.49841 0
M  V30 826 H 74.4161 2.15771 2.67016 0
M  V30 827 N 76.8612 -1.46375 0.584142 0
M  V30 828 C 77.7932 -2.28443 -0.186119 0
M  V30 829 C 78.8062 -1.38596 -0.854115 0
M  V30 830 O 79.9952 -1.63183 -0.723438 0
M  V30 831 C 77.0952 -3.13671 -1.28311 0
M  V30 832 C 76.2682 -4.31652 -0.706758 0
M  V30 833 C 75.3272 -4.98267 -1.69163 0
M  V30 834 O 74.3532 -5.55815 -1.22712 0
M  V30 835 N 75.5552 -4.95408 -3.02575 0
M  V30 836 H 78.3202 -2.9519 0.517986 0
M  V30 837 H 75.8812 -1.56303 0.42201 0
M  V30 838 H 77.8732 -3.55101 -1.94128 0
M  V30 839 H 76.4432 -2.48989 -1.89005 0
M  V30 840 H 75.6632 -3.93989 0.128908 0
M  V30 841 H 76.9512 -5.07906 -0.301506 0
M  V30 842 H 76.3492 -4.49902 -3.42936 0
M  V30 843 H 74.9062 -5.40774 -3.63877 0
M  V30 844 N 78.3393 -0.321999 -1.54275 0
M  V30 845 C 79.3023 0.531975 -2.22941 0
M  V30 846 C 80.3023 1.04478 -1.22234 0
M  V30 847 O 81.4923 0.937452 -1.46825 0
M  V30 848 C 78.6243 1.73874 -2.93224 0
M  V30 849 H 79.8173 -0.0682612 -2.99822 0
M  V30 850 H 77.3703 -0.0730644 -1.56129 0
M  V30 851 H 78.1053 2.37825 -2.20476 0
M  V30 852 H 77.8903 1.37847 -3.6707 0
M  V30 853 H 79.3803 2.34496 -3.45545 0
M  V30 854 N 79.8174 1.5752 -0.0501392 0
M  V30 855 C 80.7474 2.14502 0.922566 0
M  V30 856 C 81.7284 1.06642 1.3252 0
M  V30 857 O 82.9134 1.34577 1.4001 0
M  V30 858 C 80.0434 2.68916 2.19776 0
M  V30 859 C 78.9974 3.8175 1.93523 0
M  V30 860 C 78.3234 4.22677 3.27487 0
M  V30 861 C 79.6234 5.06932 1.25765 0
M  V30 862 H 81.3174 2.9603 0.447952 0
M  V30 863 H 78.8634 1.42401 0.214024 0
M  V30 864 H 80.8164 3.07419 2.88222 0
M  V30 865 H 79.5404 1.84578 2.69441 0
M  V30 866 H 78.1994 3.43718 1.27489 0
M  V30 867 H 77.8474 3.35291 3.74952 0
M  V30 868 H 77.5474 4.98725 3.1072 0
M  V30 869 H 79.0714 4.63779 3.97166 0
M  V30 870 H 80.4854 5.42888 1.84244 0
M  V30 871 H 78.8824 5.88116 1.19328 0
M  V30 872 H 79.9524 4.84337 0.233536 0
M  V30 873 N 81.2955 -0.223234 1.56011 0
M  V30 874 C 82.5435 -0.946003 1.78592 0
M  V30 875 C 82.8645 -1.84936 0.618349 0
M  V30 876 O 82.1345 -1.92473 -0.364833 0
M  V30 877 H 80.7145 -0.352298 0.658707 0
M  V30 878 H 83.3765 -0.235494 1.93472 0
M  V30 879 H 82.4725 -1.55381 2.70672 0
M  V30 880 N 82.7736 -1.49793 -0.48987 0
M  V30 881 C 83.9986 -1.63836 -1.27172 0
M  V30 882 C 84.4236 -0.31402 -1.8546 0
M  V30 883 O 83.7816 0.719803 -1.66399 0
M  V30 884 C 83.8296 -2.71797 -2.36978 0
M  V30 885 O 82.9336 -2.31744 -3.41128 0
M  V30 886 H 82.2746 -0.547997 -0.37496 0
M  V30 887 H 84.8046 -1.96053 -0.585191 0
M  V30 888 H 84.8146 -2.94305 -2.82575 0
M  V30 889 H 83.4896 -3.67923 -1.93921 0
M  V30 890 H 82.0666 -2.1961 -3.01373 0
M  V30 891 N 84.2517 0.741722 -1.39055 0
M  V30 892 C 85.2147 1.83733 -1.37021 0
M  V30 893 C 86.2147 1.58542 -0.268534 0
M  V30 894 O 87.4047 1.66067 -0.526076 0
M  V30 895 C 84.5367 3.2141 -1.13617 0
M  V30 896 H 85.7297 1.86941 -2.34506 0
M  V30 897 H 83.2827 0.944676 -1.24521 0
M  V30 898 H 84.0177 3.23865 -0.167863 0
M  V30 899 H 83.8027 3.4109 -1.93391 0
M  V30 900 H 85.2927 4.01477 -1.14918 0
M  V30 901 N 85.7298 1.2412 0.971189 0
M  V30 902 C 86.6598 1.05508 2.08304 0
M  V30 903 C 87.6408 -0.0308864 1.70072 0
M  V30 904 O 88.8258 0.135521 1.93727 0
M  V30 905 C 85.9558 0.655365 3.4106 0
M  V30 906 C 84.9098 1.68971 3.93234 0
M  V30 907 C 84.2358 1.14516 5.22293 0
M  V30 908 C 85.5358 3.08487 4.21465 0
M  V30 909 H 87.2298 1.98507 2.24132 0
M  V30 910 H 84.7758 0.955821 1.07704 0
M  V30 911 H 86.7288 0.51217 4.18276 0
M  V30 912 H 85.4528 -0.31032 3.25122 0
M  V30 913 H 84.1118 1.82106 3.18171 0
M  V30 914 H 83.7598 0.170189 5.02712 0
M  V30 915 H 83.4598 1.83635 5.58168 0
M  V30 916 H 84.9838 1.01401 6.02121 0
M  V30 917 H 86.3978 2.98601 4.89398 0
M  V30 918 H 84.7948 3.74926 4.68562 0
M  V30 919 H 85.8648 3.56787 3.28376 0
M  V30 920 N 87.2079 -1.17134 1.05439 0
M  V30 921 C 88.1399 -2.2078 0.615539 0
M  V30 922 C 89.1529 -1.59584 -0.322001 0
M  V30 923 O 90.3419 -1.78133 -0.114344 0
M  V30 924 C 87.4419 -3.38691 -0.118938 0
M  V30 925 C 86.6149 -4.29454 0.829924 0
M  V30 926 C 85.6739 -5.26024 0.136258 0
M  V30 927 O 84.6999 -5.63952 0.77115 0
M  V30 928 N 85.9019 -5.69487 -1.1254 0
M  V30 929 H 88.6669 -2.59052 1.50705 0
M  V30 930 H 86.2279 -1.32058 0.936603 0
M  V30 931 H 88.2199 -4.00329 -0.593179 0
M  V30 932 H 86.7899 -2.98996 -0.91215 0
M  V30 933 H 86.0099 -3.65211 1.48373 0
M  V30 934 H 87.2979 -4.86984 1.47392 0
M  V30 935 H 86.6959 -5.4075 -1.6615 0
M  V30 936 H 85.2529 -6.33257 -1.54366 0
M  V30 937 N 88.686 -0.835752 -1.33615 0
M  V30 938 C 89.596 -0.269088 -2.33052 0
M  V30 939 C 90.612 0.603251 -1.63208 0
M  V30 940 O 91.788 0.508112 -1.94885 0
M  V30 941 C 88.853 0.549091 -3.42324 0
M  V30 942 C 87.914 -0.347156 -4.27894 0
M  V30 943 C 87.147 0.43207 -5.31948 0
M  V30 944 O 87.37 1.66409 -5.45586 0
M  V30 945 O 86.304 -0.192298 -6.01593 0
M  V30 946 H 90.13 -1.09243 -2.83372 0
M  V30 947 H 87.715 -0.598198 -1.36901 0
M  V30 948 H 89.597 1.01414 -4.09015 0
M  V30 949 H 88.272 1.34955 -2.94226 0
M  V30 950 H 87.179 -0.859979 -3.64081 0
M  V30 951 H 88.512 -1.1123 -4.79467 0
M  V30 952 N 90.1641 1.46063 -0.591896 0
M  V30 953 C 91.4111 2.02338 -0.0809991 0
M  V30 954 C 91.7391 1.46228 1.28249 0
M  V30 955 O 90.9941 0.620818 1.85592 0
M  V30 956 C 91.2931 3.57391 0.0249813 0
M  V30 957 C 90.9591 4.32583 -1.27211 0
M  V30 958 C 89.6211 4.52844 -1.62745 0
M  V30 959 C 91.9731 4.75687 -2.13005 0
M  V30 960 C 89.3011 5.13462 -2.83855 0
M  V30 961 C 91.6531 5.37644 -3.3335 0
M  V30 962 C 90.3171 5.5613 -3.69155 0
M  V30 963 H 89.5871 0.740407 -0.0296397 0
M  V30 964 H 92.2341 1.75321 -0.770374 0
M  V30 965 H 90.5391 3.83597 0.797537 0
M  V30 966 H 92.2361 3.98621 0.436184 0
M  V30 967 H 88.8261 4.17116 -0.985499 0
M  V30 968 H 93.0101 4.59782 -1.86855 0
M  V30 969 H 88.2661 5.25965 -3.11722 0
M  V30 970 H 92.4401 5.7 -4.00092 0
M  V30 971 H 90.0671 6.0287 -4.63089 0
M  V30 972 N 91.6422 0.330177 1.54103 0
M  V30 973 C 92.8902 -0.269871 2.0029 0
M  V30 974 C 93.2112 -1.52133 1.21986 0
M  V30 975 O 92.4812 -1.93212 0.323438 0
M  V30 976 H 91.0612 -0.10271 0.739905 0
M  V30 977 H 93.7232 0.448249 1.89675 0
M  V30 978 H 92.8192 -0.52166 3.07709 0
M  V30 979 N 93.1203 -1.57491 0.0584922 0
M  V30 980 C 94.5363 -1.56792 -0.298091 0
M  V30 981 C 94.7363 -1.06679 -1.70944 0
M  V30 982 O 93.7923 -0.726672 -2.41818 0
M  V30 983 C 95.1053 -3.00461 -0.119879 0
M  V30 984 C 96.6533 -3.1242 -0.190428 0
M  V30 985 C 97.1283 -4.57982 -0.0406567 0
M  V30 986 N 98.6193 -4.63099 -0.0966958 0
M  V30 987 C 99.3543 -5.734 -0.00502943 0
M  V30 988 N 98.8503 -6.9266 0.139402 0
M  V30 989 N 100.643 -5.62067 -0.0611391 0
M  V30 990 H 92.7943 -1.88386 0.98105 0
M  V30 991 H 95.0573 -0.867865 0.381463 0
M  V30 992 H 94.7633 -3.41187 0.85349 0
M  V30 993 H 94.6373 -3.66843 -0.877833 0
M  V30 994 H 97.0243 -2.71589 -1.15427 0
M  V30 995 H 97.1053 -2.48702 0.598405 0
M  V30 996 H 96.7493 -4.995 0.919897 0
M  V30 997 H 96.6793 -5.19715 -0.848727 0
M  V30 998 H 99.1703 -3.77331 -0.207277 0
M  V30 999 H 99.4833 -7.72536 0.201855 0
M  V30 1000 H 97.8283 -6.94781 0.174586 0
M  V30 1001 H 101.019 -4.67782 -0.172583 0
M  V30 1002 H 101.192 -6.47999 0.0137562 0
M  V30 1003 N 94.5984 0.214957 -1.56127 0
M  V30 1004 C 95.5304 1.29004 -1.89448 0
M  V30 1005 C 96.5434 1.42716 -0.783326 0
M  V30 1006 O 97.7324 1.43496 -1.06166 0
M  V30 1007 C 94.8324 2.66482 -2.09381 0
M  V30 1008 C 94.0054 2.74633 -3.40434 0
M  V30 1009 C 93.0644 3.9317 -3.49719 0
M  V30 1010 O 92.0904 3.812 -4.227 0
M  V30 1011 N 93.2924 5.07765 -2.81346 0
M  V30 1012 H 96.0574 1.00743 -2.82261 0
M  V30 1013 H 93.6184 0.40497 -1.56753 0
M  V30 1014 H 95.6104 3.44173 -2.12901 0
M  V30 1015 H 94.1804 2.87314 -1.23163 0
M  V30 1016 H 93.4004 1.83368 -3.48955 0
M  V30 1017 H 94.6884 2.77054 -4.26754 0
M  V30 1018 H 94.0864 5.20386 -2.21843 0
M  V30 1019 H 92.6434 5.83474 -2.90519 0
M  V30 1020 N 96.0765 1.50051 0.48192 0
M  V30 1021 C 97.0395 1.67584 1.5636 0
M  V30 1022 C 98.0395 0.546894 1.51214 0
M  V30 1023 O 99.2295 0.813725 1.54026 0
M  V30 1024 C 96.3615 1.691 2.96003 0
M  V30 1025 H 97.5545 2.64078 1.42136 0
M  V30 1026 H 95.1075 1.39369 0.707533 0
M  V30 1027 H 95.8425 0.742589 3.15684 0
M  V30 1028 H 95.6275 2.51105 3.01146 0
M  V30 1029 H 97.1175 1.84656 3.74556 0
M  V30 1030 N 97.5546 -0.734337 1.39446 0
M  V30 1031 C 98.8316 -1.48579 1.27215 0
M  V30 1032 C 99.2116 -2.1077 -0.117968 0
M  V30 1033 O 98.5596 -1.98646 -1.12924 0
M  V30 1034 C 98.7696 -2.53667 2.39696 0
M  V30 1035 C 100.118 -3.20031 2.79044 0
M  V30 1036 O 101.142 -2.6398 2.39151 0
M  V30 1037 O 100.001 -4.21455 3.47905 0
M  V30 1038 H 97.0946 -0.659816 0.49857 0
M  V30 1039 H 99.6406 -0.768106 1.51322 0
M  V30 1040 H 98.4126 -2.06096 3.32626 0
M  V30 1041 H 98.0356 -3.32994 2.17258 0
M  V30 1042 N 99.0327 -1.24633 -0.964593 0
M  V30 1043 C 100.282 -1.08188 -1.7023 0
M  V30 1044 C 100.595 0.37873 -1.91898 0
M  V30 1045 O 101.801 0.663427 -2.6327 0
M  V30 1046 C 100.257 -1.88773 -3.06419 0
M  V30 1047 C 99.8647 -3.39263 -2.92582 0
M  V30 1048 C 101.609 -1.80867 -3.84041 0
M  V30 1049 C 99.5157 -4.1218 -4.24101 0
M  V30 1050 H 98.4457 -0.401245 -0.638372 0
M  V30 1051 H 101.097 -1.48742 -1.07462 0
M  V30 1052 H 99.4787 -1.41035 -3.70034 0
M  V30 1053 H 100.653 -3.94603 -2.37961 0
M  V30 1054 H 98.9677 -3.48154 -2.28424 0
M  V30 1055 H 101.565 -2.32646 -4.81435 0
M  V30 1056 H 101.908 -0.774543 -4.09031 0
M  V30 1057 H 102.441 -2.26301 -3.27159 0
M  V30 1058 H 99.1797 -5.15965 -4.04303 0
M  V30 1059 H 98.6997 -3.61626 -4.78526 0
M  V30 1060 H 100.379 -4.19349 -4.92702 0
M  V30 1061 N 100.511 1.16574 -1.06058 0
M  V30 1062 C 101.443 2.2045 -0.627239 0
M  V30 1063 C 102.456 1.59752 0.313534 0
M  V30 1064 O 103.645 1.78192 0.104896 0
M  V30 1065 C 100.745 3.3875 0.100974 0
M  V30 1066 C 99.9178 4.29008 -0.852687 0
M  V30 1067 C 98.9768 5.25944 -0.164152 0
M  V30 1068 O 98.0028 5.63535 -0.801047 0
M  V30 1069 N 99.2048 5.70075 1.09518 0
M  V30 1070 H 101.97 2.58249 -1.52077 0
M  V30 1071 H 99.5308 1.3156 -0.943594 0
M  V30 1072 H 101.523 4.00638 0.57194 0
M  V30 1073 H 100.093 2.99476 0.89628 0
M  V30 1074 H 99.3128 3.64419 -1.50308 0
M  V30 1075 H 100.601 4.86195 -1.49972 0
M  V30 1076 H 99.9988 5.41624 1.6328 0
M  V30 1077 H 98.5558 6.34067 1.51006 0
M  V30 1078 N 101.989 0.842826 1.3317 0
M  V30 1079 C 103.235 0.441099 1.97945 0
M  V30 1080 C 103.568 -0.998024 1.66593 0
M  V30 1081 O 102.843 -1.69839 0.947898 0
M  V30 1082 C 103.126 0.666841 3.53872 0
M  V30 1083 C 102.979 2.15352 3.94897 0
M  V30 1084 C 104.298 0.115544 4.39948 0
M  V30 1085 H 101.417 0.161739 0.719034 0
M  V30 1086 H 104.059 1.05907 1.57746 0
M  V30 1087 H 102.209 0.140828 3.88245 0
M  V30 1088 H 103.881 2.7447 3.70761 0
M  V30 1089 H 102.124 2.63653 3.44484 0
M  V30 1090 H 102.795 2.26221 5.03516 0
M  V30 1091 H 105.271 0.565213 4.12243 0
M  V30 1092 H 104.147 0.303152 5.48062 0
M  V30 1093 H 104.408 -0.980935 4.3108 0
M  V30 1094 N 103.467 -1.45747 0.599634 0
M  V30 1095 C 104.397 -2.33235 -0.111306 0
M  V30 1096 C 105.378 -1.46359 -0.866781 0
M  V30 1097 O 106.563 -1.75146 -0.838904 0
M  V30 1098 C 103.693 -3.28932 -1.11451 0
M  V30 1099 C 102.647 -4.25381 -0.472772 0
M  V30 1100 C 101.973 -5.1071 -1.58365 0
M  V30 1101 C 103.273 -5.18831 0.600948 0
M  V30 1102 H 104.967 -2.92927 0.61919 0
M  V30 1103 H 102.513 -1.40857 0.299215 0
M  V30 1104 H 104.466 -3.89002 -1.62036 0
M  V30 1105 H 103.19 -2.67381 -1.8755 0
M  V30 1106 H 101.849 -3.66598 0.0121472 0
M  V30 1107 H 101.497 -4.45533 -2.33473 0
M  V30 1108 H 101.197 -5.7604 -1.15982 0
M  V30 1109 H 102.721 -5.73647 -2.09194 0
M  V30 1110 H 104.135 -5.73019 0.179491 0
M  V30 1111 H 102.532 -5.92595 0.946076 0
M  V30 1112 H 103.602 -4.6174 1.48068 0
M  V30 1113 N 104.945 -0.338344 -1.53925 0
M  V30 1114 C 106.175 0.260919 -2.04946 0
M  V30 1115 C 106.583 1.45174 -1.2133 0
M  V30 1116 O 105.926 1.82122 -0.240262 0
M  V30 1117 C 105.988 0.744596 -3.51704 0
M  V30 1118 C 105.652 -0.325883 -4.55837 0
M  V30 1119 C 106.649 -1.16687 -5.06636 0
M  V30 1120 C 104.334 -0.478317 -5.00017 0
M  V30 1121 C 106.328 -2.14588 -6.00192 0
M  V30 1122 C 104.015 -1.46073 -5.93385 0
M  V30 1123 C 105.013 -2.29297 -6.4336 0
M  V30 1124 O 104.701 -3.25867 -7.34892 0
M  V30 1125 H 104.433 0.0551207 -0.673749 0
M  V30 1126 H 106.987 -0.486984 -1.99544 0
M  V30 1127 H 105.217 1.54366 -3.54553 0
M  V30 1128 H 106.906 1.26383 -3.85723 0
M  V30 1129 H 107.672 -1.06016 -4.73271 0
M  V30 1130 H 103.551 0.159613 -4.60724 0
M  V30 1131 H 107.095 -2.79585 -6.39123 0
M  V30 1132 H 102.992 -1.56802 -6.26166 0
M  V30 1133 H 103.76 -3.21278 -7.5281 0
M  V30 1134 N 106.423 1.57458 -0.0668435 0
M  V30 1135 C 107.839 1.56947 0.289772 0
M  V30 1136 C 108.039 1.07584 1.70376 0
M  V30 1137 O 107.095 0.739486 2.41429 0
M  V30 1138 C 108.408 3.0052 0.103943 0
M  V30 1139 C 109.956 3.12517 0.173857 0
M  V30 1140 C 110.431 4.57997 0.0163682 0
M  V30 1141 N 111.922 4.63144 0.0721352 0
M  V30 1142 C 112.657 5.73394 -0.0253794 0
M  V30 1143 N 112.153 6.92576 -0.176133 0
M  V30 1144 N 113.946 5.62091 0.0313305 0
M  V30 1145 H 106.097 1.87863 -0.991027 0
M  V30 1146 H 108.36 0.86583 -0.38606 0
M  V30 1147 H 108.066 3.40729 -0.871572 0
M  V30 1148 H 107.94 3.67304 0.858366 0
M  V30 1149 H 110.327 2.72197 1.13985 0
M  V30 1150 H 110.408 2.48381 -0.611586 0
M  V30 1151 H 110.052 4.99005 -0.946374 0
M  V30 1152 H 109.982 5.20158 0.821153 0
M  V30 1153 H 112.473 3.77436 0.187263 0
M  V30 1154 H 112.786 7.72418 -0.242821 0
M  V30 1155 H 111.131 6.94678 -0.211429 0
M  V30 1156 H 114.322 4.67867 0.147773 0
M  V30 1157 H 114.495 6.47982 -0.048121 0
M  V30 1158 N 107.901 -0.206675 1.56239 0
M  V30 1159 C 109.312 -0.772383 1.69974 0
M  V30 1160 C 109.663 -1.84353 0.671436 0
M  V30 1161 O 108.788 -2.15695 -0.174491 0
M  V30 1162 C 109.383 -1.40779 3.08167 0
M  V30 1163 C 107.942 -1.92072 3.23706 0
M  V30 1164 C 107.089 -0.786347 2.65917 0
M  V30 1165 H 110.04 0.0182223 1.5869 0
M  V30 1166 H 110.061 -2.27696 3.04852 0
M  V30 1167 H 109.573 -0.627958 3.82986 0
M  V30 1168 H 107.674 -2.7281 2.53782 0
M  V30 1169 H 107.787 -2.09046 4.31087 0
M  V30 1170 H 106.151 -1.1976 2.24788 0
M  V30 1171 H 106.934 -0.0189416 3.43295 0
M  V30 1172 N 109.379 -1.50304 -0.473955 0
M  V30 1173 C 110.289 -1.7174 -1.5982 0
M  V30 1174 C 111.305 -0.600457 -1.63311 0
M  V30 1175 O 112.481 -0.878441 -1.81233 0
M  V30 1176 C 109.546 -1.80427 -2.96052 0
M  V30 1177 C 108.607 -3.04148 -3.02972 0
M  V30 1178 C 107.84 -3.12411 -4.32706 0
M  V30 1179 O 108.063 -2.27542 -5.23049 0
M  V30 1180 O 106.997 -4.05113 -4.45159 0
M  V30 1181 H 110.823 -2.67035 -1.44657 0
M  V30 1182 H 108.408 -1.34366 -0.653148 0
M  V30 1183 H 110.29 -1.88338 -3.7697 0
M  V30 1184 H 108.965 -0.883156 -3.11419 0
M  V30 1185 H 107.872 -3.0174 -2.21142 0
M  V30 1186 H 109.205 -3.95829 -2.92541 0
M  V30 1187 N 110.857 0.726932 -1.39834 0
M  V30 1188 C 111.767 1.87131 -1.41489 0
M  V30 1189 C 112.783 1.71239 -0.308757 0
M  V30 1190 O 113.959 1.93701 -0.551529 0
M  V30 1191 C 111.024 3.22811 -1.26468 0
M  V30 1192 C 110.085 3.51039 -2.47124 0
M  V30 1193 C 109.318 4.80245 -2.3281 0
M  V30 1194 O 109.541 5.54537 -1.33585 0
M  V30 1195 O 108.475 5.08554 -3.21957 0
M  V30 1196 H 112.301 1.8869 -2.3797 0
M  V30 1197 H 109.886 0.875837 -1.21035 0
M  V30 1198 H 111.768 4.03877 -1.20255 0
M  V30 1199 H 110.443 3.22005 -0.330862 0
M  V30 1200 H 109.35 2.70027 -2.58914 0
M  V30 1201 H 110.683 3.56632 -3.39227 0
M  V30 1202 N 112.336 1.25143 0.95797 0
M  V30 1203 C 113.582 1.09855 1.70469 0
M  V30 1204 C 113.915 -0.360187 1.90831 0
M  V30 1205 O 113.19 -1.26568 1.47685 0
M  V30 1206 C 113.473 1.8497 3.08963 0
M  V30 1207 C 113.326 3.38652 2.96032 0
M  V30 1208 C 114.645 1.63016 4.08795 0
M  V30 1209 H 111.764 0.400465 0.618706 0
M  V30 1210 H 114.406 1.53933 1.11376 0
M  V30 1211 H 112.556 1.47505 3.59409 0
M  V30 1212 H 114.228 3.85772 2.52938 0
M  V30 1213 H 112.471 3.66534 2.32025 0
M  V30 1214 H 113.142 3.8642 3.94187 0
M  V30 1215 H 115.618 1.95625 3.67247 0
M  V30 1216 H 114.494 2.18015 5.03747 0
M  V30 1217 H 114.755 0.570692 4.38401 0
M  V30 1218 N 113.814 -1.1601 1.06675 0
M  V30 1219 C 115.23 -1.38622 0.790948 0
M  V30 1220 C 115.43 -1.92109 -0.607965 0
M  V30 1221 O 114.486 -2.12239 -1.36787 0
M  V30 1222 C 115.799 -2.36347 1.85905 0
M  V30 1223 C 117.347 -2.50023 1.88301 0
M  V30 1224 C 117.822 -3.51033 2.94176 0
M  V30 1225 N 119.313 -3.58563 2.93235 0
M  V30 1226 C 120.048 -4.36521 3.71803 0
M  V30 1227 N 119.544 -5.17869 4.602 0
M  V30 1228 N 121.337 -4.31541 3.60178 0
M  V30 1229 H 113.488 -0.796294 1.96908 0
M  V30 1230 H 115.751 -0.412597 0.853503 0
M  V30 1231 H 115.457 -2.04147 2.86386 0
M  V30 1232 H 115.331 -3.36042 1.71334 0
M  V30 1233 H 117.718 -2.81524 0.884769 0
M  V30 1234 H 117.799 -1.5035 2.06951 0
M  V30 1235 H 117.443 -3.20268 3.94196 0
M  V30 1236 H 117.373 -4.50445 2.72776 0
M  V30 1237 H 119.864 -3.00496 2.29152 0
M  V30 1238 H 120.177 -5.74578 5.16797 0
M  V30 1239 H 118.522 -5.17199 4.64253 0
M  V30 1240 H 121.713 -3.67051 2.90502 0
M  V30 1241 H 121.886 -4.9205 4.21653 0
M  V30 1242 N 115.292 -0.849877 -1.32721 0
M  V30 1243 C 116.24 -0.279745 -2.30912 0
M  V30 1244 C 117.234 0.594278 -1.58634 0
M  V30 1245 O 118.44 0.482613 -1.73409 0
M  V30 1246 H 114.815 -0.0717521 -0.748569 0
M  V30 1247 H 116.786 -1.12222 -2.76494 0
M  V30 1248 C 115.535 0.521108 -3.43773 0
M  V30 1249 H 114.858 -0.142141 -3.99547 0
M  V30 1250 H 116.298 0.885693 -4.14646 0
M  V30 1251 C 114.757 1.70442 -2.90605 0
M  V30 1252 O 115.287 2.8034 -2.87702 0
M  V30 1253 N 113.493 1.52991 -2.47067 0
M  V30 1254 H 113.04 0.635914 -2.49628 0
M  V30 1255 H 112.998 2.32311 -2.11847 0
M  V30 1256 N 116.77 1.45427 -0.607355 0
M  V30 1257 C 117.717 2.3053 0.111625 0
M  V30 1258 C 118.687 1.4209 0.860216 0
M  V30 1259 O 119.872 1.71019 0.845998 0
M  V30 1260 C 117.012 3.26992 1.10319 0
M  V30 1261 C 116.125 4.30535 0.355493 0
M  V30 1262 C 115.26 5.14105 1.33676 0
M  V30 1263 C 114.299 6.09376 0.576862 0
M  V30 1264 N 113.436 6.85727 1.5074 0
M  V30 1265 H 118.276 2.91477 -0.620093 0
M  V30 1266 H 115.813 1.43631 -0.317594 0
M  V30 1267 H 117.771 3.81385 1.6912 0
M  V30 1268 H 116.401 2.67799 1.80232 0
M  V30 1269 H 115.453 3.78805 -0.348023 0
M  V30 1270 H 116.765 4.98235 -0.237423 0
M  V30 1271 H 115.919 5.72897 1.99684 0
M  V30 1272 H 114.658 4.46423 1.9636 0
M  V30 1273 H 113.663 5.49715 -0.0968519 0
M  V30 1274 H 114.888 6.79085 -0.0449341 0
M  V30 1275 H 112.834 6.20735 2.12189 0
M  V30 1276 H 112.751 7.49778 0.967913 0
M  V30 1277 H 114.019 7.4906 2.15706 0
M  V30 1278 N 118.248 0.346503 1.53744 0
M  V30 1279 C 119.664 -0.00530975 1.59599 0
M  V30 1280 C 119.864 -1.48465 1.36236 0
M  V30 1281 O 118.92 -2.24376 1.15808 0
M  V30 1282 C 120.233 0.433516 2.97559 0
M  V30 1283 C 121.781 0.386111 3.10609 0
M  V30 1284 C 122.256 0.800451 4.50951 0
M  V30 1285 N 123.747 0.754753 4.5701 0
M  V30 1286 C 124.482 1.04727 5.63755 0
M  V30 1287 N 123.978 1.4081 6.7834 0
M  V30 1288 N 125.771 0.971316 5.53644 0
M  V30 1289 H 117.922 1.31009 1.67184 0
M  V30 1290 H 120.185 0.534242 0.783128 0
M  V30 1291 H 119.891 1.46509 3.19731 0
M  V30 1292 H 119.765 -0.189753 3.76722 0
M  V30 1293 H 122.152 -0.636295 2.88158 0
M  V30 1294 H 122.233 1.04462 2.33498 0
M  V30 1295 H 121.877 1.82088 4.74137 0
M  V30 1296 H 121.807 0.119386 5.26465 0
M  V30 1297 H 124.298 0.488662 3.74727 0
M  V30 1298 H 124.611 1.61607 7.55714 0
M  V30 1299 H 122.956 1.44657 6.79779 0
M  V30 1300 H 126.147 0.688748 4.63005 0
M  V30 1301 H 126.32 1.20263 6.36742 0
M  V30 1302 N 119.726 -1.57421 0.075193 0
M  V30 1303 C 120.951 -1.98364 -0.605515 0
M  V30 1304 C 121.376 -0.953383 -1.62149 0
M  V30 1305 O 120.734 0.0806053 -1.81121 0
M  V30 1306 C 120.782 -3.38332 -1.24756 0
M  V30 1307 O 119.886 -3.37959 -2.36342 0
M  V30 1308 H 119.227 -0.645553 -0.155428 0
M  V30 1309 H 121.757 -2.04044 0.150714 0
M  V30 1310 H 121.767 -3.75591 -1.5936 0
M  V30 1311 H 120.442 -4.12846 -0.503129 0
M  V30 1312 H 119.019 -3.12474 -2.03506 0
M  V30 1313 N 121.204 0.198386 -1.56346 0
M  V30 1314 C 122.429 0.939682 -1.84891 0
M  V30 1315 C 122.854 1.76202 -0.658369 0
M  V30 1316 O 122.212 1.76993 0.392851 0
M  V30 1317 C 122.26 1.81428 -3.11635 0
M  V30 1318 O 121.364 2.91265 -2.91956 0
M  V30 1319 H 120.705 0.264807 -0.608912 0
M  V30 1320 H 123.235 0.204695 -2.03573 0
M  V30 1321 H 123.245 2.21958 -3.42343 0
M  V30 1322 H 121.92 1.21004 -3.97908 0
M  V30 1323 H 120.497 2.54514 -2.72538 0
M  V30 1324 N 122.682 1.50554 0.465978 0
M  V30 1325 C 123.645 1.69233 1.54574 0
M  V30 1326 C 124.645 0.562901 1.50626 0
M  V30 1327 O 125.835 0.830016 1.53155 0
M  V30 1328 C 122.967 1.7223 2.94193 0
M  V30 1329 H 124.16 2.65571 1.39327 0
M  V30 1330 H 121.713 1.40111 0.692711 0
M  V30 1331 H 122.448 0.77603 3.14878 0
M  V30 1332 H 122.233 2.54285 2.98466 0
M  V30 1333 H 123.723 1.88618 3.72576 0
M  V30 1334 N 124.16 -0.719506 1.40217 0
M  V30 1335 C 125.409 -1.47486 1.37589 0
M  V30 1336 C 125.722 -1.9559 -0.0201568 0
M  V30 1337 O 126.928 -2.70973 -0.169049 0
M  V30 1338 C 125.384 -2.66575 2.41796 0
M  V30 1339 C 124.992 -2.25358 3.87192 0
M  V30 1340 C 126.736 -3.4433 2.48269 0
M  V30 1341 C 124.643 -3.41262 4.83005 0
M  V30 1342 H 123.573 -0.553901 0.511576 0
M  V30 1343 H 126.224 -0.783427 1.65936 0
M  V30 1344 H 124.606 -3.3787 2.06543 0
M  V30 1345 H 125.78 -1.61509 4.31569 0
M  V30 1346 H 124.095 -1.60657 3.84159 0
M  V30 1347 H 126.692 -4.30569 3.17041 0
M  V30 1348 H 127.035 -3.87872 1.51198 0
M  V30 1349 H 127.568 -2.80076 2.82493 0
M  V30 1350 H 124.307 -3.02755 5.81394 0
M  V30 1351 H 123.827 -4.0404 4.43297 0
M  V30 1352 H 125.506 -4.07383 5.02641 0
M  V30 1353 N 125.638 -1.25649 -0.95132 0
M  V30 1354 C 126.585 -1.06323 -2.04851 0
M  V30 1355 C 127.555 0.0286491 -1.66075 0
M  V30 1356 O 128.74 -0.12917 -1.90362 0
M  V30 1357 C 125.88 -0.691529 -3.381 0
M  V30 1358 C 124.993 -1.85861 -3.89974 0
M  V30 1359 C 124.128 -1.43096 -5.11563 0
M  V30 1360 C 123.167 -2.56696 -5.55674 0
M  V30 1361 N 122.304 -2.14684 -6.68472 0
M  V30 1362 H 127.144 -2.00222 -2.20715 0
M  V30 1363 H 124.681 -0.997027 -1.08156 0
M  V30 1364 H 126.639 -0.456963 -4.1469 0
M  V30 1365 H 125.269 0.210474 -3.22113 0
M  V30 1366 H 124.321 -2.20639 -3.09875 0
M  V30 1367 H 125.633 -2.71161 -4.18657 0
M  V30 1368 H 124.787 -1.15624 -5.9558 0
M  V30 1369 H 123.526 -0.548722 -4.84603 0
M  V30 1370 H 122.531 -2.84909 -4.7022 0
M  V30 1371 H 123.756 -3.45503 -5.8464 0
M  V30 1372 H 121.702 -1.28881 -6.43215 0
M  V30 1373 H 121.619 -2.9353 -6.96689 0
M  V30 1374 H 122.887 -1.90397 -7.5589 0
M  V30 1375 N 127.117 1.15442 -1.07289 0
M  V30 1376 C 128.365 1.85845 -0.794096 0
M  V30 1377 C 128.686 1.82692 0.681809 0
M  V30 1378 O 127.956 1.26741 1.49377 0
M  V30 1379 H 126.536 0.688089 -0.290763 0
M  V30 1380 H 129.198 1.39947 -1.3565 0
M  V30 1381 H 128.294 2.91001 -1.12804 0
M  V30 1382 N 128.595 0.856903 1.32268 0
M  V30 1383 C 129.542 0.301172 2.28827 0
M  V30 1384 C 130.512 -0.593104 1.5515 0
M  V30 1385 O 131.697 -0.527537 1.83362 0
M  V30 1386 C 128.837 -0.502523 3.41422 0
M  V30 1387 C 127.95 0.417797 4.29975 0
M  V30 1388 C 127.085 -0.398749 5.29701 0
M  V30 1389 C 126.124 0.518827 6.09897 0
M  V30 1390 N 125.261 -0.260674 7.01616 0
M  V30 1391 H 130.101 1.12983 2.75751 0
M  V30 1392 H 127.638 0.568582 1.35667 0
M  V30 1393 H 129.596 -0.984141 4.05426 0
M  V30 1394 H 128.226 -1.29599 2.95642 0
M  V30 1395 H 127.278 1.01781 3.66531 0
M  V30 1396 H 128.59 1.12191 4.86019 0
M  V30 1397 H 127.744 -0.943435 5.9932 0
M  V30 1398 H 126.483 -1.13622 4.7428 0
M  V30 1399 H 125.488 1.07538 5.39181 0
M  V30 1400 H 126.713 1.25495 6.67404 0
M  V30 1401 H 124.659 -0.981198 6.4862 0
M  V30 1402 H 124.576 0.384364 7.55022 0
M  V30 1403 H 125.844 -0.787014 7.75517 0
M  V30 1404 N 130.073 -1.45103 0.615059 0
M  V30 1405 C 131.003 -2.33339 -0.0865619 0
M  V30 1406 C 131.984 -1.4727 -0.851209 0
M  V30 1407 O 133.169 -1.76026 -0.820281 0
M  V30 1408 C 130.299 -3.30095 -1.07956 0
M  V30 1409 C 129.253 -4.25858 -0.427628 0
M  V30 1410 C 128.579 -5.12361 -1.5294 0
M  V30 1411 C 129.879 -5.18165 0.655944 0
M  V30 1412 H 131.573 -2.92254 0.650224 0
M  V30 1413 H 129.119 -1.40532 0.314138 0
M  V30 1414 H 131.072 -3.90698 -1.57901 0
M  V30 1415 H 129.796 -2.69355 -1.84703 0
M  V30 1416 H 128.455 -3.66564 0.0510292 0
M  V30 1417 H 128.103 -4.47984 -2.28734 0
M  V30 1418 H 127.803 -5.77238 -1.09865 0
M  V30 1419 H 129.327 -5.75833 -2.03098 0
M  V30 1420 H 130.741 -5.72796 0.240257 0
M  V30 1421 H 129.138 -5.91559 1.00888 0
M  V30 1422 H 130.208 -4.60144 1.52957 0
M  V30 1423 N 131.551 -0.354651 -1.53558 0
M  V30 1424 C 132.461 0.50515 -2.29097 0
M  V30 1425 C 133.477 1.10223 -1.34636 0
M  V30 1426 O 134.653 1.11553 -1.67684 0
M  V30 1427 C 131.718 1.63479 -3.05738 0
M  V30 1428 C 130.779 1.06636 -4.15845 0
M  V30 1429 C 130.012 2.14217 -4.88822 0
M  V30 1430 O 130.235 3.35137 -4.61562 0
M  V30 1431 O 129.169 1.77887 -5.75013 0
M  V30 1432 H 132.995 -0.109237 -3.03503 0
M  V30 1433 H 130.58 -0.119357 -1.48922 0
M  V30 1434 H 132.462 2.2918 -3.5363 0
M  V30 1435 H 131.137 2.23478 -2.34178 0
M  V30 1436 H 130.044 0.373565 -3.7223 0
M  V30 1437 H 131.377 0.511081 -4.89539 0
M  V30 1438 N 133.029 1.57378 -0.0835403 0
M  V30 1439 C 134.44 1.81261 0.447358 0
M  V30 1440 C 134.791 0.998331 1.68902 0
M  V30 1441 O 133.916 0.224282 2.15235 0
M  V30 1442 C 134.511 3.28767 0.818386 0
M  V30 1443 C 133.07 3.53455 1.29409 0
M  V30 1444 C 132.217 2.75831 0.285024 0
M  V30 1445 H 135.168 1.5566 -0.309115 0
M  V30 1446 H 135.189 3.41459 1.67887 0
M  V30 1447 H 134.701 3.88006 -0.0855019 0
M  V30 1448 H 132.802 2.99534 2.21608 0
M  V30 1449 H 132.915 4.62128 1.2639 0
M  V30 1450 H 131.279 2.42947 0.764767 0
M  V30 1451 H 132.062 3.37813 -0.611341 0
M  V30 1452 N 134.507 -0.190092 1.56449 0
M  V30 1453 C 135.455 -1.25501 1.95837 0
M  V30 1454 C 136.449 -1.4685 0.844485 0
M  V30 1455 O 137.655 -1.47651 1.02952 0
M  V30 1456 H 134.03 -0.421447 0.622805 0
M  V30 1457 H 136.001 -0.895821 2.84636 0
M  V30 1458 C 134.75 -2.59124 2.31841 0
M  V30 1459 H 134.073 -2.43514 3.17082 0
M  V30 1460 H 135.513 -3.32371 2.6326 0
M  V30 1461 C 133.972 -3.16488 1.15486 0
M  V30 1462 O 134.502 -3.99365 0.432535 0
M  V30 1463 N 132.708 -2.75305 0.930349 0
M  V30 1464 H 132.255 -2.08013 1.51948 0
M  V30 1465 H 132.213 -3.14024 0.153634 0
M  V30 1466 N 135.985 -1.50799 -0.457987 0
M  V30 1467 C 136.917 -1.66786 -1.57211 0
M  V30 1468 C 137.93 -0.548962 -1.53265 0
M  V30 1469 O 139.119 -0.8226 -1.58416 0
M  V30 1470 C 136.219 -1.64834 -2.96113 0
M  V30 1471 C 135.392 -2.92971 -3.24787 0
M  V30 1472 C 134.451 -2.83485 -4.43309 0
M  V30 1473 O 133.477 -3.5744 -4.42973 0
M  V30 1474 N 134.679 -1.97929 -5.45714 0
M  V30 1475 H 137.444 -2.62889 -1.43909 0
M  V30 1476 H 135.005 -1.48427 -0.646617 0
M  V30 1477 H 136.997 -1.56084 -3.7339 0
M  V30 1478 H 135.567 -0.764118 -3.03117 0
M  V30 1479 H 134.787 -3.15749 -2.36 0
M  V30 1480 H 136.075 -3.77834 -3.40762 0
M  V30 1481 H 135.473 -1.37182 -5.48815 0
M  V30 1482 H 134.03 -1.95073 -6.21924 0
M  V30 1483 N 137.463 0.71206 -1.40597 0
M  V30 1484 C 138.426 1.80785 -1.40888 0
M  V30 1485 C 139.426 1.57937 -0.302103 0
M  V30 1486 O 140.616 1.64913 -0.561182 0
M  V30 1487 C 137.748 3.18927 -1.20409 0
M  V30 1488 H 138.941 1.81924 -2.38419 0
M  V30 1489 H 136.494 0.91805 -1.26497 0
M  V30 1490 H 137.229 3.23436 -0.236522 0
M  V30 1491 H 137.014 3.36911 -2.00582 0
M  V30 1492 H 138.504 3.98949 -1.23408 0
M  V30 1493 N 138.941 1.26152 0.944643 0
M  V30 1494 C 140.19 1.10883 1.68487 0
M  V30 1495 C 140.503 -0.348153 1.92477 0
M  V30 1496 O 141.709 -0.621459 2.64292 0
M  V30 1497 C 140.165 1.93624 3.03377 0
M  V30 1498 C 139.773 3.43875 2.87148 0
M  V30 1499 C 141.517 1.86954 3.81115 0
M  V30 1500 C 139.424 4.18875 4.1749 0
M  V30 1501 H 138.354 0.41135 0.631907 0
M  V30 1502 H 141.005 1.50433 1.05082 0
M  V30 1503 H 139.387 1.46904 3.67743 0
M  V30 1504 H 140.561 3.98338 2.31653 0
M  V30 1505 H 138.876 3.51744 2.22856 0
M  V30 1506 H 141.473 2.40275 4.77673 0
M  V30 1507 H 141.816 0.839518 4.07747 0
M  V30 1508 H 142.349 2.31477 3.23517 0
M  V30 1509 H 139.088 5.22332 3.96043 0
M  V30 1510 H 138.608 3.69193 4.72712 0
M  V30 1511 H 140.287 4.27134 4.85968 0
M  V30 1512 N 140.419 -1.14872 1.07899 0
M  V30 1513 C 141.647 -1.89661 0.82683 0
M  V30 1514 C 142.062 -1.78312 -0.620519 0
M  V30 1515 O 141.419 -1.13888 -1.42604 0
M  V30 1516 C 141.47 -3.39817 1.23316 0
M  V30 1517 O 141.191 -3.50845 2.62372 0
M  V30 1518 C 142.692 -4.31615 1.0111 0
M  V30 1519 H 139.912 -0.60092 0.298557 0
M  V30 1520 H 142.456 -1.4551 1.43691 0
M  V30 1521 H 140.611 -3.8161 0.667286 0
M  V30 1522 H 141.025 -4.44076 2.79101 0
M  V30 1523 H 142.499 -5.35367 1.34486 0
M  V30 1524 H 142.976 -4.39169 -0.0522168 0
M  V30 1525 H 143.582 -3.95572 1.56215 0
M  V30 1526 N 141.898 -0.863906 -1.31812 0
M  V30 1527 C 142.808 -0.318461 -2.32428 0
M  V30 1528 C 143.824 0.568496 -1.64451 0
M  V30 1529 O 145 0.46666 -1.95919 0
M  V30 1530 C 142.065 0.476355 -3.43412 0
M  V30 1531 C 141.126 -0.43784 -4.27061 0
M  V30 1532 C 140.359 0.319138 -5.32745 0
M  V30 1533 O 140.582 1.54799 -5.48993 0
M  V30 1534 O 139.516 -0.319861 -6.01049 0
M  V30 1535 H 143.342 -1.15229 -2.80991 0
M  V30 1536 H 140.927 -0.627103 -1.35602 0
M  V30 1537 H 142.809 0.927156 -4.11074 0
M  V30 1538 H 141.484 1.28683 -2.97022 0
M  V30 1539 H 140.391 -0.937013 -3.62175 0
M  V30 1540 H 141.724 -1.21375 -4.77 0
M  V30 1541 N 143.376 1.44774 -0.622745 0
M  V30 1542 C 144.306 2.33382 0.0741861 0
M  V30 1543 C 145.287 1.47719 0.843387 0
M  V30 1544 O 146.472 1.76458 0.810934 0
M  V30 1545 C 143.602 3.30663 1.06204 0
M  V30 1546 C 142.556 4.26079 0.405037 0
M  V30 1547 C 141.882 5.13165 1.5022 0
M  V30 1548 C 143.182 5.1781 -0.683414 0
M  V30 1549 H 144.876 2.91905 -0.665713 0
M  V30 1550 H 142.422 1.40363 -0.321587 0
M  V30 1551 H 144.375 3.9153 1.55827 0
M  V30 1552 H 143.099 2.70331 1.83272 0
M  V30 1553 H 141.758 3.66532 -0.0704683 0
M  V30 1554 H 141.406 4.49191 2.26355 0
M  V30 1555 H 141.106 5.77812 1.06803 0
M  V30 1556 H 142.63 5.76902 2.00041 0
M  V30 1557 H 144.044 5.72661 -0.270631 0
M  V30 1558 H 142.441 5.91015 -1.04023 0
M  V30 1559 H 143.511 4.59326 -1.55395 0
M  V30 1560 N 144.854 0.36279 1.53368 0
M  V30 1561 C 145.784 -0.476976 2.28576 0
M  V30 1562 C 146.765 -1.08631 1.30894 0
M  V30 1563 O 147.95 -1.10409 1.59761 0
M  V30 1564 C 145.08 -1.61828 3.07293 0
M  V30 1565 C 144.034 -1.13633 4.1264 0
M  V30 1566 C 143.36 -2.36766 4.79423 0
M  V30 1567 C 144.66 -0.223061 5.21823 0
M  V30 1568 H 146.354 0.150474 2.99022 0
M  V30 1569 H 143.9 0.0738103 1.43811 0
M  V30 1570 H 145.853 -2.21237 3.58653 0
M  V30 1571 H 144.577 -2.27292 2.34533 0
M  V30 1572 H 143.236 -0.564945 3.62221 0
M  V30 1573 H 142.884 -3.0068 4.03238 0
M  V30 1574 H 142.584 -2.05192 5.50609 0
M  V30 1575 H 144.108 -2.96865 5.33576 0
M  V30 1576 H 145.522 -0.724545 5.68703 0
M  V30 1577 H 143.919 0.001678 6.001 0
M  V30 1578 H 144.989 0.735553 4.79289 0
M  V30 1579 N 146.332 -1.57332 0.0918853 0
M  V30 1580 C 147.748 -1.57389 -0.264766 0
M  V30 1581 C 147.948 -1.10281 -1.68643 0
M  V30 1582 O 147.004 -0.777801 -2.40222 0
M  V30 1583 C 148.317 -3.00648 -0.0561195 0
M  V30 1584 C 149.865 -3.12754 -0.124116 0
M  V30 1585 C 150.34 -4.57965 0.0564972 0
M  V30 1586 N 151.831 -4.632 0.00155611 0
M  V30 1587 C 152.566 -5.73281 0.116598 0
M  V30 1588 N 152.062 -6.92208 0.286294 0
M  V30 1589 N 153.855 -5.6207 0.0580973 0
M  V30 1590 H 146.006 -1.86262 1.02079 0
M  V30 1591 H 148.269 -0.859579 0.399786 0
M  V30 1592 H 147.975 -3.393 0.925669 0
M  V30 1593 H 147.849 -3.68623 -0.799823 0
M  V30 1594 H 150.236 -2.73976 -1.09641 0
M  V30 1595 H 150.317 -2.47377 0.651024 0
M  V30 1596 H 149.961 -4.97436 1.02564 0
M  V30 1597 H 149.891 -5.21399 -0.738297 0
M  V30 1598 H 152.382 -3.77686 -0.127192 0
M  V30 1599 H 152.695 -7.71934 0.365676 0
M  V30 1600 H 151.04 -6.94254 0.32192 0
M  V30 1601 H 154.231 -4.68043 -0.0733204 0
M  V30 1602 H 154.404 -6.47824 0.151203 0
M  V30 1603 N 147.81 0.181792 -1.56548 0
M  V30 1604 C 149.058 0.89832 -1.81038 0
M  V30 1605 C 149.379 1.83232 -0.667164 0
M  V30 1606 O 148.649 1.93372 0.313673 0
M  V30 1607 H 147.229 0.33471 -0.667816 0
M  V30 1608 H 149.891 0.184116 -1.94028 0
M  V30 1609 H 148.987 1.4815 -2.74696 0
M  V30 1610 N 149.288 1.51039 0.449983 0
M  V30 1611 C 150.516 1.66869 1.2232 0
M  V30 1612 C 150.931 0.360727 1.85322 0
M  V30 1613 O 150.288 -0.659531 1.70166 0
M  V30 1614 C 150.339 2.77524 2.31652 0
M  V30 1615 O 150.06 4.03252 1.7123 0
M  V30 1616 C 151.561 3.04512 3.2216 0
M  V30 1617 H 148.781 0.560326 0.369155 0
M  V30 1618 H 151.325 1.97385 0.534719 0
M  V30 1619 H 149.48 2.49642 2.96239 0
M  V30 1620 H 149.894 4.64609 2.43389 0
M  V30 1621 H 151.368 3.85551 3.95038 0
M  V30 1622 H 151.845 2.16415 3.8218 0
M  V30 1623 H 152.451 3.34005 2.63288 0
M  V30 1624 N 150.766 -0.704594 1.40972 0
M  V30 1625 C 152.014 -1.46169 1.39568 0
M  V30 1626 C 152.335 -1.95 0.00253745 0
M  V30 1627 O 151.605 -1.71095 -0.954114 0
M  V30 1628 H 150.185 -0.542326 0.513704 0
M  V30 1629 H 152.847 -0.834553 1.76128 0
M  V30 1630 H 151.943 -2.32922 2.07735 0
M  V30 1631 N 152.244 -1.26651 -0.937939 0
M  V30 1632 C 153.207 -1.08546 -2.01867 0
M  V30 1633 C 154.207 -0.0327327 -1.60767 0
M  V30 1634 O 155.397 -0.276427 -1.71993 0
M  V30 1635 C 152.529 -0.651711 -3.34613 0
M  V30 1636 H 153.722 -2.04502 -2.1936 0
M  V30 1637 H 151.275 -1.09294 -1.11734 0
M  V30 1638 H 152.01 0.309696 -3.22818 0
M  V30 1639 H 151.795 -1.41189 -3.65798 0
M  V30 1640 H 153.285 -0.546973 -4.14002 0
M  V30 1641 N 153.722 1.14298 -1.08507 0
M  V30 1642 C 154.947 1.8976 -0.837001 0
M  V30 1643 C 155.372 1.78097 0.605228 0
M  V30 1644 O 154.73 1.12188 1.4242 0
M  V30 1645 C 154.778 3.37685 -1.26495 0
M  V30 1646 O 153.882 4.10281 -0.417514 0
M  V30 1647 H 153.223 0.590365 -0.303917 0
M  V30 1648 H 155.753 1.44672 -1.44676 0
M  V30 1649 H 155.763 3.88501 -1.24625 0
M  V30 1650 H 154.438 3.45492 -2.31534 0
M  V30 1651 H 153.015 3.69536 -0.499722 0
M  V30 1652 N 155.201 0.870884 1.31352 0
M  V30 1653 C 156.447 0.482987 1.96965 0
M  V30 1654 C 156.78 -0.962462 1.68672 0
M  V30 1655 O 156.055 -1.6779 0.98371 0
M  V30 1656 C 156.338 0.741752 3.52378 0
M  V30 1657 C 156.191 2.2368 3.9024 0
M  V30 1658 C 157.51 0.208838 4.39604 0
M  V30 1659 H 154.629 0.176955 0.715441 0
M  V30 1660 H 157.271 1.09229 1.55464 0
M  V30 1661 H 155.421 0.223149 3.87859 0
M  V30 1662 H 157.093 2.82273 3.64856 0
M  V30 1663 H 155.336 2.70901 3.38814 0
M  V30 1664 H 156.007 2.3685 4.98604 0
M  V30 1665 H 158.483 0.652529 4.10952 0
M  V30 1666 H 157.359 0.419336 5.47296 0
M  V30 1667 H 157.62 -0.889275 4.33064 0
M  V30 1668 N 156.679 -1.44442 0.630414 0
M  V30 1669 C 157.956 -1.9549 0.0655657 0
M  V30 1670 C 158.336 -1.5724 -1.40851 0
M  V30 1671 O 157.684 -0.846116 -2.12257 0
M  V30 1672 C 157.894 -3.47812 0.287691 0
M  V30 1673 C 159.242 -4.24216 0.180513 0
M  V30 1674 O 160.266 -3.55526 0.219019 0
M  V30 1675 O 159.125 -5.46434 0.0848493 0
M  V30 1676 H 156.219 -0.826688 -0.0227177 0
M  V30 1677 H 158.765 -1.54496 0.702068 0
M  V30 1678 H 157.537 -3.687 1.31056 0
M  V30 1679 H 157.16 -3.95751 -0.382984 0
M  V30 1680 N 158.157 -0.370918 -1.53173 0
M  V30 1681 C 159.404 0.217102 -2.01333 0
M  V30 1682 C 159.732 1.48338 -1.25802 0
M  V30 1683 O 158.987 1.92698 -0.34146 0
M  V30 1684 C 159.286 0.549696 -3.53147 0
M  V30 1685 C 158.952 -0.622872 -4.46577 0
M  V30 1686 C 157.614 -0.944595 -4.71838 0
M  V30 1687 C 159.966 -1.40819 -5.01816 0
M  V30 1688 C 157.294 -2.05351 -5.49589 0
M  V30 1689 C 159.646 -2.50757 -5.80778 0
M  V30 1690 C 158.31 -2.83458 -6.04324 0
M  V30 1691 H 157.58 0.0794431 -0.736729 0
M  V30 1692 H 160.227 -0.504481 -1.84736 0
M  V30 1693 H 158.532 1.35237 -3.6772 0
M  V30 1694 H 160.229 1.017 -3.87889 0
M  V30 1695 H 156.819 -0.36209 -4.27068 0
M  V30 1696 H 161.003 -1.17289 -4.82242 0
M  V30 1697 H 156.259 -2.3108 -5.6605 0
M  V30 1698 H 160.433 -3.12022 -6.22588 0
M  V30 1699 H 158.06 -3.69508 -6.64355 0
M  V30 1700 N 159.635 1.57281 -0.100228 0
M  V30 1701 C 160.567 2.11342 0.886972 0
M  V30 1702 C 161.58 1.05182 1.24261 0
M  V30 1703 O 162.769 1.32613 1.19483 0
M  V30 1704 C 159.869 2.5825 2.19454 0
M  V30 1705 C 159.042 3.88302 2.01346 0
M  V30 1706 C 158.101 4.21004 3.15661 0
M  V30 1707 O 157.127 4.9014 2.89398 0
M  V30 1708 N 158.329 3.76818 4.41575 0
M  V30 1709 H 161.094 2.96668 0.425216 0
M  V30 1710 H 158.655 1.61678 0.0847334 0
M  V30 1711 H 160.647 2.7717 2.94888 0
M  V30 1712 H 159.217 1.77907 2.57037 0
M  V30 1713 H 158.437 3.7848 1.10212 0
M  V30 1714 H 159.725 4.73375 1.8653 0
M  V30 1715 H 159.123 3.2102 4.65792 0
M  V30 1716 H 157.68 4.00882 5.13942 0
M  V30 1717 N 161.113 -0.173488 1.56642 0
M  V30 1718 C 162.361 -0.888706 1.81512 0
M  V30 1719 C 162.682 -1.82875 0.676872 0
M  V30 1720 O 161.952 -1.93536 -0.303414 0
M  V30 1721 H 160.532 -0.331164 0.669582 0
M  V30 1722 H 163.194 -0.173823 1.94123 0
M  V30 1723 H 162.29 -1.46691 2.75478 0
M  V30 1724 N 162.591 -1.51276 -0.441967 0
M  V30 1725 C 163.539 -1.72823 -1.55676 0
M  V30 1726 C 164.533 -0.59445 -1.58627 0
M  V30 1727 O 165.739 -0.775715 -1.62427 0
M  V30 1728 H 162.114 -0.545983 -0.517113 0
M  V30 1729 H 164.085 -2.6628 -1.34675 0
M  V30 1730 C 162.834 -1.86619 -2.93375 0
M  V30 1731 H 162.157 -2.73264 -2.91834 0
M  V30 1732 H 163.597 -2.05709 -3.70756 0
M  V30 1733 C 162.056 -0.624842 -3.31055 0
M  V30 1734 O 162.586 0.222636 -4.01083 0
M  V30 1735 N 160.792 -0.470288 -2.86769 0
M  V30 1736 H 160.339 -1.161 -2.29953 0
M  V30 1737 H 160.297 0.359051 -3.12343 0
M  V30 1738 N 164.069 0.697108 -1.41344 0
M  V30 1739 C 165.032 1.79281 -1.42797 0
M  V30 1740 C 166.032 1.57607 -0.318837 0
M  V30 1741 O 167.222 1.64309 -0.578642 0
M  V30 1742 C 164.354 3.17632 -1.23785 0
M  V30 1743 H 165.547 1.79385 -2.40335 0
M  V30 1744 H 163.1 0.904582 -1.27464 0
M  V30 1745 H 163.835 3.23167 -0.270814 0
M  V30 1746 H 163.62 3.34765 -2.04144 0
M  V30 1747 H 165.11 3.97617 -1.27633 0
M  V30 1748 N 165.547 1.27147 0.931209 0
M  V30 1749 C 166.796 1.12664 1.67302 0
M  V30 1750 C 167.109 -0.327718 1.92835 0
M  V30 1751 O 168.315 -0.593392 2.64936 0
M  V30 1752 C 166.771 1.9683 3.01307 0
M  V30 1753 C 166.379 3.46901 2.83485 0
M  V30 1754 C 168.123 1.90985 3.79111 0
M  V30 1755 C 166.03 4.23279 4.13024 0
M  V30 1756 H 164.96 0.41803 0.627509 0
M  V30 1757 H 167.611 1.51539 1.03481 0
M  V30 1758 H 165.993 1.50797 3.66164 0
M  V30 1759 H 167.167 4.00773 2.27415 0
M  V30 1760 H 165.482 3.54088 2.19113 0
M  V30 1761 H 168.079 2.45328 4.75098 0
M  V30 1762 H 168.422 0.882718 4.06834 0
M  V30 1763 H 168.955 2.34895 3.21044 0
M  V30 1764 H 165.694 5.26503 3.90481 0
M  V30 1765 H 165.214 3.74186 4.6877 0
M  V30 1766 H 166.893 4.32265 4.81411 0
M  V30 1767 N 167.025 -1.13721 1.09112 0
M  V30 1768 C 168.253 -1.88773 0.846899 0
M  V30 1769 C 168.668 -1.7896 -0.601572 0
M  V30 1770 O 168.025 -1.15394 -1.41388 0
M  V30 1771 C 168.076 -3.3849 1.26913 0
M  V30 1772 O 167.797 -3.48043 2.66079 0
M  V30 1773 C 169.298 -4.30518 1.05682 0
M  V30 1774 H 166.518 -0.59772 0.304914 0
M  V30 1775 H 169.062 -1.43977 1.45227 0
M  V30 1776 H 167.217 -3.80881 0.707723 0
M  V30 1777 H 167.631 -4.4109 2.83795 0
M  V30 1778 H 169.105 -5.3391 1.40156 0
M  V30 1779 H 169.582 -4.392 -0.00563416 0
M  V30 1780 H 170.188 -3.93893 1.60402 0
M  V30 1781 N 168.503 -0.877838 -1.30888 0
M  V30 1782 C 169.752 -0.488793 -1.95688 0
M  V30 1783 C 170.065 0.965485 -1.70111 0
M  V30 1784 O 171.271 1.46104 -2.28836 0
M  V30 1785 C 169.727 -0.823201 -3.50359 0
M  V30 1786 C 169.335 -2.29477 -3.84765 0
M  V30 1787 C 171.079 -0.503009 -4.21509 0
M  V30 1788 C 168.986 -2.57118 -5.32583 0
M  V30 1789 H 167.916 -0.179062 -0.732429 0
M  V30 1790 H 170.567 -1.07183 -1.48943 0
M  V30 1791 H 168.949 -0.169331 -3.95638 0
M  V30 1792 H 170.123 -2.99236 -3.5042 0
M  V30 1793 H 168.438 -2.58178 -3.267 0
M  V30 1794 H 171.035 -0.68665 -5.30273 0
M  V30 1795 H 171.378 0.557109 -4.12555 0
M  V30 1796 H 171.911 -1.11376 -3.8189 0
M  V30 1797 H 168.65 -3.61843 -5.4658 0
M  V30 1798 H 168.17 -1.91961 -5.68253 0
M  V30 1799 H 169.849 -2.42251 -5.99936 0
M  V30 1800 N 169.982 1.44106 -0.638065 0
M  V30 1801 C 171.207 2.0685 -0.150916 0
M  V30 1802 C 171.632 1.47417 1.16833 0
M  V30 1803 O 170.99 0.578264 1.71831 0
M  V30 1804 C 171.038 3.60555 -0.05708 0
M  V30 1805 O 170.142 4.00465 0.984972 0
M  V30 1806 H 169.483 0.658151 -0.0879399 0
M  V30 1807 H 172.013 1.84865 -0.876707 0
M  V30 1808 H 172.023 4.07789 0.131232 0
M  V30 1809 H 170.698 4.03193 -1.02021 0
M  V30 1810 H 169.275 3.64849 0.770672 0
M  V30 1811 N 171.46 0.379036 1.52974 0
M  V30 1812 C 172.706 -0.206727 2.01744 0
M  V30 1813 C 173.039 -1.47314 1.26539 0
M  V30 1814 O 172.314 -1.91084 0.362903 0
M  V30 1815 C 172.597 -0.485066 3.56818 0
M  V30 1816 C 172.45 0.795919 4.42702 0
M  V30 1817 C 173.769 -1.28003 4.21074 0
M  V30 1818 H 170.888 -0.0736607 0.73331 0
M  V30 1819 H 173.53 0.506581 1.83122 0
M  V30 1820 H 171.68 -1.09272 3.72816 0
M  V30 1821 H 173.352 1.43307 4.38476 0
M  V30 1822 H 171.595 1.41344 4.10127 0
M  V30 1823 H 172.266 0.555947 5.49193 0
M  V30 1824 H 174.742 -0.765867 4.08991 0
M  V30 1825 H 173.618 -1.44352 5.29579 0
M  V30 1826 H 173.879 -2.29236 3.78026 0
M  V30 1827 N 172.938 -1.57226 0.108567 0
M  V30 1828 C 173.901 -2.13602 -0.831082 0
M  V30 1829 C 174.901 -1.06841 -1.20173 0
M  V30 1830 O 176.091 -1.32666 -1.12895 0
M  V30 1831 C 173.223 -2.66769 -2.12243 0
M  V30 1832 H 174.416 -2.97951 -0.341317 0
M  V30 1833 H 171.969 -1.55667 -0.14057 0
M  V30 1834 H 172.704 -1.85977 -2.65675 0
M  V30 1835 H 172.489 -3.44839 -1.86625 0
M  V30 1836 H 173.979 -3.10332 -2.79435 0
M  V30 1837 N 174.416 0.165178 -1.56732 0
M  V30 1838 C 175.326 1.22423 -2.00125 0
M  V30 1839 C 176.342 1.48084 -0.913619 0
M  V30 1840 O 177.518 1.60112 -1.22172 0
M  V30 1841 C 174.583 2.54197 -2.35764 0
M  V30 1842 C 173.644 2.36343 -3.58386 0
M  V30 1843 C 172.877 3.61834 -3.92316 0
M  V30 1844 O 173.1 4.67267 -3.27135 0
M  V30 1845 O 172.034 3.55579 -4.85641 0
M  V30 1846 H 175.86 0.885886 -2.90492 0
M  V30 1847 H 173.445 0.372518 -1.44681 0
M  V30 1848 H 175.327 3.3192 -2.59629 0
M  V30 1849 H 174.002 2.87598 -1.48557 0
M  V30 1850 H 172.909 1.56632 -3.39731 0
M  V30 1851 H 174.242 2.07865 -4.46154 0
M  V30 1852 N 175.894 1.51508 0.433938 0
M  V30 1853 C 176.857 1.72473 1.50949 0
M  V30 1854 C 177.857 0.594725 1.49398 0
M  V30 1855 O 179.047 0.862315 1.5136 0
M  V30 1856 C 176.179 1.78431 2.90474 0
M  V30 1857 H 177.372 2.68467 1.33662 0
M  V30 1858 H 174.925 1.41549 0.662836 0
M  V30 1859 H 175.66 0.842645 3.13161 0
M  V30 1860 H 175.445 2.60558 2.93005 0
M  V30 1861 H 176.935 1.96479 3.68491 0
M  V30 1862 N 177.372 -0.689602 1.41712 0
M  V30 1863 C 178.335 -1.78521 1.43746 0
M  V30 1864 C 179.335 -1.57436 0.327191 0
M  V30 1865 O 180.525 -1.64 0.587348 0
M  V30 1866 C 177.657 -3.16971 1.25467 0
M  V30 1867 H 178.85 -1.78108 2.41283 0
M  V30 1868 H 176.403 -0.89781 1.27942 0
M  V30 1869 H 177.138 -3.23019 0.287948 0
M  V30 1870 H 176.923 -3.33678 2.05917 0
M  V30 1871 H 178.413 -3.96935 1.2974 0
M  V30 1872 N 178.85 -1.27639 -0.924453 0
M  V30 1873 C 180.127 -1.04887 -1.651 0
M  V30 1874 C 180.507 0.415327 -2.06974 0
M  V30 1875 O 179.855 1.39923 -1.80648 0
M  V30 1876 C 180.065 -2.01348 -2.85061 0
M  V30 1877 C 181.413 -2.30899 -3.56329 0
M  V30 1878 O 182.437 -1.99348 -2.95193 0
M  V30 1879 O 181.296 -2.84699 -4.66485 0
M  V30 1880 H 178.39 -0.400083 -0.723784 0
M  V30 1881 H 180.936 -1.38916 -0.974703 0
M  V30 1882 H 179.708 -3.0008 -2.51133 0
M  V30 1883 H 179.331 -1.679 -3.6041 0
M  V30 1884 N 180.328 1.1314 -1.09713 0
M  V30 1885 C 181.553 1.88862 -0.857081 0
M  V30 1886 C 181.978 1.78729 0.586304 0
M  V30 1887 O 181.336 1.13692 1.41222 0
M  V30 1888 C 181.384 3.36325 -1.30069 0
M  V30 1889 O 180.488 4.09815 -0.461007 0
M  V30 1890 H 179.829 0.587108 -0.310162 0
M  V30 1891 H 182.359 1.43129 -1.46203 0
M  V30 1892 H 182.369 3.87157 -1.28738 0
M  V30 1893 H 181.044 3.43017 -2.35185 0
M  V30 1894 H 179.621 3.68986 -0.538888 0
M  V30 1895 N 181.806 0.884767 1.30421 0
M  V30 1896 C 183.031 0.517288 2.00845 0
M  V30 1897 C 183.456 -0.886779 1.65885 0
M  V30 1898 O 182.814 -1.58768 0.875354 0
M  V30 1899 C 182.862 0.698994 3.5376 0
M  V30 1900 O 181.966 -0.255208 4.1161 0
M  V30 1901 H 181.307 0.203872 0.631927 0
M  V30 1902 H 183.837 1.19225 1.66272 0
M  V30 1903 H 183.847 0.597912 4.03595 0
M  V30 1904 H 182.522 1.72271 3.78544 0
M  V30 1905 H 181.099 -0.10784 3.72744 0
M  V30 1906 N 183.284 -1.43765 0.645699 0
M  V30 1907 C 184.53 -2.02197 0.156271 0
M  V30 1908 C 184.863 -1.50776 -1.22393 0
M  V30 1909 O 184.138 -0.697771 -1.81553 0
M  V30 1910 C 184.421 -3.59749 0.158872 0
M  V30 1911 C 184.274 -4.21419 1.57245 0
M  V30 1912 C 185.593 -4.37149 -0.50879 0
M  V30 1913 H 182.712 -0.734694 0.0582602 0
M  V30 1914 H 185.354 -1.71157 0.824951 0
M  V30 1915 H 183.504 -3.86325 -0.410525 0
M  V30 1916 H 185.176 -4.059 2.19186 0
M  V30 1917 H 183.419 -3.78356 2.122 0
M  V30 1918 H 184.09 -5.30482 1.52619 0
M  V30 1919 H 186.566 -4.16093 -0.024412 0
M  V30 1920 H 185.442 -5.4683 -0.476213 0
M  V30 1921 H 185.703 -4.12839 -1.58165 0
M  V30 1922 N 184.763 -0.387143 -1.52771 0
M  V30 1923 C 186.04 0.253197 -1.93954 0
M  V30 1924 C 186.42 1.64545 -1.32243 0
M  V30 1925 O 185.768 2.23191 -0.489699 0
M  V30 1926 C 185.978 0.281722 -3.47861 0
M  V30 1927 C 187.326 0.511715 -4.21505 0
M  V30 1928 O 188.35 0.362023 -3.54356 0
M  V30 1929 O 187.209 0.804847 -5.40541 0
M  V30 1930 H 184.303 0.156845 -0.811991 0
M  V30 1931 H 186.849 -0.441494 -1.63856 0
M  V30 1932 H 185.621 -0.693571 -3.85104 0
M  V30 1933 H 185.244 1.02142 -3.84256 0
M  V30 1934 N 186.241 1.57166 -0.116904 0
M  V30 1935 C 187.171 2.18222 0.830759 0
M  V30 1936 C 188.152 1.12167 1.27877 0
M  V30 1937 O 189.337 1.40394 1.34176 0
M  V30 1938 C 186.467 2.77996 2.08172 0
M  V30 1939 C 185.421 3.89614 1.77157 0
M  V30 1940 C 184.747 4.36187 3.09265 0
M  V30 1941 C 186.047 5.1181 1.04151 0
M  V30 1942 H 187.741 2.97664 0.321992 0
M  V30 1943 H 185.287 1.4318 0.153434 0
M  V30 1944 H 187.24 3.19366 2.74924 0
M  V30 1945 H 185.964 1.9584 2.6137 0
M  V30 1946 H 184.623 3.48816 1.12796 0
M  V30 1947 H 184.271 3.50893 3.60393 0
M  V30 1948 H 183.971 5.11455 2.89288 0
M  V30 1949 H 185.495 4.80207 3.77139 0
M  V30 1950 H 186.909 5.50214 1.61052 0
M  V30 1951 H 185.306 5.92648 0.942762 0
M  V30 1952 H 186.376 4.84892 0.0279022 0
M  V30 1953 N 187.719 -0.156864 1.56817 0
M  V30 1954 C 188.967 -0.869404 1.82444 0
M  V30 1955 C 189.288 -1.82147 0.69623 0
M  V30 1956 O 188.558 -1.93847 -0.28287 0
M  V30 1957 H 187.138 -0.324043 0.673056 0
M  V30 1958 H 189.8 -0.153224 1.94297 0
M  V30 1959 H 188.896 -1.43761 2.77019 0
M  V30 1960 N 189.197 -1.51736 -0.425897 0
M  V30 1961 C 190.16 -1.73271 -1.50032 0
M  V30 1962 C 191.16 -0.602639 -1.4908 0
M  V30 1963 O 192.35 -0.87033 -1.509 0
M  V30 1964 C 189.482 -1.79969 -2.89523 0
M  V30 1965 H 190.675 -2.69172 -1.32237 0
M  V30 1966 H 188.228 -1.41899 -0.65532 0
M  V30 1967 H 188.963 -0.859241 -3.1271 0
M  V30 1968 H 188.748 -2.62109 -2.91619 0
M  V30 1969 H 190.238 -1.9843 -3.67444 0
M  V30 1970 N 190.675 0.682077 -1.42076 0
M  V30 1971 C 191.903 1.47057 -1.4554 0
M  V30 1972 C 192.318 1.8869 -0.0645779 0
M  V30 1973 O 191.675 1.57666 0.919115 0
M  V30 1974 C 191.726 2.72442 -2.37609 0
M  V30 1975 O 191.447 2.32559 -3.71279 0
M  V30 1976 C 192.948 3.66069 -2.50017 0
M  V30 1977 H 190.168 0.452737 -0.495248 0
M  V30 1978 H 192.712 0.838695 -1.8651 0
M  V30 1979 H 190.867 3.31835 -1.9991 0
M  V30 1980 H 191.281 3.13475 -4.20516 0
M  V30 1981 H 192.755 4.50792 -3.18576 0
M  V30 1982 H 193.232 4.11476 -1.53572 0
M  V30 1983 H 193.838 3.12572 -2.88407 0
M  V30 1984 N 192.153 1.28127 0.917671 0
M  V30 1985 C 193.086 1.06039 2.02067 0
M  V30 1986 C 194.064 -0.0223285 1.62585 0
M  V30 1987 O 195.248 0.124823 1.88086 0
M  V30 1988 C 192.375 0.610596 3.33151 0
M  V30 1989 C 191.421 1.68937 3.91615 0
M  V30 1990 S 192.254 3.28437 4.22953 0
M  V30 1991 C 193.41 2.85283 5.57103 0
M  V30 1992 H 193.643 1.99425 2.20493 0
M  V30 1993 H 191.176 1.12071 1.06205 0
M  V30 1994 H 193.134 0.357778 4.08938 0
M  V30 1995 H 191.795 -0.303364 3.12632 0
M  V30 1996 H 190.988 1.32619 4.86239 0
M  V30 1997 H 190.59 1.89478 3.2245 0
M  V30 1998 H 192.882 2.3121 6.36827 0
M  V30 1999 H 193.825 3.7869 5.98331 0
M  V30 2000 H 194.233 2.24118 5.18104 0
M  V30 2001 N 193.631 -1.12557 1.10312 0
M  V30 2002 C 194.88 -1.83395 0.839588 0
M  V30 2003 C 195.193 -1.84939 -0.636929 0
M  V30 2004 O 196.399 -2.51761 -1.01631 0
M  V30 2005 C 194.855 -3.29303 1.45215 0
M  V30 2006 C 194.463 -3.36122 2.96186 0
M  V30 2007 C 196.207 -4.05121 1.26796 0
M  V30 2008 C 194.114 -4.76357 3.50483 0
M  V30 2009 H 193.044 -0.687133 0.310425 0
M  V30 2010 H 195.695 -1.26746 1.32694 0
M  V30 2011 H 194.077 -3.85812 0.892469 0
M  V30 2012 H 195.251 -2.89559 3.58458 0
M  V30 2013 H 193.566 -2.73776 3.13745 0
M  V30 2014 H 196.163 -5.08668 1.64806 0
M  V30 2015 H 196.506 -4.15773 0.209409 0
M  V30 2016 H 197.039 -3.54967 1.79563 0
M  V30 2017 H 193.778 -4.70899 4.55998 0
M  V30 2018 H 193.298 -5.23377 2.92978 0
M  V30 2019 H 194.977 -5.45294 3.48228 0
M  V30 2020 N 195.109 -0.891671 -1.2995 0
M  V30 2021 C 196.337 -0.52866 -2.00032 0
M  V30 2022 C 196.752 0.884574 -1.66795 0
M  V30 2023 O 196.109 1.5827 -0.908669 0
M  V30 2024 C 196.16 -0.701814 -3.54622 0
M  V30 2025 O 195.881 -2.05942 -3.86678 0
M  V30 2026 C 197.382 -0.342683 -4.41973 0
M  V30 2027 H 194.602 -0.203659 -0.639347 0
M  V30 2028 H 197.146 -1.19881 -1.65677 0
M  V30 2029 H 195.301 -0.0789468 -3.8732 0
M  V30 2030 H 195.715 -2.08291 -4.81368 0
M  V30 2031 H 197.189 -0.514709 -5.49595 0
M  V30 2032 H 197.666 0.71975 -4.33262 0
M  V30 2033 H 198.272 -0.942154 -4.14733 0
M  V30 2034 N 196.587 1.43421 -0.653314 0
M  V30 2035 C 197.812 2.06678 -0.172846 0
M  V30 2036 C 198.237 1.48648 1.15262 0
M  V30 2037 O 197.595 0.596457 1.71208 0
M  V30 2038 C 197.643 3.60474 -0.0953184 0
M  V30 2039 O 196.747 4.01487 0.942442 0
M  V30 2040 H 196.088 0.657181 -0.0949155 0
M  V30 2041 H 198.618 1.83925 -0.896265 0
M  V30 2042 H 198.628 4.07905 0.0879728 0
M  V30 2043 H 197.303 4.02088 -1.06291 0
M  V30 2044 H 195.88 3.65646 0.731932 0
M  V30 2045 N 198.065 0.39524 1.52563 0
M  V30 2046 C 199.013 -0.451859 2.28169 0
M  V30 2047 C 200.007 -1.05792 1.32304 0
M  V30 2048 O 201.213 -0.997718 1.49818 0
M  V30 2049 H 197.588 -0.164481 0.733792 0
M  V30 2050 H 199.559 0.207199 2.9768 0
M  V30 2051 C 198.308 -1.56385 3.10546 0
M  V30 2052 H 197.631 -1.10682 3.84174 0
M  V30 2053 H 199.071 -2.13067 3.66577 0
M  V30 2054 C 197.53 -2.52328 2.23231 0
M  V30 2055 O 198.06 -3.5588 1.86312 0
M  V30 2056 N 196.266 -2.22209 1.87274 0
M  V30 2057 H 195.813 -1.38033 2.17496 0
M  V30 2058 H 195.771 -2.86652 1.29143 0
M  V30 2059 N 199.544 -1.57102 0.125237 0
M  V30 2060 C 200.476 -2.12726 -0.853237 0
M  V30 2061 C 201.489 -1.07145 -1.22571 0
M  V30 2062 O 202.678 -1.34497 -1.17358 0
M  V30 2063 C 199.778 -2.61709 -2.15317 0
M  V30 2064 C 198.951 -3.91456 -1.95143 0
M  V30 2065 C 198.01 -4.25973 -3.08923 0
M  V30 2066 O 197.036 -4.94682 -2.81564 0
M  V30 2067 N 198.238 -3.83795 -4.35524 0
M  V30 2068 H 201.003 -2.97307 -0.377964 0
M  V30 2069 H 198.564 -1.61792 -0.0590011 0
M  V30 2070 H 200.556 -2.81826 -2.90441 0
M  V30 2071 H 199.126 -1.81974 -2.54174 0
M  V30 2072 H 198.346 -3.80185 -1.04177 0
M  V30 2073 H 199.634 -4.76283 -1.78976 0
M  V30 2074 H 199.032 -3.2839 -4.60626 0
M  V30 2075 H 197.589 -4.09008 -5.07499 0
M  V30 2076 N 201.022 0.148545 -1.56898 0
M  V30 2077 C 201.952 1.18524 -2.01182 0
M  V30 2078 C 202.933 1.4489 -0.891123 0
M  V30 2079 O 204.118 1.55836 -1.15882 0
M  V30 2080 C 201.248 2.51879 -2.39112 0
M  V30 2081 C 200.202 2.40038 -3.54353 0
M  V30 2082 C 199.528 3.78089 -3.78091 0
M  V30 2083 C 200.828 1.88577 -4.87069 0
M  V30 2084 H 202.522 0.817029 -2.88036 0
M  V30 2085 H 200.068 0.391575 -1.38574 0
M  V30 2086 H 202.021 3.24627 -2.68692 0
M  V30 2087 H 200.745 2.90532 -1.49193 0
M  V30 2088 H 199.404 1.69742 -3.24936 0
M  V30 2089 H 199.052 4.14175 -2.85426 0
M  V30 2090 H 198.752 3.71028 -4.55645 0
M  V30 2091 H 200.276 4.52387 -4.10095 0
M  V30 2092 H 201.69 2.51117 -5.15377 0
M  V30 2093 H 200.087 1.9241 -5.68417 0
M  V30 2094 H 201.157 0.84136 -4.77545 0
M  V30 2095 N 202.5 1.5196 0.417844 0
M  V30 2096 C 203.748 1.65263 1.16329 0
M  V30 2097 C 204.069 0.380634 1.91249 0
M  V30 2098 O 203.339 -0.604214 1.86349 0
M  V30 2099 H 201.919 0.60912 0.432414 0
M  V30 2100 H 204.581 1.88969 0.477162 0
M  V30 2101 H 203.677 2.4896 1.88217 0
M  V30 2102 N 203.978 -0.674533 1.42435 0
M  V30 2103 C 205.206 -1.46283 1.46317 0
M  V30 2104 C 205.621 -1.88653 0.0745836 0
M  V30 2105 O 204.978 -1.58151 -0.91074 0
M  V30 2106 C 205.029 -2.71178 2.3905 0
M  V30 2107 O 204.75 -2.30586 3.72507 0
M  V30 2108 C 206.251 -3.64738 2.51955 0
M  V30 2109 H 203.471 -0.450104 0.497642 0
M  V30 2110 H 206.015 -0.828792 1.86953 0
M  V30 2111 H 204.17 -3.3077 2.01667 0
M  V30 2112 H 204.584 -3.11241 4.22172 0
M  V30 2113 H 206.058 -4.49096 3.20962 0
M  V30 2114 H 206.535 -4.10656 1.55752 0
M  V30 2115 H 207.141 -3.11038 2.90061 0
M  V30 2116 N 205.456 -1.28612 -0.910864 0
M  V30 2117 C 206.705 -1.15311 -1.65488 0
M  V30 2118 C 207.018 0.296999 -1.93332 0
M  V30 2119 O 208.224 0.551168 -2.65847 0
M  V30 2120 C 206.68 -2.01599 -2.98137 0
M  V30 2121 C 206.288 -3.51367 -2.7793 0
M  V30 2122 C 208.032 -1.96993 -3.76024 0
M  V30 2123 C 205.939 -4.29797 -4.06237 0
M  V30 2124 H 204.869 -0.42796 -0.620779 0
M  V30 2125 H 207.52 -1.53166 -1.01057 0
M  V30 2126 H 205.902 -1.56603 -3.63719 0
M  V30 2127 H 207.076 -4.0434 -2.21011 0
M  V30 2128 H 205.391 -3.57529 -2.13452 0
M  V30 2129 H 207.988 -2.52856 -4.71135 0
M  V30 2130 H 208.331 -0.94733 -4.05378 0
M  V30 2131 H 208.864 -2.39973 -3.17266 0
M  V30 2132 H 205.603 -5.32648 -3.82055 0
M  V30 2133 H 205.123 -3.81596 -4.62757 0
M  V30 2134 H 206.802 -4.39869 -4.74473 0
M  V30 2135 N 206.934 1.1197 -1.10907 0
M  V30 2136 C 208.162 1.87402 -0.876824 0
M  V30 2137 C 208.577 1.79894 0.573025 0
M  V30 2138 O 207.934 1.17629 1.39534 0
M  V30 2139 C 207.985 3.36428 -1.32282 0
M  V30 2140 O 207.706 3.43765 -2.71582 0
M  V30 2141 C 209.207 4.28783 -1.12518 0
M  V30 2142 H 206.427 0.592793 -0.314384 0
M  V30 2143 H 208.971 1.41649 -1.47499 0
M  V30 2144 H 207.126 3.79706 -0.768229 0
M  V30 2145 H 207.54 4.3652 -2.90776 0
M  V30 2146 H 209.014 5.31613 -1.48633 0
M  V30 2147 H 209.491 4.39153 -0.0642394 0
M  V30 2148 H 210.097 3.91291 -1.66648 0
M  V30 2149 N 208.412 0.89855 1.29475 0
M  V30 2150 C 209.322 0.379974 2.31502 0
M  V30 2151 C 210.338 -0.524695 1.659 0
M  V30 2152 O 211.514 -0.414551 1.97087 0
M  V30 2153 C 208.579 -0.385138 3.44554 0
M  V30 2154 C 207.64 0.550914 4.2575 0
M  V30 2155 C 206.873 -0.177778 5.33404 0
M  V30 2156 O 207.096 -1.40189 5.52904 0
M  V30 2157 O 206.03 0.479106 5.9999 0
M  V30 2158 H 209.856 1.22639 2.77837 0
M  V30 2159 H 207.441 0.662834 1.33891 0
M  V30 2160 H 209.323 -0.817841 4.13388 0
M  V30 2161 H 207.998 -1.20763 3.0033 0
M  V30 2162 H 206.905 1.03271 3.59564 0
M  V30 2163 H 208.238 1.33979 4.73614 0
M  V30 2164 N 209.89 -1.43072 0.660911 0
M  V30 2165 C 211.167 -1.95307 0.107017 0
M  V30 2166 C 211.547 -1.60192 -1.37484 0
M  V30 2167 O 210.895 -0.890949 -2.10415 0
M  V30 2168 C 211.105 -3.47124 0.361402 0
M  V30 2169 C 212.453 -4.23738 0.270455 0
M  V30 2170 O 213.477 -3.54981 0.294382 0
M  V30 2171 O 212.336 -5.46131 0.200737 0
M  V30 2172 H 209.43 -0.826984 -0.00517729 0
M  V30 2173 H 211.976 -1.52972 0.734681 0
M  V30 2174 H 210.748 -3.65837 1.38848 0
M  V30 2175 H 210.371 -3.96475 -0.298953 0
M  V30 2176 N 211.368 -0.403325 -1.52352 0
M  V30 2177 C 212.593 0.176499 -2.06648 0
M  V30 2178 C 213.018 1.38577 -1.27193 0
M  V30 2179 O 212.376 1.7879 -0.300637 0
M  V30 2180 C 212.424 0.511061 -3.5696 0
M  V30 2181 O 211.528 1.60294 -3.79973 0
M  V30 2182 H 210.869 0.0167337 -0.663789 0
M  V30 2183 H 213.399 -0.574848 -1.96359 0
M  V30 2184 H 213.409 0.771362 -4.00642 0
M  V30 2185 H 212.084 -0.37296 -4.14224 0
M  V30 2186 H 210.661 1.33526 -3.48174 0
M  V30 2187 N 212.846 1.57033 -0.133567 0
M  V30 2188 C 214.094 1.953 0.519848 0
M  V30 2189 C 214.415 1.01866 1.66278 0
M  V30 2190 O 213.685 0.0776513 1.95746 0
M  V30 2191 H 212.265 0.721091 0.195032 0
M  V30 2192 H 214.927 1.93809 -0.205921 0
M  V30 2193 H 214.023 2.98695 0.904854 0
M  V30 2194 N 214.325 -0.140222 1.56975 0
M  V30 2195 C 215.55 -0.870414 1.88251 0
M  V30 2196 C 215.975 -1.73637 0.723312 0
M  V30 2197 O 215.333 -1.78329 -0.32689 0
M  V30 2198 C 215.381 -1.69737 3.18154 0
M  V30 2199 O 214.485 -2.80229 3.02565 0
M  V30 2200 H 213.826 -0.242025 0.61832 0
M  V30 2201 H 216.356 -0.128999 2.04193 0
M  V30 2202 H 216.366 -2.09099 3.50345 0
M  V30 2203 H 215.041 -1.06152 4.02125 0
M  V30 2204 H 213.618 -2.44224 2.81796 0
M  V30 2205 N 215.803 -1.52179 -0.40978 0
M  V30 2206 C 217.033 -1.69807 -1.17682 0
M  V30 2207 C 217.441 -0.406908 -1.84773 0
M  V30 2208 O 216.784 0.626863 -1.72673 0
M  V30 2209 C 216.846 -2.77712 -2.2829 0
M  V30 2210 C 216.51 -4.19481 -1.81341 0
M  V30 2211 C 217.507 -5.03345 -1.30154 0
M  V30 2212 C 215.192 -4.65713 -1.88194 0
M  V30 2213 C 217.186 -6.31511 -0.864416 0
M  V30 2214 C 214.873 -5.93869 -1.44093 0
M  V30 2215 C 215.871 -6.76597 -0.933023 0
M  V30 2216 O 215.559 -8.02354 -0.49838 0
M  V30 2217 H 215.291 -0.572372 -0.359675 0
M  V30 2218 H 217.845 -1.99511 -0.488311 0
M  V30 2219 H 216.075 -2.43383 -3.00502 0
M  V30 2220 H 217.764 -2.83946 -2.90051 0
M  V30 2221 H 218.53 -4.68819 -1.24232 0
M  V30 2222 H 214.409 -4.01424 -2.26671 0
M  V30 2223 H 217.953 -6.96033 -0.467286 0
M  V30 2224 H 213.85 -6.27903 -1.49694 0
M  V30 2225 H 214.618 -8.16135 -0.621747 0
M  V30 2226 N 217.281 0.66697 -1.42791 0
M  V30 2227 C 218.509 1.45505 -1.47091 0
M  V30 2228 C 218.924 1.8861 -0.0845873 0
M  V30 2229 O 218.281 1.58632 0.90234 0
M  V30 2230 C 218.332 2.69906 -2.40485 0
M  V30 2231 O 218.053 2.28608 -3.73725 0
M  V30 2232 C 219.554 3.63396 -2.53886 0
M  V30 2233 H 216.774 0.447459 -0.500022 0
M  V30 2234 H 219.318 0.818866 -1.8739 0
M  V30 2235 H 217.473 3.29696 -2.03419 0
M  V30 2236 H 217.887 3.08997 -4.23817 0
M  V30 2237 H 219.361 4.47387 -3.2334 0
M  V30 2238 H 219.838 4.09824 -1.57927 0
M  V30 2239 H 220.444 3.09495 -2.91706 0
M  V30 2240 N 218.759 1.29093 0.90403 0
M  V30 2241 C 220.17 1.15186 1.46932 0
M  V30 2242 C 220.521 -0.254587 1.94541 0
M  V30 2243 O 219.646 -1.14972 1.83332 0
M  V30 2244 C 220.241 2.08492 2.67051 0
M  V30 2245 C 218.8 1.98621 3.19729 0
M  V30 2246 C 217.947 1.9967 1.92425 0
M  V30 2247 H 220.898 1.41641 0.715789 0
M  V30 2248 H 220.919 1.65461 3.42641 0
M  V30 2249 H 220.431 3.10847 2.3237 0
M  V30 2250 H 218.532 0.993389 3.59114 0
M  V30 2251 H 218.645 2.86068 3.8432 0
M  V30 2252 H 217.009 1.44208 2.09943 0
M  V30 2253 H 217.792 3.03721 1.60026 0
M  V30 2254 N 220.237 -1.11381 1.11499 0
M  V30 2255 C 221.485 -1.8277 0.862524 0
M  V30 2256 C 221.806 -1.85097 -0.613534 0
M  V30 2257 O 221.076 -1.32198 -1.4457 0
M  V30 2258 H 219.656 -0.676823 0.316101 0
M  V30 2259 H 222.318 -1.34816 1.4075 0
M  V30 2260 H 221.414 -2.86614 1.23527 0
M  V30 2261 N 221.715 -0.905404 -1.28997 0
M  V30 2262 C 222.943 -0.549846 -1.9946 0
M  V30 2263 C 223.358 0.866834 -1.67724 0
M  V30 2264 O 222.715 1.57298 -0.925404 0
M  V30 2265 C 222.766 -0.739387 -3.53858 0
M  V30 2266 O 222.487 -2.10031 -3.84472 0
M  V30 2267 C 223.988 -0.389541 -4.41585 0
M  V30 2268 H 221.208 -0.210429 -0.637151 0
M  V30 2269 H 223.752 -1.21632 -1.64396 0
M  V30 2270 H 221.907 -0.120023 -3.87214 0
M  V30 2271 H 222.321 -2.13385 -4.79132 0
M  V30 2272 H 223.795 -0.572972 -5.49018 0
M  V30 2273 H 224.272 0.673756 -4.34001 0
M  V30 2274 H 224.878 -0.986089 -4.1371 0
M  V30 2275 N 223.193 1.4272 -0.668489 0
M  V30 2276 C 224.442 2.00846 -0.185389 0
M  V30 2277 C 224.755 1.53442 1.21305 0
M  V30 2278 O 225.961 2.03944 1.79218 0
M  V30 2279 C 224.417 3.58805 -0.280591 0
M  V30 2280 C 224.025 4.15198 -1.68268 0
M  V30 2281 C 225.769 4.24255 0.14412 0
M  V30 2282 C 223.676 5.655 -1.73099 0
M  V30 2283 H 222.606 0.751145 -0.0655475 0
M  V30 2284 H 225.257 1.63516 -0.832752 0
M  V30 2285 H 223.639 3.93608 0.434553 0
M  V30 2286 H 224.813 3.91866 -2.42441 0
M  V30 2287 H 223.128 3.62176 -2.05469 0
M  V30 2288 H 225.725 5.34547 0.128086 0
M  V30 2289 H 226.068 3.99277 1.17827 0
M  V30 2290 H 226.601 3.94389 -0.519798 0
M  V30 2291 H 223.34 5.95268 -2.74475 0
M  V30 2292 H 222.86 5.90842 -1.03274 0
M  V30 2293 H 224.539 6.29808 -1.48158 0
M  V30 2294 N 224.671 0.411399 1.52136 0
M  V30 2295 C 225.634 -0.401089 2.25663 0
M  V30 2296 C 226.634 -0.971732 1.28117 0
M  V30 2297 O 227.824 -0.850254 1.52041 0
M  V30 2298 C 224.956 -1.56483 3.02863 0
M  V30 2299 H 226.149 0.24295 2.98914 0
M  V30 2300 H 223.702 0.163968 1.55438 0
M  V30 2301 H 224.437 -2.24567 2.33967 0
M  V30 2302 H 224.222 -1.16211 3.74483 0
M  V30 2303 H 225.712 -2.13951 3.58629 0
M  V30 2304 N 226.149 -1.5696 0.141893 0
M  V30 2305 C 227.377 -2.00322 -0.517579 0
M  V30 2306 C 227.792 -1.02193 -1.58752 0
M  V30 2307 O 227.149 -0.0181619 -1.82491 0
M  V30 2308 C 227.2 -3.43618 -1.12289 0
M  V30 2309 O 226.921 -4.37995 -0.0956929 0
M  V30 2310 C 228.422 -4.02231 -1.86347 0
M  V30 2311 H 225.642 -0.657243 -0.135177 0
M  V30 2312 H 228.186 -2.03146 0.234973 0
M  V30 2313 H 226.341 -3.41662 -1.82609 0
M  V30 2314 H 226.755 -5.21729 -0.538469 0
M  V30 2315 H 228.229 -5.04509 -2.23997 0
M  V30 2316 H 228.706 -3.42655 -2.74744 0
M  V30 2317 H 229.312 -4.07802 -1.20737 0
M  V30 2318 N 227.627 0.131896 -1.57047 0
M  V30 2319 C 228.59 1.14638 -1.98471 0
M  V30 2320 C 229.59 1.35029 -0.873148 0
M  V30 2321 O 230.78 1.31764 -1.13946 0
M  V30 2322 C 227.912 2.50358 -2.31373 0
M  V30 2323 H 229.105 0.79064 -2.8929 0
M  V30 2324 H 226.658 0.375761 -1.51716 0
M  V30 2325 H 227.393 2.90876 -1.43393 0
M  V30 2326 H 227.178 2.36915 -3.12432 0
M  V30 2327 H 228.668 3.23395 -2.64207 0
M  V30 2328 N 229.106 1.52395 0.401703 0
M  V30 2329 C 230.334 1.70676 1.16949 0
M  V30 2330 C 230.749 0.419503 1.8408 0
M  V30 2331 O 230.106 -0.605061 1.72178 0
M  V30 2332 C 230.157 2.84753 2.22706 0
M  V30 2333 O 229.878 4.08495 1.58314 0
M  V30 2334 C 231.379 3.14608 3.12309 0
M  V30 2335 H 228.599 0.571787 0.351142 0
M  V30 2336 H 231.143 1.98987 0.471652 0
M  V30 2337 H 229.298 2.58941 2.88147 0
M  V30 2338 H 229.712 4.72117 2.28485 0
M  V30 2339 H 231.186 3.97923 3.82572 0
M  V30 2340 H 231.663 2.28464 3.75101 0
M  V30 2341 H 232.269 3.42212 2.52529 0
M  V30 2342 N 230.584 -0.659388 1.43143 0
M  V30 2343 C 232 -0.974337 1.26407 0
M  V30 2344 C 232.2 -2.007 0.179341 0
M  V30 2345 O 231.256 -2.4856 -0.444295 0
M  V30 2346 C 232.569 -1.46447 2.62628 0
M  V30 2347 C 234.117 -1.58144 2.7011 0
M  V30 2348 C 234.592 -2.1055 4.06734 0
M  V30 2349 N 236.083 -2.17861 4.08767 0
M  V30 2350 C 236.818 -2.59519 5.1131 0
M  V30 2351 N 236.314 -3.00518 6.24228 0
M  V30 2352 N 238.107 -2.59404 4.98664 0
M  V30 2353 H 230.258 0.0240528 2.12386 0
M  V30 2354 H 232.521 -0.0518065 0.946583 0
M  V30 2355 H 232.227 -0.780123 3.42939 0
M  V30 2356 H 232.101 -2.44058 2.87603 0
M  V30 2357 H 234.488 -2.25682 1.90136 0
M  V30 2358 H 234.569 -0.589828 2.48907 0
M  V30 2359 H 234.213 -1.43616 4.87172 0
M  V30 2360 H 234.143 -3.10531 4.25298 0
M  V30 2361 H 236.634 -1.88975 3.27257 0
M  V30 2362 H 236.947 -3.31036 6.98309 0
M  V30 2363 H 235.292 -2.98337 6.2771 0
M  V30 2364 H 238.483 -2.26747 4.09516 0
M  V30 2365 H 238.656 -2.91548 5.78709 0
M  V30 2366 N 232.062 -1.29571 -0.897171 0
M  V30 2367 C 232.992 -1.17473 -2.01798 0
M  V30 2368 C 233.973 -0.068323 -1.69963 0
M  V30 2369 O 235.158 -0.248239 -1.92607 0
M  V30 2370 C 232.288 -0.853099 -3.36659 0
M  V30 2371 C 231.242 -1.9161 -3.82713 0
M  V30 2372 C 230.568 -1.44773 -5.14728 0
M  V30 2373 C 231.868 -3.32535 -4.02763 0
M  V30 2374 H 233.562 -2.11237 -2.12177 0
M  V30 2375 H 231.108 -1.01699 -1.01948 0
M  V30 2376 H 233.061 -0.755165 -4.14578 0
M  V30 2377 H 231.785 0.120236 -3.26379 0
M  V30 2378 H 230.444 -2.00346 -3.07013 0
M  V30 2379 H 230.092 -0.462995 -5.00865 0
M  V30 2380 H 229.792 -2.15865 -5.46513 0
M  V30 2381 H 231.316 -1.36334 -5.95185 0
M  V30 2382 H 232.73 -3.26626 -4.71156 0
M  V30 2383 H 231.127 -4.01607 -4.45905 0
M  V30 2384 H 232.197 -3.75326 -3.07016 0
M  V30 2385 N 233.54 1.10788 -1.12088 0
M  V30 2386 C 234.786 1.82942 -0.875226 0
M  V30 2387 C 235.119 1.84779 0.597538 0
M  V30 2388 O 234.394 1.30578 1.44152 0
M  V30 2389 C 234.677 3.29789 -1.44606 0
M  V30 2390 C 234.53 3.36307 -2.98693 0
M  V30 2391 C 235.849 4.26064 -1.10261 0
M  V30 2392 H 232.968 0.664195 -0.319397 0
M  V30 2393 H 235.61 1.29867 -1.38689 0
M  V30 2394 H 233.76 3.75118 -1.01089 0
M  V30 2395 H 235.432 2.99487 -3.50864 0
M  V30 2396 H 233.675 2.76318 -3.34411 0
M  V30 2397 H 234.346 4.39694 -3.33726 0
M  V30 2398 H 236.822 3.88951 -1.4784 0
M  V30 2399 H 235.698 5.27183 -1.52869 0
M  V30 2400 H 235.959 4.42098 -0.0142953 0
M  V30 2401 N 235.018 0.912232 1.28515 0
M  V30 2402 C 235.948 0.416403 2.29757 0
M  V30 2403 C 236.929 -0.515194 1.6211 0
M  V30 2404 O 238.114 -0.423253 1.89532 0
M  V30 2405 C 235.244 -0.34572 3.45575 0
M  V30 2406 C 234.198 0.496599 4.25109 0
M  V30 2407 C 233.524 -0.393771 5.33248 0
M  V30 2408 C 234.824 1.75307 4.92001 0
M  V30 2409 H 236.518 1.26249 2.7148 0
M  V30 2410 H 234.064 0.608515 1.30511 0
M  V30 2411 H 236.017 -0.703422 4.15488 0
M  V30 2412 H 234.741 -1.2257 3.02728 0
M  V30 2413 H 233.4 0.8368 3.56922 0
M  V30 2414 H 233.048 -1.27225 4.86644 0
M  V30 2415 H 232.748 0.166209 5.87365 0
M  V30 2416 H 234.272 -0.747389 6.06009 0
M  V30 2417 H 235.686 1.46437 5.54283 0
M  V30 2418 H 234.083 2.25534 5.56106 0
M  V30 2419 H 235.153 2.48176 4.16577 0
M  V30 2420 N 236.496 -1.42363 0.676048 0
M  V30 2421 C 237.724 -2.05859 0.207268 0
M  V30 2422 C 238.139 -1.50796 -1.13605 0
M  V30 2423 O 237.496 -0.648265 -1.70598 0
M  V30 2424 C 237.547 -3.61248 0.134975 0
M  V30 2425 O 237.268 -4.1427 1.42521 0
M  V30 2426 C 238.769 -4.41859 -0.357151 0
M  V30 2427 H 235.989 -0.663431 0.100503 0
M  V30 2428 H 238.533 -1.82479 0.923136 0
M  V30 2429 H 236.688 -3.83735 -0.531588 0
M  V30 2430 H 237.102 -5.0815 1.29939 0
M  V30 2431 H 238.576 -5.50847 -0.356641 0
M  V30 2432 H 239.053 -4.16536 -1.39264 0
M  V30 2433 H 239.659 -4.24392 0.27772 0
M  V30 2434 N 237.974 -0.419461 -1.51915 0
M  V30 2435 C 239.385 0.0477853 -1.86639 0
M  V30 2436 C 239.736 1.43531 -1.33766 0
M  V30 2437 O 238.861 2.05401 -0.68113 0
M  V30 2438 C 239.456 0.0934885 -3.38671 0
M  V30 2439 C 238.015 0.505097 -3.72996 0
M  V30 2440 C 237.162 -0.313792 -2.75519 0
M  V30 2441 H 240.113 -0.636088 -1.45395 0
M  V30 2442 H 240.134 0.906667 -3.6954 0
M  V30 2443 H 239.646 -0.916501 -3.77123 0
M  V30 2444 H 237.747 1.52135 -3.40126 0
M  V30 2445 H 237.86 0.242309 -4.78487 0
M  V30 2446 H 236.224 0.225363 -2.53701 0
M  V30 2447 H 237.007 -1.32232 -3.16812 0
M  V30 2448 N 239.452 1.56882 -0.150215 0
M  V30 2449 C 240.868 1.58263 0.20617 0
M  V30 2450 C 241.068 1.16464 1.64434 0
M  V30 2451 O 240.124 0.866422 2.3717 0
M  V30 2452 C 241.437 3.00649 -0.0555025 0
M  V30 2453 C 242.985 3.12999 0.00795388 0
M  V30 2454 C 243.46 4.5744 -0.226429 0
M  V30 2455 N 244.951 4.62875 -0.173469 0
M  V30 2456 C 245.686 5.72454 -0.329288 0
M  V30 2457 N 245.182 6.90669 -0.543005 0
M  V30 2458 N 246.975 5.61467 -0.266666 0
M  V30 2459 H 239.126 1.82345 -1.08922 0
M  V30 2460 H 241.389 0.844149 -0.431413 0
M  V30 2461 H 241.095 3.3563 -1.05096 0
M  V30 2462 H 240.969 3.71337 0.66246 0
M  V30 2463 H 243.356 2.77857 0.993966 0
M  V30 2464 H 243.437 2.4479 -0.742388 0
M  V30 2465 H 243.081 4.93287 -1.20956 0
M  V30 2466 H 243.011 5.2378 0.544274 0
M  V30 2467 H 245.502 3.77898 -0.0130709 0
M  V30 2468 H 245.815 7.70045 -0.651922 0
M  V30 2469 H 244.16 6.92581 -0.579366 0
M  V30 2470 H 247.351 4.67992 -0.100441 0
M  V30 2471 H 247.524 6.46816 -0.391535 0
M  V30 2472 N 240.93 -0.123565 1.57115 0
M  V30 2473 C 241.84 -1.17074 2.033 0
M  V30 2474 C 242.856 -1.4561 0.952559 0
M  V30 2475 O 244.032 -1.56817 1.26374 0
M  V30 2476 C 241.097 -2.47857 2.42421 0
M  V30 2477 C 240.158 -2.26758 3.64526 0
M  V30 2478 C 239.391 -3.51305 4.01771 0
M  V30 2479 O 239.614 -4.5843 3.39409 0
M  V30 2480 O 238.548 -3.42578 4.94898 0
M  V30 2481 H 242.374 -0.808555 2.92739 0
M  V30 2482 H 239.959 -0.334027 1.45618 0
M  V30 2483 H 241.841 -3.2492 2.68338 0
M  V30 2484 H 240.516 -2.83558 1.5613 0
M  V30 2485 H 239.423 -1.47569 3.43765 0
M  V30 2486 H 240.756 -1.95963 4.51508 0
M  V30 2487 N 242.408 -1.52605 -0.393616 0
M  V30 2488 C 243.636 -1.71294 -1.16043 0
M  V30 2489 C 244.051 -0.429259 -1.83855 0
M  V30 2490 O 243.408 0.595921 -1.72496 0
M  V30 2491 C 243.459 -2.8593 -2.21193 0
M  V30 2492 O 243.18 -4.09329 -1.56146 0
M  V30 2493 C 244.681 -3.16259 -3.10636 0
M  V30 2494 H 241.901 -0.573641 -0.348104 0
M  V30 2495 H 244.445 -1.99234 -0.461092 0
M  V30 2496 H 242.6 -2.60465 -2.86769 0
M  V30 2497 H 243.014 -4.73323 -2.25978 0
M  V30 2498 H 244.488 -3.99946 -3.80456 0
M  V30 2499 H 244.965 -2.3045 -3.73884 0
M  V30 2500 H 245.571 -3.43547 -2.50711 0
M  V30 2501 N 243.887 0.651787 -1.4349 0
M  V30 2502 C 245.298 1.233 -1.40193 0
M  V30 2503 C 245.649 1.9591 -0.106727 0
M  V30 2504 O 244.774 2.01316 0.793773 0
M  V30 2505 C 245.369 2.24257 -2.53957 0
M  V30 2506 C 243.928 2.77852 -2.5392 0
M  V30 2507 C 243.075 1.52517 -2.3159 0
M  V30 2508 H 246.026 0.443717 -1.52371 0
M  V30 2509 H 246.047 3.0646 -2.25528 0
M  V30 2510 H 245.559 1.71382 -3.4821 0
M  V30 2511 H 243.66 3.34786 -1.63551 0
M  V30 2512 H 243.773 3.25299 -3.51735 0
M  V30 2513 H 242.137 1.79915 -1.80285 0
M  V30 2514 H 242.92 1.01574 -3.27929 0
M  V30 2515 N 245.365 1.30045 0.890287 0
M  V30 2516 C 246.297 1.11786 2.00091 0
M  V30 2517 C 247.31 0.0626307 1.62679 0
M  V30 2518 O 248.499 0.308112 1.75821 0
M  V30 2519 C 245.599 0.681527 3.31977 0
M  V30 2520 C 244.772 1.81735 3.97858 0
M  V30 2521 C 243.831 1.37045 5.08041 0
M  V30 2522 O 242.857 2.07677 5.29961 0
M  V30 2523 N 244.059 0.246525 5.79976 0
M  V30 2524 H 246.824 2.07441 2.16306 0
M  V30 2525 H 244.385 1.2211 1.06305 0
M  V30 2526 H 246.377 0.365675 4.03045 0
M  V30 2527 H 244.947 -0.182828 3.12065 0
M  V30 2528 H 244.167 2.30159 3.20032 0
M  V30 2529 H 245.455 2.57865 4.38615 0
M  V30 2530 H 244.853 -0.34215 5.64664 0
M  V30 2531 H 243.41 -0.00990438 6.51799 0
M  V30 2532 N 246.843 -1.10192 1.12674 0
M  V30 2533 C 248.068 -1.86523 0.906853 0
M  V30 2534 C 248.493 -1.80221 -0.538711 0
M  V30 2535 O 247.851 -1.17396 -1.38158 0
M  V30 2536 C 247.899 -3.32758 1.3894 0
M  V30 2537 O 247.003 -4.08449 0.5695 0
M  V30 2538 H 246.344 -0.578678 0.325619 0
M  V30 2539 H 248.874 -1.39203 1.49946 0
M  V30 2540 H 248.884 -3.83608 1.38958 0
M  V30 2541 H 247.559 -3.36661 2.44197 0
M  V30 2542 H 246.136 -3.67427 0.636528 0
M  V30 2543 N 248.321 -0.919034 -1.28029 0
M  V30 2544 C 249.57 -0.550802 -1.94034 0
M  V30 2545 C 249.883 0.910877 -1.73096 0
M  V30 2546 O 251.089 1.3875 -2.33368 0
M  V30 2547 C 249.545 -0.934249 -3.47563 0
M  V30 2548 C 249.153 -2.41602 -3.7727 0
M  V30 2549 C 250.897 -0.636854 -4.19696 0
M  V30 2550 C 248.804 -2.73932 -5.24133 0
M  V30 2551 H 247.734 -0.202273 -0.726362 0
M  V30 2552 H 250.385 -1.11867 -1.45458 0
M  V30 2553 H 248.767 -0.295115 -3.94899 0
M  V30 2554 H 249.941 -3.10233 -3.40723 0
M  V30 2555 H 248.256 -2.68441 -3.18321 0
M  V30 2556 H 250.853 -0.855005 -5.2782 0
M  V30 2557 H 251.196 0.425575 -4.14119 0
M  V30 2558 H 251.729 -1.23469 -3.78154 0
M  V30 2559 H 248.468 -3.79049 -5.34792 0
M  V30 2560 H 247.988 -2.09942 -5.61858 0
M  V30 2561 H 249.667 -2.61215 -5.91925 0
M  V30 2562 N 249.799 1.42003 -0.683588 0
M  V30 2563 C 251.027 2.05746 -0.218182 0
M  V30 2564 C 251.442 1.51396 1.12804 0
M  V30 2565 O 250.799 0.657303 1.70252 0
M  V30 2566 C 250.85 3.61171 -0.154131 0
M  V30 2567 O 250.571 4.13508 -1.44716 0
M  V30 2568 C 252.072 4.42042 0.333713 0
M  V30 2569 H 249.292 0.662888 -0.10402 0
M  V30 2570 H 251.836 1.81987 -0.9328 0
M  V30 2571 H 249.991 3.84012 0.511231 0
M  V30 2572 H 250.405 5.07453 -1.32632 0
M  V30 2573 H 251.879 5.51028 0.327423 0
M  V30 2574 H 252.356 4.17269 1.37053 0
M  V30 2575 H 252.962 4.24239 -0.300222 0
M  V30 2576 N 251.277 0.427512 1.51691 0
M  V30 2577 C 252.523 -0.142439 2.02299 0
M  V30 2578 C 252.856 -1.43214 1.31162 0
M  V30 2579 O 252.131 -1.89833 0.423511 0
M  V30 2580 C 252.414 -0.371301 3.58181 0
M  V30 2581 C 252.267 0.936358 4.39946 0
M  V30 2582 C 253.586 -1.14542 4.24933 0
M  V30 2583 H 250.705 -0.0502937 0.735282 0
M  V30 2584 H 253.347 0.564584 1.81418 0
M  V30 2585 H 251.497 -0.973559 3.76104 0
M  V30 2586 H 253.169 1.57184 4.33694 0
M  V30 2587 H 251.412 1.5432 4.05423 0
M  V30 2588 H 252.083 0.730388 5.47147 0
M  V30 2589 H 254.559 -0.635362 4.11221 0
M  V30 2590 H 253.435 -1.27431 5.33903 0
M  V30 2591 H 253.696 -2.17093 3.85127 0
M  V30 2592 N 252.755 -1.56801 0.158532 0
M  V30 2593 C 254.001 -1.96781 -0.490405 0
M  V30 2594 C 254.334 -1.04397 -1.63753 0
M  V30 2595 O 253.609 -0.0885805 -1.94298 0
M  V30 2596 C 253.892 -3.4635 -0.985594 0
M  V30 2597 C 253.745 -4.49512 0.160824 0
M  V30 2598 C 255.064 -3.98697 -1.86355 0
M  V30 2599 H 252.183 -0.715482 -0.176788 0
M  V30 2600 H 254.825 -1.88451 0.242088 0
M  V30 2601 H 252.975 -3.53579 -1.60978 0
M  V30 2602 H 254.647 -4.54353 0.797537 0
M  V30 2603 H 252.89 -4.26013 0.818256 0
M  V30 2604 H 253.561 -5.51531 -0.227569 0
M  V30 2605 H 256.037 -3.94019 -1.33746 0
M  V30 2606 H 254.913 -5.03792 -2.17909 0
M  V30 2607 H 255.174 -3.41744 -2.8047 0
M  V30 2608 N 254.233 0.115231 -1.57178 0
M  V30 2609 C 255.461 0.836437 -1.89239 0
M  V30 2610 C 255.876 1.73256 -0.750175 0
M  V30 2611 O 255.233 1.80357 0.278832 0
M  V30 2612 C 255.284 1.66671 -3.20785 0
M  V30 2613 O 255.005 0.806652 -4.3061 0
M  V30 2614 C 256.506 2.49274 -3.66575 0
M  V30 2615 H 253.726 0.240253 -0.626514 0
M  V30 2616 H 256.27 0.0984932 -2.04263 0
M  V30 2617 H 254.425 2.35737 -3.0742 0
M  V30 2618 H 254.839 1.37969 -5.06028 0
M  V30 2619 H 256.313 3.03055 -4.6137 0
M  V30 2620 H 256.79 3.26807 -2.93417 0
M  V30 2621 H 257.396 1.85443 -3.82741 0
M  V30 2622 N 255.711 1.52812 0.385517 0
M  V30 2623 C 257.127 1.4214 0.725829 0
M  V30 2624 C 257.327 0.544589 1.94001 0
M  V30 2625 O 256.383 0.0193693 2.52493 0
M  V30 2626 C 257.696 2.85042 0.957668 0
M  V30 2627 C 259.244 2.94543 1.05892 0
M  V30 2628 C 259.719 4.38464 1.32337 0
M  V30 2629 N 261.21 4.41804 1.39151 0
M  V30 2630 C 261.945 5.5025 1.61285 0
M  V30 2631 N 261.441 6.68775 1.80866 0
M  V30 2632 N 263.234 5.37798 1.63492 0
M  V30 2633 H 255.385 2.08338 -0.413383 0
M  V30 2634 H 257.648 0.940016 -0.122775 0
M  V30 2635 H 257.354 3.51431 0.137568 0
M  V30 2636 H 257.228 3.27505 1.87137 0
M  V30 2637 H 259.615 2.28321 1.86959 0
M  V30 2638 H 259.696 2.55504 0.123057 0
M  V30 2639 H 259.34 5.05254 0.517793 0
M  V30 2640 H 259.27 4.75059 2.27214 0
M  V30 2641 H 261.761 3.56377 1.25713 0
M  V30 2642 H 262.074 7.47197 1.97271 0
M  V30 2643 H 260.419 6.71797 1.78083 0
M  V30 2644 H 263.61 4.44171 1.47749 0
M  V30 2645 H 263.783 6.22382 1.80402 0
M  V30 2646 N 257.189 -0.644168 1.43834 0
M  V30 2647 C 258.121 -1.76955 1.45669 0
M  V30 2648 C 259.134 -1.58956 0.351666 0
M  V30 2649 O 260.323 -1.6751 0.616644 0
M  V30 2650 C 257.423 -3.14507 1.26248 0
M  V30 2651 C 256.596 -3.59083 2.49757 0
M  V30 2652 C 255.655 -4.75467 2.25427 0
M  V30 2653 O 254.681 -4.84444 2.98836 0
M  V30 2654 N 255.883 -5.66289 1.27661 0
M  V30 2655 H 258.648 -1.75856 2.42682 0
M  V30 2656 H 256.209 -0.828312 1.39106 0
M  V30 2657 H 258.201 -3.90067 1.0784 0
M  V30 2658 H 256.771 -3.10325 0.376478 0
M  V30 2659 H 255.991 -2.7387 2.8353 0
M  V30 2660 H 257.279 -3.85613 3.31934 0
M  V30 2661 H 256.677 -5.61718 0.670064 0
M  V30 2662 H 255.234 -6.41533 1.15234 0
M  V30 2663 N 258.668 -1.30515 -0.883378 0
M  V30 2664 C 259.616 -1.16941 -2.01066 0
M  V30 2665 C 260.61 -0.0809148 -1.69207 0
M  V30 2666 O 261.816 -0.241877 -1.78367 0
M  V30 2667 H 258.191 -0.361705 -0.659298 0
M  V30 2668 H 260.162 -2.12344 -2.09649 0
M  V30 2669 C 258.911 -0.879694 -3.36388 0
M  V30 2670 H 258.234 -1.70936 -3.61415 0
M  V30 2671 H 259.674 -0.82483 -4.159 0
M  V30 2672 C 258.133 0.417409 -3.34304 0
M  V30 2673 O 258.663 1.43843 -3.75063 0
M  V30 2674 N 256.869 0.429141 -2.87414 0
M  V30 2675 H 256.416 -0.402222 -2.5444 0
M  V30 2676 H 256.374 1.29696 -2.86403 0
M  V30 2677 N 260.146 1.09593 -1.13257 0
M  V30 2678 C 261.079 2.15451 -0.752061 0
M  V30 2679 C 262.057 1.60493 0.260913 0
M  V30 2680 O 263.241 1.8788 0.152819 0
M  V30 2681 C 260.368 3.38506 -0.114594 0
M  V30 2682 C 259.414 4.12183 -1.09579 0
M  V30 2683 S 260.247 4.6661 -2.62745 0
M  V30 2684 C 261.403 5.92966 -2.00354 0
M  V30 2685 H 261.636 2.47395 -1.64872 0
M  V30 2686 H 259.169 1.21515 -0.952545 0
M  V30 2687 H 261.127 4.09757 0.246808 0
M  V30 2688 H 259.788 3.04784 0.759309 0
M  V30 2689 H 258.981 5.00445 -0.597545 0
M  V30 2690 H 258.583 3.46785 -1.40057 0
M  V30 2691 H 260.875 6.63882 -1.35156 0
M  V30 2692 H 261.818 6.47467 -2.86691 0
M  V30 2693 H 262.226 5.45405 -1.4558 0
M  V30 2694 N 261.624 0.925811 1.2754 0
M  V30 2695 C 262.901 0.483726 1.89524 0
M  V30 2696 C 263.281 -1.03809 1.83812 0
M  V30 2697 O 262.629 -1.89143 1.28207 0
M  V30 2698 C 262.839 1.02769 3.33526 0
M  V30 2699 C 264.187 1.08703 4.10449 0
M  V30 2700 O 265.211 0.977175 3.42534 0
M  V30 2701 O 264.07 1.25599 5.31871 0
M  V30 2702 H 261.164 0.15529 0.812289 0
M  V30 2703 H 263.71 1.01738 1.35822 0
M  V30 2704 H 262.482 2.07155 3.31967 0
M  V30 2705 H 262.105 0.475567 3.94746 0
M  V30 2706 N 263.102 -1.41638 0.69111 0
M  V30 2707 C 264.379 -1.95036 0.148421 0
M  V30 2708 C 264.759 -1.63072 -1.34055 0
M  V30 2709 O 264.107 -0.93538 -2.08478 0
M  V30 2710 C 264.317 -3.46279 0.434951 0
M  V30 2711 C 265.665 -4.23069 0.360275 0
M  V30 2712 O 266.689 -3.54277 0.369613 0
M  V30 2713 O 265.548 -5.45583 0.316534 0
M  V30 2714 H 262.642 -0.826908 0.0123654 0
M  V30 2715 H 265.188 -1.5138 0.766963 0
M  V30 2716 H 263.96 -3.6281 1.46576 0
M  V30 2717 H 263.583 -3.97019 -0.214787 0
M  V30 2718 N 264.58 -0.43555 -1.51462 0
M  V30 2719 C 265.827 0.131514 -2.02072 0
M  V30 2720 C 266.155 1.42868 -1.31981 0
M  V30 2721 O 265.41 1.91076 -0.422883 0
M  V30 2722 C 265.709 0.39942 -3.55161 0
M  V30 2723 C 265.375 -0.81172 -4.43533 0
M  V30 2724 C 264.037 -1.14387 -4.67407 0
M  V30 2725 C 266.389 -1.61976 -4.95392 0
M  V30 2726 C 263.717 -2.28477 -5.40384 0
M  V30 2727 C 266.069 -2.75164 -5.6962 0
M  V30 2728 C 264.733 -3.08835 -5.91758 0
M  V30 2729 H 264.003 0.0481244 -0.739436 0
M  V30 2730 H 266.65 -0.58238 -1.8243 0
M  V30 2731 H 264.955 1.19519 -3.73125 0
M  V30 2732 H 266.652 0.85157 -3.91854 0
M  V30 2733 H 263.242 -0.542898 -4.25148 0
M  V30 2734 H 267.426 -1.37637 -4.76833 0
M  V30 2735 H 262.682 -2.5488 -5.55739 0
M  V30 2736 H 266.856 -3.38147 -6.08793 0
M  V30 2737 H 264.483 -3.97353 -6.48086 0
M  V30 2738 N 266.058 1.56714 -0.166846 0
M  V30 2739 C 267.306 1.96358 0.478305 0
M  V30 2740 C 267.627 1.0537 1.6408 0
M  V30 2741 O 266.897 0.119154 1.95537 0
M  V30 2742 H 265.477 0.725065 0.179692 0
M  V30 2743 H 268.139 1.93329 -0.246985 0
M  V30 2744 H 267.235 3.00547 0.841292 0
M  V30 2745 N 267.536 -0.106894 1.57237 0
M  V30 2746 C 268.466 -1.13148 2.04254 0
M  V30 2747 C 269.447 -1.42476 0.929224 0
M  V30 2748 O 270.632 -1.52709 1.19973 0
M  V30 2749 C 267.762 -2.4545 2.45706 0
M  V30 2750 C 266.716 -2.30558 3.60592 0
M  V30 2751 C 266.042 -3.67931 3.87983 0
M  V30 2752 C 267.342 -1.75597 4.91897 0
M  V30 2753 H 269.036 -0.740374 2.90101 0
M  V30 2754 H 266.582 -0.354696 1.39563 0
M  V30 2755 H 268.535 -3.17389 2.77205 0
M  V30 2756 H 267.259 -2.86475 1.56843 0
M  V30 2757 H 265.918 -1.61067 3.29322 0
M  V30 2758 H 265.566 -4.06462 2.96306 0
M  V30 2759 H 265.266 -3.58817 4.65322 0
M  V30 2760 H 266.79 -4.41356 4.21945 0
M  V30 2761 H 268.204 -2.37364 5.21854 0
M  V30 2762 H 266.601 -1.77272 5.73319 0
M  V30 2763 H 267.671 -0.714451 4.79608 0
M  V30 2764 N 269.014 -1.53014 -0.377408 0
M  V30 2765 C 269.962 -1.7927 -1.48206 0
M  V30 2766 C 270.956 -0.661195 -1.55963 0
M  V30 2767 O 272.162 -0.843908 -1.58991 0
M  V30 2768 H 268.537 -0.567425 -0.493491 0
M  V30 2769 H 270.508 -2.71753 -1.2326 0
M  V30 2770 C 269.257 -1.98894 -2.85196 0
M  V30 2771 H 268.58 -2.85395 -2.79981 0
M  V30 2772 H 270.02 -2.21249 -3.61698 0
M  V30 2773 C 268.479 -0.764691 -3.28107 0
M  V30 2774 O 269.009 0.0523226 -4.01666 0
M  V30 2775 N 267.215 -0.591493 -2.84517 0
M  V30 2776 H 266.762 -1.25749 -2.24822 0
M  V30 2777 H 266.72 0.226253 -3.13585 0
M  V30 2778 N 270.492 0.636531 -1.44174 0
M  V30 2779 C 271.44 1.76995 -1.50915 0
M  V30 2780 C 272.434 1.65053 -0.381295 0
M  V30 2781 O 273.64 1.71197 -0.55601 0
M  V30 2782 H 270.015 0.584247 -0.473455 0
M  V30 2783 H 271.986 1.68432 -2.4632 0
M  V30 2784 C 270.735 3.15314 -1.46534 0
M  V30 2785 H 270.058 3.25149 -2.32633 0
M  V30 2786 H 271.498 3.9453 -1.55312 0
M  V30 2787 C 269.957 3.3639 -0.185305 0
M  V30 2788 O 270.487 3.94699 0.746688 0
M  V30 2789 N 268.693 2.9046 -0.0901606 0
M  V30 2790 H 268.24 2.43193 -0.849416 0
M  V30 2791 H 268.198 3.04937 0.765553 0
M  V30 2792 N 271.97 1.30982 0.876444 0
M  V30 2793 C 273.219 1.19658 1.62373 0
M  V30 2794 C 273.532 -0.245636 1.94052 0
M  V30 2795 O 274.738 -0.48049 2.67214 0
M  V30 2796 C 273.194 2.09433 2.92687 0
M  V30 2797 C 272.802 3.58613 2.68516 0
M  V30 2798 C 274.546 2.06893 3.70669 0
M  V30 2799 C 272.453 4.40416 3.94699 0
M  V30 2800 H 271.383 0.444268 0.609214 0
M  V30 2801 H 274.034 1.55791 0.969605 0
M  V30 2802 H 272.416 1.66191 3.59439 0
M  V30 2803 H 273.59 4.10058 2.10212 0
M  V30 2804 H 271.905 3.63063 2.03898 0
M  V30 2805 H 274.502 2.65258 4.64265 0
M  V30 2806 H 274.845 1.05448 4.02724 0
M  V30 2807 H 275.378 2.48301 3.10792 0
M  V30 2808 H 272.117 5.42591 3.67798 0
M  V30 2809 H 271.637 3.93731 4.52477 0
M  V30 2810 H 273.316 4.52294 4.62644 0
M  V30 2811 N 273.449 -1.08991 1.13837 0
M  V30 2812 C 274.726 -1.77863 0.813876 0
M  V30 2813 C 275.106 -1.99375 -0.693746 0
M  V30 2814 O 274.454 -1.59875 -1.63255 0
M  V30 2815 C 274.664 -3.0986 1.60586 0
M  V30 2816 C 276.012 -3.84493 1.8014 0
M  V30 2817 O 277.036 -3.19624 1.57222 0
M  V30 2818 O 275.895 -5.00957 2.18413 0
M  V30 2819 H 272.989 -0.771589 0.297624 0
M  V30 2820 H 275.535 -1.15507 1.24323 0
M  V30 2821 H 274.307 -2.89715 2.63022 0
M  V30 2822 H 273.93 -3.79942 1.17173 0
M  V30 2823 N 274.927 -0.932562 -1.27047 0
M  V30 2824 C 276.204 -0.49377 -1.89265 0
M  V30 2825 C 276.584 1.02833 -1.8436 0
M  V30 2826 O 275.932 1.88461 -1.29209 0
M  V30 2827 C 276.142 -1.04536 -3.32976 0
M  V30 2828 C 277.49 -1.10879 -4.09867 0
M  V30 2829 O 278.514 -0.995327 -3.42011 0
M  V30 2830 O 277.373 -1.28417 -5.31198 0
M  V30 2831 H 274.467 -0.159596 -0.811454 0
M  V30 2832 H 277.013 -1.02457 -1.3528 0
M  V30 2833 H 275.785 -2.08913 -3.30864 0
M  V30 2834 H 275.408 -0.496494 -3.94488 0
M  V30 2835 N 276.405 1.4127 -0.698611 0
M  V30 2836 C 277.651 2.01478 -0.231207 0
M  V30 2837 C 277.984 1.55215 1.16713 0
M  V30 2838 O 277.259 0.764672 1.78838 0
M  V30 2839 C 277.542 3.58912 -0.292281 0
M  V30 2840 C 277.395 4.15293 -1.72778 0
M  V30 2841 C 278.714 4.38736 0.346194 0
M  V30 2842 H 275.833 0.732025 -0.0854878 0
M  V30 2843 H 278.475 1.67977 -0.887906 0
M  V30 2844 H 276.625 3.87582 0.26686 0
M  V30 2845 H 278.297 3.97486 -2.341 0
M  V30 2846 H 276.54 3.7022 -2.26096 0
M  V30 2847 H 277.211 5.24452 -1.72202 0
M  V30 2848 H 279.687 4.15897 -0.130035 0
M  V30 2849 H 278.563 5.48221 0.272932 0
M  V30 2850 H 278.824 4.18425 1.42734 0
M  V30 2851 N 277.883 0.443576 1.51229 0
M  V30 2852 C 278.816 -0.410089 2.24485 0
M  V30 2853 C 279.794 -1.01949 1.26669 0
M  V30 2854 O 280.978 -1.06075 1.55821 0
M  V30 2855 C 278.105 -1.57211 3.00004 0
M  V30 2856 C 277.151 -1.08279 4.12526 0
M  V30 2857 S 277.984 -0.0197476 5.35496 0
M  V30 2858 C 279.14 -1.18629 6.14555 0
M  V30 2859 H 279.373 0.211832 2.96544 0
M  V30 2860 H 276.906 0.228156 1.52705 0
M  V30 2861 H 278.864 -2.23825 3.44111 0
M  V30 2862 H 277.525 -2.16547 2.27522 0
M  V30 2863 H 276.718 -1.95193 4.64667 0
M  V30 2864 H 276.32 -0.494797 3.70713 0
M  V30 2865 H 278.612 -2.10344 6.4402 0
M  V30 2866 H 279.555 -0.70472 7.04584 0
M  V30 2867 H 279.963 -1.42768 5.46148 0
M  V30 2868 N 279.361 -1.56624 0.175154 0
M  V30 2869 C 280.777 -1.58571 -0.180966 0
M  V30 2870 C 280.977 -1.19065 -1.6256 0
M  V30 2871 O 280.033 -0.904044 -2.35761 0
M  V30 2872 C 281.346 -3.00522 0.103326 0
M  V30 2873 C 282.894 -3.12972 0.0418426 0
M  V30 2874 C 283.369 -4.57022 0.299175 0
M  V30 2875 N 284.86 -4.62541 0.247086 0
M  V30 2876 C 285.595 -5.71857 0.420318 0
M  V30 2877 N 285.091 -6.89717 0.652816 0
M  V30 2878 N 286.884 -5.60972 0.355957 0
M  V30 2879 H 279.035 -1.80589 1.11809 0
M  V30 2880 H 281.298 -0.837178 0.444788 0
M  V30 2881 H 281.004 -3.33916 1.10422 0
M  V30 2882 H 280.878 -3.72344 -0.603299 0
M  V30 2883 H 283.265 -2.79403 -0.949636 0
M  V30 2884 H 283.346 -2.43578 0.781238 0
M  V30 2885 H 282.99 -4.913 1.28788 0
M  V30 2886 H 282.92 -5.24579 -0.460876 0
M  V30 2887 H 285.411 -3.77829 0.0731895 0
M  V30 2888 H 285.724 -7.68911 0.774347 0
M  V30 2889 H 284.069 -6.91572 0.689476 0
M  V30 2890 H 287.26 -4.67773 0.174882 0
M  V30 2891 H 287.433 -6.46111 0.494388 0
M  V30 2892 N 280.839 0.0985539 -1.57292 0
M  V30 2893 C 281.789 1.1261 -1.9825 0
M  V30 2894 C 282.773 1.35961 -0.860426 0
M  V30 2895 O 283.965 1.36711 -1.12424 0
M  V30 2896 C 281.094 2.44727 -2.40757 0
M  V30 2897 C 280.18 2.24764 -3.59642 0
M  V30 2898 N 280.571 1.74661 -4.74687 0
M  V30 2899 C 278.869 2.55344 -3.65672 0
M  V30 2900 C 279.57 1.68887 -5.56644 0
M  V30 2901 N 278.546 2.13976 -4.99715 0
M  V30 2902 H 282.348 0.731604 -2.84648 0
M  V30 2903 H 279.862 0.306029 -1.59491 0
M  V30 2904 H 281.859 3.19072 -2.68326 0
M  V30 2905 H 280.519 2.84917 -1.55733 0
M  V30 2906 H 281.53 1.43908 -4.97505 0
M  V30 2907 H 278.207 2.99081 -2.91302 0
M  V30 2908 H 279.597 1.3123 -6.5896 0
M  V30 2909 N 282.317 1.53212 0.369288 0
M  V30 2910 C 283.545 1.73119 1.13303 0
M  V30 2911 C 283.96 0.458455 1.83149 0
M  V30 2912 O 283.317 -0.568403 1.73423 0
M  V30 2913 C 283.368 2.89413 2.16616 0
M  V30 2914 O 283.089 4.11761 1.49614 0
M  V30 2915 C 284.59 3.21161 3.05566 0
M  V30 2916 H 281.81 0.579107 0.338934 0
M  V30 2917 H 284.354 1.99942 0.429338 0
M  V30 2918 H 282.509 2.64994 2.82589 0
M  V30 2919 H 282.923 4.76858 2.18419 0
M  V30 2920 H 284.397 4.05949 3.74045 0
M  V30 2921 H 284.874 2.36369 3.70171 0
M  V30 2922 H 285.48 3.47492 2.45213 0
M  V30 2923 N 283.795 -0.628877 1.44509 0
M  V30 2924 C 285.206 -1.21054 1.42137 0
M  V30 2925 C 285.557 -1.95715 0.137881 0
M  V30 2926 O 284.682 -2.02554 -0.761645 0
M  V30 2927 C 285.277 -2.20189 2.57493 0
M  V30 2928 C 283.836 -2.73777 2.58308 0
M  V30 2929 C 282.983 -1.48813 2.33987 0
M  V30 2930 H 285.934 -0.41942 1.53057 0
M  V30 2931 H 285.955 -3.02833 2.30375 0
M  V30 2932 H 285.467 -1.6582 3.50892 0
M  V30 2933 H 283.568 -3.32142 1.68856 0
M  V30 2934 H 283.681 -3.19662 3.56865 0
M  V30 2935 H 282.045 -1.77024 1.83124 0
M  V30 2936 H 282.828 -0.963442 3.29504 0
M  V30 2937 N 285.273 -1.31445 -0.869486 0
M  V30 2938 C 286.521 -1.20918 -1.61936 0
M  V30 2939 C 286.842 0.232683 -1.93607 0
M  V30 2940 O 286.112 1.15352 -1.58338 0
M  V30 2941 H 284.692 -0.44454 -0.600328 0
M  V30 2942 H 287.354 -1.64776 -1.0409 0
M  V30 2943 H 286.45 -1.78124 -2.56278 0
M  V30 2944 N 286.751 1.08385 -1.14413 0
M  V30 2945 C 288 1.80153 -0.907076 0
M  V30 2946 C 288.313 1.87176 0.567851 0
M  V30 2947 O 289.519 2.55359 0.922172 0
M  V30 2948 C 287.975 3.23687 -1.57336 0
M  V30 2949 C 287.583 3.24897 -3.08457 0
M  V30 2950 C 289.327 4.00136 -1.41744 0
M  V30 2951 C 287.234 4.6302 -3.67921 0
M  V30 2952 H 286.164 0.675139 -0.335714 0
M  V30 2953 H 288.815 1.21733 -1.37307 0
M  V30 2954 H 287.197 3.82234 -1.03505 0
M  V30 2955 H 288.371 2.76055 -3.68958 0
M  V30 2956 H 286.686 2.61943 -3.2369 0
M  V30 2957 H 289.283 5.02201 -1.83572 0
M  V30 2958 H 289.626 4.14709 -0.363576 0
M  V30 2959 H 290.159 3.48058 -1.92614 0
M  V30 2960 H 286.898 4.5365 -4.73161 0
M  V30 2961 H 286.418 5.12143 -3.12201 0
M  V30 2962 H 288.097 5.31994 -3.68227 0
M  V30 2963 N 288.23 0.939286 1.26551 0
M  V30 2964 C 289.458 0.602536 1.97932 0
M  V30 2965 C 289.873 -0.82206 1.69964 0
M  V30 2966 O 289.23 -1.54789 0.966784 0
M  V30 2967 C 289.281 0.832946 3.51773 0
M  V30 2968 O 289.002 2.20151 3.78768 0
M  V30 2969 C 290.503 0.506483 4.40397 0
M  V30 2970 H 287.723 0.227248 0.631347 0
M  V30 2971 H 290.267 1.25948 1.61113 0
M  V30 2972 H 288.422 0.222644 3.8676 0
M  V30 2973 H 288.836 2.26013 4.73306 0
M  V30 2974 H 290.31 0.718333 5.47306 0
M  V30 2975 H 290.787 -0.558451 4.35635 0
M  V30 2976 H 291.393 1.09543 4.10951 0
M  V30 2977 N 289.708 -1.40897 0.706093 0
M  V30 2978 C 290.954 -2.01352 0.241889 0
M  V30 2979 C 291.287 -1.55832 -1.15888 0
M  V30 2980 O 290.562 -0.774145 -1.7843 0
M  V30 2981 C 290.845 -3.58752 0.311311 0
M  V30 2982 C 290.698 -4.1437 1.74978 0
M  V30 2983 C 292.017 -4.38914 -0.322922 0
M  V30 2984 H 289.136 -0.731562 0.0893687 0
M  V30 2985 H 291.778 -1.67504 0.896802 0
M  V30 2986 H 289.928 -3.87718 -0.246302 0
M  V30 2987 H 291.6 -3.96239 2.36205 0
M  V30 2988 H 289.843 -3.69016 2.28057 0
M  V30 2989 H 290.514 -5.23532 1.74981 0
M  V30 2990 H 292.99 -4.15822 0.152089 0
M  V30 2991 H 291.866 -5.48358 -0.243855 0
M  V30 2992 H 292.127 -4.19176 -1.40513 0
M  V30 2993 N 291.186 -0.45159 -1.50991 0
M  V30 2994 C 292.411 0.110667 -2.07105 0
M  V30 2995 C 292.836 1.3446 -1.31538 0
M  V30 2996 O 292.194 1.77743 -0.357365 0
M  V30 2997 C 292.242 0.397238 -3.58405 0
M  V30 2998 O 291.346 1.48124 -3.84881 0
M  V30 2999 H 290.687 -0.00439271 -0.663985 0
M  V30 3000 H 293.217 -0.637026 -1.9443 0
M  V30 3001 H 293.227 0.64351 -4.02893 0
M  V30 3002 H 291.902 -0.504553 -4.12828 0
M  V30 3003 H 290.479 1.22381 -3.52246 0
M  V30 3004 N 292.664 1.56529 -0.183458 0
M  V30 3005 C 293.627 2.17324 0.728223 0
M  V30 3006 C 294.627 1.12453 1.14939 0
M  V30 3007 O 295.817 1.37902 1.06437 0
M  V30 3008 C 292.949 2.76591 1.99274 0
M  V30 3009 H 294.142 2.99241 0.198772 0
M  V30 3010 H 291.695 1.5616 0.0661391 0
M  V30 3011 H 292.43 1.98441 2.56499 0
M  V30 3012 H 292.215 3.5335 1.69959 0
M  V30 3013 H 293.705 3.23311 2.6431 0
M  V30 3014 N 294.142 -0.090211 1.57342 0
M  V30 3015 C 295.372 -0.805055 1.90269 0
M  V30 3016 C 295.78 -1.72561 0.775842 0
M  V30 3017 O 295.123 -1.81839 -0.260843 0
M  V30 3018 C 295.185 -1.66734 3.18497 0
M  V30 3019 C 294.849 -0.918092 4.47683 0
M  V30 3020 C 295.846 -0.245674 5.19319 0
M  V30 3021 C 293.531 -0.890724 4.94339 0
M  V30 3022 C 295.525 0.444088 6.35851 0
M  V30 3023 C 293.212 -0.197179 6.10782 0
M  V30 3024 C 294.21 0.469044 6.81388 0
M  V30 3025 O 293.898 1.15146 7.95611 0
M  V30 3026 H 293.63 -0.235143 0.633785 0
M  V30 3027 H 296.184 -0.0703805 2.05279 0
M  V30 3028 H 294.414 -2.44437 2.99646 0
M  V30 3029 H 296.103 -2.25919 3.37217 0
M  V30 3030 H 296.869 -0.258246 4.84312 0
M  V30 3031 H 292.748 -1.39873 4.39268 0
M  V30 3032 H 296.292 0.964667 6.90898 0
M  V30 3033 H 292.189 -0.18247 6.45242 0
M  V30 3034 H 292.957 1.05885 8.11622 0
M  V30 3035 N 295.62 -1.53406 -0.361157 0
M  V30 3036 C 296.897 -1.60411 -1.11927 0
M  V30 3037 C 297.277 -0.414385 -2.06993 0
M  V30 3038 O 296.625 0.594976 -2.20618 0
M  V30 3039 C 296.835 -2.95652 -1.85448 0
M  V30 3040 C 298.183 -3.50386 -2.39823 0
M  V30 3041 O 299.207 -2.97711 -1.95568 0
M  V30 3042 O 298.066 -4.42482 -3.20737 0
M  V30 3043 H 295.16 -0.64811 -0.513695 0
M  V30 3044 H 297.706 -1.65749 -0.364065 0
M  V30 3045 H 296.478 -3.73682 -1.16091 0
M  V30 3046 H 296.101 -2.93825 -2.67866 0
M  V30 3047 N 297.098 0.621204 -1.44841 0
M  V30 3048 C 298.326 1.40752 -1.51646 0
M  V30 3049 C 298.741 1.88246 -0.144549 0
M  V30 3050 O 298.098 1.61422 0.851416 0
M  V30 3051 C 298.149 2.62119 -2.4895 0
M  V30 3052 O 297.87 2.16602 -3.80808 0
M  V30 3053 C 299.371 3.55135 -2.65319 0
M  V30 3054 H 296.591 0.431325 -0.514004 0
M  V30 3055 H 299.135 0.758835 -1.899 0
M  V30 3056 H 297.29 3.23058 -2.13805 0
M  V30 3057 H 297.704 2.95358 -4.33433 0
M  V30 3058 H 299.178 4.36874 -3.37409 0
M  V30 3059 H 299.655 4.04592 -1.70886 0
M  V30 3060 H 300.261 3.00058 -3.01405 0
M  V30 3061 N 298.576 1.31904 0.862503 0
M  V30 3062 C 299.853 1.12644 1.59908 0
M  V30 3063 C 300.233 -0.316104 2.0872 0
M  V30 3064 O 299.581 -1.31145 1.87118 0
M  V30 3065 C 299.791 2.1472 2.7513 0
M  V30 3066 C 301.139 2.47637 3.44907 0
M  V30 3067 O 302.163 2.13205 2.85346 0
M  V30 3068 O 301.022 3.06632 4.52371 0
M  V30 3069 H 298.116 0.43416 0.703871 0
M  V30 3070 H 300.662 1.43408 0.907314 0
M  V30 3071 H 299.434 3.1172 2.3653 0
M  V30 3072 H 299.057 1.84905 3.51989 0
M  V30 3073 N 300.054 -1.07777 1.14986 0
M  V30 3074 C 301.47 -1.32373 0.891596 0
M  V30 3075 C 301.67 -1.9609 -0.463788 0
M  V30 3076 O 300.726 -2.21801 -1.20667 0
M  V30 3077 C 302.039 -2.21905 2.02925 0
M  V30 3078 C 303.587 -2.35367 2.06329 0
M  V30 3079 C 304.062 -3.28245 3.19405 0
M  V30 3080 N 305.553 -3.35824 3.19024 0
M  V30 3081 C 306.288 -4.07739 4.03158 0
M  V30 3082 N 305.784 -4.82306 4.97346 0
M  V30 3083 N 307.577 -4.03635 3.91197 0
M  V30 3084 H 299.728 -0.648039 2.02273 0
M  V30 3085 H 301.991 -0.348149 0.881757 0
M  V30 3086 H 301.697 -1.82342 3.0074 0
M  V30 3087 H 301.571 -3.22407 1.95789 0
M  V30 3088 H 303.958 -2.74186 1.09116 0
M  V30 3089 H 304.039 -1.34585 2.17533 0
M  V30 3090 H 303.683 -2.90146 4.16867 0
M  V30 3091 H 303.613 -4.28971 3.05437 0
M  V30 3092 H 306.104 -2.8267 2.50811 0
M  V30 3093 H 306.417 -5.34661 5.57994 0
M  V30 3094 H 304.762 -4.81337 5.01338 0
M  V30 3095 H 307.953 -3.44491 3.16928 0
M  V30 3096 H 308.126 -4.59417 4.5699 0
M  V30 3097 N 301.532 -0.945985 -1.26051 0
M  V30 3098 C 302.48 -0.450259 -2.282 0
M  V30 3099 C 303.474 0.47497 -1.62605 0
M  V30 3100 O 304.68 0.352653 -1.76512 0
M  V30 3101 H 301.055 -0.127081 -0.741184 0
M  V30 3102 H 303.026 -1.32422 -2.67408 0
M  V30 3103 C 301.775 0.26467 -3.46691 0
M  V30 3104 H 301.098 -0.438123 -3.97392 0
M  V30 3105 H 302.538 0.575678 -4.20074 0
M  V30 3106 C 300.997 1.48416 -3.02447 0
M  V30 3107 O 301.527 2.58227 -3.07704 0
M  V30 3108 N 299.733 1.34243 -2.57735 0
M  V30 3109 H 299.28 0.448994 -2.53657 0
M  V30 3110 H 299.238 2.15957 -2.28495 0
M  V30 3111 N 303.011 1.40521 -0.713556 0
M  V30 3112 C 303.959 2.32549 -0.0485227 0
M  V30 3113 C 304.953 1.51931 0.74922 0
M  V30 3114 O 306.159 1.67745 0.652816 0
M  V30 3115 H 302.534 0.751994 0.00311138 0
M  V30 3116 H 304.505 2.86291 -0.841443 0
M  V30 3117 C 303.254 3.36879 0.860687 0
M  V30 3118 H 302.577 3.98978 0.256246 0
M  V30 3119 H 304.017 4.03772 1.294 0
M  V30 3120 C 302.476 2.72197 1.9852 0
M  V30 3121 O 303.006 2.5837 3.07584 0
M  V30 3122 N 301.212 2.30612 1.76823 0
M  V30 3123 H 300.759 2.42059 0.881217 0
M  V30 3124 H 300.717 1.87672 2.52243 0
M  V30 3125 N 304.489 0.459591 1.5075 0
M  V30 3126 C 305.719 -0.0972338 2.06371 0
M  V30 3127 C 306.127 -1.35074 1.32483 0
M  V30 3128 O 305.47 -1.79637 0.384226 0
M  V30 3129 C 305.532 -0.462759 3.56509 0
M  V30 3130 C 305.196 0.687084 4.51805 0
M  V30 3131 C 306.193 1.56578 4.95761 0
M  V30 3132 C 303.878 0.874144 4.94635 0
M  V30 3133 C 305.872 2.61604 5.81242 0
M  V30 3134 C 303.559 1.92765 5.79901 0
M  V30 3135 C 304.557 2.79697 6.23104 0
M  V30 3136 O 304.245 3.83235 7.06673 0
M  V30 3137 H 303.977 -0.00140687 0.675999 0
M  V30 3138 H 306.531 0.644011 1.95043 0
M  V30 3139 H 304.761 -1.25703 3.65699 0
M  V30 3140 H 306.45 -0.953323 3.94546 0
M  V30 3141 H 307.216 1.4329 4.6335 0
M  V30 3142 H 303.095 0.207006 4.60535 0
M  V30 3143 H 306.639 3.29489 6.14884 0
M  V30 3144 H 302.536 2.06064 6.11725 0
M  V30 3145 H 303.304 3.80084 7.24899 0
M  V30 3146 N 305.967 -1.56429 0.191757 0
M  V30 3147 C 307.197 -2.01574 -0.452928 0
M  V30 3148 C 307.605 -1.07107 -1.55964 0
M  V30 3149 O 306.948 -0.067534 -1.83576 0
M  V30 3150 C 307.01 -3.43121 -1.07278 0
M  V30 3151 C 306.674 -4.56879 -0.105214 0
M  V30 3152 C 307.671 -5.15379 0.684149 0
M  V30 3153 C 305.356 -5.023 0.00489824 0
M  V30 3154 C 307.35 -6.17746 1.57062 0
M  V30 3155 C 305.037 -6.04511 0.894935 0
M  V30 3156 C 306.035 -6.62108 1.67637 0
M  V30 3157 O 305.723 -7.62335 2.55149 0
M  V30 3158 H 305.455 -0.665554 -0.118379 0
M  V30 3159 H 308.009 -2.03245 0.296737 0
M  V30 3160 H 306.239 -3.38425 -1.87097 0
M  V30 3161 H 307.928 -3.72093 -1.62177 0
M  V30 3162 H 308.694 -4.81157 0.609365 0
M  V30 3163 H 304.573 -4.57168 -0.593156 0
M  V30 3164 H 308.117 -6.6263 2.181 0
M  V30 3165 H 304.014 -6.38157 0.970847 0
M  V30 3166 H 304.782 -7.79741 2.48892 0
M  V30 3167 N 307.445 0.0818655 -1.57387 0
M  V30 3168 C 308.408 1.08265 -2.02018 0
M  V30 3169 C 309.408 1.32183 -0.915664 0
M  V30 3170 O 310.598 1.28073 -1.18081 0
M  V30 3171 C 307.73 2.42871 -2.39221 0
M  V30 3172 H 308.923 0.698204 -2.91659 0
M  V30 3173 H 306.476 0.327303 -1.52835 0
M  V30 3174 H 307.211 2.86167 -1.52575 0
M  V30 3175 H 306.996 2.26855 -3.19811 0
M  V30 3176 H 308.486 3.14826 -2.74362 0
M  V30 3177 N 308.923 1.53595 0.353017 0
M  V30 3178 C 310.339 1.43648 0.695516 0
M  V30 3179 C 310.539 0.585617 1.92802 0
M  V30 3180 O 309.595 0.0729223 2.52395 0
M  V30 3181 C 310.908 2.8701 0.896991 0
M  V30 3182 C 312.456 2.96723 0.996209 0
M  V30 3183 C 312.931 4.41173 1.23007 0
M  V30 3184 N 314.422 4.44657 1.29749 0
M  V30 3185 C 315.157 5.53547 1.49577 0
M  V30 3186 N 314.653 6.72461 1.66639 0
M  V30 3187 N 316.446 5.41145 1.52048 0
M  V30 3188 H 308.597 2.07415 -0.457481 0
M  V30 3189 H 310.86 0.9372 -0.142687 0
M  V30 3190 H 310.566 3.51644 0.0629938 0
M  V30 3191 H 310.44 3.31401 1.80148 0
M  V30 3192 H 312.827 2.32235 1.82074 0
M  V30 3193 H 312.908 2.55707 0.0688331 0
M  V30 3194 H 312.552 5.06238 0.410505 0
M  V30 3195 H 312.482 4.79772 2.17086 0
M  V30 3196 H 314.973 3.58963 1.18126 0
M  V30 3197 H 315.286 7.51214 1.81378 0
M  V30 3198 H 313.631 6.75423 1.63794 0
M  V30 3199 H 316.822 4.47205 1.38294 0
M  V30 3200 H 316.995 6.26068 1.67159 0
M  V30 3201 N 310.401 -0.613514 1.45168 0
M  V30 3202 C 311.649 -1.36997 1.48581 0
M  V30 3203 C 311.97 -1.94589 0.126545 0
M  V30 3204 O 311.24 -1.76816 -0.843372 0
M  V30 3205 H 309.82 -0.508558 0.547154 0
M  V30 3206 H 312.482 -0.720853 1.81079 0
M  V30 3207 H 311.578 -2.1924 2.22127 0
M  V30 3208 N 311.879 -1.3236 -0.855495 0
M  V30 3209 C 313.126 -1.22872 -1.60962 0
M  V30 3210 C 313.454 0.209658 -1.93367 0
M  V30 3211 O 312.709 1.16243 -1.57436 0
M  V30 3212 C 313.008 -2.03275 -2.93963 0
M  V30 3213 C 312.674 -3.5264 -2.80991 0
M  V30 3214 C 311.336 -3.93364 -2.7716 0
M  V30 3215 C 313.688 -4.47626 -2.66983 0
M  V30 3216 C 311.016 -5.27319 -2.572 0
M  V30 3217 C 313.368 -5.81723 -2.48558 0
M  V30 3218 C 312.032 -6.2165 -2.4312 0
M  V30 3219 H 311.302 -0.44962 -0.589001 0
M  V30 3220 H 313.949 -1.63777 -0.992442 0
M  V30 3221 H 312.254 -1.55095 -3.59795 0
M  V30 3222 H 313.951 -1.93303 -3.51333 0
M  V30 3223 H 310.541 -3.20295 -2.84797 0
M  V30 3224 H 314.725 -4.17084 -2.68988 0
M  V30 3225 H 309.981 -5.57311 -2.51424 0
M  V30 3226 H 314.155 -6.5494 -2.36699 0
M  V30 3227 H 311.782 -7.25388 -2.27412 0
M  V30 3228 N 313.357 1.07166 -1.15556 0
M  V30 3229 C 314.582 1.84053 -0.955988 0
M  V30 3230 C 315.007 1.81586 0.490739 0
M  V30 3231 O 314.365 1.21018 1.34997 0
M  V30 3232 C 314.413 3.28957 -1.47714 0
M  V30 3233 O 313.517 4.06795 -0.677593 0
M  V30 3234 H 312.858 0.569842 -0.340847 0
M  V30 3235 H 315.388 1.35178 -1.53584 0
M  V30 3236 H 315.398 3.79788 -1.4908 0
M  V30 3237 H 314.073 3.30068 -2.53037 0
M  V30 3238 H 312.65 3.6561 -0.733721 0
M  V30 3239 N 314.835 0.952656 1.25548 0
M  V30 3240 C 316.084 0.602053 1.92505 0
M  V30 3241 C 316.397 -0.864663 1.75451 0
M  V30 3242 O 317.603 -1.32514 2.36965 0
M  V30 3243 C 316.059 1.02607 3.44963 0
M  V30 3244 C 315.667 2.51519 3.70732 0
M  V30 3245 C 317.411 0.747905 4.1786 0
M  V30 3246 C 315.318 2.87732 5.16686 0
M  V30 3247 H 314.248 0.22146 0.720744 0
M  V30 3248 H 316.899 1.15684 1.42441 0
M  V30 3249 H 315.281 0.399712 3.93978 0
M  V30 3250 H 316.455 3.19157 3.32378 0
M  V30 3251 H 314.77 2.76786 3.11092 0
M  V30 3252 H 317.367 0.994647 5.25367 0
M  V30 3253 H 317.71 -0.315629 4.15102 0
M  V30 3254 H 318.243 1.33452 3.74747 0
M  V30 3255 H 314.982 3.93095 5.24554 0
M  V30 3256 H 314.502 2.24765 5.56094 0
M  V30 3257 H 316.181 2.76817 5.84792 0
M  V30 3258 N 316.313 -1.40141 0.720998 0
M  V30 3259 C 317.261 -2.3252 0.0608547 0
M  V30 3260 C 318.255 -1.52326 -0.741152 0
M  V30 3261 O 319.461 -1.68089 -0.643911 0
M  V30 3262 H 315.836 -0.751999 0.000876664 0
M  V30 3263 H 317.807 -2.8584 0.856614 0
M  V30 3264 C 316.556 -3.37331 -0.842809 0
M  V30 3265 H 315.879 -3.99108 -0.235084 0
M  V30 3266 H 317.319 -4.04452 -1.27257 0
M  V30 3267 C 315.778 -2.73246 -1.97074 0
M  V30 3268 O 316.308 -2.59998 -3.06209 0
M  V30 3269 N 314.514 -2.31547 -1.75597 0
M  V30 3270 H 314.061 -2.42522 -0.868368 0
M  V30 3271 H 314.019 -1.89007 -2.51244 0
M  V30 3272 N 317.792 -0.46758 -1.50504 0
M  V30 3273 C 318.74 0.342482 -2.30065 0
M  V30 3274 C 319.734 0.993596 -1.37201 0
M  V30 3275 O 320.94 0.925102 -1.54408 0
M  V30 3276 H 317.315 0.129283 -0.740803 0
M  V30 3277 H 319.286 -0.34899 -2.96352 0
M  V30 3278 C 318.035 1.4139 -3.17654 0
M  V30 3279 H 317.358 0.922264 -3.89017 0
M  V30 3280 H 318.798 1.95335 -3.76325 0
M  V30 3281 C 317.257 2.4139 -2.35016 0
M  V30 3282 O 317.787 3.46586 -2.03079 0
M  V30 3283 N 315.993 2.13021 -1.97662 0
M  V30 3284 H 315.54 1.27499 -2.23834 0
M  V30 3285 H 315.498 2.80164 -1.42673 0
M  V30 3286 N 319.27 1.56325 -0.20005 0
M  V30 3287 C 320.517 1.97719 0.437411 0
M  V30 3288 C 320.845 1.08709 1.61284 0
M  V30 3289 O 320.1 0.127261 1.95286 0
M  V30 3290 C 320.399 3.4495 0.935103 0
M  V30 3291 C 320.065 4.5072 -0.12749 0
M  V30 3292 C 318.727 4.79368 -0.419451 0
M  V30 3293 C 321.079 5.14268 -0.847231 0
M  V30 3294 C 318.407 5.68854 -1.43604 0
M  V30 3295 C 320.759 6.04852 -1.85301 0
M  V30 3296 C 319.423 6.31855 -2.15211 0
M  V30 3297 H 318.693 0.723507 0.16006 0
M  V30 3298 H 321.34 1.89166 -0.298056 0
M  V30 3299 H 319.645 3.50599 1.74894 0
M  V30 3300 H 321.342 3.74337 1.43781 0
M  V30 3301 H 317.932 4.28458 0.11023 0
M  V30 3302 H 322.116 4.92222 -0.634901 0
M  V30 3303 H 317.372 5.88047 -1.67364 0
M  V30 3304 H 321.546 6.53152 -2.41591 0
M  V30 3305 H 319.173 7.00994 -2.94129 0
M  V30 3306 N 320.748 -0.0735177 1.57428 0
M  V30 3307 C 321.68 -1.11423 2.00294 0
M  V30 3308 C 322.693 -1.35084 0.908637 0
M  V30 3309 O 323.882 -1.33355 1.18654 0
M  V30 3310 C 320.982 -2.46548 2.32523 0
M  V30 3311 C 320.155 -2.42867 3.63778 0
M  V30 3312 C 319.214 -3.60087 3.83697 0
M  V30 3313 O 318.24 -3.41595 4.55304 0
M  V30 3314 N 319.442 -4.80372 3.25919 0
M  V30 3315 H 322.207 -0.749206 2.90184 0
M  V30 3316 H 319.768 -0.262195 1.59763 0
M  V30 3317 H 321.76 -3.23607 2.43024 0
M  V30 3318 H 320.33 -2.75059 1.48531 0
M  V30 3319 H 319.55 -1.51206 3.64047 0
M  V30 3320 H 320.838 -2.37506 4.49965 0
M  V30 3321 H 320.236 -4.983 2.67795 0
M  V30 3322 H 318.793 -5.54948 3.41871 0
M  V30 3323 N 322.226 -1.5378 -0.344866 0
M  V30 3324 C 323.456 -1.74646 -1.10374 0
M  V30 3325 C 323.864 -0.48491 -1.8288 0
M  V30 3326 O 323.207 0.553062 -1.75177 0
M  V30 3327 C 323.269 -2.87145 -2.16306 0
M  V30 3328 C 322.933 -4.26795 -1.63386 0
M  V30 3329 C 323.93 -5.08412 -1.08688 0
M  V30 3330 C 321.615 -4.73276 -1.68272 0
M  V30 3331 C 323.609 -6.34609 -0.595792 0
M  V30 3332 C 321.296 -5.99446 -1.18776 0
M  V30 3333 C 322.294 -6.79946 -0.645215 0
M  V30 3334 O 321.982 -8.03745 -0.157626 0
M  V30 3335 H 321.714 -0.587112 -0.335075 0
M  V30 3336 H 324.268 -2.01403 -0.403252 0
M  V30 3337 H 322.498 -2.55909 -2.89909 0
M  V30 3338 H 324.187 -2.95992 -2.77747 0
M  V30 3339 H 324.953 -4.73666 -1.04236 0
M  V30 3340 H 320.832 -4.10677 -2.09442 0
M  V30 3341 H 324.376 -6.97389 -0.171654 0
M  V30 3342 H 320.273 -6.33687 -1.22928 0
M  V30 3343 H 321.041 -8.18038 -0.275037 0
M  V30 3344 N 323.704 0.605807 -1.45491 0
M  V30 3345 C 324.981 1.36522 -1.40075 0
M  V30 3346 C 325.361 2.10976 -0.0722744 0
M  V30 3347 O 324.709 2.08007 0.945808 0
M  V30 3348 C 324.919 2.31056 -2.61561 0
M  V30 3349 C 326.267 2.93608 -3.06724 0
M  V30 3350 O 327.291 2.41376 -2.61946 0
M  V30 3351 O 326.15 3.88421 -3.84437 0
M  V30 3352 H 323.244 0.612248 -0.555951 0
M  V30 3353 H 325.79 0.628747 -1.57623 0
M  V30 3354 H 324.562 1.75311 -3.49831 0
M  V30 3355 H 324.185 3.12081 -2.46356 0
M  V30 3356 N 325.182 1.32811 0.848464 0
M  V30 3357 C 326.43 1.23479 1.59991 0
M  V30 3358 C 326.751 -0.201853 1.93952 0
M  V30 3359 O 326.021 -1.12818 1.60153 0
M  V30 3360 H 324.601 0.454034 0.593179 0
M  V30 3361 H 327.263 1.66412 1.01455 0
M  V30 3362 H 326.359 1.82178 2.53412 0
M  V30 3363 N 326.66 -1.06551 1.16123 0
M  V30 3364 C 327.909 -1.78687 0.935622 0
M  V30 3365 C 328.222 -1.88056 -0.538001 0
M  V30 3366 O 329.428 -2.56794 -0.88143 0
M  V30 3367 C 327.884 -3.21143 1.62466 0
M  V30 3368 C 327.492 -3.19949 3.13587 0
M  V30 3369 C 329.236 -3.9783 1.48092 0
M  V30 3370 C 327.143 -4.57108 3.75241 0
M  V30 3371 H 326.073 -0.669712 0.346412 0
M  V30 3372 H 328.724 -1.19534 1.39226 0
M  V30 3373 H 327.106 -3.80539 1.09572 0
M  V30 3374 H 328.28 -2.70151 3.73303 0
M  V30 3375 H 326.595 -2.5676 3.27816 0
M  V30 3376 H 329.192 -4.99217 1.91538 0
M  V30 3377 H 329.535 -4.14078 0.429507 0
M  V30 3378 H 330.068 -3.4495 1.98127 0
M  V30 3379 H 326.807 -4.46065 4.80319 0
M  V30 3380 H 326.327 -5.07111 3.20309 0
M  V30 3381 H 328.006 -5.26069 3.76644 0
M  V30 3382 N 328.138 -0.959301 -1.25041 0
M  V30 3383 C 329.549 -0.65667 -1.74771 0
M  V30 3384 C 329.9 0.827852 -1.77879 0
M  V30 3385 O 329.025 1.64783 -1.40269 0
M  V30 3386 C 329.62 -1.1853 -3.1739 0
M  V30 3387 C 328.179 -0.932734 -3.6466 0
M  V30 3388 C 327.326 -1.32558 -2.43564 0
M  V30 3389 H 330.277 -1.13558 -1.10862 0
M  V30 3390 H 330.298 -0.547582 -3.76539 0
M  V30 3391 H 329.81 -2.26576 -3.15095 0
M  V30 3392 H 327.911 0.13257 -3.72364 0
M  V30 3393 H 328.024 -1.57248 -4.52559 0
M  V30 3394 H 326.388 -0.743956 -2.43593 0
M  V30 3395 H 327.171 -2.41537 -2.43957 0
M  V30 3396 N 329.616 1.39756 -0.72842 0
M  V30 3397 C 330.841 2.05472 -0.282159 0
M  V30 3398 C 331.266 1.54549 1.07221 0
M  V30 3399 O 330.624 0.686372 1.67805 0
M  V30 3400 C 330.672 3.59462 -0.286264 0
M  V30 3401 O 329.776 4.05918 0.728298 0
M  V30 3402 H 329.117 0.651226 -0.129618 0
M  V30 3403 H 331.647 1.78915 -0.992499 0
M  V30 3404 H 331.657 4.07798 -0.128373 0
M  V30 3405 H 330.332 3.95889 -1.27456 0
M  V30 3406 H 328.909 3.69012 0.537081 0
M  V30 3407 N 331.094 0.475555 1.50254 0
M  V30 3408 C 332.322 -0.0754493 2.06762 0
M  V30 3409 C 332.737 -1.33111 1.33891 0
M  V30 3410 O 332.094 -1.77846 0.40952 0
M  V30 3411 C 332.145 -0.359008 3.59713 0
M  V30 3412 O 331.866 0.846851 4.29837 0
M  V30 3413 C 333.367 -0.956484 4.32858 0
M  V30 3414 H 330.587 0.00907525 0.670939 0
M  V30 3415 H 333.131 0.665618 1.93364 0
M  V30 3416 H 331.286 -1.05001 3.72899 0
M  V30 3417 H 331.7 0.594162 5.21124 0
M  V30 3418 H 333.174 -1.10463 5.40834 0
M  V30 3419 H 333.651 -1.94775 3.93649 0
M  V30 3420 H 334.257 -0.303723 4.24214 0
M  V30 3421 N 332.573 -1.56217 0.208337 0
M  V30 3422 C 333.536 -2.18455 -0.693557 0
M  V30 3423 C 334.536 -1.14268 -1.13135 0
M  V30 3424 O 335.726 -1.39577 -1.0423 0
M  V30 3425 C 332.858 -2.79727 -1.94848 0
M  V30 3426 H 334.051 -2.99519 -0.15114 0
M  V30 3427 H 331.604 -1.56245 -0.041287 0
M  V30 3428 H 332.339 -2.02497 -2.53309 0
M  V30 3429 H 332.124 -3.56009 -1.64316 0
M  V30 3430 H 333.614 -3.27475 -2.59133 0
M  V30 3431 N 334.051 0.0651679 -1.57465 0
M  V30 3432 C 335.467 0.420105 -1.53972 0
M  V30 3433 C 335.667 1.78782 -0.929474 0
M  V30 3434 O 334.723 2.46771 -0.534839 0
M  V30 3435 C 336.036 0.355084 -2.98596 0
M  V30 3436 C 337.584 0.434792 -3.09965 0
M  V30 3437 C 338.059 0.399609 -4.56253 0
M  V30 3438 N 339.55 0.459488 -4.60915 0
M  V30 3439 C 340.285 0.454584 -5.71595 0
M  V30 3440 N 339.781 0.404102 -6.9162 0
M  V30 3441 N 341.574 0.501635 -5.59857 0
M  V30 3442 H 333.725 -0.830328 -1.95498 0
M  V30 3443 H 335.988 -0.312244 -0.895102 0
M  V30 3444 H 335.694 -0.583357 -3.46828 0
M  V30 3445 H 335.568 1.16275 -3.58831 0
M  V30 3446 H 337.955 1.36366 -2.61703 0
M  V30 3447 H 338.036 -0.40157 -2.52628 0
M  V30 3448 H 337.68 -0.525436 -5.05175 0
M  V30 3449 H 337.61 1.25359 -5.11461 0
M  V30 3450 H 340.101 0.502482 -3.74544 0
M  V30 3451 H 340.414 0.404468 -7.71741 0
M  V30 3452 H 338.759 0.37069 -6.94011 0
M  V30 3453 H 341.95 0.538812 -4.64989 0
M  V30 3454 H 342.123 0.494345 -6.46112 0
M  V30 3455 N 335.529 1.53961 0.336706 0
M  V30 3456 C 336.477 1.83136 1.43401 0
M  V30 3457 C 337.471 0.702313 1.54156 0
M  V30 3458 O 338.677 0.885765 1.56698 0
M  V30 3459 H 335.052 0.580309 0.478273 0
M  V30 3460 H 337.023 2.74925 1.16012 0
M  V30 3461 C 335.772 2.06385 2.79822 0
M  V30 3462 H 335.095 2.92718 2.72316 0
M  V30 3463 H 336.535 2.30761 3.55704 0
M  V30 3464 C 334.994 0.851414 3.25964 0
M  V30 3465 O 335.524 0.0541904 4.01663 0
M  V30 3466 N 333.73 0.66672 2.82848 0
M  V30 3467 H 333.277 1.31665 2.21409 0
M  V30 3468 H 333.235 -0.143032 3.14074 0
M  V30 3469 N 337.007 -0.598083 1.45811 0
M  V30 3470 C 338.253 -1.35882 1.50545 0
M  V30 3471 C 338.586 -1.93616 0.150445 0
M  V30 3472 O 337.861 -1.75604 -0.83628 0
M  V30 3473 C 338.144 -2.49966 2.59208 0
M  V30 3474 C 337.997 -1.97367 4.04186 0
M  V30 3475 C 339.316 -3.52068 2.64076 0
M  V30 3476 H 336.435 -0.492717 0.548087 0
M  V30 3477 H 339.077 -0.673319 1.77669 0
M  V30 3478 H 337.227 -3.08443 2.3621 0
M  V30 3479 H 338.899 -1.43466 4.38423 0
M  V30 3480 H 337.142 -1.283 4.14393 0
M  V30 3481 H 337.813 -2.79649 4.75921 0
M  V30 3482 H 340.289 -3.03448 2.84708 0
M  V30 3483 H 339.165 -4.2937 3.41954 0
M  V30 3484 H 339.426 -4.08304 1.69531 0
M  V30 3485 N 338.485 -1.33259 -0.841409 0
M  V30 3486 C 339.733 -1.24326 -1.59334 0
M  V30 3487 C 340.054 0.191564 -1.94057 0
M  V30 3488 O 339.324 1.11967 -1.60749 0
M  V30 3489 H 337.904 -0.457174 -0.590763 0
M  V30 3490 H 340.566 -1.66947 -1.00571 0
M  V30 3491 H 339.662 -1.8352 -2.52442 0
M  V30 3492 N 339.963 1.05934 -1.16686 0
M  V30 3493 C 341.193 1.82226 -0.973515 0
M  V30 3494 C 341.601 1.8297 0.481532 0
M  V30 3495 O 340.944 1.25009 1.34604 0
M  V30 3496 C 341.006 3.29897 -1.42858 0
M  V30 3497 C 340.67 3.52849 -2.90425 0
M  V30 3498 C 341.667 3.45595 -3.88407 0
M  V30 3499 C 339.352 3.80053 -3.28428 0
M  V30 3500 C 341.346 3.65217 -5.22394 0
M  V30 3501 C 339.033 3.99325 -4.62583 0
M  V30 3502 C 340.031 3.91905 -5.59374 0
M  V30 3503 O 339.719 4.10647 -6.91104 0
M  V30 3504 H 339.451 0.581314 -0.345036 0
M  V30 3505 H 342.005 1.3453 -1.55212 0
M  V30 3506 H 340.235 3.78472 -0.793477 0
M  V30 3507 H 341.924 3.87692 -1.20207 0
M  V30 3508 H 342.69 3.24564 -3.60393 0
M  V30 3509 H 338.569 3.84936 -2.53664 0
M  V30 3510 H 342.113 3.59341 -5.9793 0
M  V30 3511 H 338.01 4.19846 -4.90306 0
M  V30 3512 H 338.778 4.27915 -6.97733 0
M  V30 3513 N 341.441 0.965919 1.2453 0
M  V30 3514 C 342.666 0.643971 1.97149 0
M  V30 3515 C 343.091 -0.779487 1.71189 0
M  V30 3516 O 342.449 -1.5288 0.974553 0
M  V30 3517 C 342.497 0.922557 3.48599 0
M  V30 3518 O 341.601 0.00707672 4.12399 0
M  V30 3519 H 340.942 0.243647 0.617683 0
M  V30 3520 H 343.472 1.29558 1.58353 0
M  V30 3521 H 343.482 0.853373 3.98976 0
M  V30 3522 H 342.157 1.95996 3.66822 0
M  V30 3523 H 340.734 0.12943 3.72675 0
M  V30 3524 N 342.919 -1.39368 0.735821 0
M  V30 3525 C 343.882 -2.2896 0.104874 0
M  V30 3526 C 344.882 -1.46347 -0.666274 0
M  V30 3527 O 346.072 -1.67014 -0.49517 0
M  V30 3528 C 343.204 -3.29857 -0.860656 0
M  V30 3529 H 344.397 -2.86259 0.894205 0
M  V30 3530 H 341.95 -1.48029 0.501704 0
M  V30 3531 H 342.685 -2.77615 -1.67631 0
M  V30 3532 H 342.47 -3.9087 -0.310327 0
M  V30 3533 H 343.96 -3.96893 -1.29867 0
M  V30 3534 N 344.397 -0.483516 -1.5 0
M  V30 3535 C 345.645 0.067027 -2.01989 0
M  V30 3536 C 345.966 1.3909 -1.36671 0
M  V30 3537 O 345.236 1.88978 -0.516152 0
M  V30 3538 H 343.816 0.0277606 -0.746484 0
M  V30 3539 H 346.478 -0.636773 -1.84204 0
M  V30 3540 H 345.574 0.209484 -3.11396 0
M  V30 3541 N 345.875 1.56104 -0.216619 0
M  V30 3542 C 346.823 2.21434 0.712036 0
M  V30 3543 C 347.817 1.19218 1.20348 0
M  V30 3544 O 349.023 1.3731 1.16387 0
M  V30 3545 H 345.398 0.70992 0.248026 0
M  V30 3546 H 347.369 2.98083 0.137558 0
M  V30 3547 C 346.118 2.90434 1.91163 0
M  V30 3548 H 345.441 3.68842 1.54258 0
M  V30 3549 H 346.881 3.39552 2.5393 0
M  V30 3550 C 345.34 1.92635 2.76394 0
M  V30 3551 O 345.87 1.44017 3.74996 0
M  V30 3552 N 344.076 1.60392 2.42328 0
M  V30 3553 H 343.623 2.00122 1.622 0
M  V30 3554 H 343.581 0.952159 2.99635 0
M  V30 3555 N 347.353 -0.0568162 1.57498 0
M  V30 3556 C 348.581 -0.765626 1.92213 0
M  V30 3557 C 348.996 -1.70353 0.813961 0
M  V30 3558 O 348.353 -1.81268 -0.211701 0
M  V30 3559 C 348.404 -1.5465 3.2675 0
M  V30 3560 O 348.125 -0.646278 4.33307 0
M  V30 3561 C 349.626 -2.35497 3.75574 0
M  V30 3562 H 346.846 -0.216835 0.634999 0
M  V30 3563 H 349.39 -0.0226146 2.04487 0
M  V30 3564 H 347.545 -2.24165 3.15957 0
M  V30 3565 H 347.959 -1.19093 5.108 0
M  V30 3566 H 349.433 -2.85722 4.72299 0
M  V30 3567 H 349.91 -3.15692 3.05344 0
M  V30 3568 H 350.516 -1.7111 3.8936 0
M  V30 3569 N 348.832 -1.54138 -0.328536 0
M  V30 3570 C 349.762 -1.86167 -1.40939 0
M  V30 3571 C 350.743 -0.718044 -1.54202 0
M  V30 3572 O 351.928 -0.971328 -1.68163 0
M  V30 3573 C 349.058 -2.08461 -2.77779 0
M  V30 3574 C 348.012 -3.24299 -2.7931 0
M  V30 3575 C 347.338 -3.31955 -4.19178 0
M  V30 3576 C 348.638 -4.62065 -2.43502 0
M  V30 3577 H 350.332 -2.76689 -1.14383 0
M  V30 3578 H 347.878 -1.33132 -0.548806 0
M  V30 3579 H 349.831 -2.29453 -3.53454 0
M  V30 3580 H 348.555 -1.14684 -3.05802 0
M  V30 3581 H 347.214 -3.03187 -2.0609 0
M  V30 3582 H 346.862 -2.35745 -4.44335 0
M  V30 3583 H 346.562 -4.09805 -4.2111 0
M  V30 3584 H 348.086 -3.55175 -4.96672 0
M  V30 3585 H 349.5 -4.8297 -3.08889 0
M  V30 3586 H 347.897 -5.42429 -2.56693 0
M  V30 3587 H 348.967 -4.64652 -1.38659 0
M  V30 3588 N 350.31 0.590341 -1.46126 0
M  V30 3589 C 351.535 1.37991 -1.54833 0
M  V30 3590 C 351.96 1.87163 -0.187506 0
M  V30 3591 O 351.318 1.61133 0.831008 0
M  V30 3592 C 351.366 2.54867 -2.55098 0
M  V30 3593 O 350.47 3.56061 -2.08073 0
M  V30 3594 H 349.811 0.411265 -0.521303 0
M  V30 3595 H 352.341 0.716819 -1.91632 0
M  V30 3596 H 352.351 3.01886 -2.74461 0
M  V30 3597 H 351.026 2.18429 -3.53923 0
M  V30 3598 H 349.603 3.15574 -1.98664 0
M  V30 3599 N 351.788 1.33704 0.83433 0
M  V30 3600 C 353.065 1.16011 1.57483 0
M  V30 3601 C 353.445 -0.27176 2.09343 0
M  V30 3602 O 352.793 -1.27146 1.89858 0
M  V30 3603 C 353.003 2.20507 2.70514 0
M  V30 3604 C 354.351 2.54898 3.39577 0
M  V30 3605 O 355.375 2.19209 2.80759 0
M  V30 3606 O 354.234 3.16158 4.45765 0
M  V30 3607 H 351.328 0.448992 0.694503 0
M  V30 3608 H 353.874 1.453 0.876691 0
M  V30 3609 H 352.646 3.16667 2.29865 0
M  V30 3610 H 352.269 1.92329 3.47987 0
M  V30 3611 N 353.266 -1.05314 1.17247 0
M  V30 3612 C 354.199 -2.12512 0.831507 0
M  V30 3613 C 355.177 -1.61351 -0.201168 0
M  V30 3614 O 356.361 -1.88317 -0.0829831 0
M  V30 3615 C 353.488 -3.37848 0.24015 0
M  V30 3616 C 352.534 -4.07832 1.24801 0
M  V30 3617 S 353.367 -4.56537 2.79882 0
M  V30 3618 C 354.523 -5.85122 2.22223 0
M  V30 3619 H 354.756 -2.41106 1.7394 0
M  V30 3620 H 352.289 -1.17896 0.996988 0
M  V30 3621 H 354.247 -4.10391 -0.0945588 0
M  V30 3622 H 352.908 -3.07392 -0.645668 0
M  V30 3623 H 352.101 -4.97883 0.78287 0
M  V30 3624 H 351.703 -3.41348 1.52831 0
M  V30 3625 H 353.995 -6.58408 1.59703 0
M  V30 3626 H 354.938 -6.36381 3.10523 0
M  V30 3627 H 355.346 -5.39626 1.65722 0
M  V30 3628 N 354.744 -0.972509 -1.24016 0
M  V30 3629 C 355.707 -0.511403 -2.23422 0
M  V30 3630 C 356.707 0.394679 -1.55881 0
M  V30 3631 O 357.897 0.189469 -1.73167 0
M  V30 3632 C 355.029 0.258769 -3.39916 0
M  V30 3633 H 356.222 -1.39024 -2.6573 0
M  V30 3634 H 353.775 -0.757585 -1.36713 0
M  V30 3635 H 354.51 1.1545 -3.03054 0
M  V30 3636 H 354.295 -0.391522 -3.9014 0
M  V30 3637 H 355.785 0.570244 -4.13688 0
M  V30 3638 N 356.222 1.38976 -0.743202 0
M  V30 3639 C 357.471 1.99581 -0.291592 0
M  V30 3640 C 357.784 1.59656 1.13001 0
M  V30 3641 O 358.99 2.13157 1.68156 0
M  V30 3642 C 357.446 3.56813 -0.470391 0
M  V30 3643 C 357.054 4.05695 -1.90041 0
M  V30 3644 C 358.798 4.24423 -0.0809709 0
M  V30 3645 C 356.705 5.5553 -2.02832 0
M  V30 3646 H 355.635 0.746615 -0.105272 0
M  V30 3647 H 358.286 1.58872 -0.918258 0
M  V30 3648 H 356.668 3.95359 0.225299 0
M  V30 3649 H 357.842 3.78464 -2.62872 0
M  V30 3650 H 356.157 3.50775 -2.24379 0
M  V30 3651 H 358.754 5.34474 -0.155445 0
M  V30 3652 H 359.097 4.04962 0.96497 0
M  V30 3653 H 359.63 3.9108 -0.728124 0
M  V30 3654 H 356.369 5.79881 -3.05643 0
M  V30 3655 H 355.889 5.84537 -1.34448 0
M  V30 3656 H 357.568 6.21069 -1.81335 0
M  V30 3657 N 357.7 0.491464 1.49741 0
M  V30 3658 C 358.93 -0.0534375 2.06531 0
M  V30 3659 C 359.338 -1.32233 1.35318 0
M  V30 3660 O 358.681 -1.78781 0.422243 0
M  V30 3661 C 358.743 -0.387034 3.57411 0
M  V30 3662 C 358.407 0.782764 4.50246 0
M  V30 3663 C 359.404 1.67059 4.92329 0
M  V30 3664 C 357.089 0.978866 4.9267 0
M  V30 3665 C 359.083 2.73874 5.75562 0
M  V30 3666 C 356.77 2.05022 5.75682 0
M  V30 3667 C 357.768 2.92851 6.17031 0
M  V30 3668 O 357.456 3.98138 6.98385 0
M  V30 3669 H 357.188 0.0129324 0.675876 0
M  V30 3670 H 359.742 0.685238 1.93633 0
M  V30 3671 H 357.972 -1.17918 3.68283 0
M  V30 3672 H 359.661 -0.869419 3.96479 0
M  V30 3673 H 360.427 1.53086 4.60206 0
M  V30 3674 H 356.306 0.304646 4.59992 0
M  V30 3675 H 359.85 3.42458 6.07757 0
M  V30 3676 H 355.747 2.18993 6.07217 0
M  V30 3677 H 356.515 3.95374 7.16674 0
M  V30 3678 N 359.178 -1.55987 0.224894 0
M  V30 3679 C 360.455 -1.90232 -0.455083 0
M  V30 3680 C 360.835 -1.14269 -1.77499 0
M  V30 3681 O 360.183 -0.253079 -2.27094 0
M  V30 3682 C 360.393 -3.42993 -0.644758 0
M  V30 3683 C 361.741 -4.13821 -0.950669 0
M  V30 3684 O 362.765 -3.4861 -0.731423 0
M  V30 3685 O 361.624 -5.29128 -1.36695 0
M  V30 3686 H 358.718 -0.79108 -0.241084 0
M  V30 3687 H 361.264 -1.67581 0.267327 0
M  V30 3688 H 360.036 -3.90252 0.28613 0
M  V30 3689 H 359.659 -3.71434 -1.41853 0
M  V30 3690 N 360.656 0.0484629 -1.57525 0
M  V30 3691 C 362.072 0.40375 -1.54409 0
M  V30 3692 C 362.272 1.77786 -0.948384 0
M  V30 3693 O 361.328 2.46189 -0.560983 0
M  V30 3694 C 362.641 0.323394 -2.98956 0
M  V30 3695 C 364.189 0.401892 -3.10409 0
M  V30 3696 C 364.664 0.351195 -4.56652 0
M  V30 3697 N 366.155 0.410576 -4.61377 0
M  V30 3698 C 366.89 0.393933 -5.72045 0
M  V30 3699 N 366.386 0.330724 -6.9201 0
M  V30 3700 N 368.179 0.442227 -5.60358 0
M  V30 3701 H 360.33 -0.851016 -1.94606 0
M  V30 3702 H 362.593 -0.321721 -0.89174 0
M  V30 3703 H 362.299 -0.62011 -3.4619 0
M  V30 3704 H 362.173 1.12463 -3.60044 0
M  V30 3705 H 364.56 1.33582 -2.63134 0
M  V30 3706 H 364.641 -0.428342 -2.52188 0
M  V30 3707 H 364.285 -0.578987 -5.04589 0
M  V30 3708 H 364.215 1.19928 -5.12762 0
M  V30 3709 H 366.706 0.462729 -3.75056 0
M  V30 3710 H 367.019 0.322592 -7.72126 0
M  V30 3711 H 365.364 0.29706 -6.94365 0
M  V30 3712 H 368.555 0.489464 -4.65534 0
M  V30 3713 H 368.728 0.425788 -6.466 0
M  V30 3714 N 362.134 1.5431 0.320358 0
M  V30 3715 C 363.38 1.72924 1.05949 0
M  V30 3716 C 363.713 0.503185 1.87568 0
M  V30 3717 O 362.988 -0.499839 1.87968 0
M  V30 3718 C 363.271 3.00676 1.98156 0
M  V30 3719 C 363.124 4.3354 1.19845 0
M  V30 3720 C 364.443 3.24198 2.9763 0
M  V30 3721 H 361.562 0.629195 0.383774 0
M  V30 3722 H 364.204 1.87008 0.335854 0
M  V30 3723 H 362.354 2.888 2.59859 0
M  V30 3724 H 364.026 4.57305 0.605773 0
M  V30 3725 H 362.269 4.309 0.500784 0
M  V30 3726 H 362.94 5.19156 1.87567 0
M  V30 3727 H 365.416 3.35557 2.4605 0
M  V30 3728 H 364.292 4.14938 3.59329 0
M  V30 3729 H 364.553 2.41577 3.7026 0
M  V30 3730 N 363.613 -0.582584 1.46437 0
M  V30 3731 C 364.523 -1.71949 1.59595 0
M  V30 3732 C 365.539 -1.67264 0.479443 0
M  V30 3733 O 366.715 -1.87171 0.743579 0
M  V30 3734 C 363.78 -3.08452 1.58298 0
M  V30 3735 C 362.841 -3.244 2.81182 0
M  V30 3736 C 362.074 -4.54391 2.79937 0
M  V30 3737 O 362.297 -5.38287 1.8869 0
M  V30 3738 O 361.231 -4.73588 3.71481 0
M  V30 3739 H 365.057 -1.63795 2.55744 0
M  V30 3740 H 362.642 -0.749643 1.29231 0
M  V30 3741 H 364.524 -3.89732 1.60271 0
M  V30 3742 H 363.199 -3.17043 0.653094 0
M  V30 3743 H 362.106 -2.42613 2.84763 0
M  V30 3744 H 363.439 -3.20699 3.7338 0
M  V30 3745 N 365.091 -1.34144 -0.827227 0
M  V30 3746 C 366.337 -1.26446 -1.58554 0
M  V30 3747 C 366.67 0.1664 -1.93486 0
M  V30 3748 O 365.945 1.1107 -1.59667 0
M  V30 3749 C 366.228 -2.15111 -2.8879 0
M  V30 3750 C 366.081 -3.66712 -2.60465 0
M  V30 3751 C 367.4 -2.03311 -3.90324 0
M  V30 3752 H 364.519 -0.46067 -0.575284 0
M  V30 3753 H 367.161 -1.64356 -0.953269 0
M  V30 3754 H 365.311 -1.8291 -3.42748 0
M  V30 3755 H 366.983 -4.09259 -2.1285 0
M  V30 3756 H 365.226 -3.88014 -1.93978 0
M  V30 3757 H 365.897 -4.24112 -3.53317 0
M  V30 3758 H 368.373 -2.31574 -3.45706 0
M  V30 3759 H 367.249 -2.67582 -4.79261 0
M  V30 3760 H 367.51 -1.00879 -4.30437 0
M  V30 3761 N 366.569 1.04691 -1.17803 0
M  V30 3762 C 367.499 2.14494 -0.92275 0
M  V30 3763 C 368.48 1.69546 0.137179 0
M  V30 3764 O 369.665 1.94195 -0.0141108 0
M  V30 3765 C 366.795 3.44491 -0.440803 0
M  V30 3766 C 365.749 4.03031 -1.4405 0
M  V30 3767 C 365.075 5.28432 -0.81631 0
M  V30 3768 C 366.375 4.39932 -2.81527 0
M  V30 3769 H 368.069 2.36107 -1.84103 0
M  V30 3770 H 365.615 1.1347 -0.886599 0
M  V30 3771 H 367.568 4.2066 -0.249602 0
M  V30 3772 H 366.292 3.22546 0.513025 0
M  V30 3773 H 364.951 3.28937 -1.61853 0
M  V30 3774 H 364.599 5.02792 0.144511 0
M  V30 3775 H 364.299 5.68559 -1.48371 0
M  V30 3776 H 365.823 6.07284 -0.635496 0
M  V30 3777 H 367.237 5.07113 -2.67412 0
M  V30 3778 H 365.634 4.9109 -3.44892 0
M  V30 3779 H 366.704 3.50045 -3.35554 0
M  V30 3780 N 368.047 0.979072 1.23499 0
M  V30 3781 C 368.994 0.517904 2.24914 0
M  V30 3782 C 369.964 -0.442525 1.60097 0
M  V30 3783 O 371.149 -0.350365 1.87556 0
M  V30 3784 C 368.289 -0.174813 3.44657 0
M  V30 3785 C 367.402 0.825721 4.24035 0
M  V30 3786 C 366.537 0.107946 5.3109 0
M  V30 3787 C 365.576 1.09778 6.02175 0
M  V30 3788 N 364.713 0.40925 7.00906 0
M  V30 3789 H 369.553 1.38751 2.63727 0
M  V30 3790 H 367.09 0.695303 1.2963 0
M  V30 3791 H 369.048 -0.593233 4.12961 0
M  V30 3792 H 367.678 -1.0083 3.06648 0
M  V30 3793 H 366.73 1.36253 3.55161 0
M  V30 3794 H 368.042 1.58005 4.73113 0
M  V30 3795 H 367.196 -0.367904 6.05583 0
M  V30 3796 H 365.935 -0.678994 4.8295 0
M  V30 3797 H 364.94 1.5844 5.26476 0
M  V30 3798 H 366.165 1.88536 6.52404 0
M  V30 3799 H 364.111 -0.358506 6.5502 0
M  V30 3800 H 364.028 1.10226 7.47921 0
M  V30 3801 H 365.296 -0.0442557 7.79487 0
M  V30 3802 N 369.525 -1.3858 0.750561 0
M  V30 3803 C 370.773 -1.99789 0.30477 0
M  V30 3804 C 371.094 -1.59874 -1.11649 0
M  V30 3805 O 370.364 -0.85417 -1.76297 0
M  V30 3806 H 368.944 -0.738902 0.109694 0
M  V30 3807 H 371.606 -1.69391 0.963983 0
M  V30 3808 H 370.702 -3.09952 0.365499 0
M  V30 3809 N 371.003 -0.499398 -1.49478 0
M  V30 3810 C 371.966 0.268838 -2.27618 0
M  V30 3811 C 372.966 0.895383 -1.33565 0
M  V30 3812 O 374.156 0.760164 -1.56739 0
M  V30 3813 C 371.288 1.38559 -3.11471 0
M  V30 3814 H 372.481 -0.416812 -2.96989 0
M  V30 3815 H 370.034 -0.254313 -1.54217 0
M  V30 3816 H 370.769 2.10544 -2.46661 0
M  V30 3817 H 370.554 0.941797 -3.80621 0
M  V30 3818 H 372.044 1.92678 -3.70493 0
M  V30 3819 N 372.481 1.55866 -0.233164 0
M  V30 3820 C 373.709 2.02998 0.399905 0
M  V30 3821 C 374.124 1.11274 1.52524 0
M  V30 3822 O 373.481 0.124528 1.82075 0
M  V30 3823 C 373.532 3.4958 0.920639 0
M  V30 3824 O 373.253 4.37808 -0.159834 0
M  V30 3825 C 374.754 4.12411 1.62578 0
M  V30 3826 H 371.974 0.664006 0.0966281 0
M  V30 3827 H 374.518 2.0143 -0.353013 0
M  V30 3828 H 372.673 3.51727 1.62379 0
M  V30 3829 H 373.087 5.23981 0.23337 0
M  V30 3830 H 374.561 5.16711 1.94201 0
M  V30 3831 H 375.038 3.5809 2.54299 0
M  V30 3832 H 375.644 4.14148 0.967553 0
M  V30 3833 N 373.959 -0.0401083 1.57549 0
M  V30 3834 C 375.207 -0.731677 1.8839 0
M  V30 3835 C 375.528 -1.76481 0.829425 0
M  V30 3836 O 374.798 -1.95411 -0.1383 0
M  V30 3837 H 373.378 -0.273225 0.695239 0
M  V30 3838 H 376.04 -0.00867725 1.94898 0
M  V30 3839 H 375.136 -1.22816 2.86919 0
M  V30 3840 N 375.437 -1.54477 -0.31217 0
M  V30 3841 C 376.367 -1.87652 -1.38957 0
M  V30 3842 C 377.348 -0.734358 -1.53431 0
M  V30 3843 O 378.533 -0.98911 -1.67123 0
M  V30 3844 C 375.663 -2.11396 -2.75552 0
M  V30 3845 C 374.617 -3.27243 -2.75855 0
M  V30 3846 C 373.943 -3.36382 -4.15633 0
M  V30 3847 C 375.243 -4.64622 -2.38587 0
M  V30 3848 H 376.937 -2.77887 -1.11442 0
M  V30 3849 H 374.483 -1.33707 -0.534655 0
M  V30 3850 H 376.436 -2.33189 -3.51 0
M  V30 3851 H 375.16 -1.17921 -3.04569 0
M  V30 3852 H 373.819 -3.05356 -2.02863 0
M  V30 3853 H 373.467 -2.40445 -4.41809 0
M  V30 3854 H 373.167 -4.14249 -4.1674 0
M  V30 3855 H 374.691 -3.60422 -4.92877 0
M  V30 3856 H 376.105 -4.86219 -3.03749 0
M  V30 3857 H 374.502 -5.45121 -2.50925 0
M  V30 3858 H 375.572 -4.66097 -1.33723 0
M  V30 3859 N 376.915 0.57481 -1.46744 0
M  V30 3860 C 377.845 1.69337 -1.60771 0
M  V30 3861 C 378.826 1.63825 -0.457736 0
M  V30 3862 O 380.011 1.8172 -0.684947 0
M  V30 3863 C 377.141 3.0798 -1.60517 0
M  V30 3864 C 376.095 3.28327 -2.74564 0
M  V30 3865 C 375.421 4.67578 -2.59373 0
M  V30 3866 C 376.721 3.15398 -4.16319 0
M  V30 3867 H 378.415 1.57853 -2.54407 0
M  V30 3868 H 375.961 0.75799 -1.22436 0
M  V30 3869 H 377.914 3.86061 -1.68923 0
M  V30 3870 H 376.638 3.20381 -0.634305 0
M  V30 3871 H 375.297 2.52649 -2.65639 0
M  V30 3872 H 374.945 4.76755 -1.60353 0
M  V30 3873 H 374.645 4.82144 -3.35873 0
M  V30 3874 H 376.169 5.47817 -2.69682 0
M  V30 3875 H 377.583 3.83315 -4.26313 0
M  V30 3876 H 375.98 3.41482 -4.93468 0
M  V30 3877 H 377.05 2.12372 -4.3592 0
M  V30 3878 N 378.394 1.34581 0.820102 0
M  V30 3879 C 379.622 1.3018 1.60813 0
M  V30 3880 C 380.037 -0.123551 1.88395 0
M  V30 3881 O 379.394 -1.07148 1.47735 0
M  V30 3882 C 379.445 2.09312 2.94739 0
M  V30 3883 O 379.166 3.46288 2.68358 0
M  V30 3884 C 380.667 2.1234 3.89136 0
M  V30 3885 H 377.887 0.447726 0.499782 0
M  V30 3886 H 380.431 1.77237 1.02017 0
M  V30 3887 H 378.586 1.65889 3.50085 0
M  V30 3888 H 379 3.87227 3.53774 0
M  V30 3889 H 380.474 2.72126 4.80262 0
M  V30 3890 H 380.951 1.11854 4.24718 0
M  V30 3891 H 381.557 2.55864 3.39726 0
M  V30 3892 N 379.872 -1.04064 1.18357 0
M  V30 3893 C 381.12 -1.76915 0.977013 0
M  V30 3894 C 381.441 -1.88624 -0.494577 0
M  V30 3895 O 380.711 -1.41125 -1.3587 0
M  V30 3896 H 379.291 -0.65535 0.358504 0
M  V30 3897 H 381.953 -1.25592 1.49039 0
M  V30 3898 H 381.049 -2.78178 1.41504 0
M  V30 3899 N 381.35 -0.985608 -1.22978 0
M  V30 3900 C 382.313 -0.535071 -2.22867 0
M  V30 3901 C 383.313 0.378123 -1.56291 0
M  V30 3902 O 384.503 0.171092 -1.73358 0
M  V30 3903 C 381.635 0.222702 -3.40172 0
M  V30 3904 H 382.828 -1.41835 -2.6424 0
M  V30 3905 H 380.381 -0.772042 -1.35901 0
M  V30 3906 H 381.116 1.12229 -3.04262 0
M  V30 3907 H 380.901 -0.43288 -3.89703 0
M  V30 3908 H 382.391 0.526335 -4.1427 0
M  V30 3909 N 382.828 1.3818 -0.7579 0
M  V30 3910 C 384.076 1.99624 -0.315361 0
M  V30 3911 C 384.397 1.60464 1.10799 0
M  V30 3912 O 383.667 0.863507 1.75842 0
M  V30 3913 H 382.247 0.73831 -0.113611 0
M  V30 3914 H 384.909 1.68878 -0.972952 0
M  V30 3915 H 384.005 3.09754 -0.381931 0
M  V30 3916 N 384.306 0.507319 1.49211 0
M  V30 3917 C 385.531 -0.033725 2.07373 0
M  V30 3918 C 385.956 -1.29485 1.36437 0
M  V30 3919 O 385.314 -1.76294 0.423087 0
M  V30 3920 C 385.362 -0.263945 3.59633 0
M  V30 3921 O 384.466 -1.33737 3.90113 0
M  V30 3922 H 383.807 0.0290331 0.663365 0
M  V30 3923 H 386.337 0.708749 1.91932 0
M  V30 3924 H 386.347 -0.493536 4.05004 0
M  V30 3925 H 385.022 0.657424 4.10671 0
M  V30 3926 H 383.599 -1.09224 3.56545 0
M  V30 3927 N 385.784 -1.5574 0.241426 0
M  V30 3928 C 386.714 -2.24133 -0.654722 0
M  V30 3929 C 387.695 -1.21974 -1.1856 0
M  V30 3930 O 388.88 -1.50612 -1.22595 0
M  V30 3931 C 386.01 -2.93659 -1.85423 0
M  V30 3932 C 384.964 -4.0246 -1.45636 0
M  V30 3933 C 384.29 -4.59383 -2.73626 0
M  V30 3934 C 385.59 -5.18468 -0.631506 0
M  V30 3935 H 387.284 -2.99281 -0.0844353 0
M  V30 3936 H 384.83 -1.43947 -0.0391707 0
M  V30 3937 H 386.783 -3.40203 -2.48676 0
M  V30 3938 H 385.507 -2.15991 -2.44981 0
M  V30 3939 H 384.166 -3.56676 -0.847202 0
M  V30 3940 H 383.814 -3.78422 -3.3137 0
M  V30 3941 H 383.514 -5.32826 -2.4773 0
M  V30 3942 H 385.038 -5.08658 -3.37786 0
M  V30 3943 H 386.452 -5.61272 -1.1682 0
M  V30 3944 H 384.849 -5.98266 -0.468831 0
M  V30 3945 H 385.919 -4.8358 0.357506 0
M  V30 3946 N 387.262 0.0317525 -1.57568 0
M  V30 3947 C 388.51 0.721676 -1.88776 0
M  V30 3948 C 388.831 1.76039 -0.838772 0
M  V30 3949 O 388.101 1.95482 0.127935 0
M  V30 3950 H 386.681 0.269534 -0.696678 0
M  V30 3951 H 389.343 -0.00165879 -1.949 0
M  V30 3952 H 388.439 1.21293 -2.87566 0
M  V30 3953 N 388.74 1.54641 0.303973 0
M  V30 3954 C 389.703 1.84646 1.35789 0
M  V30 3955 C 390.703 0.7192 1.4382 0
M  V30 3956 O 391.893 0.987491 1.43507 0
M  V30 3957 C 389.025 2.02407 2.74307 0
M  V30 3958 H 390.218 2.78829 1.10429 0
M  V30 3959 H 387.771 1.46658 0.540487 0
M  V30 3960 H 388.506 1.10502 3.04893 0
M  V30 3961 H 388.291 2.84453 2.69868 0
M  V30 3962 H 389.781 2.27002 3.50514 0
M  V30 3963 N 390.218 -0.567019 1.47046 0
M  V30 3964 C 391.446 -1.35027 1.56765 0
M  V30 3965 C 391.861 -1.8758 0.214316 0
M  V30 3966 O 391.218 -1.64471 -0.790919 0
M  V30 3967 C 391.269 -2.52698 2.58507 0
M  V30 3968 O 390.99 -2.0232 3.88585 0
M  V30 3969 C 392.491 -3.45043 2.78316 0
M  V30 3970 H 389.711 -0.41195 0.529658 0
M  V30 3971 H 392.255 -0.687832 1.92585 0
M  V30 3972 H 390.41 -3.149 2.25648 0
M  V30 3973 H 390.824 -2.79068 4.44096 0
M  V30 3974 H 392.298 -4.2405 3.53391 0
M  V30 3975 H 392.775 -3.97971 1.85784 0
M  V30 3976 H 393.381 -2.88665 3.12334 0
M  V30 3977 N 391.696 -1.35014 -0.812953 0
M  V30 3978 C 392.945 -1.27269 -1.56479 0
M  V30 3979 C 393.258 0.152771 -1.95002 0
M  V30 3980 O 394.464 0.352451 -2.69203 0
M  V30 3981 C 392.92 -2.23159 -2.82362 0
M  V30 3982 C 392.528 -3.71016 -2.511 0
M  V30 3983 C 394.272 -2.24342 -3.60376 0
M  V30 3984 C 392.179 -4.58746 -3.73237 0
M  V30 3985 H 391.109 -0.472829 -0.587324 0
M  V30 3986 H 393.76 -1.6024 -0.894171 0
M  V30 3987 H 392.142 -1.83151 -3.51101 0
M  V30 3988 H 393.316 -4.1962 -1.90409 0
M  V30 3989 H 391.631 -3.72378 -1.86343 0
M  V30 3990 H 394.228 -2.87107 -4.51081 0
M  V30 3991 H 394.571 -1.24542 -3.97234 0
M  V30 3992 H 395.104 -2.62846 -2.98591 0
M  V30 3993 H 391.843 -5.59521 -3.41492 0
M  V30 3994 H 391.363 -4.14871 -4.33176 0
M  V30 3995 H 393.042 -4.73852 -4.40537 0
M  V30 3996 N 393.175 1.03435 -1.18907 0
M  V30 3997 C 394.123 2.13703 -0.918353 0
M  V30 3998 C 395.117 1.68947 0.123767 0
M  V30 3999 O 396.323 1.79983 -0.0249701 0
M  V30 4000 H 392.698 0.698112 -0.279542 0
M  V30 4001 H 394.669 2.33731 -1.85506 0
M  V30 4002 C 393.418 3.44542 -0.467532 0
M  V30 4003 H 392.741 3.79394 -1.26095 0
M  V30 4004 H 394.181 4.22812 -0.317164 0
M  V30 4005 C 392.64 3.26829 0.817588 0
M  V30 4006 O 393.17 3.54975 1.88031 0
M  V30 4007 N 391.376 2.80139 0.772677 0
M  V30 4008 H 390.923 2.57434 -0.0923883 0
M  V30 4009 H 390.881 2.68668 1.63294 0
M  V30 4010 N 394.653 0.992116 1.22453 0
M  V30 4011 C 395.583 0.561677 2.26644 0
M  V30 4012 C 396.564 -0.411055 1.65059 0
M  V30 4013 O 397.749 -0.301861 1.9184 0
M  V30 4014 C 394.879 -0.125247 3.47074 0
M  V30 4015 C 393.833 0.765948 4.21091 0
M  V30 4016 C 393.159 -0.0538484 5.34673 0
M  V30 4017 C 394.459 2.06242 4.79856 0
M  V30 4018 H 396.153 1.43259 2.62902 0
M  V30 4019 H 393.699 0.690283 1.26377 0
M  V30 4020 H 395.652 -0.437764 4.1912 0
M  V30 4021 H 394.376 -1.03069 3.0991 0
M  V30 4022 H 393.035 1.0621 3.50878 0
M  V30 4023 H 392.683 -0.960188 4.9375 0
M  V30 4024 H 392.383 0.539415 5.85119 0
M  V30 4025 H 393.907 -0.360477 6.09535 0
M  V30 4026 H 395.321 1.8139 5.43848 0
M  V30 4027 H 393.718 2.60444 5.40638 0
M  V30 4028 H 394.788 2.74167 3.99951 0
M  V30 4029 N 396.131 -1.37776 0.765217 0
M  V30 4030 C 397.38 -1.99092 0.323307 0
M  V30 4031 C 397.693 -1.61434 -1.10446 0
M  V30 4032 O 398.899 -2.15805 -1.64743 0
M  V30 4033 C 397.355 -3.56019 0.527098 0
M  V30 4034 C 396.963 -4.0262 1.96471 0
M  V30 4035 C 398.707 -4.2424 0.148483 0
M  V30 4036 C 396.614 -5.52233 2.11644 0
M  V30 4037 H 395.544 -0.744846 0.117137 0
M  V30 4038 H 398.195 -1.57391 0.943417 0
M  V30 4039 H 396.577 -3.95667 -0.162372 0
M  V30 4040 H 397.751 -3.74234 2.68859 0
M  V30 4041 H 396.066 -3.47161 2.29931 0
M  V30 4042 H 398.663 -5.34159 0.240456 0
M  V30 4043 H 399.006 -4.06446 -0.900422 0
M  V30 4044 H 399.539 -3.89872 0.79025 0
M  V30 4045 H 396.278 -5.74945 3.1483 0
M  V30 4046 H 395.798 -5.82324 1.4373 0
M  V30 4047 H 397.477 -6.18106 1.91193 0
M  V30 4048 N 397.609 -0.515225 -1.4894 0
M  V30 4049 C 399.025 -0.172099 -1.58669 0
M  V30 4050 C 399.225 1.32405 -1.51892 0
M  V30 4051 O 398.281 2.10116 -1.40027 0
M  V30 4052 C 399.594 -0.761533 -2.90897 0
M  V30 4053 C 401.142 -0.728926 -3.04394 0
M  V30 4054 C 401.617 -1.29667 -4.39261 0
M  V30 4055 N 403.108 -1.25799 -4.4579 0
M  V30 4056 C 403.843 -1.66733 -5.48623 0
M  V30 4057 N 403.339 -2.15327 -6.58488 0
M  V30 4058 N 405.132 -1.58061 -5.39419 0
M  V30 4059 H 397.283 -1.48778 -1.51588 0
M  V30 4060 H 399.546 -0.617968 -0.718901 0
M  V30 4061 H 399.252 -1.81136 -3.01468 0
M  V30 4062 H 399.126 -0.230106 -3.76497 0
M  V30 4063 H 401.513 0.312098 -2.93445 0
M  V30 4064 H 401.594 -1.29766 -2.20442 0
M  V30 4065 H 401.238 -2.33655 -4.50963 0
M  V30 4066 H 401.168 -0.703752 -5.21876 0
M  V30 4067 H 403.659 -0.902102 -3.66975 0
M  V30 4068 H 403.972 -2.44594 -7.33071 0
M  V30 4069 H 402.317 -2.19311 -6.59491 0
M  V30 4070 H 405.508 -1.19906 -4.52482 0
M  V30 4071 H 405.681 -1.90284 -6.19432 0
M  V30 4072 N 399.087 1.5561 -0.249682 0
M  V30 4073 C 400.034 2.21496 0.648694 0
M  V30 4074 C 401.004 1.17977 1.16921 0
M  V30 4075 O 402.189 1.46434 1.22318 0
M  V30 4076 C 399.329 2.92039 1.83868 0
M  V30 4077 C 398.442 4.10219 1.35442 0
M  V30 4078 C 397.577 4.6847 2.50419 0
M  V30 4079 C 396.616 5.78893 1.98869 0
M  V30 4080 N 395.753 6.31315 3.07223 0
M  V30 4081 H 400.593 2.97892 0.0801582 0
M  V30 4082 H 398.13 1.47074 0.0278031 0
M  V30 4083 H 400.088 3.31138 2.53778 0
M  V30 4084 H 398.718 2.18111 2.37965 0
M  V30 4085 H 397.77 3.76413 0.54928 0
M  V30 4086 H 399.082 4.89927 0.936649 0
M  V30 4087 H 398.236 5.10158 3.28366 0
M  V30 4088 H 396.975 3.87984 2.95499 0
M  V30 4089 H 395.98 5.3668 1.19393 0
M  V30 4090 H 397.205 6.61232 1.54755 0
M  V30 4091 H 395.151 5.53733 3.51732 0
M  V30 4092 H 395.068 7.06224 2.69784 0
M  V30 4093 H 396.336 6.77662 3.8522 0
M  V30 4094 N 400.565 -0.0233959 1.57583 0
M  V30 4095 C 401.512 -1.02224 2.06927 0
M  V30 4096 C 402.482 -1.35575 0.959617 0
M  V30 4097 O 403.667 -1.45815 1.23055 0
M  V30 4098 C 400.807 -2.31636 2.5581 0
M  V30 4099 C 399.92 -2.04394 3.80588 0
M  V30 4100 C 399.055 -3.27717 4.18061 0
M  V30 4101 C 398.094 -2.96056 5.3574 0
M  V30 4102 N 397.231 -4.11847 5.68618 0
M  V30 4103 H 402.071 -0.594504 2.9201 0
M  V30 4104 H 399.608 -0.281921 1.44373 0
M  V30 4105 H 401.566 -3.07258 2.82221 0
M  V30 4106 H 400.196 -2.72122 1.73636 0
M  V30 4107 H 399.248 -1.19244 3.61227 0
M  V30 4108 H 400.56 -1.77042 4.66323 0
M  V30 4109 H 399.714 -4.11702 4.4563 0
M  V30 4110 H 398.453 -3.58188 3.30988 0
M  V30 4111 H 397.458 -2.10474 5.07918 0
M  V30 4112 H 398.683 -2.66857 6.24471 0
M  V30 4113 H 396.629 -4.42258 4.84504 0
M  V30 4114 H 396.546 -3.87938 6.48876 0
M  V30 4115 H 397.814 -4.96689 6.00766 0
M  V30 4116 N 402.043 -1.548 -0.295768 0
M  V30 4117 C 403.454 -1.65274 -0.868411 0
M  V30 4118 C 403.805 -0.56481 -1.87894 0
M  V30 4119 O 402.93 0.29767 -2.14343 0
M  V30 4120 C 403.525 -2.99603 -1.58188 0
M  V30 4121 C 402.084 -3.12181 -2.10286 0
M  V30 4122 C 401.231 -2.6098 -0.93727 0
M  V30 4123 H 404.182 -1.58534 -0.0726422 0
M  V30 4124 H 404.203 -2.91319 -2.44772 0
M  V30 4125 H 403.715 -3.78764 -0.846151 0
M  V30 4126 H 401.816 -2.3775 -2.8689 0
M  V30 4127 H 401.929 -4.18415 -2.33379 0
M  V30 4128 H 400.293 -2.17564 -1.32431 0
M  V30 4129 H 401.076 -3.42623 -0.215414 0
M  V30 4130 N 403.521 0.559213 -1.47345 0
M  V30 4131 C 404.749 1.34194 -1.57479 0
M  V30 4132 C 405.164 1.87463 -0.224261 0
M  V30 4133 O 404.521 1.64888 0.782185 0
M  V30 4134 C 404.572 2.51324 -2.59843 0
M  V30 4135 O 404.293 2.00256 -3.89653 0
M  V30 4136 C 405.794 3.43563 -2.80142 0
M  V30 4137 H 403.014 0.409136 -0.531835 0
M  V30 4138 H 405.558 0.677609 -1.92947 0
M  V30 4139 H 403.713 3.13699 -2.27314 0
M  V30 4140 H 404.127 2.76708 -4.4557 0
M  V30 4141 H 405.601 4.2217 -3.55635 0
M  V30 4142 H 406.078 3.9698 -1.87892 0
M  V30 4143 H 406.684 2.87005 -3.1386 0
M  V30 4144 N 404.999 1.35443 0.805782 0
M  V30 4145 C 405.949 1.24972 1.90699 0
M  V30 4146 C 406.933 0.144806 1.60247 0
M  V30 4147 O 408.125 0.376102 1.72958 0
M  V30 4148 C 405.254 1.02475 3.27649 0
M  V30 4149 C 404.34 2.17361 3.64164 0
M  V30 4150 N 404.731 3.42591 3.72109 0
M  V30 4151 C 403.029 2.08765 3.94123 0
M  V30 4152 C 403.73 4.18144 4.04389 0
M  V30 4153 N 402.706 3.4691 4.18515 0
M  V30 4154 H 406.508 2.19852 1.95044 0
M  V30 4155 H 404.022 1.27928 1.00041 0
M  V30 4156 H 406.019 0.930617 4.06381 0
M  V30 4157 H 404.679 0.0848009 3.24589 0
M  V30 4158 H 405.69 3.76932 3.55166 0
M  V30 4159 H 402.367 1.22629 3.99084 0
M  V30 4160 H 403.757 5.26367 4.17597 0
M  V30 4161 N 406.477 -1.02803 1.19454 0
M  V30 4162 C 407.387 -2.14575 0.948408 0
M  V30 4163 C 408.403 -1.73757 -0.091871 0
M  V30 4164 O 409.579 -2.01185 0.0929654 0
M  V30 4165 C 406.644 -3.43202 0.491265 0
M  V30 4166 C 405.705 -3.98328 1.60103 0
M  V30 4167 C 404.938 -5.20816 1.16561 0
M  V30 4168 O 405.161 -5.70392 0.0295238 0
M  V30 4169 O 404.095 -5.68801 1.96849 0
M  V30 4170 H 407.921 -2.38202 1.88397 0
M  V30 4171 H 405.506 -1.12989 0.977433 0
M  V30 4172 H 407.388 -4.20687 0.245015 0
M  V30 4173 H 406.063 -3.21018 -0.415851 0
M  V30 4174 H 404.97 -3.22174 1.90144 0
M  V30 4175 H 406.303 -4.24879 2.48473 0
M  V30 4176 N 407.956 -0.998596 -1.21925 0
M  V30 4177 C 409.203 -0.677663 -1.90824 0
M  V30 4178 C 409.531 0.790905 -1.77693 0
M  V30 4179 O 408.786 1.58817 -1.14349 0
M  V30 4180 C 409.085 -1.03648 -3.42041 0
M  V30 4181 C 408.751 -2.49825 -3.75364 0
M  V30 4182 C 407.413 -2.8977 -3.8417 0
M  V30 4183 C 409.765 -3.44545 -3.91073 0
M  V30 4184 C 407.093 -4.23412 -4.06127 0
M  V30 4185 C 409.445 -4.77853 -4.14535 0
M  V30 4186 C 408.109 -5.17531 -4.21566 0
M  V30 4187 H 407.379 -0.247975 -0.698276 0
M  V30 4188 H 410.026 -1.25584 -1.44571 0
M  V30 4189 H 408.331 -0.376457 -3.89987 0
M  V30 4190 H 410.028 -0.766113 -3.93614 0
M  V30 4191 H 406.618 -2.17866 -3.69097 0
M  V30 4192 H 410.802 -3.14853 -3.83642 0
M  V30 4193 H 406.058 -4.53734 -4.09799 0
M  V30 4194 H 410.232 -5.51189 -4.25633 0
M  V30 4195 H 407.859 -6.21102 -4.38333 0
M  V30 4196 N 409.434 1.37368 -0.772513 0
M  V30 4197 C 410.381 2.30262 -0.157488 0
M  V30 4198 C 411.351 1.51137 0.688965 0
M  V30 4199 O 412.536 1.79704 0.641168 0
M  V30 4200 C 409.676 3.37611 0.715045 0
M  V30 4201 C 408.789 4.31746 -0.148098 0
M  V30 4202 C 407.924 5.26171 0.729213 0
M  V30 4203 C 406.963 6.11948 -0.136418 0
M  V30 4204 N 406.1 6.98613 0.698914 0
M  V30 4205 H 410.94 2.82277 -0.955179 0
M  V30 4206 H 408.477 1.38957 -0.482631 0
M  V30 4207 H 410.435 3.98479 1.23575 0
M  V30 4208 H 409.065 2.86959 1.47833 0
M  V30 4209 H 408.117 3.72178 -0.786613 0
M  V30 4210 H 409.429 4.92084 -0.81579 0
M  V30 4211 H 408.583 5.92247 1.31637 0
M  V30 4212 H 407.322 4.66246 1.43059 0
M  V30 4213 H 406.327 5.4485 -0.736102 0
M  V30 4214 H 407.552 6.73945 -0.835134 0
M  V30 4215 H 405.498 6.41215 1.38489 0
M  V30 4216 H 405.415 7.55948 0.0885358 0
M  V30 4217 H 406.683 7.69077 1.27044 0
M  V30 4218 N 410.912 0.523116 1.48665 0
M  V30 4219 C 412.16 -0.0134497 2.02096 0
M  V30 4220 C 412.481 -1.35418 1.40311 0
M  V30 4221 O 411.751 -1.87543 0.566074 0
M  V30 4222 H 410.331 -0.00795915 0.746958 0
M  V30 4223 H 412.993 0.685388 1.82451 0
M  V30 4224 H 412.089 -0.126849 3.11842 0
M  V30 4225 N 412.39 -1.55475 0.257931 0
M  V30 4226 C 413.34 -2.18506 -0.651094 0
M  V30 4227 C 414.324 -1.14431 -1.13112 0
M  V30 4228 O 415.516 -1.40305 -1.07905 0
M  V30 4229 C 412.645 -2.89653 -1.84272 0
M  V30 4230 C 411.731 -4.00996 -1.38068 0
M  V30 4231 N 412.122 -5.01816 -0.633609 0
M  V30 4232 C 410.42 -4.13753 -1.66506 0
M  V30 4233 C 411.121 -5.80371 -0.392922 0
M  V30 4234 N 410.097 -5.3505 -0.960359 0
M  V30 4235 H 413.899 -2.93811 -0.0722883 0
M  V30 4236 H 411.413 -1.62286 0.0607256 0
M  V30 4237 H 413.41 -3.33245 -2.50506 0
M  V30 4238 H 412.07 -2.15854 -2.42564 0
M  V30 4239 H 413.081 -5.17128 -0.282626 0
M  V30 4240 H 409.758 -3.51133 -2.25858 0
M  V30 4241 H 411.148 -6.7159 0.204235 0
M  V30 4242 N 413.868 0.0150385 -1.57593 0
M  V30 4243 C 415.114 0.704043 -1.90187 0
M  V30 4244 C 415.447 1.74249 -0.857366 0
M  V30 4245 O 414.722 1.94092 0.125843 0
M  V30 4246 C 415.005 1.36087 -3.33395 0
M  V30 4247 C 414.858 0.334981 -4.48551 0
M  V30 4248 C 416.177 2.29112 -3.7576 0
M  V30 4249 H 413.296 0.254475 -0.691673 0
M  V30 4250 H 415.938 -0.0331678 -1.89971 0
M  V30 4251 H 414.088 1.98922 -3.3371 0
M  V30 4252 H 415.76 -0.292534 -4.60372 0
M  V30 4253 H 414.003 -0.344325 -4.32431 0
M  V30 4254 H 414.674 0.833316 -5.45674 0
M  V30 4255 H 417.15 1.76308 -3.76902 0
M  V30 4256 H 416.026 2.72043 -4.76743 0
M  V30 4257 H 416.287 3.16385 -3.08793 0
M  V30 4258 N 415.346 1.54954 0.287554 0
M  V30 4259 C 416.256 1.8991 1.37736 0
M  V30 4260 C 417.272 0.794701 1.54792 0
M  V30 4261 O 418.448 1.09243 1.69198 0
M  V30 4262 C 415.513 2.15108 2.71899 0
M  V30 4263 C 414.574 3.38752 2.63715 0
M  V30 4264 C 413.807 3.62739 3.91479 0
M  V30 4265 O 414.03 2.89492 4.91478 0
M  V30 4266 O 412.964 4.56267 3.92561 0
M  V30 4267 H 416.79 2.82652 1.11092 0
M  V30 4268 H 414.375 1.41315 0.484807 0
M  V30 4269 H 416.257 2.32806 3.51254 0
M  V30 4270 H 414.932 1.25551 2.9836 0
M  V30 4271 H 413.839 3.26405 1.82786 0
M  V30 4272 H 415.172 4.28483 2.42205 0
M  V30 4273 N 416.824 -0.551391 1.4764 0
M  V30 4274 C 417.754 -1.66757 1.63445 0
M  V30 4275 C 418.735 -1.63077 0.483742 0
M  V30 4276 O 419.92 -1.80607 0.71377 0
M  V30 4277 C 417.05 -3.05387 1.65396 0
M  V30 4278 C 416.004 -3.23918 2.79752 0
M  V30 4279 C 415.33 -4.63393 2.66779 0
M  V30 4280 C 416.63 -3.08735 4.21284 0
M  V30 4281 H 418.324 -1.53786 2.56886 0
M  V30 4282 H 415.87 -0.738415 1.23626 0
M  V30 4283 H 417.823 -3.83325 1.75043 0
M  V30 4284 H 416.547 -3.19332 0.685195 0
M  V30 4285 H 415.206 -2.48391 2.69625 0
M  V30 4286 H 414.854 -4.74144 1.67918 0
M  V30 4287 H 414.554 -4.7674 3.43501 0
M  V30 4288 H 416.078 -5.43458 2.78364 0
M  V30 4289 H 417.492 -3.76484 4.32357 0
M  V30 4290 H 415.889 -3.33588 4.98838 0
M  V30 4291 H 416.959 -2.0541 4.39243 0
M  V30 4292 N 418.302 -1.35869 -0.798587 0
M  V30 4293 C 419.55 -1.29332 -1.55298 0
M  V30 4294 C 419.871 0.129729 -1.94568 0
M  V30 4295 O 419.141 1.06796 -1.6423 0
M  V30 4296 H 417.721 -0.475737 -0.57592 0
M  V30 4297 H 420.383 -1.70062 -0.952093 0
M  V30 4298 H 419.479 -1.91458 -2.46476 0
M  V30 4299 N 419.78 1.02168 -1.19998 0
M  V30 4300 C 420.743 2.08765 -0.94604 0
M  V30 4301 C 421.743 1.60618 0.0763846 0
M  V30 4302 O 422.933 1.73472 -0.159135 0
M  V30 4303 C 420.065 3.38262 -0.423255 0
M  V30 4304 H 421.258 2.32726 -1.89153 0
M  V30 4305 H 418.811 1.1889 -1.01464 0
M  V30 4306 H 419.546 3.19974 0.527938 0
M  V30 4307 H 419.331 3.74532 -1.16053 0
M  V30 4308 H 420.821 4.16759 -0.264911 0
M  V30 4309 N 421.258 1.00505 1.21394 0
M  V30 4310 C 422.506 0.686415 1.90086 0
M  V30 4311 C 422.827 -0.785264 1.7849 0
M  V30 4312 O 422.097 -1.56387 1.17983 0
M  V30 4313 H 420.677 0.2509 0.703604 0
M  V30 4314 H 423.339 1.27417 1.47482 0
M  V30 4315 H 422.435 0.959621 2.96981 0
M  V30 4316 N 422.737 -1.36956 0.779787 0
M  V30 4317 C 423.962 -2.04283 0.358224 0
M  V30 4318 C 424.387 -1.58422 -1.01411 0
M  V30 4319 O 423.745 -0.748179 -1.65142 0
M  V30 4320 C 423.793 -3.58152 0.419479 0
M  V30 4321 O 422.897 -4.08342 -0.577142 0
M  V30 4322 H 422.238 -0.645967 0.153698 0
M  V30 4323 H 424.768 -1.75108 1.05822 0
M  V30 4324 H 424.778 -4.07041 0.279636 0
M  V30 4325 H 423.453 -3.90886 1.42061 0
M  V30 4326 H 422.03 -3.70751 -0.399755 0
M  V30 4327 N 424.215 -0.530993 -1.48385 0
M  V30 4328 C 425.461 -0.00538653 -2.03399 0
M  V30 4329 C 425.816 1.31899 -1.40073 0
M  V30 4330 O 425.109 1.83901 -0.537676 0
M  V30 4331 C 425.303 0.172742 -3.56982 0
M  V30 4332 C 425.132 -1.13282 -4.35198 0
M  V30 4333 C 423.902 -1.69296 -4.76096 0
M  V30 4334 C 426.1 -2.04367 -4.71952 0
M  V30 4335 N 424.082 -2.9413 -5.38851 0
M  V30 4336 C 425.453 -3.13777 -5.34737 0
M  V30 4337 C 427.508 -2.04681 -4.53883 0
M  V30 4338 C 426.211 -4.23567 -5.81363 0
M  V30 4339 C 428.237 -3.13466 -5.01491 0
M  V30 4340 C 427.599 -4.21595 -5.64302 0
M  V30 4341 H 423.698 -0.0434945 -0.780789 0
M  V30 4342 H 426.282 -0.712495 -1.81195 0
M  V30 4343 H 424.453 0.848937 -3.79009 0
M  V30 4344 H 426.185 0.698046 -3.98634 0
M  V30 4345 H 422.94 -1.23422 -4.57235 0
M  V30 4346 H 423.364 -3.57689 -5.74794 0
M  V30 4347 H 428.006 -1.22378 -4.04702 0
M  V30 4348 H 425.724 -5.06648 -6.2955 0
M  V30 4349 H 429.31 -3.14765 -4.893 0
M  V30 4350 H 428.19 -5.04384 -6.00472 0
M  V30 4351 N 425.693 1.55336 -0.266172 0
M  V30 4352 C 426.97 1.91372 0.404486 0
M  V30 4353 C 427.35 1.18935 1.74407 0
M  V30 4354 O 426.698 0.3132 2.26343 0
M  V30 4355 C 426.908 3.44581 0.553593 0
M  V30 4356 C 428.256 4.16196 0.840618 0
M  V30 4357 O 429.28 3.50426 0.638739 0
M  V30 4358 O 428.139 5.32567 1.22618 0
M  V30 4359 H 425.233 0.797194 0.220025 0
M  V30 4360 H 427.779 1.66813 -0.311664 0
M  V30 4361 H 426.551 3.89357 -0.389498 0
M  V30 4362 H 426.174 3.75065 1.31955 0
M  V30 4363 N 427.171 -0.0066808 1.57599 0
M  V30 4364 C 428.119 -1.01851 2.09115 0
M  V30 4365 C 429.113 -1.36021 1.00969 0
M  V30 4366 O 430.319 -1.34663 1.19439 0
M  V30 4367 H 426.694 -0.346083 0.667631 0
M  V30 4368 H 428.665 -0.558394 2.93129 0
M  V30 4369 C 427.414 -2.30374 2.60429 0
M  V30 4370 H 426.737 -2.04947 3.43273 0
M  V30 4371 H 428.177 -2.99466 3.00161 0
M  V30 4372 C 426.636 -3.00893 1.51542 0
M  V30 4373 O 427.166 -3.91614 0.894484 0
M  V30 4374 N 425.372 -2.62603 1.2445 0
M  V30 4375 H 424.919 -1.88911 1.75129 0
M  V30 4376 H 424.877 -3.10101 0.518137 0
M  V30 4377 N 428.649 -1.55105 -0.279332 0
M  V30 4378 C 429.879 -1.7917 -1.02867 0
M  V30 4379 C 430.287 -0.56204 -1.80659 0
M  V30 4380 O 429.63 0.478266 -1.77365 0
M  V30 4381 C 429.692 -2.96061 -2.03932 0
M  V30 4382 C 429.356 -4.33341 -1.45137 0
M  V30 4383 C 430.353 -5.12565 -0.870266 0
M  V30 4384 C 428.038 -4.79987 -1.48048 0
M  V30 4385 C 430.032 -6.36565 -0.326097 0
M  V30 4386 C 427.719 -6.03944 -0.932443 0
M  V30 4387 C 428.717 -6.8207 -0.356247 0
M  V30 4388 O 428.405 -8.03691 0.183412 0
M  V30 4389 H 428.137 -0.600796 -0.309872 0
M  V30 4390 H 430.691 -2.02932 -0.317468 0
M  V30 4391 H 428.921 -2.67975 -2.78794 0
M  V30 4392 H 430.61 -3.07506 -2.64943 0
M  V30 4393 H 431.376 -4.77661 -0.840521 0
M  V30 4394 H 427.255 -4.1919 -1.91835 0
M  V30 4395 H 430.799 -6.97489 0.124286 0
M  V30 4396 H 426.696 -6.3833 -0.959407 0
M  V30 4397 H 427.464 -8.18468 0.0721681 0
M  V30 4398 N 430.127 0.543554 -1.4793 0
M  V30 4399 C 431.543 0.870806 -1.3375 0
M  V30 4400 C 431.743 1.9864 -0.338261 0
M  V30 4401 O 430.799 2.51305 0.245371 0
M  V30 4402 C 432.112 1.25114 -2.73435 0
M  V30 4403 C 433.66 1.3618 -2.81823 0
M  V30 4404 C 434.135 1.77563 -4.22179 0
M  V30 4405 N 435.626 1.8469 -4.24787 0
M  V30 4406 C 436.361 2.18067 -5.30315 0
M  V30 4407 N 435.857 2.49963 -6.46135 0
M  V30 4408 N 437.65 2.18958 -5.17701 0
M  V30 4409 H 429.801 -0.19275 -2.11524 0
M  V30 4410 H 432.064 -0.0235777 -0.947707 0
M  V30 4411 H 431.77 0.50514 -3.48053 0
M  V30 4412 H 431.644 2.20431 -3.06088 0
M  V30 4413 H 434.031 2.09859 -2.07468 0
M  V30 4414 H 434.112 0.390169 -2.52807 0
M  V30 4415 H 433.756 1.04449 -4.97044 0
M  V30 4416 H 433.686 2.75753 -4.48629 0
M  V30 4417 H 436.177 1.62372 -3.41239 0
M  V30 4418 H 436.49 2.74497 -7.22406 0
M  V30 4419 H 434.835 2.47513 -6.49432 0
M  V30 4420 H 438.026 1.93488 -4.2624 0
M  V30 4421 H 438.199 2.44639 -6.00047 0
M  V30 4422 N 431.605 1.3629 0.791371 0
M  V30 4423 C 432.83 1.33726 1.58531 0
M  V30 4424 C 433.255 -0.0794933 1.87932 0
M  V30 4425 O 432.613 -1.05087 1.47738 0
M  V30 4426 C 432.661 2.16425 2.88431 0
M  V30 4427 O 431.765 1.5554 3.81944 0
M  V30 4428 H 431.106 0.457793 0.480959 0
M  V30 4429 H 433.636 1.79547 0.981031 0
M  V30 4430 H 433.646 2.28933 3.37718 0
M  V30 4431 H 432.321 3.19415 2.66359 0
M  V30 4432 H 430.898 1.51961 3.40532 0
M  V30 4433 N 433.083 -1.0153 1.20538 0
M  V30 4434 C 433.993 -2.13557 0.971113 0
M  V30 4435 C 435.009 -1.73845 -0.0734366 0
M  V30 4436 O 436.185 -2.01075 0.114299 0
M  V30 4437 C 433.25 -3.42661 0.527639 0
M  V30 4438 C 432.311 -3.96608 1.64319 0
M  V30 4439 C 431.544 -5.1955 1.22078 0
M  V30 4440 O 431.767 -5.70329 0.0900198 0
M  V30 4441 O 430.701 -5.66681 2.02871 0
M  V30 4442 H 434.527 -2.3619 1.90913 0
M  V30 4443 H 432.112 -1.11946 0.989362 0
M  V30 4444 H 433.994 -4.20404 0.289621 0
M  V30 4445 H 432.669 -3.21441 -0.381779 0
M  V30 4446 H 431.576 -3.20139 1.93551 0
M  V30 4447 H 432.909 -4.22219 2.52966 0
M  V30 4448 N 434.561 -1.01147 -1.20859 0
M  V30 4449 C 435.491 -0.597663 -2.25722 0
M  V30 4450 C 436.472 0.384744 -1.65692 0
M  V30 4451 O 437.657 0.271303 -1.92296 0
M  V30 4452 C 434.787 0.0700149 -3.47229 0
M  V30 4453 C 433.741 -0.832843 -4.19819 0
M  V30 4454 C 433.067 -0.0312202 -5.34691 0
M  V30 4455 C 434.367 -2.1385 -4.76514 0
M  V30 4456 H 436.061 -1.47423 -2.60589 0
M  V30 4457 H 433.607 -0.710301 -1.25263 0
M  V30 4458 H 435.56 0.37103 -4.19763 0
M  V30 4459 H 434.284 0.981259 -3.11511 0
M  V30 4460 H 432.943 -1.11778 -3.49144 0
M  V30 4461 H 432.591 0.881515 -4.95215 0
M  V30 4462 H 432.291 -0.632434 -5.84187 0
M  V30 4463 H 433.815 0.26346 -6.10031 0
M  V30 4464 H 435.229 -1.9002 -5.40893 0
M  V30 4465 H 433.626 -2.69012 -5.36426 0
M  V30 4466 H 434.696 -2.80495 -3.95538 0
M  V30 4467 N 436.039 1.36541 -0.78704 0
M  V30 4468 C 437.316 1.9355 -0.282424 0
M  V30 4469 C 437.696 1.71919 1.22503 0
M  V30 4470 O 437.044 1.07677 2.01539 0
M  V30 4471 C 437.254 3.4246 -0.672462 0
M  V30 4472 C 438.602 4.19582 -0.650863 0
M  V30 4473 O 439.626 3.50889 -0.612789 0
M  V30 4474 O 438.485 5.42106 -0.691623 0
M  V30 4475 H 435.579 0.824091 -0.0693 0
M  V30 4476 H 438.125 1.45736 -0.869423 0
M  V30 4477 H 436.897 3.51851 -1.71221 0
M  V30 4478 H 436.52 3.97556 -0.0592211 0
M  V30 4479 N 437.518 0.538854 1.48102 0
M  V30 4480 C 438.764 0.00801365 2.02798 0
M  V30 4481 C 439.097 -1.3309 1.41424 0
M  V30 4482 O 438.372 -1.86169 0.563158 0
M  V30 4483 C 438.655 -0.104589 3.59948 0
M  V30 4484 C 438.508 1.26012 4.31788 0
M  V30 4485 C 439.827 -0.827055 4.32259 0
M  V30 4486 H 436.946 0.00438624 0.736987 0
M  V30 4487 H 439.588 0.6976 1.7673 0
M  V30 4488 H 437.738 -0.691893 3.82289 0
M  V30 4489 H 439.41 1.88922 4.2084 0
M  V30 4490 H 437.653 1.83968 3.92859 0
M  V30 4491 H 438.324 1.13424 5.40221 0
M  V30 4492 H 440.8 -0.328578 4.14801 0
M  V30 4493 H 439.676 -0.87476 5.41885 0
M  V30 4494 H 439.937 -1.87927 4.0017 0
M  V30 4495 N 438.996 -1.55193 0.274407 0
M  V30 4496 C 440.221 -2.04446 -0.348824 0
M  V30 4497 C 440.646 -1.15149 -1.48735 0
M  V30 4498 O 440.004 -0.149952 -1.80679 0
M  V30 4499 C 440.052 -3.51431 -0.808009 0
M  V30 4500 O 439.156 -3.65225 -1.91531 0
M  V30 4501 H 438.497 -0.66006 -0.0722276 0
M  V30 4502 H 441.027 -2.00481 0.408498 0
M  V30 4503 H 441.037 -3.92781 -1.10395 0
M  V30 4504 H 439.712 -4.15892 0.0249865 0
M  V30 4505 H 438.289 -3.35778 -1.62196 0
M  V30 4506 N 440.474 -0.00167713 -1.576 0
M  V30 4507 C 441.722 0.681471 -1.90264 0
M  V30 4508 C 442.043 1.7422 -0.875924 0
M  V30 4509 O 441.313 1.95709 0.0864412 0
M  V30 4510 H 439.893 0.254696 -0.702239 0
M  V30 4511 H 442.555 -0.0429996 -1.94853 0
M  V30 4512 H 441.651 1.15166 -2.90075 0
M  V30 4513 N 441.952 1.55251 0.271103 0
M  V30 4514 C 443.363 1.66635 0.842007 0
M  V30 4515 C 443.714 0.594631 1.86972 0
M  V30 4516 O 442.839 -0.263532 2.14789 0
M  V30 4517 C 443.434 3.02082 1.53401 0
M  V30 4518 C 441.993 3.15487 2.05293 0
M  V30 4519 C 441.14 2.62438 0.895631 0
M  V30 4520 H 444.091 1.58629 0.0474117 0
M  V30 4521 H 444.112 2.95176 2.40107 0
M  V30 4522 H 443.624 3.80062 0.785786 0
M  V30 4523 H 441.725 2.42284 2.83071 0
M  V30 4524 H 441.838 4.22075 2.26693 0
M  V30 4525 H 440.202 2.19644 1.28953 0
M  V30 4526 H 440.985 3.42923 0.160878 0
M  V30 4527 N 443.43 -0.535701 1.48216 0
M  V30 4528 C 444.36 -1.65014 1.65204 0
M  V30 4529 C 445.341 -1.62554 0.501011 0
M  V30 4530 O 446.526 -1.7984 0.732886 0
M  V30 4531 C 443.656 -3.03616 1.68626 0
M  V30 4532 C 442.61 -3.20932 2.83172 0
M  V30 4533 C 441.936 -4.60537 2.71679 0
M  V30 4534 C 443.236 -3.04249 4.24535 0
M  V30 4535 H 444.93 -1.51053 2.58502 0
M  V30 4536 H 442.476 -0.725262 1.24402 0
M  V30 4537 H 444.429 -3.81446 1.79099 0
M  V30 4538 H 443.153 -3.18587 0.719026 0
M  V30 4539 H 441.812 -2.45517 2.72244 0
M  V30 4540 H 441.46 -4.72336 1.72937 0
M  V30 4541 H 441.16 -4.73069 3.48538 0
M  V30 4542 H 442.684 -5.40475 2.84112 0
M  V30 4543 H 444.098 -3.71877 4.36326 0
M  V30 4544 H 442.495 -3.28278 5.02348 0
M  V30 4545 H 443.565 -2.00739 4.41397 0
M  V30 4546 N 444.908 -1.36708 -0.784132 0
M  V30 4547 C 446.136 -1.34398 -1.57305 0
M  V30 4548 C 446.551 0.0735577 -1.88657 0
M  V30 4549 O 445.908 1.03193 -1.50524 0
M  V30 4550 C 445.959 -2.17053 -2.89085 0
M  V30 4551 O 445.68 -3.53281 -2.59083 0
M  V30 4552 C 447.181 -2.22583 -3.83369 0
M  V30 4553 H 444.401 -0.460819 -0.487736 0
M  V30 4554 H 446.945 -1.79879 -0.972819 0
M  V30 4555 H 445.1 -1.75113 -3.45564 0
M  V30 4556 H 445.514 -3.9647 -3.43383 0
M  V30 4557 H 446.988 -2.84763 -4.72878 0
M  V30 4558 H 447.465 -1.23075 -4.21603 0
M  V30 4559 H 448.071 -2.64781 -3.32823 0
M  V30 4560 N 446.386 1.0089 -1.21074 0
M  V30 4561 C 447.296 2.13039 -0.982425 0
M  V30 4562 C 448.312 1.73881 0.0642161 0
M  V30 4563 O 449.488 2.01012 -0.12496 0
M  V30 4564 C 446.553 3.42377 -0.545803 0
M  V30 4565 C 445.614 3.95731 -1.6642 0
M  V30 4566 C 444.847 5.18896 -1.24832 0
M  V30 4567 O 445.07 5.70273 -0.120265 0
M  V30 4568 O 444.004 5.65597 -2.05873 0
M  V30 4569 H 447.83 2.35175 -1.92163 0
M  V30 4570 H 445.415 1.1142 -0.995285 0
M  V30 4571 H 447.297 4.20244 -0.311912 0
M  V30 4572 H 445.972 3.21639 0.364727 0
M  V30 4573 H 444.879 3.19108 -1.95246 0
M  V30 4574 H 446.212 4.20872 -2.55201 0
M  V30 4575 N 447.864 1.01787 1.20321 0
M  V30 4576 C 449.089 0.727009 1.9424 0
M  V30 4577 C 449.514 -0.706179 1.74341 0
M  V30 4578 O 448.872 -1.48609 1.03852 0
M  V30 4579 C 448.92 1.06958 3.44372 0
M  V30 4580 O 448.024 0.181983 4.11998 0
M  V30 4581 H 447.365 0.269626 0.606793 0
M  V30 4582 H 449.895 1.36158 1.52716 0
M  V30 4583 H 449.905 1.02182 3.94997 0
M  V30 4584 H 448.58 2.11378 3.58179 0
M  V30 4585 H 447.157 0.287378 3.71791 0
M  V30 4586 N 449.342 -1.36122 0.79427 0
M  V30 4587 C 450.59 -1.98718 0.368177 0
M  V30 4588 C 450.911 -1.63345 -1.06506 0
M  V30 4589 O 450.181 -0.909825 -1.73491 0
M  V30 4590 H 448.761 -0.735038 0.133146 0
M  V30 4591 H 451.423 -1.66239 1.01739 0
M  V30 4592 H 450.519 -3.08633 0.463923 0
M  V30 4593 N 450.82 -0.546701 -1.47814 0
M  V30 4594 C 451.768 0.220048 -2.31557 0
M  V30 4595 C 452.762 0.919472 -1.42275 0
M  V30 4596 O 453.968 0.841953 -1.59095 0
M  V30 4597 H 450.343 0.0898334 -0.746615 0
M  V30 4598 H 452.314 -0.505589 -2.94086 0
M  V30 4599 C 451.063 1.24353 -3.24702 0
M  V30 4600 H 450.386 0.714758 -3.93359 0
M  V30 4601 H 451.826 1.75112 -3.8615 0
M  V30 4602 C 450.285 2.28593 -2.47481 0
M  V30 4603 O 450.815 3.35334 -2.21165 0
M  V30 4604 N 449.021 2.02244 -2.08676 0
M  V30 4605 H 448.568 1.15455 -2.30278 0
M  V30 4606 H 448.526 2.72207 -1.57323 0
M  V30 4607 N 452.299 1.55045 -0.282633 0
M  V30 4608 C 453.545 2.00056 0.332481 0
M  V30 4609 C 453.878 1.1708 1.54939 0
M  V30 4610 O 453.153 0.2427 1.9298 0
M  V30 4611 C 453.436 3.53086 0.70725 0
M  V30 4612 C 453.289 4.46813 -0.517521 0
M  V30 4613 C 454.608 4.12245 1.54084 0
M  V30 4614 H 451.727 0.727268 0.119373 0
M  V30 4615 H 454.369 1.85932 -0.391076 0
M  V30 4616 H 452.519 3.65253 1.32372 0
M  V30 4617 H 454.191 4.46579 -1.15607 0
M  V30 4618 H 452.434 4.18163 -1.1542 0
M  V30 4619 H 453.105 5.51595 -0.211426 0
M  V30 4620 H 455.581 4.03401 1.02013 0
M  V30 4621 H 454.457 5.19515 1.77186 0
M  V30 4622 H 454.718 3.62951 2.52427 0
M  V30 4623 N 453.777 0.010035 1.57597 0
M  V30 4624 C 455.193 -0.346164 1.55801 0
M  V30 4625 C 455.393 -1.74144 1.01371 0
M  V30 4626 O 454.449 -2.43938 0.651968 0
M  V30 4627 C 455.762 -0.212216 2.9995 0
M  V30 4628 C 457.31 -0.286409 3.11687 0
M  V30 4629 C 457.785 -0.18147 4.5764 0
M  V30 4630 N 459.276 -0.239056 4.62583 0
M  V30 4631 C 460.011 -0.181351 5.73113 0
M  V30 4632 N 459.507 -0.073661 6.92761 0
M  V30 4633 N 461.3 -0.233949 5.61613 0
M  V30 4634 H 453.451 0.922657 1.91313 0
M  V30 4635 H 455.714 0.354595 0.879185 0
M  V30 4636 H 455.42 0.748169 3.4365 0
M  V30 4637 H 455.294 -0.990224 3.6397 0
M  V30 4638 H 457.681 -1.23724 2.67911 0
M  V30 4639 H 457.762 0.521645 2.50425 0
M  V30 4640 H 457.406 0.765863 5.02093 0
M  V30 4641 H 457.336 -1.00814 5.1686 0
M  V30 4642 H 459.827 -0.32321 3.76515 0
M  V30 4643 H 460.14 -0.0358003 7.72792 0
M  V30 4644 H 458.485 -0.0391461 6.94989 0
M  V30 4645 H 461.676 -0.316347 4.6703 0
M  V30 4646 H 461.849 -0.185514 6.47734 0
M  V30 4647 N 455.255 -1.55392 -0.262866 0
M  V30 4648 C 456.503 -1.76127 -0.991147 0
M  V30 4649 C 456.824 -0.571083 -1.8645 0
M  V30 4650 O 456.094 0.413698 -1.91482 0
M  V30 4651 H 454.674 -0.649528 -0.368948 0
M  V30 4652 H 457.336 -1.9281 -0.284655 0
M  V30 4653 H 456.432 -2.6663 -1.62219 0
M  V30 4654 N 456.733 0.527833 -1.48498 0
M  V30 4655 C 458.149 0.856571 -1.34666 0
M  V30 4656 C 458.349 1.98271 -0.35931 0
M  V30 4657 O 457.405 2.51551 0.218703 0
M  V30 4658 C 458.718 1.22207 -2.74747 0
M  V30 4659 C 460.266 1.33183 -2.83251 0
M  V30 4660 C 460.741 1.73075 -4.24039 0
M  V30 4661 N 462.232 1.80174 -4.26722 0
M  V30 4662 C 462.967 2.1243 -5.32598 0
M  V30 4663 N 462.463 2.43096 -6.4875 0
M  V30 4664 N 464.256 2.13454 -5.19994 0
M  V30 4665 H 456.407 -0.215174 -2.11307 0
M  V30 4666 H 458.67 -0.0336281 -0.947403 0
M  V30 4667 H 458.376 0.468195 -3.4857 0
M  V30 4668 H 458.25 2.17173 -3.08409 0
M  V30 4669 H 460.637 2.07647 -2.09683 0
M  V30 4670 H 460.718 0.363333 -2.53206 0
M  V30 4671 H 460.362 0.991712 -4.98124 0
M  V30 4672 H 460.292 2.70979 -4.51529 0
M  V30 4673 H 462.783 1.58744 -3.42942 0
M  V30 4674 H 463.096 2.6682 -7.25277 0
M  V30 4675 H 461.441 2.40611 -6.52021 0
M  V30 4676 H 464.632 1.88956 -4.28268 0
M  V30 4677 H 464.805 2.38261 -6.02608 0
M  V30 4678 N 458.211 1.37122 0.776871 0
M  V30 4679 C 459.174 1.32301 1.8716 0
M  V30 4680 C 460.174 0.228099 1.59174 0
M  V30 4681 O 461.364 0.483642 1.67352 0
M  V30 4682 C 458.496 1.054 3.24197 0
M  V30 4683 H 459.689 2.29673 1.92848 0
M  V30 4684 H 457.242 1.22077 0.97606 0
M  V30 4685 H 457.977 0.0853872 3.24188 0
M  V30 4686 H 457.762 1.84648 3.45901 0
M  V30 4687 H 459.252 1.04664 4.04271 0
M  V30 4688 N 459.689 -1.00246 1.21608 0
M  V30 4689 C 460.935 -1.74319 1.03638 0
M  V30 4690 C 461.268 -1.89408 -0.428749 0
M  V30 4691 O 460.543 -1.43026 -1.3181 0
M  V30 4692 C 460.826 -3.15431 1.73711 0
M  V30 4693 C 460.679 -3.08049 3.27759 0
M  V30 4694 C 461.998 -4.14407 1.48173 0
M  V30 4695 H 459.117 -0.632741 0.377899 0
M  V30 4696 H 461.759 -1.16853 1.49818 0
M  V30 4697 H 459.909 -3.64493 1.34452 0
M  V30 4698 H 461.581 -2.66681 3.76403 0
M  V30 4699 H 459.824 -2.45088 3.57931 0
M  V30 4700 H 460.495 -4.07862 3.71958 0
M  V30 4701 H 462.971 -3.74061 1.82258 0
M  V30 4702 H 461.847 -5.11279 1.99713 0
M  V30 4703 H 462.108 -4.40174 0.412273 0
M  V30 4704 N 461.167 -1.02423 -1.1978 0
M  V30 4705 C 462.13 -0.605703 -2.21052 0
M  V30 4706 C 463.13 0.328209 -1.57415 0
M  V30 4707 O 464.32 0.115853 -1.73814 0
M  V30 4708 C 461.452 0.114366 -3.40708 0
M  V30 4709 H 462.645 -1.5017 -2.59594 0
M  V30 4710 H 460.198 -0.814888 -1.33376 0
M  V30 4711 H 460.933 1.02492 -3.07678 0
M  V30 4712 H 460.718 -0.556641 -3.88129 0
M  V30 4713 H 462.208 0.394272 -4.15735 0
M  V30 4714 N 462.645 1.35699 -0.801477 0
M  V30 4715 C 463.608 2.28199 -0.213994 0
M  V30 4716 C 464.608 1.49359 0.595691 0
M  V30 4717 O 465.798 1.69186 0.414921 0
M  V30 4718 C 462.93 3.33587 0.702297 0
M  V30 4719 H 464.123 2.81666 -1.02976 0
M  V30 4720 H 461.676 1.45467 -0.571759 0
M  V30 4721 H 462.411 2.85297 1.54195 0
M  V30 4722 H 462.196 3.91906 0.123484 0
M  V30 4723 H 463.686 4.02638 1.10783 0
M  V30 4724 N 464.123 0.554532 1.47522 0
M  V30 4725 C 465.353 0.0342074 2.06572 0
M  V30 4726 C 465.761 -1.26375 1.40805 0
M  V30 4727 O 465.104 -1.7683 0.49769 0
M  V30 4728 C 465.166 -0.235096 3.5873 0
M  V30 4729 C 464.83 0.973024 4.46521 0
M  V30 4730 C 465.827 1.8779 4.848 0
M  V30 4731 C 463.512 1.18694 4.88075 0
M  V30 4732 C 465.506 2.98039 5.63428 0
M  V30 4733 C 463.193 2.29254 5.66468 0
M  V30 4734 C 464.191 3.18757 6.04055 0
M  V30 4735 O 463.879 4.27401 6.8087 0
M  V30 4736 H 463.611 0.041587 0.67472 0
M  V30 4737 H 466.165 0.766748 1.90552 0
M  V30 4738 H 464.395 -1.02191 3.72953 0
M  V30 4739 H 466.084 -0.700477 3.9981 0
M  V30 4740 H 466.85 1.72467 4.53299 0
M  V30 4741 H 462.729 0.49947 4.58286 0
M  V30 4742 H 466.273 3.67926 5.92685 0
M  V30 4743 H 462.17 2.4455 5.97382 0
M  V30 4744 H 462.938 4.25415 6.9926 0
M  V30 4745 N 465.601 -1.54893 0.290851 0
M  V30 4746 C 466.533 -2.20564 -0.623236 0
M  V30 4747 C 467.546 -1.19519 -1.1054 0
M  V30 4748 O 468.735 -1.46165 -1.02459 0
M  V30 4749 C 465.835 -2.83033 -1.86401 0
M  V30 4750 C 465.008 -4.09916 -1.52604 0
M  V30 4751 C 464.067 -4.56284 -2.62091 0
M  V30 4752 O 463.093 -5.2171 -2.27612 0
M  V30 4753 N 464.295 -4.27746 -3.92446 0
M  V30 4754 H 467.06 -2.99638 -0.0610915 0
M  V30 4755 H 464.621 -1.61508 0.112615 0
M  V30 4756 H 466.613 -3.1099 -2.58973 0
M  V30 4757 H 465.183 -2.0786 -2.33481 0
M  V30 4758 H 464.403 -3.89078 -0.633424 0
M  V30 4759 H 465.691 -4.92554 -1.27547 0
M  V30 4760 H 465.089 -3.7531 -4.23272 0
M  V30 4761 H 463.646 -4.60437 -4.61347 0
M  V30 4762 N 467.08 -0.0183926 -1.57589 0
M  V30 4763 C 468.357 0.700621 -1.82622 0
M  V30 4764 C 468.737 1.90951 -0.90005 0
M  V30 4765 O 468.085 2.28452 0.0469145 0
M  V30 4766 C 468.295 1.08899 -3.31575 0
M  V30 4767 C 469.643 1.48514 -3.9778 0
M  V30 4768 O 470.667 1.18227 -3.36007 0
M  V30 4769 O 469.526 2.04903 -5.06633 0
M  V30 4770 H 466.62 0.342743 -0.752633 0
M  V30 4771 H 469.166 -0.0452548 -1.6964 0
M  V30 4772 H 467.938 0.228113 -3.90635 0
M  V30 4773 H 467.561 1.89338 -3.49624 0
M  V30 4774 N 468.558 1.5553 0.254621 0
M  V30 4775 C 469.505 1.89666 1.31512 0
M  V30 4776 C 470.475 0.750057 1.482 0
M  V30 4777 O 471.66 1.00301 1.62309 0
M  V30 4778 C 468.8 2.19009 2.667 0
M  V30 4779 C 467.913 3.46435 2.58083 0
M  V30 4780 C 467.048 3.65386 3.85573 0
M  V30 4781 C 466.087 4.8644 3.71541 0
M  V30 4782 N 465.224 5.01952 4.90906 0
M  V30 4783 H 470.064 2.80109 1.017 0
M  V30 4784 H 467.601 1.38666 0.490938 0
M  V30 4785 H 469.559 2.34025 3.45381 0
M  V30 4786 H 468.189 1.31779 2.94676 0
M  V30 4787 H 467.241 3.39792 1.71013 0
M  V30 4788 H 468.553 4.35258 2.43622 0
M  V30 4789 H 467.707 3.80319 4.72697 0
M  V30 4790 H 466.446 2.74781 4.02922 0
M  V30 4791 H 465.451 4.71491 2.82801 0
M  V30 4792 H 466.676 5.78497 3.55694 0
M  V30 4793 H 464.622 4.14283 5.08631 0
M  V30 4794 H 464.539 5.84851 4.79046 0
M  V30 4795 H 465.807 5.21289 5.7955 0
M  V30 4796 N 470.036 -0.519951 1.48776 0
M  V30 4797 C 470.986 -1.61995 1.60442 0
M  V30 4798 C 471.97 -1.54155 0.460991 0
M  V30 4799 O 473.162 -1.62006 0.712965 0
M  V30 4800 C 470.291 -3.00683 1.65664 0
M  V30 4801 C 469.377 -3.1359 2.8552 0
M  V30 4802 N 469.768 -2.96441 4.09825 0
M  V30 4803 C 468.066 -3.44662 2.83062 0
M  V30 4804 C 468.767 -3.1303 4.90293 0
M  V30 4805 N 467.743 -3.41058 4.23297 0
M  V30 4806 H 471.545 -1.47362 2.54287 0
M  V30 4807 H 469.059 -0.725649 1.45286 0
M  V30 4808 H 471.056 -3.79712 1.72117 0
M  V30 4809 H 469.716 -3.16401 0.729425 0
M  V30 4810 H 470.727 -2.72999 4.40104 0
M  V30 4811 H 467.404 -3.66675 1.9964 0
M  V30 4812 H 468.794 -3.04424 5.98979 0
M  V30 4813 N 471.514 -1.37532 -0.769588 0
M  V30 4814 C 472.739 -1.36231 -1.56384 0
M  V30 4815 C 473.164 0.0495849 -1.88035 0
M  V30 4816 O 472.522 1.02723 -1.49391 0
M  V30 4817 C 472.57 -2.20986 -2.84952 0
M  V30 4818 O 471.674 -1.61597 -3.79421 0
M  V30 4819 H 471.015 -0.465387 -0.473615 0
M  V30 4820 H 473.545 -1.81085 -0.952342 0
M  V30 4821 H 473.555 -2.34277 -3.34034 0
M  V30 4822 H 472.23 -3.23612 -2.61243 0
M  V30 4823 H 470.807 -1.57359 -3.38072 0
M  V30 4824 N 472.992 0.995999 -1.22138 0
M  V30 4825 C 474.239 1.7351 -1.04406 0
M  V30 4826 C 474.567 1.89884 0.421244 0
M  V30 4827 O 473.822 1.43683 1.32867 0
M  V30 4828 C 474.121 3.14553 -1.6968 0
M  V30 4829 C 473.787 3.18102 -3.19565 0
M  V30 4830 C 472.449 3.18778 -3.60464 0
M  V30 4831 C 474.801 3.14636 -4.15516 0
M  V30 4832 C 472.129 3.13684 -4.95801 0
M  V30 4833 C 474.481 3.11084 -5.50826 0
M  V30 4834 C 473.145 3.10074 -5.91109 0
M  V30 4835 H 472.415 0.634916 -0.38205 0
M  V30 4836 H 475.062 1.1667 -1.51857 0
M  V30 4837 H 473.367 3.74682 -1.14546 0
M  V30 4838 H 475.064 3.70477 -1.53454 0
M  V30 4839 H 471.654 3.18324 -2.86998 0
M  V30 4840 H 475.838 3.13266 -3.84939 0
M  V30 4841 H 471.094 3.11245 -5.26247 0
M  V30 4842 H 475.268 3.07357 -6.24904 0
M  V30 4843 H 472.895 3.05882 -6.95946 0
M  V30 4844 N 474.47 1.03057 1.19235 0
M  V30 4845 C 475.403 0.557384 2.21288 0
M  V30 4846 C 476.381 -0.402675 1.57535 0
M  V30 4847 O 477.565 -0.319376 1.85775 0
M  V30 4848 C 474.692 -0.187041 3.38183 0
M  V30 4849 C 473.738 0.72471 4.20298 0
M  V30 4850 S 474.571 2.20187 4.88137 0
M  V30 4851 C 475.727 1.46801 6.08441 0
M  V30 4852 H 475.96 1.42207 2.61083 0
M  V30 4853 H 473.493 0.840651 1.29508 0
M  V30 4854 H 475.451 -0.610405 4.05936 0
M  V30 4855 H 474.112 -1.02748 2.96819 0
M  V30 4856 H 473.305 0.149911 5.03777 0
M  V30 4857 H 472.907 1.08647 3.57871 0
M  V30 4858 H 475.199 0.755522 6.73274 0
M  V30 4859 H 476.142 2.27946 6.70407 0
M  V30 4860 H 476.55 0.964762 5.56195 0
M  V30 4861 N 475.948 -1.35272 0.808662 0
M  V30 4862 C 477.225 -1.93077 0.313181 0
M  V30 4863 C 477.605 -1.73847 -1.19752 0
M  V30 4864 O 476.953 -1.1087 -1.998 0
M  V30 4865 C 477.163 -3.41347 0.726859 0
M  V30 4866 C 478.511 -4.18493 0.717532 0
M  V30 4867 O 479.535 -3.4987 0.668535 0
M  V30 4868 O 478.394 -5.40937 0.777779 0
M  V30 4869 H 475.488 -0.822885 0.0824018 0
M  V30 4870 H 478.034 -1.44335 0.892499 0
M  V30 4871 H 476.806 -3.49082 1.76797 0
M  V30 4872 H 476.429 -3.97411 0.122461 0
M  V30 4873 N 477.426 -0.562348 -1.47226 0
M  V30 4874 C 478.376 0.202967 -2.27095 0
M  V30 4875 C 479.36 0.880611 -1.34663 0
M  V30 4876 O 480.552 0.778069 -1.58981 0
M  V30 4877 C 477.681 1.22906 -3.20545 0
M  V30 4878 C 476.767 0.554566 -4.20459 0
M  V30 4879 N 477.158 -0.378295 -5.04383 0
M  V30 4880 C 475.456 0.807854 -4.38623 0
M  V30 4881 C 476.157 -0.770583 -5.76573 0
M  V30 4882 N 475.133 -0.124263 -5.43458 0
M  V30 4883 H 478.935 -0.514196 -2.89367 0
M  V30 4884 H 476.449 -0.382655 -1.57827 0
M  V30 4885 H 478.446 1.79134 -3.76453 0
M  V30 4886 H 477.106 1.94726 -2.59831 0
M  V30 4887 H 478.117 -0.75274 -5.124 0
M  V30 4888 H 474.794 1.51418 -3.89075 0
M  V30 4889 H 476.184 -1.53742 -6.54074 0
M  V30 4890 N 478.904 1.54736 -0.299062 0
M  V30 4891 C 480.134 2.04215 0.312992 0
M  V30 4892 C 480.542 1.17596 1.48215 0
M  V30 4893 O 479.885 0.193835 1.82674 0
M  V30 4894 C 479.947 3.49696 0.833862 0
M  V30 4895 C 479.611 4.56518 -0.20977 0
M  V30 4896 C 480.608 5.09442 -1.03756 0
M  V30 4897 C 478.293 5.01073 -0.35091 0
M  V30 4898 C 480.287 6.05459 -1.99244 0
M  V30 4899 C 477.974 5.9691 -1.30924 0
M  V30 4900 C 478.972 6.48987 -2.1285 0
M  V30 4901 O 478.66 7.42947 -3.07059 0
M  V30 4902 H 478.392 0.672128 0.0722494 0
M  V30 4903 H 480.946 2.00718 -0.436043 0
M  V30 4904 H 479.176 3.5051 1.63339 0
M  V30 4905 H 480.865 3.82381 1.36159 0
M  V30 4906 H 481.631 4.75816 -0.939376 0
M  V30 4907 H 477.51 4.60168 0.276813 0
M  V30 4908 H 481.054 6.46031 -2.63229 0
M  V30 4909 H 476.951 6.29953 -1.40815 0
M  V30 4910 H 477.719 7.60743 -3.02015 0
M  V30 4911 N 480.382 0.0267497 1.57577 0
M  V30 4912 C 481.292 -0.971633 2.13533 0
M  V30 4913 C 482.308 -1.35868 1.08701 0
M  V30 4914 O 483.484 -1.44058 1.40746 0
M  V30 4915 C 480.549 -2.23622 2.64941 0
M  V30 4916 C 479.61 -1.90982 3.8448 0
M  V30 4917 C 478.843 -3.11411 4.33427 0
M  V30 4918 O 479.066 -4.23992 3.81558 0
M  V30 4919 O 478 -2.93848 5.25297 0
M  V30 4920 H 481.826 -0.525853 2.99113 0
M  V30 4921 H 479.411 -0.193712 1.48139 0
M  V30 4922 H 481.293 -2.97864 2.98086 0
M  V30 4923 H 479.968 -2.67386 1.82446 0
M  V30 4924 H 478.875 -1.14132 3.56265 0
M  V30 4925 H 480.208 -1.52036 4.6813 0
M  V30 4926 N 481.861 -1.55662 -0.24637 0
M  V30 4927 C 483.277 -1.48098 -0.594907 0
M  V30 4928 C 483.477 -0.717044 -1.8831 0
M  V30 4929 O 482.533 -0.246618 -2.51293 0
M  V30 4930 C 483.846 -2.92507 -0.697146 0
M  V30 4931 C 485.394 -3.02881 -0.789436 0
M  V30 4932 C 485.869 -4.48598 -0.923232 0
M  V30 4933 N 487.36 -4.52538 -0.988088 0
M  V30 4934 C 488.095 -5.62536 -1.11089 0
M  V30 4935 N 487.591 -6.82342 -1.19919 0
M  V30 4936 N 489.384 -5.50334 -1.14408 0
M  V30 4937 H 481.535 -2.0377 0.599278 0
M  V30 4938 H 483.798 -0.925145 0.20691 0
M  V30 4939 H 483.504 -3.51242 0.179396 0
M  V30 4940 H 483.378 -3.43024 -1.5689 0
M  V30 4941 H 485.765 -2.44226 -1.65643 0
M  V30 4942 H 485.846 -2.55574 0.107482 0
M  V30 4943 H 485.49 -5.07864 -0.0607927 0
M  V30 4944 H 485.42 -4.93587 -1.8352 0
M  V30 4945 H 487.911 -3.66248 -0.931167 0
M  V30 4946 H 488.224 -7.61924 -1.29197 0
M  V30 4947 H 486.569 -6.85102 -1.16876 0
M  V30 4948 H 489.76 -4.5567 -1.07158 0
M  V30 4949 H 489.933 -6.36096 -1.23634 0
M  V30 4950 N 483.339 0.512053 -1.4905 0
M  V30 4951 C 484.286 1.6148 -1.64902 0
M  V30 4952 C 485.256 1.58687 -0.490673 0
M  V30 4953 O 486.441 1.76842 -0.71636 0
M  V30 4954 C 483.581 2.99676 -1.71139 0
M  V30 4955 C 482.694 3.12568 -2.98203 0
M  V30 4956 C 481.829 4.4143 -2.95487 0
M  V30 4957 C 480.868 4.47916 -4.17179 0
M  V30 4958 N 480.005 5.68191 -4.12437 0
M  V30 4959 H 484.845 1.47271 -2.59066 0
M  V30 4960 H 482.382 0.716713 -1.28459 0
M  V30 4961 H 484.34 3.79761 -1.72736 0
M  V30 4962 H 482.97 3.12614 -0.804508 0
M  V30 4963 H 482.022 2.25618 -3.06269 0
M  V30 4964 H 483.334 3.1322 -3.88194 0
M  V30 4965 H 482.488 5.29825 -2.95585 0
M  V30 4966 H 481.227 4.43326 -2.03256 0
M  V30 4967 H 480.232 3.57925 -4.17337 0
M  V30 4968 H 481.457 4.47744 -5.1059 0
M  V30 4969 H 479.403 5.7095 -3.23036 0
M  V30 4970 H 479.32 5.70413 -4.96151 0
M  V30 4971 H 480.588 6.58823 -4.16621 0
M  V30 4972 N 484.817 1.37938 0.762283 0
M  V30 4973 C 486.045 1.36883 1.55147 0
M  V30 4974 C 486.46 -0.0435348 1.8875 0
M  V30 4975 O 485.817 -1.00786 1.52146 0
M  V30 4976 C 485.868 2.21624 2.85596 0
M  V30 4977 O 485.589 3.57358 2.5343 0
M  V30 4978 C 487.09 2.28653 3.7978 0
M  V30 4979 H 484.31 0.468521 0.480343 0
M  V30 4980 H 486.854 1.81404 0.944079 0
M  V30 4981 H 485.009 1.80588 3.42734 0
M  V30 4982 H 485.423 4.01883 3.37032 0
M  V30 4983 H 486.897 2.9225 4.68288 0
M  V30 4984 H 487.374 1.29767 4.19592 0
M  V30 4985 H 487.98 2.70043 3.28568 0
M  V30 4986 N 486.295 -0.989507 1.22664 0
M  V30 4987 C 487.52 -1.77031 1.08051 0
M  V30 4988 C 487.945 -1.84535 -0.364483 0
M  V30 4989 O 487.303 -1.3003 -1.2634 0
M  V30 4990 C 487.351 -3.18 1.70024 0
M  V30 4991 O 486.455 -4.01161 0.956216 0
M  V30 4992 H 485.796 -0.545008 0.379292 0
M  V30 4993 H 488.326 -1.24277 1.62531 0
M  V30 4994 H 488.336 -3.68616 1.74888 0
M  V30 4995 H 487.011 -3.11853 2.75174 0
M  V30 4996 H 485.588 -3.59687 0.98384 0
M  V30 4997 N 487.773 -1.03688 -1.18687 0
M  V30 4998 C 489.019 -0.739123 -1.88851 0
M  V30 4999 C 489.352 0.731042 -1.79915 0
M  V30 5000 O 488.627 1.53313 -1.19688 0
M  V30 5001 C 488.91 -1.20106 -3.3948 0
M  V30 5002 C 488.763 -2.73304 -3.57246 0
M  V30 5003 C 490.082 -0.788134 -4.32986 0
M  V30 5004 H 487.201 -0.269978 -0.68577 0
M  V30 5005 H 489.843 -1.28822 -1.3966 0
M  V30 5006 H 487.993 -0.733915 -3.81505 0
M  V30 5007 H 489.665 -3.28027 -3.24339 0
M  V30 5008 H 487.908 -3.13313 -3.00029 0
M  V30 5009 H 488.579 -3.00684 -4.62918 0
M  V30 5010 H 491.055 -1.19005 -3.98719 0
M  V30 5011 H 489.931 -1.13915 -5.36949 0
M  V30 5012 H 490.192 0.308988 -4.41019 0
M  V30 5013 N 489.251 1.34841 -0.815825 0
M  V30 5014 C 490.481 2.02436 -0.412695 0
M  V30 5015 C 490.889 1.61604 0.983906 0
M  V30 5016 O 490.232 0.813729 1.64694 0
M  V30 5017 C 490.294 3.56953 -0.427182 0
M  V30 5018 C 489.958 4.21083 -1.77589 0
M  V30 5019 C 490.955 4.42107 -2.73564 0
M  V30 5020 C 488.64 4.58006 -2.06243 0
M  V30 5021 C 490.634 4.99169 -3.9637 0
M  V30 5022 C 488.321 5.1478 -3.2931 0
M  V30 5023 C 489.319 5.35304 -4.24191 0
M  V30 5024 O 489.007 5.90878 -5.45086 0
M  V30 5025 H 488.739 0.655631 -0.164695 0
M  V30 5026 H 491.293 1.73246 -1.1034 0
M  V30 5027 H 489.523 3.85372 0.320175 0
M  V30 5028 H 491.212 4.05875 -0.0450875 0
M  V30 5029 H 491.978 4.13953 -2.52721 0
M  V30 5030 H 487.857 4.41339 -1.33196 0
M  V30 5031 H 491.401 5.15105 -4.70439 0
M  V30 5032 H 487.298 5.42362 -3.5002 0
M  V30 5033 H 488.066 6.0932 -5.46508 0
M  V30 5034 N 490.729 0.570148 1.46925 0
M  V30 5035 C 491.959 0.0561151 2.06524 0
M  V30 5036 C 492.367 -1.24874 1.42137 0
M  V30 5037 O 491.71 -1.76292 0.516417 0
M  V30 5038 C 491.772 -0.197035 3.5896 0
M  V30 5039 C 491.436 1.02033 4.45464 0
M  V30 5040 C 492.433 1.92921 4.82781 0
M  V30 5041 C 490.118 1.23864 4.86788 0
M  V30 5042 C 492.112 3.03999 5.60235 0
M  V30 5043 C 489.799 2.35249 5.64004 0
M  V30 5044 C 490.797 3.25146 6.0064 0
M  V30 5045 O 490.485 4.34598 6.76299 0
M  V30 5046 H 490.217 0.0487409 0.674241 0
M  V30 5047 H 492.771 0.786915 1.89728 0
M  V30 5048 H 491.001 -0.982299 3.74016 0
M  V30 5049 H 492.69 -0.658032 4.00531 0
M  V30 5050 H 493.456 1.77265 4.51444 0
M  V30 5051 H 489.335 0.54805 4.57731 0
M  V30 5052 H 492.879 3.74192 5.8875 0
M  V30 5053 H 488.776 2.50873 5.94755 0
M  V30 5054 H 489.544 4.32808 6.94708 0
M  V30 5055 N 492.207 -1.54576 0.307264 0
M  V30 5056 C 493.455 -1.99867 -0.299574 0
M  V30 5057 C 493.776 -1.19714 -1.53927 0
M  V30 5058 O 493.046 -0.29472 -1.9367 0
M  V30 5059 H 491.626 -0.738299 -0.113683 0
M  V30 5060 H 494.288 -1.9032 0.420042 0
M  V30 5061 H 493.384 -3.06901 -0.567283 0
M  V30 5062 N 493.685 -0.035106 -1.57561 0
M  V30 5063 C 494.934 0.641604 -1.91223 0
M  V30 5064 C 495.247 1.72944 -0.913761 0
M  V30 5065 O 496.453 2.46321 -1.14185 0
M  V30 5066 C 494.909 1.19249 -3.3957 0
M  V30 5067 C 494.517 0.137616 -4.47789 0
M  V30 5068 C 496.261 1.84537 -3.82291 0
M  V30 5069 C 494.168 0.700478 -5.87237 0
M  V30 5070 H 493.098 0.243417 -0.713627 0
M  V30 5071 H 495.749 -0.101382 -1.8322 0
M  V30 5072 H 494.131 1.98728 -3.42525 0
M  V30 5073 H 495.305 -0.635153 -4.56402 0
M  V30 5074 H 493.62 -0.416855 -4.14308 0
M  V30 5075 H 496.217 2.27616 -4.83834 0
M  V30 5076 H 496.56 2.69054 -3.17672 0
M  V30 5077 H 497.093 1.11739 -3.81784 0
M  V30 5078 H 493.832 -0.106693 -6.55413 0
M  V30 5079 H 493.352 1.4416 -5.82218 0
M  V30 5080 H 495.031 1.18837 -6.35993 0
M  V30 5081 N 495.163 1.55791 0.238111 0
M  V30 5082 C 496.093 1.94068 1.29846 0
M  V30 5083 C 497.074 0.806726 1.49753 0
M  V30 5084 O 498.259 1.06772 1.62214 0
M  V30 5085 C 495.389 2.24302 2.65153 0
M  V30 5086 C 494.343 3.40032 2.59927 0
M  V30 5087 C 493.669 3.55829 3.99111 0
M  V30 5088 C 494.969 4.75476 2.16148 0
M  V30 5089 H 496.663 2.82887 0.980563 0
M  V30 5090 H 494.209 1.36105 0.470253 0
M  V30 5091 H 496.162 2.4967 3.39475 0
M  V30 5092 H 494.886 1.32318 2.98596 0
M  V30 5093 H 493.545 3.14687 1.88063 0
M  V30 5094 H 493.193 2.6125 4.29834 0
M  V30 5095 H 492.893 4.3366 3.96501 0
M  V30 5096 H 494.417 3.83528 4.7512 0
M  V30 5097 H 495.831 5.00158 2.80205 0
M  V30 5098 H 494.228 5.56472 2.24631 0
M  V30 5099 H 495.298 4.71946 1.11333 0
M  V30 5100 N 496.642 -0.504142 1.49319 0
M  V30 5101 C 497.552 -1.63248 1.68486 0
M  V30 5102 C 498.568 -1.64488 0.567432 0
M  V30 5103 O 499.744 -1.82966 0.841749 0
M  V30 5104 C 496.809 -2.99627 1.74426 0
M  V30 5105 C 495.87 -3.09039 2.97982 0
M  V30 5106 C 495.103 -4.38913 3.0363 0
M  V30 5107 O 495.326 -5.27528 2.16958 0
M  V30 5108 O 494.26 -4.53231 3.96062 0
M  V30 5109 H 498.086 -1.50008 2.64067 0
M  V30 5110 H 495.671 -0.680086 1.33023 0
M  V30 5111 H 497.553 -3.80689 1.80705 0
M  V30 5112 H 496.228 -3.13136 0.820233 0
M  V30 5113 H 495.135 -2.27177 2.97223 0
M  V30 5114 H 496.468 -3.00456 3.89855 0
M  V30 5115 N 498.12 -1.38341 -0.754957 0
M  V30 5116 C 499.367 -1.34473 -1.51404 0
M  V30 5117 C 499.695 0.0656458 -1.94389 0
M  V30 5118 O 498.95 1.04244 -1.65625 0
M  V30 5119 C 499.249 -2.2452 -2.78075 0
M  V30 5120 C 498.915 -3.72512 -2.54059 0
M  V30 5121 C 497.577 -4.1284 -2.47218 0
M  V30 5122 C 499.929 -4.66197 -2.33044 0
M  V30 5123 C 497.257 -5.44945 -2.17376 0
M  V30 5124 C 499.609 -5.98558 -2.04723 0
M  V30 5125 C 498.273 -6.37972 -1.96337 0
M  V30 5126 H 497.543 -0.492072 -0.554027 0
M  V30 5127 H 500.19 -1.70687 -0.868223 0
M  V30 5128 H 498.495 -1.81357 -3.473 0
M  V30 5129 H 500.192 -2.18832 -3.36026 0
M  V30 5130 H 496.782 -3.40538 -2.60253 0
M  V30 5131 H 500.966 -4.35888 -2.37309 0
M  V30 5132 H 496.222 -5.74426 -2.09391 0
M  V30 5133 H 500.396 -6.70693 -1.87465 0
M  V30 5134 H 498.023 -7.40258 -1.72978 0
M  V30 5135 N 499.598 0.982988 -1.23187 0
M  V30 5136 C 500.875 1.69814 -0.970707 0
M  V30 5137 C 501.255 2.04811 0.511424 0
M  V30 5138 O 500.603 1.73924 1.48198 0
M  V30 5139 C 500.813 2.94143 -1.87831 0
M  V30 5140 C 502.161 3.66712 -2.14026 0
M  V30 5141 O 503.185 3.04171 -1.8536 0
M  V30 5142 O 502.044 4.79258 -2.62629 0
M  V30 5143 H 499.138 0.741659 -0.365884 0
M  V30 5144 H 501.684 1.03844 -1.34218 0
M  V30 5145 H 500.456 2.64858 -2.88038 0
M  V30 5146 H 500.079 3.6785 -1.50905 0
M  V30 5147 N 501.076 1.04316 1.18135 0
M  V30 5148 C 502.006 0.657299 2.24058 0
M  V30 5149 C 502.987 -0.340678 1.66654 0
M  V30 5150 O 504.172 -0.220223 1.92947 0
M  V30 5151 C 501.302 0.0220715 3.47293 0
M  V30 5152 C 500.256 0.943857 4.17463 0
M  V30 5153 C 499.582 0.172973 5.3442 0
M  V30 5154 C 500.882 2.26409 4.70677 0
M  V30 5155 H 502.576 1.5428 2.56589 0
M  V30 5156 H 500.122 0.743263 1.23335 0
M  V30 5157 H 502.075 -0.259607 4.206 0
M  V30 5158 H 500.799 -0.898323 3.14003 0
M  V30 5159 H 499.458 1.20996 3.46057 0
M  V30 5160 H 499.106 -0.749907 4.97379 0
M  V30 5161 H 498.806 0.787098 5.82304 0
M  V30 5162 H 500.33 -0.101628 6.10515 0
M  V30 5163 H 501.744 2.04294 5.35665 0
M  V30 5164 H 500.141 2.8314 5.29105 0
M  V30 5165 H 501.211 2.90883 3.87962 0
M  V30 5166 N 502.554 -1.34406 0.822964 0
M  V30 5167 C 503.502 -2.31428 0.233165 0
M  V30 5168 C 504.496 -1.57404 -0.626118 0
M  V30 5169 O 505.702 -1.72402 -0.517453 0
M  V30 5170 H 502.077 -0.749863 0.0566557 0
M  V30 5171 H 504.048 -2.78699 1.06628 0
M  V30 5172 C 502.797 -3.42653 -0.590264 0
M  V30 5173 H 502.12 -3.99753 0.0616129 0
M  V30 5174 H 503.56 -4.12778 -0.969054 0
M  V30 5175 C 502.019 -2.87112 -1.76262 0
M  V30 5176 O 502.549 -2.81995 -2.8608 0
M  V30 5177 N 500.755 -2.43934 -1.57938 0
M  V30 5178 H 500.302 -2.48296 -0.686078 0
M  V30 5179 H 500.26 -2.07123 -2.36532 0
M  V30 5180 N 504.032 -0.577932 -1.46621 0
M  V30 5181 C 505.443 -0.150071 -1.86096 0
M  V30 5182 C 505.794 1.28563 -1.48209 0
M  V30 5183 O 504.919 1.97036 -0.894754 0
M  V30 5184 C 505.514 -0.265576 -3.37758 0
M  V30 5185 C 504.073 0.10738 -3.76247 0
M  V30 5186 C 503.22 -0.603711 -2.70649 0
M  V30 5187 H 506.171 -0.786438 -1.37844 0
M  V30 5188 H 506.192 0.510352 -3.77062 0
M  V30 5189 H 505.704 -1.3106 -3.65301 0
M  V30 5190 H 503.805 1.15272 -3.54321 0
M  V30 5191 H 503.918 -0.26561 -4.78363 0
M  V30 5192 H 502.282 -0.0444884 -2.54661 0
M  V30 5193 H 503.065 -1.65029 -3.01032 0
M  V30 5194 N 505.51 1.54411 -0.315457 0
M  V30 5195 C 506.787 1.92562 0.343398 0
M  V30 5196 C 507.167 1.24423 1.70535 0
M  V30 5197 O 506.515 0.385051 2.25232 0
M  V30 5198 C 506.725 3.46168 0.443687 0
M  V30 5199 C 508.073 4.18659 0.707783 0
M  V30 5200 O 509.097 3.52281 0.52693 0
M  V30 5201 O 507.956 5.36198 1.05612 0
M  V30 5202 H 505.05 0.80379 0.194552 0
M  V30 5203 H 507.596 1.65738 -0.364577 0
M  V30 5204 H 506.368 3.8792 -0.513172 0
M  V30 5205 H 505.991 3.79073 1.19956 0
M  V30 5206 N 506.988 0.0434614 1.5754 0
M  V30 5207 C 508.216 -0.641835 1.96693 0
M  V30 5208 C 508.631 -1.64832 0.920652 0
M  V30 5209 O 507.988 -1.82247 -0.095993 0
M  V30 5210 C 508.039 -1.33557 3.35924 0
M  V30 5211 O 507.76 -0.369403 4.3654 0
M  V30 5212 C 509.261 -2.11135 3.89791 0
M  V30 5213 H 506.481 -0.176013 0.647503 0
M  V30 5214 H 509.025 0.107478 2.04217 0
M  V30 5215 H 507.18 -2.03617 3.29574 0
M  V30 5216 H 507.594 -0.863674 5.1734 0
M  V30 5217 H 509.068 -2.55107 4.89514 0
M  V30 5218 H 509.545 -2.95634 3.24803 0
M  V30 5219 H 510.151 -1.46002 3.99454 0
M  V30 5220 N 508.466 -1.55915 -0.229846 0
M  V30 5221 C 509.399 -1.86734 -1.3117 0
M  V30 5222 C 510.377 -0.723947 -1.45595 0
M  V30 5223 O 511.561 -0.971462 -1.61539 0
M  V30 5224 C 508.688 -2.06707 -2.68309 0
M  V30 5225 C 507.734 -3.2938 -2.70944 0
M  V30 5226 S 508.567 -4.85547 -2.25842 0
M  V30 5227 C 509.723 -5.08546 -3.64873 0
M  V30 5228 H 509.956 -2.78204 -1.04832 0
M  V30 5229 H 507.489 -1.48243 -0.431681 0
M  V30 5230 H 509.447 -2.18898 -3.47267 0
M  V30 5231 H 508.108 -1.16049 -2.91876 0
M  V30 5232 H 507.301 -3.40374 -3.71701 0
M  V30 5233 H 506.903 -3.16004 -2.00044 0
M  V30 5234 H 509.195 -4.96935 -4.60502 0
M  V30 5235 H 510.138 -6.10465 -3.58801 0
M  V30 5236 H 510.546 -4.36314 -3.58176 0
M  V30 5237 N 509.944 0.496216 -1.49584 0
M  V30 5238 C 510.874 1.60576 -1.69521 0
M  V30 5239 C 511.855 1.61169 -0.543933 0
M  V30 5240 O 513.04 1.77834 -0.78031 0
M  V30 5241 C 510.17 2.99038 -1.76616 0
M  V30 5242 C 509.124 3.13312 -2.91581 0
M  V30 5243 C 508.45 4.53172 -2.83794 0
M  V30 5244 C 509.75 2.92886 -4.32452 0
M  V30 5245 H 511.444 1.44146 -2.62416 0
M  V30 5246 H 508.99 0.692024 -1.26282 0
M  V30 5247 H 510.943 3.76564 -1.8915 0
M  V30 5248 H 509.667 3.16568 -0.80324 0
M  V30 5249 H 508.326 2.38213 -2.78658 0
M  V30 5250 H 507.974 4.67585 -1.854 0
M  V30 5251 H 507.674 4.63662 -3.60958 0
M  V30 5252 H 509.198 5.32752 -2.98342 0
M  V30 5253 H 510.612 3.60178 -4.46032 0
M  V30 5254 H 509.009 3.14844 -5.10875 0
M  V30 5255 H 510.079 1.88966 -4.46565 0
M  V30 5256 N 511.423 1.38739 0.74761 0
M  V30 5257 C 512.651 1.38521 1.53686 0
M  V30 5258 C 513.066 -0.0235129 1.88785 0
M  V30 5259 O 512.423 -0.991662 1.53207 0
M  V30 5260 C 512.474 2.24641 2.83229 0
M  V30 5261 O 512.195 3.60026 2.49625 0
M  V30 5262 C 513.696 2.32669 3.77333 0
M  V30 5263 H 510.916 0.473589 0.475347 0
M  V30 5264 H 513.46 1.82395 0.924786 0
M  V30 5265 H 511.615 1.84213 3.40799 0
M  V30 5266 H 512.029 4.05435 3.3275 0
M  V30 5267 H 513.503 2.97201 4.65162 0
M  V30 5268 H 513.98 1.3421 4.18192 0
M  V30 5269 H 514.586 2.73512 3.25685 0
M  V30 5270 N 512.901 -0.976442 1.23707 0
M  V30 5271 C 514.147 -1.72081 1.07312 0
M  V30 5272 C 514.48 -1.90275 -0.388476 0
M  V30 5273 O 513.755 -1.4579 -1.28746 0
M  V30 5274 C 514.038 -3.11675 1.80363 0
M  V30 5275 C 513.891 -3.01027 3.3422 0
M  V30 5276 C 515.21 -4.1117 1.5693 0
M  V30 5277 H 512.329 -0.624583 0.391236 0
M  V30 5278 H 514.971 -1.13649 1.52263 0
M  V30 5279 H 513.121 -3.61559 1.42153 0
M  V30 5280 H 514.793 -2.58637 3.81975 0
M  V30 5281 H 513.036 -2.3744 3.63049 0
M  V30 5282 H 513.707 -3.9988 3.80525 0
M  V30 5283 H 516.183 -3.7011 1.90151 0
M  V30 5284 H 515.059 -5.06928 2.10513 0
M  V30 5285 H 515.32 -4.392 0.505548 0
M  V30 5286 N 514.379 -1.04941 -1.1758 0
M  V30 5287 C 515.627 -0.756492 -1.87408 0
M  V30 5288 C 515.948 0.718478 -1.81281 0
M  V30 5289 O 515.218 1.519 -1.23706 0
M  V30 5290 H 513.798 -0.276841 -0.693807 0
M  V30 5291 H 516.46 -1.32803 -1.42652 0
M  V30 5292 H 515.556 -1.06918 -2.93215 0
M  V30 5293 N 515.857 1.33968 -0.830081 0
M  V30 5294 C 516.82 2.27694 -0.26235 0
M  V30 5295 C 517.82 1.50589 0.563876 0
M  V30 5296 O 519.01 1.70028 0.378941 0
M  V30 5297 C 516.142 3.35002 0.63138 0
M  V30 5298 H 517.335 2.79419 -1.08928 0
M  V30 5299 H 514.888 1.44221 -0.602486 0
M  V30 5300 H 515.623 2.88504 1.48109 0
M  V30 5301 H 515.408 3.92079 0.0403276 0
M  V30 5302 H 516.898 4.04897 1.02217 0
M  V30 5303 N 517.335 0.585699 1.46312 0
M  V30 5304 C 518.612 0.00542031 1.95599 0
M  V30 5305 C 518.992 -1.45619 1.52834 0
M  V30 5306 O 518.34 -2.14759 0.780446 0
M  V30 5307 C 518.55 0.180601 3.48532 0
M  V30 5308 C 519.898 0.049979 4.24571 0
M  V30 5309 O 520.922 0.109589 3.56031 0
M  V30 5310 O 519.781 -0.0832226 5.46437 0
M  V30 5311 H 516.875 -0.0481281 0.825598 0
M  V30 5312 H 519.421 0.654227 1.56582 0
M  V30 5313 H 518.193 1.19657 3.72556 0
M  V30 5314 H 517.816 -0.504498 3.94386 0
M  V30 5315 N 518.813 -1.54241 0.323641 0
M  V30 5316 C 520.043 -2.04687 -0.280464 0
M  V30 5317 C 520.451 -1.19939 -1.46326 0
M  V30 5318 O 519.794 -0.222872 -1.82343 0
M  V30 5319 C 519.856 -3.50978 -0.778123 0
M  V30 5320 C 519.52 -4.56127 0.282371 0
M  V30 5321 C 520.517 -5.07726 1.11847 0
M  V30 5322 C 518.202 -5.00451 0.430582 0
M  V30 5323 C 520.196 -6.02212 2.08851 0
M  V30 5324 C 517.883 -5.94752 1.40404 0
M  V30 5325 C 518.881 -6.45519 2.23147 0
M  V30 5326 O 518.569 -7.37968 3.1884 0
M  V30 5327 H 518.301 -0.673192 -0.0615473 0
M  V30 5328 H 520.855 -1.99999 0.467921 0
M  V30 5329 H 519.085 -3.53064 -1.57742 0
M  V30 5330 H 520.774 -3.84499 -1.30058 0
M  V30 5331 H 521.54 -4.74261 1.01496 0
M  V30 5332 H 517.419 -4.6055 -0.203569 0
M  V30 5333 H 520.963 -6.41761 2.73474 0
M  V30 5334 H 516.86 -6.27633 1.5082 0
M  V30 5335 H 517.628 -7.55841 3.14079 0
M  V30 5336 N 520.291 -0.0518155 -1.57515 0
M  V30 5337 C 521.223 0.951542 -2.08515 0
M  V30 5338 C 522.236 1.27436 -1.01311 0
M  V30 5339 O 523.425 1.23504 -1.28876 0
M  V30 5340 C 520.525 2.27291 -2.5138 0
M  V30 5341 C 519.698 2.13191 -3.81927 0
M  V30 5342 C 518.757 3.28458 -4.11098 0
M  V30 5343 O 517.783 3.04334 -4.81009 0
M  V30 5344 N 518.985 4.52954 -3.63061 0
M  V30 5345 H 521.75 0.516242 -2.9522 0
M  V30 5346 H 519.311 0.13441 -1.61341 0
M  V30 5347 H 521.303 3.03272 -2.67971 0
M  V30 5348 H 519.873 2.62386 -1.69919 0
M  V30 5349 H 519.093 1.21798 -3.74912 0
M  V30 5350 H 520.381 2.00999 -4.67415 0
M  V30 5351 H 519.779 4.75444 -3.06545 0
M  V30 5352 H 518.336 5.26026 -3.84889 0
M  V30 5353 N 521.769 1.56035 0.221574 0
M  V30 5354 C 523.046 1.69837 0.970301 0
M  V30 5355 C 523.426 0.599065 2.02421 0
M  V30 5356 O 522.774 -0.393929 2.25079 0
M  V30 5357 C 522.984 3.11148 1.58076 0
M  V30 5358 C 524.332 3.70555 2.07302 0
M  V30 5359 O 525.356 3.14109 1.6797 0
M  V30 5360 O 524.215 4.69562 2.79596 0
M  V30 5361 H 521.309 0.691727 0.453257 0
M  V30 5362 H 523.855 1.68353 0.213358 0
M  V30 5363 H 522.627 3.82617 0.819759 0
M  V30 5364 H 522.25 3.16749 2.40324 0
M  V30 5365 N 523.247 -0.488276 1.49845 0
M  V30 5366 C 524.195 -1.60917 1.67954 0
M  V30 5367 C 525.189 -1.6038 0.54539 0
M  V30 5368 O 526.395 -1.64736 0.7254 0
M  V30 5369 H 522.77 -0.533658 0.529824 0
M  V30 5370 H 524.741 -1.428 2.62013 0
M  V30 5371 C 523.49 -2.98975 1.77509 0
M  V30 5372 H 522.813 -3.00099 2.6416 0
M  V30 5373 H 524.253 -3.76906 1.9421 0
M  V30 5374 C 522.712 -3.3282 0.522745 0
M  V30 5375 O 523.242 -4.00208 -0.345866 0
M  V30 5376 N 521.448 -2.8808 0.381882 0
M  V30 5377 H 520.995 -2.33415 1.08974 0
M  V30 5378 H 520.953 -3.11091 -0.454929 0
M  V30 5379 N 524.725 -1.39134 -0.740242 0
M  V30 5380 C 526.002 -1.26584 -1.49117 0
M  V30 5381 C 526.382 0.126902 -2.10718 0
M  V30 5382 O 525.73 1.13765 -1.98166 0
M  V30 5383 C 525.94 -2.38619 -2.54681 0
M  V30 5384 C 527.288 -2.77685 -3.21211 0
M  V30 5385 O 528.312 -2.38029 -2.64991 0
M  V30 5386 O 527.171 -3.46115 -4.22926 0
M  V30 5387 H 524.265 -0.495769 -0.661923 0
M  V30 5388 H 526.811 -1.50995 -0.774514 0
M  V30 5389 H 525.583 -3.3175 -2.07504 0
M  V30 5390 H 525.206 -2.15845 -3.33911 0
M  V30 5391 N 526.204 0.969867 -1.24223 0
M  V30 5392 C 527.615 1.52717 -1.07399 0
M  V30 5393 C 527.966 1.92956 0.355298 0
M  V30 5394 O 527.091 1.77112 1.2434 0
M  V30 5395 C 527.686 2.77521 -1.94339 0
M  V30 5396 C 526.245 3.29615 -1.81744 0
M  V30 5397 C 525.392 2.02537 -1.89405 0
M  V30 5398 H 528.343 0.788399 -1.37732 0
M  V30 5399 H 528.364 3.50773 -1.47439 0
M  V30 5400 H 527.876 2.48203 -2.98357 0
M  V30 5401 H 525.977 3.63789 -0.805505 0
M  V30 5402 H 526.09 3.98661 -2.65718 0
M  V30 5403 H 524.454 2.17151 -1.33108 0
M  V30 5404 H 525.237 1.75587 -2.94999 0
M  V30 5405 N 527.682 1.05563 1.17022 0
M  V30 5406 C 528.629 0.659893 2.21165 0
M  V30 5407 C 529.599 -0.339813 1.62587 0
M  V30 5408 O 530.784 -0.230378 1.89404 0
M  V30 5409 C 527.924 0.0447297 3.45071 0
M  V30 5410 C 527.037 1.09372 4.17926 0
M  V30 5411 C 526.172 0.445481 5.29329 0
M  V30 5412 C 525.211 1.47852 5.93975 0
M  V30 5413 N 524.348 0.854172 6.96885 0
M  V30 5414 H 529.188 1.55243 2.54369 0
M  V30 5415 H 526.725 0.776336 1.24946 0
M  V30 5416 H 528.683 -0.329404 4.15898 0
M  V30 5417 H 527.313 -0.811244 3.1244 0
M  V30 5418 H 526.365 1.58564 3.45777 0
M  V30 5419 H 527.677 1.87773 4.62107 0
M  V30 5420 H 526.831 0.0179688 6.06697 0
M  V30 5421 H 525.57 -0.370481 4.86291 0
M  V30 5422 H 524.575 1.91601 5.15334 0
M  V30 5423 H 525.8 2.29645 6.39093 0
M  V30 5424 H 523.746 0.0587882 6.55974 0
M  V30 5425 H 523.663 1.57567 7.39397 0
M  V30 5426 H 524.931 0.451559 7.78191 0
M  V30 5427 N 529.16 -1.33526 0.837174 0
M  V30 5428 C 530.408 -1.97446 0.431211 0
M  V30 5429 C 530.729 -1.6665 -1.01255 0
M  V30 5430 O 529.999 -0.964559 -1.70508 0
M  V30 5431 H 528.579 -0.73043 0.156463 0
M  V30 5432 H 531.241 -1.62918 1.06976 0
M  V30 5433 H 530.337 -3.07001 0.561877 0
M  V30 5434 N 530.638 -0.59345 -1.46 0
M  V30 5435 C 531.863 -0.0872365 -2.07216 0
M  V30 5436 C 532.288 1.2131 -1.43755 0
M  V30 5437 O 531.646 1.73528 -0.525152 0
M  V30 5438 C 531.694 0.0538197 -3.6056 0
M  V30 5439 O 530.798 1.10765 -3.97247 0
M  V30 5440 H 530.139 -0.0676598 -0.660544 0
M  V30 5441 H 532.669 -0.819445 -1.87473 0
M  V30 5442 H 532.679 0.256567 -4.07193 0
M  V30 5443 H 531.354 -0.895739 -4.0614 0
M  V30 5444 H 529.931 0.882501 -3.62307 0
M  V30 5445 N 532.116 1.54067 -0.331816 0
M  V30 5446 C 533.364 2.00319 0.267739 0
M  V30 5447 C 533.685 1.22148 1.52003 0
M  V30 5448 O 532.955 0.325494 1.93177 0
M  V30 5449 H 531.535 0.740014 0.101922 0
M  V30 5450 H 534.197 1.89628 -0.450267 0
M  V30 5451 H 533.293 3.07765 0.518385 0
M  V30 5452 N 533.594 0.0601682 1.57485 0
M  V30 5453 C 534.84 -0.606552 1.94146 0
M  V30 5454 C 535.195 -1.67918 0.939225 0
M  V30 5455 O 534.488 -1.91558 -0.0402649 0
M  V30 5456 C 534.682 -1.23831 3.35262 0
M  V30 5457 C 534.511 -0.228408 4.4912 0
M  V30 5458 C 533.281 0.182813 5.04969 0
M  V30 5459 C 535.479 0.52975 5.11564 0
M  V30 5460 N 533.461 1.18464 6.02362 0
M  V30 5461 C 534.832 1.38439 6.04346 0
M  V30 5462 C 536.887 0.587084 4.94427 0
M  V30 5463 C 535.59 2.29125 6.81832 0
M  V30 5464 C 537.616 1.4814 5.72546 0
M  V30 5465 C 536.978 2.32375 6.64967 0
M  V30 5466 H 533.077 -0.193328 0.757726 0
M  V30 5467 H 535.661 0.1346 1.94234 0
M  V30 5468 H 533.832 -1.94944 3.35933 0
M  V30 5469 H 535.564 -1.86456 3.59188 0
M  V30 5470 H 532.319 -0.197968 4.73186 0
M  V30 5471 H 532.743 1.68271 6.55754 0
M  V30 5472 H 537.385 -0.049944 4.22771 0
M  V30 5473 H 535.103 2.93868 7.52773 0
M  V30 5474 H 538.689 1.53045 5.6131 0
M  V30 5475 H 537.569 3.00454 7.2436 0
M  V30 5476 N 535.072 -1.5615 -0.213296 0
M  V30 5477 C 536.297 -1.83986 -0.957282 0
M  V30 5478 C 536.722 -0.641526 -1.76822 0
M  V30 5479 O 536.08 0.409722 -1.7661 0
M  V30 5480 C 536.128 -3.09889 -1.84393 0
M  V30 5481 O 535.232 -2.89163 -2.94038 0
M  V30 5482 H 534.573 -0.606357 -0.270605 0
M  V30 5483 H 537.103 -2.03369 -0.224111 0
M  V30 5484 H 537.113 -3.40209 -2.25215 0
M  V30 5485 H 535.788 -3.96735 -1.24795 0
M  V30 5486 H 534.365 -2.70097 -2.57103 0
M  V30 5487 N 536.55 0.480323 -1.50102 0
M  V30 5488 C 537.798 1.23063 -1.60312 0
M  V30 5489 C 538.119 1.92659 -0.301226 0
M  V30 5490 O 537.389 1.83691 0.680753 0
M  V30 5491 H 535.969 0.457231 -0.590719 0
M  V30 5492 H 538.631 0.554893 -1.86834 0
M  V30 5493 H 537.727 1.9835 -2.40964 0
M  V30 5494 N 538.028 1.39524 0.732853 0
M  V30 5495 C 539.253 1.40329 1.52717 0
M  V30 5496 C 539.678 0.000286574 1.881 0
M  V30 5497 O 539.036 -0.987262 1.52062 0
M  V30 5498 C 539.084 2.28464 2.78992 0
M  V30 5499 O 538.188 1.716 3.75003 0
M  V30 5500 H 537.529 0.47778 0.461109 0
M  V30 5501 H 540.059 1.83546 0.903996 0
M  V30 5502 H 540.069 2.43051 3.27705 0
M  V30 5503 H 538.744 3.30425 2.52572 0
M  V30 5504 H 537.321 1.66267 3.33781 0
M  V30 5505 N 539.506 -0.963266 1.24736 0
M  V30 5506 C 540.753 -1.7068 1.0897 0
M  V30 5507 C 541.081 -1.90934 -0.370751 0
M  V30 5508 O 540.336 -1.47155 -1.29011 0
M  V30 5509 C 540.635 -3.09944 1.7796 0
M  V30 5510 C 540.301 -3.09518 3.27887 0
M  V30 5511 C 538.963 -3.09109 3.68789 0
M  V30 5512 C 541.315 -3.03509 4.23712 0
M  V30 5513 C 538.643 -3.00429 5.03944 0
M  V30 5514 C 540.995 -2.96371 5.5888 0
M  V30 5515 C 539.659 -2.94293 5.99123 0
M  V30 5516 H 538.929 -0.624564 0.398749 0
M  V30 5517 H 541.576 -1.12603 1.54896 0
M  V30 5518 H 539.881 -3.71513 1.2444 0
M  V30 5519 H 541.578 -3.66278 1.63222 0
M  V30 5520 H 538.168 -3.10603 2.95337 0
M  V30 5521 H 542.352 -3.0295 3.93109 0
M  V30 5522 H 537.608 -2.97183 5.34314 0
M  V30 5523 H 541.782 -2.90681 6.32833 0
M  V30 5524 H 539.409 -2.87322 7.03811 0
M  V30 5525 N 540.985 -1.06182 -1.16461 0
M  V30 5526 C 542.396 -0.802426 -1.68576 0
M  V30 5527 C 542.747 0.67412 -1.84255 0
M  V30 5528 O 541.872 1.52303 -1.5373 0
M  V30 5529 C 542.467 -1.45002 -3.06202 0
M  V30 5530 C 541.026 -1.23843 -3.55443 0
M  V30 5531 C 540.173 -1.52724 -2.31454 0
M  V30 5532 H 543.124 -1.22545 -1.00839 0
M  V30 5533 H 543.145 -0.864731 -3.70544 0
M  V30 5534 H 542.657 -2.52466 -2.94759 0
M  V30 5535 H 540.758 -0.183487 -3.72148 0
M  V30 5536 H 540.871 -1.95036 -4.37604 0
M  V30 5537 H 539.235 -0.947726 -2.36411 0
M  V30 5538 H 540.018 -2.61343 -2.22609 0
M  V30 5539 N 542.463 1.3308 -0.844243 0
M  V30 5540 C 543.393 2.3161 -0.296493 0
M  V30 5541 C 544.374 1.59215 0.598707 0
M  V30 5542 O 545.559 1.87077 0.521134 0
M  V30 5543 C 542.689 3.43313 0.524762 0
M  V30 5544 C 541.643 4.27115 -0.275106 0
M  V30 5545 C 540.969 5.30483 0.670236 0
M  V30 5546 C 542.269 5.00443 -1.49514 0
M  V30 5547 H 543.963 2.77672 -1.11976 0
M  V30 5548 H 541.509 1.33496 -0.539899 0
M  V30 5549 H 543.462 4.11273 0.918298 0
M  V30 5550 H 542.186 2.95952 1.3813 0
M  V30 5551 H 540.845 3.60787 -0.650267 0
M  V30 5552 H 540.493 4.79379 1.52332 0
M  V30 5553 H 540.193 5.87435 0.139123 0
M  V30 5554 H 541.717 6.01308 1.06117 0
M  V30 5555 H 543.131 5.61141 -1.17447 0
M  V30 5556 H 541.528 5.67071 -1.96343 0
M  V30 5557 H 542.598 4.28906 -2.26202 0
M  V30 5558 N 543.941 0.601185 1.45683 0
M  V30 5559 C 545.188 0.0938811 2.02282 0
M  V30 5560 C 545.516 -1.27315 1.47041 0
M  V30 5561 O 544.771 -1.85193 0.632623 0
M  V30 5562 C 545.07 -0.00222425 3.574 0
M  V30 5563 C 544.736 1.29963 4.31764 0
M  V30 5564 C 543.398 1.65625 4.51798 0
M  V30 5565 C 545.75 2.1603 4.74321 0
M  V30 5566 C 543.078 2.87119 5.11644 0
M  V30 5567 C 545.43 3.36766 5.3551 0
M  V30 5568 C 544.094 3.72689 5.53768 0
M  V30 5569 H 543.364 0.0343535 0.740203 0
M  V30 5570 H 546.011 0.781522 1.74827 0
M  V30 5571 H 544.316 -0.773096 3.84097 0
M  V30 5572 H 546.013 -0.410794 3.9889 0
M  V30 5573 H 542.603 1.01204 4.1648 0
M  V30 5574 H 546.787 1.89778 4.58582 0
M  V30 5575 H 542.043 3.15065 5.2397 0
M  V30 5576 H 546.217 4.03713 5.67441 0
M  V30 5577 H 543.844 4.66918 5.99909 0
M  V30 5578 N 545.419 -1.53889 0.339982 0
M  V30 5579 C 546.696 -1.93084 -0.312719 0
M  V30 5580 C 547.076 -1.2712 -1.68534 0
M  V30 5581 O 546.424 -0.420835 -2.24591 0
M  V30 5582 C 546.634 -3.4683 -0.388558 0
M  V30 5583 C 547.982 -4.19732 -0.641088 0
M  V30 5584 O 549.006 -3.53075 -0.470818 0
M  V30 5585 O 547.865 -5.3781 -0.970685 0
M  V30 5586 H 544.959 -0.806784 -0.18174 0
M  V30 5587 H 547.505 -1.65137 0.390898 0
M  V30 5588 H 546.277 -3.87055 0.574821 0
M  V30 5589 H 545.9 -3.80933 -1.1391 0
M  V30 5590 N 546.897 -0.0685191 -1.57451 0
M  V30 5591 C 548.122 0.613919 -1.98106 0
M  V30 5592 C 548.547 1.62551 -0.946501 0
M  V30 5593 O 547.905 1.81085 0.0882824 0
M  V30 5594 C 547.953 1.26189 -3.378 0
M  V30 5595 O 547.057 2.37773 -3.36954 0
M  V30 5596 H 546.398 0.158163 -0.644888 0
M  V30 5597 H 548.928 -0.142063 -2.04106 0
M  V30 5598 H 548.938 1.60951 -3.74912 0
M  V30 5599 H 547.613 0.520625 -4.12629 0
M  V30 5600 H 546.19 2.04829 -3.11608 0
M  V30 5601 N 548.375 1.56261 0.205012 0
M  V30 5602 C 549.307 1.90266 1.27795 0
M  V30 5603 C 550.32 0.792397 1.42214 0
M  V30 5604 O 551.509 1.07077 1.42817 0
M  V30 5605 C 548.609 2.11074 2.65143 0
M  V30 5606 C 547.782 3.42176 2.7246 0
M  V30 5607 C 546.841 3.52216 3.90936 0
M  V30 5608 O 545.867 4.25119 3.78501 0
M  V30 5609 N 547.069 2.84573 5.05963 0
M  V30 5610 H 549.834 2.82896 0.989434 0
M  V30 5611 H 547.395 1.57008 0.394981 0
M  V30 5612 H 549.387 2.15089 3.4281 0
M  V30 5613 H 547.957 1.2499 2.86524 0
M  V30 5614 H 547.177 3.50116 1.81142 0
M  V30 5615 H 548.465 4.28509 2.74331 0
M  V30 5616 H 547.863 2.25152 5.18963 0
M  V30 5617 H 546.42 2.94228 5.81613 0
M  V30 5618 N 549.853 -0.472356 1.50355 0
M  V30 5619 C 551.101 -1.22211 1.60962 0
M  V30 5620 C 551.422 -1.92497 0.311439 0
M  V30 5621 O 550.692 -1.8405 -0.671002 0
M  V30 5622 H 549.272 -0.454092 0.593135 0
M  V30 5623 H 551.934 -0.544977 1.87126 0
M  V30 5624 H 551.03 -1.9707 2.42012 0
M  V30 5625 N 551.331 -1.39911 -0.725443 0
M  V30 5626 C 552.279 -1.39552 -1.86086 0
M  V30 5627 C 553.273 -0.277334 -1.67114 0
M  V30 5628 O 554.479 -0.447865 -1.74339 0
M  V30 5629 H 550.854 -0.435993 -0.612711 0
M  V30 5630 H 552.825 -2.35305 -1.83505 0
M  V30 5631 C 551.574 -1.26529 -3.2386 0
M  V30 5632 H 550.897 -2.11845 -3.3906 0
M  V30 5633 H 552.337 -1.30336 -4.03471 0
M  V30 5634 C 550.796 0.0254168 -3.3689 0
M  V30 5635 O 551.326 0.992048 -3.89257 0
M  V30 5636 N 549.532 0.0916528 -2.90455 0
M  V30 5637 H 549.079 -0.695675 -2.48028 0
M  V30 5638 H 549.037 0.954745 -2.99553 0
M  V30 5639 N 552.809 0.956637 -1.25245 0
M  V30 5640 C 554.225 1.22733 -1.02023 0
M  V30 5641 C 554.425 1.99761 0.264186 0
M  V30 5642 O 553.481 2.32814 0.977436 0
M  V30 5643 C 554.794 2.00367 -2.24217 0
M  V30 5644 C 556.342 2.13418 -2.28958 0
M  V30 5645 C 556.817 2.9445 -3.50803 0
M  V30 5646 N 558.308 3.02029 -3.51187 0
M  V30 5647 C 559.043 3.65116 -4.42129 0
M  V30 5648 N 558.539 4.2983 -5.43339 0
M  V30 5649 N 560.332 3.62237 -4.29815 0
M  V30 5650 H 552.483 0.441282 -2.07765 0
M  V30 5651 H 554.746 0.257686 -0.912306 0
M  V30 5652 H 554.452 1.51165 -3.17556 0
M  V30 5653 H 554.326 3.01077 -2.27228 0
M  V30 5654 H 556.713 2.61819 -1.36143 0
M  V30 5655 H 556.794 1.1202 -2.29968 0
M  V30 5656 H 556.438 2.46741 -4.43939 0
M  V30 5657 H 556.368 3.9607 -3.47039 0
M  V30 5658 H 558.859 2.56007 -2.77973 0
M  V30 5659 H 559.172 4.75819 -6.08947 0
M  V30 5660 H 557.517 4.28465 -5.47214 0
M  V30 5661 H 560.708 3.10863 -3.49974 0
M  V30 5662 H 560.881 4.11117 -5.00886 0
M  V30 5663 N 554.287 1.06798 1.15896 0
M  V30 5664 C 555.235 0.677525 2.22514 0
M  V30 5665 C 556.229 -0.308994 1.66558 0
M  V30 5666 O 557.435 -0.173308 1.79164 0
M  V30 5667 H 553.81 0.200994 0.724642 0
M  V30 5668 H 555.781 1.5865 2.52731 0
M  V30 5669 C 554.53 0.0854153 3.47595 0
M  V30 5670 H 553.853 0.835645 3.90969 0
M  V30 5671 H 555.293 -0.150199 4.23734 0
M  V30 5672 C 553.752 -1.1724 3.15843 0
M  V30 5673 O 554.282 -2.25965 3.32119 0
M  V30 5674 N 552.488 -1.07636 2.69931 0
M  V30 5675 H 552.035 -0.191559 2.56887 0
M  V30 5676 H 551.993 -1.91876 2.4906 0
M  V30 5677 N 555.766 -1.3263 0.851289 0
M  V30 5678 C 557.043 -1.91982 0.374448 0
M  V30 5679 C 557.423 -1.77568 -1.14161 0
M  V30 5680 O 556.771 -1.1717 -1.96172 0
M  V30 5681 C 556.981 -3.38862 0.835088 0
M  V30 5682 C 558.329 -4.15999 0.850309 0
M  V30 5683 O 559.353 -3.47566 0.779505 0
M  V30 5684 O 558.212 -5.38189 0.949481 0
M  V30 5685 H 555.306 -0.819846 0.10854 0
M  V30 5686 H 557.852 -1.41422 0.937966 0
M  V30 5687 H 556.624 -3.43281 1.87814 0
M  V30 5688 H 556.247 -3.96821 0.248833 0
M  V30 5689 N 557.244 -0.608902 -1.45362 0
M  V30 5690 C 558.49 -0.104762 -2.02529 0
M  V30 5691 C 558.823 1.26191 -1.47613 0
M  V30 5692 O 558.098 1.8327 -0.65134 0
M  V30 5693 C 558.381 -0.0672661 -3.60037 0
M  V30 5694 C 558.234 -1.4647 -4.25284 0
M  V30 5695 C 559.553 0.619877 -4.35713 0
M  V30 5696 H 556.672 -0.0395438 -0.735938 0
M  V30 5697 H 559.314 -0.781126 -1.73201 0
M  V30 5698 H 557.464 0.50871 -3.85155 0
M  V30 5699 H 559.136 -2.08785 -4.11347 0
M  V30 5700 H 557.379 -2.02502 -3.83634 0
M  V30 5701 H 558.05 -1.39069 -5.34195 0
M  V30 5702 H 560.526 0.130297 -4.15896 0
M  V30 5703 H 559.402 0.615224 -5.45441 0
M  V30 5704 H 559.663 1.68621 -4.0868 0
M  V30 5705 N 558.722 1.53707 -0.348139 0
M  V30 5706 C 559.947 2.05877 0.250883 0
M  V30 5707 C 560.372 1.22115 1.43072 0
M  V30 5708 O 559.73 0.235986 1.79758 0
M  V30 5709 C 559.778 3.54886 0.639416 0
M  V30 5710 O 558.882 3.73948 1.73888 0
M  V30 5711 H 558.223 0.662754 0.040653 0
M  V30 5712 H 560.753 1.98303 -0.503685 0
M  V30 5713 H 560.763 3.97601 0.915295 0
M  V30 5714 H 559.438 4.153 -0.223386 0
M  V30 5715 H 558.015 3.43134 1.45991 0
M  V30 5716 N 560.2 0.0768682 1.57412 0
M  V30 5717 C 561.616 -0.279772 1.57129 0
M  V30 5718 C 561.816 -1.69688 1.08666 0
M  V30 5719 O 560.872 -2.40953 0.754843 0
M  V30 5720 C 562.185 -0.0848055 3.0058 0
M  V30 5721 C 563.733 -0.153954 3.12621 0
M  V30 5722 C 564.208 0.0127946 4.57998 0
M  V30 5723 N 565.699 -0.0426435 4.6318 0
M  V30 5724 C 566.434 0.0618892 5.73367 0
M  V30 5725 N 565.93 0.220229 6.9245 0
M  V30 5726 N 567.723 0.00446072 5.621 0
M  V30 5727 H 559.874 1.00297 1.87228 0
M  V30 5728 H 562.137 0.391565 0.863354 0
M  V30 5729 H 561.843 0.89325 3.40168 0
M  V30 5730 H 561.717 -0.834961 3.67843 0
M  V30 5731 H 564.104 -1.1225 2.72917 0
M  V30 5732 H 564.185 0.627389 2.47987 0
M  V30 5733 H 563.829 0.978128 4.98392 0
M  V30 5734 H 563.759 -0.788016 5.20671 0
M  V30 5735 H 566.25 -0.163226 3.77547 0
M  V30 5736 H 566.563 0.291999 7.72248 0
M  V30 5737 H 564.908 0.255658 6.9453 0
M  V30 5738 H 568.099 -0.117979 4.67951 0
M  V30 5739 H 568.272 0.0893796 6.47938 0
M  V30 5740 N 561.678 -1.56367 -0.196722 0
M  V30 5741 C 562.903 -1.84991 -0.937714 0
M  V30 5742 C 563.328 -0.660244 -1.76132 0
M  V30 5743 O 562.686 0.390967 -1.77034 0
M  V30 5744 C 562.734 -3.11828 -1.81096 0
M  V30 5745 O 561.838 -2.92266 -2.90955 0
M  V30 5746 H 561.179 -0.609193 -0.264159 0
M  V30 5747 H 563.709 -2.03595 -0.202529 0
M  V30 5748 H 563.719 -3.42579 -2.21594 0
M  V30 5749 H 562.394 -3.98037 -1.2058 0
M  V30 5750 H 560.971 -2.72809 -2.54224 0
M  V30 5751 N 563.156 0.464375 -1.50603 0
M  V30 5752 C 564.403 1.21596 -1.61928 0
M  V30 5753 C 564.731 1.91804 -0.322737 0
M  V30 5754 O 563.986 1.83065 0.691776 0
M  V30 5755 C 564.285 2.278 -2.75394 0
M  V30 5756 C 563.951 1.74797 -4.1564 0
M  V30 5757 C 562.613 1.60063 -4.53799 0
M  V30 5758 C 564.965 1.35548 -5.03266 0
M  V30 5759 C 562.293 1.04514 -5.77316 0
M  V30 5760 C 564.645 0.814381 -6.27336 0
M  V30 5761 C 563.309 0.653726 -6.64291 0
M  V30 5762 H 562.579 0.444951 -0.592536 0
M  V30 5763 H 565.226 0.510964 -1.84557 0
M  V30 5764 H 563.531 3.04233 -2.46879 0
M  V30 5765 H 565.228 2.85723 -2.81359 0
M  V30 5766 H 561.818 1.87234 -3.8554 0
M  V30 5767 H 566.002 1.45763 -4.74412 0
M  V30 5768 H 561.258 0.908186 -6.04617 0
M  V30 5769 H 565.432 0.501626 -6.94591 0
M  V30 5770 H 563.059 0.22114 -7.59878 0
M  V30 5771 N 564.634 1.40294 0.718013 0
M  V30 5772 C 565.582 1.40536 1.85344 0
M  V30 5773 C 566.576 0.286192 1.66965 0
M  V30 5774 O 567.782 0.457105 1.74099 0
M  V30 5775 H 564.157 0.439236 0.61039 0
M  V30 5776 H 566.128 2.36275 1.82255 0
M  V30 5777 C 564.877 1.28245 3.23185 0
M  V30 5778 H 564.2 2.1364 3.37932 0
M  V30 5779 H 565.64 1.32474 4.02774 0
M  V30 5780 C 564.099 -0.0075503 3.36899 0
M  V30 5781 O 564.629 -0.971391 3.89778 0
M  V30 5782 N 562.835 -0.0762479 2.905 0
M  V30 5783 H 562.382 0.708819 2.47656 0
M  V30 5784 H 562.34 -0.938846 3.00055 0
M  V30 5785 N 566.112 -0.949982 1.2575 0
M  V30 5786 C 567.06 -2.06869 1.06339 0
M  V30 5787 C 568.054 -1.69399 -0.00708901 0
M  V30 5788 O 569.26 -1.79383 0.148897 0
M  V30 5789 H 565.635 -0.677197 0.326969 0
M  V30 5790 H 567.606 -2.20396 2.01167 0
M  V30 5791 C 566.355 -3.40503 0.703769 0
M  V30 5792 H 565.678 -3.69807 1.51931 0
M  V30 5793 H 567.118 -4.19623 0.607677 0
M  V30 5794 C 565.577 -3.31685 -0.5905 0
M  V30 5795 O 566.107 -3.67085 -1.63131 0
M  V30 5796 N 564.313 -2.84797 -0.577859 0
M  V30 5797 H 563.86 -2.56186 0.26951 0
M  V30 5798 H 563.818 -2.79279 -1.44398 0
M  V30 5799 N 567.59 -1.07411 -1.15328 0
M  V30 5800 C 568.838 -0.796073 -1.85761 0
M  V30 5801 C 569.159 0.679864 -1.82764 0
M  V30 5802 O 568.429 1.49242 -1.269 0
M  V30 5803 H 567.009 -0.291495 -0.687779 0
M  V30 5804 H 569.671 -1.35799 -1.39802 0
M  V30 5805 H 568.767 -1.13114 -2.90881 0
M  V30 5806 N 569.068 1.32177 -0.85831 0
M  V30 5807 C 570.031 2.27086 -0.310588 0
M  V30 5808 C 571.031 1.51751 0.531806 0
M  V30 5809 O 572.221 1.70794 0.34279 0
M  V30 5810 C 569.353 3.36266 0.560179 0
M  V30 5811 H 570.546 2.77045 -1.1483 0
M  V30 5812 H 568.099 1.42911 -0.632942 0
M  V30 5813 H 568.834 2.9158 1.41956 0
M  V30 5814 H 568.619 3.92077 -0.0428473 0
M  V30 5815 H 570.109 4.06974 0.936056 0
M  V30 5816 N 570.547 0.616602 1.45037 0
M  V30 5817 C 571.494 -0.0969439 2.30596 0
M  V30 5818 C 572.464 -0.851151 1.42635 0
M  V30 5819 O 573.649 -0.835092 1.71554 0
M  V30 5820 C 570.789 -1.08234 3.27688 0
M  V30 5821 C 569.902 -0.328072 4.30752 0
M  V30 5822 C 569.037 -1.30399 5.14946 0
M  V30 5823 C 568.076 -0.538049 6.09731 0
M  V30 5824 N 567.213 -1.46371 6.86673 0
M  V30 5825 H 572.053 0.63864 2.91076 0
M  V30 5826 H 569.59 0.326733 1.43425 0
M  V30 5827 H 571.548 -1.66688 3.82454 0
M  V30 5828 H 570.178 -1.78523 2.68941 0
M  V30 5829 H 569.23 0.372136 3.78575 0
M  V30 5830 H 570.542 0.269142 4.98073 0
M  V30 5831 H 569.696 -1.96032 5.74157 0
M  V30 5832 H 568.435 -1.93514 4.47665 0
M  V30 5833 H 567.44 0.131852 5.49642 0
M  V30 5834 H 568.665 0.0881732 6.79043 0
M  V30 5835 H 566.611 -2.08233 6.22073 0
M  V30 5836 H 566.528 -0.920152 7.50379 0
M  V30 5837 H 567.796 -2.10932 7.50418 0
M  V30 5838 N 572.025 -1.5352 0.356285 0
M  V30 5839 C 573.271 -2.02104 -0.229271 0
M  V30 5840 C 573.626 -1.23923 -1.47176 0
M  V30 5841 O 572.919 -0.321957 -1.88876 0
M  V30 5842 C 573.113 -3.52607 -0.583369 0
M  V30 5843 C 572.942 -4.4536 0.623253 0
M  V30 5844 C 571.712 -4.92446 1.13248 0
M  V30 5845 C 573.91 -4.92375 1.48563 0
M  V30 5846 N 571.892 -5.69183 2.3001 0
M  V30 5847 C 573.263 -5.67362 2.50001 0
M  V30 5848 C 575.318 -4.74464 1.50959 0
M  V30 5849 C 574.021 -6.26341 3.5368 0
M  V30 5850 C 576.047 -5.34302 2.53526 0
M  V30 5851 C 575.409 -6.09166 3.53688 0
M  V30 5852 H 571.508 -0.780595 -0.0468602 0
M  V30 5853 H 574.092 -1.88204 0.49873 0
M  V30 5854 H 572.263 -3.66686 -1.28046 0
M  V30 5855 H 573.995 -3.87922 -1.15321 0
M  V30 5856 H 570.75 -4.6842 0.698562 0
M  V30 5857 H 571.174 -6.12216 2.88998 0
M  V30 5858 H 575.816 -4.16117 0.748785 0
M  V30 5859 H 573.534 -6.8379 4.30648 0
M  V30 5860 H 577.12 -5.22342 2.56223 0
M  V30 5861 H 576 -6.54644 4.31753 0
M  V30 5862 N 573.503 -0.0852151 -1.57369 0
M  V30 5863 C 574.728 0.592872 -1.98746 0
M  V30 5864 C 575.153 1.61538 -0.963689 0
M  V30 5865 O 574.511 1.81168 0.069071 0
M  V30 5866 C 574.559 1.22599 -3.39119 0
M  V30 5867 O 573.663 2.34185 -3.39457 0
M  V30 5868 H 573.004 0.151314 -0.646529 0
M  V30 5869 H 575.534 -0.163703 -2.03944 0
M  V30 5870 H 575.544 1.56965 -3.76598 0
M  V30 5871 H 574.219 0.476831 -4.13158 0
M  V30 5872 H 572.796 2.01512 -3.13763 0
M  V30 5873 N 574.981 1.5647 0.188427 0
M  V30 5874 C 576.206 1.85486 0.927891 0
M  V30 5875 C 576.631 0.669575 1.75779 0
M  V30 5876 O 575.989 -0.381573 1.77239 0
M  V30 5877 C 576.037 3.12784 1.7944 0
M  V30 5878 O 575.141 2.93805 2.894 0
M  V30 5879 H 574.482 0.610585 0.260925 0
M  V30 5880 H 577.012 2.037 0.191729 0
M  V30 5881 H 577.022 3.43749 2.19774 0
M  V30 5882 H 575.697 3.98671 1.18468 0
M  V30 5883 H 574.274 2.74153 2.52774 0
M  V30 5884 N 576.459 -0.456382 1.50847 0
M  V30 5885 C 577.705 -1.20618 1.63777 0
M  V30 5886 C 578.06 -1.8936 0.340677 0
M  V30 5887 O 577.353 -1.79786 -0.662378 0
M  V30 5888 C 577.547 -2.26336 2.76599 0
M  V30 5889 C 577.376 -1.67968 4.17153 0
M  V30 5890 C 576.146 -1.47293 4.83356 0
M  V30 5891 C 578.344 -1.16643 5.00898 0
M  V30 5892 N 576.326 -0.843222 6.08081 0
M  V30 5893 C 577.697 -0.660843 6.16468 0
M  V30 5894 C 579.752 -1.05637 4.86565 0
M  V30 5895 C 578.455 -0.0560365 7.19278 0
M  V30 5896 C 580.481 -0.465485 5.89565 0
M  V30 5897 C 579.843 0.0296516 7.04394 0
M  V30 5898 H 575.942 -0.429725 0.653345 0
M  V30 5899 H 578.526 -0.505784 1.88016 0
M  V30 5900 H 576.697 -2.93785 2.54056 0
M  V30 5901 H 578.429 -2.9334 2.78808 0
M  V30 5902 H 575.184 -1.72934 4.40898 0
M  V30 5903 H 575.608 -0.546357 6.74792 0
M  V30 5904 H 580.25 -1.42508 3.98059 0
M  V30 5905 H 577.968 0.324845 8.07447 0
M  V30 5906 H 581.554 -0.382493 5.80541 0
M  V30 5907 H 580.434 0.479705 7.82731 0
M  V30 5908 N 577.937 -1.40673 -0.710563 0
M  V30 5909 C 578.847 -1.43663 -1.85467 0
M  V30 5910 C 579.863 -0.328721 -1.70867 0
M  V30 5911 O 581.039 -0.574098 -1.93044 0
M  V30 5912 C 578.104 -1.30226 -3.21313 0
M  V30 5913 C 577.165 -2.51204 -3.48131 0
M  V30 5914 C 576.398 -2.38398 -4.77495 0
M  V30 5915 O 576.621 -1.40048 -5.5294 0
M  V30 5916 O 575.555 -3.2787 -5.04762 0
M  V30 5917 H 579.381 -2.40156 -1.859 0
M  V30 5918 H 576.966 -1.22049 -0.861652 0
M  V30 5919 H 578.848 -1.2496 -4.02446 0
M  V30 5920 H 577.523 -0.368419 -3.21597 0
M  V30 5921 H 576.43 -2.62048 -2.66987 0
M  V30 5922 H 577.763 -3.43366 -3.52648 0
M  V30 5923 N 579.415 0.9433 -1.26252 0
M  V30 5924 C 580.347 2.04542 -1.03417 0
M  V30 5925 C 581.36 1.62799 0.0046911 0
M  V30 5926 O 582.549 1.76944 -0.235146 0
M  V30 5927 C 579.649 3.34511 -0.543671 0
M  V30 5928 C 578.822 4.05033 -1.65128 0
M  V30 5929 C 577.881 5.13273 -1.1592 0
M  V30 5930 O 576.907 5.38095 -1.85586 0
M  V30 5931 N 578.109 5.805 -0.00649279 0
M  V30 5932 H 580.874 2.24699 -1.98319 0
M  V30 5933 H 578.435 1.11264 -1.1761 0
M  V30 5934 H 580.427 4.04212 -0.198703 0
M  V30 5935 H 578.997 3.11042 0.311711 0
M  V30 5936 H 578.217 3.29275 -2.16729 0
M  V30 5937 H 579.505 4.48903 -2.39508 0
M  V30 5938 H 578.903 5.62767 0.575347 0
M  V30 5939 H 577.46 6.51201 0.279416 0
M  V30 5940 N 580.893 1.08022 1.14757 0
M  V30 5941 C 582.123 0.827646 1.89298 0
M  V30 5942 C 582.531 -0.623506 1.78631 0
M  V30 5943 O 581.874 -1.43991 1.14071 0
M  V30 5944 C 581.936 1.16553 3.40082 0
M  V30 5945 C 581.6 2.61866 3.74533 0
M  V30 5946 C 582.597 3.60116 3.74984 0
M  V30 5947 C 580.282 2.97619 4.04633 0
M  V30 5948 C 582.276 4.92151 4.05051 0
M  V30 5949 C 579.963 4.2985 4.34364 0
M  V30 5950 C 580.961 5.26926 4.34555 0
M  V30 5951 O 580.649 6.5678 4.63568 0
M  V30 5952 H 580.381 0.298396 0.606577 0
M  V30 5953 H 582.935 1.44187 1.46285 0
M  V30 5954 H 581.165 0.494296 3.83528 0
M  V30 5955 H 582.854 0.894407 3.95923 0
M  V30 5956 H 583.62 3.33837 3.51821 0
M  V30 5957 H 579.499 2.22702 4.03639 0
M  V30 5958 H 583.043 5.67915 4.05115 0
M  V30 5959 H 578.94 4.55879 4.56995 0
M  V30 5960 H 579.708 6.62035 4.81303 0
M  V30 5961 N 582.371 -1.3172 0.865308 0
M  V30 5962 C 583.599 -2.01057 0.488251 0
M  V30 5963 C 584.014 -1.64979 -0.918 0
M  V30 5964 O 583.371 -0.876597 -1.60069 0
M  V30 5965 C 583.422 -3.55964 0.630224 0
M  V30 5966 O 583.143 -3.90749 1.98109 0
M  V30 5967 C 584.644 -4.42574 0.253567 0
M  V30 5968 H 581.864 -0.64332 0.190736 0
M  V30 5969 H 584.408 -1.68058 1.16519 0
M  V30 5970 H 582.563 -3.874 0.000895422 0
M  V30 5971 H 582.977 -4.85467 1.9855 0
M  V30 5972 H 584.451 -5.50521 0.403875 0
M  V30 5973 H 584.928 -4.31724 -0.806895 0
M  V30 5974 H 585.534 -4.16547 0.858404 0
M  V30 5975 N 583.85 -0.624285 -1.44708 0
M  V30 5976 C 585.266 -0.289322 -1.56956 0
M  V30 5977 C 585.466 1.20773 -1.61295 0
M  V30 5978 O 584.522 1.9915 -1.55227 0
M  V30 5979 C 585.835 -0.975215 -2.84447 0
M  V30 5980 C 587.383 -0.952709 -2.98148 0
M  V30 5981 C 587.858 -1.61893 -4.28433 0
M  V30 5982 N 589.349 -1.5852 -4.35231 0
M  V30 5983 C 590.084 -2.06969 -5.34744 0
M  V30 5984 N 589.58 -2.63579 -6.40701 0
M  V30 5985 N 591.373 -1.97638 -5.26209 0
M  V30 5986 H 583.524 -1.59612 -1.40135 0
M  V30 5987 H 585.787 -0.669592 -0.671081 0
M  V30 5988 H 585.493 -2.02999 -2.87201 0
M  V30 5989 H 585.367 -0.508749 -3.73753 0
M  V30 5990 H 587.754 0.093568 -2.94952 0
M  V30 5991 H 587.835 -1.4576 -2.10209 0
M  V30 5992 H 587.479 -2.66463 -4.32389 0
M  V30 5993 H 587.409 -1.08893 -5.15218 0
M  V30 5994 H 589.899 -1.17183 -3.59272 0
M  V30 5995 H 590.213 -2.98298 -7.12908 0
M  V30 5996 H 588.558 -2.67626 -6.41406 0
M  V30 5997 H 591.749 -1.5314 -4.42341 0
M  V30 5998 H 591.922 -2.35708 -6.03611 0
M  V30 5999 N 585.328 1.53329 -0.364422 0
M  V30 6000 C 586.556 2.05657 0.226424 0
M  V30 6001 C 586.971 1.23801 1.42544 0
M  V30 6002 O 586.328 0.27839 1.80364 0
M  V30 6003 C 586.379 3.56125 0.621056 0
M  V30 6004 O 586.1 4.34879 -0.530304 0
M  V30 6005 C 587.601 4.24706 1.27041 0
M  V30 6006 H 584.821 0.669806 0.0400056 0
M  V30 6007 H 587.365 1.97714 -0.522456 0
M  V30 6008 H 585.52 3.64223 1.31985 0
M  V30 6009 H 585.934 5.24073 -0.211546 0
M  V30 6010 H 587.408 5.3131 1.49711 0
M  V30 6011 H 587.885 3.78354 2.23036 0
M  V30 6012 H 588.491 4.20858 0.613079 0
M  V30 6013 N 586.806 0.0935595 1.57322 0
M  V30 6014 C 588.052 -0.571355 1.94585 0
M  V30 6015 C 588.385 -1.67929 0.975366 0
M  V30 6016 O 587.66 -1.94498 0.00816206 0
M  V30 6017 C 587.943 -1.12797 3.41978 0
M  V30 6018 C 587.796 -0.0251881 4.49793 0
M  V30 6019 C 589.115 -2.02682 3.90651 0
M  V30 6020 H 586.234 -0.206223 0.70756 0
M  V30 6021 H 588.876 0.163956 1.89291 0
M  V30 6022 H 587.026 -1.75461 3.4662 0
M  V30 6023 H 588.698 0.608979 4.57263 0
M  V30 6024 H 586.941 0.641399 4.29032 0
M  V30 6025 H 587.612 -0.455433 5.50118 0
M  V30 6026 H 590.088 -1.49925 3.88152 0
M  V30 6027 H 588.964 -2.38555 4.94351 0
M  V30 6028 H 589.225 -2.94362 3.29854 0
M  V30 6029 N 588.284 -1.56567 -0.180126 0
M  V30 6030 C 589.531 -1.81492 -0.898167 0
M  V30 6031 C 589.859 -0.669225 -1.82624 0
M  V30 6032 O 589.114 0.344096 -1.92651 0
M  V30 6033 C 589.413 -3.1252 -1.73395 0
M  V30 6034 C 589.079 -4.40658 -0.955567 0
M  V30 6035 C 587.741 -4.75465 -0.740707 0
M  V30 6036 C 590.093 -5.19593 -0.408948 0
M  V30 6037 C 587.421 -5.86691 0.0320128 0
M  V30 6038 C 589.773 -6.31627 0.350638 0
M  V30 6039 C 588.437 -6.65007 0.576378 0
M  V30 6040 H 587.707 -0.664125 -0.328662 0
M  V30 6041 H 590.354 -1.908 -0.163616 0
M  V30 6042 H 588.659 -2.98515 -2.53763 0
M  V30 6043 H 590.356 -3.29013 -2.29241 0
M  V30 6044 H 586.946 -4.13352 -1.13306 0
M  V30 6045 H 591.13 -4.93104 -0.562307 0
M  V30 6046 H 586.386 -6.11016 0.216735 0
M  V30 6047 H 590.56 -6.92001 0.781497 0
M  V30 6048 H 588.187 -7.51033 1.17703 0
M  V30 6049 N 589.762 0.448376 -1.51087 0
M  V30 6050 C 590.725 1.52588 -1.71025 0
M  V30 6051 C 591.725 1.49958 -0.580442 0
M  V30 6052 O 592.915 1.52176 -0.847833 0
M  V30 6053 C 590.047 2.92163 -1.75652 0
M  V30 6054 H 591.24 1.36218 -2.67179 0
M  V30 6055 H 588.793 0.676313 -1.4091 0
M  V30 6056 H 589.528 3.13951 -0.812724 0
M  V30 6057 H 589.313 2.95478 -2.57751 0
M  V30 6058 H 590.803 3.70349 -1.92953 0
M  V30 6059 N 591.24 1.41047 0.703093 0
M  V30 6060 C 592.188 1.42494 1.83843 0
M  V30 6061 C 593.182 0.303885 1.66652 0
M  V30 6062 O 594.388 0.475544 1.73605 0
M  V30 6063 H 590.763 0.445685 0.605697 0
M  V30 6064 H 592.734 2.38194 1.79739 0
M  V30 6065 C 591.483 1.31666 3.21807 0
M  V30 6066 H 590.806 2.17212 3.35647 0
M  V30 6067 H 592.246 1.36738 4.01346 0
M  V30 6068 C 590.705 0.0281828 3.36888 0
M  V30 6069 O 591.235 -0.929995 3.90786 0
M  V30 6070 N 589.441 -0.0454322 2.90564 0
M  V30 6071 H 588.988 0.735046 2.4689 0
M  V30 6072 H 588.946 -0.906968 3.01034 0
M  V30 6073 N 592.718 -0.936591 1.26751 0
M  V30 6074 C 593.648 -2.05315 1.11212 0
M  V30 6075 C 594.629 -1.70092 0.0160262 0
M  V30 6076 O 595.814 -1.93279 0.188894 0
M  V30 6077 C 592.944 -3.39123 0.749171 0
M  V30 6078 C 591.898 -3.88425 1.79751 0
M  V30 6079 C 591.224 -5.18936 1.28876 0
M  V30 6080 C 592.524 -4.12798 3.19992 0
M  V30 6081 H 594.218 -2.18573 2.04613 0
M  V30 6082 H 591.764 -1.05027 0.985159 0
M  V30 6083 H 593.717 -4.16704 0.627323 0
M  V30 6084 H 592.441 -3.25855 -0.220543 0
M  V30 6085 H 591.1 -3.13028 1.90811 0
M  V30 6086 H 590.748 -5.02051 0.308757 0
M  V30 6087 H 590.448 -5.52892 1.98958 0
M  V30 6088 H 591.972 -5.99096 1.17967 0
M  V30 6089 H 593.386 -4.80977 3.11983 0
M  V30 6090 H 591.783 -4.58044 3.87705 0
M  V30 6091 H 592.853 -3.18412 3.65707 0
M  V30 6092 N 594.196 -1.08629 -1.14182 0
M  V30 6093 C 595.106 -0.730126 -2.22949 0
M  V30 6094 C 596.122 0.26436 -1.7198 0
M  V30 6095 O 597.298 0.107742 -2.01112 0
M  V30 6096 C 594.363 -0.147227 -3.46387 0
M  V30 6097 C 593.424 -1.19662 -4.12286 0
M  V30 6098 C 592.657 -0.641437 -5.29831 0
M  V30 6099 O 592.88 0.538351 -5.67854 0
M  V30 6100 O 591.814 -1.39257 -5.85569 0
M  V30 6101 H 595.64 -1.63753 -2.55771 0
M  V30 6102 H 593.225 -0.860118 -1.22157 0
M  V30 6103 H 595.107 0.174923 -4.21037 0
M  V30 6104 H 593.782 0.733304 -3.15285 0
M  V30 6105 H 592.689 -1.57133 -3.395 0
M  V30 6106 H 594.022 -2.0495 -4.475 0
M  V30 6107 N 595.674 1.31259 -0.872281 0
M  V30 6108 C 596.624 2.26 -0.301295 0
M  V30 6109 C 597.608 1.50729 0.562991 0
M  V30 6110 O 598.8 1.72198 0.40949 0
M  V30 6111 C 595.929 3.39724 0.494227 0
M  V30 6112 C 595.015 4.22363 -0.383432 0
M  V30 6113 N 595.406 4.83724 -1.47799 0
M  V30 6114 C 593.704 4.45652 -0.176278 0
M  V30 6115 C 594.405 5.45523 -2.01939 0
M  V30 6116 N 593.381 5.27428 -1.31608 0
M  V30 6117 H 597.183 2.70981 -1.13782 0
M  V30 6118 H 594.697 1.45552 -0.720294 0
M  V30 6119 H 596.694 4.06626 0.919828 0
M  V30 6120 H 595.354 2.96286 1.32834 0
M  V30 6121 H 596.365 4.83313 -1.8609 0
M  V30 6122 H 593.042 4.12845 0.621698 0
M  V30 6123 H 594.432 6.04268 -2.93786 0
M  V30 6124 N 597.152 0.631951 1.44375 0
M  V30 6125 C 598.1 -0.0846693 2.32446 0
M  V30 6126 C 599.094 -0.834957 1.47393 0
M  V30 6127 O 600.3 -0.747764 1.63733 0
M  V30 6128 H 596.675 -0.0461508 0.750583 0
M  V30 6129 H 598.646 0.67619 2.90638 0
M  V30 6130 C 597.395 -1.05211 3.314 0
M  V30 6131 H 596.718 -0.484203 3.96857 0
M  V30 6132 H 598.158 -1.523 3.95703 0
M  V30 6133 C 596.617 -2.13776 2.60387 0
M  V30 6134 O 597.147 -3.21869 2.4034 0
M  V30 6135 N 595.353 -1.89733 2.20113 0
M  V30 6136 H 594.9 -1.01833 2.36618 0
M  V30 6137 H 594.858 -2.62572 1.72926 0
M  V30 6138 N 598.631 -1.53133 0.372548 0
M  V30 6139 C 599.878 -2.01356 -0.214959 0
M  V30 6140 C 600.206 -1.2596 -1.48204 0
M  V30 6141 O 599.461 -0.343511 -1.92662 0
M  V30 6142 C 599.76 -3.53206 -0.545938 0
M  V30 6143 C 599.426 -4.46511 0.627624 0
M  V30 6144 C 598.088 -4.71737 0.949615 0
M  V30 6145 C 600.44 -5.01666 1.41353 0
M  V30 6146 C 597.768 -5.4937 2.05936 0
M  V30 6147 C 600.12 -5.80511 2.51375 0
M  V30 6148 C 598.784 -6.04022 2.84101 0
M  V30 6149 H 598.054 -0.736813 -0.078659 0
M  V30 6150 H 600.701 -1.84682 0.506447 0
M  V30 6151 H 599.006 -3.67864 -1.34845 0
M  V30 6152 H 600.703 -3.87997 -1.01287 0
M  V30 6153 H 597.293 -4.27029 0.366635 0
M  V30 6154 H 601.477 -4.82117 1.17802 0
M  V30 6155 H 596.733 -5.65803 2.31682 0
M  V30 6156 H 600.907 -6.22255 3.12684 0
M  V30 6157 H 598.534 -6.63962 3.70214 0
M  V30 6158 N 600.109 -0.101901 -1.5727 0
M  V30 6159 C 601.072 0.840129 -2.13247 0
M  V30 6160 C 602.072 1.20625 -1.06331 0
M  V30 6161 O 603.262 1.13456 -1.32186 0
M  V30 6162 C 600.394 2.13372 -2.65867 0
M  V30 6163 H 601.587 0.353945 -2.97804 0
M  V30 6164 H 599.14 0.147167 -1.55606 0
M  V30 6165 H 599.875 2.66461 -1.84849 0
M  V30 6166 H 599.66 1.88085 -3.44044 0
M  V30 6167 H 601.15 2.80748 -3.09145 0
M  V30 6168 N 601.587 1.56661 0.17182 0
M  V30 6169 C 602.535 1.97289 1.23207 0
M  V30 6170 C 603.529 0.861566 1.45854 0
M  V30 6171 O 604.735 1.04668 1.4644 0
M  V30 6172 H 601.11 0.627681 0.41415 0
M  V30 6173 H 603.081 2.85662 0.862542 0
M  V30 6174 C 601.83 2.34849 2.564 0
M  V30 6175 H 601.153 3.19903 2.39797 0
M  V30 6176 H 602.593 2.67121 3.29276 0
M  V30 6177 C 601.052 1.19172 3.15119 0
M  V30 6178 O 601.582 0.479113 3.98833 0
M  V30 6179 N 599.788 0.962415 2.74201 0
M  V30 6180 H 599.335 1.54365 2.06226 0
M  V30 6181 H 599.293 0.190272 3.13824 0
M  V30 6182 N 603.065 -0.440357 1.51323 0
M  V30 6183 C 604.313 -1.18769 1.63518 0
M  V30 6184 C 604.634 -1.91793 0.352201 0
M  V30 6185 O 603.904 -1.85432 -0.631811 0
M  V30 6186 H 602.484 -0.441408 0.602634 0
M  V30 6187 H 605.146 -0.505162 1.8824 0
M  V30 6188 H 604.242 -1.91892 2.46138 0
M  V30 6189 N 604.543 -1.41418 -0.695603 0
M  V30 6190 C 605.789 -1.41983 -1.45645 0
M  V30 6191 C 606.144 -0.0282216 -1.92379 0
M  V30 6192 O 605.437 0.945916 -1.66622 0
M  V30 6193 C 605.631 -2.36112 -2.68302 0
M  V30 6194 C 605.46 -3.84288 -2.33566 0
M  V30 6195 C 604.23 -4.52971 -2.23932 0
M  V30 6196 C 606.428 -4.75264 -1.96543 0
M  V30 6197 N 604.41 -5.86276 -1.82081 0
M  V30 6198 C 605.781 -5.97517 -1.6545 0
M  V30 6199 C 607.836 -4.62911 -1.83352 0
M  V30 6200 C 606.539 -7.08793 -1.22492 0
M  V30 6201 C 608.565 -5.74149 -1.41799 0
M  V30 6202 C 607.927 -6.95501 -1.11617 0
M  V30 6203 H 604.026 -0.574771 -0.530247 0
M  V30 6204 H 606.61 -1.77289 -0.804788 0
M  V30 6205 H 604.781 -2.02902 -3.31188 0
M  V30 6206 H 606.513 -2.27397 -3.34773 0
M  V30 6207 H 603.268 -4.06909 -2.42327 0
M  V30 6208 H 603.692 -6.56926 -1.63638 0
M  V30 6209 H 608.334 -3.69588 -2.05341 0
M  V30 6210 H 606.052 -8.01982 -0.992482 0
M  V30 6211 H 609.638 -5.66595 -1.32143 0
M  V30 6212 H 608.518 -7.80114 -0.799493 0
M  V30 6213 N 606.021 0.929856 -1.27246 0
M  V30 6214 C 607.267 1.6798 -1.13625 0
M  V30 6215 C 607.6 1.91586 0.317589 0
M  V30 6216 O 606.875 1.50467 1.23247 0
M  V30 6217 C 607.158 3.04766 -1.91806 0
M  V30 6218 C 607.011 2.88415 -3.45162 0
M  V30 6219 C 608.33 4.05063 -1.72082 0
M  V30 6220 H 605.449 0.609632 -0.414147 0
M  V30 6221 H 608.091 1.0792 -1.56376 0
M  V30 6222 H 606.241 3.56034 -1.55474 0
M  V30 6223 H 607.913 2.44282 -3.91311 0
M  V30 6224 H 606.156 2.23802 -3.71611 0
M  V30 6225 H 606.827 3.85482 -3.95105 0
M  V30 6226 H 609.303 3.62798 -2.03757 0
M  V30 6227 H 608.179 4.98765 -2.29182 0
M  V30 6228 H 608.44 4.37021 -0.668206 0
M  V30 6229 N 607.499 1.09233 1.13605 0
M  V30 6230 C 608.747 0.825525 1.84471 0
M  V30 6231 C 609.068 -0.650702 1.83823 0
M  V30 6232 O 608.338 -1.47204 1.29259 0
M  V30 6233 H 606.918 0.3024 0.683054 0
M  V30 6234 H 609.58 1.38006 1.37624 0
M  V30 6235 H 608.676 1.17727 2.89045 0
M  V30 6236 N 608.977 -1.30795 0.87923 0
M  V30 6237 C 609.924 -2.28282 0.339968 0
M  V30 6238 C 610.894 -1.56134 -0.566685 0
M  V30 6239 O 612.079 -1.84231 -0.496338 0
M  V30 6240 C 609.219 -3.42225 -0.444501 0
M  V30 6241 C 608.332 -4.29204 0.490717 0
M  V30 6242 C 607.467 -5.30302 -0.308784 0
M  V30 6243 C 606.506 -6.08929 0.622272 0
M  V30 6244 N 605.643 -7.01957 -0.14155 0
M  V30 6245 H 610.483 -2.73794 1.17647 0
M  V30 6246 H 608.02 -1.34682 0.591527 0
M  V30 6247 H 609.978 -4.07038 -0.915186 0
M  V30 6248 H 608.608 -2.97799 -1.24562 0
M  V30 6249 H 607.66 -3.6475 1.07988 0
M  V30 6250 H 608.972 -4.84045 1.20425 0
M  V30 6251 H 608.126 -6.00835 -0.841575 0
M  V30 6252 H 606.865 -4.7614 -1.05556 0
M  V30 6253 H 605.87 -5.37278 1.16674 0
M  V30 6254 H 607.095 -6.65178 1.36804 0
M  V30 6255 H 605.041 -6.50192 -0.870966 0
M  V30 6256 H 604.958 -7.54261 0.51246 0
M  V30 6257 H 606.226 -7.76741 -0.655271 0
M  V30 6258 N 610.455 -0.639598 -1.44038 0
M  V30 6259 C 611.701 -0.147698 -2.02261 0
M  V30 6260 C 612.034 1.23031 -1.50256 0
M  V30 6261 O 611.309 1.81847 -0.690068 0
M  V30 6262 C 611.592 -0.14362 -3.59813 0
M  V30 6263 C 611.445 -1.55458 -4.22082 0
M  V30 6264 C 612.764 0.527317 -4.36929 0
M  V30 6265 H 609.883 -0.0551453 -0.734934 0
M  V30 6266 H 612.525 -0.817688 -1.71505 0
M  V30 6267 H 610.675 0.426898 -3.86147 0
M  V30 6268 H 612.347 -2.17464 -4.06826 0
M  V30 6269 H 610.59 -2.10594 -3.79253 0
M  V30 6270 H 611.261 -1.50369 -5.31124 0
M  V30 6271 H 613.737 0.0420504 -4.16079 0
M  V30 6272 H 612.613 0.499389 -5.46624 0
M  V30 6273 H 612.874 1.59914 -4.12165 0
M  V30 6274 N 611.933 1.52934 -0.380664 0
M  V30 6275 C 612.865 2.23822 0.493581 0
M  V30 6276 C 613.878 1.25761 1.03383 0
M  V30 6277 O 615.067 1.5189 0.937633 0
M  V30 6278 C 612.167 2.9342 1.69582 0
M  V30 6279 C 611.34 4.18115 1.28445 0
M  V30 6280 C 610.399 4.70788 2.35042 0
M  V30 6281 O 609.425 5.34093 1.96807 0
M  V30 6282 N 610.627 4.49899 3.66839 0
M  V30 6283 H 613.392 2.99484 -0.11371 0
M  V30 6284 H 610.953 1.60577 -0.206587 0
M  V30 6285 H 612.945 3.2556 2.40401 0
M  V30 6286 H 611.515 2.21119 2.20965 0
M  V30 6287 H 610.735 3.92109 0.405503 0
M  V30 6288 H 612.023 4.99152 0.986132 0
M  V30 6289 H 611.421 3.99349 4.0067 0
M  V30 6290 H 609.978 4.86551 4.33718 0
M  V30 6291 N 613.412 0.11024 1.57214 0
M  V30 6292 C 614.342 -0.840002 2.17867 0
M  V30 6293 C 615.323 -1.28352 1.11624 0
M  V30 6294 O 616.508 -1.3477 1.39824 0
M  V30 6295 C 613.638 -2.09349 2.77111 0
M  V30 6296 C 612.592 -1.78807 3.8886 0
M  V30 6297 C 611.918 -3.11112 4.34872 0
M  V30 6298 C 613.218 -1.0632 5.11364 0
M  V30 6299 H 614.912 -0.334608 2.97524 0
M  V30 6300 H 612.458 -0.159502 1.43114 0
M  V30 6301 H 614.411 -2.76275 3.18198 0
M  V30 6302 H 613.135 -2.62198 1.9473 0
M  V30 6303 H 611.794 -1.14273 3.48335 0
M  V30 6304 H 611.442 -3.61877 3.49362 0
M  V30 6305 H 611.142 -2.91453 5.10224 0
M  V30 6306 H 612.666 -3.79171 4.78604 0
M  V30 6307 H 614.08 -1.63383 5.49526 0
M  V30 6308 H 612.477 -0.967876 5.92243 0
M  V30 6309 H 613.547 -0.0484569 4.84876 0
M  V30 6310 N 614.89 -1.56749 -0.16351 0
M  V30 6311 C 616.167 -1.73321 -0.906599 0
M  V30 6312 C 616.547 -0.673779 -2.00059 0
M  V30 6313 O 615.895 0.310121 -2.26386 0
M  V30 6314 C 616.105 -3.168 -1.46419 0
M  V30 6315 C 617.453 -3.77993 -1.93407 0
M  V30 6316 O 618.477 -3.20127 -1.56196 0
M  V30 6317 O 617.336 -4.79615 -2.61976 0
M  V30 6318 H 614.43 -0.708073 -0.427272 0
M  V30 6319 H 616.976 -1.69029 -0.150727 0
M  V30 6320 H 615.748 -3.85396 -0.677189 0
M  V30 6321 H 615.371 -3.2545 -2.28403 0
M  V30 6322 N 616.368 0.432326 -1.51554 0
M  V30 6323 C 617.318 1.52366 -1.69614 0
M  V30 6324 C 618.302 1.51205 -0.550083 0
M  V30 6325 O 619.494 1.57573 -0.806206 0
M  V30 6326 C 616.623 2.90513 -1.82913 0
M  V30 6327 C 615.709 2.9641 -3.03318 0
M  V30 6328 N 616.1 2.72043 -4.26411 0
M  V30 6329 C 614.398 3.27572 -3.02675 0
M  V30 6330 C 615.099 2.83912 -5.07709 0
M  V30 6331 N 614.075 3.15798 -4.42462 0
M  V30 6332 H 617.877 1.32285 -2.62446 0
M  V30 6333 H 615.391 0.639708 -1.4927 0
M  V30 6334 H 617.388 3.69032 -1.93962 0
M  V30 6335 H 616.048 3.1161 -0.912655 0
M  V30 6336 H 617.059 2.46876 -4.55272 0
M  V30 6337 H 613.736 3.54411 -2.20678 0
M  V30 6338 H 615.126 2.68984 -6.15709 0
M  V30 6339 N 617.846 1.41785 0.688094 0
M  V30 6340 C 618.793 1.44221 1.80191 0
M  V30 6341 C 619.763 0.295688 1.63447 0
M  V30 6342 O 620.948 0.49783 1.84191 0
M  V30 6343 C 618.088 1.33743 3.1813 0
M  V30 6344 C 617.201 2.58325 3.46254 0
M  V30 6345 C 616.336 2.40086 4.73848 0
M  V30 6346 C 615.375 3.60107 4.94964 0
M  V30 6347 N 614.512 3.40892 6.13789 0
M  V30 6348 H 619.352 2.39411 1.77444 0
M  V30 6349 H 616.889 1.18876 0.866423 0
M  V30 6350 H 618.847 1.25669 3.97823 0
M  V30 6351 H 617.477 0.42157 3.20035 0
M  V30 6352 H 616.529 2.7682 2.60912 0
M  V30 6353 H 617.841 3.4758 3.57756 0
M  V30 6354 H 616.995 2.29522 5.61609 0
M  V30 6355 H 615.734 1.483 4.64606 0
M  V30 6356 H 614.739 3.71118 4.05649 0
M  V30 6357 H 615.964 4.52857 5.06061 0
M  V30 6358 H 613.91 2.51812 6.05745 0
M  V30 6359 H 613.827 4.23727 6.26092 0
M  V30 6360 H 615.095 3.34114 7.04264 0
M  V30 6361 N 619.324 -0.923095 1.27737 0
M  V30 6362 C 620.573 -1.66581 1.13727 0
M  V30 6363 C 620.886 -1.9304 -0.315433 0
M  V30 6364 O 622.092 -2.65309 -0.57651 0
M  V30 6365 C 620.548 -3.00047 1.98745 0
M  V30 6366 C 620.156 -2.8127 3.48699 0
M  V30 6367 C 621.9 -3.77887 1.93395 0
M  V30 6368 C 619.807 -4.1032 4.25901 0
M  V30 6369 H 618.737 -0.624834 0.422017 0
M  V30 6370 H 621.388 -1.02514 1.52194 0
M  V30 6371 H 619.77 -3.65197 1.53125 0
M  V30 6372 H 620.944 -2.24859 4.02213 0
M  V30 6373 H 619.259 -2.16854 3.55476 0
M  V30 6374 H 621.856 -4.73526 2.48348 0
M  V30 6375 H 622.199 -4.06264 0.908605 0
M  V30 6376 H 622.732 -3.19541 2.36935 0
M  V30 6377 H 619.471 -3.8712 5.28978 0
M  V30 6378 H 618.991 -4.66377 3.77163 0
M  V30 6379 H 620.67 -4.78648 4.35321 0
M  V30 6380 N 620.802 -1.09834 -1.13024 0
M  V30 6381 C 621.75 -0.736283 -2.20639 0
M  V30 6382 C 622.744 0.264725 -1.67319 0
M  V30 6383 O 623.95 0.125745 -1.7956 0
M  V30 6384 H 620.325 -0.220136 -0.719058 0
M  V30 6385 H 622.296 -1.65295 -2.48436 0
M  V30 6386 C 621.045 -0.177544 -3.47246 0
M  V30 6387 H 620.368 -0.939009 -3.88616 0
M  V30 6388 H 621.808 0.0378007 -4.23983 0
M  V30 6389 C 620.267 1.08824 -3.1884 0
M  V30 6390 O 620.797 2.1708 -3.37993 0
M  V30 6391 N 619.003 1.00442 -2.7269 0
M  V30 6392 H 618.55 0.123383 -2.57304 0
M  V30 6393 H 618.508 1.85206 -2.5406 0
M  V30 6394 N 622.28 1.30327 -0.886154 0
M  V30 6395 C 623.528 1.9571 -0.504195 0
M  V30 6396 C 623.849 1.70294 0.950003 0
M  V30 6397 O 623.119 1.02718 1.66811 0
M  V30 6398 H 621.699 0.72412 -0.183465 0
M  V30 6399 H 624.361 1.58835 -1.12949 0
M  V30 6400 H 623.457 3.04704 -0.675431 0
M  V30 6401 N 623.758 0.647228 1.43697 0
M  V30 6402 C 624.988 0.16551 2.05936 0
M  V30 6403 C 625.396 -1.17164 1.48557 0
M  V30 6404 O 624.739 -1.73307 0.60914 0
M  V30 6405 C 624.801 -0.00648082 3.59499 0
M  V30 6406 C 624.465 1.25503 4.39429 0
M  V30 6407 C 625.462 2.18241 4.71876 0
M  V30 6408 C 623.147 1.49494 4.79538 0
M  V30 6409 C 625.141 3.33268 5.43333 0
M  V30 6410 C 622.828 2.64815 5.50742 0
M  V30 6411 C 623.826 3.56528 5.82561 0
M  V30 6412 O 623.514 4.69836 6.52311 0
M  V30 6413 H 623.246 0.0844124 0.670709 0
M  V30 6414 H 625.8 0.88638 1.8529 0
M  V30 6415 H 624.03 -0.782661 3.78697 0
M  V30 6416 H 625.719 -0.444794 4.03456 0
M  V30 6417 H 626.485 2.00946 4.41413 0
M  V30 6418 H 622.364 0.789912 4.54182 0
M  V30 6419 H 625.908 4.04874 5.68087 0
M  V30 6420 H 621.805 2.82047 5.8062 0
M  V30 6421 H 622.573 4.69024 6.70789 0
M  V30 6422 N 625.236 -1.5273 0.388769 0
M  V30 6423 C 626.186 -2.23238 -0.463567 0
M  V30 6424 C 627.17 -1.23606 -1.03007 0
M  V30 6425 O 628.362 -1.48945 -0.956261 0
M  V30 6426 C 625.491 -3.04228 -1.5906 0
M  V30 6427 C 624.577 -4.11255 -1.03587 0
M  V30 6428 N 624.968 -5.0538 -0.206038 0
M  V30 6429 C 623.266 -4.26376 -1.30841 0
M  V30 6430 C 623.967 -5.81613 0.100359 0
M  V30 6431 N 622.943 -5.41264 -0.503447 0
M  V30 6432 H 626.745 -2.93367 0.176978 0
M  V30 6433 H 624.259 -1.61188 0.198046 0
M  V30 6434 H 626.256 -3.53277 -2.21362 0
M  V30 6435 H 624.916 -2.35634 -2.23398 0
M  V30 6436 H 625.927 -5.17663 0.156659 0
M  V30 6437 H 622.604 -3.69011 -1.95287 0
M  V30 6438 H 623.994 -6.67442 0.772676 0
M  V30 6439 N 626.714 -0.118576 -1.57153 0
M  V30 6440 C 627.677 0.817464 -2.14127 0
M  V30 6441 C 628.677 1.1949 -1.07604 0
M  V30 6442 O 629.867 1.12048 -1.33382 0
M  V30 6443 C 626.999 2.10541 -2.68115 0
M  V30 6444 H 628.192 0.322339 -2.98163 0
M  V30 6445 H 625.745 0.130655 -1.55753 0
M  V30 6446 H 626.48 2.64485 -1.87665 0
M  V30 6447 H 626.265 1.84425 -3.4602 0
M  V30 6448 H 627.755 2.77453 -3.12105 0
M  V30 6449 N 628.193 1.56834 0.155195 0
M  V30 6450 C 629.604 1.72421 0.716082 0
M  V30 6451 C 629.955 0.731685 1.82046 0
M  V30 6452 O 629.08 -0.103481 2.16152 0
M  V30 6453 C 629.675 3.12629 1.30571 0
M  V30 6454 C 628.234 3.29846 1.81325 0
M  V30 6455 C 627.381 2.68359 0.698494 0
M  V30 6456 H 630.332 1.58544 -0.0703861 0
M  V30 6457 H 630.353 3.12174 2.1755 0
M  V30 6458 H 629.865 3.84844 0.501701 0
M  V30 6459 H 627.966 2.62614 2.64319 0
M  V30 6460 H 628.079 4.37727 1.9476 0
M  V30 6461 H 626.443 2.28604 1.12305 0
M  V30 6462 H 627.226 3.43171 -0.0939366 0
M  V30 6463 N 629.671 -0.424282 1.51781 0
M  V30 6464 C 630.601 -1.52305 1.7699 0
M  V30 6465 C 631.582 -1.5839 0.620209 0
M  V30 6466 O 632.767 -1.73908 0.864268 0
M  V30 6467 C 629.897 -2.90271 1.90683 0
M  V30 6468 C 628.851 -2.99043 3.06198 0
M  V30 6469 C 628.177 -4.39116 3.05092 0
M  V30 6470 C 629.477 -2.7192 4.45934 0
M  V30 6471 H 631.171 -1.31461 2.68995 0
M  V30 6472 H 628.717 -0.630985 1.29439 0
M  V30 6473 H 630.67 -3.6711 2.06901 0
M  V30 6474 H 629.394 -3.12376 0.953365 0
M  V30 6475 H 628.053 -2.24646 2.89706 0
M  V30 6476 H 627.701 -4.58207 2.07498 0
M  V30 6477 H 627.401 -4.45912 3.82669 0
M  V30 6478 H 628.925 -5.17911 3.2342 0
M  V30 6479 H 630.339 -3.38487 4.62709 0
M  V30 6480 H 628.736 -2.90111 5.25315 0
M  V30 6481 H 629.806 -1.67445 4.55072 0
M  V30 6482 N 631.149 -1.42148 -0.680565 0
M  V30 6483 C 632.397 -1.42029 -1.43779 0
M  V30 6484 C 632.718 -0.0356347 -1.94967 0
M  V30 6485 O 631.988 0.924936 -1.7269 0
M  V30 6486 H 630.568 -0.522835 -0.533529 0
M  V30 6487 H 633.23 -1.7752 -0.804538 0
M  V30 6488 H 632.326 -2.11658 -2.29363 0
M  V30 6489 N 632.627 0.916307 -1.28225 0
M  V30 6490 C 633.59 1.99996 -1.11957 0
M  V30 6491 C 634.59 1.60688 -0.0600152 0
M  V30 6492 O 635.78 1.71499 -0.30558 0
M  V30 6493 C 632.912 3.33458 -0.708411 0
M  V30 6494 H 634.105 2.15858 -2.08196 0
M  V30 6495 H 631.658 1.09863 -1.11175 0
M  V30 6496 H 632.393 3.23297 0.254859 0
M  V30 6497 H 632.178 3.63349 -1.47377 0
M  V30 6498 H 633.668 4.13014 -0.617164 0
M  V30 6499 N 634.105 1.10431 1.1244 0
M  V30 6500 C 635.354 0.841539 1.83306 0
M  V30 6501 C 635.667 -0.634961 1.85007 0
M  V30 6502 O 636.873 -1.01363 2.51869 0
M  V30 6503 C 635.329 1.45565 3.29149 0
M  V30 6504 C 634.937 2.96544 3.35806 0
M  V30 6505 C 636.681 1.27227 4.04986 0
M  V30 6506 C 634.588 3.5099 4.75983 0
M  V30 6507 H 633.518 0.311156 0.686803 0
M  V30 6508 H 636.169 1.32829 1.26604 0
M  V30 6509 H 634.551 0.896574 3.85717 0
M  V30 6510 H 635.725 3.58766 2.89177 0
M  V30 6511 H 634.04 3.14036 2.73442 0
M  V30 6512 H 636.637 1.65348 5.08492 0
M  V30 6513 H 636.98 0.213834 4.1575 0
M  V30 6514 H 637.513 1.79941 3.54776 0
M  V30 6515 H 634.252 4.56499 4.70413 0
M  V30 6516 H 633.772 2.93535 5.23065 0
M  V30 6517 H 635.451 3.48808 5.44924 0
M  V30 6518 N 635.583 -1.29855 0.893053 0
M  V30 6519 C 636.516 -2.26079 0.3104 0
M  V30 6520 C 637.494 -1.52145 -0.573644 0
M  V30 6521 O 638.678 -1.8113 -0.521937 0
M  V30 6522 C 635.805 -3.34069 -0.558179 0
M  V30 6523 C 634.851 -4.25721 0.257638 0
M  V30 6524 S 635.684 -5.09409 1.65114 0
M  V30 6525 C 636.84 -6.20903 0.789307 0
M  V30 6526 H 637.073 -2.75151 1.12602 0
M  V30 6527 H 634.606 -1.37975 0.692978 0
M  V30 6528 H 636.564 -3.9675 -1.05355 0
M  V30 6529 H 635.225 -2.83705 -1.34797 0
M  V30 6530 H 634.418 -5.02366 -0.405562 0
M  V30 6531 H 634.02 -3.67656 0.685917 0
M  V30 6532 H 636.312 -6.77499 0.00978451 0
M  V30 6533 H 637.255 -6.91426 1.52762 0
M  V30 6534 H 637.663 -5.63435 0.346634 0
M  V30 6535 N 637.061 -0.65484 -1.43351 0
M  V30 6536 C 638.309 -0.168559 -2.01396 0
M  V30 6537 C 638.63 1.22235 -1.51933 0
M  V30 6538 O 637.9 1.81685 -0.732627 0
M  V30 6539 H 636.48 -0.0593244 -0.744641 0
M  V30 6540 H 639.142 -0.846871 -1.75539 0
M  V30 6541 H 638.238 -0.154428 -3.11718 0
M  V30 6542 N 638.539 1.52521 -0.396863 0
M  V30 6543 C 639.816 1.94112 0.240842 0
M  V30 6544 C 640.196 1.33288 1.637 0
M  V30 6545 O 639.544 0.503901 2.22875 0
M  V30 6546 C 639.754 3.48033 0.259567 0
M  V30 6547 C 641.102 4.21822 0.484866 0
M  V30 6548 O 642.126 3.54579 0.339453 0
M  V30 6549 O 640.985 5.41042 0.770412 0
M  V30 6550 H 638.079 0.812973 0.151671 0
M  V30 6551 H 640.625 1.63572 -0.451918 0
M  V30 6552 H 639.397 3.84655 -0.718078 0
M  V30 6553 H 639.02 3.84899 0.996937 0
M  V30 6554 N 640.017 0.126909 1.57088 0
M  V30 6555 C 641.263 -0.523662 1.96543 0
M  V30 6556 C 641.618 -1.63783 1.0096 0
M  V30 6557 O 640.911 -1.91556 0.0410175 0
M  V30 6558 C 641.105 -1.095 3.40212 0
M  V30 6559 C 640.934 -0.037715 4.49684 0
M  V30 6560 C 639.704 0.396823 5.03739 0
M  V30 6561 C 641.902 0.746245 5.08857 0
M  V30 6562 N 639.884 1.43905 5.96795 0
M  V30 6563 C 641.255 1.63947 5.97931 0
M  V30 6564 C 643.31 0.796259 4.91492 0
M  V30 6565 C 642.013 2.57837 6.715 0
M  V30 6566 C 644.039 1.7229 5.65747 0
M  V30 6567 C 643.401 2.60369 6.54513 0
M  V30 6568 H 639.5 -0.161016 0.765244 0
M  V30 6569 H 642.084 0.21686 1.93489 0
M  V30 6570 H 640.255 -1.80521 3.43899 0
M  V30 6571 H 641.987 -1.71054 3.66773 0
M  V30 6572 H 638.742 0.00290406 4.736 0
M  V30 6573 H 639.166 1.95932 6.48027 0
M  V30 6574 H 643.808 0.129412 4.22602 0
M  V30 6575 H 641.526 3.25532 7.39631 0
M  V30 6576 H 645.112 1.76715 5.54313 0
M  V30 6577 H 643.992 3.30906 7.10965 0
M  V30 6578 N 641.495 -1.56914 -0.146875 0
M  V30 6579 C 642.906 -1.72799 -0.706928 0
M  V30 6580 C 643.257 -0.741329 -1.81656 0
M  V30 6581 O 642.382 0.0920162 -2.16204 0
M  V30 6582 C 642.977 -3.13317 -1.28911 0
M  V30 6583 C 641.536 -3.30803 -1.79573 0
M  V30 6584 C 640.683 -2.68725 -0.684252 0
M  V30 6585 H 643.634 -1.58504 0.0787931 0
M  V30 6586 H 643.655 -3.13323 -2.15891 0
M  V30 6587 H 643.167 -3.85104 -0.481284 0
M  V30 6588 H 641.268 -2.64012 -2.62923 0
M  V30 6589 H 641.381 -4.38754 -1.92436 0
M  V30 6590 H 639.745 -2.29196 -1.11091 0
M  V30 6591 H 640.528 -3.43117 0.112134 0
M  V30 6592 N 642.974 0.416227 -1.52004 0
M  V30 6593 C 643.937 1.48926 -1.74223 0
M  V30 6594 C 644.937 1.48693 -0.612119 0
M  V30 6595 O 646.127 1.50343 -0.879921 0
M  V30 6596 C 643.259 2.88372 -1.81809 0
M  V30 6597 H 644.452 1.3052 -2.70008 0
M  V30 6598 H 642.005 0.646271 -1.42313 0
M  V30 6599 H 642.74 3.12157 -0.879135 0
M  V30 6600 H 642.525 2.89944 -2.6396 0
M  V30 6601 H 644.015 3.66173 -2.00766 0
M  V30 6602 N 644.452 1.42507 0.673017 0
M  V30 6603 C 645.863 1.38347 1.25367 0
M  V30 6604 C 646.214 0.0776327 1.96046 0
M  V30 6605 O 645.339 -0.823571 2.00116 0
M  V30 6606 C 645.934 2.506 2.28002 0
M  V30 6607 C 644.493 2.49767 2.81591 0
M  V30 6608 C 643.64 2.293 1.55938 0
M  V30 6609 H 646.591 1.51695 0.466288 0
M  V30 6610 H 646.612 2.20953 3.09774 0
M  V30 6611 H 646.124 3.45627 1.76532 0
M  V30 6612 H 644.225 1.58563 3.37177 0
M  V30 6613 H 644.338 3.46867 3.30485 0
M  V30 6614 H 642.702 1.77594 1.82572 0
M  V30 6615 H 643.485 3.26385 1.06431 0
M  V30 6616 N 645.93 -0.909495 1.28709 0
M  V30 6617 C 647.207 -1.63865 1.06806 0
M  V30 6618 C 647.587 -2.07445 -0.391143 0
M  V30 6619 O 646.935 -1.82269 -1.37805 0
M  V30 6620 C 647.145 -2.82692 2.04661 0
M  V30 6621 C 648.493 -3.5361 2.35042 0
M  V30 6622 O 649.517 -2.92847 2.02779 0
M  V30 6623 O 648.376 -4.63131 2.90124 0
M  V30 6624 H 645.47 -0.719065 0.408502 0
M  V30 6625 H 648.016 -0.958424 1.40044 0
M  V30 6626 H 646.788 -2.47614 3.0299 0
M  V30 6627 H 646.411 -3.58426 1.72095 0
M  V30 6628 N 647.408 -1.11026 -1.11852 0
M  V30 6629 C 648.356 -0.759643 -2.19846 0
M  V30 6630 C 649.35 0.246964 -1.6759 0
M  V30 6631 O 650.556 0.106693 -1.79684 0
M  V30 6632 H 646.931 -0.22775 -0.716683 0
M  V30 6633 H 648.902 -1.6792 -2.46669 0
M  V30 6634 C 647.651 -0.214364 -3.47039 0
M  V30 6635 H 646.974 -0.980175 -3.87599 0
M  V30 6636 H 648.414 -0.00717047 -4.23999 0
M  V30 6637 C 646.873 1.05436 -3.19976 0
M  V30 6638 O 647.403 2.13483 -3.40276 0
M  V30 6639 N 645.609 0.975436 -2.7374 0
M  V30 6640 H 645.156 0.0960853 -2.57421 0
M  V30 6641 H 645.114 1.82501 -2.5601 0
M  V30 6642 N 648.886 1.2938 -0.899927 0
M  V30 6643 C 650.111 2.00228 -0.540692 0
M  V30 6644 C 650.536 1.66909 0.867359 0
M  V30 6645 O 649.894 0.893824 1.57735 0
M  V30 6646 C 649.942 3.52921 -0.740232 0
M  V30 6647 O 649.046 4.11879 0.207154 0
M  V30 6648 H 648.387 0.629505 -0.211233 0
M  V30 6649 H 650.917 1.6487 -1.21158 0
M  V30 6650 H 650.927 4.0287 -0.644973 0
M  V30 6651 H 649.602 3.76508 -1.76677 0
M  V30 6652 H 648.179 3.72845 0.0643315 0
M  V30 6653 N 650.364 0.662433 1.43002 0
M  V30 6654 C 651.327 -0.0142016 2.29196 0
M  V30 6655 C 652.327 -0.741394 1.42688 0
M  V30 6656 O 653.517 -0.581257 1.64216 0
M  V30 6657 C 650.649 -1.03084 3.24941 0
M  V30 6658 H 651.842 0.7443 2.90517 0
M  V30 6659 H 649.395 0.424133 1.50435 0
M  V30 6660 H 650.13 -1.81826 2.68533 0
M  V30 6661 H 649.915 -0.512946 3.8873 0
M  V30 6662 H 651.405 -1.50308 3.89612 0
M  V30 6663 N 651.842 -1.52309 0.404946 0
M  V30 6664 C 652.789 -2.26898 -0.422597 0
M  V30 6665 C 653.759 -1.2914 -1.04461 0
M  V30 6666 O 654.944 -1.57996 -1.06967 0
M  V30 6667 C 652.084 -3.09053 -1.53559 0
M  V30 6668 C 651.197 -4.21762 -0.934908 0
M  V30 6669 C 650.332 -4.91283 -2.02025 0
M  V30 6670 C 649.371 -5.95962 -1.39628 0
M  V30 6671 N 648.508 -6.59017 -2.42159 0
M  V30 6672 H 653.348 -2.97188 0.219903 0
M  V30 6673 H 650.885 -1.46607 0.120282 0
M  V30 6674 H 652.843 -3.54987 -2.19181 0
M  V30 6675 H 651.473 -2.40942 -2.14818 0
M  V30 6676 H 650.525 -3.80029 -0.167854 0
M  V30 6677 H 651.837 -4.96864 -0.439073 0
M  V30 6678 H 650.991 -5.40601 -2.75383 0
M  V30 6679 H 649.73 -4.15741 -2.54973 0
M  V30 6680 H 648.735 -5.45968 -0.648023 0
M  V30 6681 H 649.96 -6.73445 -0.874553 0
M  V30 6682 H 647.906 -5.86306 -2.94247 0
M  V30 6683 H 647.823 -7.2978 -1.97376 0
M  V30 6684 H 649.091 -7.12974 -3.15099 0
M  V30 6685 N 653.32 -0.135238 -1.57019 0
M  V30 6686 C 654.569 0.518694 -1.94917 0
M  V30 6687 C 654.882 1.66783 -1.0219 0
M  V30 6688 O 656.088 2.38561 -1.29619 0
M  V30 6689 C 654.544 0.974123 -3.46466 0
M  V30 6690 C 654.152 -0.147439 -4.47757 0
M  V30 6691 C 655.896 1.59851 -3.93253 0
M  V30 6692 C 653.803 0.325599 -5.90503 0
M  V30 6693 H 652.733 0.19754 -0.727663 0
M  V30 6694 H 655.384 -0.217698 -1.82204 0
M  V30 6695 H 653.766 1.76542 -3.5447 0
M  V30 6696 H 654.94 -0.924122 -4.51438 0
M  V30 6697 H 653.255 -0.679496 -4.10818 0
M  V30 6698 H 655.852 1.96385 -4.9733 0
M  V30 6699 H 656.195 2.48306 -3.3414 0
M  V30 6700 H 656.728 0.872323 -3.88118 0
M  V30 6701 H 653.467 -0.523295 -6.53408 0
M  V30 6702 H 652.987 1.06841 -5.90208 0
M  V30 6703 H 654.666 0.781498 -6.42263 0
M  V30 6704 N 654.798 1.5699 0.138552 0
M  V30 6705 C 656.044 1.84081 0.85099 0
M  V30 6706 C 656.377 0.718107 1.80435 0
M  V30 6707 O 655.652 -0.277633 1.92508 0
M  V30 6708 C 655.935 3.21699 1.61808 0
M  V30 6709 C 655.788 4.44544 0.685633 0
M  V30 6710 C 657.107 3.5664 2.57868 0
M  V30 6711 H 654.226 0.669592 0.307922 0
M  V30 6712 H 656.868 1.89646 0.11588 0
M  V30 6713 H 655.018 3.17086 2.24474 0
M  V30 6714 H 656.69 4.61248 0.0693179 0
M  V30 6715 H 654.933 4.338 -0.00421993 0
M  V30 6716 H 655.604 5.3746 1.25858 0
M  V30 6717 H 658.08 3.61918 2.05316 0
M  V30 6718 H 656.956 4.53946 3.08584 0
M  V30 6719 H 657.217 2.83036 3.39622 0
M  V30 6720 N 656.276 -0.40816 1.52223 0
M  V30 6721 C 657.239 -1.48 1.7501 0
M  V30 6722 C 658.239 -1.48367 0.619996 0
M  V30 6723 O 659.429 -1.49874 0.887881 0
M  V30 6724 C 656.561 -2.87403 1.83336 0
M  V30 6725 H 657.754 -1.29086 2.70697 0
M  V30 6726 H 655.307 -0.638715 1.42654 0
M  V30 6727 H 656.042 -3.11686 0.895677 0
M  V30 6728 H 655.827 -2.8854 2.65494 0
M  V30 6729 H 657.317 -3.65103 2.02705 0
M  V30 6730 N 657.755 -1.42862 -0.66545 0
M  V30 6731 C 658.687 -1.43026 -1.79098 0
M  V30 6732 C 659.7 -0.32803 -1.59461 0
M  V30 6733 O 660.889 -0.591709 -1.68407 0
M  V30 6734 C 657.989 -1.21566 -3.16346 0
M  V30 6735 C 657.162 -2.44399 -3.62751 0
M  V30 6736 C 656.221 -2.18344 -4.78761 0
M  V30 6737 O 655.247 -2.91611 -4.88827 0
M  V30 6738 N 656.449 -1.1924 -5.68122 0
M  V30 6739 H 659.214 -2.40045 -1.79439 0
M  V30 6740 H 656.775 -1.37861 -0.848872 0
M  V30 6741 H 658.767 -1.02037 -3.91625 0
M  V30 6742 H 657.337 -0.330368 -3.10849 0
M  V30 6743 H 656.557 -2.79433 -2.78048 0
M  V30 6744 H 657.845 -3.26173 -3.90498 0
M  V30 6745 H 657.243 -0.586603 -5.6265 0
M  V30 6746 H 655.8 -1.05698 -6.43173 0
M  V30 6747 N 659.233 0.902656 -1.29189 0
M  V30 6748 C 660.18 2.00643 -1.14066 0
M  V30 6749 C 661.15 1.66064 -0.0347756 0
M  V30 6750 O 662.335 1.8973 -0.201752 0
M  V30 6751 C 659.475 3.35214 -0.820104 0
M  V30 6752 C 658.588 3.82594 -2.00614 0
M  V30 6753 C 657.723 5.05727 -1.62522 0
M  V30 6754 C 656.762 5.45469 -2.77724 0
M  V30 6755 N 655.899 6.59789 -2.40048 0
M  V30 6756 H 660.739 2.1291 -2.08502 0
M  V30 6757 H 658.276 1.04271 -1.03759 0
M  V30 6758 H 660.234 4.12643 -0.614949 0
M  V30 6759 H 658.864 3.22682 0.0873452 0
M  V30 6760 H 657.916 3.01226 -2.32308 0
M  V30 6761 H 659.228 4.07999 -2.86946 0
M  V30 6762 H 658.382 5.90732 -1.38277 0
M  V30 6763 H 657.121 4.82155 -0.733333 0
M  V30 6764 H 656.126 4.59 -3.02653 0
M  V30 6765 H 657.351 5.71024 -3.67572 0
M  V30 6766 H 655.297 6.37826 -1.53343 0
M  V30 6767 H 655.214 6.84975 -3.19914 0
M  V30 6768 H 656.482 7.4807 -2.19116 0
M  V30 6769 N 660.711 1.11618 1.11262 0
M  V30 6770 C 661.941 0.88745 1.86569 0
M  V30 6771 C 662.349 -0.56636 1.80524 0
M  V30 6772 O 661.692 -1.40289 1.18594 0
M  V30 6773 C 661.754 1.27313 3.36202 0
M  V30 6774 C 661.418 2.73649 3.66013 0
M  V30 6775 C 662.415 3.71863 3.63337 0
M  V30 6776 C 660.1 3.10342 3.9496 0
M  V30 6777 C 662.094 5.04788 3.89188 0
M  V30 6778 C 659.781 4.43451 4.20469 0
M  V30 6779 C 660.779 5.40484 4.17572 0
M  V30 6780 O 660.467 6.71195 4.42439 0
M  V30 6781 H 660.199 0.317543 0.596777 0
M  V30 6782 H 662.753 1.48768 1.41624 0
M  V30 6783 H 660.983 0.616062 3.81761 0
M  V30 6784 H 662.672 1.01991 3.92877 0
M  V30 6785 H 663.438 3.44861 3.41022 0
M  V30 6786 H 659.317 2.35431 3.9635 0
M  V30 6787 H 662.861 5.80516 3.86842 0
M  V30 6788 H 658.758 4.70187 4.42261 0
M  V30 6789 H 659.526 6.77012 4.59997 0
M  V30 6790 N 662.189 -1.289 0.906776 0
M  V30 6791 C 663.417 -1.99401 0.551969 0
M  V30 6792 C 663.832 -1.67816 -0.865048 0
M  V30 6793 O 663.189 -0.927078 -1.57199 0
M  V30 6794 C 663.24 -3.53779 0.743152 0
M  V30 6795 O 662.961 -3.84248 2.1044 0
M  V30 6796 C 664.462 -4.41543 0.39424 0
M  V30 6797 H 661.682 -0.636926 0.211106 0
M  V30 6798 H 664.226 -1.64266 1.21807 0
M  V30 6799 H 662.381 -3.87201 0.124143 0
M  V30 6800 H 662.795 -4.78904 2.13895 0
M  V30 6801 H 664.269 -5.48957 0.578814 0
M  V30 6802 H 664.746 -4.34073 -0.669137 0
M  V30 6803 H 665.352 -4.13605 0.990491 0
M  V30 6804 N 663.667 -0.670007 -1.42649 0
M  V30 6805 C 664.915 -0.18991 -2.01206 0
M  V30 6806 C 665.236 1.20617 -1.53221 0
M  V30 6807 O 664.506 1.80898 -0.751856 0
M  V30 6808 H 663.086 -0.0672189 -0.743969 0
M  V30 6809 H 665.748 -0.865442 -1.74631 0
M  V30 6810 H 664.844 -0.187481 -3.11536 0
M  V30 6811 N 665.145 1.52092 -0.413018 0
M  V30 6812 C 666.055 2.30858 0.417318 0
M  V30 6813 C 667.071 1.38746 1.05003 0
M  V30 6814 O 668.247 1.71821 1.05069 0
M  V30 6815 C 665.312 3.11756 1.51687 0
M  V30 6816 C 664.373 4.19613 0.906825 0
M  V30 6817 C 663.606 4.96644 1.95399 0
M  V30 6818 O 663.829 4.7402 3.17271 0
M  V30 6819 O 662.763 5.81385 1.55805 0
M  V30 6820 H 666.589 3.02865 -0.225028 0
M  V30 6821 H 664.174 1.48358 -0.176126 0
M  V30 6822 H 666.056 3.62122 2.15512 0
M  V30 6823 H 664.731 2.42539 2.14375 0
M  V30 6824 H 663.638 3.73385 0.231183 0
M  V30 6825 H 664.971 4.91134 0.323814 0
M  V30 6826 N 666.623 0.143563 1.56945 0
M  V30 6827 C 667.851 -0.515447 2.00377 0
M  V30 6828 C 668.266 -1.58643 1.02361 0
M  V30 6829 O 667.623 -1.82489 0.0201039 0
M  V30 6830 C 667.674 -1.11923 3.43737 0
M  V30 6831 O 667.395 -0.0910318 4.38005 0
M  V30 6832 C 668.896 -1.85918 4.02429 0
M  V30 6833 H 666.116 -0.134478 0.657386 0
M  V30 6834 H 668.66 0.237135 2.0312 0
M  V30 6835 H 666.815 -1.82245 3.41856 0
M  V30 6836 H 667.229 -0.532916 5.21786 0
M  V30 6837 H 668.703 -2.2346 5.04747 0
M  V30 6838 H 669.18 -2.7438 3.42947 0
M  V30 6839 H 669.786 -1.20303 4.07931 0
M  V30 6840 N 668.101 -1.57061 -0.130224 0
M  V30 6841 C 669.048 -1.99517 -1.16024 0
M  V30 6842 C 670.018 -0.865452 -1.41771 0
M  V30 6843 O 671.203 -1.12882 -1.53826 0
M  V30 6844 C 668.343 -2.3951 -2.48453 0
M  V30 6845 C 667.456 -3.65848 -2.29737 0
M  V30 6846 C 666.591 -3.9487 -3.55318 0
M  V30 6847 C 665.63 -5.14426 -3.31711 0
M  V30 6848 N 664.767 -5.39375 -4.49466 0
M  V30 6849 H 669.607 -2.87305 -0.791194 0
M  V30 6850 H 667.144 -1.42129 -0.379195 0
M  V30 6851 H 669.102 -2.60731 -3.25692 0
M  V30 6852 H 667.732 -1.54779 -2.83272 0
M  V30 6853 H 666.784 -3.52307 -1.4347 0
M  V30 6854 H 668.096 -4.53241 -2.08263 0
M  V30 6855 H 667.25 -4.16679 -4.4098 0
M  V30 6856 H 665.989 -3.05931 -3.79813 0
M  V30 6857 H 664.994 -4.92473 -2.44439 0
M  V30 6858 H 666.219 -6.04933 -3.08598 0
M  V30 6859 H 664.165 -4.53391 -4.74102 0
M  V30 6860 H 664.082 -6.21069 -4.31055 0
M  V30 6861 H 665.35 -5.65694 -5.36293 0
M  V30 6862 N 669.579 0.400081 -1.52437 0
M  V30 6863 C 670.804 1.17221 -1.71096 0
M  V30 6864 C 671.229 1.83269 -0.423565 0
M  V30 6865 O 670.587 1.70378 0.619751 0
M  V30 6866 C 670.635 2.20425 -2.85386 0
M  V30 6867 O 669.739 3.26769 -2.51586 0
M  V30 6868 H 669.08 0.341766 -0.569291 0
M  V30 6869 H 671.61 0.467772 -1.99181 0
M  V30 6870 H 671.62 2.64605 -3.10561 0
M  V30 6871 H 670.295 1.71737 -3.78786 0
M  V30 6872 H 668.872 2.87804 -2.37114 0
M  V30 6873 N 671.057 1.43213 0.657864 0
M  V30 6874 C 672.005 1.48271 1.79216 0
M  V30 6875 C 672.999 0.35675 1.65601 0
M  V30 6876 O 674.205 0.530535 1.72004 0
M  V30 6877 H 670.58 0.464729 0.591211 0
M  V30 6878 H 672.551 2.43792 1.7207 0
M  V30 6879 C 671.3 1.41837 3.17455 0
M  V30 6880 H 670.623 2.27781 3.28567 0
M  V30 6881 H 672.063 1.49438 3.96793 0
M  V30 6882 C 670.522 0.135347 3.36628 0
M  V30 6883 O 671.052 -0.805199 3.93547 0
M  V30 6884 N 669.258 0.0470316 2.90562 0
M  V30 6885 H 668.805 0.813221 2.44427 0
M  V30 6886 H 668.763 -0.810737 3.03767 0
M  V30 6887 N 672.536 -0.895792 1.29666 0
M  V30 6888 C 673.761 -1.68528 1.20885 0
M  V30 6889 C 674.186 -1.8673 -0.226595 0
M  V30 6890 O 673.544 -1.39044 -1.16347 0
M  V30 6891 C 673.592 -3.04512 1.93144 0
M  V30 6892 O 672.696 -3.92963 1.25115 0
M  V30 6893 H 672.037 -0.515371 0.418675 0
M  V30 6894 H 674.567 -1.11878 1.71302 0
M  V30 6895 H 674.577 -3.54628 2.0175 0
M  V30 6896 H 673.252 -2.90582 2.97548 0
M  V30 6897 H 671.829 -3.51399 1.24794 0
M  V30 6898 N 674.014 -1.12206 -1.10668 0
M  V30 6899 C 674.944 -0.810086 -2.18997 0
M  V30 6900 C 675.925 0.225065 -1.68604 0
M  V30 6901 O 677.11 0.086783 -1.94006 0
M  V30 6902 C 674.24 -0.261262 -3.46316 0
M  V30 6903 C 673.194 -1.2292 -4.09969 0
M  V30 6904 C 672.52 -0.540713 -5.31959 0
M  V30 6905 C 673.82 -2.58295 -4.53962 0
M  V30 6906 H 675.514 -1.7159 -2.45352 0
M  V30 6907 H 673.06 -0.82646 -1.17922 0
M  V30 6908 H 675.013 -0.0307522 -4.21389 0
M  V30 6909 H 673.737 0.679879 -3.19445 0
M  V30 6910 H 672.396 -1.44548 -3.369 0
M  V30 6911 H 672.044 0.405492 -5.01363 0
M  V30 6912 H 671.744 -1.18637 -5.75499 0
M  V30 6913 H 673.268 -0.319184 -6.09765 0
M  V30 6914 H 674.682 -2.40709 -5.20319 0
M  V30 6915 H 673.079 -3.18916 -5.08343 0
M  V30 6916 H 674.149 -3.16918 -3.67002 0
M  V30 6917 N 675.492 1.28418 -0.913599 0
M  V30 6918 C 676.769 1.89977 -0.465619 0
M  V30 6919 C 677.149 1.82813 1.05559 0
M  V30 6920 O 676.497 1.26397 1.90358 0
M  V30 6921 C 676.707 3.34492 -0.995813 0
M  V30 6922 C 678.055 4.11468 -1.04782 0
M  V30 6923 O 679.079 3.43451 -0.944445 0
M  V30 6924 O 677.938 5.33046 -1.20518 0
M  V30 6925 H 675.032 0.813734 -0.147532 0
M  V30 6926 H 677.578 1.36786 -1.00437 0
M  V30 6927 H 676.35 3.33929 -2.03978 0
M  V30 6928 H 675.973 3.95181 -0.437878 0
M  V30 6929 N 676.97 0.677563 1.42291 0
M  V30 6930 C 678.219 0.198173 2.00724 0
M  V30 6931 C 678.532 -1.20325 1.54211 0
M  V30 6932 O 679.738 -1.77916 2.05081 0
M  V30 6933 C 678.194 0.303432 3.58619 0
M  V30 6934 C 677.802 1.70909 4.14119 0
M  V30 6935 C 679.546 -0.117103 4.24338 0
M  V30 6936 C 677.453 1.76696 5.64387 0
M  V30 6937 H 676.383 0.070329 0.750713 0
M  V30 6938 H 679.034 0.843147 1.62982 0
M  V30 6939 H 677.416 -0.409482 3.93877 0
M  V30 6940 H 678.59 2.44931 3.90315 0
M  V30 6941 H 676.905 2.07771 3.6086 0
M  V30 6942 H 679.502 -0.0940471 5.34617 0
M  V30 6943 H 679.845 -1.15283 4.00019 0
M  V30 6944 H 680.378 0.5449 3.9405 0
M  V30 6945 H 677.117 2.7826 5.93508 0
M  V30 6946 H 676.637 1.07034 5.90173 0
M  V30 6947 H 678.316 1.52166 6.28852 0
M  V30 6948 N 678.448 -1.51871 0.421078 0
M  V30 6949 C 679.678 -2.06057 -0.149723 0
M  V30 6950 C 680.086 -1.29002 -1.38402 0
M  V30 6951 O 679.429 -0.338385 -1.80556 0
M  V30 6952 C 679.491 -3.55216 -0.553339 0
M  V30 6953 C 679.155 -4.53408 0.571879 0
M  V30 6954 C 680.152 -4.99586 1.4391 0
M  V30 6955 C 677.837 -4.967 0.747979 0
M  V30 6956 C 679.831 -5.87711 2.46727 0
M  V30 6957 C 677.518 -5.84619 1.77944 0
M  V30 6958 C 678.516 -6.30021 2.63748 0
M  V30 6959 O 678.204 -7.16197 3.65126 0
M  V30 6960 H 677.936 -0.675744 -0.0186102 0
M  V30 6961 H 680.49 -1.96618 0.594166 0
M  V30 6962 H 678.72 -3.62381 -1.34969 0
M  V30 6963 H 680.409 -3.91992 -1.05342 0
M  V30 6964 H 681.175 -4.66846 1.31451 0
M  V30 6965 H 677.054 -4.60913 0.0897357 0
M  V30 6966 H 680.598 -6.2307 3.13734 0
M  V30 6967 H 676.495 -6.16771 1.90429 0
M  V30 6968 H 677.263 -7.34337 3.61512 0
M  V30 6969 N 679.926 -0.151884 -1.56866 0
M  V30 6970 C 680.856 0.781943 -2.20018 0
M  V30 6971 C 681.837 1.25347 -1.14987 0
M  V30 6972 O 683.022 1.31015 -1.43348 0
M  V30 6973 C 680.152 2.01928 -2.82564 0
M  V30 6974 C 679.106 1.68434 -3.93464 0
M  V30 6975 C 678.432 2.99472 -4.42968 0
M  V30 6976 C 679.732 0.927244 -5.14003 0
M  V30 6977 H 681.426 0.255607 -2.98307 0
M  V30 6978 H 678.972 0.121502 -1.43486 0
M  V30 6979 H 680.925 2.67741 -3.25411 0
M  V30 6980 H 679.649 2.56943 -2.01614 0
M  V30 6981 H 678.308 1.04998 -3.51242 0
M  V30 6982 H 677.956 3.52488 -3.58834 0
M  V30 6983 H 677.656 2.77823 -5.17772 0
M  V30 6984 H 679.18 3.66348 -4.88489 0
M  V30 6985 H 680.594 1.48756 -5.53665 0
M  V30 6986 H 678.991 0.810513 -5.94601 0
M  V30 6987 H 680.061 -0.0801163 -4.84834 0
M  V30 6988 N 681.404 1.57128 0.121893 0
M  V30 6989 C 682.632 1.88883 0.844451 0
M  V30 6990 C 683.047 0.742824 1.73573 0
M  V30 6991 O 682.404 -0.286475 1.80238 0
M  V30 6992 C 682.455 3.20076 1.68029 0
M  V30 6993 O 682.176 4.30264 0.824898 0
M  V30 6994 C 683.677 3.65515 2.50826 0
M  V30 6995 H 680.897 0.62549 0.242907 0
M  V30 6996 H 683.441 2.04219 0.107151 0
M  V30 6997 H 681.596 3.06418 2.37038 0
M  V30 6998 H 682.01 5.05439 1.40113 0
M  V30 6999 H 683.484 4.60081 3.05008 0
M  V30 7000 H 683.961 2.92029 3.28048 0
M  V30 7001 H 684.567 3.81952 1.87064 0
M  V30 7002 N 682.882 -0.391992 1.52647 0
M  V30 7003 C 684.13 -1.13507 1.67214 0
M  V30 7004 C 684.451 -1.90575 0.41304 0
M  V30 7005 O 683.721 -1.87348 -0.572498 0
M  V30 7006 H 682.301 -0.422013 0.616372 0
M  V30 7007 H 684.963 -0.44502 1.89751 0
M  V30 7008 H 684.059 -1.83964 2.52118 0
M  V30 7009 N 684.36 -1.4356 -0.65026 0
M  V30 7010 C 685.771 -1.40324 -1.2315 0
M  V30 7011 C 686.122 -0.108812 -1.95898 0
M  V30 7012 O 685.247 0.79163 -2.01401 0
M  V30 7013 C 685.842 -2.54195 -2.23987 0
M  V30 7014 C 684.401 -2.54215 -2.77582 0
M  V30 7015 C 683.548 -2.31752 -1.5227 0
M  V30 7016 H 686.499 -1.52418 -0.442095 0
M  V30 7017 H 686.52 -2.25854 -3.0622 0
M  V30 7018 H 686.032 -3.48392 -1.71011 0
M  V30 7019 H 684.133 -1.63907 -3.34612 0
M  V30 7020 H 684.246 -3.52081 -3.24925 0
M  V30 7021 H 682.61 -1.80476 -1.79723 0
M  V30 7022 H 683.393 -3.28037 -1.01225 0
M  V30 7023 N 685.838 0.888903 -1.30139 0
M  V30 7024 C 687.085 1.64037 -1.18736 0
M  V30 7025 C 687.413 1.92771 0.258801 0
M  V30 7026 O 686.668 1.54427 1.20212 0
M  V30 7027 C 686.967 2.99041 -1.95728 0
M  V30 7028 C 686.633 2.89874 -3.45375 0
M  V30 7029 C 685.295 2.87082 -3.86183 0
M  V30 7030 C 687.647 2.78289 -4.40687 0
M  V30 7031 C 684.975 2.70536 -5.20603 0
M  V30 7032 C 687.327 2.63282 -5.75209 0
M  V30 7033 C 685.991 2.58861 -6.15262 0
M  V30 7034 H 685.261 0.600253 -0.434485 0
M  V30 7035 H 687.908 1.0338 -1.61198 0
M  V30 7036 H 686.213 3.63626 -1.45888 0
M  V30 7037 H 687.91 3.56139 -1.843 0
M  V30 7038 H 684.5 2.92856 -3.12943 0
M  V30 7039 H 688.684 2.79516 -4.10103 0
M  V30 7040 H 683.94 2.65526 -5.50732 0
M  V30 7041 H 688.114 2.5329 -6.48704 0
M  V30 7042 H 685.741 2.45799 -7.19366 0
M  V30 7043 N 687.317 1.12792 1.10072 0
M  V30 7044 C 688.249 0.757003 2.16338 0
M  V30 7045 C 689.262 -0.218144 1.61332 0
M  V30 7046 O 690.451 0.0010727 1.785 0
M  V30 7047 C 687.551 0.100303 3.38752 0
M  V30 7048 C 686.724 1.10586 4.2319 0
M  V30 7049 C 685.783 0.47609 5.24042 0
M  V30 7050 O 684.809 1.13418 5.57786 0
M  V30 7051 N 686.011 -0.754823 5.75572 0
M  V30 7052 H 688.776 1.6714 2.48766 0
M  V30 7053 H 686.337 1.02003 1.25726 0
M  V30 7054 H 688.329 -0.333092 4.03327 0
M  V30 7055 H 686.899 -0.716915 3.04268 0
M  V30 7056 H 686.119 1.71677 3.54853 0
M  V30 7057 H 687.407 1.78571 4.76435 0
M  V30 7058 H 686.805 -1.30838 5.50362 0
M  V30 7059 H 685.362 -1.13098 6.41913 0
M  V30 7060 N 688.795 -1.27931 0.920396 0
M  V30 7061 C 690.042 -1.94689 0.557007 0
M  V30 7062 C 690.37 -1.724 -0.900476 0
M  V30 7063 O 689.625 -1.04194 -1.65657 0
M  V30 7064 C 689.924 -3.47853 0.820558 0
M  V30 7065 C 689.59 -3.90252 2.25863 0
M  V30 7066 C 688.252 -4.01539 2.65179 0
M  V30 7067 C 690.604 -4.11853 3.19415 0
M  V30 7068 C 687.932 -4.3181 3.97187 0
M  V30 7069 C 690.284 -4.43606 4.50995 0
M  V30 7070 C 688.948 -4.53105 4.90155 0
M  V30 7071 H 688.218 -0.712416 0.203823 0
M  V30 7072 H 690.865 -1.52142 1.16298 0
M  V30 7073 H 689.17 -3.91578 0.131844 0
M  V30 7074 H 690.867 -3.97634 0.51847 0
M  V30 7075 H 687.457 -3.81999 1.94358 0
M  V30 7076 H 691.641 -4.0258 2.90246 0
M  V30 7077 H 686.897 -4.37371 4.2722 0
M  V30 7078 H 691.071 -4.59268 5.23494 0
M  V30 7079 H 688.698 -4.76315 5.92476 0
M  V30 7080 N 690.273 -0.685099 -1.4193 0
M  V30 7081 C 691.203 -0.0273506 -2.33484 0
M  V30 7082 C 692.184 0.778366 -1.51246 0
M  V30 7083 O 693.369 0.733449 -1.79817 0
M  V30 7084 C 690.499 0.917272 -3.34968 0
M  V30 7085 C 689.453 0.21941 -4.27437 0
M  V30 7086 C 688.779 1.27768 -5.1921 0
M  V30 7087 C 690.079 -0.907894 -5.14349 0
M  V30 7088 H 691.773 -0.791994 -2.88735 0
M  V30 7089 H 689.319 -0.382308 -1.38832 0
M  V30 7090 H 691.272 1.38657 -3.97935 0
M  V30 7091 H 689.996 1.71346 -2.78043 0
M  V30 7092 H 688.655 -0.229757 -3.65879 0
M  V30 7093 H 688.303 2.06612 -4.58607 0
M  V30 7094 H 688.003 0.815803 -5.81909 0
M  V30 7095 H 689.527 1.7477 -5.85054 0
M  V30 7096 H 690.941 -0.519348 -5.70943 0
M  V30 7097 H 689.338 -1.2962 -5.85934 0
M  V30 7098 H 690.408 -1.75218 -4.52136 0
M  V30 7099 N 691.751 1.51645 -0.429126 0
M  V30 7100 C 692.999 2.01616 0.139802 0
M  V30 7101 C 693.32 1.31568 1.43927 0
M  V30 7102 O 692.59 0.447688 1.90716 0
M  V30 7103 H 691.17 0.744998 0.054654 0
M  V30 7104 H 693.832 1.8638 -0.569952 0
M  V30 7105 H 692.928 3.10439 0.321609 0
M  V30 7106 N 693.229 0.160201 1.56784 0
M  V30 7107 C 694.645 -0.196089 1.58391 0
M  V30 7108 C 694.845 -1.63689 1.17508 0
M  V30 7109 O 693.901 -2.36613 0.881506 0
M  V30 7110 C 695.214 0.0746449 3.00607 0
M  V30 7111 C 696.762 0.0119762 3.12998 0
M  V30 7112 C 697.237 0.255551 4.57286 0
M  V30 7113 N 698.728 0.202938 4.62755 0
M  V30 7114 C 699.463 0.365731 5.72232 0
M  V30 7115 N 698.959 0.586972 6.90309 0
M  V30 7116 N 700.752 0.302411 5.61286 0
M  V30 7117 H 692.903 1.1008 1.81648 0
M  V30 7118 H 695.166 0.436779 0.841384 0
M  V30 7119 H 694.872 1.07231 3.34954 0
M  V30 7120 H 694.746 -0.638802 3.71751 0
M  V30 7121 H 697.133 -0.976254 2.78484 0
M  V30 7122 H 697.214 0.75796 2.44313 0
M  V30 7123 H 696.858 1.24094 4.92507 0
M  V30 7124 H 696.788 -0.510912 5.24116 0
M  V30 7125 H 699.279 0.0371328 3.77882 0
M  V30 7126 H 699.592 0.700941 7.69615 0
M  V30 7127 H 697.937 0.623453 6.92198 0
M  V30 7128 H 701.128 0.130238 4.67919 0
M  V30 7129 H 701.301 0.432712 6.46554 0
M  V30 7130 N 694.707 -1.5719 -0.113559 0
M  V30 7131 C 695.617 -2.04041 -1.15777 0
M  V30 7132 C 696.633 -0.961812 -1.45001 0
M  V30 7133 O 697.809 -1.2737 -1.56009 0
M  V30 7134 C 694.874 -2.43994 -2.46308 0
M  V30 7135 C 693.935 -3.65962 -2.24433 0
M  V30 7136 C 693.168 -4.04 -3.4874 0
M  V30 7137 O 693.391 -3.42321 -4.56259 0
M  V30 7138 O 692.325 -4.97069 -3.3942 0
M  V30 7139 H 696.151 -2.93248 -0.789899 0
M  V30 7140 H 693.736 -1.45828 -0.324748 0
M  V30 7141 H 695.618 -2.70401 -3.23204 0
M  V30 7142 H 694.293 -1.57932 -2.82558 0
M  V30 7143 H 693.2 -3.44697 -1.45377 0
M  V30 7144 H 694.533 -4.52746 -1.93084 0
M  V30 7145 N 696.185 0.383891 -1.52853 0
M  V30 7146 C 697.135 1.46892 -1.74375 0
M  V30 7147 C 698.119 1.49378 -0.597909 0
M  V30 7148 O 699.311 1.54929 -0.855929 0
M  V30 7149 C 696.44 2.84547 -1.92063 0
M  V30 7150 C 695.526 2.8661 -3.12594 0
M  V30 7151 N 695.917 2.58339 -4.3485 0
M  V30 7152 C 694.215 3.17777 -3.12944 0
M  V30 7153 C 694.916 2.67616 -5.16485 0
M  V30 7154 N 693.892 3.01561 -4.52285 0
M  V30 7155 H 697.694 1.23869 -2.66522 0
M  V30 7156 H 695.208 0.591895 -1.51229 0
M  V30 7157 H 697.205 3.62674 -2.05604 0
M  V30 7158 H 695.865 3.08549 -1.01133 0
M  V30 7159 H 696.876 2.32266 -4.62896 0
M  V30 7160 H 693.553 3.47211 -2.31842 0
M  V30 7161 H 694.943 2.4926 -6.23955 0
M  V30 7162 N 697.663 1.43903 0.642637 0
M  V30 7163 C 698.573 1.52349 1.78401 0
M  V30 7164 C 699.589 0.409869 1.69104 0
M  V30 7165 O 700.765 0.665548 1.90085 0
M  V30 7166 C 697.83 1.45408 3.14734 0
M  V30 7167 C 696.891 2.67528 3.35749 0
M  V30 7168 C 696.124 2.60909 4.65577 0
M  V30 7169 O 696.347 1.6627 5.45628 0
M  V30 7170 O 695.281 3.5158 4.88544 0
M  V30 7171 H 699.107 2.48752 1.7423 0
M  V30 7172 H 696.692 1.26021 0.802439 0
M  V30 7173 H 698.574 1.44019 3.96026 0
M  V30 7174 H 697.249 0.521437 3.19473 0
M  V30 7175 H 696.156 2.74487 2.5418 0
M  V30 7176 H 697.489 3.598 3.35864 0
M  V30 7177 N 699.141 -0.881989 1.30609 0
M  V30 7178 C 700.071 -2.00413 1.1982 0
M  V30 7179 C 701.052 -1.69871 0.0881538 0
M  V30 7180 O 702.237 -1.92304 0.2707 0
M  V30 7181 C 699.367 -3.35641 0.89233 0
M  V30 7182 C 698.321 -3.80451 1.96064 0
M  V30 7183 C 697.647 -5.13003 1.5077 0
M  V30 7184 C 698.947 -3.98855 3.37213 0
M  V30 7185 H 700.641 -2.09698 2.13699 0
M  V30 7186 H 698.187 -1.00754 1.02882 0
M  V30 7187 H 700.14 -4.13669 0.803497 0
M  V30 7188 H 698.864 -3.26497 -0.0821381 0
M  V30 7189 H 697.523 -3.04654 2.03916 0
M  V30 7190 H 697.171 -5.0029 0.521417 0
M  V30 7191 H 696.871 -5.43956 2.22229 0
M  V30 7192 H 698.395 -5.93554 1.43271 0
M  V30 7193 H 699.809 -4.67312 3.32103 0
M  V30 7194 H 698.206 -4.41188 4.06784 0
M  V30 7195 H 699.276 -3.02614 3.78883 0
M  V30 7196 N 700.619 -1.13374 -1.09472 0
M  V30 7197 C 701.865 -0.896516 -1.81908 0
M  V30 7198 C 702.198 0.575933 -1.85463 0
M  V30 7199 O 701.473 1.42618 -1.32251 0
M  V30 7200 C 701.756 -1.48445 -3.28079 0
M  V30 7201 C 701.609 -3.02598 -3.32798 0
M  V30 7202 C 702.928 -1.15226 -4.24748 0
M  V30 7203 H 700.047 -0.327127 -0.660422 0
M  V30 7204 H 702.689 -1.40195 -1.2824 0
M  V30 7205 H 700.839 -1.0546 -3.73912 0
M  V30 7206 H 702.511 -3.54335 -2.95372 0
M  V30 7207 H 700.754 -3.37613 -2.72397 0
M  V30 7208 H 701.425 -3.38835 -4.3577 0
M  V30 7209 H 703.901 -1.52369 -3.87199 0
M  V30 7210 H 702.777 -1.59012 -5.25363 0
M  V30 7211 H 703.038 -0.0658891 -4.42051 0
M  V30 7212 N 702.098 1.27442 -0.927168 0
M  V30 7213 C 703.344 1.94679 -0.568164 0
M  V30 7214 C 703.677 1.72697 0.888219 0
M  V30 7215 O 702.952 1.05573 1.63354 0
M  V30 7216 C 703.235 3.4882 -0.894253 0
M  V30 7217 C 703.088 3.80146 -2.40435 0
M  V30 7218 C 704.407 4.38281 -0.399766 0
M  V30 7219 H 701.526 0.707071 -0.207892 0
M  V30 7220 H 704.168 1.50568 -1.15885 0
M  V30 7221 H 702.318 3.86522 -0.391566 0
M  V30 7222 H 703.99 3.52238 -2.97869 0
M  V30 7223 H 702.233 3.26716 -2.85375 0
M  V30 7224 H 702.904 4.87835 -2.58304 0
M  V30 7225 H 705.38 4.07726 -0.83058 0
M  V30 7226 H 704.256 5.44955 -0.656885 0
M  V30 7227 H 704.517 4.36521 0.700153 0
M  V30 7228 N 703.576 0.692616 1.41565 0
M  V30 7229 C 704.824 0.221896 2.00878 0
M  V30 7230 C 705.145 -1.18164 1.5512 0
M  V30 7231 O 704.415 -1.79679 0.78054 0
M  V30 7232 H 702.995 0.0790463 0.742806 0
M  V30 7233 H 705.657 0.893115 1.73232 0
M  V30 7234 H 704.753 0.23702 3.11199 0
M  V30 7235 N 705.054 -1.51416 0.437162 0
M  V30 7236 C 706.282 -2.06503 -0.128045 0
M  V30 7237 C 706.697 -1.30461 -1.36475 0
M  V30 7238 O 706.054 -0.364127 -1.78831 0
M  V30 7239 C 706.105 -3.58683 -0.450437 0
M  V30 7240 O 705.826 -4.31853 0.737186 0
M  V30 7241 C 707.327 -4.30284 -1.06633 0
M  V30 7242 H 704.547 -0.670952 -0.00800269 0
M  V30 7243 H 707.091 -1.94996 0.616193 0
M  V30 7244 H 705.246 -3.70106 -1.14457 0
M  V30 7245 H 705.66 -5.22467 0.461347 0
M  V30 7246 H 707.134 -5.37848 -1.24191 0
M  V30 7247 H 707.611 -3.88564 -2.0473 0
M  V30 7248 H 708.217 -4.23304 -0.411585 0
M  V30 7249 N 706.532 -0.168513 -1.56696 0
M  V30 7250 C 707.757 0.486688 -2.01609 0
M  V30 7251 C 708.182 1.56203 -1.04796 0
M  V30 7252 O 707.54 1.8128 -0.0270596 0
M  V30 7253 C 707.588 1.04451 -3.45141 0
M  V30 7254 O 706.692 2.15862 -3.51393 0
M  V30 7255 H 706.033 0.116831 -0.653641 0
M  V30 7256 H 708.563 -0.271579 -2.0279 0
M  V30 7257 H 708.573 1.36782 -3.84389 0
M  V30 7258 H 707.248 0.257155 -4.15104 0
M  V30 7259 H 705.825 1.84597 -3.24004 0
M  V30 7260 N 708.01 1.57248 0.105221 0
M  V30 7261 C 708.973 2.00388 1.11252 0
M  V30 7262 C 709.973 0.89594 1.33527 0
M  V30 7263 O 711.163 1.16166 1.29811 0
M  V30 7264 C 708.295 2.35589 2.46395 0
M  V30 7265 H 709.488 2.90591 0.741424 0
M  V30 7266 H 707.041 1.52332 0.349956 0
M  V30 7267 H 707.776 1.4831 2.884 0
M  V30 7268 H 707.561 3.16408 2.31578 0
M  V30 7269 H 709.051 2.69658 3.18864 0
M  V30 7270 N 709.488 -0.375779 1.53054 0
M  V30 7271 C 710.713 -1.14484 1.7294 0
M  V30 7272 C 711.138 -1.82572 0.452668 0
M  V30 7273 O 710.496 -1.71343 -0.592567 0
M  V30 7274 C 710.544 -2.15857 2.88857 0
M  V30 7275 O 709.648 -3.22725 2.56753 0
M  V30 7276 H 708.989 -0.332666 0.574656 0
M  V30 7277 H 711.519 -0.436025 1.999 0
M  V30 7278 H 711.529 -2.59631 3.14731 0
M  V30 7279 H 710.204 -1.65689 3.81471 0
M  V30 7280 H 708.781 -2.83996 2.41663 0
M  V30 7281 N 710.966 -1.44241 -0.634997 0
M  V30 7282 C 712.213 -1.46821 -1.39463 0
M  V30 7283 C 712.541 -0.0993362 -1.94246 0
M  V30 7284 O 711.796 0.898325 -1.73864 0
M  V30 7285 C 712.095 -2.47279 -2.58046 0
M  V30 7286 C 711.761 -3.92703 -2.21574 0
M  V30 7287 C 710.423 -4.32306 -2.1134 0
M  V30 7288 C 712.775 -4.84271 -1.92695 0
M  V30 7289 C 710.103 -5.61407 -1.70409 0
M  V30 7290 C 712.455 -6.13755 -1.53258 0
M  V30 7291 C 711.119 -6.52316 -1.41562 0
M  V30 7292 H 710.389 -0.537256 -0.51033 0
M  V30 7293 H 713.036 -1.77431 -0.720441 0
M  V30 7294 H 711.341 -2.10138 -3.3068 0
M  V30 7295 H 713.038 -2.46523 -3.16271 0
M  V30 7296 H 709.628 -3.61369 -2.30456 0
M  V30 7297 H 713.812 -4.54432 -1.99513 0
M  V30 7298 H 709.068 -5.90105 -1.59955 0
M  V30 7299 H 713.242 -6.84168 -1.29949 0
M  V30 7300 H 710.869 -7.52255 -1.09619 0
M  V30 7301 N 712.444 0.87505 -1.31075 0
M  V30 7302 C 713.669 1.66583 -1.23551 0
M  V30 7303 C 714.094 1.87067 0.19686 0
M  V30 7304 O 713.452 1.40877 1.1412 0
M  V30 7305 C 713.5 3.01401 -1.97965 0
M  V30 7306 O 712.604 3.90923 -1.31351 0
M  V30 7307 H 711.945 0.508645 -0.426821 0
M  V30 7308 H 714.475 1.09139 -1.7306 0
M  V30 7309 H 714.485 3.51374 -2.07366 0
M  V30 7310 H 713.16 2.85812 -3.02133 0
M  V30 7311 H 711.737 3.49369 -1.30368 0
M  V30 7312 N 713.922 1.13953 1.08869 0
M  V30 7313 C 714.872 0.790812 2.13846 0
M  V30 7314 C 715.856 -0.217819 1.59419 0
M  V30 7315 O 717.048 -0.0208723 1.76988 0
M  V30 7316 C 714.177 0.26479 3.42277 0
M  V30 7317 C 713.263 1.30267 4.03598 0
M  V30 7318 N 713.654 2.50535 4.39393 0
M  V30 7319 C 711.952 1.15178 4.30871 0
M  V30 7320 C 712.653 3.16938 4.87776 0
M  V30 7321 N 711.629 2.44349 4.85587 0
M  V30 7322 H 715.431 1.70577 2.39334 0
M  V30 7323 H 712.945 1.02268 1.26154 0
M  V30 7324 H 714.942 -0.00330398 4.169 0
M  V30 7325 H 713.602 -0.644419 3.18241 0
M  V30 7326 H 714.613 2.87798 4.30572 0
M  V30 7327 H 711.29 0.301204 4.16412 0
M  V30 7328 H 712.68 4.19453 5.2489 0
M  V30 7329 N 715.4 -1.26948 0.933913 0
M  V30 7330 C 716.646 -1.94716 0.587985 0
M  V30 7331 C 717.001 -1.71994 -0.862312 0
M  V30 7332 O 716.294 -1.04208 -1.60783 0
M  V30 7333 C 716.488 -3.46963 0.857406 0
M  V30 7334 C 716.317 -3.84489 2.33234 0
M  V30 7335 C 715.087 -4.07621 2.98618 0
M  V30 7336 C 717.285 -3.93602 3.31031 0
M  V30 7337 N 715.267 -4.31976 4.362 0
M  V30 7338 C 716.638 -4.22404 4.53845 0
M  V30 7339 C 718.693 -3.76201 3.26155 0
M  V30 7340 C 717.396 -4.35615 5.72391 0
M  V30 7341 C 719.422 -3.90641 4.4402 0
M  V30 7342 C 718.784 -4.19835 5.65613 0
M  V30 7343 H 714.883 -0.735586 0.2654 0
M  V30 7344 H 717.467 -1.53181 1.20182 0
M  V30 7345 H 715.638 -3.87442 0.27268 0
M  V30 7346 H 717.37 -4.01921 0.47348 0
M  V30 7347 H 714.125 -4.02696 2.49264 0
M  V30 7348 H 714.549 -4.48199 5.07392 0
M  V30 7349 H 719.191 -3.52665 2.3321 0
M  V30 7350 H 716.909 -4.57975 6.65796 0
M  V30 7351 H 720.495 -3.78589 4.41771 0
M  V30 7352 H 719.375 -4.30765 6.55295 0
M  V30 7353 N 716.879 -0.700114 -1.41195 0
M  V30 7354 C 717.789 -0.0382854 -2.34569 0
M  V30 7355 C 718.805 0.761036 -1.56474 0
M  V30 7356 O 719.981 0.697553 -1.88934 0
M  V30 7357 C 717.046 0.883522 -3.35253 0
M  V30 7358 C 716.107 0.0758957 -4.29233 0
M  V30 7359 C 715.34 0.9538 -5.25108 0
M  V30 7360 O 715.563 2.19326 -5.26547 0
M  V30 7361 O 714.497 0.401049 -6.00562 0
M  V30 7362 H 718.323 -0.808073 -2.92752 0
M  V30 7363 H 715.908 -0.460479 -1.42127 0
M  V30 7364 H 717.79 1.41199 -3.9704 0
M  V30 7365 H 716.465 1.63272 -2.79506 0
M  V30 7366 H 715.372 -0.497274 -3.7078 0
M  V30 7367 H 716.705 -0.634741 -4.8809 0
M  V30 7368 N 718.357 1.51182 -0.445186 0
M  V30 7369 C 719.605 2.01753 0.11841 0
M  V30 7370 C 719.926 1.33087 1.42523 0
M  V30 7371 O 719.196 0.467891 1.9023 0
M  V30 7372 H 717.776 0.745536 0.0467492 0
M  V30 7373 H 720.438 1.85765 -0.589688 0
M  V30 7374 H 719.534 3.10762 0.288665 0
M  V30 7375 N 719.835 0.176821 1.56605 0
M  V30 7376 C 720.782 -0.751312 2.18229 0
M  V30 7377 C 721.752 -1.22297 1.12395 0
M  V30 7378 O 722.937 -1.29015 1.40569 0
M  V30 7379 C 720.077 -1.97291 2.83143 0
M  V30 7380 C 719.19 -1.54431 4.03454 0
M  V30 7381 C 718.325 -2.72 4.56278 0
M  V30 7382 C 717.364 -2.25657 5.68986 0
M  V30 7383 N 716.501 -3.36338 6.16296 0
M  V30 7384 H 721.341 -0.219033 2.97194 0
M  V30 7385 H 718.878 -0.0963803 1.46784 0
M  V30 7386 H 720.836 -2.68949 3.1894 0
M  V30 7387 H 719.466 -2.4788 2.06773 0
M  V30 7388 H 718.518 -0.724273 3.73441 0
M  V30 7389 H 719.83 -1.16417 4.85024 0
M  V30 7390 H 718.984 -3.51806 4.94285 0
M  V30 7391 H 717.723 -3.13277 3.73777 0
M  V30 7392 H 716.728 -1.44299 5.30526 0
M  V30 7393 H 717.953 -1.85432 6.53293 0
M  V30 7394 H 715.899 -3.7718 5.36723 0
M  V30 7395 H 715.816 -3.02435 6.9287 0
M  V30 7396 H 717.084 -4.16413 6.58954 0
M  V30 7397 N 721.313 -1.57302 -0.09688 0
M  V30 7398 C 722.538 -1.9058 -0.818169 0
M  V30 7399 C 722.963 -0.770921 -1.71576 0
M  V30 7400 O 722.321 0.277588 -1.79162 0
M  V30 7401 C 722.369 -3.22714 -1.60898 0
M  V30 7402 O 721.473 -3.10178 -2.71779 0
M  V30 7403 H 720.814 -0.624759 -0.224882 0
M  V30 7404 H 723.344 -2.04471 -0.07264 0
M  V30 7405 H 723.354 -3.55978 -1.99358 0
M  V30 7406 H 722.029 -4.04899 -0.950227 0
M  V30 7407 H 720.606 -2.88424 -2.3636 0
M  V30 7408 N 722.791 0.367657 -1.53252 0
M  V30 7409 C 724.021 1.12955 -1.72988 0
M  V30 7410 C 724.429 1.8358 -0.457708 0
M  V30 7411 O 723.772 1.74336 0.579006 0
M  V30 7412 C 723.834 2.20545 -2.83902 0
M  V30 7413 C 723.498 1.69704 -4.24323 0
M  V30 7414 C 724.495 1.16223 -5.06743 0
M  V30 7415 C 722.18 1.7528 -4.70725 0
M  V30 7416 C 724.174 0.689935 -6.33655 0
M  V30 7417 C 721.861 1.27662 -5.97617 0
M  V30 7418 C 722.859 0.746083 -6.78913 0
M  V30 7419 O 722.547 0.276925 -8.03423 0
M  V30 7420 H 722.279 0.343753 -0.582074 0
M  V30 7421 H 724.833 0.433106 -2.00782 0
M  V30 7422 H 723.063 2.93676 -2.51577 0
M  V30 7423 H 724.752 2.82111 -2.91836 0
M  V30 7424 H 725.518 1.11256 -4.72067 0
M  V30 7425 H 721.397 2.15515 -4.07522 0
M  V30 7426 H 724.941 0.275164 -6.97057 0
M  V30 7427 H 720.838 1.32322 -6.31792 0
M  V30 7428 H 721.606 0.396445 -8.17539 0
M  V30 7429 N 724.269 1.44576 0.627338 0
M  V30 7430 C 725.515 1.4877 1.38705 0
M  V30 7431 C 725.87 0.119976 1.92026 0
M  V30 7432 O 725.163 -0.865341 1.70946 0
M  V30 7433 C 725.357 2.48644 2.56731 0
M  V30 7434 C 725.186 3.94994 2.14965 0
M  V30 7435 C 723.956 4.63139 2.02065 0
M  V30 7436 C 726.154 4.841 1.73643 0
M  V30 7437 N 724.136 5.94296 1.53902 0
M  V30 7438 C 725.507 6.0473 1.36753 0
M  V30 7439 C 727.562 4.71131 1.61058 0
M  V30 7440 C 726.265 7.13831 0.885353 0
M  V30 7441 C 728.291 5.8026 1.14244 0
M  V30 7442 C 727.653 7.00034 0.783067 0
M  V30 7443 H 723.752 0.599415 0.50222 0
M  V30 7444 H 726.336 1.80926 0.719285 0
M  V30 7445 H 724.507 2.18472 3.2113 0
M  V30 7446 H 726.239 2.4311 3.23542 0
M  V30 7447 H 722.994 4.18007 2.22637 0
M  V30 7448 H 723.418 6.63985 1.32108 0
M  V30 7449 H 728.06 3.78964 1.87473 0
M  V30 7450 H 725.778 8.05804 0.608716 0
M  V30 7451 H 729.364 5.72254 1.0496 0
M  V30 7452 H 728.244 7.8304 0.426381 0
M  V30 7453 N 725.747 -0.868086 1.31537 0
M  V30 7454 C 726.695 -1.99688 1.1928 0
M  V30 7455 C 727.689 -1.69101 0.100656 0
M  V30 7456 O 728.895 -1.78073 0.262677 0
M  V30 7457 H 725.27 -0.655032 0.369374 0
M  V30 7458 H 727.241 -2.07157 2.14776 0
M  V30 7459 C 725.99 -3.35338 0.918892 0
M  V30 7460 H 725.313 -3.59396 1.75142 0
M  V30 7461 H 726.753 -4.14909 0.873311 0
M  V30 7462 C 725.212 -3.34769 -0.378366 0
M  V30 7463 O 725.742 -3.76716 -1.39456 0
M  V30 7464 N 723.948 -2.87895 -0.39557 0
M  V30 7465 H 723.495 -2.53954 0.431889 0
M  V30 7466 H 723.453 -2.87897 -1.26344 0
M  V30 7467 N 727.225 -1.14528 -1.08264 0
M  V30 7468 C 728.155 -0.856356 -2.1723 0
M  V30 7469 C 729.136 0.189251 -1.69044 0
M  V30 7470 O 730.321 0.0456119 -1.94146 0
M  V30 7471 C 727.451 -0.334662 -3.45684 0
M  V30 7472 C 726.405 -1.31588 -4.0727 0
M  V30 7473 C 725.731 -0.653428 -5.30692 0
M  V30 7474 C 727.031 -2.67866 -4.48381 0
M  V30 7475 H 728.725 -1.76755 -2.41657 0
M  V30 7476 H 726.271 -0.851287 -1.16143 0
M  V30 7477 H 728.224 -0.120128 -4.21229 0
M  V30 7478 H 726.948 0.611967 -3.20815 0
M  V30 7479 H 725.607 -1.51661 -3.33758 0
M  V30 7480 H 725.255 0.299054 -5.0211 0
M  V30 7481 H 724.955 -1.30817 -5.72853 0
M  V30 7482 H 726.479 -0.448453 -6.08951 0
M  V30 7483 H 727.893 -2.51692 -5.15096 0
M  V30 7484 H 726.29 -3.29627 -5.01464 0
M  V30 7485 H 727.36 -3.24632 -3.60198 0
M  V30 7486 N 728.703 1.26451 -0.940633 0
M  V30 7487 C 730.119 1.4608 -0.642859 0
M  V30 7488 C 730.319 1.84765 0.803998 0
M  V30 7489 O 729.375 1.96902 1.58069 0
M  V30 7490 C 730.688 2.54359 -1.60381 0
M  V30 7491 C 732.236 2.6821 -1.61345 0
M  V30 7492 C 732.711 3.79659 -2.56169 0
M  V30 7493 N 734.202 3.87051 -2.54452 0
M  V30 7494 C 734.937 4.72739 -3.24507 0
M  V30 7495 N 734.433 5.6282 -4.03987 0
M  V30 7496 N 736.226 4.66581 -3.13462 0
M  V30 7497 H 728.377 0.996289 -1.87584 0
M  V30 7498 H 730.64 0.498921 -0.80609 0
M  V30 7499 H 730.346 2.32758 -2.6366 0
M  V30 7500 H 730.22 3.52005 -1.35545 0
M  V30 7501 H 732.607 2.89184 -0.587913 0
M  V30 7502 H 732.688 1.7101 -1.90235 0
M  V30 7503 H 732.332 3.59438 -3.58841 0
M  V30 7504 H 732.262 4.76315 -2.2457 0
M  V30 7505 H 734.753 3.22649 -1.96739 0
M  V30 7506 H 735.066 6.25095 -4.54396 0
M  V30 7507 H 733.411 5.62574 -4.08088 0
M  V30 7508 H 736.602 3.9521 -2.50852 0
M  V30 7509 H 736.775 5.33141 -3.68327 0
M  V30 7510 N 730.181 0.707592 1.40822 0
M  V30 7511 C 731.129 0.0386643 2.32568 0
M  V30 7512 C 732.123 -0.755653 1.51612 0
M  V30 7513 O 733.329 -0.659921 1.67467 0
M  V30 7514 H 729.704 -0.00629912 0.751974 0
M  V30 7515 H 731.675 0.8293 2.86645 0
M  V30 7516 C 730.424 -0.87496 3.36511 0
M  V30 7517 H 729.747 -0.273157 3.98866 0
M  V30 7518 H 731.187 -1.31111 4.03219 0
M  V30 7519 C 729.646 -1.99672 2.71353 0
M  V30 7520 O 730.176 -3.08676 2.57064 0
M  V30 7521 N 728.382 -1.77799 2.29861 0
M  V30 7522 H 727.929 -0.89147 2.41683 0
M  V30 7523 H 727.887 -2.53036 1.86601 0
M  V30 7524 N 731.66 -1.50943 0.453197 0
M  V30 7525 C 732.89 -2.06328 -0.105981 0
M  V30 7526 C 733.298 -1.31909 -1.35634 0
M  V30 7527 O 732.641 -0.376607 -1.79798 0
M  V30 7528 C 732.703 -3.5631 -0.477868 0
M  V30 7529 C 732.367 -4.52093 0.667925 0
M  V30 7530 C 733.364 -4.96421 1.54475 0
M  V30 7531 C 731.049 -4.95001 0.853168 0
M  V30 7532 C 733.043 -5.82346 2.59138 0
M  V30 7533 C 730.73 -5.80713 1.90305 0
M  V30 7534 C 731.728 -6.24284 2.77053 0
M  V30 7535 O 731.416 -7.08291 3.80236 0
M  V30 7536 H 731.148 -0.675986 -0.00427247 0
M  V30 7537 H 733.702 -1.95314 0.635738 0
M  V30 7538 H 731.932 -3.65163 -1.27252 0
M  V30 7539 H 733.621 -3.94138 -0.970039 0
M  V30 7540 H 734.387 -4.63953 1.41324 0
M  V30 7541 H 730.266 -4.60619 0.187482 0
M  V30 7542 H 733.81 -6.16276 3.2688 0
M  V30 7543 H 729.707 -6.12593 2.03469 0
M  V30 7544 H 730.475 -7.26504 3.77007 0
M  V30 7545 N 733.138 -0.185124 -1.56509 0
M  V30 7546 C 734.415 0.503348 -1.89013 0
M  V30 7547 C 734.795 1.80349 -1.09715 0
M  V30 7548 O 734.143 2.27665 -0.195203 0
M  V30 7549 C 734.353 0.731839 -3.41241 0
M  V30 7550 C 735.701 1.05568 -4.11267 0
M  V30 7551 O 736.725 0.819906 -3.46635 0
M  V30 7552 O 735.584 1.50116 -5.25478 0
M  V30 7553 H 732.678 0.261139 -0.784688 0
M  V30 7554 H 735.224 -0.224592 -1.68207 0
M  V30 7555 H 733.996 -0.18672 -3.90854 0
M  V30 7556 H 733.619 1.5126 -3.67704 0
M  V30 7557 N 734.616 1.57351 0.0885366 0
M  V30 7558 C 735.564 2.03542 1.12576 0
M  V30 7559 C 736.558 0.937668 1.41082 0
M  V30 7560 O 737.764 1.12283 1.40686 0
M  V30 7561 H 734.139 0.648752 0.380296 0
M  V30 7562 H 736.11 2.89833 0.709906 0
M  V30 7563 C 734.859 2.4811 2.43591 0
M  V30 7564 H 734.182 3.32164 2.22502 0
M  V30 7565 H 735.622 2.842 3.14653 0
M  V30 7566 C 734.081 1.35708 3.08359 0
M  V30 7567 O 734.611 0.689852 3.95732 0
M  V30 7568 N 732.817 1.10641 2.68713 0
M  V30 7569 H 732.364 1.6508 1.97753 0
M  V30 7570 H 732.322 0.356355 3.12374 0
M  V30 7571 N 736.094 -0.359525 1.53444 0
M  V30 7572 C 737.322 -1.12198 1.73837 0
M  V30 7573 C 737.737 -1.82854 0.470107 0
M  V30 7574 O 737.094 -1.73781 -0.557349 0
M  V30 7575 C 737.145 -2.14769 2.90786 0
M  V30 7576 O 736.866 -1.46989 4.12706 0
M  V30 7577 C 738.367 -3.03514 3.231 0
M  V30 7578 H 735.587 -0.33524 0.581253 0
M  V30 7579 H 738.131 -0.416598 2.00212 0
M  V30 7580 H 736.286 -2.80896 2.66788 0
M  V30 7581 H 736.7 -2.15378 4.78239 0
M  V30 7582 H 738.174 -3.71453 4.08322 0
M  V30 7583 H 738.651 -3.68658 2.38721 0
M  V30 7584 H 739.257 -2.42996 3.49046 0
M  V30 7585 N 737.572 -1.44907 -0.619662 0
M  V30 7586 C 738.8 -1.51795 -1.40591 0
M  V30 7587 C 739.215 -0.146553 -1.8823 0
M  V30 7588 O 738.572 0.849698 -1.61513 0
M  V30 7589 C 738.623 -2.49229 -2.61853 0
M  V30 7590 O 738.344 -3.81039 -2.16197 0
M  V30 7591 C 739.845 -2.65696 -3.54853 0
M  V30 7592 H 737.065 -0.514463 -0.430777 0
M  V30 7593 H 739.609 -1.8998 -0.756813 0
M  V30 7594 H 737.764 -2.14149 -3.2283 0
M  V30 7595 H 738.178 -4.33747 -2.94896 0
M  V30 7596 H 739.652 -3.37874 -4.36515 0
M  V30 7597 H 740.129 -1.71316 -4.0441 0
M  V30 7598 H 740.735 -3.01724 -2.99737 0
M  V30 7599 N 739.05 0.861098 -1.31996 0
M  V30 7600 C 740.327 1.59788 -1.12814 0
M  V30 7601 C 740.707 2.08753 0.313882 0
M  V30 7602 O 740.055 1.87258 1.30946 0
M  V30 7603 C 740.265 2.74901 -2.15012 0
M  V30 7604 C 741.613 3.44643 -2.48004 0
M  V30 7605 O 742.637 2.85119 -2.13508 0
M  V30 7606 O 741.496 4.52044 -3.07113 0
M  V30 7607 H 738.59 0.703408 -0.434909 0
M  V30 7608 H 741.136 0.905788 -1.43505 0
M  V30 7609 H 739.908 2.36198 -3.11971 0
M  V30 7610 H 739.531 3.51792 -1.85279 0
M  V30 7611 N 740.528 1.15101 1.07655 0
M  V30 7612 C 741.805 0.834578 1.76902 0
M  V30 7613 C 742.185 -0.670431 2.00171 0
M  V30 7614 O 741.533 -1.61378 1.6177 0
M  V30 7615 C 741.743 1.64191 3.07965 0
M  V30 7616 C 743.091 1.84615 3.82364 0
M  V30 7617 O 744.115 1.60941 3.17768 0
M  V30 7618 O 742.974 2.24244 4.98374 0
M  V30 7619 H 740.068 0.306608 0.768063 0
M  V30 7620 H 742.614 1.25663 1.14048 0
M  V30 7621 H 741.386 2.66386 2.86626 0
M  V30 7622 H 741.009 1.216 3.78549 0
M  V30 7623 N 742.006 -1.2595 0.947325 0
M  V30 7624 C 743.253 -1.93463 0.598178 0
M  V30 7625 C 743.581 -1.74271 -0.863705 0
M  V30 7626 O 742.836 -1.07684 -1.63409 0
M  V30 7627 C 743.135 -3.46034 0.894158 0
M  V30 7628 C 742.801 -3.85373 2.3409 0
M  V30 7629 C 741.463 -3.95823 2.73637 0
M  V30 7630 C 743.815 -4.04986 3.2808 0
M  V30 7631 C 741.143 -4.23288 4.06257 0
M  V30 7632 C 743.495 -4.3394 4.60303 0
M  V30 7633 C 742.159 -4.42606 4.99656 0
M  V30 7634 H 741.429 -0.707933 0.218889 0
M  V30 7635 H 744.076 -1.4964 1.19499 0
M  V30 7636 H 742.381 -3.9121 0.214874 0
M  V30 7637 H 744.078 -3.96445 0.602698 0
M  V30 7638 H 740.668 -3.7779 2.02417 0
M  V30 7639 H 744.852 -3.96333 2.9872 0
M  V30 7640 H 740.108 -4.28211 4.36401 0
M  V30 7641 H 744.282 -4.48061 5.33118 0
M  V30 7642 H 741.909 -4.63641 6.02446 0
M  V30 7643 N 743.484 -0.715051 -1.40445 0
M  V30 7644 C 744.733 -0.251322 -2.00128 0
M  V30 7645 C 745.046 1.16194 -1.57347 0
M  V30 7646 O 746.252 1.72416 -2.09726 0
M  V30 7647 C 744.708 -0.398407 -3.57688 0
M  V30 7648 C 744.316 -1.81828 -4.09442 0
M  V30 7649 C 746.06 0.00455625 -4.245 0
M  V30 7650 C 743.967 -1.91598 -5.59503 0
M  V30 7651 H 742.897 -0.0902081 -0.748584 0
M  V30 7652 H 745.548 -0.886062 -1.6069 0
M  V30 7653 H 743.93 0.304908 -3.94824 0
M  V30 7654 H 745.104 -2.55193 -3.83684 0
M  V30 7655 H 743.419 -2.17266 -3.55225 0
M  V30 7656 H 746.016 -0.0477303 -5.34679 0
M  V30 7657 H 746.359 1.04636 -4.02935 0
M  V30 7658 H 746.892 -0.649184 -3.92467 0
M  V30 7659 H 743.631 -2.93898 -5.85922 0
M  V30 7660 H 743.151 -1.22644 -5.87127 0
M  V30 7661 H 744.83 -1.68785 -6.24596 0
M  V30 7662 N 744.962 1.50701 -0.461195 0
M  V30 7663 C 745.91 2.29918 0.352231 0
M  V30 7664 C 746.904 1.36778 0.999403 0
M  V30 7665 O 748.11 1.54015 0.931639 0
M  V30 7666 H 744.485 0.740249 0.132423 0
M  V30 7667 H 746.456 2.96497 -0.336424 0
M  V30 7668 C 745.205 3.17052 1.42736 0
M  V30 7669 H 744.528 3.88623 0.938747 0
M  V30 7670 H 745.968 3.75493 1.96928 0
M  V30 7671 C 744.427 2.3399 2.42384 0
M  V30 7672 O 744.957 2.01608 3.47444 0
M  V30 7673 N 743.163 1.96758 2.13857 0
M  V30 7674 H 742.71 2.23292 1.28447 0
M  V30 7675 H 742.668 1.41484 2.80766 0
M  V30 7676 N 746.441 0.193421 1.56409 0
M  V30 7677 C 747.687 -0.43983 1.98588 0
M  V30 7678 C 748.042 -1.59353 1.07816 0
M  V30 7679 O 747.335 -1.9121 0.122226 0
M  V30 7680 C 747.529 -0.949718 3.44551 0
M  V30 7681 C 747.358 0.153045 4.49439 0
M  V30 7682 C 746.128 0.610119 5.01603 0
M  V30 7683 C 748.326 0.961397 5.05234 0
M  V30 7684 N 746.308 1.69088 5.90155 0
M  V30 7685 C 747.679 1.8916 5.90439 0
M  V30 7686 C 749.734 1.004 4.87672 0
M  V30 7687 C 748.437 2.86086 6.5996 0
M  V30 7688 C 750.463 1.96131 5.57931 0
M  V30 7689 C 749.825 2.87895 6.42881 0
M  V30 7690 H 745.924 -0.128415 0.771384 0
M  V30 7691 H 748.508 0.29873 1.92395 0
M  V30 7692 H 746.679 -1.65772 3.51246 0
M  V30 7693 H 748.411 -1.55344 3.73698 0
M  V30 7694 H 745.166 0.203771 4.73161 0
M  V30 7695 H 745.59 2.23241 6.39134 0
M  V30 7696 H 750.232 0.308536 4.21673 0
M  V30 7697 H 747.95 3.56609 7.25159 0
M  V30 7698 H 751.536 2.00066 5.46319 0
M  V30 7699 H 750.416 3.60763 6.9629 0
M  V30 7700 N 747.919 -1.57396 -0.0801906 0
M  V30 7701 C 749.196 -1.77883 -0.813451 0
M  V30 7702 C 749.576 -0.778879 -1.96206 0
M  V30 7703 O 748.924 0.189683 -2.27711 0
M  V30 7704 C 749.134 -3.24116 -1.2942 0
M  V30 7705 C 750.482 -3.87714 -1.73098 0
M  V30 7706 O 751.506 -3.27956 -1.39007 0
M  V30 7707 O 750.365 -4.92828 -2.36184 0
M  V30 7708 H 747.459 -0.729727 -0.389138 0
M  V30 7709 H 750.005 -1.69591 -0.0609166 0
M  V30 7710 H 748.777 -3.88443 -0.471947 0
M  V30 7711 H 748.4 -3.371 -2.1083 0
M  V30 7712 N 749.397 0.351382 -1.53633 0
M  V30 7713 C 750.645 1.09034 -1.70165 0
M  V30 7714 C 750.966 1.89413 -0.463422 0
M  V30 7715 O 750.236 1.888 0.522624 0
M  V30 7716 H 748.816 0.405522 -0.627344 0
M  V30 7717 H 751.478 0.394554 -1.90865 0
M  V30 7718 H 750.574 1.77215 -2.56907 0
M  V30 7719 N 750.875 1.45233 0.611969 0
M  V30 7720 C 752.152 1.39495 1.37115 0
M  V30 7721 C 752.532 0.0633303 2.11005 0
M  V30 7722 O 751.88 -0.954617 2.07604 0
M  V30 7723 C 752.09 2.60579 2.32163 0
M  V30 7724 C 753.438 3.05477 2.94905 0
M  V30 7725 O 754.462 2.60921 2.42485 0
M  V30 7726 O 753.321 3.82787 3.90047 0
M  V30 7727 H 750.415 0.55335 0.614599 0
M  V30 7728 H 752.961 1.57355 0.635423 0
M  V30 7729 H 751.733 3.49085 1.76793 0
M  V30 7730 H 751.356 2.45031 3.13122 0
M  V30 7731 N 752.353 -0.854086 1.3245 0
M  V30 7732 C 753.602 -1.60318 1.22397 0
M  V30 7733 C 753.915 -1.9444 -0.212664 0
M  V30 7734 O 755.121 -2.67991 -0.435066 0
M  V30 7735 C 753.577 -2.8909 2.1437 0
M  V30 7736 C 753.185 -2.62391 3.63119 0
M  V30 7737 C 754.929 -3.67104 2.13155 0
M  V30 7738 C 752.836 -3.87167 4.47052 0
M  V30 7739 H 751.766 -0.601586 0.454544 0
M  V30 7740 H 754.417 -0.943023 1.57415 0
M  V30 7741 H 752.799 -3.56567 1.72268 0
M  V30 7742 H 753.973 -2.03222 4.13567 0
M  V30 7743 H 752.288 -1.97706 3.66471 0
M  V30 7744 H 754.885 -4.59696 2.731 0
M  V30 7745 H 755.228 -4.00876 1.12268 0
M  V30 7746 H 755.761 -3.06533 2.5354 0
M  V30 7747 H 752.5 -3.58536 5.48755 0
M  V30 7748 H 752.02 -4.45729 4.01355 0
M  V30 7749 H 753.699 -4.549 4.60081 0
M  V30 7750 N 753.831 -1.1567 -1.07043 0
M  V30 7751 C 755.079 -0.931673 -1.79344 0
M  V30 7752 C 755.4 0.542421 -1.87304 0
M  V30 7753 O 754.67 1.39418 -1.37621 0
M  V30 7754 H 753.25 -0.34171 -0.664262 0
M  V30 7755 H 755.912 -1.45795 -1.29344 0
M  V30 7756 H 755.008 -1.34379 -2.81689 0
M  V30 7757 N 755.309 1.25446 -0.953992 0
M  V30 7758 C 756.256 2.25912 -0.472485 0
M  V30 7759 C 757.226 1.59173 0.47469 0
M  V30 7760 O 758.411 1.86812 0.388082 0
M  V30 7761 C 755.551 3.44235 0.244218 0
M  V30 7762 C 754.664 4.25613 -0.740121 0
M  V30 7763 C 753.799 5.312 -0.000922267 0
M  V30 7764 C 752.838 6.04265 -0.976236 0
M  V30 7765 N 751.975 7.01589 -0.267952 0
M  V30 7766 H 756.815 2.66469 -1.3341 0
M  V30 7767 H 754.352 1.31005 -0.669045 0
M  V30 7768 H 756.31 4.11682 0.676314 0
M  V30 7769 H 754.94 3.04554 1.06988 0
M  V30 7770 H 753.992 3.57834 -1.2907 0
M  V30 7771 H 755.304 4.762 -1.48441 0
M  V30 7772 H 754.458 6.04719 0.48984 0
M  V30 7773 H 753.197 4.81484 0.776159 0
M  V30 7774 H 752.202 5.29561 -1.478 0
M  V30 7775 H 753.427 6.5607 -1.75354 0
M  V30 7776 H 751.373 6.54164 0.490403 0
M  V30 7777 H 751.29 7.4999 -0.951344 0
M  V30 7778 H 752.558 7.7924 0.201294 0
M  V30 7779 N 756.787 0.722489 1.40064 0
M  V30 7780 C 758.198 0.336507 1.83642 0
M  V30 7781 C 758.549 -1.13002 1.6039 0
M  V30 7782 O 757.674 -1.87036 1.08842 0
M  V30 7783 C 758.269 0.603985 3.33373 0
M  V30 7784 C 756.828 0.271637 3.75419 0
M  V30 7785 C 755.975 0.872898 2.63203 0
M  V30 7786 H 758.926 0.921108 1.29233 0
M  V30 7787 H 758.947 -0.128471 3.80283 0
M  V30 7788 H 758.459 1.67141 3.50265 0
M  V30 7789 H 756.56 -0.790455 3.64119 0
M  V30 7790 H 756.673 0.745457 4.73265 0
M  V30 7791 H 755.037 0.300431 2.52922 0
M  V30 7792 H 755.82 1.94473 2.82905 0
M  V30 7793 N 758.265 -1.50454 0.469181 0
M  V30 7794 C 759.542 -1.9504 -0.147955 0
M  V30 7795 C 759.922 -1.40946 -1.57154 0
M  V30 7796 O 759.27 -0.609663 -2.20217 0
M  V30 7797 C 759.48 -3.48875 -0.0932198 0
M  V30 7798 C 760.828 -4.23655 -0.283056 0
M  V30 7799 O 761.852 -3.55795 -0.169892 0
M  V30 7800 O 760.711 -5.44102 -0.511396 0
M  V30 7801 H 757.805 -0.819283 -0.11271 0
M  V30 7802 H 760.351 -1.6123 0.529446 0
M  V30 7803 H 759.123 -3.80791 0.900784 0
M  V30 7804 H 758.746 -3.89217 -0.812161 0
M  V30 7805 N 759.743 -0.201713 -1.56304 0
M  V30 7806 C 760.989 0.429292 -1.98818 0
M  V30 7807 C 761.344 1.58779 -1.08659 0
M  V30 7808 O 760.637 1.91142 -0.132365 0
M  V30 7809 C 760.831 0.931432 -3.45049 0
M  V30 7810 C 760.66 -0.176878 -4.49352 0
M  V30 7811 C 759.43 -0.636712 -5.01272 0
M  V30 7812 C 761.628 -0.988177 -5.04717 0
M  V30 7813 N 759.61 -1.72215 -5.8925 0
M  V30 7814 C 760.981 -1.92288 -5.89428 0
M  V30 7815 C 763.036 -1.02985 -4.87133 0
M  V30 7816 C 761.739 -2.89582 -6.58434 0
M  V30 7817 C 763.765 -1.99087 -5.56883 0
M  V30 7818 C 763.127 -2.913 -6.41345 0
M  V30 7819 H 759.226 0.124322 -0.772054 0
M  V30 7820 H 761.81 -0.308929 -1.92234 0
M  V30 7821 H 759.981 1.63907 -3.52121 0
M  V30 7822 H 761.713 1.5336 -3.74517 0
M  V30 7823 H 758.468 -0.228861 -4.73047 0
M  V30 7824 H 758.892 -2.26627 -6.37941 0
M  V30 7825 H 763.534 -0.330894 -4.21503 0
M  V30 7826 H 761.252 -3.6045 -7.23258 0
M  V30 7827 H 764.838 -2.0296 -5.45251 0
M  V30 7828 H 763.718 -3.6445 -6.94367 0
M  V30 7829 N 761.222 1.57436 0.0718424 0
M  V30 7830 C 762.47 1.86878 0.769484 0
M  V30 7831 C 762.791 0.7937 1.78116 0
M  V30 7832 O 762.061 -0.177642 1.95093 0
M  V30 7833 H 760.641 0.689593 0.287177 0
M  V30 7834 H 763.303 1.94841 0.0479427 0
M  V30 7835 H 762.399 2.84387 1.28572 0
M  V30 7836 N 762.7 -0.34323 1.53817 0
M  V30 7837 C 763.928 -1.10348 1.75017 0
M  V30 7838 C 764.343 -1.82345 0.489475 0
M  V30 7839 O 763.7 -1.74362 -0.538886 0
M  V30 7840 C 763.751 -2.11672 2.93048 0
M  V30 7841 O 763.472 -1.42603 4.14241 0
M  V30 7842 C 764.973 -3.0007 3.26301 0
M  V30 7843 H 762.193 -0.329056 0.584776 0
M  V30 7844 H 764.737 -0.395339 2.00642 0
M  V30 7845 H 762.892 -2.78051 2.69753 0
M  V30 7846 H 763.306 -2.10294 4.80496 0
M  V30 7847 H 764.78 -3.67101 4.12239 0
M  V30 7848 H 765.257 -3.66105 2.42618 0
M  V30 7849 H 765.863 -2.3928 3.51604 0
M  V30 7850 N 764.178 -1.45556 -0.604258 0
M  V30 7851 C 765.589 -1.44171 -1.18624 0
M  V30 7852 C 765.94 -0.171081 -1.95453 0
M  V30 7853 O 765.065 0.727156 -2.03817 0
M  V30 7854 C 765.66 -2.61193 -2.15786 0
M  V30 7855 C 764.219 -2.62918 -2.69353 0
M  V30 7856 C 763.366 -2.36479 -1.4482 0
M  V30 7857 H 766.317 -1.53747 -0.393381 0
M  V30 7858 H 766.338 -2.35481 -2.98879 0
M  V30 7859 H 765.85 -3.53656 -1.59841 0
M  V30 7860 H 763.951 -1.7447 -3.29228 0
M  V30 7861 H 764.064 -3.6224 -3.13559 0
M  V30 7862 H 762.428 -1.86103 -1.73891 0
M  V30 7863 H 763.211 -3.31091 -0.907376 0
M  V30 7864 N 765.656 0.84705 -1.32902 0
M  V30 7865 C 766.881 1.63925 -1.27056 0
M  V30 7866 C 767.306 1.87443 0.157136 0
M  V30 7867 O 766.664 1.43266 1.11106 0
M  V30 7868 C 766.712 2.97134 -2.04313 0
M  V30 7869 O 765.816 3.88049 -1.39614 0
M  V30 7870 H 765.157 0.499477 -0.437514 0
M  V30 7871 H 767.687 1.05443 -1.75336 0
M  V30 7872 H 767.697 3.46896 -2.14772 0
M  V30 7873 H 766.372 2.79339 -3.08128 0
M  V30 7874 H 764.949 3.46525 -1.3775 0
M  V30 7875 N 767.134 1.16236 1.06428 0
M  V30 7876 C 768.066 0.825446 2.1382 0
M  V30 7877 C 769.079 -0.166707 1.61944 0
M  V30 7878 O 770.268 0.0578606 1.78406 0
M  V30 7879 C 767.368 0.208023 3.38261 0
M  V30 7880 C 766.541 1.23994 4.19457 0
M  V30 7881 C 765.6 0.642569 5.22262 0
M  V30 7882 O 764.626 1.31106 5.53895 0
M  V30 7883 N 765.828 -0.571327 5.77682 0
M  V30 7884 H 768.593 1.7497 2.43322 0
M  V30 7885 H 766.154 1.05951 1.22417 0
M  V30 7886 H 768.146 -0.204608 4.04182 0
M  V30 7887 H 766.716 -0.619752 3.06395 0
M  V30 7888 H 765.936 1.82879 3.49212 0
M  V30 7889 H 767.224 1.93638 4.70512 0
M  V30 7890 H 766.622 -1.13263 5.54245 0
M  V30 7891 H 765.179 -0.926187 6.45186 0
M  V30 7892 N 768.612 -1.24939 0.960631 0
M  V30 7893 C 769.842 -1.96595 0.635123 0
M  V30 7894 C 770.25 -1.71538 -0.798206 0
M  V30 7895 O 769.593 -0.991727 -1.5463 0
M  V30 7896 C 769.655 -3.49994 0.821248 0
M  V30 7897 C 769.319 -3.98738 2.23287 0
M  V30 7898 C 770.316 -4.08965 3.21004 0
M  V30 7899 C 768.001 -4.32247 2.55867 0
M  V30 7900 C 769.995 -4.52025 4.49391 0
M  V30 7901 C 767.682 -4.74991 3.84482 0
M  V30 7902 C 768.68 -4.84844 4.81056 0
M  V30 7903 O 768.368 -5.26638 6.07378 0
M  V30 7904 H 768.1 -0.633265 0.23654 0
M  V30 7905 H 770.654 -1.5991 1.28911 0
M  V30 7906 H 768.884 -3.86543 0.110105 0
M  V30 7907 H 770.573 -4.02859 0.495892 0
M  V30 7908 H 771.339 -3.83302 2.97161 0
M  V30 7909 H 767.218 -4.23801 1.81421 0
M  V30 7910 H 770.762 -4.5963 5.24773 0
M  V30 7911 H 766.659 -5.00101 4.08129 0
M  V30 7912 H 767.427 -5.44807 6.10842 0
M  V30 7913 N 770.09 -0.729906 -1.39679 0
M  V30 7914 C 771.339 -0.272534 -1.9985 0
M  V30 7915 C 771.652 1.14519 -1.58571 0
M  V30 7916 O 772.858 1.70182 -2.11543 0
M  V30 7917 C 771.314 -0.436322 -3.57245 0
M  V30 7918 C 770.922 -1.86161 -4.0749 0
M  V30 7919 C 772.666 -0.0404679 -4.24481 0
M  V30 7920 C 770.573 -1.97522 -5.5744 0
M  V30 7921 H 769.503 -0.0981428 -0.747585 0
M  V30 7922 H 772.154 -0.903056 -1.59741 0
M  V30 7923 H 770.536 0.263015 -3.95126 0
M  V30 7924 H 771.71 -2.59248 -3.80955 0
M  V30 7925 H 770.025 -2.21021 -3.529 0
M  V30 7926 H 772.622 -0.104437 -5.34598 0
M  V30 7927 H 772.965 1.00357 -4.04023 0
M  V30 7928 H 773.498 -0.690774 -3.91757 0
M  V30 7929 H 770.237 -3.00096 -5.82771 0
M  V30 7930 H 769.757 -1.28864 -5.85794 0
M  V30 7931 H 771.436 -1.754 -6.22771 0
M  V30 7932 N 771.568 1.50203 -0.477153 0
M  V30 7933 C 772.845 1.95115 0.137609 0
M  V30 7934 C 773.225 1.41778 1.56404 0
M  V30 7935 O 772.573 0.621333 2.1989 0
M  V30 7936 C 772.783 3.4892 0.0747168 0
M  V30 7937 C 774.131 4.238 0.260585 0
M  V30 7938 O 775.155 3.5588 0.151021 0
M  V30 7939 O 774.014 5.44366 0.482534 0
M  V30 7940 H 771.108 0.81987 0.108364 0
M  V30 7941 H 773.654 1.60946 -0.537989 0
M  V30 7942 H 772.426 3.80308 -0.920966 0
M  V30 7943 H 772.049 3.89642 0.791509 0
M  V30 7944 N 773.046 0.209999 1.56195 0
M  V30 7945 C 774.323 -0.473214 1.89789 0
M  V30 7946 C 774.703 -1.78581 1.1257 0
M  V30 7947 O 774.051 -2.27325 0.231398 0
M  V30 7948 C 774.261 -0.677458 3.42362 0
M  V30 7949 C 775.609 -0.990114 4.12895 0
M  V30 7950 O 776.633 -0.764655 3.47896 0
M  V30 7951 O 775.492 -1.41737 5.278 0
M  V30 7952 H 772.586 -0.248622 0.788743 0
M  V30 7953 H 775.132 0.251324 1.67829 0
M  V30 7954 H 773.904 0.248878 3.90508 0
M  V30 7955 H 773.527 -1.45391 3.70064 0
M  V30 7956 N 774.524 -1.57472 -0.0634922 0
M  V30 7957 C 775.471 -2.04258 -1.07457 0
M  V30 7958 C 776.441 -0.924804 -1.37973 0
M  V30 7959 O 777.626 -1.19305 -1.48899 0
M  V30 7960 C 774.766 -2.49832 -2.38071 0
M  V30 7961 C 773.879 -3.75263 -2.14014 0
M  V30 7962 C 773.014 -4.09585 -3.38251 0
M  V30 7963 C 772.053 -5.28032 -3.09594 0
M  V30 7964 N 771.19 -5.57953 -4.26185 0
M  V30 7965 H 776.03 -2.90402 -0.668626 0
M  V30 7966 H 773.567 -1.43609 -0.318572 0
M  V30 7967 H 775.525 -2.7431 -3.14341 0
M  V30 7968 H 774.155 -1.66654 -2.76453 0
M  V30 7969 H 773.207 -3.58075 -1.28399 0
M  V30 7970 H 774.519 -4.61667 -1.88852 0
M  V30 7971 H 773.673 -4.35008 -4.2291 0
M  V30 7972 H 772.412 -3.21765 -3.66495 0
M  V30 7973 H 771.417 -5.02397 -2.23332 0
M  V30 7974 H 772.642 -6.17477 -2.82663 0
M  V30 7975 H 770.588 -4.73092 -4.54445 0
M  V30 7976 H 770.505 -6.38793 -4.04326 0
M  V30 7977 H 771.773 -5.87931 -5.11817 0
M  V30 7978 N 776.003 0.335068 -1.53997 0
M  V30 7979 C 777.231 1.09418 -1.756 0
M  V30 7980 C 777.646 1.82083 -0.499138 0
M  V30 7981 O 777.003 1.74646 0.529631 0
M  V30 7982 C 777.054 2.10115 -2.94166 0
M  V30 7983 O 776.775 1.40404 -4.14992 0
M  V30 7984 C 778.276 2.98336 -3.27888 0
M  V30 7985 H 775.496 0.32595 -0.586513 0
M  V30 7986 H 778.04 0.384693 -2.00849 0
M  V30 7987 H 776.195 2.76616 -2.71224 0
M  V30 7988 H 776.609 2.07743 -4.81605 0
M  V30 7989 H 778.083 3.6491 -4.1418 0
M  V30 7990 H 778.56 3.64814 -2.44556 0
M  V30 7991 H 779.166 2.37412 -3.52868 0
M  V30 7992 N 777.481 1.45874 0.596531 0
M  V30 7993 C 778.897 1.30524 0.918459 0
M  V30 7994 C 779.097 0.266429 1.99731 0
M  V30 7995 O 778.153 -0.335809 2.50257 0
M  V30 7996 C 779.466 2.68747 1.3489 0
M  V30 7997 C 781.014 2.7673 1.46251 0
M  V30 7998 C 781.489 4.15504 1.92667 0
M  V30 7999 N 782.98 4.17853 1.99883 0
M  V30 8000 C 783.715 5.22109 2.37044 0
M  V30 8001 N 783.211 6.36704 2.73094 0
M  V30 8002 N 785.004 5.09471 2.37479 0
M  V30 8003 H 777.155 2.12081 -0.116368 0
M  V30 8004 H 779.418 0.947941 0.0106033 0
M  V30 8005 H 779.124 3.46006 0.630288 0
M  V30 8006 H 778.998 2.97942 2.31323 0
M  V30 8007 H 781.385 1.99768 2.17202 0
M  V30 8008 H 781.466 2.51236 0.481054 0
M  V30 8009 H 781.11 4.92956 1.223 0
M  V30 8010 H 781.04 4.38396 2.91747 0
M  V30 8011 H 783.531 3.35163 1.74568 0
M  V30 8012 H 783.844 7.12041 3.00362 0
M  V30 8013 H 782.189 6.40087 2.70764 0
M  V30 8014 H 785.38 4.18987 2.08728 0
M  V30 8015 H 785.553 5.90837 2.66112 0
M  V30 8016 N 778.959 -0.83999 1.33349 0
M  V30 8017 C 779.891 -1.95678 1.19344 0
M  V30 8018 C 780.904 -1.62322 0.124692 0
M  V30 8019 O 782.093 -1.74516 0.375012 0
M  V30 8020 C 779.193 -3.29133 0.807771 0
M  V30 8021 C 778.366 -3.9063 1.96792 0
M  V30 8022 C 777.425 -5.02438 1.56341 0
M  V30 8023 O 776.451 -5.21646 2.27759 0
M  V30 8024 N 777.653 -5.78612 0.467767 0
M  V30 8025 H 780.418 -2.08229 2.15548 0
M  V30 8026 H 777.979 -1.01566 1.26079 0
M  V30 8027 H 779.971 -4.01355 0.519282 0
M  V30 8028 H 778.541 -3.12535 -0.063555 0
M  V30 8029 H 777.761 -3.11011 2.4221 0
M  V30 8030 H 779.049 -4.2845 2.74422 0
M  V30 8031 H 778.447 -5.65559 -0.126324 0
M  V30 8032 H 777.004 -6.51362 0.238945 0
M  V30 8033 N 780.437 -1.16799 -1.0581 0
M  V30 8034 C 781.367 -0.902241 -2.15364 0
M  V30 8035 C 782.348 0.153351 -1.69407 0
M  V30 8036 O 783.533 0.00442032 -1.94199 0
M  V30 8037 C 780.663 -0.407911 -3.44896 0
M  V30 8038 C 779.617 -1.40197 -4.04387 0
M  V30 8039 C 778.943 -0.765848 -5.29187 0
M  V30 8040 C 780.243 -2.77316 -4.42598 0
M  V30 8041 H 781.937 -1.81841 -2.37853 0
M  V30 8042 H 779.483 -0.875731 -1.14311 0
M  V30 8043 H 781.436 -0.20945 -4.20879 0
M  V30 8044 H 780.16 0.54378 -3.22041 0
M  V30 8045 H 778.819 -1.58707 -3.30466 0
M  V30 8046 H 778.467 0.192482 -5.02632 0
M  V30 8047 H 778.167 -1.42939 -5.69949 0
M  V30 8048 H 779.691 -0.577519 -6.07863 0
M  V30 8049 H 781.105 -2.62561 -5.09642 0
M  V30 8050 H 779.502 -3.4019 -4.94359 0
M  V30 8051 H 780.572 -3.32199 -3.53231 0
M  V30 8052 N 781.915 1.24427 -0.967243 0
M  V30 8053 C 783.163 1.92107 -0.627638 0
M  V30 8054 C 783.484 1.75991 0.83978 0
M  V30 8055 O 782.754 1.13118 1.59941 0
M  V30 8056 H 781.334 0.710986 -0.229145 0
M  V30 8057 H 783.996 1.51331 -1.22821 0
M  V30 8058 H 783.092 2.99791 -0.867844 0
M  V30 8059 N 783.393 0.737304 1.3929 0
M  V30 8060 C 784.618 0.295237 2.05288 0
M  V30 8061 C 785.043 -1.06235 1.55228 0
M  V30 8062 O 784.401 -1.67365 0.697043 0
M  V30 8063 C 784.449 0.309146 3.59272 0
M  V30 8064 O 783.553 -0.702437 4.06374 0
M  V30 8065 H 782.894 0.133762 0.650387 0
M  V30 8066 H 785.424 1.00387 1.78279 0
M  V30 8067 H 785.434 0.154336 4.07708 0
M  V30 8068 H 784.109 1.29974 3.95069 0
M  V30 8069 H 782.686 -0.513574 3.69346 0
M  V30 8070 N 784.871 -1.49948 0.485112 0
M  V30 8071 C 786.101 -2.06506 -0.0621921 0
M  V30 8072 C 786.509 -1.34756 -1.32806 0
M  V30 8073 O 785.852 -0.41466 -1.78959 0
M  V30 8074 C 785.914 -3.57243 -0.402182 0
M  V30 8075 C 785.578 -4.50574 0.763671 0
M  V30 8076 C 786.575 -4.93032 1.6497 0
M  V30 8077 C 784.26 -4.9308 0.957973 0
M  V30 8078 C 786.254 -5.76718 2.71432 0
M  V30 8079 C 783.941 -5.76546 2.0258 0
M  V30 8080 C 784.939 -6.18267 2.90232 0
M  V30 8081 O 784.627 -7.00066 3.95174 0
M  V30 8082 H 784.359 -0.675925 0.0100672 0
M  V30 8083 H 786.913 -1.93922 0.677023 0
M  V30 8084 H 785.143 -3.6778 -1.19478 0
M  V30 8085 H 786.832 -3.96107 -0.886219 0
M  V30 8086 H 787.598 -4.60851 1.51134 0
M  V30 8087 H 783.477 -4.60117 0.285144 0
M  V30 8088 H 787.021 -6.09203 3.39878 0
M  V30 8089 H 782.918 -6.0814 2.16417 0
M  V30 8090 H 783.686 -7.18343 3.92333 0
M  V30 8091 N 786.349 -0.21828 -1.56081 0
M  V30 8092 C 787.282 0.733096 -2.16104 0
M  V30 8093 C 788.26 1.19333 -1.10447 0
M  V30 8094 O 789.444 1.27666 -1.38685 0
M  V30 8095 C 786.571 1.99283 -2.73868 0
M  V30 8096 C 785.617 1.67285 -3.92324 0
M  V30 8097 S 786.45 0.800511 -5.29483 0
M  V30 8098 C 787.606 2.06988 -5.90683 0
M  V30 8099 H 787.839 0.222917 -2.96463 0
M  V30 8100 H 785.372 -0.00300946 -1.544 0
M  V30 8101 H 787.33 2.71618 -3.07789 0
M  V30 8102 H 785.991 2.47414 -1.93508 0
M  V30 8103 H 785.184 2.60874 -4.31232 0
M  V30 8104 H 784.786 1.03016 -3.59533 0
M  V30 8105 H 787.078 3.02019 -6.06457 0
M  V30 8106 H 788.021 1.72476 -6.86773 0
M  V30 8107 H 788.429 2.20893 -5.19487 0
M  V30 8108 N 787.827 1.57504 0.0551401 0
M  V30 8109 C 789.055 1.92294 0.76358 0
M  V30 8110 C 789.47 0.815774 1.70266 0
M  V30 8111 O 788.827 -0.209772 1.8129 0
M  V30 8112 C 788.878 3.26914 1.54302 0
M  V30 8113 O 788.599 4.33375 0.641666 0
M  V30 8114 C 790.1 3.75825 2.35097 0
M  V30 8115 H 787.32 0.635229 0.216159 0
M  V30 8116 H 789.864 2.0449 0.0204385 0
M  V30 8117 H 788.019 3.16196 2.23828 0
M  V30 8118 H 788.433 5.10927 1.1855 0
M  V30 8119 H 789.907 4.72603 2.8522 0
M  V30 8120 H 790.384 3.0568 3.15367 0
M  V30 8121 H 790.99 3.89542 1.70696 0
M  V30 8122 N 789.305 -0.326896 1.54172 0
M  V30 8123 C 790.268 -1.38515 1.8261 0
M  V30 8124 C 791.268 -1.44872 0.697771 0
M  V30 8125 O 792.458 -1.44957 0.966078 0
M  V30 8126 C 789.59 -2.77281 1.98313 0
M  V30 8127 H 790.783 -1.14556 2.77159 0
M  V30 8128 H 788.336 -0.562199 1.45839 0
M  V30 8129 H 789.071 -3.065 1.05964 0
M  V30 8130 H 788.856 -2.74061 2.80416 0
M  V30 8131 H 790.346 -3.53845 2.21773 0
M  V30 8132 N 790.784 -1.46188 -0.588786 0
M  V30 8133 C 792.2 -1.31009 -0.911524 0
M  V30 8134 C 792.4 -0.277017 -1.99587 0
M  V30 8135 O 791.456 0.322532 -2.50432 0
M  V30 8136 C 792.769 -2.69459 -1.33463 0
M  V30 8137 C 794.317 -2.77502 -1.44782 0
M  V30 8138 C 794.792 -4.1652 -1.90461 0
M  V30 8139 N 796.283 -4.18907 -1.97665 0
M  V30 8140 C 797.018 -5.23359 -2.34271 0
M  V30 8141 N 796.514 -6.38143 -2.69714 0
M  V30 8142 N 798.307 -5.10723 -2.34774 0
M  V30 8143 H 790.458 -2.12016 0.127614 0
M  V30 8144 H 792.721 -0.947984 -0.00557599 0
M  V30 8145 H 792.427 -3.46336 -0.611929 0
M  V30 8146 H 792.301 -2.99165 -2.2974 0
M  V30 8147 H 794.688 -2.00917 -2.1614 0
M  V30 8148 H 794.769 -2.51488 -0.467724 0
M  V30 8149 H 794.413 -4.93597 -1.19684 0
M  V30 8150 H 794.343 -4.39937 -2.89418 0
M  V30 8151 H 796.834 -3.36084 -1.72789 0
M  V30 8152 H 797.147 -7.13624 -2.96582 0
M  V30 8153 H 795.492 -6.41514 -2.67366 0
M  V30 8154 H 798.683 -4.20088 -2.06503 0
M  V30 8155 H 798.856 -5.9224 -2.62975 0
M  V30 8156 N 792.262 0.832906 -1.33792 0
M  V30 8157 C 793.509 1.58853 -1.25586 0
M  V30 8158 C 793.837 1.93695 0.176807 0
M  V30 8159 O 793.092 1.59386 1.13554 0
M  V30 8160 C 793.391 2.9047 -2.08235 0
M  V30 8161 C 793.057 2.74965 -3.57358 0
M  V30 8162 C 791.719 2.70444 -3.98012 0
M  V30 8163 C 794.071 2.59347 -4.52093 0
M  V30 8164 C 791.399 2.48212 -5.31608 0
M  V30 8165 C 793.751 2.38649 -5.85858 0
M  V30 8166 C 792.415 2.32533 -6.25687 0
M  V30 8167 H 791.685 0.581285 -0.459553 0
M  V30 8168 H 794.332 0.964501 -1.65438 0
M  V30 8169 H 792.637 3.57111 -1.6118 0
M  V30 8170 H 794.334 3.48001 -1.99239 0
M  V30 8171 H 790.924 2.79319 -3.25083 0
M  V30 8172 H 795.108 2.6187 -4.2159 0
M  V30 8173 H 790.364 2.41929 -5.61498 0
M  V30 8174 H 794.538 2.25549 -6.58863 0
M  V30 8175 H 792.165 2.15067 -7.29143 0
M  V30 8176 N 793.74 1.17359 1.05189 0
M  V30 8177 C 794.688 0.886527 2.15043 0
M  V30 8178 C 795.682 -0.148834 1.68745 0
M  V30 8179 O 796.888 -0.00175123 1.8 0
M  V30 8180 H 793.263 0.269147 0.702185 0
M  V30 8181 H 795.234 1.82016 2.36459 0
M  V30 8182 C 793.983 0.416333 3.45198 0
M  V30 8183 H 793.306 1.20449 3.81225 0
M  V30 8184 H 794.746 0.254362 4.23236 0
M  V30 8185 C 793.205 -0.866016 3.25579 0
M  V30 8186 O 793.735 -1.9328 3.52144 0
M  V30 8187 N 791.941 -0.814179 2.78961 0
M  V30 8188 H 791.488 0.0541618 2.57543 0
M  V30 8189 H 791.446 -1.67264 2.66214 0
M  V30 8190 N 795.218 -1.23913 0.973828 0
M  V30 8191 C 796.464 -1.92436 0.640026 0
M  V30 8192 C 796.797 -1.75875 -0.823512 0
M  V30 8193 O 796.072 -1.11563 -1.59323 0
M  V30 8194 C 796.355 -3.4526 1.0231 0
M  V30 8195 C 796.208 -3.70961 2.54378 0
M  V30 8196 C 797.527 -4.36495 0.562155 0
M  V30 8197 H 794.646 -0.698868 0.233992 0
M  V30 8198 H 797.288 -1.46163 1.21393 0
M  V30 8199 H 795.438 -3.84802 0.534751 0
M  V30 8200 H 797.11 -3.40941 3.10737 0
M  V30 8201 H 795.353 -3.15899 2.97305 0
M  V30 8202 H 796.024 -4.77912 2.76232 0
M  V30 8203 H 798.5 -4.04363 0.981333 0
M  V30 8204 H 797.376 -5.42142 0.858689 0
M  V30 8205 H 797.637 -4.38818 -0.537659 0
M  V30 8206 N 796.696 -0.74468 -1.38897 0
M  V30 8207 C 797.924 -0.307428 -2.04603 0
M  V30 8208 C 798.339 1.06115 -1.56157 0
M  V30 8209 O 797.696 1.67233 -0.730701 0
M  V30 8210 C 797.747 -0.31101 -3.6016 0
M  V30 8211 O 797.468 -1.62557 -4.06825 0
M  V30 8212 C 798.969 0.141213 -4.43075 0
M  V30 8213 H 796.189 -0.132741 -0.657739 0
M  V30 8214 H 798.733 -1.01104 -1.77759 0
M  V30 8215 H 796.888 0.343792 -3.85872 0
M  V30 8216 H 797.302 -1.54569 -5.01207 0
M  V30 8217 H 798.776 0.0875449 -5.51931 0
M  V30 8218 H 799.253 1.18782 -4.22833 0
M  V30 8219 H 799.859 -0.484383 -4.22533 0
M  V30 8220 N 798.174 1.49689 -0.493057 0
M  V30 8221 C 799.451 1.9525 0.116907 0
M  V30 8222 C 799.831 1.43429 1.54892 0
M  V30 8223 O 799.179 0.644621 2.19219 0
M  V30 8224 C 799.389 3.4898 0.037705 0
M  V30 8225 C 800.737 4.24052 0.215621 0
M  V30 8226 O 801.761 3.5602 0.113266 0
M  V30 8227 O 800.62 5.44847 0.42477 0
M  V30 8228 H 797.714 0.820973 0.099662 0
M  V30 8229 H 800.26 1.60367 -0.555029 0
M  V30 8230 H 799.032 3.79309 -0.961251 0
M  V30 8231 H 798.655 3.9046 0.750137 0
M  V30 8232 N 799.652 0.226554 1.55963 0
M  V30 8233 C 800.929 -0.453058 1.90281 0
M  V30 8234 C 801.309 -1.77377 1.14458 0
M  V30 8235 O 800.657 -2.27067 0.255496 0
M  V30 8236 C 800.867 -0.641108 3.43061 0
M  V30 8237 C 802.215 -0.946265 4.13921 0
M  V30 8238 O 803.239 -0.727713 3.48687 0
M  V30 8239 O 802.098 -1.36131 5.29274 0
M  V30 8240 H 799.192 -0.240242 0.791336 0
M  V30 8241 H 801.738 0.26911 1.67553 0
M  V30 8242 H 800.51 0.290283 3.90222 0
M  V30 8243 H 800.133 -1.41458 3.71585 0
M  V30 8244 N 801.13 -1.57531 -0.0467866 0
M  V30 8245 C 802.06 -2.08425 -1.05268 0
M  V30 8246 C 803.041 -0.982941 -1.38825 0
M  V30 8247 O 804.226 -1.25716 -1.48018 0
M  V30 8248 C 801.356 -2.54897 -2.35891 0
M  V30 8249 C 800.31 -3.69132 -2.16623 0
M  V30 8250 C 799.636 -4.01747 -3.52851 0
M  V30 8251 C 800.936 -4.98243 -1.56689 0
M  V30 8252 H 802.63 -2.92716 -0.62908 0
M  V30 8253 H 800.176 -1.40816 -0.301156 0
M  V30 8254 H 802.129 -2.8912 -3.06574 0
M  V30 8255 H 800.853 -1.67666 -2.80278 0
M  V30 8256 H 799.512 -3.35231 -1.48377 0
M  V30 8257 H 799.16 -3.11608 -3.94853 0
M  V30 8258 H 798.86 -4.78681 -3.4079 0
M  V30 8259 H 800.384 -4.38487 -4.24925 0
M  V30 8260 H 801.798 -5.30535 -2.17268 0
M  V30 8261 H 800.195 -5.79669 -1.55255 0
M  V30 8262 H 801.265 -4.81986 -0.530827 0
M  V30 8263 N 802.608 0.318715 -1.54344 0
M  V30 8264 C 803.556 1.41254 -1.84798 0
M  V30 8265 C 804.55 1.53325 -0.720256 0
M  V30 8266 O 805.756 1.55653 -0.903992 0
M  V30 8267 H 802.131 0.471468 -0.585851 0
M  V30 8268 H 804.102 1.12795 -2.7626 0
M  V30 8269 C 802.851 2.77395 -2.09637 0
M  V30 8270 H 802.174 2.68881 -2.95876 0
M  V30 8271 H 803.614 3.52987 -2.34896 0
M  V30 8272 C 802.073 3.24948 -0.889398 0
M  V30 8273 O 802.603 4.01573 -0.101063 0
M  V30 8274 N 800.809 2.82051 -0.699684 0
M  V30 8275 H 800.356 2.19858 -1.3424 0
M  V30 8276 H 800.314 3.1422 0.106368 0
M  V30 8277 N 804.086 1.46499 0.581025 0
M  V30 8278 C 805.016 1.60052 1.70017 0
M  V30 8279 C 805.997 0.450788 1.64018 0
M  V30 8280 O 807.182 0.677237 1.82009 0
M  V30 8281 C 804.312 1.5921 3.08658 0
M  V30 8282 C 803.266 2.73169 3.29488 0
M  V30 8283 C 802.592 2.57389 4.68674 0
M  V30 8284 C 803.892 4.14978 3.1716 0
M  V30 8285 H 805.586 2.53735 1.5893 0
M  V30 8286 H 803.132 1.22113 0.763173 0
M  V30 8287 H 805.085 1.67285 3.86773 0
M  V30 8288 H 803.809 0.620718 3.20647 0
M  V30 8289 H 802.468 2.64566 2.53773 0
M  V30 8290 H 802.116 1.58331 4.77431 0
M  V30 8291 H 801.816 3.33826 4.83564 0
M  V30 8292 H 803.34 2.67358 5.48956 0
M  V30 8293 H 804.754 4.24684 3.85119 0
M  V30 8294 H 803.151 4.92016 3.4357 0
M  V30 8295 H 804.221 4.35016 2.14218 0
M  V30 8296 N 805.565 -0.825799 1.34232 0
M  V30 8297 C 806.812 -1.58185 1.26427 0
M  V30 8298 C 807.14 -1.93786 -0.166533 0
M  V30 8299 O 806.395 -1.59986 -1.12707 0
M  V30 8300 C 806.694 -2.89362 2.09772 0
M  V30 8301 C 806.36 -2.73066 3.58812 0
M  V30 8302 C 805.022 -2.68329 3.99441 0
M  V30 8303 C 807.374 -2.56946 4.53462 0
M  V30 8304 C 804.702 -2.4539 5.32917 0
M  V30 8305 C 807.054 -2.35538 5.87115 0
M  V30 8306 C 805.718 -2.29212 6.26912 0
M  V30 8307 H 804.988 -0.57884 0.462629 0
M  V30 8308 H 807.635 -0.955714 1.65947 0
M  V30 8309 H 805.94 -3.56251 1.63071 0
M  V30 8310 H 807.637 -3.4694 2.01081 0
M  V30 8311 H 804.227 -2.77591 3.26559 0
M  V30 8312 H 808.411 -2.59631 4.22972 0
M  V30 8313 H 803.667 -2.38947 5.62774 0
M  V30 8314 H 807.841 -2.22051 6.6005 0
M  V30 8315 H 805.468 -2.11197 7.30274 0
M  V30 8316 N 807.043 -1.17915 -1.04565 0
M  V30 8317 C 807.973 -0.925033 -2.14395 0
M  V30 8318 C 808.954 0.135375 -1.6956 0
M  V30 8319 O 810.139 -0.0161774 -1.94193 0
M  V30 8320 C 807.269 -0.444469 -3.44444 0
M  V30 8321 C 806.223 -1.44478 -4.02877 0
M  V30 8322 C 805.549 -0.821933 -5.28345 0
M  V30 8323 C 806.849 -2.81995 -4.39632 0
M  V30 8324 H 808.543 -1.84354 -2.35911 0
M  V30 8325 H 806.089 -0.887806 -1.13375 0
M  V30 8326 H 808.042 -0.254078 -4.20633 0
M  V30 8327 H 806.766 0.509592 -3.226 0
M  V30 8328 H 805.425 -1.62203 -3.28764 0
M  V30 8329 H 805.073 0.139161 -5.02807 0
M  V30 8330 H 804.773 -1.48976 -5.68401 0
M  V30 8331 H 806.297 -0.641959 -6.07216 0
M  V30 8332 H 807.711 -2.67952 -5.06828 0
M  V30 8333 H 806.108 -3.45414 -4.90723 0
M  V30 8334 H 807.178 -3.35927 -3.49687 0
M  V30 8335 N 808.521 1.23394 -0.980386 0
M  V30 8336 C 809.769 1.91431 -0.647978 0
M  V30 8337 C 810.09 1.76871 0.821066 0
M  V30 8338 O 809.36 1.14808 1.58732 0
M  V30 8339 H 807.94 0.708516 -0.236673 0
M  V30 8340 H 810.602 1.50019 -1.2442 0
M  V30 8341 H 809.698 2.98854 -0.899592 0
M  V30 8342 N 809.999 0.752036 1.385 0
M  V30 8343 C 811.247 0.306895 1.99756 0
M  V30 8344 C 811.568 -1.11478 1.59992 0
M  V30 8345 O 810.838 -1.76206 0.856045 0
M  V30 8346 H 809.418 0.11048 0.738785 0
M  V30 8347 H 812.08 0.965785 1.69289 0
M  V30 8348 H 811.176 0.368797 3.09913 0
M  V30 8349 N 811.477 -1.49425 0.500989 0
M  V30 8350 C 812.893 -1.58826 0.156951 0
M  V30 8351 C 813.093 -1.50622 -1.33848 0
M  V30 8352 O 812.149 -1.38016 -2.11442 0
M  V30 8353 C 813.462 -2.91611 0.73374 0
M  V30 8354 C 815.01 -3.05076 0.699846 0
M  V30 8355 C 815.485 -4.40479 1.2547 0
M  V30 8356 N 816.976 -4.4697 1.2154 0
M  V30 8357 C 817.711 -5.50189 1.6149 0
M  V30 8358 N 817.207 -6.60512 2.09034 0
M  V30 8359 N 819 -5.40903 1.52907 0
M  V30 8360 H 811.151 -1.53001 1.47324 0
M  V30 8361 H 813.414 -0.724765 0.61108 0
M  V30 8362 H 813.12 -3.03182 1.78251 0
M  V30 8363 H 812.994 -3.767 0.19417 0
M  V30 8364 H 815.381 -2.93134 -0.340085 0
M  V30 8365 H 815.462 -2.2167 1.27656 0
M  V30 8366 H 815.106 -4.53172 2.29341 0
M  V30 8367 H 815.036 -5.22524 0.653921 0
M  V30 8368 H 817.527 -3.67819 0.867043 0
M  V30 8369 H 817.84 -7.35372 2.37588 0
M  V30 8370 H 816.185 -6.61553 2.13008 0
M  V30 8371 H 819.376 -4.53606 1.15583 0
M  V30 8372 H 819.549 -6.21219 1.84365 0
M  V30 8373 N 812.955 -0.234822 -1.55841 0
M  V30 8374 C 814.201 0.393843 -1.98939 0
M  V30 8375 C 814.534 1.58466 -1.1226 0
M  V30 8376 O 813.809 1.93635 -0.183242 0
M  V30 8377 C 814.092 0.815492 -3.50745 0
M  V30 8378 C 813.945 -0.379878 -4.48193 0
M  V30 8379 C 815.264 1.66687 -4.07312 0
M  V30 8380 H 812.383 0.141681 -0.723253 0
M  V30 8381 H 815.025 -0.333716 -1.87046 0
M  V30 8382 H 813.175 1.43541 -3.6101 0
M  V30 8383 H 814.847 -1.0182 -4.49923 0
M  V30 8384 H 813.09 -1.02507 -4.21515 0
M  V30 8385 H 813.761 -0.0417069 -5.51984 0
M  V30 8386 H 816.237 1.14369 -4.00074 0
M  V30 8387 H 815.113 1.93078 -5.13821 0
M  V30 8388 H 815.374 2.63468 -3.55017 0
M  V30 8389 N 814.433 1.57553 0.0384317 0
M  V30 8390 C 815.679 1.89121 0.732199 0
M  V30 8391 C 816.012 0.831404 1.75503 0
M  V30 8392 O 815.287 -0.154642 1.93884 0
M  V30 8393 C 815.57 3.31338 1.41021 0
M  V30 8394 C 815.423 4.48004 0.401532 0
M  V30 8395 C 816.742 3.72318 2.34665 0
M  V30 8396 H 813.861 0.687819 0.264715 0
M  V30 8397 H 816.503 1.89999 -0.00496279 0
M  V30 8398 H 814.653 3.3072 2.03854 0
M  V30 8399 H 816.325 4.60755 -0.224159 0
M  V30 8400 H 814.568 4.32895 -0.280092 0
M  V30 8401 H 815.239 5.44377 0.91423 0
M  V30 8402 H 817.715 3.74243 1.81883 0
M  V30 8403 H 816.591 4.72652 2.7909 0
M  V30 8404 H 816.852 3.04062 3.20934 0
M  V30 8405 N 815.911 -0.310526 1.54511 0
M  V30 8406 C 817.188 -1.06593 1.64004 0
M  V30 8407 C 817.568 -2.05519 0.482216 0
M  V30 8408 O 816.916 -2.22455 -0.52212 0
M  V30 8409 C 817.126 -1.75627 3.01589 0
M  V30 8410 C 818.474 -2.28173 3.58081 0
M  V30 8411 O 819.498 -1.85674 3.03979 0
M  V30 8412 O 818.357 -3.06015 4.52788 0
M  V30 8413 H 815.451 -0.492109 0.664649 0
M  V30 8414 H 817.997 -0.309374 1.66856 0
M  V30 8415 H 816.769 -1.03743 3.77297 0
M  V30 8416 H 816.392 -2.58061 3.02473 0
M  V30 8417 N 817.389 -1.46805 -0.573248 0
M  V30 8418 C 818.619 -1.55965 -1.35494 0
M  V30 8419 C 819.027 -0.203038 -1.88107 0
M  V30 8420 O 818.37 0.81138 -1.6481 0
M  V30 8421 C 818.432 -2.51168 -2.57206 0
M  V30 8422 C 818.096 -3.97211 -2.25993 0
M  V30 8423 C 819.093 -4.86155 -1.84254 0
M  V30 8424 C 816.778 -4.42419 -2.37846 0
M  V30 8425 C 818.772 -6.18323 -1.54776 0
M  V30 8426 C 816.459 -5.74619 -2.0798 0
M  V30 8427 C 817.457 -6.62392 -1.66511 0
M  V30 8428 O 817.145 -7.92137 -1.37016 0
M  V30 8429 H 816.877 -0.529748 -0.419932 0
M  V30 8430 H 819.431 -1.92998 -0.702914 0
M  V30 8431 H 817.661 -2.09171 -3.25245 0
M  V30 8432 H 819.35 -2.50631 -3.19279 0
M  V30 8433 H 820.116 -4.52481 -1.74603 0
M  V30 8434 H 815.995 -3.74319 -2.69085 0
M  V30 8435 H 819.539 -6.8679 -1.22334 0
M  V30 8436 H 815.436 -6.0784 -2.17258 0
M  V30 8437 H 816.204 -8.04492 -1.50782 0
M  V30 8438 N 818.867 0.818669 -1.34668 0
M  V30 8439 C 820.283 1.11243 -1.14443 0
M  V30 8440 C 820.483 2.01435 0.0512212 0
M  V30 8441 O 819.539 2.41854 0.725471 0
M  V30 8442 C 820.852 1.75504 -2.4417 0
M  V30 8443 C 822.4 1.8798 -2.50265 0
M  V30 8444 C 822.875 2.55657 -3.80004 0
M  V30 8445 N 824.366 2.63153 -3.81189 0
M  V30 8446 C 825.101 3.16258 -4.78298 0
M  V30 8447 N 824.597 3.69893 -5.85791 0
M  V30 8448 N 826.39 3.14698 -4.65748 0
M  V30 8449 H 818.541 0.218848 -2.1127 0
M  V30 8450 H 820.804 0.159655 -0.934459 0
M  V30 8451 H 820.51 1.16697 -3.31775 0
M  V30 8452 H 820.384 2.75329 -2.57825 0
M  V30 8453 H 822.771 2.45934 -1.63096 0
M  V30 8454 H 822.852 0.870447 -2.40535 0
M  V30 8455 H 822.496 1.98356 -4.67565 0
M  V30 8456 H 822.426 3.57105 -3.87019 0
M  V30 8457 H 824.917 2.2514 -3.03513 0
M  V30 8458 H 825.23 4.08678 -6.55898 0
M  V30 8459 H 823.575 3.68125 -5.89499 0
M  V30 8460 H 826.766 2.72066 -3.80917 0
M  V30 8461 H 826.939 3.5578 -5.41594 0
M  V30 8462 N 820.346 1.18468 1.03938 0
M  V30 8463 C 821.592 0.982286 1.77423 0
M  V30 8464 C 821.925 -0.48679 1.88 0
M  V30 8465 O 821.2 -1.36146 1.38905 0
M  V30 8466 C 821.483 1.63929 3.20623 0
M  V30 8467 C 821.336 3.18132 3.17982 0
M  V30 8468 C 822.655 1.3536 4.18767 0
M  V30 8469 H 819.774 0.358264 0.644062 0
M  V30 8470 H 822.416 1.46154 1.21405 0
M  V30 8471 H 820.566 1.2318 3.68455 0
M  V30 8472 H 822.238 3.68024 2.78129 0
M  V30 8473 H 820.481 3.50225 2.55978 0
M  V30 8474 H 821.152 3.5924 4.19107 0
M  V30 8475 H 823.628 1.70669 3.79488 0
M  V30 8476 H 822.504 1.83896 5.17178 0
M  V30 8477 H 822.765 0.276722 4.41233 0
M  V30 8478 N 821.824 -1.22873 0.986916 0
M  V30 8479 C 823.052 -1.95487 0.677663 0
M  V30 8480 C 823.467 -1.72978 -0.756572 0
M  V30 8481 O 822.824 -1.02517 -1.50985 0
M  V30 8482 C 822.875 -3.48337 0.966638 0
M  V30 8483 O 822.596 -3.70087 2.34451 0
M  V30 8484 C 824.097 -4.38142 0.674248 0
M  V30 8485 H 821.317 -0.622211 0.251185 0
M  V30 8486 H 823.861 -1.56187 1.32007 0
M  V30 8487 H 822.016 -3.85628 0.370137 0
M  V30 8488 H 822.43 -4.64332 2.43918 0
M  V30 8489 H 823.904 -5.44165 0.926759 0
M  V30 8490 H 824.381 -4.3745 -0.391728 0
M  V30 8491 H 824.987 -4.06469 1.25152 0
M  V30 8492 N 823.302 -0.75937 -1.38099 0
M  V30 8493 C 824.55 -0.317485 -1.99591 0
M  V30 8494 C 824.871 1.10628 -1.60581 0
M  V30 8495 O 824.141 1.7575 -0.865378 0
M  V30 8496 H 822.721 -0.114397 -0.738189 0
M  V30 8497 H 825.383 -0.974749 -1.68774 0
M  V30 8498 H 824.479 -0.385227 -3.09713 0
M  V30 8499 N 824.78 1.49157 -0.508906 0
M  V30 8500 C 825.71 2.32109 0.254469 0
M  V30 8501 C 826.691 1.40754 0.955111 0
M  V30 8502 O 827.876 1.69658 0.944983 0
M  V30 8503 C 825.006 3.21458 1.3146 0
M  V30 8504 C 823.96 4.2167 0.733368 0
M  V30 8505 C 823.286 5.00009 1.8946 0
M  V30 8506 C 824.586 5.21544 -0.280875 0
M  V30 8507 H 826.28 2.9618 -0.43795 0
M  V30 8508 H 823.826 1.4243 -0.212062 0
M  V30 8509 H 825.779 3.78305 1.85643 0
M  V30 8510 H 824.503 2.55346 2.03632 0
M  V30 8511 H 823.162 3.65979 0.213231 0
M  V30 8512 H 822.81 4.30338 2.60419 0
M  V30 8513 H 822.51 5.67821 1.51173 0
M  V30 8514 H 824.034 5.59702 2.44061 0
M  V30 8515 H 825.448 5.73039 0.173095 0
M  V30 8516 H 823.845 5.97291 -0.580006 0
M  V30 8517 H 824.915 4.69969 -1.19404 0
M  V30 8518 N 826.258 0.243083 1.55714 0
M  V30 8519 C 827.206 -0.674349 2.2261 0
M  V30 8520 C 828.2 -1.18307 1.21243 0
M  V30 8521 O 829.406 -1.1404 1.39265 0
M  V30 8522 H 825.781 -0.235941 0.714028 0
M  V30 8523 H 827.752 -0.0869446 2.98273 0
M  V30 8524 C 826.501 -1.86206 2.93637 0
M  V30 8525 H 825.824 -1.47975 3.71407 0
M  V30 8526 H 827.264 -2.4813 3.43813 0
M  V30 8527 C 825.723 -2.73084 1.97298 0
M  V30 8528 O 826.253 -3.72497 1.50361 0
M  V30 8529 N 824.459 -2.39571 1.64482 0
M  V30 8530 H 824.006 -1.5878 2.02846 0
M  V30 8531 H 823.964 -2.97976 1.00288 0
M  V30 8532 N 827.736 -1.57571 -0.0300757 0
M  V30 8533 C 829.147 -1.77567 -0.576802 0
M  V30 8534 C 829.498 -0.874034 -1.75656 0
M  V30 8535 O 828.623 -0.0686124 -2.16291 0
M  V30 8536 C 829.218 -3.22016 -1.05315 0
M  V30 8537 C 827.777 -3.43212 -1.5454 0
M  V30 8538 C 826.924 -2.73061 -0.483033 0
M  V30 8539 H 829.875 -1.57483 0.196151 0
M  V30 8540 H 829.896 -3.28474 -1.92055 0
M  V30 8541 H 829.408 -3.87613 -0.194298 0
M  V30 8542 H 827.509 -2.82788 -2.42615 0
M  V30 8543 H 827.622 -4.5182 -1.5936 0
M  V30 8544 H 825.986 -2.36805 -0.937835 0
M  V30 8545 H 826.769 -3.4134 0.366341 0
M  V30 8546 N 829.214 0.302327 -1.54673 0
M  V30 8547 C 830.442 1.05669 -1.77881 0
M  V30 8548 C 830.857 1.80983 -0.537648 0
M  V30 8549 O 830.214 1.7573 0.492467 0
M  V30 8550 C 830.265 2.03828 -2.98557 0
M  V30 8551 O 829.986 1.3157 -4.17877 0
M  V30 8552 C 831.487 2.91314 -3.34143 0
M  V30 8553 H 828.707 0.313436 -0.593295 0
M  V30 8554 H 831.251 0.342003 -2.0162 0
M  V30 8555 H 829.406 2.70801 -2.7703 0
M  V30 8556 H 829.82 1.97481 -4.85903 0
M  V30 8557 H 831.294 3.56042 -4.21827 0
M  V30 8558 H 831.771 3.59544 -2.52239 0
M  V30 8559 H 832.377 2.29874 -3.57824 0
M  V30 8560 N 830.692 1.47107 0.565454 0
M  V30 8561 C 831.941 1.5257 1.31929 0
M  V30 8562 C 832.254 0.189092 1.94684 0
M  V30 8563 O 833.46 0.121657 2.71227 0
M  V30 8564 C 831.916 2.68914 2.39193 0
M  V30 8565 C 831.524 4.09069 1.82665 0
M  V30 8566 C 833.268 2.83663 3.1581 0
M  V30 8567 C 831.175 5.16726 2.87661 0
M  V30 8568 H 830.105 0.567869 0.496025 0
M  V30 8569 H 832.756 1.73361 0.60151 0
M  V30 8570 H 831.138 2.41486 3.13848 0
M  V30 8571 H 832.312 4.46364 1.14438 0
M  V30 8572 H 830.627 3.99135 1.1866 0
M  V30 8573 H 833.224 3.61261 3.94201 0
M  V30 8574 H 833.567 1.91804 3.69482 0
M  V30 8575 H 834.1 3.10821 2.48265 0
M  V30 8576 H 830.839 6.10433 2.38854 0
M  V30 8577 H 830.359 4.83957 3.54324 0
M  V30 8578 H 832.038 5.43319 3.51303 0
M  V30 8579 N 832.17 -0.811516 1.35101 0
M  V30 8580 C 833.586 -1.10634 1.15031 0
M  V30 8581 C 833.786 -2.01459 -0.0405379 0
M  V30 8582 O 832.842 -2.42235 -0.712635 0
M  V30 8583 C 834.155 -1.74207 2.45097 0
M  V30 8584 C 835.703 -1.8665 2.51258 0
M  V30 8585 C 836.178 -2.53638 3.81355 0
M  V30 8586 N 837.669 -2.61128 3.82579 0
M  V30 8587 C 838.404 -3.13717 4.79968 0
M  V30 8588 N 837.9 -3.66782 5.87744 0
M  V30 8589 N 839.693 -3.12224 4.67411 0
M  V30 8590 H 831.844 -0.207641 2.11383 0
M  V30 8591 H 834.107 -0.154697 0.935293 0
M  V30 8592 H 833.813 -1.14936 3.32389 0
M  V30 8593 H 833.687 -2.73958 2.59281 0
M  V30 8594 H 836.074 -2.45066 1.64398 0
M  V30 8595 H 836.155 -0.857678 2.40993 0
M  V30 8596 H 835.799 -1.95873 4.68611 0
M  V30 8597 H 835.729 -3.55047 3.88907 0
M  V30 8598 H 838.22 -2.23527 3.04703 0
M  V30 8599 H 838.533 -4.05194 6.58056 0
M  V30 8600 H 836.878 -3.64994 5.91443 0
M  V30 8601 H 840.069 -2.70042 3.82354 0
M  V30 8602 H 840.242 -3.52903 5.43474 0
M  V30 8603 N 833.648 -1.19017 -1.03309 0
M  V30 8604 C 834.558 -0.939303 -2.14975 0
M  V30 8605 C 835.574 0.0992359 -1.73717 0
M  V30 8606 O 836.75 -0.0844362 -2.01223 0
M  V30 8607 C 833.815 -0.476712 -3.43407 0
M  V30 8608 C 832.876 -1.58413 -3.99003 0
M  V30 8609 C 832.109 -1.14352 -5.21305 0
M  V30 8610 O 832.332 -0.00534408 -5.704 0
M  V30 8611 O 831.266 -1.94436 -5.6963 0
M  V30 8612 H 835.092 -1.87386 -2.38998 0
M  V30 8613 H 832.677 -0.972635 -1.13403 0
M  V30 8614 H 834.559 -0.22718 -4.20787 0
M  V30 8615 H 833.234 0.429455 -3.20839 0
M  V30 8616 H 832.141 -1.88777 -3.22977 0
M  V30 8617 H 833.474 -2.4667 -4.25928 0
M  V30 8618 N 835.127 1.22348 -0.993418 0
M  V30 8619 C 836.352 1.95666 -0.687727 0
M  V30 8620 C 836.777 1.72883 0.741161 0
M  V30 8621 O 836.135 1.00837 1.50671 0
M  V30 8622 C 836.183 3.46457 -0.99998 0
M  V30 8623 O 835.287 4.12281 -0.0989386 0
M  V30 8624 H 834.628 0.612102 -0.257346 0
M  V30 8625 H 837.158 1.55428 -1.33054 0
M  V30 8626 H 837.168 3.96976 -0.942035 0
M  V30 8627 H 835.843 3.62365 -2.04118 0
M  V30 8628 H 834.42 3.72295 -0.212413 0
M  V30 8629 N 836.605 0.766683 1.37694 0
M  V30 8630 C 837.853 0.328065 1.9942 0
M  V30 8631 C 838.174 -1.09775 1.61166 0
M  V30 8632 O 837.444 -1.75288 0.874686 0
M  V30 8633 H 836.024 0.11831 0.737572 0
M  V30 8634 H 838.686 0.983686 1.68255 0
M  V30 8635 H 837.782 0.401647 3.09505 0
M  V30 8636 N 838.083 -1.48885 0.516809 0
M  V30 8637 C 839.499 -1.58651 0.173788 0
M  V30 8638 C 839.699 -1.52033 -1.32243 0
M  V30 8639 O 838.755 -1.40251 -2.09967 0
M  V30 8640 C 840.068 -2.90816 0.764628 0
M  V30 8641 C 841.616 -3.04316 0.732164 0
M  V30 8642 C 842.091 -4.39123 1.30135 0
M  V30 8643 N 843.582 -4.45656 1.26273 0
M  V30 8644 C 844.317 -5.48446 1.67317 0
M  V30 8645 N 843.813 -6.58258 2.16028 0
M  V30 8646 N 845.606 -5.39251 1.58635 0
M  V30 8647 H 837.757 -1.5143 1.48939 0
M  V30 8648 H 840.02 -0.718243 0.618733 0
M  V30 8649 H 839.726 -3.01275 1.81456 0
M  V30 8650 H 839.6 -3.76473 0.234113 0
M  V30 8651 H 841.987 -2.93478 -0.308975 0
M  V30 8652 H 842.068 -2.20303 1.3 0
M  V30 8653 H 841.712 -4.50714 2.34135 0
M  V30 8654 H 841.642 -5.21801 0.709305 0
M  V30 8655 H 844.133 -3.66879 0.906006 0
M  V30 8656 H 844.446 -7.32811 2.45374 0
M  V30 8657 H 842.791 -6.59257 2.20013 0
M  V30 8658 H 845.982 -4.52354 1.20387 0
M  V30 8659 H 846.155 -6.19229 1.90944 0
M  V30 8660 N 839.561 -0.251338 -1.55583 0
M  V30 8661 C 840.808 0.372169 -1.99051 0
M  V30 8662 C 841.136 1.57623 -1.13953 0
M  V30 8663 O 840.391 1.94762 -0.191398 0
M  V30 8664 C 840.69 0.821186 -3.47838 0
M  V30 8665 C 840.356 -0.275608 -4.50057 0
M  V30 8666 C 839.018 -0.57683 -4.7773 0
M  V30 8667 C 841.37 -1.01585 -5.11204 0
M  V30 8668 C 838.698 -1.62229 -5.63825 0
M  V30 8669 C 841.05 -2.05087 -5.98433 0
M  V30 8670 C 839.714 -2.35869 -6.24437 0
M  V30 8671 H 838.984 0.136186 -0.728378 0
M  V30 8672 H 841.631 -0.360089 -1.88084 0
M  V30 8673 H 839.936 1.63272 -3.56159 0
M  V30 8674 H 841.633 1.31396 -3.78861 0
M  V30 8675 H 838.223 -0.030697 -4.28589 0
M  V30 8676 H 842.407 -0.79639 -4.89869 0
M  V30 8677 H 837.663 -1.86607 -5.82226 0
M  V30 8678 H 841.837 -2.62934 -6.44855 0
M  V30 8679 H 839.464 -3.17017 -6.90944 0
M  V30 8680 N 841.039 1.57585 0.0217189 0
M  V30 8681 C 842.288 1.88786 0.710125 0
M  V30 8682 C 842.601 0.850819 1.76126 0
M  V30 8683 O 843.807 1.0523 2.50277 0
M  V30 8684 C 842.263 3.3505 1.31413 0
M  V30 8685 C 841.871 4.47001 0.298959 0
M  V30 8686 C 843.615 3.7539 1.98199 0
M  V30 8687 C 841.522 5.8433 0.911727 0
M  V30 8688 H 840.452 0.704388 0.268986 0
M  V30 8689 H 843.103 1.83466 -0.0352638 0
M  V30 8690 H 841.485 3.35138 2.10947 0
M  V30 8691 H 842.659 4.58395 -0.470203 0
M  V30 8692 H 840.974 4.15542 -0.267222 0
M  V30 8693 H 843.571 4.75314 2.4491 0
M  V30 8694 H 843.914 3.07766 2.80331 0
M  V30 8695 H 844.447 3.77508 1.2543 0
M  V30 8696 H 841.186 6.55372 0.129659 0
M  V30 8697 H 840.706 5.76643 1.65056 0
M  V30 8698 H 842.385 6.31295 1.41688 0
M  V30 8699 N 842.517 -0.29412 1.54831 0
M  V30 8700 C 843.928 -0.866651 1.65366 0
M  V30 8701 C 844.279 -1.87834 0.56681 0
M  V30 8702 O 843.404 -2.14374 -0.295389 0
M  V30 8703 C 843.999 -1.57869 2.99771 0
M  V30 8704 C 842.558 -2.09954 3.12404 0
M  V30 8705 C 841.705 -0.934492 2.6108 0
M  V30 8706 H 844.656 -0.0709551 1.58541 0
M  V30 8707 H 844.677 -2.44462 2.91579 0
M  V30 8708 H 844.189 -0.84212 3.78853 0
M  V30 8709 H 842.29 -2.86637 2.38055 0
M  V30 8710 H 842.403 -2.32934 4.18663 0
M  V30 8711 H 840.767 -1.32199 2.17705 0
M  V30 8712 H 841.55 -0.211768 3.42646 0
M  V30 8713 N 843.995 -1.47404 -0.557645 0
M  V30 8714 C 845.225 -1.57393 -1.33832 0
M  V30 8715 C 845.633 -0.222978 -1.87881 0
M  V30 8716 O 844.976 0.793854 -1.65661 0
M  V30 8717 C 845.038 -2.53882 -2.54528 0
M  V30 8718 C 844.702 -3.99585 -2.21767 0
M  V30 8719 C 845.699 -4.88082 -1.79087 0
M  V30 8720 C 843.384 -4.44917 -2.3314 0
M  V30 8721 C 845.378 -6.1993 -1.48209 0
M  V30 8722 C 843.065 -5.76793 -2.01874 0
M  V30 8723 C 844.063 -6.64121 -1.59476 0
M  V30 8724 O 843.751 -7.93546 -1.28607 0
M  V30 8725 H 843.483 -0.534172 -0.41429 0
M  V30 8726 H 846.037 -1.93733 -0.682404 0
M  V30 8727 H 844.267 -2.12609 -3.23009 0
M  V30 8728 H 845.956 -2.54003 -3.16603 0
M  V30 8729 H 846.722 -4.54307 -1.69794 0
M  V30 8730 H 842.601 -3.77152 -2.65099 0
M  V30 8731 H 846.145 -6.88049 -1.15043 0
M  V30 8732 H 842.042 -6.1011 -2.10799 0
M  V30 8733 H 842.81 -8.06046 -1.42241 0
M  V30 8734 N 845.473 0.80434 -1.35529 0
M  V30 8735 C 846.719 1.56385 -1.29118 0
M  V30 8736 C 847.052 1.9374 0.133536 0
M  V30 8737 O 846.327 1.6153 1.08344 0
M  V30 8738 C 846.61 2.85097 -2.19981 0
M  V30 8739 C 846.463 2.54204 -3.7108 0
M  V30 8740 C 847.782 3.86817 -2.09907 0
M  V30 8741 H 844.901 0.567382 -0.470368 0
M  V30 8742 H 847.543 0.925235 -1.6595 0
M  V30 8743 H 845.693 3.39594 -1.88701 0
M  V30 8744 H 847.365 2.05872 -4.12813 0
M  V30 8745 H 845.608 1.87364 -3.91251 0
M  V30 8746 H 846.279 3.46068 -4.30048 0
M  V30 8747 H 848.755 3.41725 -2.37409 0
M  V30 8748 H 847.631 4.7465 -2.75678 0
M  V30 8749 H 847.892 4.28663 -1.08171 0
M  V30 8750 N 846.951 1.19563 1.02676 0
M  V30 8751 C 848.199 0.997593 1.75763 0
M  V30 8752 C 848.52 -0.47253 1.89188 0
M  V30 8753 O 847.79 -1.34214 1.42701 0
M  V30 8754 H 846.37 0.366128 0.651122 0
M  V30 8755 H 849.032 1.50495 1.23844 0
M  V30 8756 H 848.128 1.44741 2.76508 0
M  V30 8757 N 848.429 -1.21819 0.999893 0
M  V30 8758 C 849.392 -2.22227 0.561044 0
M  V30 8759 C 850.392 -1.56722 -0.359858 0
M  V30 8760 O 851.582 -1.73546 -0.150848 0
M  V30 8761 C 848.714 -3.40409 -0.182987 0
M  V30 8762 H 849.907 -2.62567 1.44909 0
M  V30 8763 H 847.46 -1.34991 0.78785 0
M  V30 8764 H 848.195 -3.05551 -1.08671 0
M  V30 8765 H 847.98 -3.89171 0.47833 0
M  V30 8766 H 849.47 -4.14856 -0.477952 0
M  V30 8767 N 849.908 -0.773975 -1.37286 0
M  V30 8768 C 851.154 -0.339809 -1.99933 0
M  V30 8769 C 851.487 1.0815 -1.61299 0
M  V30 8770 O 850.762 1.74442 -0.860252 0
M  V30 8771 C 851.045 -0.485919 -3.56806 0
M  V30 8772 C 850.898 -1.9498 -4.05343 0
M  V30 8773 C 852.217 0.108461 -4.39966 0
M  V30 8774 H 849.336 -0.124944 -0.726332 0
M  V30 8775 H 851.978 -0.977433 -1.6293 0
M  V30 8776 H 850.128 0.0569023 -3.88458 0
M  V30 8777 H 851.8 -2.5525 -3.84246 0
M  V30 8778 H 850.043 -2.45784 -3.57453 0
M  V30 8779 H 850.714 -2.00308 -5.14374 0
M  V30 8780 H 853.19 -0.354722 -4.14585 0
M  V30 8781 H 852.066 -0.0238926 -5.48895 0
M  V30 8782 H 852.327 1.19901 -4.25531 0
M  V30 8783 N 851.386 1.48609 -0.524698 0
M  V30 8784 C 852.616 2.06599 0.00741868 0
M  V30 8785 C 853.024 1.3823 1.29186 0
M  V30 8786 O 852.367 0.461962 1.77797 0
M  V30 8787 C 852.429 3.58184 0.307324 0
M  V30 8788 C 852.093 4.48391 -0.882864 0
M  V30 8789 C 853.09 4.88485 -1.77984 0
M  V30 8790 C 850.775 4.90367 -1.08837 0
M  V30 8791 C 852.769 5.69319 -2.86627 0
M  V30 8792 C 850.456 5.70972 -2.17794 0
M  V30 8793 C 851.454 6.10355 -3.06523 0
M  V30 8794 O 851.142 6.89343 -4.13596 0
M  V30 8795 H 850.874 0.675421 -0.0279846 0
M  V30 8796 H 853.428 1.92058 -0.7282 0
M  V30 8797 H 851.658 3.70818 1.09685 0
M  V30 8798 H 853.347 3.98318 0.780886 0
M  V30 8799 H 854.113 4.56682 -1.63299 0
M  V30 8800 H 849.992 4.592 -0.407035 0
M  V30 8801 H 853.536 5.99978 -3.55911 0
M  V30 8802 H 849.433 6.02188 -2.32465 0
M  V30 8803 H 850.201 7.07689 -4.1124 0
M  V30 8804 N 852.864 0.259585 1.55447 0
M  V30 8805 C 854.141 -0.412595 1.91199 0
M  V30 8806 C 854.521 -1.74909 1.18194 0
M  V30 8807 O 853.869 -2.26474 0.303603 0
M  V30 8808 C 854.079 -0.568195 3.44344 0
M  V30 8809 C 855.427 -0.858253 4.15836 0
M  V30 8810 O 856.451 -0.653588 3.50152 0
M  V30 8811 O 855.31 -1.24874 5.32042 0
M  V30 8812 H 852.404 -0.223403 0.796254 0
M  V30 8813 H 854.95 0.30459 1.66944 0
M  V30 8814 H 853.722 0.372989 3.89518 0
M  V30 8815 H 853.345 -1.33544 3.74502 0
M  V30 8816 N 854.342 -1.57594 -0.0133615 0
M  V30 8817 C 855.272 -2.10611 -1.00823 0
M  V30 8818 C 856.253 -1.01217 -1.36708 0
M  V30 8819 O 857.438 -1.28827 -1.45318 0
M  V30 8820 C 854.568 -2.59844 -2.30431 0
M  V30 8821 C 853.522 -3.73644 -2.08745 0
M  V30 8822 C 852.848 -4.09141 -3.4425 0
M  V30 8823 C 854.148 -5.01454 -1.46086 0
M  V30 8824 H 855.842 -2.93985 -0.566849 0
M  V30 8825 H 853.388 -1.41423 -0.271219 0
M  V30 8826 H 855.341 -2.95557 -3.00373 0
M  V30 8827 H 854.065 -1.73573 -2.76658 0
M  V30 8828 H 852.724 -3.38303 -1.41232 0
M  V30 8829 H 852.372 -3.19914 -3.88155 0
M  V30 8830 H 852.072 -4.85802 -3.3056 0
M  V30 8831 H 853.596 -4.47402 -4.15528 0
M  V30 8832 H 855.01 -5.35024 -2.05966 0
M  V30 8833 H 853.407 -5.82832 -1.42924 0
M  V30 8834 H 854.477 -4.83003 -0.428471 0
M  V30 8835 N 855.82 0.285905 -1.54985 0
M  V30 8836 C 856.768 1.37302 -1.87752 0
M  V30 8837 C 857.762 1.51763 -0.752616 0
M  V30 8838 O 858.968 1.53701 -0.936805 0
M  V30 8839 H 855.343 0.458935 -0.59572 0
M  V30 8840 H 857.314 1.0691 -2.78591 0
M  V30 8841 C 856.063 2.72885 -2.15474 0
M  V30 8842 H 855.386 2.62545 -3.01513 0
M  V30 8843 H 856.826 3.47925 -2.42331 0
M  V30 8844 C 855.285 3.22989 -0.958124 0
M  V30 8845 O 855.815 4.01268 -0.186219 0
M  V30 8846 N 854.021 2.80503 -0.759354 0
M  V30 8847 H 853.568 2.16961 -1.38874 0
M  V30 8848 H 853.526 3.14375 0.0396937 0
M  V30 8849 N 857.298 1.47698 0.54982 0
M  V30 8850 C 858.575 1.45185 1.31075 0
M  V30 8851 C 858.955 0.152768 2.10547 0
M  V30 8852 O 858.303 -0.865706 2.11466 0
M  V30 8853 C 858.513 2.70192 2.20902 0
M  V30 8854 C 859.861 3.1771 2.81683 0
M  V30 8855 O 860.885 2.70971 2.312 0
M  V30 8856 O 859.744 3.98986 3.7346 0
M  V30 8857 H 856.838 0.57892 0.590577 0
M  V30 8858 H 859.384 1.59908 0.568112 0
M  V30 8859 H 858.156 3.56269 1.61828 0
M  V30 8860 H 857.779 2.58091 3.02448 0
M  V30 8861 N 858.776 -0.797141 1.35954 0
M  V30 8862 C 860.004 -1.5858 1.32891 0
M  V30 8863 C 860.419 -1.88578 -0.0915564 0
M  V30 8864 O 859.776 -1.49532 -1.04625 0
M  V30 8865 C 859.827 -2.91143 2.14284 0
M  V30 8866 O 859.548 -2.62442 3.50793 0
M  V30 8867 C 861.049 -3.85476 2.18914 0
M  V30 8868 H 858.269 -0.492111 0.456144 0
M  V30 8869 H 860.813 -0.98994 1.78943 0
M  V30 8870 H 858.968 -3.47219 1.71807 0
M  V30 8871 H 859.382 -3.4715 3.93175 0
M  V30 8872 H 860.856 -4.75574 2.80238 0
M  V30 8873 H 861.333 -4.22758 1.19047 0
M  V30 8874 H 861.939 -3.35334 2.61593 0
M  V30 8875 N 860.254 -1.20106 -1.0204 0
M  V30 8876 C 861.484 -1.0329 -1.78927 0
M  V30 8877 C 861.892 0.421115 -1.84454 0
M  V30 8878 O 861.235 1.30422 -1.29367 0
M  V30 8879 C 861.297 -1.53627 -3.25021 0
M  V30 8880 C 860.961 -3.01869 -3.4311 0
M  V30 8881 C 861.958 -3.9956 -3.32638 0
M  V30 8882 C 859.643 -3.40746 -3.6905 0
M  V30 8883 C 861.637 -5.34119 -3.47844 0
M  V30 8884 C 859.324 -4.75462 -3.839 0
M  V30 8885 C 860.322 -5.71957 -3.73302 0
M  V30 8886 O 860.01 -7.04231 -3.87703 0
M  V30 8887 H 859.742 -0.363962 -0.569656 0
M  V30 8888 H 862.296 -1.59551 -1.29354 0
M  V30 8889 H 860.526 -0.917481 -3.75658 0
M  V30 8890 H 862.215 -1.32889 -3.8353 0
M  V30 8891 H 862.981 -3.70869 -3.12539 0
M  V30 8892 H 858.86 -2.66182 -3.76388 0
M  V30 8893 H 862.404 -6.09421 -3.39488 0
M  V30 8894 H 858.301 -5.03844 -4.03499 0
M  V30 8895 H 859.069 -7.11425 -4.04744 0
M  V30 8896 N 861.732 1.21287 -1.00634 0
M  V30 8897 C 862.957 1.94925 -0.708441 0
M  V30 8898 C 863.382 1.73659 0.722783 0
M  V30 8899 O 862.74 1.02429 1.49593 0
M  V30 8900 C 862.788 3.45377 -1.03667 0
M  V30 8901 O 861.892 4.12153 -0.142661 0
M  V30 8902 H 861.233 0.609338 -0.263824 0
M  V30 8903 H 863.763 1.54008 -1.34695 0
M  V30 8904 H 863.773 3.95954 -0.984086 0
M  V30 8905 H 862.448 3.6018 -2.0795 0
M  V30 8906 H 861.025 3.72048 -0.251888 0
M  V30 8907 N 863.21 0.781244 1.36873 0
M  V30 8908 C 864.456 0.350407 1.9975 0
M  V30 8909 C 864.789 -1.07293 1.6187 0
M  V30 8910 O 864.064 -1.73983 0.869491 0
M  V30 8911 C 864.347 0.504834 3.56544 0
M  V30 8912 C 864.2 1.97127 4.04303 0
M  V30 8913 C 865.519 -0.0851272 4.40018 0
M  V30 8914 H 862.638 0.128794 0.725659 0
M  V30 8915 H 865.28 0.98606 1.6241 0
M  V30 8916 H 863.43 -0.0363006 3.88483 0
M  V30 8917 H 865.102 2.57284 3.82887 0
M  V30 8918 H 863.345 2.47676 3.56145 0
M  V30 8919 H 864.016 2.03033 5.13305 0
M  V30 8920 H 866.492 0.376704 4.14391 0
M  V30 8921 H 865.368 0.0530015 5.48874 0
M  V30 8922 H 865.629 -1.17642 4.2616 0
M  V30 8923 N 864.689 -1.48329 0.532571 0
M  V30 8924 C 865.919 -2.066 0.00353785 0
M  V30 8925 C 866.327 -1.38913 -1.28451 0
M  V30 8926 O 865.67 -0.471385 -1.77549 0
M  V30 8927 C 865.732 -3.58342 -0.288324 0
M  V30 8928 C 865.396 -4.47917 0.906631 0
M  V30 8929 C 866.393 -4.87534 1.80572 0
M  V30 8930 C 864.078 -4.89783 1.11436 0
M  V30 8931 C 866.072 -5.6779 2.89642 0
M  V30 8932 C 863.759 -5.69809 2.20819 0
M  V30 8933 C 864.757 -6.08721 3.09755 0
M  V30 8934 O 864.445 -6.8714 4.17246 0
M  V30 8935 H 864.177 -0.675263 0.0315661 0
M  V30 8936 H 866.731 -1.91669 0.738375 0
M  V30 8937 H 864.961 -3.71395 -1.07717 0
M  V30 8938 H 866.65 -3.98726 -0.759752 0
M  V30 8939 H 867.416 -4.5581 1.65719 0
M  V30 8940 H 863.295 -4.58977 0.431382 0
M  V30 8941 H 866.839 -5.98082 3.59087 0
M  V30 8942 H 862.736 -6.00947 2.35655 0
M  V30 8943 H 863.504 -7.05498 4.14988 0
M  V30 8944 N 866.167 -0.267825 -1.55308 0
M  V30 8945 C 867.13 0.60965 -2.20943 0
M  V30 8946 C 868.13 1.0869 -1.18504 0
M  V30 8947 O 869.32 0.988248 -1.43455 0
M  V30 8948 C 866.452 1.84027 -2.86961 0
M  V30 8949 H 867.645 0.0366806 -2.99878 0
M  V30 8950 H 865.198 -0.0183941 -1.56289 0
M  V30 8951 H 865.933 2.45394 -2.1202 0
M  V30 8952 H 865.718 1.50605 -3.62023 0
M  V30 8953 H 867.208 2.46442 -3.37129 0
M  V30 8954 N 867.645 1.57599 0.00500368 0
M  V30 8955 C 868.87 1.95026 0.705663 0
M  V30 8956 C 869.295 0.869643 1.6679 0
M  V30 8957 O 868.653 -0.172659 1.80476 0
M  V30 8958 C 868.701 3.31545 1.4181 0
M  V30 8959 O 867.805 3.25495 2.53232 0
M  V30 8960 H 867.146 0.636808 0.188074 0
M  V30 8961 H 869.676 2.04547 -0.046696 0
M  V30 8962 H 869.686 3.66996 1.78265 0
M  V30 8963 H 868.361 4.09751 0.712543 0
M  V30 8964 H 866.938 3.01714 2.19142 0
M  V30 8965 N 869.123 -0.277682 1.55134 0
M  V30 8966 C 870.353 -1.02677 1.79279 0
M  V30 8967 C 870.761 -1.80599 0.563962 0
M  V30 8968 O 870.104 -1.77416 -0.476378 0
M  V30 8969 C 870.166 -2.03617 2.96277 0
M  V30 8970 C 869.83 -1.44676 4.33495 0
M  V30 8971 C 870.827 -0.864811 5.12657 0
M  V30 8972 C 868.512 -1.47537 4.80144 0
M  V30 8973 C 870.506 -0.319322 6.366 0
M  V30 8974 C 868.193 -0.926016 6.04043 0
M  V30 8975 C 869.191 -0.348988 6.82108 0
M  V30 8976 O 868.879 0.191964 8.03671 0
M  V30 8977 H 868.611 -0.309232 0.601125 0
M  V30 8978 H 871.165 -0.315308 2.02965 0
M  V30 8979 H 869.395 -2.78509 2.68272 0
M  V30 8980 H 871.084 -2.64616 3.07788 0
M  V30 8981 H 871.85 -0.835438 4.7775 0
M  V30 8982 H 867.729 -1.91389 4.19394 0
M  V30 8983 H 871.273 0.131709 6.97476 0
M  V30 8984 H 867.17 -0.952613 6.38432 0
M  V30 8985 H 867.938 0.0808779 8.1846 0
M  V30 8986 N 870.601 -1.47988 -0.541979 0
M  V30 8987 C 871.829 -1.59034 -1.32347 0
M  V30 8988 C 872.244 -0.246123 -1.87189 0
M  V30 8989 O 871.601 0.762889 -1.6579 0
M  V30 8990 C 871.652 -2.62759 -2.48274 0
M  V30 8991 O 871.373 -3.91963 -1.95695 0
M  V30 8992 C 872.874 -2.84133 -3.4027 0
M  V30 8993 H 870.094 -0.536574 -0.402901 0
M  V30 8994 H 872.638 -1.93725 -0.655045 0
M  V30 8995 H 870.793 -2.3096 -3.11025 0
M  V30 8996 H 871.207 -4.48769 -2.7149 0
M  V30 8997 H 872.681 -3.60538 -4.17991 0
M  V30 8998 H 873.158 -1.92512 -3.9476 0
M  V30 8999 H 873.764 -3.17188 -2.83322 0
M  V30 9000 N 872.079 0.78992 -1.36375 0
M  V30 9001 C 873.356 1.53584 -1.21126 0
M  V30 9002 C 873.736 2.10124 0.202785 0
M  V30 9003 O 873.084 1.93936 1.20835 0
M  V30 9004 C 873.294 2.63117 -2.29282 0
M  V30 9005 C 874.642 3.31013 -2.65924 0
M  V30 9006 O 875.666 2.734 -2.28321 0
M  V30 9007 O 874.525 4.35129 -3.30643 0
M  V30 9008 H 871.619 0.679366 -0.471583 0
M  V30 9009 H 874.165 0.828446 -1.48104 0
M  V30 9010 H 872.937 2.19329 -3.24053 0
M  V30 9011 H 872.56 3.41476 -2.03666 0
M  V30 9012 N 873.557 1.20646 1.01402 0
M  V30 9013 C 874.806 1.01242 1.7445 0
M  V30 9014 C 875.119 -0.455732 1.90217 0
M  V30 9015 O 876.325 -0.768951 2.60383 0
M  V30 9016 C 874.781 1.76275 3.13776 0
M  V30 9017 C 874.389 3.27201 3.06013 0
M  V30 9018 C 876.133 1.65248 3.91016 0
M  V30 9019 C 874.04 3.9476 4.40362 0
M  V30 9020 H 872.97 0.375202 0.654018 0
M  V30 9021 H 875.621 1.44292 1.13367 0
M  V30 9022 H 874.003 1.26013 3.75415 0
M  V30 9023 H 875.177 3.84695 2.53665 0
M  V30 9024 H 873.492 3.38669 2.42265 0
M  V30 9025 H 876.089 2.13061 4.90417 0
M  V30 9026 H 876.432 0.609128 4.1182 0
M  V30 9027 H 876.965 2.12937 3.3601 0
M  V30 9028 H 873.704 4.99258 4.24761 0
M  V30 9029 H 873.224 3.42054 4.92706 0
M  V30 9030 H 874.903 3.99159 5.09196 0
M  V30 9031 N 875.035 -1.20752 1.01276 0
M  V30 9032 C 876.282 -1.90021 0.699887 0
M  V30 9033 C 876.61 -1.78604 -0.770113 0
M  V30 9034 O 875.865 -1.16195 -1.57471 0
M  V30 9035 C 876.164 -3.40808 1.07633 0
M  V30 9036 C 875.83 -3.72423 2.54189 0
M  V30 9037 C 874.492 -3.80762 2.94234 0
M  V30 9038 C 876.844 -3.87025 3.49086 0
M  V30 9039 C 874.172 -4.01158 4.28123 0
M  V30 9040 C 876.524 -4.0893 4.82658 0
M  V30 9041 C 875.188 -4.15498 5.22415 0
M  V30 9042 H 874.458 -0.695335 0.256107 0
M  V30 9043 H 877.105 -1.43096 1.27263 0
M  V30 9044 H 875.41 -3.89521 0.421944 0
M  V30 9045 H 877.107 -3.92693 0.811997 0
M  V30 9046 H 873.697 -3.66529 2.22158 0
M  V30 9047 H 877.881 -3.79942 3.19309 0
M  V30 9048 H 873.137 -4.04476 4.58486 0
M  V30 9049 H 877.311 -4.19172 5.56119 0
M  V30 9050 H 874.938 -4.31055 6.26176 0
M  V30 9051 N 876.513 -0.788492 -1.36457 0
M  V30 9052 C 877.446 -0.132189 -2.27817 0
M  V30 9053 C 878.424 0.691166 -1.47179 0
M  V30 9054 O 879.608 0.662344 -1.7648 0
M  V30 9055 C 876.735 0.818386 -3.28664 0
M  V30 9056 C 875.781 0.0769392 -4.26431 0
M  V30 9057 S 876.614 -1.24666 -5.20786 0
M  V30 9058 C 877.77 -0.300063 -6.2518 0
M  V30 9059 H 878.003 -0.906824 -2.83132 0
M  V30 9060 H 875.536 -0.582666 -1.42984 0
M  V30 9061 H 877.494 1.36138 -3.87268 0
M  V30 9062 H 876.155 1.56626 -2.72263 0
M  V30 9063 H 875.348 0.79819 -4.97639 0
M  V30 9064 H 874.95 -0.395547 -3.71902 0
M  V30 9065 H 877.242 0.521434 -6.7549 0
M  V30 9066 H 878.185 -0.980808 -7.01274 0
M  V30 9067 H 878.593 0.0961898 -5.64418 0
M  V30 9068 N 877.991 1.48044 -0.54043 0
M  V30 9069 C 879.402 1.86418 -0.102662 0
M  V30 9070 C 879.753 1.4489 1.32293 0
M  V30 9071 O 878.878 0.844319 1.99249 0
M  V30 9072 C 879.473 3.38324 -0.179533 0
M  V30 9073 C 878.032 3.75852 0.203098 0
M  V30 9074 C 877.179 2.72097 -0.534637 0
M  V30 9075 H 880.13 1.398 -0.751103 0
M  V30 9076 H 880.151 3.75641 0.606147 0
M  V30 9077 H 879.663 3.68518 -1.21721 0
M  V30 9078 H 877.764 3.51272 1.24252 0
M  V30 9079 H 877.877 4.78884 -0.143784 0
M  V30 9080 H 876.241 2.54692 0.0203358 0
M  V30 9081 H 877.024 3.05135 -1.57314 0
M  V30 9082 N 879.47 0.276058 1.55163 0
M  V30 9083 C 880.402 -0.644254 2.19959 0
M  V30 9084 C 881.415 -1.11675 1.18459 0
M  V30 9085 O 882.604 -1.0385 1.45181 0
M  V30 9086 C 879.704 -1.89093 2.81242 0
M  V30 9087 C 878.877 -1.56509 4.08441 0
M  V30 9088 C 877.936 -2.66433 4.53762 0
M  V30 9089 O 876.962 -2.32579 5.19515 0
M  V30 9090 N 878.164 -3.96509 4.23982 0
M  V30 9091 H 880.929 -0.0896808 2.99566 0
M  V30 9092 H 878.49 0.0971981 1.61608 0
M  V30 9093 H 880.482 -2.61929 3.08505 0
M  V30 9094 H 879.052 -2.35453 2.05622 0
M  V30 9095 H 878.272 -0.670522 3.88455 0
M  V30 9096 H 879.56 -1.32242 4.91314 0
M  V30 9097 H 878.958 -4.26834 3.71254 0
M  V30 9098 H 877.515 -4.6572 4.56014 0
M  V30 9099 N 880.948 -1.576 0.00335426 0
M  V30 9100 C 882.225 -1.81945 -0.718015 0
M  V30 9101 C 882.605 -0.881788 -1.91801 0
M  V30 9102 O 881.953 0.0687118 -2.28397 0
M  V30 9103 C 882.163 -3.30521 -1.12058 0
M  V30 9104 C 883.511 -3.96345 -1.52303 0
M  V30 9105 O 884.535 -3.34864 -1.21428 0
M  V30 9106 O 883.394 -5.04655 -2.09728 0
M  V30 9107 H 880.488 -0.749328 -0.34991 0
M  V30 9108 H 883.034 -1.69675 0.0290654 0
M  V30 9109 H 881.806 -3.90399 -0.265378 0
M  V30 9110 H 881.429 -3.47802 -1.92665 0
M  V30 9111 N 882.426 0.269451 -1.5528 0
M  V30 9112 C 883.651 1.02299 -1.80415 0
M  V30 9113 C 884.076 1.7902 -0.577363 0
M  V30 9114 O 883.434 1.75018 0.473125 0
M  V30 9115 C 883.482 1.95445 -3.0304 0
M  V30 9116 O 882.586 3.04271 -2.78375 0
M  V30 9117 H 881.927 0.292289 -0.596207 0
M  V30 9118 H 884.457 0.297282 -2.02429 0
M  V30 9119 H 884.467 2.37333 -3.31869 0
M  V30 9120 H 883.142 1.39017 -3.91978 0
M  V30 9121 H 881.719 2.66673 -2.60653 0
M  V30 9122 N 883.904 1.48273 0.534124 0
M  V30 9123 C 885.15 1.5729 1.28963 0
M  V30 9124 C 885.505 0.241854 1.90874 0
M  V30 9125 O 884.798 -0.754874 1.76103 0
M  V30 9126 C 884.992 2.64468 2.40398 0
M  V30 9127 C 884.821 4.07865 1.8941 0
M  V30 9128 C 883.591 4.75052 1.72202 0
M  V30 9129 C 885.789 4.94163 1.42505 0
M  V30 9130 N 883.771 6.0288 1.15795 0
M  V30 9131 C 885.142 6.12203 0.980176 0
M  V30 9132 C 887.197 4.8042 1.30769 0
M  V30 9133 C 885.9 7.18016 0.429591 0
M  V30 9134 C 887.926 5.86351 0.771107 0
M  V30 9135 C 887.288 7.03597 0.336287 0
M  V30 9136 H 883.387 0.630141 0.463083 0
M  V30 9137 H 885.971 1.85135 0.602767 0
M  V30 9138 H 884.142 2.38453 3.06586 0
M  V30 9139 H 885.874 2.63194 3.07426 0
M  V30 9140 H 882.629 4.3132 1.95603 0
M  V30 9141 H 883.053 6.71043 0.896141 0
M  V30 9142 H 887.695 3.90119 1.62993 0
M  V30 9143 H 885.413 8.08044 0.0950224 0
M  V30 9144 H 888.999 5.77771 0.68354 0
M  V30 9145 H 887.879 7.84167 -0.0724668 0
M  V30 9146 N 885.382 -0.782676 1.36792 0
M  V30 9147 C 886.612 -1.56934 1.3437 0
M  V30 9148 C 887.02 -1.89049 -0.0754828 0
M  V30 9149 O 886.363 -1.51103 -1.04467 0
M  V30 9150 C 886.425 -2.91311 2.10661 0
M  V30 9151 C 886.089 -2.81889 3.59705 0
M  V30 9152 C 887.086 -2.53668 4.53815 0
M  V30 9153 C 884.771 -3.00254 4.02682 0
M  V30 9154 C 886.765 -2.43925 5.8888 0
M  V30 9155 C 884.452 -2.90132 5.37835 0
M  V30 9156 C 885.45 -2.62006 6.30747 0
M  V30 9157 O 885.138 -2.5189 7.63418 0
M  V30 9158 H 884.87 -0.493194 0.462316 0
M  V30 9159 H 887.424 -0.978791 1.80579 0
M  V30 9160 H 885.654 -3.52443 1.59125 0
M  V30 9161 H 887.343 -3.52632 2.01012 0
M  V30 9162 H 888.109 -2.39176 4.21924 0
M  V30 9163 H 883.988 -3.21151 3.30731 0
M  V30 9164 H 887.532 -2.21892 6.6137 0
M  V30 9165 H 883.429 -3.04189 5.69332 0
M  V30 9166 H 884.197 -2.67321 7.73616 0
M  V30 9167 N 886.86 -1.21182 -1.00761 0
M  V30 9168 C 888.276 -0.968607 -1.26847 0
M  V30 9169 C 888.476 0.346561 -1.98497 0
M  V30 9170 O 887.532 1.07287 -2.28573 0
M  V30 9171 C 888.845 -2.1574 -2.09467 0
M  V30 9172 C 890.393 -2.19937 -2.22703 0
M  V30 9173 C 890.868 -3.38328 -3.08704 0
M  V30 9174 N 892.359 -3.38398 -3.16293 0
M  V30 9175 C 893.094 -4.26653 -3.83086 0
M  V30 9176 N 892.59 -5.25101 -4.5193 0
M  V30 9177 N 894.383 -4.14469 -3.797 0
M  V30 9178 H 886.534 -2.05763 -0.526816 0
M  V30 9179 H 888.797 -0.90087 -0.29519 0
M  V30 9180 H 888.503 -3.11034 -1.64167 0
M  V30 9181 H 888.377 -2.14584 -3.10216 0
M  V30 9182 H 890.764 -1.25201 -2.67224 0
M  V30 9183 H 890.845 -2.25139 -1.21433 0
M  V30 9184 H 890.489 -4.33356 -2.64886 0
M  V30 9185 H 890.419 -3.30364 -4.10082 0
M  V30 9186 H 892.91 -2.67149 -2.67282 0
M  V30 9187 H 893.223 -5.8875 -5.00592 0
M  V30 9188 H 891.568 -5.29029 -4.50726 0
M  V30 9189 H 894.759 -3.3682 -3.25069 0
M  V30 9190 H 894.932 -4.83458 -4.31477 0
M  V30 9191 N 888.338 1.20213 -1.01915 0
M  V30 9192 C 889.615 1.85348 -0.62495 0
M  V30 9193 C 889.995 1.91101 0.896854 0
M  V30 9194 O 889.343 1.42075 1.78961 0
M  V30 9195 C 889.553 3.24849 -1.27571 0
M  V30 9196 C 890.901 4.01107 -1.39277 0
M  V30 9197 O 891.925 3.34211 -1.23212 0
M  V30 9198 O 890.784 5.20914 -1.6526 0
M  V30 9199 H 887.878 0.798303 -0.215965 0
M  V30 9200 H 890.424 1.27782 -1.11669 0
M  V30 9201 H 889.196 3.1544 -2.31545 0
M  V30 9202 H 888.819 3.90049 -0.77122 0
M  V30 9203 N 889.816 0.795718 1.36037 0
M  V30 9204 C 891.041 0.38204 2.03851 0
M  V30 9205 C 891.466 -0.995553 1.59594 0
M  V30 9206 O 890.824 -1.64258 0.767401 0
M  V30 9207 C 890.872 0.461248 3.57638 0
M  V30 9208 O 889.976 -0.529448 4.08987 0
M  V30 9209 H 889.317 0.161227 0.644129 0
M  V30 9210 H 891.847 1.07858 1.73861 0
M  V30 9211 H 891.857 0.32712 4.06687 0
M  V30 9212 H 890.532 1.46613 3.89201 0
M  V30 9213 H 889.109 -0.35646 3.71192 0
M  V30 9214 N 891.294 -1.47756 0.548274 0
M  V30 9215 C 892.519 -2.07387 0.023475 0
M  V30 9216 C 892.944 -1.39956 -1.25674 0
M  V30 9217 O 892.302 -0.471543 -1.7506 0
M  V30 9218 C 892.35 -3.60224 -0.164669 0
M  V30 9219 O 891.454 -3.93653 -1.22928 0
M  V30 9220 H 890.795 -0.662312 0.0473156 0
M  V30 9221 H 893.325 -1.89905 0.761409 0
M  V30 9222 H 893.335 -4.06211 -0.38166 0
M  V30 9223 H 892.01 -4.08702 0.770425 0
M  V30 9224 H 890.587 -3.59422 -0.993495 0
M  V30 9225 N 892.772 -0.284283 -1.55015 0
M  V30 9226 C 893.72 0.615091 -2.2432 0
M  V30 9227 C 894.714 1.15051 -1.24337 0
M  V30 9228 O 895.92 1.10308 -1.4224 0
M  V30 9229 H 892.295 0.216927 -0.720033 0
M  V30 9230 H 894.266 0.00783216 -2.98399 0
M  V30 9231 C 893.015 1.78355 -2.98471 0
M  V30 9232 H 892.338 1.38076 -3.752 0
M  V30 9233 H 893.778 2.38927 -3.50271 0
M  V30 9234 C 892.237 2.67757 -2.04469 0
M  V30 9235 O 892.767 3.6838 -1.60185 0
M  V30 9236 N 890.973 2.35125 -1.70776 0
M  V30 9237 H 890.52 1.53346 -2.06985 0
M  V30 9238 H 890.478 2.95212 -1.08153 0
M  V30 9239 N 894.251 1.57596 -0.0117121 0
M  V30 9240 C 895.198 2.09153 0.975897 0
M  V30 9241 C 896.168 0.989579 1.33404 0
M  V30 9242 O 897.353 1.26273 1.43038 0
M  V30 9243 C 894.493 2.60906 2.2588 0
M  V30 9244 C 893.606 3.85046 1.95866 0
M  V30 9245 C 892.741 4.25257 3.18323 0
M  V30 9246 C 891.78 5.42202 2.84049 0
M  V30 9247 N 890.917 5.77651 3.99079 0
M  V30 9248 H 895.757 2.93261 0.52931 0
M  V30 9249 H 893.294 1.44965 0.249691 0
M  V30 9250 H 895.252 2.88995 3.00895 0
M  V30 9251 H 893.882 1.79654 2.68187 0
M  V30 9252 H 892.934 3.63794 1.11168 0
M  V30 9253 H 894.246 4.70151 1.66611 0
M  V30 9254 H 893.4 4.5469 4.01674 0
M  V30 9255 H 892.139 3.38884 3.50726 0
M  V30 9256 H 891.144 5.1248 1.99107 0
M  V30 9257 H 892.369 6.3026 2.52881 0
M  V30 9258 H 890.315 4.94235 4.31356 0
M  V30 9259 H 890.232 6.57356 3.73388 0
M  V30 9260 H 891.5 6.11681 4.83183 0
M  V30 9261 N 895.729 -0.261212 1.5542 0
M  V30 9262 C 896.659 -1.32712 1.92119 0
M  V30 9263 C 897.64 -1.50934 0.784406 0
M  V30 9264 O 898.825 -1.63781 1.04352 0
M  V30 9265 C 895.955 -2.68453 2.20341 0
M  V30 9266 C 894.909 -2.64947 3.36136 0
M  V30 9267 C 894.235 -4.04349 3.49865 0
M  V30 9268 C 895.535 -2.23182 4.72215 0
M  V30 9269 H 897.229 -1.02245 2.81401 0
M  V30 9270 H 894.775 -0.490406 1.35392 0
M  V30 9271 H 896.728 -3.43144 2.44603 0
M  V30 9272 H 895.452 -3.00527 1.27871 0
M  V30 9273 H 894.111 -1.92714 3.11861 0
M  V30 9274 H 893.759 -4.33665 2.5484 0
M  V30 9275 H 893.459 -4.02895 4.27726 0
M  V30 9276 H 894.983 -4.80761 3.76432 0
M  V30 9277 H 896.397 -2.87599 4.95943 0
M  V30 9278 H 894.794 -2.32867 5.53076 0
M  V30 9279 H 895.864 -1.18327 4.70241 0
M  V30 9280 N 897.207 -1.48554 -0.526253 0
M  V30 9281 C 898.137 -1.66252 -1.63959 0
M  V30 9282 C 899.118 -0.511351 -1.62232 0
M  V30 9283 O 900.303 -0.744322 -1.7937 0
M  V30 9284 C 897.433 -1.70556 -3.02536 0
M  V30 9285 C 896.387 -2.8521 -3.19123 0
M  V30 9286 C 895.713 -2.74606 -4.58798 0
M  V30 9287 C 897.013 -4.26463 -3.0154 0
M  V30 9288 H 898.707 -2.59459 -1.49404 0
M  V30 9289 H 896.253 -1.24862 -0.717326 0
M  V30 9290 H 898.206 -1.81524 -3.80298 0
M  V30 9291 H 896.93 -0.739297 -3.18123 0
M  V30 9292 H 895.589 -2.73802 -2.43779 0
M  V30 9293 H 895.237 -1.75941 -4.71226 0
M  V30 9294 H 894.937 -3.51544 -4.70841 0
M  V30 9295 H 896.461 -2.87548 -5.38655 0
M  V30 9296 H 897.875 -4.38685 -3.69091 0
M  V30 9297 H 896.272 -5.04428 -3.25073 0
M  V30 9298 H 897.342 -4.42667 -1.97925 0
M  V30 9299 N 898.685 0.775411 -1.37205 0
M  V30 9300 C 899.595 1.91967 -1.34855 0
M  V30 9301 C 900.611 1.72214 -0.248656 0
M  V30 9302 O 901.787 1.95512 -0.483421 0
M  V30 9303 C 898.852 3.27038 -1.15096 0
M  V30 9304 C 897.913 3.5947 -2.34691 0
M  V30 9305 C 897.146 4.88097 -2.15865 0
M  V30 9306 O 897.369 5.58871 -1.14102 0
M  V30 9307 O 896.303 5.19507 -3.03967 0
M  V30 9308 H 900.129 1.969 -2.31223 0
M  V30 9309 H 897.714 0.917647 -1.17897 0
M  V30 9310 H 899.596 4.07837 -1.0605 0
M  V30 9311 H 898.271 3.22965 -0.217999 0
M  V30 9312 H 897.178 2.7892 -2.49308 0
M  V30 9313 H 898.511 3.68282 -3.26541 0
M  V30 9314 N 900.163 1.21714 1.00117 0
M  V30 9315 C 901.574 1.03477 1.55401 0
M  V30 9316 C 901.925 -0.40429 1.91989 0
M  V30 9317 O 901.05 -1.28807 1.7389 0
M  V30 9318 C 901.645 1.87213 2.82377 0
M  V30 9319 C 900.204 1.73297 3.34133 0
M  V30 9320 C 899.351 1.84189 2.07291 0
M  V30 9321 H 902.302 1.3568 0.823195 0
M  V30 9322 H 902.323 1.38465 3.54412 0
M  V30 9323 H 901.835 2.91944 2.55715 0
M  V30 9324 H 899.936 0.712662 3.65721 0
M  V30 9325 H 900.049 2.55486 4.05294 0
M  V30 9326 H 898.413 1.27538 2.20468 0
M  V30 9327 H 899.196 2.90435 1.83037 0
M  V30 9328 N 901.641 -1.19671 1.02551 0
M  V30 9329 C 902.918 -1.85014 0.634771 0
M  V30 9330 C 903.298 -1.91574 -0.886706 0
M  V30 9331 O 902.646 -1.43022 -1.78205 0
M  V30 9332 C 902.856 -3.24167 1.29292 0
M  V30 9333 C 904.204 -4.00363 1.41402 0
M  V30 9334 O 905.228 -3.33553 1.24983 0
M  V30 9335 O 904.087 -5.2003 1.6802 0
M  V30 9336 H 901.181 -0.797147 0.220196 0
M  V30 9337 H 903.727 -1.27188 1.12345 0
M  V30 9338 H 902.499 -3.14208 2.33215 0
M  V30 9339 H 902.122 -3.89634 0.791895 0
M  V30 9340 N 903.119 -0.802921 -1.35613 0
M  V30 9341 C 904.029 -0.212177 -2.33639 0
M  V30 9342 C 905.045 0.642871 -1.61689 0
M  V30 9343 O 906.221 0.555485 -1.93588 0
M  V30 9344 C 903.286 0.632406 -3.40883 0
M  V30 9345 C 902.347 -0.242708 -4.28613 0
M  V30 9346 C 901.58 0.56166 -5.30736 0
M  V30 9347 O 901.803 1.79664 -5.41366 0
M  V30 9348 O 900.737 -0.0455387 -6.01883 0
M  V30 9349 H 904.563 -1.023 -2.85952 0
M  V30 9350 H 902.148 -0.564636 -1.38319 0
M  V30 9351 H 904.03 1.11358 -4.0642 0
M  V30 9352 H 902.705 1.42089 -2.90848 0
M  V30 9353 H 901.612 -0.77094 -3.6607 0
M  V30 9354 H 902.945 -0.995046 -4.82037 0
M  V30 9355 N 904.597 1.47463 -0.556102 0
M  V30 9356 C 905.845 2.02075 -0.0315712 0
M  V30 9357 C 906.166 1.43292 1.32259 0
M  V30 9358 O 905.436 0.60771 1.86236 0
M  V30 9359 H 904.016 0.74695 -0.0086816 0
M  V30 9360 H 906.678 1.80879 -0.725859 0
M  V30 9361 H 905.774 3.12047 0.0573538 0
M  V30 9362 N 906.075 0.2925 1.54862 0
M  V30 9363 C 907.007 -0.620889 2.2063 0
M  V30 9364 C 908.02 -1.10412 1.19637 0
M  V30 9365 O 909.209 -1.02304 1.46274 0
M  V30 9366 C 906.309 -1.861 2.83232 0
M  V30 9367 C 905.482 -1.52168 4.10078 0
M  V30 9368 C 904.541 -2.61605 4.56562 0
M  V30 9369 O 903.567 -2.27056 5.21952 0
M  V30 9370 N 904.769 -3.9199 4.28163 0
M  V30 9371 H 907.534 -0.0579028 2.99644 0
M  V30 9372 H 905.095 0.114333 1.61496 0
M  V30 9373 H 907.087 -2.58642 3.11266 0
M  V30 9374 H 905.657 -2.33259 2.08108 0
M  V30 9375 H 904.877 -0.629283 3.89145 0
M  V30 9376 H 906.165 -1.27023 4.92689 0
M  V30 9377 H 905.563 -4.22872 3.7576 0
M  V30 9378 H 904.12 -4.60857 4.60928 0
M  V30 9379 N 907.553 -1.57587 0.0200696 0
M  V30 9380 C 908.501 -2.10814 -0.982868 0
M  V30 9381 C 909.495 -1.03263 -1.34287 0
M  V30 9382 O 910.701 -1.21708 -1.32617 0
M  V30 9383 H 907.076 -0.673409 -0.334701 0
M  V30 9384 H 909.047 -2.94034 -0.50856 0
M  V30 9385 C 907.796 -2.64301 -2.25921 0
M  V30 9386 H 907.119 -3.46703 -1.99091 0
M  V30 9387 H 908.559 -3.052 -2.94328 0
M  V30 9388 C 907.018 -1.56628 -2.98277 0
M  V30 9389 O 907.548 -0.960825 -3.9004 0
M  V30 9390 N 905.754 -1.28889 -2.60453 0
M  V30 9391 H 905.301 -1.7831 -1.85912 0
M  V30 9392 H 905.259 -0.570697 -3.09177 0
M  V30 9393 N 909.032 0.252966 -1.55557 0
M  V30 9394 C 910.262 0.998115 -1.8089 0
M  V30 9395 C 910.67 1.79679 -0.592623 0
M  V30 9396 O 910.013 1.78151 0.448093 0
M  V30 9397 C 910.075 1.98878 -2.99479 0
M  V30 9398 C 909.739 1.37761 -4.35742 0
M  V30 9399 C 910.736 0.783142 -5.13968 0
M  V30 9400 C 908.421 1.39879 -4.8243 0
M  V30 9401 C 910.415 0.218004 -6.37027 0
M  V30 9402 C 908.102 0.829801 -6.0544 0
M  V30 9403 C 909.1 0.240426 -6.82577 0
M  V30 9404 O 908.788 -0.319797 -8.03264 0
M  V30 9405 H 908.52 0.29963 -0.605969 0
M  V30 9406 H 911.074 0.282978 -2.03441 0
M  V30 9407 H 909.304 2.74206 -2.72669 0
M  V30 9408 H 910.993 2.59686 -3.11959 0
M  V30 9409 H 911.759 0.759326 -4.79019 0
M  V30 9410 H 907.638 1.84692 -4.22386 0
M  V30 9411 H 911.182 -0.242654 -6.97178 0
M  V30 9412 H 907.079 0.850924 -6.39867 0
M  V30 9413 H 907.847 -0.211078 -8.18228 0
M  V30 9414 N 910.51 1.48831 0.518367 0
M  V30 9415 C 911.42 1.6692 1.64848 0
M  V30 9416 C 912.436 0.551711 1.65022 0
M  V30 9417 O 913.612 0.824251 1.83761 0
M  V30 9418 C 910.677 1.71559 3.01278 0
M  V30 9419 C 909.738 2.9502 3.11868 0
M  V30 9420 C 908.971 2.99428 4.4179 0
M  V30 9421 O 909.194 2.11914 5.29574 0
M  V30 9422 O 908.128 3.91719 4.5699 0
M  V30 9423 H 911.954 2.62623 1.52521 0
M  V30 9424 H 909.539 1.32368 0.692749 0
M  V30 9425 H 911.421 1.77064 3.82396 0
M  V30 9426 H 910.096 0.790316 3.13904 0
M  V30 9427 H 909.003 2.95042 2.30003 0
M  V30 9428 H 910.336 3.8697 3.04163 0
M  V30 9429 N 911.988 -0.768124 1.37614 0
M  V30 9430 C 913.237 -1.5221 1.32345 0
M  V30 9431 C 913.55 -1.95399 -0.0885761 0
M  V30 9432 O 914.756 -2.70216 -0.263752 0
M  V30 9433 C 913.212 -2.74872 2.32322 0
M  V30 9434 C 912.82 -2.38767 3.79071 0
M  V30 9435 C 914.564 -3.52805 2.36069 0
M  V30 9436 C 912.471 -3.57953 4.7077 0
M  V30 9437 H 911.401 -0.571461 0.491883 0
M  V30 9438 H 914.052 -0.841004 1.63093 0
M  V30 9439 H 912.434 -3.44889 1.94596 0
M  V30 9440 H 913.608 -1.7651 4.25654 0
M  V30 9441 H 911.923 -1.74 3.78303 0
M  V30 9442 H 914.52 -4.41397 3.01782 0
M  V30 9443 H 914.863 -3.92925 1.37535 0
M  V30 9444 H 915.396 -2.89788 2.72521 0
M  V30 9445 H 912.135 -3.22911 5.70446 0
M  V30 9446 H 911.655 -4.19302 4.28889 0
M  V30 9447 H 913.334 -4.2472 4.8808 0
M  V30 9448 N 913.466 -1.22244 -0.994698 0
M  V30 9449 C 914.714 -1.04384 -1.73056 0
M  V30 9450 C 915.035 0.422204 -1.90374 0
M  V30 9451 O 914.305 1.30383 -1.46209 0
M  V30 9452 H 912.885 -0.383263 -0.641185 0
M  V30 9453 H 915.547 -1.53725 -1.1981 0
M  V30 9454 H 914.643 -1.52021 -2.72573 0
M  V30 9455 N 914.944 1.19125 -1.03184 0
M  V30 9456 C 916.193 1.8821 -0.725264 0
M  V30 9457 C 916.506 1.80674 0.749411 0
M  V30 9458 O 917.712 2.45037 1.16915 0
M  V30 9459 C 916.168 3.37607 -1.24697 0
M  V30 9460 C 915.776 3.53693 -2.74964 0
M  V30 9461 C 917.52 4.12149 -1.01652 0
M  V30 9462 C 915.427 4.97001 -3.20538 0
M  V30 9463 H 914.357 0.704916 -0.267599 0
M  V30 9464 H 917.008 1.34663 -1.24652 0
M  V30 9465 H 915.39 3.90569 -0.653614 0
M  V30 9466 H 916.564 3.11046 -3.39981 0
M  V30 9467 H 914.879 2.92544 -2.96322 0
M  V30 9468 H 917.476 5.17837 -1.33226 0
M  V30 9469 H 917.819 4.16274 0.0465712 0
M  V30 9470 H 918.352 3.65334 -1.57403 0
M  V30 9471 H 915.091 4.9804 -4.26189 0
M  V30 9472 H 914.611 5.40398 -2.60251 0
M  V30 9473 H 916.29 5.65669 -3.14049 0
M  V30 9474 N 916.422 0.810101 1.35185 0
M  V30 9475 C 917.369 0.220927 2.2974 0
M  V30 9476 C 918.339 -0.647024 1.5298 0
M  V30 9477 O 919.524 -0.591367 1.81404 0
M  V30 9478 C 916.664 -0.62167 3.39454 0
M  V30 9479 C 915.777 0.267104 4.31173 0
M  V30 9480 C 914.912 -0.583833 5.27982 0
M  V30 9481 C 913.951 0.305123 6.11339 0
M  V30 9482 N 913.088 -0.505992 7.00274 0
M  V30 9483 H 917.928 1.03266 2.79536 0
M  V30 9484 H 915.465 0.520768 1.37573 0
M  V30 9485 H 917.423 -1.12539 4.01735 0
M  V30 9486 H 916.053 -1.39863 2.90926 0
M  V30 9487 H 915.105 0.88895 3.69867 0
M  V30 9488 H 916.417 0.951182 4.89647 0
M  V30 9489 H 915.571 -1.15254 5.95652 0
M  V30 9490 H 914.31 -1.30146 4.70014 0
M  V30 9491 H 913.315 0.886075 5.42613 0
M  V30 9492 H 914.54 1.02067 6.71386 0
M  V30 9493 H 912.486 -1.20753 6.4479 0
M  V30 9494 H 912.403 0.119966 7.55905 0
M  V30 9495 H 913.671 -1.05787 7.72288 0
M  V30 9496 N 917.9 -1.47166 0.563914 0
M  V30 9497 C 919.148 -2.02056 0.0422873 0
M  V30 9498 C 919.469 -1.43992 -1.31497 0
M  V30 9499 O 918.739 -0.617578 -1.85911 0
M  V30 9500 H 917.319 -0.746893 0.0126427 0
M  V30 9501 H 919.981 -1.80492 0.735441 0
M  V30 9502 H 919.077 -3.12073 -0.0408044 0
M  V30 9503 N 919.378 -0.300708 -1.54705 0
M  V30 9504 C 920.288 0.584996 -2.27189 0
M  V30 9505 C 921.304 1.14866 -1.30697 0
M  V30 9506 O 922.48 1.17351 -1.63679 0
M  V30 9507 C 919.545 1.74076 -2.99831 0
M  V30 9508 C 918.606 1.2112 -4.1186 0
M  V30 9509 C 917.839 2.31188 -4.81028 0
M  V30 9510 O 918.062 3.5108 -4.49554 0
M  V30 9511 O 916.996 1.97897 -5.68437 0
M  V30 9512 H 920.822 -0.00298177 -3.037 0
M  V30 9513 H 918.407 -0.0671802 -1.49249 0
M  V30 9514 H 920.289 2.41413 -3.45395 0
M  V30 9515 H 918.964 2.31535 -2.26215 0
M  V30 9516 H 917.871 0.50357 -3.70695 0
M  V30 9517 H 919.204 0.682046 -4.87452 0
M  V30 9518 N 920.856 1.57574 -0.0284266 0
M  V30 9519 C 922.086 1.95787 0.659617 0
M  V30 9520 C 922.494 0.903475 1.66235 0
M  V30 9521 O 921.837 -0.12329 1.83286 0
M  V30 9522 C 921.899 3.30139 1.42298 0
M  V30 9523 C 921.563 4.53322 0.578658 0
M  V30 9524 C 922.56 5.19696 -0.145751 0
M  V30 9525 C 920.245 4.9964 0.516264 0
M  V30 9526 C 922.239 6.30708 -0.921235 0
M  V30 9527 C 919.926 6.10534 -0.262925 0
M  V30 9528 C 920.924 6.75927 -0.980382 0
M  V30 9529 O 920.612 7.84692 -1.7468 0
M  V30 9530 H 920.344 0.649681 0.186792 0
M  V30 9531 H 922.898 2.05227 -0.0842687 0
M  V30 9532 H 921.128 3.17188 2.21199 0
M  V30 9533 H 922.817 3.53259 1.99906 0
M  V30 9534 H 923.583 4.84882 -0.106876 0
M  V30 9535 H 919.462 4.48547 1.06427 0
M  V30 9536 H 923.006 6.81682 -1.48176 0
M  V30 9537 H 918.903 6.44786 -0.303519 0
M  V30 9538 H 919.671 8.01355 -1.6665 0
M  V30 9539 N 922.334 -0.244713 1.55689 0
M  V30 9540 C 923.264 -1.30667 1.93516 0
M  V30 9541 C 924.245 -1.50094 0.800371 0
M  V30 9542 O 925.43 -1.62665 1.06083 0
M  V30 9543 C 922.56 -2.66101 2.23176 0
M  V30 9544 C 921.514 -2.61366 3.38927 0
M  V30 9545 C 920.84 -4.00616 3.54134 0
M  V30 9546 C 922.14 -2.18161 4.74555 0
M  V30 9547 H 923.834 -0.992546 2.82469 0
M  V30 9548 H 921.38 -0.476018 1.35905 0
M  V30 9549 H 923.333 -3.4053 2.48228 0
M  V30 9550 H 922.057 -2.99154 1.31051 0
M  V30 9551 H 920.716 -1.89395 3.13887 0
M  V30 9552 H 920.364 -4.30938 2.59426 0
M  V30 9553 H 920.064 -3.98335 4.31975 0
M  V30 9554 H 921.588 -4.76741 3.8151 0
M  V30 9555 H 923.002 -2.82323 4.98965 0
M  V30 9556 H 921.399 -2.26988 5.55515 0
M  V30 9557 H 922.469 -1.13333 4.7147 0
M  V30 9558 N 923.813 -1.49104 -0.510467 0
M  V30 9559 C 925.09 -1.48609 -1.27179 0
M  V30 9560 C 925.47 -0.208537 -2.10067 0
M  V30 9561 O 924.818 0.809335 -2.13687 0
M  V30 9562 C 925.028 -2.75953 -2.1366 0
M  V30 9563 C 926.376 -3.25067 -2.73161 0
M  V30 9564 O 927.4 -2.77005 -2.23934 0
M  V30 9565 O 926.259 -4.08747 -3.62751 0
M  V30 9566 H 923.353 -0.594374 -0.57502 0
M  V30 9567 H 925.899 -1.61358 -0.525515 0
M  V30 9568 H 924.671 -3.60434 -1.52325 0
M  V30 9569 H 924.294 -2.66019 -2.95499 0
M  V30 9570 N 925.291 0.760815 -1.38019 0
M  V30 9571 C 926.539 1.51673 -1.33566 0
M  V30 9572 C 926.86 1.94852 0.076024 0
M  V30 9573 O 926.13 1.67112 1.02227 0
M  V30 9574 H 924.71 0.562581 -0.491438 0
M  V30 9575 H 927.372 0.904832 -1.72623 0
M  V30 9576 H 926.468 2.41102 -1.98182 0
M  V30 9577 N 926.769 1.22769 0.988202 0
M  V30 9578 C 928.185 0.988665 1.2529 0
M  V30 9579 C 928.385 -0.314938 1.99024 0
M  V30 9580 O 927.441 -1.03637 2.30251 0
M  V30 9581 C 928.754 2.19046 2.06009 0
M  V30 9582 C 930.302 2.23452 2.19176 0
M  V30 9583 C 930.777 3.43196 3.03283 0
M  V30 9584 N 932.268 3.43387 3.10869 0
M  V30 9585 C 933.003 4.32693 3.7625 0
M  V30 9586 N 932.499 5.32224 4.43519 0
M  V30 9587 N 934.292 4.20457 3.73058 0
M  V30 9588 H 926.443 2.06575 0.494014 0
M  V30 9589 H 928.706 0.905452 0.28082 0
M  V30 9590 H 928.412 3.13607 1.59197 0
M  V30 9591 H 928.286 2.19492 3.06763 0
M  V30 9592 H 930.673 1.29436 2.65199 0
M  V30 9593 H 930.754 2.27042 1.17836 0
M  V30 9594 H 930.398 4.37515 2.57959 0
M  V30 9595 H 930.328 3.36847 4.04774 0
M  V30 9596 H 932.819 2.71368 2.62998 0
M  V30 9597 H 933.132 5.9664 4.91163 0
M  V30 9598 H 931.477 5.36133 4.42252 0
M  V30 9599 H 934.668 3.41949 3.19669 0
M  V30 9600 H 934.841 4.90261 4.23731 0
M  V30 9601 N 928.247 -1.18576 1.03814 0
M  V30 9602 C 929.177 -2.24334 0.647795 0
M  V30 9603 C 930.158 -1.66508 -0.34774 0
M  V30 9604 O 931.343 -1.92852 -0.228401 0
M  V30 9605 C 928.473 -3.47299 0.00734922 0
M  V30 9606 C 927.427 -4.17859 0.926152 0
M  V30 9607 C 926.753 -5.34489 0.150317 0
M  V30 9608 C 928.053 -4.71632 2.24411 0
M  V30 9609 H 929.747 -2.57241 1.53191 0
M  V30 9610 H 927.293 -1.23649 0.738028 0
M  V30 9611 H 929.246 -4.20486 -0.277434 0
M  V30 9612 H 927.97 -3.13619 -0.911626 0
M  V30 9613 H 926.629 -3.46567 1.19528 0
M  V30 9614 H 926.277 -4.97056 -0.770985 0
M  V30 9615 H 925.977 -5.82633 0.762407 0
M  V30 9616 H 927.501 -6.10467 -0.127508 0
M  V30 9617 H 928.915 -5.36526 2.02021 0
M  V30 9618 H 927.312 -5.303 2.80894 0
M  V30 9619 H 928.382 -3.89192 2.89236 0
M  V30 9620 N 929.725 -0.817259 -1.34754 0
M  V30 9621 C 930.673 -0.223352 -2.31525 0
M  V30 9622 C 931.667 0.632785 -1.57137 0
M  V30 9623 O 932.873 0.524757 -1.72181 0
M  V30 9624 H 929.248 -0.0534765 -0.750096 0
M  V30 9625 H 931.219 -1.05446 -2.79148 0
M  V30 9626 C 929.968 0.604784 -3.424 0
M  V30 9627 H 929.291 -0.0446664 -3.99775 0
M  V30 9628 H 930.731 0.986543 -4.12363 0
M  V30 9629 C 929.19 1.77478 -2.86362 0
M  V30 9630 O 929.72 2.87273 -2.8078 0
M  V30 9631 N 927.926 1.58971 -2.43263 0
M  V30 9632 H 927.473 0.696598 -2.48003 0
M  V30 9633 H 927.431 2.37408 -2.06119 0
M  V30 9634 N 931.203 1.46865 -0.571711 0
M  V30 9635 C 932.431 2.06818 -0.0583975 0
M  V30 9636 C 932.846 1.42218 1.24175 0
M  V30 9637 O 932.203 0.523655 1.74826 0
M  V30 9638 C 932.254 3.61281 0.125673 0
M  V30 9639 O 931.975 4.23462 -1.123 0
M  V30 9640 C 933.476 4.38137 0.674604 0
M  V30 9641 H 930.696 0.668948 -0.052438 0
M  V30 9642 H 933.24 1.88656 -0.789251 0
M  V30 9643 H 931.395 3.78908 0.806707 0
M  V30 9644 H 931.809 5.16192 -0.929869 0
M  V30 9645 H 933.283 5.46845 0.752626 0
M  V30 9646 H 933.76 4.05419 1.68915 0
M  V30 9647 H 934.366 4.2529 0.0287979 0
M  V30 9648 N 932.681 0.308908 1.54543 0
M  V30 9649 C 933.906 -0.303196 2.05172 0
M  V30 9650 C 934.331 -1.46133 1.18434 0
M  V30 9651 O 933.689 -1.803 0.190162 0
M  V30 9652 C 933.737 -0.729526 3.53143 0
M  V30 9653 O 932.841 -1.83348 3.69401 0
M  V30 9654 H 932.182 -0.0575066 0.661505 0
M  V30 9655 H 934.712 0.453055 1.99521 0
M  V30 9656 H 934.722 -1.01619 3.95143 0
M  V30 9657 H 933.397 0.117622 4.15734 0
M  V30 9658 H 931.974 -1.54676 3.39308 0
M  V30 9659 N 934.159 -1.57557 0.0367827 0
M  V30 9660 C 935.089 -2.13712 -0.940719 0
M  V30 9661 C 936.07 -1.05515 -1.33419 0
M  V30 9662 O 937.255 -1.33385 -1.41146 0
M  V30 9663 C 934.385 -2.67043 -2.22048 0
M  V30 9664 C 933.339 -3.80096 -1.96752 0
M  V30 9665 C 932.665 -4.19886 -3.31059 0
M  V30 9666 C 933.965 -5.05848 -1.30058 0
M  V30 9667 H 935.659 -2.9564 -0.473033 0
M  V30 9668 H 933.205 -1.42214 -0.226089 0
M  V30 9669 H 935.158 -3.04964 -2.90818 0
M  V30 9670 H 933.882 -1.82287 -2.70996 0
M  V30 9671 H 932.541 -3.42625 -1.30398 0
M  V30 9672 H 932.189 -3.32101 -3.77781 0
M  V30 9673 H 931.889 -4.96073 -3.14937 0
M  V30 9674 H 933.413 -4.60395 -4.01084 0
M  V30 9675 H 934.827 -5.41306 -1.8884 0
M  V30 9676 H 933.224 -5.87084 -1.24309 0
M  V30 9677 H 934.294 -4.84122 -0.274591 0
M  V30 9678 N 935.637 0.236453 -1.55816 0
M  V30 9679 C 936.6 1.27633 -1.90375 0
M  V30 9680 C 937.6 1.40557 -0.781048 0
M  V30 9681 O 938.79 1.39078 -1.04895 0
M  V30 9682 C 935.922 2.65247 -2.14142 0
M  V30 9683 H 937.115 0.982019 -2.83366 0
M  V30 9684 H 934.668 0.476215 -1.48869 0
M  V30 9685 H 935.403 2.99801 -1.23653 0
M  V30 9686 H 935.188 2.57246 -2.95917 0
M  V30 9687 H 936.678 3.40313 -2.42026 0
M  V30 9688 N 937.115 1.49373 0.502552 0
M  V30 9689 C 938.345 1.62252 1.27898 0
M  V30 9690 C 938.753 0.292555 1.86924 0
M  V30 9691 O 938.096 -0.731823 1.68493 0
M  V30 9692 C 938.158 2.63153 2.4493 0
M  V30 9693 C 937.822 4.07541 2.06784 0
M  V30 9694 C 938.819 4.94392 1.60849 0
M  V30 9695 C 936.504 4.53263 2.16466 0
M  V30 9696 C 938.498 6.25003 1.25098 0
M  V30 9697 C 936.185 5.83888 1.80327 0
M  V30 9698 C 937.183 6.69582 1.34718 0
M  V30 9699 O 936.871 7.97773 0.990661 0
M  V30 9700 H 936.603 0.54918 0.394179 0
M  V30 9701 H 939.157 1.96132 0.610031 0
M  V30 9702 H 937.387 2.2445 3.14895 0
M  V30 9703 H 939.076 2.65578 3.06957 0
M  V30 9704 H 939.842 4.60296 1.52816 0
M  V30 9705 H 935.721 3.86731 2.50919 0
M  V30 9706 H 939.265 6.91844 0.894269 0
M  V30 9707 H 935.162 6.17513 1.8801 0
M  V30 9708 H 935.93 8.1077 1.12227 0
M  V30 9709 N 938.594 -0.753485 1.38421 0
M  V30 9710 C 939.841 -1.51261 1.34634 0
M  V30 9711 C 940.169 -1.94396 -0.0635771 0
M  V30 9712 O 939.424 -1.65736 -1.04068 0
M  V30 9713 C 939.723 -2.77836 2.24816 0
M  V30 9714 C 939.389 -2.53662 3.72782 0
M  V30 9715 C 938.051 -2.46779 4.13103 0
M  V30 9716 C 940.403 -2.32548 4.66445 0
M  V30 9717 C 937.731 -2.16796 5.45176 0
M  V30 9718 C 940.083 -2.04085 5.98775 0
M  V30 9719 C 938.747 -1.95658 6.3818 0
M  V30 9720 H 938.017 -0.553503 0.492661 0
M  V30 9721 H 940.664 -0.866406 1.7078 0
M  V30 9722 H 938.969 -3.47106 1.81726 0
M  V30 9723 H 940.666 -3.35793 2.19189 0
M  V30 9724 H 937.256 -2.59891 3.40815 0
M  V30 9725 H 941.44 -2.36845 4.3614 0
M  V30 9726 H 936.696 -2.0878 5.74648 0
M  V30 9727 H 940.87 -1.86751 6.70893 0
M  V30 9728 H 938.497 -1.7219 7.40442 0
M  V30 9729 N 940.072 -1.23292 -0.981677 0
M  V30 9730 C 940.982 -1.02964 -2.10798 0
M  V30 9731 C 941.998 0.0254674 -1.73981 0
M  V30 9732 O 943.174 -0.169706 -2.00684 0
M  V30 9733 C 940.239 -0.621934 -3.41076 0
M  V30 9734 C 939.3 -1.75194 -3.91926 0
M  V30 9735 C 938.533 -1.36359 -5.15986 0
M  V30 9736 O 938.756 -0.247265 -5.69864 0
M  V30 9737 O 937.69 -2.18421 -5.60871 0
M  V30 9738 H 941.516 -1.97354 -2.30836 0
M  V30 9739 H 939.101 -1.01986 -1.09175 0
M  V30 9740 H 940.983 -0.405446 -4.19445 0
M  V30 9741 H 939.658 0.29299 -3.22371 0
M  V30 9742 H 938.565 -2.02305 -3.1468 0
M  V30 9743 H 939.898 -2.64513 -4.15083 0
M  V30 9744 N 941.55 1.18024 -1.04442 0
M  V30 9745 C 942.799 1.8743 -0.745185 0
M  V30 9746 C 943.112 1.81459 0.730206 0
M  V30 9747 O 944.318 2.46263 1.1431 0
M  V30 9748 C 942.774 3.36266 -1.28271 0
M  V30 9749 C 942.382 3.50757 -2.787 0
M  V30 9750 C 944.126 4.11048 -1.06018 0
M  V30 9751 C 942.033 4.93573 -3.25791 0
M  V30 9752 H 940.963 0.702038 -0.27506 0
M  V30 9753 H 943.614 1.33333 -1.26073 0
M  V30 9754 H 941.996 3.89853 -0.695002 0
M  V30 9755 H 943.17 3.07423 -3.43261 0
M  V30 9756 H 941.485 2.89385 -2.99408 0
M  V30 9757 H 944.082 5.16395 -1.38711 0
M  V30 9758 H 944.425 4.163 0.00241716 0
M  V30 9759 H 944.958 3.63644 -1.61269 0
M  V30 9760 H 941.697 4.93491 -4.31447 0
M  V30 9761 H 941.217 5.37607 -2.65968 0
M  V30 9762 H 942.896 5.62307 -3.20031 0
M  V30 9763 N 943.028 0.824394 1.34319 0
M  V30 9764 C 943.978 0.219624 2.2694 0
M  V30 9765 C 944.962 -0.616964 1.48601 0
M  V30 9766 O 946.154 -0.471303 1.7061 0
M  V30 9767 C 943.283 -0.616379 3.37721 0
M  V30 9768 C 942.369 0.230917 4.23471 0
M  V30 9769 N 942.76 1.30264 4.88738 0
M  V30 9770 C 941.058 0.0155016 4.45997 0
M  V30 9771 C 941.759 1.82141 5.52449 0
M  V30 9772 N 940.735 1.12508 5.3183 0
M  V30 9773 H 944.537 1.03939 2.74907 0
M  V30 9774 H 942.051 0.667353 1.48055 0
M  V30 9775 H 944.048 -1.06582 4.03046 0
M  V30 9776 H 942.708 -1.43429 2.91304 0
M  V30 9777 H 943.719 1.68545 4.89707 0
M  V30 9778 H 940.396 -0.770128 4.10336 0
M  V30 9779 H 941.786 2.7181 6.14466 0
M  V30 9780 N 944.506 -1.46559 0.579492 0
M  V30 9781 C 945.416 -2.34066 -0.15816 0
M  V30 9782 C 946.432 -1.49556 -0.88932 0
M  V30 9783 O 947.608 -1.82434 -0.853226 0
M  V30 9784 C 944.673 -3.26683 -1.161 0
M  V30 9785 C 943.734 -4.27092 -0.434855 0
M  V30 9786 C 942.967 -5.15283 -1.38992 0
M  V30 9787 O 943.19 -5.06345 -2.62623 0
M  V30 9788 O 942.124 -5.95099 -0.902253 0
M  V30 9789 H 945.95 -2.98488 0.560234 0
M  V30 9790 H 943.535 -1.45482 0.339918 0
M  V30 9791 H 945.417 -3.8383 -1.73932 0
M  V30 9792 H 944.092 -2.64862 -1.86091 0
M  V30 9793 H 942.999 -3.73641 0.185224 0
M  V30 9794 H 944.332 -4.9169 0.224031 0
M  V30 9795 N 945.984 -0.3171 -1.54377 0
M  V30 9796 C 946.894 0.560867 -2.27797 0
M  V30 9797 C 947.91 1.13473 -1.31908 0
M  V30 9798 O 949.086 1.15608 -1.64914 0
M  V30 9799 C 946.151 1.70886 -3.0166 0
M  V30 9800 C 945.212 1.16745 -4.13121 0
M  V30 9801 C 944.445 2.26073 -4.83453 0
M  V30 9802 O 944.668 3.46292 -4.53252 0
M  V30 9803 O 943.602 1.91856 -5.70504 0
M  V30 9804 H 947.428 -0.035193 -3.0368 0
M  V30 9805 H 945.013 -0.0830062 -1.49169 0
M  V30 9806 H 946.895 2.37736 -3.47936 0
M  V30 9807 H 945.57 2.29122 -2.28658 0
M  V30 9808 H 944.477 0.464224 -3.71209 0
M  V30 9809 H 945.81 0.630307 -4.88147 0
M  V30 9810 N 947.462 1.57535 -0.0451378 0
M  V30 9811 C 948.41 2.12351 0.949205 0
M  V30 9812 C 949.404 1.05386 1.32628 0
M  V30 9813 O 950.61 1.23802 1.30664 0
M  V30 9814 H 946.985 0.678648 0.323945 0
M  V30 9815 H 948.956 2.94806 0.461718 0
M  V30 9816 C 947.705 2.67862 2.21687 0
M  V30 9817 H 947.028 3.49826 1.93551 0
M  V30 9818 H 948.468 3.09844 2.89435 0
M  V30 9819 C 946.927 1.61353 2.95748 0
M  V30 9820 O 947.457 1.02276 3.88462 0
M  V30 9821 N 945.663 1.33017 2.5837 0
M  V30 9822 H 945.21 1.81246 1.83051 0
M  V30 9823 H 945.168 0.619812 3.0823 0
M  V30 9824 N 948.94 -0.228186 1.55939 0
M  V30 9825 C 950.356 -0.577583 1.48782 0
M  V30 9826 C 950.556 -1.87461 0.738972 0
M  V30 9827 O 949.612 -2.50988 0.275929 0
M  V30 9828 C 950.925 -0.662961 2.93301 0
M  V30 9829 C 952.473 -0.754035 3.03782 0
M  V30 9830 C 952.948 -0.870815 4.49645 0
M  V30 9831 N 954.439 -0.935208 4.53661 0
M  V30 9832 C 955.174 -1.04516 5.63794 0
M  V30 9833 N 954.67 -1.11948 6.83696 0
M  V30 9834 N 956.463 -1.07978 5.51631 0
M  V30 9835 H 948.614 0.623018 2.03057 0
M  V30 9836 H 950.877 0.217692 0.922667 0
M  V30 9837 H 950.583 0.220375 3.51009 0
M  V30 9838 H 950.457 -1.52876 3.44831 0
M  V30 9839 H 952.844 -1.62782 2.46143 0
M  V30 9840 H 952.925 0.137301 2.55431 0
M  V30 9841 H 952.569 -0.0015186 5.079 0
M  V30 9842 H 952.499 -1.77747 4.95695 0
M  V30 9843 H 954.99 -0.88836 3.6731 0
M  V30 9844 H 955.303 -1.20297 7.6338 0
M  V30 9845 H 953.648 -1.08873 6.8642 0
M  V30 9846 H 956.839 -1.01833 4.56889 0
M  V30 9847 H 957.012 -1.16202 6.37496 0
M  V30 9848 N 950.418 -1.49637 -0.494624 0
M  V30 9849 C 951.381 -1.66252 -1.57775 0
M  V30 9850 C 952.381 -0.534054 -1.51672 0
M  V30 9851 O 953.571 -0.800637 -1.54711 0
M  V30 9852 C 950.703 -1.66584 -2.97426 0
M  V30 9853 H 951.896 -2.62864 -1.4437 0
M  V30 9854 H 949.449 -1.38764 -0.719323 0
M  V30 9855 H 950.184 -0.715798 -3.16302 0
M  V30 9856 H 949.969 -2.48543 -3.03264 0
M  V30 9857 H 951.459 -1.81474 -3.76108 0
M  V30 9858 N 951.896 0.746133 -1.38819 0
M  V30 9859 C 952.806 1.89063 -1.38897 0
M  V30 9860 C 953.822 1.71648 -0.28513 0
M  V30 9861 O 954.998 1.94443 -0.524783 0
M  V30 9862 C 952.063 3.24523 -1.22007 0
M  V30 9863 C 951.124 3.54411 -2.42263 0
M  V30 9864 C 950.357 4.83408 -2.26169 0
M  V30 9865 O 950.58 5.56325 -1.25931 0
M  V30 9866 O 949.514 5.12943 -3.14918 0
M  V30 9867 H 953.34 1.91951 -2.35347 0
M  V30 9868 H 950.925 0.892433 -1.19816 0
M  V30 9869 H 952.807 4.05496 -1.14677 0
M  V30 9870 H 951.482 3.2243 -0.286455 0
M  V30 9871 H 950.389 2.73569 -2.55168 0
M  V30 9872 H 951.722 3.61273 -3.3428 0
M  V30 9873 N 953.375 1.23811 0.975125 0
M  V30 9874 C 954.285 1.0408 2.10249 0
M  V30 9875 C 955.301 -0.0162404 1.73992 0
M  V30 9876 O 956.477 0.180346 2.00591 0
M  V30 9877 C 953.542 0.640013 3.40741 0
M  V30 9878 C 952.603 1.7727 3.90991 0
M  V30 9879 C 951.836 1.39094 5.15256 0
M  V30 9880 O 952.059 0.277483 5.69725 0
M  V30 9881 O 950.993 2.21392 5.59704 0
M  V30 9882 H 954.819 1.98575 2.29786 0
M  V30 9883 H 952.404 1.02563 1.08633 0
M  V30 9884 H 954.286 0.427684 4.19224 0
M  V30 9885 H 952.961 -0.27589 3.22522 0
M  V30 9886 H 951.868 2.03971 3.13602 0
M  V30 9887 H 953.201 2.66711 4.13674 0
M  V30 9888 N 954.853 -1.17469 1.05066 0
M  V30 9889 C 956.13 -1.83625 0.673872 0
M  V30 9890 C 956.51 -1.93412 -0.845871 0
M  V30 9891 O 955.858 -1.4677 -1.75131 0
M  V30 9892 C 956.068 -3.21352 1.36139 0
M  V30 9893 C 957.416 -3.97274 1.49863 0
M  V30 9894 O 958.44 -3.30827 1.3203 0
M  V30 9895 O 957.299 -5.16349 1.79013 0
M  V30 9896 H 954.393 -0.792297 0.237055 0
M  V30 9897 H 956.939 -1.24776 1.15017 0
M  V30 9898 H 955.711 -3.0919 2.39827 0
M  V30 9899 H 955.334 -3.87867 0.874364 0
M  V30 9900 N 956.331 -0.831506 -1.3388 0
M  V30 9901 C 957.294 -0.264773 -2.27666 0
M  V30 9902 C 958.294 0.562273 -1.50649 0
M  V30 9903 O 959.484 0.377131 -1.70069 0
M  V30 9904 C 956.616 0.627814 -3.35069 0
M  V30 9905 H 957.809 -1.09225 -2.79303 0
M  V30 9906 H 955.362 -0.604021 -1.44157 0
M  V30 9907 H 956.097 1.47802 -2.88661 0
M  V30 9908 H 955.882 0.0361552 -3.92083 0
M  V30 9909 H 957.372 1.01786 -4.05005 0
M  V30 9910 N 957.809 1.4625 -0.587256 0
M  V30 9911 C 958.739 2.33132 0.131076 0
M  V30 9912 C 959.72 1.45619 0.879158 0
M  V30 9913 O 960.905 1.74428 0.853723 0
M  V30 9914 C 958.035 3.27975 1.14236 0
M  V30 9915 C 956.989 4.24965 0.508819 0
M  V30 9916 C 956.315 5.09349 1.62689 0
M  V30 9917 C 957.615 5.19322 -0.55694 0
M  V30 9918 H 959.309 2.93442 -0.594333 0
M  V30 9919 H 956.855 1.41106 -0.287263 0
M  V30 9920 H 958.808 3.87614 1.65328 0
M  V30 9921 H 957.532 2.65781 1.8981 0
M  V30 9922 H 956.191 3.66595 0.0189337 0
M  V30 9923 H 955.839 4.43537 2.37242 0
M  V30 9924 H 955.539 5.75036 1.20861 0
M  V30 9925 H 957.063 5.71852 2.14049 0
M  V30 9926 H 958.477 5.73151 -0.130903 0
M  V30 9927 H 956.874 5.93376 -0.895801 0
M  V30 9928 H 957.944 4.62979 -1.44148 0
M  V30 9929 N 959.287 0.325282 1.54207 0
M  V30 9930 C 960.517 -0.278285 2.04717 0
M  V30 9931 C 960.925 -1.46198 1.20095 0
M  V30 9932 O 960.268 -1.82319 0.224813 0
M  V30 9933 C 960.33 -0.774387 3.51061 0
M  V30 9934 C 959.994 0.287225 4.56096 0
M  V30 9935 C 960.991 1.12388 5.07607 0
M  V30 9936 C 958.676 0.435908 5.00405 0
M  V30 9937 C 960.67 2.09492 6.0199 0
M  V30 9938 C 958.357 1.41037 5.94602 0
M  V30 9939 C 959.355 2.23834 6.45281 0
M  V30 9940 O 959.043 3.19625 7.37628 0
M  V30 9941 H 958.775 -0.0608309 0.673257 0
M  V30 9942 H 961.329 0.470049 1.99949 0
M  V30 9943 H 959.559 -1.57366 3.53232 0
M  V30 9944 H 961.248 -1.29649 3.84637 0
M  V30 9945 H 962.014 1.02 4.74153 0
M  V30 9946 H 957.893 -0.198668 4.60572 0
M  V30 9947 H 961.437 2.74157 6.4147 0
M  V30 9948 H 957.334 1.51487 6.27473 0
M  V30 9949 H 958.102 3.14884 7.55507 0
M  V30 9950 N 960.765 -1.57509 0.0534917 0
M  V30 9951 C 961.713 -2.12851 -0.937931 0
M  V30 9952 C 962.707 -1.06088 -1.32067 0
M  V30 9953 O 963.913 -1.24494 -1.30005 0
M  V30 9954 H 960.288 -0.680357 -0.320342 0
M  V30 9955 H 962.259 -2.95047 -0.446077 0
M  V30 9956 C 961.008 -2.69034 -2.20264 0
M  V30 9957 H 960.331 -3.50848 -1.91693 0
M  V30 9958 H 961.771 -3.11375 -2.87788 0
M  V30 9959 C 960.23 -1.62919 -2.94888 0
M  V30 9960 O 960.76 -1.04334 -3.87914 0
M  V30 9961 N 958.966 -1.34385 -2.57661 0
M  V30 9962 H 958.513 -1.82214 -1.82088 0
M  V30 9963 H 958.471 -0.636149 -3.07897 0
M  V30 9964 N 962.243 0.219913 -1.56058 0
M  V30 9965 C 963.468 0.965073 -1.83579 0
M  V30 9966 C 963.893 1.77092 -0.634024 0
M  V30 9967 O 963.251 1.76434 0.417205 0
M  V30 9968 C 963.299 1.85705 -3.09105 0
M  V30 9969 O 962.403 2.95261 -2.87914 0
M  V30 9970 H 961.744 0.273173 -0.605204 0
M  V30 9971 H 964.274 0.23273 -2.03272 0
M  V30 9972 H 964.284 2.26655 -3.39252 0
M  V30 9973 H 962.959 1.26476 -3.96203 0
M  V30 9974 H 961.536 2.58246 -2.69005 0
M  V30 9975 N 963.721 1.49897 0.486681 0
M  V30 9976 C 964.668 1.67619 1.58658 0
M  V30 9977 C 965.638 0.517537 1.57831 0
M  V30 9978 O 966.823 0.746272 1.756 0
M  V30 9979 C 963.963 1.762 2.96728 0
M  V30 9980 C 963.076 3.03465 3.07462 0
M  V30 9981 C 962.211 3.02937 4.36351 0
M  V30 9982 C 961.25 4.24721 4.4077 0
M  V30 9983 N 960.387 4.22021 5.61108 0
M  V30 9984 H 965.227 2.61528 1.42853 0
M  V30 9985 H 962.764 1.29657 0.694807 0
M  V30 9986 H 964.722 1.79156 3.76774 0
M  V30 9987 H 963.352 0.857452 3.11203 0
M  V30 9988 H 962.404 3.10054 2.20387 0
M  V30 9989 H 963.716 3.93454 3.06586 0
M  V30 9990 H 962.87 3.04536 5.24731 0
M  V30 9991 H 961.609 2.10751 4.39813 0
M  V30 9992 H 960.614 4.23352 3.5079 0
M  V30 9993 H 961.839 5.18116 4.39013 0
M  V30 9994 H 959.785 3.3268 5.65385 0
M  V30 9995 H 959.702 5.05761 5.61909 0
M  V30 9996 H 960.97 4.27743 6.51656 0
M  V30 9997 N 965.199 -0.738761 1.39212 0
M  V30 9998 C 966.61 -1.31684 1.32348 0
M  V30 9999 C 966.961 -1.96195 -0.0139041 0
M  V30 10000 O 966.086 -1.96056 -0.916025 0
M  V30 10001 C 966.681 -2.39444 2.39691 0
M  V30 10002 C 965.24 -2.92935 2.36359 0
M  V30 10003 C 964.387 -1.66465 2.21776 0
M  V30 10004 H 967.338 -0.536543 1.49355 0
M  V30 10005 H 967.359 -3.19744 2.06262 0
M  V30 10006 H 966.871 -1.92463 3.37016 0
M  V30 10007 H 964.972 -3.44207 1.42662 0
M  V30 10008 H 965.085 -3.46306 3.31073 0
M  V30 10009 H 963.449 -1.90657 1.68884 0
M  V30 10010 H 964.232 -1.21541 3.21065 0
M  V30 10011 N 966.677 -1.24326 -0.968545 0
M  V30 10012 C 967.905 -1.10947 -1.74638 0
M  V30 10013 C 968.32 0.338064 -1.85749 0
M  V30 10014 O 967.677 1.23331 -1.3452 0
M  V30 10015 C 967.728 -1.74254 -3.1673 0
M  V30 10016 O 967.449 -3.13347 -3.06178 0
M  V30 10017 C 968.95 -1.66473 -4.10855 0
M  V30 10018 H 966.17 -0.38767 -0.547679 0
M  V30 10019 H 968.714 -1.64415 -1.21605 0
M  V30 10020 H 966.869 -1.2479 -3.66751 0
M  V30 10021 H 967.283 -3.44255 -3.95713 0
M  V30 10022 H 968.757 -2.15452 -5.08217 0
M  V30 10023 H 969.234 -0.625785 -4.34719 0
M  V30 10024 H 969.84 -2.15359 -3.66743 0
M  V30 10025 N 968.156 1.1691 -1.05688 0
M  V30 10026 C 969.104 2.2315 -0.656262 0
M  V30 10027 C 970.098 1.66256 0.324873 0
M  V30 10028 O 971.304 1.7899 0.190397 0
M  V30 10029 H 967.679 0.726527 -0.19407 0
M  V30 10030 H 969.65 2.54233 -1.56231 0
M  V30 10031 C 968.399 3.47661 -0.0522431 0
M  V30 10032 H 967.722 3.91749 -0.798299 0
M  V30 10033 H 969.162 4.23571 0.190626 0
M  V30 10034 C 967.621 3.14709 1.20248 0
M  V30 10035 O 968.151 3.29947 2.29124 0
M  V30 10036 N 966.357 2.68892 1.10207 0
M  V30 10037 H 965.904 2.56692 0.216063 0
M  V30 10038 H 965.862 2.47218 1.94244 0
M  V30 10039 N 969.634 0.838594 1.33437 0
M  V30 10040 C 971.045 0.490934 1.8013 0
M  V30 10041 C 971.396 -0.990024 1.6939 0
M  V30 10042 O 970.521 -1.77139 1.24302 0
M  V30 10043 C 971.116 0.884347 3.27055 0
M  V30 10044 C 969.675 0.588829 3.71766 0
M  V30 10045 C 968.822 1.09282 2.54858 0
M  V30 10046 H 971.773 1.02732 1.20962 0
M  V30 10047 H 971.794 0.194283 3.80004 0
M  V30 10048 H 971.306 1.96225 3.34839 0
M  V30 10049 H 969.407 -0.479018 3.69508 0
M  V30 10050 H 969.52 1.14387 4.65245 0
M  V30 10051 H 967.884 0.513702 2.49466 0
M  V30 10052 H 968.667 2.1775 2.65405 0
M  V30 10053 N 971.112 -1.45937 0.595003 0
M  V30 10054 C 972.075 -2.2888 -0.121102 0
M  V30 10055 C 973.075 -1.39075 -0.807149 0
M  V30 10056 O 974.265 -1.61326 -0.657228 0
M  V30 10057 C 971.397 -3.19778 -1.1813 0
M  V30 10058 H 972.59 -2.93673 0.607968 0
M  V30 10059 H 970.143 -1.5225 0.353495 0
M  V30 10060 H 970.878 -2.59759 -1.94154 0
M  V30 10061 H 970.663 -3.85914 -0.693724 0
M  V30 10062 H 972.153 -3.82176 -1.68319 0
M  V30 10063 N 972.59 -0.333456 -1.54032 0
M  V30 10064 C 973.839 0.267081 -1.99924 0
M  V30 10065 C 974.152 1.52463 -1.22534 0
M  V30 10066 O 975.358 2.20178 -1.58852 0
M  V30 10067 C 973.814 0.526456 -3.56029 0
M  V30 10068 C 973.422 -0.714607 -4.42264 0
M  V30 10069 C 975.166 1.0864 -4.10363 0
M  V30 10070 C 973.073 -0.42659 -5.89859 0
M  V30 10071 H 972.003 0.103577 -0.746852 0
M  V30 10072 H 974.654 -0.447218 -1.77967 0
M  V30 10073 H 973.036 1.3012 -3.74012 0
M  V30 10074 H 974.21 -1.48968 -4.36056 0
M  V30 10075 H 972.525 -1.19547 -3.9887 0
M  V30 10076 H 975.122 1.31668 -5.18235 0
M  V30 10077 H 975.465 2.03884 -3.62956 0
M  V30 10078 H 975.998 0.37261 -3.96051 0
M  V30 10079 H 972.737 -1.34847 -6.4148 0
M  V30 10080 H 972.257 0.310588 -5.98995 0
M  V30 10081 H 973.936 -0.0400807 -6.46988 0
M  V30 10082 N 974.068 1.57479 -0.061844 0
M  V30 10083 C 975.296 1.97429 0.618837 0
M  V30 10084 C 975.711 0.939826 1.63746 0
M  V30 10085 O 975.068 -0.0747173 1.82347 0
M  V30 10086 C 975.119 3.3746 1.29628 0
M  V30 10087 O 974.84 4.36941 0.318431 0
M  V30 10088 C 976.341 3.92228 2.06572 0
M  V30 10089 H 973.561 0.649513 0.168444 0
M  V30 10090 H 976.105 2.04078 -0.131303 0
M  V30 10091 H 974.26 3.31928 1.99757 0
M  V30 10092 H 974.674 5.18313 0.803239 0
M  V30 10093 H 976.148 4.92458 2.49377 0
M  V30 10094 H 976.625 3.28231 2.91824 0
M  V30 10095 H 977.231 4.01131 1.4133 0
M  V30 10096 N 975.546 -0.211634 1.56173 0
M  V30 10097 C 976.776 -0.949805 1.83473 0
M  V30 10098 C 977.184 -1.78045 0.640053 0
M  V30 10099 O 976.527 -1.79277 -0.400702 0
M  V30 10100 C 976.589 -1.90868 3.04647 0
M  V30 10101 C 976.253 -1.26159 4.39241 0
M  V30 10102 C 977.25 -0.646597 5.15863 0
M  V30 10103 C 974.935 -1.27039 4.85969 0
M  V30 10104 C 976.929 -0.0490313 6.37381 0
M  V30 10105 C 974.616 -0.668987 6.07427 0
M  V30 10106 C 975.614 -0.0593687 6.82974 0
M  V30 10107 O 975.302 0.532656 8.02133 0
M  V30 10108 H 975.034 -0.283458 0.6137 0
M  V30 10109 H 977.588 -0.22894 2.0412 0
M  V30 10110 H 975.818 -2.6688 2.79843 0
M  V30 10111 H 977.507 -2.51323 3.18734 0
M  V30 10112 H 978.273 -0.632056 4.80864 0
M  V30 10113 H 974.152 -1.73429 4.27134 0
M  V30 10114 H 977.696 0.427414 6.96289 0
M  V30 10115 H 973.593 -0.680975 6.41898 0
M  V30 10116 H 974.361 0.427942 8.17381 0
M  V30 10117 N 977.024 -1.50153 -0.478725 0
M  V30 10118 C 977.987 -1.67916 -1.56003 0
M  V30 10119 C 978.987 -0.550111 -1.51097 0
M  V30 10120 O 980.177 -0.817001 -1.53853 0
M  V30 10121 C 977.309 -1.6973 -2.95643 0
M  V30 10122 H 978.502 -2.6438 -1.41573 0
M  V30 10123 H 976.055 -1.39519 -0.704565 0
M  V30 10124 H 976.79 -0.749306 -3.15525 0
M  V30 10125 H 976.575 -2.51745 -3.00611 0
M  V30 10126 H 978.065 -1.85453 -3.74162 0
M  V30 10127 N 978.502 0.731368 -1.39602 0
M  V30 10128 C 979.732 1.51839 -1.40102 0
M  V30 10129 C 980.14 1.89199 0.00526634 0
M  V30 10130 O 979.483 1.54877 0.987874 0
M  V30 10131 C 979.545 2.83292 -2.21328 0
M  V30 10132 C 979.209 2.68345 -3.69919 0
M  V30 10133 C 980.206 2.36651 -4.62917 0
M  V30 10134 C 977.891 2.85102 -4.13548 0
M  V30 10135 C 979.885 2.21901 -5.97527 0
M  V30 10136 C 977.572 2.69971 -5.48233 0
M  V30 10137 C 978.57 2.38416 -6.40037 0
M  V30 10138 O 978.258 2.23383 -7.72241 0
M  V30 10139 H 977.99 0.475695 -0.480302 0
M  V30 10140 H 980.544 0.911096 -1.84087 0
M  V30 10141 H 978.774 3.46294 -1.72096 0
M  V30 10142 H 980.463 3.44928 -2.13961 0
M  V30 10143 H 981.229 2.23352 -4.3051 0
M  V30 10144 H 977.108 3.08655 -3.42423 0
M  V30 10145 H 980.652 1.97193 -6.69149 0
M  V30 10146 H 976.549 2.82849 -5.8023 0
M  V30 10147 H 977.317 2.38425 -7.83004 0
M  V30 10148 N 979.98 1.24838 0.961938 0
M  V30 10149 C 980.927 1.04582 2.05745 0
M  V30 10150 C 981.897 -0.0427281 1.66045 0
M  V30 10151 O 983.082 0.113026 1.90465 0
M  V30 10152 C 980.222 0.66284 3.38675 0
M  V30 10153 C 979.335 1.82548 3.91536 0
M  V30 10154 C 978.47 1.38753 5.12758 0
M  V30 10155 C 977.509 2.51976 5.5783 0
M  V30 10156 N 976.646 2.09009 6.70268 0
M  V30 10157 H 981.486 1.98343 2.22405 0
M  V30 10158 H 979.023 0.987822 1.08998 0
M  V30 10159 H 980.981 0.421788 4.15062 0
M  V30 10160 H 979.611 -0.237776 3.21923 0
M  V30 10161 H 978.663 2.18004 3.11735 0
M  V30 10162 H 979.975 2.67601 4.20941 0
M  V30 10163 H 979.129 1.1057 5.96539 0
M  V30 10164 H 977.868 0.507618 4.85051 0
M  V30 10165 H 976.873 2.80912 4.72619 0
M  V30 10166 H 978.098 3.40534 5.87549 0
M  V30 10167 H 976.044 1.23423 6.44285 0
M  V30 10168 H 975.961 2.87613 6.99153 0
M  V30 10169 H 977.229 1.83981 7.57477 0
M  V30 10170 N 981.458 -1.16348 1.06306 0
M  V30 10171 C 982.706 -1.86512 0.778311 0
M  V30 10172 C 983.027 -1.82107 -0.697273 0
M  V30 10173 O 982.297 -1.2547 -1.50446 0
M  V30 10174 H 980.877 -0.690529 0.284919 0
M  V30 10175 H 983.539 -1.41092 1.34458 0
M  V30 10176 H 982.635 -2.91947 1.10333 0
M  V30 10177 N 982.937 -0.845659 -1.3299 0
M  V30 10178 C 984.186 -0.440928 -1.96822 0
M  V30 10179 C 984.499 1.00668 -1.67706 0
M  V30 10180 O 985.705 1.51641 -2.25205 0
M  V30 10181 C 984.161 -0.73752 -3.52262 0
M  V30 10182 C 983.769 -2.20026 -3.90247 0
M  V30 10183 C 985.513 -0.400072 -4.22611 0
M  V30 10184 C 983.42 -2.44054 -5.38694 0
M  V30 10185 H 982.35 -0.161148 -0.736578 0
M  V30 10186 H 985.001 -1.03519 -1.51513 0
M  V30 10187 H 983.383 -0.0728025 -3.95933 0
M  V30 10188 H 984.557 -2.90602 -3.57613 0
M  V30 10189 H 982.872 -2.50135 -3.32899 0
M  V30 10190 H 985.469 -0.557136 -5.3179 0
M  V30 10191 H 985.812 0.657547 -4.11074 0
M  V30 10192 H 986.345 -1.0203 -3.84493 0
M  V30 10193 H 983.084 -3.48407 -5.55241 0
M  V30 10194 H 982.604 -1.78047 -5.72765 0
M  V30 10195 H 984.283 -2.27549 -6.05665 0
M  V30 10196 N 984.415 1.45619 -0.602734 0
M  V30 10197 C 985.362 2.30493 0.118944 0
M  V30 10198 C 986.332 1.41816 0.864723 0
M  V30 10199 O 987.517 1.7075 0.851424 0
M  V30 10200 C 984.657 3.2664 1.11356 0
M  V30 10201 C 983.77 4.3042 0.369161 0
M  V30 10202 C 982.905 5.13678 1.35307 0
M  V30 10203 C 981.944 6.09189 0.596207 0
M  V30 10204 N 981.081 6.85245 1.52916 0
M  V30 10205 H 985.921 2.91672 -0.610836 0
M  V30 10206 H 983.458 1.43731 -0.313032 0
M  V30 10207 H 985.416 3.80846 1.7033 0
M  V30 10208 H 984.046 2.67225 1.81081 0
M  V30 10209 H 983.098 3.78913 -0.335994 0
M  V30 10210 H 984.41 4.98307 -0.221603 0
M  V30 10211 H 983.564 5.7226 2.01502 0
M  V30 10212 H 982.303 4.45798 1.97777 0
M  V30 10213 H 981.308 5.49743 -0.0793984 0
M  V30 10214 H 982.533 6.79096 -0.0233734 0
M  V30 10215 H 980.479 6.20058 2.14159 0
M  V30 10216 H 980.396 7.49467 0.991713 0
M  V30 10217 H 981.664 7.48371 2.18083 0
M  V30 10218 N 985.893 0.34162 1.53853 0
M  V30 10219 C 986.856 -0.503541 2.236 0
M  V30 10220 C 987.856 -1.02912 1.23554 0
M  V30 10221 O 989.046 -0.918678 1.48007 0
M  V30 10222 C 986.178 -1.70126 2.95415 0
M  V30 10223 H 987.371 0.106437 2.99711 0
M  V30 10224 H 984.924 0.0929408 1.56023 0
M  V30 10225 H 985.659 -2.34999 2.23486 0
M  V30 10226 H 985.444 -1.33161 3.68796 0
M  V30 10227 H 986.934 -2.30077 3.48503 0
M  V30 10228 N 987.371 -1.57444 0.0701946 0
M  V30 10229 C 988.318 -2.12631 -0.897599 0
M  V30 10230 C 989.288 -1.03841 -1.29639 0
M  V30 10231 O 990.473 -1.31495 -1.38253 0
M  V30 10232 C 987.613 -2.6911 -2.16041 0
M  V30 10233 C 986.726 -3.9205 -1.8144 0
M  V30 10234 C 985.861 -4.36778 -3.02321 0
M  V30 10235 C 984.9 -5.52371 -2.63729 0
M  V30 10236 N 984.037 -5.92065 -3.77364 0
M  V30 10237 H 988.877 -2.95024 -0.420104 0
M  V30 10238 H 986.414 -1.45792 -0.195716 0
M  V30 10239 H 988.372 -2.99963 -2.89962 0
M  V30 10240 H 987.002 -1.89484 -2.61334 0
M  V30 10241 H 986.054 -3.67669 -0.975896 0
M  V30 10242 H 987.366 -4.76011 -1.49046 0
M  V30 10243 H 986.52 -4.69285 -3.84521 0
M  V30 10244 H 985.259 -3.51668 -3.37907 0
M  V30 10245 H 984.264 -5.19517 -1.7995 0
M  V30 10246 H 985.489 -6.39212 -2.29315 0
M  V30 10247 H 983.435 -5.09904 -4.12715 0
M  V30 10248 H 983.352 -6.70762 -3.48733 0
M  V30 10249 H 984.62 -6.29193 -4.60148 0
M  V30 10250 N 988.849 0.203349 -1.56283 0
M  V30 10251 C 990.077 0.941426 -1.84241 0
M  V30 10252 C 990.492 1.77197 -0.651658 0
M  V30 10253 O 989.849 1.78506 0.379713 0
M  V30 10254 C 989.9 1.84429 -3.10915 0
M  V30 10255 O 989.621 1.04729 -4.25398 0
M  V30 10256 C 991.122 2.69474 -3.51993 0
M  V30 10257 H 988.342 0.27507 -0.612027 0
M  V30 10258 H 990.886 0.213088 -2.03387 0
M  V30 10259 H 989.041 2.52635 -2.93691 0
M  V30 10260 H 989.455 1.66179 -4.97478 0
M  V30 10261 H 990.929 3.28495 -4.43616 0
M  V30 10262 H 991.406 3.42775 -2.74594 0
M  V30 10263 H 992.012 2.06652 -3.71719 0
M  V30 10264 N 990.327 1.50405 0.470755 0
M  V30 10265 C 991.274 1.69293 1.56871 0
M  V30 10266 C 992.244 0.534248 1.57274 0
M  V30 10267 O 993.429 0.764855 1.74799 0
M  V30 10268 C 990.569 1.79338 2.94842 0
M  V30 10269 C 989.682 3.06709 3.04226 0
M  V30 10270 C 988.817 3.07548 4.33114 0
M  V30 10271 C 987.856 4.29372 4.36241 0
M  V30 10272 N 986.993 4.27949 5.56601 0
M  V30 10273 H 991.833 2.63029 1.40071 0
M  V30 10274 H 989.37 1.30386 0.681016 0
M  V30 10275 H 991.328 1.83143 3.74853 0
M  V30 10276 H 989.958 0.890411 3.10277 0
M  V30 10277 H 989.01 3.12374 2.17086 0
M  V30 10278 H 990.322 3.96684 3.02396 0
M  V30 10279 H 989.476 3.10084 5.21472 0
M  V30 10280 H 988.215 2.15404 4.37553 0
M  V30 10281 H 987.22 4.27048 3.4628 0
M  V30 10282 H 988.445 5.22743 4.33493 0
M  V30 10283 H 986.391 3.38658 5.61824 0
M  V30 10284 H 986.308 5.11692 5.56513 0
M  V30 10285 H 987.576 4.34631 6.47083 0
M  V30 10286 N 991.805 -0.723954 1.39988 0
M  V30 10287 C 993.053 -1.48078 1.3754 0
M  V30 10288 C 993.374 -1.94985 -0.0243358 0
M  V30 10289 O 992.644 -1.69764 -0.977602 0
M  V30 10290 H 991.224 -0.549354 0.506181 0
M  V30 10291 H 993.886 -0.858746 1.74962 0
M  V30 10292 H 992.982 -2.35763 2.04505 0
M  V30 10293 N 993.283 -1.25346 -0.955304 0
M  V30 10294 C 994.513 -1.12629 -1.732 0
M  V30 10295 C 994.921 0.322748 -1.86427 0
M  V30 10296 O 994.264 1.23381 -1.36099 0
M  V30 10297 C 994.326 -1.7064 -3.16421 0
M  V30 10298 C 993.99 -3.19632 -3.26626 0
M  V30 10299 C 994.987 -4.1663 -3.10991 0
M  V30 10300 C 992.672 -3.59829 -3.50468 0
M  V30 10301 C 994.666 -5.51806 -3.19043 0
M  V30 10302 C 992.353 -4.95143 -3.58157 0
M  V30 10303 C 993.351 -5.90941 -3.42459 0
M  V30 10304 O 993.039 -7.23792 -3.49828 0
M  V30 10305 H 992.771 -0.393646 -0.549562 0
M  V30 10306 H 995.325 -1.66184 -1.20715 0
M  V30 10307 H 993.555 -1.11532 -3.70267 0
M  V30 10308 H 995.244 -1.53032 -3.75947 0
M  V30 10309 H 996.01 -3.86915 -2.92441 0
M  V30 10310 H 991.889 -2.8576 -3.61749 0
M  V30 10311 H 995.433 -6.26559 -3.06707 0
M  V30 10312 H 991.33 -5.24525 -3.76224 0
M  V30 10313 H 992.098 -7.31879 -3.66463 0
M  V30 10314 N 994.761 1.15782 -1.06922 0
M  V30 10315 C 995.671 2.24008 -0.696948 0
M  V30 10316 C 996.687 1.71569 0.289862 0
M  V30 10317 O 997.863 2.00929 0.137585 0
M  V30 10318 C 994.928 3.46568 -0.0957895 0
M  V30 10319 C 993.989 4.14017 -1.13528 0
M  V30 10320 C 993.222 5.30725 -0.562713 0
M  V30 10321 O 993.445 5.66992 0.62259 0
M  V30 10322 O 992.379 5.87572 -1.30549 0
M  V30 10323 H 996.205 2.58174 -1.59938 0
M  V30 10324 H 993.79 1.2342 -0.841889 0
M  V30 10325 H 995.672 4.20731 0.237407 0
M  V30 10326 H 994.347 3.14161 0.780027 0
M  V30 10327 H 993.254 3.41795 -1.52076 0
M  V30 10328 H 994.587 4.50493 -1.98285 0
M  V30 10329 N 996.239 0.8527 1.3254 0
M  V30 10330 C 997.202 0.300959 2.27215 0
M  V30 10331 C 998.202 -0.538235 1.51525 0
M  V30 10332 O 999.392 -0.350027 1.70647 0
M  V30 10333 C 996.524 -0.574428 3.36025 0
M  V30 10334 H 997.717 1.13655 2.77529 0
M  V30 10335 H 995.27 0.626878 1.43178 0
M  V30 10336 H 996.005 -1.43191 2.90976 0
M  V30 10337 H 995.79 0.0262265 3.92091 0
M  V30 10338 H 997.28 -0.9533 4.06573 0
M  V30 10339 N 997.718 -1.45297 0.610449 0
M  V30 10340 C 998.628 -2.34349 -0.108475 0
M  V30 10341 C 999.644 -1.51409 -0.857397 0
M  V30 10342 O 1000.82 -1.84202 -0.814337 0
M  V30 10343 C 997.885 -3.29072 -1.09144 0
M  V30 10344 C 996.946 -4.27918 -0.344165 0
M  V30 10345 C 996.179 -5.18116 -1.28031 0
M  V30 10346 O 996.402 -5.11802 -2.51824 0
M  V30 10347 O 995.336 -5.96879 -0.775821 0
M  V30 10348 H 999.162 -2.97232 0.623421 0
M  V30 10349 H 996.747 -1.44728 0.3707 0
M  V30 10350 H 998.629 -3.87433 -1.65751 0
M  V30 10351 H 997.304 -2.68749 -1.80431 0
M  V30 10352 H 996.211 -3.73164 0.264437 0
M  V30 10353 H 997.544 -4.91104 0.328275 0
M  V30 10354 N 999.196 -0.349774 -1.5367 0
M  V30 10355 C 1000.44 0.245862 -2.00196 0
M  V30 10356 C 1000.76 1.51154 -1.24144 0
M  V30 10357 O 1001.96 2.18481 -1.61178 0
M  V30 10358 C 1000.42 0.488665 -3.56567 0
M  V30 10359 C 1000.03 -0.761475 -4.41481 0
M  V30 10360 C 1001.77 1.04282 -4.11492 0
M  V30 10361 C 999.679 -0.489128 -5.89374 0
M  V30 10362 H 998.609 0.0956493 -0.747909 0
M  V30 10363 H 1001.26 -0.466068 -1.77483 0
M  V30 10364 H 999.642 1.26145 -3.75371 0
M  V30 10365 H 1000.82 -1.53585 -4.34452 0
M  V30 10366 H 999.131 -1.23771 -3.9758 0
M  V30 10367 H 1001.73 1.26164 -5.19603 0
M  V30 10368 H 1002.07 2.00023 -3.65098 0
M  V30 10369 H 1002.6 0.330582 -3.96424 0
M  V30 10370 H 999.343 -1.41643 -6.40014 0
M  V30 10371 H 998.863 0.247039 -5.99291 0
M  V30 10372 H 1000.54 -0.1087 -6.46909 0
M  V30 10373 N 1000.67 1.57404 -0.0785433 0
M  V30 10374 C 1001.9 1.98492 0.601292 0
M  V30 10375 C 1002.32 0.956832 1.61945 0
M  V30 10376 O 1001.68 -0.0767502 1.81137 0
M  V30 10377 C 1001.73 3.38596 1.24036 0
M  V30 10378 O 1000.83 3.38461 2.35622 0
M  V30 10379 H 1000.17 0.645882 0.154054 0
M  V30 10380 H 1002.7 2.04012 -0.155056 0
M  V30 10381 H 1002.71 3.75929 1.5856 0
M  V30 10382 H 1001.39 4.12952 0.494341 0
M  V30 10383 H 999.967 3.12906 2.02841 0
M  V30 10384 N 1002.15 -0.195058 1.56388 0
M  V30 10385 C 1003.4 -0.913636 1.8027 0
M  V30 10386 C 1003.72 -1.83791 0.651606 0
M  V30 10387 O 1002.99 -1.931 -0.330057 0
M  V30 10388 H 1001.57 -0.34036 0.664954 0
M  V30 10389 H 1004.23 -0.200559 1.93865 0
M  V30 10390 H 1003.33 -1.50473 2.7343 0
M  V30 10391 N 1003.63 -1.50653 -0.462772 0
M  V30 10392 C 1004.54 -1.72923 -1.58539 0
M  V30 10393 C 1005.56 -0.612577 -1.6286 0
M  V30 10394 O 1006.73 -0.891885 -1.80575 0
M  V30 10395 C 1003.8 -1.82623 -2.94703 0
M  V30 10396 C 1002.86 -3.06392 -3.00704 0
M  V30 10397 C 1002.09 -3.15618 -4.30373 0
M  V30 10398 O 1002.31 -2.31423 -5.21344 0
M  V30 10399 O 1001.25 -4.0841 -4.42136 0
M  V30 10400 H 1005.07 -2.68103 -1.42669 0
M  V30 10401 H 1002.66 -1.34848 -0.643144 0
M  V30 10402 H 1004.54 -1.91134 -3.7556 0
M  V30 10403 H 1003.22 -0.906275 -3.10754 0
M  V30 10404 H 1002.12 -3.03375 -2.18894 0
M  V30 10405 H 1003.46 -3.97992 -2.89591 0
M  V30 10406 N 1005.11 0.71652 -1.4037 0
M  V30 10407 C 1006.04 1.84345 -1.43315 0
M  V30 10408 C 1007.02 1.67537 -0.294186 0
M  V30 10409 O 1008.2 1.87582 -0.502671 0
M  V30 10410 C 1005.33 3.2229 -1.29408 0
M  V30 10411 C 1004.29 3.53769 -2.40897 0
M  V30 10412 C 1003.61 4.90847 -2.12068 0
M  V30 10413 C 1004.91 3.54862 -3.83237 0
M  V30 10414 H 1006.61 1.82138 -2.37626 0
M  V30 10415 H 1004.15 0.874873 -1.14376 0
M  V30 10416 H 1006.11 4.00819 -1.30085 0
M  V30 10417 H 1004.83 3.2507 -0.31573 0
M  V30 10418 H 1003.49 2.77579 -2.39469 0
M  V30 10419 H 1003.14 4.90229 -1.12626 0
M  V30 10420 H 1002.84 5.12875 -2.86762 0
M  V30 10421 H 1004.36 5.71711 -2.14426 0
M  V30 10422 H 1005.78 4.23432 -3.86494 0
M  V30 10423 H 1004.17 3.88416 -4.57442 0
M  V30 10424 H 1005.24 2.54266 -4.12888 0
M  V30 10425 N 1006.59 1.25851 0.948643 0
M  V30 10426 C 1007.55 1.0683 2.0278 0
M  V30 10427 C 1008.55 0.0191016 1.60789 0
M  V30 10428 O 1009.74 0.261836 1.72221 0
M  V30 10429 C 1006.87 0.623318 3.35153 0
M  V30 10430 H 1008.06 2.02635 2.21086 0
M  V30 10431 H 1005.62 1.08343 1.12657 0
M  V30 10432 H 1006.35 -0.337053 3.22544 0
M  V30 10433 H 1006.14 1.38082 3.66982 0
M  V30 10434 H 1007.63 0.511854 4.14451 0
M  V30 10435 N 1008.06 -1.15214 1.07534 0
M  V30 10436 C 1009.48 -1.67628 0.822045 0
M  V30 10437 C 1009.83 -1.8503 -0.652571 0
M  V30 10438 O 1008.95 -1.55497 -1.50498 0
M  V30 10439 C 1009.55 -3.04489 1.48566 0
M  V30 10440 C 1008.11 -3.53974 1.27983 0
M  V30 10441 C 1007.25 -2.29656 1.55414 0
M  V30 10442 H 1010.2 -0.994016 1.23713 0
M  V30 10443 H 1010.22 -3.69509 0.907916 0
M  V30 10444 H 1009.74 -2.91792 2.55888 0
M  V30 10445 H 1007.84 -3.71908 0.226906 0
M  V30 10446 H 1007.95 -4.35298 2.0013 0
M  V30 10447 H 1006.31 -2.35289 0.975251 0
M  V30 10448 H 1007.1 -2.19544 2.63923 0
M  V30 10449 N 1009.54 -0.859717 -1.32086 0
M  V30 10450 C 1010.79 -0.464662 -1.96686 0
M  V30 10451 C 1011.11 0.98412 -1.68345 0
M  V30 10452 O 1010.38 1.68847 -0.993361 0
M  V30 10453 H 1008.96 -0.168838 -0.727669 0
M  V30 10454 H 1011.62 -1.09726 -1.61079 0
M  V30 10455 H 1010.72 -0.613904 -3.06003 0
M  V30 10456 N 1011.02 1.44971 -0.618145 0
M  V30 10457 C 1012.27 2.03009 -0.126125 0
M  V30 10458 C 1012.62 1.47656 1.23351 0
M  V30 10459 O 1011.91 0.645901 1.80385 0
M  V30 10460 C 1012.11 3.57378 -0.0394861 0
M  V30 10461 C 1011.94 4.27706 -1.38918 0
M  V30 10462 C 1010.71 4.65206 -1.97261 0
M  V30 10463 C 1012.91 4.58987 -2.32024 0
M  V30 10464 N 1010.89 5.2044 -3.256 0
M  V30 10465 C 1012.26 5.15167 -3.44969 0
M  V30 10466 C 1014.31 4.40932 -2.31265 0
M  V30 10467 C 1013.02 5.55193 -4.57333 0
M  V30 10468 C 1015.04 4.81997 -3.42684 0
M  V30 10469 C 1014.4 5.38279 -4.54352 0
M  V30 10470 H 1010.5 0.77683 -0.0897695 0
M  V30 10471 H 1013.09 1.76646 -0.818805 0
M  V30 10472 H 1011.26 3.8338 0.622441 0
M  V30 10473 H 1012.99 4.02075 0.460165 0
M  V30 10474 H 1009.75 4.49102 -1.50348 0
M  V30 10475 H 1010.17 5.52546 -3.9118 0
M  V30 10476 H 1014.81 3.96723 -1.46187 0
M  V30 10477 H 1012.53 5.98362 -5.43128 0
M  V30 10478 H 1016.12 4.69751 -3.43257 0
M  V30 10479 H 1015 5.6947 -5.39142 0
M  V30 10480 N 1012.5 0.357919 1.53482 0
M  V30 10481 C 1013.43 -0.526753 2.23065 0
M  V30 10482 C 1014.44 -1.05239 1.24212 0
M  V30 10483 O 1015.63 -0.960078 1.50482 0
M  V30 10484 C 1012.73 -1.73919 2.9087 0
M  V30 10485 C 1011.91 -1.34638 4.16163 0
M  V30 10486 C 1010.96 -2.42005 4.67247 0
M  V30 10487 O 1009.99 -2.04714 5.31113 0
M  V30 10488 N 1011.19 -3.73478 4.44404 0
M  V30 10489 H 1013.96 0.0692386 2.9962 0
M  V30 10490 H 1011.52 0.182726 1.60866 0
M  V30 10491 H 1013.51 -2.45207 3.21956 0
M  V30 10492 H 1012.08 -2.24223 2.17814 0
M  V30 10493 H 1011.3 -0.463667 3.91464 0
M  V30 10494 H 1012.59 -1.06012 4.97633 0
M  V30 10495 H 1011.99 -4.06555 3.93357 0
M  V30 10496 H 1010.54 -4.40893 4.80059 0
M  V30 10497 N 1013.98 -1.5736 0.0868897 0
M  V30 10498 C 1015.22 -1.94341 -0.579598 0
M  V30 10499 C 1015.56 -0.968238 -1.68341 0
M  V30 10500 O 1014.83 8.29649e-05 -1.945 0
M  V30 10501 C 1015.11 -3.41497 -1.14245 0
M  V30 10502 C 1014.97 -4.49778 -0.044255 0
M  V30 10503 C 1016.29 -3.89788 -2.04336 0
M  V30 10504 H 1013.4 -0.70668 -0.20922 0
M  V30 10505 H 1016.05 -1.89359 0.15593 0
M  V30 10506 H 1014.2 -3.45873 -1.76929 0
M  V30 10507 H 1015.87 -4.57517 0.58959 0
M  V30 10508 H 1014.11 -4.293 0.623207 0
M  V30 10509 H 1014.78 -5.4992 -0.478749 0
M  V30 10510 H 1017.26 -3.87513 -1.51569 0
M  V30 10511 H 1016.13 -4.93335 -2.40648 0
M  V30 10512 H 1016.4 -3.28603 -2.95757 0
M  V30 10513 N 1015.45 0.186762 -1.56489 0
M  V30 10514 C 1016.39 1.25565 -1.91745 0
M  V30 10515 C 1017.4 1.4128 -0.80894 0
M  V30 10516 O 1018.59 1.41558 -1.08737 0
M  V30 10517 C 1015.69 2.62662 -2.14154 0
M  V30 10518 C 1014.86 2.68448 -3.45333 0
M  V30 10519 C 1013.92 3.86798 -3.56754 0
M  V30 10520 O 1012.95 3.73514 -4.29507 0
M  V30 10521 N 1014.15 5.02607 -2.90459 0
M  V30 10522 H 1016.91 0.956351 -2.84032 0
M  V30 10523 H 1014.47 0.376631 -1.57458 0
M  V30 10524 H 1016.47 3.40277 -2.19075 0
M  V30 10525 H 1015.04 2.85046 -1.28326 0
M  V30 10526 H 1014.26 1.77044 -3.52206 0
M  V30 10527 H 1015.54 2.69311 -4.31682 0
M  V30 10528 H 1014.94 5.163 -2.31194 0
M  V30 10529 H 1013.5 5.78139 -3.00996 0
M  V30 10530 N 1016.93 1.50896 0.454776 0
M  V30 10531 C 1017.9 1.70377 1.53312 0
M  V30 10532 C 1018.9 0.57408 1.50203 0
M  V30 10533 O 1020.09 0.841374 1.52534 0
M  V30 10534 C 1017.22 1.74411 2.92905 0
M  V30 10535 H 1018.41 2.66599 1.37349 0
M  V30 10536 H 1015.96 1.40622 0.68228 0
M  V30 10537 H 1016.7 0.799408 3.14293 0
M  V30 10538 H 1016.48 2.56496 2.96568 0
M  V30 10539 H 1017.97 1.91382 3.71164 0
M  V30 10540 N 1018.41 -0.709066 1.40748 0
M  V30 10541 C 1019.66 -1.46611 1.39103 0
M  V30 10542 C 1019.98 -1.95 -0.00365366 0
M  V30 10543 O 1019.25 -1.70791 -0.959541 0
M  V30 10544 H 1017.83 -0.543954 0.511979 0
M  V30 10545 H 1020.49 -0.840141 1.75863 0
M  V30 10546 H 1019.59 -2.33581 2.06994 0
M  V30 10547 N 1019.89 -1.26353 -0.941956 0
M  V30 10548 C 1021.12 -1.1446 -1.71996 0
M  V30 10549 C 1021.53 0.302957 -1.86759 0
M  V30 10550 O 1020.87 1.2193 -1.374 0
M  V30 10551 C 1020.93 -1.73986 -3.14593 0
M  V30 10552 C 1020.6 -3.23078 -3.23217 0
M  V30 10553 C 1021.59 -4.19905 -3.06554 0
M  V30 10554 C 1019.28 -3.63526 -3.46632 0
M  V30 10555 C 1021.27 -5.55159 -3.13172 0
M  V30 10556 C 1018.96 -4.98914 -3.52886 0
M  V30 10557 C 1019.96 -5.9454 -3.36172 0
M  V30 10558 O 1019.65 -7.27462 -3.42132 0
M  V30 10559 H 1019.38 -0.399453 -0.545356 0
M  V30 10560 H 1021.93 -1.67455 -1.18945 0
M  V30 10561 H 1020.16 -1.15453 -3.69063 0
M  V30 10562 H 1021.85 -1.57011 -3.74302 0
M  V30 10563 H 1022.62 -3.89995 -2.88321 0
M  V30 10564 H 1018.5 -2.8958 -3.58698 0
M  V30 10565 H 1022.04 -6.29777 -3.00044 0
M  V30 10566 H 1017.94 -5.28485 -3.70639 0
M  V30 10567 H 1018.7 -7.35725 -3.5868 0
M  V30 10568 N 1021.37 1.14642 -1.08144 0
M  V30 10569 C 1022.6 1.89484 -0.830864 0
M  V30 10570 C 1023.01 1.78443 0.616722 0
M  V30 10571 O 1022.37 1.14191 1.42361 0
M  V30 10572 C 1022.42 3.39554 -1.24039 0
M  V30 10573 O 1022.14 3.50286 -2.63119 0
M  V30 10574 C 1023.64 4.31399 -1.02029 0
M  V30 10575 H 1020.86 0.600283 -0.299835 0
M  V30 10576 H 1023.4 1.45204 -1.44001 0
M  V30 10577 H 1021.56 3.81467 -0.675407 0
M  V30 10578 H 1021.97 4.43481 -2.80045 0
M  V30 10579 H 1023.45 5.35079 -1.35625 0
M  V30 10580 H 1023.92 4.39179 0.0428697 0
M  V30 10581 H 1024.53 3.95238 -1.57057 0
M  V30 10582 N 1022.85 0.866709 1.31628 0
M  V30 10583 C 1023.8 0.291712 2.26126 0
M  V30 10584 C 1024.78 -0.569375 1.50489 0
M  V30 10585 O 1025.97 -0.416786 1.72023 0
M  V30 10586 C 1023.1 -0.508624 3.39511 0
M  V30 10587 C 1022.19 0.365524 4.22522 0
M  V30 10588 N 1022.58 1.45747 4.84346 0
M  V30 10589 C 1020.88 0.157384 4.45722 0
M  V30 10590 C 1021.58 1.99625 5.46374 0
M  V30 10591 N 1020.55 1.29371 5.27981 0
M  V30 10592 H 1024.35 1.12633 2.71461 0
M  V30 10593 H 1021.87 0.714118 1.45857 0
M  V30 10594 H 1023.87 -0.937057 4.06233 0
M  V30 10595 H 1022.53 -1.34089 2.9572 0
M  V30 10596 H 1023.54 1.84039 4.84097 0
M  V30 10597 H 1020.21 -0.639193 4.12578 0
M  V30 10598 H 1021.6 2.91222 6.05508 0
M  V30 10599 N 1024.32 -1.44642 0.625825 0
M  V30 10600 C 1025.27 -2.30653 -0.082259 0
M  V30 10601 C 1026.24 -1.43174 -0.842052 0
M  V30 10602 O 1027.43 -1.72082 -0.824151 0
M  V30 10603 C 1024.57 -3.2837 -1.06146 0
M  V30 10604 C 1023.68 -4.30953 -0.300638 0
M  V30 10605 C 1022.81 -5.15766 -1.27118 0
M  V30 10606 C 1021.85 -6.10061 -0.499215 0
M  V30 10607 N 1020.99 -6.87591 -1.41995 0
M  V30 10608 H 1025.83 -2.90664 0.657161 0
M  V30 10609 H 1023.37 -1.43215 0.335859 0
M  V30 10610 H 1025.32 -3.83507 -1.6425 0
M  V30 10611 H 1023.95 -2.70072 -1.76807 0
M  V30 10612 H 1023.01 -3.78331 0.396234 0
M  V30 10613 H 1024.32 -4.97892 0.300851 0
M  V30 10614 H 1023.47 -5.75394 -1.92372 0
M  V30 10615 H 1022.21 -4.48888 -1.9066 0
M  V30 10616 H 1021.22 -5.49547 0.166848 0
M  V30 10617 H 1022.44 -6.78973 0.131409 0
M  V30 10618 H 1020.39 -6.23387 -2.04267 0
M  V30 10619 H 1020.3 -7.5095 -0.872354 0
M  V30 10620 H 1021.57 -7.51746 -2.0615 0
M  V30 10621 N 1025.8 -0.366053 -1.5329 0
M  V30 10622 C 1027.05 0.224614 -2.00445 0
M  V30 10623 C 1027.36 1.49829 -1.2574 0
M  V30 10624 O 1028.57 2.16759 -1.63487 0
M  V30 10625 C 1027.03 0.450818 -3.57065 0
M  V30 10626 C 1026.63 -0.808257 -4.40649 0
M  V30 10627 C 1028.38 0.999116 -4.12575 0
M  V30 10628 C 1026.28 -0.551612 -5.88822 0
M  V30 10629 H 1025.21 0.0877114 -0.748881 0
M  V30 10630 H 1027.87 -0.484866 -1.76978 0
M  V30 10631 H 1026.25 1.22157 -3.76688 0
M  V30 10632 H 1027.42 -1.58184 -4.32798 0
M  V30 10633 H 1025.74 -1.27981 -3.96245 0
M  V30 10634 H 1028.33 1.20646 -5.20911 0
M  V30 10635 H 1028.68 1.96139 -3.67199 0
M  V30 10636 H 1029.21 0.288518 -3.96752 0
M  V30 10637 H 1025.95 -1.48423 -6.38475 0
M  V30 10638 H 1025.47 0.183462 -5.99519 0
M  V30 10639 H 1027.15 -0.177307 -6.46757 0
M  V30 10640 N 1027.28 1.57312 -0.0952337 0
M  V30 10641 C 1028.53 1.93533 0.568131 0
M  V30 10642 C 1028.84 0.979121 1.6933 0
M  V30 10643 O 1030.05 1.23506 2.41782 0
M  V30 10644 C 1028.5 3.43875 1.06198 0
M  V30 10645 C 1028.11 4.47988 -0.0334397 0
M  V30 10646 C 1029.86 3.89057 1.69807 0
M  V30 10647 C 1027.76 5.89483 0.475774 0
M  V30 10648 H 1026.69 0.7224 0.215995 0
M  V30 10649 H 1029.34 1.82699 -0.171257 0
M  V30 10650 H 1027.73 3.49862 1.85506 0
M  V30 10651 H 1028.9 4.53644 -0.808934 0
M  V30 10652 H 1027.21 4.12415 -0.574725 0
M  V30 10653 H 1029.81 4.92171 2.08978 0
M  V30 10654 H 1030.15 3.27713 2.5673 0
M  V30 10655 H 1030.69 3.85772 0.970815 0
M  V30 10656 H 1027.43 6.54528 -0.356837 0
M  V30 10657 H 1026.95 5.87297 1.21827 0
M  V30 10658 H 1028.63 6.40066 0.944697 0
M  V30 10659 N 1028.76 -0.17846 1.56586 0
M  V30 10660 C 1030.17 -0.529957 1.50544 0
M  V30 10661 C 1030.37 -1.85015 0.798237 0
M  V30 10662 O 1029.43 -2.49983 0.355639 0
M  V30 10663 C 1030.74 -0.569314 2.95261 0
M  V30 10664 C 1032.29 -0.657008 3.06027 0
M  V30 10665 C 1032.77 -0.727323 4.52188 0
M  V30 10666 N 1034.26 -0.790406 4.56406 0
M  V30 10667 C 1034.99 -0.865265 5.66834 0
M  V30 10668 N 1034.49 -0.901398 6.86911 0
M  V30 10669 N 1036.28 -0.903736 5.54787 0
M  V30 10670 H 1028.43 0.687304 2.00972 0
M  V30 10671 H 1030.69 0.246936 0.915274 0
M  V30 10672 H 1030.4 0.331934 3.5013 0
M  V30 10673 H 1030.27 -1.41828 3.4952 0
M  V30 10674 H 1032.66 -1.54868 2.51197 0
M  V30 10675 H 1032.74 0.218495 2.54865 0
M  V30 10676 H 1032.39 0.160067 5.07648 0
M  V30 10677 H 1032.32 -1.61887 5.01099 0
M  V30 10678 H 1034.81 -0.771054 3.6995 0
M  V30 10679 H 1035.12 -0.959494 7.6682 0
M  V30 10680 H 1033.47 -0.869795 6.89536 0
M  V30 10681 H 1036.66 -0.872459 4.59898 0
M  V30 10682 H 1036.83 -0.958615 6.4087 0
M  V30 10683 N 1030.24 -1.51135 -0.446768 0
M  V30 10684 C 1031.51 -1.5387 -1.20762 0
M  V30 10685 C 1031.89 -0.297446 -2.08994 0
M  V30 10686 O 1031.24 0.717975 -2.16927 0
M  V30 10687 C 1031.45 -2.84767 -2.01764 0
M  V30 10688 C 1032.8 -3.3636 -2.59128 0
M  V30 10689 O 1033.82 -2.86254 -2.11984 0
M  V30 10690 O 1032.68 -4.23765 -3.45088 0
M  V30 10691 H 1029.78 -0.618228 -0.549293 0
M  V30 10692 H 1032.32 -1.63442 -0.456605 0
M  V30 10693 H 1031.09 -3.6657 -1.36901 0
M  V30 10694 H 1030.72 -2.78313 -2.8395 0
M  V30 10695 N 1031.71 0.701592 -1.41122 0
M  V30 10696 C 1032.99 1.45569 -1.30648 0
M  V30 10697 C 1033.37 2.10988 0.068744 0
M  V30 10698 O 1032.72 2.01228 1.08257 0
M  V30 10699 C 1032.93 2.48003 -2.45551 0
M  V30 10700 C 1034.28 3.13431 -2.86437 0
M  V30 10701 O 1035.3 2.58327 -2.45247 0
M  V30 10702 O 1034.16 4.13221 -3.57646 0
M  V30 10703 H 1031.25 0.648 -0.513834 0
M  V30 10704 H 1033.8 0.73258 -1.53073 0
M  V30 10705 H 1032.57 1.98276 -3.37346 0
M  V30 10706 H 1032.19 3.27832 -2.24971 0
M  V30 10707 N 1033.19 1.2685 0.935242 0
M  V30 10708 C 1034.42 1.15645 1.72165 0
M  V30 10709 C 1034.84 -0.283909 1.85945 0
M  V30 10710 O 1034.2 -1.20567 1.354 0
M  V30 10711 C 1034.25 1.83689 3.10307 0
M  V30 10712 O 1033.35 1.12972 3.96625 0
M  V30 10713 H 1032.69 0.402629 0.528002 0
M  V30 10714 H 1035.22 1.67781 1.17093 0
M  V30 10715 H 1035.23 1.90749 3.60664 0
M  V30 10716 H 1033.91 2.88472 2.99595 0
M  V30 10717 H 1032.48 1.13929 3.5507 0
M  V30 10718 N 1034.67 -1.14067 1.0875 0
M  V30 10719 C 1035.92 -1.84819 0.817698 0
M  V30 10720 C 1036.24 -1.83545 -0.658488 0
M  V30 10721 O 1035.51 -1.28633 -1.47751 0
M  V30 10722 H 1034.09 -0.68433 0.299502 0
M  V30 10723 H 1036.75 -1.38208 1.37421 0
M  V30 10724 H 1035.85 -2.89541 1.16501 0
M  V30 10725 N 1036.15 -0.873678 -1.31166 0
M  V30 10726 C 1037.1 -0.330288 -2.28424 0
M  V30 10727 C 1038.07 0.573299 -1.55893 0
M  V30 10728 O 1039.25 0.504143 -1.84019 0
M  V30 10729 C 1036.39 0.459004 -3.42034 0
M  V30 10730 C 1035.5 -0.472519 -4.29408 0
M  V30 10731 C 1034.64 0.331261 -5.30166 0
M  V30 10732 C 1033.68 -0.596453 -6.09187 0
M  V30 10733 N 1032.81 0.171305 -7.01891 0
M  V30 10734 H 1037.65 -1.16485 -2.7429 0
M  V30 10735 H 1035.19 -0.585813 -1.34932 0
M  V30 10736 H 1037.15 0.932432 -4.06647 0
M  V30 10737 H 1035.78 1.25824 -2.97268 0
M  V30 10738 H 1034.83 -1.06441 -3.65205 0
M  V30 10739 H 1036.14 -1.18372 -4.84551 0
M  V30 10740 H 1035.3 0.867038 -6.00473 0
M  V30 10741 H 1034.04 1.07573 -4.75688 0
M  V30 10742 H 1033.04 -1.14395 -5.37767 0
M  V30 10743 H 1034.27 -1.33983 -6.65752 0
M  V30 10744 H 1032.21 0.89852 -6.49817 0
M  V30 10745 H 1032.13 -0.480481 -7.54472 0
M  V30 10746 H 1033.4 0.688192 -7.76456 0
M  V30 10747 N 1037.63 1.44308 -0.633487 0
M  V30 10748 C 1038.57 2.30694 0.0700257 0
M  V30 10749 C 1039.54 1.43618 0.834447 0
M  V30 10750 O 1040.73 1.72517 0.815014 0
M  V30 10751 C 1037.87 3.28929 1.04403 0
M  V30 10752 C 1036.98 4.31106 0.277779 0
M  V30 10753 C 1036.12 5.16433 1.24381 0
M  V30 10754 C 1035.16 6.10317 0.466855 0
M  V30 10755 N 1034.29 6.88335 1.38347 0
M  V30 10756 H 1039.13 2.90311 -0.672567 0
M  V30 10757 H 1036.67 1.43034 -0.343449 0
M  V30 10758 H 1038.63 3.84373 1.62214 0
M  V30 10759 H 1037.26 2.71006 1.75372 0
M  V30 10760 H 1036.31 3.78115 -0.416292 0
M  V30 10761 H 1037.62 4.97725 -0.327251 0
M  V30 10762 H 1036.78 5.76406 1.89318 0
M  V30 10763 H 1035.51 4.49893 1.88276 0
M  V30 10764 H 1034.52 5.49451 -0.195989 0
M  V30 10765 H 1035.74 6.78894 -0.167414 0
M  V30 10766 H 1033.69 6.24461 2.00959 0
M  V30 10767 H 1033.61 7.51402 0.832517 0
M  V30 10768 H 1034.88 7.52829 2.0216 0
M  V30 10769 N 1039.1 0.374177 1.53094 0
M  V30 10770 C 1040.35 -0.213131 2.01677 0
M  V30 10771 C 1040.68 -1.47715 1.26071 0
M  V30 10772 O 1039.96 -1.91199 0.356834 0
M  V30 10773 C 1040.24 -0.496392 3.56662 0
M  V30 10774 C 1040.09 0.781859 4.42953 0
M  V30 10775 C 1041.41 -1.29339 4.20666 0
M  V30 10776 H 1038.53 -0.0759885 0.733072 0
M  V30 10777 H 1041.17 0.500765 1.83282 0
M  V30 10778 H 1039.32 -1.10455 3.72467 0
M  V30 10779 H 1041 1.41914 4.38928 0
M  V30 10780 H 1039.24 1.40041 4.10574 0
M  V30 10781 H 1039.91 0.538508 5.49367 0
M  V30 10782 H 1042.39 -0.778848 4.08746 0
M  V30 10783 H 1041.26 -1.46033 5.29118 0
M  V30 10784 H 1041.52 -2.30435 3.77296 0
M  V30 10785 N 1040.58 -1.57259 0.103575 0
M  V30 10786 C 1041.81 -1.99424 -0.569638 0
M  V30 10787 C 1042.23 -0.982475 -1.60403 0
M  V30 10788 O 1041.59 0.0479231 -1.81237 0
M  V30 10789 C 1041.64 -3.40527 -1.18633 0
M  V30 10790 O 1040.74 -3.42167 -2.30208 0
M  V30 10791 H 1040.08 -0.648251 -0.143759 0
M  V30 10792 H 1042.61 -2.03739 0.187493 0
M  V30 10793 H 1042.62 -3.78404 -1.5256 0
M  V30 10794 H 1041.3 -4.13686 -0.428582 0
M  V30 10795 H 1039.88 -3.16093 -1.97837 0
M  V30 10796 N 1042.06 0.170153 -1.56679 0
M  V30 10797 C 1043.29 0.902134 -1.86197 0
M  V30 10798 C 1043.7 1.75775 -0.689098 0
M  V30 10799 O 1043.06 1.79271 0.341763 0
M  V30 10800 C 1043.11 1.77792 -3.14757 0
M  V30 10801 O 1042.83 0.956817 -4.27524 0
M  V30 10802 C 1044.33 2.61947 -3.57629 0
M  V30 10803 H 1041.55 0.262026 -0.617724 0
M  V30 10804 H 1044.1 0.169899 -2.03793 0
M  V30 10805 H 1042.25 2.46348 -2.98984 0
M  V30 10806 H 1042.67 1.5559 -5.00891 0
M  V30 10807 H 1044.14 3.19011 -4.50484 0
M  V30 10808 H 1044.62 3.36873 -2.81803 0
M  V30 10809 H 1045.22 1.98721 -3.76019 0
M  V30 10810 N 1043.54 1.5137 0.438746 0
M  V30 10811 C 1044.78 1.65173 1.18698 0
M  V30 10812 C 1045.14 0.362753 1.88949 0
M  V30 10813 O 1044.43 -0.641351 1.80547 0
M  V30 10814 C 1044.63 2.79221 2.23093 0
M  V30 10815 C 1044.46 4.19085 1.63088 0
M  V30 10816 C 1043.23 4.85042 1.41642 0
M  V30 10817 C 1045.42 5.02225 1.10789 0
M  V30 10818 N 1043.41 6.09024 0.772198 0
M  V30 10819 C 1044.78 6.17197 0.588854 0
M  V30 10820 C 1046.83 4.87764 0.999516 0
M  V30 10821 C 1045.53 7.19295 -0.0279103 0
M  V30 10822 C 1047.56 5.90068 0.396648 0
M  V30 10823 C 1046.92 7.04311 -0.111855 0
M  V30 10824 H 1043.02 0.658316 0.422071 0
M  V30 10825 H 1045.61 1.88593 0.483808 0
M  V30 10826 H 1043.78 2.57468 2.908 0
M  V30 10827 H 1045.51 2.82213 2.90066 0
M  V30 10828 H 1042.26 4.42886 1.67776 0
M  V30 10829 H 1042.69 6.75383 0.467568 0
M  V30 10830 H 1047.33 3.99695 1.37853 0
M  V30 10831 H 1045.05 8.07013 -0.419056 0
M  V30 10832 H 1048.63 5.80948 0.314715 0
M  V30 10833 H 1047.51 7.82118 -0.571021 0
M  V30 10834 N 1045.02 -0.694098 1.41492 0
M  V30 10835 C 1045.93 -1.83778 1.45818 0
M  V30 10836 C 1046.94 -1.70471 0.348639 0
M  V30 10837 O 1048.12 -1.92361 0.596588 0
M  V30 10838 C 1045.18 -3.19771 1.33967 0
M  V30 10839 C 1044.24 -3.45175 2.5525 0
M  V30 10840 C 1043.48 -4.74681 2.43955 0
M  V30 10841 O 1043.7 -5.51268 1.46491 0
M  V30 10842 O 1042.63 -5.00901 3.33739 0
M  V30 10843 H 1046.46 -1.83084 2.42309 0
M  V30 10844 H 1044.05 -0.847349 1.23046 0
M  V30 10845 H 1045.93 -4.00961 1.29648 0
M  V30 10846 H 1044.6 -3.21145 0.405926 0
M  V30 10847 H 1043.51 -2.6391 2.65146 0
M  V30 10848 H 1044.84 -3.48617 3.47458 0
M  V30 10849 N 1046.49 -1.27344 -0.928501 0
M  V30 10850 C 1047.91 -1.12361 -1.49103 0
M  V30 10851 C 1048.26 0.291667 -1.9402 0
M  V30 10852 O 1047.38 1.18449 -1.81104 0
M  V30 10853 C 1047.98 -2.03358 -2.70981 0
M  V30 10854 C 1046.54 -1.92483 -3.23461 0
M  V30 10855 C 1045.68 -1.95961 -1.962 0
M  V30 10856 H 1048.63 -1.40249 -0.742689 0
M  V30 10857 H 1048.65 -1.58892 -3.45736 0
M  V30 10858 H 1048.17 -3.06356 -2.38259 0
M  V30 10859 H 1046.27 -0.924676 -3.60944 0
M  V30 10860 H 1046.38 -2.78682 -3.89709 0
M  V30 10861 H 1044.74 -1.40175 -2.12657 0
M  V30 10862 H 1045.53 -3.00612 -1.65793 0
M  V30 10863 N 1047.97 1.13488 -1.09353 0
M  V30 10864 C 1048.9 2.18563 -0.69012 0
M  V30 10865 C 1049.92 1.60585 0.267651 0
M  V30 10866 O 1051.11 1.78419 0.0538176 0
M  V30 10867 C 1048.21 3.389 0.00391255 0
M  V30 10868 C 1047.38 4.2639 -0.975209 0
M  V30 10869 C 1046.44 5.25258 -0.314719 0
M  V30 10870 O 1045.46 5.6101 -0.962119 0
M  V30 10871 N 1046.67 5.72978 0.931458 0
M  V30 10872 H 1049.43 2.53788 -1.59411 0
M  V30 10873 H 1046.99 1.28803 -0.980886 0
M  V30 10874 H 1048.98 4.02112 0.45696 0
M  V30 10875 H 1047.55 3.0192 0.81014 0
M  V30 10876 H 1046.77 3.59964 -1.60684 0
M  V30 10877 H 1048.06 4.817 -1.63836 0
M  V30 10878 H 1047.46 5.46078 1.477 0
M  V30 10879 H 1046.02 6.38131 1.32784 0
M  V30 10880 N 1049.45 0.880621 1.30701 0
M  V30 10881 C 1050.73 0.41712 1.91101 0
M  V30 10882 C 1051.11 -1.10177 1.80067 0
M  V30 10883 O 1050.46 -1.93513 1.21511 0
M  V30 10884 C 1050.67 0.910364 3.36917 0
M  V30 10885 C 1052.01 0.942764 4.14001 0
M  V30 10886 O 1053.04 0.856733 3.45743 0
M  V30 10887 O 1051.9 1.06913 5.3594 0
M  V30 10888 H 1048.99 0.126775 0.817225 0
M  V30 10889 H 1051.54 0.969236 1.39298 0
M  V30 10890 H 1050.31 1.95414 3.39012 0
M  V30 10891 H 1049.93 0.337164 3.96168 0
M  V30 10892 N 1050.93 -1.4397 0.641131 0
M  V30 10893 C 1051.86 -2.28997 -0.0963315 0
M  V30 10894 C 1052.87 -1.4184 -0.799071 0
M  V30 10895 O 1054.06 -1.65896 -0.658846 0
M  V30 10896 C 1051.16 -3.18465 -1.15903 0
M  V30 10897 C 1050.34 -4.34093 -0.536828 0
M  V30 10898 C 1049.4 -5.04522 -1.4948 0
M  V30 10899 O 1048.42 -5.60202 -1.00807 0
M  V30 10900 N 1049.62 -5.06899 -2.82901 0
M  V30 10901 H 1052.39 -2.9293 0.633422 0
M  V30 10902 H 1049.95 -1.54527 0.48302 0
M  V30 10903 H 1051.94 -3.62445 -1.80044 0
M  V30 10904 H 1050.51 -2.56214 -1.79089 0
M  V30 10905 H 1049.73 -3.9318 0.283414 0
M  V30 10906 H 1051.02 -5.08698 -0.101966 0
M  V30 10907 H 1050.42 -4.63012 -3.25017 0
M  V30 10908 H 1048.97 -5.54637 -3.42376 0
M  V30 10909 N 1052.41 -0.382291 -1.52893 0
M  V30 10910 C 1053.34 0.447829 -2.29165 0
M  V30 10911 C 1054.32 1.06956 -1.32267 0
M  V30 10912 O 1055.5 1.08365 -1.61154 0
M  V30 10913 C 1052.63 1.57902 -3.09329 0
M  V30 10914 C 1051.59 1.08369 -4.14053 0
M  V30 10915 C 1050.91 2.30641 -4.82399 0
M  V30 10916 C 1052.21 0.156591 -5.22065 0
M  V30 10917 H 1053.91 -0.188541 -2.98806 0
M  V30 10918 H 1051.45 -0.0921179 -1.43705 0
M  V30 10919 H 1053.41 2.16652 -3.61442 0
M  V30 10920 H 1052.13 2.24287 -2.37409 0
M  V30 10921 H 1050.79 0.518772 -3.62911 0
M  V30 10922 H 1050.44 2.9552 -4.07034 0
M  V30 10923 H 1050.14 1.98163 -5.53177 0
M  V30 10924 H 1051.66 2.90047 -5.37313 0
M  V30 10925 H 1053.08 0.652065 -5.6958 0
M  V30 10926 H 1051.47 -0.0780978 -6.00049 0
M  V30 10927 H 1052.54 -0.796529 -4.78313 0
M  V30 10928 N 1053.89 1.57202 -0.111913 0
M  V30 10929 C 1055.11 1.99723 0.559054 0
M  V30 10930 C 1055.54 0.990968 1.59879 0
M  V30 10931 O 1054.89 -0.038311 1.8126 0
M  V30 10932 C 1054.94 3.41151 1.16826 0
M  V30 10933 O 1054.05 3.43383 2.2839 0
M  V30 10934 H 1053.39 0.649004 0.140319 0
M  V30 10935 H 1055.92 2.03637 -0.198295 0
M  V30 10936 H 1055.93 3.79208 1.50551 0
M  V30 10937 H 1054.6 4.13907 0.406637 0
M  V30 10938 H 1053.18 3.17138 1.96158 0
M  V30 10939 N 1055.36 -0.161842 1.56767 0
M  V30 10940 C 1056.29 -1.20226 2.0017 0
M  V30 10941 C 1057.27 -1.4564 0.878807 0
M  V30 10942 O 1058.46 -1.56813 1.14557 0
M  V30 10943 C 1055.59 -2.53897 2.36968 0
M  V30 10944 C 1054.54 -2.43033 3.52305 0
M  V30 10945 C 1053.87 -3.81281 3.74872 0
M  V30 10946 C 1055.17 -1.927 4.85453 0
M  V30 10947 H 1056.86 -0.84142 2.87333 0
M  V30 10948 H 1054.41 -0.403309 1.38237 0
M  V30 10949 H 1056.36 -3.26893 2.6593 0
M  V30 10950 H 1055.09 -2.91787 1.46724 0
M  V30 10951 H 1053.75 -1.7249 3.23485 0
M  V30 10952 H 1053.39 -4.1658 2.81904 0
M  V30 10953 H 1053.09 -3.74877 4.52483 0
M  V30 10954 H 1054.62 -4.55848 4.06245 0
M  V30 10955 H 1056.03 -2.55477 5.13229 0
M  V30 10956 H 1054.43 -1.97222 5.66766 0
M  V30 10957 H 1055.5 -0.881816 4.76814 0
M  V30 10958 N 1056.84 -1.516 -0.430713 0
M  V30 10959 C 1058.07 -1.68169 -1.20011 0
M  V30 10960 C 1058.48 -0.381406 -1.85316 0
M  V30 10961 O 1057.82 0.6506 -1.71793 0
M  V30 10962 C 1057.88 -2.7454 -2.32095 0
M  V30 10963 C 1057.55 -4.16942 -1.87104 0
M  V30 10964 C 1058.55 -5.01503 -1.37078 0
M  V30 10965 C 1056.23 -4.63075 -1.94594 0
M  V30 10966 C 1058.22 -6.3026 -0.951362 0
M  V30 10967 C 1055.91 -5.91827 -1.52264 0
M  V30 10968 C 1056.91 -6.75247 -1.02618 0
M  V30 10969 O 1056.6 -8.01591 -0.608905 0
M  V30 10970 H 1056.33 -0.567361 -0.367528 0
M  V30 10971 H 1058.88 -1.98819 -0.515759 0
M  V30 10972 H 1057.11 -2.39219 -3.03828 0
M  V30 10973 H 1058.8 -2.79921 -2.93937 0
M  V30 10974 H 1059.57 -4.67063 -1.30681 0
M  V30 10975 H 1055.45 -3.98262 -2.32182 0
M  V30 10976 H 1058.99 -6.95323 -0.563163 0
M  V30 10977 H 1054.89 -6.2578 -1.58333 0
M  V30 10978 H 1055.66 -8.15201 -0.73416 0
M  V30 10979 N 1058.32 0.686584 -1.41858 0
M  V30 10980 C 1059.55 1.47519 -1.45072 0
M  V30 10981 C 1059.96 1.88709 -0.0585868 0
M  V30 10982 O 1059.32 1.57373 0.924116 0
M  V30 10983 C 1059.37 2.73195 -2.36742 0
M  V30 10984 O 1059.09 2.33736 -3.70539 0
M  V30 10985 C 1060.59 3.66861 -2.48854 0
M  V30 10986 H 1057.81 0.454307 -0.493808 0
M  V30 10987 H 1060.36 0.844612 -1.86243 0
M  V30 10988 H 1058.51 3.32468 -1.98856 0
M  V30 10989 H 1058.93 3.14809 -4.19518 0
M  V30 10990 H 1060.4 4.51801 -3.17143 0
M  V30 10991 H 1060.88 4.11961 -1.52265 0
M  V30 10992 H 1061.48 3.13486 -2.87414 0
M  V30 10993 N 1059.8 1.27835 0.921735 0
M  V30 10994 C 1061.02 1.17465 1.70929 0
M  V30 10995 C 1061.45 -0.264171 1.86236 0
M  V30 10996 O 1060.81 -1.19124 1.36671 0
M  V30 10997 C 1060.85 1.8697 3.08342 0
M  V30 10998 O 1059.96 1.17173 3.95404 0
M  V30 10999 H 1059.3 0.408206 0.523702 0
M  V30 11000 H 1061.83 1.69013 1.15307 0
M  V30 11001 H 1061.84 1.94564 3.58621 0
M  V30 11002 H 1060.51 2.91633 2.96518 0
M  V30 11003 H 1059.09 1.17688 3.53842 0
M  V30 11004 N 1061.28 -1.12907 1.09954 0
M  V30 11005 C 1062.51 -1.87866 0.859656 0
M  V30 11006 C 1062.91 -1.79664 -0.593096 0
M  V30 11007 O 1062.26 -1.16499 -1.42034 0
M  V30 11008 C 1062.32 -3.38055 1.22308 0
M  V30 11009 C 1061.98 -3.70035 2.68185 0
M  V30 11010 C 1062.98 -3.68817 3.66428 0
M  V30 11011 C 1060.66 -3.99523 3.04444 0
M  V30 11012 C 1062.66 -3.96639 4.98955 0
M  V30 11013 C 1060.35 -4.27006 4.37161 0
M  V30 11014 C 1061.34 -4.25549 5.34225 0
M  V30 11015 O 1061.03 -4.52354 6.64553 0
M  V30 11016 H 1060.76 -0.601425 0.308649 0
M  V30 11017 H 1063.32 -1.43817 1.46649 0
M  V30 11018 H 1061.55 -3.82634 0.559322 0
M  V30 11019 H 1063.24 -3.94348 0.961479 0
M  V30 11020 H 1064 -3.46104 3.3976 0
M  V30 11021 H 1059.88 -3.99801 2.29521 0
M  V30 11022 H 1063.43 -3.95418 5.74709 0
M  V30 11023 H 1059.32 -4.49192 4.6357 0
M  V30 11024 H 1060.09 -4.69997 6.70108 0
M  V30 11025 N 1062.75 -0.88754 -1.30232 0
M  V30 11026 C 1063.7 -0.354497 -2.28061 0
M  V30 11027 C 1064.67 0.556732 -1.56492 0
M  V30 11028 O 1065.86 0.484597 -1.84543 0
M  V30 11029 C 1063 0.422701 -3.42501 0
M  V30 11030 C 1062.11 -0.518036 -4.28883 0
M  V30 11031 C 1061.24 0.275011 -5.30488 0
M  V30 11032 C 1060.28 -0.661032 -6.0852 0
M  V30 11033 N 1059.42 0.0968509 -7.02033 0
M  V30 11034 H 1064.26 -1.19388 -2.73039 0
M  V30 11035 H 1061.8 -0.600091 -1.34303 0
M  V30 11036 H 1063.75 0.889249 -4.07613 0
M  V30 11037 H 1062.38 1.22664 -2.98586 0
M  V30 11038 H 1061.44 -1.10308 -3.64055 0
M  V30 11039 H 1062.75 -1.23504 -4.83268 0
M  V30 11040 H 1061.9 0.803301 -6.01358 0
M  V30 11041 H 1060.64 1.02522 -4.76802 0
M  V30 11042 H 1059.65 -1.20093 -5.36524 0
M  V30 11043 H 1060.87 -1.41037 -6.64293 0
M  V30 11044 H 1058.82 0.829548 -6.50734 0
M  V30 11045 H 1058.73 -0.560476 -7.5392 0
M  V30 11046 H 1060 0.6058 -7.77142 0
M  V30 11047 N 1064.23 1.43628 -0.648757 0
M  V30 11048 C 1065.48 2.01864 -0.160336 0
M  V30 11049 C 1065.81 1.51148 1.22412 0
M  V30 11050 O 1065.06 0.693168 1.83013 0
M  V30 11051 C 1065.36 3.57214 -0.115282 0
M  V30 11052 C 1065.03 4.27258 -1.44088 0
M  V30 11053 C 1063.69 4.46109 -1.8039 0
M  V30 11054 C 1066.04 4.66962 -2.31508 0
M  V30 11055 C 1063.37 5.01928 -3.03785 0
M  V30 11056 C 1065.72 5.24148 -3.54191 0
M  V30 11057 C 1064.39 5.41216 -3.90694 0
M  V30 11058 H 1063.66 0.738674 -0.0586712 0
M  V30 11059 H 1066.3 1.72163 -0.838578 0
M  V30 11060 H 1064.61 3.86431 0.646395 0
M  V30 11061 H 1066.3 4.00025 0.279425 0
M  V30 11062 H 1062.89 4.12928 -1.14842 0
M  V30 11063 H 1067.08 4.52095 -2.04753 0
M  V30 11064 H 1062.33 5.13328 -3.32122 0
M  V30 11065 H 1066.51 5.53861 -4.22151 0
M  V30 11066 H 1064.14 5.84234 -4.8639 0
M  V30 11067 N 1065.71 0.390394 1.52688 0
M  V30 11068 C 1066.66 -0.444229 2.26485 0
M  V30 11069 C 1067.63 -1.05688 1.28138 0
M  V30 11070 O 1068.81 -1.0847 1.56968 0
M  V30 11071 C 1065.95 -1.56501 3.07574 0
M  V30 11072 C 1065.07 -0.975111 4.20851 0
M  V30 11073 C 1064.2 -2.06704 4.89333 0
M  V30 11074 C 1063.24 -1.45309 5.94602 0
M  V30 11075 N 1062.38 -2.48437 6.56676 0
M  V30 11076 H 1067.22 0.191535 2.97384 0
M  V30 11077 H 1064.75 0.106287 1.46716 0
M  V30 11078 H 1066.71 -2.22558 3.52879 0
M  V30 11079 H 1065.34 -2.17107 2.38881 0
M  V30 11080 H 1064.39 -0.204109 3.79852 0
M  V30 11081 H 1065.71 -0.486465 4.96422 0
M  V30 11082 H 1064.86 -2.80528 5.37949 0
M  V30 11083 H 1063.6 -2.58928 4.13289 0
M  V30 11084 H 1062.6 -0.700091 5.45324 0
M  V30 11085 H 1063.83 -0.938775 6.7258 0
M  V30 11086 H 1061.77 -2.99829 5.83471 0
M  V30 11087 H 1061.69 -2.04331 7.27863 0
M  V30 11088 H 1062.96 -3.21888 7.09935 0
M  V30 11089 N 1067.19 -1.57141 0.120249 0
M  V30 11090 C 1068.44 -1.94852 -0.536387 0
M  V30 11091 C 1068.76 -1.00452 -1.67136 0
M  V30 11092 O 1068.03 -0.061053 -1.95805 0
M  V30 11093 H 1066.61 -0.719411 -0.201138 0
M  V30 11094 H 1069.27 -1.93977 0.189482 0
M  V30 11095 H 1068.37 -2.97917 -0.930145 0
M  V30 11096 N 1068.67 0.153526 -1.5685 0
M  V30 11097 C 1069.63 1.17362 -1.96873 0
M  V30 11098 C 1070.63 1.36219 -0.854456 0
M  V30 11099 O 1071.82 1.33322 -1.1212 0
M  V30 11100 C 1068.95 2.53523 -2.27901 0
M  V30 11101 H 1070.14 0.830432 -2.88173 0
M  V30 11102 H 1067.7 0.396633 -1.51184 0
M  V30 11103 H 1068.43 2.92824 -1.39371 0
M  V30 11104 H 1068.22 2.41198 -3.09137 0
M  V30 11105 H 1069.71 3.27006 -2.59725 0
M  V30 11106 N 1070.14 1.51827 0.422667 0
M  V30 11107 C 1071.07 1.77152 1.52117 0
M  V30 11108 C 1072.06 0.621895 1.58324 0
M  V30 11109 O 1073.24 0.866118 1.73816 0
M  V30 11110 C 1070.37 1.90991 2.90068 0
M  V30 11111 C 1069.32 3.06516 2.98717 0
M  V30 11112 C 1068.65 3.05559 4.38791 0
M  V30 11113 C 1069.95 4.46223 2.71445 0
M  V30 11114 H 1071.64 2.69135 1.31175 0
M  V30 11115 H 1069.19 1.29507 0.629607 0
M  V30 11116 H 1071.14 2.07291 3.6689 0
M  V30 11117 H 1069.87 0.956688 3.12274 0
M  V30 11118 H 1068.53 2.89945 2.24338 0
M  V30 11119 H 1068.17 2.07985 4.57986 0
M  V30 11120 H 1067.87 3.83144 4.45505 0
M  V30 11121 H 1069.4 3.23971 5.17566 0
M  V30 11122 H 1070.81 4.63069 3.37994 0
M  V30 11123 H 1069.21 5.25623 2.89552 0
M  V30 11124 H 1070.28 4.5525 1.6696 0
M  V30 11125 N 1071.62 -0.679052 1.4222 0
M  V30 11126 C 1072.9 -1.43473 1.32947 0
M  V30 11127 C 1073.28 -2.11071 -0.0351689 0
M  V30 11128 O 1072.63 -2.02925 -1.05042 0
M  V30 11129 C 1072.84 -2.44065 2.49466 0
M  V30 11130 C 1074.19 -3.08834 2.91387 0
M  V30 11131 O 1075.21 -2.54392 2.49325 0
M  V30 11132 O 1074.07 -4.07478 3.64175 0
M  V30 11133 H 1071.16 -0.639743 0.524078 0
M  V30 11134 H 1073.71 -0.708134 1.54219 0
M  V30 11135 H 1072.48 -1.92884 3.40457 0
M  V30 11136 H 1072.1 -3.24212 2.30158 0
M  V30 11137 N 1073.1 -1.28322 -0.914942 0
M  V30 11138 C 1074.05 -1.12146 -2.01722 0
M  V30 11139 C 1075.02 -0.0189279 -1.66089 0
M  V30 11140 O 1076.2 -0.183638 -1.89914 0
M  V30 11141 C 1073.34 -0.78808 -3.35981 0
M  V30 11142 C 1072.46 -1.96954 -3.84491 0
M  V30 11143 C 1071.59 -1.57688 -5.07255 0
M  V30 11144 C 1070.63 -2.72506 -5.48094 0
M  V30 11145 N 1069.77 -2.33741 -6.62049 0
M  V30 11146 H 1074.61 -2.06461 -2.1489 0
M  V30 11147 H 1072.14 -1.0276 -1.05256 0
M  V30 11148 H 1074.1 -0.575546 -4.13211 0
M  V30 11149 H 1072.73 0.118132 -3.22584 0
M  V30 11150 H 1071.78 -2.29423 -3.03429 0
M  V30 11151 H 1073.1 -2.8304 -4.10719 0
M  V30 11152 H 1072.25 -1.32634 -5.92025 0
M  V30 11153 H 1070.99 -0.687291 -4.82833 0
M  V30 11154 H 1069.99 -2.9826 -4.61867 0
M  V30 11155 H 1071.22 -3.62106 -5.74505 0
M  V30 11156 H 1069.16 -1.4725 -6.3926 0
M  V30 11157 H 1069.08 -3.13364 -6.87997 0
M  V30 11158 H 1070.35 -2.11968 -7.50127 0
M  V30 11159 N 1074.58 1.12322 -1.10551 0
M  V30 11160 C 1075.51 2.20176 -0.777486 0
M  V30 11161 C 1076.49 1.68252 0.250069 0
M  V30 11162 O 1077.67 1.93856 0.115574 0
M  V30 11163 C 1074.8 3.46666 -0.209822 0
M  V30 11164 C 1073.76 4.11749 -1.1682 0
M  V30 11165 C 1073.08 5.32703 -0.461684 0
M  V30 11166 C 1074.38 4.57746 -2.51527 0
M  V30 11167 H 1076.08 2.47872 -1.67928 0
M  V30 11168 H 1073.62 1.19136 -0.808863 0
M  V30 11169 H 1075.58 4.21388 0.0318068 0
M  V30 11170 H 1074.3 3.18401 0.727226 0
M  V30 11171 H 1072.96 3.39009 -1.3953 0
M  V30 11172 H 1072.61 5.00706 0.479875 0
M  V30 11173 H 1072.31 5.77197 -1.1008 0
M  V30 11174 H 1073.83 6.10172 -0.228629 0
M  V30 11175 H 1075.25 5.23835 -2.32958 0
M  V30 11176 H 1073.64 5.13021 -3.11335 0
M  V30 11177 H 1074.71 3.71667 -3.11435 0
M  V30 11178 N 1076.06 0.894434 1.2976 0
M  V30 11179 C 1077.28 0.532916 1.99919 0
M  V30 11180 C 1077.7 -0.881022 1.66983 0
M  V30 11181 O 1077.06 -1.58076 0.912035 0
M  V30 11182 C 1077.11 0.70936 3.54472 0
M  V30 11183 O 1076.83 2.06764 3.86239 0
M  V30 11184 C 1078.33 0.352089 4.419 0
M  V30 11185 H 1075.55 0.205019 0.638912 0
M  V30 11186 H 1078.09 1.20233 1.65421 0
M  V30 11187 H 1076.25 0.0871901 3.87302 0
M  V30 11188 H 1076.66 2.09315 4.80924 0
M  V30 11189 H 1078.14 0.526405 5.49484 0
M  V30 11190 H 1078.61 -0.710527 4.33415 0
M  V30 11191 H 1079.22 0.950979 4.14532 0
M  V30 11192 N 1077.53 -1.43282 0.656365 0
M  V30 11193 C 1078.78 -2.02075 0.171293 0
M  V30 11194 C 1079.11 -1.51682 -1.21269 0
M  V30 11195 O 1078.39 -0.711243 -1.81029 0
M  V30 11196 C 1078.67 -3.59621 0.185602 0
M  V30 11197 C 1078.52 -4.20239 1.60373 0
M  V30 11198 C 1079.84 -4.37515 -0.476289 0
M  V30 11199 H 1076.96 -0.73424 0.0637185 0
M  V30 11200 H 1079.6 -1.70539 0.837648 0
M  V30 11201 H 1077.75 -3.86619 -0.381804 0
M  V30 11202 H 1079.43 -4.0426 2.22197 0
M  V30 11203 H 1077.67 -3.76769 2.15006 0
M  V30 11204 H 1078.34 -5.29333 1.56557 0
M  V30 11205 H 1080.82 -4.16099 0.00651073 0
M  V30 11206 H 1079.69 -5.47169 -0.435562 0
M  V30 11207 H 1079.95 -4.14003 -1.55093 0
M  V30 11208 N 1079.01 -0.398486 -1.52479 0
M  V30 11209 C 1080.26 0.180394 -2.01293 0
M  V30 11210 C 1080.58 1.46548 -1.28641 0
M  V30 11211 O 1079.85 1.91579 -0.409173 0
M  V30 11212 H 1078.43 0.0696528 -0.743746 0
M  V30 11213 H 1081.09 -0.532285 -1.87491 0
M  V30 11214 H 1080.19 0.38409 -3.09728 0
M  V30 11215 N 1080.49 1.57075 -0.12858 0
M  V30 11216 C 1081.74 1.95134 0.526046 0
M  V30 11217 C 1082.06 1.01337 1.66601 0
M  V30 11218 O 1081.33 0.0714361 1.9577 0
M  V30 11219 H 1079.91 0.720468 0.19732 0
M  V30 11220 H 1082.57 1.93874 -0.199767 0
M  V30 11221 H 1081.67 2.98406 0.914332 0
M  V30 11222 N 1081.97 -0.145205 1.5693 0
M  V30 11223 C 1083.22 -0.855822 1.83085 0
M  V30 11224 C 1083.54 -1.81625 0.709747 0
M  V30 11225 O 1082.81 -1.94052 -0.268456 0
M  V30 11226 H 1081.39 -0.319032 0.675446 0
M  V30 11227 H 1084.05 -0.138781 1.94405 0
M  V30 11228 H 1083.15 -1.41698 2.78079 0
M  V30 11229 N 1083.45 -1.52049 -0.414609 0
M  V30 11230 C 1084.41 -1.74382 -1.4874 0
M  V30 11231 C 1085.41 -0.613701 -1.48628 0
M  V30 11232 O 1086.6 -0.88152 -1.50249 0
M  V30 11233 C 1083.73 -1.82116 -2.88178 0
M  V30 11234 H 1084.93 -2.70147 -1.30233 0
M  V30 11235 H 1082.48 -1.42382 -0.644756 0
M  V30 11236 H 1083.21 -0.882457 -3.12063 0
M  V30 11237 H 1083 -2.64268 -2.89663 0
M  V30 11238 H 1084.49 -2.01155 -3.65959 0
M  V30 11239 N 1084.93 0.6715 -1.42579 0
M  V30 11240 C 1086.34 0.985019 -1.25577 0
M  V30 11241 C 1086.54 2.00845 -0.162319 0
M  V30 11242 O 1085.6 2.48175 0.465352 0
M  V30 11243 C 1086.91 1.48668 -2.61377 0
M  V30 11244 C 1088.46 1.60429 -2.68759 0
M  V30 11245 C 1088.93 2.13991 -4.04935 0
M  V30 11246 N 1090.42 2.21319 -4.06906 0
M  V30 11247 C 1091.16 2.63845 -5.09091 0
M  V30 11248 N 1090.66 3.05799 -6.21658 0
M  V30 11249 N 1092.45 2.63623 -4.96447 0
M  V30 11250 H 1084.6 -0.00604561 -2.12399 0
M  V30 11251 H 1086.86 0.0598299 -0.94611 0
M  V30 11252 H 1086.57 0.80917 -3.42265 0
M  V30 11253 H 1086.44 2.46487 -2.85524 0
M  V30 11254 H 1088.83 2.27286 -1.88216 0
M  V30 11255 H 1088.91 0.610909 -2.48398 0
M  V30 11256 H 1088.55 1.47741 -4.85937 0
M  V30 11257 H 1088.48 3.14126 -4.2265 0
M  V30 11258 H 1090.98 1.91743 -3.25643 0
M  V30 11259 H 1091.29 3.36944 -6.95477 0
M  V30 11260 H 1089.63 3.03648 -6.25158 0
M  V30 11261 H 1092.82 2.30211 -4.07579 0
M  V30 11262 H 1093 2.96444 -5.76216 0
M  V30 11263 N 1086.4 1.28806 0.908124 0
M  V30 11264 C 1087.65 1.17469 1.6605 0
M  V30 11265 C 1088 -0.272864 1.90455 0
M  V30 11266 O 1087.3 -1.19476 1.49787 0
M  V30 11267 C 1087.49 1.91267 3.01914 0
M  V30 11268 C 1087.32 3.43051 2.90769 0
M  V30 11269 C 1086.09 4.12395 2.9199 0
M  V30 11270 C 1088.29 4.38696 2.68422 0
M  V30 11271 N 1086.27 5.50604 2.71493 0
M  V30 11272 C 1087.64 5.64307 2.56823 0
M  V30 11273 C 1089.7 4.28557 2.53463 0
M  V30 11274 C 1088.4 6.80931 2.31789 0
M  V30 11275 C 1090.43 5.44923 2.2981 0
M  V30 11276 C 1089.79 6.69501 2.1897 0
M  V30 11277 H 1085.89 0.484813 0.61358 0
M  V30 11278 H 1088.47 1.62528 1.07204 0
M  V30 11279 H 1086.64 1.48634 3.58835 0
M  V30 11280 H 1088.37 1.72267 3.66205 0
M  V30 11281 H 1085.13 3.64024 3.02958 0
M  V30 11282 H 1085.55 6.23269 2.6432 0
M  V30 11283 H 1090.19 3.32944 2.60592 0
M  V30 11284 H 1087.91 7.76607 2.23399 0
M  V30 11285 H 1091.5 5.38971 2.19092 0
M  V30 11286 H 1090.38 7.58025 2.00918 0
M  V30 11287 N 1087.88 -1.11734 1.11145 0
M  V30 11288 C 1088.81 -2.17438 0.724804 0
M  V30 11289 C 1089.83 -1.6099 -0.242069 0
M  V30 11290 O 1091.02 -1.78482 -0.0254259 0
M  V30 11291 C 1088.12 -3.38863 0.050004 0
M  V30 11292 C 1087.29 -4.24785 1.04292 0
M  V30 11293 C 1086.35 -5.24691 0.398243 0
M  V30 11294 O 1085.37 -5.59408 1.05125 0
M  V30 11295 N 1086.58 -5.74388 -0.840184 0
M  V30 11296 H 1089.34 -2.51219 1.63429 0
M  V30 11297 H 1086.9 -1.27226 1.00125 0
M  V30 11298 H 1088.89 -4.02788 -0.392929 0
M  V30 11299 H 1087.46 -3.0317 -0.762005 0
M  V30 11300 H 1086.68 -3.57363 1.6639 0
M  V30 11301 H 1087.97 -4.79033 1.71478 0
M  V30 11302 H 1087.37 -5.48359 -1.38994 0
M  V30 11303 H 1085.93 -6.40163 -1.22615 0
M  V30 11304 N 1089.36 -0.901303 -1.29284 0
M  V30 11305 C 1090.61 -0.527 -1.95108 0
M  V30 11306 C 1090.93 0.930065 -1.71391 0
M  V30 11307 O 1090.2 1.65601 -1.04658 0
M  V30 11308 H 1088.78 -0.191903 -0.721929 0
M  V30 11309 H 1091.44 -1.14795 -1.57506 0
M  V30 11310 H 1090.54 -0.710945 -3.03895 0
M  V30 11311 N 1090.84 1.42931 -0.663954 0
M  V30 11312 C 1091.78 2.3079 0.0210764 0
M  V30 11313 C 1092.75 1.45356 0.803796 0
M  V30 11314 O 1093.94 1.74207 0.778237 0
M  V30 11315 C 1091.08 3.31069 0.974023 0
M  V30 11316 C 1090.19 4.31598 0.186273 0
M  V30 11317 C 1089.33 5.18955 1.13399 0
M  V30 11318 C 1088.37 6.1117 0.337292 0
M  V30 11319 N 1087.5 6.91114 1.23715 0
M  V30 11320 H 1092.34 2.88819 -0.733995 0
M  V30 11321 H 1089.88 1.42274 -0.373711 0
M  V30 11322 H 1091.84 3.87727 1.54024 0
M  V30 11323 H 1090.47 2.74665 1.69585 0
M  V30 11324 H 1089.52 3.77147 -0.496402 0
M  V30 11325 H 1090.83 4.96919 -0.432753 0
M  V30 11326 H 1089.99 5.80292 1.77049 0
M  V30 11327 H 1088.73 4.53785 1.78691 0
M  V30 11328 H 1087.73 5.48911 -0.312492 0
M  V30 11329 H 1088.96 6.78386 -0.31138 0
M  V30 11330 H 1086.9 6.28583 1.87668 0
M  V30 11331 H 1086.82 7.52999 0.672946 0
M  V30 11332 H 1088.09 7.56948 1.86146 0
M  V30 11333 N 1092.32 0.406567 1.52266 0
M  V30 11334 C 1093.54 -0.172101 2.06685 0
M  V30 11335 C 1093.97 -1.38306 1.27488 0
M  V30 11336 O 1093.32 -1.78726 0.304441 0
M  V30 11337 C 1093.37 -0.503463 3.57068 0
M  V30 11338 O 1092.48 -1.59485 3.80314 0
M  V30 11339 H 1091.82 -0.0153209 0.663823 0
M  V30 11340 H 1094.35 0.579025 1.96236 0
M  V30 11341 H 1094.36 -0.762833 4.00805 0
M  V30 11342 H 1093.03 0.381775 4.14144 0
M  V30 11343 H 1091.61 -1.32784 3.48458 0
M  V30 11344 N 1093.79 -1.57004 0.136909 0
M  V30 11345 C 1095.04 -1.96873 -0.511137 0
M  V30 11346 C 1095.4 -1.02001 -1.63137 0
M  V30 11347 O 1094.69 -0.0532138 -1.91526 0
M  V30 11348 C 1094.88 -3.40903 -1.07331 0
M  V30 11349 C 1094.71 -4.49699 -0.00908112 0
M  V30 11350 C 1093.48 -5.03477 0.42889 0
M  V30 11351 C 1095.68 -5.08372 0.778631 0
M  V30 11352 N 1093.66 -5.95867 1.47702 0
M  V30 11353 C 1095.03 -5.96875 1.67751 0
M  V30 11354 C 1097.09 -4.90975 0.827538 0
M  V30 11355 C 1095.79 -6.69845 2.62108 0
M  V30 11356 C 1097.82 -5.64639 1.75889 0
M  V30 11357 C 1097.18 -6.52842 2.64531 0
M  V30 11358 H 1093.28 -0.766253 -0.156141 0
M  V30 11359 H 1095.86 -1.93347 0.229176 0
M  V30 11360 H 1094.03 -3.45042 -1.78327 0
M  V30 11361 H 1095.76 -3.67855 -1.68715 0
M  V30 11362 H 1092.52 -4.73588 0.03306 0
M  V30 11363 H 1092.94 -6.46767 2.00055 0
M  V30 11364 H 1097.59 -4.22511 0.156318 0
M  V30 11365 H 1095.3 -7.37544 3.30235 0
M  V30 11366 H 1098.89 -5.53177 1.80241 0
M  V30 11367 H 1097.77 -7.08843 3.35426 0
M  V30 11368 N 1095.27 0.136881 -1.57004 0
M  V30 11369 C 1096.2 1.19402 -1.95642 0
M  V30 11370 C 1097.22 1.38635 -0.853478 0
M  V30 11371 O 1098.41 1.38027 -1.13185 0
M  V30 11372 C 1095.51 2.55716 -2.22402 0
M  V30 11373 C 1094.68 2.57325 -3.53698 0
M  V30 11374 C 1093.74 3.75253 -3.68879 0
M  V30 11375 O 1092.76 3.5966 -4.41173 0
M  V30 11376 N 1093.97 4.93112 -3.06302 0
M  V30 11377 H 1096.73 0.865504 -2.8693 0
M  V30 11378 H 1094.29 0.326346 -1.58577 0
M  V30 11379 H 1096.28 3.33135 -2.29789 0
M  V30 11380 H 1094.85 2.80819 -1.37329 0
M  V30 11381 H 1094.07 1.65749 -3.5766 0
M  V30 11382 H 1095.36 2.55441 -4.40031 0
M  V30 11383 H 1094.76 5.08684 -2.47502 0
M  V30 11384 H 1093.32 5.68271 -3.19236 0
M  V30 11385 N 1096.75 1.52266 0.40654 0
M  V30 11386 C 1097.68 1.70519 1.51653 0
M  V30 11387 C 1098.66 0.552798 1.52915 0
M  V30 11388 O 1099.85 0.780468 1.71584 0
M  V30 11389 C 1096.97 1.74686 2.90176 0
M  V30 11390 C 1096.02 2.96255 3.06815 0
M  V30 11391 S 1096.85 4.56553 2.79856 0
M  V30 11392 C 1098.01 4.63511 4.20605 0
M  V30 11393 H 1098.24 2.64399 1.35942 0
M  V30 11394 H 1095.77 1.42337 0.598284 0
M  V30 11395 H 1097.73 1.77773 3.7001 0
M  V30 11396 H 1096.39 0.819291 3.03227 0
M  V30 11397 H 1095.59 2.95661 4.08167 0
M  V30 11398 H 1095.19 2.91069 2.34851 0
M  V30 11399 H 1097.48 4.41047 5.1428 0
M  V30 11400 H 1098.42 5.65456 4.26222 0
M  V30 11401 H 1098.83 3.92518 4.05697 0
M  V30 11402 N 1098.23 -0.663929 1.42933 0
M  V30 11403 C 1099.47 -1.42603 1.44195 0
M  V30 11404 C 1099.81 -1.94101 0.0620284 0
M  V30 11405 O 1099.08 -1.71609 -0.91546 0
M  V30 11406 C 1099.37 -2.61522 2.47544 0
M  V30 11407 C 1099.22 -2.15587 3.94769 0
M  V30 11408 C 1100.54 -3.6374 2.47753 0
M  V30 11409 H 1097.66 -0.517189 0.525056 0
M  V30 11410 H 1100.3 -0.75361 1.74415 0
M  V30 11411 H 1098.45 -3.1889 2.21904 0
M  V30 11412 H 1100.12 -1.63303 4.31428 0
M  V30 11413 H 1098.36 -1.47057 4.08114 0
M  V30 11414 H 1099.03 -3.01053 4.62678 0
M  V30 11415 H 1101.51 -3.16111 2.70579 0
M  V30 11416 H 1100.39 -4.44512 3.22025 0
M  V30 11417 H 1100.65 -4.15607 1.50742 0
M  V30 11418 N 1099.71 -1.29285 -0.901281 0
M  V30 11419 C 1100.94 -1.19874 -1.68267 0
M  V30 11420 C 1101.34 0.243387 -1.87628 0
M  V30 11421 O 1100.69 1.17497 -1.41209 0
M  V30 11422 C 1100.75 -1.83907 -3.08899 0
M  V30 11423 C 1100.41 -3.33198 -3.12775 0
M  V30 11424 C 1101.41 -4.29446 -2.9304 0
M  V30 11425 C 1099.1 -3.7437 -3.34892 0
M  V30 11426 C 1101.09 -5.64842 -2.95352 0
M  V30 11427 C 1098.78 -5.09888 -3.36834 0
M  V30 11428 C 1099.77 -6.04934 -3.17087 0
M  V30 11429 O 1099.46 -7.37979 -3.18815 0
M  V30 11430 H 1099.19 -0.416601 -0.532372 0
M  V30 11431 H 1101.75 -1.71154 -1.13558 0
M  V30 11432 H 1099.98 -1.27136 -3.65203 0
M  V30 11433 H 1101.67 -1.6884 -3.69118 0
M  V30 11434 H 1102.43 -3.9897 -2.75767 0
M  V30 11435 H 1098.31 -3.00846 -3.49303 0
M  V30 11436 H 1101.86 -6.39004 -2.79856 0
M  V30 11437 H 1097.75 -5.40009 -3.53638 0
M  V30 11438 H 1098.52 -7.46763 -3.35092 0
M  V30 11439 N 1101.18 1.11143 -1.11736 0
M  V30 11440 C 1102.13 2.19358 -0.773626 0
M  V30 11441 C 1103.13 1.67744 0.236288 0
M  V30 11442 O 1104.33 1.79748 0.09525 0
M  V30 11443 H 1100.71 0.715218 -0.232309 0
M  V30 11444 H 1102.68 2.45594 -1.69487 0
M  V30 11445 C 1101.43 3.46895 -0.236457 0
M  V30 11446 H 1100.75 3.86967 -1.00483 0
M  V30 11447 H 1102.19 4.23986 -0.034168 0
M  V30 11448 C 1100.65 3.20641 1.03397 0
M  V30 11449 O 1101.18 3.41629 2.11312 0
M  V30 11450 N 1099.39 2.74356 0.957986 0
M  V30 11451 H 1098.93 2.57477 0.0796924 0
M  V30 11452 H 1098.89 2.57166 1.80867 0
M  V30 11453 N 1102.66 0.908147 1.28804 0
M  V30 11454 C 1103.61 0.382315 2.29437 0
M  V30 11455 C 1104.6 -0.523033 1.61123 0
M  V30 11456 O 1105.81 -0.404898 1.75387 0
M  V30 11457 H 1102.19 0.105022 0.74463 0
M  V30 11458 H 1104.16 1.24425 2.71221 0
M  V30 11459 C 1102.91 -0.367475 3.45753 0
M  V30 11460 H 1102.23 0.319957 3.98518 0
M  V30 11461 H 1103.67 -0.700131 4.1818 0
M  V30 11462 C 1102.13 -1.57329 2.97908 0
M  V30 11463 O 1102.66 -2.67248 2.99902 0
M  V30 11464 N 1100.86 -1.41835 2.53636 0
M  V30 11465 H 1100.41 -0.524099 2.52212 0
M  V30 11466 H 1100.37 -2.22645 2.21984 0
M  V30 11467 N 1104.14 -1.42577 0.671525 0
M  V30 11468 C 1105.55 -1.84736 0.270084 0
M  V30 11469 C 1105.9 -1.56212 -1.18711 0
M  V30 11470 O 1105.03 -1.02028 -1.90838 0
M  V30 11471 C 1105.62 -3.35334 0.483409 0
M  V30 11472 C 1104.18 -3.76154 0.136119 0
M  V30 11473 C 1103.33 -2.66179 0.777444 0
M  V30 11474 H 1106.28 -1.3247 0.873919 0
M  V30 11475 H 1106.3 -3.79573 -0.265483 0
M  V30 11476 H 1105.81 -3.56063 1.54405 0
M  V30 11477 H 1103.91 -3.61033 -0.921209 0
M  V30 11478 H 1104.03 -4.75645 0.574356 0
M  V30 11479 H 1102.39 -2.53841 0.209055 0
M  V30 11480 H 1103.17 -2.89732 1.84148 0
M  V30 11481 N 1105.62 -0.414636 -1.52048 0
M  V30 11482 C 1107.03 -0.0657806 -1.59464 0
M  V30 11483 C 1107.23 1.4225 -1.42713 0
M  V30 11484 O 1106.29 2.18996 -1.25687 0
M  V30 11485 C 1107.6 -0.565618 -2.95332 0
M  V30 11486 C 1109.15 -0.524072 -3.08581 0
M  V30 11487 C 1109.63 -1.00051 -4.46938 0
M  V30 11488 N 1111.12 -0.957555 -4.53194 0
M  V30 11489 C 1111.85 -1.29733 -5.58531 0
M  V30 11490 N 1111.35 -1.70883 -6.71395 0
M  V30 11491 N 1113.14 -1.21694 -5.48769 0
M  V30 11492 H 1105.29 -1.38325 -1.61183 0
M  V30 11493 H 1107.56 -0.568593 -0.758556 0
M  V30 11494 H 1107.26 -1.60604 -3.12888 0
M  V30 11495 H 1107.14 0.0217735 -3.77194 0
M  V30 11496 H 1109.52 0.507319 -2.90707 0
M  V30 11497 H 1109.6 -1.14759 -2.28613 0
M  V30 11498 H 1109.25 -2.03025 -4.65557 0
M  V30 11499 H 1109.18 -0.353754 -5.2541 0
M  V30 11500 H 1111.67 -0.65508 -3.72179 0
M  V30 11501 H 1111.98 -1.95105 -7.47766 0
M  V30 11502 H 1110.33 -1.74791 -6.72661 0
M  V30 11503 H 1113.52 -0.894286 -4.59478 0
M  V30 11504 H 1113.69 -1.48504 -6.30754 0
M  V30 11505 N 1107.1 1.56929 -0.145233 0
M  V30 11506 C 1108.32 2.00864 0.516564 0
M  V30 11507 C 1108.75 1.02466 1.57741 0
M  V30 11508 O 1108.1 0.000145439 1.813 0
M  V30 11509 C 1108.15 3.43552 1.09563 0
M  V30 11510 O 1107.26 3.4815 2.21055 0
M  V30 11511 H 1106.6 0.651835 0.126521 0
M  V30 11512 H 1109.13 2.0317 -0.241445 0
M  V30 11513 H 1109.14 3.82316 1.42473 0
M  V30 11514 H 1107.81 4.14677 0.318749 0
M  V30 11515 H 1106.39 3.21228 1.89387 0
M  V30 11516 N 1108.58 -0.128553 1.57075 0
M  V30 11517 C 1109.99 -0.481794 1.52154 0
M  V30 11518 C 1110.19 -1.82381 0.856694 0
M  V30 11519 O 1109.25 -2.48725 0.434989 0
M  V30 11520 C 1110.56 -0.475091 2.96923 0
M  V30 11521 C 1112.11 -0.559315 3.07962 0
M  V30 11522 C 1112.58 -0.583095 4.54273 0
M  V30 11523 N 1114.07 -0.644803 4.5869 0
M  V30 11524 C 1114.81 -0.684493 5.693 0
M  V30 11525 N 1114.31 -0.682407 6.89431 0
M  V30 11526 N 1116.1 -0.726777 5.57382 0
M  V30 11527 H 1108.25 0.750894 1.98684 0
M  V30 11528 H 1110.51 0.27593 0.906955 0
M  V30 11529 H 1110.22 0.443157 3.48897 0
M  V30 11530 H 1110.09 -1.30637 3.53856 0
M  V30 11531 H 1112.48 -1.46798 2.55997 0
M  V30 11532 H 1112.56 0.299468 2.54041 0
M  V30 11533 H 1112.2 0.32149 5.06881 0
M  V30 11534 H 1112.13 -1.45863 5.05996 0
M  V30 11535 H 1114.63 -0.652967 3.72216 0
M  V30 11536 H 1114.94 -0.715051 7.69485 0
M  V30 11537 H 1113.28 -0.649984 6.91954 0
M  V30 11538 H 1116.47 -0.725704 4.6244 0
M  V30 11539 H 1116.65 -0.754242 6.43596 0
M  V30 11540 N 1110.05 -1.5248 -0.398459 0
M  V30 11541 C 1111.3 -1.68262 -1.14277 0
M  V30 11542 C 1111.65 -0.412722 -1.87921 0
M  V30 11543 O 1110.95 0.593257 -1.82184 0
M  V30 11544 C 1111.14 -2.85038 -2.15611 0
M  V30 11545 C 1110.97 -4.23262 -1.51919 0
M  V30 11546 C 1109.74 -4.88627 -1.28732 0
M  V30 11547 C 1111.94 -5.04986 -0.974349 0
M  V30 11548 N 1109.92 -6.10857 -0.610455 0
M  V30 11549 C 1111.29 -6.18542 -0.425008 0
M  V30 11550 C 1113.35 -4.90243 -0.869843 0
M  V30 11551 C 1112.05 -7.18968 0.218609 0
M  V30 11552 C 1114.08 -5.90913 -0.240063 0
M  V30 11553 C 1113.44 -7.03767 0.298552 0
M  V30 11554 H 1109.54 -0.669275 -0.404469 0
M  V30 11555 H 1112.12 -1.8981 -0.433635 0
M  V30 11556 H 1110.29 -2.65087 -2.83872 0
M  V30 11557 H 1112.02 -2.89804 -2.82481 0
M  V30 11558 H 1108.78 -4.47179 -1.55975 0
M  V30 11559 H 1109.2 -6.76386 -0.288338 0
M  V30 11560 H 1113.84 -4.0321 -1.27207 0
M  V30 11561 H 1111.56 -8.05618 0.632874 0
M  V30 11562 H 1115.15 -5.81578 -0.160576 0
M  V30 11563 H 1114.03 -7.80329 0.778185 0
M  V30 11564 N 1111.53 0.65634 -1.43283 0
M  V30 11565 C 1112.44 1.79847 -1.50639 0
M  V30 11566 C 1113.46 1.69487 -0.393714 0
M  V30 11567 O 1114.63 1.90712 -0.647379 0
M  V30 11568 C 1111.7 3.16107 -1.42398 0
M  V30 11569 C 1110.76 3.38287 -2.64312 0
M  V30 11570 C 1109.99 4.68046 -2.56454 0
M  V30 11571 O 1110.22 5.4719 -1.61056 0
M  V30 11572 O 1109.15 4.91877 -3.46902 0
M  V30 11573 H 1112.98 1.76596 -2.47078 0
M  V30 11574 H 1110.56 0.814428 -1.25249 0
M  V30 11575 H 1112.44 3.97382 -1.40233 0
M  V30 11576 H 1111.12 3.19956 -0.490929 0
M  V30 11577 H 1110.02 2.56788 -2.72049 0
M  V30 11578 H 1111.36 3.39282 -3.56579 0
M  V30 11579 N 1113.01 1.29761 0.894412 0
M  V30 11580 C 1113.96 1.15341 1.99912 0
M  V30 11581 C 1114.93 0.0453488 1.66038 0
M  V30 11582 O 1116.11 0.213829 1.89598 0
M  V30 11583 C 1113.25 0.841432 3.34685 0
M  V30 11584 C 1112.36 2.03046 3.81309 0
M  V30 11585 C 1111.5 1.65739 5.04682 0
M  V30 11586 C 1110.54 2.81191 5.43689 0
M  V30 11587 N 1109.68 2.44244 6.58247 0
M  V30 11588 H 1114.52 2.09854 2.11578 0
M  V30 11589 H 1112.05 1.04421 1.03608 0
M  V30 11590 H 1114.01 0.641211 4.12243 0
M  V30 11591 H 1112.64 -0.066797 3.22731 0
M  V30 11592 H 1111.69 2.34222 2.9974 0
M  V30 11593 H 1113 2.89538 4.06164 0
M  V30 11594 H 1112.16 1.42036 5.8984 0
M  V30 11595 H 1110.9 0.764019 4.81678 0
M  V30 11596 H 1109.9 3.0557 4.57064 0
M  V30 11597 H 1111.13 3.712 5.68672 0
M  V30 11598 H 1109.07 1.57402 6.36837 0
M  V30 11599 H 1108.99 3.24269 6.82924 0
M  V30 11600 H 1110.26 2.23875 7.46659 0
M  V30 11601 N 1114.49 -1.10549 1.12324 0
M  V30 11602 C 1115.73 -1.82485 0.877817 0
M  V30 11603 C 1116.06 -1.85131 -0.596373 0
M  V30 11604 O 1115.32 -1.30675 -1.45679 0
M  V30 11605 C 1115.62 -3.28997 1.39626 0
M  V30 11606 C 1115.28 -3.465 2.88529 0
M  V30 11607 C 1113.94 -3.50984 3.29186 0
M  V30 11608 C 1116.3 -3.51991 3.84385 0
M  V30 11609 C 1113.62 -3.58525 4.6441 0
M  V30 11610 C 1115.98 -3.61065 5.19437 0
M  V30 11611 C 1114.64 -3.63813 5.5964 0
M  V30 11612 H 1113.91 -0.667758 0.321216 0
M  V30 11613 H 1116.56 -1.30314 1.40323 0
M  V30 11614 H 1114.86 -3.83726 0.791291 0
M  V30 11615 H 1116.56 -3.83165 1.18259 0
M  V30 11616 H 1113.15 -3.43686 2.56082 0
M  V30 11617 H 1117.33 -3.47777 3.54069 0
M  V30 11618 H 1112.59 -3.58934 4.94951 0
M  V30 11619 H 1116.76 -3.64257 5.9354 0
M  V30 11620 H 1114.39 -3.69409 6.6441 0
M  V30 11621 N 1115.97 -0.914965 -1.28321 0
M  V30 11622 C 1117.19 -0.564023 -1.99583 0
M  V30 11623 C 1117.62 0.847821 -1.6791 0
M  V30 11624 O 1116.97 1.56682 -0.912171 0
M  V30 11625 C 1117.02 -0.781368 -3.52033 0
M  V30 11626 O 1116.13 0.159072 -4.12093 0
M  V30 11627 H 1115.47 -0.218565 -0.626997 0
M  V30 11628 H 1118 -1.23074 -1.63444 0
M  V30 11629 H 1118.01 -0.691946 -4.0209 0
M  V30 11630 H 1116.68 -1.81059 -3.7442 0
M  V30 11631 H 1115.26 0.0208145 -3.72894 0
M  V30 11632 N 1117.44 1.42219 -0.679077 0
M  V30 11633 C 1118.38 2.29172 0.035583 0
M  V30 11634 C 1119.39 1.43909 0.761183 0
M  V30 11635 O 1120.58 1.67584 0.61463 0
M  V30 11636 C 1117.68 3.21426 1.07419 0
M  V30 11637 C 1116.85 4.35364 0.421547 0
M  V30 11638 C 1115.91 5.08307 1.36051 0
M  V30 11639 O 1114.94 5.62678 0.859186 0
M  V30 11640 N 1116.14 5.14222 2.69362 0
M  V30 11641 H 1118.9 2.91147 -0.710865 0
M  V30 11642 H 1116.46 1.53192 -0.523821 0
M  V30 11643 H 1118.46 3.67091 1.70371 0
M  V30 11644 H 1117.03 2.60873 1.72233 0
M  V30 11645 H 1116.25 3.9229 -0.387559 0
M  V30 11646 H 1117.53 5.08789 -0.0329421 0
M  V30 11647 H 1116.93 4.71467 3.12627 0
M  V30 11648 H 1115.49 5.63519 3.27551 0
M  V30 11649 N 1118.92 0.422693 1.51826 0
M  V30 11650 C 1119.83 -0.40261 2.31119 0
M  V30 11651 C 1120.85 -1.04117 1.39412 0
M  V30 11652 O 1122.02 -1.03973 1.72486 0
M  V30 11653 C 1119.09 -1.49699 3.12716 0
M  V30 11654 C 1118.15 -0.880088 4.20182 0
M  V30 11655 C 1117.38 -1.92232 4.97878 0
M  V30 11656 O 1117.61 -3.14246 4.76031 0
M  V30 11657 O 1116.54 -1.521 5.82365 0
M  V30 11658 H 1120.37 0.244308 3.02716 0
M  V30 11659 H 1117.95 0.185569 1.48243 0
M  V30 11660 H 1119.83 -2.13202 3.63487 0
M  V30 11661 H 1118.51 -2.12826 2.43899 0
M  V30 11662 H 1117.41 -0.207404 3.73525 0
M  V30 11663 H 1118.75 -0.292535 4.9133 0
M  V30 11664 N 1120.4 -1.5685 0.153553 0
M  V30 11665 C 1121.68 -1.8796 -0.541328 0
M  V30 11666 C 1122.06 -1.06059 -1.82523 0
M  V30 11667 O 1121.4 -0.149295 -2.28012 0
M  V30 11668 C 1121.61 -3.39697 -0.800442 0
M  V30 11669 C 1122.96 -4.09057 -1.13832 0
M  V30 11670 O 1123.99 -3.44913 -0.889578 0
M  V30 11671 O 1122.85 -5.22347 -1.60673 0
M  V30 11672 H 1119.94 -0.779268 -0.276895 0
M  V30 11673 H 1122.49 -1.68626 0.190657 0
M  V30 11674 H 1121.26 -3.91151 0.107935 0
M  V30 11675 H 1120.88 -3.64582 -1.58638 0
M  V30 11676 N 1121.88 0.120221 -1.57141 0
M  V30 11677 C 1123.11 0.841219 -1.88698 0
M  V30 11678 C 1123.52 1.7401 -0.74277 0
M  V30 11679 O 1122.86 1.81308 0.295497 0
M  V30 11680 C 1122.92 1.72781 -3.15257 0
M  V30 11681 C 1122.58 1.00336 -4.45849 0
M  V30 11682 C 1123.58 0.344734 -5.18756 0
M  V30 11683 C 1121.27 0.984899 -4.9255 0
M  V30 11684 C 1123.26 -0.322664 -6.36583 0
M  V30 11685 C 1120.95 0.313702 -6.10294 0
M  V30 11686 C 1121.95 -0.338926 -6.82159 0
M  V30 11687 O 1121.63 -0.999416 -7.97663 0
M  V30 11688 H 1121.37 0.247195 -0.629182 0
M  V30 11689 H 1123.92 0.109542 -2.05108 0
M  V30 11690 H 1122.15 2.5011 -2.94927 0
M  V30 11691 H 1123.84 2.32313 -3.32845 0
M  V30 11692 H 1124.6 0.350623 -4.83731 0
M  V30 11693 H 1120.48 1.4823 -4.36519 0
M  V30 11694 H 1124.03 -0.832643 -6.92613 0
M  V30 11695 H 1119.92 0.305572 -6.44776 0
M  V30 11696 H 1120.69 -0.90377 -8.13495 0
M  V30 11697 N 1123.36 1.52689 0.390367 0
M  V30 11698 C 1124.6 1.68866 1.13383 0
M  V30 11699 C 1124.96 0.422683 1.877 0
M  V30 11700 O 1124.25 -0.583587 1.82496 0
M  V30 11701 C 1124.44 2.86177 2.14096 0
M  V30 11702 C 1124.27 4.24062 1.49672 0
M  V30 11703 C 1123.04 4.89303 1.26139 0
M  V30 11704 C 1125.24 5.05496 0.947554 0
M  V30 11705 N 1123.22 6.11172 0.578051 0
M  V30 11706 C 1124.59 6.18758 0.392199 0
M  V30 11707 C 1126.65 4.90697 0.843832 0
M  V30 11708 C 1125.35 7.18842 -0.256734 0
M  V30 11709 C 1127.38 5.91032 0.208722 0
M  V30 11710 C 1126.74 7.03599 -0.33587 0
M  V30 11711 H 1122.84 0.671411 0.400914 0
M  V30 11712 H 1125.42 1.90037 0.423563 0
M  V30 11713 H 1123.59 2.66589 2.82462 0
M  V30 11714 H 1125.33 2.91298 2.80941 0
M  V30 11715 H 1122.08 4.48 1.53601 0
M  V30 11716 H 1122.51 6.76529 0.252464 0
M  V30 11717 H 1127.15 4.03879 1.25067 0
M  V30 11718 H 1124.87 8.05271 -0.675589 0
M  V30 11719 H 1128.45 5.81655 0.129732 0
M  V30 11720 H 1127.33 7.79906 -0.819557 0
M  V30 11721 N 1124.83 -0.648732 1.43629 0
M  V30 11722 C 1125.76 -1.77298 1.51947 0
M  V30 11723 C 1126.75 -1.65942 0.373785 0
M  V30 11724 O 1127.93 -1.8497 0.591596 0
M  V30 11725 C 1125.06 -3.15749 1.44638 0
M  V30 11726 C 1124.01 -3.41872 2.57502 0
M  V30 11727 C 1123.34 -4.8017 2.35246 0
M  V30 11728 C 1124.64 -3.36173 3.99731 0
M  V30 11729 H 1126.33 -1.70594 2.46045 0
M  V30 11730 H 1123.88 -0.819306 1.1842 0
M  V30 11731 H 1125.83 -3.94156 1.4906 0
M  V30 11732 H 1124.56 -3.23194 0.470466 0
M  V30 11733 H 1123.22 -2.65838 2.5244 0
M  V30 11734 H 1122.86 -4.84297 1.35887 0
M  V30 11735 H 1122.56 -4.9861 3.10906 0
M  V30 11736 H 1124.09 -5.6083 2.41459 0
M  V30 11737 H 1125.5 -4.0451 4.06257 0
M  V30 11738 H 1123.9 -3.66148 4.75453 0
M  V30 11739 H 1124.97 -2.34277 4.24549 0
M  V30 11740 N 1126.31 -1.30234 -0.887518 0
M  V30 11741 C 1127.56 -1.19086 -1.64153 0
M  V30 11742 C 1127.89 0.254428 -1.92526 0
M  V30 11743 O 1127.17 1.18233 -1.54438 0
M  V30 11744 C 1127.45 -2.01723 -2.98295 0
M  V30 11745 C 1127.3 -3.54458 -2.76911 0
M  V30 11746 C 1128.62 -1.85307 -3.99186 0
M  V30 11747 H 1125.74 -0.433967 -0.595686 0
M  V30 11748 H 1128.38 -1.59839 -1.0272 0
M  V30 11749 H 1126.53 -1.67096 -3.5073 0
M  V30 11750 H 1128.2 -3.99131 -2.31284 0
M  V30 11751 H 1126.45 -3.78768 -2.11464 0
M  V30 11752 H 1127.12 -4.07565 -3.72283 0
M  V30 11753 H 1129.59 -2.15575 -3.55903 0
M  V30 11754 H 1128.47 -2.45456 -4.90961 0
M  V30 11755 H 1128.73 -0.811528 -4.34588 0
M  V30 11756 N 1127.79 1.09952 -1.12909 0
M  V30 11757 C 1129.07 1.78547 -0.798767 0
M  V30 11758 C 1129.45 1.9878 0.710624 0
M  V30 11759 O 1128.8 1.58485 1.64604 0
M  V30 11760 C 1129.01 3.1121 -1.57953 0
M  V30 11761 C 1130.35 3.86006 -1.76874 0
M  V30 11762 O 1131.38 3.20946 -1.54506 0
M  V30 11763 O 1130.24 5.02791 -2.14158 0
M  V30 11764 H 1127.33 0.774084 -0.291072 0
M  V30 11765 H 1129.88 1.16557 -1.2334 0
M  V30 11766 H 1128.65 2.91935 -2.60557 0
M  V30 11767 H 1128.27 3.80922 -1.13948 0
M  V30 11768 N 1129.27 0.921757 1.27833 0
M  V30 11769 C 1130.2 0.433466 2.29441 0
M  V30 11770 C 1131.18 -0.503133 1.62489 0
M  V30 11771 O 1132.36 -0.409156 1.89841 0
M  V30 11772 C 1129.49 -0.320029 3.45822 0
M  V30 11773 C 1128.45 0.528178 4.24728 0
M  V30 11774 C 1127.77 -0.354132 5.33526 0
M  V30 11775 C 1129.07 1.78959 4.90684 0
M  V30 11776 H 1130.77 1.28263 2.70535 0
M  V30 11777 H 1128.31 0.618197 1.30055 0
M  V30 11778 H 1130.27 -0.672526 4.15999 0
M  V30 11779 H 1128.99 -1.20317 3.0363 0
M  V30 11780 H 1127.65 0.863302 3.5629 0
M  V30 11781 H 1127.3 -1.23605 4.87576 0
M  V30 11782 H 1127 0.209855 5.87225 0
M  V30 11783 H 1128.52 -0.702333 6.06547 0
M  V30 11784 H 1129.94 1.50552 5.53179 0
M  V30 11785 H 1128.33 2.29661 5.54415 0
M  V30 11786 H 1129.4 2.51265 4.14721 0
M  V30 11787 N 1130.75 -1.41857 0.686609 0
M  V30 11788 C 1131.68 -2.28174 -0.0347358 0
M  V30 11789 C 1132.66 -1.41732 -0.796928 0
M  V30 11790 O 1133.84 -1.71165 -0.789607 0
M  V30 11791 C 1130.97 -3.21801 -1.0565 0
M  V30 11792 C 1130.01 -4.24727 -0.388523 0
M  V30 11793 S 1130.85 -5.28508 0.862546 0
M  V30 11794 C 1132 -6.25701 -0.157849 0
M  V30 11795 H 1132.24 -2.89005 0.697381 0
M  V30 11796 H 1129.77 -1.46861 0.476562 0
M  V30 11797 H 1131.73 -3.76278 -1.64089 0
M  V30 11798 H 1130.39 -2.60082 -1.76114 0
M  V30 11799 H 1129.58 -4.90471 -1.15991 0
M  V30 11800 H 1129.18 -3.73799 0.122567 0
M  V30 11801 H 1131.48 -6.6987 -1.01393 0
M  V30 11802 H 1132.42 -7.06569 0.465437 0
M  V30 11803 H 1132.83 -5.62204 -0.508614 0
M  V30 11804 N 1132.22 -0.430739 -1.51599 0
M  V30 11805 C 1133.19 0.372319 -2.26156 0
M  V30 11806 C 1134.19 0.955338 -1.29344 0
M  V30 11807 O 1135.38 0.830823 -1.53111 0
M  V30 11808 C 1132.51 1.52613 -3.04831 0
M  V30 11809 H 1133.7 -0.280996 -2.98581 0
M  V30 11810 H 1131.26 -0.183749 -1.55216 0
M  V30 11811 H 1131.99 2.21569 -2.36807 0
M  V30 11812 H 1131.78 1.11433 -3.75932 0
M  V30 11813 H 1133.27 2.09366 -3.61325 0
M  V30 11814 N 1133.7 1.56767 -0.161869 0
M  V30 11815 C 1135.12 1.58412 0.194403 0
M  V30 11816 C 1135.32 1.17682 1.63564 0
M  V30 11817 O 1134.37 0.884024 2.36519 0
M  V30 11818 C 1135.69 3.00599 -0.0778438 0
M  V30 11819 C 1137.24 3.12996 -0.015307 0
M  V30 11820 C 1137.71 4.57259 -0.260418 0
M  V30 11821 N 1139.2 4.62733 -0.207863 0
M  V30 11822 C 1139.94 5.72193 -0.371821 0
M  V30 11823 N 1139.43 6.90246 -0.594318 0
M  V30 11824 N 1141.23 5.61253 -0.308384 0
M  V30 11825 H 1133.38 1.81531 -1.10274 0
M  V30 11826 H 1135.64 0.840919 -0.437675 0
M  V30 11827 H 1135.35 3.3484 -1.07587 0
M  V30 11828 H 1135.22 3.71819 0.634845 0
M  V30 11829 H 1137.61 2.78588 0.97329 0
M  V30 11830 H 1137.69 2.44232 -0.760559 0
M  V30 11831 H 1137.33 4.92375 -1.24618 0
M  V30 11832 H 1137.26 5.2417 0.505334 0
M  V30 11833 H 1139.75 3.77878 -0.0411541 0
M  V30 11834 H 1140.07 7.6954 -0.70913 0
M  V30 11835 H 1138.41 6.92131 -0.630819 0
M  V30 11836 H 1141.6 4.67905 -0.135217 0
M  V30 11837 H 1141.77 6.46507 -0.439592 0
M  V30 11838 N 1135.18 -0.111886 1.57202 0
M  V30 11839 C 1136.41 -0.8312 1.89142 0
M  V30 11840 C 1136.82 -1.73614 0.751987 0
M  V30 11841 O 1136.16 -1.81462 -0.285877 0
M  V30 11842 C 1136.22 -1.71107 3.16169 0
M  V30 11843 C 1135.89 -0.9797 4.46375 0
M  V30 11844 C 1136.88 -0.317219 5.18931 0
M  V30 11845 C 1134.57 -0.958764 4.93065 0
M  V30 11846 C 1136.56 0.356419 6.36403 0
M  V30 11847 C 1134.25 -0.281332 6.10452 0
M  V30 11848 C 1135.25 0.375098 6.81969 0
M  V30 11849 O 1134.94 1.0417 7.97122 0
M  V30 11850 H 1134.67 -0.243855 0.630484 0
M  V30 11851 H 1137.22 -0.0986634 2.05163 0
M  V30 11852 H 1135.45 -2.48543 2.96249 0
M  V30 11853 H 1137.14 -2.30544 3.34072 0
M  V30 11854 H 1137.91 -0.324965 4.8391 0
M  V30 11855 H 1133.79 -1.45913 4.37299 0
M  V30 11856 H 1137.33 0.869362 6.92162 0
M  V30 11857 H 1133.23 -0.271374 6.44929 0
M  V30 11858 H 1134 0.946899 8.13004 0
M  V30 11859 N 1136.66 -1.52894 -0.382264 0
M  V30 11860 C 1137.59 -1.74413 -1.48703 0
M  V30 11861 C 1138.6 -0.624663 -1.50339 0
M  V30 11862 O 1139.79 -0.900527 -1.54119 0
M  V30 11863 C 1136.89 -1.79387 -2.8753 0
M  V30 11864 C 1136.07 -3.08794 -3.09783 0
M  V30 11865 C 1135.12 -3.05226 -4.2863 0
M  V30 11866 O 1134.15 -3.79073 -4.24609 0
M  V30 11867 N 1135.35 -2.2488 -5.35172 0
M  V30 11868 H 1138.12 -2.69734 -1.30628 0
M  V30 11869 H 1135.68 -1.51465 -0.571842 0
M  V30 11870 H 1137.67 -1.74498 -3.65147 0
M  V30 11871 H 1136.24 -0.914233 -2.98932 0
M  V30 11872 H 1135.46 -3.27118 -2.19971 0
M  V30 11873 H 1136.75 -3.94347 -3.21509 0
M  V30 11874 H 1136.15 -1.64363 -5.41296 0
M  V30 11875 H 1134.7 -2.25825 -6.1143 0
M  V30 11876 N 1138.14 0.641106 -1.43971 0
M  V30 11877 C 1139.39 1.39676 -1.45511 0
M  V30 11878 C 1139.7 1.95403 -0.0877084 0
M  V30 11879 O 1140.91 2.71493 0.0193965 0
M  V30 11880 C 1139.36 2.52839 -2.56126 0
M  V30 11881 C 1138.97 2.03668 -3.99028 0
M  V30 11882 C 1140.71 3.30118 -2.66875 0
M  V30 11883 C 1138.62 3.14114 -5.01085 0
M  V30 11884 H 1137.55 0.524854 -0.541336 0
M  V30 11885 H 1140.2 0.69075 -1.70003 0
M  V30 11886 H 1138.58 3.25968 -2.24857 0
M  V30 11887 H 1139.76 1.3747 -4.39817 0
M  V30 11888 H 1138.07 1.39233 -3.92432 0
M  V30 11889 H 1140.67 4.12434 -3.40297 0
M  V30 11890 H 1141.01 3.78946 -1.72353 0
M  V30 11891 H 1141.55 2.64075 -2.97505 0
M  V30 11892 H 1138.28 2.70241 -5.97202 0
M  V30 11893 H 1137.8 3.78985 -4.64898 0
M  V30 11894 H 1139.48 3.79051 -5.24337 0
M  V30 11895 N 1139.62 1.30703 0.880598 0
M  V30 11896 C 1140.84 1.22714 1.6658 0
M  V30 11897 C 1141.26 -0.209303 1.87636 0
M  V30 11898 O 1140.62 -1.13771 1.42697 0
M  V30 11899 C 1140.67 1.95659 3.03974 0
M  V30 11900 O 1140.39 3.33695 2.83865 0
M  V30 11901 C 1141.89 1.9438 3.98411 0
M  V30 11902 H 1139.11 0.424478 0.519673 0
M  V30 11903 H 1141.65 1.72402 1.0999 0
M  V30 11904 H 1139.81 1.49758 3.57283 0
M  V30 11905 H 1140.22 3.70697 3.71058 0
M  V30 11906 H 1141.7 2.4995 4.92168 0
M  V30 11907 H 1142.17 0.923767 4.29375 0
M  V30 11908 H 1142.78 2.40112 3.51036 0
M  V30 11909 N 1141.09 -1.09351 1.1349 0
M  V30 11910 C 1142.37 -1.78121 0.808225 0
M  V30 11911 C 1142.75 -1.99154 -0.700072 0
M  V30 11912 O 1142.1 -1.59356 -1.63762 0
M  V30 11913 C 1142.31 -3.10368 1.59601 0
M  V30 11914 C 1143.66 -3.85063 1.78919 0
M  V30 11915 O 1144.68 -3.20122 1.56206 0
M  V30 11916 O 1143.54 -5.01648 2.16821 0
M  V30 11917 H 1140.63 -0.77253 0.295173 0
M  V30 11918 H 1143.18 -1.15901 1.23956 0
M  V30 11919 H 1141.95 -2.90549 2.62101 0
M  V30 11920 H 1141.57 -3.80312 1.15967 0
M  V30 11921 N 1142.57 -0.928524 -1.27343 0
M  V30 11922 C 1143.52 -0.426873 -2.26818 0
M  V30 11923 C 1144.49 0.506663 -1.58184 0
M  V30 11924 O 1145.67 0.425641 -1.85992 0
M  V30 11925 C 1142.81 0.313523 -3.43673 0
M  V30 11926 C 1141.93 -0.65422 -4.27018 0
M  V30 11927 C 1141.06 0.106102 -5.31094 0
M  V30 11928 C 1140.1 -0.854293 -6.06109 0
M  V30 11929 N 1139.24 -0.126545 -7.01986 0
M  V30 11930 H 1144.08 -1.28014 -2.69103 0
M  V30 11931 H 1141.61 -0.642515 -1.32326 0
M  V30 11932 H 1143.57 0.75912 -4.10236 0
M  V30 11933 H 1142.2 1.13102 -3.02337 0
M  V30 11934 H 1141.25 -1.21834 -3.60362 0
M  V30 11935 H 1142.57 -1.38817 -4.79094 0
M  V30 11936 H 1141.72 0.611577 -6.0361 0
M  V30 11937 H 1140.46 0.873009 -4.79823 0
M  V30 11938 H 1139.46 -1.37101 -5.32432 0
M  V30 11939 H 1140.69 -1.621 -6.5947 0
M  V30 11940 H 1138.64 0.622102 -6.53044 0
M  V30 11941 H 1138.55 -0.800046 -7.51755 0
M  V30 11942 H 1139.82 0.358251 -7.78676 0
M  V30 11943 N 1144.05 1.41491 -0.694123 0
M  V30 11944 C 1144.98 2.33462 -0.0422169 0
M  V30 11945 C 1145.96 1.51739 0.76872 0
M  V30 11946 O 1147.15 1.8028 0.721985 0
M  V30 11947 C 1144.28 3.35545 0.895925 0
M  V30 11948 C 1143.23 4.27568 0.192188 0
M  V30 11949 C 1142.56 5.20014 1.24459 0
M  V30 11950 C 1143.86 5.1376 -0.940626 0
M  V30 11951 H 1145.55 2.88225 -0.810363 0
M  V30 11952 H 1143.1 1.38586 -0.39114 0
M  V30 11953 H 1145.05 3.9881 1.36121 0
M  V30 11954 H 1143.77 2.79129 1.69572 0
M  V30 11955 H 1142.43 3.65726 -0.25305 0
M  V30 11956 H 1142.08 4.59913 2.03687 0
M  V30 11957 H 1141.78 5.82417 0.778734 0
M  V30 11958 H 1143.3 5.86155 1.71041 0
M  V30 11959 H 1144.72 5.70601 -0.555692 0
M  V30 11960 H 1143.11 5.85097 -1.33349 0
M  V30 11961 H 1144.18 4.51011 -1.78093 0
M  V30 11962 N 1145.53 0.438773 1.51369 0
M  V30 11963 C 1146.75 -0.128221 2.07003 0
M  V30 11964 C 1147.18 -1.3557 1.30393 0
M  V30 11965 O 1146.54 -1.7804 0.342283 0
M  V30 11966 C 1146.58 -0.42761 3.58056 0
M  V30 11967 O 1145.69 -1.51382 3.83611 0
M  V30 11968 H 1145.03 -0.00123679 0.663999 0
M  V30 11969 H 1147.56 0.62052 1.94963 0
M  V30 11970 H 1147.57 -0.677645 4.02333 0
M  V30 11971 H 1146.24 0.469535 4.13241 0
M  V30 11972 H 1144.82 -1.25363 3.51196 0
M  V30 11973 N 1147.01 -1.56678 0.170181 0
M  V30 11974 C 1147.97 -2.16698 -0.746622 0
M  V30 11975 C 1148.97 -1.11475 -1.15888 0
M  V30 11976 O 1150.16 -1.36994 -1.07602 0
M  V30 11977 C 1147.29 -2.74892 -2.01612 0
M  V30 11978 H 1148.48 -2.99061 -0.224135 0
M  V30 11979 H 1146.04 -1.56098 -0.0793761 0
M  V30 11980 H 1146.77 -1.96259 -2.58172 0
M  V30 11981 H 1146.56 -3.51896 -1.72949 0
M  V30 11982 H 1148.05 -3.21058 -2.67042 0
M  V30 11983 N 1148.48 0.103547 -1.57259 0
M  V30 11984 C 1149.71 0.82624 -1.90232 0
M  V30 11985 C 1150.13 1.71902 -0.763641 0
M  V30 11986 O 1149.49 1.79043 0.285181 0
M  V30 11987 C 1149.54 1.62265 -3.22029 0
M  V30 11988 O 1148.64 2.73091 -3.09023 0
M  V30 11989 H 1147.98 0.227528 -0.6238 0
M  V30 11990 H 1150.51 0.081307 -2.04438 0
M  V30 11991 H 1150.52 2.00865 -3.5513 0
M  V30 11992 H 1149.2 0.967383 -4.04493 0
M  V30 11993 H 1147.78 2.3758 -2.8742 0
M  V30 11994 N 1149.96 1.53094 0.37415 0
M  V30 11995 C 1151.21 1.69111 1.11934 0
M  V30 11996 C 1151.54 0.437252 1.89213 0
M  V30 11997 O 1150.82 -0.565298 1.86104 0
M  V30 11998 C 1151.1 2.93559 2.08554 0
M  V30 11999 C 1150.95 4.29082 1.3494 0
M  V30 12000 C 1152.27 3.13586 3.08791 0
M  V30 12001 H 1149.39 0.615383 0.405553 0
M  V30 12002 H 1152.03 1.85719 0.401078 0
M  V30 12003 H 1150.18 2.79531 2.69805 0
M  V30 12004 H 1151.85 4.54906 0.765402 0
M  V30 12005 H 1150.1 4.28884 0.651238 0
M  V30 12006 H 1150.77 5.12275 2.05616 0
M  V30 12007 H 1153.24 3.26743 2.57639 0
M  V30 12008 H 1152.12 4.02112 3.73627 0
M  V30 12009 H 1152.38 2.28475 3.78486 0
M  V30 12010 N 1151.44 -0.633461 1.44309 0
M  V30 12011 C 1152.39 -1.76674 1.51292 0
M  V30 12012 C 1153.38 -1.64972 0.384807 0
M  V30 12013 O 1154.59 -1.71079 0.559653 0
M  V30 12014 H 1150.96 -0.583238 0.474697 0
M  V30 12015 H 1152.93 -1.67907 2.46678 0
M  V30 12016 C 1151.68 -3.15002 1.47205 0
M  V30 12017 H 1151.01 -3.24653 2.33325 0
M  V30 12018 H 1152.45 -3.94199 1.56151 0
M  V30 12019 C 1150.9 -3.3635 0.192464 0
M  V30 12020 O 1151.43 -3.94857 -0.738285 0
M  V30 12021 N 1149.64 -2.9044 0.0963424 0
M  V30 12022 H 1149.19 -2.43011 0.85459 0
M  V30 12023 H 1149.15 -3.05099 -0.759061 0
M  V30 12024 N 1152.92 -1.31168 -0.873655 0
M  V30 12025 C 1154.16 -1.20821 -1.62881 0
M  V30 12026 C 1154.5 0.233994 -1.92785 0
M  V30 12027 O 1153.77 1.16588 -1.55684 0
M  V30 12028 C 1154.06 -2.04875 -2.96139 0
M  V30 12029 C 1153.91 -3.57375 -2.73136 0
M  V30 12030 C 1155.23 -1.8953 -3.97198 0
M  V30 12031 H 1152.35 -0.44026 -0.59105 0
M  V30 12032 H 1154.99 -1.6092 -1.01019 0
M  V30 12033 H 1153.14 -1.70806 -3.48938 0
M  V30 12034 H 1154.81 -4.01561 -2.27038 0
M  V30 12035 H 1153.05 -3.8099 -2.07434 0
M  V30 12036 H 1153.72 -4.1149 -3.6794 0
M  V30 12037 H 1156.2 -2.19337 -3.53596 0
M  V30 12038 H 1155.08 -2.5065 -4.8833 0
M  V30 12039 H 1155.34 -0.857576 -4.33703 0
M  V30 12040 N 1154.4 1.08748 -1.14068 0
M  V30 12041 C 1155.34 2.17667 -0.819981 0
M  V30 12042 C 1156.34 1.68207 0.200654 0
M  V30 12043 O 1157.54 1.79909 0.0571014 0
M  V30 12044 H 1153.92 0.710129 -0.247427 0
M  V30 12045 H 1155.89 2.41944 -1.74659 0
M  V30 12046 C 1154.64 3.46315 -0.309985 0
M  V30 12047 H 1153.96 3.84748 -1.08669 0
M  V30 12048 H 1155.4 4.23818 -0.124094 0
M  V30 12049 C 1153.86 3.22762 0.965724 0
M  V30 12050 O 1154.39 3.46034 2.04018 0
M  V30 12051 N 1152.6 2.76326 0.899576 0
M  V30 12052 H 1152.14 2.57588 0.0250598 0
M  V30 12053 H 1152.1 2.60945 1.75371 0
M  V30 12054 N 1155.87 0.935264 1.26849 0
M  V30 12055 C 1156.82 0.430895 2.28574 0
M  V30 12056 C 1157.82 -0.488739 1.62196 0
M  V30 12057 O 1159.02 -0.367605 1.76206 0
M  V30 12058 H 1155.4 0.120793 0.742235 0
M  V30 12059 H 1157.37 1.3015 2.68521 0
M  V30 12060 C 1156.12 -0.294053 3.46454 0
M  V30 12061 H 1155.44 0.404416 3.97749 0
M  V30 12062 H 1156.88 -0.611272 4.19571 0
M  V30 12063 C 1155.34 -1.50975 3.01178 0
M  V30 12064 O 1155.87 -2.60826 3.05504 0
M  V30 12065 N 1154.08 -1.36423 2.56587 0
M  V30 12066 H 1153.62 -0.470483 2.53267 0
M  V30 12067 H 1153.58 -2.17886 2.26656 0
M  V30 12068 N 1157.35 -1.41121 0.701616 0
M  V30 12069 C 1158.6 -2.01428 0.235495 0
M  V30 12070 C 1158.93 -1.55463 -1.16382 0
M  V30 12071 O 1158.21 -0.768477 -1.78675 0
M  V30 12072 C 1158.49 -3.58849 0.299919 0
M  V30 12073 C 1158.34 -4.14924 1.73661 0
M  V30 12074 C 1159.66 -4.38809 -0.336856 0
M  V30 12075 H 1156.78 -0.731842 0.0870456 0
M  V30 12076 H 1159.42 -1.67787 0.891479 0
M  V30 12077 H 1157.57 -3.87638 -0.258611 0
M  V30 12078 H 1159.24 -3.96987 2.34945 0
M  V30 12079 H 1157.49 -3.69738 2.26884 0
M  V30 12080 H 1158.16 -5.24085 1.73318 0
M  V30 12081 H 1160.63 -4.15868 0.138886 0
M  V30 12082 H 1159.51 -5.48278 -0.261264 0
M  V30 12083 H 1159.77 -4.18728 -1.41843 0
M  V30 12084 N 1158.83 -0.446794 -1.51134 0
M  V30 12085 C 1160.08 0.116493 -2.02165 0
M  V30 12086 C 1160.41 1.41884 -1.33039 0
M  V30 12087 O 1159.66 1.90757 -0.437071 0
M  V30 12088 C 1159.96 0.373015 -3.55448 0
M  V30 12089 C 1159.63 -0.844659 -4.42918 0
M  V30 12090 C 1158.29 -1.17857 -4.66544 0
M  V30 12091 C 1160.64 -1.65653 -4.94174 0
M  V30 12092 C 1157.97 -2.32486 -5.38672 0
M  V30 12093 C 1160.32 -2.7939 -5.6756 0
M  V30 12094 C 1158.98 -3.13224 -5.89446 0
M  V30 12095 H 1158.25 0.0426279 -0.739773 0
M  V30 12096 H 1160.9 -0.595921 -1.81992 0
M  V30 12097 H 1159.21 1.16742 -3.74003 0
M  V30 12098 H 1160.9 0.822425 -3.92476 0
M  V30 12099 H 1157.49 -0.574478 -4.24733 0
M  V30 12100 H 1161.68 -1.41176 -4.75797 0
M  V30 12101 H 1156.93 -2.59003 -5.5383 0
M  V30 12102 H 1161.11 -3.42662 -6.06264 0
M  V30 12103 H 1158.73 -4.02158 -6.45115 0
M  V30 12104 N 1160.31 1.56586 -0.178487 0
M  V30 12105 C 1161.59 1.88798 0.511356 0
M  V30 12106 C 1161.97 1.08949 1.80813 0
M  V30 12107 O 1161.31 0.185551 2.27745 0
M  V30 12108 C 1161.52 3.40927 0.746298 0
M  V30 12109 C 1162.87 4.10816 1.0731 0
M  V30 12110 O 1163.9 3.46285 0.834592 0
M  V30 12111 O 1162.75 5.24837 1.52343 0
M  V30 12112 H 1159.85 0.783574 0.264463 0
M  V30 12113 H 1162.39 1.68301 -0.21746 0
M  V30 12114 H 1161.17 3.9093 -0.17015 0
M  V30 12115 H 1160.79 3.67059 1.52817 0
M  V30 12116 N 1161.79 -0.095206 1.57312 0
M  V30 12117 C 1162.73 -1.11551 2.02052 0
M  V30 12118 C 1163.7 -1.39808 0.896818 0
M  V30 12119 O 1164.89 -1.51273 1.1628 0
M  V30 12120 C 1162.03 -2.43056 2.44985 0
M  V30 12121 C 1161.14 -2.21531 3.70875 0
M  V30 12122 C 1160.28 -3.46434 4.02687 0
M  V30 12123 C 1159.32 -3.2017 5.21687 0
M  V30 12124 N 1158.45 -4.37339 5.49253 0
M  V30 12125 H 1163.29 -0.727 2.88996 0
M  V30 12126 H 1160.83 -0.347441 1.42938 0
M  V30 12127 H 1162.79 -3.19803 2.67921 0
M  V30 12128 H 1161.42 -2.79754 1.61051 0
M  V30 12129 H 1160.47 -1.35587 3.55416 0
M  V30 12130 H 1161.78 -1.98116 4.57768 0
M  V30 12131 H 1160.94 -4.31589 4.26399 0
M  V30 12132 H 1159.67 -3.72904 3.14315 0
M  V30 12133 H 1158.68 -2.33409 4.97796 0
M  V30 12134 H 1159.9 -2.95047 6.11657 0
M  V30 12135 H 1157.85 -4.63885 4.6384 0
M  V30 12136 H 1157.77 -4.17114 6.30517 0
M  V30 12137 H 1159.04 -5.23559 5.775 0
M  V30 12138 N 1163.26 -1.53291 -0.366026 0
M  V30 12139 C 1164.49 -1.73359 -1.12934 0
M  V30 12140 C 1164.91 -0.462352 -1.83051 0
M  V30 12141 O 1164.26 0.564711 -1.73543 0
M  V30 12142 C 1164.32 -2.89873 -2.15999 0
M  V30 12143 O 1164.04 -4.12079 -1.48737 0
M  V30 12144 C 1165.54 -3.21811 -3.04881 0
M  V30 12145 H 1162.76 -0.579827 -0.337701 0
M  V30 12146 H 1165.3 -2.00033 -0.425081 0
M  V30 12147 H 1163.46 -2.65595 -2.82025 0
M  V30 12148 H 1163.87 -4.77322 -2.17404 0
M  V30 12149 H 1165.34 -4.06744 -3.7318 0
M  V30 12150 H 1165.82 -2.37156 -3.69667 0
M  V30 12151 H 1166.43 -3.48013 -2.44473 0
M  V30 12152 N 1164.74 0.6258 -1.44643 0
M  V30 12153 C 1165.97 1.41028 -1.50979 0
M  V30 12154 C 1166.38 1.88717 -0.135092 0
M  V30 12155 O 1165.72 1.61778 0.870268 0
M  V30 12156 C 1165.79 2.66094 -2.41732 0
M  V30 12157 C 1165.45 2.40166 -3.88805 0
M  V30 12158 C 1166.45 2.01661 -4.79196 0
M  V30 12159 C 1164.13 2.53641 -4.33557 0
M  V30 12160 C 1166.13 1.76966 -6.12341 0
M  V30 12161 C 1163.81 2.2856 -5.66748 0
M  V30 12162 C 1164.81 1.90282 -6.55959 0
M  V30 12163 O 1164.5 1.65484 -7.86683 0
M  V30 12164 H 1164.23 0.438757 -0.514265 0
M  V30 12165 H 1166.78 0.772034 -1.90339 0
M  V30 12166 H 1165.01 3.32575 -1.97309 0
M  V30 12167 H 1166.7 3.28107 -2.38957 0
M  V30 12168 H 1167.47 1.90802 -4.45892 0
M  V30 12169 H 1163.35 2.82404 -3.64375 0
M  V30 12170 H 1166.89 1.47014 -6.81933 0
M  V30 12171 H 1162.79 2.3903 -5.99612 0
M  V30 12172 H 1163.56 1.79686 -7.98533 0
M  V30 12173 N 1166.22 1.31629 0.866686 0
M  V30 12174 C 1167.45 1.24293 1.6503 0
M  V30 12175 C 1167.86 -0.193556 1.88207 0
M  V30 12176 O 1167.2 -1.13712 1.44275 0
M  V30 12177 C 1167.26 1.92032 3.03914 0
M  V30 12178 C 1166.93 3.41373 3.03831 0
M  V30 12179 C 1167.92 4.37064 2.81551 0
M  V30 12180 C 1165.61 3.83118 3.24848 0
M  V30 12181 C 1167.6 5.72474 2.80272 0
M  V30 12182 C 1165.29 5.18639 3.23197 0
M  V30 12183 C 1166.29 6.13128 3.00936 0
M  V30 12184 O 1165.98 7.46172 2.99137 0
M  V30 12185 H 1165.71 0.430569 0.521139 0
M  V30 12186 H 1168.26 1.74105 1.0898 0
M  V30 12187 H 1166.49 1.36774 3.61704 0
M  V30 12188 H 1168.18 1.78567 3.64512 0
M  V30 12189 H 1168.95 4.06142 2.65093 0
M  V30 12190 H 1164.83 3.10001 3.41204 0
M  V30 12191 H 1168.37 6.46199 2.62816 0
M  V30 12192 H 1164.27 5.49196 3.39197 0
M  V30 12193 H 1165.04 7.55385 3.15175 0
M  V30 12194 N 1167.7 -1.08142 1.14644 0
M  V30 12195 C 1168.93 -1.84318 0.939926 0
M  V30 12196 C 1169.34 -1.81735 -0.511636 0
M  V30 12197 O 1168.7 -1.22297 -1.35461 0
M  V30 12198 C 1168.75 -3.31744 1.43625 0
M  V30 12199 O 1168.47 -3.3435 2.83094 0
M  V30 12200 C 1169.97 -4.24717 1.27007 0
M  V30 12201 H 1167.19 -0.581781 0.334323 0
M  V30 12202 H 1169.74 -1.36561 1.52221 0
M  V30 12203 H 1167.89 -3.7688 0.896664 0
M  V30 12204 H 1168.31 -4.26399 3.05425 0
M  V30 12205 H 1169.78 -5.26262 1.66591 0
M  V30 12206 H 1170.26 -4.38682 0.213257 0
M  V30 12207 H 1170.86 -3.85409 1.79833 0
M  V30 12208 N 1169.18 -0.941978 -1.26351 0
M  V30 12209 C 1170.13 -0.443011 -2.28342 0
M  V30 12210 C 1171.12 0.48013 -1.62453 0
M  V30 12211 O 1172.33 0.358255 -1.76399 0
M  V30 12212 H 1168.7 -0.124728 -0.741584 0
M  V30 12213 H 1170.67 -1.31573 -2.67827 0
M  V30 12214 C 1169.42 0.275675 -3.46605 0
M  V30 12215 H 1168.74 -0.425504 -3.97529 0
M  V30 12216 H 1170.18 0.589012 -4.19889 0
M  V30 12217 C 1168.64 1.49376 -3.01974 0
M  V30 12218 O 1169.17 2.59203 -3.06883 0
M  V30 12219 N 1167.38 1.35061 -2.57307 0
M  V30 12220 H 1166.93 0.457045 -2.53513 0
M  V30 12221 H 1166.88 2.16681 -2.27809 0
M  V30 12222 N 1170.66 1.40747 -0.709091 0
M  V30 12223 C 1171.9 2.00233 -0.242836 0
M  V30 12224 C 1172.22 1.56853 1.1686 0
M  V30 12225 O 1173.42 2.08993 1.73304 0
M  V30 12226 C 1171.88 3.57854 -0.383241 0
M  V30 12227 C 1171.49 4.10209 -1.80091 0
M  V30 12228 C 1173.23 4.24494 0.0225511 0
M  V30 12229 C 1171.14 5.60311 -1.89225 0
M  V30 12230 H 1170.07 0.74896 -0.087034 0
M  V30 12231 H 1172.72 1.61064 -0.879243 0
M  V30 12232 H 1171.1 3.94692 0.321642 0
M  V30 12233 H 1172.28 3.84762 -2.53564 0
M  V30 12234 H 1170.59 3.56142 -2.15758 0
M  V30 12235 H 1173.19 5.34694 -0.0250644 0
M  V30 12236 H 1173.53 4.02488 1.06344 0
M  V30 12237 H 1174.06 3.92739 -0.632541 0
M  V30 12238 H 1170.8 5.87162 -2.91412 0
M  V30 12239 H 1170.32 5.87642 -1.20154 0
M  V30 12240 H 1172 6.25306 -1.66136 0
M  V30 12241 N 1172.13 0.454803 1.50895 0
M  V30 12242 C 1173.38 -0.105562 2.01824 0
M  V30 12243 C 1173.7 -1.41673 1.33992 0
M  V30 12244 O 1172.97 -1.89929 0.479994 0
M  V30 12245 H 1171.55 -0.0420011 0.745818 0
M  V30 12246 H 1174.21 0.601504 1.85386 0
M  V30 12247 H 1173.31 -0.268872 3.1094 0
M  V30 12248 N 1173.61 -1.56489 0.186789 0
M  V30 12249 C 1174.86 -1.97341 -0.454158 0
M  V30 12250 C 1175.19 -1.07337 -1.622 0
M  V30 12251 O 1174.44 -0.1107 -1.95387 0
M  V30 12252 C 1174.74 -3.44145 -0.964315 0
M  V30 12253 C 1174.41 -4.50812 0.0892734 0
M  V30 12254 C 1173.07 -4.79707 0.378794 0
M  V30 12255 C 1175.42 -5.14968 0.8036 0
M  V30 12256 C 1172.75 -5.70051 1.38776 0
M  V30 12257 C 1175.1 -6.06402 1.80166 0
M  V30 12258 C 1173.76 -6.33657 2.09847 0
M  V30 12259 H 1173.03 -0.722124 -0.166188 0
M  V30 12260 H 1175.68 -1.89412 0.282008 0
M  V30 12261 H 1173.99 -3.49103 -1.7786 0
M  V30 12262 H 1175.68 -3.73104 -1.4695 0
M  V30 12263 H 1172.27 -4.28349 -0.146552 0
M  V30 12264 H 1176.46 -4.92743 0.593147 0
M  V30 12265 H 1171.71 -5.89445 1.62373 0
M  V30 12266 H 1175.89 -6.55176 2.36045 0
M  V30 12267 H 1173.51 -7.03462 2.88175 0
M  V30 12268 N 1175.09 0.086862 -1.5736 0
M  V30 12269 C 1176.32 0.801004 -1.9044 0
M  V30 12270 C 1176.73 1.72396 -0.779513 0
M  V30 12271 O 1176.07 1.81894 0.256972 0
M  V30 12272 C 1176.13 1.66055 -3.18851 0
M  V30 12273 C 1175.8 0.908561 -4.47877 0
M  V30 12274 C 1176.79 0.234621 -5.1937 0
M  V30 12275 C 1174.48 0.8802 -4.94528 0
M  V30 12276 C 1176.47 -0.45762 -6.35755 0
M  V30 12277 C 1174.16 0.184179 -6.10822 0
M  V30 12278 C 1175.16 -0.483545 -6.81286 0
M  V30 12279 O 1174.85 -1.16839 -7.95364 0
M  V30 12280 H 1174.58 0.233794 -0.634284 0
M  V30 12281 H 1177.13 0.0660113 -2.05294 0
M  V30 12282 H 1175.36 2.43798 -3.00165 0
M  V30 12283 H 1177.05 2.252 -3.37698 0
M  V30 12284 H 1177.82 0.247938 -4.84366 0
M  V30 12285 H 1173.7 1.38938 -4.39565 0
M  V30 12286 H 1177.24 -0.979369 -6.90691 0
M  V30 12287 H 1173.14 0.168737 -6.45279 0
M  V30 12288 H 1173.9 -1.07612 -8.11395 0
M  V30 12289 N 1176.57 1.53483 0.357892 0
M  V30 12290 C 1177.8 1.73956 1.12013 0
M  V30 12291 C 1178.21 0.472053 1.82803 0
M  V30 12292 O 1177.57 -0.555499 1.7384 0
M  V30 12293 C 1177.62 2.91015 2.14459 0
M  V30 12294 O 1177.34 4.12862 1.4655 0
M  V30 12295 C 1178.84 3.23423 3.0317 0
M  V30 12296 H 1176.06 0.58161 0.334621 0
M  V30 12297 H 1178.6 2.00256 0.414467 0
M  V30 12298 H 1176.76 2.67087 2.80612 0
M  V30 12299 H 1177.17 4.78468 2.14869 0
M  V30 12300 H 1178.65 4.08717 3.71018 0
M  V30 12301 H 1179.12 2.39114 3.68404 0
M  V30 12302 H 1179.73 3.49305 2.42624 0
M  V30 12303 N 1178.05 -0.61812 1.44973 0
M  V30 12304 C 1179.27 -1.40921 1.52171 0
M  V30 12305 C 1179.7 -1.87487 0.151755 0
M  V30 12306 O 1179.05 -1.59518 -0.861606 0
M  V30 12307 C 1179.1 -2.59689 2.50188 0
M  V30 12308 O 1178.21 -3.59967 2.0124 0
M  V30 12309 H 1177.55 -0.421138 0.51336 0
M  V30 12310 H 1180.08 -0.753258 1.90229 0
M  V30 12311 H 1180.09 -3.07069 2.6865 0
M  V30 12312 H 1178.76 -2.25144 3.4969 0
M  V30 12313 H 1177.34 -3.19308 1.92605 0
M  V30 12314 N 1179.52 -1.32087 -0.859693 0
M  V30 12315 C 1180.49 -1.20546 -1.94939 0
M  V30 12316 C 1181.49 -0.12982 -1.60275 0
M  V30 12317 O 1182.68 -0.379853 -1.70008 0
M  V30 12318 C 1179.81 -0.852717 -3.30063 0
M  V30 12319 H 1181 -2.17384 -2.06602 0
M  V30 12320 H 1178.55 -1.15846 -1.04926 0
M  V30 12321 H 1179.29 0.114059 -3.24099 0
M  V30 12322 H 1179.07 -1.63035 -3.56598 0
M  V30 12323 H 1180.56 -0.796145 -4.09941 0
M  V30 12324 N 1181 1.07532 -1.15215 0
M  V30 12325 C 1182.23 1.84356 -0.950139 0
M  V30 12326 C 1182.65 1.81429 0.496502 0
M  V30 12327 O 1182.01 1.20589 1.35381 0
M  V30 12328 C 1182.06 3.29425 -1.46669 0
M  V30 12329 O 1181.16 4.07008 -0.664674 0
M  V30 12330 H 1180.5 0.570921 -0.339036 0
M  V30 12331 H 1183.03 1.35665 -1.53154 0
M  V30 12332 H 1183.04 3.8026 -1.47873 0
M  V30 12333 H 1181.72 3.3087 -2.51988 0
M  V30 12334 H 1180.29 3.65841 -0.72211 0
M  V30 12335 N 1182.48 0.948665 1.2585 0
M  V30 12336 C 1183.71 0.616334 1.97193 0
M  V30 12337 C 1184.12 -0.814538 1.70769 0
M  V30 12338 O 1183.46 -1.55569 0.976926 0
M  V30 12339 C 1183.52 0.787814 3.50762 0
M  V30 12340 C 1183.19 2.19472 4.0085 0
M  V30 12341 C 1184.18 3.17087 4.12009 0
M  V30 12342 C 1181.87 2.51731 4.34669 0
M  V30 12343 C 1183.86 4.45058 4.56292 0
M  V30 12344 C 1181.55 3.79932 4.78639 0
M  V30 12345 C 1182.55 4.76408 4.89412 0
M  V30 12346 O 1182.24 6.02325 5.32409 0
M  V30 12347 H 1181.97 0.230487 0.635493 0
M  V30 12348 H 1184.52 1.27379 1.61133 0
M  V30 12349 H 1182.75 0.0732154 3.86631 0
M  V30 12350 H 1184.44 0.457427 4.03314 0
M  V30 12351 H 1185.21 2.9349 3.8612 0
M  V30 12352 H 1181.09 1.77369 4.25513 0
M  V30 12353 H 1184.63 5.20363 4.64616 0
M  V30 12354 H 1180.53 4.03338 5.03973 0
M  V30 12355 H 1181.3 6.05615 5.50611 0
M  V30 12356 N 1183.96 -1.40369 0.716545 0
M  V30 12357 C 1185.21 -2.00473 0.255959 0
M  V30 12358 C 1185.53 -1.57104 -1.15514 0
M  V30 12359 O 1184.8 -0.810925 -1.78328 0
M  V30 12360 H 1183.38 -0.741357 0.0916427 0
M  V30 12361 H 1186.04 -1.71692 0.922389 0
M  V30 12362 H 1185.14 -3.10752 0.289806 0
M  V30 12363 N 1185.44 -0.462799 -1.50652 0
M  V30 12364 C 1186.71 0.156221 -1.94975 0
M  V30 12365 C 1187.09 1.5775 -1.40279 0
M  V30 12366 O 1186.44 2.20473 -0.600323 0
M  V30 12367 C 1186.65 0.108008 -3.48833 0
M  V30 12368 C 1188 0.301013 -4.23532 0
M  V30 12369 O 1189.02 0.184973 -3.55719 0
M  V30 12370 O 1187.88 0.534457 -5.4388 0
M  V30 12371 H 1184.98 0.116182 -0.818798 0
M  V30 12372 H 1187.52 -0.522607 -1.61453 0
M  V30 12373 H 1186.29 -0.884634 -3.81169 0
M  V30 12374 H 1185.92 0.828653 -3.88869 0
M  V30 12375 N 1186.91 1.56388 -0.195085 0
M  V30 12376 C 1188.33 1.8398 0.317513 0
M  V30 12377 C 1188.68 1.11575 1.61386 0
M  V30 12378 O 1187.8 0.376557 2.13099 0
M  V30 12379 C 1188.4 3.33749 0.582859 0
M  V30 12380 C 1186.96 3.61752 1.03983 0
M  V30 12381 C 1186.1 2.77159 0.088434 0
M  V30 12382 H 1189.05 1.53072 -0.418871 0
M  V30 12383 H 1189.07 3.52519 1.43216 0
M  V30 12384 H 1188.59 3.86419 -0.360813 0
M  V30 12385 H 1186.69 3.14515 1.99778 0
M  V30 12386 H 1186.8 4.69937 0.932549 0
M  V30 12387 H 1185.16 2.47765 0.590317 0
M  V30 12388 H 1185.95 3.32619 -0.849682 0
M  V30 12389 N 1188.39 -0.0785156 1.57404 0
M  V30 12390 C 1189.81 -0.433143 1.5361 0
M  V30 12391 C 1190.01 -1.79564 0.914283 0
M  V30 12392 O 1189.06 -2.47215 0.513899 0
M  V30 12393 C 1190.38 -0.380387 2.98284 0
M  V30 12394 C 1191.93 -0.461056 3.09586 0
M  V30 12395 C 1192.4 -0.438276 4.55898 0
M  V30 12396 N 1193.89 -0.498548 4.60509 0
M  V30 12397 C 1194.63 -0.503028 5.71189 0
M  V30 12398 N 1194.12 -0.462724 6.91253 0
M  V30 12399 N 1195.92 -0.549083 5.59412 0
M  V30 12400 H 1188.07 0.813724 1.96195 0
M  V30 12401 H 1190.33 0.304644 0.897717 0
M  V30 12402 H 1190.04 0.553932 3.4731 0
M  V30 12403 H 1189.91 -1.19313 3.57833 0
M  V30 12404 H 1192.3 -1.3858 2.60537 0
M  V30 12405 H 1192.38 0.380138 2.5296 0
M  V30 12406 H 1192.02 0.482588 5.05602 0
M  V30 12407 H 1191.95 -1.29691 5.1038 0
M  V30 12408 H 1194.44 -0.534219 3.74105 0
M  V30 12409 H 1194.76 -0.469883 7.7137 0
M  V30 12410 H 1193.1 -0.429515 6.93672 0
M  V30 12411 H 1196.29 -0.578215 4.64515 0
M  V30 12412 H 1196.46 -0.549105 6.45669 0
M  V30 12413 N 1189.87 -1.5367 -0.349747 0
M  V30 12414 C 1190.82 -1.81914 -1.44948 0
M  V30 12415 C 1191.81 -0.689218 -1.54745 0
M  V30 12416 O 1193.02 -0.872448 -1.57443 0
M  V30 12417 H 1189.39 -0.576234 -0.483176 0
M  V30 12418 H 1191.36 -2.73932 -1.18338 0
M  V30 12419 C 1190.11 -2.04005 -2.81562 0
M  V30 12420 H 1189.44 -2.90399 -2.74788 0
M  V30 12421 H 1190.88 -2.27737 -3.57648 0
M  V30 12422 C 1189.34 -0.823748 -3.26674 0
M  V30 12423 O 1189.87 -0.0201351 -4.01695 0
M  V30 12424 N 1188.07 -0.642716 -2.83403 0
M  V30 12425 H 1187.62 -1.29783 -2.22517 0
M  V30 12426 H 1187.58 0.169654 -3.13942 0
M  V30 12427 N 1191.35 0.610423 -1.45298 0
M  V30 12428 C 1192.28 1.73207 -1.56594 0
M  V30 12429 C 1193.26 1.64893 -0.417651 0
M  V30 12430 O 1194.44 1.83336 -0.64043 0
M  V30 12431 C 1191.57 3.11803 -1.52959 0
M  V30 12432 C 1190.53 3.34925 -2.66475 0
M  V30 12433 C 1189.85 4.73764 -2.47894 0
M  V30 12434 C 1191.15 3.25456 -4.08504 0
M  V30 12435 H 1192.85 1.6401 -2.50482 0
M  V30 12436 H 1190.39 0.787621 -1.20551 0
M  V30 12437 H 1192.35 3.90065 -1.59458 0
M  V30 12438 H 1191.07 3.21833 -0.55599 0
M  V30 12439 H 1189.73 2.59051 -2.59399 0
M  V30 12440 H 1189.38 4.80524 -1.4868 0
M  V30 12441 H 1189.08 4.90191 -3.24016 0
M  V30 12442 H 1190.6 5.54231 -2.56243 0
M  V30 12443 H 1192.02 3.93597 -4.16839 0
M  V30 12444 H 1190.41 3.53414 -4.84994 0
M  V30 12445 H 1191.48 2.22939 -4.30612 0
M  V30 12446 N 1192.83 1.32541 0.852676 0
M  V30 12447 C 1193.76 1.15977 1.96531 0
M  V30 12448 C 1194.74 0.0587267 1.62494 0
M  V30 12449 O 1195.92 0.218404 1.8723 0
M  V30 12450 C 1193.05 0.77587 3.29694 0
M  V30 12451 C 1192.09 1.88244 3.82709 0
M  V30 12452 S 1192.93 3.49108 4.06059 0
M  V30 12453 C 1194.08 3.12693 5.42193 0
M  V30 12454 H 1194.32 2.10165 2.1028 0
M  V30 12455 H 1191.85 1.17225 1.00487 0
M  V30 12456 H 1193.81 0.561136 4.06647 0
M  V30 12457 H 1192.47 -0.14718 3.13755 0
M  V30 12458 H 1191.66 1.56687 4.79025 0
M  V30 12459 H 1191.26 2.05313 3.12606 0
M  V30 12460 H 1193.56 2.62661 6.24512 0
M  V30 12461 H 1194.5 4.08038 5.78714 0
M  V30 12462 H 1194.91 2.4966 5.06291 0
M  V30 12463 N 1194.3 -1.0692 1.15784 0
M  V30 12464 C 1195.55 -1.796 0.935429 0
M  V30 12465 C 1195.88 -1.86935 -0.537173 0
M  V30 12466 O 1195.13 -1.35244 -1.41448 0
M  V30 12467 C 1195.43 -3.24389 1.50022 0
M  V30 12468 C 1195.1 -3.37145 2.99406 0
M  V30 12469 C 1193.76 -3.40334 3.40186 0
M  V30 12470 C 1196.11 -3.39584 3.95389 0
M  V30 12471 C 1193.44 -3.43569 4.75581 0
M  V30 12472 C 1195.79 -3.44356 5.30661 0
M  V30 12473 C 1194.46 -3.45824 5.70931 0
M  V30 12474 H 1193.73 -0.657201 0.342298 0
M  V30 12475 H 1196.37 -1.25784 1.44397 0
M  V30 12476 H 1194.68 -3.81015 0.91297 0
M  V30 12477 H 1196.38 -3.79209 1.30389 0
M  V30 12478 H 1192.97 -3.35365 2.66887 0
M  V30 12479 H 1197.15 -3.36337 3.64954 0
M  V30 12480 H 1192.41 -3.43006 5.06119 0
M  V30 12481 H 1196.58 -3.4519 6.04828 0
M  V30 12482 H 1194.21 -3.48084 6.75826 0
M  V30 12483 N 1195.78 -0.955326 -1.25345 0
M  V30 12484 C 1197.01 -0.627233 -1.97688 0
M  V30 12485 C 1197.43 0.793973 -1.70522 0
M  V30 12486 O 1196.79 1.537 -0.961556 0
M  V30 12487 C 1196.84 -0.892969 -3.49369 0
M  V30 12488 O 1195.94 0.0278871 -4.12391 0
M  V30 12489 H 1195.28 -0.238402 -0.619726 0
M  V30 12490 H 1197.81 -1.28211 -1.59446 0
M  V30 12491 H 1197.82 -0.819517 -3.99685 0
M  V30 12492 H 1196.5 -1.92879 -3.6847 0
M  V30 12493 H 1195.08 -0.0978295 -3.72772 0
M  V30 12494 N 1197.26 1.39987 -0.723979 0
M  V30 12495 C 1198.49 2.05037 -0.27702 0
M  V30 12496 C 1198.9 1.54565 1.08421 0
M  V30 12497 O 1198.26 0.705795 1.683 0
M  V30 12498 C 1198.31 3.60582 -0.25751 0
M  V30 12499 O 1198.03 4.09194 -1.565 0
M  V30 12500 C 1199.53 4.42817 0.206972 0
M  V30 12501 H 1196.75 0.659637 -0.122963 0
M  V30 12502 H 1199.3 1.7924 -0.98454 0
M  V30 12503 H 1197.45 3.85319 0.401037 0
M  V30 12504 H 1197.87 5.03447 -1.47112 0
M  V30 12505 H 1199.34 5.5174 0.16947 0
M  V30 12506 H 1199.82 4.21023 1.25045 0
M  V30 12507 H 1200.42 4.23205 -0.421604 0
M  V30 12508 N 1198.74 0.470782 1.50404 0
M  V30 12509 C 1200.16 0.124919 1.5911 0
M  V30 12510 C 1200.36 -1.36855 1.47895 0
M  V30 12511 O 1199.41 -2.1418 1.33728 0
M  V30 12512 C 1200.72 0.674839 2.9303 0
M  V30 12513 C 1202.27 0.638239 3.06424 0
M  V30 12514 C 1202.75 1.1657 4.42917 0
M  V30 12515 N 1204.24 1.1251 4.49328 0
M  V30 12516 C 1204.97 1.50373 5.53331 0
M  V30 12517 N 1204.47 1.95684 6.6459 0
M  V30 12518 N 1206.26 1.41978 5.43874 0
M  V30 12519 H 1198.41 1.44212 1.55938 0
M  V30 12520 H 1200.68 0.596354 0.73693 0
M  V30 12521 H 1200.38 1.72106 3.06712 0
M  V30 12522 H 1200.26 0.118234 3.77015 0
M  V30 12523 H 1202.64 -0.399075 2.92389 0
M  V30 12524 H 1202.72 1.23164 2.24197 0
M  V30 12525 H 1202.37 2.20164 4.57701 0
M  V30 12526 H 1202.3 0.548513 5.23736 0
M  V30 12527 H 1204.79 0.79276 3.69491 0
M  V30 12528 H 1205.1 2.22724 7.40009 0
M  V30 12529 H 1203.45 1.99636 6.65711 0
M  V30 12530 H 1206.64 1.0642 4.55842 0
M  V30 12531 H 1206.81 1.71812 6.24808 0
M  V30 12532 N 1200.22 -1.56282 0.203376 0
M  V30 12533 C 1201.46 -1.98864 -0.427176 0
M  V30 12534 C 1201.82 -1.08828 -1.58664 0
M  V30 12535 O 1201.11 -0.134399 -1.91128 0
M  V30 12536 C 1201.31 -3.45148 -0.927759 0
M  V30 12537 C 1201.13 -4.49333 0.18166 0
M  V30 12538 C 1199.9 -5.01204 0.642046 0
M  V30 12539 C 1202.1 -5.04612 0.993548 0
M  V30 12540 N 1200.08 -5.89066 1.72842 0
M  V30 12541 C 1201.46 -5.89223 1.92915 0
M  V30 12542 C 1203.51 -4.87023 1.03503 0
M  V30 12543 C 1202.21 -6.58125 2.90282 0
M  V30 12544 C 1204.24 -5.56671 1.99679 0
M  V30 12545 C 1203.6 -6.41035 2.91982 0
M  V30 12546 H 1199.7 -0.772186 -0.123501 0
M  V30 12547 H 1202.28 -1.92201 0.310974 0
M  V30 12548 H 1200.46 -3.52295 -1.63533 0
M  V30 12549 H 1202.19 -3.7468 -1.52961 0
M  V30 12550 H 1198.94 -4.73022 0.233895 0
M  V30 12551 H 1199.37 -6.377 2.27306 0
M  V30 12552 H 1204.01 -4.21468 0.335379 0
M  V30 12553 H 1201.73 -7.22874 3.61219 0
M  V30 12554 H 1205.31 -5.45034 2.0354 0
M  V30 12555 H 1204.19 -6.93979 3.65189 0
M  V30 12556 N 1201.7 0.070167 -1.57444 0
M  V30 12557 C 1202.97 0.802108 -1.78397 0
M  V30 12558 C 1203.35 1.95706 -0.791356 0
M  V30 12559 O 1202.7 2.27827 0.17518 0
M  V30 12560 C 1202.91 1.27354 -3.24934 0
M  V30 12561 C 1204.26 1.70626 -3.88808 0
M  V30 12562 O 1205.28 1.36916 -3.28835 0
M  V30 12563 O 1204.14 2.33041 -4.94322 0
M  V30 12564 H 1201.24 0.384483 -0.73219 0
M  V30 12565 H 1203.78 0.0501168 -1.69626 0
M  V30 12566 H 1202.55 0.447204 -3.88736 0
M  V30 12567 H 1202.18 2.0868 -3.38435 0
M  V30 12568 N 1203.17 1.53854 0.341593 0
M  V30 12569 C 1204.42 1.71194 1.08162 0
M  V30 12570 C 1204.75 0.47614 1.88582 0
M  V30 12571 O 1204 -0.542115 1.88041 0
M  V30 12572 C 1204.3 2.92844 2.04884 0
M  V30 12573 C 1203.97 4.28366 1.40759 0
M  V30 12574 C 1202.63 4.65214 1.23 0
M  V30 12575 C 1204.98 5.12546 0.945819 0
M  V30 12576 C 1202.31 5.83857 0.576852 0
M  V30 12577 C 1204.66 6.31857 0.306568 0
M  V30 12578 C 1203.33 6.67398 0.116677 0
M  V30 12579 H 1202.6 0.626442 0.395792 0
M  V30 12580 H 1205.24 1.88073 0.360688 0
M  V30 12581 H 1203.55 2.70576 2.83365 0
M  V30 12582 H 1205.25 3.03454 2.62139 0
M  V30 12583 H 1201.84 3.99366 1.5558 0
M  V30 12584 H 1206.02 4.84609 1.07087 0
M  V30 12585 H 1201.28 6.09967 0.418363 0
M  V30 12586 H 1205.45 6.96375 -0.0593285 0
M  V30 12587 H 1203.08 7.59191 -0.391477 0
M  V30 12588 O 1204.69 -0.487567 1.53964 0
M  V30 12589 H 1205.38 -1.14224 1.56437 0
M  V30 END ATOM
M  V30 BEGIN BOND
M  V30 END BOND
M  V30 END CTAB
M  END
$$$$
