drugbank_target|P48664 Excitatory amino acid transporter 4 (DB00142)
 OpenBabel12092120083D

  0  0  0     0  0            999 V3000
M  V30 BEGIN CTAB
M  V30 COUNTS 8817 8892 0 0 0
M  V30 BEGIN ATOM
M  V30 1 H -0.908 1.98254 -0.117106 0
M  V30 2 N 0 1.576 0 0
M  V30 3 C 0.933 2.03868 1.02534 0
M  V30 4 C 1.911 0.928543 1.3348 0
M  V30 5 O 3.095 1.19667 1.45644 0
M  V30 6 C 0.222 2.43627 2.35294 0
M  V30 7 C -0.732 3.65373 2.2001 0
M  V30 8 S 0.101 5.13292 1.52614 0
M  V30 9 C 1.257 5.56322 2.86805 0
M  V30 10 H 1.49 2.90518 0.631377 0
M  V30 11 H -0.977 1.52953 0.210867 0
M  V30 12 H 0.981 2.67203 3.11629 0
M  V30 13 H -0.358 1.57376 2.7183 0
M  V30 14 H -1.165 3.90944 3.18086 0
M  V30 15 H -1.563 3.418 1.51819 0
M  V30 16 H 0.729 5.58782 3.83104 0
M  V30 17 H 1.672 6.56266 2.65933 0
M  V30 18 H 2.08 4.83886 2.90714 0
M  V30 19 N 1.4781 -0.272755 1.55222 0
M  V30 20 C 2.7031 -1.02683 1.80197 0
M  V30 21 C 3.1281 -1.79142 0.573551 0
M  V30 22 O 2.4861 -1.74917 -0.476849 0
M  V30 23 C 2.5341 -1.9609 3.02624 0
M  V30 24 O 1.6381 -3.04863 2.77727 0
M  V30 25 H 0.9791 -0.293557 0.595584 0
M  V30 26 H 3.5091 -0.30159 2.02365 0
M  V30 27 H 3.5191 -2.38039 3.31363 0
M  V30 28 H 2.1941 -1.39851 3.91682 0
M  V30 29 H 0.7711 -2.67228 2.60084 0
M  V30 30 N 2.9562 -1.48159 -0.537278 0
M  V30 31 C 4.1812 -1.59707 -1.32319 0
M  V30 32 C 4.6062 -0.254859 -1.86365 0
M  V30 33 O 3.9642 0.772378 -1.64024 0
M  V30 34 C 4.0122 -2.6412 -2.45505 0
M  V30 35 O 3.1162 -2.20774 -3.48328 0
M  V30 36 H 2.4572 -0.535791 -0.392204 0
M  V30 37 H 4.9872 -1.94092 -0.647268 0
M  V30 38 H 4.9972 -2.85166 -2.91795 0
M  V30 39 H 3.6722 -3.61567 -2.05528 0
M  V30 40 H 2.2492 -2.09911 -3.08207 0
M  V30 41 N 4.4343 0.785586 -1.36625 0
M  V30 42 C 5.3843 1.88822 -1.27789 0
M  V30 43 C 6.3683 1.60014 -0.168579 0
M  V30 44 O 7.5603 1.72381 -0.401737 0
M  V30 45 C 4.6893 3.26092 -1.07327 0
M  V30 46 C 3.7753 3.60897 -2.22743 0
M  V30 47 N 4.1663 3.66982 -3.48077 0
M  V30 48 C 2.4643 3.90981 -2.14593 0
M  V30 49 C 3.1653 3.98137 -4.24101 0
M  V30 50 N 2.1413 4.13319 -3.53084 0
M  V30 51 H 5.9433 1.91759 -2.22723 0
M  V30 52 H 3.4573 0.981311 -1.29399 0
M  V30 53 H 5.4543 4.04954 -0.990842 0
M  V30 54 H 4.1143 3.24428 -0.132977 0
M  V30 55 H 5.1253 3.49531 -3.82163 0
M  V30 56 H 1.8023 3.9722 -1.2854 0
M  V30 57 H 3.1923 4.09737 -5.32509 0
M  V30 58 N 5.9124 1.20967 1.01018 0
M  V30 59 C 7.1604 1.02172 1.74371 0
M  V30 60 C 7.4814 -0.446414 1.89821 0
M  V30 61 O 6.7514 -1.32234 1.44537 0
M  V30 62 H 5.3314 0.375066 0.646014 0
M  V30 63 H 7.9934 1.52187 1.21758 0
M  V30 64 H 7.0894 1.48538 2.74487 0
M  V30 65 N 7.3905 -1.2043 1.01659 0
M  V30 66 C 8.3385 -2.25249 0.580143 0
M  V30 67 C 9.3325 -1.65057 -0.381115 0
M  V30 68 O 10.5385 -1.78241 -0.251039 0
M  V30 69 H 6.9135 -0.732695 0.169299 0
M  V30 70 H 8.8845 -2.59389 1.47512 0
M  V30 71 C 7.6335 -3.47638 -0.065788 0
M  V30 72 H 6.9565 -3.94233 0.664874 0
M  V30 73 H 8.3965 -4.2268 -0.334282 0
M  V30 74 C 6.8555 -3.10447 -1.3086 0
M  V30 75 O 7.3855 -3.21981 -2.4019 0
M  V30 76 N 5.5915 -2.64996 -1.1927 0
M  V30 77 H 5.1385 -2.55811 -0.303064 0
M  V30 78 H 5.0965 -2.40482 -2.02523 0
M  V30 79 N 8.8686 -0.792821 -1.36206 0
M  V30 80 C 10.0936 -0.377701 -2.03932 0
M  V30 81 C 10.5186 0.998947 -1.59382 0
M  V30 82 O 9.8766 1.64421 -0.763903 0
M  V30 83 C 9.9246 -0.453635 -3.57735 0
M  V30 84 O 9.0286 0.538151 -4.08874 0
M  V30 85 H 8.3696 -0.159855 -0.644471 0
M  V30 86 H 10.8996 -1.07488 -1.7409 0
M  V30 87 H 10.9096 -0.318464 -4.06755 0
M  V30 88 H 9.5846 -1.45784 -3.89512 0
M  V30 89 H 8.1616 0.364359 -3.71116 0
M  V30 90 N 10.3467 1.47872 -0.545128 0
M  V30 91 C 11.2767 2.32661 0.197793 0
M  V30 92 C 12.2577 1.43041 0.920504 0
M  V30 93 O 13.4427 1.71912 0.90333 0
M  V30 94 C 10.5727 3.24569 1.23582 0
M  V30 95 C 9.5267 4.23333 0.630323 0
M  V30 96 C 8.8527 5.0448 1.77211 0
M  V30 97 C 10.1527 5.20704 -0.407974 0
M  V30 98 H 11.8467 2.95024 -0.510045 0
M  V30 99 H 9.3927 1.4187 -0.246731 0
M  V30 100 H 11.3457 3.8272 1.76362 0
M  V30 101 H 10.0697 2.60236 1.97344 0
M  V30 102 H 8.7287 3.6639 0.123922 0
M  V30 103 H 8.3767 4.36561 2.49847 0
M  V30 104 H 8.0767 5.71339 1.37281 0
M  V30 105 H 9.6007 5.65487 2.3034 0
M  V30 106 H 11.0147 5.7329 0.033305 0
M  V30 107 H 9.4117 5.95699 -0.725486 0
M  V30 108 H 10.4817 4.66917 -1.30828 0
M  V30 109 N 11.8248 0.280983 1.55075 0
M  V30 110 C 13.0718 -0.334115 1.99725 0
M  V30 111 C 13.3998 -1.5542 1.1694 0
M  V30 112 O 12.6548 -1.94361 0.228531 0
M  V30 113 C 12.9538 -0.754656 3.49342 0
M  V30 114 C 12.6198 0.361445 4.49449 0
M  V30 115 C 11.2818 0.667893 4.76542 0
M  V30 116 C 13.6338 1.11322 5.09173 0
M  V30 117 C 10.9618 1.7296 5.60626 0
M  V30 118 C 13.3138 2.1647 5.9441 0
M  V30 119 C 11.9778 2.47742 6.19822 0
M  V30 120 H 11.2478 -0.122261 0.730844 0
M  V30 121 H 13.8948 0.395917 1.87363 0
M  V30 122 H 12.1998 -1.56446 3.5921 0
M  V30 123 H 13.8968 -1.24142 3.813 0
M  V30 124 H 10.4868 0.112481 4.28452 0
M  V30 125 H 14.6708 0.88973 4.8826 0
M  V30 126 H 9.9268 1.97684 5.78559 0
M  V30 127 H 14.1008 2.75193 6.3972 0
M  V30 128 H 11.7278 3.30145 6.84769 0
M  V30 129 N 13.3029 -1.57598 0.00835791 0
M  V30 130 C 14.2329 -2.1198 -0.979113 0
M  V30 131 C 15.2139 -1.03091 -1.35301 0
M  V30 132 O 16.3989 -1.30818 -1.43528 0
M  V30 133 C 13.5289 -2.62995 -2.26828 0
M  V30 134 C 12.4829 -3.76485 -2.03576 0
M  V30 135 C 11.8089 -4.13846 -3.38579 0
M  V30 136 C 13.1089 -5.0342 -1.39161 0
M  V30 137 H 14.8029 -2.94738 -0.526281 0
M  V30 138 H 12.3489 -1.41783 -0.251704 0
M  V30 139 H 14.3019 -2.99669 -2.96271 0
M  V30 140 H 13.0259 -1.7737 -2.7424 0
M  V30 141 H 11.6849 -3.40217 -1.36557 0
M  V30 142 H 11.3329 -3.25232 -3.83709 0
M  V30 143 H 11.0329 -4.90312 -3.23834 0
M  V30 144 H 12.5569 -4.53086 -4.09323 0
M  V30 145 H 13.9709 -5.37812 -1.98573 0
M  V30 146 H 12.3679 -5.84746 -1.34878 0
M  V30 147 H 13.4379 -4.83548 -0.361868 0
M  V30 148 N 14.781 0.264519 -1.55364 0
M  V30 149 C 16.197 0.61215 -1.47394 0
M  V30 150 C 16.397 1.89134 -0.695018 0
M  V30 151 O 15.453 2.51563 -0.217275 0
M  V30 152 C 16.766 0.731235 -2.91674 0
M  V30 153 C 18.314 0.82473 -3.01939 0
M  V30 154 C 18.789 0.975522 -4.4749 0
M  V30 155 N 20.28 1.04083 -4.51354 0
M  V30 156 C 21.015 1.17646 -5.61201 0
M  V30 157 N 20.511 1.27874 -6.80896 0
M  V30 158 N 22.304 1.20823 -5.48961 0
M  V30 159 H 14.455 -0.575456 -2.04456 0
M  V30 160 H 16.718 -0.196099 -0.927496 0
M  V30 161 H 16.424 -0.138392 -3.51428 0
M  V30 162 H 16.298 1.60883 -3.41169 0
M  V30 163 H 18.685 1.68482 -2.42276 0
M  V30 164 H 18.766 -0.0776479 -2.55682 0
M  V30 165 H 18.41 0.120058 -5.07758 0
M  V30 166 H 18.34 1.89268 -4.91412 0
M  V30 167 H 20.831 0.973846 -3.65136 0
M  V30 168 H 21.144 1.38081 -7.60364 0
M  V30 169 H 19.489 1.24863 -6.83692 0
M  V30 170 H 22.68 1.12469 -4.54388 0
M  V30 171 H 22.853 1.31049 -6.3461 0
M  V30 172 N 16.2591 1.48442 0.529413 0
M  V30 173 C 17.1691 1.6569 1.66084 0
M  V30 174 C 18.1851 0.539432 1.65427 0
M  V30 175 O 19.3611 0.810572 1.84368 0
M  V30 176 C 16.4261 1.69315 3.02545 0
M  V30 177 C 15.4871 2.92694 3.14052 0
M  V30 178 C 14.7201 2.96137 4.44003 0
M  V30 179 O 14.9431 2.07973 5.31134 0
M  V30 180 O 13.8771 3.88312 4.59888 0
M  V30 181 H 17.7031 2.61483 1.54469 0
M  V30 182 H 15.2881 1.3185 0.702567 0
M  V30 183 H 17.1701 1.74217 3.83701 0
M  V30 184 H 15.8451 0.766966 3.14483 0
M  V30 185 H 14.7521 2.93324 2.32189 0
M  V30 186 H 16.0851 3.84699 3.0703 0
M  V30 187 N 17.7372 -0.778329 1.37039 0
M  V30 188 C 18.9622 -1.57248 1.35233 0
M  V30 189 C 19.3872 -1.87999 -0.0615568 0
M  V30 190 O 18.7452 -1.48734 -1.03672 0
M  V30 191 C 18.7932 -2.86353 2.19167 0
M  V30 192 O 17.8972 -3.80442 1.59178 0
M  V30 193 H 17.2382 -0.476569 0.462362 0
M  V30 194 H 19.7682 -0.963853 1.80474 0
M  V30 195 H 19.7782 -3.35519 2.32145 0
M  V30 196 H 18.4532 -2.63299 3.21942 0
M  V30 197 H 17.0302 -3.39067 1.55203 0
M  V30 198 N 19.2153 -1.21501 -1.00376 0
M  V30 199 C 20.4633 -1.03095 -1.73827 0
M  V30 200 C 20.7843 0.436341 -1.90055 0
M  V30 201 O 20.0543 1.31466 -1.45236 0
M  V30 202 H 18.6343 -0.378487 -0.644016 0
M  V30 203 H 21.2963 -1.52831 -1.20949 0
M  V30 204 H 20.3923 -1.49991 -2.73695 0
M  V30 205 N 20.6934 1.19889 -1.02296 0
M  V30 206 C 21.6254 2.22334 -0.556787 0
M  V30 207 C 22.6384 1.58674 0.364199 0
M  V30 208 O 23.8274 1.77768 0.161533 0
M  V30 209 C 20.9274 3.38257 0.208694 0
M  V30 210 C 20.1004 4.31504 -0.71577 0
M  V30 211 C 19.1594 5.262 0.00325597 0
M  V30 212 O 18.1854 5.65798 -0.621357 0
M  V30 213 N 19.3874 5.66303 1.27599 0
M  V30 214 H 22.1524 2.62957 -1.43784 0
M  V30 215 H 19.7134 1.34495 -0.901261 0
M  V30 216 H 21.7054 3.98616 0.699111 0
M  V30 217 H 20.2754 2.96472 0.991102 0
M  V30 218 H 19.4954 3.69016 -1.38638 0
M  V30 219 H 20.7834 4.9072 -1.34428 0
M  V30 220 H 20.1814 5.36155 1.80429 0
M  V30 221 H 18.7384 6.28942 1.71102 0
M  V30 222 N 22.1715 0.800033 1.35784 0
M  V30 223 C 23.5875 0.482977 1.52117 0
M  V30 224 C 23.7875 -0.996948 1.75109 0
M  V30 225 O 22.8435 -1.78216 1.78872 0
M  V30 226 C 24.1565 1.32264 2.70049 0
M  V30 227 C 25.7045 1.31742 2.83924 0
M  V30 228 C 26.1795 2.14106 4.04874 0
M  V30 229 N 27.6705 2.11607 4.12039 0
M  V30 230 C 28.4055 2.72099 5.04727 0
M  V30 231 N 27.9015 3.41492 6.02789 0
M  V30 232 N 29.6945 2.61776 4.97423 0
M  V30 233 H 21.8455 1.75856 1.19115 0
M  V30 234 H 24.1085 0.748122 0.582252 0
M  V30 235 H 23.8145 2.37261 2.59616 0
M  V30 236 H 23.6885 0.971303 3.6448 0
M  V30 237 H 26.0755 0.275333 2.93813 0
M  V30 238 H 26.1565 1.70859 1.9037 0
M  V30 239 H 25.8005 3.18351 3.95746 0
M  V30 240 H 25.7305 1.72353 4.97596 0
M  V30 241 H 28.2215 1.61112 3.41835 0
M  V30 242 H 28.5345 3.84953 6.70098 0
M  V30 243 H 26.8795 3.45596 6.02983 0
M  V30 244 H 30.0705 2.07157 4.19766 0
M  V30 245 H 30.2435 3.0921 5.69468 0
M  V30 246 N 23.6496 -1.47581 0.552962 0
M  V30 247 C 24.5796 -2.32762 -0.185451 0
M  V30 248 C 25.5606 -1.43527 -0.912905 0
M  V30 249 O 26.7456 -1.72388 -0.894201 0
M  V30 250 C 23.8756 -3.25219 -1.21859 0
M  V30 251 C 22.8296 -4.23661 -0.607864 0
M  V30 252 C 22.1556 -5.05413 -1.74533 0
M  V30 253 C 23.4556 -5.20481 0.435582 0
M  V30 254 H 25.1496 -2.94749 0.525684 0
M  V30 255 H 22.6956 -1.41738 0.254251 0
M  V30 256 H 24.6486 -3.8365 -1.7433 0
M  V30 257 H 23.3726 -2.61279 -1.95961 0
M  V30 258 H 22.0316 -3.66451 -0.104489 0
M  V30 259 H 21.6796 -4.3788 -2.47529 0
M  V30 260 H 21.3796 -5.72059 -1.34249 0
M  V30 261 H 22.9036 -5.66701 -2.27338 0
M  V30 262 H 24.3176 -5.733 -0.00290157 0
M  V30 263 H 22.7146 -5.95305 0.757067 0
M  V30 264 H 23.7846 -4.66217 1.33303 0
M  V30 265 N 25.1277 -0.289203 -1.54924 0
M  V30 266 C 26.3757 0.322879 -1.99504 0
M  V30 267 C 26.6967 1.55313 -1.1791 0
M  V30 268 O 25.9667 1.94001 -0.272097 0
M  V30 269 H 24.5467 0.122291 -0.736922 0
M  V30 270 H 27.2087 -0.397802 -1.90797 0
M  V30 271 H 26.3047 0.603061 -3.06218 0
M  V30 272 N 26.6058 1.57591 -0.0167156 0
M  V30 273 C 28.0218 1.55946 0.339557 0
M  V30 274 C 28.2218 1.02109 1.73713 0
M  V30 275 O 27.2778 0.662303 2.43659 0
M  V30 276 C 28.5908 3.00037 0.199499 0
M  V30 277 C 30.1388 3.11805 0.273193 0
M  V30 278 C 30.6138 4.57713 0.162068 0
M  V30 279 N 32.1048 4.6268 0.219444 0
M  V30 280 C 32.8398 5.73185 0.157054 0
M  V30 281 N 32.3358 6.92786 0.0442936 0
M  V30 282 N 34.1288 5.61707 0.21014 0
M  V30 283 H 26.2798 1.90921 -0.930758 0
M  V30 284 H 28.5428 0.877674 -0.358319 0
M  V30 285 H 28.2488 3.4333 -0.76273 0
M  V30 286 H 28.1228 3.64387 0.974786 0
M  V30 287 H 30.5098 2.68433 1.22587 0
M  V30 288 H 30.5908 2.50201 -0.532256 0
M  V30 289 H 30.2348 5.01763 -0.78714 0
M  V30 290 H 30.1648 5.17283 0.986222 0
M  V30 291 H 32.6558 3.76649 0.307246 0
M  V30 292 H 32.9688 7.728 0.00304069 0
M  V30 293 H 31.3138 6.94999 0.00968457 0
M  V30 294 H 34.5048 4.6716 0.296546 0
M  V30 295 H 34.6778 6.47807 0.158054 0
M  V30 296 N 28.0839 -0.256276 1.55502 0
M  V30 297 C 29.3299 -0.987079 1.77157 0
M  V30 298 C 29.6629 -1.85327 0.580315 0
M  V30 299 O 28.9379 -1.89874 -0.421686 0
M  V30 300 C 29.2209 -1.85553 3.08613 0
M  V30 301 C 29.0739 -1.01816 4.38125 0
M  V30 302 C 30.3929 -2.8397 3.36228 0
M  V30 303 H 27.5119 -0.357428 0.644526 0
M  V30 304 H 30.1539 -0.258239 1.88237 0
M  V30 305 H 28.3039 -2.47695 2.99298 0
M  V30 306 H 29.9759 -0.416159 4.59419 0
M  V30 307 H 28.2189 -0.322178 4.32602 0
M  V30 308 H 28.8899 -1.65939 5.26468 0
M  V30 309 H 31.3659 -2.31964 3.45445 0
M  V30 310 H 30.2419 -3.41864 4.29442 0
M  V30 311 H 30.5029 -3.59955 2.56681 0
M  V30 312 N 29.562 -1.4872 -0.521534 0
M  V30 313 C 30.81 -1.56857 -1.27437 0
M  V30 314 C 31.131 -0.247982 -1.93417 0
M  V30 315 O 30.401 0.731151 -1.81744 0
M  V30 316 H 28.981 -0.577885 -0.473347 0
M  V30 317 H 31.643 -1.85233 -0.606205 0
M  V30 318 H 30.739 -2.35402 -2.0492 0
M  V30 319 N 31.0401 0.771051 -1.3745 0
M  V30 320 C 32.2861 1.53109 -1.339 0
M  V30 321 C 32.6411 1.9225 0.0758401 0
M  V30 322 O 31.9341 1.61264 1.03463 0
M  V30 323 C 32.1281 2.80676 -2.2126 0
M  V30 324 C 31.9571 2.54003 -3.71096 0
M  V30 325 C 30.7271 2.48097 -4.402 0
M  V30 326 C 32.9251 2.21953 -4.63941 0
M  V30 327 N 30.9071 2.13515 -5.75573 0
M  V30 328 C 32.2781 1.97516 -5.87697 0
M  V30 329 C 34.3331 2.08114 -4.5232 0
M  V30 330 C 33.0361 1.60638 -7.01133 0
M  V30 331 C 35.0621 1.72636 -5.65642 0
M  V30 332 C 34.4241 1.4906 -6.88448 0
M  V30 333 H 30.5231 0.56055 -0.54526 0
M  V30 334 H 33.1071 0.899472 -1.72678 0
M  V30 335 H 31.2781 3.41674 -1.84698 0
M  V30 336 H 33.0101 3.46578 -2.08963 0
M  V30 337 H 29.7651 2.63974 -3.93211 0
M  V30 338 H 30.1891 1.98919 -6.47117 0
M  V30 339 H 34.8311 2.25024 -3.57944 0
M  V30 340 H 32.5491 1.42467 -7.95443 0
M  V30 341 H 36.1351 1.62586 -5.58621 0
M  V30 342 H 35.0151 1.22014 -7.7465 0
M  V30 343 N 32.5182 1.22032 0.997298 0
M  V30 344 C 33.4482 1.01065 2.10495 0
M  V30 345 C 34.4292 -0.0669542 1.69968 0
M  V30 346 O 35.6142 0.0943987 1.9397 0
M  V30 347 C 32.7442 0.582874 3.42374 0
M  V30 348 C 31.6982 1.60592 3.96729 0
M  V30 349 C 31.0242 1.03412 5.24605 0
M  V30 350 C 32.3242 2.99478 4.27914 0
M  V30 351 H 34.0182 1.93708 2.28292 0
M  V30 352 H 31.5642 0.932761 1.09707 0
M  V30 353 H 33.5172 0.423332 4.19268 0
M  V30 354 H 32.2412 -0.379213 3.24391 0
M  V30 355 H 30.9002 1.75316 3.21963 0
M  V30 356 H 30.5482 0.063518 5.0296 0
M  V30 357 H 30.2482 1.71754 5.61938 0
M  V30 358 H 31.7722 0.886066 6.04137 0
M  V30 359 H 33.1862 2.88153 4.95622 0
M  V30 360 H 31.5832 3.64903 4.76409 0
M  V30 361 H 32.6532 3.49742 3.3587 0
M  V30 362 N 33.9963 -1.19345 1.0293 0
M  V30 363 C 34.9283 -2.22036 0.56857 0
M  V30 364 C 35.9413 -1.58865 -0.355779 0
M  V30 365 O 37.1303 -1.77851 -0.152103 0
M  V30 366 C 34.2303 -3.38363 -0.190752 0
M  V30 367 C 33.4033 -4.31118 0.738643 0
M  V30 368 C 32.4623 -5.26194 0.0246497 0
M  V30 369 O 31.4883 -5.65461 0.651354 0
M  V30 370 N 32.6903 -5.66971 -1.24594 0
M  V30 371 H 35.4553 -2.6219 1.45177 0
M  V30 372 H 33.0163 -1.34015 0.908381 0
M  V30 373 H 35.0083 -3.98981 -0.677961 0
M  V30 374 H 33.5783 -2.96994 -0.975366 0
M  V30 375 H 32.7983 -3.68276 1.40593 0
M  V30 376 H 34.0863 -4.90001 1.37029 0
M  V30 377 H 33.4843 -5.37104 -1.77583 0
M  V30 378 H 32.0413 -6.2984 -1.67764 0
M  V30 379 N 35.4744 -0.807222 -1.35358 0
M  V30 380 C 36.8904 -0.491038 -1.51858 0
M  V30 381 C 37.0904 0.987648 -1.75635 0
M  V30 382 O 36.1464 1.77265 -1.79815 0
M  V30 383 C 37.4594 -1.33695 -2.69344 0
M  V30 384 C 39.0074 -1.33246 -2.83222 0
M  V30 385 C 39.4824 -2.1625 -4.03733 0
M  V30 386 N 40.9734 -2.1379 -4.10911 0
M  V30 387 C 41.7084 -2.74772 -5.03277 0
M  V30 388 N 41.2044 -3.44684 -6.0097 0
M  V30 389 N 42.9974 -2.6441 -4.96028 0
M  V30 390 H 35.1484 -1.76485 -1.18181 0
M  V30 391 H 37.4114 -0.751199 -0.578276 0
M  V30 392 H 37.1174 -2.38634 -2.58354 0
M  V30 393 H 36.9914 -0.990618 -3.6396 0
M  V30 394 H 39.3784 -0.290911 -2.93663 0
M  V30 395 H 39.4594 -1.71866 -1.89461 0
M  V30 396 H 39.1034 -3.20445 -3.94052 0
M  V30 397 H 39.0334 -1.74989 -4.96675 0
M  V30 398 H 41.5244 -1.62923 -3.40976 0
M  V30 399 H 41.8374 -3.88501 -6.68047 0
M  V30 400 H 40.1824 -3.48788 -6.01142 0
M  V30 401 H 43.3734 -2.0938 -4.18662 0
M  V30 402 H 43.5464 -3.12225 -5.6782 0
M  V30 403 N 36.9525 1.47285 -0.560781 0
M  V30 404 C 37.8825 2.32857 0.173105 0
M  V30 405 C 38.8635 1.44009 0.905281 0
M  V30 406 O 40.0485 1.7286 0.885046 0
M  V30 407 C 37.1785 3.25861 1.20133 0
M  V30 408 C 36.1325 4.23978 0.585388 0
M  V30 409 C 35.4585 5.06332 1.7185 0
M  V30 410 C 36.7585 5.20242 -0.463178 0
M  V30 411 H 38.4525 2.94466 -0.541307 0
M  V30 412 H 35.9985 1.41601 -0.261764 0
M  V30 413 H 37.9515 3.84569 1.72293 0
M  V30 414 H 36.6755 2.62315 1.94573 0
M  V30 415 H 35.3345 3.66501 0.085054 0
M  V30 416 H 34.9825 4.39186 2.45203 0
M  V30 417 H 34.6825 5.72762 1.31213 0
M  V30 418 H 36.2065 5.67899 2.24329 0
M  V30 419 H 37.6205 5.73293 -0.027502 0
M  V30 420 H 36.0175 5.94896 -0.788627 0
M  V30 421 H 37.0875 4.65504 -1.35773 0
M  V30 422 N 38.4306 0.297415 1.54768 0
M  V30 423 C 39.3626 -0.613881 2.20826 0
M  V30 424 C 40.3756 -1.10032 1.19987 0
M  V30 425 O 41.5646 -1.01839 1.46598 0
M  V30 426 C 38.6646 -1.852 2.83821 0
M  V30 427 C 37.8376 -1.50865 4.10559 0
M  V30 428 C 36.8966 -2.60154 4.57391 0
M  V30 429 O 35.9226 -2.25398 5.2267 0
M  V30 430 N 37.1246 -3.90629 4.29406 0
M  V30 431 H 39.8896 -0.048389 2.99661 0
M  V30 432 H 37.4506 0.11946 1.61459 0
M  V30 433 H 39.4426 -2.57652 3.12086 0
M  V30 434 H 38.0126 -2.32597 2.08847 0
M  V30 435 H 37.2326 -0.616925 3.89343 0
M  V30 436 H 38.5206 -1.25458 4.9309 0
M  V30 437 H 37.9186 -4.21677 3.77101 0
M  V30 438 H 36.4756 -4.59391 4.62388 0
M  V30 439 N 39.9087 -1.5758 0.0250728 0
M  V30 440 C 40.8187 -2.1343 -0.973905 0
M  V30 441 C 41.8347 -1.08556 -1.35984 0
M  V30 442 O 43.0107 -1.40592 -1.44207 0
M  V30 443 C 40.0757 -2.64703 -2.23904 0
M  V30 444 C 39.1367 -3.84276 -1.91391 0
M  V30 445 C 38.3697 -4.33095 -3.11873 0
M  V30 446 O 38.5927 -3.81107 -4.24398 0
M  V30 447 O 37.5267 -5.24984 -2.94406 0
M  V30 448 H 41.3527 -2.99057 -0.529036 0
M  V30 449 H 38.9377 -1.48118 -0.195288 0
M  V30 450 H 40.8197 -2.97769 -2.98181 0
M  V30 451 H 39.4947 -1.82161 -2.6758 0
M  V30 452 H 38.4017 -3.56143 -1.14511 0
M  V30 453 H 39.7347 -4.67968 -1.52534 0
M  V30 454 N 41.3868 0.248026 -1.55636 0
M  V30 455 C 42.6118 0.998028 -1.81808 0
M  V30 456 C 43.0368 1.78207 -0.601979 0
M  V30 457 O 42.3948 1.75653 0.448961 0
M  V30 458 C 42.4428 1.9125 -3.05705 0
M  V30 459 O 41.5468 3.00406 -2.82542 0
M  V30 460 H 40.8878 0.284045 -0.600179 0
M  V30 461 H 43.4178 0.269357 -2.02819 0
M  V30 462 H 43.4278 2.32737 -3.35108 0
M  V30 463 H 42.1028 1.33602 -3.93857 0
M  V30 464 H 40.6798 2.63056 -2.64303 0
M  V30 465 N 42.8649 1.48995 0.513639 0
M  V30 466 C 43.7949 1.67636 1.62544 0
M  V30 467 C 44.7759 0.525087 1.61793 0
M  V30 468 O 45.9609 0.759502 1.78732 0
M  V30 469 C 43.0909 1.73114 3.01079 0
M  V30 470 C 42.0449 2.87905 3.16693 0
M  V30 471 C 41.3709 2.78486 4.56453 0
M  V30 472 C 42.6709 4.29005 2.97913 0
M  V30 473 H 44.3649 2.60716 1.47198 0
M  V30 474 H 41.9109 1.25465 0.706714 0
M  V30 475 H 43.8639 1.84742 3.78746 0
M  V30 476 H 42.5879 0.766241 3.17484 0
M  V30 477 H 41.2469 2.75859 2.41448 0
M  V30 478 H 40.8949 1.7993 4.69717 0
M  V30 479 H 40.5949 3.55523 4.67843 0
M  V30 480 H 42.1189 2.92104 5.36197 0
M  V30 481 H 43.5329 4.41798 3.65359 0
M  V30 482 H 41.9299 5.07166 3.20785 0
M  V30 483 H 42.9999 4.44329 1.94165 0
M  V30 484 N 44.343 -0.763751 1.37857 0
M  V30 485 C 45.275 -1.88664 1.30148 0
M  V30 486 C 46.288 -1.61365 0.215685 0
M  V30 487 O 47.477 -1.72134 0.472459 0
M  V30 488 C 44.577 -3.24075 0.991396 0
M  V30 489 C 43.75 -3.78958 2.18426 0
M  V30 490 C 42.809 -4.92862 1.8432 0
M  V30 491 O 41.835 -5.08027 2.56704 0
M  V30 492 N 43.037 -5.75071 0.792081 0
M  V30 493 H 45.802 -1.95791 2.26905 0
M  V30 494 H 43.363 -0.943226 1.31586 0
M  V30 495 H 45.355 -3.97804 0.743935 0
M  V30 496 H 43.925 -3.12399 0.112122 0
M  V30 497 H 43.145 -2.96913 2.59299 0
M  V30 498 H 44.433 -4.12357 2.98058 0
M  V30 499 H 43.831 -5.65375 0.191595 0
M  V30 500 H 42.388 -6.48991 0.60449 0
M  V30 501 N 45.8211 -1.22559 -0.990812 0
M  V30 502 C 46.7531 -0.955325 -2.08342 0
M  V30 503 C 47.7661 0.0668408 -1.62663 0
M  V30 504 O 48.9551 -0.167421 -1.77713 0
M  V30 505 C 46.0551 -0.415566 -3.36342 0
M  V30 506 C 45.2281 -1.49544 -4.11042 0
M  V30 507 C 44.2871 -0.962399 -5.17324 0
M  V30 508 O 43.3131 -1.64907 -5.44788 0
M  V30 509 N 44.5151 0.215134 -5.80101 0
M  V30 510 H 47.2801 -1.89596 -2.32106 0
M  V30 511 H 44.8411 -1.13276 -1.15673 0
M  V30 512 H 46.8331 -0.0442386 -4.04676 0
M  V30 513 H 45.4031 0.430232 -3.09625 0
M  V30 514 H 44.6231 -2.04 -3.37309 0
M  V30 515 H 45.9111 -2.22195 -4.57719 0
M  V30 516 H 45.3091 0.789779 -5.6016 0
M  V30 517 H 43.8661 0.527826 -6.49659 0
M  V30 518 N 47.2992 1.18797 -1.03562 0
M  V30 519 C 48.7152 1.40671 -0.753917 0
M  V30 520 C 48.9152 1.9043 0.658686 0
M  V30 521 O 47.9712 2.08538 1.42366 0
M  V30 522 C 49.2842 2.41192 -1.79574 0
M  V30 523 C 50.8322 2.54928 -1.81606 0
M  V30 524 C 51.3072 3.58709 -2.84766 0
M  V30 525 N 52.7982 3.66212 -2.83625 0
M  V30 526 C 53.5332 4.46225 -3.60098 0
M  V30 527 N 53.0292 5.29888 -4.46308 0
M  V30 528 N 54.8222 4.40939 -3.4861 0
M  V30 529 H 46.9732 0.848221 -1.94728 0
M  V30 530 H 49.2362 0.435081 -0.842264 0
M  V30 531 H 48.9422 2.11669 -2.80872 0
M  V30 532 H 48.8162 3.40467 -1.62365 0
M  V30 533 H 51.2032 2.83771 -0.809817 0
M  V30 534 H 51.2842 1.55784 -2.02891 0
M  V30 535 H 50.9282 3.30607 -3.85566 0
M  V30 536 H 50.8582 4.57519 -2.60737 0
M  V30 537 H 53.3492 3.06466 -2.21105 0
M  V30 538 H 53.6622 5.88078 -5.01382 0
M  V30 539 H 52.0072 5.29326 -4.50377 0
M  V30 540 H 55.1982 3.74624 -2.80668 0
M  V30 541 H 55.3712 5.03056 -4.08459 0
M  V30 542 N 48.7773 0.814389 1.34928 0
M  V30 543 C 49.7403 0.235759 2.27984 0
M  V30 544 C 50.7403 -0.581412 1.49921 0
M  V30 545 O 51.9303 -0.398758 1.69575 0
M  V30 546 C 49.0623 -0.670433 3.34242 0
M  V30 547 H 50.2553 1.05659 2.80671 0
M  V30 548 H 47.8083 0.585614 1.44915 0
M  V30 549 H 48.5433 -1.51466 2.86755 0
M  V30 550 H 48.3283 -0.0860822 3.92005 0
M  V30 551 H 49.8183 -1.06935 4.03676 0
M  V30 552 N 50.2554 -1.46986 0.568584 0
M  V30 553 C 51.1854 -2.32946 -0.160753 0
M  V30 554 C 52.1664 -1.44487 -0.897631 0
M  V30 555 O 53.3514 -1.73327 -0.875867 0
M  V30 556 C 50.4814 -3.26494 -1.18403 0
M  V30 557 C 49.4354 -4.24282 -0.562895 0
M  V30 558 C 48.7614 -5.07236 -1.69163 0
M  V30 559 C 50.0614 -5.19989 0.490761 0
M  V30 560 H 51.7554 -2.94175 0.556916 0
M  V30 561 H 49.3014 -1.4146 0.26927 0
M  V30 562 H 51.2544 -3.85477 -1.70251 0
M  V30 563 H 49.9784 -2.63343 -1.93179 0
M  V30 564 H 48.6374 -3.66541 -0.0656164 0
M  V30 565 H 48.2854 -4.4048 -2.42871 0
M  V30 566 H 47.9854 -5.7345 -1.28174 0
M  V30 567 H 49.5094 -5.6908 -2.21314 0
M  V30 568 H 50.9234 -5.73271 0.0579047 0
M  V30 569 H 49.3204 -5.94469 0.820165 0
M  V30 570 H 50.3904 -4.64777 1.3824 0
M  V30 571 N 51.7335 -0.305618 -1.54608 0
M  V30 572 C 53.1495 0.0476228 -1.59529 0
M  V30 573 C 53.3495 1.52025 -1.32252 0
M  V30 574 O 52.4055 2.27368 -1.09818 0
M  V30 575 C 53.7185 -0.354471 -2.98603 0
M  V30 576 C 55.2665 -0.303622 -3.11524 0
M  V30 577 C 55.7415 -0.680608 -4.52915 0
M  V30 578 N 57.2325 -0.63332 -4.5885 0
M  V30 579 C 57.9675 -0.897432 -5.66334 0
M  V30 580 N 57.4635 -1.22775 -6.81834 0
M  V30 581 N 59.2565 -0.824186 -5.56025 0
M  V30 582 H 51.4075 -1.2653 -1.70599 0
M  V30 583 H 53.6705 -0.513291 -0.797017 0
M  V30 584 H 53.3765 -1.3798 -3.23503 0
M  V30 585 H 53.2505 0.289568 -3.76087 0
M  V30 586 H 55.6375 0.712472 -2.8637 0
M  V30 587 H 55.7185 -0.982348 -2.36185 0
M  V30 588 H 55.3625 -1.69453 -4.78799 0
M  V30 589 H 55.2925 0.0202385 -5.26596 0
M  V30 590 H 57.7835 -0.389138 -3.75891 0
M  V30 591 H 58.0965 -1.41513 -7.59733 0
M  V30 592 H 56.4415 -1.26583 -6.83375 0
M  V30 593 H 59.6325 -0.565748 -4.64669 0
M  V30 594 H 59.8055 -1.03338 -6.39707 0
M  V30 595 N 53.2116 1.57565 -0.0334293 0
M  V30 596 C 54.4396 1.9628 0.654347 0
M  V30 597 C 54.8546 0.910138 1.65414 0
M  V30 598 O 54.2116 -0.107595 1.82183 0
M  V30 599 C 54.2626 3.35067 1.35693 0
M  V30 600 O 53.9836 4.36296 0.397191 0
M  V30 601 C 55.4846 3.88439 2.13613 0
M  V30 602 H 52.7046 0.646369 0.180132 0
M  V30 603 H 55.2486 2.04282 -0.0944721 0
M  V30 604 H 53.4036 3.2827 2.05712 0
M  V30 605 H 53.8176 5.1678 0.896597 0
M  V30 606 H 55.2916 4.8788 2.58219 0
M  V30 607 H 55.7686 3.22914 2.97696 0
M  V30 608 H 56.3746 3.98516 1.48543 0
M  V30 609 N 54.6897 -0.239769 1.55765 0
M  V30 610 C 56.1057 -0.588624 1.48349 0
M  V30 611 C 56.3057 -1.88005 0.72502 0
M  V30 612 O 55.3617 -2.51186 0.257269 0
M  V30 613 C 56.6747 -0.68474 2.928 0
M  V30 614 C 58.2227 -0.77659 3.03213 0
M  V30 615 C 58.6977 -0.904207 4.48986 0
M  V30 616 N 60.1887 -0.968896 4.52953 0
M  V30 617 C 60.9237 -1.08703 5.63002 0
M  V30 618 N 60.4197 -1.17026 6.82845 0
M  V30 619 N 62.2127 -1.12074 5.50814 0
M  V30 620 H 54.3637 0.607911 2.03515 0
M  V30 621 H 56.6267 0.21083 0.924259 0
M  V30 622 H 56.3327 0.194284 3.51163 0
M  V30 623 H 56.2067 -1.55435 3.43686 0
M  V30 624 H 58.5937 -1.64606 2.44926 0
M  V30 625 H 58.6747 0.118315 2.55526 0
M  V30 626 H 58.3187 -0.0392633 5.07885 0
M  V30 627 H 58.2487 -1.81426 4.9436 0
M  V30 628 H 60.7397 -0.915633 3.6664 0
M  V30 629 H 61.0527 -1.25966 7.62465 0
M  V30 630 H 59.3977 -1.13971 6.85591 0
M  V30 631 H 62.5887 -1.05226 4.5612 0
M  V30 632 H 62.7617 -1.20936 6.36615 0
M  V30 633 N 56.1678 -1.49265 -0.50573 0
M  V30 634 C 57.0978 -1.68495 -1.61653 0
M  V30 635 C 58.0788 -0.53366 -1.61512 0
M  V30 636 O 59.2638 -0.76897 -1.78327 0
M  V30 637 C 56.3938 -1.74709 -3.00157 0
M  V30 638 C 55.3478 -2.89581 -3.15162 0
M  V30 639 C 54.6738 -2.80903 -4.5497 0
M  V30 640 C 55.9738 -4.30578 -2.95634 0
M  V30 641 H 57.6678 -2.61493 -1.45814 0
M  V30 642 H 55.2138 -1.25838 -0.70005 0
M  V30 643 H 57.1668 -1.86748 -3.77761 0
M  V30 644 H 55.8908 -0.783067 -3.17074 0
M  V30 645 H 54.5498 -2.77136 -2.39982 0
M  V30 646 H 54.1978 -1.82419 -4.68756 0
M  V30 647 H 53.8978 -3.57999 -4.65951 0
M  V30 648 H 55.4218 -2.94944 -5.34641 0
M  V30 649 H 56.8358 -4.4373 -3.63011 0
M  V30 650 H 55.2328 -5.0886 -3.18091 0
M  V30 651 H 56.3028 -4.45352 -1.91806 0
M  V30 652 N 57.6459 0.756429 -1.3826 0
M  V30 653 C 59.0619 1.0591 -1.19395 0
M  V30 654 C 59.2619 2.01459 -0.0406567 0
M  V30 655 O 58.3179 2.44909 0.614467 0
M  V30 656 C 59.6309 1.64191 -2.51916 0
M  V30 657 C 61.1789 1.76376 -2.58574 0
M  V30 658 C 61.6539 2.38069 -3.91264 0
M  V30 659 N 63.1449 2.45503 -3.92788 0
M  V30 660 C 63.8799 2.94126 -4.92217 0
M  V30 661 N 63.3759 3.42805 -6.02043 0
M  V30 662 N 65.1689 2.9314 -4.7961 0
M  V30 663 H 57.3199 0.122313 -2.12048 0
M  V30 664 H 59.5829 0.116892 -0.940766 0
M  V30 665 H 59.2889 1.01451 -3.3675 0
M  V30 666 H 59.1629 2.6329 -2.70108 0
M  V30 667 H 61.5499 2.38244 -1.74137 0
M  V30 668 H 61.6309 0.759894 -2.44252 0
M  V30 669 H 61.2749 1.76835 -4.76121 0
M  V30 670 H 61.2049 3.39091 -4.02895 0
M  V30 671 H 63.6959 2.1107 -3.13461 0
M  V30 672 H 64.0089 3.78354 -6.73846 0
M  V30 673 H 62.3539 3.4087 -6.05667 0
M  V30 674 H 65.5449 2.54419 -3.92923 0
M  V30 675 H 65.7179 3.30721 -5.5725 0
M  V30 676 N 59.124 1.23083 0.984299 0
M  V30 677 C 60.054 1.03292 2.09411 0
M  V30 678 C 61.035 -0.048923 1.7003 0
M  V30 679 O 62.22 0.114967 1.93859 0
M  V30 680 C 59.35 0.619155 3.41736 0
M  V30 681 C 58.304 1.64791 3.95004 0
M  V30 682 C 57.63 1.0897 5.23478 0
M  V30 683 C 58.93 3.03999 4.24714 0
M  V30 684 H 60.624 1.96119 2.26225 0
M  V30 685 H 58.17 0.944344 1.08711 0
M  V30 686 H 60.123 0.467777 4.18796 0
M  V30 687 H 58.847 -0.344786 3.24775 0
M  V30 688 H 57.506 1.78721 3.20085 0
M  V30 689 H 57.154 0.11686 5.02864 0
M  V30 690 H 56.854 1.77704 5.60085 0
M  V30 691 H 58.378 0.950093 6.03163 0
M  V30 692 H 59.792 2.93393 4.92538 0
M  V30 693 H 58.189 3.69936 4.72512 0
M  V30 694 H 59.259 3.53285 3.32142 0
M  V30 695 N 60.6021 -1.18246 1.0419 0
M  V30 696 C 61.5341 -2.2142 0.592088 0
M  V30 697 C 62.5471 -1.59233 -0.338909 0
M  V30 698 O 63.7361 -1.78002 -0.133231 0
M  V30 699 C 60.8361 -3.38546 -0.154854 0
M  V30 700 C 60.0091 -4.3031 0.784328 0
M  V30 701 C 59.0681 -5.26138 0.0804583 0
M  V30 702 O 58.0941 -5.64738 0.711292 0
M  V30 703 N 59.2961 -5.68261 -1.18574 0
M  V30 704 H 62.0611 -2.60636 1.47949 0
M  V30 705 H 59.6221 -1.33044 0.922544 0
M  V30 706 H 61.6141 -3.99678 -0.635606 0
M  V30 707 H 60.1841 -2.98012 -0.943811 0
M  V30 708 H 59.4041 -3.66764 1.44491 0
M  V30 709 H 60.6921 -4.8852 1.42218 0
M  V30 710 H 60.0901 -5.38957 -1.71876 0
M  V30 711 H 58.6471 -6.31584 -1.61074 0
M  V30 712 N 62.0802 -0.821533 -1.34494 0
M  V30 713 C 63.3082 -0.421884 -2.02553 0
M  V30 714 C 63.7232 0.971745 -1.61872 0
M  V30 715 O 63.0802 1.62864 -0.823496 0
M  V30 716 C 63.1312 -0.51285 -3.57844 0
M  V30 717 O 62.8522 -1.85155 -3.97051 0
M  V30 718 C 64.3532 -0.107921 -4.43169 0
M  V30 719 H 61.5732 -0.169482 -0.649243 0
M  V30 720 H 64.1172 -1.1093 -1.71798 0
M  V30 721 H 62.2722 0.126474 -3.87193 0
M  V30 722 H 62.6862 -1.82482 -4.91732 0
M  V30 723 H 64.1602 -0.222657 -5.51551 0
M  V30 724 H 64.6372 0.948401 -4.28838 0
M  V30 725 H 65.2432 -0.720989 -4.19144 0
M  V30 726 N 63.5583 1.46682 -0.576371 0
M  V30 727 C 64.4913 2.27243 0.208731 0
M  V30 728 C 65.4693 1.35238 0.902746 0
M  V30 729 O 66.6533 1.64641 0.917904 0
M  V30 730 C 63.7803 3.12802 1.29896 0
M  V30 731 C 62.8263 4.20524 0.711457 0
M  V30 732 S 63.6593 5.33548 -0.456781 0
M  V30 733 C 64.8153 6.22673 0.634798 0
M  V30 734 H 65.0483 2.93484 -0.474838 0
M  V30 735 H 62.5813 1.50069 -0.363118 0
M  V30 736 H 64.5393 3.62661 1.92321 0
M  V30 737 H 63.2003 2.45887 1.95444 0
M  V30 738 H 62.3933 4.80191 1.53076 0
M  V30 739 H 61.9953 3.73645 0.162999 0
M  V30 740 H 64.2873 6.60181 1.52209 0
M  V30 741 H 65.2303 7.0806 0.0750311 0
M  V30 742 H 65.6383 5.56684 0.936092 0
M  V30 743 N 65.0364 0.313813 1.54444 0
M  V30 744 C 66.2644 -0.293918 2.04802 0
M  V30 745 C 66.6794 -1.46537 1.19047 0
M  V30 746 O 66.0364 -1.81182 0.218939 0
M  V30 747 C 66.0874 -0.737806 3.53891 0
M  V30 748 O 65.8084 0.387038 4.36387 0
M  V30 749 C 67.3094 -1.40936 4.203 0
M  V30 750 H 64.5294 -0.0620057 0.668129 0
M  V30 751 H 67.0734 0.457169 1.99324 0
M  V30 752 H 65.2284 -1.43889 3.59687 0
M  V30 753 H 65.6424 0.0391274 5.24485 0
M  V30 754 H 67.1164 -1.67099 5.26101 0
M  V30 755 H 67.5934 -2.35355 3.70816 0
M  V30 756 H 68.1994 -0.751117 4.18615 0
M  V30 757 N 66.5145 -1.57545 0.0417849 0
M  V30 758 C 67.4445 -2.14009 -0.933929 0
M  V30 759 C 68.4255 -1.05938 -1.33083 0
M  V30 760 O 69.6105 -1.33833 -1.40721 0
M  V30 761 C 66.7405 -2.67747 -2.21199 0
M  V30 762 C 65.6945 -3.80718 -1.95544 0
M  V30 763 C 65.0205 -4.20935 -3.29724 0
M  V30 764 C 66.3205 -5.06258 -1.28452 0
M  V30 765 H 68.0145 -2.95788 -0.463645 0
M  V30 766 H 65.5605 -1.42285 -0.221573 0
M  V30 767 H 67.5135 -3.05886 -2.89848 0
M  V30 768 H 66.2375 -1.83147 -2.70416 0
M  V30 769 H 64.8965 -3.43037 -1.2931 0
M  V30 770 H 64.5445 -3.33298 -3.76724 0
M  V30 771 H 64.2445 -4.9707 -3.13361 0
M  V30 772 H 65.7685 -4.61666 -3.9962 0
M  V30 773 H 67.1825 -5.41903 -1.8712 0
M  V30 774 H 65.5795 -5.87475 -1.22445 0
M  V30 775 H 66.6495 -4.84207 -0.259219 0
M  V30 776 N 67.9926 0.231505 -1.5589 0
M  V30 777 C 68.9026 1.308 -1.94752 0
M  V30 778 C 69.9186 1.51826 -0.849989 0
M  V30 779 O 71.0946 1.6515 -1.15271 0
M  V30 780 C 68.1596 2.63968 -2.24771 0
M  V30 781 C 67.2206 2.51331 -3.48039 0
M  V30 782 C 66.4536 3.78148 -3.76616 0
M  V30 783 O 66.6766 4.80722 -3.07022 0
M  V30 784 O 65.6106 3.75857 -4.70123 0
M  V30 785 H 69.4366 1.0083 -2.86474 0
M  V30 786 H 67.0216 0.433547 -1.42971 0
M  V30 787 H 68.9036 3.42633 -2.45318 0
M  V30 788 H 67.5786 2.9364 -1.36225 0
M  V30 789 H 66.4856 1.709 -3.32782 0
M  V30 790 H 67.8186 2.26601 -4.36936 0
M  V30 791 N 69.4707 1.49531 0.497807 0
M  V30 792 C 70.4207 1.62829 1.59596 0
M  V30 793 C 71.4047 0.483824 1.53453 0
M  V30 794 O 72.5967 0.736937 1.60929 0
M  V30 795 C 69.7257 1.7011 2.98191 0
M  V30 796 C 68.8117 2.90144 3.09317 0
M  V30 797 N 69.2027 4.1418 2.90324 0
M  V30 798 C 67.5007 2.88148 3.40422 0
M  V30 799 C 68.2017 4.94886 3.05717 0
M  V30 800 N 67.1777 4.28314 3.34736 0
M  V30 801 H 70.9797 2.56446 1.4357 0
M  V30 802 H 68.4937 1.46347 0.704001 0
M  V30 803 H 70.4907 1.77735 3.77115 0
M  V30 804 H 69.1507 0.776315 3.15283 0
M  V30 805 H 70.1617 4.44109 2.66436 0
M  V30 806 H 66.8387 2.05061 3.63671 0
M  V30 807 H 68.2287 6.03432 2.95499 0
M  V30 808 N 70.9488 -0.749086 1.3866 0
M  V30 809 C 72.1948 -1.51056 1.35314 0
M  V30 810 C 72.5278 -1.94121 -0.0553751 0
M  V30 811 O 71.8028 -1.65763 -1.01749 0
M  V30 812 C 72.0858 -2.76003 2.31288 0
M  V30 813 C 71.9388 -2.39047 3.8102 0
M  V30 814 C 73.2578 -3.78046 2.2532 0
M  V30 815 H 70.3768 -0.547972 0.492844 0
M  V30 816 H 73.0188 -0.857628 1.69543 0
M  V30 817 H 71.1688 -3.31716 2.02229 0
M  V30 818 H 72.8408 -1.89074 4.20771 0
M  V30 819 H 71.0838 -1.71449 3.98482 0
M  V30 820 H 71.7548 -3.28462 4.4364 0
M  V30 821 H 74.2308 -3.31884 2.50983 0
M  V30 822 H 73.1068 -4.63159 2.94576 0
M  V30 823 H 73.3678 -4.23957 1.25352 0
M  V30 824 N 72.4269 -1.23603 -0.977757 0
M  V30 825 C 73.3569 -1.04401 -2.0886 0
M  V30 826 C 74.3379 0.0399052 -1.70053 0
M  V30 827 O 75.5229 -0.125246 -1.93796 0
M  V30 828 C 72.6529 -0.637269 -3.41403 0
M  V30 829 C 71.6069 -1.66883 -3.94124 0
M  V30 830 C 70.9329 -1.11745 -5.22893 0
M  V30 831 C 72.2329 -3.06247 -4.23096 0
M  V30 832 H 73.9269 -1.97316 -2.25182 0
M  V30 833 H 71.4729 -0.950096 -1.08209 0
M  V30 834 H 73.4259 -0.48998 -4.18542 0
M  V30 835 H 72.1499 0.327557 -3.24953 0
M  V30 836 H 70.8089 -1.80416 -3.19133 0
M  V30 837 H 70.4569 -0.143527 -5.02795 0
M  V30 838 H 70.1569 -1.80672 -5.59134 0
M  V30 839 H 71.6809 -0.982067 -6.02651 0
M  V30 840 H 73.0949 -2.96001 -4.90975 0
M  V30 841 H 71.4919 -3.72436 -4.70544 0
M  V30 842 H 72.5619 -3.55041 -3.30263 0
M  V30 843 N 73.905 1.17692 -1.04816 0
M  V30 844 C 75.321 1.39863 -0.768794 0
M  V30 845 C 75.521 1.91118 0.638451 0
M  V30 846 O 74.577 2.10036 1.40146 0
M  V30 847 C 75.89 2.39274 -1.82122 0
M  V30 848 C 77.438 2.52987 -1.843 0
M  V30 849 C 77.913 3.55669 -2.88555 0
M  V30 850 N 79.404 3.63183 -2.87493 0
M  V30 851 C 80.139 4.42381 -3.64811 0
M  V30 852 N 79.635 5.25125 -4.51903 0
M  V30 853 N 81.428 4.37217 -3.53267 0
M  V30 854 H 73.579 0.82752 -1.95617 0
M  V30 855 H 75.842 0.426123 -0.846831 0
M  V30 856 H 75.548 2.08678 -2.83102 0
M  V30 857 H 75.422 3.38725 -1.65967 0
M  V30 858 H 77.809 2.82896 -0.839869 0
M  V30 859 H 77.89 1.53623 -2.04532 0
M  V30 860 H 77.534 3.26499 -3.89051 0
M  V30 861 H 77.464 4.54728 -2.65575 0
M  V30 862 H 79.955 3.04103 -2.24343 0
M  V30 863 H 80.268 5.82728 -5.07591 0
M  V30 864 H 78.613 5.24519 -4.55966 0
M  V30 865 H 81.804 3.71626 -2.84625 0
M  V30 866 H 81.977 4.98696 -4.13771 0
M  V30 867 N 75.3831 0.828654 1.34056 0
M  V30 868 C 76.6301 0.419458 1.98108 0
M  V30 869 C 76.9581 -1.01886 1.65679 0
M  V30 870 O 76.2131 -1.72539 0.923512 0
M  V30 871 C 76.5121 0.575226 3.52741 0
M  V30 872 C 76.1781 1.98012 4.05095 0
M  V30 873 C 74.8401 2.36442 4.19104 0
M  V30 874 C 77.1921 2.89824 4.33188 0
M  V30 875 C 74.5201 3.66009 4.58535 0
M  V30 876 C 76.8721 4.1886 4.74066 0
M  V30 877 C 75.5361 4.5726 4.86281 0
M  V30 878 H 74.8061 0.153491 0.724929 0
M  V30 879 H 77.4531 1.05371 1.59904 0
M  V30 880 H 75.7581 -0.142385 3.91541 0
M  V30 881 H 77.4551 0.239057 4.00287 0
M  V30 882 H 74.0451 1.67162 3.94658 0
M  V30 883 H 78.2291 2.61375 4.21897 0
M  V30 884 H 73.4851 3.95579 4.66184 0
M  V30 885 H 77.6591 4.90086 4.94761 0
M  V30 886 H 75.2861 5.57707 5.16592 0
M  V30 887 N 76.8612 -1.46375 0.584142 0
M  V30 888 C 77.7912 -2.33103 -0.136037 0
M  V30 889 C 78.7722 -1.45431 -0.882255 0
M  V30 890 O 79.9572 -1.74246 -0.857434 0
M  V30 891 C 77.0872 -3.27731 -1.14933 0
M  V30 892 C 76.0412 -4.24855 -0.517862 0
M  V30 893 C 75.3672 -5.09001 -1.63773 0
M  V30 894 C 76.6672 -5.19439 0.545886 0
M  V30 895 H 78.3612 -2.93568 0.588086 0
M  V30 896 H 75.9072 -1.41166 0.284259 0
M  V30 897 H 77.8602 -3.87261 -1.66153 0
M  V30 898 H 76.5842 -2.65377 -1.90375 0
M  V30 899 H 75.2432 -3.6659 -0.0267361 0
M  V30 900 H 74.8912 -4.43031 -2.38185 0
M  V30 901 H 74.5912 -5.74777 -1.22085 0
M  V30 902 H 76.1152 -5.71396 -2.15266 0
M  V30 903 H 77.5292 -5.73177 0.118704 0
M  V30 904 H 75.9262 -5.93566 0.88317 0
M  V30 905 H 76.9962 -4.63285 1.43162 0
M  V30 906 N 78.3393 -0.321999 -1.54275 0
M  V30 907 C 79.7553 0.0306999 -1.5957 0
M  V30 908 C 79.9553 1.50614 -1.33857 0
M  V30 909 O 79.0113 2.2619 -1.12223 0
M  V30 910 C 80.3243 -0.386122 -2.98211 0
M  V30 911 C 81.8723 -0.336647 -3.11184 0
M  V30 912 C 82.3473 -0.728607 -4.52167 0
M  V30 913 N 83.8383 -0.681952 -4.58152 0
M  V30 914 C 84.5733 -0.957449 -5.6535 0
M  V30 915 N 84.0693 -1.3 -6.80494 0
M  V30 916 N 85.8623 -0.883113 -5.55119 0
M  V30 917 H 78.0133 -1.28332 -1.69247 0
M  V30 918 H 80.2763 -0.521716 -0.791528 0
M  V30 919 H 79.9823 -1.41404 -3.22022 0
M  V30 920 H 79.8563 0.249662 -3.76373 0
M  V30 921 H 82.2433 0.682058 -2.8711 0
M  V30 922 H 82.3243 -1.00734 -2.3513 0
M  V30 923 H 81.9683 -1.74522 -4.76974 0
M  V30 924 H 81.8983 -0.0356152 -5.26588 0
M  V30 925 H 84.3893 -0.428985 -3.75457 0
M  V30 926 H 84.7023 -1.49563 -7.58189 0
M  V30 927 H 83.0473 -1.33824 -6.81994 0
M  V30 928 H 86.2383 -0.615001 -4.64042 0
M  V30 929 H 86.4113 -1.10118 -6.38575 0
M  V30 930 N 79.8174 1.5752 -0.0501392 0
M  V30 931 C 81.2334 1.56631 0.306402 0
M  V30 932 C 81.4334 1.0577 1.71508 0
M  V30 933 O 80.4894 0.713837 2.422 0
M  V30 934 C 81.8024 3.00393 0.135811 0
M  V30 935 C 83.3504 3.12315 0.206993 0
M  V30 936 C 83.8254 4.57954 0.064944 0
M  V30 937 N 85.3164 4.63041 0.121254 0
M  V30 938 C 86.0514 5.73389 0.0354381 0
M  V30 939 N 85.5474 6.92724 -0.102666 0
M  V30 940 N 87.3404 5.62026 0.090946 0
M  V30 941 H 79.4914 1.88903 -0.971046 0
M  V30 942 H 81.7544 0.869876 -0.376855 0
M  V30 943 H 81.4604 3.41635 -0.835384 0
M  V30 944 H 81.3344 3.66373 0.897275 0
M  V30 945 H 83.7214 2.70973 1.16866 0
M  V30 946 H 83.8024 2.49016 -0.585208 0
M  V30 947 H 83.4464 4.99981 -0.893394 0
M  V30 948 H 83.3764 5.19258 0.876277 0
M  V30 949 H 85.8674 3.77216 0.227284 0
M  V30 950 H 86.1804 7.72633 -0.160882 0
M  V30 951 H 84.5254 6.94864 -0.137737 0
M  V30 952 H 87.7164 4.67684 0.197388 0
M  V30 953 H 87.8894 6.47997 0.0206089 0
M  V30 954 N 81.2955 -0.223234 1.56011 0
M  V30 955 C 82.2435 -1.29627 1.93131 0
M  V30 956 C 83.2375 -1.48608 0.813146 0
M  V30 957 O 84.4435 -1.49802 0.997966 0
M  V30 958 H 80.8185 -0.434563 0.613726 0
M  V30 959 H 82.7895 -0.955995 2.82672 0
M  V30 960 C 81.5385 -2.63983 2.26292 0
M  V30 961 H 80.8615 -2.50185 3.11846 0
M  V30 962 H 82.3015 -3.3788 2.56151 0
M  V30 963 C 80.7605 -3.18866 1.08747 0
M  V30 964 O 81.2905 -4.00192 0.347727 0
M  V30 965 N 79.4965 -2.77217 0.871743 0
M  V30 966 H 79.0435 -2.1119 1.47501 0
M  V30 967 H 79.0015 -3.1428 0.0869905 0
M  V30 968 N 82.7736 -1.49793 -0.48987 0
M  V30 969 C 83.7366 -1.66752 -1.57246 0
M  V30 970 C 84.7366 -0.538867 -1.51502 0
M  V30 971 O 85.9266 -0.805545 -1.54456 0
M  V30 972 C 83.0586 -1.67528 -2.96896 0
M  V30 973 H 84.2516 -2.63321 -1.43534 0
M  V30 974 H 81.8046 -1.38992 -0.714914 0
M  V30 975 H 82.5396 -0.725837 -3.16073 0
M  V30 976 H 82.3246 -2.49504 -3.02473 0
M  V30 977 H 83.8146 -1.82667 -3.7553 0
M  V30 978 N 84.2517 0.741722 -1.39055 0
M  V30 979 C 85.4987 1.50114 -1.35912 0
M  V30 980 C 85.8267 1.94443 0.0470937 0
M  V30 981 O 85.0817 1.66612 1.02659 0
M  V30 982 C 85.3807 2.7592 -2.27163 0
M  V30 983 C 85.0467 2.50493 -3.74919 0
M  V30 984 C 83.7087 2.43267 -4.1518 0
M  V30 985 C 86.0607 2.28585 -4.684 0
M  V30 986 C 83.3887 2.12166 -5.46994 0
M  V30 987 C 85.7407 1.99002 -6.00484 0
M  V30 988 C 84.4047 1.90241 -6.39816 0
M  V30 989 H 83.6747 0.549306 -0.497336 0
M  V30 990 H 86.3217 0.851896 -1.71508 0
M  V30 991 H 84.6267 3.45553 -1.84663 0
M  V30 992 H 86.3237 3.33923 -2.22028 0
M  V30 993 H 82.9137 2.56992 -3.43006 0
M  V30 994 H 87.0977 2.33139 -4.38132 0
M  V30 995 H 82.3537 2.03901 -5.76398 0
M  V30 996 H 86.5277 1.81057 -6.72452 0
M  V30 997 H 84.1547 1.65907 -7.41875 0
M  V30 998 N 85.7298 1.2412 0.971189 0
M  V30 999 C 86.9788 1.07284 1.70801 0
M  V30 1000 C 87.2918 -0.388902 1.91695 0
M  V30 1001 O 88.4978 -0.677379 2.62914 0
M  V30 1002 C 86.9538 1.87145 3.07416 0
M  V30 1003 C 86.5618 3.37707 2.94377 0
M  V30 1004 C 88.3058 1.78828 3.84995 0
M  V30 1005 C 86.2128 4.09925 4.26281 0
M  V30 1006 H 85.1428 0.397854 0.64049 0
M  V30 1007 H 87.7938 1.4817 1.0825 0
M  V30 1008 H 86.1758 1.39071 3.70777 0
M  V30 1009 H 87.3498 3.93335 2.4005 0
M  V30 1010 H 85.6648 3.46938 2.30267 0
M  V30 1011 H 88.2618 2.30089 4.82662 0
M  V30 1012 H 88.6048 0.75284 4.09436 0
M  V30 1013 H 89.1378 2.24563 3.28354 0
M  V30 1014 H 85.8768 5.13813 4.07033 0
M  V30 1015 H 85.3968 3.59083 4.80437 0
M  V30 1016 H 87.0758 4.1673 4.94919 0
M  V30 1017 N 87.2079 -1.17134 1.05439 0
M  V30 1018 C 88.1379 -2.2342 0.678649 0
M  V30 1019 C 89.1189 -1.66971 -0.32476 0
M  V30 1020 O 90.3039 -1.93149 -0.201802 0
M  V30 1021 C 87.4339 -3.47256 0.0552099 0
M  V30 1022 C 86.3879 -4.16543 0.98365 0
M  V30 1023 C 85.7139 -5.34231 0.223961 0
M  V30 1024 C 87.0139 -4.68495 2.3089 0
M  V30 1025 H 88.7079 -2.55105 1.56722 0
M  V30 1026 H 86.2539 -1.2262 0.754998 0
M  V30 1027 H 88.2069 -4.20828 -0.21946 0
M  V30 1028 H 86.9309 -3.14846 -0.868319 0
M  V30 1029 H 85.5899 -3.44887 1.24293 0
M  V30 1030 H 85.2379 -4.98071 -0.702412 0
M  V30 1031 H 84.9379 -5.81527 0.842627 0
M  V30 1032 H 86.4619 -6.10585 -0.0433671 0
M  V30 1033 H 87.8759 -5.33691 2.09396 0
M  V30 1034 H 86.2729 -5.26379 2.88176 0
M  V30 1035 H 87.3429 -3.85169 2.94572 0
M  V30 1036 N 88.686 -0.835752 -1.33615 0
M  V30 1037 C 89.616 -0.281739 -2.31794 0
M  V30 1038 C 90.597 0.608833 -1.58831 0
M  V30 1039 O 91.782 0.533035 -1.86741 0
M  V30 1040 C 88.912 0.546612 -3.42971 0
M  V30 1041 C 87.866 -0.247904 -4.27281 0
M  V30 1042 C 87.192 0.704001 -5.30045 0
M  V30 1043 C 88.492 -1.46324 -5.01385 0
M  V30 1044 H 90.186 -1.10206 -2.78379 0
M  V30 1045 H 87.732 -0.531388 -1.33837 0
M  V30 1046 H 89.685 0.944467 -4.1068 0
M  V30 1047 H 88.409 1.40011 -2.95067 0
M  V30 1048 H 87.068 -0.627281 -3.61194 0
M  V30 1049 H 86.716 1.55381 -4.78399 0
M  V30 1050 H 86.416 0.176524 -5.87335 0
M  V30 1051 H 87.94 1.09944 -6.0062 0
M  V30 1052 H 89.354 -1.13871 -5.61877 0
M  V30 1053 H 87.751 -1.92728 -5.6831 0
M  V30 1054 H 88.821 -2.23467 -4.30338 0
M  V30 1055 N 90.1641 1.46063 -0.591896 0
M  V30 1056 C 91.3921 2.06717 -0.0868936 0
M  V30 1057 C 91.8071 1.43916 1.22203 0
M  V30 1058 O 91.1641 0.547698 1.74088 0
M  V30 1059 C 91.2151 3.6142 0.0758725 0
M  V30 1060 O 90.9361 4.21874 -1.18126 0
M  V30 1061 C 92.4371 4.39025 0.61416 0
M  V30 1062 H 89.6571 0.668162 -0.0616518 0
M  V30 1063 H 92.2011 1.8755 -0.815175 0
M  V30 1064 H 90.3561 3.79983 0.754413 0
M  V30 1065 H 90.7701 5.14861 -1.00092 0
M  V30 1066 H 92.2441 5.4783 0.677193 0
M  V30 1067 H 92.7211 4.07708 1.63312 0
M  V30 1068 H 93.3271 4.2529 -0.0298142 0
M  V30 1069 N 91.6422 0.330177 1.54103 0
M  V30 1070 C 92.8882 -0.270806 2.00984 0
M  V30 1071 C 93.2212 -1.51265 1.21789 0
M  V30 1072 O 92.4962 -1.92142 0.301927 0
M  V30 1073 C 92.7792 -0.598339 3.55094 0
M  V30 1074 C 92.6322 0.654674 4.4501 0
M  V30 1075 C 93.9512 -1.41334 4.16789 0
M  V30 1076 H 91.0702 -0.0969531 0.730595 0
M  V30 1077 H 93.7122 0.448066 1.84641 0
M  V30 1078 H 91.8622 -1.21078 3.69151 0
M  V30 1079 H 93.5342 1.29285 4.42813 0
M  V30 1080 H 91.7772 1.28224 4.14416 0
M  V30 1081 H 92.4482 0.380944 5.50684 0
M  V30 1082 H 94.9242 -0.895597 4.06347 0
M  V30 1083 H 93.8002 -1.61127 5.24718 0
M  V30 1084 H 94.0612 -2.41146 3.70541 0
M  V30 1085 N 93.1203 -1.57491 0.0584922 0
M  V30 1086 C 94.3453 -1.97711 -0.62652 0
M  V30 1087 C 94.7703 -0.936132 -1.63151 0
M  V30 1088 O 94.1283 0.099811 -1.81025 0
M  V30 1089 C 94.1763 -3.36989 -1.28338 0
M  V30 1090 O 93.2803 -3.35433 -2.39913 0
M  V30 1091 H 92.6213 -0.643868 -0.162266 0
M  V30 1092 H 95.1513 -2.04193 0.129064 0
M  V30 1093 H 95.1613 -3.73879 -1.63335 0
M  V30 1094 H 93.8363 -4.12289 -0.546889 0
M  V30 1095 H 92.4133 -3.10298 -2.06809 0
M  V30 1096 N 94.5984 0.214957 -1.56127 0
M  V30 1097 C 95.5614 1.24997 -1.92116 0
M  V30 1098 C 96.5614 1.39467 -0.800344 0
M  V30 1099 O 97.7514 1.37619 -1.06802 0
M  V30 1100 C 94.8834 2.62271 -2.17777 0
M  V30 1101 H 96.0764 0.942875 -2.84693 0
M  V30 1102 H 93.6294 0.455654 -1.49511 0
M  V30 1103 H 94.3644 2.98068 -1.27773 0
M  V30 1104 H 94.1494 2.53143 -2.99434 0
M  V30 1105 H 95.6394 3.36946 -2.46693 0
M  V30 1106 N 96.0765 1.50051 0.48192 0
M  V30 1107 C 97.3225 1.60736 1.2366 0
M  V30 1108 C 97.6555 0.301786 1.91841 0
M  V30 1109 O 96.9305 -0.696025 1.8162 0
M  V30 1110 C 97.2135 2.78009 2.28874 0
M  V30 1111 C 97.0665 4.18416 1.65069 0
M  V30 1112 C 98.3855 2.90867 3.30279 0
M  V30 1113 H 95.5045 0.585031 0.448228 0
M  V30 1114 H 98.1465 1.82402 0.531946 0
M  V30 1115 H 96.2965 2.59667 2.88973 0
M  V30 1116 H 97.9685 4.48322 1.0865 0
M  V30 1117 H 96.2115 4.23177 0.954148 0
M  V30 1118 H 96.8825 4.96381 2.41474 0
M  V30 1119 H 99.3585 3.07623 2.80191 0
M  V30 1120 H 98.2345 3.74566 4.01238 0
M  V30 1121 H 98.4955 2.01021 3.93755 0
M  V30 1122 N 97.5546 -0.734337 1.39446 0
M  V30 1123 C 98.8006 -1.49613 1.36908 0
M  V30 1124 C 99.1336 -1.94169 -0.0347829 0
M  V30 1125 O 98.4086 -1.66833 -0.999847 0
M  V30 1126 C 98.6916 -2.73534 2.34203 0
M  V30 1127 C 98.5446 -2.34993 3.83534 0
M  V30 1128 C 99.8636 -3.75635 2.29317 0
M  V30 1129 H 96.9826 -0.542714 0.498629 0
M  V30 1130 H 99.6246 -0.839597 1.70443 0
M  V30 1131 H 97.7746 -3.29553 2.05736 0
M  V30 1132 H 99.4466 -1.84601 4.22753 0
M  V30 1133 H 97.6896 -1.67213 4.00278 0
M  V30 1134 H 98.3606 -3.23738 4.47099 0
M  V30 1135 H 100.837 -3.29203 2.54489 0
M  V30 1136 H 99.7126 -4.60008 2.99472 0
M  V30 1137 H 99.9736 -4.22603 1.29842 0
M  V30 1138 N 99.0327 -1.24633 -0.964593 0
M  V30 1139 C 100.282 -1.08188 -1.7023 0
M  V30 1140 C 100.595 0.37873 -1.91898 0
M  V30 1141 O 101.801 0.663427 -2.6327 0
M  V30 1142 C 100.257 -1.88773 -3.06419 0
M  V30 1143 C 99.8647 -3.39263 -2.92582 0
M  V30 1144 C 101.609 -1.80867 -3.84041 0
M  V30 1145 C 99.5157 -4.1218 -4.24101 0
M  V30 1146 H 98.4457 -0.401245 -0.638372 0
M  V30 1147 H 101.097 -1.48742 -1.07462 0
M  V30 1148 H 99.4787 -1.41035 -3.70034 0
M  V30 1149 H 100.653 -3.94603 -2.37961 0
M  V30 1150 H 98.9677 -3.48154 -2.28424 0
M  V30 1151 H 101.565 -2.32646 -4.81435 0
M  V30 1152 H 101.908 -0.774543 -4.09031 0
M  V30 1153 H 102.441 -2.26301 -3.27159 0
M  V30 1154 H 99.1797 -5.15965 -4.04303 0
M  V30 1155 H 98.6997 -3.61626 -4.78526 0
M  V30 1156 H 100.379 -4.19349 -4.92702 0
M  V30 1157 N 100.511 1.16574 -1.06058 0
M  V30 1158 C 101.759 1.86677 -0.77434 0
M  V30 1159 C 102.08 1.81959 0.701147 0
M  V30 1160 O 101.35 1.2515 1.50713 0
M  V30 1161 H 99.9298 0.691134 -0.283449 0
M  V30 1162 H 102.592 1.41378 -1.34158 0
M  V30 1163 H 101.688 2.92181 -1.09711 0
M  V30 1164 N 101.989 0.842826 1.3317 0
M  V30 1165 C 103.235 0.441099 1.97945 0
M  V30 1166 C 103.568 -0.998024 1.66593 0
M  V30 1167 O 102.843 -1.69839 0.947898 0
M  V30 1168 C 103.126 0.666841 3.53872 0
M  V30 1169 C 102.979 2.15352 3.94897 0
M  V30 1170 C 104.298 0.115544 4.39948 0
M  V30 1171 H 101.417 0.161739 0.719034 0
M  V30 1172 H 104.059 1.05907 1.57746 0
M  V30 1173 H 102.209 0.140828 3.88245 0
M  V30 1174 H 103.881 2.7447 3.70761 0
M  V30 1175 H 102.124 2.63653 3.44484 0
M  V30 1176 H 102.795 2.26221 5.03516 0
M  V30 1177 H 105.271 0.565213 4.12243 0
M  V30 1178 H 104.147 0.303152 5.48062 0
M  V30 1179 H 104.408 -0.980935 4.3108 0
M  V30 1180 N 103.467 -1.45747 0.599634 0
M  V30 1181 C 104.692 -2.07178 0.0960198 0
M  V30 1182 C 105.117 -1.44268 -1.207 0
M  V30 1183 O 104.475 -0.532503 -1.73303 0
M  V30 1184 C 104.523 -3.60579 -0.0385348 0
M  V30 1185 O 103.627 -3.97713 -1.0908 0
M  V30 1186 H 102.968 -0.660251 0.0704593 0
M  V30 1187 H 105.498 -1.87124 0.827385 0
M  V30 1188 H 105.508 -4.07298 -0.239304 0
M  V30 1189 H 104.183 -4.05756 0.912947 0
M  V30 1190 H 102.76 -3.62678 -0.867135 0
M  V30 1191 N 104.945 -0.338344 -1.53925 0
M  V30 1192 C 105.875 0.51328 -2.27789 0
M  V30 1193 C 106.856 1.107 -1.29149 0
M  V30 1194 O 108.041 1.12937 -1.57984 0
M  V30 1195 C 105.171 1.66697 -3.04679 0
M  V30 1196 C 104.125 1.20183 -4.1078 0
M  V30 1197 C 103.451 2.44363 -4.75595 0
M  V30 1198 C 104.751 0.30605 -5.21403 0
M  V30 1199 H 106.445 -0.102883 -2.99223 0
M  V30 1200 H 103.991 -0.0509219 -1.4391 0
M  V30 1201 H 105.944 2.26915 -3.55088 0
M  V30 1202 H 104.668 2.30995 -2.30887 0
M  V30 1203 H 103.327 0.622499 -3.61276 0
M  V30 1204 H 102.975 3.07057 -3.98403 0
M  V30 1205 H 102.675 2.13925 -5.47275 0
M  V30 1206 H 104.199 3.05317 -5.28786 0
M  V30 1207 H 105.613 0.814929 -5.67478 0
M  V30 1208 H 104.01 0.0937929 -6.00027 0
M  V30 1209 H 105.08 -0.65921 -4.80398 0
M  V30 1210 N 106.423 1.57458 -0.0668435 0
M  V30 1211 C 107.386 2.11323 0.887422 0
M  V30 1212 C 108.386 1.03618 1.22964 0
M  V30 1213 O 109.576 1.29626 1.16373 0
M  V30 1214 C 106.708 2.61048 2.19242 0
M  V30 1215 H 107.901 2.96942 0.420194 0
M  V30 1216 H 105.454 1.55239 0.181793 0
M  V30 1217 H 106.189 1.78868 2.70512 0
M  V30 1218 H 105.974 3.39769 1.95702 0
M  V30 1219 H 107.464 3.02814 2.87565 0
M  V30 1220 N 107.901 -0.206675 1.56239 0
M  V30 1221 C 109.148 -0.928842 1.79941 0
M  V30 1222 C 109.476 -1.83734 0.638131 0
M  V30 1223 O 108.731 -1.92039 -0.376746 0
M  V30 1224 C 109.03 -1.78675 3.09532 0
M  V30 1225 C 108.696 -1.03022 4.38973 0
M  V30 1226 C 107.358 -0.821302 4.74139 0
M  V30 1227 C 109.71 -0.497081 5.18824 0
M  V30 1228 C 107.038 -0.0675719 5.86661 0
M  V30 1229 C 109.39 0.24338 6.32132 0
M  V30 1230 C 108.054 0.463422 6.65889 0
M  V30 1231 H 107.324 -0.339887 0.658451 0
M  V30 1232 H 109.971 -0.195977 1.90495 0
M  V30 1233 H 108.276 -2.58794 2.94165 0
M  V30 1234 H 109.973 -2.34792 3.25075 0
M  V30 1235 H 106.563 -1.20306 4.11369 0
M  V30 1236 H 110.747 -0.645921 4.92079 0
M  V30 1237 H 106.003 0.112995 6.11296 0
M  V30 1238 H 110.177 0.66393 6.93228 0
M  V30 1239 H 107.804 1.04938 7.52922 0
M  V30 1240 N 109.379 -1.50304 -0.473955 0
M  V30 1241 C 110.342 -1.6841 -1.55469 0
M  V30 1242 C 111.342 -0.554905 -1.50922 0
M  V30 1243 O 112.532 -0.821882 -1.53593 0
M  V30 1244 C 109.664 -1.70667 -2.95102 0
M  V30 1245 H 110.857 -2.64828 -1.40733 0
M  V30 1246 H 108.41 -1.39742 -0.700132 0
M  V30 1247 H 109.145 -0.75932 -3.15285 0
M  V30 1248 H 108.93 -2.52698 -2.9981 0
M  V30 1249 H 110.42 -1.8664 -3.73571 0
M  V30 1250 N 110.857 0.726932 -1.39834 0
M  V30 1251 C 111.787 1.85405 -1.41941 0
M  V30 1252 C 112.768 1.67751 -0.281728 0
M  V30 1253 O 113.953 1.8795 -0.488717 0
M  V30 1254 C 111.083 3.23243 -1.2701 0
M  V30 1255 C 110.037 3.55549 -2.38262 0
M  V30 1256 C 109.363 4.9241 -2.08415 0
M  V30 1257 C 110.663 3.577 -3.80589 0
M  V30 1258 H 112.357 1.83899 -2.36266 0
M  V30 1259 H 109.903 0.883349 -1.13723 0
M  V30 1260 H 111.856 4.01775 -1.27103 0
M  V30 1261 H 110.58 3.25296 -0.291564 0
M  V30 1262 H 109.239 2.79351 -2.37399 0
M  V30 1263 H 108.887 4.91052 -1.0898 0
M  V30 1264 H 108.587 5.14992 -2.82943 0
M  V30 1265 H 110.111 5.73289 -2.10171 0
M  V30 1266 H 111.525 4.26293 -3.83337 0
M  V30 1267 H 109.922 3.91804 -4.54543 0
M  V30 1268 H 110.992 2.57328 -4.10987 0
M  V30 1269 N 112.336 1.25143 0.95797 0
M  V30 1270 C 113.752 1.01892 1.22842 0
M  V30 1271 C 113.952 -0.266311 1.99732 0
M  V30 1272 O 113.008 -0.979913 2.3271 0
M  V30 1273 C 114.321 2.24004 2.00606 0
M  V30 1274 C 115.869 2.28731 2.13662 0
M  V30 1275 C 116.344 3.5049 2.94823 0
M  V30 1276 N 117.835 3.50866 3.02403 0
M  V30 1277 C 118.57 4.4174 3.65586 0
M  V30 1278 N 118.066 5.42882 4.30408 0
M  V30 1279 N 119.859 4.29429 3.62694 0
M  V30 1280 H 112.01 2.07718 0.443493 0
M  V30 1281 H 114.273 0.912031 0.258657 0
M  V30 1282 H 113.979 3.17395 1.51503 0
M  V30 1283 H 113.853 2.26907 3.01319 0
M  V30 1284 H 116.24 1.35865 2.61963 0
M  V30 1285 H 116.321 2.29848 1.12265 0
M  V30 1286 H 115.965 4.43676 2.47213 0
M  V30 1287 H 115.895 3.46617 3.96439 0
M  V30 1288 H 118.386 2.777 2.56302 0
M  V30 1289 H 118.699 6.0844 4.76467 0
M  V30 1290 H 117.044 5.46758 4.29047 0
M  V30 1291 H 120.235 3.49643 3.11236 0
M  V30 1292 H 120.408 5.00448 4.1165 0
M  V30 1293 N 113.814 -1.1601 1.06675 0
M  V30 1294 C 115.225 -1.68235 0.809565 0
M  V30 1295 C 115.576 -1.8454 -0.666303 0
M  V30 1296 O 114.701 -1.54374 -1.5165 0
M  V30 1297 C 115.296 -3.05585 1.46299 0
M  V30 1298 C 113.855 -3.54915 1.25349 0
M  V30 1299 C 113.002 -2.30804 1.53703 0
M  V30 1300 H 115.953 -1.00318 1.22971 0
M  V30 1301 H 115.974 -3.70174 0.880431 0
M  V30 1302 H 115.486 -2.93686 2.53713 0
M  V30 1303 H 113.587 -3.72067 0.199261 0
M  V30 1304 H 113.7 -4.36774 1.9689 0
M  V30 1305 H 112.064 -2.36007 0.957739 0
M  V30 1306 H 112.847 -2.21499 2.62284 0
M  V30 1307 N 115.292 -0.849877 -1.32721 0
M  V30 1308 C 116.522 -0.46408 -2.0132 0
M  V30 1309 C 116.93 0.94246 -1.64056 0
M  V30 1310 O 116.273 1.6257 -0.855379 0
M  V30 1311 C 116.335 -0.517887 -3.5575 0
M  V30 1312 C 115.999 -1.88248 -4.16427 0
M  V30 1313 C 116.996 -2.84726 -4.35002 0
M  V30 1314 C 114.681 -2.17832 -4.52609 0
M  V30 1315 C 116.675 -4.08945 -4.8892 0
M  V30 1316 C 114.362 -3.42304 -5.06232 0
M  V30 1317 C 115.36 -4.37677 -5.24335 0
M  V30 1318 O 115.048 -5.59946 -5.76815 0
M  V30 1319 H 114.78 -0.181327 -0.651227 0
M  V30 1320 H 117.334 -1.14713 -1.70382 0
M  V30 1321 H 115.564 0.221997 -3.86062 0
M  V30 1322 H 117.253 -0.148366 -4.05629 0
M  V30 1323 H 118.019 -2.63174 -4.07388 0
M  V30 1324 H 113.898 -1.44385 -4.37806 0
M  V30 1325 H 117.442 -4.83396 -5.02966 0
M  V30 1326 H 113.339 -3.63709 -5.33278 0
M  V30 1327 H 114.107 -5.61838 -5.95214 0
M  V30 1328 N 116.77 1.45427 -0.607355 0
M  V30 1329 C 117.702 2.2871 0.149752 0
M  V30 1330 C 118.715 1.39937 0.831958 0
M  V30 1331 O 119.904 1.64313 0.697385 0
M  V30 1332 C 117.004 3.15673 1.23304 0
M  V30 1333 C 116.177 4.32722 0.637996 0
M  V30 1334 C 115.236 5.00895 1.61215 0
M  V30 1335 O 114.262 5.57697 1.13854 0
M  V30 1336 N 115.464 5.00159 2.94655 0
M  V30 1337 H 118.229 2.94328 -0.564882 0
M  V30 1338 H 115.79 1.55612 -0.446823 0
M  V30 1339 H 117.782 3.58144 1.88454 0
M  V30 1340 H 116.352 2.51965 1.8502 0
M  V30 1341 H 115.572 3.93734 -0.191572 0
M  V30 1342 H 116.86 5.08321 0.220665 0
M  V30 1343 H 116.258 4.553 3.35735 0
M  V30 1344 H 114.815 5.46495 3.55228 0
M  V30 1345 N 118.248 0.346503 1.53744 0
M  V30 1346 C 119.178 -0.501193 2.28058 0
M  V30 1347 C 120.159 -1.10014 1.29734 0
M  V30 1348 O 121.344 -1.12097 1.58581 0
M  V30 1349 C 118.474 -1.65078 3.05559 0
M  V30 1350 C 117.428 -1.18003 4.11411 0
M  V30 1351 C 116.754 -2.41837 4.76884 0
M  V30 1352 C 118.054 -0.278394 5.21558 0
M  V30 1353 H 119.748 0.11875 2.99164 0
M  V30 1354 H 117.294 0.0585531 1.43881 0
M  V30 1355 H 119.247 -2.25028 3.56287 0
M  V30 1356 H 117.971 -2.29767 2.32109 0
M  V30 1357 H 116.63 -0.603331 3.61601 0
M  V30 1358 H 116.278 -3.0494 4.00026 0
M  V30 1359 H 115.978 -2.1102 5.48402 0
M  V30 1360 H 117.502 -3.02508 5.30397 0
M  V30 1361 H 118.916 -0.784823 5.67903 0
M  V30 1362 H 117.313 -0.0619707 6.00068 0
M  V30 1363 H 118.383 0.684677 4.80042 0
M  V30 1364 N 119.726 -1.57421 0.075193 0
M  V30 1365 C 120.954 -1.97946 -0.602076 0
M  V30 1366 C 121.369 -0.953674 -1.62943 0
M  V30 1367 O 120.726 0.0592551 -1.82404 0
M  V30 1368 C 120.777 -3.38546 -1.26762 0
M  V30 1369 O 120.498 -4.37195 -0.281376 0
M  V30 1370 C 121.999 -3.93966 -2.03239 0
M  V30 1371 H 119.219 -0.650918 -0.162931 0
M  V30 1372 H 121.763 -2.03959 0.148601 0
M  V30 1373 H 119.918 -3.33609 -1.96936 0
M  V30 1374 H 120.332 -5.18975 -0.759267 0
M  V30 1375 H 121.806 -4.94555 -2.45193 0
M  V30 1376 H 122.283 -3.30693 -2.8903 0
M  V30 1377 H 122.889 -4.02315 -1.37924 0
M  V30 1378 N 121.204 0.198386 -1.56346 0
M  V30 1379 C 122.434 0.934215 -1.84271 0
M  V30 1380 C 122.842 1.77496 -0.655125 0
M  V30 1381 O 122.185 1.7961 0.385488 0
M  V30 1382 C 122.247 1.88278 -3.06254 0
M  V30 1383 C 121.911 1.22431 -4.40295 0
M  V30 1384 C 122.908 0.602839 -5.16393 0
M  V30 1385 C 120.593 1.22915 -4.87029 0
M  V30 1386 C 122.587 -0.0050083 -6.374 0
M  V30 1387 C 120.274 0.617465 -6.07973 0
M  V30 1388 C 121.272 0.00146341 -6.83 0
M  V30 1389 O 120.96 -0.600642 -8.01653 0
M  V30 1390 H 120.692 0.278245 -0.616081 0
M  V30 1391 H 123.246 0.211626 -2.04307 0
M  V30 1392 H 121.476 2.64498 -2.82095 0
M  V30 1393 H 123.165 2.48612 -3.20853 0
M  V30 1394 H 123.931 0.591265 -4.81382 0
M  V30 1395 H 119.81 1.69801 -4.28589 0
M  V30 1396 H 123.354 -0.48643 -6.95902 0
M  V30 1397 H 119.251 0.62653 -6.42452 0
M  V30 1398 H 120.019 -0.497225 -8.16988 0
M  V30 1399 N 122.682 1.50554 0.465978 0
M  V30 1400 C 124.098 1.38093 0.800154 0
M  V30 1401 C 124.298 0.440988 1.96615 0
M  V30 1402 O 123.354 -0.114499 2.5224 0
M  V30 1403 C 124.667 2.79565 1.10742 0
M  V30 1404 C 126.215 2.88516 1.21357 0
M  V30 1405 C 126.69 4.30833 1.55393 0
M  V30 1406 N 128.181 4.33807 1.62375 0
M  V30 1407 C 128.916 5.40927 1.90225 0
M  V30 1408 N 128.412 6.58247 2.16062 0
M  V30 1409 N 130.205 5.28376 1.9177 0
M  V30 1410 H 122.356 2.10237 -0.302366 0
M  V30 1411 H 124.619 0.945203 -0.0727746 0
M  V30 1412 H 124.325 3.50208 0.323661 0
M  V30 1413 H 124.199 3.17125 2.04234 0
M  V30 1414 H 126.586 2.1809 1.98799 0
M  V30 1415 H 126.667 2.54492 0.258321 0
M  V30 1416 H 126.311 5.01799 0.784889 0
M  V30 1417 H 126.241 4.62347 2.52076 0
M  V30 1418 H 128.732 3.49212 1.44427 0
M  V30 1419 H 129.045 7.3569 2.36601 0
M  V30 1420 H 127.39 6.61413 2.13444 0
M  V30 1421 H 130.581 4.35715 1.71085 0
M  V30 1422 H 130.754 6.11944 2.13139 0
M  V30 1423 N 124.16 -0.719506 1.40217 0
M  V30 1424 C 125.092 -1.84428 1.36084 0
M  V30 1425 C 126.105 -1.60597 0.266913 0
M  V30 1426 O 127.294 -1.70544 0.526983 0
M  V30 1427 C 124.394 -3.20757 1.094 0
M  V30 1428 C 123.567 -3.71817 2.30372 0
M  V30 1429 C 122.626 -4.86748 1.99907 0
M  V30 1430 O 121.652 -4.99603 2.72737 0
M  V30 1431 N 122.854 -5.7226 0.974635 0
M  V30 1432 H 125.619 -1.88473 2.33019 0
M  V30 1433 H 123.18 -0.900885 1.3452 0
M  V30 1434 H 125.172 -3.95235 0.870116 0
M  V30 1435 H 123.742 -3.11884 0.211452 0
M  V30 1436 H 122.962 -2.88514 2.68614 0
M  V30 1437 H 124.25 -4.02666 3.11026 0
M  V30 1438 H 123.648 -5.6448 0.371368 0
M  V30 1439 H 122.205 -6.46739 0.810656 0
M  V30 1440 N 125.638 -1.25649 -0.95132 0
M  V30 1441 C 126.887 -1.09988 -1.69073 0
M  V30 1442 C 127.2 0.358355 -1.92289 0
M  V30 1443 O 128.406 0.635466 -2.63958 0
M  V30 1444 C 126.862 -1.92012 -3.044 0
M  V30 1445 C 126.47 -3.42347 -2.88968 0
M  V30 1446 C 128.214 -1.8493 -3.82101 0
M  V30 1447 C 126.121 -4.16655 -4.19705 0
M  V30 1448 H 125.051 -0.407993 -0.63408 0
M  V30 1449 H 127.702 -1.49873 -1.05879 0
M  V30 1450 H 126.084 -1.44952 -3.68517 0
M  V30 1451 H 127.258 -3.97104 -2.33762 0
M  V30 1452 H 125.573 -3.50557 -2.24719 0
M  V30 1453 H 128.17 -2.37739 -4.78941 0
M  V30 1454 H 128.513 -0.817883 -4.08187 0
M  V30 1455 H 129.046 -2.29758 -3.2474 0
M  V30 1456 H 125.785 -5.20224 -3.98807 0
M  V30 1457 H 125.305 -3.66681 -4.74663 0
M  V30 1458 H 126.984 -4.24551 -4.88227 0
M  V30 1459 N 127.117 1.15442 -1.07289 0
M  V30 1460 C 128.064 2.20161 -0.692653 0
M  V30 1461 C 129.034 1.63073 0.31564 0
M  V30 1462 O 130.219 1.89725 0.202235 0
M  V30 1463 C 127.359 3.44967 -0.0959509 0
M  V30 1464 C 126.472 4.16256 -1.15564 0
M  V30 1465 C 125.607 5.28609 -0.524011 0
M  V30 1466 C 124.646 5.91715 -1.56653 0
M  V30 1467 N 123.783 6.9554 -0.957531 0
M  V30 1468 H 128.623 2.52037 -1.59002 0
M  V30 1469 H 126.16 1.2378 -0.794798 0
M  V30 1470 H 128.118 4.16341 0.267628 0
M  V30 1471 H 126.748 3.1361 0.764772 0
M  V30 1472 H 125.8 3.43385 -1.6368 0
M  V30 1473 H 127.112 4.59268 -1.94613 0
M  V30 1474 H 126.266 6.06604 -0.108032 0
M  V30 1475 H 125.005 4.86787 0.29825 0
M  V30 1476 H 124.01 5.12433 -1.9923 0
M  V30 1477 H 125.235 6.35614 -2.39107 0
M  V30 1478 H 123.181 6.55814 -0.156162 0
M  V30 1479 H 123.098 7.36977 -1.68526 0
M  V30 1480 H 124.366 7.77435 -0.567032 0
M  V30 1481 N 128.595 0.856903 1.32268 0
M  V30 1482 C 129.825 0.47475 2.01071 0
M  V30 1483 C 130.233 -0.933746 1.64553 0
M  V30 1484 O 129.576 -1.62114 0.863989 0
M  V30 1485 C 129.638 0.536746 3.55471 0
M  V30 1486 C 129.302 1.90453 4.15423 0
M  V30 1487 C 130.299 2.87029 4.33486 0
M  V30 1488 C 127.984 2.20229 4.51447 0
M  V30 1489 C 129.978 4.11532 4.86744 0
M  V30 1490 C 127.665 3.44984 5.0441 0
M  V30 1491 C 128.663 4.40452 5.22007 0
M  V30 1492 O 128.351 5.62998 5.73837 0
M  V30 1493 H 128.083 0.184778 0.650256 0
M  V30 1494 H 130.637 1.15615 1.69771 0
M  V30 1495 H 128.867 -0.20152 3.86175 0
M  V30 1496 H 130.556 0.169875 4.05544 0
M  V30 1497 H 131.322 2.6533 4.05986 0
M  V30 1498 H 127.201 1.46705 4.37034 0
M  V30 1499 H 130.745 4.86056 5.00395 0
M  V30 1500 H 126.642 3.66532 5.31342 0
M  V30 1501 H 127.41 5.64987 5.92226 0
M  V30 1502 N 130.073 -1.45103 0.615059 0
M  V30 1503 C 131.32 -2.02183 0.113179 0
M  V30 1504 C 131.648 -1.48249 -1.25906 0
M  V30 1505 O 130.903 -0.650265 -1.84581 0
M  V30 1506 C 131.202 -3.57386 0.0318797 0
M  V30 1507 C 130.868 -4.30505 1.34077 0
M  V30 1508 C 129.53 -4.50197 1.69929 0
M  V30 1509 C 131.882 -4.72238 2.20546 0
M  V30 1510 C 129.21 -5.08881 2.91988 0
M  V30 1511 C 131.562 -5.32272 3.41861 0
M  V30 1512 C 130.226 -5.50187 3.77956 0
M  V30 1513 H 129.496 -0.739842 0.0414151 0
M  V30 1514 H 132.143 -1.74073 0.798168 0
M  V30 1515 H 130.448 -3.84817 -0.736409 0
M  V30 1516 H 132.145 -3.99264 -0.372712 0
M  V30 1517 H 128.735 -4.15496 1.05173 0
M  V30 1518 H 132.919 -4.56751 1.94146 0
M  V30 1519 H 128.175 -5.20939 3.2005 0
M  V30 1520 H 132.349 -5.63563 4.09109 0
M  V30 1521 H 129.976 -5.95427 4.72622 0
M  V30 1522 N 131.551 -0.354651 -1.53558 0
M  V30 1523 C 132.776 0.242153 -2.05981 0
M  V30 1524 C 133.201 1.42553 -1.2272 0
M  V30 1525 O 132.559 1.79656 -0.243604 0
M  V30 1526 C 132.607 0.624367 -3.55154 0
M  V30 1527 O 131.711 1.72301 -3.74681 0
M  V30 1528 H 131.052 0.0378432 -0.662921 0
M  V30 1529 H 133.582 -0.512087 -1.98088 0
M  V30 1530 H 133.592 0.898433 -3.97985 0
M  V30 1531 H 132.267 -0.240989 -4.15201 0
M  V30 1532 H 130.844 1.44535 -3.4375 0
M  V30 1533 N 133.029 1.57378 -0.0835403 0
M  V30 1534 C 134.276 1.9393 0.58287 0
M  V30 1535 C 134.604 0.964455 1.68904 0
M  V30 1536 O 133.859 -0.0179474 1.95692 0
M  V30 1537 C 134.158 3.37063 1.1884 0
M  V30 1538 C 133.824 4.50424 0.207194 0
M  V30 1539 C 132.486 4.81159 -0.0627115 0
M  V30 1540 C 134.838 5.19136 -0.463426 0
M  V30 1541 C 132.166 5.77939 -1.01012 0
M  V30 1542 C 134.518 6.16931 -1.39924 0
M  V30 1543 C 133.182 6.46078 -1.67749 0
M  V30 1544 H 132.452 0.70964 0.213287 0
M  V30 1545 H 135.099 1.90856 -0.156916 0
M  V30 1546 H 133.404 3.3666 2.00418 0
M  V30 1547 H 135.101 3.6264 1.71153 0
M  V30 1548 H 131.691 4.2646 0.427747 0
M  V30 1549 H 135.875 4.95576 -0.268034 0
M  V30 1550 H 131.131 5.98842 -1.23283 0
M  V30 1551 H 135.305 6.69273 -1.92476 0
M  V30 1552 H 132.932 7.2088 -2.41321 0
M  V30 1553 N 134.507 -0.190092 1.56449 0
M  V30 1554 C 135.918 -0.754312 1.70784 0
M  V30 1555 C 136.269 -1.83631 0.690951 0
M  V30 1556 O 135.394 -2.15868 -0.151604 0
M  V30 1557 C 135.989 -1.37503 3.09642 0
M  V30 1558 C 134.548 -1.88628 3.25725 0
M  V30 1559 C 133.695 -0.758098 2.66736 0
M  V30 1560 H 136.646 0.0350524 1.58661 0
M  V30 1561 H 136.667 -2.2445 3.0725 0
M  V30 1562 H 136.179 -0.587302 3.83631 0
M  V30 1563 H 134.28 -2.70103 2.56661 0
M  V30 1564 H 134.393 -2.04462 4.3328 0
M  V30 1565 H 132.757 -1.17369 2.26046 0
M  V30 1566 H 133.54 0.0174705 3.43296 0
M  V30 1567 N 135.985 -1.50799 -0.457987 0
M  V30 1568 C 137.233 -1.62121 -1.2067 0
M  V30 1569 C 137.554 -0.329793 -1.92191 0
M  V30 1570 O 136.824 0.653409 -1.84682 0
M  V30 1571 H 135.404 -0.597441 -0.448411 0
M  V30 1572 H 138.066 -1.87637 -0.527096 0
M  V30 1573 H 137.162 -2.43882 -1.94751 0
M  V30 1574 N 137.463 0.71206 -1.40597 0
M  V30 1575 C 138.373 1.8562 -1.43466 0
M  V30 1576 C 139.389 1.70902 -0.326902 0
M  V30 1577 O 140.565 1.93105 -0.572043 0
M  V30 1578 C 137.63 3.21451 -1.29884 0
M  V30 1579 C 136.691 3.48398 -2.50833 0
M  V30 1580 C 135.924 4.77749 -2.3789 0
M  V30 1581 O 136.147 5.53089 -1.39459 0
M  V30 1582 O 135.081 5.05111 -3.27333 0
M  V30 1583 H 138.907 1.86155 -2.39958 0
M  V30 1584 H 136.492 0.86295 -1.21957 0
M  V30 1585 H 138.374 4.02579 -1.24531 0
M  V30 1586 H 137.049 3.21636 -0.364997 0
M  V30 1587 H 135.956 2.67265 -2.61763 0
M  V30 1588 H 137.289 3.53014 -3.4299 0
M  V30 1589 N 138.941 1.26152 0.944643 0
M  V30 1590 C 139.871 1.09902 2.06019 0
M  V30 1591 C 140.852 0.00519538 1.70099 0
M  V30 1592 O 142.037 0.176583 1.93396 0
M  V30 1593 C 139.167 0.727562 3.39594 0
M  V30 1594 C 138.121 1.77274 3.89561 0
M  V30 1595 C 137.447 1.25569 5.19747 0
M  V30 1596 C 138.747 3.17357 4.14827 0
M  V30 1597 H 140.441 2.03217 2.19871 0
M  V30 1598 H 137.987 0.978452 1.05652 0
M  V30 1599 H 139.94 0.600777 4.17095 0
M  V30 1600 H 138.664 -0.241287 3.25707 0
M  V30 1601 H 137.323 1.88814 3.14237 0
M  V30 1602 H 136.971 0.276783 5.02238 0
M  V30 1603 H 136.671 1.95433 5.54148 0
M  V30 1604 H 138.195 1.1415 5.99835 0
M  V30 1605 H 139.609 3.08914 4.82954 0
M  V30 1606 H 138.006 3.84781 4.60504 0
M  V30 1607 H 139.076 3.63673 3.20734 0
M  V30 1608 N 140.419 -1.14872 1.07899 0
M  V30 1609 C 141.349 -2.2193 0.725887 0
M  V30 1610 C 142.33 -1.67622 -0.28927 0
M  V30 1611 O 143.515 -1.93533 -0.160787 0
M  V30 1612 C 140.645 -3.47061 0.128856 0
M  V30 1613 C 139.599 -4.14363 1.07178 0
M  V30 1614 C 138.925 -5.33636 0.337229 0
M  V30 1615 C 140.225 -4.63492 2.40775 0
M  V30 1616 H 141.919 -2.51724 1.62097 0
M  V30 1617 H 139.465 -1.20991 0.780838 0
M  V30 1618 H 141.418 -4.21199 -0.130147 0
M  V30 1619 H 140.142 -3.16617 -0.80134 0
M  V30 1620 H 138.801 -3.42173 1.3158 0
M  V30 1621 H 138.449 -4.99449 -0.596606 0
M  V30 1622 H 138.149 -5.79609 0.965788 0
M  V30 1623 H 139.673 -6.10539 0.0861567 0
M  V30 1624 H 141.087 -5.2913 2.20669 0
M  V30 1625 H 139.484 -5.20148 2.99276 0
M  V30 1626 H 140.554 -3.78834 3.02676 0
M  V30 1627 N 141.898 -0.863906 -1.31812 0
M  V30 1628 C 142.831 -0.259963 -2.26714 0
M  V30 1629 C 143.809 0.607392 -1.50829 0
M  V30 1630 O 144.993 0.562155 -1.79922 0
M  V30 1631 C 142.12 0.632456 -3.32743 0
M  V30 1632 C 141.166 -0.162743 -4.26189 0
M  V30 1633 S 141.999 -1.53726 -5.12961 0
M  V30 1634 C 143.155 -0.650803 -6.22507 0
M  V30 1635 H 143.388 -1.06445 -2.77591 0
M  V30 1636 H 140.921 -0.662071 -1.39485 0
M  V30 1637 H 142.879 1.14167 -3.94305 0
M  V30 1638 H 141.54 1.41083 -2.80632 0
M  V30 1639 H 140.733 0.517366 -5.01338 0
M  V30 1640 H 140.335 -0.60385 -3.69093 0
M  V30 1641 H 142.627 0.141134 -6.77353 0
M  V30 1642 H 143.57 -1.37322 -6.94657 0
M  V30 1643 H 143.978 -0.221041 -5.64067 0
M  V30 1644 N 143.376 1.44774 -0.622745 0
M  V30 1645 C 144.792 1.56986 -0.287652 0
M  V30 1646 C 144.992 1.61167 1.20944 0
M  V30 1647 O 144.048 1.55015 1.99315 0
M  V30 1648 C 145.361 2.84551 -0.972188 0
M  V30 1649 C 146.909 2.9825 -0.949536 0
M  V30 1650 C 147.384 4.28605 -1.61437 0
M  V30 1651 N 148.875 4.35399 -1.58057 0
M  V30 1652 C 149.61 5.34964 -2.064 0
M  V30 1653 N 149.106 6.40981 -2.62897 0
M  V30 1654 N 150.899 5.26419 -1.97078 0
M  V30 1655 H 143.05 1.40304 -1.59463 0
M  V30 1656 H 145.313 0.671794 -0.668878 0
M  V30 1657 H 145.019 2.87417 -2.02693 0
M  V30 1658 H 144.893 3.73807 -0.504771 0
M  V30 1659 H 147.28 2.94941 0.0967067 0
M  V30 1660 H 147.361 2.10364 -1.45536 0
M  V30 1661 H 147.005 4.32672 -2.66002 0
M  V30 1662 H 146.935 5.15334 -1.08344 0
M  V30 1663 H 149.426 3.59397 -1.16801 0
M  V30 1664 H 149.739 7.13225 -2.97539 0
M  V30 1665 H 148.084 6.4169 -2.66943 0
M  V30 1666 H 151.275 4.42504 -1.52669 0
M  V30 1667 H 151.448 6.03861 -2.35066 0
M  V30 1668 N 144.854 0.36279 1.53368 0
M  V30 1669 C 145.787 -0.528507 2.21996 0
M  V30 1670 C 146.765 -1.0852 1.21087 0
M  V30 1671 O 147.949 -1.14186 1.4998 0
M  V30 1672 C 145.076 -1.72893 2.91249 0
M  V30 1673 C 144.122 -1.29994 4.06207 0
M  V30 1674 S 144.955 -0.303575 5.34639 0
M  V30 1675 C 146.111 -1.51039 6.07403 0
M  V30 1676 H 146.344 0.0543423 2.9725 0
M  V30 1677 H 143.877 0.146889 1.537 0
M  V30 1678 H 145.835 -2.41751 3.31763 0
M  V30 1679 H 144.496 -2.28303 2.15724 0
M  V30 1680 H 143.689 -2.19549 4.53667 0
M  V30 1681 H 143.291 -0.690608 3.67569 0
M  V30 1682 H 145.583 -2.44186 6.31965 0
M  V30 1683 H 146.526 -1.07721 6.99858 0
M  V30 1684 H 146.934 -1.71518 5.37812 0
M  V30 1685 N 146.332 -1.57332 0.0918853 0
M  V30 1686 C 147.262 -2.16872 -0.865371 0
M  V30 1687 C 148.243 -1.10118 -1.29646 0
M  V30 1688 O 149.428 -1.38242 -1.36392 0
M  V30 1689 C 146.558 -2.74649 -2.12569 0
M  V30 1690 C 145.512 -3.86747 -1.83333 0
M  V30 1691 C 144.838 -4.31212 -3.16166 0
M  V30 1692 C 146.138 -5.10089 -1.1228 0
M  V30 1693 H 147.832 -2.97114 -0.369307 0
M  V30 1694 H 145.378 -1.42918 -0.176194 0
M  V30 1695 H 147.331 -3.14952 -2.7997 0
M  V30 1696 H 146.055 -1.91657 -2.64452 0
M  V30 1697 H 144.714 -3.46978 -1.18331 0
M  V30 1698 H 144.362 -3.45115 -3.6593 0
M  V30 1699 H 144.062 -5.06788 -2.97388 0
M  V30 1700 H 145.586 -4.74146 -3.84731 0
M  V30 1701 H 147 -5.47582 -1.69785 0
M  V30 1702 H 145.397 -5.91073 -1.03693 0
M  V30 1703 H 146.467 -4.84786 -0.105041 0
M  V30 1704 N 147.81 0.181792 -1.56548 0
M  V30 1705 C 148.742 1.24956 -1.92142 0
M  V30 1706 C 149.755 1.41022 -0.813422 0
M  V30 1707 O 150.944 1.41212 -1.09186 0
M  V30 1708 C 148.044 2.61981 -2.14987 0
M  V30 1709 C 147.217 2.6735 -3.46183 0
M  V30 1710 C 146.276 3.85664 -3.5798 0
M  V30 1711 O 145.302 3.72148 -4.30691 0
M  V30 1712 N 146.504 5.01683 -2.92053 0
M  V30 1713 H 149.269 0.947329 -2.84334 0
M  V30 1714 H 146.83 0.371629 -1.57577 0
M  V30 1715 H 148.822 3.3958 -2.20154 0
M  V30 1716 H 147.392 2.84637 -1.2923 0
M  V30 1717 H 146.612 1.75925 -3.52766 0
M  V30 1718 H 147.9 2.67939 -4.32534 0
M  V30 1719 H 147.298 5.15564 -2.32832 0
M  V30 1720 H 145.855 5.77181 -3.0283 0
M  V30 1721 N 149.288 1.51039 0.449983 0
M  V30 1722 C 150.221 1.66105 1.56474 0
M  V30 1723 C 151.199 0.508776 1.54435 0
M  V30 1724 O 152.383 0.731005 1.73749 0
M  V30 1725 C 149.51 1.66304 2.9506 0
M  V30 1726 C 148.556 2.87346 3.15174 0
M  V30 1727 S 149.389 4.4835 2.92818 0
M  V30 1728 C 150.545 4.51274 4.33708 0
M  V30 1729 H 150.778 2.60397 1.43459 0
M  V30 1730 H 148.311 1.40565 0.638805 0
M  V30 1731 H 150.269 1.67103 3.74949 0
M  V30 1732 H 148.93 0.732108 3.05449 0
M  V30 1733 H 148.123 2.83849 4.16468 0
M  V30 1734 H 147.725 2.84223 2.43091 0
M  V30 1735 H 150.017 4.26136 5.26701 0
M  V30 1736 H 150.96 5.53017 4.42242 0
M  V30 1737 H 151.368 3.80738 4.16772 0
M  V30 1738 N 150.766 -0.704594 1.40972 0
M  V30 1739 C 151.696 -1.83124 1.44872 0
M  V30 1740 C 152.677 -1.67281 0.30838 0
M  V30 1741 O 153.862 -1.87149 0.518556 0
M  V30 1742 C 150.992 -3.21181 1.32136 0
M  V30 1743 C 149.946 -3.51714 2.43888 0
M  V30 1744 C 149.272 -4.89032 2.16222 0
M  V30 1745 C 150.572 -3.516 3.86232 0
M  V30 1746 H 152.266 -1.80117 2.39161 0
M  V30 1747 H 149.812 -0.865145 1.15114 0
M  V30 1748 H 151.765 -3.99702 1.33479 0
M  V30 1749 H 150.489 -3.24791 0.343279 0
M  V30 1750 H 149.148 -2.75539 2.41813 0
M  V30 1751 H 148.796 -4.89256 1.16778 0
M  V30 1752 H 148.496 -5.10426 2.911 0
M  V30 1753 H 150.02 -5.69873 2.19265 0
M  V30 1754 H 151.434 -4.2014 3.9007 0
M  V30 1755 H 149.831 -3.84523 4.60719 0
M  V30 1756 H 150.901 -2.50757 4.15029 0
M  V30 1757 N 152.244 -1.26651 -0.937939 0
M  V30 1758 C 153.49 -1.12553 -1.687 0
M  V30 1759 C 153.823 0.329782 -1.91379 0
M  V30 1760 O 153.098 1.24202 -1.4968 0
M  V30 1761 C 153.381 -1.89862 -3.05981 0
M  V30 1762 C 153.234 -3.43318 -2.90607 0
M  V30 1763 C 154.553 -1.69499 -4.0615 0
M  V30 1764 H 151.672 -0.410257 -0.612257 0
M  V30 1765 H 154.314 -1.55685 -1.08913 0
M  V30 1766 H 152.464 -1.53204 -3.57017 0
M  V30 1767 H 154.136 -3.89747 -2.46769 0
M  V30 1768 H 152.379 -3.70179 -2.26164 0
M  V30 1769 H 153.05 -3.92642 -3.8799 0
M  V30 1770 H 155.526 -2.01442 -3.64088 0
M  V30 1771 H 154.402 -2.26002 -5.00214 0
M  V30 1772 H 154.663 -0.640365 -4.37438 0
M  V30 1773 N 153.722 1.14298 -1.08507 0
M  V30 1774 C 154.652 2.21542 -0.737646 0
M  V30 1775 C 155.633 1.67773 0.280377 0
M  V30 1776 O 156.818 1.93616 0.150521 0
M  V30 1777 C 153.948 3.46988 -0.147259 0
M  V30 1778 C 152.902 4.13789 -1.09374 0
M  V30 1779 C 152.228 5.33449 -0.365524 0
M  V30 1780 C 153.528 4.62208 -2.4323 0
M  V30 1781 H 155.222 2.5086 -1.6343 0
M  V30 1782 H 152.768 1.20576 -0.787243 0
M  V30 1783 H 154.721 4.21262 0.107808 0
M  V30 1784 H 153.445 3.17037 0.784538 0
M  V30 1785 H 152.104 3.4147 -1.33393 0
M  V30 1786 H 151.752 4.99759 0.57011 0
M  V30 1787 H 151.452 5.79088 -0.996512 0
M  V30 1788 H 152.976 6.10485 -0.118534 0
M  V30 1789 H 154.39 5.27952 -2.23472 0
M  V30 1790 H 152.787 5.18553 -3.02031 0
M  V30 1791 H 153.857 3.77224 -3.04681 0
M  V30 1792 N 155.201 0.870884 1.31352 0
M  V30 1793 C 156.612 0.534714 1.78879 0
M  V30 1794 C 156.963 -0.948423 1.71754 0
M  V30 1795 O 156.088 -1.74055 1.28584 0
M  V30 1796 C 156.683 0.963839 3.24801 0
M  V30 1797 C 155.242 0.679311 3.70219 0
M  V30 1798 C 154.389 1.15465 2.52117 0
M  V30 1799 H 157.34 1.05651 1.18421 0
M  V30 1800 H 157.361 0.286892 3.79417 0
M  V30 1801 H 156.873 2.04332 3.29955 0
M  V30 1802 H 154.974 -0.388769 3.70566 0
M  V30 1803 H 155.087 1.25698 4.62317 0
M  V30 1804 H 153.451 0.574383 2.48139 0
M  V30 1805 H 154.234 2.24157 2.60016 0
M  V30 1806 N 156.679 -1.44442 0.630414 0
M  V30 1807 C 157.609 -2.33418 -0.0618083 0
M  V30 1808 C 158.59 -1.48165 -0.835541 0
M  V30 1809 O 159.775 -1.76886 -0.801564 0
M  V30 1810 C 156.905 -3.31222 -1.04449 0
M  V30 1811 C 155.859 -4.26288 -0.382436 0
M  V30 1812 C 155.185 -5.13954 -1.47497 0
M  V30 1813 C 156.485 -5.1744 0.710865 0
M  V30 1814 H 158.179 -2.91548 0.681184 0
M  V30 1815 H 155.725 -1.40191 0.329026 0
M  V30 1816 H 157.678 -3.92351 -1.53748 0
M  V30 1817 H 156.402 -2.71299 -1.81836 0
M  V30 1818 H 155.061 -3.6649 0.0899054 0
M  V30 1819 H 154.709 -4.50385 -2.2397 0
M  V30 1820 H 154.409 -5.7837 -1.03737 0
M  V30 1821 H 155.933 -5.77955 -1.96979 0
M  V30 1822 H 157.347 -5.72509 0.300996 0
M  V30 1823 H 155.744 -5.90455 1.07156 0
M  V30 1824 H 156.814 -4.58496 1.57829 0
M  V30 1825 N 158.157 -0.370918 -1.53173 0
M  V30 1826 C 159.406 0.218249 -2.00516 0
M  V30 1827 C 159.719 1.49429 -1.26215 0
M  V30 1828 O 160.925 2.16239 -1.64174 0
M  V30 1829 C 159.381 0.43948 -3.57207 0
M  V30 1830 C 158.989 -0.822244 -4.4039 0
M  V30 1831 C 160.733 0.986012 -4.1289 0
M  V30 1832 C 158.64 -0.570304 -5.88644 0
M  V30 1833 H 157.57 0.0853333 -0.749156 0
M  V30 1834 H 160.221 -0.490483 -1.76823 0
M  V30 1835 H 158.603 1.20961 -3.77074 0
M  V30 1836 H 159.777 -1.59557 -4.32294 0
M  V30 1837 H 158.092 -1.29238 -3.95836 0
M  V30 1838 H 160.689 1.18991 -5.21292 0
M  V30 1839 H 161.032 1.94972 -3.6782 0
M  V30 1840 H 161.565 0.27592 -3.96842 0
M  V30 1841 H 158.304 -1.50449 -6.38001 0
M  V30 1842 H 157.824 0.164427 -5.99575 0
M  V30 1843 H 159.503 -0.19784 -6.46697 0
M  V30 1844 N 159.635 1.57281 -0.100228 0
M  V30 1845 C 160.881 1.94826 0.563101 0
M  V30 1846 C 161.214 0.982475 1.67514 0
M  V30 1847 O 160.489 0.0164069 1.94493 0
M  V30 1848 C 160.772 3.42453 1.11346 0
M  V30 1849 C 160.625 4.498 0.00612081 0
M  V30 1850 C 161.944 3.91506 2.01024 0
M  V30 1851 H 159.063 0.708428 0.203221 0
M  V30 1852 H 161.705 1.8922 -0.171979 0
M  V30 1853 H 159.855 3.47361 1.7399 0
M  V30 1854 H 161.527 4.57 -0.628357 0
M  V30 1855 H 159.77 4.28756 -0.659581 0
M  V30 1856 H 160.441 5.50306 0.432109 0
M  V30 1857 H 162.917 3.88784 1.48278 0
M  V30 1858 H 161.793 4.95358 2.36457 0
M  V30 1859 H 162.054 3.31099 2.92961 0
M  V30 1860 N 161.113 -0.173488 1.56642 0
M  V30 1861 C 162.338 -0.910149 1.86363 0
M  V30 1862 C 162.763 -1.75132 0.686318 0
M  V30 1863 O 162.121 -1.77595 -0.364643 0
M  V30 1864 C 162.169 -1.76447 3.14482 0
M  V30 1865 O 161.273 -2.86584 2.96553 0
M  V30 1866 H 160.614 -0.255086 0.613047 0
M  V30 1867 H 163.144 -0.172283 2.03873 0
M  V30 1868 H 163.154 -2.16483 3.45831 0
M  V30 1869 H 161.829 -1.14658 3.99783 0
M  V30 1870 H 160.406 -2.50146 2.76553 0
M  V30 1871 N 162.591 -1.51276 -0.441967 0
M  V30 1872 C 163.816 -1.67799 -1.21895 0
M  V30 1873 C 164.241 -0.372864 -1.84367 0
M  V30 1874 O 163.599 0.666501 -1.68604 0
M  V30 1875 C 163.647 -2.79199 -2.28211 0
M  V30 1876 O 162.751 -2.42479 -3.33583 0
M  V30 1877 H 162.092 -0.559649 -0.357336 0
M  V30 1878 H 164.622 -1.97815 -0.522522 0
M  V30 1879 H 164.632 -3.03146 -2.73069 0
M  V30 1880 H 163.307 -3.73906 -1.82118 0
M  V30 1881 H 161.884 -2.29087 -2.94234 0
M  V30 1882 N 164.069 0.697108 -1.41344 0
M  V30 1883 C 164.999 1.82353 -1.45841 0
M  V30 1884 C 165.98 1.67115 -0.317247 0
M  V30 1885 O 167.165 1.86871 -0.528474 0
M  V30 1886 C 164.295 3.20476 -1.33838 0
M  V30 1887 C 163.249 3.50415 -2.4575 0
M  V30 1888 C 162.575 4.87878 -2.18813 0
M  V30 1889 C 163.875 3.49546 -3.88091 0
M  V30 1890 H 165.569 1.78846 -2.40113 0
M  V30 1891 H 163.115 0.859028 -1.15571 0
M  V30 1892 H 165.068 3.98988 -1.35596 0
M  V30 1893 H 163.792 3.24604 -0.360498 0
M  V30 1894 H 162.451 2.74253 -2.43271 0
M  V30 1895 H 162.099 4.8863 -1.19371 0
M  V30 1896 H 161.799 5.08875 -2.93803 0
M  V30 1897 H 163.323 5.68702 -2.22284 0
M  V30 1898 H 164.737 4.18066 -3.92293 0
M  V30 1899 H 163.134 3.82075 -4.62751 0
M  V30 1900 H 164.204 2.48552 -4.16353 0
M  V30 1901 N 165.547 1.27147 0.931209 0
M  V30 1902 C 166.793 1.13446 1.68101 0
M  V30 1903 C 167.126 -0.319628 1.91552 0
M  V30 1904 O 166.401 -1.23407 1.50336 0
M  V30 1905 C 166.684 1.91482 3.0497 0
M  V30 1906 C 166.537 3.44855 2.88782 0
M  V30 1907 C 167.856 1.71651 4.05246 0
M  V30 1908 H 164.975 0.413498 0.610072 0
M  V30 1909 H 167.617 1.56261 1.08086 0
M  V30 1910 H 165.767 1.55095 3.56199 0
M  V30 1911 H 167.439 3.9105 2.44698 0
M  V30 1912 H 165.682 3.71373 2.24198 0
M  V30 1913 H 166.353 3.94694 3.85902 0
M  V30 1914 H 168.829 2.0337 3.63015 0
M  V30 1915 H 167.705 2.28651 4.99009 0
M  V30 1916 H 167.966 0.663555 4.37092 0
M  V30 1917 N 167.025 -1.13721 1.09112 0
M  V30 1918 C 168.253 -1.88773 0.846899 0
M  V30 1919 C 168.668 -1.7896 -0.601572 0
M  V30 1920 O 168.025 -1.15394 -1.41388 0
M  V30 1921 C 168.076 -3.3849 1.26913 0
M  V30 1922 O 167.797 -3.48043 2.66079 0
M  V30 1923 C 169.298 -4.30518 1.05682 0
M  V30 1924 H 166.518 -0.59772 0.304914 0
M  V30 1925 H 169.062 -1.43977 1.45227 0
M  V30 1926 H 167.217 -3.80881 0.707723 0
M  V30 1927 H 167.631 -4.4109 2.83795 0
M  V30 1928 H 169.105 -5.3391 1.40156 0
M  V30 1929 H 169.582 -4.392 -0.00563416 0
M  V30 1930 H 170.188 -3.93893 1.60402 0
M  V30 1931 N 168.503 -0.877838 -1.30888 0
M  V30 1932 C 169.751 -0.491723 -1.96027 0
M  V30 1933 C 170.072 0.960827 -1.69685 0
M  V30 1934 O 169.342 1.67462 -1.01654 0
M  V30 1935 H 167.922 -0.17885 -0.725273 0
M  V30 1936 H 170.584 -1.11935 -1.59551 0
M  V30 1937 H 169.68 -0.656016 -3.05128 0
M  V30 1938 N 169.982 1.44106 -0.638065 0
M  V30 1939 C 170.915 2.27924 0.112161 0
M  V30 1940 C 171.893 1.38945 0.844574 0
M  V30 1941 O 173.077 1.68386 0.847248 0
M  V30 1942 C 170.204 3.18029 1.16512 0
M  V30 1943 C 169.25 4.23163 0.532458 0
M  V30 1944 S 170.083 5.31131 -0.682666 0
M  V30 1945 C 171.239 6.24805 0.37013 0
M  V30 1946 H 171.472 2.91205 -0.598887 0
M  V30 1947 H 169.005 1.48394 -0.426441 0
M  V30 1948 H 170.963 3.70492 1.76766 0
M  V30 1949 H 169.624 2.53955 1.8484 0
M  V30 1950 H 168.817 4.86252 1.32571 0
M  V30 1951 H 168.419 3.74 0.00437644 0
M  V30 1952 H 170.711 6.66042 1.24071 0
M  V30 1953 H 171.654 7.07741 -0.225349 0
M  V30 1954 H 172.062 5.60154 0.699141 0
M  V30 1955 N 171.46 0.379036 1.52974 0
M  V30 1956 C 172.423 -0.448865 2.24762 0
M  V30 1957 C 173.423 -0.998689 1.26027 0
M  V30 1958 O 174.613 -0.882313 1.50203 0
M  V30 1959 C 171.745 -1.62872 2.99476 0
M  V30 1960 H 172.938 0.179491 2.99362 0
M  V30 1961 H 170.491 0.13096 1.5575 0
M  V30 1962 H 171.226 -2.29479 2.29151 0
M  V30 1963 H 171.011 -1.24128 3.71934 0
M  V30 1964 H 172.501 -2.2151 3.5401 0
M  V30 1965 N 172.938 -1.57226 0.108567 0
M  V30 1966 C 174.163 -1.99604 -0.563303 0
M  V30 1967 C 174.588 -0.987563 -1.6009 0
M  V30 1968 O 173.946 0.0421687 -1.81251 0
M  V30 1969 C 173.994 -3.40902 -1.17552 0
M  V30 1970 O 173.098 -3.42896 -2.2912 0
M  V30 1971 H 172.439 -0.648704 -0.1417 0
M  V30 1972 H 174.969 -2.03679 0.193961 0
M  V30 1973 H 174.979 -3.78886 -1.51357 0
M  V30 1974 H 173.654 -4.1382 -0.415445 0
M  V30 1975 H 172.231 -3.1672 -1.96832 0
M  V30 1976 N 174.416 0.165178 -1.56732 0
M  V30 1977 C 175.346 1.20651 -1.99914 0
M  V30 1978 C 176.327 1.45827 -0.875705 0
M  V30 1979 O 177.512 1.57057 -1.14223 0
M  V30 1980 C 174.642 2.54401 -2.36427 0
M  V30 1981 C 173.596 2.43782 -3.51787 0
M  V30 1982 C 172.922 3.82078 -3.7406 0
M  V30 1983 C 174.222 1.93732 -4.85041 0
M  V30 1984 H 175.916 0.847534 -2.87154 0
M  V30 1985 H 173.462 0.40625 -1.38151 0
M  V30 1986 H 175.415 3.27458 -2.65234 0
M  V30 1987 H 174.139 2.92098 -1.46103 0
M  V30 1988 H 172.798 1.73178 -3.23117 0
M  V30 1989 H 172.446 4.17179 -2.81017 0
M  V30 1990 H 172.146 3.7584 -4.51684 0
M  V30 1991 H 173.67 4.56712 -4.05274 0
M  V30 1992 H 175.084 2.56569 -5.12684 0
M  V30 1993 H 173.481 1.98428 -5.66345 0
M  V30 1994 H 174.551 0.891962 -4.76626 0
M  V30 1995 N 175.894 1.51508 0.433938 0
M  V30 1996 C 177.171 1.54888 1.19453 0
M  V30 1997 C 177.551 0.315154 2.08734 0
M  V30 1998 O 176.899 -0.699558 2.17528 0
M  V30 1999 C 177.109 2.86467 1.99342 0
M  V30 2000 C 178.457 3.38545 2.56267 0
M  V30 2001 O 179.481 2.88041 2.0955 0
M  V30 2002 O 178.34 4.26675 3.41483 0
M  V30 2003 H 175.434 0.622863 0.544032 0
M  V30 2004 H 177.98 1.63823 0.442732 0
M  V30 2005 H 176.752 3.67718 1.33788 0
M  V30 2006 H 176.375 2.8071 2.8158 0
M  V30 2007 N 177.372 -0.689602 1.41712 0
M  V30 2008 C 178.32 -1.82475 1.44242 0
M  V30 2009 C 179.314 -1.66354 0.319774 0
M  V30 2010 O 180.52 -1.73143 0.492089 0
M  V30 2011 H 176.895 -0.601416 0.451445 0
M  V30 2012 H 178.866 -1.77458 2.39899 0
M  V30 2013 C 177.615 -3.20535 1.3473 0
M  V30 2014 H 176.938 -3.33559 2.20405 0
M  V30 2015 H 178.378 -4.00023 1.40562 0
M  V30 2016 C 176.837 -3.36846 0.0603281 0
M  V30 2017 O 177.367 -3.91656 -0.892663 0
M  V30 2018 N 175.573 -2.90595 -0.0177039 0
M  V30 2019 H 175.12 -2.46178 0.758572 0
M  V30 2020 H 175.078 -3.01886 -0.878201 0
M  V30 2021 N 178.85 -1.27639 -0.924453 0
M  V30 2022 C 179.797 -1.10644 -2.0255 0
M  V30 2023 C 180.767 -0.00658438 -1.66099 0
M  V30 2024 O 181.952 -0.16952 -1.90045 0
M  V30 2025 C 179.092 -0.76309 -3.36557 0
M  V30 2026 C 178.205 -1.94091 -3.85944 0
M  V30 2027 C 177.34 -1.53914 -5.08413 0
M  V30 2028 C 176.379 -2.68425 -5.50104 0
M  V30 2029 N 175.516 -2.28815 -6.63768 0
M  V30 2030 H 180.356 -2.04858 -2.16419 0
M  V30 2031 H 177.893 -1.01974 -1.06017 0
M  V30 2032 H 179.851 -0.544822 -4.13627 0
M  V30 2033 H 178.481 0.142102 -3.22487 0
M  V30 2034 H 177.533 -2.27162 -3.05125 0
M  V30 2035 H 178.845 -2.7998 -4.12811 0
M  V30 2036 H 177.999 -1.28231 -5.92994 0
M  V30 2037 H 176.738 -0.651391 -4.8333 0
M  V30 2038 H 175.743 -2.94819 -4.64071 0
M  V30 2039 H 176.968 -3.57826 -5.7718 0
M  V30 2040 H 174.914 -1.42495 -6.40337 0
M  V30 2041 H 174.831 -3.08242 -6.90306 0
M  V30 2042 H 176.099 -2.06387 -7.51681 0
M  V30 2043 N 180.328 1.1314 -1.09713 0
M  V30 2044 C 181.291 2.16831 -0.742751 0
M  V30 2045 C 182.291 1.59159 0.229129 0
M  V30 2046 O 183.481 1.74199 0.00693237 0
M  V30 2047 C 180.613 3.40756 -0.0989168 0
M  V30 2048 H 181.806 2.49695 -1.66109 0
M  V30 2049 H 179.359 1.2802 -0.896699 0
M  V30 2050 H 180.094 3.13485 0.830514 0
M  V30 2051 H 179.879 3.83888 -0.798265 0
M  V30 2052 H 181.369 4.17386 0.133524 0
M  V30 2053 N 181.806 0.884767 1.30421 0
M  V30 2054 C 183.034 0.518044 2.0031 0
M  V30 2055 C 183.449 -0.893408 1.66324 0
M  V30 2056 O 182.806 -1.5875 0.900262 0
M  V30 2057 C 182.857 0.682997 3.54989 0
M  V30 2058 O 182.578 2.03888 3.87764 0
M  V30 2059 C 184.079 0.31924 4.42149 0
M  V30 2060 H 181.299 0.200265 0.640418 0
M  V30 2061 H 183.843 1.19001 1.6631 0
M  V30 2062 H 181.998 0.0584052 3.87356 0
M  V30 2063 H 182.412 2.05735 4.82466 0
M  V30 2064 H 183.886 0.485555 5.4986 0
M  V30 2065 H 184.363 -0.742717 4.32875 0
M  V30 2066 H 184.969 0.920147 4.15227 0
M  V30 2067 N 183.284 -1.43765 0.645699 0
M  V30 2068 C 184.532 -2.01499 0.155731 0
M  V30 2069 C 184.853 -1.51151 -1.232 0
M  V30 2070 O 184.123 -0.721044 -1.82148 0
M  V30 2071 H 182.703 -0.745003 0.0545817 0
M  V30 2072 H 185.365 -1.76075 0.835677 0
M  V30 2073 H 184.461 -3.1181 0.134577 0
M  V30 2074 N 184.763 -0.387143 -1.52771 0
M  V30 2075 C 186.179 -0.037007 -1.59557 0
M  V30 2076 C 186.379 1.44801 -1.40124 0
M  V30 2077 O 185.435 2.21227 -1.21716 0
M  V30 2078 C 186.748 -0.512256 -2.96305 0
M  V30 2079 C 188.296 -0.468328 -3.09476 0
M  V30 2080 C 188.771 -0.919731 -4.4867 0
M  V30 2081 N 190.262 -0.875656 -4.54848 0
M  V30 2082 C 190.997 -1.19637 -5.6078 0
M  V30 2083 N 190.493 -1.58745 -6.74368 0
M  V30 2084 N 192.286 -1.11776 -5.50874 0
M  V30 2085 H 184.437 -1.35395 -1.63652 0
M  V30 2086 H 186.7 -0.554818 -0.768688 0
M  V30 2087 H 186.406 -1.54935 -3.15734 0
M  V30 2088 H 186.28 0.089805 -3.77093 0
M  V30 2089 H 188.667 0.559671 -2.89744 0
M  V30 2090 H 188.748 -1.10616 -2.30646 0
M  V30 2091 H 188.392 -1.94595 -4.69143 0
M  V30 2092 H 188.322 -0.258927 -5.25963 0
M  V30 2093 H 190.813 -0.587843 -3.733 0
M  V30 2094 H 191.126 -1.81586 -7.51163 0
M  V30 2095 H 189.471 -1.6263 -6.75705 0
M  V30 2096 H 192.662 -0.811264 -4.61016 0
M  V30 2097 H 192.835 -1.37103 -6.3333 0
M  V30 2098 N 186.241 1.57166 -0.116904 0
M  V30 2099 C 187.174 2.10912 0.871291 0
M  V30 2100 C 188.152 1.025 1.26224 0
M  V30 2101 O 189.336 1.3014 1.36366 0
M  V30 2102 C 186.463 2.6041 2.16574 0
M  V30 2103 C 185.509 3.80687 1.92302 0
M  V30 2104 S 186.342 5.23199 1.14119 0
M  V30 2105 C 187.498 5.76064 2.44748 0
M  V30 2106 H 187.731 2.94401 0.414138 0
M  V30 2107 H 185.264 1.54096 0.096829 0
M  V30 2108 H 187.222 2.89583 2.9095 0
M  V30 2109 H 185.883 1.77106 2.59408 0
M  V30 2110 H 185.076 4.13462 2.8821 0
M  V30 2111 H 184.678 3.5212 1.26047 0
M  V30 2112 H 186.97 5.8566 3.406 0
M  V30 2113 H 187.913 6.74184 2.16521 0
M  V30 2114 H 188.321 5.04117 2.54019 0
M  V30 2115 N 187.719 -0.156864 1.56817 0
M  V30 2116 C 188.967 -0.869404 1.82444 0
M  V30 2117 C 189.288 -1.82147 0.69623 0
M  V30 2118 O 188.558 -1.93847 -0.28287 0
M  V30 2119 H 187.138 -0.324043 0.673056 0
M  V30 2120 H 189.8 -0.153224 1.94297 0
M  V30 2121 H 188.896 -1.43761 2.77019 0
M  V30 2122 N 189.197 -1.51736 -0.425897 0
M  V30 2123 C 190.13 -1.68574 -1.53812 0
M  V30 2124 C 191.108 -0.53328 -1.53606 0
M  V30 2125 O 192.292 -0.758555 -1.72564 0
M  V30 2126 C 189.419 -1.70977 -2.92377 0
M  V30 2127 C 188.465 -2.92324 -3.10563 0
M  V30 2128 S 189.298 -4.52952 -2.85648 0
M  V30 2129 C 190.454 -4.58117 -4.26474 0
M  V30 2130 H 190.687 -2.62647 -1.39298 0
M  V30 2131 H 188.22 -1.41564 -0.616361 0
M  V30 2132 H 190.178 -1.73047 -3.72243 0
M  V30 2133 H 188.839 -0.78061 -3.04245 0
M  V30 2134 H 188.032 -2.90439 -4.11899 0
M  V30 2135 H 187.634 -2.88055 -2.38538 0
M  V30 2136 H 189.926 -4.34462 -5.19855 0
M  V30 2137 H 190.869 -5.59983 -4.33388 0
M  V30 2138 H 191.277 -3.8732 -4.10662 0
M  V30 2139 N 190.675 0.682077 -1.42076 0
M  V30 2140 C 192.091 0.994324 -1.24841 0
M  V30 2141 C 192.291 2.0096 -0.147389 0
M  V30 2142 O 191.347 2.47822 0.483782 0
M  V30 2143 C 192.66 1.50607 -2.60265 0
M  V30 2144 C 194.208 1.62421 -2.6756 0
M  V30 2145 C 194.683 2.16994 -4.03333 0
M  V30 2146 N 196.174 2.24337 -4.0525 0
M  V30 2147 C 196.909 2.67621 -5.07116 0
M  V30 2148 N 196.405 3.1041 -6.19368 0
M  V30 2149 N 198.198 2.67305 -4.94474 0
M  V30 2150 H 190.349 0.00973908 -2.12398 0
M  V30 2151 H 192.612 0.0668593 -0.945639 0
M  V30 2152 H 192.318 0.834583 -3.41654 0
M  V30 2153 H 192.192 2.48602 -2.83684 0
M  V30 2154 H 194.579 2.28678 -1.86521 0
M  V30 2155 H 194.66 0.629352 -2.47937 0
M  V30 2156 H 194.304 1.51349 -4.84826 0
M  V30 2157 H 194.234 3.17258 -4.20304 0
M  V30 2158 H 196.725 1.94158 -3.24209 0
M  V30 2159 H 197.038 3.42103 -6.92954 0
M  V30 2160 H 195.383 3.08286 -6.22884 0
M  V30 2161 H 198.574 2.33233 -4.05857 0
M  V30 2162 H 198.747 3.00718 -5.73997 0
M  V30 2163 N 192.153 1.28127 0.917671 0
M  V30 2164 C 193.116 1.11744 2.00115 0
M  V30 2165 C 194.116 0.0583052 1.60694 0
M  V30 2166 O 195.306 0.303755 1.71531 0
M  V30 2167 C 192.438 0.704862 3.33533 0
M  V30 2168 H 193.631 2.07966 2.16079 0
M  V30 2169 H 191.184 1.11058 1.09981 0
M  V30 2170 H 191.919 -0.258299 3.2327 0
M  V30 2171 H 191.704 1.4699 3.63505 0
M  V30 2172 H 193.194 0.612768 4.1308 0
M  V30 2173 N 193.631 -1.12557 1.10312 0
M  V30 2174 C 194.594 -2.16434 0.75424 0
M  V30 2175 C 195.594 -1.59278 -0.220685 0
M  V30 2176 O 196.784 -1.742 0.00230591 0
M  V30 2177 C 193.916 -3.40699 0.116987 0
M  V30 2178 H 195.109 -2.48811 1.67431 0
M  V30 2179 H 192.662 -1.27542 0.903475 0
M  V30 2180 H 193.397 -3.13921 -0.813877 0
M  V30 2181 H 193.182 -3.83459 0.818613 0
M  V30 2182 H 194.672 -4.17451 -0.111387 0
M  V30 2183 N 195.109 -0.891671 -1.2995 0
M  V30 2184 C 196.355 -0.514261 -1.96171 0
M  V30 2185 C 196.688 0.935506 -1.70182 0
M  V30 2186 O 195.963 1.66204 -1.01028 0
M  V30 2187 C 196.246 -0.797719 -3.51153 0
M  V30 2188 C 196.099 -2.2986 -3.86632 0
M  V30 2189 C 197.418 -0.278749 -4.39216 0
M  V30 2190 H 194.537 -0.188314 -0.712535 0
M  V30 2191 H 197.179 -1.11689 -1.53706 0
M  V30 2192 H 195.329 -0.284826 -3.87455 0
M  V30 2193 H 197.001 -2.88042 -3.60319 0
M  V30 2194 H 195.244 -2.76257 -3.34462 0
M  V30 2195 H 195.915 -2.44753 -4.94773 0
M  V30 2196 H 198.391 -0.717825 -4.09862 0
M  V30 2197 H 197.267 -0.506353 -5.46559 0
M  V30 2198 H 197.528 0.820266 -4.34424 0
M  V30 2199 N 196.587 1.43421 -0.653314 0
M  V30 2200 C 197.817 2.05864 -0.174238 0
M  V30 2201 C 198.225 1.49052 1.16534 0
M  V30 2202 O 197.568 0.616481 1.73047 0
M  V30 2203 C 197.63 3.59499 -0.00875873 0
M  V30 2204 C 197.294 4.38893 -1.27364 0
M  V30 2205 C 198.291 4.70947 -2.20239 0
M  V30 2206 C 195.976 4.789 -1.51525 0
M  V30 2207 C 197.97 5.41916 -3.35568 0
M  V30 2208 C 195.657 5.49614 -2.67147 0
M  V30 2209 C 196.655 5.81044 -3.58994 0
M  V30 2210 O 196.343 6.50313 -4.72597 0
M  V30 2211 H 196.075 0.670345 -0.0872549 0
M  V30 2212 H 198.629 1.84913 -0.894226 0
M  V30 2213 H 196.859 3.79025 0.7666 0
M  V30 2214 H 198.548 4.0364 0.427687 0
M  V30 2215 H 199.314 4.40558 -2.02815 0
M  V30 2216 H 195.193 4.53843 -0.809158 0
M  V30 2217 H 198.737 5.66365 -4.07279 0
M  V30 2218 H 194.634 5.79419 -2.84505 0
M  V30 2219 H 195.402 6.68795 -4.71864 0
M  V30 2220 N 198.065 0.39524 1.52563 0
M  V30 2221 C 199.295 -0.184675 2.05773 0
M  V30 2222 C 199.703 -1.40571 1.26635 0
M  V30 2223 O 199.046 -1.81105 0.30769 0
M  V30 2224 C 199.108 -0.613551 3.54226 0
M  V30 2225 C 198.772 0.49484 4.54313 0
M  V30 2226 C 199.769 1.3541 5.01956 0
M  V30 2227 C 197.454 0.663565 4.97898 0
M  V30 2228 C 199.448 2.36716 5.91814 0
M  V30 2229 C 197.135 1.67996 5.87555 0
M  V30 2230 C 198.133 2.53017 6.34406 0
M  V30 2231 O 197.821 3.52917 7.22291 0
M  V30 2232 H 197.553 -0.030077 0.675331 0
M  V30 2233 H 200.107 0.560708 1.97599 0
M  V30 2234 H 198.337 -1.411 3.60038 0
M  V30 2235 H 200.026 -1.11981 3.90148 0
M  V30 2236 H 200.792 1.23509 4.6901 0
M  V30 2237 H 196.671 0.0114913 4.60999 0
M  V30 2238 H 200.215 3.03113 6.28306 0
M  V30 2239 H 196.112 1.79933 6.19915 0
M  V30 2240 H 196.88 3.48996 7.40367 0
M  V30 2241 N 199.544 -1.57102 0.125237 0
M  V30 2242 C 200.477 -2.11371 -0.860094 0
M  V30 2243 C 201.455 -1.03168 -1.25679 0
M  V30 2244 O 202.639 -1.30862 -1.35674 0
M  V30 2245 C 199.766 -2.61555 -2.1519 0
M  V30 2246 C 198.812 -3.81701 -1.9028 0
M  V30 2247 S 199.645 -5.23797 -1.11343 0
M  V30 2248 C 200.801 -5.77353 -2.41689 0
M  V30 2249 H 201.034 -2.94617 -0.39852 0
M  V30 2250 H 198.567 -1.54145 -0.0886555 0
M  V30 2251 H 200.525 -2.91122 -2.89411 0
M  V30 2252 H 199.186 -1.78479 -2.58465 0
M  V30 2253 H 198.379 -4.14985 -2.86014 0
M  V30 2254 H 197.981 -3.52783 -1.24178 0
M  V30 2255 H 200.273 -5.87458 -3.37489 0
M  V30 2256 H 201.216 -6.75323 -2.12942 0
M  V30 2257 H 201.624 -5.05457 -2.51342 0
M  V30 2258 N 201.022 0.148545 -1.56898 0
M  V30 2259 C 202.268 0.862694 -1.83536 0
M  V30 2260 C 202.601 1.80889 -0.706604 0
M  V30 2261 O 201.876 1.92328 0.289885 0
M  V30 2262 C 202.159 1.63853 -3.20662 0
M  V30 2263 C 202.012 0.713925 -4.44098 0
M  V30 2264 C 203.331 2.60133 -3.54991 0
M  V30 2265 H 200.45 0.312179 -0.667618 0
M  V30 2266 H 203.092 0.127953 -1.89569 0
M  V30 2267 H 201.242 2.26489 -3.1565 0
M  V30 2268 H 202.914 0.098686 -4.61194 0
M  V30 2269 H 201.157 0.0234019 -4.33794 0
M  V30 2270 H 201.828 1.29278 -5.36648 0
M  V30 2271 H 204.304 2.07616 -3.60603 0
M  V30 2272 H 203.18 3.11468 -4.51972 0
M  V30 2273 H 203.441 3.41417 -2.80868 0
M  V30 2274 N 202.5 1.5196 0.417844 0
M  V30 2275 C 203.728 1.69426 1.18753 0
M  V30 2276 C 204.143 0.399955 1.84515 0
M  V30 2277 O 203.5 -0.623288 1.71527 0
M  V30 2278 C 203.551 2.82375 2.25714 0
M  V30 2279 O 203.272 4.06793 1.62638 0
M  V30 2280 C 204.773 3.11277 3.15628 0
M  V30 2281 H 201.993 0.568031 0.357186 0
M  V30 2282 H 204.537 1.98475 0.49273 0
M  V30 2283 H 202.692 2.5587 2.90877 0
M  V30 2284 H 203.106 4.69667 2.3348 0
M  V30 2285 H 204.58 3.93843 3.86771 0
M  V30 2286 H 205.057 2.24473 3.77503 0
M  V30 2287 H 205.663 3.39515 2.56144 0
M  V30 2288 N 203.978 -0.674533 1.42435 0
M  V30 2289 C 205.206 -1.46283 1.46317 0
M  V30 2290 C 205.621 -1.88653 0.0745836 0
M  V30 2291 O 204.978 -1.58151 -0.91074 0
M  V30 2292 C 205.029 -2.71178 2.3905 0
M  V30 2293 O 204.75 -2.30586 3.72507 0
M  V30 2294 C 206.251 -3.64738 2.51955 0
M  V30 2295 H 203.471 -0.450104 0.497642 0
M  V30 2296 H 206.015 -0.828792 1.86953 0
M  V30 2297 H 204.17 -3.3077 2.01667 0
M  V30 2298 H 204.584 -3.11241 4.22172 0
M  V30 2299 H 206.058 -4.49096 3.20962 0
M  V30 2300 H 206.535 -4.10656 1.55752 0
M  V30 2301 H 207.141 -3.11038 2.90061 0
M  V30 2302 N 205.456 -1.28612 -0.910864 0
M  V30 2303 C 206.705 -1.15311 -1.65488 0
M  V30 2304 C 207.018 0.296999 -1.93332 0
M  V30 2305 O 208.224 0.551168 -2.65847 0
M  V30 2306 C 206.68 -2.01599 -2.98137 0
M  V30 2307 C 206.288 -3.51367 -2.7793 0
M  V30 2308 C 208.032 -1.96993 -3.76024 0
M  V30 2309 C 205.939 -4.29797 -4.06237 0
M  V30 2310 H 204.869 -0.42796 -0.620779 0
M  V30 2311 H 207.52 -1.53166 -1.01057 0
M  V30 2312 H 205.902 -1.56603 -3.63719 0
M  V30 2313 H 207.076 -4.0434 -2.21011 0
M  V30 2314 H 205.391 -3.57529 -2.13452 0
M  V30 2315 H 207.988 -2.52856 -4.71135 0
M  V30 2316 H 208.331 -0.94733 -4.05378 0
M  V30 2317 H 208.864 -2.39973 -3.17266 0
M  V30 2318 H 205.603 -5.32648 -3.82055 0
M  V30 2319 H 205.123 -3.81596 -4.62757 0
M  V30 2320 H 206.802 -4.39869 -4.74473 0
M  V30 2321 N 206.934 1.1197 -1.10907 0
M  V30 2322 C 208.183 1.82947 -0.849302 0
M  V30 2323 C 208.496 1.85275 0.627112 0
M  V30 2324 O 209.702 2.52296 1.00295 0
M  V30 2325 C 208.158 3.28529 -1.46959 0
M  V30 2326 C 207.766 3.34546 -2.97965 0
M  V30 2327 C 209.51 4.04443 -1.28942 0
M  V30 2328 C 207.417 4.74491 -3.53004 0
M  V30 2329 H 206.347 0.685477 -0.314065 0
M  V30 2330 H 208.998 1.2604 -1.33365 0
M  V30 2331 H 207.38 3.85333 -0.912917 0
M  V30 2332 H 208.554 2.87654 -3.59989 0
M  V30 2333 H 206.869 2.72108 -3.15192 0
M  V30 2334 H 209.466 5.07787 -1.67502 0
M  V30 2335 H 209.809 4.15656 -0.231456 0
M  V30 2336 H 210.342 3.5401 -1.81443 0
M  V30 2337 H 207.081 4.68474 -4.58489 0
M  V30 2338 H 206.601 5.21816 -2.9575 0
M  V30 2339 H 208.28 5.4344 -3.51115 0
M  V30 2340 N 208.412 0.89855 1.29475 0
M  V30 2341 C 209.375 0.380272 2.26023 0
M  V30 2342 C 210.375 -0.484891 1.53315 0
M  V30 2343 O 211.565 -0.290108 1.71767 0
M  V30 2344 C 208.697 -0.45651 3.3783 0
M  V30 2345 H 209.89 1.23295 2.73383 0
M  V30 2346 H 207.443 0.676589 1.40897 0
M  V30 2347 H 208.178 -1.32922 2.95808 0
M  V30 2348 H 207.963 0.163393 3.91759 0
M  V30 2349 H 209.453 -0.810466 4.0966 0
M  V30 2350 N 209.89 -1.43072 0.660911 0
M  V30 2351 C 211.136 -2.0202 0.177708 0
M  V30 2352 C 211.469 -1.52066 -1.20787 0
M  V30 2353 O 210.744 -0.716987 -1.80802 0
M  V30 2354 C 211.027 -3.59561 0.197019 0
M  V30 2355 C 210.88 -4.19727 1.61706 0
M  V30 2356 C 212.199 -4.37664 -0.462396 0
M  V30 2357 H 209.318 -0.734034 0.0660494 0
M  V30 2358 H 211.96 -1.70272 0.843058 0
M  V30 2359 H 210.11 -3.86739 -0.369527 0
M  V30 2360 H 211.782 -4.03553 2.23479 0
M  V30 2361 H 210.025 -3.76084 2.16201 0
M  V30 2362 H 210.696 -5.28834 1.58237 0
M  V30 2363 H 213.172 -4.16095 0.0197215 0
M  V30 2364 H 212.048 -5.47305 -0.418188 0
M  V30 2365 H 212.309 -4.14493 -1.53778 0
M  V30 2366 N 211.368 -0.403325 -1.52352 0
M  V30 2367 C 212.615 0.174347 -2.01748 0
M  V30 2368 C 212.943 1.45636 -1.2892 0
M  V30 2369 O 212.198 1.9193 -0.382258 0
M  V30 2370 C 212.497 0.474665 -3.54234 0
M  V30 2371 C 212.163 -0.717458 -4.45155 0
M  V30 2372 C 210.825 -1.04447 -4.69728 0
M  V30 2373 C 213.177 -1.51432 -4.98716 0
M  V30 2374 C 210.505 -2.16963 -5.45109 0
M  V30 2375 C 212.857 -2.6302 -5.75329 0
M  V30 2376 C 211.521 -2.96213 -5.98175 0
M  V30 2377 H 210.791 0.0637981 -0.738248 0
M  V30 2378 H 213.438 -0.543553 -1.83624 0
M  V30 2379 H 211.743 1.27406 -3.70506 0
M  V30 2380 H 213.44 0.934496 -3.89959 0
M  V30 2381 H 210.03 -0.452596 -4.26204 0
M  V30 2382 H 214.214 -1.27491 -4.79645 0
M  V30 2383 H 209.47 -2.43034 -5.61021 0
M  V30 2384 H 213.644 -3.25158 -6.15829 0
M  V30 2385 H 211.271 -3.83516 -6.56368 0
M  V30 2386 N 212.846 1.57033 -0.133567 0
M  V30 2387 C 214.095 1.94861 0.520768 0
M  V30 2388 C 214.408 1.02012 1.66892 0
M  V30 2389 O 215.614 1.29365 2.38699 0
M  V30 2390 C 214.07 3.46362 0.977809 0
M  V30 2391 C 213.678 4.47773 -0.142674 0
M  V30 2392 C 215.422 3.93083 1.60269 0
M  V30 2393 C 213.329 5.90468 0.331883 0
M  V30 2394 H 212.259 0.727453 0.198315 0
M  V30 2395 H 214.91 1.82227 -0.215759 0
M  V30 2396 H 213.292 3.54282 1.7692 0
M  V30 2397 H 214.466 4.51536 -0.919317 0
M  V30 2398 H 212.781 4.10891 -0.675124 0
M  V30 2399 H 215.378 4.97121 1.96914 0
M  V30 2400 H 215.721 3.33876 2.48662 0
M  V30 2401 H 216.254 3.88025 0.876453 0
M  V30 2402 H 212.993 6.53463 -0.516341 0
M  V30 2403 H 212.513 5.90094 1.07469 0
M  V30 2404 H 214.192 6.42179 0.788332 0
M  V30 2405 N 214.325 -0.140222 1.56975 0
M  V30 2406 C 215.573 -0.850005 1.83356 0
M  V30 2407 C 215.894 -1.81399 0.71551 0
M  V30 2408 O 215.164 -1.94136 -0.262294 0
M  V30 2409 H 213.744 -0.316886 0.676456 0
M  V30 2410 H 216.406 -0.132608 1.94448 0
M  V30 2411 H 215.502 -1.40814 2.78528 0
M  V30 2412 N 215.803 -1.52179 -0.40978 0
M  V30 2413 C 217.052 -1.65434 -1.15388 0
M  V30 2414 C 217.365 -0.390056 -1.91671 0
M  V30 2415 O 218.571 -0.402399 -2.68501 0
M  V30 2416 C 217.027 -2.92279 -2.10003 0
M  V30 2417 C 216.635 -4.25813 -1.39239 0
M  V30 2418 C 218.379 -3.14897 -2.84675 0
M  V30 2419 C 216.286 -5.43782 -2.32498 0
M  V30 2420 H 215.216 -0.616267 -0.434432 0
M  V30 2421 H 217.867 -1.78666 -0.418401 0
M  V30 2422 H 216.249 -2.72744 -2.871 0
M  V30 2423 H 217.423 -4.55828 -0.675099 0
M  V30 2424 H 215.738 -4.09292 -0.766097 0
M  V30 2425 H 218.335 -4.0021 -3.54593 0
M  V30 2426 H 218.678 -2.29103 -3.47588 0
M  V30 2427 H 219.211 -3.34901 -2.14677 0
M  V30 2428 H 215.95 -6.3192 -1.74233 0
M  V30 2429 H 215.47 -5.18106 -3.02201 0
M  V30 2430 H 217.149 -5.76834 -2.93038 0
M  V30 2431 N 217.281 0.66697 -1.42791 0
M  V30 2432 C 218.211 1.79218 -1.49677 0
M  V30 2433 C 219.192 1.66405 -0.352623 0
M  V30 2434 O 220.377 1.85708 -0.567993 0
M  V30 2435 C 217.507 3.17565 -1.40605 0
M  V30 2436 C 216.461 3.45124 -2.53127 0
M  V30 2437 C 215.787 4.83127 -2.29112 0
M  V30 2438 C 217.087 3.41236 -3.95418 0
M  V30 2439 H 218.781 1.73713 -2.43853 0
M  V30 2440 H 216.327 0.83432 -1.17367 0
M  V30 2441 H 218.28 3.96022 -1.44029 0
M  V30 2442 H 217.004 3.23767 -0.429271 0
M  V30 2443 H 215.663 2.69031 -2.49034 0
M  V30 2444 H 215.311 4.85988 -1.29709 0
M  V30 2445 H 215.011 5.02528 -3.04531 0
M  V30 2446 H 216.535 5.63859 -2.34297 0
M  V30 2447 H 217.949 4.09651 -4.01073 0
M  V30 2448 H 216.346 3.72173 -4.70752 0
M  V30 2449 H 217.416 2.39665 -4.21532 0
M  V30 2450 N 218.759 1.29093 0.90403 0
M  V30 2451 C 219.692 1.08176 2.00931 0
M  V30 2452 C 220.67 -0.005083 1.62599 0
M  V30 2453 O 221.854 0.144765 1.87943 0
M  V30 2454 C 218.981 0.645897 3.32484 0
M  V30 2455 C 218.027 1.73081 3.89801 0
M  V30 2456 S 218.86 3.32905 4.19446 0
M  V30 2457 C 220.016 2.91176 5.54046 0
M  V30 2458 H 220.249 2.01752 2.18365 0
M  V30 2459 H 217.782 1.13191 1.0501 0
M  V30 2460 H 219.74 0.401131 4.08535 0
M  V30 2461 H 218.401 -0.270188 3.12936 0
M  V30 2462 H 217.594 1.37768 4.84805 0
M  V30 2463 H 217.196 1.92888 3.20422 0
M  V30 2464 H 219.488 2.37952 6.34338 0
M  V30 2465 H 220.431 3.85014 5.94281 0
M  V30 2466 H 220.839 2.296 5.15698 0
M  V30 2467 N 220.237 -1.11381 1.11499 0
M  V30 2468 C 221.483 -1.83403 0.865512 0
M  V30 2469 C 221.816 -1.84459 -0.607329 0
M  V30 2470 O 221.091 -1.29811 -1.44842 0
M  V30 2471 C 221.374 -3.30552 1.42855 0
M  V30 2472 C 221.227 -3.37886 2.96906 0
M  V30 2473 C 222.546 -4.26643 1.08 0
M  V30 2474 H 219.665 -0.665879 0.31587 0
M  V30 2475 H 222.307 -1.30601 1.37998 0
M  V30 2476 H 220.457 -3.75648 0.990985 0
M  V30 2477 H 222.129 -3.01343 3.49271 0
M  V30 2478 H 220.372 -2.78088 3.32941 0
M  V30 2479 H 221.043 -4.41458 3.31389 0
M  V30 2480 H 223.519 -3.89729 1.45775 0
M  V30 2481 H 222.395 -5.27986 1.50072 0
M  V30 2482 H 222.656 -4.42099 -0.00915037 0
M  V30 2483 N 221.715 -0.905404 -1.28997 0
M  V30 2484 C 222.943 -0.549846 -1.9946 0
M  V30 2485 C 223.358 0.866834 -1.67724 0
M  V30 2486 O 222.715 1.57298 -0.925404 0
M  V30 2487 C 222.766 -0.739387 -3.53858 0
M  V30 2488 O 222.487 -2.10031 -3.84472 0
M  V30 2489 C 223.988 -0.389541 -4.41585 0
M  V30 2490 H 221.208 -0.210429 -0.637151 0
M  V30 2491 H 223.752 -1.21632 -1.64396 0
M  V30 2492 H 221.907 -0.120023 -3.87214 0
M  V30 2493 H 222.321 -2.13385 -4.79132 0
M  V30 2494 H 223.795 -0.572972 -5.49018 0
M  V30 2495 H 224.272 0.673756 -4.34001 0
M  V30 2496 H 224.878 -0.986089 -4.1371 0
M  V30 2497 N 223.193 1.4272 -0.668489 0
M  V30 2498 C 224.442 2.00846 -0.185389 0
M  V30 2499 C 224.755 1.53442 1.21305 0
M  V30 2500 O 225.961 2.03944 1.79218 0
M  V30 2501 C 224.417 3.58805 -0.280591 0
M  V30 2502 C 224.025 4.15198 -1.68268 0
M  V30 2503 C 225.769 4.24255 0.14412 0
M  V30 2504 C 223.676 5.655 -1.73099 0
M  V30 2505 H 222.606 0.751145 -0.0655475 0
M  V30 2506 H 225.257 1.63516 -0.832752 0
M  V30 2507 H 223.639 3.93608 0.434553 0
M  V30 2508 H 224.813 3.91866 -2.42441 0
M  V30 2509 H 223.128 3.62176 -2.05469 0
M  V30 2510 H 225.725 5.34547 0.128086 0
M  V30 2511 H 226.068 3.99277 1.17827 0
M  V30 2512 H 226.601 3.94389 -0.519798 0
M  V30 2513 H 223.34 5.95268 -2.74475 0
M  V30 2514 H 222.86 5.90842 -1.03274 0
M  V30 2515 H 224.539 6.29808 -1.48158 0
M  V30 2516 N 224.671 0.411399 1.52136 0
M  V30 2517 C 225.92 -0.165009 2.01024 0
M  V30 2518 C 226.233 -1.4603 1.30133 0
M  V30 2519 O 227.439 -2.1181 1.69849 0
M  V30 2520 C 225.895 -0.344618 3.58246 0
M  V30 2521 C 225.503 0.938716 4.38055 0
M  V30 2522 C 227.247 -0.876195 4.15359 0
M  V30 2523 C 225.154 0.726172 5.86925 0
M  V30 2524 H 224.084 -0.0654407 0.751155 0
M  V30 2525 H 226.735 0.537192 1.75461 0
M  V30 2526 H 225.117 -1.10921 3.80148 0
M  V30 2527 H 226.291 1.70963 4.27912 0
M  V30 2528 H 224.606 1.39688 3.92271 0
M  V30 2529 H 227.203 -1.05128 5.24263 0
M  V30 2530 H 227.546 -1.85152 3.7286 0
M  V30 2531 H 228.079 -0.170607 3.97434 0
M  V30 2532 H 224.818 1.67312 6.33788 0
M  V30 2533 H 224.338 -0.00540283 5.998 0
M  V30 2534 H 226.017 0.369231 6.45946 0
M  V30 2535 N 226.149 -1.5696 0.141893 0
M  V30 2536 C 227.099 -2.13074 -0.811383 0
M  V30 2537 C 228.083 -1.05726 -1.21288 0
M  V30 2538 O 229.275 -1.31914 -1.18015 0
M  V30 2539 C 226.404 -2.75186 -2.0525 0
M  V30 2540 C 225.49 -3.8965 -1.67432 0
M  V30 2541 N 225.881 -4.95733 -1.0041 0
M  V30 2542 C 224.179 -4.00262 -1.96739 0
M  V30 2543 C 224.88 -5.75858 -0.822345 0
M  V30 2544 N 223.856 -5.26452 -1.3546 0
M  V30 2545 H 227.658 -2.92465 -0.290031 0
M  V30 2546 H 225.172 -1.6229 -0.0598218 0
M  V30 2547 H 227.169 -3.13745 -2.74535 0
M  V30 2548 H 225.829 -1.97266 -2.57907 0
M  V30 2549 H 226.84 -5.13607 -0.665441 0
M  V30 2550 H 223.517 -3.33412 -2.51282 0
M  V30 2551 H 224.907 -6.71254 -0.294496 0
M  V30 2552 N 227.627 0.131896 -1.57047 0
M  V30 2553 C 229.038 0.690407 -1.73465 0
M  V30 2554 C 229.389 1.8094 -0.758629 0
M  V30 2555 O 228.514 2.16282 0.0713813 0
M  V30 2556 C 229.109 1.25916 -3.14532 0
M  V30 2557 C 227.668 1.76409 -3.32501 0
M  V30 2558 C 226.815 0.658579 -2.69366 0
M  V30 2559 H 229.766 -0.0939144 -1.58422 0
M  V30 2560 H 229.787 2.12892 -3.15369 0
M  V30 2561 H 229.299 0.444515 -3.85546 0
M  V30 2562 H 227.4 2.60391 -2.66509 0
M  V30 2563 H 227.513 1.88241 -4.4057 0
M  V30 2564 H 225.877 1.08899 -2.30246 0
M  V30 2565 H 226.66 -0.14487 -3.42994 0
M  V30 2566 N 229.106 1.52395 0.401703 0
M  V30 2567 C 230.354 1.66488 1.14569 0
M  V30 2568 C 230.675 0.400897 1.90835 0
M  V30 2569 O 229.945 -0.584415 1.8698 0
M  V30 2570 H 228.525 0.613672 0.425929 0
M  V30 2571 H 231.187 1.89464 0.457093 0
M  V30 2572 H 230.283 2.50942 1.85566 0
M  V30 2573 N 230.584 -0.659388 1.43143 0
M  V30 2574 C 231.531 -1.77249 1.47822 0
M  V30 2575 C 232.501 -1.62818 0.328558 0
M  V30 2576 O 233.686 -1.83151 0.534838 0
M  V30 2577 C 230.826 -3.15371 1.40126 0
M  V30 2578 C 229.939 -3.4098 2.65249 0
M  V30 2579 C 229.074 -4.68915 2.49584 0
M  V30 2580 C 228.113 -4.87608 3.70006 0
M  V30 2581 N 227.25 -6.06796 3.53189 0
M  V30 2582 H 232.09 -1.72584 2.42938 0
M  V30 2583 H 229.627 -0.842297 1.20598 0
M  V30 2584 H 231.585 -3.9521 1.33659 0
M  V30 2585 H 230.215 -3.19121 0.485964 0
M  V30 2586 H 229.267 -2.55282 2.8202 0
M  V30 2587 H 230.579 -3.50681 3.54717 0
M  V30 2588 H 229.733 -5.56871 2.4079 0
M  V30 2589 H 228.472 -4.61524 1.5763 0
M  V30 2590 H 227.477 -3.9809 3.79215 0
M  V30 2591 H 228.702 -4.96834 4.62961 0
M  V30 2592 H 226.648 -6.00549 2.63965 0
M  V30 2593 H 226.565 -6.17428 4.36255 0
M  V30 2594 H 227.833 -6.9739 3.48236 0
M  V30 2595 N 232.062 -1.29571 -0.897171 0
M  V30 2596 C 233.31 -1.17456 -1.64464 0
M  V30 2597 C 233.631 0.273698 -1.9307 0
M  V30 2598 O 232.901 1.18684 -1.55855 0
M  V30 2599 H 231.481 -0.431706 -0.609622 0
M  V30 2600 H 234.143 -1.62531 -1.07562 0
M  V30 2601 H 233.239 -1.72648 -2.59998 0
M  V30 2602 N 233.54 1.10788 -1.12088 0
M  V30 2603 C 234.765 1.87002 -0.896949 0
M  V30 2604 C 235.19 1.79933 0.548261 0
M  V30 2605 O 234.548 1.16662 1.38779 0
M  V30 2606 C 234.596 3.3349 -1.37174 0
M  V30 2607 O 233.7 4.08745 -0.547831 0
M  V30 2608 H 233.041 0.580397 -0.322545 0
M  V30 2609 H 235.571 1.39996 -1.49206 0
M  V30 2610 H 235.581 3.84339 -1.36922 0
M  V30 2611 H 234.256 3.37951 -2.42408 0
M  V30 2612 H 232.833 3.6776 -0.617034 0
M  V30 2613 N 235.018 0.912232 1.28515 0
M  V30 2614 C 235.965 0.397954 2.27343 0
M  V30 2615 C 236.935 -0.526766 1.57526 0
M  V30 2616 O 238.12 -0.449292 1.85435 0
M  V30 2617 C 235.26 -0.357263 3.43246 0
M  V30 2618 C 234.373 0.599788 4.27816 0
M  V30 2619 C 233.508 -0.173725 5.30916 0
M  V30 2620 C 232.547 0.777039 6.07148 0
M  V30 2621 N 231.684 0.0371398 7.0209 0
M  V30 2622 H 236.524 1.24577 2.70711 0
M  V30 2623 H 234.061 0.625612 1.33133 0
M  V30 2624 H 236.019 -0.8113 4.09236 0
M  V30 2625 H 234.649 -1.16943 3.00872 0
M  V30 2626 H 233.701 1.17235 3.61884 0
M  V30 2627 H 235.013 1.32704 4.80823 0
M  V30 2628 H 234.167 -0.688394 6.02782 0
M  V30 2629 H 232.906 -0.934041 4.78672 0
M  V30 2630 H 231.911 1.3031 5.34134 0
M  V30 2631 H 233.136 1.53689 6.61481 0
M  V30 2632 H 231.082 -0.705213 6.52198 0
M  V30 2633 H 230.999 0.704249 7.52713 0
M  V30 2634 H 232.267 -0.457383 7.78157 0
M  V30 2635 N 236.496 -1.42363 0.676048 0
M  V30 2636 C 237.406 -2.346 -0.00153389 0
M  V30 2637 C 238.422 -1.5516 -0.787485 0
M  V30 2638 O 239.598 -1.87723 -0.729521 0
M  V30 2639 C 236.663 -3.33705 -0.940298 0
M  V30 2640 C 235.724 -4.29042 -0.148739 0
M  V30 2641 C 234.957 -5.23413 -1.04279 0
M  V30 2642 O 235.18 -5.22749 -2.28232 0
M  V30 2643 O 234.114 -5.99795 -0.502925 0
M  V30 2644 H 237.94 -2.94082 0.758268 0
M  V30 2645 H 235.525 -1.42888 0.436289 0
M  V30 2646 H 237.407 -3.94586 -1.47917 0
M  V30 2647 H 236.082 -2.76695 -1.67993 0
M  V30 2648 H 234.989 -3.71571 0.43427 0
M  V30 2649 H 236.322 -4.89097 0.551805 0
M  V30 2650 N 237.974 -0.419461 -1.51915 0
M  V30 2651 C 239.222 0.152637 -2.01523 0
M  V30 2652 C 239.543 1.44762 -1.30649 0
M  V30 2653 O 238.813 1.90997 -0.435535 0
M  V30 2654 H 237.393 0.0593966 -0.744635 0
M  V30 2655 H 240.055 -0.558073 -1.86739 0
M  V30 2656 H 239.151 0.341369 -3.10227 0
M  V30 2657 N 239.452 1.56882 -0.150215 0
M  V30 2658 C 240.382 2.19935 0.784284 0
M  V30 2659 C 241.363 1.14854 1.25469 0
M  V30 2660 O 242.548 1.43209 1.31168 0
M  V30 2661 C 239.678 2.82349 2.02229 0
M  V30 2662 C 238.632 3.93285 1.68853 0
M  V30 2663 C 237.958 4.42649 2.99944 0
M  V30 2664 C 239.258 5.13904 0.932714 0
M  V30 2665 H 240.952 2.9828 0.258781 0
M  V30 2666 H 238.498 1.43473 0.123029 0
M  V30 2667 H 240.451 3.25126 2.68088 0
M  V30 2668 H 239.175 2.0134 2.57157 0
M  V30 2669 H 237.834 3.5113 1.05371 0
M  V30 2670 H 237.482 3.58458 3.52869 0
M  V30 2671 H 237.182 5.17476 2.78374 0
M  V30 2672 H 238.706 4.88099 3.66868 0
M  V30 2673 H 240.12 5.53506 1.49345 0
M  V30 2674 H 238.517 5.94515 0.81684 0
M  V30 2675 H 239.587 4.84842 -0.0749568 0
M  V30 2676 N 240.93 -0.123565 1.57115 0
M  V30 2677 C 241.88 -1.1575 1.96433 0
M  V30 2678 C 242.864 -1.37313 0.838686 0
M  V30 2679 O 244.056 -1.38482 1.10235 0
M  V30 2680 C 241.185 -2.48526 2.36833 0
M  V30 2681 C 240.271 -2.30457 3.5602 0
M  V30 2682 N 240.662 -1.8219 4.71848 0
M  V30 2683 C 238.96 -2.61129 3.61563 0
M  V30 2684 C 239.661 -1.77721 5.53886 0
M  V30 2685 N 238.637 -2.21899 4.96248 0
M  V30 2686 H 242.439 -0.776797 2.83449 0
M  V30 2687 H 239.953 -0.331364 1.58983 0
M  V30 2688 H 241.95 -3.233 2.63216 0
M  V30 2689 H 240.61 -2.87358 1.5118 0
M  V30 2690 H 241.621 -1.51805 4.95152 0
M  V30 2691 H 238.298 -3.03678 2.86507 0
M  V30 2692 H 239.688 -1.41697 6.56789 0
M  V30 2693 N 242.408 -1.52605 -0.393616 0
M  V30 2694 C 243.824 -1.41753 -0.733357 0
M  V30 2695 C 244.024 -0.534293 -1.94287 0
M  V30 2696 O 243.08 -0.0059787 -2.52499 0
M  V30 2697 C 244.393 -2.84531 -0.972772 0
M  V30 2698 C 245.941 -2.93978 -1.07453 0
M  V30 2699 C 246.416 -4.37756 -1.3466 0
M  V30 2700 N 247.907 -4.4106 -1.41492 0
M  V30 2701 C 248.642 -5.49387 -1.642 0
M  V30 2702 N 248.138 -6.67806 -1.8441 0
M  V30 2703 N 249.931 -5.36923 -1.66342 0
M  V30 2704 H 242.082 -2.08555 0.402328 0
M  V30 2705 H 244.345 -0.940654 0.117789 0
M  V30 2706 H 244.051 -3.51353 -0.156204 0
M  V30 2707 H 243.925 -3.26508 -1.88871 0
M  V30 2708 H 246.312 -2.27326 -1.88167 0
M  V30 2709 H 246.393 -2.55435 -0.136605 0
M  V30 2710 H 246.037 -5.04972 -0.544581 0
M  V30 2711 H 245.967 -4.73848 -2.2973 0
M  V30 2712 H 248.458 -3.55705 -1.27601 0
M  V30 2713 H 248.771 -7.46141 -2.01231 0
M  V30 2714 H 247.116 -6.70843 -1.81644 0
M  V30 2715 H 250.307 -4.43381 -1.50102 0
M  V30 2716 H 250.48 -6.21416 -1.837 0
M  V30 2717 N 243.887 0.651787 -1.4349 0
M  V30 2718 C 244.797 1.79368 -1.5121 0
M  V30 2719 C 245.813 1.69361 -0.399093 0
M  V30 2720 O 246.989 1.90505 -0.653431 0
M  V30 2721 C 244.054 3.15653 -1.43401 0
M  V30 2722 C 243.115 3.37446 -2.65384 0
M  V30 2723 C 242.348 4.67229 -2.57939 0
M  V30 2724 O 242.571 5.46676 -1.62792 0
M  V30 2725 O 241.505 4.90773 -3.48462 0
M  V30 2726 H 245.331 1.7581 -2.47638 0
M  V30 2727 H 242.916 0.810447 -1.25507 0
M  V30 2728 H 244.798 3.96935 -1.41494 0
M  V30 2729 H 243.473 3.19798 -0.501085 0
M  V30 2730 H 242.38 2.55923 -2.72863 0
M  V30 2731 H 243.713 3.38148 -3.57654 0
M  V30 2732 N 245.365 1.30045 0.890287 0
M  V30 2733 C 246.613 1.18327 1.63839 0
M  V30 2734 C 246.934 -0.263455 1.93212 0
M  V30 2735 O 246.204 -1.17856 1.56482 0
M  V30 2736 H 244.784 0.434933 0.607324 0
M  V30 2737 H 247.446 1.631 1.06698 0
M  V30 2738 H 246.542 1.74024 2.59079 0
M  V30 2739 N 246.843 -1.10192 1.12674 0
M  V30 2740 C 248.259 -1.34235 0.863317 0
M  V30 2741 C 248.459 -1.95062 -0.505277 0
M  V30 2742 O 247.515 -2.19192 -1.25345 0
M  V30 2743 C 248.828 -2.2616 1.98172 0
M  V30 2744 C 250.376 -2.3969 2.0129 0
M  V30 2745 C 250.851 -3.34946 3.1237 0
M  V30 2746 N 252.342 -3.42515 3.11829 0
M  V30 2747 C 253.077 -4.16199 3.94419 0
M  V30 2748 N 252.573 -4.92747 4.87004 0
M  V30 2749 N 254.366 -4.11843 3.82547 0
M  V30 2750 H 246.517 -0.690798 2.00853 0
M  V30 2751 H 248.78 -0.366774 0.874174 0
M  V30 2752 H 248.486 -1.8868 2.96804 0
M  V30 2753 H 248.36 -3.26488 1.88906 0
M  V30 2754 H 250.747 -2.76438 1.03276 0
M  V30 2755 H 250.828 -1.39169 2.14629 0
M  V30 2756 H 250.472 -2.98923 4.10619 0
M  V30 2757 H 250.402 -4.35353 2.96269 0
M  V30 2758 H 252.893 -2.87926 2.44759 0
M  V30 2759 H 253.206 -5.46376 5.46528 0
M  V30 2760 H 251.551 -4.91862 4.91016 0
M  V30 2761 H 254.742 -3.51136 3.0955 0
M  V30 2762 H 254.915 -4.69007 4.47142 0
M  V30 2763 N 248.321 -0.919034 -1.28029 0
M  V30 2764 C 249.57 -0.550802 -1.94034 0
M  V30 2765 C 249.883 0.910877 -1.73096 0
M  V30 2766 O 251.089 1.3875 -2.33368 0
M  V30 2767 C 249.545 -0.934249 -3.47563 0
M  V30 2768 C 249.153 -2.41602 -3.7727 0
M  V30 2769 C 250.897 -0.636854 -4.19696 0
M  V30 2770 C 248.804 -2.73932 -5.24133 0
M  V30 2771 H 247.734 -0.202273 -0.726362 0
M  V30 2772 H 250.385 -1.11867 -1.45458 0
M  V30 2773 H 248.767 -0.295115 -3.94899 0
M  V30 2774 H 249.941 -3.10233 -3.40723 0
M  V30 2775 H 248.256 -2.68441 -3.18321 0
M  V30 2776 H 250.853 -0.855005 -5.2782 0
M  V30 2777 H 251.196 0.425575 -4.14119 0
M  V30 2778 H 251.729 -1.23469 -3.78154 0
M  V30 2779 H 248.468 -3.79049 -5.34792 0
M  V30 2780 H 247.988 -2.09942 -5.61858 0
M  V30 2781 H 249.667 -2.61215 -5.91925 0
M  V30 2782 N 249.799 1.42003 -0.683588 0
M  V30 2783 C 250.709 2.34597 -0.0109075 0
M  V30 2784 C 251.725 1.55576 0.779245 0
M  V30 2785 O 252.901 1.88107 0.719555 0
M  V30 2786 C 249.966 3.34199 0.922588 0
M  V30 2787 C 249.027 4.29115 0.125984 0
M  V30 2788 C 248.26 5.23959 1.01502 0
M  V30 2789 O 248.483 5.23952 2.25456 0
M  V30 2790 O 247.417 6.00053 0.47111 0
M  V30 2791 H 251.243 2.93675 -0.773853 0
M  V30 2792 H 248.828 1.42654 -0.443861 0
M  V30 2793 H 250.71 3.95365 1.45823 0
M  V30 2794 H 249.385 2.77582 1.66523 0
M  V30 2795 H 248.292 3.71335 -0.453969 0
M  V30 2796 H 249.625 4.88798 -0.577736 0
M  V30 2797 N 251.277 0.427512 1.51691 0
M  V30 2798 C 252.505 -0.141191 2.06418 0
M  V30 2799 C 252.92 -1.37303 1.29589 0
M  V30 2800 O 252.277 -1.79059 0.352732 0
M  V30 2801 C 252.328 -0.473266 3.58389 0
M  V30 2802 O 252.049 0.709673 4.32314 0
M  V30 2803 C 253.55 -1.09371 4.29596 0
M  V30 2804 H 250.77 -0.0122747 0.670888 0
M  V30 2805 H 253.314 0.603764 1.95384 0
M  V30 2806 H 251.469 -1.16812 3.69369 0
M  V30 2807 H 251.883 0.42807 5.2275 0
M  V30 2808 H 253.357 -1.27613 5.37046 0
M  V30 2809 H 253.834 -2.072 3.87253 0
M  V30 2810 H 254.44 -0.43853 4.23033 0
M  V30 2811 N 252.755 -1.56801 0.158532 0
M  V30 2812 C 254.004 -1.95665 -0.489702 0
M  V30 2813 C 254.317 -1.04654 -1.65248 0
M  V30 2814 O 255.523 -1.33146 -2.3661 0
M  V30 2815 C 253.979 -3.47874 -0.922582 0
M  V30 2816 C 253.587 -4.47489 0.213893 0
M  V30 2817 C 255.331 -3.95583 -1.53996 0
M  V30 2818 C 253.238 -5.90921 -0.237903 0
M  V30 2819 H 252.168 -0.730516 -0.186716 0
M  V30 2820 H 254.819 -1.81861 0.244722 0
M  V30 2821 H 253.201 -3.57051 -1.71261 0
M  V30 2822 H 254.375 -4.50017 0.991036 0
M  V30 2823 H 252.69 -4.09764 0.740407 0
M  V30 2824 H 255.287 -5.0019 -1.8898 0
M  V30 2825 H 255.63 -3.37789 -2.43319 0
M  V30 2826 H 256.163 -3.8937 -0.814611 0
M  V30 2827 H 252.902 -6.52559 0.620236 0
M  V30 2828 H 252.422 -5.91729 -0.980676 0
M  V30 2829 H 254.101 -6.43352 -0.686067 0
M  V30 2830 N 254.233 0.115231 -1.57178 0
M  V30 2831 C 255.644 0.67197 -1.74188 0
M  V30 2832 C 255.995 1.80125 -0.777777 0
M  V30 2833 O 255.12 2.16346 0.0484376 0
M  V30 2834 C 255.715 1.22573 -3.1585 0
M  V30 2835 C 254.274 1.72872 -3.34353 0
M  V30 2836 C 253.421 0.629972 -2.70049 0
M  V30 2837 H 256.372 -0.110712 -1.58313 0
M  V30 2838 H 256.393 2.09535 -3.17609 0
M  V30 2839 H 255.905 0.403598 -3.85996 0
M  V30 2840 H 254.006 2.5755 -2.69256 0
M  V30 2841 H 254.119 1.83557 -4.42542 0
M  V30 2842 H 252.483 1.0645 -2.31388 0
M  V30 2843 H 253.266 -0.181241 -3.42821 0
M  V30 2844 N 255.711 1.52812 0.385517 0
M  V30 2845 C 256.939 1.71907 1.15133 0
M  V30 2846 C 257.354 0.439004 1.83625 0
M  V30 2847 O 256.711 -0.586765 1.7281 0
M  V30 2848 C 256.762 2.87099 2.19673 0
M  V30 2849 O 256.483 4.10151 1.53973 0
M  V30 2850 C 257.984 3.17902 3.08955 0
M  V30 2851 H 255.204 0.575479 0.345057 0
M  V30 2852 H 257.748 1.99476 0.45052 0
M  V30 2853 H 255.903 2.61982 2.85384 0
M  V30 2854 H 256.317 4.74514 2.23465 0
M  V30 2855 H 257.791 4.01959 3.7833 0
M  V30 2856 H 258.268 2.3243 3.72657 0
M  V30 2857 H 258.874 3.44871 2.48885 0
M  V30 2858 N 257.189 -0.644168 1.43834 0
M  V30 2859 C 258.152 -1.73857 1.49353 0
M  V30 2860 C 259.152 -1.56315 0.377112 0
M  V30 2861 O 260.342 -1.62048 0.639226 0
M  V30 2862 C 257.474 -3.12819 1.35488 0
M  V30 2863 H 258.667 -1.70342 2.46827 0
M  V30 2864 H 256.22 -0.856652 1.30733 0
M  V30 2865 H 256.955 -3.2194 0.390569 0
M  V30 2866 H 256.74 -3.26958 2.16428 0
M  V30 2867 H 258.23 -3.92606 1.42302 0
M  V30 2868 N 258.668 -1.30515 -0.883378 0
M  V30 2869 C 259.945 -1.10086 -1.6168 0
M  V30 2870 C 260.325 0.349269 -2.08191 0
M  V30 2871 O 259.673 1.34105 -1.85008 0
M  V30 2872 C 259.883 -2.10315 -2.78511 0
M  V30 2873 C 261.231 -2.42119 -3.48803 0
M  V30 2874 O 262.255 -2.08638 -2.88702 0
M  V30 2875 O 261.114 -2.99396 -4.57192 0
M  V30 2876 H 258.208 -0.422907 -0.710689 0
M  V30 2877 H 260.754 -1.41947 -0.930015 0
M  V30 2878 H 259.526 -3.07917 -2.41459 0
M  V30 2879 H 259.149 -1.79282 -3.54886 0
M  V30 2880 N 260.146 1.09593 -1.13257 0
M  V30 2881 C 261.109 2.14359 -0.811358 0
M  V30 2882 C 262.109 1.59808 0.178377 0
M  V30 2883 O 263.299 1.74132 -0.0484911 0
M  V30 2884 C 260.431 3.40269 -0.207276 0
M  V30 2885 H 261.624 2.44284 -1.73969 0
M  V30 2886 H 259.177 1.25102 -0.936973 0
M  V30 2887 H 259.912 3.15969 0.73036 0
M  V30 2888 H 259.697 3.81154 -0.919992 0
M  V30 2889 H 261.187 4.176 0.000667944 0
M  V30 2890 N 261.624 0.925811 1.2754 0
M  V30 2891 C 262.871 0.565255 1.94451 0
M  V30 2892 C 263.199 -0.89316 1.7278 0
M  V30 2893 O 262.454 -1.65213 1.04895 0
M  V30 2894 C 262.753 0.835296 3.47502 0
M  V30 2895 C 262.419 2.27515 3.89291 0
M  V30 2896 C 261.081 2.66879 4.00411 0
M  V30 2897 C 263.433 3.21158 4.10496 0
M  V30 2898 C 260.761 3.99014 4.30122 0
M  V30 2899 C 263.113 4.52871 4.4169 0
M  V30 2900 C 261.777 4.92072 4.51023 0
M  V30 2901 H 261.047 0.206841 0.711546 0
M  V30 2902 H 263.694 1.16942 1.51647 0
M  V30 2903 H 261.999 0.148442 3.91519 0
M  V30 2904 H 263.696 0.535322 3.97411 0
M  V30 2905 H 260.286 1.95976 3.81171 0
M  V30 2906 H 264.47 2.9195 4.01346 0
M  V30 2907 H 259.726 4.2907 4.35556 0
M  V30 2908 H 263.9 5.25436 4.57045 0
M  V30 2909 H 261.527 5.9449 4.738 0
M  V30 2910 N 263.102 -1.41638 0.69111 0
M  V30 2911 C 264.035 -2.28183 -0.0274913 0
M  V30 2912 C 265.013 -1.41984 -0.792424 0
M  V30 2913 O 266.197 -1.71415 -0.784169 0
M  V30 2914 C 263.324 -3.22135 -1.04628 0
M  V30 2915 C 262.37 -4.24848 -0.375037 0
M  V30 2916 S 263.203 -5.28231 0.879321 0
M  V30 2917 C 264.359 -6.25748 -0.137983 0
M  V30 2918 H 264.592 -2.88782 0.706553 0
M  V30 2919 H 262.125 -1.46709 0.481222 0
M  V30 2920 H 264.083 -3.76797 -1.62894 0
M  V30 2921 H 262.744 -2.6064 -1.75287 0
M  V30 2922 H 261.937 -4.90837 -1.14433 0
M  V30 2923 H 261.539 -3.73758 0.134434 0
M  V30 2924 H 263.831 -6.70188 -0.992659 0
M  V30 2925 H 264.774 -7.06417 0.487867 0
M  V30 2926 H 265.182 -5.62363 -0.490762 0
M  V30 2927 N 264.58 -0.43555 -1.51462 0
M  V30 2928 C 265.857 0.191364 -1.94662 0
M  V30 2929 C 266.237 1.60254 -1.37411 0
M  V30 2930 O 265.585 2.2152 -0.560458 0
M  V30 2931 C 265.795 0.17091 -3.48581 0
M  V30 2932 C 267.143 0.377357 -4.2292 0
M  V30 2933 O 268.167 0.249104 -3.55328 0
M  V30 2934 O 267.026 0.63247 -5.42828 0
M  V30 2935 H 264.12 0.130932 -0.816569 0
M  V30 2936 H 266.666 -0.4934 -1.62369 0
M  V30 2937 H 265.438 -0.815738 -3.82703 0
M  V30 2938 H 265.061 0.898659 -3.87311 0
M  V30 2939 N 266.058 1.56714 -0.166846 0
M  V30 2940 C 266.988 2.20754 0.760913 0
M  V30 2941 C 267.969 1.16178 1.24244 0
M  V30 2942 O 269.154 1.44592 1.29641 0
M  V30 2943 C 266.284 2.84478 1.99223 0
M  V30 2944 C 265.238 3.95053 1.64672 0
M  V30 2945 C 264.564 4.45805 2.95232 0
M  V30 2946 C 265.864 5.14865 0.878155 0
M  V30 2947 H 267.558 2.98537 0.22713 0
M  V30 2948 H 265.104 1.43596 0.107805 0
M  V30 2949 H 267.057 3.27951 2.64624 0
M  V30 2950 H 265.781 2.04056 2.55007 0
M  V30 2951 H 264.44 3.52228 1.01641 0
M  V30 2952 H 264.088 3.62181 3.49047 0
M  V30 2953 H 263.788 5.204 2.7287 0
M  V30 2954 H 265.312 4.91962 3.6167 0
M  V30 2955 H 266.726 5.55059 1.43466 0
M  V30 2956 H 265.123 5.95348 0.753738 0
M  V30 2957 H 266.193 4.84735 -0.126377 0
M  V30 2958 N 267.536 -0.106894 1.57237 0
M  V30 2959 C 268.785 -0.811163 1.8467 0
M  V30 2960 C 269.098 -1.80469 0.754342 0
M  V30 2961 O 270.304 -2.55601 0.915439 0
M  V30 2962 C 268.76 -1.49337 3.27454 0
M  V30 2963 C 268.368 -0.540217 4.44731 0
M  V30 2964 C 270.112 -2.18206 3.64124 0
M  V30 2965 C 268.019 -1.22634 5.78545 0
M  V30 2966 H 266.949 -0.306679 0.688813 0
M  V30 2967 H 269.6 -0.0639887 1.83388 0
M  V30 2968 H 267.982 -2.2876 3.23241 0
M  V30 2969 H 269.156 0.221659 4.60267 0
M  V30 2970 H 267.471 0.042146 4.16379 0
M  V30 2971 H 270.068 -2.70253 4.61376 0
M  V30 2972 H 270.411 -2.96562 2.92158 0
M  V30 2973 H 270.944 -1.45658 3.70174 0
M  V30 2974 H 267.683 -0.483832 6.53712 0
M  V30 2975 H 267.203 -1.95993 5.66874 0
M  V30 2976 H 268.882 -1.75615 6.2271 0
M  V30 2977 N 269.014 -1.53014 -0.377408 0
M  V30 2978 C 270.43 -1.42523 -0.718281 0
M  V30 2979 C 270.63 -0.55487 -1.9371 0
M  V30 2980 O 269.686 -0.0327593 -2.52479 0
M  V30 2981 C 270.999 -2.85546 -0.942539 0
M  V30 2982 C 272.547 -2.95101 -1.04329 0
M  V30 2983 C 273.022 -4.3916 -1.3001 0
M  V30 2984 N 274.513 -4.42536 -1.36806 0
M  V30 2985 C 275.248 -5.51097 -1.58364 0
M  V30 2986 N 274.744 -6.69724 -1.77317 0
M  V30 2987 N 276.537 -5.38657 -1.60638 0
M  V30 2988 H 268.688 -2.08116 0.424426 0
M  V30 2989 H 270.951 -0.939352 0.127759 0
M  V30 2990 H 270.657 -3.51499 -0.118929 0
M  V30 2991 H 270.531 -3.28493 -1.85397 0
M  V30 2992 H 272.918 -2.29309 -1.85745 0
M  V30 2993 H 272.999 -2.55566 -0.109505 0
M  V30 2994 H 272.643 -5.05521 -0.490991 0
M  V30 2995 H 272.573 -4.76258 -2.24691 0
M  V30 2996 H 275.064 -3.57039 -1.23821 0
M  V30 2997 H 275.377 -7.48233 -1.93306 0
M  V30 2998 H 273.722 -6.72732 -1.74518 0
M  V30 2999 H 276.913 -4.44948 -1.45391 0
M  V30 3000 H 277.086 -6.2333 -1.77098 0
M  V30 3001 N 270.492 0.636531 -1.44174 0
M  V30 3002 C 271.44 1.76995 -1.50915 0
M  V30 3003 C 272.434 1.65053 -0.381295 0
M  V30 3004 O 273.64 1.71197 -0.55601 0
M  V30 3005 H 270.015 0.584247 -0.473455 0
M  V30 3006 H 271.986 1.68432 -2.4632 0
M  V30 3007 C 270.735 3.15314 -1.46534 0
M  V30 3008 H 270.058 3.25149 -2.32633 0
M  V30 3009 H 271.498 3.9453 -1.55312 0
M  V30 3010 C 269.957 3.3639 -0.185305 0
M  V30 3011 O 270.487 3.94699 0.746688 0
M  V30 3012 N 268.693 2.9046 -0.0901606 0
M  V30 3013 H 268.24 2.43193 -0.849416 0
M  V30 3014 H 268.198 3.04937 0.765553 0
M  V30 3015 N 271.97 1.30982 0.876444 0
M  V30 3016 C 272.903 1.12414 1.98591 0
M  V30 3017 C 273.881 0.0294078 1.62573 0
M  V30 3018 O 275.065 0.184598 1.87594 0
M  V30 3019 C 272.192 0.716276 3.3104 0
M  V30 3020 C 271.238 1.81311 3.86042 0
M  V30 3021 S 272.071 3.41727 4.1229 0
M  V30 3022 C 273.227 3.02863 5.47745 0
M  V30 3023 H 273.46 2.06338 2.14037 0
M  V30 3024 H 270.993 1.15393 1.02586 0
M  V30 3025 H 272.951 0.487697 4.07593 0
M  V30 3026 H 271.612 -0.203749 3.13438 0
M  V30 3027 H 270.805 1.48021 4.81774 0
M  V30 3028 H 270.407 1.99641 3.16259 0
M  V30 3029 H 272.699 2.51353 6.29148 0
M  V30 3030 H 273.642 3.97533 5.8598 0
M  V30 3031 H 274.05 2.40487 5.10711 0
M  V30 3032 N 273.449 -1.08991 1.13837 0
M  V30 3033 C 274.696 -1.81258 0.902882 0
M  V30 3034 C 275.024 -1.85936 -0.570803 0
M  V30 3035 O 274.279 -1.3267 -1.43865 0
M  V30 3036 C 274.578 -3.27042 1.44147 0
M  V30 3037 C 274.244 -3.4249 2.93276 0
M  V30 3038 C 272.906 -3.46414 3.33992 0
M  V30 3039 C 275.258 -3.4666 3.892 0
M  V30 3040 C 272.586 -3.52091 4.69307 0
M  V30 3041 C 274.938 -3.53872 5.24364 0
M  V30 3042 C 273.602 -3.56066 5.646 0
M  V30 3043 H 272.872 -0.663268 0.330388 0
M  V30 3044 H 275.519 -1.28368 1.42105 0
M  V30 3045 H 273.824 -3.82599 0.844097 0
M  V30 3046 H 275.521 -3.81499 1.23528 0
M  V30 3047 H 272.111 -3.40124 2.60794 0
M  V30 3048 H 276.295 -3.42865 3.58828 0
M  V30 3049 H 271.551 -3.52079 4.9985 0
M  V30 3050 H 275.725 -3.56043 5.98503 0
M  V30 3051 H 273.352 -3.60218 6.69438 0
M  V30 3052 N 274.927 -0.932562 -1.27047 0
M  V30 3053 C 276.338 -0.619451 -1.76124 0
M  V30 3054 C 276.689 0.865397 -1.76083 0
M  V30 3055 O 275.814 1.67722 -1.36742 0
M  V30 3056 C 276.409 -1.11771 -3.19832 0
M  V30 3057 C 274.968 -0.855174 -3.66557 0
M  V30 3058 C 274.115 -1.27362 -2.46321 0
M  V30 3059 H 277.066 -1.11181 -1.13245 0
M  V30 3060 H 277.087 -0.46759 -3.77616 0
M  V30 3061 H 276.599 -2.19842 -3.1983 0
M  V30 3062 H 274.7 0.211524 -3.71999 0
M  V30 3063 H 274.813 -1.47613 -4.55793 0
M  V30 3064 H 273.177 -0.692119 -2.45116 0
M  V30 3065 H 273.96 -2.36307 -2.49025 0
M  V30 3066 N 276.405 1.4127 -0.698611 0
M  V30 3067 C 277.816 1.84187 -0.305289 0
M  V30 3068 C 278.167 1.58449 1.15708 0
M  V30 3069 O 277.292 1.05651 1.88856 0
M  V30 3070 C 277.887 3.3435 -0.547314 0
M  V30 3071 C 276.446 3.75826 -0.207878 0
M  V30 3072 C 275.593 2.64647 -0.828099 0
M  V30 3073 H 278.544 1.30778 -0.89904 0
M  V30 3074 H 278.565 3.8001 0.192998 0
M  V30 3075 H 278.077 3.53051 -1.61172 0
M  V30 3076 H 276.178 3.62725 0.852143 0
M  V30 3077 H 276.291 4.74462 -0.665021 0
M  V30 3078 H 274.655 2.53395 -0.257458 0
M  V30 3079 H 275.438 2.86165 -1.89643 0
M  V30 3080 N 277.883 0.443576 1.51229 0
M  V30 3081 C 278.831 -0.37904 2.29491 0
M  V30 3082 C 279.825 -1.0153 1.35603 0
M  V30 3083 O 281.031 -0.94955 1.52917 0
M  V30 3084 H 277.406 -0.141053 0.738653 0
M  V30 3085 H 279.377 0.301799 2.9687 0
M  V30 3086 C 278.126 -1.46426 3.15364 0
M  V30 3087 H 277.449 -0.984037 3.87501 0
M  V30 3088 H 278.889 -2.01297 3.7317 0
M  V30 3089 C 277.348 -2.45099 2.31146 0
M  V30 3090 O 277.878 -3.49773 1.9754 0
M  V30 3091 N 276.084 -2.16139 1.94249 0
M  V30 3092 H 275.631 -1.31044 2.21777 0
M  V30 3093 H 275.589 -2.82398 1.38198 0
M  V30 3094 N 279.361 -1.56624 0.175154 0
M  V30 3095 C 280.291 -2.21155 -0.749195 0
M  V30 3096 C 281.272 -1.16836 -1.23626 0
M  V30 3097 O 282.457 -1.45277 -1.28873 0
M  V30 3098 C 279.587 -2.8553 -1.97711 0
M  V30 3099 C 278.541 -3.95921 -1.62575 0
M  V30 3100 C 277.867 -4.47365 -2.92864 0
M  V30 3101 C 279.167 -5.15323 -0.850838 0
M  V30 3102 H 280.861 -2.98653 -0.211295 0
M  V30 3103 H 278.407 -1.43651 -0.100188 0
M  V30 3104 H 280.36 -3.2935 -2.62881 0
M  V30 3105 H 279.084 -2.05406 -2.53921 0
M  V30 3106 H 277.743 -3.52762 -0.997719 0
M  V30 3107 H 277.391 -3.64027 -3.47122 0
M  V30 3108 H 277.091 -5.21839 -2.70106 0
M  V30 3109 H 278.615 -4.93873 -3.59056 0
M  V30 3110 H 280.029 -5.55812 -1.40521 0
M  V30 3111 H 278.426 -5.95739 -0.722154 0
M  V30 3112 H 279.496 -4.84661 0.152082 0
M  V30 3113 N 280.839 0.0985539 -1.57292 0
M  V30 3114 C 282.085 0.803867 -1.86188 0
M  V30 3115 C 282.418 1.78549 -0.763794 0
M  V30 3116 O 281.693 1.93153 0.22855 0
M  V30 3117 C 281.976 1.53568 -3.25713 0
M  V30 3118 C 281.829 0.572277 -4.46145 0
M  V30 3119 C 283.148 2.48708 -3.63087 0
M  V30 3120 H 280.267 0.290781 -0.677211 0
M  V30 3121 H 282.909 0.0675783 -1.8988 0
M  V30 3122 H 281.059 2.16332 -3.22696 0
M  V30 3123 H 282.731 -0.0480894 -4.61275 0
M  V30 3124 H 280.974 -0.114618 -4.33649 0
M  V30 3125 H 281.645 1.12139 -5.40489 0
M  V30 3126 H 284.121 1.96039 -3.67026 0
M  V30 3127 H 282.997 2.96932 -4.61652 0
M  V30 3128 H 283.258 3.32309 -2.91588 0
M  V30 3129 N 282.317 1.53212 0.369288 0
M  V30 3130 C 283.227 1.82342 1.47609 0
M  V30 3131 C 284.243 0.711532 1.58787 0
M  V30 3132 O 285.419 1.0012 1.74751 0
M  V30 3133 C 282.484 2.00393 2.8292 0
M  V30 3134 C 281.545 3.24297 2.81301 0
M  V30 3135 C 280.778 3.41478 4.10157 0
M  V30 3136 O 281.001 2.63033 5.06132 0
M  V30 3137 O 279.935 4.34817 4.16194 0
M  V30 3138 H 283.761 2.76366 1.25918 0
M  V30 3139 H 281.346 1.38547 0.559034 0
M  V30 3140 H 283.228 2.13859 3.63101 0
M  V30 3141 H 281.903 1.09559 3.04596 0
M  V30 3142 H 280.81 3.16257 1.99831 0
M  V30 3143 H 282.143 4.15041 2.64578 0
M  V30 3144 N 283.795 -0.628877 1.44509 0
M  V30 3145 C 284.758 -1.72263 1.51188 0
M  V30 3146 C 285.758 -1.55907 0.39367 0
M  V30 3147 O 286.948 -1.61361 0.656377 0
M  V30 3148 C 284.08 -3.11365 1.38798 0
M  V30 3149 H 285.273 -1.67714 2.4862 0
M  V30 3150 H 282.826 -0.842737 1.31634 0
M  V30 3151 H 283.561 -3.21507 0.424693 0
M  V30 3152 H 283.346 -3.24644 2.19884 0
M  V30 3153 H 284.836 -3.91075 1.46458 0
M  V30 3154 N 285.273 -1.31445 -0.869486 0
M  V30 3155 C 286.513 -1.22458 -1.63656 0
M  V30 3156 C 286.877 0.213846 -1.90805 0
M  V30 3157 O 288.078 0.427212 -2.65383 0
M  V30 3158 C 286.349 -2.04564 -2.93067 0
M  V30 3159 S 287.908 -2.12445 -3.83944 0
M  V30 3160 H 284.726 -0.436145 -0.561514 0
M  V30 3161 H 287.328 -1.66114 -1.03085 0
M  V30 3162 H 286.032 -3.0816 -2.71045 0
M  V30 3163 H 285.563 -1.6163 -3.58663 0
M  V30 3164 H 287.578 -1.26312 -4.79854 0
M  V30 3165 N 286.751 1.08385 -1.14413 0
M  V30 3166 C 287.998 1.80776 -0.912482 0
M  V30 3167 C 288.326 1.86236 0.560934 0
M  V30 3168 O 287.581 1.33431 1.43159 0
M  V30 3169 C 287.88 3.26273 -1.45879 0
M  V30 3170 C 287.546 3.4093 -2.95089 0
M  V30 3171 C 286.208 3.44638 -3.35824 0
M  V30 3172 C 288.56 3.44591 -3.91033 0
M  V30 3173 C 285.888 3.49597 -4.71167 0
M  V30 3174 C 288.24 3.51086 -5.26233 0
M  V30 3175 C 286.904 3.53067 -5.6648 0
M  V30 3176 H 286.174 0.661507 -0.333901 0
M  V30 3177 H 288.821 1.27613 -1.42784 0
M  V30 3178 H 287.126 3.82146 -0.864376 0
M  V30 3179 H 288.823 3.80839 -1.2555 0
M  V30 3180 H 285.413 3.38736 -2.62594 0
M  V30 3181 H 289.597 3.40957 -3.60641 0
M  V30 3182 H 284.853 3.49424 -5.0171 0
M  V30 3183 H 289.027 3.52864 -6.00383 0
M  V30 3184 H 286.654 3.56662 -6.71339 0
M  V30 3185 N 288.23 0.939286 1.26551 0
M  V30 3186 C 289.177 0.446088 2.26448 0
M  V30 3187 C 290.147 -0.493234 1.58608 0
M  V30 3188 O 291.332 -0.409857 1.86346 0
M  V30 3189 C 288.472 -0.284375 3.43926 0
M  V30 3190 C 287.585 0.690399 4.26448 0
M  V30 3191 C 286.72 -0.0610712 5.31165 0
M  V30 3192 C 285.759 0.905649 6.05363 0
M  V30 3193 N 284.896 0.186055 7.01853 0
M  V30 3194 H 289.736 1.30291 2.68008 0
M  V30 3195 H 287.273 0.65371 1.31776 0
M  V30 3196 H 289.231 -0.724313 4.10864 0
M  V30 3197 H 287.861 -1.10535 3.03285 0
M  V30 3198 H 286.913 1.24885 3.59316 0
M  V30 3199 H 288.225 1.42873 4.779 0
M  V30 3200 H 287.379 -0.56038 6.04106 0
M  V30 3201 H 286.118 -0.832297 4.80546 0
M  V30 3202 H 285.123 1.4161 5.3125 0
M  V30 3203 H 286.348 1.67685 6.58072 0
M  V30 3204 H 284.294 -0.566714 6.53548 0
M  V30 3205 H 284.211 0.863752 7.51049 0
M  V30 3206 H 285.479 -0.292221 7.78952 0
M  V30 3207 N 289.708 -1.40897 0.706093 0
M  V30 3208 C 290.64 -2.29199 0.00815776 0
M  V30 3209 C 291.653 -1.45336 -0.733582 0
M  V30 3210 O 292.842 -1.68727 -0.582537 0
M  V30 3211 C 289.942 -3.23417 -1.01265 0
M  V30 3212 C 289.115 -4.36089 -0.338387 0
M  V30 3213 C 288.174 -5.10811 -1.26326 0
M  V30 3214 O 287.2 -5.64215 -0.751651 0
M  V30 3215 N 288.402 -5.19269 -2.595 0
M  V30 3216 H 291.167 -2.89738 0.766297 0
M  V30 3217 H 288.728 -1.52164 0.55296 0
M  V30 3218 H 290.72 -3.70276 -1.63334 0
M  V30 3219 H 289.29 -2.64112 -1.67223 0
M  V30 3220 H 288.51 -3.91479 0.462352 0
M  V30 3221 H 289.798 -5.08634 0.130031 0
M  V30 3222 H 289.196 -4.77347 -3.03573 0
M  V30 3223 H 287.753 -5.69667 -3.16737 0
M  V30 3224 N 291.186 -0.45159 -1.50991 0
M  V30 3225 C 292.433 0.110074 -2.02201 0
M  V30 3226 C 292.761 1.4146 -1.33489 0
M  V30 3227 O 292.016 1.90617 -0.443125 0
M  V30 3228 C 292.315 0.361728 -3.55565 0
M  V30 3229 C 291.981 -0.858717 -4.42648 0
M  V30 3230 C 290.643 -1.19338 -4.66167 0
M  V30 3231 C 292.995 -1.67221 -4.93646 0
M  V30 3232 C 290.323 -2.34195 -5.37931 0
M  V30 3233 C 292.675 -2.8119 -5.6667 0
M  V30 3234 C 291.339 -3.15094 -5.88449 0
M  V30 3235 H 290.609 0.040279 -0.739904 0
M  V30 3236 H 293.256 -0.601696 -1.81802 0
M  V30 3237 H 291.561 1.15554 -3.74372 0
M  V30 3238 H 293.258 0.80996 -3.92735 0
M  V30 3239 H 289.848 -0.58796 -4.24548 0
M  V30 3240 H 294.032 -1.42686 -4.75347 0
M  V30 3241 H 289.288 -2.6076 -5.53005 0
M  V30 3242 H 293.462 -3.44585 -6.05173 0
M  V30 3243 H 291.089 -4.04204 -6.43835 0
M  V30 3244 N 292.664 1.56529 -0.183458 0
M  V30 3245 C 293.611 2.18546 0.742055 0
M  V30 3246 C 294.581 1.12912 1.2182 0
M  V30 3247 O 295.766 1.41115 1.28418 0
M  V30 3248 C 292.906 2.83977 1.96089 0
M  V30 3249 C 292.019 4.04105 1.52719 0
M  V30 3250 C 291.154 4.57427 2.70063 0
M  V30 3251 C 290.193 5.69938 2.23243 0
M  V30 3252 N 289.33 6.17717 3.33722 0
M  V30 3253 H 294.17 2.97284 0.206432 0
M  V30 3254 H 291.707 1.46823 0.0901571 0
M  V30 3255 H 293.665 3.20077 2.67594 0
M  V30 3256 H 292.295 2.07822 2.47002 0
M  V30 3257 H 291.347 3.73745 0.708436 0
M  V30 3258 H 292.659 4.85513 1.1436 0
M  V30 3259 H 291.813 4.95772 3.49708 0
M  V30 3260 H 290.552 3.75101 3.11689 0
M  V30 3261 H 289.557 5.31133 1.42048 0
M  V30 3262 H 290.782 6.54073 1.82661 0
M  V30 3263 H 288.728 5.38317 3.74902 0
M  V30 3264 H 288.645 6.94146 2.99495 0
M  V30 3265 H 289.913 6.60713 4.13616 0
M  V30 3266 N 294.142 -0.090211 1.57342 0
M  V30 3267 C 295.37 -0.806224 1.90546 0
M  V30 3268 C 295.785 -1.72041 0.777644 0
M  V30 3269 O 295.142 -1.80778 -0.250103 0
M  V30 3270 C 295.193 -1.61546 3.23396 0
M  V30 3271 O 294.914 -0.738043 4.31839 0
M  V30 3272 C 296.415 -2.4341 3.70495 0
M  V30 3273 H 293.635 -0.230256 0.630257 0
M  V30 3274 H 296.179 -0.0659843 2.04394 0
M  V30 3275 H 294.334 -2.30816 3.11131 0
M  V30 3276 H 294.748 -1.29901 5.08159 0
M  V30 3277 H 296.222 -2.95676 4.66133 0
M  V30 3278 H 296.699 -3.22098 2.98579 0
M  V30 3279 H 297.305 -1.79331 3.85643 0
M  V30 3280 N 295.62 -1.53406 -0.361157 0
M  V30 3281 C 296.552 -1.76446 -1.46286 0
M  V30 3282 C 297.565 -0.645322 -1.49464 0
M  V30 3283 O 298.754 -0.921681 -1.52864 0
M  V30 3284 C 295.854 -1.83332 -2.85031 0
M  V30 3285 C 295.027 -3.13033 -3.05498 0
M  V30 3286 C 294.086 -3.11104 -4.24383 0
M  V30 3287 O 293.112 -3.84888 -4.19344 0
M  V30 3288 N 294.314 -2.32234 -5.32022 0
M  V30 3289 H 297.079 -2.71508 -1.26899 0
M  V30 3290 H 294.64 -1.52238 -0.550915 0
M  V30 3291 H 296.632 -1.79514 -3.62708 0
M  V30 3292 H 295.202 -0.955342 -2.97644 0
M  V30 3293 H 294.422 -3.30119 -2.15442 0
M  V30 3294 H 295.71 -3.9874 -3.16044 0
M  V30 3295 H 295.108 -1.71807 -5.38979 0
M  V30 3296 H 293.665 -2.3423 -6.08259 0
M  V30 3297 N 297.098 0.621204 -1.44841 0
M  V30 3298 C 298.328 1.40548 -1.51426 0
M  V30 3299 C 298.736 1.88673 -0.141083 0
M  V30 3300 O 298.079 1.62053 0.865128 0
M  V30 3301 C 298.141 2.65325 -2.42576 0
M  V30 3302 C 297.805 2.3893 -3.89566 0
M  V30 3303 C 298.802 2.00138 -4.79834 0
M  V30 3304 C 296.487 2.52263 -4.3436 0
M  V30 3305 C 298.481 1.75021 -6.129 0
M  V30 3306 C 296.168 2.2676 -5.67471 0
M  V30 3307 C 297.166 1.88199 -6.56559 0
M  V30 3308 O 296.854 1.62986 -7.87204 0
M  V30 3309 H 296.586 0.437122 -0.515655 0
M  V30 3310 H 299.14 0.765987 -1.90583 0
M  V30 3311 H 297.37 3.31947 -1.98364 0
M  V30 3312 H 299.059 3.27347 -2.39998 0
M  V30 3313 H 299.825 1.89386 -4.46495 0
M  V30 3314 H 295.704 2.81246 -3.65269 0
M  V30 3315 H 299.248 1.44848 -6.82396 0
M  V30 3316 H 295.145 2.37125 -6.00368 0
M  V30 3317 H 295.913 1.7715 -7.991 0
M  V30 3318 N 298.576 1.31904 0.862503 0
M  V30 3319 C 299.801 1.25135 1.65397 0
M  V30 3320 C 300.226 -0.179 1.87246 0
M  V30 3321 O 299.584 -1.1277 1.4196 0
M  V30 3322 C 299.632 2.00832 2.99498 0
M  V30 3323 O 298.736 1.35075 3.89652 0
M  V30 3324 H 298.077 0.431655 0.504549 0
M  V30 3325 H 300.607 1.74094 1.07483 0
M  V30 3326 H 300.617 2.10709 3.49379 0
M  V30 3327 H 299.292 3.04847 2.82916 0
M  V30 3328 H 297.869 1.33696 3.48109 0
M  V30 3329 N 300.054 -1.07777 1.14986 0
M  V30 3330 C 301.282 -1.84018 0.945773 0
M  V30 3331 C 301.697 -1.81897 -0.505863 0
M  V30 3332 O 301.054 -1.22726 -1.35072 0
M  V30 3333 C 301.105 -3.31287 1.44677 0
M  V30 3334 O 300.826 -3.33449 2.84154 0
M  V30 3335 C 302.327 -4.24311 1.28355 0
M  V30 3336 H 299.547 -0.580716 0.336169 0
M  V30 3337 H 302.091 -1.36077 1.52654 0
M  V30 3338 H 300.246 -3.76594 0.908625 0
M  V30 3339 H 300.66 -4.25427 3.06777 0
M  V30 3340 H 302.134 -5.2573 1.68261 0
M  V30 3341 H 302.611 -4.38612 0.227184 0
M  V30 3342 H 303.217 -3.84836 1.81056 0
M  V30 3343 N 301.532 -0.945985 -1.26051 0
M  V30 3344 C 302.948 -0.649045 -1.45807 0
M  V30 3345 C 303.148 0.796158 -1.85104 0
M  V30 3346 O 302.204 1.57233 -1.97571 0
M  V30 3347 C 303.517 -1.61458 -2.53677 0
M  V30 3348 C 305.065 -1.62481 -2.67524 0
M  V30 3349 C 305.54 -2.57776 -3.7857 0
M  V30 3350 N 307.031 -2.5609 -3.85969 0
M  V30 3351 C 307.766 -3.26508 -4.7136 0
M  V30 3352 N 307.262 -4.0637 -5.61102 0
M  V30 3353 N 309.055 -3.15437 -4.65248 0
M  V30 3354 H 301.206 -1.88005 -0.988328 0
M  V30 3355 H 303.469 -0.808198 -0.4955 0
M  V30 3356 H 303.175 -2.64644 -2.31638 0
M  V30 3357 H 303.049 -1.37036 -3.51427 0
M  V30 3358 H 305.436 -0.600167 -2.88933 0
M  V30 3359 H 305.517 -1.90958 -1.70202 0
M  V30 3360 H 305.161 -3.60361 -3.57913 0
M  V30 3361 H 305.091 -2.26587 -4.75359 0
M  V30 3362 H 307.582 -1.98105 -3.21812 0
M  V30 3363 H 307.895 -4.57042 -6.23164 0
M  V30 3364 H 306.24 -4.10469 -5.60839 0
M  V30 3365 H 309.431 -2.52525 -3.94143 0
M  V30 3366 H 309.604 -3.70584 -5.31575 0
M  V30 3367 N 303.011 1.40521 -0.713556 0
M  V30 3368 C 304.257 2.01221 -0.252564 0
M  V30 3369 C 304.59 1.56444 1.1506 0
M  V30 3370 O 303.865 0.783597 1.78017 0
M  V30 3371 C 304.148 3.58582 -0.330332 0
M  V30 3372 C 304.001 4.13437 -1.77173 0
M  V30 3373 C 305.32 4.39079 0.299641 0
M  V30 3374 H 302.439 0.731077 -0.0932471 0
M  V30 3375 H 305.081 1.67026 -0.905673 0
M  V30 3376 H 303.231 3.87844 0.225737 0
M  V30 3377 H 304.903 3.9498 -2.38303 0
M  V30 3378 H 303.146 3.67801 -2.3001 0
M  V30 3379 H 303.817 5.22597 -1.77755 0
M  V30 3380 H 306.293 4.15735 -0.174139 0
M  V30 3381 H 305.169 5.4848 0.214771 0
M  V30 3382 H 305.43 4.19915 1.38288 0
M  V30 3383 N 304.489 0.459591 1.5075 0
M  V30 3384 C 305.735 -0.0994966 2.02556 0
M  V30 3385 C 306.068 -1.40399 1.3417 0
M  V30 3386 O 305.343 -1.88892 0.463683 0
M  V30 3387 C 305.626 -0.295242 3.58888 0
M  V30 3388 C 305.479 1.02947 4.37861 0
M  V30 3389 C 306.798 -1.05502 4.27267 0
M  V30 3390 H 303.917 -0.034686 0.736183 0
M  V30 3391 H 306.559 0.602938 1.8018 0
M  V30 3392 H 304.709 -0.893563 3.78084 0
M  V30 3393 H 306.381 1.66348 4.30263 0
M  V30 3394 H 304.624 1.62885 4.02058 0
M  V30 3395 H 305.295 0.846281 5.45474 0
M  V30 3396 H 307.771 -0.547993 4.12476 0
M  V30 3397 H 306.647 -1.16077 5.36486 0
M  V30 3398 H 306.908 -2.08875 3.89645 0
M  V30 3399 N 305.967 -1.56429 0.191757 0
M  V30 3400 C 307.195 -2.01867 -0.453586 0
M  V30 3401 C 307.61 -1.07191 -1.5542 0
M  V30 3402 O 306.967 -0.0762108 -1.82341 0
M  V30 3403 C 307.018 -3.47017 -1.013 0
M  V30 3404 O 306.739 -4.38078 0.0437005 0
M  V30 3405 C 308.24 -4.07956 -1.73456 0
M  V30 3406 H 305.46 -0.661211 -0.114199 0
M  V30 3407 H 308.004 -2.02295 0.299483 0
M  V30 3408 H 306.159 -3.47298 -1.71647 0
M  V30 3409 H 306.573 -5.23178 -0.372212 0
M  V30 3410 H 308.047 -5.1138 -2.07833 0
M  V30 3411 H 308.524 -3.51222 -2.63704 0
M  V30 3412 H 309.13 -4.11437 -1.07702 0
M  V30 3413 N 307.445 0.0818655 -1.57387 0
M  V30 3414 C 308.861 0.436412 -1.53517 0
M  V30 3415 C 309.061 1.79758 -0.910459 0
M  V30 3416 O 308.117 2.47324 -0.508636 0
M  V30 3417 C 309.43 0.386734 -2.98203 0
M  V30 3418 C 310.978 0.467644 -3.09487 0
M  V30 3419 C 311.453 0.447978 -4.55804 0
M  V30 3420 N 312.944 0.508348 -4.60402 0
M  V30 3421 C 313.679 0.515184 -5.71081 0
M  V30 3422 N 313.175 0.477435 -6.91153 0
M  V30 3423 N 314.968 0.560988 -5.59294 0
M  V30 3424 H 307.119 -0.809546 -1.96367 0
M  V30 3425 H 309.382 -0.302733 -0.898363 0
M  V30 3426 H 309.088 -0.546539 -3.47427 0
M  V30 3427 H 308.962 1.20075 -3.57578 0
M  V30 3428 H 311.349 1.39134 -2.60242 0
M  V30 3429 H 311.43 -0.374753 -2.5304 0
M  V30 3430 H 311.074 -0.471826 -5.05704 0
M  V30 3431 H 311.004 1.30777 -5.10103 0
M  V30 3432 H 313.495 0.54218 -3.7399 0
M  V30 3433 H 313.808 0.486299 -7.71268 0
M  V30 3434 H 312.153 0.444278 -6.93579 0
M  V30 3435 H 315.344 0.5881 -4.64391 0
M  V30 3436 H 315.517 0.562846 -6.45551 0
M  V30 3437 N 308.923 1.53595 0.353017 0
M  V30 3438 C 310.151 1.74311 1.1146 0
M  V30 3439 C 310.566 0.477854 1.82653 0
M  V30 3440 O 309.923 -0.549977 1.74016 0
M  V30 3441 C 309.974 2.91694 2.13534 0
M  V30 3442 O 309.695 4.13325 1.45238 0
M  V30 3443 C 311.196 3.24384 3.02142 0
M  V30 3444 H 308.416 0.582669 0.332773 0
M  V30 3445 H 310.96 2.00386 0.408107 0
M  V30 3446 H 309.115 2.67977 2.79763 0
M  V30 3447 H 309.529 4.79148 2.13349 0
M  V30 3448 H 311.003 4.09893 3.69718 0
M  V30 3449 H 311.48 2.40282 3.67643 0
M  V30 3450 H 312.086 3.50073 2.41514 0
M  V30 3451 N 310.401 -0.613514 1.45168 0
M  V30 3452 C 311.334 -1.73809 1.47871 0
M  V30 3453 C 312.312 -1.59097 0.33568 0
M  V30 3454 O 313.496 -1.8074 0.535299 0
M  V30 3455 C 310.623 -3.11574 1.32813 0
M  V30 3456 C 309.669 -3.4489 2.50905 0
M  V30 3457 S 310.502 -3.40393 4.13392 0
M  V30 3458 C 311.658 -4.80749 4.00789 0
M  V30 3459 H 311.891 -1.71252 2.43023 0
M  V30 3460 H 309.424 -0.789658 1.32679 0
M  V30 3461 H 311.382 -3.91065 1.24812 0
M  V30 3462 H 310.043 -3.11652 0.391418 0
M  V30 3463 H 309.236 -4.45183 2.36279 0
M  V30 3464 H 308.838 -2.72901 2.55736 0
M  V30 3465 H 311.13 -5.7041 3.65567 0
M  V30 3466 H 312.073 -5.00431 5.00974 0
M  V30 3467 H 312.481 -4.56151 3.32545 0
M  V30 3468 N 311.879 -1.3236 -0.855495 0
M  V30 3469 C 313.125 -1.23054 -1.612 0
M  V30 3470 C 313.458 0.207404 -1.93089 0
M  V30 3471 O 312.733 1.14432 -1.57275 0
M  V30 3472 C 313.016 -2.08937 -2.93287 0
M  V30 3473 C 312.869 -3.61105 -2.68185 0
M  V30 3474 C 314.188 -1.94986 -3.94549 0
M  V30 3475 H 311.307 -0.448364 -0.584926 0
M  V30 3476 H 313.949 -1.62297 -0.987917 0
M  V30 3477 H 312.099 -1.75599 -3.46551 0
M  V30 3478 H 313.771 -4.04652 -2.21483 0
M  V30 3479 H 312.014 -3.83813 -2.02164 0
M  V30 3480 H 312.685 -4.16522 -3.62234 0
M  V30 3481 H 315.161 -2.24189 -3.5054 0
M  V30 3482 H 314.037 -2.57356 -4.84829 0
M  V30 3483 H 314.298 -0.917263 -4.3248 0
M  V30 3484 N 313.357 1.07166 -1.15556 0
M  V30 3485 C 314.773 1.31899 -0.898603 0
M  V30 3486 C 314.973 1.96333 0.453383 0
M  V30 3487 O 314.029 2.22438 1.19489 0
M  V30 3488 C 315.342 2.20826 -2.04099 0
M  V30 3489 C 316.89 2.34269 -2.07574 0
M  V30 3490 C 317.365 3.26546 -3.21141 0
M  V30 3491 N 318.856 3.34127 -3.20801 0
M  V30 3492 C 319.591 4.05595 -4.05315 0
M  V30 3493 N 319.087 4.79661 -4.99897 0
M  V30 3494 N 320.88 4.01555 -3.93332 0
M  V30 3495 H 313.031 0.637302 -2.02613 0
M  V30 3496 H 315.294 0.343468 -0.883591 0
M  V30 3497 H 315 1.80744 -3.01703 0
M  V30 3498 H 314.874 3.21364 -1.97496 0
M  V30 3499 H 317.261 2.73603 -1.10568 0
M  V30 3500 H 317.342 1.33429 -2.18244 0
M  V30 3501 H 316.986 2.87931 -4.184 0
M  V30 3502 H 316.916 4.27345 -3.07708 0
M  V30 3503 H 319.407 2.81336 -2.52306 0
M  V30 3504 H 319.72 5.31694 -5.60822 0
M  V30 3505 H 318.065 4.78671 -5.03884 0
M  V30 3506 H 321.256 3.42806 -3.18751 0
M  V30 3507 H 321.429 4.56987 -4.5942 0
M  V30 3508 N 314.835 0.952656 1.25548 0
M  V30 3509 C 316.063 0.623496 1.97282 0
M  V30 3510 C 316.478 -0.803987 1.70826 0
M  V30 3511 O 315.835 -1.53755 0.983147 0
M  V30 3512 C 315.886 0.870209 3.5087 0
M  V30 3513 O 315.607 2.24156 3.76412 0
M  V30 3514 C 317.108 0.553164 4.39835 0
M  V30 3515 H 314.328 0.233931 0.628902 0
M  V30 3516 H 316.872 1.27649 1.59768 0
M  V30 3517 H 315.027 0.263652 3.86502 0
M  V30 3518 H 315.441 2.31021 4.70882 0
M  V30 3519 H 316.915 0.776342 5.46513 0
M  V30 3520 H 317.392 -0.512215 4.36203 0
M  V30 3521 H 317.998 1.13896 4.09766 0
M  V30 3522 N 316.313 -1.40141 0.720998 0
M  V30 3523 C 317.223 -2.34486 0.0731031 0
M  V30 3524 C 318.239 -1.57587 -0.737723 0
M  V30 3525 O 319.415 -1.89949 -0.669429 0
M  V30 3526 C 316.48 -3.36528 -0.833656 0
M  V30 3527 C 315.541 -4.29298 -0.0121673 0
M  V30 3528 C 314.774 -5.26466 -0.875742 0
M  V30 3529 O 314.997 -5.29745 -2.11485 0
M  V30 3530 O 313.931 -6.01092 -0.31185 0
M  V30 3531 H 317.757 -2.9152 0.851444 0
M  V30 3532 H 315.342 -1.41427 0.481527 0
M  V30 3533 H 317.224 -3.99093 -1.35289 0
M  V30 3534 H 315.899 -2.81899 -1.59105 0
M  V30 3535 H 314.806 -3.70001 0.552262 0
M  V30 3536 H 316.139 -4.87094 0.707129 0
M  V30 3537 N 317.792 -0.46758 -1.50504 0
M  V30 3538 C 318.74 0.342482 -2.30065 0
M  V30 3539 C 319.734 0.993596 -1.37201 0
M  V30 3540 O 320.94 0.925102 -1.54408 0
M  V30 3541 H 317.315 0.129283 -0.740803 0
M  V30 3542 H 319.286 -0.34899 -2.96352 0
M  V30 3543 C 318.035 1.4139 -3.17654 0
M  V30 3544 H 317.358 0.922264 -3.89017 0
M  V30 3545 H 318.798 1.95335 -3.76325 0
M  V30 3546 C 317.257 2.4139 -2.35016 0
M  V30 3547 O 317.787 3.46586 -2.03079 0
M  V30 3548 N 315.993 2.13021 -1.97662 0
M  V30 3549 H 315.54 1.27499 -2.23834 0
M  V30 3550 H 315.498 2.80164 -1.42673 0
M  V30 3551 N 319.27 1.56325 -0.20005 0
M  V30 3552 C 320.518 1.97329 0.436547 0
M  V30 3553 C 320.839 1.08826 1.61808 0
M  V30 3554 O 320.109 0.160604 1.95241 0
M  V30 3555 H 318.689 0.728714 0.164272 0
M  V30 3556 H 321.351 1.92761 -0.287937 0
M  V30 3557 H 320.447 3.02264 0.777353 0
M  V30 3558 N 320.748 -0.0735177 1.57428 0
M  V30 3559 C 321.973 -0.789787 1.91774 0
M  V30 3560 C 322.398 -1.70413 0.796306 0
M  V30 3561 O 321.756 -1.79555 -0.250961 0
M  V30 3562 C 321.804 -1.5609 3.25067 0
M  V30 3563 O 320.908 -2.67144 3.14178 0
M  V30 3564 H 320.249 -0.215582 0.628029 0
M  V30 3565 H 322.779 -0.0422781 2.04556 0
M  V30 3566 H 322.789 -1.94052 3.58898 0
M  V30 3567 H 321.464 -0.890015 4.06265 0
M  V30 3568 H 320.041 -2.32052 2.91901 0
M  V30 3569 N 322.226 -1.5378 -0.344866 0
M  V30 3570 C 323.136 -1.84667 -1.4469 0
M  V30 3571 C 324.152 -0.736704 -1.57635 0
M  V30 3572 O 325.328 -1.02888 -1.73136 0
M  V30 3573 C 322.393 -2.04869 -2.79696 0
M  V30 3574 C 321.454 -3.28731 -2.76106 0
M  V30 3575 C 320.687 -3.4796 -4.04673 0
M  V30 3576 O 320.91 -2.71052 -5.01883 0
M  V30 3577 O 319.844 -4.41383 -4.09224 0
M  V30 3578 H 323.67 -2.78334 -1.21506 0
M  V30 3579 H 321.255 -1.39418 -0.536921 0
M  V30 3580 H 323.137 -2.19609 -3.59652 0
M  V30 3581 H 321.812 -1.14391 -3.02814 0
M  V30 3582 H 320.719 -3.19396 -1.94774 0
M  V30 3583 H 322.052 -4.19198 -2.57941 0
M  V30 3584 N 323.704 0.605807 -1.45491 0
M  V30 3585 C 325.115 1.18777 -1.44045 0
M  V30 3586 C 325.466 1.95471 -0.169001 0
M  V30 3587 O 324.591 2.0374 0.729324 0
M  V30 3588 C 325.186 2.16064 -2.60963 0
M  V30 3589 C 323.745 2.69633 -2.62631 0
M  V30 3590 C 322.892 1.45072 -2.36325 0
M  V30 3591 H 325.843 0.395017 -1.53705 0
M  V30 3592 H 325.864 2.9913 -2.35163 0
M  V30 3593 H 325.376 1.60217 -3.53486 0
M  V30 3594 H 323.477 3.29414 -1.74119 0
M  V30 3595 H 323.59 3.13944 -3.61906 0
M  V30 3596 H 321.954 1.74089 -1.85917 0
M  V30 3597 H 322.737 0.910899 -3.30995 0
M  V30 3598 N 325.182 1.32811 0.848464 0
M  V30 3599 C 326.43 1.23479 1.59991 0
M  V30 3600 C 326.751 -0.201853 1.93952 0
M  V30 3601 O 326.021 -1.12818 1.60153 0
M  V30 3602 H 324.601 0.454034 0.593179 0
M  V30 3603 H 327.263 1.66412 1.01455 0
M  V30 3604 H 326.359 1.82178 2.53412 0
M  V30 3605 N 326.66 -1.06551 1.16123 0
M  V30 3606 C 327.623 -2.12132 0.867906 0
M  V30 3607 C 328.623 -1.60224 -0.135944 0
M  V30 3608 O 329.813 -1.73943 0.0946422 0
M  V30 3609 C 326.945 -3.396 0.297419 0
M  V30 3610 H 328.138 -2.39586 1.80385 0
M  V30 3611 H 325.691 -1.22574 0.969812 0
M  V30 3612 H 326.426 -3.17794 -0.64633 0
M  V30 3613 H 326.211 -3.78581 1.02073 0
M  V30 3614 H 327.701 -4.17455 0.110052 0
M  V30 3615 N 328.138 -0.959301 -1.25041 0
M  V30 3616 C 329.363 -0.633507 -1.97488 0
M  V30 3617 C 329.788 0.788555 -1.70773 0
M  V30 3618 O 329.146 1.53394 -0.966431 0
M  V30 3619 C 329.194 -0.904057 -3.49083 0
M  V30 3620 O 328.298 0.0147939 -4.12397 0
M  V30 3621 H 327.639 -0.240368 -0.618966 0
M  V30 3622 H 330.169 -1.28717 -1.59038 0
M  V30 3623 H 330.179 -0.832203 -3.99423 0
M  V30 3624 H 328.854 -1.94048 -3.67856 0
M  V30 3625 H 327.431 -0.109664 -3.72739 0
M  V30 3626 N 329.616 1.39756 -0.72842 0
M  V30 3627 C 330.549 2.28176 -0.0330172 0
M  V30 3628 C 331.527 1.44035 0.754501 0
M  V30 3629 O 332.711 1.73434 0.738445 0
M  V30 3630 C 329.838 3.24795 0.960504 0
M  V30 3631 C 328.884 4.25693 0.262264 0
M  V30 3632 S 329.717 5.25714 -1.01906 0
M  V30 3633 C 330.873 6.25894 -0.0279717 0
M  V30 3634 H 331.106 2.86807 -0.78287 0
M  V30 3635 H 328.639 1.45382 -0.519951 0
M  V30 3636 H 330.597 3.80983 1.52846 0
M  V30 3637 H 329.258 2.65196 1.68315 0
M  V30 3638 H 328.451 4.93699 1.01379 0
M  V30 3639 H 328.053 3.7327 -0.233482 0
M  V30 3640 H 330.345 6.72585 0.814621 0
M  V30 3641 H 331.288 7.04876 -0.67499 0
M  V30 3642 H 331.696 5.63466 0.341489 0
M  V30 3643 N 331.094 0.475555 1.50254 0
M  V30 3644 C 332.505 0.0215174 1.86688 0
M  V30 3645 C 332.856 -1.38467 1.39001 0
M  V30 3646 O 331.981 -2.02732 0.756894 0
M  V30 3647 C 332.576 0.0322715 3.38785 0
M  V30 3648 C 331.135 -0.366314 3.74613 0
M  V30 3649 C 330.282 0.415832 2.74164 0
M  V30 3650 H 333.233 0.689612 1.42934 0
M  V30 3651 H 333.254 -0.76889 3.7265 0
M  V30 3652 H 332.766 1.05584 3.73462 0
M  V30 3653 H 330.867 -1.39406 3.45538 0
M  V30 3654 H 330.98 -0.064555 4.79057 0
M  V30 3655 H 329.344 -0.131048 2.54363 0
M  V30 3656 H 330.127 1.43899 3.11686 0
M  V30 3657 N 332.573 -1.56217 0.208337 0
M  V30 3658 C 333.984 -1.84243 -0.301904 0
M  V30 3659 C 334.335 -1.12939 -1.60434 0
M  V30 3660 O 333.46 -0.39461 -2.12772 0
M  V30 3661 C 334.055 -3.34231 -0.554543 0
M  V30 3662 C 332.614 -3.62621 -1.00912 0
M  V30 3663 C 331.761 -2.77224 -0.064933 0
M  V30 3664 H 334.712 -1.52712 0.431833 0
M  V30 3665 H 334.733 -3.5372 -1.40223 0
M  V30 3666 H 334.245 -3.86099 0.393561 0
M  V30 3667 H 332.346 -3.16197 -1.97104 0
M  V30 3668 H 332.459 -4.7071 -0.892674 0
M  V30 3669 H 330.823 -2.48256 -0.56929 0
M  V30 3670 H 331.606 -3.31887 0.877851 0
M  V30 3671 N 334.051 0.0651679 -1.57465 0
M  V30 3672 C 335.462 0.616213 -1.76238 0
M  V30 3673 C 335.813 1.7756 -0.834689 0
M  V30 3674 O 334.938 2.1639 -0.0204156 0
M  V30 3675 C 335.533 1.12462 -3.1959 0
M  V30 3676 C 334.092 1.62147 -3.39684 0
M  V30 3677 C 333.239 0.543739 -2.71917 0
M  V30 3678 H 336.19 -0.161022 -1.57881 0
M  V30 3679 H 336.211 1.99324 -3.24114 0
M  V30 3680 H 335.723 0.280592 -3.87084 0
M  V30 3681 H 333.824 2.48854 -2.77313 0
M  V30 3682 H 333.937 1.69385 -4.48158 0
M  V30 3683 H 332.301 0.990352 -2.34657 0
M  V30 3684 H 333.084 -0.290216 -3.42071 0
M  V30 3685 N 335.529 1.53961 0.336706 0
M  V30 3686 C 336.776 1.71536 1.07618 0
M  V30 3687 C 337.104 0.482125 1.8843 0
M  V30 3688 O 336.359 -0.536142 1.88213 0
M  V30 3689 C 336.658 2.93493 2.03953 0
M  V30 3690 C 336.324 4.28811 1.39399 0
M  V30 3691 C 334.986 4.65602 1.21523 0
M  V30 3692 C 337.338 5.12844 0.929541 0
M  V30 3693 C 334.666 5.84037 0.558312 0
M  V30 3694 C 337.018 6.31951 0.286505 0
M  V30 3695 C 335.682 6.67432 0.0954869 0
M  V30 3696 H 334.952 0.627696 0.393801 0
M  V30 3697 H 337.599 1.88186 0.354715 0
M  V30 3698 H 335.904 2.71475 2.82504 0
M  V30 3699 H 337.601 3.04285 2.61174 0
M  V30 3700 H 334.191 3.99858 1.54311 0
M  V30 3701 H 338.375 4.84947 1.05548 0
M  V30 3702 H 333.631 6.10097 0.398995 0
M  V30 3703 H 337.805 6.96352 -0.0814376 0
M  V30 3704 H 335.432 7.59063 -0.415579 0
M  V30 3705 N 337.007 -0.598083 1.45811 0
M  V30 3706 C 338.232 -1.3881 1.54099 0
M  V30 3707 C 338.657 -1.8726 0.177578 0
M  V30 3708 O 338.015 -1.6069 -0.839541 0
M  V30 3709 C 338.063 -2.56217 2.53743 0
M  V30 3710 O 337.167 -3.5716 2.06182 0
M  V30 3711 H 336.508 -0.414024 0.519115 0
M  V30 3712 H 339.038 -0.726971 1.91249 0
M  V30 3713 H 339.048 -3.03337 2.72856 0
M  V30 3714 H 337.723 -2.20303 3.5276 0
M  V30 3715 H 336.3 -3.16624 1.96987 0
M  V30 3716 N 338.485 -1.33259 -0.841409 0
M  V30 3717 C 339.731 -1.24757 -1.59886 0
M  V30 3718 C 340.064 0.186913 -1.93298 0
M  V30 3719 O 339.339 1.12757 -1.5848 0
M  V30 3720 C 339.622 -2.12036 -2.91055 0
M  V30 3721 C 339.475 -3.63929 -2.6434 0
M  V30 3722 C 340.794 -1.9916 -3.92458 0
M  V30 3723 H 337.913 -0.454542 -0.580138 0
M  V30 3724 H 340.555 -1.63335 -0.970647 0
M  V30 3725 H 338.705 -1.79265 -3.44669 0
M  V30 3726 H 340.377 -4.06978 -2.17178 0
M  V30 3727 H 338.62 -3.85935 -1.98082 0
M  V30 3728 H 339.291 -4.20341 -3.57796 0
M  V30 3729 H 341.767 -2.27895 -3.48143 0
M  V30 3730 H 340.643 -2.62484 -4.82072 0
M  V30 3731 H 340.904 -0.963082 -4.31482 0
M  V30 3732 N 339.963 1.05934 -1.16686 0
M  V30 3733 C 340.873 2.17014 -0.891183 0
M  V30 3734 C 341.889 1.73453 0.137907 0
M  V30 3735 O 343.065 2.01361 -0.039592 0
M  V30 3736 C 340.13 3.44384 -0.400099 0
M  V30 3737 C 339.191 4.02433 -1.49486 0
M  V30 3738 C 338.424 5.23723 -1.02711 0
M  V30 3739 O 338.647 5.7027 0.121716 0
M  V30 3740 O 337.581 5.7382 -1.81699 0
M  V30 3741 H 341.407 2.43113 -1.82015 0
M  V30 3742 H 338.992 1.15541 -0.947132 0
M  V30 3743 H 340.874 4.21189 -0.133392 0
M  V30 3744 H 339.549 3.19802 0.500817 0
M  V30 3745 H 338.456 3.27102 -1.81535 0
M  V30 3746 H 339.789 4.31317 -2.37121 0
M  V30 3747 N 341.441 0.965919 1.2453 0
M  V30 3748 C 342.389 0.486506 2.27455 0
M  V30 3749 C 343.383 -0.449041 1.6334 0
M  V30 3750 O 344.589 -0.324527 1.7705 0
M  V30 3751 H 340.964 0.138857 0.739069 0
M  V30 3752 H 342.935 1.3666 2.65267 0
M  V30 3753 C 341.684 -0.209481 3.47068 0
M  V30 3754 H 341.007 0.50129 3.96645 0
M  V30 3755 H 342.447 -0.508775 4.20936 0
M  V30 3756 C 340.906 -1.43586 3.0477 0
M  V30 3757 O 341.436 -2.53299 3.11773 0
M  V30 3758 N 339.642 -1.30126 2.59838 0
M  V30 3759 H 339.189 -0.408583 2.54339 0
M  V30 3760 H 339.147 -2.12294 2.31902 0
M  V30 3761 N 342.919 -1.39368 0.735821 0
M  V30 3762 C 344.167 -2.00101 0.283562 0
M  V30 3763 C 344.488 -1.5868 -1.13338 0
M  V30 3764 O 343.758 -0.835423 -1.77193 0
M  V30 3765 H 342.338 -0.740024 0.101851 0
M  V30 3766 H 345 -1.70404 0.945962 0
M  V30 3767 H 344.096 -3.10323 0.332604 0
M  V30 3768 N 344.397 -0.483516 -1.5 0
M  V30 3769 C 345.625 0.0644831 -2.06799 0
M  V30 3770 C 346.04 1.32399 -1.34596 0
M  V30 3771 O 345.397 1.77626 -0.418946 0
M  V30 3772 C 345.448 0.339927 -3.59898 0
M  V30 3773 O 345.169 -0.869635 -4.29382 0
M  V30 3774 C 346.67 0.933515 -4.33359 0
M  V30 3775 H 343.89 -0.0126333 -0.670881 0
M  V30 3776 H 346.434 -0.675864 -1.93009 0
M  V30 3777 H 344.589 1.03022 -3.7345 0
M  V30 3778 H 345.003 -0.62179 -5.20801 0
M  V30 3779 H 346.477 1.07593 -5.41413 0
M  V30 3780 H 346.954 1.92685 -3.94676 0
M  V30 3781 H 347.56 0.281221 -4.24369 0
M  V30 3782 N 345.875 1.56104 -0.216619 0
M  V30 3783 C 347.1 2.0301 0.424462 0
M  V30 3784 C 347.525 1.0955 1.52907 0
M  V30 3785 O 346.883 0.0827914 1.81111 0
M  V30 3786 C 346.931 3.4819 0.937883 0
M  V30 3787 O 346.035 3.57865 2.04955 0
M  V30 3788 H 345.376 0.656925 0.0966755 0
M  V30 3789 H 347.906 2.01859 -0.33381 0
M  V30 3790 H 347.916 3.88413 1.24897 0
M  V30 3791 H 346.591 4.15699 0.129387 0
M  V30 3792 H 345.168 3.29527 1.74546 0
M  V30 3793 N 347.353 -0.0568162 1.57498 0
M  V30 3794 C 348.6 -0.753104 1.87975 0
M  V30 3795 C 348.928 -1.76815 0.81035 0
M  V30 3796 O 348.183 -1.94756 -0.19199 0
M  V30 3797 C 348.482 -1.48359 3.25153 0
M  V30 3798 C 348.148 -0.60713 4.46794 0
M  V30 3799 C 346.81 -0.365642 4.79809 0
M  V30 3800 C 349.162 -0.000305978 5.212 0
M  V30 3801 C 346.49 0.491905 5.84634 0
M  V30 3802 C 348.842 0.844781 6.26934 0
M  V30 3803 C 347.506 1.096 6.58441 0
M  V30 3804 H 346.776 -0.27558 0.687849 0
M  V30 3805 H 349.423 -0.0135173 1.91495 0
M  V30 3806 H 347.728 -2.29577 3.17492 0
M  V30 3807 H 349.425 -2.02739 3.45974 0
M  V30 3808 H 346.015 -0.805487 4.20963 0
M  V30 3809 H 350.199 -0.173961 4.95995 0
M  V30 3810 H 345.455 0.695131 6.07436 0
M  V30 3811 H 349.629 1.32165 6.83744 0
M  V30 3812 H 347.256 1.76224 7.39492 0
M  V30 3813 N 348.832 -1.54138 -0.328536 0
M  V30 3814 C 349.762 -1.86167 -1.40939 0
M  V30 3815 C 350.743 -0.718044 -1.54202 0
M  V30 3816 O 351.928 -0.971328 -1.68163 0
M  V30 3817 C 349.058 -2.08461 -2.77779 0
M  V30 3818 C 348.012 -3.24299 -2.7931 0
M  V30 3819 C 347.338 -3.31955 -4.19178 0
M  V30 3820 C 348.638 -4.62065 -2.43502 0
M  V30 3821 H 350.332 -2.76689 -1.14383 0
M  V30 3822 H 347.878 -1.33132 -0.548806 0
M  V30 3823 H 349.831 -2.29453 -3.53454 0
M  V30 3824 H 348.555 -1.14684 -3.05802 0
M  V30 3825 H 347.214 -3.03187 -2.0609 0
M  V30 3826 H 346.862 -2.35745 -4.44335 0
M  V30 3827 H 346.562 -4.09805 -4.2111 0
M  V30 3828 H 348.086 -3.55175 -4.96672 0
M  V30 3829 H 349.5 -4.8297 -3.08889 0
M  V30 3830 H 347.897 -5.42429 -2.56693 0
M  V30 3831 H 348.967 -4.64652 -1.38659 0
M  V30 3832 N 350.31 0.590341 -1.46126 0
M  V30 3833 C 351.22 1.72793 -1.58681 0
M  V30 3834 C 352.236 1.67516 -0.470566 0
M  V30 3835 O 353.412 1.87562 -0.733642 0
M  V30 3836 C 350.477 3.09287 -1.5666 0
M  V30 3837 C 349.538 3.25886 -2.79458 0
M  V30 3838 C 348.771 4.55869 -2.77524 0
M  V30 3839 O 348.994 5.3928 -1.85832 0
M  V30 3840 O 347.928 4.75552 -3.68964 0
M  V30 3841 H 351.754 1.65149 -2.54872 0
M  V30 3842 H 349.339 0.756486 -1.28832 0
M  V30 3843 H 351.221 3.90577 -1.58202 0
M  V30 3844 H 349.896 3.17385 -0.636271 0
M  V30 3845 H 348.803 2.44119 -2.83472 0
M  V30 3846 H 350.136 3.22675 -3.71674 0
M  V30 3847 N 351.788 1.33704 0.83433 0
M  V30 3848 C 352.736 1.24323 1.96587 0
M  V30 3849 C 353.73 0.143659 1.6879 0
M  V30 3850 O 354.936 0.30791 1.77347 0
M  V30 3851 H 351.311 0.385925 0.645419 0
M  V30 3852 H 353.282 2.19978 2.01624 0
M  V30 3853 C 352.031 1.00394 3.32891 0
M  V30 3854 H 351.354 1.84231 3.54822 0
M  V30 3855 H 352.794 0.97862 4.12552 0
M  V30 3856 C 351.253 -0.293047 3.35623 0
M  V30 3857 O 351.783 -1.29823 3.80143 0
M  V30 3858 N 349.989 -0.322174 2.88809 0
M  V30 3859 H 349.536 0.496379 2.52772 0
M  V30 3860 H 349.494 -1.18977 2.91019 0
M  V30 3861 N 353.266 -1.05314 1.17247 0
M  V30 3862 C 354.512 -1.78557 0.961513 0
M  V30 3863 C 354.845 -1.87419 -0.508697 0
M  V30 3864 O 354.12 -1.37307 -1.37757 0
M  V30 3865 C 354.403 -3.22514 1.60176 0
M  V30 3866 C 354.256 -3.21673 3.14399 0
M  V30 3867 C 355.575 -4.20318 1.30463 0
M  V30 3868 H 352.694 -0.6482 0.350723 0
M  V30 3869 H 355.336 -1.23102 1.44727 0
M  V30 3870 H 353.486 -3.69867 1.18871 0
M  V30 3871 H 355.158 -2.82405 3.64753 0
M  V30 3872 H 353.401 -2.60048 3.47214 0
M  V30 3873 H 354.072 -4.23271 3.54324 0
M  V30 3874 H 356.548 -3.81454 1.66229 0
M  V30 3875 H 355.424 -5.19289 1.77848 0
M  V30 3876 H 355.685 -4.41526 0.22521 0
M  V30 3877 N 354.744 -0.972509 -1.24016 0
M  V30 3878 C 355.972 -0.654803 -1.96265 0
M  V30 3879 C 356.387 0.776708 -1.72083 0
M  V30 3880 O 355.744 1.52171 -1.00748 0
M  V30 3881 C 355.795 -0.92592 -3.49441 0
M  V30 3882 O 355.516 -2.30116 -3.72798 0
M  V30 3883 C 357.017 -0.623068 -4.38899 0
M  V30 3884 H 354.237 -0.243907 -0.6251 0
M  V30 3885 H 356.781 -1.30175 -1.57717 0
M  V30 3886 H 354.936 -0.325108 -3.86033 0
M  V30 3887 H 355.35 -2.38483 -4.67147 0
M  V30 3888 H 356.824 -0.863189 -5.45209 0
M  V30 3889 H 357.301 0.442754 -4.36963 0
M  V30 3890 H 357.907 -1.204 -4.07902 0
M  V30 3891 N 356.222 1.38976 -0.743202 0
M  V30 3892 C 357.638 1.53984 -0.419664 0
M  V30 3893 C 357.838 1.70837 1.0685 0
M  V30 3894 O 356.894 1.7135 1.8546 0
M  V30 3895 C 358.207 2.75287 -1.20985 0
M  V30 3896 C 359.755 2.89129 -1.19889 0
M  V30 3897 C 360.23 4.13381 -1.97181 0
M  V30 3898 N 361.721 4.20437 -1.94389 0
M  V30 3899 C 362.456 5.15547 -2.50996 0
M  V30 3900 N 361.952 6.16395 -3.16274 0
M  V30 3901 N 363.745 5.07822 -2.40984 0
M  V30 3902 H 355.896 1.26285 -1.7078 0
M  V30 3903 H 358.159 0.612689 -0.723406 0
M  V30 3904 H 357.865 2.69204 -2.26323 0
M  V30 3905 H 357.739 3.68184 -0.819759 0
M  V30 3906 H 360.126 2.947 -0.153606 0
M  V30 3907 H 360.207 1.97272 -1.62841 0
M  V30 3908 H 359.851 4.08572 -3.01714 0
M  V30 3909 H 359.781 5.04298 -1.51629 0
M  V30 3910 H 362.272 3.48205 -1.46839 0
M  V30 3911 H 362.585 6.85443 -3.56915 0
M  V30 3912 H 360.93 6.16758 -3.20367 0
M  V30 3913 H 364.121 4.27973 -1.89622 0
M  V30 3914 H 364.294 5.81767 -2.85397 0
M  V30 3915 N 357.7 0.491464 1.49741 0
M  V30 3916 C 358.663 -0.280906 2.27472 0
M  V30 3917 C 359.663 -0.902454 1.33088 0
M  V30 3918 O 360.853 -0.768465 1.56334 0
M  V30 3919 C 357.985 -1.40209 3.10732 0
M  V30 3920 H 359.178 0.401056 2.97206 0
M  V30 3921 H 356.731 0.246131 1.5435 0
M  V30 3922 H 357.466 -2.11849 2.45541 0
M  V30 3923 H 357.251 -0.961969 3.80117 0
M  V30 3924 H 358.741 -1.9464 3.69466 0
M  V30 3925 N 359.178 -1.55987 0.224894 0
M  V30 3926 C 360.108 -2.23426 -0.678457 0
M  V30 3927 C 361.089 -1.20709 -1.19847 0
M  V30 3928 O 362.274 -1.49304 -1.24186 0
M  V30 3929 C 359.404 -2.91676 -1.88527 0
M  V30 3930 C 358.358 -4.00893 -1.49896 0
M  V30 3931 C 357.684 -4.56455 -2.78483 0
M  V30 3932 C 358.984 -5.17769 -0.686461 0
M  V30 3933 H 360.678 -2.99175 -0.116173 0
M  V30 3934 H 358.224 -1.43897 -0.054436 0
M  V30 3935 H 360.177 -3.37547 -2.5227 0
M  V30 3936 H 358.901 -2.1338 -2.47258 0
M  V30 3937 H 357.56 -3.55758 -0.884985 0
M  V30 3938 H 357.208 -3.74886 -3.35365 0
M  V30 3939 H 356.908 -5.30169 -2.53368 0
M  V30 3940 H 358.432 -5.05047 -3.43162 0
M  V30 3941 H 359.846 -5.60001 -1.22767 0
M  V30 3942 H 358.243 -5.97735 -0.532259 0
M  V30 3943 H 359.313 -4.83932 0.306196 0
M  V30 3944 N 360.656 0.0484629 -1.57525 0
M  V30 3945 C 361.904 0.741657 -1.88 0
M  V30 3946 C 362.225 1.76918 -0.820054 0
M  V30 3947 O 361.495 1.95335 0.148661 0
M  V30 3948 H 360.075 0.276908 -0.69378 0
M  V30 3949 H 362.737 0.019013 -1.94891 0
M  V30 3950 H 361.833 1.24336 -2.86264 0
M  V30 3951 N 362.134 1.5431 0.320358 0
M  V30 3952 C 363.362 1.76636 1.07738 0
M  V30 3953 C 363.777 0.51649 1.81598 0
M  V30 3954 O 363.134 -0.512942 1.75143 0
M  V30 3955 C 363.185 2.96158 2.07299 0
M  V30 3956 O 362.906 4.16313 1.36438 0
M  V30 3957 C 364.407 3.3072 2.95193 0
M  V30 3958 H 361.627 0.589597 0.320339 0
M  V30 3959 H 364.171 2.01207 0.36551 0
M  V30 3960 H 362.326 2.73851 2.74016 0
M  V30 3961 H 362.74 4.83565 2.03138 0
M  V30 3962 H 364.214 4.17643 3.60941 0
M  V30 3963 H 364.691 2.48026 3.62463 0
M  V30 3964 H 365.297 3.55117 2.34034 0
M  V30 3965 N 363.613 -0.582584 1.46437 0
M  V30 3966 C 364.543 -1.70187 1.59871 0
M  V30 3967 C 365.524 -1.64066 0.449042 0
M  V30 3968 O 366.709 -1.82081 0.6753 0
M  V30 3969 C 363.839 -3.08827 1.58881 0
M  V30 3970 C 362.793 -3.29779 2.72819 0
M  V30 3971 C 362.119 -4.68947 2.5689 0
M  V30 3972 C 363.419 -3.17601 4.1464 0
M  V30 3973 H 365.113 -1.592 2.53566 0
M  V30 3974 H 362.659 -0.764472 1.22032 0
M  V30 3975 H 364.612 -3.86951 1.66873 0
M  V30 3976 H 363.336 -3.20713 0.617306 0
M  V30 3977 H 361.995 -2.54054 2.64296 0
M  V30 3978 H 361.643 -4.77599 1.57823 0
M  V30 3979 H 361.343 -4.83919 3.33312 0
M  V30 3980 H 362.867 -5.4924 2.66773 0
M  V30 3981 H 364.281 -3.8557 4.24274 0
M  V30 3982 H 362.678 -3.44094 4.9165 0
M  V30 3983 H 363.748 -2.14681 4.34788 0
M  V30 3984 N 365.091 -1.34144 -0.827227 0
M  V30 3985 C 366.023 -1.21206 -1.9453 0
M  V30 3986 C 367.036 -0.140176 -1.62195 0
M  V30 3987 O 368.225 -0.391647 -1.7415 0
M  V30 3988 C 365.325 -0.839141 -3.28347 0
M  V30 3989 C 364.498 -2.0051 -3.88734 0
M  V30 3990 C 363.557 -1.61128 -5.00923 0
M  V30 3991 O 362.583 -2.32726 -5.19449 0
M  V30 3992 N 363.785 -0.522958 -5.7814 0
M  V30 3993 H 366.55 -2.17525 -2.06162 0
M  V30 3994 H 364.111 -1.27043 -1.00358 0
M  V30 3995 H 366.103 -0.557556 -4.00841 0
M  V30 3996 H 364.673 0.0337293 -3.12582 0
M  V30 3997 H 363.893 -2.45166 -3.08686 0
M  V30 3998 H 365.181 -2.78498 -4.25812 0
M  V30 3999 H 364.579 0.0723518 -5.65654 0
M  V30 4000 H 363.136 -0.301089 -6.51104 0
M  V30 4001 N 366.569 1.04691 -1.17803 0
M  V30 4002 C 367.479 2.16057 -0.914151 0
M  V30 4003 C 368.495 1.73589 0.119503 0
M  V30 4004 O 369.671 2.01308 -0.0609468 0
M  V30 4005 C 366.736 3.4394 -0.436603 0
M  V30 4006 C 365.797 4.00825 -1.53746 0
M  V30 4007 C 365.03 5.22604 -1.0826 0
M  V30 4008 O 365.253 5.70367 0.0612244 0
M  V30 4009 O 364.187 5.7186 -1.87775 0
M  V30 4010 H 368.013 2.41169 -1.84584 0
M  V30 4011 H 365.598 1.1453 -0.959334 0
M  V30 4012 H 367.48 4.21024 -0.178057 0
M  V30 4013 H 366.155 3.20316 0.466869 0
M  V30 4014 H 365.062 3.25158 -1.84995 0
M  V30 4015 H 366.395 4.28778 -2.41683 0
M  V30 4016 N 368.047 0.979072 1.23499 0
M  V30 4017 C 368.98 0.463027 2.23453 0
M  V30 4018 C 369.958 -0.469128 1.55685 0
M  V30 4019 O 371.142 -0.397882 1.84253 0
M  V30 4020 C 368.269 -0.330308 3.37086 0
M  V30 4021 C 367.315 0.545795 4.22993 0
M  V30 4022 S 368.148 1.99285 4.97037 0
M  V30 4023 C 369.304 1.20862 6.1412 0
M  V30 4024 H 369.537 1.31005 2.6688 0
M  V30 4025 H 367.07 0.784965 1.32957 0
M  V30 4026 H 369.028 -0.782027 4.02982 0
M  V30 4027 H 367.689 -1.15244 2.92194 0
M  V30 4028 H 366.882 -0.0638928 5.03959 0
M  V30 4029 H 366.484 0.933705 3.62157 0
M  V30 4030 H 368.776 0.469284 6.75873 0
M  V30 4031 H 369.719 1.99307 6.79472 0
M  V30 4032 H 370.127 0.727992 5.59786 0
M  V30 4033 N 369.525 -1.3858 0.750561 0
M  V30 4034 C 370.455 -2.33102 0.136237 0
M  V30 4035 C 371.436 -1.54713 -0.706965 0
M  V30 4036 O 372.621 -1.83043 -0.648769 0
M  V30 4037 C 369.751 -3.38882 -0.760017 0
M  V30 4038 C 368.705 -4.27995 -0.0197785 0
M  V30 4039 C 368.031 -5.24605 -1.03408 0
M  V30 4040 C 369.331 -5.09554 1.14684 0
M  V30 4041 H 371.025 -2.84726 0.925822 0
M  V30 4042 H 368.571 -1.36898 0.446654 0
M  V30 4043 H 370.524 -4.0397 -1.19943 0
M  V30 4044 H 369.248 -2.85734 -1.58189 0
M  V30 4045 H 367.907 -3.64409 0.400184 0
M  V30 4046 H 367.555 -4.67746 -1.84994 0
M  V30 4047 H 367.255 -5.85081 -0.543464 0
M  V30 4048 H 368.779 -5.9257 -1.47288 0
M  V30 4049 H 370.193 -5.67899 0.785118 0
M  V30 4050 H 368.59 -5.7925 1.56812 0
M  V30 4051 H 369.66 -4.4347 1.96118 0
M  V30 4052 N 371.003 -0.499398 -1.49478 0
M  V30 4053 C 372.228 0.044722 -2.07352 0
M  V30 4054 C 372.653 1.30207 -1.35749 0
M  V30 4055 O 372.011 1.76516 -0.413732 0
M  V30 4056 C 372.059 0.283013 -3.59488 0
M  V30 4057 O 371.163 1.35804 -3.89398 0
M  V30 4058 H 370.504 -0.0255147 -0.66351 0
M  V30 4059 H 373.034 -0.698561 -1.92305 0
M  V30 4060 H 373.044 0.515007 -4.04737 0
M  V30 4061 H 371.719 -0.635636 -4.11014 0
M  V30 4062 H 370.296 1.11113 -3.55961 0
M  V30 4063 N 372.481 1.55866 -0.233164 0
M  V30 4064 C 373.728 1.98603 0.395374 0
M  V30 4065 C 374.056 1.12105 1.58942 0
M  V30 4066 O 373.311 0.168656 1.94972 0
M  V30 4067 C 373.61 3.46856 0.861724 0
M  V30 4068 C 373.276 4.50348 -0.223066 0
M  V30 4069 C 371.938 4.78371 -0.521038 0
M  V30 4070 C 374.29 5.12355 -0.956124 0
M  V30 4071 C 371.618 5.6568 -1.55638 0
M  V30 4072 C 373.97 6.00786 -1.98089 0
M  V30 4073 C 372.634 6.27148 -2.28565 0
M  V30 4074 H 371.904 0.726739 0.144677 0
M  V30 4075 H 374.551 1.88491 -0.338114 0
M  V30 4076 H 372.856 3.5423 1.67418 0
M  V30 4077 H 374.553 3.77302 1.35809 0
M  V30 4078 H 371.143 4.28596 0.0193234 0
M  V30 4079 H 375.327 4.90765 -0.739166 0
M  V30 4080 H 370.583 5.84365 -1.798 0
M  V30 4081 H 374.757 6.4788 -2.55391 0
M  V30 4082 H 372.384 6.94597 -3.08932 0
M  V30 4083 N 373.959 -0.0401083 1.57549 0
M  V30 4084 C 374.869 -1.06133 2.0922 0
M  V30 4085 C 375.885 -1.40356 1.0284 0
M  V30 4086 O 377.061 -1.49897 1.34509 0
M  V30 4087 C 374.126 -2.34658 2.55218 0
M  V30 4088 C 373.187 -2.07117 3.76033 0
M  V30 4089 C 372.42 -3.29514 4.19829 0
M  V30 4090 O 372.643 -4.39794 3.63232 0
M  V30 4091 O 371.577 -3.15863 5.12362 0
M  V30 4092 H 375.403 -0.652244 2.96613 0
M  V30 4093 H 372.988 -0.256368 1.47184 0
M  V30 4094 H 374.87 -3.10239 2.85184 0
M  V30 4095 H 373.545 -2.74883 1.70941 0
M  V30 4096 H 372.452 -1.29139 3.51104 0
M  V30 4097 H 373.785 -1.71754 4.61261 0
M  V30 4098 N 375.437 -1.54477 -0.31217 0
M  V30 4099 C 376.347 -1.87695 -1.4074 0
M  V30 4100 C 377.363 -0.769975 -1.56036 0
M  V30 4101 O 378.539 -1.06537 -1.70915 0
M  V30 4102 C 375.604 -2.10755 -2.75287 0
M  V30 4103 C 374.665 -3.34514 -2.69071 0
M  V30 4104 C 373.898 -3.56465 -3.97201 0
M  V30 4105 O 374.121 -2.81637 -4.96021 0
M  V30 4106 O 373.055 -4.49964 -3.9977 0
M  V30 4107 H 376.881 -2.80849 -1.15574 0
M  V30 4108 H 374.466 -1.40526 -0.507228 0
M  V30 4109 H 376.348 -2.27188 -3.54913 0
M  V30 4110 H 375.023 -1.20788 -3.0032 0
M  V30 4111 H 373.93 -3.23456 -1.87955 0
M  V30 4112 H 375.263 -4.24575 -2.48992 0
M  V30 4113 N 376.915 0.57481 -1.46744 0
M  V30 4114 C 378.143 1.35856 -1.56047 0
M  V30 4115 C 378.558 1.87691 -0.204365 0
M  V30 4116 O 377.915 1.64049 0.79963 0
M  V30 4117 C 377.966 2.54066 -2.57163 0
M  V30 4118 O 377.687 2.04377 -3.87507 0
M  V30 4119 C 379.188 3.46514 -2.76483 0
M  V30 4120 H 376.408 0.414754 -0.527466 0
M  V30 4121 H 378.952 0.698035 -1.92218 0
M  V30 4122 H 377.107 3.16092 -2.23974 0
M  V30 4123 H 377.521 2.81419 -4.4261 0
M  V30 4124 H 378.995 4.25919 -3.51137 0
M  V30 4125 H 379.472 3.98951 -1.83671 0
M  V30 4126 H 380.078 2.90318 -3.10799 0
M  V30 4127 N 378.394 1.34581 0.820102 0
M  V30 4128 C 379.64 1.27285 1.57881 0
M  V30 4129 C 379.973 -0.156137 1.93571 0
M  V30 4130 O 379.248 -1.10222 1.60254 0
M  V30 4131 C 379.531 2.16639 2.87645 0
M  V30 4132 C 379.384 3.68088 2.58517 0
M  V30 4133 C 380.703 2.05378 3.8924 0
M  V30 4134 H 377.822 0.463714 0.572833 0
M  V30 4135 H 380.464 1.64859 0.944539 0
M  V30 4136 H 378.614 1.84725 3.41773 0
M  V30 4137 H 380.286 4.10382 2.10676 0
M  V30 4138 H 378.529 3.89038 1.91917 0
M  V30 4139 H 379.2 4.2598 3.51063 0
M  V30 4140 H 381.676 2.33404 3.44473 0
M  V30 4141 H 380.552 2.7012 4.77835 0
M  V30 4142 H 380.813 1.0316 4.29896 0
M  V30 4143 N 379.872 -1.04064 1.18357 0
M  V30 4144 C 381.283 -1.58719 0.98312 0
M  V30 4145 C 381.634 -1.90556 -0.467193 0
M  V30 4146 O 380.759 -1.69561 -1.34454 0
M  V30 4147 C 381.354 -2.88379 1.77828 0
M  V30 4148 C 379.913 -3.3965 1.62218 0
M  V30 4149 C 379.06 -2.13235 1.77274 0
M  V30 4150 H 382.011 -0.867359 1.32901 0
M  V30 4151 H 382.032 -3.58773 1.26737 0
M  V30 4152 H 381.544 -2.65176 2.83379 0
M  V30 4153 H 379.645 -3.67866 0.592036 0
M  V30 4154 H 379.758 -4.13475 2.42023 0
M  V30 4155 H 378.122 -2.24542 1.20221 0
M  V30 4156 H 378.905 -1.92487 2.8426 0
M  V30 4157 N 381.35 -0.985608 -1.22978 0
M  V30 4158 C 382.596 -0.65836 -1.91816 0
M  V30 4159 C 382.929 0.806692 -1.76653 0
M  V30 4160 O 382.204 1.58252 -1.13078 0
M  V30 4161 C 382.487 -1.056 -3.44268 0
M  V30 4162 C 382.34 -2.57906 -3.68516 0
M  V30 4163 C 383.659 -0.603781 -4.35939 0
M  V30 4164 H 380.778 -0.24065 -0.696604 0
M  V30 4165 H 383.42 -1.22783 -1.44998 0
M  V30 4166 H 381.57 -0.571445 -3.84274 0
M  V30 4167 H 383.242 -3.13976 -3.3796 0
M  V30 4168 H 381.485 -3.00305 -3.13048 0
M  V30 4169 H 382.156 -2.80779 -4.75255 0
M  V30 4170 H 384.632 -1.01987 -4.03408 0
M  V30 4171 H 383.508 -0.910383 -5.41298 0
M  V30 4172 H 383.769 0.495761 -4.39312 0
M  V30 4173 N 382.828 1.3818 -0.7579 0
M  V30 4174 C 384.239 1.82726 -0.383134 0
M  V30 4175 C 384.59 1.63214 1.08884 0
M  V30 4176 O 383.715 1.13566 1.84205 0
M  V30 4177 C 384.31 3.31728 -0.688631 0
M  V30 4178 C 382.869 3.74606 -0.367091 0
M  V30 4179 C 382.016 2.60896 -0.939599 0
M  V30 4180 H 384.967 1.26847 -0.953699 0
M  V30 4181 H 384.988 3.80487 0.0316492 0
M  V30 4182 H 384.5 3.45898 -1.76001 0
M  V30 4183 H 382.601 3.66013 0.697532 0
M  V30 4184 H 382.714 4.71215 -0.865658 0
M  V30 4185 H 381.078 2.52075 -0.3647 0
M  V30 4186 H 381.861 2.77864 -2.0161 0
M  V30 4187 N 384.306 0.507319 1.49211 0
M  V30 4188 C 385.554 -0.0348839 2.0207 0
M  V30 4189 C 385.875 -1.36898 1.38866 0
M  V30 4190 O 385.145 -1.88133 0.546151 0
M  V30 4191 H 383.725 -0.0158812 0.746831 0
M  V30 4192 H 386.387 0.665998 1.83168 0
M  V30 4193 H 385.483 -0.159917 3.1169 0
M  V30 4194 N 385.784 -1.5574 0.241426 0
M  V30 4195 C 387.009 -2.0366 -0.392111 0
M  V30 4196 C 387.434 -1.11969 -1.51144 0
M  V30 4197 O 386.792 -0.111594 -1.80956 0
M  V30 4198 C 386.84 -3.49638 -0.882371 0
M  V30 4199 O 385.944 -3.6108 -1.99235 0
M  V30 4200 H 385.285 -0.658379 -0.0862122 0
M  V30 4201 H 387.815 -2.01302 0.365881 0
M  V30 4202 H 387.825 -3.90351 -1.18702 0
M  V30 4203 H 386.5 -4.15852 -0.0632361 0
M  V30 4204 H 385.077 -3.32262 -1.69282 0
M  V30 4205 N 387.262 0.0317525 -1.57568 0
M  V30 4206 C 388.225 1.01783 -2.0536 0
M  V30 4207 C 389.225 1.29203 -0.957253 0
M  V30 4208 O 390.415 1.24251 -1.22095 0
M  V30 4209 C 387.547 2.35137 -2.46827 0
M  V30 4210 H 388.74 0.605062 -2.93733 0
M  V30 4211 H 386.293 0.278514 -1.53799 0
M  V30 4212 H 387.028 2.81168 -1.61602 0
M  V30 4213 H 386.813 2.16566 -3.26866 0
M  V30 4214 H 388.303 3.05938 -2.84239 0
M  V30 4215 N 388.74 1.54641 0.303973 0
M  V30 4216 C 389.688 1.86137 1.39484 0
M  V30 4217 C 390.682 0.734854 1.52631 0
M  V30 4218 O 391.888 0.918803 1.54784 0
M  V30 4219 H 388.263 0.590324 0.465856 0
M  V30 4220 H 390.234 2.77324 1.10154 0
M  V30 4221 C 388.983 2.12274 2.75382 0
M  V30 4222 H 388.306 2.98429 2.66046 0
M  V30 4223 H 389.746 2.38254 3.5073 0
M  V30 4224 C 388.205 0.920365 3.24085 0
M  V30 4225 O 388.735 0.139377 4.01458 0
M  V30 4226 N 386.941 0.726566 2.81371 0
M  V30 4227 H 386.488 1.36332 2.18567 0
M  V30 4228 H 386.446 -0.0763799 3.14307 0
M  V30 4229 N 390.218 -0.567019 1.47046 0
M  V30 4230 C 391.466 -1.322 1.52864 0
M  V30 4231 C 391.787 -1.94088 0.188388 0
M  V30 4232 O 391.057 -1.7941 -0.786693 0
M  V30 4233 H 389.637 -0.490894 0.563056 0
M  V30 4234 H 392.299 -0.662879 1.83281 0
M  V30 4235 H 391.395 -2.12062 2.2899 0
M  V30 4236 N 391.696 -1.35014 -0.812953 0
M  V30 4237 C 392.945 -1.27269 -1.56479 0
M  V30 4238 C 393.258 0.152771 -1.95002 0
M  V30 4239 O 394.464 0.352451 -2.69203 0
M  V30 4240 C 392.92 -2.23159 -2.82362 0
M  V30 4241 C 392.528 -3.71016 -2.511 0
M  V30 4242 C 394.272 -2.24342 -3.60376 0
M  V30 4243 C 392.179 -4.58746 -3.73237 0
M  V30 4244 H 391.109 -0.472829 -0.587324 0
M  V30 4245 H 393.76 -1.6024 -0.894171 0
M  V30 4246 H 392.142 -1.83151 -3.51101 0
M  V30 4247 H 393.316 -4.1962 -1.90409 0
M  V30 4248 H 391.631 -3.72378 -1.86343 0
M  V30 4249 H 394.228 -2.87107 -4.51081 0
M  V30 4250 H 394.571 -1.24542 -3.97234 0
M  V30 4251 H 395.104 -2.62846 -2.98591 0
M  V30 4252 H 391.843 -5.59521 -3.41492 0
M  V30 4253 H 391.363 -4.14871 -4.33176 0
M  V30 4254 H 393.042 -4.73852 -4.40537 0
M  V30 4255 N 393.175 1.03435 -1.18907 0
M  V30 4256 C 394.123 2.13703 -0.918353 0
M  V30 4257 C 395.117 1.68947 0.123767 0
M  V30 4258 O 396.323 1.79983 -0.0249701 0
M  V30 4259 H 392.698 0.698112 -0.279542 0
M  V30 4260 H 394.669 2.33731 -1.85506 0
M  V30 4261 C 393.418 3.44542 -0.467532 0
M  V30 4262 H 392.741 3.79394 -1.26095 0
M  V30 4263 H 394.181 4.22812 -0.317164 0
M  V30 4264 C 392.64 3.26829 0.817588 0
M  V30 4265 O 393.17 3.54975 1.88031 0
M  V30 4266 N 391.376 2.80139 0.772677 0
M  V30 4267 H 390.923 2.57434 -0.0923883 0
M  V30 4268 H 390.881 2.68668 1.63294 0
M  V30 4269 N 394.653 0.992116 1.22453 0
M  V30 4270 C 395.616 0.546883 2.2258 0
M  V30 4271 C 396.616 -0.369829 1.56489 0
M  V30 4272 O 397.806 -0.161896 1.73446 0
M  V30 4273 C 394.938 -0.204659 3.40285 0
M  V30 4274 H 396.131 1.43234 2.63484 0
M  V30 4275 H 393.684 0.779239 1.3549 0
M  V30 4276 H 394.419 -1.10614 3.04853 0
M  V30 4277 H 394.204 0.45354 3.89468 0
M  V30 4278 H 395.694 -0.504358 4.14543 0
M  V30 4279 N 396.131 -1.37776 0.765217 0
M  V30 4280 C 397.061 -2.32945 0.160953 0
M  V30 4281 C 398.042 -1.55454 -0.690516 0
M  V30 4282 O 399.227 -1.83721 -0.629318 0
M  V30 4283 C 396.357 -3.39669 -0.724031 0
M  V30 4284 C 395.311 -4.27992 0.0256173 0
M  V30 4285 C 394.637 -5.25673 -0.978383 0
M  V30 4286 C 395.937 -5.08309 1.20082 0
M  V30 4287 H 397.631 -2.83728 0.955969 0
M  V30 4288 H 395.177 -1.36416 0.461149 0
M  V30 4289 H 397.13 -4.05219 -1.15652 0
M  V30 4290 H 395.854 -2.87396 -1.5515 0
M  V30 4291 H 394.513 -3.63964 0.438812 0
M  V30 4292 H 394.161 -4.69682 -1.80022 0
M  V30 4293 H 393.861 -5.85625 -0.481378 0
M  V30 4294 H 395.385 -5.94098 -1.40995 0
M  V30 4295 H 396.799 -5.67034 0.845307 0
M  V30 4296 H 395.196 -5.77554 1.62947 0
M  V30 4297 H 396.266 -4.41365 2.00811 0
M  V30 4298 N 397.609 -0.515225 -1.4894 0
M  V30 4299 C 398.857 0.0241671 -2.02086 0
M  V30 4300 C 399.178 1.3616 -1.3959 0
M  V30 4301 O 398.448 1.87841 -0.556121 0
M  V30 4302 H 397.028 0.0119203 -0.746905 0
M  V30 4303 H 399.69 -0.675702 -1.82812 0
M  V30 4304 H 398.786 0.143385 -3.1177 0
M  V30 4305 N 399.087 1.5561 -0.249682 0
M  V30 4306 C 400.017 2.24477 0.642826 0
M  V30 4307 C 400.998 1.22601 1.17911 0
M  V30 4308 O 402.183 1.5126 1.21795 0
M  V30 4309 C 399.313 2.94638 1.83863 0
M  V30 4310 C 398.267 4.03227 1.435 0
M  V30 4311 C 397.593 4.60828 2.71186 0
M  V30 4312 C 398.893 5.18796 0.604002 0
M  V30 4313 H 400.587 2.99321 0.0685625 0
M  V30 4314 H 398.133 1.43965 0.0315363 0
M  V30 4315 H 400.086 3.41517 2.46868 0
M  V30 4316 H 398.81 2.17287 2.43832 0
M  V30 4317 H 397.469 3.57121 0.828275 0
M  V30 4318 H 397.117 3.80174 3.29358 0
M  V30 4319 H 396.817 5.34132 2.44901 0
M  V30 4320 H 398.341 5.10442 3.35084 0
M  V30 4321 H 399.755 5.61883 1.13842 0
M  V30 4322 H 398.152 5.98506 0.437097 0
M  V30 4323 H 399.222 4.83384 -0.383147 0
M  V30 4324 N 400.565 -0.0233959 1.57583 0
M  V30 4325 C 401.811 -0.714119 1.89811 0
M  V30 4326 C 402.144 -1.74702 0.848113 0
M  V30 4327 O 401.419 -1.94023 -0.136135 0
M  V30 4328 C 401.702 -1.37853 3.32669 0
M  V30 4329 C 401.555 -0.358764 4.48367 0
M  V30 4330 C 402.874 -2.31101 3.7454 0
M  V30 4331 H 399.993 -0.25814 0.690314 0
M  V30 4332 H 402.635 0.0230927 1.89986 0
M  V30 4333 H 400.785 -2.00689 3.3265 0
M  V30 4334 H 402.457 0.268115 4.6052 0
M  V30 4335 H 400.7 0.321387 4.32608 0
M  V30 4336 H 401.371 -0.862242 5.45224 0
M  V30 4337 H 403.847 -1.78304 3.75961 0
M  V30 4338 H 402.723 -2.74567 4.75294 0
M  V30 4339 H 402.984 -3.18018 3.0711 0
M  V30 4340 N 402.043 -1.548 -0.295768 0
M  V30 4341 C 403.289 -1.74588 -1.03184 0
M  V30 4342 C 403.622 -0.532962 -1.86744 0
M  V30 4343 O 402.897 0.469872 -1.88739 0
M  V30 4344 C 403.18 -3.03791 -1.93347 0
M  V30 4345 C 403.033 -4.35392 -1.12933 0
M  V30 4346 C 404.352 -3.28892 -2.92435 0
M  V30 4347 H 401.471 -0.635221 -0.373715 0
M  V30 4348 H 404.113 -1.87519 -0.30606 0
M  V30 4349 H 402.263 -2.92898 -2.55232 0
M  V30 4350 H 403.935 -4.58211 -0.532943 0
M  V30 4351 H 402.178 -4.31642 -0.432168 0
M  V30 4352 H 402.849 -5.22074 -1.79284 0
M  V30 4353 H 405.325 -3.39429 -2.4068 0
M  V30 4354 H 404.201 -4.20603 -3.52682 0
M  V30 4355 H 404.462 -2.47437 -3.6637 0
M  V30 4356 N 403.521 0.559213 -1.47345 0
M  V30 4357 C 404.768 1.31648 -1.53867 0
M  V30 4358 C 405.096 1.93468 -0.200104 0
M  V30 4359 O 404.351 1.78295 0.806799 0
M  V30 4360 C 404.65 2.44853 -2.6035 0
M  V30 4361 C 404.316 2.00876 -4.03683 0
M  V30 4362 C 402.978 1.88599 -4.42701 0
M  V30 4363 C 405.33 1.67279 -4.93626 0
M  V30 4364 C 402.658 1.41017 -5.69501 0
M  V30 4365 C 405.01 1.21169 -6.20887 0
M  V30 4366 C 403.674 1.07487 -6.58789 0
M  V30 4367 H 402.944 0.481734 -0.56304 0
M  V30 4368 H 405.591 0.627301 -1.80934 0
M  V30 4369 H 403.896 3.19318 -2.27032 0
M  V30 4370 H 405.593 3.03039 -2.62619 0
M  V30 4371 H 402.183 2.11374 -3.72853 0
M  V30 4372 H 406.367 1.75638 -4.64182 0
M  V30 4373 H 401.623 1.29086 -5.97618 0
M  V30 4374 H 405.797 0.942345 -6.89995 0
M  V30 4375 H 403.424 0.703946 -7.56934 0
M  V30 4376 N 404.999 1.35443 0.805782 0
M  V30 4377 C 406.224 1.32037 1.59941 0
M  V30 4378 C 406.649 -0.0994215 1.87837 0
M  V30 4379 O 406.007 -1.06648 1.46615 0
M  V30 4380 C 406.055 2.13354 2.90711 0
M  V30 4381 O 405.159 1.5148 3.83572 0
M  V30 4382 H 404.5 0.452666 0.485787 0
M  V30 4383 H 407.03 1.78496 1.00002 0
M  V30 4384 H 407.04 2.25338 3.40128 0
M  V30 4385 H 405.715 3.16572 2.69732 0
M  V30 4386 H 404.292 1.4834 3.42125 0
M  V30 4387 N 406.477 -1.02803 1.19454 0
M  V30 4388 C 407.723 -1.76478 0.999171 0
M  V30 4389 C 408.056 -1.88456 -0.468828 0
M  V30 4390 O 407.331 -1.40198 -1.34814 0
M  V30 4391 C 407.614 -3.19044 1.66981 0
M  V30 4392 C 407.467 -3.14932 3.21151 0
M  V30 4393 C 408.786 -4.17456 1.39349 0
M  V30 4394 H 405.905 -0.640614 0.364393 0
M  V30 4395 H 408.547 -1.20005 1.47305 0
M  V30 4396 H 406.697 -3.67263 1.2669 0
M  V30 4397 H 408.369 -2.74605 3.70661 0
M  V30 4398 H 406.612 -2.52625 3.52652 0
M  V30 4399 H 407.283 -4.1566 3.63223 0
M  V30 4400 H 409.759 -3.77842 1.74283 0
M  V30 4401 H 408.635 -5.154 1.88823 0
M  V30 4402 H 408.896 -4.40949 0.318813 0
M  V30 4403 N 407.956 -0.998596 -1.21925 0
M  V30 4404 C 408.919 -0.558679 -2.22287 0
M  V30 4405 C 409.919 0.361525 -1.56683 0
M  V30 4406 O 411.109 0.152695 -1.73529 0
M  V30 4407 C 408.241 0.18661 -3.40389 0
M  V30 4408 H 409.434 -1.4463 -2.62721 0
M  V30 4409 H 406.987 -0.786413 -1.35075 0
M  V30 4410 H 407.722 1.08996 -3.05435 0
M  V30 4411 H 407.507 -0.474188 -3.89222 0
M  V30 4412 H 408.997 0.482367 -4.14805 0
M  V30 4413 N 409.434 1.37368 -0.772513 0
M  V30 4414 C 410.681 1.99673 -0.337182 0
M  V30 4415 C 411.009 1.61324 1.0865 0
M  V30 4416 O 410.264 0.851377 1.7621 0
M  V30 4417 C 410.563 3.54817 -0.428876 0
M  V30 4418 C 410.229 4.12936 -1.81092 0
M  V30 4419 C 408.891 4.28523 -2.1891 0
M  V30 4420 C 411.243 4.44801 -2.71664 0
M  V30 4421 C 408.571 4.73277 -3.46735 0
M  V30 4422 C 410.923 4.90981 -3.98899 0
M  V30 4423 C 409.587 5.04773 -4.36761 0
M  V30 4424 H 408.857 0.730656 -0.123384 0
M  V30 4425 H 411.504 1.64124 -0.986686 0
M  V30 4426 H 409.809 3.90618 0.304167 0
M  V30 4427 H 411.506 4.00933 -0.0733334 0
M  V30 4428 H 408.096 4.01233 -1.50699 0
M  V30 4429 H 412.28 4.32344 -2.43706 0
M  V30 4430 H 407.536 4.82142 -3.75964 0
M  V30 4431 H 411.71 5.14603 -4.69208 0
M  V30 4432 H 409.337 5.39211 -5.35868 0
M  V30 4433 N 410.912 0.523116 1.48665 0
M  V30 4434 C 412.16 -0.0134497 2.02096 0
M  V30 4435 C 412.481 -1.35418 1.40311 0
M  V30 4436 O 411.751 -1.87543 0.566074 0
M  V30 4437 H 410.331 -0.00795915 0.746958 0
M  V30 4438 H 412.993 0.685388 1.82451 0
M  V30 4439 H 412.089 -0.126849 3.11842 0
M  V30 4440 N 412.39 -1.55475 0.257931 0
M  V30 4441 C 413.32 -2.24815 -0.630912 0
M  V30 4442 C 414.301 -1.23224 -1.17259 0
M  V30 4443 O 415.486 -1.51904 -1.20991 0
M  V30 4444 C 412.616 -2.95609 -1.82298 0
M  V30 4445 C 411.57 -4.03982 -1.41359 0
M  V30 4446 C 410.896 -4.6226 -2.68738 0
M  V30 4447 C 412.196 -5.19109 -0.57648 0
M  V30 4448 H 413.89 -2.99354 -0.0526878 0
M  V30 4449 H 411.436 -1.4398 -0.023901 0
M  V30 4450 H 413.389 -3.42822 -2.45054 0
M  V30 4451 H 412.113 -2.18577 -2.42676 0
M  V30 4452 H 410.772 -3.57555 -0.809324 0
M  V30 4453 H 410.42 -3.81915 -3.27338 0
M  V30 4454 H 410.12 -5.35424 -2.42065 0
M  V30 4455 H 411.644 -5.12212 -3.32372 0
M  V30 4456 H 413.058 -5.62479 -1.10861 0
M  V30 4457 H 411.455 -5.98729 -0.405351 0
M  V30 4458 H 412.525 -4.83174 0.408776 0
M  V30 4459 N 413.868 0.0150385 -1.57593 0
M  V30 4460 C 415.114 0.704043 -1.90187 0
M  V30 4461 C 415.447 1.74249 -0.857366 0
M  V30 4462 O 414.722 1.94092 0.125843 0
M  V30 4463 C 415.005 1.36087 -3.33395 0
M  V30 4464 C 414.858 0.334981 -4.48551 0
M  V30 4465 C 416.177 2.29112 -3.7576 0
M  V30 4466 H 413.296 0.254475 -0.691673 0
M  V30 4467 H 415.938 -0.0331678 -1.89971 0
M  V30 4468 H 414.088 1.98922 -3.3371 0
M  V30 4469 H 415.76 -0.292534 -4.60372 0
M  V30 4470 H 414.003 -0.344325 -4.32431 0
M  V30 4471 H 414.674 0.833316 -5.45674 0
M  V30 4472 H 417.15 1.76308 -3.76902 0
M  V30 4473 H 416.026 2.72043 -4.76743 0
M  V30 4474 H 416.287 3.16385 -3.08793 0
M  V30 4475 N 415.346 1.54954 0.287554 0
M  V30 4476 C 416.595 1.74081 1.01877 0
M  V30 4477 C 416.908 0.541135 1.87966 0
M  V30 4478 O 418.114 0.614491 2.64455 0
M  V30 4479 C 416.57 3.08042 1.86113 0
M  V30 4480 C 416.178 4.35531 1.04961 0
M  V30 4481 C 417.922 3.36523 2.58752 0
M  V30 4482 C 415.829 5.60538 1.88551 0
M  V30 4483 H 414.759 0.64884 0.384087 0
M  V30 4484 H 417.41 1.81426 0.275101 0
M  V30 4485 H 415.792 2.94696 2.64519 0
M  V30 4486 H 416.966 4.59751 0.31074 0
M  V30 4487 H 415.281 4.14085 0.43843 0
M  V30 4488 H 417.878 4.27122 3.21668 0
M  V30 4489 H 418.221 2.56 3.28283 0
M  V30 4490 H 418.754 3.50901 1.87386 0
M  V30 4491 H 415.493 6.43767 1.23466 0
M  V30 4492 H 415.013 5.40483 2.60074 0
M  V30 4493 H 416.692 5.98297 2.46273 0
M  V30 4494 N 416.824 -0.551391 1.4764 0
M  V30 4495 C 418.072 -1.30572 1.54258 0
M  V30 4496 C 418.393 -1.93877 0.208963 0
M  V30 4497 O 417.663 -1.80234 -0.767619 0
M  V30 4498 H 416.243 -0.484894 0.568231 0
M  V30 4499 H 418.905 -0.643402 1.83974 0
M  V30 4500 H 418.001 -2.09621 2.31226 0
M  V30 4501 N 418.302 -1.35869 -0.798587 0
M  V30 4502 C 419.55 -1.29332 -1.55298 0
M  V30 4503 C 419.871 0.129729 -1.94568 0
M  V30 4504 O 419.141 1.06796 -1.6423 0
M  V30 4505 H 417.721 -0.475737 -0.57592 0
M  V30 4506 H 420.383 -1.70062 -0.952093 0
M  V30 4507 H 419.479 -1.91458 -2.46476 0
M  V30 4508 N 419.78 1.02168 -1.19998 0
M  V30 4509 C 420.713 2.10232 -0.887558 0
M  V30 4510 C 421.691 1.61827 0.158317 0
M  V30 4511 O 422.875 1.88471 0.0330249 0
M  V30 4512 C 420.002 3.37092 -0.32964 0
M  V30 4513 C 419.048 4.0438 -1.3557 0
M  V30 4514 S 419.881 4.48956 -2.91888 0
M  V30 4515 C 421.037 5.79024 -2.37658 0
M  V30 4516 H 421.27 2.36409 -1.80272 0
M  V30 4517 H 418.803 1.15211 -1.0279 0
M  V30 4518 H 420.761 4.10498 -0.0142824 0
M  V30 4519 H 419.422 3.08996 0.563941 0
M  V30 4520 H 418.615 4.95632 -0.9146 0
M  V30 4521 H 418.217 3.37176 -1.61828 0
M  V30 4522 H 420.509 6.53942 -1.77103 0
M  V30 4523 H 421.452 6.27924 -3.27287 0
M  V30 4524 H 421.86 5.35043 -1.79971 0
M  V30 4525 N 421.258 1.00505 1.21394 0
M  V30 4526 C 422.205 0.565496 2.23765 0
M  V30 4527 C 423.175 -0.408466 1.60999 0
M  V30 4528 O 424.36 -0.310503 1.88257 0
M  V30 4529 C 421.5 -0.101667 3.4495 0
M  V30 4530 C 420.613 0.915479 4.22188 0
M  V30 4531 C 419.748 0.220574 5.30742 0
M  V30 4532 C 418.787 1.22527 5.99711 0
M  V30 4533 N 417.924 0.557831 6.9988 0
M  V30 4534 H 422.764 1.44314 2.60725 0
M  V30 4535 H 420.301 0.722643 1.28126 0
M  V30 4536 H 422.259 -0.505504 4.14126 0
M  V30 4537 H 420.889 -0.94303 3.08718 0
M  V30 4538 H 419.941 1.43756 3.52191 0
M  V30 4539 H 421.253 1.68005 4.69655 0
M  V30 4540 H 420.407 -0.239368 6.06228 0
M  V30 4541 H 419.146 -0.576401 4.84282 0
M  V30 4542 H 418.151 1.69571 5.22997 0
M  V30 4543 H 419.376 2.02332 6.48258 0
M  V30 4544 H 417.322 -0.219486 6.55633 0
M  V30 4545 H 417.239 1.26065 7.45415 0
M  V30 4546 H 418.507 0.121095 7.79406 0
M  V30 4547 N 422.737 -1.36956 0.779787 0
M  V30 4548 C 423.687 -2.27539 0.144892 0
M  V30 4549 C 424.671 -1.46493 -0.665488 0
M  V30 4550 O 425.863 -1.68968 -0.527141 0
M  V30 4551 C 422.992 -3.35512 -0.727082 0
M  V30 4552 C 422.078 -4.24001 0.0915642 0
M  V30 4553 N 422.469 -4.92757 1.14125 0
M  V30 4554 C 420.767 -4.45807 -0.131141 0
M  V30 4555 C 421.468 -5.58138 1.6388 0
M  V30 4556 N 420.444 -5.35241 0.94962 0
M  V30 4557 H 424.246 -2.78176 0.948446 0
M  V30 4558 H 421.76 -1.50169 0.618315 0
M  V30 4559 H 423.757 -3.99324 -1.19776 0
M  V30 4560 H 422.417 -2.86431 -1.52929 0
M  V30 4561 H 423.428 -4.94984 1.52353 0
M  V30 4562 H 420.105 -4.07582 -0.904621 0
M  V30 4563 H 421.495 -6.23071 2.51461 0
M  V30 4564 N 424.215 -0.530993 -1.48385 0
M  V30 4565 C 425.162 0.231223 -2.29639 0
M  V30 4566 C 426.132 0.932864 -1.37429 0
M  V30 4567 O 427.317 0.933692 -1.66394 0
M  V30 4568 C 424.457 1.27155 -3.2082 0
M  V30 4569 C 423.57 0.578655 -4.28107 0
M  V30 4570 C 422.705 1.602 -5.06467 0
M  V30 4571 C 421.744 0.892625 -6.05556 0
M  V30 4572 N 420.881 1.86157 -6.76971 0
M  V30 4573 H 425.721 -0.467848 -2.94305 0
M  V30 4574 H 423.258 -0.242556 -1.45086 0
M  V30 4575 H 425.216 1.88703 -3.72085 0
M  V30 4576 H 423.846 1.939 -2.58075 0
M  V30 4577 H 422.898 -0.150782 -3.80101 0
M  V30 4578 H 424.21 0.0217065 -4.98795 0
M  V30 4579 H 423.364 2.29173 -5.61751 0
M  V30 4580 H 422.103 2.19285 -4.35621 0
M  V30 4581 H 421.108 0.188829 -5.49476 0
M  V30 4582 H 422.333 0.307878 -6.78402 0
M  V30 4583 H 420.279 2.44147 -6.08875 0
M  V30 4584 H 420.196 1.35608 -7.43738 0
M  V30 4585 H 421.464 2.54325 -7.36844 0
M  V30 4586 N 425.693 1.55336 -0.266172 0
M  V30 4587 C 426.941 1.99003 0.35246 0
M  V30 4588 C 427.262 1.15591 1.57047 0
M  V30 4589 O 426.532 0.243268 1.94384 0
M  V30 4590 H 425.112 0.735025 0.133217 0
M  V30 4591 H 427.774 1.91367 -0.369434 0
M  V30 4592 H 426.87 3.05289 0.648453 0
M  V30 4593 N 427.171 -0.0066808 1.57599 0
M  V30 4594 C 428.587 -0.36267 1.55425 0
M  V30 4595 C 428.787 -1.75209 0.995187 0
M  V30 4596 O 427.843 -2.44616 0.626058 0
M  V30 4597 C 429.156 -0.244017 2.99708 0
M  V30 4598 C 430.704 -0.319451 3.11366 0
M  V30 4599 C 431.179 -0.229998 4.57422 0
M  V30 4600 N 432.67 -0.288105 4.62303 0
M  V30 4601 C 433.405 -0.242127 5.72889 0
M  V30 4602 N 432.901 -0.147133 6.92644 0
M  V30 4603 N 434.694 -0.293502 5.61333 0
M  V30 4604 H 426.845 0.902314 1.92281 0
M  V30 4605 H 429.108 0.34525 0.882896 0
M  V30 4606 H 428.814 0.711678 3.44424 0
M  V30 4607 H 428.688 -1.02877 3.629 0
M  V30 4608 H 431.075 -1.26559 2.66584 0
M  V30 4609 H 431.156 0.495055 2.50964 0
M  V30 4610 H 430.8 0.712566 5.02877 0
M  V30 4611 H 430.73 -1.0629 5.15761 0
M  V30 4612 H 433.221 -0.363126 3.76151 0
M  V30 4613 H 433.534 -0.117763 7.7271 0
M  V30 4614 H 431.879 -0.112857 6.94908 0
M  V30 4615 H 435.07 -0.365864 4.66668 0
M  V30 4616 H 435.243 -0.254204 6.47501 0
M  V30 4617 N 428.649 -1.55105 -0.279332 0
M  V30 4618 C 429.895 -1.75672 -1.01327 0
M  V30 4619 C 430.228 -0.552739 -1.86168 0
M  V30 4620 O 429.503 0.449827 -1.89227 0
M  V30 4621 C 429.786 -3.05825 -1.90114 0
M  V30 4622 C 429.639 -4.36565 -1.08309 0
M  V30 4623 C 430.958 -3.31975 -2.8893 0
M  V30 4624 H 428.077 -0.639149 -0.366957 0
M  V30 4625 H 430.719 -1.87833 -0.286154 0
M  V30 4626 H 428.869 -2.95588 -2.52111 0
M  V30 4627 H 430.541 -4.58751 -0.484314 0
M  V30 4628 H 428.784 -4.32076 -0.386362 0
M  V30 4629 H 429.455 -5.23946 -1.73737 0
M  V30 4630 H 431.931 -3.41963 -2.37067 0
M  V30 4631 H 430.807 -4.2432 -3.48201 0
M  V30 4632 H 431.068 -2.51309 -3.63725 0
M  V30 4633 N 430.127 0.543554 -1.4793 0
M  V30 4634 C 431.057 1.65888 -1.64327 0
M  V30 4635 C 432.038 1.62818 -0.492383 0
M  V30 4636 O 433.223 1.80226 -0.723338 0
M  V30 4637 C 430.353 3.04506 -1.67013 0
M  V30 4638 C 429.307 3.2243 -2.81466 0
M  V30 4639 C 428.633 4.61972 -2.69233 0
M  V30 4640 C 429.933 3.06496 -4.22915 0
M  V30 4641 H 431.627 1.52421 -2.57698 0
M  V30 4642 H 429.173 0.731849 -1.24016 0
M  V30 4643 H 431.126 3.82391 -1.77074 0
M  V30 4644 H 429.85 3.18964 -0.70212 0
M  V30 4645 H 428.509 2.46957 -2.70938 0
M  V30 4646 H 428.157 4.73247 -1.7043 0
M  V30 4647 H 427.857 4.74911 -3.46025 0
M  V30 4648 H 429.381 5.41974 -2.81242 0
M  V30 4649 H 430.795 3.74186 -4.34348 0
M  V30 4650 H 429.192 3.30938 -5.006 0
M  V30 4651 H 430.262 2.03077 -4.40327 0
M  V30 4652 N 431.605 1.3629 0.791371 0
M  V30 4653 C 433.021 1.16661 1.08914 0
M  V30 4654 C 433.221 -0.0106266 2.01497 0
M  V30 4655 O 432.277 -0.676596 2.43266 0
M  V30 4656 C 433.59 2.47656 1.70549 0
M  V30 4657 C 435.138 2.54002 1.82899 0
M  V30 4658 C 435.613 3.85078 2.47949 0
M  V30 4659 N 437.104 3.86413 2.5542 0
M  V30 4660 C 437.839 4.84572 3.06557 0
M  V30 4661 N 437.335 5.93124 3.58016 0
M  V30 4662 N 439.128 4.71994 3.05251 0
M  V30 4663 H 431.279 2.11668 0.176238 0
M  V30 4664 H 433.542 0.937486 0.140796 0
M  V30 4665 H 433.248 3.34059 1.09989 0
M  V30 4666 H 433.122 2.63319 2.70079 0
M  V30 4667 H 435.509 1.68018 2.42598 0
M  V30 4668 H 435.59 2.42239 0.821808 0
M  V30 4669 H 435.234 4.71467 1.88895 0
M  V30 4670 H 435.164 3.94135 3.49235 0
M  V30 4671 H 437.655 3.07988 2.18979 0
M  V30 4672 H 437.968 6.63999 3.95381 0
M  V30 4673 H 436.313 5.96796 3.56173 0
M  V30 4674 H 439.504 3.86321 2.64336 0
M  V30 4675 H 439.677 5.48653 3.44796 0
M  V30 4676 N 433.083 -1.0153 1.20538 0
M  V30 4677 C 434.36 -1.72327 0.925343 0
M  V30 4678 C 434.74 -2.03383 -0.565547 0
M  V30 4679 O 434.088 -1.69934 -1.52757 0
M  V30 4680 C 434.298 -2.9902 1.79967 0
M  V30 4681 C 435.646 -3.72258 2.04228 0
M  V30 4682 O 436.67 -3.08979 1.77231 0
M  V30 4683 O 435.529 -4.86053 2.4983 0
M  V30 4684 H 432.623 -0.751099 0.346092 0
M  V30 4685 H 435.169 -1.07366 1.31417 0
M  V30 4686 H 433.941 -2.72402 2.80915 0
M  V30 4687 H 433.564 -3.71721 1.41099 0
M  V30 4688 N 434.561 -1.01147 -1.20859 0
M  V30 4689 C 435.808 -0.697865 -1.90095 0
M  V30 4690 C 436.136 0.772014 -1.78522 0
M  V30 4691 O 435.391 1.57595 -1.16027 0
M  V30 4692 C 435.69 -1.0727 -3.40922 0
M  V30 4693 C 435.356 -2.53792 -3.72693 0
M  V30 4694 C 434.018 -2.93829 -3.81075 0
M  V30 4695 C 436.37 -3.48674 -3.87397 0
M  V30 4696 C 433.698 -4.27696 -4.01613 0
M  V30 4697 C 436.05 -4.82223 -4.09444 0
M  V30 4698 C 434.714 -5.21973 -4.16054 0
M  V30 4699 H 433.984 -0.255367 -0.695607 0
M  V30 4700 H 436.631 -1.27111 -1.43231 0
M  V30 4701 H 434.936 -0.417799 -3.89566 0
M  V30 4702 H 436.633 -0.807818 -3.92779 0
M  V30 4703 H 433.223 -2.21768 -3.66765 0
M  V30 4704 H 437.407 -3.18904 -3.80281 0
M  V30 4705 H 432.663 -4.58055 -4.04964 0
M  V30 4706 H 436.837 -5.55672 -4.19763 0
M  V30 4707 H 434.464 -6.25717 -4.31721 0
M  V30 4708 N 436.039 1.36541 -0.78704 0
M  V30 4709 C 437.286 1.99304 -0.358341 0
M  V30 4710 C 437.614 1.62467 1.06933 0
M  V30 4711 O 436.869 0.870019 1.75297 0
M  V30 4712 C 437.168 3.54343 -0.466485 0
M  V30 4713 C 436.834 4.10993 -1.85461 0
M  V30 4714 C 435.496 4.26177 -2.23443 0
M  V30 4715 C 437.848 4.41895 -2.76366 0
M  V30 4716 C 435.176 4.69573 -3.51736 0
M  V30 4717 C 437.528 4.86722 -4.04084 0
M  V30 4718 C 436.192 5.00112 -4.42091 0
M  V30 4719 H 435.462 0.729306 -0.131126 0
M  V30 4720 H 438.109 1.63068 -1.00404 0
M  V30 4721 H 436.414 3.90918 0.262719 0
M  V30 4722 H 438.111 4.00833 -0.115854 0
M  V30 4723 H 434.701 3.99612 -1.54946 0
M  V30 4724 H 438.885 4.29735 -2.48277 0
M  V30 4725 H 434.141 4.78127 -3.81057 0
M  V30 4726 H 438.315 5.09598 -4.7464 0
M  V30 4727 H 435.942 5.33498 -5.41557 0
M  V30 4728 N 437.518 0.538854 1.48102 0
M  V30 4729 C 438.795 -0.0568108 1.95517 0
M  V30 4730 C 439.175 -1.50408 1.48124 0
M  V30 4731 O 438.523 -2.17133 0.711727 0
M  V30 4732 C 438.733 0.0696262 3.48931 0
M  V30 4733 C 440.081 -0.0851202 4.24515 0
M  V30 4734 O 441.105 -0.0037347 3.562 0
M  V30 4735 O 439.964 -0.257025 5.45895 0
M  V30 4736 H 437.058 -0.0743695 0.823649 0
M  V30 4737 H 439.604 0.604081 1.58584 0
M  V30 4738 H 438.376 1.07744 3.76174 0
M  V30 4739 H 437.999 -0.629714 3.92582 0
M  V30 4740 N 438.996 -1.55193 0.274407 0
M  V30 4741 C 440.221 -2.04446 -0.348824 0
M  V30 4742 C 440.646 -1.15149 -1.48735 0
M  V30 4743 O 440.004 -0.149952 -1.80679 0
M  V30 4744 C 440.052 -3.51431 -0.808009 0
M  V30 4745 O 439.156 -3.65225 -1.91531 0
M  V30 4746 H 438.497 -0.66006 -0.0722276 0
M  V30 4747 H 441.027 -2.00481 0.408498 0
M  V30 4748 H 441.037 -3.92781 -1.10395 0
M  V30 4749 H 439.712 -4.15892 0.0249865 0
M  V30 4750 H 438.289 -3.35778 -1.62196 0
M  V30 4751 N 440.474 -0.00167713 -1.576 0
M  V30 4752 C 441.404 0.988091 -2.11563 0
M  V30 4753 C 442.385 1.35736 -1.02517 0
M  V30 4754 O 443.57 1.44082 -1.30208 0
M  V30 4755 C 440.7 2.27941 -2.62031 0
M  V30 4756 C 439.654 2.0517 -3.75619 0
M  V30 4757 C 438.98 3.4033 -4.12407 0
M  V30 4758 C 440.28 1.41294 -5.02825 0
M  V30 4759 H 441.974 0.538771 -2.94513 0
M  V30 4760 H 439.52 0.257712 -1.41675 0
M  V30 4761 H 441.473 2.97539 -2.9841 0
M  V30 4762 H 440.197 2.74989 -1.76205 0
M  V30 4763 H 438.856 1.37998 -3.39635 0
M  V30 4764 H 438.504 3.85085 -3.23603 0
M  V30 4765 H 438.204 3.25909 -4.88935 0
M  V30 4766 H 439.728 4.1124 -4.51347 0
M  V30 4767 H 441.142 2.00851 -5.36965 0
M  V30 4768 H 439.539 1.37356 -5.84169 0
M  V30 4769 H 440.609 0.382362 -4.8339 0
M  V30 4770 N 441.952 1.55251 0.271103 0
M  V30 4771 C 442.9 1.89054 1.35504 0
M  V30 4772 C 443.894 0.767064 1.51038 0
M  V30 4773 O 445.1 0.951429 1.528 0
M  V30 4774 H 441.475 0.600072 0.45323 0
M  V30 4775 H 443.446 2.79598 1.04247 0
M  V30 4776 C 442.195 2.18068 2.70817 0
M  V30 4777 H 441.518 3.04005 2.59656 0
M  V30 4778 H 442.958 2.4564 3.45597 0
M  V30 4779 C 441.417 0.988901 3.2206 0
M  V30 4780 O 441.947 0.224501 4.01072 0
M  V30 4781 N 440.153 0.786085 2.79766 0
M  V30 4782 H 439.7 1.40937 2.15626 0
M  V30 4783 H 439.658 -0.00969349 3.14399 0
M  V30 4784 N 443.43 -0.535701 1.48216 0
M  V30 4785 C 444.34 -1.66785 1.64985 0
M  V30 4786 C 445.356 -1.65654 0.532414 0
M  V30 4787 O 446.532 -1.8471 0.80275 0
M  V30 4788 C 443.597 -3.0326 1.68031 0
M  V30 4789 C 442.658 -3.1529 2.9136 0
M  V30 4790 C 441.891 -4.45255 2.94252 0
M  V30 4791 O 442.114 -5.32011 2.05719 0
M  V30 4792 O 441.048 -4.6153 3.86359 0
M  V30 4793 H 444.874 -1.55576 2.60825 0
M  V30 4794 H 442.459 -0.70815 1.31551 0
M  V30 4795 H 444.341 -3.84436 1.72589 0
M  V30 4796 H 443.016 -3.14805 0.753628 0
M  V30 4797 H 441.923 -2.3343 2.92337 0
M  V30 4798 H 443.256 -3.08658 3.83394 0
M  V30 4799 N 444.908 -1.36708 -0.784132 0
M  V30 4800 C 445.871 -1.31307 -1.87859 0
M  V30 4801 C 446.871 -0.219654 -1.59293 0
M  V30 4802 O 448.061 -0.47476 -1.67606 0
M  V30 4803 C 445.193 -1.03679 -3.24751 0
M  V30 4804 H 446.386 -2.28647 -1.94064 0
M  V30 4805 H 443.939 -1.21558 -0.98252 0
M  V30 4806 H 444.674 -0.0681936 -3.24228 0
M  V30 4807 H 444.459 -1.82811 -3.46876 0
M  V30 4808 H 445.949 -1.02518 -4.04821 0
M  V30 4809 N 446.386 1.0089 -1.21074 0
M  V30 4810 C 447.635 1.74019 -1.01981 0
M  V30 4811 C 447.948 1.90408 0.447665 0
M  V30 4812 O 449.154 2.60707 0.757906 0
M  V30 4813 C 447.61 3.13026 -1.77603 0
M  V30 4814 C 447.218 3.04623 -3.28495 0
M  V30 4815 C 448.962 3.90312 -1.66904 0
M  V30 4816 C 446.869 4.38685 -3.96623 0
M  V30 4817 H 445.799 0.652422 -0.377971 0
M  V30 4818 H 448.45 1.12755 -1.44771 0
M  V30 4819 H 446.832 3.74878 -1.27604 0
M  V30 4820 H 448.006 2.52032 -3.85767 0
M  V30 4821 H 446.321 2.40827 -3.39693 0
M  V30 4822 H 448.918 4.8951 -2.15138 0
M  V30 4823 H 449.261 4.11558 -0.62658 0
M  V30 4824 H 449.794 3.35104 -2.14359 0
M  V30 4825 H 446.533 4.22641 -5.01054 0
M  V30 4826 H 446.053 4.91252 -3.4414 0
M  V30 4827 H 447.732 5.075 -4.01314 0
M  V30 4828 N 447.864 1.01787 1.20321 0
M  V30 4829 C 448.797 0.533882 2.21867 0
M  V30 4830 C 449.775 -0.419361 1.57099 0
M  V30 4831 O 450.959 -0.339062 1.85426 0
M  V30 4832 C 448.086 -0.222899 3.37966 0
M  V30 4833 C 447.132 0.680091 4.21043 0
M  V30 4834 S 447.965 2.14997 4.90445 0
M  V30 4835 C 449.121 1.40339 6.09964 0
M  V30 4836 H 449.354 1.39429 2.62577 0
M  V30 4837 H 446.887 0.826867 1.30393 0
M  V30 4838 H 448.845 -0.653425 4.05266 0
M  V30 4839 H 447.506 -1.0589 2.95713 0
M  V30 4840 H 446.699 0.0964704 5.03908 0
M  V30 4841 H 446.301 1.04845 3.59004 0
M  V30 4842 H 448.593 0.68407 6.74038 0
M  V30 4843 H 449.536 2.20823 6.72787 0
M  V30 4844 H 449.944 0.905716 5.57187 0
M  V30 4845 N 449.342 -1.36122 0.79427 0
M  V30 4846 C 450.758 -1.5232 0.476525 0
M  V30 4847 C 450.958 -1.74685 -1.00436 0
M  V30 4848 O 450.014 -1.78115 -1.78973 0
M  V30 4849 C 451.327 -2.70607 1.31119 0
M  V30 4850 C 452.875 -2.8448 1.30537 0
M  V30 4851 C 453.35 -4.05778 2.12387 0
M  V30 4852 N 454.841 -4.12933 2.09859 0
M  V30 4853 C 455.576 -5.05876 2.69957 0
M  V30 4854 N 455.072 -6.04232 3.38934 0
M  V30 4855 N 456.865 -4.98528 2.59665 0
M  V30 4856 H 449.016 -1.1986 1.75349 0
M  V30 4857 H 451.279 -0.585418 0.745647 0
M  V30 4858 H 450.985 -2.60619 2.36158 0
M  V30 4859 H 450.859 -3.64888 0.955843 0
M  V30 4860 H 453.246 -2.93927 0.262876 0
M  V30 4861 H 453.327 -1.91093 1.70051 0
M  V30 4862 H 452.971 -3.97092 3.1667 0
M  V30 4863 H 452.901 -4.98323 1.70242 0
M  V30 4864 H 455.392 -3.42515 1.59662 0
M  V30 4865 H 455.705 -6.71724 3.82109 0
M  V30 4866 H 454.05 -6.04443 3.43036 0
M  V30 4867 H 457.241 -4.20641 2.05375 0
M  V30 4868 H 457.414 -5.70773 3.06793 0
M  V30 4869 N 450.82 -0.546701 -1.47814 0
M  V30 4870 C 451.75 0.195317 -2.32682 0
M  V30 4871 C 452.731 0.918981 -1.43139 0
M  V30 4872 O 453.916 0.901501 -1.72008 0
M  V30 4873 C 451.046 1.23237 -3.247 0
M  V30 4874 C 450 0.625818 -4.234 0
M  V30 4875 C 449.326 1.76674 -5.04669 0
M  V30 4876 C 450.626 -0.413515 -5.2066 0
M  V30 4877 H 452.32 -0.513184 -2.94969 0
M  V30 4878 H 449.866 -0.248241 -1.41844 0
M  V30 4879 H 451.819 1.75955 -3.82907 0
M  V30 4880 H 450.543 1.97067 -2.60446 0
M  V30 4881 H 449.202 0.120023 -3.66403 0
M  V30 4882 H 448.85 2.49383 -4.36826 0
M  V30 4883 H 448.55 1.36673 -5.71484 0
M  V30 4884 H 450.074 2.29738 -5.65732 0
M  V30 4885 H 451.488 0.0272042 -5.73294 0
M  V30 4886 H 449.885 -0.731825 -5.95621 0
M  V30 4887 H 450.955 -1.31325 -4.66778 0
M  V30 4888 N 452.299 1.55045 -0.282633 0
M  V30 4889 C 453.545 2.00056 0.332481 0
M  V30 4890 C 453.878 1.1708 1.54939 0
M  V30 4891 O 453.153 0.2427 1.9298 0
M  V30 4892 C 453.436 3.53086 0.70725 0
M  V30 4893 C 453.289 4.46813 -0.517521 0
M  V30 4894 C 454.608 4.12245 1.54084 0
M  V30 4895 H 451.727 0.727268 0.119373 0
M  V30 4896 H 454.369 1.85932 -0.391076 0
M  V30 4897 H 452.519 3.65253 1.32372 0
M  V30 4898 H 454.191 4.46579 -1.15607 0
M  V30 4899 H 452.434 4.18163 -1.1542 0
M  V30 4900 H 453.105 5.51595 -0.211426 0
M  V30 4901 H 455.581 4.03401 1.02013 0
M  V30 4902 H 454.457 5.19515 1.77186 0
M  V30 4903 H 454.718 3.62951 2.52427 0
M  V30 4904 N 453.777 0.010035 1.57597 0
M  V30 4905 C 455.025 -0.671371 1.90623 0
M  V30 4906 C 455.346 -1.73753 0.885151 0
M  V30 4907 O 454.616 -1.95752 -0.0760611 0
M  V30 4908 H 453.196 -0.250968 0.703579 0
M  V30 4909 H 455.858 0.0533325 1.94827 0
M  V30 4910 H 454.954 -1.13626 2.90681 0
M  V30 4911 N 455.255 -1.55392 -0.262866 0
M  V30 4912 C 456.504 -1.75679 -0.990943 0
M  V30 4913 C 456.817 -0.57097 -1.87081 0
M  V30 4914 O 458.023 -0.656486 -2.63444 0
M  V30 4915 C 456.479 -3.10964 -1.81188 0
M  V30 4916 C 456.087 -4.37146 -0.980188 0
M  V30 4917 C 457.831 -3.40597 -2.53365 0
M  V30 4918 C 455.738 -5.63466 -1.7961 0
M  V30 4919 H 454.668 -0.654868 -0.373716 0
M  V30 4920 H 457.319 -1.81841 -0.246203 0
M  V30 4921 H 455.701 -2.98867 -2.59797 0
M  V30 4922 H 456.875 -4.60187 -0.237558 0
M  V30 4923 H 455.19 -4.14731 -0.372497 0
M  V30 4924 H 457.787 -4.32186 -3.14833 0
M  V30 4925 H 458.13 -2.6119 -3.24169 0
M  V30 4926 H 458.663 -3.53838 -1.81779 0
M  V30 4927 H 455.402 -6.4565 -1.13209 0
M  V30 4928 H 454.922 -5.44552 -2.51443 0
M  V30 4929 H 456.601 -6.02139 -2.36723 0
M  V30 4930 N 456.733 0.527833 -1.48498 0
M  V30 4931 C 457.982 1.28003 -1.55878 0
M  V30 4932 C 458.295 1.9414 -0.238577 0
M  V30 4933 O 459.501 2.7083 -0.190643 0
M  V30 4934 C 457.957 2.32272 -2.74914 0
M  V30 4935 C 457.565 1.72196 -4.13585 0
M  V30 4936 C 459.309 3.08488 -2.91608 0
M  V30 4937 C 457.216 2.74417 -5.23879 0
M  V30 4938 H 456.146 0.481413 -0.580308 0
M  V30 4939 H 458.797 0.557195 -1.74836 0
M  V30 4940 H 457.179 3.07601 -2.49395 0
M  V30 4941 H 458.353 1.03041 -4.49132 0
M  V30 4942 H 456.668 1.08464 -4.02025 0
M  V30 4943 H 459.265 3.84879 -3.71177 0
M  V30 4944 H 459.608 3.64481 -2.01145 0
M  V30 4945 H 460.141 2.40274 -3.17038 0
M  V30 4946 H 456.88 2.23242 -6.16314 0
M  V30 4947 H 456.4 3.41893 -4.92818 0
M  V30 4948 H 458.079 3.37362 -5.52083 0
M  V30 4949 N 458.211 1.37122 0.776871 0
M  V30 4950 C 459.46 1.31373 1.53049 0
M  V30 4951 C 459.773 -0.101016 1.95339 0
M  V30 4952 O 460.979 -0.280953 2.70042 0
M  V30 4953 C 459.435 2.30567 2.76346 0
M  V30 4954 C 459.043 3.77543 2.41175 0
M  V30 4955 C 460.787 2.33818 3.54301 0
M  V30 4956 C 458.694 4.68481 3.60943 0
M  V30 4957 H 457.624 0.488234 0.574581 0
M  V30 4958 H 460.275 1.62554 0.851372 0
M  V30 4959 H 458.657 1.92396 3.46121 0
M  V30 4960 H 459.831 4.24521 1.79216 0
M  V30 4961 H 458.146 3.77187 1.76405 0
M  V30 4962 H 460.743 2.98965 4.4331 0
M  V30 4963 H 461.086 1.3503 3.93793 0
M  V30 4964 H 461.619 2.7067 2.91518 0
M  V30 4965 H 458.358 5.68378 3.26537 0
M  V30 4966 H 457.878 4.2621 4.22025 0
M  V30 4967 H 459.557 4.85366 4.27819 0
M  V30 4968 N 459.689 -1.00246 1.21608 0
M  V30 4969 C 460.935 -1.74417 1.04643 0
M  V30 4970 C 461.29 -1.87862 -0.415387 0
M  V30 4971 O 460.583 -1.40373 -1.30407 0
M  V30 4972 C 460.777 -3.15448 1.68009 0
M  V30 4973 C 460.606 -3.15755 3.20201 0
M  V30 4974 C 459.376 -3.2219 3.89258 0
M  V30 4975 C 461.574 -3.00668 4.17257 0
M  V30 4976 N 459.556 -3.1215 5.28617 0
M  V30 4977 C 460.927 -2.98553 5.43384 0
M  V30 4978 C 462.982 -2.84989 4.08272 0
M  V30 4979 C 461.685 -2.82364 6.61561 0
M  V30 4980 C 463.711 -2.70158 5.26088 0
M  V30 4981 C 463.073 -2.68721 6.51128 0
M  V30 4982 H 459.172 -0.648317 0.437274 0
M  V30 4983 H 461.756 -1.19129 1.54001 0
M  V30 4984 H 459.927 -3.69001 1.21215 0
M  V30 4985 H 461.659 -3.78128 1.44226 0
M  V30 4986 H 458.414 -3.29488 3.40198 0
M  V30 4987 H 458.838 -3.10465 6.01615 0
M  V30 4988 H 463.48 -2.84904 3.12393 0
M  V30 4989 H 461.198 -2.81196 7.57598 0
M  V30 4990 H 464.784 -2.59022 5.20959 0
M  V30 4991 H 463.664 -2.57382 7.40759 0
M  V30 4992 N 461.167 -1.02423 -1.1978 0
M  V30 4993 C 462.397 -0.736387 -1.93031 0
M  V30 4994 C 462.805 0.708023 -1.75453 0
M  V30 4995 O 462.148 1.4927 -1.07071 0
M  V30 4996 C 462.21 -1.00194 -3.45255 0
M  V30 4997 C 461.874 -2.43698 -3.86601 0
M  V30 4998 C 462.871 -3.41814 -3.91738 0
M  V30 4999 C 460.556 -2.77975 -4.18372 0
M  V30 5000 C 462.55 -4.72265 -4.28071 0
M  V30 5001 C 460.237 -4.08636 -4.54378 0
M  V30 5002 C 461.235 -5.05592 -4.59201 0
M  V30 5003 O 460.923 -6.33914 -4.94376 0
M  V30 5004 H 460.655 -0.269116 -0.620123 0
M  V30 5005 H 463.209 -1.37043 -1.52998 0
M  V30 5006 H 461.439 -0.310747 -3.85449 0
M  V30 5007 H 463.128 -0.704488 -3.9974 0
M  V30 5008 H 463.894 -3.16671 -3.67348 0
M  V30 5009 H 459.773 -2.0319 -4.13805 0
M  V30 5010 H 463.317 -5.4794 -4.3175 0
M  V30 5011 H 459.214 -4.33556 -4.78226 0
M  V30 5012 H 459.982 -6.38317 -5.12341 0
M  V30 5013 N 462.645 1.35699 -0.801477 0
M  V30 5014 C 463.608 2.28199 -0.213994 0
M  V30 5015 C 464.608 1.49359 0.595691 0
M  V30 5016 O 465.798 1.69186 0.414921 0
M  V30 5017 C 462.93 3.33587 0.702297 0
M  V30 5018 H 464.123 2.81666 -1.02976 0
M  V30 5019 H 461.676 1.45467 -0.571759 0
M  V30 5020 H 462.411 2.85297 1.54195 0
M  V30 5021 H 462.196 3.91906 0.123484 0
M  V30 5022 H 463.686 4.02638 1.10783 0
M  V30 5023 N 464.123 0.554532 1.47522 0
M  V30 5024 C 465.534 0.120446 1.86311 0
M  V30 5025 C 465.885 -1.30904 1.46145 0
M  V30 5026 O 465.01 -1.98434 0.863294 0
M  V30 5027 C 465.605 0.211808 3.38137 0
M  V30 5028 C 464.164 -0.167224 3.76028 0
M  V30 5029 C 463.311 0.560576 2.71575 0
M  V30 5030 H 466.262 0.764408 1.39077 0
M  V30 5031 H 466.283 -0.570275 3.76202 0
M  V30 5032 H 465.795 1.25232 3.6734 0
M  V30 5033 H 463.896 -1.20894 3.52442 0
M  V30 5034 H 464.009 0.189473 4.78725 0
M  V30 5035 H 462.373 0.00396836 2.547 0
M  V30 5036 H 463.156 1.60219 3.0362 0
M  V30 5037 N 465.601 -1.54893 0.290851 0
M  V30 5038 C 466.847 -2.0023 -0.321867 0
M  V30 5039 C 467.18 -1.179 -1.54316 0
M  V30 5040 O 466.455 -0.25293 -1.92848 0
M  V30 5041 C 466.738 -3.53456 -0.688515 0
M  V30 5042 C 466.591 -4.46532 0.541209 0
M  V30 5043 C 467.91 -4.13057 -1.51895 0
M  V30 5044 H 465.029 -0.727891 -0.115515 0
M  V30 5045 H 467.671 -1.85722 0.400931 0
M  V30 5046 H 465.821 -3.6595 -1.30433 0
M  V30 5047 H 467.493 -4.4596 1.17973 0
M  V30 5048 H 465.736 -4.17545 1.17636 0
M  V30 5049 H 466.407 -5.51475 0.240675 0
M  V30 5050 H 468.883 -4.03937 -0.99872 0
M  V30 5051 H 467.759 -5.20448 -1.74429 0
M  V30 5052 H 468.02 -3.64284 -2.50498 0
M  V30 5053 N 467.08 -0.0183926 -1.57589 0
M  V30 5054 C 468.328 0.661253 -1.90976 0
M  V30 5055 C 468.649 1.73281 -0.894353 0
M  V30 5056 O 467.919 1.9579 0.0656788 0
M  V30 5057 H 466.499 0.247233 -0.704901 0
M  V30 5058 H 469.161 -0.0636639 -1.94796 0
M  V30 5059 H 468.257 1.12083 -2.9128 0
M  V30 5060 N 468.558 1.5553 0.254621 0
M  V30 5061 C 469.807 1.76202 0.981612 0
M  V30 5062 C 470.12 0.580883 1.86776 0
M  V30 5063 O 471.326 0.670448 2.63092 0
M  V30 5064 C 469.782 3.11921 1.79537 0
M  V30 5065 C 469.39 4.37659 0.956991 0
M  V30 5066 C 471.134 3.41936 2.51555 0
M  V30 5067 C 469.041 5.64411 1.76619 0
M  V30 5068 H 467.971 0.656841 0.370237 0
M  V30 5069 H 470.622 1.81969 0.236556 0
M  V30 5070 H 469.004 3.00241 2.58208 0
M  V30 5071 H 470.178 4.60307 0.21315 0
M  V30 5072 H 468.493 4.14922 0.350497 0
M  V30 5073 H 471.09 4.33849 3.12536 0
M  V30 5074 H 471.433 2.62905 3.22779 0
M  V30 5075 H 471.966 3.54797 1.799 0
M  V30 5076 H 468.705 6.46241 1.09783 0
M  V30 5077 H 468.225 5.45877 2.48551 0
M  V30 5078 H 469.904 6.03386 2.33527 0
M  V30 5079 N 470.036 -0.519951 1.48776 0
M  V30 5080 C 470.966 -1.63253 1.66945 0
M  V30 5081 C 471.947 -1.62014 0.518224 0
M  V30 5082 O 473.132 -1.79053 0.751919 0
M  V30 5083 C 470.262 -3.0181 1.71836 0
M  V30 5084 C 469.216 -3.17911 2.8656 0
M  V30 5085 C 468.542 -4.5763 2.76548 0
M  V30 5086 C 469.842 -2.99729 4.27738 0
M  V30 5087 H 471.536 -1.48302 2.6009 0
M  V30 5088 H 469.082 -0.712026 1.25165 0
M  V30 5089 H 471.035 -3.79525 1.83135 0
M  V30 5090 H 469.759 -3.17806 0.752775 0
M  V30 5091 H 468.418 -2.42616 2.74833 0
M  V30 5092 H 468.066 -4.70476 1.77937 0
M  V30 5093 H 467.766 -4.69346 3.53536 0
M  V30 5094 H 469.29 -5.37431 2.89828 0
M  V30 5095 H 470.704 -3.67228 4.40246 0
M  V30 5096 H 469.101 -3.22932 5.05801 0
M  V30 5097 H 470.171 -1.96047 4.43502 0
M  V30 5098 N 471.514 -1.37532 -0.769588 0
M  V30 5099 C 472.761 -1.3286 -1.52822 0
M  V30 5100 C 473.089 0.0862597 -1.94309 0
M  V30 5101 O 472.344 1.05995 -1.6451 0
M  V30 5102 C 472.643 -2.21558 -2.8044 0
M  V30 5103 C 472.309 -3.69796 -2.57996 0
M  V30 5104 C 470.971 -4.10194 -2.51583 0
M  V30 5105 C 473.323 -4.63699 -2.37976 0
M  V30 5106 C 470.651 -5.42608 -2.23144 0
M  V30 5107 C 473.003 -5.96353 -2.1106 0
M  V30 5108 C 471.667 -6.35853 -2.03093 0
M  V30 5109 H 470.937 -0.486168 -0.559215 0
M  V30 5110 H 473.584 -1.69757 -0.886277 0
M  V30 5111 H 471.889 -1.77663 -3.49204 0
M  V30 5112 H 473.586 -2.15256 -3.38328 0
M  V30 5113 H 470.176 -3.37759 -2.63851 0
M  V30 5114 H 474.36 -4.33346 -2.41919 0
M  V30 5115 H 469.616 -5.72173 -2.15472 0
M  V30 5116 H 473.79 -6.68667 -1.94568 0
M  V30 5117 H 471.417 -7.38382 -1.8082 0
M  V30 5118 N 472.992 0.995999 -1.22138 0
M  V30 5119 C 473.922 2.10387 -1.01289 0
M  V30 5120 C 474.903 1.69975 0.0651454 0
M  V30 5121 O 476.088 1.9396 -0.0964628 0
M  V30 5122 C 473.218 3.42312 -0.586517 0
M  V30 5123 C 472.172 3.96558 -1.61014 0
M  V30 5124 C 471.498 5.24494 -1.0397 0
M  V30 5125 C 472.798 4.27595 -2.99933 0
M  V30 5126 H 474.492 2.28086 -1.93951 0
M  V30 5127 H 472.038 1.09607 -0.933928 0
M  V30 5128 H 473.991 4.19223 -0.427793 0
M  V30 5129 H 472.715 3.24431 0.375761 0
M  V30 5130 H 471.374 3.21776 -1.75658 0
M  V30 5131 H 471.022 5.02953 -0.0688703 0
M  V30 5132 H 470.722 5.61755 -1.72352 0
M  V30 5133 H 472.246 6.04042 -0.892494 0
M  V30 5134 H 473.66 4.95315 -2.8868 0
M  V30 5135 H 472.057 4.76021 -3.6541 0
M  V30 5136 H 473.127 3.35498 -3.50099 0
M  V30 5137 N 474.47 1.03057 1.19235 0
M  V30 5138 C 475.719 0.72326 1.88287 0
M  V30 5139 C 476.032 -0.751333 1.80594 0
M  V30 5140 O 477.238 -1.17176 2.44912 0
M  V30 5141 C 475.694 1.24338 3.3774 0
M  V30 5142 C 475.302 2.74587 3.53986 0
M  V30 5143 C 477.046 1.01213 4.12257 0
M  V30 5144 C 474.953 3.20009 4.97341 0
M  V30 5145 H 473.883 0.266848 0.705201 0
M  V30 5146 H 476.534 1.24509 1.34795 0
M  V30 5147 H 474.916 0.649457 3.90638 0
M  V30 5148 H 476.09 3.39649 3.11408 0
M  V30 5149 H 474.405 2.9601 2.9286 0
M  V30 5150 H 477.002 1.32675 5.17978 0
M  V30 5151 H 477.345 -0.051001 4.16269 0
M  V30 5152 H 477.878 1.57014 3.65501 0
M  V30 5153 H 474.617 4.25659 4.98493 0
M  V30 5154 H 474.137 2.59676 5.40674 0
M  V30 5155 H 475.816 3.13447 5.66003 0
M  V30 5156 N 475.948 -1.35272 0.808662 0
M  V30 5157 C 476.911 -2.28082 0.226093 0
M  V30 5158 C 477.911 -1.49673 -0.587762 0
M  V30 5159 O 479.101 -1.69404 -0.405943 0
M  V30 5160 C 476.233 -3.33955 -0.684596 0
M  V30 5161 H 477.426 -2.81116 1.04469 0
M  V30 5162 H 474.979 -1.45162 0.579466 0
M  V30 5163 H 475.714 -2.86111 -1.5268 0
M  V30 5164 H 475.499 -3.91965 -0.102699 0
M  V30 5165 H 476.989 -4.03219 -1.08646 0
M  V30 5166 N 477.426 -0.562348 -1.47226 0
M  V30 5167 C 478.674 -0.0401371 -2.0206 0
M  V30 5168 C 478.995 1.3165 -1.43852 0
M  V30 5169 O 478.265 1.85976 -0.615599 0
M  V30 5170 H 476.845 -0.0118479 -0.746906 0
M  V30 5171 H 479.507 -0.73352 -1.8057 0
M  V30 5172 H 478.603 0.0441254 -3.12069 0
M  V30 5173 N 478.904 1.54736 -0.299062 0
M  V30 5174 C 479.851 2.23448 0.577899 0
M  V30 5175 C 480.821 1.21637 1.13109 0
M  V30 5176 O 482.006 1.50252 1.17597 0
M  V30 5177 C 479.146 2.9774 1.74484 0
M  V30 5178 C 478.259 4.1432 1.22323 0
M  V30 5179 C 477.394 4.76199 2.35388 0
M  V30 5180 C 476.433 5.84927 1.80351 0
M  V30 5181 N 475.57 6.4077 2.86982 0
M  V30 5182 H 480.41 2.97996 -0.0146545 0
M  V30 5183 H 477.947 1.47088 -0.0190013 0
M  V30 5184 H 479.905 3.39045 2.43114 0
M  V30 5185 H 478.535 2.25572 2.30905 0
M  V30 5186 H 477.587 3.7797 0.429249 0
M  V30 5187 H 478.899 4.92659 0.780309 0
M  V30 5188 H 478.053 5.20346 3.11969 0
M  V30 5189 H 476.792 3.97188 2.83006 0
M  V30 5190 H 475.797 5.40207 1.02259 0
M  V30 5191 H 477.022 6.65821 1.3364 0
M  V30 5192 H 474.968 5.64643 3.33938 0
M  V30 5193 H 474.885 7.1445 2.4718 0
M  V30 5194 H 476.153 6.89574 3.63466 0
M  V30 5195 N 480.382 0.0267497 1.57577 0
M  V30 5196 C 481.631 -0.651736 1.9088 0
M  V30 5197 C 481.944 -1.73427 0.904576 0
M  V30 5198 O 483.15 -2.46923 1.12877 0
M  V30 5199 C 481.606 -1.21048 3.38933 0
M  V30 5200 C 481.214 -0.161362 4.47709 0
M  V30 5201 C 482.958 -1.86562 3.81307 0
M  V30 5202 C 480.865 -0.731611 5.86857 0
M  V30 5203 H 479.795 -0.247198 0.712326 0
M  V30 5204 H 482.446 0.0916641 1.83271 0
M  V30 5205 H 480.828 -2.00542 3.41466 0
M  V30 5206 H 482.002 0.61094 4.56732 0
M  V30 5207 H 480.317 0.394877 4.14523 0
M  V30 5208 H 482.914 -2.30178 4.8262 0
M  V30 5209 H 483.257 -2.70735 3.16241 0
M  V30 5210 H 483.79 -1.13762 3.81186 0
M  V30 5211 H 480.529 0.0719329 6.55461 0
M  V30 5212 H 480.049 -1.47245 5.81445 0
M  V30 5213 H 481.728 -1.22208 6.35354 0
M  V30 5214 N 481.861 -1.55662 -0.24637 0
M  V30 5215 C 482.791 -1.93377 -1.30873 0
M  V30 5216 C 483.772 -0.798773 -1.50179 0
M  V30 5217 O 484.957 -1.0591 -1.62778 0
M  V30 5218 C 482.087 -2.22893 -2.66338 0
M  V30 5219 C 481.041 -3.38649 -2.61727 0
M  V30 5220 C 480.367 -3.53708 -4.00992 0
M  V30 5221 C 481.667 -4.74323 -2.18666 0
M  V30 5222 H 483.361 -2.82363 -0.995552 0
M  V30 5223 H 480.907 -1.35854 -0.477464 0
M  V30 5224 H 482.86 -2.47866 -3.40794 0
M  V30 5225 H 481.584 -1.30733 -2.99293 0
M  V30 5226 H 480.243 -3.13685 -1.89729 0
M  V30 5227 H 479.891 -2.58967 -4.31214 0
M  V30 5228 H 479.591 -4.31551 -3.98795 0
M  V30 5229 H 481.115 -3.81003 -4.77147 0
M  V30 5230 H 482.529 -4.98665 -2.82854 0
M  V30 5231 H 480.926 -5.55273 -2.27579 0
M  V30 5232 H 481.996 -4.71349 -1.13834 0
M  V30 5233 N 483.339 0.512053 -1.4905 0
M  V30 5234 C 484.249 1.64139 -1.67617 0
M  V30 5235 C 485.265 1.64786 -0.558701 0
M  V30 5236 O 486.441 1.8341 -0.832034 0
M  V30 5237 C 483.506 3.00548 -1.72835 0
M  V30 5238 C 482.567 3.10615 -2.96339 0
M  V30 5239 C 481.8 4.40517 -3.01298 0
M  V30 5240 O 482.023 5.28671 -2.14157 0
M  V30 5241 O 480.957 4.55325 -3.93653 0
M  V30 5242 H 484.783 1.51407 -2.63267 0
M  V30 5243 H 482.368 0.687131 -1.32661 0
M  V30 5244 H 484.25 3.81641 -1.78683 0
M  V30 5245 H 482.925 3.13566 -0.803616 0
M  V30 5246 H 481.832 2.2875 -2.96014 0
M  V30 5247 H 483.165 3.0252 -3.88256 0
M  V30 5248 N 484.817 1.37938 0.762283 0
M  V30 5249 C 485.75 1.2884 1.88349 0
M  V30 5250 C 486.728 0.167084 1.61739 0
M  V30 5251 O 487.912 0.34292 1.85355 0
M  V30 5252 C 485.039 0.994257 3.23778 0
M  V30 5253 C 484.085 2.13376 3.69287 0
M  V30 5254 S 484.918 3.75439 3.81845 0
M  V30 5255 C 486.074 3.48195 5.20107 0
M  V30 5256 H 486.307 2.23736 1.95779 0
M  V30 5257 H 483.84 1.23672 0.924368 0
M  V30 5258 H 485.798 0.83138 4.01993 0
M  V30 5259 H 484.459 0.0626251 3.14038 0
M  V30 5260 H 483.652 1.88319 4.67495 0
M  V30 5261 H 483.254 2.25726 2.98201 0
M  V30 5262 H 485.546 3.0377 6.05583 0
M  V30 5263 H 486.489 4.45765 5.50181 0
M  V30 5264 H 486.897 2.82905 4.88493 0
M  V30 5265 N 486.295 -0.989507 1.22664 0
M  V30 5266 C 487.205 -2.11449 1.01619 0
M  V30 5267 C 488.221 -1.73962 -0.036545 0
M  V30 5268 O 489.397 -2.00788 0.156924 0
M  V30 5269 C 486.462 -3.41465 0.600204 0
M  V30 5270 C 485.523 -3.93033 1.72695 0
M  V30 5271 C 484.756 -5.16844 1.33071 0
M  V30 5272 O 484.979 -5.7001 0.210975 0
M  V30 5273 O 483.913 -5.6225 2.14845 0
M  V30 5274 H 487.739 -2.32088 1.9588 0
M  V30 5275 H 485.324 -1.09823 1.01289 0
M  V30 5276 H 487.206 -4.19695 0.37873 0
M  V30 5277 H 485.881 -3.22178 -0.313511 0
M  V30 5278 H 484.788 -3.15961 2.00298 0
M  V30 5279 H 486.121 -4.16758 2.61865 0
M  V30 5280 N 487.773 -1.03688 -1.18687 0
M  V30 5281 C 489.05 -0.652397 -1.84399 0
M  V30 5282 C 489.43 0.868386 -1.92412 0
M  V30 5283 O 488.778 1.76832 -1.44716 0
M  V30 5284 C 488.988 -1.3238 -3.22919 0
M  V30 5285 C 490.336 -1.45216 -3.98996 0
M  V30 5286 O 491.36 -1.2816 -3.32345 0
M  V30 5287 O 490.219 -1.72975 -5.18403 0
M  V30 5288 H 487.313 -0.227793 -0.795009 0
M  V30 5289 H 489.859 -1.13553 -1.2611 0
M  V30 5290 H 488.631 -2.36202 -3.11968 0
M  V30 5291 H 488.254 -0.829039 -3.88861 0
M  V30 5292 N 489.251 1.34841 -0.815825 0
M  V30 5293 C 490.184 2.27504 -0.178062 0
M  V30 5294 C 491.162 1.48542 0.661373 0
M  V30 5295 O 492.346 1.77779 0.626653 0
M  V30 5296 C 489.473 3.30246 0.752002 0
M  V30 5297 C 488.519 4.26499 -0.00899172 0
M  V30 5298 S 489.352 5.18169 -1.35134 0
M  V30 5299 C 490.508 6.24449 -0.42596 0
M  V30 5300 H 490.741 2.81248 -0.963684 0
M  V30 5301 H 488.274 1.41781 -0.611355 0
M  V30 5302 H 490.232 3.89933 1.28308 0
M  V30 5303 H 488.893 2.75363 1.51109 0
M  V30 5304 H 488.086 4.99146 0.697766 0
M  V30 5305 H 487.688 3.7103 -0.470396 0
M  V30 5306 H 489.98 6.76404 0.385234 0
M  V30 5307 H 490.923 6.99156 -1.1219 0
M  V30 5308 H 491.331 5.64497 -0.0175461 0
M  V30 5309 N 490.729 0.570148 1.46925 0
M  V30 5310 C 491.692 -0.159933 2.28641 0
M  V30 5311 C 492.692 -0.830638 1.37685 0
M  V30 5312 O 493.882 -0.684516 1.60187 0
M  V30 5313 C 491.014 -1.2354 3.17727 0
M  V30 5314 H 492.207 0.558035 2.94662 0
M  V30 5315 H 489.76 0.327603 1.52828 0
M  V30 5316 H 490.495 -1.98535 2.56426 0
M  V30 5317 H 490.28 -0.759125 3.84681 0
M  V30 5318 H 491.77 -1.74782 3.79264 0
M  V30 5319 N 492.207 -1.54576 0.307264 0
M  V30 5320 C 493.453 -2.0056 -0.300612 0
M  V30 5321 C 493.786 -1.1953 -1.53057 0
M  V30 5322 O 493.061 -0.27337 -1.92569 0
M  V30 5323 C 493.344 -3.54167 -0.650987 0
M  V30 5324 C 493.197 -4.45933 0.588539 0
M  V30 5325 C 494.516 -4.14645 -1.47506 0
M  V30 5326 H 491.635 -0.729075 -0.107788 0
M  V30 5327 H 494.277 -1.85286 0.420606 0
M  V30 5328 H 492.427 -3.67313 -1.26544 0
M  V30 5329 H 494.099 -4.44683 1.22697 0
M  V30 5330 H 492.342 -4.16274 1.22058 0
M  V30 5331 H 493.013 -5.51189 0.299153 0
M  V30 5332 H 495.489 -4.04973 -0.955821 0
M  V30 5333 H 494.365 -5.22269 -1.68899 0
M  V30 5334 H 494.626 -3.66921 -2.4662 0
M  V30 5335 N 493.685 -0.035106 -1.57561 0
M  V30 5336 C 494.615 0.942993 -2.13612 0
M  V30 5337 C 495.596 1.33531 -1.05373 0
M  V30 5338 O 496.781 1.41287 -1.33235 0
M  V30 5339 C 493.911 2.22332 -2.66807 0
M  V30 5340 C 492.865 1.97156 -3.79886 0
M  V30 5341 C 492.191 3.31506 -4.19533 0
M  V30 5342 C 493.491 1.30596 -5.05709 0
M  V30 5343 H 495.185 0.476179 -2.95589 0
M  V30 5344 H 492.731 0.227602 -1.4219 0
M  V30 5345 H 494.684 2.91142 -3.04654 0
M  V30 5346 H 493.408 2.7119 -1.81999 0
M  V30 5347 H 492.067 1.30763 -3.42486 0
M  V30 5348 H 491.715 3.78134 -3.31698 0
M  V30 5349 H 491.415 3.15465 -4.95738 0
M  V30 5350 H 492.939 4.01574 -4.59968 0
M  V30 5351 H 494.353 1.89416 -5.41105 0
M  V30 5352 H 492.75 1.24934 -5.86951 0
M  V30 5353 H 493.82 0.279742 -4.84092 0
M  V30 5354 N 495.163 1.55791 0.238111 0
M  V30 5355 C 496.411 1.77681 0.963001 0
M  V30 5356 C 496.732 0.600674 1.85518 0
M  V30 5357 O 496.002 -0.383182 1.92116 0
M  V30 5358 H 494.582 0.655315 0.358568 0
M  V30 5359 H 497.244 1.93239 0.253945 0
M  V30 5360 H 496.34 2.69177 1.57956 0
M  V30 5361 N 496.642 -0.504142 1.49319 0
M  V30 5362 C 497.89 -1.25598 1.58334 0
M  V30 5363 C 498.211 -1.93114 0.270538 0
M  V30 5364 O 497.481 -1.82585 -0.709891 0
M  V30 5365 H 496.061 -0.466571 0.58337 0
M  V30 5366 H 498.723 -0.584547 1.85928 0
M  V30 5367 H 497.819 -2.02159 2.37778 0
M  V30 5368 N 498.12 -1.38341 -0.754957 0
M  V30 5369 C 499.052 -1.31347 -1.87831 0
M  V30 5370 C 500.065 -0.225955 -1.61224 0
M  V30 5371 O 501.254 -0.48341 -1.7183 0
M  V30 5372 C 498.354 -1.01201 -3.23437 0
M  V30 5373 C 497.527 -2.20834 -3.77559 0
M  V30 5374 C 496.586 -1.87454 -4.91678 0
M  V30 5375 O 495.612 -2.59934 -5.06382 0
M  V30 5376 N 496.814 -0.828682 -5.74555 0
M  V30 5377 H 499.579 -2.28147 -1.94342 0
M  V30 5378 H 497.14 -1.32184 -0.934828 0
M  V30 5379 H 499.132 -0.769249 -3.97322 0
M  V30 5380 H 497.702 -0.132011 -3.12321 0
M  V30 5381 H 496.922 -2.61184 -2.95256 0
M  V30 5382 H 498.21 -3.00678 -4.10451 0
M  V30 5383 H 497.608 -0.227591 -5.65242 0
M  V30 5384 H 496.165 -0.645802 -6.48593 0
M  V30 5385 N 499.598 0.982988 -1.23187 0
M  V30 5386 C 500.528 2.09301 -1.03515 0
M  V30 5387 C 501.509 1.70035 0.0471136 0
M  V30 5388 O 502.694 1.93847 -0.117029 0
M  V30 5389 C 499.824 3.4167 -0.622791 0
M  V30 5390 C 498.778 3.94828 -1.65211 0
M  V30 5391 C 498.104 5.23362 -1.09527 0
M  V30 5392 C 499.404 4.2439 -3.04451 0
M  V30 5393 H 501.098 2.26016 -1.96359 0
M  V30 5394 H 498.644 1.08611 -0.945501 0
M  V30 5395 H 500.597 4.18746 -0.472233 0
M  V30 5396 H 499.321 3.24811 0.341329 0
M  V30 5397 H 497.98 3.19895 -1.79061 0
M  V30 5398 H 497.628 5.02852 -0.122211 0
M  V30 5399 H 497.328 5.59895 -1.783 0
M  V30 5400 H 498.852 6.03062 -0.956511 0
M  V30 5401 H 500.266 4.92225 -2.93917 0
M  V30 5402 H 498.663 4.72118 -3.70438 0
M  V30 5403 H 499.733 3.31765 -3.53638 0
M  V30 5404 N 501.076 1.04316 1.18135 0
M  V30 5405 C 502.324 0.746542 1.87806 0
M  V30 5406 C 502.645 -0.728082 1.80898 0
M  V30 5407 O 501.915 -1.52554 1.22899 0
M  V30 5408 H 500.495 0.273157 0.695265 0
M  V30 5409 H 503.157 1.32044 1.43354 0
M  V30 5410 H 502.253 1.05362 2.93778 0
M  V30 5411 N 502.554 -1.34406 0.822964 0
M  V30 5412 C 503.487 -2.27407 0.190124 0
M  V30 5413 C 504.465 -1.4889 -0.653486 0
M  V30 5414 O 505.649 -1.78109 -0.617216 0
M  V30 5415 C 502.776 -3.3064 -0.734477 0
M  V30 5416 C 501.822 -4.26488 0.0316099 0
M  V30 5417 S 502.655 -5.17445 1.3788 0
M  V30 5418 C 503.811 -6.24214 0.45907 0
M  V30 5419 H 504.044 -2.80733 0.978586 0
M  V30 5420 H 501.577 -1.41455 0.618866 0
M  V30 5421 H 503.535 -3.90607 -1.26238 0
M  V30 5422 H 502.196 -2.76161 -1.49646 0
M  V30 5423 H 501.389 -4.9951 -0.671285 0
M  V30 5424 H 500.991 -3.70775 0.490066 0
M  V30 5425 H 503.283 -6.76599 -0.349357 0
M  V30 5426 H 504.226 -6.98551 1.15896 0
M  V30 5427 H 504.634 -5.6448 0.0474825 0
M  V30 5428 N 504.032 -0.577932 -1.46621 0
M  V30 5429 C 505.262 -0.0670668 -2.06491 0
M  V30 5430 C 505.67 1.24119 -1.42798 0
M  V30 5431 O 505.013 1.76016 -0.525759 0
M  V30 5432 C 505.075 0.177995 -3.59059 0
M  V30 5433 C 504.739 -1.04394 -4.44917 0
M  V30 5434 C 505.736 -1.95479 -4.81751 0
M  V30 5435 C 503.421 -1.26444 -4.86125 0
M  V30 5436 C 505.415 -3.06965 -5.58615 0
M  V30 5437 C 503.102 -2.38237 -5.62749 0
M  V30 5438 C 504.1 -3.28327 -5.98908 0
M  V30 5439 O 503.788 -4.38179 -6.73984 0
M  V30 5440 H 503.52 -0.0523159 -0.673973 0
M  V30 5441 H 506.074 -0.796966 -1.89308 0
M  V30 5442 H 504.304 0.962451 -3.74531 0
M  V30 5443 H 505.993 0.636782 -4.00874 0
M  V30 5444 H 506.759 -1.79657 -4.50498 0
M  V30 5445 H 502.638 -0.572316 -4.57434 0
M  V30 5446 H 506.182 -3.77309 -5.86757 0
M  V30 5447 H 502.079 -2.54023 -5.93416 0
M  V30 5448 H 502.847 -4.36486 -6.92403 0
M  V30 5449 N 505.51 1.54411 -0.315457 0
M  V30 5450 C 506.738 2.04833 0.291738 0
M  V30 5451 C 507.153 1.19203 1.46411 0
M  V30 5452 O 506.51 0.220867 1.81159 0
M  V30 5453 C 506.561 3.53969 0.73404 0
M  V30 5454 O 506.282 4.36346 -0.391682 0
M  V30 5455 C 507.783 4.2045 1.40489 0
M  V30 5456 H 505.003 0.668195 0.0612947 0
M  V30 5457 H 507.547 1.99276 -0.45929 0
M  V30 5458 H 505.702 3.5984 1.43506 0
M  V30 5459 H 506.116 5.24481 -0.0447088 0
M  V30 5460 H 507.59 5.26278 1.66539 0
M  V30 5461 H 508.067 3.71067 2.3496 0
M  V30 5462 H 508.673 4.18694 0.746662 0
M  V30 5463 N 506.988 0.0434614 1.5754 0
M  V30 5464 C 507.918 -0.931651 2.14109 0
M  V30 5465 C 508.899 -1.32971 1.06079 0
M  V30 5466 O 510.084 -1.40579 1.33982 0
M  V30 5467 C 507.214 -2.20914 2.67982 0
M  V30 5468 C 506.168 -1.95139 3.80926 0
M  V30 5469 C 505.494 -3.29276 4.21285 0
M  V30 5470 C 506.794 -1.27913 5.06395 0
M  V30 5471 H 508.488 -0.460497 2.95837 0
M  V30 5472 H 506.034 -0.220058 1.42309 0
M  V30 5473 H 507.987 -2.89522 3.06194 0
M  V30 5474 H 506.711 -2.70221 1.83434 0
M  V30 5475 H 505.37 -1.28945 3.43175 0
M  V30 5476 H 505.018 -3.76369 3.33699 0
M  V30 5477 H 504.718 -3.12831 4.97404 0
M  V30 5478 H 506.242 -3.99129 4.62091 0
M  V30 5479 H 507.656 -1.86544 5.42102 0
M  V30 5480 H 506.053 -1.2182 5.87605 0
M  V30 5481 H 507.123 -0.254066 4.84234 0
M  V30 5482 N 508.466 -1.55915 -0.229846 0
M  V30 5483 C 509.694 -1.82617 -0.972562 0
M  V30 5484 C 510.109 -0.621488 -1.78278 0
M  V30 5485 O 509.466 0.409956 -1.77836 0
M  V30 5486 C 509.517 -3.0774 -1.89679 0
M  V30 5487 O 509.238 -4.23559 -1.11934 0
M  V30 5488 C 510.739 -3.47368 -2.75409 0
M  V30 5489 H 507.959 -0.60727 -0.285419 0
M  V30 5490 H 510.503 -2.02996 -0.247579 0
M  V30 5491 H 508.658 -2.89361 -2.57583 0
M  V30 5492 H 509.072 -4.94586 -1.74599 0
M  V30 5493 H 510.546 -4.37977 -3.35977 0
M  V30 5494 H 511.023 -2.68737 -3.47386 0
M  V30 5495 H 511.629 -3.68158 -2.12931 0
M  V30 5496 N 509.944 0.496216 -1.49584 0
M  V30 5497 C 511.19 1.25189 -1.59548 0
M  V30 5498 C 511.523 1.9212 -0.283466 0
M  V30 5499 O 510.798 1.80947 0.713324 0
M  V30 5500 C 511.081 2.31516 -2.75812 0
M  V30 5501 C 510.934 1.69054 -4.16822 0
M  V30 5502 C 512.253 3.3304 -2.87702 0
M  V30 5503 H 509.372 0.45379 -0.580727 0
M  V30 5504 H 512.014 0.549327 -1.81886 0
M  V30 5505 H 510.164 2.91438 -2.56897 0
M  V30 5506 H 511.836 1.12923 -4.47265 0
M  V30 5507 H 510.079 0.994485 -4.22247 0
M  V30 5508 H 510.75 2.462 -4.94054 0
M  V30 5509 H 513.226 2.83114 -3.04936 0
M  V30 5510 H 512.102 4.04794 -3.7072 0
M  V30 5511 H 512.363 3.95655 -1.97255 0
M  V30 5512 N 511.423 1.38739 0.74761 0
M  V30 5513 C 512.672 1.3459 1.50228 0
M  V30 5514 C 512.985 -0.0595592 1.95509 0
M  V30 5515 O 514.191 -0.22361 2.70578 0
M  V30 5516 C 512.647 2.36377 2.71393 0
M  V30 5517 C 512.255 3.82573 2.33113 0
M  V30 5518 C 513.999 2.41281 3.49262 0
M  V30 5519 C 511.906 4.76032 3.50924 0
M  V30 5520 H 510.836 0.500312 0.564096 0
M  V30 5521 H 513.487 1.64324 0.8167 0
M  V30 5522 H 511.869 1.99694 3.41962 0
M  V30 5523 H 513.043 4.28227 1.70171 0
M  V30 5524 H 511.358 3.80844 1.68365 0
M  V30 5525 H 513.955 3.08301 4.36869 0
M  V30 5526 H 514.298 1.43353 3.9084 0
M  V30 5527 H 514.831 2.76793 2.85711 0
M  V30 5528 H 511.57 5.75177 3.14408 0
M  V30 5529 H 511.09 4.35066 4.12889 0
M  V30 5530 H 512.769 4.94331 4.17427 0
M  V30 5531 N 512.901 -0.976442 1.23707 0
M  V30 5532 C 514.147 -1.72081 1.07312 0
M  V30 5533 C 514.48 -1.90275 -0.388476 0
M  V30 5534 O 513.755 -1.4579 -1.28746 0
M  V30 5535 C 514.038 -3.11675 1.80363 0
M  V30 5536 C 513.891 -3.01027 3.3422 0
M  V30 5537 C 515.21 -4.1117 1.5693 0
M  V30 5538 H 512.329 -0.624583 0.391236 0
M  V30 5539 H 514.971 -1.13649 1.52263 0
M  V30 5540 H 513.121 -3.61559 1.42153 0
M  V30 5541 H 514.793 -2.58637 3.81975 0
M  V30 5542 H 513.036 -2.3744 3.63049 0
M  V30 5543 H 513.707 -3.9988 3.80525 0
M  V30 5544 H 516.183 -3.7011 1.90151 0
M  V30 5545 H 515.059 -5.06928 2.10513 0
M  V30 5546 H 515.32 -4.392 0.505548 0
M  V30 5547 N 514.379 -1.04941 -1.1758 0
M  V30 5548 C 515.627 -0.756492 -1.87408 0
M  V30 5549 C 515.948 0.718478 -1.81281 0
M  V30 5550 O 515.218 1.519 -1.23706 0
M  V30 5551 H 513.798 -0.276841 -0.693807 0
M  V30 5552 H 516.46 -1.32803 -1.42652 0
M  V30 5553 H 515.556 -1.06918 -2.93215 0
M  V30 5554 N 515.857 1.33968 -0.830081 0
M  V30 5555 C 516.787 2.31911 -0.271911 0
M  V30 5556 C 517.768 1.58571 0.61556 0
M  V30 5557 O 518.953 1.86514 0.540946 0
M  V30 5558 C 516.083 3.42737 0.561146 0
M  V30 5559 C 515.037 4.27383 -0.229789 0
M  V30 5560 C 514.363 5.29742 0.726463 0
M  V30 5561 C 515.663 5.02 -1.44197 0
M  V30 5562 H 517.357 2.78844 -1.09025 0
M  V30 5563 H 514.903 1.34061 -0.52571 0
M  V30 5564 H 516.856 4.10276 0.961867 0
M  V30 5565 H 515.58 2.94471 1.41261 0
M  V30 5566 H 514.239 3.61456 -0.611964 0
M  V30 5567 H 513.887 4.77736 1.57408 0
M  V30 5568 H 513.587 5.87255 0.20142 0
M  V30 5569 H 515.111 6.00149 1.12489 0
M  V30 5570 H 516.525 5.62355 -1.11488 0
M  V30 5571 H 514.922 5.69122 -1.90317 0
M  V30 5572 H 515.992 4.31281 -2.2164 0
M  V30 5573 N 517.335 0.585699 1.46312 0
M  V30 5574 C 518.582 0.0724211 2.0237 0
M  V30 5575 C 518.91 -1.28868 1.45683 0
M  V30 5576 O 518.165 -1.85853 0.612945 0
M  V30 5577 C 518.464 -0.0401312 3.57377 0
M  V30 5578 C 518.13 1.25376 4.33119 0
M  V30 5579 C 516.792 1.60824 4.5353 0
M  V30 5580 C 519.144 2.10987 4.76586 0
M  V30 5581 C 516.472 2.81676 5.14661 0
M  V30 5582 C 518.824 3.31068 5.39052 0
M  V30 5583 C 517.488 3.66794 5.5769 0
M  V30 5584 H 516.758 0.0265007 0.740526 0
M  V30 5585 H 519.405 0.762935 1.75646 0
M  V30 5586 H 517.71 -0.813791 3.83255 0
M  V30 5587 H 519.407 -0.453078 3.98432 0
M  V30 5588 H 515.997 0.967808 4.1753 0
M  V30 5589 H 520.181 1.84904 4.60569 0
M  V30 5590 H 515.437 3.0949 5.27282 0
M  V30 5591 H 519.611 3.97672 5.71691 0
M  V30 5592 H 517.238 4.60529 6.04828 0
M  V30 5593 N 518.813 -1.54241 0.323641 0
M  V30 5594 C 519.743 -2.27289 -0.534993 0
M  V30 5595 C 520.724 -1.28087 -1.11927 0
M  V30 5596 O 521.909 -1.56899 -1.14439 0
M  V30 5597 C 519.039 -3.03075 -1.69596 0
M  V30 5598 C 517.993 -4.09614 -1.24098 0
M  V30 5599 C 517.319 -4.73242 -2.4889 0
M  V30 5600 C 518.619 -5.21087 -0.355789 0
M  V30 5601 H 520.313 -2.99308 0.0743257 0
M  V30 5602 H 517.859 -1.43952 0.0371874 0
M  V30 5603 H 519.812 -3.52907 -2.30293 0
M  V30 5604 H 518.536 -2.28673 -2.33187 0
M  V30 5605 H 517.195 -3.60666 -0.656945 0
M  V30 5606 H 516.843 -3.95455 -3.10845 0
M  V30 5607 H 516.543 -5.45209 -2.19138 0
M  V30 5608 H 518.067 -5.25848 -3.10348 0
M  V30 5609 H 519.481 -5.66675 -0.869042 0
M  V30 5610 H 517.878 -5.9991 -0.151045 0
M  V30 5611 H 518.948 -4.81005 0.613339 0
M  V30 5612 N 520.291 -0.0518155 -1.57515 0
M  V30 5613 C 521.241 0.932017 -2.0808 0
M  V30 5614 C 522.225 1.27141 -0.986098 0
M  V30 5615 O 523.417 1.25373 -1.24943 0
M  V30 5616 C 520.546 2.20665 -2.62986 0
M  V30 5617 C 519.632 1.89462 -3.79427 0
M  V30 5618 N 520.023 1.28621 -4.89173 0
M  V30 5619 C 518.321 2.19327 -3.88345 0
M  V30 5620 C 519.022 1.15062 -5.70207 0
M  V30 5621 N 517.998 1.65372 -5.17835 0
M  V30 5622 H 521.8 0.456964 -2.90326 0
M  V30 5623 H 519.314 0.152619 -1.61681 0
M  V30 5624 H 521.311 2.92044 -2.97516 0
M  V30 5625 H 519.971 2.68776 -1.8218 0
M  V30 5626 H 520.982 0.958341 -5.08956 0
M  V30 5627 H 517.659 2.69955 -3.18482 0
M  V30 5628 H 519.049 0.678243 -6.68468 0
M  V30 5629 N 521.769 1.56035 0.221574 0
M  V30 5630 C 522.732 1.91584 1.2581 0
M  V30 5631 C 523.732 0.794425 1.39805 0
M  V30 5632 O 524.922 1.06217 1.38071 0
M  V30 5633 C 522.054 2.16663 2.63192 0
M  V30 5634 H 523.247 2.8429 0.954935 0
M  V30 5635 H 520.8 1.49316 0.461988 0
M  V30 5636 H 521.535 1.26508 2.98607 0
M  V30 5637 H 521.32 2.98358 2.5441 0
M  V30 5638 H 522.81 2.45262 3.37988 0
M  V30 5639 N 523.247 -0.488276 1.49845 0
M  V30 5640 C 524.495 -1.23911 1.59657 0
M  V30 5641 C 524.816 -1.92816 0.291005 0
M  V30 5642 O 524.086 -1.83328 -0.690485 0
M  V30 5643 H 522.666 -0.460357 0.588286 0
M  V30 5644 H 525.328 -0.564794 1.86537 0
M  V30 5645 H 524.424 -1.99625 2.39909 0
M  V30 5646 N 524.725 -1.39134 -0.740242 0
M  V30 5647 C 525.974 -1.35384 -1.49512 0
M  V30 5648 C 526.287 0.04919 -1.95538 0
M  V30 5649 O 527.493 0.209257 -2.70692 0
M  V30 5650 C 525.949 -2.37812 -2.70136 0
M  V30 5651 C 525.557 -3.83804 -2.31081 0
M  V30 5652 C 527.301 -2.4313 -3.47977 0
M  V30 5653 C 525.208 -4.77886 -3.48395 0
M  V30 5654 H 524.138 -0.503297 -0.561434 0
M  V30 5655 H 526.789 -1.64754 -0.807974 0
M  V30 5656 H 525.171 -2.01505 -3.40899 0
M  V30 5657 H 526.345 -4.29123 -1.67898 0
M  V30 5658 H 524.66 -3.81732 -1.66343 0
M  V30 5659 H 527.257 -3.10614 -4.35228 0
M  V30 5660 H 527.6 -1.45423 -3.90074 0
M  V30 5661 H 528.133 -2.78304 -2.84239 0
M  V30 5662 H 524.872 -5.76836 -3.11353 0
M  V30 5663 H 524.392 -4.3725 -4.10576 0
M  V30 5664 H 526.071 -4.96538 -4.148 0
M  V30 5665 N 526.204 0.969867 -1.24223 0
M  V30 5666 C 527.45 1.7151 -1.08223 0
M  V30 5667 C 527.783 1.90478 0.37838 0
M  V30 5668 O 527.058 1.4647 1.27971 0
M  V30 5669 C 527.341 3.10714 -1.82013 0
M  V30 5670 C 527.194 2.9925 -3.35811 0
M  V30 5671 C 528.513 4.10332 -1.59108 0
M  V30 5672 H 525.632 0.622499 -0.394543 0
M  V30 5673 H 528.274 1.1284 -1.52863 0
M  V30 5674 H 526.424 3.608 -1.44068 0
M  V30 5675 H 528.096 2.56608 -3.83341 0
M  V30 5676 H 526.339 2.35512 -3.64303 0
M  V30 5677 H 527.01 3.97857 -3.82641 0
M  V30 5678 H 529.486 3.69097 -1.92111 0
M  V30 5679 H 528.362 5.05804 -2.13198 0
M  V30 5680 H 528.623 4.38926 -0.528832 0
M  V30 5681 N 527.682 1.05563 1.17022 0
M  V30 5682 C 528.612 0.681026 2.23348 0
M  V30 5683 C 529.593 -0.322983 1.67005 0
M  V30 5684 O 530.778 -0.199746 1.9317 0
M  V30 5685 C 527.908 0.0589053 3.4725 0
M  V30 5686 C 526.862 0.988082 4.16438 0
M  V30 5687 C 526.188 0.229646 5.34207 0
M  V30 5688 C 527.488 2.31388 4.68249 0
M  V30 5689 H 529.182 1.56993 2.54938 0
M  V30 5690 H 526.728 0.756302 1.2254 0
M  V30 5691 H 528.681 -0.214982 4.20851 0
M  V30 5692 H 527.405 -0.864968 3.14938 0
M  V30 5693 H 526.064 1.24659 3.44754 0
M  V30 5694 H 525.712 -0.697111 4.98146 0
M  V30 5695 H 525.412 0.848815 5.81437 0
M  V30 5696 H 526.936 -0.0368694 6.10589 0
M  V30 5697 H 528.35 2.09964 5.33468 0
M  V30 5698 H 526.747 2.88736 5.26072 0
M  V30 5699 H 527.817 2.94982 3.84855 0
M  V30 5700 N 529.16 -1.33526 0.837174 0
M  V30 5701 C 530.571 -1.80182 0.489017 0
M  V30 5702 C 530.922 -1.69285 -0.991826 0
M  V30 5703 O 530.047 -1.24113 -1.77271 0
M  V30 5704 C 530.642 -3.27149 0.880866 0
M  V30 5705 C 529.201 -3.71828 0.584872 0
M  V30 5706 C 528.348 -2.54974 1.09011 0
M  V30 5707 H 531.299 -1.21071 1.02603 0
M  V30 5708 H 531.32 -3.80024 0.190239 0
M  V30 5709 H 530.832 -3.35048 1.95869 0
M  V30 5710 H 528.933 -3.69457 -0.48295 0
M  V30 5711 H 529.046 -4.65366 1.13892 0
M  V30 5712 H 527.41 -2.4952 0.511047 0
M  V30 5713 H 528.193 -2.65637 2.17467 0
M  V30 5714 N 530.638 -0.59345 -1.46 0
M  V30 5715 C 531.568 0.121192 -2.33185 0
M  V30 5716 C 532.549 0.872977 -1.4599 0
M  V30 5717 O 533.734 0.846321 -1.74789 0
M  V30 5718 C 530.864 1.12844 -3.28456 0
M  V30 5719 C 529.818 0.4908 -4.25177 0
M  V30 5720 C 529.144 1.60529 -5.10034 0
M  V30 5721 C 530.444 -0.578949 -5.19081 0
M  V30 5722 H 532.138 -0.606767 -2.93187 0
M  V30 5723 H 529.684 -0.293242 -1.40983 0
M  V30 5724 H 531.637 1.63684 -3.88311 0
M  V30 5725 H 530.361 1.88681 -2.66584 0
M  V30 5726 H 529.02 0.00339328 -3.666 0
M  V30 5727 H 528.668 2.35359 -4.44539 0
M  V30 5728 H 528.368 1.18422 -5.75543 0
M  V30 5729 H 529.892 2.11623 -5.72755 0
M  V30 5730 H 531.306 -0.155199 -5.7309 0
M  V30 5731 H 529.703 -0.920947 -5.92991 0
M  V30 5732 H 530.773 -1.46109 -4.62364 0
M  V30 5733 N 532.116 1.54067 -0.331816 0
M  V30 5734 C 533.365 1.99895 0.269209 0
M  V30 5735 C 533.678 1.22371 1.52593 0
M  V30 5736 O 534.884 1.58618 2.20347 0
M  V30 5737 C 533.34 3.55972 0.530244 0
M  V30 5738 C 532.948 4.4234 -0.709901 0
M  V30 5739 C 534.692 4.10247 1.09077 0
M  V30 5740 C 532.599 5.89905 -0.420312 0
M  V30 5741 H 531.529 0.746741 0.104371 0
M  V30 5742 H 534.18 1.78014 -0.445324 0
M  V30 5743 H 532.562 3.73873 1.30518 0
M  V30 5744 H 533.736 4.36215 -1.48504 0
M  V30 5745 H 532.051 3.98997 -1.19123 0
M  V30 5746 H 534.648 5.18095 1.32219 0
M  V30 5747 H 534.991 3.62739 2.0427 0
M  V30 5748 H 535.524 3.96011 0.376824 0
M  V30 5749 H 532.263 6.41623 -1.34164 0
M  V30 5750 H 531.783 5.98962 0.316962 0
M  V30 5751 H 533.462 6.46991 -0.0331956 0
M  V30 5752 N 533.594 0.0601682 1.57485 0
M  V30 5753 C 534.824 -0.620037 1.97076 0
M  V30 5754 C 535.232 -1.64381 0.936784 0
M  V30 5755 O 534.575 -1.83497 -0.0863377 0
M  V30 5756 C 534.637 -1.35617 3.32939 0
M  V30 5757 C 534.301 -0.487208 4.54396 0
M  V30 5758 C 535.298 0.250428 5.19297 0
M  V30 5759 C 532.983 -0.415494 5.00579 0
M  V30 5760 C 534.977 1.04812 6.28723 0
M  V30 5761 C 532.664 0.385879 6.0988 0
M  V30 5762 C 533.662 1.11637 6.73815 0
M  V30 5763 O 533.35 1.90454 7.81014 0
M  V30 5764 H 533.082 -0.173664 0.653312 0
M  V30 5765 H 535.636 0.1256 2.05016 0
M  V30 5766 H 533.866 -2.14763 3.2158 0
M  V30 5767 H 535.555 -1.92749 3.57215 0
M  V30 5768 H 536.321 0.204546 4.84568 0
M  V30 5769 H 532.2 -0.973679 4.506 0
M  V30 5770 H 535.744 1.6188 6.78558 0
M  V30 5771 H 531.641 0.433366 6.44044 0
M  V30 5772 H 532.409 1.82762 7.97835 0
M  V30 5773 N 535.072 -1.5615 -0.213296 0
M  V30 5774 C 536.319 -1.79546 -0.936462 0
M  V30 5775 C 536.647 -0.630337 -1.84003 0
M  V30 5776 O 535.902 0.384883 -1.91878 0
M  V30 5777 C 536.201 -3.08772 -1.79985 0
M  V30 5778 C 535.867 -4.38532 -1.04882 0
M  V30 5779 C 534.529 -4.73787 -0.841393 0
M  V30 5780 C 536.881 -5.18609 -0.51907 0
M  V30 5781 C 534.209 -5.86627 -0.0924403 0
M  V30 5782 C 536.561 -6.32229 0.216581 0
M  V30 5783 C 535.225 -6.6608 0.435191 0
M  V30 5784 H 534.495 -0.657004 -0.342676 0
M  V30 5785 H 537.142 -1.9041 -0.204051 0
M  V30 5786 H 535.447 -2.93065 -2.60038 0
M  V30 5787 H 537.144 -3.24077 -2.36168 0
M  V30 5788 H 533.734 -4.10855 -1.22048 0
M  V30 5789 H 537.918 -4.91801 -0.666775 0
M  V30 5790 H 533.174 -6.11338 0.087081 0
M  V30 5791 H 537.348 -6.93503 0.634538 0
M  V30 5792 H 534.975 -7.5336 1.01746 0
M  V30 5793 N 536.55 0.480323 -1.50102 0
M  V30 5794 C 537.48 1.58769 -1.71215 0
M  V30 5795 C 538.461 1.60583 -0.560997 0
M  V30 5796 O 539.646 1.76996 -0.799127 0
M  V30 5797 C 536.776 2.97148 -1.79778 0
M  V30 5798 C 535.73 3.10201 -2.94888 0
M  V30 5799 C 535.056 4.50137 -2.88584 0
M  V30 5800 C 536.356 2.88283 -4.35534 0
M  V30 5801 H 538.05 1.41354 -2.6393 0
M  V30 5802 H 535.596 0.678591 -1.27008 0
M  V30 5803 H 537.549 3.74536 -1.93133 0
M  V30 5804 H 536.273 3.15699 -0.836772 0
M  V30 5805 H 534.932 2.35244 -2.81169 0
M  V30 5806 H 534.58 4.65593 -1.90349 0
M  V30 5807 H 534.28 4.59808 -3.65856 0
M  V30 5808 H 535.804 5.29558 -3.03976 0
M  V30 5809 H 537.218 3.55427 -4.49827 0
M  V30 5810 H 535.615 3.09408 -5.14186 0
M  V30 5811 H 536.685 1.84219 -4.48544 0
M  V30 5812 N 538.028 1.39524 0.732853 0
M  V30 5813 C 539.274 1.37068 1.49467 0
M  V30 5814 C 539.607 -0.0327166 1.94172 0
M  V30 5815 O 538.882 -0.998071 1.66939 0
M  V30 5816 C 539.165 2.34494 2.73285 0
M  V30 5817 C 539.018 3.83784 2.34585 0
M  V30 5818 C 540.337 2.29717 3.75391 0
M  V30 5819 H 537.456 0.499206 0.542183 0
M  V30 5820 H 540.098 1.70532 0.837783 0
M  V30 5821 H 538.248 2.06087 3.29333 0
M  V30 5822 H 539.92 4.22949 1.84151 0
M  V30 5823 H 538.163 4.00455 1.66787 0
M  V30 5824 H 538.834 4.47444 3.23262 0
M  V30 5825 H 541.31 2.54839 3.28932 0
M  V30 5826 H 540.186 2.99962 4.59689 0
M  V30 5827 H 540.447 1.30291 4.22465 0
M  V30 5828 N 539.506 -0.963266 1.24736 0
M  V30 5829 C 540.734 -1.74166 1.11686 0
M  V30 5830 C 541.149 -1.8589 -0.330187 0
M  V30 5831 O 540.506 -1.35042 -1.2276 0
M  V30 5832 C 540.557 -3.15989 1.75595 0
M  V30 5833 O 540.278 -3.04847 3.14642 0
M  V30 5834 C 541.779 -4.10145 1.68213 0
M  V30 5835 H 538.999 -0.546031 0.389989 0
M  V30 5836 H 541.543 -1.20907 1.64929 0
M  V30 5837 H 539.698 -3.66219 1.26343 0
M  V30 5838 H 540.112 -3.9425 3.4593 0
M  V30 5839 H 541.586 -5.07299 2.17604 0
M  V30 5840 H 542.063 -4.3445 0.644208 0
M  V30 5841 H 542.669 -3.65827 2.16912 0
M  V30 5842 N 540.985 -1.06182 -1.16461 0
M  V30 5843 C 541.935 -0.641619 -2.18786 0
M  V30 5844 C 542.919 0.327122 -1.5754 0
M  V30 5845 O 544.111 0.142746 -1.76423 0
M  V30 5846 C 541.24 -0.0283734 -3.43288 0
M  V30 5847 C 540.326 -1.02154 -4.11613 0
M  V30 5848 N 540.717 -2.19671 -4.55608 0
M  V30 5849 C 539.015 -0.852229 -4.37782 0
M  V30 5850 C 539.716 -2.82583 -5.0845 0
M  V30 5851 N 538.692 -2.10318 -5.01266 0
M  V30 5852 H 542.494 -1.53684 -2.50516 0
M  V30 5853 H 540.008 -0.933349 -1.329 0
M  V30 5854 H 542.005 0.29049 -4.15887 0
M  V30 5855 H 540.665 0.862118 -3.13046 0
M  V30 5856 H 541.676 -2.57453 -4.49375 0
M  V30 5857 H 538.353 -0.0136314 -4.17498 0
M  V30 5858 H 539.743 -3.82298 -5.52538 0
M  V30 5859 N 542.463 1.3308 -0.844243 0
M  V30 5860 C 543.879 1.50447 -0.532729 0
M  V30 5861 C 544.079 1.78292 0.938837 0
M  V30 5862 O 543.135 1.84635 1.72239 0
M  V30 5863 C 544.448 2.65555 -1.41072 0
M  V30 5864 C 545.996 2.7944 -1.41005 0
M  V30 5865 C 546.471 3.97616 -2.27301 0
M  V30 5866 N 547.962 4.0486 -2.2504 0
M  V30 5867 C 548.697 4.95508 -2.88547 0
M  V30 5868 N 548.193 5.91236 -3.61126 0
M  V30 5869 N 549.986 4.88548 -2.77989 0
M  V30 5870 H 542.137 1.13269 -1.79677 0
M  V30 5871 H 544.4 0.55734 -0.766861 0
M  V30 5872 H 544.106 2.51675 -2.45668 0
M  V30 5873 H 543.98 3.61089 -1.09061 0
M  V30 5874 H 546.367 2.92749 -0.371784 0
M  V30 5875 H 546.448 1.8465 -1.77026 0
M  V30 5876 H 546.092 3.85066 -3.3119 0
M  V30 5877 H 546.022 4.91661 -1.88619 0
M  V30 5878 H 548.513 3.36353 -1.72264 0
M  V30 5879 H 548.826 6.57079 -4.06776 0
M  V30 5880 H 547.171 5.91295 -3.65234 0
M  V30 5881 H 550.362 4.12729 -2.20846 0
M  V30 5882 H 550.535 5.58994 -3.27765 0
M  V30 5883 N 543.941 0.601185 1.45683 0
M  V30 5884 C 544.889 -0.133955 2.32214 0
M  V30 5885 C 545.883 -0.866034 1.45589 0
M  V30 5886 O 547.089 -0.782326 1.6211 0
M  V30 5887 H 543.464 -0.0620613 0.749435 0
M  V30 5888 H 545.435 0.614389 2.92007 0
M  V30 5889 C 544.184 -1.12216 3.29094 0
M  V30 5890 H 543.507 -0.568273 3.95741 0
M  V30 5891 H 544.947 -1.60659 3.92383 0
M  V30 5892 C 543.406 -2.19251 2.55794 0
M  V30 5893 O 543.936 -3.26894 2.33459 0
M  V30 5894 N 542.142 -1.9436 2.16039 0
M  V30 5895 H 541.689 -1.06829 2.34404 0
M  V30 5896 H 541.647 -2.66181 1.67318 0
M  V30 5897 N 545.419 -1.53889 0.339982 0
M  V30 5898 C 546.83 -1.86139 -0.144671 0
M  V30 5899 C 547.181 -1.2613 -1.50285 0
M  V30 5900 O 546.306 -0.573515 -2.08662 0
M  V30 5901 C 546.901 -3.37728 -0.269285 0
M  V30 5902 C 545.46 -3.69868 -0.698168 0
M  V30 5903 C 544.607 -2.76777 0.170249 0
M  V30 5904 H 547.558 -1.48503 0.559704 0
M  V30 5905 H 547.579 -3.64331 -1.0974 0
M  V30 5906 H 547.091 -3.81375 0.719366 0
M  V30 5907 H 545.192 -3.31764 -1.69597 0
M  V30 5908 H 545.305 -4.76582 -0.490533 0
M  V30 5909 H 543.669 -2.52188 -0.356844 0
M  V30 5910 H 544.452 -3.23253 1.15597 0
M  V30 5911 N 546.897 -0.0685191 -1.57451 0
M  V30 5912 C 548.144 0.601348 -1.93365 0
M  V30 5913 C 548.472 1.69816 -0.948294 0
M  V30 5914 O 547.727 1.95666 0.0366199 0
M  V30 5915 C 548.026 1.22051 -3.35914 0
M  V30 5916 C 547.692 0.250165 -4.50205 0
M  V30 5917 C 546.354 -0.0167954 -4.81197 0
M  V30 5918 C 548.706 -0.413867 -5.19554 0
M  V30 5919 C 546.034 -0.95493 -5.78876 0
M  V30 5920 C 548.386 -1.3403 -6.18238 0
M  V30 5921 C 547.05 -1.61576 -6.47649 0
M  V30 5922 H 546.32 0.220049 -0.707573 0
M  V30 5923 H 548.967 -0.138697 -1.90997 0
M  V30 5924 H 547.272 2.03622 -3.34732 0
M  V30 5925 H 548.969 1.74605 -3.6099 0
M  V30 5926 H 545.559 0.468421 -4.26033 0
M  V30 5927 H 549.743 -0.220733 -4.95809 0
M  V30 5928 H 544.999 -1.17563 -5.99991 0
M  V30 5929 H 549.173 -1.86081 -6.71079 0
M  V30 5930 H 546.8 -2.34431 -7.2315 0
M  V30 5931 N 548.375 1.56261 0.205012 0
M  V30 5932 C 549.786 1.70056 0.770574 0
M  V30 5933 C 550.137 0.673398 1.84282 0
M  V30 5934 O 549.262 -0.172196 2.15714 0
M  V30 5935 C 549.857 3.08316 1.40451 0
M  V30 5936 C 548.416 3.2391 1.91727 0
M  V30 5937 C 547.563 2.66001 0.783516 0
M  V30 5938 H 550.514 1.58688 -0.019911 0
M  V30 5939 H 550.535 3.05094 2.27371 0
M  V30 5940 H 550.047 3.83053 0.623882 0
M  V30 5941 H 548.148 2.54072 2.7254 0
M  V30 5942 H 548.261 4.3131 2.08588 0
M  V30 5943 H 546.625 2.24915 1.19521 0
M  V30 5944 H 547.408 3.43297 0.0152883 0
M  V30 5945 N 549.853 -0.472356 1.50355 0
M  V30 5946 C 551.1 -1.22453 1.61281 0
M  V30 5947 C 551.428 -1.91972 0.31256 0
M  V30 5948 O 550.683 -1.82696 -0.701475 0
M  V30 5949 C 550.982 -2.29257 2.74182 0
M  V30 5950 C 550.648 -1.76999 4.14708 0
M  V30 5951 C 549.31 -1.62467 4.52944 0
M  V30 5952 C 551.662 -1.38215 5.0254 0
M  V30 5953 C 548.99 -1.07574 5.76754 0
M  V30 5954 C 551.342 -0.847638 6.26895 0
M  V30 5955 C 550.006 -0.688946 6.63935 0
M  V30 5956 H 549.276 -0.448087 0.590168 0
M  V30 5957 H 551.923 -0.520744 1.84284 0
M  V30 5958 H 550.228 -3.05538 2.45263 0
M  V30 5959 H 551.925 -2.87212 2.7984 0
M  V30 5960 H 548.515 -1.89276 3.84542 0
M  V30 5961 H 552.699 -1.48276 4.73633 0
M  V30 5962 H 547.955 -0.940237 6.04127 0
M  V30 5963 H 552.129 -0.538455 6.94315 0
M  V30 5964 H 549.756 -0.261435 7.5975 0
M  V30 5965 N 551.331 -1.39911 -0.725443 0
M  V30 5966 C 552.58 -1.36963 -1.48068 0
M  V30 5967 C 552.893 0.0284478 -1.95579 0
M  V30 5968 O 554.099 0.180535 -2.70899 0
M  V30 5969 C 552.555 -2.40664 -2.67598 0
M  V30 5970 C 552.163 -3.86234 -2.26997 0
M  V30 5971 C 553.907 -2.46807 -3.45379 0
M  V30 5972 C 551.814 -4.81554 -3.43307 0
M  V30 5973 H 550.744 -0.509223 -0.556065 0
M  V30 5974 H 553.395 -1.65602 -0.790454 0
M  V30 5975 H 551.777 -2.05109 -3.38742 0
M  V30 5976 H 552.951 -4.3088 -1.63337 0
M  V30 5977 H 551.266 -3.83475 -1.62284 0
M  V30 5978 H 553.863 -3.15213 -4.31909 0
M  V30 5979 H 554.206 -1.49552 -3.8851 0
M  V30 5980 H 554.739 -2.81303 -2.81271 0
M  V30 5981 H 551.478 -5.80106 -3.05217 0
M  V30 5982 H 550.998 -4.4158 -4.05915 0
M  V30 5983 H 552.677 -5.0091 -4.0951 0
M  V30 5984 N 552.809 0.956637 -1.25245 0
M  V30 5985 C 554.057 1.69764 -1.09657 0
M  V30 5986 C 554.378 1.91583 0.363464 0
M  V30 5987 O 553.648 1.50149 1.25825 0
M  V30 5988 H 552.228 0.629097 -0.402798 0
M  V30 5989 H 554.89 1.15026 -1.57337 0
M  V30 5990 H 553.986 2.67769 -1.60331 0
M  V30 5991 N 554.287 1.06798 1.15896 0
M  V30 5992 C 555.535 0.786211 1.8618 0
M  V30 5993 C 555.856 -0.689547 1.82401 0
M  V30 5994 O 555.126 -1.49913 1.26107 0
M  V30 5995 H 553.706 0.287843 0.689315 0
M  V30 5996 H 556.368 1.35055 1.40521 0
M  V30 5997 H 555.464 1.1157 2.91477 0
M  V30 5998 N 555.766 -1.3263 0.851289 0
M  V30 5999 C 556.699 -2.26952 0.238318 0
M  V30 6000 C 557.677 -1.50243 -0.621757 0
M  V30 6001 O 558.861 -1.79378 -0.579298 0
M  V30 6002 C 555.988 -3.32124 -0.664178 0
M  V30 6003 C 555.034 -4.26325 0.122067 0
M  V30 6004 S 555.867 -5.14404 1.48824 0
M  V30 6005 C 557.023 -6.231 0.591372 0
M  V30 6006 H 557.256 -2.78594 1.03791 0
M  V30 6007 H 554.789 -1.4011 0.648731 0
M  V30 6008 H 556.747 -3.93197 -1.17924 0
M  V30 6009 H 555.408 -2.79273 -1.43755 0
M  V30 6010 H 554.601 -5.00821 -0.565181 0
M  V30 6011 H 554.203 -3.69652 0.568602 0
M  V30 6012 H 556.495 -6.77187 -0.205762 0
M  V30 6013 H 557.438 -6.95936 1.30687 0
M  V30 6014 H 557.846 -5.64252 0.167206 0
M  V30 6015 N 557.244 -0.608902 -1.45362 0
M  V30 6016 C 558.174 0.0964526 -2.33301 0
M  V30 6017 C 559.155 0.857444 -1.46908 0
M  V30 6018 O 560.34 0.827735 -1.75676 0
M  V30 6019 C 557.47 1.09354 -3.29635 0
M  V30 6020 C 556.424 0.445676 -4.25673 0
M  V30 6021 C 555.75 1.5511 -5.11708 0
M  V30 6022 C 557.05 -0.633972 -5.18438 0
M  V30 6023 H 558.744 -0.637829 -2.92527 0
M  V30 6024 H 556.29 -0.308178 -1.40664 0
M  V30 6025 H 558.243 1.59556 -3.90025 0
M  V30 6026 H 556.967 1.85843 -2.6857 0
M  V30 6027 H 555.626 -0.0354897 -3.66583 0
M  V30 6028 H 555.274 2.30631 -4.4701 0
M  V30 6029 H 554.974 1.12311 -5.76767 0
M  V30 6030 H 556.498 2.05537 -5.74967 0
M  V30 6031 H 557.912 -0.215974 -5.72893 0
M  V30 6032 H 556.309 -0.983789 -5.91981 0
M  V30 6033 H 557.379 -1.51005 -4.60788 0
M  V30 6034 N 558.722 1.53707 -0.348139 0
M  V30 6035 C 559.654 2.22725 0.540946 0
M  V30 6036 C 560.667 1.2354 1.06027 0
M  V30 6037 O 561.856 1.49867 0.96964 0
M  V30 6038 C 558.956 2.89756 1.75768 0
M  V30 6039 C 558.129 4.15297 1.37285 0
M  V30 6040 C 557.188 4.65697 2.44976 0
M  V30 6041 O 556.214 5.29798 2.08092 0
M  V30 6042 N 557.416 4.42017 3.763 0
M  V30 6043 H 560.181 2.99658 -0.0501592 0
M  V30 6044 H 557.742 1.60979 -0.17248 0
M  V30 6045 H 559.734 3.20388 2.47252 0
M  V30 6046 H 558.304 2.16382 2.25605 0
M  V30 6047 H 557.524 3.9116 0.488584 0
M  V30 6048 H 558.812 4.96948 1.09179 0
M  V30 6049 H 558.21 3.9076 4.09051 0
M  V30 6050 H 556.767 4.77242 4.4394 0
M  V30 6051 N 560.2 0.0768682 1.57412 0
M  V30 6052 C 561.163 -0.873949 2.11884 0
M  V30 6053 C 562.163 -1.22301 1.04398 0
M  V30 6054 O 563.353 -1.15545 1.30365 0
M  V30 6055 C 560.485 -2.17575 2.62438 0
M  V30 6056 H 561.678 -0.401278 2.97203 0
M  V30 6057 H 559.231 -0.171904 1.55352 0
M  V30 6058 H 559.966 -2.69368 1.80587 0
M  V30 6059 H 559.751 -1.93534 3.41009 0
M  V30 6060 H 561.241 -2.85631 3.04639 0
M  V30 6061 N 561.678 -1.56367 -0.196722 0
M  V30 6062 C 562.608 -1.97442 -1.24655 0
M  V30 6063 C 563.589 -0.846147 -1.47561 0
M  V30 6064 O 564.774 -1.11035 -1.59326 0
M  V30 6065 C 561.904 -2.31253 -2.59112 0
M  V30 6066 C 560.858 -3.46804 -2.50821 0
M  V30 6067 C 560.184 -3.66286 -3.89536 0
M  V30 6068 C 561.484 -4.8104 -2.03465 0
M  V30 6069 H 563.178 -2.85388 -0.905216 0
M  V30 6070 H 560.724 -1.37304 -0.434002 0
M  V30 6071 H 562.677 -2.58583 -3.32736 0
M  V30 6072 H 561.401 -1.40188 -2.94983 0
M  V30 6073 H 560.06 -3.19563 -1.79653 0
M  V30 6074 H 559.708 -2.72555 -4.22756 0
M  V30 6075 H 559.408 -4.4402 -3.84864 0
M  V30 6076 H 560.932 -3.9599 -4.64784 0
M  V30 6077 H 562.346 -5.07411 -2.66846 0
M  V30 6078 H 560.743 -5.62232 -2.09798 0
M  V30 6079 H 561.813 -4.74732 -0.98781 0
M  V30 6080 N 563.156 0.464375 -1.50603 0
M  V30 6081 C 564.405 1.21277 -1.61167 0
M  V30 6082 C 564.718 1.92953 -0.320704 0
M  V30 6083 O 565.924 2.69778 -0.30534 0
M  V30 6084 C 564.38 2.20403 -2.84518 0
M  V30 6085 C 563.988 1.54499 -4.20516 0
M  V30 6086 C 565.732 2.95843 -3.0443 0
M  V30 6087 C 563.639 2.51951 -5.35047 0
M  V30 6088 H 562.569 0.456367 -0.600204 0
M  V30 6089 H 565.22 0.48254 -1.77042 0
M  V30 6090 H 563.602 2.96746 -2.62217 0
M  V30 6091 H 564.776 0.83899 -4.53098 0
M  V30 6092 H 563.091 0.913152 -4.06264 0
M  V30 6093 H 565.688 3.6879 -3.87167 0
M  V30 6094 H 566.031 3.55622 -2.16423 0
M  V30 6095 H 566.564 2.26611 -3.26944 0
M  V30 6096 H 563.303 1.96901 -6.25228 0
M  V30 6097 H 562.823 3.20683 -5.06875 0
M  V30 6098 H 564.502 3.13643 -5.65895 0
M  V30 6099 N 564.634 1.40294 0.718013 0
M  V30 6100 C 565.862 1.4175 1.50714 0
M  V30 6101 C 566.277 0.0165366 1.88793 0
M  V30 6102 O 565.634 -0.958942 1.55276 0
M  V30 6103 C 565.685 2.30598 2.784 0
M  V30 6104 O 565.406 3.6524 2.41932 0
M  V30 6105 C 566.907 2.4062 3.72313 0
M  V30 6106 H 564.127 0.483565 0.465194 0
M  V30 6107 H 566.671 1.84316 0.885889 0
M  V30 6108 H 564.826 1.91401 3.36815 0
M  V30 6109 H 565.24 4.12402 3.24076 0
M  V30 6110 H 566.714 3.07001 4.58753 0
M  V30 6111 H 567.191 1.4305 4.15251 0
M  V30 6112 H 567.797 2.80359 3.19811 0
M  V30 6113 N 566.112 -0.949982 1.2575 0
M  V30 6114 C 567.075 -2.02894 1.06615 0
M  V30 6115 C 568.075 -1.60791 0.0173905 0
M  V30 6116 O 569.265 -1.72249 0.260003 0
M  V30 6117 C 566.397 -3.35219 0.619751 0
M  V30 6118 H 567.59 -2.21302 2.02399 0
M  V30 6119 H 565.143 -1.12772 1.08223 0
M  V30 6120 H 565.878 -3.22508 -0.340486 0
M  V30 6121 H 565.663 -3.67129 1.37692 0
M  V30 6122 H 567.153 -4.14505 0.507443 0
M  V30 6123 N 567.59 -1.07411 -1.15328 0
M  V30 6124 C 568.523 -0.63913 -2.19067 0
M  V30 6125 C 569.501 0.343929 -1.58921 0
M  V30 6126 O 570.685 0.250207 -1.86832 0
M  V30 6127 C 567.812 0.0613977 -3.38644 0
M  V30 6128 C 566.858 -0.880201 -4.17318 0
M  V30 6129 S 567.691 -2.38152 -4.79629 0
M  V30 6130 C 568.847 -1.69281 -6.02573 0
M  V30 6131 H 569.08 -1.51799 -2.55626 0
M  V30 6132 H 566.613 -0.888138 -1.26299 0
M  V30 6133 H 568.571 0.459323 -4.07922 0
M  V30 6134 H 567.232 0.916605 -3.00428 0
M  V30 6135 H 566.425 -0.336781 -5.02874 0
M  V30 6136 H 566.027 -1.21854 -3.53592 0
M  V30 6137 H 568.319 -1.00488 -6.70006 0
M  V30 6138 H 569.262 -2.52671 -6.61485 0
M  V30 6139 H 569.67 -1.17053 -5.52231 0
M  V30 6140 N 569.068 1.32177 -0.85831 0
M  V30 6141 C 570.316 1.96735 -0.462568 0
M  V30 6142 C 570.637 1.6824 0.985911 0
M  V30 6143 O 569.907 0.991564 1.68952 0
M  V30 6144 H 568.487 0.727849 -0.168064 0
M  V30 6145 H 571.149 1.61195 -1.09554 0
M  V30 6146 H 570.245 3.06068 -0.610647 0
M  V30 6147 N 570.547 0.616602 1.45037 0
M  V30 6148 C 571.775 0.121968 2.0654 0
M  V30 6149 C 572.19 -1.19743 1.45969 0
M  V30 6150 O 571.547 -1.73133 0.577168 0
M  V30 6151 C 571.598 -0.0145171 3.61497 0
M  V30 6152 O 571.319 1.25269 4.19809 0
M  V30 6153 C 572.82 -0.539555 4.40004 0
M  V30 6154 H 570.04 0.0729837 0.667019 0
M  V30 6155 H 572.584 0.846891 1.8614 0
M  V30 6156 H 570.739 -0.689809 3.81209 0
M  V30 6157 H 571.153 1.08816 5.13088 0
M  V30 6158 H 572.627 -0.584112 5.48901 0
M  V30 6159 H 573.104 -1.56368 4.10421 0
M  V30 6160 H 573.71 0.101995 4.25178 0
M  V30 6161 N 572.025 -1.5352 0.356285 0
M  V30 6162 C 573.25 -2.06007 -0.239961 0
M  V30 6163 C 573.675 -1.22872 -1.42422 0
M  V30 6164 O 573.033 -0.245516 -1.7963 0
M  V30 6165 C 573.081 -3.5522 -0.620587 0
M  V30 6166 O 572.185 -3.74864 -1.71902 0
M  V30 6167 H 571.526 -0.662961 -0.0371377 0
M  V30 6168 H 574.056 -1.98033 0.514194 0
M  V30 6169 H 574.066 -3.98081 -0.894197 0
M  V30 6170 H 572.741 -4.15175 0.245407 0
M  V30 6171 H 571.318 -3.43904 -1.44169 0
M  V30 6172 N 573.503 -0.0852151 -1.57369 0
M  V30 6173 C 574.728 0.592872 -1.98746 0
M  V30 6174 C 575.153 1.61538 -0.963689 0
M  V30 6175 O 574.511 1.81168 0.069071 0
M  V30 6176 C 574.559 1.22599 -3.39119 0
M  V30 6177 O 573.663 2.34185 -3.39457 0
M  V30 6178 H 573.004 0.151314 -0.646529 0
M  V30 6179 H 575.534 -0.163703 -2.03944 0
M  V30 6180 H 575.544 1.56965 -3.76598 0
M  V30 6181 H 574.219 0.476831 -4.13158 0
M  V30 6182 H 572.796 2.01512 -3.13763 0
M  V30 6183 N 574.981 1.5647 0.188427 0
M  V30 6184 C 576.206 1.85486 0.927891 0
M  V30 6185 C 576.631 0.669575 1.75779 0
M  V30 6186 O 575.989 -0.381573 1.77239 0
M  V30 6187 C 576.037 3.12784 1.7944 0
M  V30 6188 O 575.141 2.93805 2.894 0
M  V30 6189 H 574.482 0.610585 0.260925 0
M  V30 6190 H 577.012 2.037 0.191729 0
M  V30 6191 H 577.022 3.43749 2.19774 0
M  V30 6192 H 575.697 3.98671 1.18468 0
M  V30 6193 H 574.274 2.74153 2.52774 0
M  V30 6194 N 576.459 -0.456382 1.50847 0
M  V30 6195 C 577.684 -1.2349 1.66628 0
M  V30 6196 C 578.109 -1.84715 0.355254 0
M  V30 6197 O 577.467 -1.67961 -0.682559 0
M  V30 6198 C 577.515 -2.30865 2.77009 0
M  V30 6199 O 576.619 -3.35882 2.39285 0
M  V30 6200 H 575.96 -0.36266 0.556214 0
M  V30 6201 H 578.49 -0.541374 1.97308 0
M  V30 6202 H 578.5 -2.75949 3.00526 0
M  V30 6203 H 577.175 -1.85677 3.72152 0
M  V30 6204 H 575.752 -2.96406 2.26269 0
M  V30 6205 N 577.937 -1.40673 -0.710563 0
M  V30 6206 C 578.9 -1.4108 -1.80635 0
M  V30 6207 C 579.9 -0.303783 -1.57904 0
M  V30 6208 O 581.09 -0.562937 -1.64853 0
M  V30 6209 C 578.222 -1.20748 -3.18799 0
M  V30 6210 H 579.415 -2.38612 -1.81671 0
M  V30 6211 H 576.968 -1.26595 -0.916704 0
M  V30 6212 H 577.703 -0.239964 -3.23411 0
M  V30 6213 H 577.488 -2.00941 -3.36698 0
M  V30 6214 H 578.978 -1.23833 -3.98817 0
M  V30 6215 N 579.415 0.9433 -1.26252 0
M  V30 6216 C 580.643 1.72367 -1.14443 0
M  V30 6217 C 581.058 1.86392 0.300572 0
M  V30 6218 O 580.415 1.36978 1.20596 0
M  V30 6219 C 580.466 3.13155 -1.806 0
M  V30 6220 O 580.187 2.99803 -3.19452 0
M  V30 6221 C 581.688 4.07417 -1.74717 0
M  V30 6222 H 578.908 0.539758 -0.398626 0
M  V30 6223 H 581.452 1.18268 -1.66832 0
M  V30 6224 H 579.607 3.64162 -1.32154 0
M  V30 6225 H 580.021 3.88697 -3.52158 0
M  V30 6226 H 581.495 5.03773 -2.25647 0
M  V30 6227 H 581.972 4.3337 -0.713244 0
M  V30 6228 H 582.578 3.6233 -2.22704 0
M  V30 6229 N 580.893 1.08022 1.14757 0
M  V30 6230 C 581.823 0.728248 2.21853 0
M  V30 6231 C 582.804 -0.287486 1.67653 0
M  V30 6232 O 583.989 -0.158727 1.9355 0
M  V30 6233 C 581.119 0.132549 3.47047 0
M  V30 6234 C 580.073 1.07619 4.14249 0
M  V30 6235 C 579.399 0.342907 5.33599 0
M  V30 6236 C 580.699 2.41268 4.63235 0
M  V30 6237 H 582.393 1.62365 2.51551 0
M  V30 6238 H 579.939 0.782125 1.20908 0
M  V30 6239 H 581.892 -0.125665 4.21213 0
M  V30 6240 H 580.616 -0.797971 3.16702 0
M  V30 6241 H 579.275 1.31944 3.42033 0
M  V30 6242 H 578.923 -0.59129 4.99513 0
M  V30 6243 H 578.623 0.971955 5.79506 0
M  V30 6244 H 580.147 0.0926538 6.1053 0
M  V30 6245 H 581.561 2.21232 5.28894 0
M  V30 6246 H 579.958 2.9983 5.19829 0
M  V30 6247 H 581.028 3.03079 3.78512 0
M  V30 6248 N 582.371 -1.3172 0.865308 0
M  V30 6249 C 583.782 -1.79104 0.527126 0
M  V30 6250 C 584.133 -1.7135 -0.955695 0
M  V30 6251 O 583.258 -1.27845 -1.74598 0
M  V30 6252 C 583.853 -3.25207 0.950061 0
M  V30 6253 C 582.412 -3.70504 0.663611 0
M  V30 6254 C 581.559 -2.52605 1.14395 0
M  V30 6255 H 584.51 -1.18868 1.05148 0
M  V30 6256 H 584.531 -3.79535 0.270805 0
M  V30 6257 H 584.043 -3.30818 2.02931 0
M  V30 6258 H 582.144 -3.70398 -0.404474 0
M  V30 6259 H 582.257 -4.62845 1.23737 0
M  V30 6260 H 580.621 -2.4838 0.563859 0
M  V30 6261 H 581.404 -2.60964 2.23053 0
M  V30 6262 N 583.85 -0.624285 -1.44708 0
M  V30 6263 C 585.099 -0.123539 -2.01321 0
M  V30 6264 C 585.412 1.25966 -1.49639 0
M  V30 6265 O 586.618 1.85405 -1.98336 0
M  V30 6266 C 585.074 -0.170124 -3.59498 0
M  V30 6267 C 584.682 -1.55421 -4.20176 0
M  V30 6268 C 586.426 0.274513 -4.23611 0
M  V30 6269 C 584.332 -1.55628 -5.70556 0
M  V30 6270 H 583.263 -0.0424183 -0.752806 0
M  V30 6271 H 585.913 -0.782076 -1.65999 0
M  V30 6272 H 584.296 0.555385 -3.92086 0
M  V30 6273 H 585.47 -2.30276 -3.99136 0
M  V30 6274 H 583.784 -1.94235 -3.68323 0
M  V30 6275 H 586.382 0.292402 -5.339 0
M  V30 6276 H 586.725 1.3005 -3.95465 0
M  V30 6277 H 587.258 -0.398275 -3.95801 0
M  V30 6278 H 583.997 -2.56041 -6.03426 0
M  V30 6279 H 583.517 -0.850563 -5.93739 0
M  V30 6280 H 585.196 -1.28721 -6.34066 0
M  V30 6281 N 585.328 1.53329 -0.364422 0
M  V30 6282 C 586.556 2.05657 0.226424 0
M  V30 6283 C 586.971 1.23801 1.42544 0
M  V30 6284 O 586.328 0.27839 1.80364 0
M  V30 6285 C 586.379 3.56125 0.621056 0
M  V30 6286 O 586.1 4.34879 -0.530304 0
M  V30 6287 C 587.601 4.24706 1.27041 0
M  V30 6288 H 584.821 0.669806 0.0400056 0
M  V30 6289 H 587.365 1.97714 -0.522456 0
M  V30 6290 H 585.52 3.64223 1.31985 0
M  V30 6291 H 585.934 5.24073 -0.211546 0
M  V30 6292 H 587.408 5.3131 1.49711 0
M  V30 6293 H 587.885 3.78354 2.23036 0
M  V30 6294 H 588.491 4.20858 0.613079 0
M  V30 6295 N 586.806 0.0935595 1.57322 0
M  V30 6296 C 588.053 -0.570509 1.94297 0
M  V30 6297 C 588.381 -1.68286 0.97519 0
M  V30 6298 O 587.636 -1.95699 -0.00548655 0
M  V30 6299 C 587.935 -1.16692 3.37813 0
M  V30 6300 C 587.601 -0.178509 4.50547 0
M  V30 6301 C 586.263 0.0933475 4.81109 0
M  V30 6302 C 588.615 0.496472 5.1883 0
M  V30 6303 C 585.943 1.0469 5.77284 0
M  V30 6304 C 588.295 1.43849 6.16028 0
M  V30 6305 C 586.959 1.71859 6.44997 0
M  V30 6306 H 586.229 -0.208764 0.710984 0
M  V30 6307 H 588.876 0.169066 1.90752 0
M  V30 6308 H 587.181 -1.98271 3.37929 0
M  V30 6309 H 588.878 -1.6884 3.63722 0
M  V30 6310 H 585.468 -0.400584 4.26724 0
M  V30 6311 H 589.652 0.299584 4.95395 0
M  V30 6312 H 584.908 1.27094 5.98044 0
M  V30 6313 H 589.082 1.96734 6.68034 0
M  V30 6314 H 586.709 2.45906 7.19329 0
M  V30 6315 N 588.284 -1.56567 -0.180126 0
M  V30 6316 C 589.7 -1.50488 -0.531559 0
M  V30 6317 C 589.9 -0.796267 -1.851 0
M  V30 6318 O 588.956 -0.352978 -2.50021 0
M  V30 6319 C 590.269 -2.95201 -0.572456 0
M  V30 6320 C 591.817 -3.05957 -0.660264 0
M  V30 6321 C 592.292 -4.5211 -0.732135 0
M  V30 6322 N 593.783 -4.56322 -0.795262 0
M  V30 6323 C 594.518 -5.66742 -0.871296 0
M  V30 6324 N 594.014 -6.86815 -0.908708 0
M  V30 6325 N 595.807 -5.54691 -0.909639 0
M  V30 6326 H 587.958 -2.01045 0.685165 0
M  V30 6327 H 590.221 -0.915536 0.245962 0
M  V30 6328 H 589.927 -3.50165 0.328208 0
M  V30 6329 H 589.801 -3.49369 -1.422 0
M  V30 6330 H 592.188 -2.51032 -1.55136 0
M  V30 6331 H 592.269 -2.54888 0.215783 0
M  V30 6332 H 591.913 -5.07664 0.154664 0
M  V30 6333 H 591.843 -5.00926 -1.6242 0
M  V30 6334 H 594.334 -3.69868 -0.77499 0
M  V30 6335 H 594.647 -7.66718 -0.967654 0
M  V30 6336 H 592.992 -6.89443 -0.877132 0
M  V30 6337 H 596.183 -4.59804 -0.877353 0
M  V30 6338 H 596.356 -6.40768 -0.965434 0
M  V30 6339 N 589.762 0.448376 -1.51087 0
M  V30 6340 C 591.002 1.20832 -1.64861 0
M  V30 6341 C 591.366 1.88748 -0.351873 0
M  V30 6342 O 592.567 2.66307 -0.365265 0
M  V30 6343 C 590.838 2.20674 -2.81137 0
M  V30 6344 S 592.397 3.05303 -3.15176 0
M  V30 6345 H 589.215 0.40992 -0.580936 0
M  V30 6346 H 591.817 0.501624 -1.88955 0
M  V30 6347 H 590.521 1.69399 -3.73808 0
M  V30 6348 H 590.052 2.9594 -2.59198 0
M  V30 6349 H 592.067 4.22162 -2.60756 0
M  V30 6350 N 591.24 1.41047 0.703093 0
M  V30 6351 C 592.17 1.45067 1.82969 0
M  V30 6352 C 593.151 0.31016 1.67248 0
M  V30 6353 O 594.336 0.520548 1.87093 0
M  V30 6354 C 591.466 1.32478 3.2104 0
M  V30 6355 C 590.42 2.44262 3.51454 0
M  V30 6356 C 589.746 2.16742 4.88801 0
M  V30 6357 C 591.046 3.86606 3.51189 0
M  V30 6358 H 592.74 2.39353 1.79863 0
M  V30 6359 H 590.286 1.15206 0.863919 0
M  V30 6360 H 592.239 1.33904 3.99559 0
M  V30 6361 H 590.963 0.346735 3.24754 0
M  V30 6362 H 589.622 2.42107 2.75282 0
M  V30 6363 H 589.27 1.17299 4.89132 0
M  V30 6364 H 588.97 2.91643 5.10116 0
M  V30 6365 H 590.494 2.19872 5.69639 0
M  V30 6366 H 591.908 3.90517 4.19725 0
M  V30 6367 H 590.305 4.61128 3.84033 0
M  V30 6368 H 591.375 4.15296 2.50315 0
M  V30 6369 N 592.718 -0.936591 1.26751 0
M  V30 6370 C 593.628 -2.06949 1.10496 0
M  V30 6371 C 594.644 -1.7396 0.037271 0
M  V30 6372 O 595.82 -1.99941 0.241944 0
M  V30 6373 C 592.885 -3.38612 0.744491 0
M  V30 6374 C 591.946 -3.85355 1.89209 0
M  V30 6375 C 591.179 -5.10735 1.54873 0
M  V30 6376 O 591.402 -5.68602 0.452546 0
M  V30 6377 O 590.336 -5.52632 2.38499 0
M  V30 6378 H 594.162 -2.23571 2.05547 0
M  V30 6379 H 591.747 -1.05428 1.05855 0
M  V30 6380 H 593.629 -4.17711 0.556396 0
M  V30 6381 H 592.304 -3.23218 -0.176582 0
M  V30 6382 H 591.211 -3.07182 2.13518 0
M  V30 6383 H 592.544 -4.05277 2.79305 0
M  V30 6384 N 594.196 -1.08629 -1.14182 0
M  V30 6385 C 595.106 -0.730126 -2.22949 0
M  V30 6386 C 596.122 0.26436 -1.7198 0
M  V30 6387 O 597.298 0.107742 -2.01112 0
M  V30 6388 C 594.363 -0.147227 -3.46387 0
M  V30 6389 C 593.424 -1.19662 -4.12286 0
M  V30 6390 C 592.657 -0.641437 -5.29831 0
M  V30 6391 O 592.88 0.538351 -5.67854 0
M  V30 6392 O 591.814 -1.39257 -5.85569 0
M  V30 6393 H 595.64 -1.63753 -2.55771 0
M  V30 6394 H 593.225 -0.860118 -1.22157 0
M  V30 6395 H 595.107 0.174923 -4.21037 0
M  V30 6396 H 593.782 0.733304 -3.15285 0
M  V30 6397 H 592.689 -1.57133 -3.395 0
M  V30 6398 H 594.022 -2.0495 -4.475 0
M  V30 6399 N 595.674 1.31259 -0.872281 0
M  V30 6400 C 596.922 1.96233 -0.483409 0
M  V30 6401 C 597.243 1.69276 0.968012 0
M  V30 6402 O 596.513 1.00943 1.67891 0
M  V30 6403 H 595.093 0.726025 -0.175774 0
M  V30 6404 H 597.755 1.60024 -1.11258 0
M  V30 6405 H 596.851 3.05403 -0.643075 0
M  V30 6406 N 597.152 0.631951 1.44375 0
M  V30 6407 C 598.082 -0.0593243 2.33425 0
M  V30 6408 C 599.063 -0.833964 1.48253 0
M  V30 6409 O 600.248 -0.799682 1.76971 0
M  V30 6410 C 597.378 -1.04096 3.31333 0
M  V30 6411 C 596.332 -0.377899 4.26328 0
M  V30 6412 C 595.658 -1.4695 5.14111 0
M  V30 6413 C 596.958 0.716371 5.17364 0
M  V30 6414 H 598.652 0.684287 2.91475 0
M  V30 6415 H 596.198 0.330518 1.40156 0
M  V30 6416 H 598.151 -1.53331 3.92514 0
M  V30 6417 H 596.875 -1.81547 2.71493 0
M  V30 6418 H 595.534 0.0938054 3.6648 0
M  V30 6419 H 595.182 -2.2349 4.50623 0
M  V30 6420 H 594.882 -1.03121 5.78481 0
M  V30 6421 H 596.406 -1.96363 5.78164 0
M  V30 6422 H 597.82 0.307089 5.72477 0
M  V30 6423 H 596.217 1.07784 5.90341 0
M  V30 6424 H 597.287 1.58316 4.58327 0
M  V30 6425 N 598.631 -1.53133 0.372548 0
M  V30 6426 C 599.879 -2.00958 -0.214534 0
M  V30 6427 C 600.2 -1.26135 -1.48711 0
M  V30 6428 O 599.47 -0.376597 -1.92246 0
M  V30 6429 H 598.05 -0.742456 -0.0822664 0
M  V30 6430 H 600.712 -1.88367 0.500385 0
M  V30 6431 H 599.808 -3.09031 -0.436605 0
M  V30 6432 N 600.109 -0.101901 -1.5727 0
M  V30 6433 C 601.355 0.561027 -1.94885 0
M  V30 6434 C 601.688 1.6741 -0.984258 0
M  V30 6435 O 600.963 1.94491 -0.0184767 0
M  V30 6436 C 601.246 1.10982 -3.42571 0
M  V30 6437 C 601.099 0.00133418 -4.498 0
M  V30 6438 C 602.418 2.00608 -3.9172 0
M  V30 6439 H 599.537 0.202467 -0.708644 0
M  V30 6440 H 602.179 -0.173992 -1.89202 0
M  V30 6441 H 600.329 1.73621 -3.47546 0
M  V30 6442 H 602.001 -0.63322 -4.56933 0
M  V30 6443 H 600.244 -0.664143 -4.28686 0
M  V30 6444 H 600.915 0.426253 -5.50352 0
M  V30 6445 H 603.391 1.47864 -3.88941 0
M  V30 6446 H 602.267 2.3593 -4.95609 0
M  V30 6447 H 602.528 2.92608 -3.3141 0
M  V30 6448 N 601.587 1.56661 0.17182 0
M  V30 6449 C 602.864 1.72838 0.915778 0
M  V30 6450 C 603.244 0.66316 2.00413 0
M  V30 6451 O 602.592 -0.322123 2.26218 0
M  V30 6452 C 602.802 3.16019 1.48097 0
M  V30 6453 C 604.15 3.76962 1.95408 0
M  V30 6454 O 605.174 3.19294 1.57892 0
M  V30 6455 O 604.033 4.78219 2.64516 0
M  V30 6456 H 601.127 0.705797 0.431021 0
M  V30 6457 H 603.673 1.68947 0.159689 0
M  V30 6458 H 602.445 3.85031 0.697618 0
M  V30 6459 H 602.068 3.24234 2.30126 0
M  V30 6460 N 603.065 -0.440357 1.51323 0
M  V30 6461 C 604.481 -0.7766 1.39431 0
M  V30 6462 C 604.681 -1.95838 0.474296 0
M  V30 6463 O 603.737 -2.52398 -0.0716692 0
M  V30 6464 C 605.05 -1.05981 2.81405 0
M  V30 6465 C 606.598 -1.16442 2.90534 0
M  V30 6466 C 607.073 -1.48058 4.33408 0
M  V30 6467 N 608.564 -1.54988 4.36501 0
M  V30 6468 C 609.299 -1.81017 5.44078 0
M  V30 6469 N 608.795 -2.04858 6.61819 0
M  V30 6470 N 610.588 -1.82774 5.31554 0
M  V30 6471 H 602.739 0.338006 2.09693 0
M  V30 6472 H 605.002 0.0888072 0.943831 0
M  V30 6473 H 604.708 -0.264173 3.50706 0
M  V30 6474 H 604.582 -1.98822 3.20546 0
M  V30 6475 H 606.969 -1.95068 2.21432 0
M  V30 6476 H 607.05 -0.215088 2.54894 0
M  V30 6477 H 606.694 -0.699605 5.03059 0
M  V30 6478 H 606.624 -2.44192 4.66559 0
M  V30 6479 H 609.115 -1.38479 3.51613 0
M  V30 6480 H 609.428 -2.2408 7.396 0
M  V30 6481 H 607.773 -2.02187 6.6494 0
M  V30 6482 H 610.964 -1.63665 4.38556 0
M  V30 6483 H 611.137 -2.02722 6.15474 0
M  V30 6484 N 604.543 -1.41418 -0.695603 0
M  V30 6485 C 605.959 -1.23887 -1.00619 0
M  V30 6486 C 606.159 -0.128206 -2.01092 0
M  V30 6487 O 605.215 0.507408 -2.47349 0
M  V30 6488 C 606.528 -2.58816 -1.53083 0
M  V30 6489 C 608.076 -2.65998 -1.64967 0
M  V30 6490 C 608.551 -4.01244 -2.20833 0
M  V30 6491 N 610.042 -4.0309 -2.28194 0
M  V30 6492 C 610.777 -5.04539 -2.72448 0
M  V30 6493 N 610.273 -6.16378 -3.16306 0
M  V30 6494 N 612.066 -4.91901 -2.72011 0
M  V30 6495 H 604.217 -2.12379 -0.0300061 0
M  V30 6496 H 606.48 -0.944958 -0.0758797 0
M  V30 6497 H 606.186 -3.40842 -0.867147 0
M  V30 6498 H 606.06 -2.81299 -2.51298 0
M  V30 6499 H 608.447 -1.84331 -2.30448 0
M  V30 6500 H 608.528 -2.47325 -0.652982 0
M  V30 6501 H 608.172 -4.83359 -1.55968 0
M  V30 6502 H 608.102 -4.17257 -3.21254 0
M  V30 6503 H 610.593 -3.22341 -1.97242 0
M  V30 6504 H 610.906 -6.89658 -3.487 0
M  V30 6505 H 609.251 -6.19914 -3.14215 0
M  V30 6506 H 612.442 -4.03613 -2.37095 0
M  V30 6507 H 612.615 -5.71102 -3.06181 0
M  V30 6508 N 606.021 0.929856 -1.27246 0
M  V30 6509 C 607.27 1.67182 -1.12842 0
M  V30 6510 C 607.583 1.9287 0.325666 0
M  V30 6511 O 608.789 2.64999 0.590572 0
M  V30 6512 C 607.245 3.01097 -1.97151 0
M  V30 6513 C 606.853 2.83115 -3.47203 0
M  V30 6514 C 608.597 3.78907 -1.91389 0
M  V30 6515 C 606.504 4.12573 -4.23719 0
M  V30 6516 H 605.434 0.627064 -0.418697 0
M  V30 6517 H 608.085 1.0332 -1.51649 0
M  V30 6518 H 606.467 3.66004 -1.51186 0
M  V30 6519 H 607.641 2.26989 -4.01015 0
M  V30 6520 H 605.956 2.18736 -3.54321 0
M  V30 6521 H 608.553 4.74837 -2.45834 0
M  V30 6522 H 608.896 4.0674 -0.887047 0
M  V30 6523 H 609.429 3.20794 -2.35237 0
M  V30 6524 H 606.168 3.8992 -5.26918 0
M  V30 6525 H 605.688 4.68371 -3.74685 0
M  V30 6526 H 607.367 4.8095 -4.32777 0
M  V30 6527 N 607.499 1.09233 1.13605 0
M  V30 6528 C 608.727 0.848908 1.88683 0
M  V30 6529 C 609.142 -0.599667 1.79024 0
M  V30 6530 O 608.499 -1.41265 1.15544 0
M  V30 6531 C 608.55 1.27273 3.38355 0
M  V30 6532 O 608.271 2.66449 3.47759 0
M  V30 6533 C 609.772 1.0614 4.30406 0
M  V30 6534 H 606.992 0.305549 0.597395 0
M  V30 6535 H 609.536 1.4538 1.43823 0
M  V30 6536 H 607.691 0.711776 3.80805 0
M  V30 6537 H 608.105 2.84264 4.40788 0
M  V30 6538 H 609.579 1.40725 5.33761 0
M  V30 6539 H 610.056 -0.000960332 4.392 0
M  V30 6540 H 610.662 1.60821 3.93722 0
M  V30 6541 N 608.977 -1.30795 0.87923 0
M  V30 6542 C 610.393 -1.48981 0.57243 0
M  V30 6543 C 610.593 -1.80719 -0.891236 0
M  V30 6544 O 609.649 -1.89136 -1.67283 0
M  V30 6545 C 610.962 -2.61721 1.48063 0
M  V30 6546 C 612.51 -2.75603 1.48365 0
M  V30 6547 C 612.985 -3.91449 2.37763 0
M  V30 6548 N 614.476 -3.98751 2.35695 0
M  V30 6549 C 615.211 -4.87684 3.01583 0
M  V30 6550 N 614.707 -5.81454 3.76674 0
M  V30 6551 N 616.5 -4.81005 2.90844 0
M  V30 6552 H 608.651 -1.08465 1.82617 0
M  V30 6553 H 610.914 -0.536813 0.781368 0
M  V30 6554 H 610.62 -2.45073 2.52254 0
M  V30 6555 H 610.494 -3.58071 1.18596 0
M  V30 6556 H 612.881 -2.9166 0.44927 0
M  V30 6557 H 612.962 -1.79891 1.81859 0
M  V30 6558 H 612.606 -3.76149 3.41283 0
M  V30 6559 H 612.536 -4.86487 2.01589 0
M  V30 6560 H 615.027 -3.31668 1.81121 0
M  V30 6561 H 615.34 -6.46063 4.24054 0
M  V30 6562 H 613.685 -5.81403 3.80782 0
M  V30 6563 H 616.876 -4.06728 2.31711 0
M  V30 6564 H 617.049 -5.50107 3.42471 0
M  V30 6565 N 610.455 -0.639598 -1.44038 0
M  V30 6566 C 611.702 -0.14748 -2.01962 0
M  V30 6567 C 612.03 1.23372 -1.50365 0
M  V30 6568 O 611.285 1.8345 -0.681501 0
M  V30 6569 C 611.584 -0.0925348 -3.5728 0
M  V30 6570 C 611.25 -1.41365 -4.28167 0
M  V30 6571 C 609.912 -1.77545 -4.47248 0
M  V30 6572 C 612.264 -2.2853 -4.68427 0
M  V30 6573 C 609.592 -3.00583 -5.03852 0
M  V30 6574 C 611.944 -3.50846 -5.26393 0
M  V30 6575 C 610.608 -3.8724 -5.43692 0
M  V30 6576 H 609.878 -0.0539666 -0.739032 0
M  V30 6577 H 612.525 -0.827599 -1.72694 0
M  V30 6578 H 610.83 0.670987 -3.86012 0
M  V30 6579 H 612.527 0.304891 -3.99839 0
M  V30 6580 H 609.117 -1.1221 -4.13651 0
M  V30 6581 H 613.301 -2.0187 -4.5339 0
M  V30 6582 H 608.557 -3.28846 -5.15432 0
M  V30 6583 H 612.731 -4.18616 -5.56537 0
M  V30 6584 H 610.358 -4.8266 -5.87319 0
M  V30 6585 N 611.933 1.52934 -0.380664 0
M  V30 6586 C 613.179 2.01765 0.20458 0
M  V30 6587 C 613.512 1.26696 1.47179 0
M  V30 6588 O 612.787 0.364936 1.91046 0
M  V30 6589 C 613.07 3.56869 0.481269 0
M  V30 6590 C 612.923 4.42617 -0.800629 0
M  V30 6591 C 614.242 4.2121 1.27554 0
M  V30 6592 H 611.361 0.733388 0.0728803 0
M  V30 6593 H 614.003 1.83068 -0.50853 0
M  V30 6594 H 612.153 3.72932 1.08875 0
M  V30 6595 H 613.825 4.38323 -1.43773 0
M  V30 6596 H 612.068 4.09977 -1.4178 0
M  V30 6597 H 612.739 5.49134 -0.561791 0
M  V30 6598 H 615.215 4.09072 0.761514 0
M  V30 6599 H 614.091 5.29732 1.43788 0
M  V30 6600 H 614.352 3.78269 2.28833 0
M  V30 6601 N 613.412 0.11024 1.57214 0
M  V30 6602 C 614.342 -0.840002 2.17867 0
M  V30 6603 C 615.323 -1.28352 1.11624 0
M  V30 6604 O 616.508 -1.3477 1.39824 0
M  V30 6605 C 613.638 -2.09349 2.77111 0
M  V30 6606 C 612.592 -1.78807 3.8886 0
M  V30 6607 C 611.918 -3.11112 4.34872 0
M  V30 6608 C 613.218 -1.0632 5.11364 0
M  V30 6609 H 614.912 -0.334608 2.97524 0
M  V30 6610 H 612.458 -0.159502 1.43114 0
M  V30 6611 H 614.411 -2.76275 3.18198 0
M  V30 6612 H 613.135 -2.62198 1.9473 0
M  V30 6613 H 611.794 -1.14273 3.48335 0
M  V30 6614 H 611.442 -3.61877 3.49362 0
M  V30 6615 H 611.142 -2.91453 5.10224 0
M  V30 6616 H 612.666 -3.79171 4.78604 0
M  V30 6617 H 614.08 -1.63383 5.49526 0
M  V30 6618 H 612.477 -0.967876 5.92243 0
M  V30 6619 H 613.547 -0.0484569 4.84876 0
M  V30 6620 N 614.89 -1.56749 -0.16351 0
M  V30 6621 C 616.301 -1.72039 -0.725216 0
M  V30 6622 C 616.652 -0.72202 -1.82432 0
M  V30 6623 O 615.777 0.114942 -2.16095 0
M  V30 6624 C 616.372 -3.11932 -1.32227 0
M  V30 6625 C 614.931 -3.28879 -1.83072 0
M  V30 6626 C 614.078 -2.67984 -0.712716 0
M  V30 6627 H 617.029 -1.58579 0.0619772 0
M  V30 6628 H 617.05 -3.11015 -2.19202 0
M  V30 6629 H 616.562 -3.84572 -0.522103 0
M  V30 6630 H 614.663 -2.61209 -2.65708 0
M  V30 6631 H 614.776 -4.36688 -1.97079 0
M  V30 6632 H 613.14 -2.28005 -1.13515 0
M  V30 6633 H 613.923 -3.43216 0.0757361 0
M  V30 6634 N 616.368 0.432326 -1.51554 0
M  V30 6635 C 617.614 1.18309 -1.64714 0
M  V30 6636 C 617.947 1.90745 -0.364696 0
M  V30 6637 O 617.222 1.8381 0.635936 0
M  V30 6638 C 617.505 2.1961 -2.85383 0
M  V30 6639 C 617.358 1.51223 -4.23617 0
M  V30 6640 C 618.677 3.20538 -3.01569 0
M  V30 6641 H 615.796 0.428751 -0.599451 0
M  V30 6642 H 618.438 0.471689 -1.84052 0
M  V30 6643 H 616.588 2.8028 -2.69027 0
M  V30 6644 H 618.26 0.938516 -4.51652 0
M  V30 6645 H 616.503 0.814501 -4.26085 0
M  V30 6646 H 617.174 2.25024 -5.04052 0
M  V30 6647 H 619.65 2.69926 -3.16669 0
M  V30 6648 H 618.526 3.88706 -3.87555 0
M  V30 6649 H 618.787 3.86933 -2.13859 0
M  V30 6650 N 617.846 1.41785 0.688094 0
M  V30 6651 C 619.094 1.41264 1.4453 0
M  V30 6652 C 619.415 0.0252946 1.94984 0
M  V30 6653 O 618.685 -0.934081 1.72197 0
M  V30 6654 H 617.265 0.519998 0.536294 0
M  V30 6655 H 619.927 1.7709 0.813941 0
M  V30 6656 H 619.023 2.10439 2.30482 0
M  V30 6657 N 619.324 -0.923095 1.27737 0
M  V30 6658 C 620.287 -2.00587 1.10894 0
M  V30 6659 C 621.287 -1.60718 0.0514927 0
M  V30 6660 O 622.477 -1.71658 0.296481 0
M  V30 6661 C 619.609 -3.33829 0.690717 0
M  V30 6662 H 620.802 -2.16959 2.07048 0
M  V30 6663 H 618.355 -1.10451 1.1059 0
M  V30 6664 H 619.09 -3.23157 -0.272 0
M  V30 6665 H 618.875 -3.64125 1.45448 0
M  V30 6666 H 620.365 -4.13336 0.595252 0
M  V30 6667 N 620.802 -1.09834 -1.13024 0
M  V30 6668 C 622.03 -0.858902 -1.8823 0
M  V30 6669 C 622.445 0.590164 -1.79339 0
M  V30 6670 O 621.802 1.4065 -1.16292 0
M  V30 6671 C 621.853 -1.29066 -3.37675 0
M  V30 6672 O 621.574 -2.6829 -3.46341 0
M  V30 6673 C 623.075 -1.08421 -4.29837 0
M  V30 6674 H 620.295 -0.308713 -0.595766 0
M  V30 6675 H 622.839 -1.4614 -1.4305 0
M  V30 6676 H 620.994 -0.731961 -3.80422 0
M  V30 6677 H 621.408 -2.86598 -4.39274 0
M  V30 6678 H 622.882 -1.43553 -5.33007 0
M  V30 6679 H 623.359 -0.0223315 -4.39194 0
M  V30 6680 H 623.965 -1.62907 -3.92863 0
M  V30 6681 N 622.28 1.30327 -0.886154 0
M  V30 6682 C 623.526 1.96388 -0.505941 0
M  V30 6683 C 623.859 1.69784 0.942712 0
M  V30 6684 O 623.134 1.00322 1.6663 0
M  V30 6685 C 623.417 3.51488 -0.782826 0
M  V30 6686 C 623.27 3.87603 -2.28219 0
M  V30 6687 C 624.589 4.39331 -0.260128 0
M  V30 6688 H 621.708 0.713327 -0.185292 0
M  V30 6689 H 624.35 1.54178 -1.11036 0
M  V30 6690 H 622.5 3.87572 -0.268399 0
M  V30 6691 H 624.172 3.61537 -2.86512 0
M  V30 6692 H 622.415 3.3563 -2.74837 0
M  V30 6693 H 623.086 4.95806 -2.42653 0
M  V30 6694 H 625.562 4.10162 -0.700444 0
M  V30 6695 H 624.438 5.46769 -0.483179 0
M  V30 6696 H 624.699 4.34072 0.838674 0
M  V30 6697 N 623.758 0.647228 1.43697 0
M  V30 6698 C 624.706 -0.0600105 2.32523 0
M  V30 6699 C 625.7 -0.819277 1.48271 0
M  V30 6700 O 626.906 -0.730356 1.64517 0
M  V30 6701 H 623.281 -0.0381872 0.75103 0
M  V30 6702 H 625.252 0.706978 2.89904 0
M  V30 6703 C 624.001 -1.0169 3.32497 0
M  V30 6704 H 623.324 -0.442083 3.97348 0
M  V30 6705 H 624.764 -1.48095 3.97296 0
M  V30 6706 C 623.223 -2.11002 2.6264 0
M  V30 6707 O 623.753 -3.19302 2.4374 0
M  V30 6708 N 621.959 -1.87388 2.22113 0
M  V30 6709 H 621.506 -0.993174 2.37684 0
M  V30 6710 H 621.464 -2.60723 1.75701 0
M  V30 6711 N 625.236 -1.5273 0.388769 0
M  V30 6712 C 626.169 -2.22861 -0.490752 0
M  V30 6713 C 627.147 -1.22912 -1.06449 0
M  V30 6714 O 628.331 -1.51896 -1.11624 0
M  V30 6715 C 625.458 -2.94141 -1.67925 0
M  V30 6716 C 624.504 -4.08355 -1.23081 0
M  V30 6717 S 625.337 -5.35077 -0.212786 0
M  V30 6718 C 626.493 -6.09879 -1.40708 0
M  V30 6719 H 626.726 -2.97115 0.104787 0
M  V30 6720 H 624.259 -1.53428 0.172956 0
M  V30 6721 H 626.217 -3.35818 -2.36085 0
M  V30 6722 H 624.878 -2.19568 -2.24608 0
M  V30 6723 H 624.071 -4.57328 -2.11818 0
M  V30 6724 H 623.673 -3.68688 -0.628121 0
M  V30 6725 H 625.965 -6.36018 -2.33424 0
M  V30 6726 H 626.908 -7.01586 -0.958271 0
M  V30 6727 H 627.316 -5.40646 -1.62364 0
M  V30 6728 N 626.714 -0.118576 -1.57153 0
M  V30 6729 C 627.991 0.583062 -1.86708 0
M  V30 6730 C 628.371 1.84841 -1.01967 0
M  V30 6731 O 627.719 2.28288 -0.0984673 0
M  V30 6732 C 627.929 0.875912 -3.3783 0
M  V30 6733 C 629.277 1.22916 -4.0642 0
M  V30 6734 O 630.301 0.966188 -3.42846 0
M  V30 6735 O 629.16 1.72269 -5.18638 0
M  V30 6736 H 626.254 0.294185 -0.772906 0
M  V30 6737 H 628.8 -0.153048 -1.69008 0
M  V30 6738 H 627.572 -0.0207776 -3.91294 0
M  V30 6739 H 627.195 1.66719 -3.60958 0
M  V30 6740 N 628.193 1.56834 0.155195 0
M  V30 6741 C 629.441 1.82536 0.867462 0
M  V30 6742 C 629.762 0.698168 1.82073 0
M  V30 6743 O 629.032 -0.280807 1.93877 0
M  V30 6744 H 627.612 0.673401 0.323327 0
M  V30 6745 H 630.274 1.94313 0.151156 0
M  V30 6746 H 629.37 2.77171 1.43466 0
M  V30 6747 N 629.671 -0.424282 1.51781 0
M  V30 6748 C 630.899 -1.1947 1.68921 0
M  V30 6749 C 631.314 -1.84683 0.39213 0
M  V30 6750 O 630.671 -1.71261 -0.630554 0
M  V30 6751 C 630.722 -2.26909 2.81416 0
M  V30 6752 O 630.443 -1.64361 4.061 0
M  V30 6753 C 631.944 -3.16945 3.09937 0
M  V30 6754 H 629.164 -0.359591 0.566511 0
M  V30 6755 H 631.708 -0.501139 1.98265 0
M  V30 6756 H 629.863 -2.91959 2.54635 0
M  V30 6757 H 630.277 -2.35468 4.68674 0
M  V30 6758 H 631.751 -3.88437 3.922 0
M  V30 6759 H 632.228 -3.78451 2.22871 0
M  V30 6760 H 632.834 -2.57581 3.38426 0
M  V30 6761 N 631.149 -1.42148 -0.680565 0
M  V30 6762 C 632.112 -1.4488 -1.77602 0
M  V30 6763 C 633.112 -0.337209 -1.57224 0
M  V30 6764 O 634.302 -0.597778 -1.63622 0
M  V30 6765 C 631.434 -1.27483 -3.16166 0
M  V30 6766 H 632.627 -2.42412 -1.76568 0
M  V30 6767 H 630.18 -1.28511 -0.889645 0
M  V30 6768 H 630.915 -0.30851 -3.22829 0
M  V30 6769 H 630.7 -2.08037 -3.3236 0
M  V30 6770 H 632.19 -1.32265 -3.96101 0
M  V30 6771 N 632.627 0.916307 -1.28225 0
M  V30 6772 C 633.557 2.0352 -1.14464 0
M  V30 6773 C 634.538 1.70045 -0.0430844 0
M  V30 6774 O 635.723 1.92954 -0.219619 0
M  V30 6775 C 632.853 3.37889 -0.803027 0
M  V30 6776 C 631.807 3.85516 -1.85908 0
M  V30 6777 C 631.133 5.1682 -1.37116 0
M  V30 6778 C 632.433 4.07655 -3.26519 0
M  V30 6779 H 634.127 2.1529 -2.08064 0
M  V30 6780 H 631.673 1.03446 -1.00174 0
M  V30 6781 H 633.626 4.15654 -0.693537 0
M  V30 6782 H 632.35 3.26164 0.168674 0
M  V30 6783 H 631.009 3.09953 -1.95767 0
M  V30 6784 H 630.657 5.01497 -0.38859 0
M  V30 6785 H 630.357 5.49657 -2.07728 0
M  V30 6786 H 631.881 5.97143 -1.27484 0
M  V30 6787 H 633.295 4.75953 -3.19596 0
M  V30 6788 H 631.692 4.51818 -3.94943 0
M  V30 6789 H 632.762 3.12553 -3.70727 0
M  V30 6790 N 634.105 1.10431 1.1244 0
M  V30 6791 C 635.335 0.867612 1.87499 0
M  V30 6792 C 635.743 -0.585475 1.79913 0
M  V30 6793 O 635.086 -1.41539 1.171 0
M  V30 6794 C 635.148 1.2374 3.37533 0
M  V30 6795 C 634.812 2.69751 3.68895 0
M  V30 6796 C 635.809 3.67988 3.67261 0
M  V30 6797 C 633.494 3.06135 3.98229 0
M  V30 6798 C 635.488 5.00632 3.9452 0
M  V30 6799 C 633.175 4.38967 4.25149 0
M  V30 6800 C 634.173 5.36025 4.23281 0
M  V30 6801 O 633.861 6.66465 4.49533 0
M  V30 6802 H 633.593 0.311196 0.600111 0
M  V30 6803 H 636.147 1.47257 1.43194 0
M  V30 6804 H 634.377 0.575537 3.82393 0
M  V30 6805 H 636.066 0.978187 3.93937 0
M  V30 6806 H 636.832 3.41224 3.44661 0
M  V30 6807 H 632.711 2.31214 3.98825 0
M  V30 6808 H 636.255 5.7638 3.92978 0
M  V30 6809 H 632.152 4.6547 4.47223 0
M  V30 6810 H 632.92 6.72095 4.67152 0
M  V30 6811 N 635.583 -1.29855 0.893053 0
M  V30 6812 C 636.493 -2.31661 0.370157 0
M  V30 6813 C 637.509 -1.65677 -0.531723 0
M  V30 6814 O 638.685 -1.9691 -0.422902 0
M  V30 6815 C 635.75 -3.44388 -0.399741 0
M  V30 6816 C 634.811 -4.2598 0.532861 0
M  V30 6817 C 634.044 -5.33324 -0.200388 0
M  V30 6818 O 634.267 -5.52305 -1.42531 0
M  V30 6819 O 633.201 -6.00188 0.453668 0
M  V30 6820 H 637.027 -2.78354 1.2146 0
M  V30 6821 H 634.612 -1.34171 0.657153 0
M  V30 6822 H 636.494 -4.13037 -0.835358 0
M  V30 6823 H 635.169 -2.99815 -1.22035 0
M  V30 6824 H 634.076 -3.59998 1.01746 0
M  V30 6825 H 635.409 -4.74178 1.3197 0
M  V30 6826 N 637.061 -0.65484 -1.43351 0
M  V30 6827 C 638.024 0.0263562 -2.29185 0
M  V30 6828 C 639.024 0.748951 -1.42293 0
M  V30 6829 O 640.214 0.589957 -1.63906 0
M  V30 6830 C 637.346 1.04806 -3.2439 0
M  V30 6831 H 638.539 -0.728883 -2.90908 0
M  V30 6832 H 636.092 -0.416149 -1.50658 0
M  V30 6833 H 636.827 1.83247 -2.67565 0
M  V30 6834 H 636.612 0.533554 -3.88453 0
M  V30 6835 H 638.102 1.52372 -3.88809 0
M  V30 6836 N 638.539 1.52521 -0.396863 0
M  V30 6837 C 639.469 2.29582 0.425941 0
M  V30 6838 C 640.45 1.33281 1.05689 0
M  V30 6839 O 641.635 1.62181 1.06823 0
M  V30 6840 C 638.765 3.10821 1.54943 0
M  V30 6841 C 637.719 4.15069 1.04413 0
M  V30 6842 C 637.045 4.84578 2.26028 0
M  V30 6843 C 638.345 5.22191 0.106767 0
M  V30 6844 H 640.039 2.98612 -0.217045 0
M  V30 6845 H 637.585 1.43611 -0.105826 0
M  V30 6846 H 639.538 3.63492 2.13193 0
M  V30 6847 H 638.262 2.39538 2.22011 0
M  V30 6848 H 636.921 3.63389 0.484118 0
M  V30 6849 H 636.569 4.09835 2.91623 0
M  V30 6850 H 636.269 5.55043 1.92876 0
M  V30 6851 H 637.793 5.40056 2.84906 0
M  V30 6852 H 639.207 5.70176 0.597685 0
M  V30 6853 H 637.604 5.99947 -0.135352 0
M  V30 6854 H 638.674 4.77531 -0.842134 0
M  V30 6855 N 640.017 0.126909 1.57088 0
M  V30 6856 C 640.98 -0.806097 2.14557 0
M  V30 6857 C 641.98 -1.18918 1.08236 0
M  V30 6858 O 643.17 -1.11339 1.33975 0
M  V30 6859 C 640.302 -2.09116 2.69227 0
M  V30 6860 H 641.495 -0.306522 2.98329 0
M  V30 6861 H 639.048 -0.122393 1.5582 0
M  V30 6862 H 639.783 -2.63486 1.89065 0
M  V30 6863 H 639.568 -1.82588 3.46993 0
M  V30 6864 H 641.058 -2.75794 3.13572 0
M  V30 6865 N 641.495 -1.56914 -0.146875 0
M  V30 6866 C 642.458 -1.97368 -1.16526 0
M  V30 6867 C 643.458 -0.860223 -1.35856 0
M  V30 6868 O 644.648 -1.12684 -1.32846 0
M  V30 6869 C 641.78 -2.28974 -2.52555 0
M  V30 6870 H 642.973 -2.88523 -0.818209 0
M  V30 6871 H 640.526 -1.5135 -0.390221 0
M  V30 6872 H 641.261 -1.40611 -2.92231 0
M  V30 6873 H 641.046 -3.10157 -2.39886 0
M  V30 6874 H 642.536 -2.61109 -3.25902 0
M  V30 6875 N 642.974 0.416227 -1.52004 0
M  V30 6876 C 644.223 1.16088 -1.64944 0
M  V30 6877 C 644.536 1.91835 -0.381928 0
M  V30 6878 O 645.742 2.6867 -0.391013 0
M  V30 6879 C 644.198 2.1124 -2.91386 0
M  V30 6880 C 643.806 1.41042 -4.25219 0
M  V30 6881 C 645.55 2.86008 -3.13688 0
M  V30 6882 C 643.457 2.34801 -5.42791 0
M  V30 6883 H 642.387 0.437041 -0.61442 0
M  V30 6884 H 645.038 0.425971 -1.78487 0
M  V30 6885 H 643.42 2.88254 -2.71525 0
M  V30 6886 H 644.594 0.694416 -4.55538 0
M  V30 6887 H 642.909 0.78344 -4.08964 0
M  V30 6888 H 645.506 3.56286 -3.98703 0
M  V30 6889 H 645.849 3.48556 -2.27628 0
M  V30 6890 H 646.382 2.16095 -3.33988 0
M  V30 6891 H 643.121 1.7691 -6.31176 0
M  V30 6892 H 642.641 3.04395 -5.16821 0
M  V30 6893 H 644.32 2.9548 -5.75587 0
M  V30 6894 N 644.452 1.42507 0.673017 0
M  V30 6895 C 645.699 1.43072 1.43306 0
M  V30 6896 C 646.027 0.0478004 1.94441 0
M  V30 6897 O 645.282 -0.944106 1.71421 0
M  V30 6898 C 645.581 2.40351 2.64511 0
M  V30 6899 C 645.247 3.8669 2.31908 0
M  V30 6900 C 643.909 4.26551 2.22728 0
M  V30 6901 C 646.261 4.78991 2.05467 0
M  V30 6902 C 643.589 5.56691 1.85234 0
M  V30 6903 C 645.941 6.09476 1.69477 0
M  V30 6904 C 644.605 6.48334 1.58808 0
M  V30 6905 H 643.875 0.523536 0.524395 0
M  V30 6906 H 646.522 1.75459 0.76723 0
M  V30 6907 H 644.827 2.01297 3.36135 0
M  V30 6908 H 646.524 2.38051 3.22696 0
M  V30 6909 H 643.114 3.55132 2.39956 0
M  V30 6910 H 647.298 4.48982 2.11492 0
M  V30 6911 H 642.554 5.85657 1.75545 0
M  V30 6912 H 646.728 6.80482 1.48043 0
M  V30 6913 H 644.355 7.49084 1.29525 0
M  V30 6914 N 645.93 -0.909495 1.28709 0
M  V30 6915 C 647.179 -1.65365 1.15487 0
M  V30 6916 C 647.492 -1.93364 -0.294941 0
M  V30 6917 O 648.698 -2.65905 -0.548338 0
M  V30 6918 C 647.154 -2.97923 2.01916 0
M  V30 6919 C 646.762 -2.77556 3.51663 0
M  V30 6920 C 648.506 -3.75814 1.97393 0
M  V30 6921 C 646.413 -4.0578 4.30229 0
M  V30 6922 H 645.343 -0.620323 0.42862 0
M  V30 6923 H 647.994 -1.00894 1.53273 0
M  V30 6924 H 646.376 -3.63552 1.5699 0
M  V30 6925 H 647.55 -2.2058 4.04575 0
M  V30 6926 H 645.865 -2.13072 3.57756 0
M  V30 6927 H 648.462 -4.70866 2.53357 0
M  V30 6928 H 648.805 -4.05277 0.951643 0
M  V30 6929 H 649.338 -3.1701 2.40311 0
M  V30 6930 H 646.077 -3.81488 5.33055 0
M  V30 6931 H 645.597 -4.62351 3.82089 0
M  V30 6932 H 647.276 -4.74004 4.40374 0
M  V30 6933 N 647.408 -1.11026 -1.11852 0
M  V30 6934 C 648.371 -0.768006 -2.1595 0
M  V30 6935 C 649.371 0.210538 -1.59416 0
M  V30 6936 O 650.561 -0.0133978 -1.74195 0
M  V30 6937 C 647.693 -0.138678 -3.40618 0
M  V30 6938 H 648.886 -1.69012 -2.4774 0
M  V30 6939 H 646.439 -0.911578 -1.26964 0
M  V30 6940 H 647.174 0.793872 -3.14433 0
M  V30 6941 H 646.959 -0.843012 -3.8293 0
M  V30 6942 H 648.449 0.0848039 -4.17514 0
M  V30 6943 N 648.886 1.2938 -0.899927 0
M  V30 6944 C 649.818 2.26737 -0.335139 0
M  V30 6945 C 650.831 1.54316 0.518681 0
M  V30 6946 O 652.02 1.75313 0.335803 0
M  V30 6947 C 649.12 3.34558 0.540774 0
M  V30 6948 C 648.293 4.36455 -0.287372 0
M  V30 6949 C 647.352 5.2361 0.52141 0
M  V30 6950 O 646.378 5.69167 -0.0611735 0
M  V30 6951 N 647.58 5.50985 1.82745 0
M  V30 6952 H 650.345 2.75838 -1.17191 0
M  V30 6953 H 647.906 1.42716 -0.764438 0
M  V30 6954 H 649.898 3.89794 1.08825 0
M  V30 6955 H 648.468 2.85272 1.27823 0
M  V30 6956 H 647.688 3.80875 -1.01626 0
M  V30 6957 H 648.976 5.01573 -0.854518 0
M  V30 6958 H 648.374 5.15781 2.32349 0
M  V30 6959 H 646.931 6.09036 2.32204 0
M  V30 6960 N 650.364 0.662433 1.43002 0
M  V30 6961 C 651.61 0.179857 2.02001 0
M  V30 6962 C 651.943 -1.20625 1.52195 0
M  V30 6963 O 651.218 -1.80726 0.718911 0
M  V30 6964 C 651.501 0.200845 3.59539 0
M  V30 6965 C 651.354 1.62153 4.19555 0
M  V30 6966 C 652.673 -0.457738 4.37713 0
M  V30 6967 H 649.792 0.0668305 0.733964 0
M  V30 6968 H 652.434 0.84487 1.70182 0
M  V30 6969 H 650.584 -0.365411 3.86778 0
M  V30 6970 H 652.256 2.23908 4.03315 0
M  V30 6971 H 650.499 2.16601 3.75854 0
M  V30 6972 H 651.17 1.58799 5.28665 0
M  V30 6973 H 653.646 0.0241495 4.16093 0
M  V30 6974 H 652.522 -0.412363 5.47349 0
M  V30 6975 H 652.783 -1.53336 4.14657 0
M  V30 6976 N 651.842 -1.52309 0.404946 0
M  V30 6977 C 652.79 -2.28452 -0.437321 0
M  V30 6978 C 653.784 -1.32975 -1.04948 0
M  V30 6979 O 654.99 -1.50451 -0.988159 0
M  V30 6980 H 651.365 -0.734824 -0.159805 0
M  V30 6981 H 653.336 -2.97542 0.22615 0
M  V30 6982 C 652.085 -3.11536 -1.54404 0
M  V30 6983 H 651.408 -3.84871 -1.08233 0
M  V30 6984 H 652.848 -3.67926 -2.10729 0
M  V30 6985 C 651.307 -2.24833 -2.50902 0
M  V30 6986 O 651.837 -1.88574 -3.54687 0
M  V30 6987 N 650.043 -1.88685 -2.21012 0
M  V30 6988 H 649.59 -2.18371 -1.36646 0
M  V30 6989 H 649.548 -1.30966 -2.85824 0
M  V30 6990 N 653.32 -0.135238 -1.57019 0
M  V30 6991 C 654.268 0.826099 -2.17436 0
M  V30 6992 C 655.262 1.26378 -1.12805 0
M  V30 6993 O 656.468 1.23363 -1.31079 0
M  V30 6994 H 652.843 0.284568 -0.696078 0
M  V30 6995 H 654.814 0.292212 -2.96966 0
M  V30 6996 C 653.563 2.05991 -2.80112 0
M  V30 6997 H 652.886 1.73209 -3.60331 0
M  V30 6998 H 654.326 2.71225 -3.25903 0
M  V30 6999 C 652.785 2.86027 -1.78017 0
M  V30 7000 O 653.315 3.81971 -1.24344 0
M  V30 7001 N 651.521 2.50332 -1.47588 0
M  V30 7002 H 651.068 1.72377 -1.91426 0
M  V30 7003 H 651.026 3.04177 -0.795228 0
M  V30 7004 N 654.798 1.5699 0.138552 0
M  V30 7005 C 656.028 1.87704 0.863184 0
M  V30 7006 C 656.436 0.722411 1.74865 0
M  V30 7007 O 655.779 -0.316636 1.80951 0
M  V30 7008 C 655.841 3.13219 1.76449 0
M  V30 7009 C 655.505 4.44648 1.05532 0
M  V30 7010 C 656.502 5.18318 0.405252 0
M  V30 7011 C 654.187 4.91367 1.04231 0
M  V30 7012 C 656.181 6.36916 -0.24835 0
M  V30 7013 C 653.868 6.09887 0.384904 0
M  V30 7014 C 654.866 6.82508 -0.259292 0
M  V30 7015 O 654.554 7.98775 -0.906258 0
M  V30 7016 H 654.286 0.626255 0.254521 0
M  V30 7017 H 656.84 2.04966 0.133472 0
M  V30 7018 H 655.07 2.91988 2.53535 0
M  V30 7019 H 656.759 3.30111 2.36181 0
M  V30 7020 H 657.525 4.83289 0.407053 0
M  V30 7021 H 653.404 4.34759 1.53315 0
M  V30 7022 H 656.948 6.93538 -0.751755 0
M  V30 7023 H 652.845 6.44376 0.380799 0
M  V30 7024 H 653.613 8.14494 -0.80877 0
M  V30 7025 N 656.276 -0.40816 1.52223 0
M  V30 7026 C 657.186 -1.52202 1.78526 0
M  V30 7027 C 658.202 -1.60546 0.670892 0
M  V30 7028 O 659.378 -1.77242 0.956404 0
M  V30 7029 C 656.443 -2.87928 1.93128 0
M  V30 7030 C 655.504 -2.89463 3.17033 0
M  V30 7031 C 654.737 -4.18715 3.30929 0
M  V30 7032 O 654.96 -5.12662 2.50067 0
M  V30 7033 O 653.894 -4.27125 4.24084 0
M  V30 7034 H 657.72 -1.32911 2.73072 0
M  V30 7035 H 655.305 -0.594112 1.37079 0
M  V30 7036 H 657.187 -3.68426 2.04549 0
M  V30 7037 H 655.862 -3.07285 1.01772 0
M  V30 7038 H 654.769 -2.07815 3.11069 0
M  V30 7039 H 656.102 -2.75055 4.08174 0
M  V30 7040 N 657.755 -1.42862 -0.66545 0
M  V30 7041 C 658.685 -1.49867 -1.79059 0
M  V30 7042 C 659.666 -0.354394 -1.66367 0
M  V30 7043 O 660.851 -0.569969 -1.85647 0
M  V30 7044 C 657.981 -1.40943 -3.17415 0
M  V30 7045 C 656.935 -2.53495 -3.44854 0
M  V30 7046 C 656.261 -2.29626 -4.82883 0
M  V30 7047 C 657.561 -3.95781 -3.40815 0
M  V30 7048 H 659.255 -2.44037 -1.73453 0
M  V30 7049 H 656.801 -1.17456 -0.833071 0
M  V30 7050 H 658.754 -1.4445 -3.95869 0
M  V30 7051 H 657.478 -0.432716 -3.23721 0
M  V30 7052 H 656.137 -2.4932 -2.68766 0
M  V30 7053 H 655.785 -1.30226 -4.8585 0
M  V30 7054 H 655.485 -3.05065 -5.02204 0
M  V30 7055 H 657.009 -2.34897 -5.63609 0
M  V30 7056 H 658.423 -4.01508 -4.09224 0
M  V30 7057 H 656.82 -4.71148 -3.71672 0
M  V30 7058 H 657.89 -4.21786 -2.39216 0
M  V30 7059 N 659.233 0.902656 -1.29189 0
M  V30 7060 C 660.181 2.0278 -1.13943 0
M  V30 7061 C 661.175 1.69308 -0.055787 0
M  V30 7062 O 662.381 1.78707 -0.215371 0
M  V30 7063 H 658.756 0.664595 -0.351877 0
M  V30 7064 H 660.727 2.12778 -2.09208 0
M  V30 7065 C 659.476 3.37657 -0.82966 0
M  V30 7066 H 658.799 3.63913 -1.65551 0
M  V30 7067 H 660.239 4.17078 -0.762998 0
M  V30 7068 C 658.698 3.33648 0.466991 0
M  V30 7069 O 659.228 3.72886 1.49395 0
M  V30 7070 N 657.434 2.86745 0.471761 0
M  V30 7071 H 656.981 2.55009 -0.364406 0
M  V30 7072 H 656.939 2.84446 1.33933 0
M  V30 7073 N 660.711 1.11618 1.11262 0
M  V30 7074 C 661.641 0.79846 2.19424 0
M  V30 7075 C 662.622 -0.234003 1.68483 0
M  V30 7076 O 663.807 -0.0970704 1.93957 0
M  V30 7077 C 660.937 0.242892 3.4645 0
M  V30 7078 C 659.891 1.20744 4.10615 0
M  V30 7079 C 659.217 0.512494 5.32238 0
M  V30 7080 C 660.517 2.55884 4.55325 0
M  V30 7081 H 662.211 1.70286 2.46258 0
M  V30 7082 H 659.757 0.820195 1.18359 0
M  V30 7083 H 661.71 0.00840447 4.21399 0
M  V30 7084 H 660.434 -0.696811 3.1908 0
M  V30 7085 H 659.093 1.42759 3.37662 0
M  V30 7086 H 658.741 -0.432075 5.01141 0
M  V30 7087 H 658.441 1.15583 5.7612 0
M  V30 7088 H 659.965 0.286842 6.09926 0
M  V30 7089 H 661.379 2.37946 5.21588 0
M  V30 7090 H 659.776 3.16216 5.10027 0
M  V30 7091 H 660.846 3.14968 3.68678 0
M  V30 7092 N 662.189 -1.289 0.906776 0
M  V30 7093 C 663.437 -1.94883 0.535266 0
M  V30 7094 C 663.758 -1.71784 -0.922791 0
M  V30 7095 O 663.028 -1.05359 -1.65156 0
M  V30 7096 H 661.608 -0.721109 0.194962 0
M  V30 7097 H 664.27 -1.57018 1.15461 0
M  V30 7098 H 663.366 -3.03591 0.723821 0
M  V30 7099 N 663.667 -0.670007 -1.42649 0
M  V30 7100 C 664.599 0.0501746 -2.29145 0
M  V30 7101 C 665.612 0.770331 -1.43422 0
M  V30 7102 O 666.801 0.625288 -1.6719 0
M  V30 7103 C 663.901 1.09463 -3.20735 0
M  V30 7104 C 663.074 0.44926 -4.35087 0
M  V30 7105 C 662.133 1.39285 -5.07431 0
M  V30 7106 O 661.159 0.894997 -5.6212 0
M  V30 7107 N 662.361 2.72631 -5.12496 0
M  V30 7108 H 665.126 -0.692312 -2.91594 0
M  V30 7109 H 662.687 -0.514056 -1.53522 0
M  V30 7110 H 664.679 1.72705 -3.65999 0
M  V30 7111 H 663.249 1.73891 -2.59771 0
M  V30 7112 H 662.469 -0.362573 -3.92529 0
M  V30 7113 H 663.757 -0.000544776 -5.088 0
M  V30 7114 H 663.155 3.15623 -4.69467 0
M  V30 7115 H 661.712 3.31132 -5.61422 0
M  V30 7116 N 665.145 1.52092 -0.413018 0
M  V30 7117 C 666.394 2.01041 0.16287 0
M  V30 7118 C 666.707 1.30288 1.45892 0
M  V30 7119 O 667.913 1.70075 2.11629 0
M  V30 7120 C 666.369 3.58283 0.340806 0
M  V30 7121 C 665.977 4.37955 -0.943377 0
M  V30 7122 C 667.721 4.15452 0.871774 0
M  V30 7123 C 665.628 5.86847 -0.732417 0
M  V30 7124 H 664.558 0.751224 0.0646414 0
M  V30 7125 H 667.209 1.75404 -0.539059 0
M  V30 7126 H 665.591 3.80266 1.10516 0
M  V30 7127 H 666.765 4.2773 -1.71418 0
M  V30 7128 H 665.08 3.92122 -1.40105 0
M  V30 7129 H 667.677 5.24375 1.0457 0
M  V30 7130 H 668.02 3.73057 1.84755 0
M  V30 7131 H 668.553 3.97452 0.166377 0
M  V30 7132 H 665.292 6.33609 -1.67986 0
M  V30 7133 H 664.812 5.998 -0.000980058 0
M  V30 7134 H 666.491 6.45906 -0.376105 0
M  V30 7135 N 666.623 0.143563 1.56945 0
M  V30 7136 C 667.851 -0.515447 2.00377 0
M  V30 7137 C 668.266 -1.58643 1.02361 0
M  V30 7138 O 667.623 -1.82489 0.0201039 0
M  V30 7139 C 667.674 -1.11923 3.43737 0
M  V30 7140 O 667.395 -0.0910318 4.38005 0
M  V30 7141 C 668.896 -1.85918 4.02429 0
M  V30 7142 H 666.116 -0.134478 0.657386 0
M  V30 7143 H 668.66 0.237135 2.0312 0
M  V30 7144 H 666.815 -1.82245 3.41856 0
M  V30 7145 H 667.229 -0.532916 5.21786 0
M  V30 7146 H 668.703 -2.2346 5.04747 0
M  V30 7147 H 669.18 -2.7438 3.42947 0
M  V30 7148 H 669.786 -1.20303 4.07931 0
M  V30 7149 N 668.101 -1.57061 -0.130224 0
M  V30 7150 C 669.329 -1.88432 -0.854456 0
M  V30 7151 C 669.744 -0.733608 -1.73964 0
M  V30 7152 O 669.101 0.296029 -1.80083 0
M  V30 7153 C 669.152 -3.1918 -1.69724 0
M  V30 7154 O 668.873 -4.2982 -0.847705 0
M  V30 7155 C 670.374 -3.6418 -2.5276 0
M  V30 7156 H 667.594 -0.624193 -0.246221 0
M  V30 7157 H 670.138 -2.04159 -0.11798 0
M  V30 7158 H 668.293 -3.05156 -2.3866 0
M  V30 7159 H 668.707 -5.04689 -1.42792 0
M  V30 7160 H 670.181 -4.58457 -3.07443 0
M  V30 7161 H 670.658 -2.90285 -3.29592 0
M  V30 7162 H 671.264 -3.80954 -1.89087 0
M  V30 7163 N 669.579 0.400081 -1.52437 0
M  V30 7164 C 670.828 1.14332 -1.66166 0
M  V30 7165 C 671.141 1.91419 -0.402253 0
M  V30 7166 O 672.347 2.6824 -0.419487 0
M  V30 7167 C 670.803 2.08137 -2.9361 0
M  V30 7168 C 670.411 1.36524 -4.26691 0
M  V30 7169 C 672.155 2.82664 -3.16703 0
M  V30 7170 C 670.062 2.29031 -5.45251 0
M  V30 7171 H 668.992 0.430499 -0.61902 0
M  V30 7172 H 671.643 0.407017 -1.78929 0
M  V30 7173 H 670.025 2.85358 -2.74567 0
M  V30 7174 H 671.199 0.646061 -4.56249 0
M  V30 7175 H 669.514 0.74002 -4.09771 0
M  V30 7176 H 672.111 3.52037 -4.0246 0
M  V30 7177 H 672.454 3.46122 -2.31312 0
M  V30 7178 H 672.987 2.12541 -3.36261 0
M  V30 7179 H 669.726 1.70206 -6.33017 0
M  V30 7180 H 669.246 2.98896 -5.2002 0
M  V30 7181 H 670.925 2.89359 -5.78689 0
M  V30 7182 N 671.057 1.43213 0.657864 0
M  V30 7183 C 672.282 1.48227 1.45064 0
M  V30 7184 C 672.707 0.0999939 1.87834 0
M  V30 7185 O 672.065 -0.905269 1.57081 0
M  V30 7186 C 672.113 2.42931 2.6649 0
M  V30 7187 O 671.217 1.91237 3.6538 0
M  V30 7188 H 670.558 0.501551 0.435135 0
M  V30 7189 H 673.088 1.8808 0.805431 0
M  V30 7190 H 673.098 2.6008 3.1436 0
M  V30 7191 H 671.773 3.43348 2.34701 0
M  V30 7192 H 670.35 1.83726 3.24498 0
M  V30 7193 N 672.536 -0.895792 1.29666 0
M  V30 7194 C 673.785 -1.64131 1.17234 0
M  V30 7195 C 674.098 -1.93665 -0.274416 0
M  V30 7196 O 675.304 -2.66472 -0.520105 0
M  V30 7197 C 673.76 -2.95764 2.05065 0
M  V30 7198 C 673.368 -2.7381 3.54587 0
M  V30 7199 C 675.112 -3.737 2.01367 0
M  V30 7200 C 673.019 -4.01194 4.34508 0
M  V30 7201 H 671.949 -0.615742 0.435175 0
M  V30 7202 H 674.6 -0.992626 1.54335 0
M  V30 7203 H 672.982 -3.61867 1.60837 0
M  V30 7204 H 674.156 -2.16277 4.06892 0
M  V30 7205 H 672.471 -2.09265 3.59996 0
M  V30 7206 H 675.068 -4.68152 2.58337 0
M  V30 7207 H 675.411 -4.04245 0.994575 0
M  V30 7208 H 675.944 -3.14444 2.43659 0
M  V30 7209 H 672.683 -3.75813 5.37071 0
M  V30 7210 H 672.203 -4.58272 3.86971 0
M  V30 7211 H 673.882 -4.69307 4.45376 0
M  V30 7212 N 674.014 -1.12206 -1.10668 0
M  V30 7213 C 675.242 -0.898635 -1.86366 0
M  V30 7214 C 675.657 0.551991 -1.80551 0
M  V30 7215 O 675.014 1.38152 -1.19249 0
M  V30 7216 C 675.065 -1.36199 -3.34861 0
M  V30 7217 O 674.786 -2.75576 -3.40573 0
M  V30 7218 C 676.287 -1.17515 -4.2744 0
M  V30 7219 H 673.507 -0.321281 -0.589084 0
M  V30 7220 H 676.051 -1.49142 -1.39918 0
M  V30 7221 H 674.206 -0.81249 -3.78784 0
M  V30 7222 H 674.62 -2.95851 -4.33096 0
M  V30 7223 H 676.094 -1.54827 -5.29842 0
M  V30 7224 H 676.571 -0.115486 -4.39048 0
M  V30 7225 H 677.177 -1.71203 -3.89319 0
M  V30 7226 N 675.492 1.28418 -0.913599 0
M  V30 7227 C 676.455 2.25564 -0.406624 0
M  V30 7228 C 677.455 1.5387 0.466965 0
M  V30 7229 O 678.645 1.72094 0.270042 0
M  V30 7230 C 675.777 3.38339 0.417053 0
M  V30 7231 H 676.97 2.71926 -1.26477 0
M  V30 7232 H 674.523 1.40098 -0.692986 0
M  V30 7233 H 675.258 2.97339 1.29461 0
M  V30 7234 H 675.043 3.91542 -0.209102 0
M  V30 7235 H 676.533 4.10578 0.762602 0
M  V30 7236 N 676.97 0.677563 1.42291 0
M  V30 7237 C 678.198 0.209459 2.05837 0
M  V30 7238 C 678.613 -1.13444 1.50917 0
M  V30 7239 O 677.97 -1.70529 0.65008 0
M  V30 7240 C 678.021 0.138819 3.61233 0
M  V30 7241 O 677.742 1.42962 4.14118 0
M  V30 7242 C 679.243 -0.352449 4.41897 0
M  V30 7243 H 676.463 0.101209 0.663323 0
M  V30 7244 H 679.007 0.925077 1.8238 0
M  V30 7245 H 677.162 -0.527505 3.83792 0
M  V30 7246 H 677.576 1.3048 5.08011 0
M  V30 7247 H 679.05 -0.350778 5.50884 0
M  V30 7248 H 679.527 -1.3882 4.16684 0
M  V30 7249 H 680.133 0.282236 4.24362 0
M  V30 7250 N 678.448 -1.51871 0.421078 0
M  V30 7251 C 679.411 -2.25914 -0.386712 0
M  V30 7252 C 680.411 -1.28733 -0.963555 0
M  V30 7253 O 681.601 -1.52579 -0.840556 0
M  V30 7254 C 678.733 -3.03853 -1.54551 0
M  V30 7255 H 679.926 -2.98754 0.261978 0
M  V30 7256 H 677.479 -1.5533 0.173862 0
M  V30 7257 H 678.214 -2.35392 -2.23072 0
M  V30 7258 H 677.999 -3.75215 -1.13824 0
M  V30 7259 H 679.489 -3.59984 -2.11663 0
M  V30 7260 N 679.926 -0.151884 -1.56866 0
M  V30 7261 C 680.889 0.771861 -2.15812 0
M  V30 7262 C 681.889 1.17181 -1.10115 0
M  V30 7263 O 683.079 1.09194 -1.35729 0
M  V30 7264 C 680.211 2.04806 -2.7252 0
M  V30 7265 H 681.404 0.259021 -2.98779 0
M  V30 7266 H 678.957 0.097588 -1.55995 0
M  V30 7267 H 679.692 2.60445 -1.93233 0
M  V30 7268 H 679.477 1.77044 -3.49854 0
M  V30 7269 H 680.967 2.70771 -3.1792 0
M  V30 7270 N 681.404 1.57128 0.121893 0
M  V30 7271 C 682.629 1.89254 0.848385 0
M  V30 7272 C 683.054 0.743527 1.72781 0
M  V30 7273 O 682.412 -0.306056 1.78698 0
M  V30 7274 C 682.46 3.20113 1.66012 0
M  V30 7275 O 681.564 3.05815 2.76679 0
M  V30 7276 H 680.905 0.621103 0.234793 0
M  V30 7277 H 683.435 2.0433 0.10516 0
M  V30 7278 H 683.445 3.52761 2.04996 0
M  V30 7279 H 682.12 4.03336 1.01452 0
M  V30 7280 H 680.697 2.84627 2.40918 0
M  V30 7281 N 682.882 -0.391992 1.52647 0
M  V30 7282 C 684.128 -1.139 1.67793 0
M  V30 7283 C 684.461 -1.89711 0.41514 0
M  V30 7284 O 683.736 -1.85431 -0.586979 0
M  V30 7285 C 684.019 -2.11966 2.91105 0
M  V30 7286 C 683.872 -1.39939 4.27478 0
M  V30 7287 C 685.191 -3.1243 3.09961 0
M  V30 7288 H 682.31 -0.412707 0.610608 0
M  V30 7289 H 684.952 -0.422725 1.85238 0
M  V30 7290 H 683.102 -2.73048 2.76364 0
M  V30 7291 H 684.774 -0.818439 4.53982 0
M  V30 7292 H 683.017 -0.701246 4.28095 0
M  V30 7293 H 683.688 -2.1158 5.09841 0
M  V30 7294 H 686.164 -2.61435 3.23714 0
M  V30 7295 H 685.04 -3.78294 3.97725 0
M  V30 7296 H 685.301 -3.81127 2.24042 0
M  V30 7297 N 684.36 -1.4356 -0.65026 0
M  V30 7298 C 685.608 -1.45046 -1.40734 0
M  V30 7299 C 685.929 -0.0769822 -1.94848 0
M  V30 7300 O 685.199 0.888098 -1.74613 0
M  V30 7301 H 683.779 -0.534034 -0.522318 0
M  V30 7302 H 686.441 -1.79186 -0.766703 0
M  V30 7303 H 685.537 -2.16476 -2.24822 0
M  V30 7304 N 685.838 0.888903 -1.30139 0
M  V30 7305 C 686.801 1.97576 -1.16174 0
M  V30 7306 C 687.801 1.60525 -0.094086 0
M  V30 7307 O 688.991 1.70812 -0.341889 0
M  V30 7308 C 686.123 3.3188 -0.778983 0
M  V30 7309 H 687.316 2.11393 -2.12728 0
M  V30 7310 H 684.869 1.0748 -1.1348 0
M  V30 7311 H 685.604 3.23765 0.186225 0
M  V30 7312 H 685.389 3.60141 -1.55051 0
M  V30 7313 H 686.879 4.11612 -0.704631 0
M  V30 7314 N 687.317 1.12792 1.10072 0
M  V30 7315 C 688.28 0.802264 2.14701 0
M  V30 7316 C 689.28 -0.18515 1.59731 0
M  V30 7317 O 690.47 0.041109 1.74151 0
M  V30 7318 C 687.602 0.19285 3.40354 0
M  V30 7319 H 688.795 1.72932 2.45019 0
M  V30 7320 H 686.348 0.931662 1.25498 0
M  V30 7321 H 687.083 -0.743748 3.15656 0
M  V30 7322 H 686.868 0.903827 3.81541 0
M  V30 7323 H 688.358 -0.0183704 4.17596 0
M  V30 7324 N 688.795 -1.27931 0.920396 0
M  V30 7325 C 690.043 -1.94304 0.555906 0
M  V30 7326 C 690.364 -1.72753 -0.904519 0
M  V30 7327 O 689.634 -1.07104 -1.64029 0
M  V30 7328 H 688.214 -0.719001 0.202599 0
M  V30 7329 H 690.876 -1.55785 1.1712 0
M  V30 7330 H 689.972 -3.02806 0.755981 0
M  V30 7331 N 690.273 -0.685099 -1.4193 0
M  V30 7332 C 691.522 -0.208816 -2.00616 0
M  V30 7333 C 691.835 1.19506 -1.54847 0
M  V30 7334 O 693.041 1.76826 -2.06021 0
M  V30 7335 C 691.497 -0.322446 -3.58453 0
M  V30 7336 C 691.105 -1.73102 -4.13206 0
M  V30 7337 C 692.849 0.0945979 -4.24395 0
M  V30 7338 C 690.756 -1.79687 -5.63442 0
M  V30 7339 H 689.686 -0.0743092 -0.750329 0
M  V30 7340 H 692.337 -0.851778 -1.62533 0
M  V30 7341 H 690.719 0.388588 -3.94089 0
M  V30 7342 H 691.893 -2.46997 -3.8901 0
M  V30 7343 H 690.208 -2.09682 -3.59753 0
M  V30 7344 H 692.805 0.0656937 -5.3466 0
M  V30 7345 H 693.148 1.1316 -4.00625 0
M  V30 7346 H 693.681 -0.56579 -3.93756 0
M  V30 7347 H 690.42 -2.81404 -5.92024 0
M  V30 7348 H 689.94 -1.10162 -5.89597 0
M  V30 7349 H 691.619 -1.55498 -6.28036 0
M  V30 7350 N 691.751 1.51645 -0.429126 0
M  V30 7351 C 693.162 1.86665 0.0359003 0
M  V30 7352 C 693.513 1.34677 1.42676 0
M  V30 7353 O 692.638 0.694195 2.04963 0
M  V30 7354 C 693.233 3.38724 0.0719221 0
M  V30 7355 C 691.792 3.7331 0.481336 0
M  V30 7356 C 690.939 2.75313 -0.331329 0
M  V30 7357 H 693.89 1.44987 -0.645333 0
M  V30 7358 H 693.911 3.7011 0.883118 0
M  V30 7359 H 693.423 3.76532 -0.940495 0
M  V30 7360 H 691.524 3.41088 1.49966 0
M  V30 7361 H 691.637 4.78631 0.211837 0
M  V30 7362 H 690.001 2.53839 0.209204 0
M  V30 7363 H 690.784 3.15963 -1.34247 0
M  V30 7364 N 693.229 0.160201 1.56784 0
M  V30 7365 C 694.161 -0.80564 2.14574 0
M  V30 7366 C 695.174 -1.20154 1.09849 0
M  V30 7367 O 696.363 -1.14333 1.37078 0
M  V30 7368 C 693.463 -2.09434 2.6644 0
M  V30 7369 C 692.636 -1.86375 3.95706 0
M  V30 7370 C 691.695 -2.99358 4.32749 0
M  V30 7371 O 690.721 -2.70475 5.00831 0
M  V30 7372 N 691.923 -4.26867 3.93402 0
M  V30 7373 H 694.688 -0.311644 2.98075 0
M  V30 7374 H 692.249 -0.0229465 1.61884 0
M  V30 7375 H 694.241 -2.84091 2.88226 0
M  V30 7376 H 692.811 -2.50057 1.8759 0
M  V30 7377 H 692.031 -0.956821 3.82412 0
M  V30 7378 H 693.319 -1.68322 4.80151 0
M  V30 7379 H 692.717 -4.53197 3.38569 0
M  V30 7380 H 691.274 -4.98263 4.20211 0
M  V30 7381 N 694.707 -1.5719 -0.113559 0
M  V30 7382 C 695.67 -1.99796 -1.12314 0
M  V30 7383 C 696.67 -0.888847 -1.34001 0
M  V30 7384 O 697.86 -1.15476 -1.30426 0
M  V30 7385 C 694.992 -2.34279 -2.47641 0
M  V30 7386 H 696.185 -2.90193 -0.756825 0
M  V30 7387 H 693.738 -1.52144 -0.358029 0
M  V30 7388 H 694.473 -1.46778 -2.89183 0
M  V30 7389 H 694.258 -3.15175 -2.33253 0
M  V30 7390 H 695.748 -2.67963 -3.2029 0
M  V30 7391 N 696.185 0.383891 -1.52853 0
M  V30 7392 C 697.433 1.12619 -1.67814 0
M  V30 7393 C 697.754 1.90354 -0.423141 0
M  V30 7394 O 697.024 1.87649 0.562554 0
M  V30 7395 H 695.604 0.418738 -0.618601 0
M  V30 7396 H 698.266 0.43495 -1.89985 0
M  V30 7397 H 697.362 1.82624 -2.5309 0
M  V30 7398 N 697.663 1.43903 0.642637 0
M  V30 7399 C 698.593 1.52697 1.76652 0
M  V30 7400 C 699.574 0.380816 1.65782 0
M  V30 7401 O 700.759 0.599432 1.84717 0
M  V30 7402 C 697.889 1.45975 3.15133 0
M  V30 7403 C 696.843 2.58949 3.40778 0
M  V30 7404 C 696.169 2.37279 4.79169 0
M  V30 7405 C 697.469 4.01153 3.34475 0
M  V30 7406 H 699.163 2.46766 1.69549 0
M  V30 7407 H 696.709 1.18767 0.814279 0
M  V30 7408 H 698.662 1.5073 3.93521 0
M  V30 7409 H 697.386 0.484162 3.22991 0
M  V30 7410 H 696.045 2.53564 2.64765 0
M  V30 7411 H 695.693 1.37939 4.83717 0
M  V30 7412 H 695.393 3.13016 4.97287 0
M  V30 7413 H 696.917 2.43834 5.59801 0
M  V30 7414 H 698.331 4.07968 4.02784 0
M  V30 7415 H 696.728 4.77001 3.64129 0
M  V30 7416 H 697.798 4.25539 2.32475 0
M  V30 7417 N 699.141 -0.881989 1.30609 0
M  V30 7418 C 700.387 -1.63647 1.19781 0
M  V30 7419 C 700.72 -1.92632 -0.246265 0
M  V30 7420 O 699.995 -1.54938 -1.17577 0
M  V30 7421 C 700.278 -2.97437 2.02985 0
M  V30 7422 C 700.131 -2.75406 3.55628 0
M  V30 7423 C 701.45 -3.98397 1.86997 0
M  V30 7424 H 698.569 -0.593841 0.436488 0
M  V30 7425 H 701.211 -1.02041 1.60273 0
M  V30 7426 H 699.361 -3.50018 1.68581 0
M  V30 7427 H 701.033 -2.2959 4.00107 0
M  V30 7428 H 699.276 -2.09856 3.79662 0
M  V30 7429 H 699.947 -3.70552 4.09139 0
M  V30 7430 H 702.423 -3.54986 2.17081 0
M  V30 7431 H 701.299 -4.89916 2.47536 0
M  V30 7432 H 701.56 -4.3424 0.829943 0
M  V30 7433 N 700.619 -1.13374 -1.09472 0
M  V30 7434 C 701.847 -0.918351 -1.85402 0
M  V30 7435 C 702.262 0.53281 -1.81126 0
M  V30 7436 O 701.619 1.36879 -1.20708 0
M  V30 7437 C 701.67 -1.39743 -3.33398 0
M  V30 7438 O 701.391 -2.79172 -3.37631 0
M  V30 7439 C 702.892 -1.22042 -4.2617 0
M  V30 7440 H 700.112 -0.327511 -0.585643 0
M  V30 7441 H 702.656 -1.50617 -1.38328 0
M  V30 7442 H 700.811 -0.852619 -3.77901 0
M  V30 7443 H 701.225 -3.00428 -4.29934 0
M  V30 7444 H 702.699 -1.60438 -5.2817 0
M  V30 7445 H 703.176 -0.162047 -4.38901 0
M  V30 7446 H 703.782 -1.75323 -3.87482 0
M  V30 7447 N 702.098 1.27442 -0.927168 0
M  V30 7448 C 703.031 2.25177 -0.370232 0
M  V30 7449 C 704.009 1.53612 0.533103 0
M  V30 7450 O 705.193 1.8245 0.47373 0
M  V30 7451 C 702.32 3.35431 0.469411 0
M  V30 7452 C 701.366 4.24888 -0.370419 0
M  V30 7453 S 702.199 5.04852 -1.78562 0
M  V30 7454 C 703.355 6.18592 -0.953651 0
M  V30 7455 H 703.588 2.72069 -1.19858 0
M  V30 7456 H 701.121 1.36089 -0.729316 0
M  V30 7457 H 703.079 3.99404 0.947992 0
M  V30 7458 H 701.74 2.87179 1.27228 0
M  V30 7459 H 700.933 5.03264 0.272226 0
M  V30 7460 H 700.535 3.65709 -0.783153 0
M  V30 7461 H 702.827 6.77235 -0.189408 0
M  V30 7462 H 703.77 6.87132 -1.7104 0
M  V30 7463 H 704.178 5.62318 -0.495897 0
M  V30 7464 N 703.576 0.692616 1.41565 0
M  V30 7465 C 704.822 0.222664 2.01574 0
M  V30 7466 C 705.155 -1.1737 1.54719 0
M  V30 7467 O 704.43 -1.79161 0.757084 0
M  V30 7468 C 704.713 0.277064 3.59033 0
M  V30 7469 C 704.566 1.71016 4.16021 0
M  V30 7470 C 705.885 -0.36479 4.38586 0
M  V30 7471 H 703.004 0.0823839 0.732381 0
M  V30 7472 H 705.646 0.880778 1.68352 0
M  V30 7473 H 703.796 -0.283288 3.87466 0
M  V30 7474 H 705.468 2.32413 3.98475 0
M  V30 7475 H 703.711 2.24525 3.71175 0
M  V30 7476 H 704.382 1.69978 5.25178 0
M  V30 7477 H 706.858 0.112404 4.15948 0
M  V30 7478 H 705.734 -0.296169 5.481 0
M  V30 7479 H 705.995 -1.44506 4.17816 0
M  V30 7480 N 705.054 -1.51416 0.437162 0
M  V30 7481 C 706.303 -2.01275 -0.130865 0
M  V30 7482 C 706.616 -1.32593 -1.438 0
M  V30 7483 O 707.822 -1.7342 -2.08897 0
M  V30 7484 C 706.278 -3.5878 -0.283763 0
M  V30 7485 C 705.886 -4.36399 1.01293 0
M  V30 7486 C 707.63 -4.16786 -0.805569 0
M  V30 7487 C 705.537 -5.85608 0.825687 0
M  V30 7488 H 704.467 -0.752157 -0.0526818 0
M  V30 7489 H 707.118 -1.74524 0.566896 0
M  V30 7490 H 705.5 -3.81976 -1.04452 0
M  V30 7491 H 706.674 -4.24948 1.78201 0
M  V30 7492 H 704.989 -3.89843 1.46326 0
M  V30 7493 H 707.586 -5.25972 -0.962146 0
M  V30 7494 H 707.929 -3.75949 -1.78796 0
M  V30 7495 H 708.462 -3.97666 -0.103125 0
M  V30 7496 H 705.201 -6.30857 1.78045 0
M  V30 7497 H 704.721 -5.99723 0.0964029 0
M  V30 7498 H 706.4 -6.45226 0.478815 0
M  V30 7499 N 706.532 -0.168513 -1.56696 0
M  V30 7500 C 707.778 0.477865 -1.9709 0
M  V30 7501 C 708.111 1.63084 -1.05438 0
M  V30 7502 O 707.386 1.94238 -0.10095 0
M  V30 7503 C 707.669 0.963521 -3.4697 0
M  V30 7504 C 707.522 -0.189443 -4.49401 0
M  V30 7505 C 708.841 1.83813 -3.99876 0
M  V30 7506 H 705.96 0.172229 -0.716593 0
M  V30 7507 H 708.602 -0.254083 -1.88293 0
M  V30 7508 H 706.752 1.58724 -3.54597 0
M  V30 7509 H 708.424 -0.826451 -4.53836 0
M  V30 7510 H 706.667 -0.845366 -4.25483 0
M  V30 7511 H 707.338 0.192446 -5.51664 0
M  V30 7512 H 709.814 1.31235 -3.94863 0
M  V30 7513 H 708.69 2.14697 -5.0517 0
M  V30 7514 H 708.951 2.78289 -3.43523 0
M  V30 7515 N 708.01 1.57248 0.105221 0
M  V30 7516 C 708.94 2.04374 1.12931 0
M  V30 7517 C 709.921 0.93074 1.42377 0
M  V30 7518 O 711.106 1.20136 1.52581 0
M  V30 7519 C 708.236 2.45967 2.45189 0
M  V30 7520 C 707.19 3.60838 2.30174 0
M  V30 7521 C 706.516 3.88374 3.67518 0
M  V30 7522 C 707.816 4.92084 1.75073 0
M  V30 7523 H 709.51 2.9018 0.737287 0
M  V30 7524 H 707.056 1.39601 0.353211 0
M  V30 7525 H 709.009 2.77542 3.17094 0
M  V30 7526 H 707.733 1.57148 2.86308 0
M  V30 7527 H 706.392 3.29493 1.60716 0
M  V30 7528 H 706.04 2.96739 4.06147 0
M  V30 7529 H 705.74 4.65703 3.58321 0
M  V30 7530 H 707.264 4.22415 4.40906 0
M  V30 7531 H 708.678 5.22106 2.36809 0
M  V30 7532 H 707.075 5.73507 1.76662 0
M  V30 7533 H 708.145 4.79684 0.709347 0
M  V30 7534 N 709.488 -0.375779 1.53054 0
M  V30 7535 C 710.716 -1.14036 1.72637 0
M  V30 7536 C 711.131 -1.83342 0.450687 0
M  V30 7537 O 710.488 -1.7318 -0.575749 0
M  V30 7538 C 710.539 -2.17841 2.88492 0
M  V30 7539 O 710.26 -1.51358 4.11123 0
M  V30 7540 C 711.761 -3.06924 3.19863 0
M  V30 7541 H 708.981 -0.341386 0.577665 0
M  V30 7542 H 711.525 -0.437809 1.99759 0
M  V30 7543 H 709.68 -2.8371 2.63794 0
M  V30 7544 H 710.094 -2.20439 4.75928 0
M  V30 7545 H 711.568 -3.75763 4.04359 0
M  V30 7546 H 712.045 -3.71169 2.34798 0
M  V30 7547 H 712.651 -2.46684 3.46449 0
M  V30 7548 N 710.966 -1.44241 -0.634997 0
M  V30 7549 C 712.191 -1.50516 -1.42687 0
M  V30 7550 C 712.616 -0.129864 -1.87651 0
M  V30 7551 O 711.974 0.880164 -1.58502 0
M  V30 7552 C 712.022 -2.4714 -2.62591 0
M  V30 7553 O 711.126 -1.97025 -3.62291 0
M  V30 7554 H 710.467 -0.50841 -0.427101 0
M  V30 7555 H 712.997 -1.89337 -0.775408 0
M  V30 7556 H 713.007 -2.65048 -3.10183 0
M  V30 7557 H 711.682 -3.47039 -2.29209 0
M  V30 7558 H 710.259 -1.88866 -3.21534 0
M  V30 7559 N 712.444 0.87505 -1.31075 0
M  V30 7560 C 713.69 1.63009 -1.20647 0
M  V30 7561 C 714.023 1.9276 0.236045 0
M  V30 7562 O 713.298 1.55559 1.16754 0
M  V30 7563 C 713.581 2.96357 -2.0456 0
M  V30 7564 C 713.434 2.73516 -3.57084 0
M  V30 7565 C 714.753 3.974 -1.89107 0
M  V30 7566 H 711.872 0.591518 -0.439631 0
M  V30 7567 H 714.514 1.0119 -1.60812 0
M  V30 7568 H 712.664 3.49119 -1.70435 0
M  V30 7569 H 714.336 2.27465 -4.01319 0
M  V30 7570 H 712.579 2.0784 -3.80769 0
M  V30 7571 H 713.25 3.68377 -4.11099 0
M  V30 7572 H 715.726 3.5383 -2.18961 0
M  V30 7573 H 714.602 4.88596 -2.5013 0
M  V30 7574 H 714.863 4.33794 -0.85296 0
M  V30 7575 N 713.922 1.13953 1.08869 0
M  V30 7576 C 715.17 0.903023 1.80803 0
M  V30 7577 C 715.491 -0.572151 1.86417 0
M  V30 7578 O 714.761 -1.41589 1.35386 0
M  V30 7579 H 713.341 0.331099 0.669614 0
M  V30 7580 H 716.003 1.43719 1.31647 0
M  V30 7581 H 715.099 1.29881 2.83791 0
M  V30 7582 N 715.4 -1.26948 0.933913 0
M  V30 7583 C 716.33 -2.29017 0.45534 0
M  V30 7584 C 717.311 -1.62961 -0.487605 0
M  V30 7585 O 718.496 -1.90223 -0.391022 0
M  V30 7586 C 715.626 -3.46112 -0.287015 0
M  V30 7587 C 714.58 -4.24205 0.568682 0
M  V30 7588 C 713.906 -5.3384 -0.303206 0
M  V30 7589 C 715.206 -4.88954 1.83633 0
M  V30 7590 H 716.9 -2.69298 1.30839 0
M  V30 7591 H 714.446 -1.29459 0.630579 0
M  V30 7592 H 716.399 -4.16622 -0.6328 0
M  V30 7593 H 715.123 -3.04765 -1.17414 0
M  V30 7594 H 713.782 -3.5545 0.897261 0
M  V30 7595 H 713.43 -4.88734 -1.18947 0
M  V30 7596 H 713.13 -5.86998 0.265879 0
M  V30 7597 H 714.654 -6.0719 -0.644423 0
M  V30 7598 H 716.068 -5.51717 1.55823 0
M  V30 7599 H 714.465 -5.52198 2.34941 0
M  V30 7600 H 715.535 -4.12305 2.55211 0
M  V30 7601 N 716.879 -0.700114 -1.41195 0
M  V30 7602 C 718.29 -0.307249 -1.84154 0
M  V30 7603 C 718.641 1.15539 -1.58572 0
M  V30 7604 O 717.766 1.88744 -1.05852 0
M  V30 7605 C 718.361 -0.550872 -3.34292 0
M  V30 7606 C 716.92 -0.211877 -3.75803 0
M  V30 7607 C 716.067 -0.830915 -2.64558 0
M  V30 7608 H 719.018 -0.900431 -1.30683 0
M  V30 7609 H 719.039 0.188954 -3.80031 0
M  V30 7610 H 718.551 -1.61548 -3.5288 0
M  V30 7611 H 716.652 0.848283 -3.62815 0
M  V30 7612 H 716.765 -0.67007 -4.74391 0
M  V30 7613 H 715.129 -0.260155 -2.53368 0
M  V30 7614 H 715.912 -1.89948 -2.85963 0
M  V30 7615 N 718.357 1.51182 -0.445186 0
M  V30 7616 C 719.585 2.06568 0.117091 0
M  V30 7617 C 720 1.31182 1.35781 0
M  V30 7618 O 719.357 0.373605 1.78635 0
M  V30 7619 C 719.408 3.58917 0.431408 0
M  V30 7620 O 719.129 4.31456 -0.760078 0
M  V30 7621 C 720.63 4.30843 1.0435 0
M  V30 7622 H 717.85 0.670985 0.00444436 0
M  V30 7623 H 720.394 1.94666 -0.626525 0
M  V30 7624 H 718.549 3.70708 1.12493 0
M  V30 7625 H 718.963 5.22215 -0.489048 0
M  V30 7626 H 720.437 5.38499 1.21337 0
M  V30 7627 H 720.914 3.89644 2.02667 0
M  V30 7628 H 721.52 4.23516 0.38913 0
M  V30 7629 N 719.835 0.176821 1.56605 0
M  V30 7630 C 720.745 -0.763682 2.21822 0
M  V30 7631 C 721.761 -1.24889 1.21156 0
M  V30 7632 O 722.937 -1.29987 1.53836 0
M  V30 7633 C 720.002 -1.97352 2.8505 0
M  V30 7634 C 719.063 -1.53466 4.00932 0
M  V30 7635 C 718.296 -2.68682 4.61135 0
M  V30 7636 O 718.519 -3.85694 4.20234 0
M  V30 7637 O 717.453 -2.42442 5.50913 0
M  V30 7638 H 721.279 -0.238363 3.02763 0
M  V30 7639 H 718.864 -0.0516331 1.49311 0
M  V30 7640 H 720.746 -2.68096 3.25119 0
M  V30 7641 H 719.421 -2.48779 2.07101 0
M  V30 7642 H 718.328 -0.796551 3.65521 0
M  V30 7643 H 719.661 -1.06724 4.8049 0
M  V30 7644 N 721.313 -1.57302 -0.09688 0
M  V30 7645 C 722.59 -1.7701 -0.832272 0
M  V30 7646 C 722.97 -0.758025 -1.97021 0
M  V30 7647 O 722.318 0.213824 -2.27497 0
M  V30 7648 C 722.528 -3.22725 -1.32851 0
M  V30 7649 C 723.876 -3.85856 -1.772 0
M  V30 7650 O 724.9 -3.26464 -1.42478 0
M  V30 7651 O 723.759 -4.90295 -2.41398 0
M  V30 7652 H 720.853 -0.725558 -0.396856 0
M  V30 7653 H 723.399 -1.69516 -0.0789005 0
M  V30 7654 H 722.171 -3.87921 -0.51312 0
M  V30 7655 H 721.794 -3.34845 -2.14394 0
M  V30 7656 N 722.791 0.367657 -1.53252 0
M  V30 7657 C 724.04 1.10782 -1.68554 0
M  V30 7658 C 724.353 1.90523 -0.442765 0
M  V30 7659 O 725.559 2.6729 -0.47629 0
M  V30 7660 C 724.015 2.01863 -2.97959 0
M  V30 7661 C 723.623 1.27443 -4.29491 0
M  V30 7662 C 725.367 2.75883 -3.22628 0
M  V30 7663 C 723.274 2.17414 -5.49987 0
M  V30 7664 H 722.204 0.417272 -0.628013 0
M  V30 7665 H 724.855 0.368971 -1.79752 0
M  V30 7666 H 723.237 2.7947 -2.80558 0
M  V30 7667 H 724.411 0.549138 -4.57516 0
M  V30 7668 H 722.726 0.652935 -4.11249 0
M  V30 7669 H 725.323 3.43421 -4.09837 0
M  V30 7670 H 725.666 3.41138 -2.38601 0
M  V30 7671 H 726.199 2.0536 -3.40693 0
M  V30 7672 H 722.938 1.5674 -6.36485 0
M  V30 7673 H 722.458 2.87799 -5.26243 0
M  V30 7674 H 724.137 2.77019 -5.84696 0
M  V30 7675 N 724.269 1.44576 0.627338 0
M  V30 7676 C 725.497 1.51048 1.41394 0
M  V30 7677 C 725.912 0.136568 1.88305 0
M  V30 7678 O 725.269 -0.858251 1.6106 0
M  V30 7679 C 725.32 2.47837 2.63172 0
M  V30 7680 O 725.041 3.79887 2.18215 0
M  V30 7681 C 726.542 2.63811 3.56257 0
M  V30 7682 H 723.762 0.512171 0.4335 0
M  V30 7683 H 726.306 1.89576 0.766878 0
M  V30 7684 H 724.461 2.12433 3.23961 0
M  V30 7685 H 724.875 4.32177 2.97192 0
M  V30 7686 H 726.349 3.35554 4.38301 0
M  V30 7687 H 726.826 1.69169 4.05313 0
M  V30 7688 H 727.432 3.0013 3.01333 0
M  V30 7689 N 725.747 -0.868086 1.31537 0
M  V30 7690 C 726.677 -1.99131 1.21939 0
M  V30 7691 C 727.658 -1.69768 0.106166 0
M  V30 7692 O 728.843 -1.92006 0.291081 0
M  V30 7693 C 725.973 -3.34676 0.927879 0
M  V30 7694 C 724.927 -3.7835 2.00088 0
M  V30 7695 C 724.253 -5.11375 1.56203 0
M  V30 7696 C 725.553 -3.95256 3.41424 0
M  V30 7697 H 727.247 -2.07419 2.15911 0
M  V30 7698 H 724.793 -0.996569 1.03945 0
M  V30 7699 H 726.746 -4.12793 0.847327 0
M  V30 7700 H 725.47 -3.26565 -0.0475042 0
M  V30 7701 H 724.129 -3.02474 2.07135 0
M  V30 7702 H 723.777 -4.99709 0.57445 0
M  V30 7703 H 723.477 -5.41568 2.27985 0
M  V30 7704 H 725.001 -5.92001 1.49558 0
M  V30 7705 H 726.415 -4.63764 3.3704 0
M  V30 7706 H 724.812 -4.36849 4.1144 0
M  V30 7707 H 725.882 -2.98579 3.82072 0
M  V30 7708 N 727.225 -1.14528 -1.08264 0
M  V30 7709 C 728.474 -0.908992 -1.80056 0
M  V30 7710 C 728.787 0.565859 -1.87236 0
M  V30 7711 O 729.993 0.919454 -2.55457 0
M  V30 7712 C 728.449 -1.57681 -3.23519 0
M  V30 7713 C 728.057 -3.08803 -3.24569 0
M  V30 7714 C 729.801 -1.4217 -3.99985 0
M  V30 7715 C 727.708 -3.68414 -4.62629 0
M  V30 7716 H 726.638 -0.336432 -0.674781 0
M  V30 7717 H 729.289 -1.37437 -1.21587 0
M  V30 7718 H 727.671 -1.03911 -3.82124 0
M  V30 7719 H 728.845 -3.69252 -2.75663 0
M  V30 7720 H 727.16 -3.23968 -2.61598 0
M  V30 7721 H 729.757 -1.84106 -5.02005 0
M  V30 7722 H 730.1 -0.367989 -4.1467 0
M  V30 7723 H 730.633 -1.92984 -3.47853 0
M  V30 7724 H 727.372 -4.73644 -4.53147 0
M  V30 7725 H 726.892 -3.12746 -5.11811 0
M  V30 7726 H 728.571 -3.68793 -5.31602 0
M  V30 7727 N 728.703 1.26451 -0.940633 0
M  V30 7728 C 729.952 1.93071 -0.583656 0
M  V30 7729 C 730.265 1.74618 0.881366 0
M  V30 7730 O 731.471 2.35689 1.34769 0
M  V30 7731 C 729.927 3.45927 -0.993106 0
M  V30 7732 C 729.535 3.73115 -2.4797 0
M  V30 7733 C 731.279 4.18554 -0.707998 0
M  V30 7734 C 729.186 5.19408 -2.82788 0
M  V30 7735 H 728.116 0.722824 -0.214572 0
M  V30 7736 H 730.767 1.43538 -1.1432 0
M  V30 7737 H 729.149 3.94341 -0.362099 0
M  V30 7738 H 730.323 3.35408 -3.15971 0
M  V30 7739 H 728.638 3.13719 -2.73805 0
M  V30 7740 H 731.235 5.26293 -0.94447 0
M  V30 7741 H 731.578 4.14782 0.355225 0
M  V30 7742 H 732.111 3.76003 -1.2987 0
M  V30 7743 H 728.85 5.28281 -3.88071 0
M  V30 7744 H 728.37 5.58214 -2.19449 0
M  V30 7745 H 730.049 5.87407 -2.71224 0
M  V30 7746 N 730.181 0.707592 1.40822 0
M  V30 7747 C 731.144 0.0587224 2.29125 0
M  V30 7748 C 732.144 -0.695624 1.44975 0
M  V30 7749 O 733.334 -0.528718 1.65983 0
M  V30 7750 C 730.466 -0.926939 3.28056 0
M  V30 7751 H 731.659 0.836349 2.88002 0
M  V30 7752 H 729.212 0.471778 1.4901 0
M  V30 7753 H 729.947 -1.7319 2.74182 0
M  V30 7754 H 729.732 -0.389015 3.90165 0
M  V30 7755 H 731.222 -1.37837 3.94196 0
M  V30 7756 N 731.66 -1.50943 0.453197 0
M  V30 7757 C 732.906 -2.02512 -0.108082 0
M  V30 7758 C 733.239 -1.33574 -1.40967 0
M  V30 7759 O 732.514 -0.455671 -1.89087 0
M  V30 7760 C 732.797 -3.58759 -0.310453 0
M  V30 7761 C 732.65 -4.38293 1.0109 0
M  V30 7762 C 733.969 -4.26816 -1.07313 0
M  V30 7763 H 731.088 -0.73603 -0.0378064 0
M  V30 7764 H 733.73 -1.80433 0.595295 0
M  V30 7765 H 731.88 -3.77702 -0.909582 0
M  V30 7766 H 733.552 -4.30964 1.64523 0
M  V30 7767 H 731.795 -4.02745 1.61179 0
M  V30 7768 H 732.466 -5.45828 0.82315 0
M  V30 7769 H 734.942 -4.1224 -0.565473 0
M  V30 7770 H 733.818 -5.35989 -1.1835 0
M  V30 7771 H 734.079 -3.88757 -2.10525 0
M  V30 7772 N 733.138 -0.185124 -1.56509 0
M  V30 7773 C 734.415 0.503348 -1.89013 0
M  V30 7774 C 734.795 1.80349 -1.09715 0
M  V30 7775 O 734.143 2.27665 -0.195203 0
M  V30 7776 C 734.353 0.731839 -3.41241 0
M  V30 7777 C 735.701 1.05568 -4.11267 0
M  V30 7778 O 736.725 0.819906 -3.46635 0
M  V30 7779 O 735.584 1.50116 -5.25478 0
M  V30 7780 H 732.678 0.261139 -0.784688 0
M  V30 7781 H 735.224 -0.224592 -1.68207 0
M  V30 7782 H 733.996 -0.18672 -3.90854 0
M  V30 7783 H 733.619 1.5126 -3.67704 0
M  V30 7784 N 734.616 1.57351 0.0885366 0
M  V30 7785 C 735.862 1.87564 0.786842 0
M  V30 7786 C 736.217 0.776774 1.76023 0
M  V30 7787 O 735.51 -0.220637 1.90325 0
M  V30 7788 C 735.704 3.22098 1.5488 0
M  V30 7789 C 735.533 4.44967 0.650706 0
M  V30 7790 C 734.303 5.04444 0.293957 0
M  V30 7791 C 736.501 5.1428 -0.0452187 0
M  V30 7792 N 734.483 6.10846 -0.611609 0
M  V30 7793 C 735.854 6.14704 -0.808603 0
M  V30 7794 C 737.909 4.97759 -0.118451 0
M  V30 7795 C 736.612 7.00392 -1.63839 0
M  V30 7796 C 738.638 5.8396 -0.935157 0
M  V30 7797 C 738 6.83909 -1.68664 0
M  V30 7798 H 734.099 0.73613 0.263887 0
M  V30 7799 H 736.683 1.94638 0.049074 0
M  V30 7800 H 734.854 3.16064 2.2574 0
M  V30 7801 H 736.586 3.40015 2.19481 0
M  V30 7802 H 733.341 4.69214 0.643086 0
M  V30 7803 H 733.765 6.68695 -1.05714 0
M  V30 7804 H 738.407 4.20418 0.448202 0
M  V30 7805 H 736.125 7.7712 -2.21608 0
M  V30 7806 H 739.711 5.73236 -0.994579 0
M  V30 7807 H 738.591 7.49454 -2.30842 0
M  V30 7808 N 736.094 -0.359525 1.53444 0
M  V30 7809 C 737.341 -1.10152 1.6992 0
M  V30 7810 C 737.669 -1.89125 0.4541 0
M  V30 7811 O 736.924 -1.87396 -0.564023 0
M  V30 7812 C 737.223 -2.08287 2.90433 0
M  V30 7813 C 736.889 -1.45749 4.26694 0
M  V30 7814 C 735.551 -1.28421 4.63747 0
M  V30 7815 C 737.903 -1.00557 5.11408 0
M  V30 7816 C 735.231 -0.644951 5.83144 0
M  V30 7817 C 737.583 -0.380288 6.31456 0
M  V30 7818 C 736.247 -0.194557 6.67216 0
M  V30 7819 H 735.517 -0.403076 0.621781 0
M  V30 7820 H 738.164 -0.382612 1.87639 0
M  V30 7821 H 736.469 -2.86503 2.67251 0
M  V30 7822 H 738.166 -2.65662 3.00374 0
M  V30 7823 H 734.756 -1.6023 3.97523 0
M  V30 7824 H 738.94 -1.12735 4.83326 0
M  V30 7825 H 734.196 -0.48952 6.09437 0
M  V30 7826 H 738.37 -0.0219455 6.96397 0
M  V30 7827 H 735.997 0.30285 7.59597 0
M  V30 7828 N 737.572 -1.44907 -0.619662 0
M  V30 7829 C 738.502 -1.55488 -1.742 0
M  V30 7830 C 739.483 -0.407143 -1.65156 0
M  V30 7831 O 740.668 -0.628743 -1.8374 0
M  V30 7832 C 737.798 -1.5097 -3.1277 0
M  V30 7833 C 736.752 -2.64337 -3.36615 0
M  V30 7834 C 736.078 -2.44872 -4.75333 0
M  V30 7835 C 737.378 -4.06423 -3.28051 0
M  V30 7836 H 739.072 -2.49432 -1.65602 0
M  V30 7837 H 736.618 -1.20047 -0.795281 0
M  V30 7838 H 738.571 -1.56971 -3.91073 0
M  V30 7839 H 737.295 -0.535486 -3.2218 0
M  V30 7840 H 735.954 -2.57744 -2.60698 0
M  V30 7841 H 735.602 -1.45617 -4.81461 0
M  V30 7842 H 735.302 -3.20888 -4.92244 0
M  V30 7843 H 736.826 -2.52709 -5.55851 0
M  V30 7844 H 738.24 -4.14324 -3.96243 0
M  V30 7845 H 736.637 -4.82733 -3.56495 0
M  V30 7846 H 737.707 -4.29183 -2.25676 0
M  V30 7847 N 739.05 0.861098 -1.31996 0
M  V30 7848 C 740.327 1.59788 -1.12814 0
M  V30 7849 C 740.707 2.08753 0.313882 0
M  V30 7850 O 740.055 1.87258 1.30946 0
M  V30 7851 C 740.265 2.74901 -2.15012 0
M  V30 7852 C 741.613 3.44643 -2.48004 0
M  V30 7853 O 742.637 2.85119 -2.13508 0
M  V30 7854 O 741.496 4.52044 -3.07113 0
M  V30 7855 H 738.59 0.703408 -0.434909 0
M  V30 7856 H 741.136 0.905788 -1.43505 0
M  V30 7857 H 739.908 2.36198 -3.11971 0
M  V30 7858 H 739.531 3.51792 -1.85279 0
M  V30 7859 N 740.528 1.15101 1.07655 0
M  V30 7860 C 741.944 0.893004 1.32279 0
M  V30 7861 C 742.144 -0.461701 1.96139 0
M  V30 7862 O 741.2 -1.20431 2.21929 0
M  V30 7863 C 742.513 2.03161 2.21689 0
M  V30 7864 C 744.061 2.06579 2.35147 0
M  V30 7865 C 744.536 3.19754 3.27905 0
M  V30 7866 N 746.027 3.19382 3.35484 0
M  V30 7867 C 746.762 4.03592 4.07309 0
M  V30 7868 N 746.258 4.97859 4.81776 0
M  V30 7869 N 748.051 3.91626 4.03219 0
M  V30 7870 H 740.202 2.02341 0.645886 0
M  V30 7871 H 742.465 0.882127 0.347211 0
M  V30 7872 H 742.171 3.00934 1.82021 0
M  V30 7873 H 742.045 1.96132 3.22199 0
M  V30 7874 H 744.432 1.09408 2.74069 0
M  V30 7875 H 744.513 2.17676 1.34353 0
M  V30 7876 H 744.157 4.17175 2.89702 0
M  V30 7877 H 744.087 3.05893 4.28645 0
M  V30 7878 H 746.578 2.51112 2.82403 0
M  V30 7879 H 746.891 5.58563 5.34067 0
M  V30 7880 H 745.236 5.0185 4.80803 0
M  V30 7881 H 748.427 3.17295 3.44154 0
M  V30 7882 H 748.6 4.57479 4.5893 0
M  V30 7883 N 742.006 -1.2595 0.947325 0
M  V30 7884 C 742.936 -2.28521 0.479604 0
M  V30 7885 C 743.917 -1.63469 -0.470293 0
M  V30 7886 O 745.102 -1.90627 -0.370824 0
M  V30 7887 C 742.232 -3.46397 -0.250289 0
M  V30 7888 C 741.186 -4.23578 0.613643 0
M  V30 7889 C 740.512 -5.34131 -0.246568 0
M  V30 7890 C 741.812 -4.86979 1.88809 0
M  V30 7891 H 743.506 -2.67895 1.33688 0
M  V30 7892 H 741.052 -1.28783 0.644274 0
M  V30 7893 H 743.005 -4.17269 -0.588576 0
M  V30 7894 H 741.729 -3.05993 -1.14175 0
M  V30 7895 H 740.388 -3.54478 0.93491 0
M  V30 7896 H 740.036 -4.89968 -1.13756 0
M  V30 7897 H 739.736 -5.86683 0.328123 0
M  V30 7898 H 741.26 -6.07839 -0.579986 0
M  V30 7899 H 742.674 -5.50034 1.61666 0
M  V30 7900 H 741.071 -5.49675 2.40784 0
M  V30 7901 H 742.141 -4.09575 2.5957 0
M  V30 7902 N 743.484 -0.715051 -1.40445 0
M  V30 7903 C 744.9 -0.388555 -1.54798 0
M  V30 7904 C 745.1 1.10271 -1.68649 0
M  V30 7905 O 744.156 1.88875 -1.67578 0
M  V30 7906 C 745.469 -1.15414 -2.77669 0
M  V30 7907 C 747.017 -1.14039 -2.91486 0
M  V30 7908 C 747.492 -1.88812 -4.1727 0
M  V30 7909 N 748.983 -1.85878 -4.24268 0
M  V30 7910 C 749.718 -2.40558 -5.20499 0
M  V30 7911 N 749.214 -3.03791 -6.22642 0
M  V30 7912 N 751.007 -2.30703 -5.12574 0
M  V30 7913 H 743.158 -1.68201 -1.297 0
M  V30 7914 H 745.421 -0.710915 -0.627139 0
M  V30 7915 H 745.127 -2.20853 -2.7371 0
M  V30 7916 H 745.001 -0.745412 -3.69761 0
M  V30 7917 H 747.388 -0.0941996 -2.9495 0
M  V30 7918 H 747.469 -1.58834 -2.00513 0
M  V30 7919 H 747.113 -2.93422 -4.14568 0
M  V30 7920 H 747.043 -1.41438 -5.0725 0
M  V30 7921 H 749.534 -1.39794 -3.51093 0
M  V30 7922 H 749.847 -3.43032 -6.92495 0
M  V30 7923 H 748.192 -3.07875 -6.23087 0
M  V30 7924 H 751.383 -1.80961 -4.31707 0
M  V30 7925 H 751.556 -2.73618 -5.87398 0
M  V30 7926 N 744.962 1.50701 -0.461195 0
M  V30 7927 C 746.19 2.06681 0.0951756 0
M  V30 7928 C 746.605 1.32615 1.34382 0
M  V30 7929 O 745.962 0.392531 1.78229 0
M  V30 7930 C 746.013 3.59354 0.393316 0
M  V30 7931 O 745.734 4.30626 -0.805797 0
M  V30 7932 C 747.235 4.31926 0.997744 0
M  V30 7933 H 744.455 0.670995 -0.00267259 0
M  V30 7934 H 746.999 1.93991 -0.647137 0
M  V30 7935 H 745.154 3.7188 1.08555 0
M  V30 7936 H 745.568 5.21667 -0.544409 0
M  V30 7937 H 747.042 5.39756 1.15619 0
M  V30 7938 H 747.519 3.91772 1.98523 0
M  V30 7939 H 748.125 4.23905 0.344188 0
M  V30 7940 N 746.441 0.193421 1.56409 0
M  V30 7941 C 747.374 -0.767384 2.1491 0
M  V30 7942 C 748.352 -1.21075 1.08534 0
M  V30 7943 O 749.536 -1.29856 1.36637 0
M  V30 7944 C 746.663 -2.03615 2.70663 0
M  V30 7945 C 745.709 -1.73505 3.89613 0
M  V30 7946 S 746.542 -0.884645 5.28142 0
M  V30 7947 C 747.698 -2.1636 5.87315 0
M  V30 7948 H 747.931 -0.270053 2.96071 0
M  V30 7949 H 745.464 -0.0215546 1.54385 0
M  V30 7950 H 747.422 -2.7648 3.03429 0
M  V30 7951 H 746.083 -2.50461 1.89547 0
M  V30 7952 H 745.276 -2.67701 4.27027 0
M  V30 7953 H 744.878 -1.08723 3.57848 0
M  V30 7954 H 747.17 -3.11629 6.01576 0
M  V30 7955 H 748.113 -1.8338 6.83943 0
M  V30 7956 H 748.521 -2.29129 5.15907 0
M  V30 7957 N 747.919 -1.57396 -0.0801906 0
M  V30 7958 C 749.147 -1.91055 -0.794075 0
M  V30 7959 C 749.562 -0.788583 -1.71542 0
M  V30 7960 O 748.919 0.238587 -1.80934 0
M  V30 7961 C 748.97 -3.24418 -1.59484 0
M  V30 7962 O 748.691 -4.323 -0.710532 0
M  V30 7963 C 750.192 -3.72037 -2.41046 0
M  V30 7964 H 747.412 -0.63171 -0.226238 0
M  V30 7965 H 749.956 -2.04431 -0.0529685 0
M  V30 7966 H 748.111 -3.12595 -2.2883 0
M  V30 7967 H 748.525 -5.08976 -1.26663 0
M  V30 7968 H 749.999 -4.68006 -2.92702 0
M  V30 7969 H 750.476 -3.00624 -3.2019 0
M  V30 7970 H 751.082 -3.86777 -1.76871 0
M  V30 7971 N 749.397 0.351382 -1.53633 0
M  V30 7972 C 750.345 1.45142 -1.8176 0
M  V30 7973 C 751.339 1.54819 -0.687571 0
M  V30 7974 O 752.545 1.57536 -0.870772 0
M  V30 7975 H 748.92 0.483789 -0.575719 0
M  V30 7976 H 750.891 1.1863 -2.73806 0
M  V30 7977 C 749.64 2.81779 -2.03706 0
M  V30 7978 H 748.963 2.75097 -2.90107 0
M  V30 7979 H 750.403 3.5789 -2.27356 0
M  V30 7980 C 748.862 3.26762 -0.820271 0
M  V30 7981 O 749.392 4.01697 -0.0158603 0
M  V30 7982 N 747.598 2.83472 -0.639699 0
M  V30 7983 H 747.145 2.22655 -1.29547 0
M  V30 7984 H 747.103 3.13924 0.172995 0
M  V30 7985 N 750.875 1.45233 0.611969 0
M  V30 7986 C 752.121 1.49242 1.37312 0
M  V30 7987 C 752.454 0.131963 1.93751 0
M  V30 7988 O 751.729 -0.852999 1.74798 0
M  V30 7989 C 752.012 2.56811 2.52428 0
M  V30 7990 C 751.865 4.02284 2.01215 0
M  V30 7991 C 753.184 2.60705 3.54572 0
M  V30 7992 H 750.303 0.54336 0.497925 0
M  V30 7993 H 752.945 1.77019 0.690242 0
M  V30 7994 H 751.095 2.33256 3.10683 0
M  V30 7995 H 752.767 4.37035 1.47643 0
M  V30 7996 H 751.01 4.1315 1.32248 0
M  V30 7997 H 751.681 4.7323 2.84178 0
M  V30 7998 H 754.157 2.81799 3.06151 0
M  V30 7999 H 753.033 3.37841 4.32614 0
M  V30 8000 H 753.294 1.65627 4.09903 0
M  V30 8001 N 752.353 -0.854086 1.3245 0
M  V30 8002 C 753.283 -1.97827 1.24044 0
M  V30 8003 C 754.264 -1.69646 0.124166 0
M  V30 8004 O 755.449 -1.91687 0.31143 0
M  V30 8005 C 752.579 -3.33673 0.963324 0
M  V30 8006 C 751.533 -3.76207 2.04089 0
M  V30 8007 C 750.859 -5.0969 1.61618 0
M  V30 8008 C 752.159 -3.91612 3.45597 0
M  V30 8009 H 753.853 -2.05118 2.18099 0
M  V30 8010 H 751.399 -0.985489 1.04996 0
M  V30 8011 H 753.352 -4.11871 0.891061 0
M  V30 8012 H 752.076 -3.26597 -0.0128649 0
M  V30 8013 H 750.735 -3.0026 2.10332 0
M  V30 8014 H 750.383 -4.99072 0.627418 0
M  V30 8015 H 750.083 -5.3912 2.33717 0
M  V30 8016 H 751.607 -5.90381 1.55829 0
M  V30 8017 H 753.021 -4.60163 3.4194 0
M  V30 8018 H 751.418 -4.3246 4.16051 0
M  V30 8019 H 752.488 -2.9451 3.85217 0
M  V30 8020 N 753.831 -1.1567 -1.07043 0
M  V30 8021 C 755.079 -0.931673 -1.79344 0
M  V30 8022 C 755.4 0.542421 -1.87304 0
M  V30 8023 O 754.67 1.39418 -1.37621 0
M  V30 8024 H 753.25 -0.34171 -0.664262 0
M  V30 8025 H 755.912 -1.45795 -1.29344 0
M  V30 8026 H 755.008 -1.34379 -2.81689 0
M  V30 8027 N 755.309 1.25446 -0.953992 0
M  V30 8028 C 756.586 1.884 -0.525823 0
M  V30 8029 C 756.966 1.86079 0.996891 0
M  V30 8030 O 756.314 1.32389 1.8624 0
M  V30 8031 C 756.524 3.31154 -1.10172 0
M  V30 8032 C 757.872 4.07926 -1.17819 0
M  V30 8033 O 758.896 3.40273 -1.05323 0
M  V30 8034 O 757.755 5.28942 -1.37415 0
M  V30 8035 H 754.849 0.808629 -0.173345 0
M  V30 8036 H 757.395 1.33522 -1.04738 0
M  V30 8037 H 756.167 3.27271 -2.14499 0
M  V30 8038 H 755.79 3.93588 -0.56338 0
M  V30 8039 N 756.787 0.722489 1.40064 0
M  V30 8040 C 758.012 0.273446 2.05589 0
M  V30 8041 C 758.437 -1.07875 1.54093 0
M  V30 8042 O 757.795 -1.68095 0.679252 0
M  V30 8043 C 757.843 0.271023 3.5958 0
M  V30 8044 O 756.947 -0.745499 4.05606 0
M  V30 8045 H 756.288 0.126856 0.65177 0
M  V30 8046 H 758.818 0.984906 1.79334 0
M  V30 8047 H 758.828 0.111084 4.07849 0
M  V30 8048 H 757.503 1.25776 3.96425 0
M  V30 8049 H 756.08 -0.552719 3.68781 0
M  V30 8050 N 758.265 -1.50454 0.469181 0
M  V30 8051 C 759.514 -2.01507 -0.0881425 0
M  V30 8052 C 759.827 -1.35613 -1.40956 0
M  V30 8053 O 761.033 -1.77812 -2.05171 0
M  V30 8054 C 759.489 -3.59301 -0.207596 0
M  V30 8055 C 759.097 -4.34152 1.10527 0
M  V30 8056 C 760.841 -4.18401 -0.716981 0
M  V30 8057 C 758.748 -5.83725 0.949717 0
M  V30 8058 H 757.678 -0.753106 -0.0367156 0
M  V30 8059 H 760.329 -1.73282 0.603788 0
M  V30 8060 H 758.711 -3.84106 -0.963265 0
M  V30 8061 H 759.885 -4.21073 1.87175 0
M  V30 8062 H 758.2 -3.86652 1.54562 0
M  V30 8063 H 760.797 -5.27895 -0.850363 0
M  V30 8064 H 761.14 -3.79657 -1.70782 0
M  V30 8065 H 761.673 -3.97796 -0.0187511 0
M  V30 8066 H 758.412 -6.26938 1.91387 0
M  V30 8067 H 757.932 -5.99383 0.223591 0
M  V30 8068 H 759.611 -6.44065 0.61557 0
M  V30 8069 N 759.743 -0.201713 -1.56304 0
M  V30 8070 C 760.991 0.434447 -1.97375 0
M  V30 8071 C 761.312 1.61692 -1.08998 0
M  V30 8072 O 760.582 1.95223 -0.162682 0
M  V30 8073 H 759.162 0.163497 -0.728888 0
M  V30 8074 H 761.824 -0.289988 -1.92731 0
M  V30 8075 H 760.92 0.774136 -3.02347 0
M  V30 8076 N 761.222 1.57436 0.0718424 0
M  V30 8077 C 762.185 2.02703 1.06977 0
M  V30 8078 C 763.185 0.924062 1.31597 0
M  V30 8079 O 764.375 1.18894 1.27318 0
M  V30 8080 C 761.507 2.40763 2.41342 0
M  V30 8081 H 762.7 2.92098 0.679619 0
M  V30 8082 H 760.253 1.5304 0.317565 0
M  V30 8083 H 760.988 1.54394 2.8519 0
M  V30 8084 H 760.773 3.21249 2.24814 0
M  V30 8085 H 762.263 2.76361 3.13073 0
M  V30 8086 N 762.7 -0.34323 1.53817 0
M  V30 8087 C 763.663 -1.40444 1.8113 0
M  V30 8088 C 764.663 -1.45604 0.682366 0
M  V30 8089 O 765.853 -1.45974 0.950649 0
M  V30 8090 C 762.985 -2.79369 1.95361 0
M  V30 8091 H 764.178 -1.17489 2.75928 0
M  V30 8092 H 761.731 -0.577636 1.45234 0
M  V30 8093 H 762.466 -3.07607 1.02707 0
M  V30 8094 H 762.251 -2.7702 2.77493 0
M  V30 8095 H 763.741 -3.56178 2.18008 0
M  V30 8096 N 764.178 -1.45556 -0.604258 0
M  V30 8097 C 765.424 -1.49968 -1.36519 0
M  V30 8098 C 765.757 -0.142236 -1.93678 0
M  V30 8099 O 765.032 0.843717 -1.75247 0
M  V30 8100 C 765.315 -2.58146 -2.51063 0
M  V30 8101 C 765.168 -4.03346 -1.99078 0
M  V30 8102 C 766.487 -2.62581 -3.53184 0
M  V30 8103 H 763.606 -0.545993 -0.495036 0
M  V30 8104 H 766.248 -1.77382 -0.680845 0
M  V30 8105 H 764.398 -2.34901 -3.09441 0
M  V30 8106 H 766.07 -4.37811 -1.45323 0
M  V30 8107 H 764.313 -4.13845 -1.30055 0
M  V30 8108 H 764.984 -4.74731 -2.81664 0
M  V30 8109 H 767.46 -2.83419 -3.04652 0
M  V30 8110 H 766.336 -3.40131 -4.30816 0
M  V30 8111 H 766.597 -1.67798 -4.09019 0
M  V30 8112 N 765.656 0.84705 -1.32902 0
M  V30 8113 C 766.905 1.59667 -1.23245 0
M  V30 8114 C 767.218 1.94551 0.202349 0
M  V30 8115 O 768.424 2.68218 0.420847 0
M  V30 8116 C 766.88 2.8795 -2.15901 0
M  V30 8117 C 766.488 2.60461 -3.64505 0
M  V30 8118 C 768.232 3.65968 -2.15098 0
M  V30 8119 C 766.139 3.84791 -4.49099 0
M  V30 8120 H 765.069 0.599167 -0.457728 0
M  V30 8121 H 767.72 0.934662 -1.57912 0
M  V30 8122 H 766.102 3.55648 -1.74157 0
M  V30 8123 H 767.276 2.01026 -4.14639 0
M  V30 8124 H 765.591 1.9576 -3.67515 0
M  V30 8125 H 768.188 4.58241 -2.75534 0
M  V30 8126 H 768.531 4.00275 -1.14392 0
M  V30 8127 H 769.064 3.05184 -2.55162 0
M  V30 8128 H 765.803 3.55621 -5.50649 0
M  V30 8129 H 765.323 4.43594 -4.03713 0
M  V30 8130 H 767.002 4.52454 -4.62487 0
M  V30 8131 N 767.134 1.16236 1.06428 0
M  V30 8132 C 768.044 0.881976 2.1739 0
M  V30 8133 C 769.06 -0.145259 1.73393 0
M  V30 8134 O 770.236 0.0310558 2.01376 0
M  V30 8135 C 767.301 0.385496 3.4455 0
M  V30 8136 C 766.362 1.47779 4.03063 0
M  V30 8137 C 765.595 1.0049 5.24154 0
M  V30 8138 O 765.818 -0.145889 5.70213 0
M  V30 8139 O 764.752 1.79265 5.74585 0
M  V30 8140 H 768.578 1.80983 2.43883 0
M  V30 8141 H 766.163 0.942226 1.15942 0
M  V30 8142 H 768.045 0.115536 4.21242 0
M  V30 8143 H 766.72 -0.514369 3.19587 0
M  V30 8144 H 765.627 1.80147 3.27869 0
M  V30 8145 H 766.96 2.35291 4.32318 0
M  V30 8146 N 768.612 -1.24939 0.960631 0
M  V30 8147 C 769.562 -2.23388 0.456266 0
M  V30 8148 C 770.546 -1.54249 -0.45782 0
M  V30 8149 O 771.738 -1.7461 -0.289894 0
M  V30 8150 C 768.867 -3.42321 -0.259024 0
M  V30 8151 C 767.953 -4.18718 0.673478 0
M  V30 8152 N 768.344 -4.72394 1.8077 0
M  V30 8153 C 766.642 -4.43378 0.482859 0
M  V30 8154 C 767.343 -5.30316 2.3904 0
M  V30 8155 N 766.319 -5.17109 1.67629 0
M  V30 8156 H 770.121 -2.62499 1.32179 0
M  V30 8157 H 767.635 -1.40245 0.818851 0
M  V30 8158 H 769.632 -4.11997 -0.637527 0
M  V30 8159 H 768.292 -3.04732 -1.12108 0
M  V30 8160 H 769.303 -4.69345 2.18942 0
M  V30 8161 H 765.98 -4.16147 -0.335821 0
M  V30 8162 H 767.37 -5.82594 3.34715 0
M  V30 8163 N 770.09 -0.729906 -1.39679 0
M  V30 8164 C 771.02 -0.101618 -2.33279 0
M  V30 8165 C 772.001 0.729854 -1.53646 0
M  V30 8166 O 773.186 0.67587 -1.82059 0
M  V30 8167 C 770.316 0.81024 -3.37716 0
M  V30 8168 C 769.27 0.0833126 -4.27919 0
M  V30 8169 C 768.596 1.11185 -5.23012 0
M  V30 8170 C 769.896 -1.07107 -5.112 0
M  V30 8171 H 771.59 -0.883452 -2.86069 0
M  V30 8172 H 769.136 -0.426283 -1.37546 0
M  V30 8173 H 771.089 1.25927 -4.02145 0
M  V30 8174 H 769.813 1.62413 -2.83354 0
M  V30 8175 H 768.472 -0.346043 -3.64963 0
M  V30 8176 H 768.12 1.91917 -4.64948 0
M  V30 8177 H 767.82 0.63026 -5.8421 0
M  V30 8178 H 769.344 1.56068 -5.90318 0
M  V30 8179 H 770.758 -0.700726 -5.69002 0
M  V30 8180 H 769.155 -1.48196 -5.81514 0
M  V30 8181 H 770.225 -1.89513 -4.46332 0
M  V30 8182 N 771.568 1.50203 -0.477153 0
M  V30 8183 C 772.793 2.07263 0.0754986 0
M  V30 8184 C 773.218 1.33801 1.32208 0
M  V30 8185 O 772.576 0.387482 1.77111 0
M  V30 8186 C 772.624 3.59028 0.336348 0
M  V30 8187 O 771.728 3.87339 1.4157 0
M  V30 8188 H 771.069 0.663815 -0.015662 0
M  V30 8189 H 773.599 1.93321 -0.669936 0
M  V30 8190 H 773.609 4.03927 0.575034 0
M  V30 8191 H 772.284 4.11912 -0.574551 0
M  V30 8192 H 770.861 3.54272 1.16385 0
M  V30 8193 N 773.046 0.209999 1.56195 0
M  V30 8194 C 773.978 -0.736967 2.17029 0
M  V30 8195 C 774.991 -1.16599 1.13616 0
M  V30 8196 O 776.18 -1.09914 1.40646 0
M  V30 8197 C 773.28 -2.00852 2.72969 0
M  V30 8198 C 772.453 -1.73691 4.01435 0
M  V30 8199 C 771.512 -2.85439 4.42053 0
M  V30 8200 O 770.538 -2.54405 5.09183 0
M  V30 8201 N 771.74 -4.14135 4.06783 0
M  V30 8202 H 774.505 -0.216656 2.98916 0
M  V30 8203 H 772.066 0.0285672 1.61875 0
M  V30 8204 H 774.058 -2.74778 2.97118 0
M  V30 8205 H 772.628 -2.43963 1.95451 0
M  V30 8206 H 771.848 -0.834676 3.85262 0
M  V30 8207 H 773.136 -1.52961 4.85263 0
M  V30 8208 H 772.534 -4.42196 3.52816 0
M  V30 8209 H 771.091 -4.84642 4.35851 0
M  V30 8210 N 774.524 -1.57472 -0.0634922 0
M  V30 8211 C 775.94 -1.54016 -0.418466 0
M  V30 8212 C 776.14 -0.931376 -1.78683 0
M  V30 8213 O 775.196 -0.537465 -2.46714 0
M  V30 8214 C 776.509 -2.98634 -0.351906 0
M  V30 8215 C 778.057 -3.10012 -0.431494 0
M  V30 8216 C 778.532 -4.56296 -0.394754 0
M  V30 8217 N 780.023 -4.60964 -0.454583 0
M  V30 8218 C 780.758 -5.71643 -0.448501 0
M  V30 8219 N 780.254 -6.91663 -0.396742 0
M  V30 8220 N 782.047 -5.5991 -0.495677 0
M  V30 8221 H 774.198 -1.95409 0.832408 0
M  V30 8222 H 776.461 -0.894769 0.313197 0
M  V30 8223 H 776.167 -3.46766 0.587048 0
M  V30 8224 H 776.041 -3.58955 -1.15893 0
M  V30 8225 H 778.428 -2.61848 -1.36087 0
M  V30 8226 H 778.509 -2.52585 0.404258 0
M  V30 8227 H 778.153 -5.05119 0.530811 0
M  V30 8228 H 778.083 -5.11594 -1.24815 0
M  V30 8229 H 780.574 -3.74598 -0.498496 0
M  V30 8230 H 780.887 -7.71783 -0.396256 0
M  V30 8231 H 779.232 -6.9405 -0.363304 0
M  V30 8232 H 782.423 -4.65046 -0.533864 0
M  V30 8233 H 782.596 -6.46164 -0.487469 0
M  V30 8234 N 776.003 0.335068 -1.53997 0
M  V30 8235 C 776.913 1.43511 -1.85585 0
M  V30 8236 C 777.929 1.57162 -0.746726 0
M  V30 8237 O 779.105 1.72477 -1.03988 0
M  V30 8238 C 776.17 2.78386 -2.06646 0
M  V30 8239 C 775.231 2.74007 -3.30483 0
M  V30 8240 C 774.464 4.02449 -3.50529 0
M  V30 8241 O 774.687 5.00147 -2.74242 0
M  V30 8242 O 773.621 4.06405 -4.4398 0
M  V30 8243 H 777.447 1.19731 -2.79102 0
M  V30 8244 H 775.032 0.528033 -1.39758 0
M  V30 8245 H 776.914 3.58247 -2.21894 0
M  V30 8246 H 775.589 3.0208 -1.16317 0
M  V30 8247 H 774.496 1.92736 -3.2063 0
M  V30 8248 H 775.829 2.55267 -4.20832 0
M  V30 8249 N 777.481 1.45874 0.596531 0
M  V30 8250 C 778.411 1.5824 1.71705 0
M  V30 8251 C 779.392 0.433366 1.64487 0
M  V30 8252 O 780.577 0.657895 1.82717 0
M  V30 8253 C 777.707 1.55927 3.10329 0
M  V30 8254 C 776.661 2.69659 3.32367 0
M  V30 8255 C 775.987 2.52403 4.71377 0
M  V30 8256 C 777.287 4.11591 3.21544 0
M  V30 8257 H 778.981 2.52035 1.61613 0
M  V30 8258 H 776.527 1.21297 0.776082 0
M  V30 8259 H 778.48 1.63173 3.88526 0
M  V30 8260 H 777.204 0.586674 3.21288 0
M  V30 8261 H 775.863 2.61859 2.56564 0
M  V30 8262 H 775.511 1.53258 4.79083 0
M  V30 8263 H 775.211 3.28679 4.87077 0
M  V30 8264 H 776.735 2.6152 5.5176 0
M  V30 8265 H 778.149 4.20576 3.89601 0
M  V30 8266 H 776.546 4.88344 3.4877 0
M  V30 8267 H 777.616 4.32719 2.1882 0
M  V30 8268 N 778.959 -0.83999 1.33349 0
M  V30 8269 C 779.869 -1.98182 1.25543 0
M  V30 8270 C 780.885 -1.73204 0.166208 0
M  V30 8271 O 782.061 -1.97596 0.389589 0
M  V30 8272 C 779.126 -3.32157 0.993614 0
M  V30 8273 C 778.187 -3.70258 2.17273 0
M  V30 8274 C 777.42 -4.9784 1.92331 0
M  V30 8275 O 777.643 -5.63679 0.873074 0
M  V30 8276 O 776.577 -5.33418 2.78835 0
M  V30 8277 H 780.403 -2.07708 2.21565 0
M  V30 8278 H 777.988 -0.972852 1.13384 0
M  V30 8279 H 779.87 -4.12433 0.864711 0
M  V30 8280 H 778.545 -3.23637 0.0636596 0
M  V30 8281 H 777.452 -2.90497 2.35716 0
M  V30 8282 H 778.785 -3.83442 3.08598 0
M  V30 8283 N 780.437 -1.16799 -1.0581 0
M  V30 8284 C 781.367 -0.902241 -2.15364 0
M  V30 8285 C 782.348 0.153351 -1.69407 0
M  V30 8286 O 783.533 0.00442032 -1.94199 0
M  V30 8287 C 780.663 -0.407911 -3.44896 0
M  V30 8288 C 779.617 -1.40197 -4.04387 0
M  V30 8289 C 778.943 -0.765848 -5.29187 0
M  V30 8290 C 780.243 -2.77316 -4.42598 0
M  V30 8291 H 781.937 -1.81841 -2.37853 0
M  V30 8292 H 779.483 -0.875731 -1.14311 0
M  V30 8293 H 781.436 -0.20945 -4.20879 0
M  V30 8294 H 780.16 0.54378 -3.22041 0
M  V30 8295 H 778.819 -1.58707 -3.30466 0
M  V30 8296 H 778.467 0.192482 -5.02632 0
M  V30 8297 H 778.167 -1.42939 -5.69949 0
M  V30 8298 H 779.691 -0.577519 -6.07863 0
M  V30 8299 H 781.105 -2.62561 -5.09642 0
M  V30 8300 H 779.502 -3.4019 -4.94359 0
M  V30 8301 H 780.572 -3.32199 -3.53231 0
M  V30 8302 N 781.915 1.24427 -0.967243 0
M  V30 8303 C 782.847 2.24641 -0.454856 0
M  V30 8304 C 783.86 1.56849 0.436152 0
M  V30 8305 O 785.049 1.76846 0.242401 0
M  V30 8306 C 782.149 3.36954 0.362672 0
M  V30 8307 C 781.322 4.34318 -0.518324 0
M  V30 8308 C 780.381 5.25638 0.243122 0
M  V30 8309 O 779.407 5.68043 -0.362791 0
M  V30 8310 N 780.609 5.59897 1.53282 0
M  V30 8311 H 783.374 2.69238 -1.31648 0
M  V30 8312 H 780.935 1.38464 -0.839015 0
M  V30 8313 H 782.927 3.95014 0.880094 0
M  V30 8314 H 781.497 2.91646 1.12522 0
M  V30 8315 H 780.717 3.74953 -1.21672 0
M  V30 8316 H 782.005 4.96338 -1.11919 0
M  V30 8317 H 781.403 5.27373 2.04682 0
M  V30 8318 H 779.96 6.20488 1.99594 0
M  V30 8319 N 783.393 0.737304 1.3929 0
M  V30 8320 C 784.303 0.100464 2.34385 0
M  V30 8321 C 785.319 -0.719282 1.58437 0
M  V30 8322 O 786.495 -0.647216 1.90717 0
M  V30 8323 C 783.56 -0.794325 3.37478 0
M  V30 8324 C 782.621 0.0379345 4.29283 0
M  V30 8325 C 781.854 -0.814241 5.27452 0
M  V30 8326 O 782.077 -2.05288 5.32177 0
M  V30 8327 O 781.011 -0.241679 6.01415 0
M  V30 8328 H 784.837 0.885407 2.90507 0
M  V30 8329 H 782.422 0.497999 1.40856 0
M  V30 8330 H 784.304 -1.30622 4.00644 0
M  V30 8331 H 782.979 -1.55804 2.83737 0
M  V30 8332 H 781.886 0.595405 3.69331 0
M  V30 8333 H 783.219 0.763926 4.86236 0
M  V30 8334 N 784.871 -1.49948 0.485112 0
M  V30 8335 C 785.834 -2.27351 -0.290546 0
M  V30 8336 C 786.834 -1.32704 -0.908087 0
M  V30 8337 O 788.024 -1.56007 -0.775085 0
M  V30 8338 C 785.156 -3.10135 -1.41524 0
M  V30 8339 H 786.349 -2.97374 0.388454 0
M  V30 8340 H 783.902 -1.54453 0.239586 0
M  V30 8341 H 784.637 -2.44641 -2.12888 0
M  V30 8342 H 784.422 -3.79705 -0.978074 0
M  V30 8343 H 785.912 -3.68638 -1.96204 0
M  V30 8344 N 786.349 -0.21828 -1.56081 0
M  V30 8345 C 787.259 0.704602 -2.23769 0
M  V30 8346 C 788.275 1.21633 -1.24425 0
M  V30 8347 O 789.451 1.25862 -1.57228 0
M  V30 8348 C 786.516 1.89725 -2.90182 0
M  V30 8349 C 785.577 1.42782 -4.0486 0
M  V30 8350 C 784.81 2.56361 -4.68097 0
M  V30 8351 O 785.033 3.74417 -4.30312 0
M  V30 8352 O 783.967 2.2775 -5.57148 0
M  V30 8353 H 787.793 0.158007 -3.03289 0
M  V30 8354 H 785.378 0.0120279 -1.49395 0
M  V30 8355 H 787.26 2.59382 -3.32113 0
M  V30 8356 H 785.935 2.432 -2.13624 0
M  V30 8357 H 784.842 0.699359 -3.67505 0
M  V30 8358 H 786.175 0.939474 -4.83151 0
M  V30 8359 N 787.827 1.57504 0.0551401 0
M  V30 8360 C 788.757 2.07864 1.06372 0
M  V30 8361 C 789.738 0.975565 1.39344 0
M  V30 8362 O 790.923 1.24929 1.48682 0
M  V30 8363 C 788.053 2.53643 2.3724 0
M  V30 8364 C 787.007 3.67978 2.18578 0
M  V30 8365 C 786.333 3.9987 3.54976 0
M  V30 8366 C 787.633 4.97405 1.59329 0
M  V30 8367 H 789.327 2.92379 0.644595 0
M  V30 8368 H 786.873 1.40654 0.308619 0
M  V30 8369 H 788.826 2.8749 3.08103 0
M  V30 8370 H 787.55 1.66177 2.81163 0
M  V30 8371 H 786.209 3.3444 1.50152 0
M  V30 8372 H 785.857 3.0951 3.965 0
M  V30 8373 H 785.557 4.76867 3.43324 0
M  V30 8374 H 787.081 4.36228 4.27244 0
M  V30 8375 H 788.495 5.29375 2.20078 0
M  V30 8376 H 786.892 5.78837 1.58327 0
M  V30 8377 H 787.962 4.81697 0.55638 0
M  V30 8378 N 789.305 -0.326896 1.54172 0
M  V30 8379 C 790.533 -1.08486 1.76177 0
M  V30 8380 C 790.948 -1.81815 0.508788 0
M  V30 8381 O 790.305 -1.74924 -0.520362 0
M  V30 8382 C 790.356 -2.08552 2.95276 0
M  V30 8383 O 790.077 -1.38202 4.15731 0
M  V30 8384 C 791.578 -2.96593 3.29466 0
M  V30 8385 H 788.798 -0.322835 0.588233 0
M  V30 8386 H 791.342 -0.374036 2.0105 0
M  V30 8387 H 789.497 -2.75174 2.72687 0
M  V30 8388 H 789.911 -2.05186 4.827 0
M  V30 8389 H 791.385 -3.62708 4.16109 0
M  V30 8390 H 791.862 -3.63511 2.46487 0
M  V30 8391 H 792.468 -2.35537 3.54122 0
M  V30 8392 N 790.784 -1.46188 -0.588786 0
M  V30 8393 C 791.714 -1.59148 -1.70863 0
M  V30 8394 C 792.695 -0.442083 -1.64255 0
M  V30 8395 O 793.88 -0.667575 -1.82365 0
M  V30 8396 C 791.01 -1.5757 -3.09498 0
M  V30 8397 C 789.964 -2.71418 -3.30932 0
M  V30 8398 C 789.29 -2.549 -4.70032 0
M  V30 8399 C 790.59 -4.1329 -3.19356 0
M  V30 8400 H 792.284 -2.52889 -1.60274 0
M  V30 8401 H 789.83 -1.21707 -0.769638 0
M  V30 8402 H 791.783 -1.65231 -3.87655 0
M  V30 8403 H 790.507 -0.603705 -3.20972 0
M  V30 8404 H 789.166 -2.63216 -2.55172 0
M  V30 8405 H 788.814 -1.55797 -4.78264 0
M  V30 8406 H 788.514 -3.31257 -4.85327 0
M  V30 8407 H 790.038 -2.64443 -5.50366 0
M  V30 8408 H 791.452 -4.22636 -3.87365 0
M  V30 8409 H 789.849 -4.90187 -3.46175 0
M  V30 8410 H 790.919 -4.33874 -2.16522 0
M  V30 8411 N 792.262 0.832906 -1.33792 0
M  V30 8412 C 793.673 1.40489 -1.22963 0
M  V30 8413 C 794.024 1.95633 0.149026 0
M  V30 8414 O 793.149 1.8928 1.04891 0
M  V30 8415 C 793.744 2.55387 -2.22627 0
M  V30 8416 C 792.303 3.08522 -2.15618 0
M  V30 8417 C 791.45 1.81347 -2.09782 0
M  V30 8418 H 794.401 0.638156 -1.45304 0
M  V30 8419 H 794.422 3.33193 -1.83746 0
M  V30 8420 H 793.934 2.15222 -3.22957 0
M  V30 8421 H 792.035 3.53217 -1.18611 0
M  V30 8422 H 792.148 3.6829 -3.0643 0
M  V30 8423 H 790.512 2.01839 -1.55349 0
M  V30 8424 H 791.295 1.43369 -3.1193 0
M  V30 8425 N 793.74 1.17359 1.05189 0
M  V30 8426 C 794.965 0.98709 1.82404 0
M  V30 8427 C 795.39 -0.459848 1.82392 0
M  V30 8428 O 794.748 -1.32924 1.23292 0
M  V30 8429 C 794.796 1.53276 3.26403 0
M  V30 8430 O 793.9 0.746541 4.05587 0
M  V30 8431 H 793.241 0.35047 0.563974 0
M  V30 8432 H 795.771 1.55856 1.32552 0
M  V30 8433 H 795.781 1.55504 3.77203 0
M  V30 8434 H 794.456 2.58603 3.25726 0
M  V30 8435 H 793.033 0.795671 3.64312 0
M  V30 8436 N 795.218 -1.23913 0.973828 0
M  V30 8437 C 796.148 -2.27453 0.527969 0
M  V30 8438 C 797.129 -1.6443 -0.435513 0
M  V30 8439 O 798.314 -1.9137 -0.330306 0
M  V30 8440 C 795.444 -3.4685 -0.176757 0
M  V30 8441 C 794.398 -4.22181 0.703352 0
M  V30 8442 C 793.724 -5.34534 -0.133215 0
M  V30 8443 C 795.024 -4.82865 1.99096 0
M  V30 8444 H 796.718 -2.65 1.3934 0
M  V30 8445 H 794.264 -1.27388 0.671446 0
M  V30 8446 H 796.217 -4.18424 -0.499934 0
M  V30 8447 H 794.941 -3.08346 -1.07659 0
M  V30 8448 H 793.6 -3.52416 1.00989 0
M  V30 8449 H 793.248 -4.92271 -1.03338 0
M  V30 8450 H 792.948 -5.85855 0.452494 0
M  V30 8451 H 794.472 -6.08933 -0.450924 0
M  V30 8452 H 795.886 -5.46481 1.73297 0
M  V30 8453 H 794.283 -5.44444 2.52389 0
M  V30 8454 H 795.353 -4.03977 2.68199 0
M  V30 8455 N 796.696 -0.74468 -1.38897 0
M  V30 8456 C 797.944 -0.296298 -1.99916 0
M  V30 8457 C 798.265 1.12325 -1.59399 0
M  V30 8458 O 797.535 1.76658 -0.846689 0
M  V30 8459 H 796.115 -0.106561 -0.73936 0
M  V30 8460 H 798.777 -0.956793 -1.69798 0
M  V30 8461 H 797.873 -0.352356 -3.10105 0
M  V30 8462 N 798.174 1.49689 -0.493057 0
M  V30 8463 C 799.121 2.28976 0.28959 0
M  V30 8464 C 800.091 1.35011 0.967536 0
M  V30 8465 O 801.276 1.63964 0.975736 0
M  V30 8466 C 798.416 3.1748 1.35279 0
M  V30 8467 C 797.529 4.26496 0.687418 0
M  V30 8468 C 796.664 5.02226 1.73038 0
M  V30 8469 C 795.703 6.03089 1.04645 0
M  V30 8470 N 794.84 6.72014 2.03325 0
M  V30 8471 H 799.68 2.954 -0.392798 0
M  V30 8472 H 797.217 1.45657 -0.205554 0
M  V30 8473 H 799.175 3.67162 1.98111 0
M  V30 8474 H 797.805 2.53057 2.00405 0
M  V30 8475 H 796.857 3.80362 -0.0540001 0
M  V30 8476 H 798.169 4.98578 0.14864 0
M  V30 8477 H 797.323 5.55737 2.43395 0
M  V30 8478 H 796.062 4.29899 2.303 0
M  V30 8479 H 795.067 5.48817 0.328606 0
M  V30 8480 H 796.292 6.77398 0.480428 0
M  V30 8481 H 794.238 6.02464 2.59564 0
M  V30 8482 H 794.155 7.40046 1.54492 0
M  V30 8483 H 795.423 7.30133 2.72995 0
M  V30 8484 N 799.652 0.226554 1.55963 0
M  V30 8485 C 801.063 -0.280381 1.84583 0
M  V30 8486 C 801.414 -1.59105 1.14804 0
M  V30 8487 O 800.539 -2.12297 0.419414 0
M  V30 8488 C 801.134 -0.515499 3.34855 0
M  V30 8489 C 799.693 -0.966733 3.63774 0
M  V30 8490 C 798.84 -0.0325753 2.77281 0
M  V30 8491 H 801.791 0.449626 1.52197 0
M  V30 8492 H 801.812 -1.36085 3.55332 0
M  V30 8493 H 801.324 0.438594 3.85614 0
M  V30 8494 H 799.425 -1.93401 3.18476 0
M  V30 8495 H 799.538 -0.837679 4.7172 0
M  V30 8496 H 797.902 -0.540279 2.48904 0
M  V30 8497 H 798.685 0.916524 3.30839 0
M  V30 8498 N 801.13 -1.57531 -0.0467866 0
M  V30 8499 C 802.36 -1.92417 -0.752279 0
M  V30 8500 C 802.768 -0.823134 -1.70356 0
M  V30 8501 O 802.111 0.210598 -1.82489 0
M  V30 8502 C 802.173 -3.22974 -1.57887 0
M  V30 8503 C 801.837 -4.50045 -0.794285 0
M  V30 8504 C 802.834 -5.19799 -0.102368 0
M  V30 8505 C 800.519 -4.96608 -0.754061 0
M  V30 8506 C 802.513 -6.34385 0.619267 0
M  V30 8507 C 800.2 -6.11093 -0.0286682 0
M  V30 8508 C 801.198 -6.79835 0.656772 0
M  V30 8509 O 800.886 -7.92133 1.37042 0
M  V30 8510 H 800.618 -0.640029 -0.217576 0
M  V30 8511 H 803.172 -2.05395 -0.0137438 0
M  V30 8512 H 801.402 -3.06273 -2.3608 0
M  V30 8513 H 803.091 -3.43319 -2.16533 0
M  V30 8514 H 803.857 -4.8484 -0.124589 0
M  V30 8515 H 799.736 -4.42958 -1.27706 0
M  V30 8516 H 803.28 -6.87975 1.15483 0
M  V30 8517 H 799.177 -6.455 -0.00446214 0
M  V30 8518 H 799.945 -8.08394 1.28227 0
M  V30 8519 N 802.608 0.318715 -1.54344 0
M  V30 8520 C 803.555 1.39242 -1.84066 0
M  V30 8521 C 804.525 1.51175 -0.688134 0
M  V30 8522 O 805.71 1.66318 -0.935039 0
M  V30 8523 C 802.85 2.75528 -2.07794 0
M  V30 8524 C 801.963 2.72187 -3.35467 0
M  V30 8525 C 801.098 4.00352 -3.4913 0
M  V30 8526 C 800.137 3.91338 -4.7066 0
M  V30 8527 N 799.274 5.11242 -4.81224 0
M  V30 8528 H 804.114 1.13196 -2.75664 0
M  V30 8529 H 801.651 0.547857 -1.36517 0
M  V30 8530 H 803.609 3.54763 -2.19543 0
M  V30 8531 H 802.239 2.99873 -1.19482 0
M  V30 8532 H 801.291 1.84917 -3.3243 0
M  V30 8533 H 802.603 2.61411 -4.24812 0
M  V30 8534 H 801.757 4.88019 -3.60448 0
M  V30 8535 H 800.496 4.1394 -2.57886 0
M  V30 8536 H 799.501 3.02055 -4.59394 0
M  V30 8537 H 800.726 3.7931 -5.63294 0
M  V30 8538 H 798.672 5.25327 -3.92897 0
M  V30 8539 H 798.589 5.0282 -5.64543 0
M  V30 8540 H 799.857 6.0061 -4.96879 0
M  V30 8541 N 804.086 1.46499 0.581025 0
M  V30 8542 C 805.311 1.55708 1.37002 0
M  V30 8543 C 805.736 0.19942 1.8704 0
M  V30 8544 O 805.094 -0.820731 1.61659 0
M  V30 8545 C 805.142 2.56716 2.53238 0
M  V30 8546 O 804.246 2.10336 3.54729 0
M  V30 8547 H 803.587 0.523912 0.407937 0
M  V30 8548 H 806.117 1.92085 0.704602 0
M  V30 8549 H 806.127 2.76378 3.00132 0
M  V30 8550 H 804.802 3.55307 2.16171 0
M  V30 8551 H 803.379 2.00669 3.14303 0
M  V30 8552 N 805.565 -0.825799 1.34232 0
M  V30 8553 C 806.495 -1.95151 1.28212 0
M  V30 8554 C 807.476 -1.69345 0.160123 0
M  V30 8555 O 808.661 -1.90983 0.352019 0
M  V30 8556 C 805.791 -3.31554 1.03388 0
M  V30 8557 C 804.745 -3.71793 2.12023 0
M  V30 8558 C 804.071 -5.06147 1.72392 0
M  V30 8559 C 805.371 -3.84193 3.53826 0
M  V30 8560 H 807.065 -2.00445 2.22401 0
M  V30 8561 H 804.611 -0.962996 1.07063 0
M  V30 8562 H 806.564 -4.09889 0.978225 0
M  V30 8563 H 805.288 -3.26551 0.0564142 0
M  V30 8564 H 803.947 -2.95731 2.16654 0
M  V30 8565 H 803.595 -4.97628 0.733137 0
M  V30 8566 H 803.295 -5.34041 2.451 0
M  V30 8567 H 804.819 -5.86943 1.68317 0
M  V30 8568 H 806.233 -4.52806 3.51624 0
M  V30 8569 H 804.63 -4.23538 4.2513 0
M  V30 8570 H 805.7 -2.86272 3.91377 0
M  V30 8571 N 807.043 -1.17915 -1.04565 0
M  V30 8572 C 807.976 -0.845021 -2.11978 0
M  V30 8573 C 808.954 0.19089 -1.61476 0
M  V30 8574 O 810.138 0.0709905 -1.88366 0
M  V30 8575 C 807.265 -0.261657 -3.37688 0
M  V30 8576 C 806.311 -1.27396 -4.07029 0
M  V30 8577 S 807.144 -2.82783 -4.54746 0
M  V30 8578 C 808.3 -2.25944 -5.83695 0
M  V30 8579 H 808.533 -1.75472 -2.39993 0
M  V30 8580 H 806.066 -1.00447 -1.17259 0
M  V30 8581 H 808.024 0.0684257 -4.10443 0
M  V30 8582 H 806.685 0.626082 -3.07797 0
M  V30 8583 H 805.878 -0.814557 -4.97374 0
M  V30 8584 H 805.48 -1.55002 -3.40368 0
M  V30 8585 H 807.772 -1.63892 -6.57378 0
M  V30 8586 H 808.715 -3.14569 -6.34391 0
M  V30 8587 H 809.123 -1.69155 -5.3856 0
M  V30 8588 N 808.521 1.23394 -0.980386 0
M  V30 8589 C 809.484 2.23092 -0.525619 0
M  V30 8590 C 810.484 1.56129 0.384745 0
M  V30 8591 O 811.674 1.73284 0.178439 0
M  V30 8592 C 808.806 3.40074 0.23712 0
M  V30 8593 H 809.999 2.64839 -1.40714 0
M  V30 8594 H 807.552 1.36227 -0.766275 0
M  V30 8595 H 808.287 3.03783 1.13518 0
M  V30 8596 H 808.072 3.89883 -0.416356 0
M  V30 8597 H 809.562 4.14043 0.543892 0
M  V30 8598 N 809.999 0.752036 1.385 0
M  V30 8599 C 810.931 0.0835089 2.29048 0
M  V30 8600 C 811.944 -0.685402 1.47669 0
M  V30 8601 O 813.133 -0.526748 1.70551 0
M  V30 8602 C 810.233 -0.905772 3.26572 0
M  V30 8603 C 809.406 -0.194828 4.36966 0
M  V30 8604 C 808.465 -1.09464 5.14688 0
M  V30 8605 O 807.491 -0.565743 5.66381 0
M  V30 8606 N 808.693 -2.42287 5.2752 0
M  V30 8607 H 811.458 0.861142 2.87062 0
M  V30 8608 H 809.019 0.602689 1.50264 0
M  V30 8609 H 811.011 -1.51072 3.75446 0
M  V30 8610 H 809.581 -1.58449 2.69467 0
M  V30 8611 H 808.801 0.590812 3.89747 0
M  V30 8612 H 810.089 0.297189 5.07931 0
M  V30 8613 H 809.487 -2.87715 4.8707 0
M  V30 8614 H 808.044 -2.97836 5.79773 0
M  V30 8615 N 811.477 -1.49425 0.500989 0
M  V30 8616 C 812.387 -2.32899 -0.282011 0
M  V30 8617 C 813.403 -1.44632 -0.967346 0
M  V30 8618 O 814.579 -1.77654 -0.94873 0
M  V30 8619 C 811.644 -3.20069 -1.33253 0
M  V30 8620 C 810.705 -4.24186 -0.660636 0
M  V30 8621 C 809.938 -5.07191 -1.6611 0
M  V30 8622 O 810.161 -4.91712 -2.89094 0
M  V30 8623 O 809.095 -5.8948 -1.21643 0
M  V30 8624 H 812.921 -3.01038 0.401224 0
M  V30 8625 H 810.506 -1.47079 0.262323 0
M  V30 8626 H 812.388 -3.74071 -1.94033 0
M  V30 8627 H 811.063 -2.54625 -1.9987 0
M  V30 8628 H 809.97 -3.74098 -0.0130959 0
M  V30 8629 H 811.303 -4.92186 -0.0369179 0
M  V30 8630 N 812.955 -0.234822 -1.55841 0
M  V30 8631 C 813.902 0.6698 -2.20867 0
M  V30 8632 C 814.872 1.18042 -1.16856 0
M  V30 8633 O 816.057 1.23709 -1.45261 0
M  V30 8634 C 813.197 1.86646 -2.90271 0
M  V30 8635 C 812.31 1.39351 -4.08908 0
M  V30 8636 C 811.445 2.54878 -4.66059 0
M  V30 8637 C 810.484 2.04384 -5.76969 0
M  V30 8638 N 809.621 3.13233 -6.28355 0
M  V30 8639 H 814.461 0.10858 -2.97802 0
M  V30 8640 H 811.998 0.041836 -1.4704 0
M  V30 8641 H 813.956 2.56926 -3.28702 0
M  V30 8642 H 812.586 2.40035 -2.15831 0
M  V30 8643 H 811.638 0.585173 -3.75872 0
M  V30 8644 H 812.95 0.983356 -4.89011 0
M  V30 8645 H 812.104 3.33219 -5.07001 0
M  V30 8646 H 810.843 2.99188 -3.85146 0
M  V30 8647 H 809.848 1.24509 -5.35516 0
M  V30 8648 H 811.073 1.61057 -6.59725 0
M  V30 8649 H 809.019 3.57 -5.50352 0
M  V30 8650 H 808.936 2.76511 -7.03618 0
M  V30 8651 H 810.204 3.91669 -6.73955 0
M  V30 8652 N 814.433 1.57553 0.0384317 0
M  V30 8653 C 815.681 1.88468 0.729672 0
M  V30 8654 C 816.002 0.831302 1.76393 0
M  V30 8655 O 815.272 -0.13622 1.95426 0
M  V30 8656 H 813.852 0.695529 0.272485 0
M  V30 8657 H 816.514 1.94899 0.0066032 0
M  V30 8658 H 815.61 2.8705 1.22511 0
M  V30 8659 N 815.911 -0.310526 1.54511 0
M  V30 8660 C 816.874 -1.3657 1.84068 0
M  V30 8661 C 817.874 -1.44123 0.713097 0
M  V30 8662 O 819.064 -1.43924 0.981399 0
M  V30 8663 C 816.196 -2.75162 2.01243 0
M  V30 8664 H 817.389 -1.1161 2.78358 0
M  V30 8665 H 814.942 -0.546699 1.46427 0
M  V30 8666 H 815.677 -3.05359 1.09208 0
M  V30 8667 H 815.462 -2.71071 2.83307 0
M  V30 8668 H 816.952 -3.51473 2.25514 0
M  V30 8669 N 817.389 -1.46805 -0.573248 0
M  V30 8670 C 818.614 -1.56433 -1.36175 0
M  V30 8671 C 819.039 -0.209336 -1.86932 0
M  V30 8672 O 818.397 0.812146 -1.62092 0
M  V30 8673 C 818.445 -2.58055 -2.51873 0
M  V30 8674 O 817.549 -2.12214 -3.53609 0
M  V30 8675 H 816.89 -0.526068 -0.405153 0
M  V30 8676 H 819.42 -1.92456 -0.694405 0
M  V30 8677 H 819.43 -2.77966 -2.98662 0
M  V30 8678 H 818.105 -3.56448 -2.14284 0
M  V30 8679 H 816.682 -2.02333 -3.13234 0
M  V30 8680 N 818.867 0.818669 -1.34668 0
M  V30 8681 C 820.283 1.11243 -1.14443 0
M  V30 8682 C 820.483 2.01435 0.0512212 0
M  V30 8683 O 819.539 2.41854 0.725471 0
M  V30 8684 C 820.852 1.75504 -2.4417 0
M  V30 8685 C 822.4 1.8798 -2.50265 0
M  V30 8686 C 822.875 2.55657 -3.80004 0
M  V30 8687 N 824.366 2.63153 -3.81189 0
M  V30 8688 C 825.101 3.16258 -4.78298 0
M  V30 8689 N 824.597 3.69893 -5.85791 0
M  V30 8690 N 826.39 3.14698 -4.65748 0
M  V30 8691 H 818.541 0.218848 -2.1127 0
M  V30 8692 H 820.804 0.159655 -0.934459 0
M  V30 8693 H 820.51 1.16697 -3.31775 0
M  V30 8694 H 820.384 2.75329 -2.57825 0
M  V30 8695 H 822.771 2.45934 -1.63096 0
M  V30 8696 H 822.852 0.870447 -2.40535 0
M  V30 8697 H 822.496 1.98356 -4.67565 0
M  V30 8698 H 822.426 3.57105 -3.87019 0
M  V30 8699 H 824.917 2.2514 -3.03513 0
M  V30 8700 H 825.23 4.08678 -6.55898 0
M  V30 8701 H 823.575 3.68125 -5.89499 0
M  V30 8702 H 826.766 2.72066 -3.80917 0
M  V30 8703 H 826.939 3.5578 -5.41594 0
M  V30 8704 N 820.346 1.18468 1.03938 0
M  V30 8705 C 821.594 0.978895 1.76811 0
M  V30 8706 C 821.915 -0.49257 1.88676 0
M  V30 8707 O 821.185 -1.3572 1.41269 0
M  V30 8708 H 819.765 0.359201 0.654968 0
M  V30 8709 H 822.427 1.49173 1.25433 0
M  V30 8710 H 821.523 1.418 2.78027 0
M  V30 8711 N 821.824 -1.22873 0.986916 0
M  V30 8712 C 823.24 -1.43594 0.696633 0
M  V30 8713 C 823.44 -1.87622 -0.734869 0
M  V30 8714 O 822.496 -2.02633 -1.50652 0
M  V30 8715 C 823.809 -2.48231 1.69711 0
M  V30 8716 C 825.357 -2.62037 1.71188 0
M  V30 8717 C 825.832 -3.6989 2.70084 0
M  V30 8718 N 827.323 -3.77341 2.68641 0
M  V30 8719 C 828.058 -4.6037 3.41829 0
M  V30 8720 N 827.554 -5.47438 4.24598 0
M  V30 8721 N 829.347 -4.54626 3.30563 0
M  V30 8722 H 821.498 -0.925982 1.91153 0
M  V30 8723 H 823.761 -0.46866 0.824052 0
M  V30 8724 H 823.467 -2.22812 2.72117 0
M  V30 8725 H 823.341 -3.46731 1.48516 0
M  V30 8726 H 825.728 -2.86803 0.694837 0
M  V30 8727 H 825.809 -1.63831 1.96451 0
M  V30 8728 H 825.453 -3.45872 3.71934 0
M  V30 8729 H 825.383 -4.67652 2.42093 0
M  V30 8730 H 827.874 -3.15124 2.08578 0
M  V30 8731 H 828.187 -6.078 4.77283 0
M  V30 8732 H 826.532 -5.4704 4.28687 0
M  V30 8733 H 829.723 -3.85627 2.65347 0
M  V30 8734 H 829.896 -5.19103 3.8786 0
M  V30 8735 N 823.302 -0.75937 -1.38099 0
M  V30 8736 C 824.55 -0.317485 -1.99591 0
M  V30 8737 C 824.871 1.10628 -1.60581 0
M  V30 8738 O 824.141 1.7575 -0.865378 0
M  V30 8739 H 822.721 -0.114397 -0.738189 0
M  V30 8740 H 825.383 -0.974749 -1.68774 0
M  V30 8741 H 824.479 -0.385227 -3.09713 0
M  V30 8742 N 824.78 1.49157 -0.508906 0
M  V30 8743 C 826.028 2.02073 0.0327335 0
M  V30 8744 C 826.349 1.39012 1.3675 0
M  V30 8745 O 825.619 0.548153 1.88075 0
M  V30 8746 H 824.199 0.746848 0.0150864 0
M  V30 8747 H 826.861 1.83097 -0.667946 0
M  V30 8748 H 825.957 3.11707 0.1566 0
M  V30 8749 N 826.258 0.243083 1.55714 0
M  V30 8750 C 827.206 -0.674349 2.2261 0
M  V30 8751 C 828.2 -1.18307 1.21243 0
M  V30 8752 O 829.406 -1.1404 1.39265 0
M  V30 8753 H 825.781 -0.235941 0.714028 0
M  V30 8754 H 827.752 -0.0869446 2.98273 0
M  V30 8755 C 826.501 -1.86206 2.93637 0
M  V30 8756 H 825.824 -1.47975 3.71407 0
M  V30 8757 H 827.264 -2.4813 3.43813 0
M  V30 8758 C 825.723 -2.73084 1.97298 0
M  V30 8759 O 826.253 -3.72497 1.50361 0
M  V30 8760 N 824.459 -2.39571 1.64482 0
M  V30 8761 H 824.006 -1.5878 2.02846 0
M  V30 8762 H 823.964 -2.97976 1.00288 0
M  V30 8763 N 827.736 -1.57571 -0.0300757 0
M  V30 8764 C 828.646 -2.09892 -1.04798 0
M  V30 8765 C 829.662 -1.03732 -1.39698 0
M  V30 8766 O 830.838 -1.35461 -1.49038 0
M  V30 8767 C 827.903 -2.56707 -2.33028 0
M  V30 8768 C 826.964 -3.77345 -2.04718 0
M  V30 8769 C 826.197 -4.21918 -3.26834 0
M  V30 8770 O 826.42 -3.66025 -4.37472 0
M  V30 8771 O 825.354 -5.14362 -3.12594 0
M  V30 8772 H 829.18 -2.97023 -0.633344 0
M  V30 8773 H 826.765 -1.47344 -0.246991 0
M  V30 8774 H 828.647 -2.87154 -3.08417 0
M  V30 8775 H 827.322 -1.72688 -2.73789 0
M  V30 8776 H 826.229 -3.51919 -1.26901 0
M  V30 8777 H 827.562 -4.62345 -1.68813 0
M  V30 8778 N 829.214 0.302327 -1.54673 0
M  V30 8779 C 830.439 1.06103 -1.78205 0
M  V30 8780 C 830.864 1.80204 -0.53926 0
M  V30 8781 O 830.222 1.73975 0.510142 0
M  V30 8782 C 830.27 2.01829 -2.98827 0
M  V30 8783 O 829.374 3.10108 -2.71858 0
M  V30 8784 H 828.715 0.30487 -0.589873 0
M  V30 8785 H 831.245 0.340153 -2.01753 0
M  V30 8786 H 831.255 2.44319 -3.2676 0
M  V30 8787 H 829.93 1.473 -3.88942 0
M  V30 8788 H 828.507 2.72142 -2.54937 0
M  V30 8789 N 830.692 1.47107 0.565454 0
M  V30 8790 C 831.655 1.58535 1.65527 0
M  V30 8791 C 832.655 0.461081 1.54048 0
M  V30 8792 O 833.845 0.725911 1.58355 0
M  V30 8793 C 830.977 1.52204 3.05036 0
M  V30 8794 H 832.17 2.55676 1.56747 0
M  V30 8795 H 829.723 1.35174 0.78471 0
M  V30 8796 H 830.458 0.564071 3.19357 0
M  V30 8797 H 830.243 2.3379 3.14777 0
M  V30 8798 H 831.733 1.63322 3.84338 0
M  V30 8799 N 832.17 -0.811516 1.35101 0
M  V30 8800 C 833.103 -1.92872 1.21966 0
M  V30 8801 C 834.081 -1.62236 0.108667 0
M  V30 8802 O 835.265 -1.8647 0.275875 0
M  V30 8803 C 832.392 -3.27152 0.876886 0
M  V30 8804 C 831.438 -3.7674 1.99924 0
M  V30 8805 S 832.271 -3.95132 3.61429 0
M  V30 8806 C 833.427 -5.32322 3.29218 0
M  V30 8807 H 833.66 -2.03718 2.16532 0
M  V30 8808 H 831.193 -0.968352 1.20259 0
M  V30 8809 H 833.151 -4.04729 0.685917 0
M  V30 8810 H 831.812 -3.14059 -0.0506289 0
M  V30 8811 H 831.005 -4.73981 1.71343 0
M  V30 8812 H 830.607 -3.06145 2.14829 0
M  V30 8813 H 832.899 -6.1614 2.8174 0
M  V30 8814 H 833.842 -5.65893 4.25641 0
M  V30 8815 H 834.25 -4.98374 2.65111 0
M  V30 8816 O 833.687 -1.3058 -0.950319 0
M  V30 8817 H 834.378 -1.1218 -1.57909 0
M  V30 END ATOM
M  V30 BEGIN BOND
M  V30 END BOND
M  V30 END CTAB
M  END
$$$$
