drugbank_target|P48651 Phosphatidylserine synthase 1 (DB00144)
 OpenBabel12092119473D

  0  0  0     0  0            999 V3000
M  V30 BEGIN CTAB
M  V30 COUNTS 7791 7924 0 0 0
M  V30 BEGIN ATOM
M  V30 1 H -0.908 1.98254 -0.117106 0
M  V30 2 N 0 1.576 0 0
M  V30 3 C 0.933 2.03868 1.02534 0
M  V30 4 C 1.911 0.928543 1.3348 0
M  V30 5 O 3.095 1.19667 1.45644 0
M  V30 6 C 0.222 2.43627 2.35294 0
M  V30 7 C -0.732 3.65373 2.2001 0
M  V30 8 S 0.101 5.13292 1.52614 0
M  V30 9 C 1.257 5.56322 2.86805 0
M  V30 10 H 1.49 2.90518 0.631377 0
M  V30 11 H -0.977 1.52953 0.210867 0
M  V30 12 H 0.981 2.67203 3.11629 0
M  V30 13 H -0.358 1.57376 2.7183 0
M  V30 14 H -1.165 3.90944 3.18086 0
M  V30 15 H -1.563 3.418 1.51819 0
M  V30 16 H 0.729 5.58782 3.83104 0
M  V30 17 H 1.672 6.56266 2.65933 0
M  V30 18 H 2.08 4.83886 2.90714 0
M  V30 19 N 1.4781 -0.272755 1.55222 0
M  V30 20 C 2.4411 -1.32041 1.87344 0
M  V30 21 C 3.4411 -1.42342 0.74803 0
M  V30 22 O 4.6311 -1.41488 1.0162 0
M  V30 23 C 1.7631 -2.70173 2.07893 0
M  V30 24 H 2.9561 -1.04789 2.80997 0
M  V30 25 H 0.5091 -0.51083 1.47717 0
M  V30 26 H 1.2441 -3.02605 1.16622 0
M  V30 27 H 1.0291 -2.64082 2.89833 0
M  V30 28 H 2.5191 -3.45869 2.34017 0
M  V30 29 N 2.9562 -1.48159 -0.537278 0
M  V30 30 C 4.1812 -1.59707 -1.32319 0
M  V30 31 C 4.6062 -0.254859 -1.86365 0
M  V30 32 O 3.9642 0.772378 -1.64024 0
M  V30 33 C 4.0122 -2.6412 -2.45505 0
M  V30 34 O 3.1162 -2.20774 -3.48328 0
M  V30 35 H 2.4572 -0.535791 -0.392204 0
M  V30 36 H 4.9872 -1.94092 -0.647268 0
M  V30 37 H 4.9972 -2.85166 -2.91795 0
M  V30 38 H 3.6722 -3.61567 -2.05528 0
M  V30 39 H 2.2492 -2.09911 -3.08207 0
M  V30 40 N 4.4343 0.785586 -1.36625 0
M  V30 41 C 5.6743 1.55678 -1.32453 0
M  V30 42 C 6.0383 1.91769 0.0941089 0
M  V30 43 O 7.2393 2.67536 0.26042 0
M  V30 44 C 5.5103 2.79701 -2.22491 0
M  V30 45 S 7.0693 3.69907 -2.36038 0
M  V30 46 H 3.8873 0.533141 -0.470405 0
M  V30 47 H 6.4893 0.924953 -1.72235 0
M  V30 48 H 5.1933 2.51244 -3.24507 0
M  V30 49 H 4.7243 3.47854 -1.83742 0
M  V30 50 H 6.7393 4.71016 -1.56072 0
M  V30 51 N 5.9124 1.20967 1.01018 0
M  V30 52 C 7.1584 1.02526 1.74975 0
M  V30 53 C 7.4914 -0.4408 1.89131 0
M  V30 54 O 6.7664 -1.32718 1.42184 0
M  V30 55 C 7.0494 1.71699 3.1653 0
M  V30 56 C 6.9024 3.25791 3.10129 0
M  V30 57 C 8.2214 1.45531 4.15342 0
M  V30 58 H 5.3404 0.373863 0.635134 0
M  V30 59 H 7.9824 1.49071 1.17805 0
M  V30 60 H 6.1324 1.32128 3.65341 0
M  V30 61 H 7.8044 3.74697 2.69072 0
M  V30 62 H 6.0474 3.56363 2.47362 0
M  V30 63 H 6.7184 3.69353 4.10222 0
M  V30 64 H 9.1944 1.79872 3.75213 0
M  V30 65 H 8.0704 1.96453 5.1254 0
M  V30 66 H 8.3314 0.384237 4.40427 0
M  V30 67 N 7.3905 -1.2043 1.01659 0
M  V30 68 C 8.6385 -1.89423 0.704522 0
M  V30 69 C 8.9595 -1.79231 -0.768197 0
M  V30 70 O 8.2295 -1.1947 -1.55254 0
M  V30 71 H 6.8095 -0.701178 0.257602 0
M  V30 72 H 9.4715 -1.4626 1.28818 0
M  V30 73 H 8.5675 -2.96052 0.987916 0
M  V30 74 N 8.8686 -0.792821 -1.36206 0
M  V30 75 C 10.0936 -0.377701 -2.03932 0
M  V30 76 C 10.5186 0.998947 -1.59382 0
M  V30 77 O 9.8766 1.64421 -0.763903 0
M  V30 78 C 9.9246 -0.453635 -3.57735 0
M  V30 79 O 9.0286 0.538151 -4.08874 0
M  V30 80 H 8.3696 -0.159855 -0.644471 0
M  V30 81 H 10.8996 -1.07488 -1.7409 0
M  V30 82 H 10.9096 -0.318464 -4.06755 0
M  V30 83 H 9.5846 -1.45784 -3.89512 0
M  V30 84 H 8.1616 0.364359 -3.71116 0
M  V30 85 N 10.3467 1.47872 -0.545128 0
M  V30 86 C 11.7627 1.5829 -0.204032 0
M  V30 87 C 11.9627 1.54529 1.29317 0
M  V30 88 O 11.0187 1.44232 2.07252 0
M  V30 89 C 12.3317 2.89304 -0.819987 0
M  V30 90 C 13.8797 3.02864 -0.790105 0
M  V30 91 C 14.3547 4.3656 -1.38491 0
M  V30 92 N 15.8457 4.43165 -1.34755 0
M  V30 93 C 16.5807 5.45153 -1.77753 0
M  V30 94 N 16.0767 6.54016 -2.2855 0
M  V30 95 N 17.8697 5.36125 -1.68897 0
M  V30 96 H 10.0207 1.4856 -1.51802 0
M  V30 97 H 12.2837 0.706305 -0.632327 0
M  V30 98 H 11.9897 2.97757 -1.87173 0
M  V30 99 H 11.8637 3.75957 -0.305915 0
M  V30 100 H 14.2507 2.94014 0.252913 0
M  V30 101 H 14.3317 2.17782 -1.34181 0
M  V30 102 H 13.9757 4.46164 -2.42693 0
M  V30 103 H 13.9057 5.20353 -0.808754 0
M  V30 104 H 16.3967 3.65083 -0.975855 0
M  V30 105 H 16.7097 7.27994 -2.59314 0
M  V30 106 H 15.0547 6.54938 -2.32553 0
M  V30 107 H 18.2457 4.49975 -1.28998 0
M  V30 108 H 18.4187 6.15472 -2.02726 0
M  V30 109 N 11.8248 0.280983 1.55075 0
M  V30 110 C 13.0528 -0.337293 2.04132 0
M  V30 111 C 13.4678 -1.4903 1.15912 0
M  V30 112 O 12.8248 -1.81606 0.180459 0
M  V30 113 C 12.8758 -0.812706 3.52246 0
M  V30 114 O 12.5968 0.294387 4.3711 0
M  V30 115 C 14.0978 -1.4982 4.17216 0
M  V30 116 H 11.3178 -0.0761638 0.666663 0
M  V30 117 H 13.8618 0.414787 2.00249 0
M  V30 118 H 12.0168 -1.51486 3.56554 0
M  V30 119 H 12.4308 -0.0721325 5.2445 0
M  V30 120 H 13.9048 -1.7822 5.22438 0
M  V30 121 H 14.3818 -2.43168 3.65741 0
M  V30 122 H 14.9878 -0.839742 4.16927 0
M  V30 123 N 13.3029 -1.57598 0.00835791 0
M  V30 124 C 14.2329 -2.1198 -0.979113 0
M  V30 125 C 15.2139 -1.03091 -1.35301 0
M  V30 126 O 16.3989 -1.30818 -1.43528 0
M  V30 127 C 13.5289 -2.62995 -2.26828 0
M  V30 128 C 12.4829 -3.76485 -2.03576 0
M  V30 129 C 11.8089 -4.13846 -3.38579 0
M  V30 130 C 13.1089 -5.0342 -1.39161 0
M  V30 131 H 14.8029 -2.94738 -0.526281 0
M  V30 132 H 12.3489 -1.41783 -0.251704 0
M  V30 133 H 14.3019 -2.99669 -2.96271 0
M  V30 134 H 13.0259 -1.7737 -2.7424 0
M  V30 135 H 11.6849 -3.40217 -1.36557 0
M  V30 136 H 11.3329 -3.25232 -3.83709 0
M  V30 137 H 11.0329 -4.90312 -3.23834 0
M  V30 138 H 12.5569 -4.53086 -4.09323 0
M  V30 139 H 13.9709 -5.37812 -1.98573 0
M  V30 140 H 12.3679 -5.84746 -1.34878 0
M  V30 141 H 13.4379 -4.83548 -0.361868 0
M  V30 142 N 14.781 0.264519 -1.55364 0
M  V30 143 C 16.006 1.01726 -1.80739 0
M  V30 144 C 16.431 1.78836 -0.583044 0
M  V30 145 O 15.789 1.75167 0.467566 0
M  V30 146 C 15.837 1.94482 -3.03659 0
M  V30 147 O 14.941 3.03386 -2.7934 0
M  V30 148 H 14.282 0.290395 -0.597132 0
M  V30 149 H 16.812 0.290854 -2.02522 0
M  V30 150 H 16.822 2.36278 -3.32621 0
M  V30 151 H 15.497 1.37772 -3.92418 0
M  V30 152 H 14.074 2.65844 -2.61498 0
M  V30 153 N 16.2591 1.48442 0.529413 0
M  V30 154 C 17.2061 1.63007 1.63394 0
M  V30 155 C 18.1761 0.47212 1.59249 0
M  V30 156 O 19.3611 0.695673 1.77666 0
M  V30 157 C 16.5011 1.6763 3.01653 0
M  V30 158 C 15.6141 2.94535 3.16027 0
M  V30 159 C 14.7491 2.90316 4.44849 0
M  V30 160 C 13.7881 4.11923 4.52754 0
M  V30 161 N 12.9251 4.05777 5.72965 0
M  V30 162 H 17.7651 2.5733 1.50285 0
M  V30 163 H 15.3021 1.27613 0.731656 0
M  V30 164 H 17.2601 1.68292 3.81751 0
M  V30 165 H 15.8901 0.76797 3.13532 0
M  V30 166 H 14.9421 3.03615 2.29177 0
M  V30 167 H 16.2541 3.84512 3.17729 0
M  V30 168 H 15.4081 2.89382 5.33238 0
M  V30 169 H 14.1471 1.98068 4.45668 0
M  V30 170 H 13.1521 4.13131 3.62771 0
M  V30 171 H 14.3771 5.0533 4.53672 0
M  V30 172 H 12.3231 3.16351 5.74681 0
M  V30 173 H 12.2401 4.8946 5.76164 0
M  V30 174 H 13.5081 4.08904 6.6364 0
M  V30 175 N 17.7372 -0.778329 1.37039 0
M  V30 176 C 19.0142 -1.52551 1.22424 0
M  V30 177 C 19.3942 -2.10288 -0.184964 0
M  V30 178 O 18.7422 -1.94953 -1.19187 0
M  V30 179 C 18.9522 -2.61164 2.31504 0
M  V30 180 C 20.3002 -3.28746 2.68721 0
M  V30 181 O 21.3242 -2.71455 2.30631 0
M  V30 182 O 20.1832 -4.3231 3.3432 0
M  V30 183 H 17.2772 -0.675343 0.477326 0
M  V30 184 H 19.8232 -0.815859 1.48801 0
M  V30 185 H 18.5952 -2.16574 3.25901 0
M  V30 186 H 18.2182 -3.39737 2.06554 0
M  V30 187 N 19.2153 -1.21501 -1.00376 0
M  V30 188 C 20.4923 -0.941745 -1.71437 0
M  V30 189 C 20.8723 0.546114 -2.03914 0
M  V30 190 O 20.2203 1.51128 -1.71384 0
M  V30 191 C 20.4303 -1.82812 -2.97289 0
M  V30 192 C 21.7783 -2.07771 -3.70292 0
M  V30 193 O 22.8023 -1.80171 -3.07273 0
M  V30 194 O 21.6613 -2.54456 -4.83647 0
M  V30 195 H 18.7553 -0.353243 -0.747762 0
M  V30 196 H 21.3013 -1.32436 -1.06108 0
M  V30 197 H 20.0733 -2.83501 -2.69709 0
M  V30 198 H 19.6963 -1.4464 -3.70358 0
M  V30 199 N 20.6934 1.19889 -1.02296 0
M  V30 200 C 21.9394 1.89701 -0.717033 0
M  V30 201 C 22.2724 1.7905 0.751989 0
M  V30 202 O 21.5474 1.17891 1.547 0
M  V30 203 C 21.8304 3.40858 -1.16136 0
M  V30 204 C 21.6834 3.60411 -2.69117 0
M  V30 205 C 23.0024 4.33876 -0.737549 0
M  V30 206 H 20.1214 0.688874 -0.261957 0
M  V30 207 H 22.7634 1.41154 -1.27183 0
M  V30 208 H 20.9134 3.82335 -0.689342 0
M  V30 209 H 22.5854 3.28145 -3.2422 0
M  V30 210 H 20.8284 3.03665 -3.0979 0
M  V30 211 H 21.4994 4.66396 -2.95261 0
M  V30 212 H 23.9754 4.00081 -1.14344 0
M  V30 213 H 22.8514 5.38242 -1.0764 0
M  V30 214 H 23.1124 4.40628 0.360436 0
M  V30 215 N 22.1715 0.800033 1.35784 0
M  V30 216 C 23.1195 0.193851 2.31791 0
M  V30 217 C 24.1135 -0.652744 1.56319 0
M  V30 218 O 25.3195 -0.546641 1.71499 0
M  V30 219 H 21.6945 0.04392 0.750716 0
M  V30 220 H 23.6655 1.01883 2.80468 0
M  V30 221 C 22.4145 -0.648338 3.41602 0
M  V30 222 H 21.7375 -0.00624665 3.998 0
M  V30 223 H 23.1775 -1.03898 4.11073 0
M  V30 224 C 21.6365 -1.8111 2.84079 0
M  V30 225 O 22.1665 -2.90825 2.77099 0
M  V30 226 N 20.3725 -1.62056 2.41218 0
M  V30 227 H 19.9195 -0.728123 2.47095 0
M  V30 228 H 19.8775 -2.40013 2.03079 0
M  V30 229 N 23.6496 -1.47581 0.552962 0
M  V30 230 C 24.8796 -2.06575 0.0320091 0
M  V30 231 C 25.2876 -1.4067 -1.26525 0
M  V30 232 O 24.6306 -0.495808 -1.76883 0
M  V30 233 C 24.6926 -3.58705 -0.238913 0
M  V30 234 C 24.3566 -4.46625 0.968272 0
M  V30 235 C 25.3536 -4.85 1.87274 0
M  V30 236 C 23.0386 -4.88201 1.18175 0
M  V30 237 C 25.0326 -5.63745 2.9744 0
M  V30 238 C 22.7196 -5.66712 2.28651 0
M  V30 239 C 23.7176 -6.04394 3.18114 0
M  V30 240 O 23.4056 -6.81324 4.26676 0
M  V30 241 H 23.1376 -0.674763 0.0408689 0
M  V30 242 H 25.6916 -1.90634 0.764719 0
M  V30 243 H 23.9216 -3.72844 -1.02588 0
M  V30 244 H 25.6106 -3.99735 -0.704731 0
M  V30 245 H 26.3766 -4.53482 1.71984 0
M  V30 246 H 22.2556 -4.58339 0.494593 0
M  V30 247 H 25.7996 -5.93077 3.67296 0
M  V30 248 H 21.6966 -5.97642 2.43915 0
M  V30 249 H 22.4646 -6.99712 4.24671 0
M  V30 250 N 25.1277 -0.289203 -1.54924 0
M  V30 251 C 26.0747 0.592115 -2.23075 0
M  V30 252 C 27.0447 1.13881 -1.20915 0
M  V30 253 O 28.2297 1.18551 -1.495 0
M  V30 254 C 25.3697 1.76376 -2.96623 0
M  V30 255 C 24.4827 1.24959 -4.13533 0
M  V30 256 C 23.6177 2.38416 -4.74691 0
M  V30 257 C 22.6567 1.84072 -5.83767 0
M  V30 258 N 21.7937 2.91057 -6.38929 0
M  V30 259 H 26.6337 0.00432038 -2.98 0
M  V30 260 H 24.1707 -0.00963529 -1.47097 0
M  V30 261 H 26.1287 2.45268 -3.3749 0
M  V30 262 H 24.7587 2.32337 -2.24097 0
M  V30 263 H 23.8107 0.453307 -3.77689 0
M  V30 264 H 25.1227 0.811662 -4.92152 0
M  V30 265 H 24.2767 3.15276 -5.18349 0
M  V30 266 H 23.0157 2.8553 -3.95378 0
M  V30 267 H 22.0207 1.05697 -5.39545 0
M  V30 268 H 23.2457 1.37877 -6.64956 0
M  V30 269 H 21.1917 3.37526 -5.62505 0
M  V30 270 H 21.1087 2.51724 -7.12861 0
M  V30 271 H 22.3767 3.6785 -6.87246 0
M  V30 272 N 26.6058 1.57591 -0.0167156 0
M  V30 273 C 27.5388 2.04944 1.00366 0
M  V30 274 C 28.5168 0.942648 1.32487 0
M  V30 275 O 29.7008 1.21205 1.44367 0
M  V30 276 C 26.8278 2.46109 2.32697 0
M  V30 277 C 25.8738 3.67686 2.16123 0
M  V30 278 S 26.7068 5.14882 1.47161 0
M  V30 279 C 27.8628 5.59332 2.80888 0
M  V30 280 H 28.0958 2.91172 0.600528 0
M  V30 281 H 25.6288 1.53168 0.194632 0
M  V30 282 H 27.5868 2.70493 3.08778 0
M  V30 283 H 26.2478 1.6025 2.70146 0
M  V30 284 H 25.4408 3.94296 3.13922 0
M  V30 285 H 25.0428 3.43391 1.48185 0
M  V30 286 H 27.3348 5.62814 3.77156 0
M  V30 287 H 28.2778 6.5905 2.58958 0
M  V30 288 H 28.6858 4.86942 2.85565 0
M  V30 289 N 28.0839 -0.256276 1.55502 0
M  V30 290 C 29.0339 -1.31981 1.85916 0
M  V30 291 C 30.0179 -1.43927 0.719296 0
M  V30 292 O 31.2099 -1.47326 0.981019 0
M  V30 293 C 28.3389 -2.67703 2.14918 0
M  V30 294 C 27.4249 -2.59801 3.35208 0
M  V30 295 N 27.8159 -2.21524 4.54709 0
M  V30 296 C 26.1139 -2.90832 3.38131 0
M  V30 297 C 26.8149 -2.24024 5.36832 0
M  V30 298 N 25.7909 -2.63158 4.75656 0
M  V30 299 H 29.5929 -1.01423 2.75845 0
M  V30 300 H 27.1069 -0.464911 1.55603 0
M  V30 301 H 29.1039 -3.44445 2.34869 0
M  V30 302 H 27.7639 -2.99137 1.26282 0
M  V30 303 H 28.7749 -1.93223 4.80505 0
M  V30 304 H 25.4519 -3.26867 2.59739 0
M  V30 305 H 26.8419 -1.9685 6.42417 0
M  V30 306 N 29.562 -1.4872 -0.521534 0
M  V30 307 C 30.809 -1.57168 -1.27689 0
M  V30 308 C 31.137 -0.249275 -1.92896 0
M  V30 309 O 30.392 0.761162 -1.80291 0
M  V30 310 C 30.691 -2.66497 -2.38148 0
M  V30 311 C 30.357 -4.08664 -1.90538 0
M  V30 312 C 29.019 -4.47357 -1.77271 0
M  V30 313 C 31.371 -4.97724 -1.54663 0
M  V30 314 C 28.699 -5.72905 -1.26478 0
M  V30 315 C 31.051 -6.2377 -1.05329 0
M  V30 316 C 29.715 -6.61311 -0.906861 0
M  V30 317 H 28.985 -0.575117 -0.467249 0
M  V30 318 H 31.632 -1.82472 -0.581051 0
M  V30 319 H 29.937 -2.35085 -3.13437 0
M  V30 320 H 31.634 -2.70246 -2.96257 0
M  V30 321 H 28.224 -3.78111 -2.01816 0
M  V30 322 H 32.408 -4.68501 -1.63768 0
M  V30 323 H 27.664 -6.00709 -1.13835 0
M  V30 324 H 31.838 -6.9217 -0.76644 0
M  V30 325 H 29.465 -7.5848 -0.511083 0
M  V30 326 N 31.0401 0.771051 -1.3745 0
M  V30 327 C 32.4561 1.07171 -1.18265 0
M  V30 328 C 32.6561 2.01491 -0.019287 0
M  V30 329 O 31.7121 2.44244 0.640408 0
M  V30 330 C 33.0251 1.66854 -2.50161 0
M  V30 331 C 34.5731 1.79109 -2.56689 0
M  V30 332 C 35.0481 2.42205 -3.88717 0
M  V30 333 N 36.5391 2.49655 -3.90162 0
M  V30 334 C 37.2741 2.9933 -4.8907 0
M  V30 335 N 36.7701 3.49172 -5.98374 0
M  V30 336 N 38.5631 2.9821 -4.76474 0
M  V30 337 H 30.7141 0.144796 -2.11906 0
M  V30 338 H 32.9771 0.126863 -0.939473 0
M  V30 339 H 32.6831 1.05017 -3.35655 0
M  V30 340 H 32.5571 2.6614 -2.673 0
M  V30 341 H 34.9441 2.40077 -1.71601 0
M  V30 342 H 35.0251 0.785757 -2.43433 0
M  V30 343 H 34.6691 1.81875 -4.74219 0
M  V30 344 H 34.5991 3.43345 -3.99276 0
M  V30 345 H 37.0901 2.14383 -3.11205 0
M  V30 346 H 37.4031 3.8548 -6.69795 0
M  V30 347 H 35.7481 3.47275 -6.02018 0
M  V30 348 H 38.9391 2.58572 -3.90203 0
M  V30 349 H 39.1121 3.36613 -5.53711 0
M  V30 350 N 32.5182 1.22032 0.997298 0
M  V30 351 C 33.4512 0.929735 2.08401 0
M  V30 352 C 34.4292 -0.125681 1.62114 0
M  V30 353 O 35.6132 0.00495409 1.88499 0
M  V30 354 C 32.7402 0.397488 3.3636 0
M  V30 355 C 31.7862 1.4369 4.01566 0
M  V30 356 S 32.6192 3.00874 4.42984 0
M  V30 357 C 33.7752 2.49276 5.74119 0
M  V30 358 H 34.0082 1.84998 2.32729 0
M  V30 359 H 31.5412 1.0509 1.13117 0
M  V30 360 H 33.4992 0.0969846 4.10385 0
M  V30 361 H 32.1602 -0.501571 3.10069 0
M  V30 362 H 31.3532 1.01427 4.93689 0
M  V30 363 H 30.9552 1.68588 3.33847 0
M  V30 364 H 33.2472 1.90242 6.50242 0
M  V30 365 H 34.1902 3.39872 6.21203 0
M  V30 366 H 34.5982 1.90714 5.31308 0
M  V30 367 N 33.9963 -1.19345 1.0293 0
M  V30 368 C 35.2453 -1.88363 0.721256 0
M  V30 369 C 35.5583 -1.80514 -0.753254 0
M  V30 370 O 36.7643 -2.44788 -1.17436 0
M  V30 371 C 35.2203 -3.37872 1.23978 0
M  V30 372 C 34.8283 -3.54278 2.74211 0
M  V30 373 C 36.5723 -4.12365 1.00775 0
M  V30 374 C 34.4793 -4.97682 3.19479 0
M  V30 375 H 33.4093 -0.705484 0.266098 0
M  V30 376 H 36.0603 -1.34928 1.24365 0
M  V30 377 H 34.4423 -3.90707 0.6453 0
M  V30 378 H 35.6163 -3.11769 3.39318 0
M  V30 379 H 33.9313 -2.93174 2.95699 0
M  V30 380 H 36.5283 -5.18119 1.32123 0
M  V30 381 H 36.8713 -4.16263 -0.0554308 0
M  V30 382 H 37.4043 -3.65668 1.56625 0
M  V30 383 H 34.1433 -4.98945 4.25128 0
M  V30 384 H 33.6633 -5.4095 2.591 0
M  V30 385 H 35.3423 -5.66337 3.12845 0
M  V30 386 N 35.4744 -0.807222 -1.35358 0
M  V30 387 C 36.4224 -0.20614 -2.31685 0
M  V30 388 C 37.4164 0.644445 -1.56663 0
M  V30 389 O 38.6224 0.537538 -1.71786 0
M  V30 390 H 34.9974 -0.0479006 -0.750473 0
M  V30 391 H 36.9684 -1.03369 -2.79924 0
M  V30 392 C 35.7174 0.630212 -3.41941 0
M  V30 393 H 35.0404 -0.0149558 -3.99797 0
M  V30 394 H 36.4804 1.01716 -4.11619 0
M  V30 395 C 34.9394 1.79601 -2.85035 0
M  V30 396 O 35.4694 2.89351 -2.78637 0
M  V30 397 N 33.6754 1.60774 -2.42074 0
M  V30 398 H 33.2224 0.715009 -2.47478 0
M  V30 399 H 33.1804 2.38933 -2.04349 0
M  V30 400 N 36.9525 1.47285 -0.560781 0
M  V30 401 C 37.8625 2.33846 0.187954 0
M  V30 402 C 38.8785 1.48412 0.908293 0
M  V30 403 O 40.0545 1.81332 0.876388 0
M  V30 404 C 37.1195 3.25178 1.2025 0
M  V30 405 C 36.1805 4.26504 0.489208 0
M  V30 406 C 35.4135 5.13472 1.45542 0
M  V30 407 O 35.6365 5.02959 2.6905 0
M  V30 408 O 34.5705 5.93902 0.977963 0
M  V30 409 H 38.3965 2.99177 -0.522177 0
M  V30 410 H 35.9815 1.45903 -0.321364 0
M  V30 411 H 37.8635 3.81584 1.78805 0
M  V30 412 H 36.5385 2.6247 1.89449 0
M  V30 413 H 35.4455 3.73847 -0.137627 0
M  V30 414 H 36.7785 4.91935 -0.161399 0
M  V30 415 N 38.4306 0.297415 1.54768 0
M  V30 416 C 39.3626 -0.613881 2.20826 0
M  V30 417 C 40.3756 -1.10032 1.19987 0
M  V30 418 O 41.5646 -1.01839 1.46598 0
M  V30 419 C 38.6646 -1.852 2.83821 0
M  V30 420 C 37.8376 -1.50865 4.10559 0
M  V30 421 C 36.8966 -2.60154 4.57391 0
M  V30 422 O 35.9226 -2.25398 5.2267 0
M  V30 423 N 37.1246 -3.90629 4.29406 0
M  V30 424 H 39.8896 -0.048389 2.99661 0
M  V30 425 H 37.4506 0.11946 1.61459 0
M  V30 426 H 39.4426 -2.57652 3.12086 0
M  V30 427 H 38.0126 -2.32597 2.08847 0
M  V30 428 H 37.2326 -0.616925 3.89343 0
M  V30 429 H 38.5206 -1.25458 4.9309 0
M  V30 430 H 37.9186 -4.21677 3.77101 0
M  V30 431 H 36.4756 -4.59391 4.62388 0
M  V30 432 N 39.9087 -1.5758 0.0250728 0
M  V30 433 C 40.8407 -2.06869 -0.986796 0
M  V30 434 C 41.8537 -0.991332 -1.29137 0
M  V30 435 O 43.0427 -1.26761 -1.25674 0
M  V30 436 C 40.1427 -2.47486 -2.31525 0
M  V30 437 C 39.3157 -3.78253 -2.19643 0
M  V30 438 C 38.3747 -4.05464 -3.35388 0
M  V30 439 O 37.4007 -4.75774 -3.12454 0
M  V30 440 N 38.6027 -3.55321 -4.59051 0
M  V30 441 H 41.3677 -2.94302 -0.566276 0
M  V30 442 H 38.9287 -1.6109 -0.161776 0
M  V30 443 H 40.9207 -2.62785 -3.07776 0
M  V30 444 H 39.4907 -1.65441 -2.65232 0
M  V30 445 H 38.7107 -3.7279 -1.28144 0
M  V30 446 H 39.9987 -4.63936 -2.08903 0
M  V30 447 H 39.3967 -2.98431 -4.80578 0
M  V30 448 H 37.9537 -3.75905 -5.32483 0
M  V30 449 N 41.3868 0.248026 -1.55636 0
M  V30 450 C 42.6328 0.97767 -1.77678 0
M  V30 451 C 42.9658 1.85016 -0.590135 0
M  V30 452 O 42.2408 1.90095 0.411611 0
M  V30 453 C 42.5238 1.83914 -3.09593 0
M  V30 454 C 42.3768 0.99491 -4.38659 0
M  V30 455 C 43.6958 2.82183 -3.37729 0
M  V30 456 H 40.8148 0.354005 -0.646413 0
M  V30 457 H 43.4568 0.248253 -1.88371 0
M  V30 458 H 41.6068 2.46104 -3.00608 0
M  V30 459 H 43.2788 0.391789 -4.59633 0
M  V30 460 H 41.5218 0.299231 -4.32767 0
M  V30 461 H 42.1928 1.63145 -5.2734 0
M  V30 462 H 44.6688 2.30129 -3.4667 0
M  V30 463 H 43.5448 3.39582 -4.31249 0
M  V30 464 H 43.8058 3.58588 -2.58586 0
M  V30 465 N 42.8649 1.48995 0.513639 0
M  V30 466 C 43.7749 1.67443 1.64317 0
M  V30 467 C 44.7909 0.556947 1.64846 0
M  V30 468 O 45.9669 0.830082 1.83498 0
M  V30 469 C 43.0319 1.72515 3.00732 0
M  V30 470 C 42.0929 2.96009 3.1093 0
M  V30 471 C 41.3259 3.00829 4.40837 0
M  V30 472 O 41.5489 2.13594 5.28898 0
M  V30 473 O 40.4829 3.93168 4.55744 0
M  V30 474 H 44.3089 2.63106 1.51687 0
M  V30 475 H 41.8939 1.32588 0.688543 0
M  V30 476 H 43.7759 1.78277 3.81831 0
M  V30 477 H 42.4509 0.800278 3.13651 0
M  V30 478 H 41.3579 2.9577 2.29065 0
M  V30 479 H 42.6909 3.87934 3.02933 0
M  V30 480 N 44.343 -0.763751 1.37857 0
M  V30 481 C 45.62 -1.51244 1.24035 0
M  V30 482 C 46 -2.10472 -0.162649 0
M  V30 483 O 45.348 -1.96206 -1.17112 0
M  V30 484 C 45.558 -2.58694 2.34261 0
M  V30 485 C 46.906 -3.25878 2.72193 0
M  V30 486 O 47.93 -2.68993 2.33497 0
M  V30 487 O 46.789 -4.2874 3.38887 0
M  V30 488 H 43.883 -0.670243 0.484462 0
M  V30 489 H 46.429 -0.800031 1.49658 0
M  V30 490 H 45.201 -2.13105 3.2818 0
M  V30 491 H 44.824 -3.37527 2.10146 0
M  V30 492 N 45.8211 -1.22559 -0.990812 0
M  V30 493 C 47.0701 -1.04553 -1.72486 0
M  V30 494 C 47.3831 0.419349 -1.91052 0
M  V30 495 O 48.5891 0.719121 -2.61803 0
M  V30 496 C 47.0451 -1.82231 -3.10355 0
M  V30 497 C 46.6531 -3.32981 -2.99713 0
M  V30 498 C 48.3971 -1.7268 -3.87791 0
M  V30 499 C 46.3041 -4.03091 -4.32748 0
M  V30 500 H 45.2341 -0.387614 -0.646739 0
M  V30 501 H 47.8851 -1.46429 -1.10593 0
M  V30 502 H 46.2671 -1.33155 -3.72942 0
M  V30 503 H 47.4411 -3.89466 -2.46278 0
M  V30 504 H 45.7561 -3.43231 -2.35758 0
M  V30 505 H 48.3531 -2.22381 -4.86262 0
M  V30 506 H 48.6961 -0.687607 -4.10582 0
M  V30 507 H 49.2291 -2.1931 -3.31885 0
M  V30 508 H 45.9681 -5.07273 -4.15156 0
M  V30 509 H 45.4881 -3.51394 -4.86089 0
M  V30 510 H 47.1671 -4.08804 -5.01486 0
M  V30 511 N 47.2992 1.18797 -1.03562 0
M  V30 512 C 48.5272 1.92599 -0.755869 0
M  V30 513 C 48.9422 1.75886 0.686271 0
M  V30 514 O 48.2992 1.08517 1.46732 0
M  V30 515 C 48.3502 3.44159 -1.10619 0
M  V30 516 O 48.0712 3.60341 -2.4917 0
M  V30 517 C 49.5722 4.3507 -0.850214 0
M  V30 518 H 46.7922 0.611587 -0.276048 0
M  V30 519 H 49.3362 1.50742 -1.38192 0
M  V30 520 H 47.4912 3.83823 -0.525194 0
M  V30 521 H 47.9052 4.54128 -2.62427 0
M  V30 522 H 49.3792 5.39989 -1.14523 0
M  V30 523 H 49.8562 4.38673 0.215176 0
M  V30 524 H 50.4622 4.01097 -1.41426 0
M  V30 525 N 48.7773 0.814389 1.34928 0
M  V30 526 C 50.0263 0.394871 1.97797 0
M  V30 527 C 50.3393 -1.04555 1.65311 0
M  V30 528 O 51.5453 -1.56856 2.21604 0
M  V30 529 C 50.0013 0.655103 3.53888 0
M  V30 530 C 49.6093 2.10858 3.95276 0
M  V30 531 C 51.3533 0.301329 4.23429 0
M  V30 532 C 49.2603 2.31415 5.44244 0
M  V30 533 H 48.1903 0.143913 0.740139 0
M  V30 534 H 50.8413 0.999544 1.53888 0
M  V30 535 H 49.2233 -0.0196253 3.95995 0
M  V30 536 H 50.3973 2.82176 3.64298 0
M  V30 537 H 48.7123 2.42297 3.38646 0
M  V30 538 H 51.3093 0.432869 5.32945 0
M  V30 539 H 51.6523 -0.75331 4.09428 0
M  V30 540 H 52.1853 0.930288 3.86769 0
M  V30 541 H 48.9243 3.35353 5.63222 0
M  V30 542 H 48.4443 1.6463 5.76764 0
M  V30 543 H 50.1233 2.13352 6.10811 0
M  V30 544 N 50.2554 -1.46986 0.568584 0
M  V30 545 C 51.5324 -1.95592 -0.0174074 0
M  V30 546 C 51.9124 -1.51124 -1.47393 0
M  V30 547 O 51.2604 -0.755329 -2.15655 0
M  V30 548 C 51.4704 -3.48719 0.139913 0
M  V30 549 C 52.8184 -4.246 0.000426376 0
M  V30 550 O 53.8424 -3.56135 0.0680316 0
M  V30 551 O 52.7014 -5.46302 -0.146988 0
M  V30 552 H 49.7954 -0.82498 -0.0577599 0
M  V30 553 H 52.3414 -1.57335 0.635909 0
M  V30 554 H 51.1134 -3.73927 1.15301 0
M  V30 555 H 50.7364 -3.93771 -0.550491 0
M  V30 556 N 51.7335 -0.305618 -1.54608 0
M  V30 557 C 52.9805 0.302298 -2.00231 0
M  V30 558 C 53.3085 1.5354 -1.19398 0
M  V30 559 O 52.5635 1.93973 -0.259423 0
M  V30 560 C 52.8625 0.698983 -3.50498 0
M  V30 561 C 52.5285 -0.432903 -4.48817 0
M  V30 562 C 51.1905 -0.743622 -4.75419 0
M  V30 563 C 53.5425 -1.19409 -5.07337 0
M  V30 564 C 50.8705 -1.81857 -5.57804 0
M  V30 565 C 53.2225 -2.25899 -5.90891 0
M  V30 566 C 51.8865 -2.57572 -6.15803 0
M  V30 567 H 51.1565 0.110619 -0.732697 0
M  V30 568 H 53.8035 -0.425674 -1.86709 0
M  V30 569 H 52.1085 1.50711 -3.61654 0
M  V30 570 H 53.8055 1.1806 -3.83227 0
M  V30 571 H 50.3955 -0.18063 -4.28219 0
M  V30 572 H 54.5795 -0.967295 -4.86782 0
M  V30 573 H 49.8355 -2.06864 -5.75341 0
M  V30 574 H 54.0095 -2.85335 -6.35261 0
M  V30 575 H 51.6365 -3.40998 -6.7943 0
M  V30 576 N 53.2116 1.57565 -0.0334293 0
M  V30 577 C 54.4586 1.91978 0.644272 0
M  V30 578 C 54.7866 0.910231 1.71887 0
M  V30 579 O 54.0416 -0.0801961 1.95536 0
M  V30 580 C 54.3406 3.33112 1.29504 0
M  V30 581 C 54.0066 4.49537 0.350388 0
M  V30 582 C 52.6686 4.81115 0.0903974 0
M  V30 583 C 55.0206 5.20347 -0.298032 0
M  V30 584 C 52.3486 5.8086 -0.825746 0
M  V30 585 C 54.7006 6.2107 -1.20226 0
M  V30 586 C 53.3646 6.51088 -1.4711 0
M  V30 587 H 52.6346 0.702496 0.235756 0
M  V30 588 H 55.2816 1.91259 -0.0961176 0
M  V30 589 H 53.5866 3.30113 2.11028 0
M  V30 590 H 55.2836 3.57011 1.82603 0
M  V30 591 H 51.8736 4.24883 0.563205 0
M  V30 592 H 56.0576 4.96178 -0.110234 0
M  V30 593 H 51.3136 6.02461 -1.04169 0
M  V30 594 H 55.4876 6.75057 -1.71086 0
M  V30 595 H 53.1146 7.28193 -2.18264 0
M  V30 596 N 54.6897 -0.239769 1.55765 0
M  V30 597 C 55.9197 -0.982743 1.8173 0
M  V30 598 C 56.3277 -1.7917 0.607835 0
M  V30 599 O 55.6707 -1.78525 -0.432973 0
M  V30 600 C 55.7327 -1.96332 3.01155 0
M  V30 601 C 55.3967 -1.34062 4.36894 0
M  V30 602 C 56.3937 -0.739539 5.14613 0
M  V30 603 C 54.0787 -1.35784 4.83599 0
M  V30 604 C 56.0727 -0.163989 6.37189 0
M  V30 605 C 53.7597 -0.778441 6.06122 0
M  V30 606 C 54.7577 -0.182548 6.82756 0
M  V30 607 O 54.4457 0.387887 8.02964 0
M  V30 608 H 54.1777 -0.294481 0.608487 0
M  V30 609 H 56.7317 -0.26572 2.03674 0
M  V30 610 H 54.9617 -2.71884 2.74984 0
M  V30 611 H 56.6507 -2.57032 3.14149 0
M  V30 612 H 57.4167 -0.718687 4.79646 0
M  V30 613 H 53.2957 -1.81105 4.23936 0
M  V30 614 H 56.8397 0.301753 6.96947 0
M  V30 615 H 52.7367 -0.796645 6.40565 0
M  V30 616 H 53.5047 0.28044 8.18019 0
M  V30 617 N 56.1678 -1.49265 -0.50573 0
M  V30 618 C 57.5838 -1.35923 -0.836486 0
M  V30 619 C 57.7838 -0.388704 -1.97715 0
M  V30 620 O 56.8398 0.181336 -2.51848 0
M  V30 621 C 58.1528 -2.76531 -1.18115 0
M  V30 622 C 59.7008 -2.85197 -1.28964 0
M  V30 623 C 60.1758 -4.26561 -1.66761 0
M  V30 624 N 61.6668 -4.2935 -1.73819 0
M  V30 625 C 62.4018 -5.35693 -2.045 0
M  V30 626 N 61.8978 -6.52287 -2.33438 0
M  V30 627 N 63.6908 -5.23105 -2.05711 0
M  V30 628 H 55.8418 -2.10965 0.246519 0
M  V30 629 H 58.1048 -0.9468 0.0476887 0
M  V30 630 H 57.8108 -3.49226 -0.416398 0
M  V30 631 H 57.6848 -3.11599 -2.1257 0
M  V30 632 H 60.0718 -2.12742 -2.04511 0
M  V30 633 H 60.1528 -2.53718 -0.325704 0
M  V30 634 H 59.7968 -4.99541 -0.917656 0
M  V30 635 H 59.7268 -4.55502 -2.64246 0
M  V30 636 H 62.2178 -3.4526 -1.53635 0
M  V30 637 H 62.5308 -7.29158 -2.56024 0
M  V30 638 H 60.8758 -6.55521 -2.30905 0
M  V30 639 H 64.0668 -4.31026 -1.82577 0
M  V30 640 H 64.2398 -6.06078 -2.29289 0
M  V30 641 N 57.6459 0.756429 -1.3826 0
M  V30 642 C 59.0569 1.33359 -1.30661 0
M  V30 643 C 59.4079 1.96161 0.0388875 0
M  V30 644 O 58.5329 1.94874 0.940918 0
M  V30 645 C 59.1279 2.42477 -2.36622 0
M  V30 646 C 57.6869 2.95922 -2.3261 0
M  V30 647 C 56.8339 1.69275 -2.19639 0
M  V30 648 H 59.7849 0.55552 -1.4866 0
M  V30 649 H 59.8059 3.22345 -2.02174 0
M  V30 650 H 59.3179 1.96739 -3.34538 0
M  V30 651 H 57.4189 3.45996 -1.38267 0
M  V30 652 H 57.5319 3.50494 -3.26636 0
M  V30 653 H 55.8959 1.92793 -1.66442 0
M  V30 654 H 56.6789 1.25619 -3.19491 0
M  V30 655 N 59.124 1.23083 0.984299 0
M  V30 656 C 60.074 0.975749 2.06066 0
M  V30 657 C 61.058 -0.0768251 1.60716 0
M  V30 658 O 62.25 0.134805 1.76486 0
M  V30 659 C 59.379 0.564673 3.38624 0
M  V30 660 C 58.465 1.65244 3.90583 0
M  V30 661 N 58.856 2.88193 4.15666 0
M  V30 662 C 57.154 1.52612 4.19077 0
M  V30 663 C 57.855 3.58593 4.58024 0
M  V30 664 N 56.831 2.86093 4.62225 0
M  V30 665 H 60.633 1.90957 2.23411 0
M  V30 666 H 58.147 1.12963 1.16675 0
M  V30 667 H 60.144 0.36322 4.15315 0
M  V30 668 H 58.804 -0.362147 3.22674 0
M  V30 669 H 59.815 3.24537 4.03604 0
M  V30 670 H 56.492 0.666121 4.12152 0
M  V30 671 H 57.882 4.63974 4.85982 0
M  V30 672 N 60.6021 -1.18246 1.0419 0
M  V30 673 C 61.8301 -1.92195 0.766072 0
M  V30 674 C 62.2451 -1.76247 -0.676933 0
M  V30 675 O 61.6021 -1.09293 -1.46155 0
M  V30 676 C 61.6531 -3.43568 1.12442 0
M  V30 677 O 61.3741 -3.59015 2.51078 0
M  V30 678 C 62.8751 -4.34613 0.873275 0
M  V30 679 H 60.0951 -0.610114 0.279288 0
M  V30 680 H 62.6391 -1.50007 1.38989 0
M  V30 681 H 60.7941 -3.8354 0.545542 0
M  V30 682 H 61.2081 -4.5273 2.64831 0
M  V30 683 H 62.6821 -5.39374 1.17385 0
M  V30 684 H 63.1591 -4.38781 -0.191909 0
M  V30 685 H 63.7651 -4.00341 1.43551 0
M  V30 686 N 62.0802 -0.821533 -1.34494 0
M  V30 687 C 63.3292 -0.405355 -1.97585 0
M  V30 688 C 63.6422 1.03677 -1.65863 0
M  V30 689 O 64.8482 1.55679 -2.22433 0
M  V30 690 C 63.3042 -0.673861 -3.53535 0
M  V30 691 C 62.9122 -2.12951 -3.94152 0
M  V30 692 C 64.6562 -0.32378 -4.23263 0
M  V30 693 C 62.5632 -2.34298 -5.43009 0
M  V30 694 H 61.4932 -0.147836 -0.739365 0
M  V30 695 H 64.1442 -1.00769 -1.53355 0
M  V30 696 H 62.5262 -0.00137554 -3.96 0
M  V30 697 H 63.7002 -2.84104 -3.62797 0
M  V30 698 H 62.0152 -2.44089 -3.37356 0
M  V30 699 H 64.6122 -0.461126 -5.32708 0
M  V30 700 H 64.9552 0.731586 -4.09821 0
M  V30 701 H 65.4882 -0.950786 -3.8627 0
M  V30 702 H 62.2272 -3.38335 -5.61435 0
M  V30 703 H 61.7472 -1.67687 -5.75883 0
M  V30 704 H 63.4262 -2.16588 -6.09671 0
M  V30 705 N 63.5583 1.46682 -0.576371 0
M  V30 706 C 64.7863 2.06798 -0.0649635 0
M  V30 707 C 65.2013 1.42612 1.23723 0
M  V30 708 O 64.5583 0.529203 1.74659 0
M  V30 709 C 64.6093 3.6132 0.114202 0
M  V30 710 O 64.3303 4.23104 -1.13644 0
M  V30 711 C 65.8313 4.38349 0.66069 0
M  V30 712 H 63.0513 0.668778 -0.0545616 0
M  V30 713 H 65.5953 1.88404 -0.795237 0
M  V30 714 H 63.7503 3.79162 0.794673 0
M  V30 715 H 64.1643 5.15894 -0.946253 0
M  V30 716 H 65.6383 5.47081 0.73526 0
M  V30 717 H 66.1153 4.05953 1.67627 0
M  V30 718 H 66.7213 4.25297 0.0152951 0
M  V30 719 N 65.0364 0.313813 1.54444 0
M  V30 720 C 65.9664 -0.549454 2.26943 0
M  V30 721 C 66.9474 -1.12741 1.27372 0
M  V30 722 O 68.1324 -1.15436 1.56167 0
M  V30 723 C 65.2624 -1.71523 3.01989 0
M  V30 724 C 64.2164 -1.26703 4.08816 0
M  V30 725 C 63.5424 -2.51898 4.71647 0
M  V30 726 C 64.8424 -0.388962 5.2085 0
M  V30 727 H 66.5364 0.0552661 2.99349 0
M  V30 728 H 64.0824 0.0280207 1.43973 0
M  V30 729 H 66.0354 -2.32535 3.51433 0
M  V30 730 H 64.7594 -2.34639 2.27183 0
M  V30 731 H 63.4184 -0.679896 3.6024 0
M  V30 732 H 63.0664 -3.13356 3.93468 0
M  V30 733 H 62.7664 -2.22605 5.43802 0
M  V30 734 H 64.2904 -3.1369 5.23861 0
M  V30 735 H 65.7044 -0.905107 5.6611 0
M  V30 736 H 64.1014 -0.18924 5.99802 0
M  V30 737 H 65.1714 0.582699 4.81386 0
M  V30 738 N 66.5145 -1.57545 0.0417849 0
M  V30 739 C 67.4445 -2.14009 -0.933929 0
M  V30 740 C 68.4255 -1.05938 -1.33083 0
M  V30 741 O 69.6105 -1.33833 -1.40721 0
M  V30 742 C 66.7405 -2.67747 -2.21199 0
M  V30 743 C 65.6945 -3.80718 -1.95544 0
M  V30 744 C 65.0205 -4.20935 -3.29724 0
M  V30 745 C 66.3205 -5.06258 -1.28452 0
M  V30 746 H 68.0145 -2.95788 -0.463645 0
M  V30 747 H 65.5605 -1.42285 -0.221573 0
M  V30 748 H 67.5135 -3.05886 -2.89848 0
M  V30 749 H 66.2375 -1.83147 -2.70416 0
M  V30 750 H 64.8965 -3.43037 -1.2931 0
M  V30 751 H 64.5445 -3.33298 -3.76724 0
M  V30 752 H 64.2445 -4.9707 -3.13361 0
M  V30 753 H 65.7685 -4.61666 -3.9962 0
M  V30 754 H 67.1825 -5.41903 -1.8712 0
M  V30 755 H 65.5795 -5.87475 -1.22445 0
M  V30 756 H 66.6495 -4.84207 -0.259219 0
M  V30 757 N 67.9926 0.231505 -1.5589 0
M  V30 758 C 69.2176 0.978689 -1.82856 0
M  V30 759 C 69.6426 1.77559 -0.620846 0
M  V30 760 O 69.0006 1.76119 0.430305 0
M  V30 761 C 69.0486 1.87997 -3.07716 0
M  V30 762 O 68.1526 2.97393 -2.85712 0
M  V30 763 H 67.4936 0.277663 -0.603158 0
M  V30 764 H 70.0236 0.24783 -2.03093 0
M  V30 765 H 70.0336 2.2917 -3.37558 0
M  V30 766 H 68.7086 1.29417 -3.95252 0
M  V30 767 H 67.2856 2.60238 -2.67078 0
M  V30 768 N 69.4707 1.49531 0.497807 0
M  V30 769 C 70.7177 1.59179 1.25173 0
M  V30 770 C 71.0457 0.279932 1.92475 0
M  V30 771 O 70.3007 -0.732383 1.81479 0
M  V30 772 C 70.5997 2.70252 2.33878 0
M  V30 773 C 70.2657 4.11644 1.84012 0
M  V30 774 C 68.9277 4.50121 1.70132 0
M  V30 775 C 71.2797 5.00121 1.46725 0
M  V30 776 C 68.6077 5.74845 1.17348 0
M  V30 777 C 70.9597 6.25366 0.95392 0
M  V30 778 C 69.6237 6.6267 0.801538 0
M  V30 779 H 68.8937 0.582478 0.45804 0
M  V30 780 H 71.5407 1.83373 0.551948 0
M  V30 781 H 69.8457 2.40041 3.09657 0
M  V30 782 H 71.5427 2.74925 2.9192 0
M  V30 783 H 68.1327 3.81274 1.95775 0
M  V30 784 H 72.3167 4.71048 1.56294 0
M  V30 785 H 67.5727 6.02444 1.04264 0
M  V30 786 H 71.7467 6.93301 0.656225 0
M  V30 787 H 69.3737 7.59197 0.390351 0
M  V30 788 N 70.9488 -0.749086 1.3866 0
M  V30 789 C 72.1768 -1.53834 1.38358 0
M  V30 790 C 72.5918 -1.88783 -0.0255219 0
M  V30 791 O 71.9488 -1.53101 -0.993292 0
M  V30 792 C 71.9998 -2.83468 2.2434 0
M  V30 793 O 71.7208 -2.50008 3.5976 0
M  V30 794 C 73.2218 -3.7758 2.32267 0
M  V30 795 H 70.4418 -0.47585 0.473083 0
M  V30 796 H 72.9858 -0.926726 1.82297 0
M  V30 797 H 71.1408 -3.40995 1.83851 0
M  V30 798 H 71.5548 -3.33182 4.05081 0
M  V30 799 H 73.0288 -4.65478 2.96706 0
M  V30 800 H 73.5058 -4.18334 1.33765 0
M  V30 801 H 74.1118 -3.25976 2.73166 0
M  V30 802 N 72.4269 -1.23603 -0.977757 0
M  V30 803 C 73.6759 -1.06377 -1.71368 0
M  V30 804 C 73.9889 0.399062 -1.91486 0
M  V30 805 O 75.1949 0.691312 -2.62551 0
M  V30 806 C 73.6509 -1.85512 -3.08404 0
M  V30 807 C 73.2589 -3.36141 -2.96164 0
M  V30 808 C 75.0029 -1.76783 -3.85938 0
M  V30 809 C 72.9099 -4.07659 -4.28449 0
M  V30 810 H 71.8399 -0.394452 -0.642591 0
M  V30 811 H 74.4909 -1.47594 -1.09034 0
M  V30 812 H 72.8729 -1.37103 -3.71509 0
M  V30 813 H 74.0469 -3.92056 -2.42133 0
M  V30 814 H 72.3619 -3.45712 -2.32104 0
M  V30 815 H 74.9589 -2.27526 -4.83876 0
M  V30 816 H 75.3019 -0.731116 -4.0983 0
M  V30 817 H 75.8349 -2.22818 -3.2954 0
M  V30 818 H 72.5739 -5.11648 -4.09752 0
M  V30 819 H 72.0939 -3.5653 -4.82334 0
M  V30 820 H 73.7729 -4.141 -4.97122 0
M  V30 821 N 73.905 1.17692 -1.04816 0
M  V30 822 C 75.151 1.88137 -0.75711 0
M  V30 823 C 75.484 1.80604 0.713841 0
M  V30 824 O 74.759 1.21146 1.52164 0
M  V30 825 C 75.042 3.38318 -1.2334 0
M  V30 826 C 74.895 3.54622 -2.76701 0
M  V30 827 C 76.214 4.32214 -0.829415 0
M  V30 828 H 73.333 0.683163 -0.27651 0
M  V30 829 H 75.975 1.38424 -1.30149 0
M  V30 830 H 74.125 3.80787 -0.770286 0
M  V30 831 H 75.797 3.21194 -3.31107 0
M  V30 832 H 74.04 2.97026 -3.16161 0
M  V30 833 H 74.711 4.60028 -3.05088 0
M  V30 834 H 77.187 3.97565 -1.22805 0
M  V30 835 H 76.063 5.35838 -1.19033 0
M  V30 836 H 76.324 4.41294 0.266891 0
M  V30 837 N 75.3831 0.828654 1.34056 0
M  V30 838 C 76.6081 0.431637 2.02859 0
M  V30 839 C 77.0331 -0.956339 1.61975 0
M  V30 840 O 76.3911 -1.62338 0.807228 0
M  V30 841 C 76.4391 0.548323 3.56407 0
M  V30 842 O 75.5431 -0.429556 4.10157 0
M  V30 843 H 74.8841 0.176886 0.640006 0
M  V30 844 H 77.4141 1.12066 1.71179 0
M  V30 845 H 77.4241 0.426196 4.05768 0
M  V30 846 H 76.0991 1.5606 3.8551 0
M  V30 847 H 74.6761 -0.265836 3.71951 0
M  V30 848 N 76.8612 -1.46375 0.584142 0
M  V30 849 C 77.7912 -2.33103 -0.136037 0
M  V30 850 C 78.7722 -1.45431 -0.882255 0
M  V30 851 O 79.9572 -1.74246 -0.857434 0
M  V30 852 C 77.0872 -3.27731 -1.14933 0
M  V30 853 C 76.0412 -4.24855 -0.517862 0
M  V30 854 C 75.3672 -5.09001 -1.63773 0
M  V30 855 C 76.6672 -5.19439 0.545886 0
M  V30 856 H 78.3612 -2.93568 0.588086 0
M  V30 857 H 75.9072 -1.41166 0.284259 0
M  V30 858 H 77.8602 -3.87261 -1.66153 0
M  V30 859 H 76.5842 -2.65377 -1.90375 0
M  V30 860 H 75.2432 -3.6659 -0.0267361 0
M  V30 861 H 74.8912 -4.43031 -2.38185 0
M  V30 862 H 74.5912 -5.74777 -1.22085 0
M  V30 863 H 76.1152 -5.71396 -2.15266 0
M  V30 864 H 77.5292 -5.73177 0.118704 0
M  V30 865 H 75.9262 -5.93566 0.88317 0
M  V30 866 H 76.9962 -4.63285 1.43162 0
M  V30 867 N 78.3393 -0.321999 -1.54275 0
M  V30 868 C 79.2723 0.58718 -2.20516 0
M  V30 869 C 80.2503 1.11693 -1.18167 0
M  V30 870 O 81.4343 1.18122 -1.46899 0
M  V30 871 C 78.5613 1.80554 -2.86562 0
M  V30 872 C 77.6073 1.40718 -4.02617 0
M  V30 873 S 78.4403 0.445218 -5.33646 0
M  V30 874 C 79.5963 1.6709 -6.03185 0
M  V30 875 H 79.8293 0.0244875 -2.9729 0
M  V30 876 H 77.3623 -0.106087 -1.54035 0
M  V30 877 H 79.3203 2.50462 -3.25237 0
M  V30 878 H 77.9813 2.33942 -2.09595 0
M  V30 879 H 77.1743 2.31501 -4.47687 0
M  V30 880 H 76.7763 0.78782 -3.65608 0
M  V30 881 H 79.0683 2.60856 -6.25268 0
M  V30 882 H 80.0113 1.26239 -6.96756 0
M  V30 883 H 80.4193 1.85716 -5.33076 0
M  V30 884 N 79.8174 1.5752 -0.0501392 0
M  V30 885 C 81.0474 1.96678 0.632573 0
M  V30 886 C 81.4554 0.926298 1.64974 0
M  V30 887 O 80.7984 -0.09802 1.83438 0
M  V30 888 C 80.8604 3.32068 1.37735 0
M  V30 889 C 80.5244 4.54076 0.516131 0
M  V30 890 C 81.5214 5.19445 -0.217357 0
M  V30 891 C 79.2064 5.00304 0.44736 0
M  V30 892 C 81.2004 6.29378 -1.00807 0
M  V30 893 C 78.8874 6.10114 -0.347038 0
M  V30 894 C 79.8854 6.74512 -1.07344 0
M  V30 895 O 79.5734 7.82211 -1.85477 0
M  V30 896 H 79.3054 0.652193 0.177821 0
M  V30 897 H 81.8594 2.05091 -0.112543 0
M  V30 898 H 80.0894 3.20206 2.16807 0
M  V30 899 H 81.7784 3.55981 1.95019 0
M  V30 900 H 82.5444 4.84689 -0.173688 0
M  V30 901 H 78.4234 4.49971 1.00235 0
M  V30 902 H 81.9674 6.79575 -1.57556 0
M  V30 903 H 77.8644 6.44307 -0.392349 0
M  V30 904 H 78.6324 7.98982 -1.77678 0
M  V30 905 N 81.2955 -0.223234 1.56011 0
M  V30 906 C 82.5425 -0.947875 1.78946 0
M  V30 907 C 82.8705 -1.844 0.618608 0
M  V30 908 O 82.1255 -1.91629 -0.397093 0
M  V30 909 C 82.4245 -1.81948 3.0762 0
M  V30 910 C 82.0905 -1.07672 4.37856 0
M  V30 911 C 80.7525 -0.871544 4.73242 0
M  V30 912 C 83.1045 -0.552081 5.18268 0
M  V30 913 C 80.4325 -0.129791 5.86556 0
M  V30 914 C 82.7845 0.17632 6.32354 0
M  V30 915 C 81.4485 0.39277 6.66343 0
M  V30 916 H 80.7185 -0.346852 0.654809 0
M  V30 917 H 83.3655 -0.216171 1.90276 0
M  V30 918 H 81.6705 -2.61899 2.91404 0
M  V30 919 H 83.3675 -2.38227 3.22566 0
M  V30 920 H 79.9575 -1.24662 4.1007 0
M  V30 921 H 84.1415 -0.698076 4.91366 0
M  V30 922 H 79.3975 0.048153 6.11381 0
M  V30 923 H 83.5715 0.590367 6.93893 0
M  V30 924 H 81.1985 0.969466 7.53993 0
M  V30 925 N 82.7736 -1.49793 -0.48987 0
M  V30 926 C 83.7366 -1.66752 -1.57246 0
M  V30 927 C 84.7366 -0.538867 -1.51502 0
M  V30 928 O 85.9266 -0.805545 -1.54456 0
M  V30 929 C 83.0586 -1.67528 -2.96896 0
M  V30 930 H 84.2516 -2.63321 -1.43534 0
M  V30 931 H 81.8046 -1.38992 -0.714914 0
M  V30 932 H 82.5396 -0.725837 -3.16073 0
M  V30 933 H 82.3246 -2.49504 -3.02473 0
M  V30 934 H 83.8146 -1.82667 -3.7553 0
M  V30 935 N 84.2517 0.741722 -1.39055 0
M  V30 936 C 85.4987 1.50114 -1.35912 0
M  V30 937 C 85.8267 1.94443 0.0470937 0
M  V30 938 O 85.0817 1.66612 1.02659 0
M  V30 939 C 85.3807 2.7592 -2.27163 0
M  V30 940 C 85.0467 2.50493 -3.74919 0
M  V30 941 C 83.7087 2.43267 -4.1518 0
M  V30 942 C 86.0607 2.28585 -4.684 0
M  V30 943 C 83.3887 2.12166 -5.46994 0
M  V30 944 C 85.7407 1.99002 -6.00484 0
M  V30 945 C 84.4047 1.90241 -6.39816 0
M  V30 946 H 83.6747 0.549306 -0.497336 0
M  V30 947 H 86.3217 0.851896 -1.71508 0
M  V30 948 H 84.6267 3.45553 -1.84663 0
M  V30 949 H 86.3237 3.33923 -2.22028 0
M  V30 950 H 82.9137 2.56992 -3.43006 0
M  V30 951 H 87.0977 2.33139 -4.38132 0
M  V30 952 H 82.3537 2.03901 -5.76398 0
M  V30 953 H 86.5277 1.81057 -6.72452 0
M  V30 954 H 84.1547 1.65907 -7.41875 0
M  V30 955 N 85.7298 1.2412 0.971189 0
M  V30 956 C 86.9578 1.10575 1.74874 0
M  V30 957 C 87.3728 -0.342017 1.85676 0
M  V30 958 O 86.7298 -1.23617 1.34258 0
M  V30 959 C 86.7808 1.73579 3.171 0
M  V30 960 O 86.5018 3.12695 3.06844 0
M  V30 961 C 88.0028 1.65598 4.11208 0
M  V30 962 H 85.2228 0.386504 0.548503 0
M  V30 963 H 87.7668 1.64156 1.21955 0
M  V30 964 H 85.9218 1.24009 3.67016 0
M  V30 965 H 86.3358 3.43412 3.96445 0
M  V30 966 H 87.8098 2.1437 5.08674 0
M  V30 967 H 88.2868 0.616532 4.34851 0
M  V30 968 H 88.8928 2.14578 3.67201 0
M  V30 969 N 87.2079 -1.17134 1.05439 0
M  V30 970 C 88.6239 -1.39454 0.776201 0
M  V30 971 C 88.8239 -1.91454 -0.628307 0
M  V30 972 O 87.8799 -2.10777 -1.39031 0
M  V30 973 C 89.1929 -2.38305 1.83388 0
M  V30 974 C 90.7409 -2.52006 1.85639 0
M  V30 975 C 91.2159 -3.54133 2.90437 0
M  V30 976 N 92.7069 -3.61653 2.89415 0
M  V30 977 C 93.4419 -4.4044 3.67152 0
M  V30 978 N 92.9379 -5.22721 4.54681 0
M  V30 979 N 94.7309 -4.35337 3.55581 0
M  V30 980 H 86.8819 -0.817134 1.96053 0
M  V30 981 H 89.1449 -0.421626 0.849079 0
M  V30 982 H 88.8509 -2.07173 2.84204 0
M  V30 983 H 88.7249 -3.37841 1.67761 0
M  V30 984 H 91.1119 -2.82447 0.85486 0
M  V30 985 H 91.1929 -1.52537 2.05344 0
M  V30 986 H 90.8369 -3.24431 3.90777 0
M  V30 987 H 90.7669 -4.53313 2.67983 0
M  V30 988 H 93.2579 -3.02909 2.25952 0
M  V30 989 H 93.5709 -5.80027 5.10674 0
M  V30 990 H 91.9159 -5.22093 4.58741 0
M  V30 991 H 95.1069 -3.70112 2.86592 0
M  V30 992 H 95.2799 -4.96494 4.1641 0
M  V30 993 N 88.686 -0.835752 -1.33615 0
M  V30 994 C 89.963 -0.352017 -1.92406 0
M  V30 995 C 90.343 1.16225 -1.76224 0
M  V30 996 O 89.691 1.97526 -1.14873 0
M  V30 997 C 89.901 -0.795485 -3.39813 0
M  V30 998 C 91.249 -0.801703 -4.16963 0
M  V30 999 O 92.273 -0.738889 -3.48452 0
M  V30 1000 O 91.132 -0.886607 -5.3926 0
M  V30 1001 H 88.226 -0.0989641 -0.821057 0
M  V30 1002 H 90.772 -0.921397 -1.42507 0
M  V30 1003 H 89.544 -1.83795 -3.45449 0
M  V30 1004 H 89.167 -0.202505 -3.97084 0
M  V30 1005 N 90.1641 1.46063 -0.591896 0
M  V30 1006 C 91.4411 1.95595 -0.0137119 0
M  V30 1007 C 91.8211 1.5345 1.4497 0
M  V30 1008 O 91.1691 0.789543 2.14426 0
M  V30 1009 C 91.3791 3.48453 -0.195373 0
M  V30 1010 C 92.7271 4.24546 -0.0679765 0
M  V30 1011 O 93.7511 3.55982 -0.124681 0
M  V30 1012 O 92.6101 5.46467 0.0600579 0
M  V30 1013 H 89.7041 0.825795 0.0446279 0
M  V30 1014 H 92.2501 1.56303 -0.660859 0
M  V30 1015 H 91.0221 3.72045 -1.21235 0
M  V30 1016 H 90.6451 3.94597 0.487775 0
M  V30 1017 N 91.6422 0.330177 1.54103 0
M  V30 1018 C 92.8672 -0.274893 2.0557 0
M  V30 1019 C 93.2922 -1.44487 1.20437 0
M  V30 1020 O 92.6502 -1.80021 0.214991 0
M  V30 1021 C 92.6982 -0.68079 3.54115 0
M  V30 1022 O 91.8022 -1.7824 3.71893 0
M  V30 1023 H 91.1432 -0.0483849 0.662235 0
M  V30 1024 H 93.6732 0.480508 1.98878 0
M  V30 1025 H 93.6832 -0.961635 3.96505 0
M  V30 1026 H 92.3582 0.174903 4.15532 0
M  V30 1027 H 90.9352 -1.49985 3.41407 0
M  V30 1028 N 93.1203 -1.57491 0.0584922 0
M  V30 1029 C 94.3663 -1.93264 -0.614558 0
M  V30 1030 C 94.6993 -0.937717 -1.7006 0
M  V30 1031 O 93.9743 0.0351652 -1.94468 0
M  V30 1032 C 94.2573 -3.3938 -1.20386 0
M  V30 1033 C 94.1103 -4.49625 -0.125375 0
M  V30 1034 C 95.4293 -3.86039 -2.11334 0
M  V30 1035 H 92.5483 -0.702791 -0.221933 0
M  V30 1036 H 95.1903 -1.8961 0.12175 0
M  V30 1037 H 93.3403 -3.42626 -1.83139 0
M  V30 1038 H 95.0123 -4.58506 0.506971 0
M  V30 1039 H 93.2553 -4.30354 0.545672 0
M  V30 1040 H 93.9263 -5.48967 -0.577861 0
M  V30 1041 H 96.4023 -3.84716 -1.58534 0
M  V30 1042 H 95.2783 -4.88914 -2.49507 0
M  V30 1043 H 95.5393 -3.23215 -3.01636 0
M  V30 1044 N 94.5984 0.214957 -1.56127 0
M  V30 1045 C 96.0094 0.781386 -1.69562 0
M  V30 1046 C 96.3604 1.84707 -0.66165 0
M  V30 1047 O 95.4854 2.156 0.185927 0
M  V30 1048 C 96.0804 1.42411 -3.07416 0
M  V30 1049 C 94.6394 1.93786 -3.22683 0
M  V30 1050 C 93.7864 0.800438 -2.65496 0
M  V30 1051 H 96.7374 -0.00980633 -1.58697 0
M  V30 1052 H 96.7584 2.29309 -3.0364 0
M  V30 1053 H 96.2704 0.64826 -3.82648 0
M  V30 1054 H 94.3714 2.74152 -2.52332 0
M  V30 1055 H 94.4844 2.1133 -4.29973 0
M  V30 1056 H 92.8484 1.2095 -2.2415 0
M  V30 1057 H 93.6314 0.0371471 -3.4328 0
M  V30 1058 N 96.0765 1.50051 0.48192 0
M  V30 1059 C 96.9865 1.7089 1.60728 0
M  V30 1060 C 98.0025 0.591788 1.63627 0
M  V30 1061 O 99.1785 0.868817 1.81696 0
M  V30 1062 C 96.2435 1.78855 2.97005 0
M  V30 1063 C 95.3045 3.02537 3.04581 0
M  V30 1064 C 94.5375 3.10112 4.34357 0
M  V30 1065 O 94.7605 2.24765 5.24249 0
M  V30 1066 O 93.6945 4.02747 4.47301 0
M  V30 1067 H 97.5205 2.66264 1.46072 0
M  V30 1068 H 95.1055 1.34018 0.660264 0
M  V30 1069 H 96.9875 1.86336 3.77964 0
M  V30 1070 H 95.6625 0.866628 3.11883 0
M  V30 1071 H 94.5695 3.00563 2.22739 0
M  V30 1072 H 95.9025 3.94272 2.94636 0
M  V30 1073 N 97.5546 -0.734337 1.39446 0
M  V30 1074 C 98.8316 -1.48579 1.27215 0
M  V30 1075 C 99.2116 -2.1077 -0.117968 0
M  V30 1076 O 98.5596 -1.98646 -1.12924 0
M  V30 1077 C 98.7696 -2.53667 2.39696 0
M  V30 1078 C 100.118 -3.20031 2.79044 0
M  V30 1079 O 101.142 -2.6398 2.39151 0
M  V30 1080 O 100.001 -4.21455 3.47905 0
M  V30 1081 H 97.0946 -0.659816 0.49857 0
M  V30 1082 H 99.6406 -0.768106 1.51322 0
M  V30 1083 H 98.4126 -2.06096 3.32626 0
M  V30 1084 H 98.0356 -3.32994 2.17258 0
M  V30 1085 N 99.0327 -1.24633 -0.964593 0
M  V30 1086 C 99.9807 -1.03917 -2.08096 0
M  V30 1087 C 100.975 0.0268581 -1.69379 0
M  V30 1088 O 102.181 -0.127952 -1.79545 0
M  V30 1089 H 98.5557 -0.319044 -0.680966 0
M  V30 1090 H 100.527 -1.98581 -2.22729 0
M  V30 1091 C 99.2757 -0.663983 -3.41301 0
M  V30 1092 H 98.5987 -1.47605 -3.71555 0
M  V30 1093 H 100.039 -0.558663 -4.20303 0
M  V30 1094 C 98.4977 0.629169 -3.30973 0
M  V30 1095 O 99.0277 1.67404 -3.65156 0
M  V30 1096 N 97.2337 0.611057 -2.84103 0
M  V30 1097 H 96.7807 -0.239593 -2.56483 0
M  V30 1098 H 96.7387 1.47647 -2.77575 0
M  V30 1099 N 100.511 1.16574 -1.06058 0
M  V30 1100 C 101.76 1.86385 -0.770944 0
M  V30 1101 C 102.073 1.82448 0.705129 0
M  V30 1102 O 103.279 2.47815 1.10905 0
M  V30 1103 C 101.735 3.34466 -1.32893 0
M  V30 1104 C 101.343 3.46883 -2.83507 0
M  V30 1105 C 103.087 4.09548 -1.11672 0
M  V30 1106 C 100.994 4.89036 -3.32562 0
M  V30 1107 H 99.9238 0.698181 -0.284709 0
M  V30 1108 H 102.575 1.31583 -1.27899 0
M  V30 1109 H 100.957 3.88859 -0.748662 0
M  V30 1110 H 102.131 3.02663 -3.47465 0
M  V30 1111 H 100.446 2.85232 -3.03368 0
M  V30 1112 H 103.043 5.14434 -1.45814 0
M  V30 1113 H 103.386 4.16264 -0.0549535 0
M  V30 1114 H 103.919 3.61387 -1.66265 0
M  V30 1115 H 100.658 4.87499 -4.38207 0
M  V30 1116 H 100.178 5.3389 -2.73351 0
M  V30 1117 H 101.857 5.57843 -3.2775 0
M  V30 1118 N 101.989 0.842826 1.3317 0
M  V30 1119 C 103.235 0.450342 1.98352 0
M  V30 1120 C 103.59 -0.980508 1.65541 0
M  V30 1121 O 102.883 -1.67678 0.927065 0
M  V30 1122 C 103.077 0.612607 3.52111 0
M  V30 1123 C 102.906 2.05768 3.99862 0
M  V30 1124 C 101.676 2.69374 4.27511 0
M  V30 1125 C 103.874 3.02688 4.15794 0
M  V30 1126 N 101.856 4.04915 4.61429 0
M  V30 1127 C 103.227 4.23186 4.53115 0
M  V30 1128 C 105.282 2.99041 3.98094 0
M  V30 1129 C 103.985 5.40518 4.74587 0
M  V30 1130 C 106.011 4.15607 4.20743 0
M  V30 1131 C 105.373 5.3486 4.58371 0
M  V30 1132 H 101.472 0.213296 0.752349 0
M  V30 1133 H 104.056 1.09173 1.61212 0
M  V30 1134 H 102.227 0.000998822 3.884 0
M  V30 1135 H 103.959 0.191179 4.04248 0
M  V30 1136 H 100.714 2.20485 4.19146 0
M  V30 1137 H 101.138 4.74798 4.82593 0
M  V30 1138 H 105.78 2.0797 3.68114 0
M  V30 1139 H 103.498 6.3213 5.03425 0
M  V30 1140 H 107.084 4.14207 4.08563 0
M  V30 1141 H 105.964 6.23558 4.75547 0
M  V30 1142 N 103.467 -1.45747 0.599634 0
M  V30 1143 C 104.883 -1.57424 0.26264 0
M  V30 1144 C 105.083 -1.59222 -1.23493 0
M  V30 1145 O 104.139 -1.51825 -2.01756 0
M  V30 1146 C 105.452 -2.86061 0.926795 0
M  V30 1147 C 107 -2.99722 0.901967 0
M  V30 1148 C 107.475 -4.31119 1.54598 0
M  V30 1149 N 108.966 -4.37858 1.5111 0
M  V30 1150 C 109.701 -5.3818 1.97863 0
M  V30 1151 N 109.197 -6.45083 2.52666 0
M  V30 1152 N 110.99 -5.29487 1.88679 0
M  V30 1153 H 103.141 -1.42823 1.57211 0
M  V30 1154 H 105.404 -0.68235 0.658105 0
M  V30 1155 H 105.11 -2.90605 1.98095 0
M  V30 1156 H 104.984 -3.74563 0.445238 0
M  V30 1157 H 107.371 -2.9475 -0.143617 0
M  V30 1158 H 107.452 -2.12652 1.42171 0
M  V30 1159 H 107.096 -4.36849 2.59085 0
M  V30 1160 H 107.026 -5.16992 1.00132 0
M  V30 1161 H 109.517 -3.61209 1.11068 0
M  V30 1162 H 109.83 -7.17869 2.86155 0
M  V30 1163 H 108.175 -6.45856 2.56701 0
M  V30 1164 H 111.366 -4.44877 1.4561 0
M  V30 1165 H 111.539 -6.07524 2.25429 0
M  V30 1166 N 104.945 -0.338344 -1.53925 0
M  V30 1167 C 106.193 0.259245 -2.0043 0
M  V30 1168 C 106.514 1.51484 -1.22791 0
M  V30 1169 O 105.784 1.93037 -0.33368 0
M  V30 1170 H 104.364 0.0987845 -0.740439 0
M  V30 1171 H 107.026 -0.458302 -1.89435 0
M  V30 1172 H 106.122 0.505334 -3.07982 0
M  V30 1173 N 106.423 1.57458 -0.0668435 0
M  V30 1174 C 107.672 1.92477 0.602947 0
M  V30 1175 C 107.985 0.948419 1.71068 0
M  V30 1176 O 109.191 1.19124 2.43971 0
M  V30 1177 C 107.647 3.41903 1.12383 0
M  V30 1178 C 107.255 4.47975 0.04737 0
M  V30 1179 C 108.999 3.85931 1.76797 0
M  V30 1180 C 106.906 5.88529 0.582022 0
M  V30 1181 H 105.836 0.718387 0.22899 0
M  V30 1182 H 108.487 1.82978 -0.138276 0
M  V30 1183 H 106.869 3.46459 1.91787 0
M  V30 1184 H 108.043 4.55029 -0.726978 0
M  V30 1185 H 106.358 4.13384 -0.500243 0
M  V30 1186 H 108.955 4.88322 2.17821 0
M  V30 1187 H 109.298 3.23029 2.62599 0
M  V30 1188 H 109.831 3.83958 1.04024 0
M  V30 1189 H 106.57 6.55065 -0.238721 0
M  V30 1190 H 106.09 5.85004 1.324 0
M  V30 1191 H 107.769 6.38258 1.05999 0
M  V30 1192 N 107.901 -0.206675 1.56239 0
M  V30 1193 C 108.831 -1.25909 1.96645 0
M  V30 1194 C 109.812 -1.48097 0.836734 0
M  V30 1195 O 110.997 -1.6003 1.10019 0
M  V30 1196 C 108.127 -2.6058 2.29599 0
M  V30 1197 C 107.081 -2.53024 3.452 0
M  V30 1198 C 106.407 -3.91861 3.63798 0
M  V30 1199 C 107.707 -2.06524 4.79734 0
M  V30 1200 H 109.401 -0.923369 2.84806 0
M  V30 1201 H 106.947 -0.442735 1.37025 0
M  V30 1202 H 108.9 -3.34375 2.56459 0
M  V30 1203 H 107.624 -2.95869 1.38307 0
M  V30 1204 H 106.283 -1.81684 3.18412 0
M  V30 1205 H 105.931 -4.24483 2.69857 0
M  V30 1206 H 105.631 -3.87683 4.4156 0
M  V30 1207 H 107.155 -4.67296 3.93022 0
M  V30 1208 H 108.569 -2.70072 5.05702 0
M  V30 1209 H 106.966 -2.13374 5.60885 0
M  V30 1210 H 108.036 -1.01802 4.74093 0
M  V30 1211 N 109.379 -1.50304 -0.473955 0
M  V30 1212 C 110.604 -1.65175 -1.25427 0
M  V30 1213 C 111.029 -0.333673 -1.85117 0
M  V30 1214 O 110.387 0.702114 -1.67153 0
M  V30 1215 C 110.435 -2.74295 -2.34082 0
M  V30 1216 O 109.539 -2.35349 -3.38651 0
M  V30 1217 H 108.88 -0.551944 -0.369126 0
M  V30 1218 H 111.41 -1.96662 -0.564364 0
M  V30 1219 H 111.42 -2.97285 -2.79438 0
M  V30 1220 H 110.095 -3.69959 -1.90008 0
M  V30 1221 H 108.672 -2.22794 -2.99027 0
M  V30 1222 N 110.857 0.726932 -1.39834 0
M  V30 1223 C 112.103 1.48884 -1.377 0
M  V30 1224 C 112.436 1.94185 0.0244852 0
M  V30 1225 O 111.711 1.67361 0.990986 0
M  V30 1226 C 111.994 2.72288 -2.3565 0
M  V30 1227 C 111.847 2.32956 -3.84775 0
M  V30 1228 C 113.166 3.74414 -2.31306 0
M  V30 1229 H 110.285 0.540062 -0.5015 0
M  V30 1230 H 112.927 0.830547 -1.70886 0
M  V30 1231 H 111.077 3.28457 -2.07481 0
M  V30 1232 H 112.749 1.82356 -4.23726 0
M  V30 1233 H 110.992 1.65088 -4.01159 0
M  V30 1234 H 111.663 3.21362 -4.4881 0
M  V30 1235 H 114.139 3.27849 -2.56231 0
M  V30 1236 H 113.015 4.58414 -3.01907 0
M  V30 1237 H 113.276 4.21909 -1.32081 0
M  V30 1238 N 112.336 1.25143 0.95797 0
M  V30 1239 C 113.585 1.0909 1.69654 0
M  V30 1240 C 113.898 -0.368548 1.92097 0
M  V30 1241 O 115.104 -0.649455 2.63618 0
M  V30 1242 C 113.56 1.90395 3.05414 0
M  V30 1243 C 113.168 3.4081 2.90779 0
M  V30 1244 C 114.912 1.82901 3.83076 0
M  V30 1245 C 112.819 4.14423 4.21909 0
M  V30 1246 H 111.749 0.404625 0.636235 0
M  V30 1247 H 114.4 1.4931 1.06672 0
M  V30 1248 H 112.782 1.42996 3.69281 0
M  V30 1249 H 113.956 3.95859 2.35865 0
M  V30 1250 H 112.271 3.49361 2.26575 0
M  V30 1251 H 114.868 2.35196 4.80195 0
M  V30 1252 H 115.211 0.796224 4.08615 0
M  V30 1253 H 115.744 2.28033 3.25954 0
M  V30 1254 H 112.483 5.18102 4.01561 0
M  V30 1255 H 112.003 3.64159 4.76601 0
M  V30 1256 H 113.682 4.21956 4.90471 0
M  V30 1257 N 113.814 -1.1601 1.06675 0
M  V30 1258 C 115.061 -1.86633 0.785781 0
M  V30 1259 C 115.389 -1.81929 -0.687896 0
M  V30 1260 O 114.644 -1.23253 -1.52011 0
M  V30 1261 C 114.943 -3.35547 1.23057 0
M  V30 1262 C 114.609 -3.60448 2.70902 0
M  V30 1263 C 113.271 -3.66954 3.11285 0
M  V30 1264 C 115.623 -3.7071 3.66365 0
M  V30 1265 C 112.951 -3.81225 4.45965 0
M  V30 1266 C 115.303 -3.86503 5.00797 0
M  V30 1267 C 113.967 -3.91252 5.40813 0
M  V30 1268 H 113.237 -0.682937 0.287538 0
M  V30 1269 H 115.884 -1.37146 1.33654 0
M  V30 1270 H 114.189 -3.87193 0.59907 0
M  V30 1271 H 115.886 -3.88583 0.990163 0
M  V30 1272 H 112.476 -3.56021 2.38636 0
M  V30 1273 H 116.66 -3.64991 3.36296 0
M  V30 1274 H 111.916 -3.83155 4.76447 0
M  V30 1275 H 116.09 -3.93385 5.74649 0
M  V30 1276 H 113.717 -4.02062 6.45174 0
M  V30 1277 N 115.292 -0.849877 -1.32721 0
M  V30 1278 C 116.539 -0.450923 -1.97416 0
M  V30 1279 C 116.867 0.992376 -1.67279 0
M  V30 1280 O 116.122 1.71048 -0.950845 0
M  V30 1281 C 116.421 -0.631272 -3.51781 0
M  V30 1282 C 116.087 -2.04432 -4.01894 0
M  V30 1283 C 114.749 -2.4308 -4.1529 0
M  V30 1284 C 117.101 -2.96679 -4.28522 0
M  V30 1285 C 114.429 -3.73257 -4.52654 0
M  V30 1286 C 116.781 -4.26349 -4.67343 0
M  V30 1287 C 115.445 -4.64939 -4.78945 0
M  V30 1288 H 114.715 -0.165004 -0.722395 0
M  V30 1289 H 117.362 -1.07901 -1.58207 0
M  V30 1290 H 115.667 0.0800767 -3.91718 0
M  V30 1291 H 117.364 -0.302709 -3.99856 0
M  V30 1292 H 113.954 -1.73419 -3.91949 0
M  V30 1293 H 118.138 -2.68054 -4.17685 0
M  V30 1294 H 113.394 -4.02946 -4.59831 0
M  V30 1295 H 117.568 -4.97895 -4.86902 0
M  V30 1296 H 115.195 -5.65855 -5.07654 0
M  V30 1297 N 116.77 1.45427 -0.607355 0
M  V30 1298 C 118.017 2.02241 -0.102455 0
M  V30 1299 C 118.345 1.4758 1.26691 0
M  V30 1300 O 117.6 0.640468 1.84923 0
M  V30 1301 C 117.899 3.57398 -0.0129263 0
M  V30 1302 C 117.565 4.3121 -1.31792 0
M  V30 1303 C 116.227 4.51092 -1.67539 0
M  V30 1304 C 118.579 4.73401 -2.18039 0
M  V30 1305 C 115.907 5.10422 -2.89285 0
M  V30 1306 C 118.259 5.34078 -3.39034 0
M  V30 1307 C 116.923 5.52184 -3.75033 0
M  V30 1308 H 116.193 0.740051 -0.037491 0
M  V30 1309 H 118.84 1.74494 -0.788926 0
M  V30 1310 H 117.145 3.84421 0.756806 0
M  V30 1311 H 118.842 3.99061 0.393881 0
M  V30 1312 H 115.432 4.16047 -1.02968 0
M  V30 1313 H 119.616 4.57774 -1.91721 0
M  V30 1314 H 114.872 5.22629 -3.17283 0
M  V30 1315 H 119.046 5.65724 -4.06115 0
M  V30 1316 H 116.673 5.97925 -4.69457 0
M  V30 1317 N 118.248 0.346503 1.53744 0
M  V30 1318 C 119.178 -0.501193 2.28058 0
M  V30 1319 C 120.159 -1.10014 1.29734 0
M  V30 1320 O 121.344 -1.12097 1.58581 0
M  V30 1321 C 118.474 -1.65078 3.05559 0
M  V30 1322 C 117.428 -1.18003 4.11411 0
M  V30 1323 C 116.754 -2.41837 4.76884 0
M  V30 1324 C 118.054 -0.278394 5.21558 0
M  V30 1325 H 119.748 0.11875 2.99164 0
M  V30 1326 H 117.294 0.0585531 1.43881 0
M  V30 1327 H 119.247 -2.25028 3.56287 0
M  V30 1328 H 117.971 -2.29767 2.32109 0
M  V30 1329 H 116.63 -0.603331 3.61601 0
M  V30 1330 H 116.278 -3.0494 4.00026 0
M  V30 1331 H 115.978 -2.1102 5.48402 0
M  V30 1332 H 117.502 -3.02508 5.30397 0
M  V30 1333 H 118.916 -0.784823 5.67903 0
M  V30 1334 H 117.313 -0.0619707 6.00068 0
M  V30 1335 H 118.383 0.684677 4.80042 0
M  V30 1336 N 119.726 -1.57421 0.075193 0
M  V30 1337 C 120.975 -1.92794 -0.592731 0
M  V30 1338 C 121.288 -0.957478 -1.70563 0
M  V30 1339 O 122.494 -1.20417 -2.43335 0
M  V30 1340 C 120.95 -3.42495 -1.10569 0
M  V30 1341 C 120.558 -4.47994 -0.0236121 0
M  V30 1342 C 122.302 -3.86864 -1.74748 0
M  V30 1343 C 120.209 -5.88829 -0.550803 0
M  V30 1344 H 119.139 -0.719591 -0.225177 0
M  V30 1345 H 121.79 -1.82902 0.147978 0
M  V30 1346 H 120.172 -3.47471 -1.89947 0
M  V30 1347 H 121.346 -4.54637 0.751099 0
M  V30 1348 H 119.661 -4.13113 0.522159 0
M  V30 1349 H 122.258 -4.8947 -2.15229 0
M  V30 1350 H 122.601 -3.24417 -2.60882 0
M  V30 1351 H 123.134 -3.84504 -1.01986 0
M  V30 1352 H 119.873 -6.54929 0.273457 0
M  V30 1353 H 119.393 -5.85698 -1.29296 0
M  V30 1354 H 121.072 -6.38811 -1.02613 0
M  V30 1355 N 121.204 0.198386 -1.56346 0
M  V30 1356 C 122.453 0.917451 -1.79627 0
M  V30 1357 C 122.766 1.8456 -0.64784 0
M  V30 1358 O 123.972 2.60504 -0.764859 0
M  V30 1359 C 122.428 1.68175 -3.18191 0
M  V30 1360 C 122.036 0.798589 -4.40825 0
M  V30 1361 C 123.78 2.39065 -3.50782 0
M  V30 1362 C 121.687 1.56157 -5.70411 0
M  V30 1363 H 120.617 0.346317 -0.669762 0
M  V30 1364 H 123.268 0.170801 -1.82703 0
M  V30 1365 H 121.65 2.47216 -3.09354 0
M  V30 1366 H 122.824 0.0470665 -4.60776 0
M  V30 1367 H 121.139 0.200686 -4.15916 0
M  V30 1368 H 123.736 2.96692 -4.44835 0
M  V30 1369 H 124.079 3.13091 -2.74371 0
M  V30 1370 H 124.612 1.66993 -3.61052 0
M  V30 1371 H 121.351 0.864142 -6.49779 0
M  V30 1372 H 120.871 2.2871 -5.54483 0
M  V30 1373 H 122.55 2.11622 -6.11412 0
M  V30 1374 N 122.682 1.50554 0.465978 0
M  V30 1375 C 123.907 1.65838 1.24549 0
M  V30 1376 C 124.332 0.343486 1.84937 0
M  V30 1377 O 123.69 -0.69324 1.67523 0
M  V30 1378 C 123.738 2.75533 2.32624 0
M  V30 1379 O 122.842 2.37142 3.37398 0
M  V30 1380 H 122.183 0.553893 0.366194 0
M  V30 1381 H 124.713 1.96959 0.553927 0
M  V30 1382 H 124.723 2.98763 2.77857 0
M  V30 1383 H 123.398 3.70962 1.88043 0
M  V30 1384 H 121.975 2.24377 2.97841 0
M  V30 1385 N 124.16 -0.719506 1.40217 0
M  V30 1386 C 125.406 -1.48152 1.38488 0
M  V30 1387 C 125.739 -1.94195 -0.0141867 0
M  V30 1388 O 125.014 -1.67884 -0.982096 0
M  V30 1389 C 125.297 -2.71035 2.37091 0
M  V30 1390 C 125.15 -2.30912 3.86005 0
M  V30 1391 C 126.469 -3.73182 2.33288 0
M  V30 1392 H 123.588 -0.537395 0.504357 0
M  V30 1393 H 126.23 -0.821472 1.71324 0
M  V30 1394 H 124.38 -3.27352 2.0922 0
M  V30 1395 H 126.052 -1.80107 4.24687 0
M  V30 1396 H 124.295 -1.62958 4.02029 0
M  V30 1397 H 124.966 -3.18978 4.50508 0
M  V30 1398 H 127.442 -3.26485 2.57966 0
M  V30 1399 H 126.318 -4.56806 3.04334 0
M  V30 1400 H 126.579 -4.21202 1.34317 0
M  V30 1401 N 125.638 -1.25649 -0.95132 0
M  V30 1402 C 126.568 -1.08808 -2.06599 0
M  V30 1403 C 127.549 0.00382547 -1.701 0
M  V30 1404 O 128.734 -0.166325 -1.93486 0
M  V30 1405 C 125.864 -0.709542 -3.39975 0
M  V30 1406 C 124.818 -1.75206 -3.90496 0
M  V30 1407 C 124.144 -1.22811 -5.20405 0
M  V30 1408 C 125.444 -3.15153 -4.16504 0
M  V30 1409 H 127.138 -2.02048 -2.20946 0
M  V30 1410 H 124.684 -0.972835 -1.06169 0
M  V30 1411 H 126.637 -0.578649 -4.17408 0
M  V30 1412 H 125.361 0.258556 -3.25575 0
M  V30 1413 H 124.02 -1.87145 -3.15234 0
M  V30 1414 H 123.668 -0.250145 -5.02378 0
M  V30 1415 H 123.368 -1.92492 -5.55176 0
M  V30 1416 H 124.892 -1.10968 -6.00432 0
M  V30 1417 H 126.306 -3.06349 -4.84586 0
M  V30 1418 H 124.703 -3.82333 -4.62538 0
M  V30 1419 H 125.773 -3.61966 -3.22658 0
M  V30 1420 N 127.117 1.15442 -1.07289 0
M  V30 1421 C 128.08 2.18358 -0.696591 0
M  V30 1422 C 129.08 1.58637 0.262837 0
M  V30 1423 O 130.27 1.74145 0.0438809 0
M  V30 1424 C 127.402 3.4089 -0.0266151 0
M  V30 1425 H 128.595 2.53162 -1.60776 0
M  V30 1426 H 126.148 1.29893 -0.869342 0
M  V30 1427 H 126.883 3.11653 0.896822 0
M  V30 1428 H 126.668 3.85495 -0.716657 0
M  V30 1429 H 128.158 4.17009 0.222028 0
M  V30 1430 N 128.595 0.856903 1.32268 0
M  V30 1431 C 129.842 0.461386 1.97174 0
M  V30 1432 C 130.17 -0.983491 1.67803 0
M  V30 1433 O 129.425 -1.70541 0.959903 0
M  V30 1434 C 129.724 0.649919 3.51441 0
M  V30 1435 C 129.39 2.0656 4.00804 0
M  V30 1436 C 128.052 2.45279 4.13995 0
M  V30 1437 C 130.404 2.98947 4.26943 0
M  V30 1438 C 127.732 3.75653 4.50668 0
M  V30 1439 C 130.084 4.28822 4.65075 0
M  V30 1440 C 128.748 4.67472 4.76472 0
M  V30 1441 H 128.018 0.168833 0.72151 0
M  V30 1442 H 130.665 1.08739 1.57633 0
M  V30 1443 H 128.97 -0.0593018 3.91755 0
M  V30 1444 H 130.667 0.32391 3.9969 0
M  V30 1445 H 127.257 1.75495 3.91024 0
M  V30 1446 H 131.441 2.70265 4.16258 0
M  V30 1447 H 126.697 4.05379 4.57688 0
M  V30 1448 H 130.871 5.0047 4.84255 0
M  V30 1449 H 128.498 5.68539 5.04646 0
M  V30 1450 N 130.073 -1.45103 0.615059 0
M  V30 1451 C 131.484 -1.85654 0.197383 0
M  V30 1452 C 131.835 -1.51433 -1.24749 0
M  V30 1453 O 130.96 -0.944608 -1.94695 0
M  V30 1454 C 131.555 -3.36972 0.351448 0
M  V30 1455 C 130.114 -3.76398 -0.011593 0
M  V30 1456 C 129.261 -2.69024 0.672394 0
M  V30 1457 H 132.212 -1.35797 0.821263 0
M  V30 1458 H 132.233 -3.78239 -0.414227 0
M  V30 1459 H 131.745 -3.61847 1.40314 0
M  V30 1460 H 129.846 -3.5714 -1.06217 0
M  V30 1461 H 129.959 -4.77532 0.387265 0
M  V30 1462 H 128.323 -2.54465 0.109284 0
M  V30 1463 H 129.106 -2.96735 1.72636 0
M  V30 1464 N 131.551 -0.354651 -1.53558 0
M  V30 1465 C 132.499 0.512195 -2.26891 0
M  V30 1466 C 133.493 1.09263 -1.29452 0
M  V30 1467 O 134.699 1.03709 -1.47121 0
M  V30 1468 H 131.074 0.183878 -0.729173 0
M  V30 1469 H 133.045 -0.128202 -2.98124 0
M  V30 1470 C 131.794 1.64563 -3.06291 0
M  V30 1471 H 131.117 1.20829 -3.81104 0
M  V30 1472 H 132.557 2.22711 -3.60799 0
M  V30 1473 C 131.016 2.58158 -2.16462 0
M  V30 1474 O 131.546 3.60695 -1.76811 0
M  V30 1475 N 129.752 2.27096 -1.81317 0
M  V30 1476 H 129.299 1.43751 -2.1376 0
M  V30 1477 H 129.257 2.89975 -1.21498 0
M  V30 1478 N 133.029 1.57378 -0.0835403 0
M  V30 1479 C 134.277 1.93547 0.581718 0
M  V30 1480 C 134.598 0.96524 1.69435 0
M  V30 1481 O 133.868 0.0153369 1.95894 0
M  V30 1482 H 132.448 0.714521 0.217874 0
M  V30 1483 H 135.11 1.94366 -0.144158 0
M  V30 1484 H 134.206 2.95665 0.999423 0
M  V30 1485 N 134.507 -0.190092 1.56449 0
M  V30 1486 C 135.918 -0.754312 1.70784 0
M  V30 1487 C 136.269 -1.83631 0.690951 0
M  V30 1488 O 135.394 -2.15868 -0.151604 0
M  V30 1489 C 135.989 -1.37503 3.09642 0
M  V30 1490 C 134.548 -1.88628 3.25725 0
M  V30 1491 C 133.695 -0.758098 2.66736 0
M  V30 1492 H 136.646 0.0350524 1.58661 0
M  V30 1493 H 136.667 -2.2445 3.0725 0
M  V30 1494 H 136.179 -0.587302 3.83631 0
M  V30 1495 H 134.28 -2.70103 2.56661 0
M  V30 1496 H 134.393 -2.04462 4.3328 0
M  V30 1497 H 132.757 -1.17369 2.26046 0
M  V30 1498 H 133.54 0.0174705 3.43296 0
M  V30 1499 N 135.985 -1.50799 -0.457987 0
M  V30 1500 C 137.232 -1.62442 -1.20908 0
M  V30 1501 C 137.56 -0.330865 -1.91665 0
M  V30 1502 O 136.815 0.68401 -1.83357 0
M  V30 1503 C 137.114 -2.76358 -2.2663 0
M  V30 1504 C 136.78 -4.16378 -1.73033 0
M  V30 1505 C 135.442 -4.54473 -1.58138 0
M  V30 1506 C 137.794 -5.03836 -1.33413 0
M  V30 1507 C 135.122 -5.77754 -1.02065 0
M  V30 1508 C 137.474 -6.27676 -0.78778 0
M  V30 1509 C 136.138 -6.64562 -0.625561 0
M  V30 1510 H 135.408 -0.594417 -0.442435 0
M  V30 1511 H 138.055 -1.84772 -0.503136 0
M  V30 1512 H 136.36 -2.48167 -3.03184 0
M  V30 1513 H 138.057 -2.82568 -2.84528 0
M  V30 1514 H 134.647 -3.86331 -1.85598 0
M  V30 1515 H 138.831 -4.75026 -1.4375 0
M  V30 1516 H 134.087 -6.04997 -0.882547 0
M  V30 1517 H 138.261 -6.94797 -0.472177 0
M  V30 1518 H 135.888 -7.59965 -0.188926 0
M  V30 1519 N 137.463 0.71206 -1.40597 0
M  V30 1520 C 138.691 1.50111 -1.42388 0
M  V30 1521 C 139.106 1.88784 -0.0245395 0
M  V30 1522 O 138.463 1.55681 0.952351 0
M  V30 1523 C 138.514 2.7742 -2.31776 0
M  V30 1524 O 138.235 2.40382 -3.66262 0
M  V30 1525 C 139.736 3.7129 -2.42196 0
M  V30 1526 H 136.956 0.46314 -0.485533 0
M  V30 1527 H 139.5 0.878068 -1.8469 0
M  V30 1528 H 137.655 3.36001 -1.92827 0
M  V30 1529 H 138.069 3.22324 -4.13772 0
M  V30 1530 H 139.543 4.57448 -3.08943 0
M  V30 1531 H 140.02 4.14641 -1.44809 0
M  V30 1532 H 140.626 3.18619 -2.81712 0
M  V30 1533 N 138.941 1.26152 0.944643 0
M  V30 1534 C 140.357 1.03189 1.21754 0
M  V30 1535 C 140.557 -0.245112 2.00004 0
M  V30 1536 O 139.613 -0.955176 2.33736 0
M  V30 1537 C 140.926 2.26119 1.98219 0
M  V30 1538 C 142.474 2.30984 2.11224 0
M  V30 1539 C 142.949 3.53597 2.91089 0
M  V30 1540 N 144.44 3.54053 2.98664 0
M  V30 1541 C 145.175 4.45593 3.60881 0
M  V30 1542 N 144.671 5.47416 4.24626 0
M  V30 1543 N 146.464 4.33252 3.58119 0
M  V30 1544 H 138.615 2.08177 0.421437 0
M  V30 1545 H 140.878 0.914723 0.248969 0
M  V30 1546 H 140.584 3.18984 1.48128 0
M  V30 1547 H 140.458 2.3009 2.98895 0
M  V30 1548 H 142.845 1.38635 2.60508 0
M  V30 1549 H 142.926 2.31026 1.09821 0
M  V30 1550 H 142.57 4.46273 2.42493 0
M  V30 1551 H 142.5 3.50802 3.92741 0
M  V30 1552 H 144.991 2.80403 2.53343 0
M  V30 1553 H 145.304 6.13459 4.69987 0
M  V30 1554 H 143.649 5.51278 4.23223 0
M  V30 1555 H 146.84 3.52924 3.0751 0
M  V30 1556 H 147.013 5.04786 4.06319 0
M  V30 1557 N 140.419 -1.14872 1.07899 0
M  V30 1558 C 141.83 -1.67367 0.827363 0
M  V30 1559 C 142.181 -1.85236 -0.646693 0
M  V30 1560 O 141.306 -1.55974 -1.50004 0
M  V30 1561 C 141.901 -3.04016 1.49532 0
M  V30 1562 C 140.46 -3.53566 1.29106 0
M  V30 1563 C 139.607 -2.29161 1.56143 0
M  V30 1564 H 142.558 -0.990083 1.24028 0
M  V30 1565 H 142.579 -3.69219 0.919643 0
M  V30 1566 H 142.091 -2.90978 2.56814 0
M  V30 1567 H 140.192 -3.71835 0.238713 0
M  V30 1568 H 140.305 -4.34661 2.01511 0
M  V30 1569 H 138.669 -2.34978 0.982717 0
M  V30 1570 H 139.452 -2.18705 2.64619 0
M  V30 1571 N 141.898 -0.863906 -1.31812 0
M  V30 1572 C 142.848 -0.286898 -2.26188 0
M  V30 1573 C 143.832 0.572577 -1.50367 0
M  V30 1574 O 145.024 0.420447 -1.71934 0
M  V30 1575 C 142.153 0.515849 -3.39402 0
M  V30 1576 C 141.239 -0.356531 -4.22599 0
M  V30 1577 N 141.63 -1.44716 -4.84656 0
M  V30 1578 C 139.928 -0.147898 -4.45755 0
M  V30 1579 C 140.629 -1.98462 -5.46798 0
M  V30 1580 N 139.605 -1.28247 -5.28255 0
M  V30 1581 H 143.407 -1.12055 -2.717 0
M  V30 1582 H 140.921 -0.711012 -1.46008 0
M  V30 1583 H 142.918 0.945701 -4.06032 0
M  V30 1584 H 141.578 1.34718 -2.95434 0
M  V30 1585 H 142.589 -1.83008 -4.84488 0
M  V30 1586 H 139.266 0.647973 -4.12441 0
M  V30 1587 H 140.656 -2.89932 -6.06126 0
M  V30 1588 N 143.376 1.44774 -0.622745 0
M  V30 1589 C 144.787 1.85546 -0.207226 0
M  V30 1590 C 145.138 1.52093 1.23944 0
M  V30 1591 O 144.263 0.95492 1.94191 0
M  V30 1592 C 144.858 3.36781 -0.369313 0
M  V30 1593 C 143.417 3.76399 -0.00836847 0
M  V30 1594 C 142.564 2.68664 -0.686651 0
M  V30 1595 H 145.515 1.3536 -0.828454 0
M  V30 1596 H 145.536 3.78453 0.394162 0
M  V30 1597 H 145.048 3.61098 -1.42231 0
M  V30 1598 H 143.149 3.57698 1.04322 0
M  V30 1599 H 143.262 4.7732 -0.412584 0
M  V30 1600 H 141.626 2.54404 -0.122777 0
M  V30 1601 H 142.409 2.95815 -1.74208 0
M  V30 1602 N 144.854 0.36279 1.53368 0
M  V30 1603 C 145.817 -0.472679 2.24273 0
M  V30 1604 C 146.817 -1.012 1.24961 0
M  V30 1605 O 148.007 -0.898194 1.49259 0
M  V30 1606 C 145.139 -1.66039 2.97731 0
M  V30 1607 H 146.332 0.14773 2.99536 0
M  V30 1608 H 143.885 0.114434 1.55881 0
M  V30 1609 H 144.62 -2.31896 2.26704 0
M  V30 1610 H 144.405 -1.28066 3.70596 0
M  V30 1611 H 145.895 -2.25252 3.51641 0
M  V30 1612 N 146.332 -1.57332 0.0918853 0
M  V30 1613 C 147.262 -2.16872 -0.865371 0
M  V30 1614 C 148.243 -1.10118 -1.29646 0
M  V30 1615 O 149.428 -1.38242 -1.36392 0
M  V30 1616 C 146.558 -2.74649 -2.12569 0
M  V30 1617 C 145.512 -3.86747 -1.83333 0
M  V30 1618 C 144.838 -4.31212 -3.16166 0
M  V30 1619 C 146.138 -5.10089 -1.1228 0
M  V30 1620 H 147.832 -2.97114 -0.369307 0
M  V30 1621 H 145.378 -1.42918 -0.176194 0
M  V30 1622 H 147.331 -3.14952 -2.7997 0
M  V30 1623 H 146.055 -1.91657 -2.64452 0
M  V30 1624 H 144.714 -3.46978 -1.18331 0
M  V30 1625 H 144.362 -3.45115 -3.6593 0
M  V30 1626 H 144.062 -5.06788 -2.97388 0
M  V30 1627 H 145.586 -4.74146 -3.84731 0
M  V30 1628 H 147 -5.47582 -1.69785 0
M  V30 1629 H 145.397 -5.91073 -1.03693 0
M  V30 1630 H 146.467 -4.84786 -0.105041 0
M  V30 1631 N 147.81 0.181792 -1.56548 0
M  V30 1632 C 149.056 0.896803 -1.82562 0
M  V30 1633 C 149.411 1.80324 -0.670908 0
M  V30 1634 O 148.704 1.8868 0.333235 0
M  V30 1635 C 148.898 1.73728 -3.12335 0
M  V30 1636 C 148.727 0.913714 -4.4032 0
M  V30 1637 C 147.497 0.592903 -5.01809 0
M  V30 1638 C 149.695 0.260164 -5.13642 0
M  V30 1639 N 147.677 -0.247901 -6.13399 0
M  V30 1640 C 149.048 -0.442256 -6.18421 0
M  V30 1641 C 151.103 0.177253 -4.97584 0
M  V30 1642 C 149.806 -1.21971 -7.08883 0
M  V30 1643 C 151.832 -0.586839 -5.88481 0
M  V30 1644 C 151.194 -1.27766 -6.92716 0
M  V30 1645 H 147.293 0.307122 -0.719166 0
M  V30 1646 H 149.877 0.164535 -1.94004 0
M  V30 1647 H 148.048 2.44105 -3.02105 0
M  V30 1648 H 149.78 2.39279 -3.26386 0
M  V30 1649 H 146.535 0.920502 -4.64568 0
M  V30 1650 H 146.959 -0.658304 -6.73792 0
M  V30 1651 H 151.601 0.696993 -4.17015 0
M  V30 1652 H 149.319 -1.75083 -7.88905 0
M  V30 1653 H 152.905 -0.652522 -5.78129 0
M  V30 1654 H 151.785 -1.85943 -7.61836 0
M  V30 1655 N 149.288 1.51039 0.449983 0
M  V30 1656 C 150.704 1.38934 0.785462 0
M  V30 1657 C 150.904 0.461817 1.96136 0
M  V30 1658 O 149.96 -0.0877389 2.52348 0
M  V30 1659 C 151.273 2.80724 1.0777 0
M  V30 1660 C 152.821 2.89787 1.1829 0
M  V30 1661 C 153.296 4.32457 1.50815 0
M  V30 1662 N 154.787 4.35505 1.57764 0
M  V30 1663 C 155.522 5.42914 1.84477 0
M  V30 1664 N 155.018 6.60502 2.09068 0
M  V30 1665 N 156.811 5.3038 1.86155 0
M  V30 1666 H 148.962 2.09904 -0.324647 0
M  V30 1667 H 151.225 0.944378 -0.0827957 0
M  V30 1668 H 150.931 3.50531 0.286498 0
M  V30 1669 H 150.805 3.19273 2.00859 0
M  V30 1670 H 153.192 2.20186 1.96474 0
M  V30 1671 H 153.273 2.54752 0.231314 0
M  V30 1672 H 152.917 5.02603 0.731622 0
M  V30 1673 H 152.847 4.64995 2.47158 0
M  V30 1674 H 155.338 3.50724 1.40715 0
M  V30 1675 H 155.651 7.38158 2.28785 0
M  V30 1676 H 153.996 6.63639 2.06416 0
M  V30 1677 H 157.187 4.37505 1.66454 0
M  V30 1678 H 157.36 6.1417 2.06637 0
M  V30 1679 N 150.766 -0.704594 1.40972 0
M  V30 1680 C 151.699 -1.82861 1.36518 0
M  V30 1681 C 152.677 -1.6091 0.23382 0
M  V30 1682 O 153.861 -1.83778 0.419271 0
M  V30 1683 C 150.988 -3.1939 1.12729 0
M  V30 1684 C 150.034 -3.60148 2.28463 0
M  V30 1685 S 150.867 -3.65994 3.90907 0
M  V30 1686 C 152.023 -5.05264 3.69403 0
M  V30 1687 H 152.256 -1.86361 2.3164 0
M  V30 1688 H 149.789 -0.872439 1.27389 0
M  V30 1689 H 151.747 -3.98211 0.996893 0
M  V30 1690 H 150.408 -3.1351 0.192427 0
M  V30 1691 H 149.601 -4.59309 2.07489 0
M  V30 1692 H 149.203 -2.88612 2.37863 0
M  V30 1693 H 151.495 -5.92504 3.28551 0
M  V30 1694 H 152.438 -5.31278 4.68134 0
M  V30 1695 H 152.846 -4.76377 3.02862 0
M  V30 1696 N 152.244 -1.26651 -0.937939 0
M  V30 1697 C 153.49 -1.12553 -1.687 0
M  V30 1698 C 153.823 0.329782 -1.91379 0
M  V30 1699 O 153.098 1.24202 -1.4968 0
M  V30 1700 C 153.381 -1.89862 -3.05981 0
M  V30 1701 C 153.234 -3.43318 -2.90607 0
M  V30 1702 C 154.553 -1.69499 -4.0615 0
M  V30 1703 H 151.672 -0.410257 -0.612257 0
M  V30 1704 H 154.314 -1.55685 -1.08913 0
M  V30 1705 H 152.464 -1.53204 -3.57017 0
M  V30 1706 H 154.136 -3.89747 -2.46769 0
M  V30 1707 H 152.379 -3.70179 -2.26164 0
M  V30 1708 H 153.05 -3.92642 -3.8799 0
M  V30 1709 H 155.526 -2.01442 -3.64088 0
M  V30 1710 H 154.402 -2.26002 -5.00214 0
M  V30 1711 H 154.663 -0.640365 -4.37438 0
M  V30 1712 N 153.722 1.14298 -1.08507 0
M  V30 1713 C 154.969 1.85359 -0.815373 0
M  V30 1714 C 155.297 1.83001 0.658865 0
M  V30 1715 O 154.552 1.25655 1.50031 0
M  V30 1716 C 154.851 3.33547 -1.28379 0
M  V30 1717 C 154.517 3.56093 -2.76602 0
M  V30 1718 C 153.179 3.61955 -3.17084 0
M  V30 1719 C 155.531 3.64834 -3.72217 0
M  V30 1720 C 152.859 3.74082 -4.51973 0
M  V30 1721 C 155.211 3.78487 -5.06883 0
M  V30 1722 C 153.875 3.82598 -5.46969 0
M  V30 1723 H 153.145 0.678276 -0.298366 0
M  V30 1724 H 155.792 1.35002 -1.35819 0
M  V30 1725 H 154.097 3.86191 -0.660593 0
M  V30 1726 H 155.794 3.86959 -1.05186 0
M  V30 1727 H 152.384 3.52179 -2.4427 0
M  V30 1728 H 156.568 3.59595 -3.42061 0
M  V30 1729 H 151.824 3.75527 -4.82483 0
M  V30 1730 H 155.998 3.84193 -5.80834 0
M  V30 1731 H 153.625 3.91747 -6.51489 0
M  V30 1732 N 155.201 0.870884 1.31352 0
M  V30 1733 C 156.449 0.48132 1.96285 0
M  V30 1734 C 156.77 -0.969813 1.69173 0
M  V30 1735 O 156.04 -1.67998 1.00764 0
M  V30 1736 H 154.62 0.175002 0.726212 0
M  V30 1737 H 157.282 1.11087 1.60143 0
M  V30 1738 H 156.378 0.639825 3.05471 0
M  V30 1739 N 156.679 -1.44442 0.630414 0
M  V30 1740 C 157.609 -2.33418 -0.0618083 0
M  V30 1741 C 158.59 -1.48165 -0.835541 0
M  V30 1742 O 159.775 -1.76886 -0.801564 0
M  V30 1743 C 156.905 -3.31222 -1.04449 0
M  V30 1744 C 155.859 -4.26288 -0.382436 0
M  V30 1745 C 155.185 -5.13954 -1.47497 0
M  V30 1746 C 156.485 -5.1744 0.710865 0
M  V30 1747 H 158.179 -2.91548 0.681184 0
M  V30 1748 H 155.725 -1.40191 0.329026 0
M  V30 1749 H 157.678 -3.92351 -1.53748 0
M  V30 1750 H 156.402 -2.71299 -1.81836 0
M  V30 1751 H 155.061 -3.6649 0.0899054 0
M  V30 1752 H 154.709 -4.50385 -2.2397 0
M  V30 1753 H 154.409 -5.7837 -1.03737 0
M  V30 1754 H 155.933 -5.77955 -1.96979 0
M  V30 1755 H 157.347 -5.72509 0.300996 0
M  V30 1756 H 155.744 -5.90455 1.07156 0
M  V30 1757 H 156.814 -4.58496 1.57829 0
M  V30 1758 N 158.157 -0.370918 -1.53173 0
M  V30 1759 C 159.382 0.220293 -2.06227 0
M  V30 1760 C 159.807 1.41243 -1.24225 0
M  V30 1761 O 159.165 1.79387 -0.262645 0
M  V30 1762 C 159.213 0.586663 -3.55796 0
M  V30 1763 O 158.317 1.68317 -3.76488 0
M  V30 1764 H 157.658 0.0308099 -0.663285 0
M  V30 1765 H 160.188 -0.533068 -1.97534 0
M  V30 1766 H 160.198 0.85617 -3.98916 0
M  V30 1767 H 158.873 -0.285013 -4.14922 0
M  V30 1768 H 157.45 1.40881 -3.45264 0
M  V30 1769 N 159.635 1.57281 -0.100228 0
M  V30 1770 C 160.881 1.94826 0.563101 0
M  V30 1771 C 161.214 0.982475 1.67514 0
M  V30 1772 O 160.489 0.0164069 1.94493 0
M  V30 1773 C 160.772 3.42453 1.11346 0
M  V30 1774 C 160.625 4.498 0.00612081 0
M  V30 1775 C 161.944 3.91506 2.01024 0
M  V30 1776 H 159.063 0.708428 0.203221 0
M  V30 1777 H 161.705 1.8922 -0.171979 0
M  V30 1778 H 159.855 3.47361 1.7399 0
M  V30 1779 H 161.527 4.57 -0.628357 0
M  V30 1780 H 159.77 4.28756 -0.659581 0
M  V30 1781 H 160.441 5.50306 0.432109 0
M  V30 1782 H 162.917 3.88784 1.48278 0
M  V30 1783 H 161.793 4.95358 2.36457 0
M  V30 1784 H 162.054 3.31099 2.92961 0
M  V30 1785 N 161.113 -0.173488 1.56642 0
M  V30 1786 C 162.043 -1.2171 1.99271 0
M  V30 1787 C 163.024 -1.46289 0.867959 0
M  V30 1788 O 164.209 -1.5766 1.13388 0
M  V30 1789 C 161.339 -2.55651 2.35074 0
M  V30 1790 C 160.293 -2.45645 3.50489 0
M  V30 1791 C 159.619 -3.84056 3.72028 0
M  V30 1792 C 160.919 -1.96302 4.84007 0
M  V30 1793 H 162.613 -0.86275 2.867 0
M  V30 1794 H 160.159 -0.413571 1.37933 0
M  V30 1795 H 162.112 -3.2886 2.63494 0
M  V30 1796 H 160.836 -2.92869 1.44552 0
M  V30 1797 H 159.495 -1.7489 3.22194 0
M  V30 1798 H 159.143 -4.18664 2.788 0
M  V30 1799 H 158.843 -3.7823 4.49684 0
M  V30 1800 H 160.367 -4.58854 4.02846 0
M  V30 1801 H 161.781 -2.59284 5.11317 0
M  V30 1802 H 160.178 -2.01429 5.65284 0
M  V30 1803 H 161.248 -0.917226 4.76146 0
M  V30 1804 N 162.591 -1.51276 -0.441967 0
M  V30 1805 C 163.821 -1.67273 -1.21257 0
M  V30 1806 C 164.229 -0.367624 -1.85594 0
M  V30 1807 O 163.572 0.663349 -1.71305 0
M  V30 1808 C 163.634 -2.72807 -2.34129 0
M  V30 1809 C 163.298 -4.1554 -1.90198 0
M  V30 1810 C 164.295 -5.00471 -1.40801 0
M  V30 1811 C 161.98 -4.61616 -1.9803 0
M  V30 1812 C 163.974 -6.29536 -0.998174 0
M  V30 1813 C 161.661 -5.90679 -1.56658 0
M  V30 1814 C 162.659 -6.74466 -1.07633 0
M  V30 1815 O 162.347 -8.01116 -0.668459 0
M  V30 1816 H 162.079 -0.564614 -0.371734 0
M  V30 1817 H 164.633 -1.9843 -0.530521 0
M  V30 1818 H 162.863 -2.36954 -3.05597 0
M  V30 1819 H 164.552 -2.77729 -2.96009 0
M  V30 1820 H 165.318 -4.66079 -1.34148 0
M  V30 1821 H 161.197 -3.96526 -2.35135 0
M  V30 1822 H 164.741 -6.94885 -0.61482 0
M  V30 1823 H 160.638 -6.24586 -1.62979 0
M  V30 1824 H 161.406 -8.14633 -0.794722 0
M  V30 1825 N 164.069 0.697108 -1.41344 0
M  V30 1826 C 165.316 1.45714 -1.40619 0
M  V30 1827 C 165.644 1.94494 -0.0147907 0
M  V30 1828 O 164.899 1.69794 0.973066 0
M  V30 1829 C 165.198 2.68553 -2.35826 0
M  V30 1830 C 164.864 2.38438 -3.82698 0
M  V30 1831 C 163.526 2.29936 -4.22709 0
M  V30 1832 C 165.878 2.13567 -4.75435 0
M  V30 1833 C 163.206 1.94656 -5.53467 0
M  V30 1834 C 165.558 1.79797 -6.06511 0
M  V30 1835 C 164.222 1.69789 -6.45545 0
M  V30 1836 H 163.492 0.533206 -0.51456 0
M  V30 1837 H 166.139 0.796901 -1.74131 0
M  V30 1838 H 164.444 3.39503 -1.95563 0
M  V30 1839 H 166.141 3.2669 -2.32539 0
M  V30 1840 H 162.731 2.4595 -3.51008 0
M  V30 1841 H 166.915 2.19082 -4.45328 0
M  V30 1842 H 162.171 1.8546 -5.82593 0
M  V30 1843 H 166.345 1.59572 -6.77872 0
M  V30 1844 H 163.972 1.4222 -7.46778 0
M  V30 1845 N 165.547 1.27147 0.931209 0
M  V30 1846 C 166.477 1.12081 2.04842 0
M  V30 1847 C 167.458 0.0232364 1.70084 0
M  V30 1848 O 168.643 0.197085 1.93197 0
M  V30 1849 C 165.773 0.76354 3.38803 0
M  V30 1850 C 164.727 1.81396 3.87659 0
M  V30 1851 C 164.053 1.31075 5.18385 0
M  V30 1852 C 165.353 3.21739 4.11438 0
M  V30 1853 H 167.047 2.05537 2.17703 0
M  V30 1854 H 164.593 0.989603 1.04608 0
M  V30 1855 H 166.546 0.644982 4.16435 0
M  V30 1856 H 165.27 -0.206727 3.25945 0
M  V30 1857 H 163.929 1.92136 3.12217 0
M  V30 1858 H 163.577 0.330037 5.01916 0
M  V30 1859 H 163.277 2.013 5.52044 0
M  V30 1860 H 164.801 1.20506 5.98591 0
M  V30 1861 H 166.215 3.14019 4.79651 0
M  V30 1862 H 164.612 3.89644 4.56397 0
M  V30 1863 H 165.682 3.67054 3.16859 0
M  V30 1864 N 167.025 -1.13721 1.09112 0
M  V30 1865 C 168.272 -1.84924 0.825192 0
M  V30 1866 C 168.6 -1.83347 -0.649151 0
M  V30 1867 O 167.855 -1.26449 -1.49362 0
M  V30 1868 C 168.154 -3.32861 1.30146 0
M  V30 1869 C 167.82 -3.54621 2.78486 0
M  V30 1870 C 166.482 -3.60268 3.18999 0
M  V30 1871 C 168.834 -3.62855 3.74146 0
M  V30 1872 C 166.162 -3.71679 4.53951 0
M  V30 1873 C 168.514 -3.75793 5.08883 0
M  V30 1874 C 167.178 -3.79692 5.4899 0
M  V30 1875 H 166.448 -0.676684 0.301959 0
M  V30 1876 H 169.095 -1.3428 1.36533 0
M  V30 1877 H 167.4 -3.85835 0.681064 0
M  V30 1878 H 169.097 -3.86395 1.07236 0
M  V30 1879 H 165.687 -3.50879 2.46134 0
M  V30 1880 H 169.871 -3.57775 3.43963 0
M  V30 1881 H 165.127 -3.72963 4.84467 0
M  V30 1882 H 169.301 -3.81107 5.82864 0
M  V30 1883 H 166.928 -3.88287 6.53558 0
M  V30 1884 N 168.503 -0.877838 -1.30888 0
M  V30 1885 C 169.433 -0.35534 -2.3078 0
M  V30 1886 C 170.414 0.557994 -1.60687 0
M  V30 1887 O 171.599 0.473355 -1.88343 0
M  V30 1888 C 168.729 0.437221 -3.44537 0
M  V30 1889 C 167.683 -0.383715 -4.26276 0
M  V30 1890 C 167.009 0.535014 -5.32017 0
M  V30 1891 C 168.309 -1.62201 -4.96476 0
M  V30 1892 H 170.003 -1.19007 -2.74732 0
M  V30 1893 H 167.549 -0.573698 -1.32078 0
M  V30 1894 H 169.502 0.813334 -4.13477 0
M  V30 1895 H 168.226 1.30553 -2.99372 0
M  V30 1896 H 166.885 -0.741874 -3.59015 0
M  V30 1897 H 166.533 1.40083 -4.831 0
M  V30 1898 H 166.233 -0.0104211 -5.87599 0
M  V30 1899 H 167.757 0.907799 -6.03814 0
M  V30 1900 H 169.171 -1.31689 -5.5797 0
M  V30 1901 H 167.568 -2.10711 -5.61891 0
M  V30 1902 H 168.638 -2.37044 -4.23011 0
M  V30 1903 N 169.982 1.44106 -0.638065 0
M  V30 1904 C 171.228 2.02277 -0.145546 0
M  V30 1905 C 171.561 1.50125 1.23191 0
M  V30 1906 O 170.836 0.688133 1.8192 0
M  V30 1907 C 171.119 3.59829 -0.139791 0
M  V30 1908 C 170.972 4.22247 -1.55008 0
M  V30 1909 C 172.291 4.36873 0.531966 0
M  V30 1910 H 169.41 0.734992 -0.0543632 0
M  V30 1911 H 172.052 1.71592 -0.815863 0
M  V30 1912 H 170.202 3.86102 0.431007 0
M  V30 1913 H 171.874 4.07057 -2.1703 0
M  V30 1914 H 170.117 3.79476 -2.10191 0
M  V30 1915 H 170.788 5.31284 -1.49804 0
M  V30 1916 H 173.264 4.16074 0.0464781 0
M  V30 1917 H 172.14 5.4657 0.505206 0
M  V30 1918 H 172.401 4.11995 1.60352 0
M  V30 1919 N 171.46 0.379036 1.52974 0
M  V30 1920 C 172.707 -0.206421 2.01445 0
M  V30 1921 C 173.035 -1.47668 1.26587 0
M  V30 1922 O 172.29 -1.92514 0.351675 0
M  V30 1923 C 172.589 -0.53096 3.53434 0
M  V30 1924 C 172.255 0.646546 4.46241 0
M  V30 1925 C 170.917 0.969604 4.7133 0
M  V30 1926 C 173.269 1.43479 5.01062 0
M  V30 1927 C 170.597 2.08263 5.48492 0
M  V30 1928 C 172.949 2.53834 5.7944 0
M  V30 1929 C 171.613 2.86659 6.02812 0
M  V30 1930 H 170.883 -0.0755349 0.73714 0
M  V30 1931 H 173.53 0.514271 1.84465 0
M  V30 1932 H 171.835 -1.33285 3.68432 0
M  V30 1933 H 173.532 -0.996417 3.88423 0
M  V30 1934 H 170.122 0.384734 4.2687 0
M  V30 1935 H 174.306 1.19844 4.81613 0
M  V30 1936 H 169.562 2.34078 5.64816 0
M  V30 1937 H 173.736 3.15319 6.20924 0
M  V30 1938 H 171.363 3.73026 6.62387 0
M  V30 1939 N 172.938 -1.57226 0.108567 0
M  V30 1940 C 173.868 -2.17778 -0.84232 0
M  V30 1941 C 174.849 -1.11487 -1.2847 0
M  V30 1942 O 176.034 -1.39681 -1.34918 0
M  V30 1943 C 173.164 -2.76888 -2.09644 0
M  V30 1944 C 172.118 -3.88669 -1.79221 0
M  V30 1945 C 171.444 -4.34541 -3.11574 0
M  V30 1946 C 172.744 -5.11251 -1.06864 0
M  V30 1947 H 174.438 -2.97489 -0.337774 0
M  V30 1948 H 171.984 -1.43097 -0.161025 0
M  V30 1949 H 173.937 -3.17904 -2.76614 0
M  V30 1950 H 172.661 -1.94451 -2.62405 0
M  V30 1951 H 171.32 -3.48213 -1.14644 0
M  V30 1952 H 170.968 -3.48977 -3.62249 0
M  V30 1953 H 170.668 -5.09914 -2.91996 0
M  V30 1954 H 172.192 -4.782 -3.7968 0
M  V30 1955 H 173.606 -5.49352 -1.63968 0
M  V30 1956 H 172.003 -5.9214 -0.974178 0
M  V30 1957 H 173.073 -4.8487 -0.0536168 0
M  V30 1958 N 174.416 0.165178 -1.56732 0
M  V30 1959 C 175.346 1.20651 -1.99914 0
M  V30 1960 C 176.327 1.45827 -0.875705 0
M  V30 1961 O 177.512 1.57057 -1.14223 0
M  V30 1962 C 174.642 2.54401 -2.36427 0
M  V30 1963 C 173.596 2.43782 -3.51787 0
M  V30 1964 C 172.922 3.82078 -3.7406 0
M  V30 1965 C 174.222 1.93732 -4.85041 0
M  V30 1966 H 175.916 0.847534 -2.87154 0
M  V30 1967 H 173.462 0.40625 -1.38151 0
M  V30 1968 H 175.415 3.27458 -2.65234 0
M  V30 1969 H 174.139 2.92098 -1.46103 0
M  V30 1970 H 172.798 1.73178 -3.23117 0
M  V30 1971 H 172.446 4.17179 -2.81017 0
M  V30 1972 H 172.146 3.7584 -4.51684 0
M  V30 1973 H 173.67 4.56712 -4.05274 0
M  V30 1974 H 175.084 2.56569 -5.12684 0
M  V30 1975 H 173.481 1.98428 -5.66345 0
M  V30 1976 H 174.551 0.891962 -4.76626 0
M  V30 1977 N 175.894 1.51508 0.433938 0
M  V30 1978 C 177.141 1.64345 1.18309 0
M  V30 1979 C 177.469 0.361315 1.91115 0
M  V30 1980 O 176.724 -0.654753 1.84422 0
M  V30 1981 C 177.023 2.79928 2.22205 0
M  V30 1982 C 176.689 4.19078 1.66387 0
M  V30 1983 C 175.351 4.56932 1.50887 0
M  V30 1984 C 177.703 5.05894 1.25381 0
M  V30 1985 C 175.031 5.79305 0.928608 0
M  V30 1986 C 177.383 6.2885 0.687823 0
M  V30 1987 C 176.047 6.65473 0.519755 0
M  V30 1988 H 175.317 0.601381 0.432923 0
M  V30 1989 H 177.964 1.85549 0.473676 0
M  V30 1990 H 176.269 2.52959 2.99197 0
M  V30 1991 H 177.966 2.87059 2.79997 0
M  V30 1992 H 174.556 3.89234 1.79428 0
M  V30 1993 H 178.74 4.77253 1.36175 0
M  V30 1994 H 173.996 6.06324 0.786186 0
M  V30 1995 H 178.17 6.95461 0.361581 0
M  V30 1996 H 175.797 7.6017 0.0679979 0
M  V30 1997 N 177.372 -0.689602 1.41712 0
M  V30 1998 C 178.302 -1.81577 1.46806 0
M  V30 1999 C 179.283 -1.66945 0.326105 0
M  V30 2000 O 180.468 -1.86588 0.538377 0
M  V30 2001 C 177.598 -3.19762 1.35535 0
M  V30 2002 C 176.552 -3.49107 2.47605 0
M  V30 2003 C 175.878 -4.86711 2.21397 0
M  V30 2004 C 177.178 -3.47483 3.89939 0
M  V30 2005 H 178.872 -1.7757 2.41058 0
M  V30 2006 H 176.418 -0.852887 1.16025 0
M  V30 2007 H 178.371 -3.98263 1.3771 0
M  V30 2008 H 177.095 -3.24409 0.377708 0
M  V30 2009 H 175.754 -2.72959 2.44722 0
M  V30 2010 H 175.402 -4.8799 1.21961 0
M  V30 2011 H 175.102 -5.0731 2.96497 0
M  V30 2012 H 176.626 -5.67515 2.25297 0
M  V30 2013 H 178.04 -4.1598 3.94505 0
M  V30 2014 H 176.437 -3.79615 4.64771 0
M  V30 2015 H 177.507 -2.46341 4.17665 0
M  V30 2016 N 178.85 -1.27639 -0.924453 0
M  V30 2017 C 179.798 -1.10485 -2.04685 0
M  V30 2018 C 180.792 -0.0270421 -1.69378 0
M  V30 2019 O 181.998 -0.185008 -1.79047 0
M  V30 2020 H 178.373 -0.340546 -0.670472 0
M  V30 2021 H 180.344 -2.05566 -2.16298 0
M  V30 2022 C 179.093 -0.772229 -3.39016 0
M  V30 2023 H 178.416 -1.59351 -3.66671 0
M  V30 2024 H 179.856 -0.692097 -4.18313 0
M  V30 2025 C 178.315 0.523554 -3.32807 0
M  V30 2026 O 178.845 1.55702 -3.70297 0
M  V30 2027 N 177.051 0.520363 -2.85903 0
M  V30 2028 H 176.598 -0.32107 -2.55591 0
M  V30 2029 H 176.556 1.38742 -2.82131 0
M  V30 2030 N 180.328 1.1314 -1.09713 0
M  V30 2031 C 181.575 1.84484 -0.834987 0
M  V30 2032 C 181.903 1.83689 0.639418 0
M  V30 2033 O 181.158 1.2724 1.4869 0
M  V30 2034 C 181.457 3.32167 -1.3191 0
M  V30 2035 C 181.123 3.53139 -2.80363 0
M  V30 2036 C 179.785 3.58571 -3.20905 0
M  V30 2037 C 182.137 3.60866 -3.76065 0
M  V30 2038 C 179.465 3.69267 -4.55916 0
M  V30 2039 C 181.817 3.73089 -5.10869 0
M  V30 2040 C 180.481 3.76775 -5.50996 0
M  V30 2041 H 179.751 0.675073 -0.305544 0
M  V30 2042 H 182.398 1.33554 -1.37243 0
M  V30 2043 H 180.703 3.85469 -0.701517 0
M  V30 2044 H 182.4 3.85821 -1.09284 0
M  V30 2045 H 178.99 3.49569 -2.47991 0
M  V30 2046 H 183.174 3.55946 -3.45855 0
M  V30 2047 H 178.43 3.70388 -4.86438 0
M  V30 2048 H 182.604 3.78011 -5.84877 0
M  V30 2049 H 180.231 3.84815 -6.55608 0
M  V30 2050 N 181.806 0.884767 1.30421 0
M  V30 2051 C 182.716 0.355398 2.31892 0
M  V30 2052 C 183.732 -0.542261 1.65335 0
M  V30 2053 O 184.908 -0.435432 1.96637 0
M  V30 2054 C 181.973 -0.421661 3.44126 0
M  V30 2055 C 181.034 0.505727 4.26311 0
M  V30 2056 C 180.267 -0.234343 5.33185 0
M  V30 2057 O 180.49 -1.46045 5.51386 0
M  V30 2058 O 179.424 0.415443 6.00465 0
M  V30 2059 H 183.25 1.19685 2.79122 0
M  V30 2060 H 180.835 0.648596 1.34587 0
M  V30 2061 H 182.717 -0.861641 4.12497 0
M  V30 2062 H 181.392 -1.23942 2.99032 0
M  V30 2063 H 180.299 0.994513 3.60639 0
M  V30 2064 H 181.632 1.28948 4.75009 0
M  V30 2065 N 183.284 -1.43765 0.645699 0
M  V30 2066 C 184.216 -2.29027 -0.0890605 0
M  V30 2067 C 185.229 -1.42093 -0.794563 0
M  V30 2068 O 186.418 -1.66104 -0.653575 0
M  V30 2069 C 183.518 -3.18831 -1.14891 0
M  V30 2070 C 182.691 -4.34261 -0.523043 0
M  V30 2071 C 181.75 -5.04994 -1.47878 0
M  V30 2072 O 180.776 -5.6052 -0.990277 0
M  V30 2073 N 181.978 -5.07795 -2.81291 0
M  V30 2074 H 184.743 -2.92727 0.64272 0
M  V30 2075 H 182.304 -1.54373 0.487924 0
M  V30 2076 H 184.296 -3.63015 -1.78892 0
M  V30 2077 H 182.866 -2.56782 -1.78275 0
M  V30 2078 H 182.086 -3.93088 0.295896 0
M  V30 2079 H 183.374 -5.08728 -0.0858147 0
M  V30 2080 H 182.772 -4.64042 -3.23546 0
M  V30 2081 H 181.329 -5.55721 -3.40614 0
M  V30 2082 N 184.763 -0.387143 -1.52771 0
M  V30 2083 C 186.009 0.196025 -2.0185 0
M  V30 2084 C 186.342 1.46641 -1.27319 0
M  V30 2085 O 185.617 1.90889 -0.373032 0
M  V30 2086 C 185.9 0.466136 -3.5707 0
M  V30 2087 C 185.753 -0.819385 -4.42274 0
M  V30 2088 C 187.072 1.25768 -4.21747 0
M  V30 2089 H 184.191 0.0697708 -0.73369 0
M  V30 2090 H 186.833 -0.516286 -1.82851 0
M  V30 2091 H 184.983 1.07293 -3.7339 0
M  V30 2092 H 186.655 -1.4563 -4.37709 0
M  V30 2093 H 184.898 -1.43517 -4.09372 0
M  V30 2094 H 185.569 -0.585065 -5.48891 0
M  V30 2095 H 188.045 0.744167 -4.09391 0
M  V30 2096 H 186.921 1.41541 -5.30337 0
M  V30 2097 H 187.182 2.27228 -3.79236 0
M  V30 2098 N 186.241 1.57166 -0.116904 0
M  V30 2099 C 187.188 2.15202 0.83408 0
M  V30 2100 C 188.158 1.07644 1.26499 0
M  V30 2101 O 189.343 1.35541 1.34288 0
M  V30 2102 C 186.483 2.75405 2.07957 0
M  V30 2103 C 185.596 3.97264 1.69721 0
M  V30 2104 C 184.731 4.45561 2.89221 0
M  V30 2105 C 183.77 5.59956 2.47215 0
M  V30 2106 N 182.907 6.03006 3.59622 0
M  V30 2107 H 187.747 2.96141 0.332335 0
M  V30 2108 H 185.284 1.46309 0.152349 0
M  V30 2109 H 187.242 3.08439 2.80929 0
M  V30 2110 H 185.872 1.97159 2.55594 0
M  V30 2111 H 184.924 3.70404 0.866316 0
M  V30 2112 H 186.236 4.80226 1.34849 0
M  V30 2113 H 185.39 4.80493 3.7042 0
M  V30 2114 H 184.129 3.61544 3.27318 0
M  V30 2115 H 183.134 5.2463 1.64448 0
M  V30 2116 H 184.359 6.45738 2.10238 0
M  V30 2117 H 182.305 5.21931 3.97396 0
M  V30 2118 H 182.222 6.80819 3.28667 0
M  V30 2119 H 183.49 6.42576 4.41267 0
M  V30 2120 N 187.719 -0.156864 1.56817 0
M  V30 2121 C 188.944 -0.890331 1.87318 0
M  V30 2122 C 189.369 -1.74394 0.704855 0
M  V30 2123 O 188.727 -1.77972 -0.345786 0
M  V30 2124 C 188.775 -1.73102 3.16336 0
M  V30 2125 O 187.879 -2.83422 2.99576 0
M  V30 2126 H 187.22 -0.24857 0.615718 0
M  V30 2127 H 189.75 -0.150649 2.04045 0
M  V30 2128 H 189.76 -2.12803 3.48107 0
M  V30 2129 H 188.435 -1.10412 4.00976 0
M  V30 2130 H 187.012 -2.47199 2.7919 0
M  V30 2131 N 189.197 -1.51736 -0.425897 0
M  V30 2132 C 190.127 -1.76827 -1.52494 0
M  V30 2133 C 191.108 -0.618524 -1.58456 0
M  V30 2134 O 192.293 -0.862416 -1.74 0
M  V30 2135 C 189.423 -1.90374 -2.90474 0
M  V30 2136 C 188.377 -3.0588 -2.99369 0
M  V30 2137 C 187.703 -3.04625 -4.3944 0
M  V30 2138 C 189.003 -4.45644 -2.72394 0
M  V30 2139 H 190.697 -2.68855 -1.31748 0
M  V30 2140 H 188.243 -1.29372 -0.632362 0
M  V30 2141 H 190.196 -2.0651 -3.6733 0
M  V30 2142 H 188.92 -0.95004 -3.12477 0
M  V30 2143 H 187.579 -2.89467 -2.24954 0
M  V30 2144 H 187.227 -2.0701 -4.58428 0
M  V30 2145 H 186.927 -3.82195 -4.46319 0
M  V30 2146 H 188.451 -3.22869 -5.18255 0
M  V30 2147 H 189.865 -4.62348 -3.38979 0
M  V30 2148 H 188.262 -5.25006 -2.9067 0
M  V30 2149 H 189.332 -4.54893 -1.67929 0
M  V30 2150 N 190.675 0.682077 -1.42076 0
M  V30 2151 C 191.608 1.80666 -1.3941 0
M  V30 2152 C 192.586 1.60518 -0.25939 0
M  V30 2153 O 193.77 1.83088 -0.448456 0
M  V30 2154 C 190.897 3.17556 -1.17796 0
M  V30 2155 C 189.943 3.56468 -2.34164 0
M  V30 2156 S 190.776 3.59729 -3.96681 0
M  V30 2157 C 191.932 4.99323 -3.77395 0
M  V30 2158 H 192.165 1.82652 -2.34575 0
M  V30 2159 H 189.698 0.852062 -1.2876 0
M  V30 2160 H 191.656 3.96575 -1.06012 0
M  V30 2161 H 190.317 3.13164 -0.242279 0
M  V30 2162 H 189.51 4.5595 -2.1477 0
M  V30 2163 H 189.112 2.84792 -2.42425 0
M  V30 2164 H 191.404 5.87202 -3.37935 0
M  V30 2165 H 192.347 5.23763 -4.76527 0
M  V30 2166 H 192.755 4.71498 -3.10403 0
M  V30 2167 N 192.153 1.28127 0.917671 0
M  V30 2168 C 193.383 1.17722 1.6978 0
M  V30 2169 C 193.791 -0.267261 1.87303 0
M  V30 2170 O 193.134 -1.19286 1.39702 0
M  V30 2171 C 193.196 1.79958 3.11216 0
M  V30 2172 C 192.86 3.29187 3.16993 0
M  V30 2173 C 193.857 4.25679 2.98485 0
M  V30 2174 C 191.542 3.70075 3.39632 0
M  V30 2175 C 193.536 5.61035 3.02521 0
M  V30 2176 C 191.223 5.05557 3.433 0
M  V30 2177 C 192.221 6.00847 3.24764 0
M  V30 2178 O 191.909 7.33859 3.28187 0
M  V30 2179 H 191.641 0.409788 0.537634 0
M  V30 2180 H 194.195 1.69694 1.15728 0
M  V30 2181 H 192.425 1.22475 3.66793 0
M  V30 2182 H 194.114 1.64125 3.71238 0
M  V30 2183 H 194.88 3.95426 2.80826 0
M  V30 2184 H 190.759 2.96373 3.53106 0
M  V30 2185 H 194.303 6.35388 2.87971 0
M  V30 2186 H 190.2 5.35462 3.60486 0
M  V30 2187 H 190.968 7.42436 3.44575 0
M  V30 2188 N 193.631 -1.12557 1.10312 0
M  V30 2189 C 194.877 -1.84515 0.855901 0
M  V30 2190 C 195.232 -1.82409 -0.611936 0
M  V30 2191 O 194.525 -1.25778 -1.44535 0
M  V30 2192 C 194.719 -3.31462 1.33669 0
M  V30 2193 C 194.548 -3.47879 2.84974 0
M  V30 2194 C 193.318 -3.61589 3.52961 0
M  V30 2195 C 195.516 -3.43152 3.83081 0
M  V30 2196 N 193.498 -3.66359 4.926 0
M  V30 2197 C 194.869 -3.54401 5.08724 0
M  V30 2198 C 196.924 -3.2661 3.75807 0
M  V30 2199 C 195.627 -3.50815 6.2795 0
M  V30 2200 C 197.653 -3.24335 4.94531 0
M  V30 2201 C 197.015 -3.36144 6.19021 0
M  V30 2202 H 193.114 -0.690967 0.366182 0
M  V30 2203 H 195.698 -1.34763 1.40524 0
M  V30 2204 H 193.869 -3.7976 0.814686 0
M  V30 2205 H 195.601 -3.91272 1.03385 0
M  V30 2206 H 192.356 -3.63652 3.03404 0
M  V30 2207 H 192.78 -3.72411 5.65366 0
M  V30 2208 H 197.422 -3.16375 2.80476 0
M  V30 2209 H 195.14 -3.5982 7.23571 0
M  V30 2210 H 198.726 -3.12719 4.9061 0
M  V30 2211 H 197.606 -3.34357 7.09348 0
M  V30 2212 N 195.109 -0.891671 -1.2995 0
M  V30 2213 C 196.039 -0.379797 -2.30391 0
M  V30 2214 C 197.02 0.540919 -1.6127 0
M  V30 2215 O 198.205 0.453352 -1.88834 0
M  V30 2216 C 195.335 0.400654 -3.44981 0
M  V30 2217 C 194.289 -0.428905 -4.25846 0
M  V30 2218 C 193.615 0.478557 -5.32554 0
M  V30 2219 C 194.915 -1.67458 -4.94727 0
M  V30 2220 H 196.609 -1.21914 -2.73454 0
M  V30 2221 H 194.155 -0.587675 -1.31462 0
M  V30 2222 H 196.108 0.769434 -4.14316 0
M  V30 2223 H 194.832 1.27371 -3.0074 0
M  V30 2224 H 193.491 -0.779911 -3.58208 0
M  V30 2225 H 193.139 1.34951 -4.84559 0
M  V30 2226 H 192.839 -0.0727433 -5.87555 0
M  V30 2227 H 194.363 0.843705 -6.04743 0
M  V30 2228 H 195.777 -1.376 -5.56542 0
M  V30 2229 H 194.174 -2.16659 -5.59624 0
M  V30 2230 H 195.244 -2.41518 -4.20473 0
M  V30 2231 N 196.587 1.43421 -0.653314 0
M  V30 2232 C 197.864 1.95361 -0.0966581 0
M  V30 2233 C 198.244 1.59461 1.38331 0
M  V30 2234 O 197.592 0.879777 2.10884 0
M  V30 2235 C 197.802 3.47311 -0.342988 0
M  V30 2236 C 199.15 4.23875 -0.24798 0
M  V30 2237 O 200.174 3.55133 -0.275553 0
M  V30 2238 O 199.033 5.4623 -0.171771 0
M  V30 2239 H 196.127 0.826945 0.00956291 0
M  V30 2240 H 198.673 1.5336 -0.726558 0
M  V30 2241 H 197.445 3.66569 -1.36906 0
M  V30 2242 H 197.068 3.9631 0.319975 0
M  V30 2243 N 198.065 0.39524 1.52563 0
M  V30 2244 C 199.476 -0.0774719 1.86539 0
M  V30 2245 C 199.827 -1.45641 1.31466 0
M  V30 2246 O 198.952 -2.06459 0.648367 0
M  V30 2247 C 199.547 -0.147356 3.38479 0
M  V30 2248 C 198.106 -0.564373 3.72145 0
M  V30 2249 C 197.253 0.269919 2.75983 0
M  V30 2250 H 200.204 0.612876 1.46388 0
M  V30 2251 H 200.225 -0.965343 3.68051 0
M  V30 2252 H 199.737 0.856387 3.78534 0
M  V30 2253 H 197.838 -1.57527 3.37663 0
M  V30 2254 H 197.951 -0.318402 4.78041 0
M  V30 2255 H 196.315 -0.265696 2.5331 0
M  V30 2256 H 197.098 1.27175 3.18875 0
M  V30 2257 N 199.544 -1.57102 0.125237 0
M  V30 2258 C 200.492 -2.16905 -0.839927 0
M  V30 2259 C 201.486 -1.11998 -1.27094 0
M  V30 2260 O 202.692 -1.3029 -1.24195 0
M  V30 2261 H 199.067 -0.694252 -0.288995 0
M  V30 2262 H 201.038 -2.96774 -0.311115 0
M  V30 2263 C 199.787 -2.78795 -2.07771 0
M  V30 2264 H 199.11 -3.59221 -1.755 0
M  V30 2265 H 200.55 -3.2417 -2.73295 0
M  V30 2266 C 199.009 -1.76193 -2.87155 0
M  V30 2267 O 199.539 -1.21909 -3.82755 0
M  V30 2268 N 197.745 -1.45991 -2.51267 0
M  V30 2269 H 197.292 -1.90325 -1.73592 0
M  V30 2270 H 197.25 -0.775844 -3.04677 0
M  V30 2271 N 201.022 0.148545 -1.56898 0
M  V30 2272 C 201.952 1.18524 -2.01182 0
M  V30 2273 C 202.933 1.4489 -0.891123 0
M  V30 2274 O 204.118 1.55836 -1.15882 0
M  V30 2275 C 201.248 2.51879 -2.39112 0
M  V30 2276 C 200.202 2.40038 -3.54353 0
M  V30 2277 C 199.528 3.78089 -3.78091 0
M  V30 2278 C 200.828 1.88577 -4.87069 0
M  V30 2279 H 202.522 0.817029 -2.88036 0
M  V30 2280 H 200.068 0.391575 -1.38574 0
M  V30 2281 H 202.021 3.24627 -2.68692 0
M  V30 2282 H 200.745 2.90532 -1.49193 0
M  V30 2283 H 199.404 1.69742 -3.24936 0
M  V30 2284 H 199.052 4.14175 -2.85426 0
M  V30 2285 H 198.752 3.71028 -4.55645 0
M  V30 2286 H 200.276 4.52387 -4.10095 0
M  V30 2287 H 201.69 2.51117 -5.15377 0
M  V30 2288 H 200.087 1.9241 -5.68417 0
M  V30 2289 H 201.157 0.84136 -4.77545 0
M  V30 2290 N 202.5 1.5196 0.417844 0
M  V30 2291 C 203.916 1.40569 0.755816 0
M  V30 2292 C 204.116 0.503316 1.95113 0
M  V30 2293 O 203.172 -0.0341925 2.52477 0
M  V30 2294 C 204.485 2.82947 1.01791 0
M  V30 2295 C 206.033 2.92231 1.12116 0
M  V30 2296 C 206.508 4.35559 1.41608 0
M  V30 2297 N 207.999 4.38753 1.48491 0
M  V30 2298 C 208.734 5.46705 1.7292 0
M  V30 2299 N 208.23 6.64788 1.95011 0
M  V30 2300 N 210.023 5.34209 1.74863 0
M  V30 2301 H 202.174 2.09168 -0.369098 0
M  V30 2302 H 204.437 0.942409 -0.102809 0
M  V30 2303 H 204.143 3.5106 0.212081 0
M  V30 2304 H 204.017 3.23462 1.94042 0
M  V30 2305 H 206.404 2.24304 1.9176 0
M  V30 2306 H 206.485 2.55185 0.177225 0
M  V30 2307 H 206.129 5.04042 0.624848 0
M  V30 2308 H 206.059 4.70133 2.37239 0
M  V30 2309 H 208.55 3.5363 1.33244 0
M  V30 2310 H 208.863 7.42845 2.13076 0
M  V30 2311 H 207.208 6.67869 1.92293 0
M  V30 2312 H 210.399 4.40937 1.57137 0
M  V30 2313 H 210.572 6.18415 1.93563 0
M  V30 2314 N 203.978 -0.674533 1.42435 0
M  V30 2315 C 205.208 -1.46071 1.46105 0
M  V30 2316 C 205.616 -1.89067 0.0709605 0
M  V30 2317 O 204.959 -1.58731 -0.924677 0
M  V30 2318 C 205.021 -2.74145 2.32561 0
M  V30 2319 C 204.685 -2.53224 3.8043 0
M  V30 2320 C 205.682 -2.17809 4.72075 0
M  V30 2321 C 203.367 -2.6821 4.24698 0
M  V30 2322 C 205.361 -1.97648 6.05982 0
M  V30 2323 C 203.048 -2.47665 5.58664 0
M  V30 2324 C 204.046 -2.12437 6.49122 0
M  V30 2325 O 203.734 -1.9209 7.80613 0
M  V30 2326 H 203.466 -0.455959 0.499076 0
M  V30 2327 H 206.02 -0.836193 1.87609 0
M  V30 2328 H 204.25 -3.3908 1.85908 0
M  V30 2329 H 205.939 -3.36028 2.27683 0
M  V30 2330 H 206.705 -2.05826 4.39159 0
M  V30 2331 H 202.584 -2.94609 3.54579 0
M  V30 2332 H 206.128 -1.70075 6.7655 0
M  V30 2333 H 202.025 -2.59244 5.91154 0
M  V30 2334 H 202.793 -2.06686 7.91974 0
M  V30 2335 N 205.456 -1.28612 -0.910864 0
M  V30 2336 C 206.419 -1.12803 -1.9952 0
M  V30 2337 C 207.419 -0.0668264 -1.60661 0
M  V30 2338 O 208.609 -0.312847 -1.71368 0
M  V30 2339 C 205.741 -0.72254 -3.33155 0
M  V30 2340 H 206.934 -2.09109 -2.14973 0
M  V30 2341 H 204.487 -1.11639 -1.09391 0
M  V30 2342 H 205.222 0.241152 -3.23402 0
M  V30 2343 H 205.007 -1.48916 -3.62721 0
M  V30 2344 H 206.497 -0.634666 -4.12749 0
M  V30 2345 N 206.934 1.1197 -1.10907 0
M  V30 2346 C 208.162 1.87402 -0.876824 0
M  V30 2347 C 208.577 1.79894 0.573025 0
M  V30 2348 O 207.934 1.17629 1.39534 0
M  V30 2349 C 207.985 3.36428 -1.32282 0
M  V30 2350 O 207.706 3.43765 -2.71582 0
M  V30 2351 C 209.207 4.28783 -1.12518 0
M  V30 2352 H 206.427 0.592793 -0.314384 0
M  V30 2353 H 208.971 1.41649 -1.47499 0
M  V30 2354 H 207.126 3.79706 -0.768229 0
M  V30 2355 H 207.54 4.3652 -2.90776 0
M  V30 2356 H 209.014 5.31613 -1.48633 0
M  V30 2357 H 209.491 4.39153 -0.0642394 0
M  V30 2358 H 210.097 3.91291 -1.66648 0
M  V30 2359 N 208.412 0.89855 1.29475 0
M  V30 2360 C 209.828 0.594483 1.48115 0
M  V30 2361 C 210.028 -0.86431 1.82022 0
M  V30 2362 O 209.084 -1.64457 1.91599 0
M  V30 2363 C 210.397 1.51932 2.59494 0
M  V30 2364 C 211.945 1.5244 2.7337 0
M  V30 2365 C 212.42 2.43548 3.87877 0
M  V30 2366 N 213.911 2.41589 3.95208 0
M  V30 2367 C 214.646 3.08789 4.83153 0
M  V30 2368 N 214.142 3.85265 5.75798 0
M  V30 2369 N 215.935 2.97952 4.76635 0
M  V30 2370 H 208.086 1.84207 1.05742 0
M  V30 2371 H 210.349 0.789251 0.525154 0
M  V30 2372 H 210.055 2.55865 2.41301 0
M  V30 2373 H 209.929 1.23899 3.56271 0
M  V30 2374 H 212.316 0.492518 2.90961 0
M  V30 2375 H 212.397 1.8451 1.77172 0
M  V30 2376 H 212.041 3.46829 3.71041 0
M  V30 2377 H 211.971 2.08788 4.83441 0
M  V30 2378 H 214.462 1.86025 3.28943 0
M  V30 2379 H 214.775 4.33598 6.39697 0
M  V30 2380 H 213.12 3.89371 5.75687 0
M  V30 2381 H 216.311 2.37723 4.03244 0
M  V30 2382 H 216.484 3.50599 5.44962 0
M  V30 2383 N 209.89 -1.43072 0.660911 0
M  V30 2384 C 210.8 -2.34585 -0.0264163 0
M  V30 2385 C 211.816 -1.54316 -0.803898 0
M  V30 2386 O 212.992 -1.86939 -0.749391 0
M  V30 2387 C 210.057 -3.32689 -0.975639 0
M  V30 2388 C 209.118 -4.2886 -0.194236 0
M  V30 2389 C 208.351 -5.22278 -1.09825 0
M  V30 2390 O 208.574 -5.20299 -2.33763 0
M  V30 2391 O 207.508 -5.99228 -0.566513 0
M  V30 2392 H 211.334 -2.94869 0.727034 0
M  V30 2393 H 208.919 -1.43342 0.42111 0
M  V30 2394 H 210.801 -3.92995 -1.52094 0
M  V30 2395 H 209.476 -2.74898 -1.70918 0
M  V30 2396 H 208.383 -3.72011 0.394835 0
M  V30 2397 H 209.716 -4.89655 0.499899 0
M  V30 2398 N 211.368 -0.403325 -1.52352 0
M  V30 2399 C 212.331 0.413051 -2.25447 0
M  V30 2400 C 213.331 0.978513 -1.276 0
M  V30 2401 O 214.521 0.858305 -1.51587 0
M  V30 2402 C 211.653 1.58087 -3.02029 0
M  V30 2403 H 212.846 -0.227094 -2.99039 0
M  V30 2404 H 210.399 -0.155722 -1.55522 0
M  V30 2405 H 211.134 2.25804 -2.32772 0
M  V30 2406 H 210.919 1.18195 -3.73861 0
M  V30 2407 H 212.409 2.1585 -3.57489 0
M  V30 2408 N 212.846 1.57033 -0.133567 0
M  V30 2409 C 214.123 1.87256 0.56522 0
M  V30 2410 C 214.503 1.03726 1.83859 0
M  V30 2411 O 213.851 0.120247 2.28183 0
M  V30 2412 C 214.061 3.3865 0.843636 0
M  V30 2413 C 215.409 4.07574 1.19032 0
M  V30 2414 O 216.433 3.43752 0.933429 0
M  V30 2415 O 215.292 5.20259 1.67312 0
M  V30 2416 H 212.386 0.775678 0.286796 0
M  V30 2417 H 214.932 1.68855 -0.169168 0
M  V30 2418 H 213.704 3.91257 -0.0581149 0
M  V30 2419 H 213.327 3.62532 1.63268 0
M  V30 2420 N 214.325 -0.140222 1.56975 0
M  V30 2421 C 215.571 -0.852949 1.83991 0
M  V30 2422 C 215.904 -1.80512 0.716187 0
M  V30 2423 O 215.179 -1.92479 -0.279681 0
M  V30 2424 C 215.462 -1.6215 3.21527 0
M  V30 2425 C 215.315 -0.690363 4.4447 0
M  V30 2426 C 216.634 -2.58247 3.56366 0
M  V30 2427 H 213.753 -0.308634 0.669264 0
M  V30 2428 H 216.395 -0.117898 1.89634 0
M  V30 2429 H 214.545 -2.24812 3.16847 0
M  V30 2430 H 216.217 -0.0742264 4.6124 0
M  V30 2431 H 214.46 -0.000396433 4.338 0
M  V30 2432 H 215.131 -1.2643 5.37326 0
M  V30 2433 H 217.607 -2.05701 3.61699 0
M  V30 2434 H 216.483 -3.09067 4.53617 0
M  V30 2435 H 216.744 -3.39923 2.82674 0
M  V30 2436 N 215.803 -1.52179 -0.40978 0
M  V30 2437 C 216.736 -1.70196 -1.52015 0
M  V30 2438 C 217.714 -0.549542 -1.53032 0
M  V30 2439 O 218.898 -0.776815 -1.71749 0
M  V30 2440 C 216.025 -1.74069 -2.90547 0
M  V30 2441 C 215.071 -2.95601 -3.07445 0
M  V30 2442 S 215.904 -4.55956 -2.80827 0
M  V30 2443 C 217.06 -4.62614 -4.21591 0
M  V30 2444 H 217.293 -2.64109 -1.36504 0
M  V30 2445 H 214.826 -1.4221 -0.601312 0
M  V30 2446 H 216.784 -1.76985 -3.70387 0
M  V30 2447 H 215.445 -0.812835 -3.034 0
M  V30 2448 H 214.638 -2.94791 -4.08796 0
M  V30 2449 H 214.24 -2.90569 -2.35469 0
M  V30 2450 H 216.532 -4.39951 -5.15218 0
M  V30 2451 H 217.475 -5.64548 -4.27424 0
M  V30 2452 H 217.883 -3.91654 -4.06531 0
M  V30 2453 N 217.281 0.66697 -1.42791 0
M  V30 2454 C 218.191 1.80962 -1.49299 0
M  V30 2455 C 219.207 1.69775 -0.381108 0
M  V30 2456 O 220.383 1.91188 -0.633188 0
M  V30 2457 C 217.448 3.17156 -1.40045 0
M  V30 2458 C 216.509 3.40242 -2.6179 0
M  V30 2459 C 215.742 4.69939 -2.52969 0
M  V30 2460 O 215.965 5.48372 -1.56985 0
M  V30 2461 O 214.899 4.94441 -3.43237 0
M  V30 2462 H 218.725 1.78427 -2.45759 0
M  V30 2463 H 216.31 0.823713 -1.24641 0
M  V30 2464 H 218.192 3.98413 -1.37276 0
M  V30 2465 H 216.867 3.20312 -0.467138 0
M  V30 2466 H 215.774 2.58802 -2.70134 0
M  V30 2467 H 217.107 3.41923 -3.54047 0
M  V30 2468 N 218.759 1.29093 0.90403 0
M  V30 2469 C 219.989 1.19516 1.68522 0
M  V30 2470 C 220.397 -0.24738 1.87576 0
M  V30 2471 O 219.74 -1.17798 1.40959 0
M  V30 2472 C 219.802 1.83249 3.0929 0
M  V30 2473 C 219.466 3.32531 3.13484 0
M  V30 2474 C 220.463 4.28821 2.93953 0
M  V30 2475 C 218.148 3.73656 3.35688 0
M  V30 2476 C 220.142 5.64212 2.96553 0
M  V30 2477 C 217.829 5.0917 3.37919 0
M  V30 2478 C 218.827 6.04258 3.18373 0
M  V30 2479 O 218.515 7.37298 3.20385 0
M  V30 2480 H 218.247 0.415467 0.533257 0
M  V30 2481 H 220.801 1.70912 1.13922 0
M  V30 2482 H 219.031 1.26358 3.65473 0
M  V30 2483 H 220.72 1.68054 3.69476 0
M  V30 2484 H 221.486 3.98382 2.76616 0
M  V30 2485 H 217.365 3.00101 3.49943 0
M  V30 2486 H 220.909 6.38407 2.81216 0
M  V30 2487 H 216.806 5.39256 3.54787 0
M  V30 2488 H 217.574 7.46048 3.36681 0
M  V30 2489 N 220.237 -1.11381 1.11499 0
M  V30 2490 C 221.2 -2.15622 0.777153 0
M  V30 2491 C 222.2 -1.59504 -0.203779 0
M  V30 2492 O 223.39 -1.74188 0.020782 0
M  V30 2493 C 220.522 -3.40556 0.153116 0
M  V30 2494 H 221.715 -2.47021 1.70061 0
M  V30 2495 H 219.268 -1.26577 0.916952 0
M  V30 2496 H 220.003 -3.14767 -0.780536 0
M  V30 2497 H 219.788 -3.8257 0.859238 0
M  V30 2498 H 221.278 -4.17546 -0.0671044 0
M  V30 2499 N 221.715 -0.905404 -1.28997 0
M  V30 2500 C 222.961 -0.535039 -1.95615 0
M  V30 2501 C 223.294 0.917404 -1.71165 0
M  V30 2502 O 222.569 1.65123 -1.02785 0
M  V30 2503 C 222.852 -0.834918 -3.50287 0
M  V30 2504 C 222.705 -2.33948 -3.84172 0
M  V30 2505 C 224.024 -0.325318 -4.38896 0
M  V30 2506 H 221.143 -0.195861 -0.710498 0
M  V30 2507 H 223.785 -1.13313 -1.52513 0
M  V30 2508 H 221.935 -0.325904 -3.87131 0
M  V30 2509 H 223.607 -2.91847 -3.57243 0
M  V30 2510 H 221.85 -2.79789 -3.31513 0
M  V30 2511 H 222.521 -2.49987 -4.92149 0
M  V30 2512 H 224.997 -0.761256 -4.09077 0
M  V30 2513 H 223.873 -0.564295 -5.45992 0
M  V30 2514 H 224.134 0.774144 -4.35269 0
M  V30 2515 N 223.193 1.4272 -0.668489 0
M  V30 2516 C 224.141 2.32586 0.0254857 0
M  V30 2517 C 225.135 1.49471 0.797176 0
M  V30 2518 O 226.341 1.65583 0.705853 0
M  V30 2519 H 222.716 0.751514 0.0270339 0
M  V30 2520 H 224.687 2.88823 -0.749936 0
M  V30 2521 C 223.436 3.3397 0.967427 0
M  V30 2522 H 222.759 3.97961 0.383048 0
M  V30 2523 H 224.199 3.9945 1.42181 0
M  V30 2524 C 222.658 2.65744 2.0708 0
M  V30 2525 O 223.188 2.48454 3.15648 0
M  V30 2526 N 221.394 2.2487 1.8407 0
M  V30 2527 H 220.941 2.39132 0.95778 0
M  V30 2528 H 220.899 1.79552 2.58086 0
M  V30 2529 N 224.671 0.411399 1.52136 0
M  V30 2530 C 225.911 -0.163143 2.03748 0
M  V30 2531 C 226.275 -1.42187 1.29022 0
M  V30 2532 O 227.476 -2.075 1.70872 0
M  V30 2533 C 225.747 -0.402651 3.55125 0
M  V30 2534 S 227.306 -0.944315 4.28519 0
M  V30 2535 H 224.124 -0.0439833 0.709638 0
M  V30 2536 H 226.726 0.56484 1.87163 0
M  V30 2537 H 225.43 0.520212 4.0709 0
M  V30 2538 H 224.961 -1.15844 3.75957 0
M  V30 2539 H 226.976 -2.22463 4.43536 0
M  V30 2540 N 226.149 -1.5696 0.141893 0
M  V30 2541 C 227.099 -2.13074 -0.811383 0
M  V30 2542 C 228.083 -1.05726 -1.21288 0
M  V30 2543 O 229.275 -1.31914 -1.18015 0
M  V30 2544 C 226.404 -2.75186 -2.0525 0
M  V30 2545 C 225.49 -3.8965 -1.67432 0
M  V30 2546 N 225.881 -4.95733 -1.0041 0
M  V30 2547 C 224.179 -4.00262 -1.96739 0
M  V30 2548 C 224.88 -5.75858 -0.822345 0
M  V30 2549 N 223.856 -5.26452 -1.3546 0
M  V30 2550 H 227.658 -2.92465 -0.290031 0
M  V30 2551 H 225.172 -1.6229 -0.0598218 0
M  V30 2552 H 227.169 -3.13745 -2.74535 0
M  V30 2553 H 225.829 -1.97266 -2.57907 0
M  V30 2554 H 226.84 -5.13607 -0.665441 0
M  V30 2555 H 223.517 -3.33412 -2.51282 0
M  V30 2556 H 224.907 -6.71254 -0.294496 0
M  V30 2557 N 227.627 0.131896 -1.57047 0
M  V30 2558 C 228.873 0.843179 -1.84441 0
M  V30 2559 C 229.206 1.80129 -0.725749 0
M  V30 2560 O 228.481 1.92624 0.269469 0
M  V30 2561 C 228.764 1.60442 -3.22382 0
M  V30 2562 C 228.617 0.666782 -4.4483 0
M  V30 2563 C 229.936 2.56354 -3.5773 0
M  V30 2564 H 227.055 0.305081 -0.670891 0
M  V30 2565 H 229.697 0.107839 -1.89694 0
M  V30 2566 H 227.847 2.23128 -3.18035 0
M  V30 2567 H 229.519 0.0497646 -4.61273 0
M  V30 2568 H 227.762 -0.022609 -4.33794 0
M  V30 2569 H 228.433 1.23579 -5.37989 0
M  V30 2570 H 230.909 2.0378 -3.62785 0
M  V30 2571 H 229.785 3.06657 -4.5525 0
M  V30 2572 H 230.046 3.38419 -2.84473 0
M  V30 2573 N 229.106 1.52395 0.401703 0
M  V30 2574 C 230.355 1.66044 1.14509 0
M  V30 2575 C 230.668 0.400216 1.91462 0
M  V30 2576 O 231.874 0.416632 2.68284 0
M  V30 2577 C 230.33 2.93388 2.0845 0
M  V30 2578 C 229.938 4.26545 1.36978 0
M  V30 2579 C 231.682 3.16402 2.83001 0
M  V30 2580 C 229.589 5.45007 2.29611 0
M  V30 2581 H 228.519 0.618562 0.431158 0
M  V30 2582 H 231.17 1.78886 0.40892 0
M  V30 2583 H 229.552 2.74263 2.8565 0
M  V30 2584 H 230.726 4.56179 0.650916 0
M  V30 2585 H 229.041 4.09692 0.74438 0
M  V30 2586 H 231.638 4.02085 3.52465 0
M  V30 2587 H 231.981 2.30943 3.46368 0
M  V30 2588 H 232.514 3.36034 2.12898 0
M  V30 2589 H 229.253 6.32835 1.70879 0
M  V30 2590 H 228.773 5.19702 2.9945 0
M  V30 2591 H 230.452 5.7838 2.89974 0
M  V30 2592 N 230.584 -0.659388 1.43143 0
M  V30 2593 C 231.812 -1.44723 1.47861 0
M  V30 2594 C 232.227 -1.88563 0.0945886 0
M  V30 2595 O 231.584 -1.59108 -0.893915 0
M  V30 2596 C 231.635 -2.68627 2.41913 0
M  V30 2597 O 231.356 -2.26623 3.74932 0
M  V30 2598 C 232.857 -3.62045 2.55809 0
M  V30 2599 H 230.077 -0.444801 0.502387 0
M  V30 2600 H 232.621 -0.808916 1.87821 0
M  V30 2601 H 230.776 -3.28613 2.05164 0
M  V30 2602 H 231.19 -3.06745 4.2545 0
M  V30 2603 H 232.664 -4.45666 3.25708 0
M  V30 2604 H 233.141 -4.08981 1.60099 0
M  V30 2605 H 233.747 -3.07944 2.93344 0
M  V30 2606 N 232.062 -1.29571 -0.897171 0
M  V30 2607 C 233.308 -1.18873 -1.65048 0
M  V30 2608 C 233.663 0.256707 -1.9068 0
M  V30 2609 O 232.956 1.18202 -1.50794 0
M  V30 2610 C 233.15 -1.9382 -3.00281 0
M  V30 2611 C 232.979 -3.45503 -2.8785 0
M  V30 2612 C 231.749 -4.14856 -2.88483 0
M  V30 2613 C 233.947 -4.40956 -2.64693 0
M  V30 2614 N 231.929 -5.52886 -2.66815 0
M  V30 2615 C 233.3 -5.66464 -2.5203 0
M  V30 2616 C 235.355 -4.3069 -2.49821 0
M  V30 2617 C 234.058 -6.82871 -2.26008 0
M  V30 2618 C 236.084 -5.46852 -2.25182 0
M  V30 2619 C 235.446 -6.71333 -2.13286 0
M  V30 2620 H 231.545 -0.489998 -0.609447 0
M  V30 2621 H 234.129 -1.63431 -1.05822 0
M  V30 2622 H 232.3 -1.51671 -3.57562 0
M  V30 2623 H 234.032 -1.75366 -3.64731 0
M  V30 2624 H 230.787 -3.66579 -2.99861 0
M  V30 2625 H 231.211 -6.25487 -2.59027 0
M  V30 2626 H 235.853 -3.35141 -2.5776 0
M  V30 2627 H 233.571 -7.78473 -2.16806 0
M  V30 2628 H 237.157 -5.40809 -2.14515 0
M  V30 2629 H 236.037 -7.59701 -1.94485 0
M  V30 2630 N 233.54 1.10788 -1.12088 0
M  V30 2631 C 234.45 2.20599 -0.798338 0
M  V30 2632 C 235.466 1.72712 0.21135 0
M  V30 2633 O 236.642 2.01348 0.0458477 0
M  V30 2634 C 233.707 3.45771 -0.253674 0
M  V30 2635 C 232.768 4.08411 -1.32283 0
M  V30 2636 C 232.001 5.27608 -0.80406 0
M  V30 2637 O 232.224 5.69241 0.363478 0
M  V30 2638 O 231.158 5.8101 -1.57198 0
M  V30 2639 H 234.984 2.50614 -1.7154 0
M  V30 2640 H 232.569 1.19454 -0.897275 0
M  V30 2641 H 234.451 4.21376 0.0453691 0
M  V30 2642 H 233.126 3.1739 0.636005 0
M  V30 2643 H 232.033 3.34507 -1.67499 0
M  V30 2644 H 233.366 4.40986 -2.18614 0
M  V30 2645 N 235.018 0.912232 1.28515 0
M  V30 2646 C 236.434 0.610159 1.47476 0
M  V30 2647 C 236.634 -0.844955 1.82928 0
M  V30 2648 O 235.69 -1.62416 1.93332 0
M  V30 2649 C 237.003 1.54675 2.57868 0
M  V30 2650 C 238.551 1.55331 2.71738 0
M  V30 2651 C 239.026 2.47649 3.85272 0
M  V30 2652 N 240.517 2.45767 3.92623 0
M  V30 2653 C 241.252 3.13896 4.79851 0
M  V30 2654 N 240.748 3.9135 5.71679 0
M  V30 2655 N 242.541 3.02991 4.73448 0
M  V30 2656 H 234.692 1.85318 1.03783 0
M  V30 2657 H 236.955 0.794777 0.516753 0
M  V30 2658 H 236.661 2.5841 2.38574 0
M  V30 2659 H 236.535 1.27671 3.54937 0
M  V30 2660 H 238.922 0.52335 2.90422 0
M  V30 2661 H 239.003 1.86378 1.75205 0
M  V30 2662 H 238.647 3.50745 3.67342 0
M  V30 2663 H 238.577 2.13904 4.81199 0
M  V30 2664 H 241.068 1.89503 3.26951 0
M  V30 2665 H 241.381 4.40359 6.35062 0
M  V30 2666 H 239.726 3.95455 5.71524 0
M  V30 2667 H 242.917 2.41987 4.007 0
M  V30 2668 H 243.09 3.5636 5.41213 0
M  V30 2669 N 236.496 -1.42363 0.676048 0
M  V30 2670 C 237.745 -2.00745 0.196037 0
M  V30 2671 C 238.058 -1.54083 -1.20489 0
M  V30 2672 O 239.264 -2.04891 -1.78134 0
M  V30 2673 C 237.72 -3.58651 0.299616 0
M  V30 2674 C 237.328 -4.143 1.70468 0
M  V30 2675 C 239.072 -4.24326 -0.121619 0
M  V30 2676 C 236.979 -5.64574 1.76096 0
M  V30 2677 H 235.909 -0.750787 0.0695301 0
M  V30 2678 H 238.56 -1.63072 0.841412 0
M  V30 2679 H 236.942 -3.93833 -0.413673 0
M  V30 2680 H 238.116 -3.90575 2.44515 0
M  V30 2681 H 236.431 -3.61081 2.07387 0
M  V30 2682 H 239.028 -5.34607 -0.0997362 0
M  V30 2683 H 239.371 -3.99897 -1.15708 0
M  V30 2684 H 239.904 -3.94108 0.540706 0
M  V30 2685 H 236.643 -5.93804 2.77628 0
M  V30 2686 H 236.163 -5.90286 1.06406 0
M  V30 2687 H 237.842 -6.29013 1.51496 0
M  V30 2688 N 237.974 -0.419461 -1.51915 0
M  V30 2689 C 239.223 0.154346 -2.01109 0
M  V30 2690 C 239.536 1.45338 -1.30905 0
M  V30 2691 O 240.742 2.10906 -1.7097 0
M  V30 2692 C 239.198 0.325615 -3.58424 0
M  V30 2693 C 238.806 -0.961934 -4.37551 0
M  V30 2694 C 240.55 0.854155 -4.15818 0
M  V30 2695 C 238.457 -0.757287 -5.86531 0
M  V30 2696 H 237.387 0.0614563 -0.751491 0
M  V30 2697 H 240.038 -0.54649 -1.75173 0
M  V30 2698 H 238.42 1.08903 -3.80731 0
M  V30 2699 H 239.594 -1.7323 -4.26999 0
M  V30 2700 H 237.909 -1.41766 -3.91524 0
M  V30 2701 H 240.506 1.02346 -5.24814 0
M  V30 2702 H 240.849 1.83172 -3.73837 0
M  V30 2703 H 241.382 0.149528 -3.97519 0
M  V30 2704 H 238.121 -1.70671 -6.32892 0
M  V30 2705 H 237.641 -0.0264061 -5.99794 0
M  V30 2706 H 239.32 -0.403482 -6.45741 0
M  V30 2707 N 239.452 1.56882 -0.150215 0
M  V30 2708 C 240.677 2.01027 0.510184 0
M  V30 2709 C 241.102 1.02966 1.57415 0
M  V30 2710 O 240.46 0.00590158 1.81299 0
M  V30 2711 C 240.508 3.43899 1.08472 0
M  V30 2712 O 239.612 3.4885 2.19948 0
M  V30 2713 H 238.953 0.652233 0.124451 0
M  V30 2714 H 241.483 2.03093 -0.247894 0
M  V30 2715 H 241.493 3.82766 1.41259 0
M  V30 2716 H 240.168 4.14776 0.305582 0
M  V30 2717 H 238.745 3.21827 1.88366 0
M  V30 2718 N 240.93 -0.123565 1.57115 0
M  V30 2719 C 241.88 -1.1575 1.96433 0
M  V30 2720 C 242.864 -1.37313 0.838686 0
M  V30 2721 O 244.056 -1.38482 1.10235 0
M  V30 2722 C 241.185 -2.48526 2.36833 0
M  V30 2723 C 240.271 -2.30457 3.5602 0
M  V30 2724 N 240.662 -1.8219 4.71848 0
M  V30 2725 C 238.96 -2.61129 3.61563 0
M  V30 2726 C 239.661 -1.77721 5.53886 0
M  V30 2727 N 238.637 -2.21899 4.96248 0
M  V30 2728 H 242.439 -0.776797 2.83449 0
M  V30 2729 H 239.953 -0.331364 1.58983 0
M  V30 2730 H 241.95 -3.233 2.63216 0
M  V30 2731 H 240.61 -2.87358 1.5118 0
M  V30 2732 H 241.621 -1.51805 4.95152 0
M  V30 2733 H 238.298 -3.03678 2.86507 0
M  V30 2734 H 239.688 -1.41697 6.56789 0
M  V30 2735 N 242.408 -1.52605 -0.393616 0
M  V30 2736 C 243.655 -1.67424 -1.1391 0
M  V30 2737 C 243.983 -0.411859 -1.90089 0
M  V30 2738 O 243.238 0.605626 -1.86093 0
M  V30 2739 C 243.537 -2.85721 -2.14705 0
M  V30 2740 C 243.203 -4.23342 -1.55218 0
M  V30 2741 C 241.865 -4.60771 -1.3872 0
M  V30 2742 C 244.217 -5.09041 -1.11924 0
M  V30 2743 C 241.545 -5.81563 -0.774689 0
M  V30 2744 C 243.897 -6.30452 -0.520853 0
M  V30 2745 C 242.561 -6.66617 -0.343134 0
M  V30 2746 H 241.831 -0.612648 -0.416826 0
M  V30 2747 H 244.478 -1.8674 -0.424315 0
M  V30 2748 H 242.783 -2.60803 -2.92385 0
M  V30 2749 H 244.48 -2.94382 -2.72288 0
M  V30 2750 H 241.07 -3.93855 -1.69045 0
M  V30 2751 H 245.254 -4.80695 -1.23473 0
M  V30 2752 H 240.51 -6.08196 -0.625154 0
M  V30 2753 H 244.684 -6.96175 -0.177065 0
M  V30 2754 H 242.311 -7.60083 0.133571 0
M  V30 2755 N 243.887 0.651787 -1.4349 0
M  V30 2756 C 245.164 1.40909 -1.35661 0
M  V30 2757 C 245.544 2.11099 -0.00511733 0
M  V30 2758 O 244.892 2.04892 1.0115 0
M  V30 2759 C 245.102 2.3926 -2.54078 0
M  V30 2760 C 246.45 3.03217 -2.97228 0
M  V30 2761 O 247.474 2.49588 -2.54135 0
M  V30 2762 O 246.333 4.00455 -3.71885 0
M  V30 2763 H 243.427 0.629625 -0.536191 0
M  V30 2764 H 245.973 0.678575 -1.55542 0
M  V30 2765 H 244.745 1.86352 -3.44076 0
M  V30 2766 H 244.368 3.1976 -2.36303 0
M  V30 2767 N 245.365 1.30045 0.890287 0
M  V30 2768 C 246.614 1.17929 1.63633 0
M  V30 2769 C 246.927 -0.266204 1.9378 0
M  V30 2770 O 248.133 -0.508804 2.6669 0
M  V30 2771 C 246.589 2.06317 2.94892 0
M  V30 2772 C 246.197 3.55745 2.72305 0
M  V30 2773 C 247.941 2.0295 3.72843 0
M  V30 2774 C 245.848 4.36205 3.99348 0
M  V30 2775 H 244.778 0.437782 0.613892 0
M  V30 2776 H 247.429 1.54754 0.986075 0
M  V30 2777 H 245.811 1.6237 3.61182 0
M  V30 2778 H 246.985 4.07805 2.1455 0
M  V30 2779 H 245.3 3.6088 2.07737 0
M  V30 2780 H 247.897 2.60319 4.67053 0
M  V30 2781 H 248.24 1.0117 4.0382 0
M  V30 2782 H 248.773 2.4499 3.13408 0
M  V30 2783 H 245.512 5.38659 3.73533 0
M  V30 2784 H 245.032 3.8891 4.56628 0
M  V30 2785 H 246.711 4.47362 4.67415 0
M  V30 2786 N 246.843 -1.10192 1.12674 0
M  V30 2787 C 248.09 -1.82205 0.883606 0
M  V30 2788 C 248.418 -1.8532 -0.590492 0
M  V30 2789 O 247.673 -1.31137 -1.45264 0
M  V30 2790 C 247.972 -3.28552 1.4067 0
M  V30 2791 C 247.638 -3.45582 2.89627 0
M  V30 2792 C 246.3 -3.49937 3.30299 0
M  V30 2793 C 248.652 -3.50768 3.85501 0
M  V30 2794 C 245.98 -3.57049 4.65546 0
M  V30 2795 C 248.332 -3.59414 5.20581 0
M  V30 2796 C 246.996 -3.62034 5.60792 0
M  V30 2797 H 246.266 -0.666735 0.323334 0
M  V30 2798 H 248.913 -1.29868 1.40736 0
M  V30 2799 H 247.218 -3.83473 0.80347 0
M  V30 2800 H 248.915 -3.82788 1.19475 0
M  V30 2801 H 245.505 -3.42871 2.57172 0
M  V30 2802 H 249.689 -3.46651 3.55171 0
M  V30 2803 H 244.945 -3.57361 4.96088 0
M  V30 2804 H 249.119 -3.62371 5.94693 0
M  V30 2805 H 246.746 -3.67298 6.6558 0
M  V30 2806 N 248.321 -0.919034 -1.28029 0
M  V30 2807 C 249.284 -0.416182 -2.2539 0
M  V30 2808 C 250.284 0.460438 -1.54067 0
M  V30 2809 O 251.474 0.262744 -1.72207 0
M  V30 2810 C 248.606 0.402707 -3.38513 0
M  V30 2811 H 249.799 -1.27629 -2.71387 0
M  V30 2812 H 247.352 -0.698919 -1.39803 0
M  V30 2813 H 248.087 1.282 -2.97885 0
M  V30 2814 H 247.872 -0.225698 -3.9145 0
M  V30 2815 H 249.362 0.745191 -4.10897 0
M  V30 2816 N 249.799 1.42003 -0.683588 0
M  V30 2817 C 251.046 2.01413 -0.209514 0
M  V30 2818 C 251.374 1.54088 1.1869 0
M  V30 2819 O 250.629 0.737591 1.81268 0
M  V30 2820 C 250.928 3.56827 -0.202357 0
M  V30 2821 C 250.594 4.23617 -1.54464 0
M  V30 2822 C 249.256 4.41577 -1.91215 0
M  V30 2823 C 251.608 4.61178 -2.42826 0
M  V30 2824 C 248.936 4.9437 -3.15935 0
M  V30 2825 C 251.288 5.15355 -3.66867 0
M  V30 2826 C 249.952 5.31528 -4.03776 0
M  V30 2827 H 249.222 0.737023 -0.0766668 0
M  V30 2828 H 251.869 1.70067 -0.880312 0
M  V30 2829 H 250.174 3.87892 0.551969 0
M  V30 2830 H 251.871 4.00588 0.181793 0
M  V30 2831 H 248.461 4.10004 -1.24877 0
M  V30 2832 H 252.645 4.46968 -2.15717 0
M  V30 2833 H 247.901 5.05076 -3.44541 0
M  V30 2834 H 252.075 5.43402 -4.35531 0
M  V30 2835 H 249.702 5.72199 -5.00492 0
M  V30 2836 N 251.277 0.427512 1.51691 0
M  V30 2837 C 252.525 -0.141948 2.01601 0
M  V30 2838 C 252.846 -1.44067 1.31414 0
M  V30 2839 O 252.116 -1.90763 0.445658 0
M  V30 2840 H 250.696 -0.0554468 0.744939 0
M  V30 2841 H 253.358 0.567968 1.86441 0
M  V30 2842 H 252.454 -0.324913 3.10404 0
M  V30 2843 N 252.755 -1.56801 0.158532 0
M  V30 2844 C 253.705 -2.13923 -0.788738 0
M  V30 2845 C 254.689 -1.07006 -1.2016 0
M  V30 2846 O 255.881 -1.33159 -1.1661 0
M  V30 2847 C 253.01 -2.77348 -2.02319 0
M  V30 2848 C 252.096 -3.91404 -1.6329 0
M  V30 2849 N 252.487 -4.9677 -0.951463 0
M  V30 2850 C 250.785 -4.02326 -1.92482 0
M  V30 2851 C 251.486 -5.76698 -0.761221 0
M  V30 2852 N 250.462 -5.27859 -1.29869 0
M  V30 2853 H 254.264 -2.92757 -0.258995 0
M  V30 2854 H 251.778 -1.62344 -0.0426055 0
M  V30 2855 H 253.775 -3.16639 -2.71192 0
M  V30 2856 H 252.435 -1.99991 -2.558 0
M  V30 2857 H 253.446 -5.14284 -0.610928 0
M  V30 2858 H 250.123 -3.36059 -2.47732 0
M  V30 2859 H 251.513 -6.71529 -0.223284 0
M  V30 2860 N 254.233 0.115231 -1.57178 0
M  V30 2861 C 255.48 0.822351 -1.8505 0
M  V30 2862 C 255.808 1.79701 -0.744168 0
M  V30 2863 O 255.063 1.93909 0.26414 0
M  V30 2864 C 255.362 1.60324 -3.19423 0
M  V30 2865 C 255.028 0.772536 -4.44233 0
M  V30 2866 C 253.69 0.543468 -4.78121 0
M  V30 2867 C 256.042 0.193746 -5.2084 0
M  V30 2868 C 253.37 -0.274583 -5.86057 0
M  V30 2869 C 255.722 -0.611517 -6.29637 0
M  V30 2870 C 254.386 -0.850867 -6.62055 0
M  V30 2871 H 253.656 0.30092 -0.677147 0
M  V30 2872 H 256.303 0.0845802 -1.91313 0
M  V30 2873 H 254.608 2.41203 -3.08753 0
M  V30 2874 H 256.305 2.1544 -3.38211 0
M  V30 2875 H 252.895 0.96117 -4.17683 0
M  V30 2876 H 257.079 0.357926 -4.95008 0
M  V30 2877 H 252.335 -0.469206 -6.09597 0
M  V30 2878 H 256.509 -1.06697 -6.88178 0
M  V30 2879 H 254.136 -1.48657 -7.45523 0
M  V30 2880 N 255.711 1.52812 0.385517 0
M  V30 2881 C 256.957 1.69225 1.12847 0
M  V30 2882 C 257.312 0.42864 1.87564 0
M  V30 2883 O 256.605 -0.57779 1.8268 0
M  V30 2884 C 256.799 2.86856 2.13187 0
M  V30 2885 C 256.628 4.24535 1.48325 0
M  V30 2886 C 255.398 4.89701 1.24585 0
M  V30 2887 C 257.596 5.05794 0.931501 0
M  V30 2888 N 255.578 6.11353 0.558644 0
M  V30 2889 C 256.949 6.1888 0.372552 0
M  V30 2890 C 259.004 4.90963 0.828248 0
M  V30 2891 C 257.707 7.18757 -0.279556 0
M  V30 2892 C 259.733 5.91095 0.189956 0
M  V30 2893 C 259.095 7.03489 -0.358207 0
M  V30 2894 H 255.194 0.67268 0.39878 0
M  V30 2895 H 257.778 1.9017 0.417528 0
M  V30 2896 H 255.949 2.67484 2.81614 0
M  V30 2897 H 257.681 2.92188 2.80014 0
M  V30 2898 H 254.436 4.48485 1.52178 0
M  V30 2899 H 254.86 6.76606 0.230983 0
M  V30 2900 H 259.502 4.04274 1.23784 0
M  V30 2901 H 257.22 8.05052 -0.701152 0
M  V30 2902 H 260.806 5.81694 0.111264 0
M  V30 2903 H 259.686 7.79642 -0.844314 0
M  V30 2904 N 257.189 -0.644168 1.43834 0
M  V30 2905 C 258.437 -1.40117 1.45642 0
M  V30 2906 C 258.758 -1.94814 0.0852413 0
M  V30 2907 O 258.028 -1.74988 -0.880688 0
M  V30 2908 H 256.608 -0.52005 0.536243 0
M  V30 2909 H 259.27 -0.7591 1.7951 0
M  V30 2910 H 258.366 -2.23902 2.17427 0
M  V30 2911 N 258.668 -1.30515 -0.883378 0
M  V30 2912 C 259.914 -1.20617 -1.63778 0
M  V30 2913 C 260.269 0.236469 -1.90941 0
M  V30 2914 O 259.562 1.16596 -1.52039 0
M  V30 2915 C 259.756 -1.96994 -2.98209 0
M  V30 2916 C 259.585 -3.48537 -2.84169 0
M  V30 2917 C 258.355 -4.17893 -2.84067 0
M  V30 2918 C 260.553 -4.43738 -2.60001 0
M  V30 2919 N 258.535 -5.55685 -2.60936 0
M  V30 2920 C 259.906 -5.69105 -2.46007 0
M  V30 2921 C 261.961 -4.33316 -2.45239 0
M  V30 2922 C 260.664 -6.8523 -2.18752 0
M  V30 2923 C 262.69 -5.4921 -2.19369 0
M  V30 2924 C 262.052 -6.73558 -2.06153 0
M  V30 2925 H 258.151 -0.496434 -0.604216 0
M  V30 2926 H 260.735 -1.64544 -1.04083 0
M  V30 2927 H 258.906 -1.55455 -3.55933 0
M  V30 2928 H 260.638 -1.79225 -3.62851 0
M  V30 2929 H 257.393 -3.69739 -2.95956 0
M  V30 2930 H 257.817 -6.28199 -2.52378 0
M  V30 2931 H 262.459 -3.37856 -2.54191 0
M  V30 2932 H 260.177 -7.80729 -2.08537 0
M  V30 2933 H 263.763 -5.43054 -2.08766 0
M  V30 2934 H 262.643 -7.61721 -1.86416 0
M  V30 2935 N 260.146 1.09593 -1.13257 0
M  V30 2936 C 261.109 2.14359 -0.811358 0
M  V30 2937 C 262.109 1.59808 0.178377 0
M  V30 2938 O 263.299 1.74132 -0.0484911 0
M  V30 2939 C 260.431 3.40269 -0.207276 0
M  V30 2940 H 261.624 2.44284 -1.73969 0
M  V30 2941 H 259.177 1.25102 -0.936973 0
M  V30 2942 H 259.912 3.15969 0.73036 0
M  V30 2943 H 259.697 3.81154 -0.919992 0
M  V30 2944 H 261.187 4.176 0.000667944 0
M  V30 2945 N 261.624 0.925811 1.2754 0
M  V30 2946 C 262.557 0.367836 2.25216 0
M  V30 2947 C 263.535 -0.534738 1.53556 0
M  V30 2948 O 264.719 -0.475672 1.824 0
M  V30 2949 C 261.846 -0.47298 3.35381 0
M  V30 2950 C 260.892 0.365898 4.24928 0
M  V30 2951 S 261.725 1.78025 5.05042 0
M  V30 2952 C 262.881 0.947068 6.18693 0
M  V30 2953 H 263.114 1.19568 2.72196 0
M  V30 2954 H 260.647 0.727867 1.36167 0
M  V30 2955 H 262.605 -0.952242 3.99303 0
M  V30 2956 H 261.266 -1.27533 2.87044 0
M  V30 2957 H 260.459 -0.277582 5.03235 0
M  V30 2958 H 260.061 0.779261 3.65792 0
M  V30 2959 H 262.353 0.182201 6.77255 0
M  V30 2960 H 263.296 1.70309 6.87314 0
M  V30 2961 H 263.704 0.489913 5.6237 0
M  V30 2962 N 263.102 -1.41638 0.69111 0
M  V30 2963 C 264.049 -2.30789 0.0229705 0
M  V30 2964 C 265.019 -1.46863 -0.775911 0
M  V30 2965 O 266.204 -1.75661 -0.74485 0
M  V30 2966 C 263.344 -3.32868 -0.910666 0
M  V30 2967 C 262.457 -4.31875 -0.103874 0
M  V30 2968 C 261.592 -5.21024 -1.03475 0
M  V30 2969 C 260.631 -6.11702 -0.220598 0
M  V30 2970 N 259.768 -6.93349 -1.10504 0
M  V30 2971 H 264.608 -2.87366 0.788978 0
M  V30 2972 H 262.145 -1.41535 0.400794 0
M  V30 2973 H 264.103 -3.90596 -1.46597 0
M  V30 2974 H 262.733 -2.77851 -1.64312 0
M  V30 2975 H 261.785 -3.76131 0.568285 0
M  V30 2976 H 263.097 -4.96003 0.527504 0
M  V30 2977 H 262.251 -5.83565 -1.65943 0
M  V30 2978 H 260.99 -4.57112 -1.69999 0
M  V30 2979 H 259.995 -5.48215 0.417187 0
M  V30 2980 H 261.22 -6.77668 0.440784 0
M  V30 2981 H 259.166 -6.3205 -1.75638 0
M  V30 2982 H 259.083 -7.54146 -0.529125 0
M  V30 2983 H 260.351 -7.60362 -1.71667 0
M  V30 2984 N 264.58 -0.43555 -1.51462 0
M  V30 2985 C 265.543 0.365137 -2.26273 0
M  V30 2986 C 266.543 0.951227 -1.29647 0
M  V30 2987 O 267.733 0.825958 -1.53374 0
M  V30 2988 C 264.865 1.51645 -3.05314 0
M  V30 2989 H 266.058 -0.290474 -2.9849 0
M  V30 2990 H 263.611 -0.188676 -1.55157 0
M  V30 2991 H 264.346 2.20816 -2.3751 0
M  V30 2992 H 264.131 1.10238 -3.76284 0
M  V30 2993 H 265.621 2.08218 -3.61987 0
M  V30 2994 N 266.058 1.56714 -0.166846 0
M  V30 2995 C 266.988 2.20754 0.760913 0
M  V30 2996 C 267.969 1.16178 1.24244 0
M  V30 2997 O 269.154 1.44592 1.29641 0
M  V30 2998 C 266.284 2.84478 1.99223 0
M  V30 2999 C 265.238 3.95053 1.64672 0
M  V30 3000 C 264.564 4.45805 2.95232 0
M  V30 3001 C 265.864 5.14865 0.878155 0
M  V30 3002 H 267.558 2.98537 0.22713 0
M  V30 3003 H 265.104 1.43596 0.107805 0
M  V30 3004 H 267.057 3.27951 2.64624 0
M  V30 3005 H 265.781 2.04056 2.55007 0
M  V30 3006 H 264.44 3.52228 1.01641 0
M  V30 3007 H 264.088 3.62181 3.49047 0
M  V30 3008 H 263.788 5.204 2.7287 0
M  V30 3009 H 265.312 4.91962 3.6167 0
M  V30 3010 H 266.726 5.55059 1.43466 0
M  V30 3011 H 265.123 5.95348 0.753738 0
M  V30 3012 H 266.193 4.84735 -0.126377 0
M  V30 3013 N 267.536 -0.106894 1.57237 0
M  V30 3014 C 268.466 -1.13148 2.04254 0
M  V30 3015 C 269.447 -1.42476 0.929224 0
M  V30 3016 O 270.632 -1.52709 1.19973 0
M  V30 3017 C 267.762 -2.4545 2.45706 0
M  V30 3018 C 266.716 -2.30558 3.60592 0
M  V30 3019 C 266.042 -3.67931 3.87983 0
M  V30 3020 C 267.342 -1.75597 4.91897 0
M  V30 3021 H 269.036 -0.740374 2.90101 0
M  V30 3022 H 266.582 -0.354696 1.39563 0
M  V30 3023 H 268.535 -3.17389 2.77205 0
M  V30 3024 H 267.259 -2.86475 1.56843 0
M  V30 3025 H 265.918 -1.61067 3.29322 0
M  V30 3026 H 265.566 -4.06462 2.96306 0
M  V30 3027 H 265.266 -3.58817 4.65322 0
M  V30 3028 H 266.79 -4.41356 4.21945 0
M  V30 3029 H 268.204 -2.37364 5.21854 0
M  V30 3030 H 266.601 -1.77272 5.73319 0
M  V30 3031 H 267.671 -0.714451 4.79608 0
M  V30 3032 N 269.014 -1.53014 -0.377408 0
M  V30 3033 C 270.263 -1.67845 -1.11853 0
M  V30 3034 C 270.576 -0.430625 -1.90801 0
M  V30 3035 O 271.782 -0.459261 -2.67587 0
M  V30 3036 C 270.238 -2.96668 -2.03756 0
M  V30 3037 C 269.846 -4.28671 -1.30175 0
M  V30 3038 C 271.59 -3.20865 -2.77932 0
M  V30 3039 C 269.497 -5.48591 -2.20911 0
M  V30 3040 H 268.427 -0.625343 -0.421263 0
M  V30 3041 H 271.078 -1.79514 -0.380409 0
M  V30 3042 H 269.46 -2.78773 -2.8125 0
M  V30 3043 H 270.634 -4.57157 -0.578259 0
M  V30 3044 H 268.949 -4.10825 -0.679108 0
M  V30 3045 H 271.546 -4.07642 -3.46024 0
M  V30 3046 H 271.889 -2.36424 -3.4265 0
M  V30 3047 H 272.422 -3.39379 -2.07525 0
M  V30 3048 H 269.161 -6.35474 -1.6079 0
M  V30 3049 H 268.681 -5.244 -2.91144 0
M  V30 3050 H 270.36 -5.8292 -2.80736 0
M  V30 3051 N 270.492 0.636531 -1.44174 0
M  V30 3052 C 271.908 0.954104 -1.27941 0
M  V30 3053 C 272.108 2.0039 -0.211248 0
M  V30 3054 O 271.164 2.49236 0.404695 0
M  V30 3055 C 272.477 1.4225 -2.64925 0
M  V30 3056 C 274.025 1.53827 -2.72592 0
M  V30 3057 C 274.5 2.04053 -4.10032 0
M  V30 3058 N 275.991 2.11331 -4.12182 0
M  V30 3059 C 276.726 2.51352 -5.15374 0
M  V30 3060 N 276.222 2.90549 -6.2893 0
M  V30 3061 N 278.015 2.51438 -5.02728 0
M  V30 3062 H 270.166 -0.0578386 -2.12321 0
M  V30 3063 H 272.429 0.0367406 -0.947288 0
M  V30 3064 H 272.135 0.725466 -3.44136 0
M  V30 3065 H 272.009 2.39451 -2.9145 0
M  V30 3066 H 274.396 2.22628 -1.93702 0
M  V30 3067 H 274.477 0.550154 -2.49814 0
M  V30 3068 H 274.121 1.35848 -4.89395 0
M  V30 3069 H 274.051 3.03726 -4.30184 0
M  V30 3070 H 276.542 1.83745 -3.30222 0
M  V30 3071 H 276.855 3.19884 -7.03487 0
M  V30 3072 H 275.2 2.88313 -6.32377 0
M  V30 3073 H 278.391 2.20203 -4.13072 0
M  V30 3074 H 278.564 2.82304 -5.83274 0
M  V30 3075 N 271.97 1.30982 0.876444 0
M  V30 3076 C 273.195 1.23373 1.66715 0
M  V30 3077 C 273.62 -0.19885 1.87046 0
M  V30 3078 O 272.978 -1.1427 1.40756 0
M  V30 3079 C 273.026 1.97644 3.01611 0
M  V30 3080 O 272.13 1.30935 3.91062 0
M  V30 3081 H 271.471 0.426279 0.509099 0
M  V30 3082 H 274.001 1.72944 1.09323 0
M  V30 3083 H 274.011 2.06992 3.51594 0
M  V30 3084 H 272.686 3.01829 2.86133 0
M  V30 3085 H 271.263 1.29996 3.49507 0
M  V30 3086 N 273.449 -1.08991 1.13837 0
M  V30 3087 C 274.679 -1.84743 0.924859 0
M  V30 3088 C 275.087 -1.81629 -0.529874 0
M  V30 3089 O 274.43 -1.21397 -1.37872 0
M  V30 3090 C 274.492 -3.33568 1.34061 0
M  V30 3091 C 274.156 -3.60425 2.80968 0
M  V30 3092 C 275.153 -3.55771 3.79108 0
M  V30 3093 C 272.838 -3.88627 3.18236 0
M  V30 3094 C 274.832 -3.78939 5.12527 0
M  V30 3095 C 272.519 -4.11449 4.51833 0
M  V30 3096 C 273.517 -4.06598 5.48787 0
M  V30 3097 O 273.205 -4.28826 6.79973 0
M  V30 3098 H 272.937 -0.590258 0.329502 0
M  V30 3099 H 275.491 -1.38598 1.51591 0
M  V30 3100 H 273.721 -3.80442 0.692853 0
M  V30 3101 H 275.41 -3.90743 1.09886 0
M  V30 3102 H 276.176 -3.34005 3.51661 0
M  V30 3103 H 272.055 -3.91526 2.43369 0
M  V30 3104 H 275.599 -3.75068 5.88192 0
M  V30 3105 H 271.496 -4.32698 4.79002 0
M  V30 3106 H 272.264 -4.46264 6.86142 0
M  V30 3107 N 274.927 -0.932562 -1.27047 0
M  V30 3108 C 276.175 -0.574422 -1.93765 0
M  V30 3109 C 276.496 0.887993 -1.73608 0
M  V30 3110 O 275.766 1.62999 -1.08665 0
M  V30 3111 H 274.346 -0.209451 -0.717035 0
M  V30 3112 H 277.008 -1.18601 -1.5466 0
M  V30 3113 H 276.104 -0.784841 -3.02071 0
M  V30 3114 N 276.405 1.4127 -0.698611 0
M  V30 3115 C 277.335 2.33447 -0.049629 0
M  V30 3116 C 278.316 1.51982 0.763898 0
M  V30 3117 O 279.501 1.80509 0.716257 0
M  V30 3118 C 276.631 3.35828 0.885267 0
M  V30 3119 C 275.585 4.27627 0.178613 0
M  V30 3120 C 274.911 5.20406 1.22807 0
M  V30 3121 C 276.211 5.13459 -0.956933 0
M  V30 3122 H 277.905 2.87966 -0.81951 0
M  V30 3123 H 275.451 1.38461 -0.395538 0
M  V30 3124 H 277.404 3.9924 1.34854 0
M  V30 3125 H 276.128 2.79666 1.68685 0
M  V30 3126 H 274.787 3.65643 -0.26466 0
M  V30 3127 H 274.435 4.60558 2.02226 0
M  V30 3128 H 274.135 5.82661 0.760239 0
M  V30 3129 H 275.659 5.86695 1.69179 0
M  V30 3130 H 277.073 5.70421 -0.573805 0
M  V30 3131 H 275.47 5.8467 -1.35205 0
M  V30 3132 H 276.54 4.50443 -1.79524 0
M  V30 3133 N 277.883 0.443576 1.51229 0
M  V30 3134 C 279.123 -0.119889 2.04048 0
M  V30 3135 C 279.487 -1.39418 1.32009 0
M  V30 3136 O 280.688 -2.03829 1.75235 0
M  V30 3137 C 278.959 -0.327233 3.55899 0
M  V30 3138 S 280.518 -0.853208 4.30425 0
M  V30 3139 H 277.336 -0.028921 0.710412 0
M  V30 3140 H 279.938 0.604413 1.85922 0
M  V30 3141 H 278.642 0.606445 4.05895 0
M  V30 3142 H 278.173 -1.07844 3.7833 0
M  V30 3143 H 280.188 -2.13005 4.48155 0
M  V30 3144 N 279.361 -1.56624 0.175154 0
M  V30 3145 C 280.607 -1.98061 -0.462976 0
M  V30 3146 C 280.962 -1.05949 -1.60601 0
M  V30 3147 O 280.255 -0.0999027 -1.91339 0
M  V30 3148 C 280.449 -3.43419 -0.989864 0
M  V30 3149 C 280.278 -4.49587 0.100583 0
M  V30 3150 C 279.048 -5.02281 0.551539 0
M  V30 3151 C 281.246 -5.06322 0.902369 0
M  V30 3152 N 279.228 -5.92088 1.62189 0
M  V30 3153 C 280.599 -5.92607 1.82256 0
M  V30 3154 C 282.654 -4.88811 0.947019 0
M  V30 3155 C 281.357 -6.63254 2.78364 0
M  V30 3156 C 283.383 -5.60182 1.89606 0
M  V30 3157 C 282.745 -6.46197 2.80372 0
M  V30 3158 H 278.844 -0.769833 -0.137409 0
M  V30 3159 H 281.428 -1.9273 0.276256 0
M  V30 3160 H 279.599 -3.49288 -1.6986 0
M  V30 3161 H 281.331 -3.7186 -1.59694 0
M  V30 3162 H 278.086 -4.73367 0.148537 0
M  V30 3163 H 278.51 -6.41696 2.15767 0
M  V30 3164 H 283.152 -4.22004 0.259304 0
M  V30 3165 H 280.87 -7.29271 3.48122 0
M  V30 3166 H 284.456 -5.48617 1.93676 0
M  V30 3167 H 283.336 -7.00453 3.52612 0
M  V30 3168 N 280.839 0.0985539 -1.57292 0
M  V30 3169 C 282.067 0.816318 -1.90115 0
M  V30 3170 C 282.482 1.72451 -0.768509 0
M  V30 3171 O 281.839 1.80643 0.259687 0
M  V30 3172 C 281.89 1.63259 -3.22535 0
M  V30 3173 O 281.611 0.760934 -4.31441 0
M  V30 3174 C 283.112 2.45372 -3.69199 0
M  V30 3175 H 280.332 0.233595 -0.629027 0
M  V30 3176 H 282.876 0.0768229 -2.04356 0
M  V30 3177 H 281.031 2.32463 -3.09903 0
M  V30 3178 H 281.445 1.32595 -5.07463 0
M  V30 3179 H 282.919 2.98144 -4.64558 0
M  V30 3180 H 283.396 3.23677 -2.96867 0
M  V30 3181 H 284.002 1.81373 -3.84687 0
M  V30 3182 N 282.317 1.53212 0.369288 0
M  V30 3183 C 283.566 1.68436 1.10961 0
M  V30 3184 C 283.879 0.440738 1.9057 0
M  V30 3185 O 285.085 0.473446 2.6734 0
M  V30 3186 C 283.541 2.97744 2.0218 0
M  V30 3187 C 283.149 4.29355 1.279 0
M  V30 3188 C 284.893 3.22334 2.76226 0
M  V30 3189 C 282.8 5.49755 2.17999 0
M  V30 3190 H 281.73 0.627568 0.41794 0
M  V30 3191 H 284.381 1.79713 0.370884 0
M  V30 3192 H 282.763 2.8026 2.79768 0
M  V30 3193 H 283.937 4.57458 0.554007 0
M  V30 3194 H 282.252 4.11179 0.657311 0
M  V30 3195 H 284.849 4.09471 3.43857 0
M  V30 3196 H 285.192 2.38238 3.41392 0
M  V30 3197 H 285.725 3.40475 2.05723 0
M  V30 3198 H 282.464 6.36318 1.57417 0
M  V30 3199 H 281.984 5.25937 2.88359 0
M  V30 3200 H 283.663 5.84401 2.77641 0
M  V30 3201 N 283.795 -0.628877 1.44509 0
M  V30 3202 C 285.02 -1.42048 1.5112 0
M  V30 3203 C 285.445 -1.87594 0.137818 0
M  V30 3204 O 284.803 -1.58873 -0.873437 0
M  V30 3205 C 284.851 -2.61541 2.48251 0
M  V30 3206 O 283.955 -3.61453 1.98559 0
M  V30 3207 H 283.296 -0.424942 0.510216 0
M  V30 3208 H 285.826 -0.767374 1.89664 0
M  V30 3209 H 285.836 -3.09057 2.66361 0
M  V30 3210 H 284.511 -2.27736 3.48007 0
M  V30 3211 H 283.088 -3.20731 1.90227 0
M  V30 3212 N 285.273 -1.31445 -0.869486 0
M  V30 3213 C 286.522 -1.20517 -1.61736 0
M  V30 3214 C 286.835 0.235341 -1.94179 0
M  V30 3215 O 288.041 0.466312 -2.67465 0
M  V30 3216 C 286.497 -2.10982 -2.91573 0
M  V30 3217 C 286.105 -3.60032 -2.66611 0
M  V30 3218 C 287.849 -2.08856 -3.69567 0
M  V30 3219 C 285.756 -4.42503 -3.92358 0
M  V30 3220 H 284.686 -0.447493 -0.606849 0
M  V30 3221 H 287.337 -1.56303 -0.96133 0
M  V30 3222 H 285.719 -1.68095 -3.58553 0
M  V30 3223 H 286.893 -4.11167 -2.08035 0
M  V30 3224 H 285.208 -3.64139 -2.0197 0
M  V30 3225 H 287.805 -2.67716 -4.62852 0
M  V30 3226 H 288.148 -1.07582 -4.02159 0
M  V30 3227 H 288.681 -2.49945 -3.09471 0
M  V30 3228 H 285.42 -5.44533 -3.64916 0
M  V30 3229 H 284.94 -3.96125 -4.50383 0
M  V30 3230 H 286.619 -4.54741 -4.60238 0
M  V30 3231 N 286.751 1.08385 -1.14413 0
M  V30 3232 C 287.979 1.84517 -0.936001 0
M  V30 3233 C 288.394 1.81626 0.515503 0
M  V30 3234 O 287.751 1.22008 1.35721 0
M  V30 3235 C 287.802 3.32049 -1.42918 0
M  V30 3236 O 287.523 3.34951 -2.82381 0
M  V30 3237 C 289.024 4.24986 -1.26103 0
M  V30 3238 H 286.244 0.582491 -0.333084 0
M  V30 3239 H 288.788 1.36885 -1.5193 0
M  V30 3240 H 286.943 3.7707 -0.888641 0
M  V30 3241 H 287.357 4.27048 -3.04517 0
M  V30 3242 H 288.831 5.26615 -1.6547 0
M  V30 3243 H 289.308 4.38726 -0.20392 0
M  V30 3244 H 289.914 3.85791 -1.79012 0
M  V30 3245 N 288.23 0.939286 1.26551 0
M  V30 3246 C 289.476 0.596234 1.94465 0
M  V30 3247 C 289.831 -0.855013 1.72358 0
M  V30 3248 O 289.124 -1.6034 1.04889 0
M  V30 3249 C 289.318 0.872106 3.46596 0
M  V30 3250 C 289.147 2.34862 3.83497 0
M  V30 3251 C 287.917 3.00344 4.06352 0
M  V30 3252 C 290.115 3.32697 3.92195 0
M  V30 3253 N 288.097 4.38027 4.30123 0
M  V30 3254 C 289.468 4.55631 4.20476 0
M  V30 3255 C 291.523 3.27747 3.74815 0
M  V30 3256 C 290.226 5.74233 4.33185 0
M  V30 3257 C 292.252 4.45672 3.88755 0
M  V30 3258 C 291.614 5.67388 4.17433 0
M  V30 3259 H 287.713 0.268515 0.734455 0
M  V30 3260 H 290.297 1.2083 1.5267 0
M  V30 3261 H 288.468 0.289102 3.87323 0
M  V30 3262 H 290.2 0.490513 4.01716 0
M  V30 3263 H 286.955 2.50969 4.01636 0
M  V30 3264 H 287.379 5.09288 4.46044 0
M  V30 3265 H 292.021 2.34703 3.51673 0
M  V30 3266 H 289.739 6.67731 4.55149 0
M  V30 3267 H 293.325 4.43372 3.76713 0
M  V30 3268 H 292.205 6.57115 4.27983 0
M  V30 3269 N 289.708 -1.40897 0.706093 0
M  V30 3270 C 290.618 -2.3455 0.0482286 0
M  V30 3271 C 291.634 -1.56796 -0.754396 0
M  V30 3272 O 292.81 -1.89228 -0.689538 0
M  V30 3273 C 289.875 -3.35625 -0.869303 0
M  V30 3274 C 288.936 -4.29261 -0.0576994 0
M  V30 3275 C 288.169 -5.25508 -0.931531 0
M  V30 3276 O 288.392 -5.27472 -2.17092 0
M  V30 3277 O 287.326 -6.00727 -0.375587 0
M  V30 3278 H 291.152 -2.92407 0.820476 0
M  V30 3279 H 288.737 -1.4193 0.4665 0
M  V30 3280 H 290.619 -3.97635 -1.39514 0
M  V30 3281 H 289.294 -2.80196 -1.62086 0
M  V30 3282 H 288.201 -3.70566 0.512988 0
M  V30 3283 H 289.534 -4.87817 0.655426 0
M  V30 3284 N 291.186 -0.45159 -1.50991 0
M  V30 3285 C 292.116 0.342898 -2.30969 0
M  V30 3286 C 293.097 1.00815 -1.37005 0
M  V30 3287 O 294.282 1.00907 -1.65926 0
M  V30 3288 C 291.412 1.43637 -3.16205 0
M  V30 3289 C 290.366 0.893818 -4.18563 0
M  V30 3290 C 289.692 2.08411 -4.92411 0
M  V30 3291 C 290.992 -0.0815568 -5.22236 0
M  V30 3292 H 292.686 -0.324556 -2.97636 0
M  V30 3293 H 290.232 -0.157531 -1.43136 0
M  V30 3294 H 292.185 1.9995 -3.70942 0
M  V30 3295 H 290.909 2.13232 -2.47386 0
M  V30 3296 H 289.568 0.352798 -3.64898 0
M  V30 3297 H 289.216 2.76658 -4.20082 0
M  V30 3298 H 288.916 1.72741 -5.61636 0
M  V30 3299 H 290.44 2.65251 -5.49976 0
M  V30 3300 H 291.854 0.391742 -5.7196 0
M  V30 3301 H 290.251 -0.351551 -5.99069 0
M  V30 3302 H 291.321 -1.01374 -4.74185 0
M  V30 3303 N 292.664 1.56529 -0.183458 0
M  V30 3304 C 293.892 2.01623 0.464285 0
M  V30 3305 C 294.307 1.06366 1.55986 0
M  V30 3306 O 293.664 0.0665398 1.82379 0
M  V30 3307 C 293.715 3.46475 1.03139 0
M  V30 3308 O 293.436 4.38095 -0.0204675 0
M  V30 3309 C 294.937 4.0703 1.75617 0
M  V30 3310 H 292.157 0.660596 0.117704 0
M  V30 3311 H 294.701 2.02451 -0.288751 0
M  V30 3312 H 292.856 3.46383 1.73486 0
M  V30 3313 H 293.27 5.22973 0.399952 0
M  V30 3314 H 294.744 5.10271 2.10542 0
M  V30 3315 H 295.221 3.49819 2.65563 0
M  V30 3316 H 295.827 4.1086 1.09882 0
M  V30 3317 N 294.142 -0.090211 1.57342 0
M  V30 3318 C 295.052 -1.12735 2.05738 0
M  V30 3319 C 296.068 -1.43557 0.983231 0
M  V30 3320 O 297.244 -1.54101 1.29672 0
M  V30 3321 C 294.309 -2.42659 2.47624 0
M  V30 3322 C 293.37 -2.18975 3.69254 0
M  V30 3323 C 292.603 -3.42704 4.09133 0
M  V30 3324 O 292.826 -4.51127 3.49057 0
M  V30 3325 O 291.76 -3.32003 5.02053 0
M  V30 3326 H 295.586 -0.746279 2.94388 0
M  V30 3327 H 293.171 -0.303064 1.46294 0
M  V30 3328 H 295.053 -3.19155 2.7517 0
M  V30 3329 H 293.728 -2.80182 1.62109 0
M  V30 3330 H 292.635 -1.40244 3.46818 0
M  V30 3331 H 293.968 -1.86342 4.55563 0
M  V30 3332 N 295.62 -1.53406 -0.361157 0
M  V30 3333 C 296.55 -1.83136 -1.44857 0
M  V30 3334 C 297.531 -0.685174 -1.5569 0
M  V30 3335 O 298.716 -0.93544 -1.70186 0
M  V30 3336 C 295.846 -2.02522 -2.82138 0
M  V30 3337 C 294.8 -3.18302 -2.86126 0
M  V30 3338 C 294.126 -3.22989 -4.26125 0
M  V30 3339 C 295.426 -4.56796 -2.53248 0
M  V30 3340 H 297.12 -2.74201 -1.20226 0
M  V30 3341 H 294.666 -1.31938 -0.576922 0
M  V30 3342 H 296.619 -2.21904 -3.58241 0
M  V30 3343 H 295.343 -1.08172 -3.08166 0
M  V30 3344 H 294.002 -2.98747 -2.12475 0
M  V30 3345 H 293.65 -2.26267 -4.49235 0
M  V30 3346 H 293.35 -4.00781 -4.29708 0
M  V30 3347 H 294.874 -3.44559 -5.04094 0
M  V30 3348 H 296.288 -4.7631 -3.19064 0
M  V30 3349 H 294.685 -5.36862 -2.68141 0
M  V30 3350 H 295.755 -4.61606 -1.48484 0
M  V30 3351 N 297.098 0.621204 -1.44841 0
M  V30 3352 C 298.345 1.38055 -1.48145 0
M  V30 3353 C 298.673 1.94143 -0.117867 0
M  V30 3354 O 297.928 1.74713 0.881694 0
M  V30 3355 C 298.227 2.55675 -2.4973 0
M  V30 3356 C 297.893 2.17817 -3.94799 0
M  V30 3357 C 296.555 2.07205 -4.34303 0
M  V30 3358 C 298.907 1.88065 -4.86087 0
M  V30 3359 C 296.235 1.65045 -5.63007 0
M  V30 3360 C 298.587 1.47394 -6.15189 0
M  V30 3361 C 297.251 1.35331 -6.53637 0
M  V30 3362 H 296.521 0.505181 -0.542101 0
M  V30 3363 H 299.168 0.703477 -1.78111 0
M  V30 3364 H 297.473 3.2866 -2.13284 0
M  V30 3365 H 299.17 3.13904 -2.4953 0
M  V30 3366 H 295.76 2.26998 -3.63552 0
M  V30 3367 H 299.944 1.95168 -4.56315 0
M  V30 3368 H 295.2 1.54317 -5.91605 0
M  V30 3369 H 299.374 1.23415 -6.85377 0
M  V30 3370 H 297.001 1.02435 -7.53267 0
M  V30 3371 N 298.576 1.31904 0.862503 0
M  V30 3372 C 299.823 1.22017 1.61611 0
M  V30 3373 C 300.151 -0.21991 1.93253 0
M  V30 3374 O 299.406 -1.17076 1.56817 0
M  V30 3375 C 299.705 2.01713 2.95037 0
M  V30 3376 C 299.371 3.51145 2.82857 0
M  V30 3377 C 298.033 3.91889 2.79243 0
M  V30 3378 C 300.385 4.46204 2.69353 0
M  V30 3379 C 297.713 5.25947 2.59993 0
M  V30 3380 C 300.065 5.80397 2.5164 0
M  V30 3381 C 298.729 6.20352 2.46413 0
M  V30 3382 H 297.999 0.44649 0.591378 0
M  V30 3383 H 300.646 1.63248 1.00111 0
M  V30 3384 H 298.951 1.53185 3.60613 0
M  V30 3385 H 300.648 1.91437 3.52353 0
M  V30 3386 H 297.238 3.1878 2.86491 0
M  V30 3387 H 301.422 4.15652 2.71196 0
M  V30 3388 H 296.678 5.5597 2.54376 0
M  V30 3389 H 300.852 6.53676 2.40169 0
M  V30 3390 H 298.479 7.24172 2.31256 0
M  V30 3391 N 300.054 -1.07777 1.14986 0
M  V30 3392 C 300.987 -2.14228 0.786243 0
M  V30 3393 C 301.965 -1.60888 -0.235347 0
M  V30 3394 O 303.149 -1.88099 -0.122909 0
M  V30 3395 C 300.276 -3.38281 0.168433 0
M  V30 3396 C 299.322 -4.10387 1.16123 0
M  V30 3397 S 300.155 -4.62371 2.70135 0
M  V30 3398 C 301.311 -5.89704 2.09762 0
M  V30 3399 H 301.544 -2.44741 1.68787 0
M  V30 3400 H 299.077 -1.19984 0.971756 0
M  V30 3401 H 301.035 -4.10098 -0.181588 0
M  V30 3402 H 299.696 -3.05953 -0.710725 0
M  V30 3403 H 298.889 -4.99431 0.677086 0
M  V30 3404 H 298.491 -3.44513 1.45556 0
M  V30 3405 H 300.783 -6.61648 1.45701 0
M  V30 3406 H 301.726 -6.42824 2.96955 0
M  V30 3407 H 302.134 -5.4302 1.54239 0
M  V30 3408 N 301.532 -0.945985 -1.26051 0
M  V30 3409 C 302.482 -0.430164 -2.23905 0
M  V30 3410 C 303.466 0.47579 -1.53704 0
M  V30 3411 O 304.658 0.310252 -1.7426 0
M  V30 3412 C 301.787 0.298957 -3.41996 0
M  V30 3413 C 300.873 -0.624566 -4.19476 0
M  V30 3414 N 301.264 -1.75245 -4.74471 0
M  V30 3415 C 299.562 -0.431082 -4.43912 0
M  V30 3416 C 300.263 -2.32834 -5.3307 0
M  V30 3417 N 299.239 -1.61583 -5.1903 0
M  V30 3418 H 303.041 -1.29107 -2.64024 0
M  V30 3419 H 300.555 -0.802428 -1.41191 0
M  V30 3420 H 302.552 0.685565 -4.11225 0
M  V30 3421 H 301.212 1.15657 -3.03403 0
M  V30 3422 H 302.223 -2.13449 -4.71868 0
M  V30 3423 H 298.9 0.384364 -4.15727 0
M  V30 3424 H 300.29 -3.27893 -5.86461 0
M  V30 3425 N 303.011 1.40521 -0.713556 0
M  V30 3426 C 303.941 2.33381 -0.0743864 0
M  V30 3427 C 304.922 1.52784 0.747735 0
M  V30 3428 O 306.107 1.81258 0.697071 0
M  V30 3429 C 303.237 3.36748 0.849598 0
M  V30 3430 C 302.191 4.27793 0.133247 0
M  V30 3431 C 301.517 5.21679 1.17281 0
M  V30 3432 C 302.817 5.12415 -1.01134 0
M  V30 3433 H 304.511 2.87081 -0.850007 0
M  V30 3434 H 302.057 1.38034 -0.410201 0
M  V30 3435 H 304.01 4.00648 1.30612 0
M  V30 3436 H 302.734 2.81439 1.65709 0
M  V30 3437 H 301.393 3.65342 -0.303426 0
M  V30 3438 H 301.041 4.62677 1.9733 0
M  V30 3439 H 300.741 5.83435 0.698397 0
M  V30 3440 H 302.265 5.88456 1.62947 0
M  V30 3441 H 303.679 5.69781 -0.634274 0
M  V30 3442 H 302.076 5.83203 -1.41399 0
M  V30 3443 H 303.146 4.48514 -1.84292 0
M  V30 3444 N 304.489 0.459591 1.5075 0
M  V30 3445 C 305.419 -0.330644 2.31147 0
M  V30 3446 C 306.4 -1.00087 1.37538 0
M  V30 3447 O 307.585 -1.00025 1.66459 0
M  V30 3448 C 304.715 -1.41958 3.16962 0
M  V30 3449 C 303.669 -0.871608 4.19031 0
M  V30 3450 C 302.995 -2.05797 4.9351 0
M  V30 3451 C 304.295 0.109251 5.22186 0
M  V30 3452 H 305.989 0.340336 2.97459 0
M  V30 3453 H 303.535 0.165119 1.4305 0
M  V30 3454 H 305.488 -1.9798 3.71997 0
M  V30 3455 H 304.212 -2.11917 2.48513 0
M  V30 3456 H 302.871 -0.333442 3.6508 0
M  V30 3457 H 302.519 -2.74427 4.21544 0
M  V30 3458 H 302.219 -1.6976 5.62544 0
M  V30 3459 H 303.743 -2.62331 5.51375 0
M  V30 3460 H 305.157 -0.361405 5.7216 0
M  V30 3461 H 303.554 0.383316 5.98875 0
M  V30 3462 H 304.624 1.03887 4.73641 0
M  V30 3463 N 305.967 -1.56429 0.191757 0
M  V30 3464 C 307.378 -1.83912 -0.321428 0
M  V30 3465 C 307.729 -1.11231 -1.61623 0
M  V30 3466 O 306.854 -0.37202 -2.13178 0
M  V30 3467 C 307.449 -3.33624 -0.589961 0
M  V30 3468 C 306.008 -3.6153 -1.04753 0
M  V30 3469 C 305.155 -2.7714 -0.0943327 0
M  V30 3470 H 308.106 -1.53161 0.415612 0
M  V30 3471 H 308.127 -3.52213 -1.43966 0
M  V30 3472 H 307.639 -3.86495 0.352588 0
M  V30 3473 H 305.74 -3.14089 -2.00447 0
M  V30 3474 H 305.853 -4.69737 -0.942549 0
M  V30 3475 H 304.217 -2.47638 -0.595589 0
M  V30 3476 H 305 -3.32799 0.842601 0
M  V30 3477 N 307.445 0.0818655 -1.57387 0
M  V30 3478 C 308.393 1.11712 -2.04018 0
M  V30 3479 C 309.387 1.40683 -0.94364 0
M  V30 3480 O 310.593 1.40209 -1.12878 0
M  V30 3481 H 306.968 0.377542 -0.650358 0
M  V30 3482 H 308.939 0.697614 -2.90131 0
M  V30 3483 C 307.688 2.42537 -2.49141 0
M  V30 3484 H 307.011 2.21092 -3.33104 0
M  V30 3485 H 308.451 3.13446 -2.85531 0
M  V30 3486 C 306.91 3.0778 -1.37014 0
M  V30 3487 O 307.44 3.95436 -0.706621 0
M  V30 3488 N 305.646 2.68242 -1.11779 0
M  V30 3489 H 305.193 1.97052 -1.65917 0
M  V30 3490 H 305.151 3.1222 -0.369594 0
M  V30 3491 N 308.923 1.53595 0.353017 0
M  V30 3492 C 310.17 1.70385 1.09431 0
M  V30 3493 C 310.498 0.462113 1.88931 0
M  V30 3494 O 309.753 -0.556074 1.87633 0
M  V30 3495 C 310.052 2.91313 2.07054 0
M  V30 3496 C 309.718 4.27308 1.43939 0
M  V30 3497 C 308.38 4.64287 1.26454 0
M  V30 3498 C 310.732 5.11829 0.983883 0
M  V30 3499 C 308.06 5.83412 0.620226 0
M  V30 3500 C 310.412 6.31611 0.353516 0
M  V30 3501 C 309.076 6.67293 0.166272 0
M  V30 3502 H 308.346 0.623484 0.400436 0
M  V30 3503 H 310.993 1.87799 0.374655 0
M  V30 3504 H 309.298 2.68463 2.85368 0
M  V30 3505 H 310.995 3.01497 2.64387 0
M  V30 3506 H 307.585 3.98198 1.58543 0
M  V30 3507 H 311.769 4.838 1.10685 0
M  V30 3508 H 307.025 6.09639 0.463681 0
M  V30 3509 H 311.199 6.964 -0.00757555 0
M  V30 3510 H 308.826 7.59461 -0.335047 0
M  V30 3511 N 310.401 -0.613514 1.45168 0
M  V30 3512 C 311.364 -1.7065 1.53007 0
M  V30 3513 C 312.364 -1.5548 0.410184 0
M  V30 3514 O 313.554 -1.60656 0.673455 0
M  V30 3515 C 310.686 -3.09875 1.42093 0
M  V30 3516 H 311.879 -1.65068 2.50385 0
M  V30 3517 H 309.432 -0.828728 1.32521 0
M  V30 3518 H 310.167 -3.21039 0.458769 0
M  V30 3519 H 309.952 -3.22293 2.23315 0
M  V30 3520 H 311.442 -3.895 1.50598 0
M  V30 3521 N 311.879 -1.3236 -0.855495 0
M  V30 3522 C 312.789 -1.23221 -1.99634 0
M  V30 3523 C 313.805 -0.145983 -1.73387 0
M  V30 3524 O 314.981 -0.366502 -1.98037 0
M  V30 3525 C 312.046 -0.954782 -3.33294 0
M  V30 3526 C 311.107 -2.12937 -3.72769 0
M  V30 3527 C 310.34 -1.86508 -5.00051 0
M  V30 3528 O 310.563 -0.807231 -5.64659 0
M  V30 3529 O 309.497 -2.72591 -5.36636 0
M  V30 3530 H 313.323 -2.19126 -2.1028 0
M  V30 3531 H 310.908 -1.12241 -0.986018 0
M  V30 3532 H 312.79 -0.816519 -4.13414 0
M  V30 3533 H 311.465 -0.0258854 -3.2369 0
M  V30 3534 H 310.372 -2.3231 -2.93228 0
M  V30 3535 H 311.705 -3.04102 -3.87018 0
M  V30 3536 N 313.357 1.07166 -1.15556 0
M  V30 3537 C 314.597 1.81391 -0.94216 0
M  V30 3538 C 314.961 1.84788 0.521272 0
M  V30 3539 O 316.162 2.54904 0.85307 0
M  V30 3540 C 314.433 3.22431 -1.54185 0
M  V30 3541 S 315.992 4.13379 -1.47183 0
M  V30 3542 H 312.81 0.624963 -0.339031 0
M  V30 3543 H 315.412 1.28725 -1.4714 0
M  V30 3544 H 314.116 3.17548 -2.59984 0
M  V30 3545 H 313.647 3.80172 -1.01156 0
M  V30 3546 H 315.662 4.94007 -0.466004 0
M  V30 3547 N 314.835 0.952656 1.25548 0
M  V30 3548 C 316.081 0.616826 1.93822 0
M  V30 3549 C 316.436 -0.836684 1.73255 0
M  V30 3550 O 315.729 -1.59218 1.06584 0
M  V30 3551 C 315.923 0.908818 3.45652 0
M  V30 3552 C 315.752 2.38916 3.80984 0
M  V30 3553 C 314.522 3.04637 4.03143 0
M  V30 3554 C 316.72 3.36838 3.88645 0
M  V30 3555 N 314.702 4.42565 4.25453 0
M  V30 3556 C 316.073 4.60065 4.1562 0
M  V30 3557 C 318.128 3.31704 3.71318 0
M  V30 3558 C 316.831 5.78795 4.2707 0
M  V30 3559 C 318.857 4.4977 3.84006 0
M  V30 3560 C 318.219 5.71783 4.11392 0
M  V30 3561 H 314.318 0.27629 0.731565 0
M  V30 3562 H 316.902 1.22443 1.5138 0
M  V30 3563 H 315.073 0.330166 3.86994 0
M  V30 3564 H 316.805 0.533093 4.01174 0
M  V30 3565 H 313.56 2.55215 3.98952 0
M  V30 3566 H 313.984 5.1399 4.40617 0
M  V30 3567 H 318.626 2.3842 3.49164 0
M  V30 3568 H 316.344 6.72521 4.48041 0
M  V30 3569 H 319.93 4.47342 3.71989 0
M  V30 3570 H 318.81 6.61617 4.2099 0
M  V30 3571 N 316.313 -1.40141 0.720998 0
M  V30 3572 C 317.559 -2.01572 0.272075 0
M  V30 3573 C 317.914 -1.5616 -1.12391 0
M  V30 3574 O 317.207 -0.774198 -1.75262 0
M  V30 3575 C 317.401 -3.56165 0.296892 0
M  V30 3576 C 317.23 -4.16584 1.69375 0
M  V30 3577 C 316 -4.49783 2.30269 0
M  V30 3578 C 318.198 -4.41076 2.64493 0
M  V30 3579 N 316.18 -4.95626 3.62254 0
M  V30 3580 C 317.551 -4.88971 3.81192 0
M  V30 3581 C 319.606 -4.23122 2.62435 0
M  V30 3582 C 318.309 -5.20796 4.96149 0
M  V30 3583 C 320.335 -4.56052 3.76524 0
M  V30 3584 C 319.697 -5.04141 4.91956 0
M  V30 3585 H 315.796 -0.768343 0.145511 0
M  V30 3586 H 318.38 -1.70287 0.943959 0
M  V30 3587 H 316.551 -3.86868 -0.344578 0
M  V30 3588 H 318.283 -4.04346 -0.169254 0
M  V30 3589 H 315.038 -4.37101 1.82318 0
M  V30 3590 H 315.462 -5.22923 4.29977 0
M  V30 3591 H 320.104 -3.85158 1.74393 0
M  V30 3592 H 317.822 -5.57672 5.84831 0
M  V30 3593 H 321.408 -4.43796 3.76213 0
M  V30 3594 H 320.288 -5.29142 5.78774 0
M  V30 3595 N 317.792 -0.46758 -1.50504 0
M  V30 3596 C 319.069 0.15003 -1.95024 0
M  V30 3597 C 319.449 1.57304 -1.40779 0
M  V30 3598 O 318.797 2.20281 -0.607319 0
M  V30 3599 C 319.007 0.0969324 -3.48865 0
M  V30 3600 C 320.355 0.287565 -4.23625 0
M  V30 3601 O 321.379 0.173678 -3.55776 0
M  V30 3602 O 320.238 0.517186 -5.44047 0
M  V30 3603 H 317.332 0.113582 -0.819163 0
M  V30 3604 H 319.878 -0.52773 -1.61286 0
M  V30 3605 H 318.65 -0.896732 -3.80886 0
M  V30 3606 H 318.273 0.816303 -3.8913 0
M  V30 3607 N 319.27 1.56325 -0.20005 0
M  V30 3608 C 320.202 2.16555 0.750771 0
M  V30 3609 C 321.215 1.12871 1.1732 0
M  V30 3610 O 322.404 1.39943 1.10807 0
M  V30 3611 C 319.504 2.71684 2.02586 0
M  V30 3612 C 318.677 4.00321 1.76244 0
M  V30 3613 C 317.736 4.40227 2.88248 0
M  V30 3614 O 316.762 5.07552 2.57642 0
M  V30 3615 N 317.964 4.04138 4.16717 0
M  V30 3616 H 320.729 2.98772 0.235685 0
M  V30 3617 H 318.29 1.6189 -0.0182594 0
M  V30 3618 H 320.282 2.95363 2.76664 0
M  V30 3619 H 318.852 1.93893 2.45202 0
M  V30 3620 H 318.072 3.84723 0.85919 0
M  V30 3621 H 319.36 4.84279 1.56048 0
M  V30 3622 H 318.758 3.49993 4.44434 0
M  V30 3623 H 317.315 4.32756 4.87407 0
M  V30 3624 N 320.748 -0.0735177 1.57428 0
M  V30 3625 C 321.994 -0.774145 1.87443 0
M  V30 3626 C 322.327 -1.77311 0.792103 0
M  V30 3627 O 321.602 -1.93492 -0.197793 0
M  V30 3628 C 321.885 -1.48367 3.28115 0
M  V30 3629 C 321.738 -0.501227 4.46999 0
M  V30 3630 C 323.057 -2.429 3.66998 0
M  V30 3631 H 320.176 -0.279971 0.681752 0
M  V30 3632 H 322.818 -0.0373616 1.89963 0
M  V30 3633 H 320.968 -2.11171 3.26097 0
M  V30 3634 H 322.64 0.121468 4.6114 0
M  V30 3635 H 320.883 0.183593 4.33411 0
M  V30 3636 H 321.554 -1.03526 5.42205 0
M  V30 3637 H 324.03 -1.90175 3.70098 0
M  V30 3638 H 322.906 -2.89549 4.66318 0
M  V30 3639 H 323.167 -3.27628 2.96837 0
M  V30 3640 N 322.226 -1.5378 -0.344866 0
M  V30 3641 C 323.475 -1.7018 -1.08267 0
M  V30 3642 C 323.788 -0.471 -1.89845 0
M  V30 3643 O 324.994 -0.515917 -2.66553 0
M  V30 3644 C 323.45 -3.00923 -1.97417 0
M  V30 3645 C 323.058 -4.31335 -1.21053 0
M  V30 3646 C 324.802 -3.26688 -2.71063 0
M  V30 3647 C 322.709 -5.53153 -2.09225 0
M  V30 3648 H 321.639 -0.634138 -0.407903 0
M  V30 3649 H 324.29 -1.8028 -0.342246 0
M  V30 3650 H 322.672 -2.84676 -2.75274 0
M  V30 3651 H 323.846 -4.58281 -0.481159 0
M  V30 3652 H 322.161 -4.12173 -0.591813 0
M  V30 3653 H 324.758 -4.1489 -3.37299 0
M  V30 3654 H 325.101 -2.43639 -3.37558 0
M  V30 3655 H 325.634 -3.43705 -2.0028 0
M  V30 3656 H 322.373 -6.38741 -1.47274 0
M  V30 3657 H 321.893 -5.30458 -2.79955 0
M  V30 3658 H 323.572 -5.88744 -2.68308 0
M  V30 3659 N 323.704 0.605807 -1.45491 0
M  V30 3660 C 324.634 1.72709 -1.57143 0
M  V30 3661 C 325.615 1.6476 -0.422884 0
M  V30 3662 O 326.8 1.83132 -0.646247 0
M  V30 3663 C 323.93 3.11316 -1.53948 0
M  V30 3664 C 322.884 3.34077 -2.67537 0
M  V30 3665 C 322.21 4.72975 -2.49397 0
M  V30 3666 C 323.51 3.24158 -4.09535 0
M  V30 3667 H 325.204 1.63214 -2.51001 0
M  V30 3668 H 322.75 0.78379 -1.208 0
M  V30 3669 H 324.703 3.89557 -1.60696 0
M  V30 3670 H 323.427 3.21655 -0.566205 0
M  V30 3671 H 322.086 2.58227 -2.6022 0
M  V30 3672 H 321.734 4.8005 -1.50205 0
M  V30 3673 H 321.434 4.8916 -3.25571 0
M  V30 3674 H 322.958 5.53414 -2.58002 0
M  V30 3675 H 324.372 3.92271 -4.18086 0
M  V30 3676 H 322.769 3.51872 -4.86113 0
M  V30 3677 H 323.839 2.2157 -4.31317 0
M  V30 3678 N 325.182 1.32811 0.848464 0
M  V30 3679 C 326.459 1.14334 1.58704 0
M  V30 3680 C 326.839 -0.293948 2.09043 0
M  V30 3681 O 326.187 -1.29153 1.88499 0
M  V30 3682 C 326.397 2.17626 2.72837 0
M  V30 3683 C 327.745 2.51282 3.42261 0
M  V30 3684 O 328.769 2.16219 2.83068 0
M  V30 3685 O 327.628 3.11413 4.49093 0
M  V30 3686 H 324.722 0.441601 0.699226 0
M  V30 3687 H 327.268 1.44362 0.892053 0
M  V30 3688 H 326.04 3.14211 2.3321 0
M  V30 3689 H 325.663 1.88628 3.50008 0
M  V30 3690 N 326.66 -1.06551 1.16123 0
M  V30 3691 C 327.909 -1.78687 0.935622 0
M  V30 3692 C 328.222 -1.88056 -0.538001 0
M  V30 3693 O 329.428 -2.56794 -0.88143 0
M  V30 3694 C 327.884 -3.21143 1.62466 0
M  V30 3695 C 327.492 -3.19949 3.13587 0
M  V30 3696 C 329.236 -3.9783 1.48092 0
M  V30 3697 C 327.143 -4.57108 3.75241 0
M  V30 3698 H 326.073 -0.669712 0.346412 0
M  V30 3699 H 328.724 -1.19534 1.39226 0
M  V30 3700 H 327.106 -3.80539 1.09572 0
M  V30 3701 H 328.28 -2.70151 3.73303 0
M  V30 3702 H 326.595 -2.5676 3.27816 0
M  V30 3703 H 329.192 -4.99217 1.91538 0
M  V30 3704 H 329.535 -4.14078 0.429507 0
M  V30 3705 H 330.068 -3.4495 1.98127 0
M  V30 3706 H 326.807 -4.46065 4.80319 0
M  V30 3707 H 326.327 -5.07111 3.20309 0
M  V30 3708 H 328.006 -5.26069 3.76644 0
M  V30 3709 N 328.138 -0.959301 -1.25041 0
M  V30 3710 C 329.068 -0.501388 -2.28053 0
M  V30 3711 C 330.049 0.454673 -1.63911 0
M  V30 3712 O 331.234 0.352618 -1.90972 0
M  V30 3713 C 328.364 0.217224 -3.4662 0
M  V30 3714 C 327.318 -0.654034 -4.22973 0
M  V30 3715 C 326.644 0.195589 -5.34342 0
M  V30 3716 C 327.944 -1.93447 -4.85155 0
M  V30 3717 H 329.638 -1.36238 -2.66608 0
M  V30 3718 H 327.184 -0.656534 -1.28163 0
M  V30 3719 H 329.137 0.548732 -4.17812 0
M  V30 3720 H 327.861 1.1125 -3.07068 0
M  V30 3721 H 326.52 -0.968693 -3.5357 0
M  V30 3722 H 326.168 1.09076 -4.91031 0
M  V30 3723 H 325.868 -0.384091 -5.86343 0
M  V30 3724 H 327.392 0.521958 -6.08365 0
M  V30 3725 H 328.806 -1.66908 -5.48466 0
M  V30 3726 H 327.203 -2.46018 -5.47353 0
M  V30 3727 H 328.273 -2.63466 -4.07079 0
M  V30 3728 N 329.616 1.39756 -0.72842 0
M  V30 3729 C 330.546 2.33289 -0.0991354 0
M  V30 3730 C 331.527 1.53568 0.731489 0
M  V30 3731 O 332.712 1.81987 0.677807 0
M  V30 3732 C 329.842 3.3763 0.813834 0
M  V30 3733 C 328.796 4.2791 0.0878663 0
M  V30 3734 C 328.122 5.22894 1.11741 0
M  V30 3735 C 329.422 5.11314 -1.06563 0
M  V30 3736 H 331.116 2.86163 -0.880408 0
M  V30 3737 H 328.662 1.37591 -0.424819 0
M  V30 3738 H 330.615 4.0201 1.26355 0
M  V30 3739 H 329.339 2.83181 1.62715 0
M  V30 3740 H 327.998 3.65 -0.342159 0
M  V30 3741 H 327.646 4.64744 1.92412 0
M  V30 3742 H 327.346 5.84143 0.636477 0
M  V30 3743 H 328.87 5.90151 1.56697 0
M  V30 3744 H 330.284 5.69076 -0.694671 0
M  V30 3745 H 328.681 5.81671 -1.47577 0
M  V30 3746 H 329.751 4.46534 -1.89038 0
M  V30 3747 N 331.094 0.475555 1.50254 0
M  V30 3748 C 332.334 -0.0765802 2.04256 0
M  V30 3749 C 332.698 -1.36587 1.34937 0
M  V30 3750 O 333.899 -2.00066 1.79519 0
M  V30 3751 C 332.17 -0.251668 3.56513 0
M  V30 3752 S 333.729 -0.761716 4.32138 0
M  V30 3753 H 330.547 -0.0138456 0.710865 0
M  V30 3754 H 333.149 0.643714 1.84598 0
M  V30 3755 H 331.853 0.692404 4.04517 0
M  V30 3756 H 331.384 -0.997946 3.80532 0
M  V30 3757 H 333.399 -2.03451 4.52573 0
M  V30 3758 N 332.573 -1.56217 0.208337 0
M  V30 3759 C 333.521 -2.21053 -0.723769 0
M  V30 3760 C 334.515 -1.18578 -1.20978 0
M  V30 3761 O 335.721 -1.36691 -1.17114 0
M  V30 3762 H 332.096 -0.708595 -0.251788 0
M  V30 3763 H 334.067 -2.98006 -0.153365 0
M  V30 3764 C 332.816 -2.89417 -1.927 0
M  V30 3765 H 332.139 -3.68019 -1.56212 0
M  V30 3766 H 333.579 -3.38201 -2.55727 0
M  V30 3767 C 332.038 -1.91166 -2.77411 0
M  V30 3768 O 332.568 -1.42026 -3.75754 0
M  V30 3769 N 330.774 -1.59105 -2.43175 0
M  V30 3770 H 330.321 -1.99259 -1.63259 0
M  V30 3771 H 330.279 -0.936255 -3.00136 0
M  V30 3772 N 334.051 0.0651679 -1.57465 0
M  V30 3773 C 335.299 0.761555 -1.87202 0
M  V30 3774 C 335.62 1.77778 -0.801243 0
M  V30 3775 O 334.89 1.95166 0.16937 0
M  V30 3776 H 333.47 0.284251 -0.690804 0
M  V30 3777 H 336.132 0.0396827 -1.9486 0
M  V30 3778 H 335.228 1.27365 -2.84929 0
M  V30 3779 N 335.529 1.53961 0.336706 0
M  V30 3780 C 336.777 1.71197 1.07405 0
M  V30 3781 C 337.098 0.481475 1.88962 0
M  V30 3782 O 336.368 -0.504585 1.8929 0
M  V30 3783 H 334.948 0.631185 0.399517 0
M  V30 3784 H 337.61 1.91232 0.376323 0
M  V30 3785 H 336.706 2.58587 1.74755 0
M  V30 3786 N 337.007 -0.598083 1.45811 0
M  V30 3787 C 338.255 -1.35413 1.50026 0
M  V30 3788 C 338.576 -1.94444 0.147177 0
M  V30 3789 O 337.846 -1.77701 -0.824571 0
M  V30 3790 H 336.426 -0.502727 0.552517 0
M  V30 3791 H 339.088 -0.701606 1.81834 0
M  V30 3792 H 338.184 -2.16871 2.2444 0
M  V30 3793 N 338.485 -1.33259 -0.841409 0
M  V30 3794 C 339.734 -1.23921 -1.59143 0
M  V30 3795 C 340.047 0.1941 -1.94635 0
M  V30 3796 O 341.253 0.409474 -2.68394 0
M  V30 3797 C 339.709 -2.17119 -2.87032 0
M  V30 3798 C 339.317 -3.65606 -2.58914 0
M  V30 3799 C 341.061 -2.16648 -3.65053 0
M  V30 3800 C 338.968 -4.50726 -3.82884 0
M  V30 3801 H 337.898 -0.460264 -0.597221 0
M  V30 3802 H 340.549 -1.58307 -0.927959 0
M  V30 3803 H 338.931 -1.75663 -3.54906 0
M  V30 3804 H 340.105 -4.15487 -1.99267 0
M  V30 3805 H 338.42 -3.68341 -1.942 0
M  V30 3806 H 341.017 -2.77474 -4.57069 0
M  V30 3807 H 341.36 -1.16088 -3.99787 0
M  V30 3808 H 341.893 -2.56453 -3.041 0
M  V30 3809 H 338.632 -5.52151 -3.53283 0
M  V30 3810 H 338.152 -4.0559 -4.41879 0
M  V30 3811 H 339.831 -4.64401 -4.50489 0
M  V30 3812 N 339.963 1.05934 -1.16686 0
M  V30 3813 C 341.209 1.79211 -0.962023 0
M  V30 3814 C 341.564 1.85667 0.504545 0
M  V30 3815 O 340.857 1.33991 1.36956 0
M  V30 3816 C 341.051 3.23105 -1.52767 0
M  V30 3817 C 340.88 3.30673 -3.04771 0
M  V30 3818 C 339.65 3.40395 -3.73442 0
M  V30 3819 C 341.848 3.20234 -4.02436 0
M  V30 3820 N 339.83 3.37015 -5.13122 0
M  V30 3821 C 341.201 3.24138 -5.28521 0
M  V30 3822 C 343.256 3.04143 -3.9421 0
M  V30 3823 C 341.959 3.13607 -6.47336 0
M  V30 3824 C 343.985 2.94951 -5.12599 0
M  V30 3825 C 343.347 2.99481 -6.37566 0
M  V30 3826 H 339.446 0.668442 -0.405844 0
M  V30 3827 H 342.03 1.26341 -1.48142 0
M  V30 3828 H 340.201 3.74364 -1.03471 0
M  V30 3829 H 341.933 3.84579 -1.26021 0
M  V30 3830 H 338.688 3.45344 -3.2409 0
M  V30 3831 H 339.112 3.38815 -5.86117 0
M  V30 3832 H 343.754 2.99484 -2.98445 0
M  V30 3833 H 341.472 3.17022 -7.43319 0
M  V30 3834 H 345.058 2.83583 -5.08008 0
M  V30 3835 H 343.938 2.92431 -7.27636 0
M  V30 3836 N 341.441 0.965919 1.2453 0
M  V30 3837 C 342.371 0.513476 2.27784 0
M  V30 3838 C 343.352 -0.445974 1.6415 0
M  V30 3839 O 344.537 -0.342485 1.91156 0
M  V30 3840 C 341.667 -0.198839 3.4673 0
M  V30 3841 C 340.621 0.676456 4.2262 0
M  V30 3842 C 339.947 -0.167248 5.34438 0
M  V30 3843 C 341.247 1.96017 4.84123 0
M  V30 3844 H 342.941 1.3765 2.65881 0
M  V30 3845 H 340.487 0.663321 1.27813 0
M  V30 3846 H 342.44 -0.526567 4.18097 0
M  V30 3847 H 341.164 -1.0962 3.07654 0
M  V30 3848 H 339.823 0.98743 3.53052 0
M  V30 3849 H 339.471 -1.0647 4.91603 0
M  V30 3850 H 339.171 0.415181 5.86131 0
M  V30 3851 H 340.695 -0.489688 6.08633 0
M  V30 3852 H 342.109 1.69814 5.47573 0
M  V30 3853 H 340.506 2.48918 5.4604 0
M  V30 3854 H 341.576 2.65622 4.05676 0
M  V30 3855 N 342.919 -1.39368 0.735821 0
M  V30 3856 C 344.167 -2.00101 0.283562 0
M  V30 3857 C 344.488 -1.5868 -1.13338 0
M  V30 3858 O 343.758 -0.835423 -1.77193 0
M  V30 3859 H 342.338 -0.740024 0.101851 0
M  V30 3860 H 345 -1.70404 0.945962 0
M  V30 3861 H 344.096 -3.10323 0.332604 0
M  V30 3862 N 344.397 -0.483516 -1.5 0
M  V30 3863 C 345.33 0.350427 -2.25493 0
M  V30 3864 C 346.308 0.985549 -1.29328 0
M  V30 3865 O 347.492 1.01906 -1.58579 0
M  V30 3866 C 344.619 1.49202 -3.04066 0
M  V30 3867 C 343.665 0.973036 -4.15252 0
M  V30 3868 S 344.498 -0.122237 -5.3536 0
M  V30 3869 C 345.654 1.02294 -6.17484 0
M  V30 3870 H 345.887 -0.290381 -2.95878 0
M  V30 3871 H 343.42 -0.268562 -1.52046 0
M  V30 3872 H 345.378 2.14623 -3.49925 0
M  V30 3873 H 344.039 2.10438 -2.33183 0
M  V30 3874 H 343.232 1.82804 -4.69679 0
M  V30 3875 H 342.834 0.396335 -3.71894 0
M  V30 3876 H 345.126 1.93195 -6.49371 0
M  V30 3877 H 346.069 0.517664 -7.06205 0
M  V30 3878 H 346.477 1.28238 -5.49741 0
M  V30 3879 N 345.875 1.56104 -0.216619 0
M  V30 3880 C 347.121 1.98466 0.417033 0
M  V30 3881 C 347.454 1.10403 1.59765 0
M  V30 3882 O 346.729 0.160632 1.93836 0
M  V30 3883 C 347.012 3.49769 0.85637 0
M  V30 3884 C 346.865 4.48606 -0.327546 0
M  V30 3885 C 348.184 4.05339 1.7143 0
M  V30 3886 H 345.303 0.721551 0.150112 0
M  V30 3887 H 347.945 1.87423 -0.311864 0
M  V30 3888 H 346.095 3.5931 1.47745 0
M  V30 3889 H 347.767 4.5108 -0.965618 0
M  V30 3890 H 346.01 4.22682 -0.975805 0
M  V30 3891 H 346.681 5.51995 0.0227149 0
M  V30 3892 H 349.157 3.98712 1.19031 0
M  V30 3893 H 348.033 5.11533 1.99061 0
M  V30 3894 H 348.294 3.51918 2.67593 0
M  V30 3895 N 347.353 -0.0568162 1.57498 0
M  V30 3896 C 348.599 -0.75422 1.88253 0
M  V30 3897 C 348.932 -1.76461 0.810865 0
M  V30 3898 O 348.207 -1.93691 -0.177259 0
M  V30 3899 C 348.49 -1.44878 3.2967 0
M  V30 3900 C 348.343 -0.453789 4.47505 0
M  V30 3901 C 349.662 -2.38994 3.69554 0
M  V30 3902 H 346.781 -0.272724 0.684683 0
M  V30 3903 H 349.423 -0.0172113 1.89992 0
M  V30 3904 H 347.573 -2.077 3.28318 0
M  V30 3905 H 349.245 0.170371 4.60985 0
M  V30 3906 H 347.488 0.229552 4.33192 0
M  V30 3907 H 348.159 -0.977699 5.43273 0
M  V30 3908 H 350.635 -1.86239 3.72095 0
M  V30 3909 H 349.511 -2.84587 4.69363 0
M  V30 3910 H 349.772 -3.24461 3.00296 0
M  V30 3911 N 348.832 -1.54138 -0.328536 0
M  V30 3912 C 350.072 -1.73827 -1.07534 0
M  V30 3913 C 350.436 -0.498777 -1.85408 0
M  V30 3914 O 351.637 -0.572937 -2.62623 0
M  V30 3915 C 349.908 -2.97573 -1.97952 0
M  V30 3916 S 351.467 -3.38143 -2.79652 0
M  V30 3917 H 348.285 -0.611287 -0.36311 0
M  V30 3918 H 350.887 -1.92306 -0.351931 0
M  V30 3919 H 349.591 -3.85939 -1.39569 0
M  V30 3920 H 349.122 -2.81603 -2.74706 0
M  V30 3921 H 351.137 -2.93052 -4.00418 0
M  V30 3922 N 350.31 0.590341 -1.46126 0
M  V30 3923 C 351.726 0.912917 -1.30912 0
M  V30 3924 C 351.926 1.99616 -0.274893 0
M  V30 3925 O 350.982 2.50397 0.325197 0
M  V30 3926 C 352.295 1.3375 -2.69317 0
M  V30 3927 C 353.843 1.45077 -2.77348 0
M  V30 3928 C 354.318 1.90904 -4.16317 0
M  V30 3929 N 355.809 1.9811 -4.18696 0
M  V30 3930 C 356.544 2.34828 -5.23109 0
M  V30 3931 N 356.04 2.70393 -6.37856 0
M  V30 3932 N 357.833 2.35317 -5.10473 0
M  V30 3933 H 349.984 -0.125358 -2.1203 0
M  V30 3934 H 352.247 0.00658481 -0.947977 0
M  V30 3935 H 351.953 0.615614 -3.4627 0
M  V30 3936 H 351.827 2.30058 -2.9892 0
M  V30 3937 H 354.214 2.16353 -2.00687 0
M  V30 3938 H 354.295 0.4704 -2.51438 0
M  V30 3939 H 353.939 1.20209 -4.9347 0
M  V30 3940 H 353.869 2.89886 -4.39629 0
M  V30 3941 H 356.36 1.73146 -3.359 0
M  V30 3942 H 356.673 2.97341 -7.13308 0
M  V30 3943 H 355.018 2.68048 -6.41229 0
M  V30 3944 H 358.209 2.0695 -4.19868 0
M  V30 3945 H 358.382 2.63605 -5.9196 0
M  V30 3946 N 351.788 1.33704 0.83433 0
M  V30 3947 C 353.035 1.25417 1.58987 0
M  V30 3948 C 353.363 -0.178869 1.93676 0
M  V30 3949 O 352.618 -1.13723 1.59265 0
M  V30 3950 C 352.917 2.07926 2.90692 0
M  V30 3951 C 352.583 3.57066 2.75345 0
M  V30 3952 C 351.245 3.97724 2.70867 0
M  V30 3953 C 353.597 4.51817 2.59828 0
M  V30 3954 C 350.925 5.31344 2.48778 0
M  V30 3955 C 353.277 5.85604 2.39272 0
M  V30 3956 C 351.941 6.25439 2.33199 0
M  V30 3957 H 351.211 0.458934 0.581774 0
M  V30 3958 H 353.858 1.65335 0.966261 0
M  V30 3959 H 352.163 1.608 3.57282 0
M  V30 3960 H 353.86 1.98868 3.48213 0
M  V30 3961 H 350.45 3.24785 2.79665 0
M  V30 3962 H 354.634 4.21311 2.62319 0
M  V30 3963 H 349.89 5.61241 2.42526 0
M  V30 3964 H 354.064 6.58623 2.2625 0
M  V30 3965 H 351.691 7.28914 2.15843 0
M  V30 3966 N 353.266 -1.05314 1.17247 0
M  V30 3967 C 354.196 -2.1498 0.911362 0
M  V30 3968 C 355.177 -1.69471 -0.146169 0
M  V30 3969 O 356.362 -1.942 0.003812 0
M  V30 3970 C 353.492 -3.4472 0.422528 0
M  V30 3971 C 352.446 -4.03789 1.4191 0
M  V30 3972 C 351.772 -5.28858 0.788274 0
M  V30 3973 C 353.072 -4.41418 2.7919 0
M  V30 3974 H 354.766 -2.3708 1.82848 0
M  V30 3975 H 352.312 -1.13938 0.880569 0
M  V30 3976 H 354.265 -4.20787 0.227289 0
M  V30 3977 H 352.989 -3.22269 -0.530123 0
M  V30 3978 H 351.648 -3.2979 1.60106 0
M  V30 3979 H 351.296 -5.02709 -0.171173 0
M  V30 3980 H 350.996 -5.69338 1.45353 0
M  V30 3981 H 352.52 -6.07612 0.603282 0
M  V30 3982 H 353.934 -5.08524 2.64719 0
M  V30 3983 H 352.331 -4.92913 3.42282 0
M  V30 3984 H 353.401 -3.51819 3.33693 0
M  V30 3985 N 354.744 -0.972509 -1.24016 0
M  V30 3986 C 355.654 -0.5143 -2.28893 0
M  V30 3987 C 356.67 0.427078 -1.68677 0
M  V30 3988 O 357.846 0.298939 -1.99169 0
M  V30 3989 C 354.911 0.183598 -3.46214 0
M  V30 3990 C 353.972 -0.798202 -4.21814 0
M  V30 3991 C 353.205 -0.133514 -5.33533 0
M  V30 3992 O 353.428 1.07714 -5.60137 0
M  V30 3993 O 352.362 -0.828103 -5.96176 0
M  V30 3994 H 356.188 -1.38629 -2.70214 0
M  V30 3995 H 353.773 -0.739769 -1.29799 0
M  V30 3996 H 355.655 0.575433 -4.17453 0
M  V30 3997 H 354.33 1.03048 -3.0686 0
M  V30 3998 H 353.237 -1.24059 -3.52931 0
M  V30 3999 H 354.57 -1.61364 -4.64997 0
M  V30 4000 N 356.222 1.38976 -0.743202 0
M  V30 4001 C 357.155 2.28128 -0.0572165 0
M  V30 4002 C 358.133 1.44827 0.739182 0
M  V30 4003 O 359.317 1.74207 0.720009 0
M  V30 4004 C 356.444 3.25796 0.926001 0
M  V30 4005 C 355.49 4.25947 0.217099 0
M  V30 4006 S 356.323 5.24604 -1.07477 0
M  V30 4007 C 357.479 6.25829 -0.0943545 0
M  V30 4008 H 357.712 2.85961 -0.813246 0
M  V30 4009 H 355.245 1.44822 -0.535341 0
M  V30 4010 H 357.203 3.82583 1.48797 0
M  V30 4011 H 355.864 2.66966 1.65493 0
M  V30 4012 H 355.057 4.94746 0.961372 0
M  V30 4013 H 354.659 3.73002 -0.273059 0
M  V30 4014 H 356.951 6.73411 0.743239 0
M  V30 4015 H 357.894 7.0412 -0.749713 0
M  V30 4016 H 358.302 5.63797 0.281706 0
M  V30 4017 N 357.7 0.491464 1.49741 0
M  V30 4018 C 359.116 0.146835 1.58923 0
M  V30 4019 C 359.316 -1.34804 1.49767 0
M  V30 4020 O 358.372 -2.12317 1.36667 0
M  V30 4021 C 359.685 0.715157 2.92072 0
M  V30 4022 C 361.233 0.680407 3.05515 0
M  V30 4023 C 361.708 1.22663 4.41269 0
M  V30 4024 N 363.199 1.18691 4.47735 0
M  V30 4025 C 363.934 1.57984 5.51207 0
M  V30 4026 N 363.43 2.04824 6.6183 0
M  V30 4027 N 365.223 1.49459 5.41866 0
M  V30 4028 H 357.374 1.46347 1.53936 0
M  V30 4029 H 359.637 0.606453 0.728642 0
M  V30 4030 H 359.343 1.76317 3.04311 0
M  V30 4031 H 359.217 0.17018 3.76816 0
M  V30 4032 H 361.604 -0.358743 2.92911 0
M  V30 4033 H 361.685 1.26242 2.22478 0
M  V30 4034 H 361.329 2.26451 4.54623 0
M  V30 4035 H 361.259 0.620637 5.2293 0
M  V30 4036 H 363.75 0.843605 3.68364 0
M  V30 4037 H 364.063 2.32901 7.3687 0
M  V30 4038 H 362.408 2.08791 6.62896 0
M  V30 4039 H 365.599 1.12692 4.54333 0
M  V30 4040 H 365.772 1.80406 6.22381 0
M  V30 4041 N 359.178 -1.55987 0.224894 0
M  V30 4042 C 360.406 -2.02784 -0.410665 0
M  V30 4043 C 360.821 -1.10464 -1.53112 0
M  V30 4044 O 360.178 -0.114871 -1.82138 0
M  V30 4045 C 360.229 -3.49087 -0.939165 0
M  V30 4046 O 359.95 -4.37887 0.136614 0
M  V30 4047 C 361.451 -4.11543 -1.64763 0
M  V30 4048 H 358.671 -0.663484 -0.100148 0
M  V30 4049 H 361.215 -2.01614 0.342326 0
M  V30 4050 H 359.37 -3.50861 -1.64242 0
M  V30 4051 H 359.784 -5.23849 -0.261155 0
M  V30 4052 H 361.258 -5.15673 -1.96939 0
M  V30 4053 H 361.735 -3.56736 -2.56195 0
M  V30 4054 H 362.341 -4.13629 -0.989503 0
M  V30 4055 N 360.656 0.0484629 -1.57525 0
M  V30 4056 C 361.886 0.754326 -1.92337 0
M  V30 4057 C 362.294 1.70443 -0.82132 0
M  V30 4058 O 361.637 1.82466 0.21254 0
M  V30 4059 C 361.699 1.58231 -3.22805 0
M  V30 4060 C 361.363 0.799074 -4.4996 0
M  V30 4061 C 362.36 0.1079 -5.19788 0
M  V30 4062 C 360.045 0.759345 -4.96527 0
M  V30 4063 C 362.039 -0.612516 -6.3445 0
M  V30 4064 C 359.726 0.0351713 -6.1109 0
M  V30 4065 C 360.724 -0.649537 -6.79904 0
M  V30 4066 O 360.412 -1.36199 -7.92278 0
M  V30 4067 H 360.144 0.218257 -0.639797 0
M  V30 4068 H 362.698 0.0159295 -2.05394 0
M  V30 4069 H 360.928 2.36406 -3.06021 0
M  V30 4070 H 362.617 2.16898 -3.43089 0
M  V30 4071 H 363.383 0.129748 -4.84826 0
M  V30 4072 H 359.262 1.28177 -4.42822 0
M  V30 4073 H 362.806 -1.14751 -6.88097 0
M  V30 4074 H 358.703 0.0113314 -6.45499 0
M  V30 4075 H 359.471 -1.27366 -8.0853 0
M  V30 4076 N 362.134 1.5431 0.320358 0
M  V30 4077 C 363.084 1.803 1.39556 0
M  V30 4078 C 364.068 0.659166 1.46778 0
M  V30 4079 O 365.26 0.91926 1.51257 0
M  V30 4080 C 362.389 2.03665 2.76361 0
M  V30 4081 C 361.475 3.24178 2.73439 0
M  V30 4082 N 361.866 4.4516 2.40137 0
M  V30 4083 C 360.164 3.25816 3.04565 0
M  V30 4084 C 360.865 5.27109 2.4603 0
M  V30 4085 N 359.841 4.64368 2.82601 0
M  V30 4086 H 363.643 2.71416 1.12742 0
M  V30 4087 H 361.157 1.53548 0.528856 0
M  V30 4088 H 363.154 2.20425 3.53862 0
M  V30 4089 H 361.814 1.13805 3.04103 0
M  V30 4090 H 362.825 4.72104 2.12927 0
M  V30 4091 H 359.502 2.46001 3.37328 0
M  V30 4092 H 360.892 6.33728 2.23246 0
M  V30 4093 N 363.613 -0.582584 1.46437 0
M  V30 4094 C 364.859 -1.34064 1.52965 0
M  V30 4095 C 365.214 -1.91566 0.178968 0
M  V30 4096 O 364.507 -1.73526 -0.812365 0
M  V30 4097 C 364.701 -2.48964 2.56421 0
M  V30 4098 C 364.53 -2.02717 4.01417 0
M  V30 4099 C 363.3 -1.87728 4.69134 0
M  V30 4100 C 365.498 -1.58675 4.8921 0
M  V30 4101 N 363.48 -1.35554 5.98747 0
M  V30 4102 C 364.851 -1.18093 6.08649 0
M  V30 4103 C 366.906 -1.46494 4.75861 0
M  V30 4104 C 365.609 -0.665427 7.16215 0
M  V30 4105 C 367.635 -0.96347 5.83499 0
M  V30 4106 C 366.997 -0.567432 7.02111 0
M  V30 4107 H 363.096 -0.483551 0.614575 0
M  V30 4108 H 365.68 -0.663309 1.83053 0
M  V30 4109 H 363.851 -3.1426 2.28244 0
M  V30 4110 H 365.583 -3.15913 2.52944 0
M  V30 4111 H 362.338 -2.09678 4.24655 0
M  V30 4112 H 362.762 -1.11628 6.67734 0
M  V30 4113 H 367.404 -1.75731 3.8455 0
M  V30 4114 H 365.122 -0.360639 8.07295 0
M  V30 4115 H 368.708 -0.873129 5.75211 0
M  V30 4116 H 367.588 -0.185389 7.83981 0
M  V30 4117 N 365.091 -1.34144 -0.827227 0
M  V30 4118 C 366.054 -1.25264 -1.91942 0
M  V30 4119 C 367.054 -0.168866 -1.59911 0
M  V30 4120 O 368.244 -0.421198 -1.69031 0
M  V30 4121 C 365.376 -0.932952 -3.27885 0
M  V30 4122 H 366.569 -2.22357 -2.0124 0
M  V30 4123 H 364.122 -1.1837 -1.0207 0
M  V30 4124 H 364.857 0.0349917 -3.24281 0
M  V30 4125 H 364.642 -1.71682 -3.52516 0
M  V30 4126 H 366.132 -0.895874 -4.07877 0
M  V30 4127 N 366.569 1.04691 -1.17803 0
M  V30 4128 C 367.794 1.81984 -0.994813 0
M  V30 4129 C 368.219 1.82586 0.452112 0
M  V30 4130 O 367.577 1.23854 1.324 0
M  V30 4131 C 367.625 3.2575 -1.54659 0
M  V30 4132 O 366.729 4.05267 -0.763728 0
M  V30 4133 H 366.07 0.562483 -0.352857 0
M  V30 4134 H 368.6 1.3189 -1.56417 0
M  V30 4135 H 368.61 3.76541 -1.57102 0
M  V30 4136 H 367.285 3.24627 -2.59981 0
M  V30 4137 H 365.862 3.63972 -0.811108 0
M  V30 4138 N 368.047 0.979072 1.23499 0
M  V30 4139 C 369.294 0.647219 1.91878 0
M  V30 4140 C 369.622 -0.819074 1.76413 0
M  V30 4141 O 368.877 -1.60616 1.11808 0
M  V30 4142 C 369.176 0.981932 3.43646 0
M  V30 4143 C 368.842 2.43822 3.79291 0
M  V30 4144 C 367.504 2.83622 3.88731 0
M  V30 4145 C 369.856 3.3828 3.96505 0
M  V30 4146 C 367.184 4.16897 4.12812 0
M  V30 4147 C 369.536 4.71197 4.22085 0
M  V30 4148 C 368.2 5.10758 4.29747 0
M  V30 4149 H 367.47 0.236834 0.702133 0
M  V30 4150 H 370.117 1.23268 1.46551 0
M  V30 4151 H 368.422 0.314365 3.90537 0
M  V30 4152 H 370.119 0.703395 3.94783 0
M  V30 4153 H 366.709 2.11966 3.72516 0
M  V30 4154 H 370.893 3.0871 3.88603 0
M  V30 4155 H 366.149 4.47157 4.16966 0
M  V30 4156 H 370.323 5.44348 4.34348 0
M  V30 4157 H 367.95 6.1405 4.48159 0
M  V30 4158 N 369.525 -1.3858 0.750561 0
M  V30 4159 C 370.472 -2.30483 0.120835 0
M  V30 4160 C 371.442 -1.50022 -0.712923 0
M  V30 4161 O 372.627 -1.78662 -0.669676 0
M  V30 4162 C 369.767 -3.36431 -0.768666 0
M  V30 4163 C 368.88 -4.31927 0.0793922 0
M  V30 4164 C 368.015 -5.24944 -0.81283 0
M  V30 4165 C 367.054 -6.12088 0.0390447 0
M  V30 4166 N 366.191 -6.97412 -0.809969 0
M  V30 4167 H 371.031 -2.83761 0.91015 0
M  V30 4168 H 368.568 -1.39707 0.460463 0
M  V30 4169 H 370.526 -3.96462 -1.29898 0
M  V30 4170 H 369.156 -2.8457 -1.5238 0
M  V30 4171 H 368.208 -3.73382 0.727303 0
M  V30 4172 H 369.52 -4.93319 0.737401 0
M  V30 4173 H 368.674 -5.90078 -1.41042 0
M  V30 4174 H 367.413 -4.63911 -1.50458 0
M  V30 4175 H 366.418 -5.45952 0.649328 0
M  V30 4176 H 367.643 -6.75189 0.727809 0
M  V30 4177 H 365.589 -6.38931 -1.48672 0
M  V30 4178 H 365.506 -7.55712 -0.208789 0
M  V30 4179 H 366.774 -7.66959 -1.39263 0
M  V30 4180 N 371.003 -0.499398 -1.49478 0
M  V30 4181 C 372.28 0.108629 -1.95298 0
M  V30 4182 C 372.66 1.54282 -1.44084 0
M  V30 4183 O 372.008 2.18944 -0.653908 0
M  V30 4184 C 372.218 0.0229111 -3.48992 0
M  V30 4185 C 373.566 0.197643 -4.2414 0
M  V30 4186 O 374.59 0.0981735 -3.56065 0
M  V30 4187 O 373.449 0.401669 -5.45022 0
M  V30 4188 H 370.543 0.096181 -0.821388 0
M  V30 4189 H 373.089 -0.561822 -1.6013 0
M  V30 4190 H 371.861 -0.977321 -3.78899 0
M  V30 4191 H 371.484 0.733579 -3.90774 0
M  V30 4192 N 372.481 1.55866 -0.233164 0
M  V30 4193 C 373.73 1.97779 0.39579 0
M  V30 4194 C 374.043 1.12419 1.60066 0
M  V30 4195 O 375.249 1.44283 2.29988 0
M  V30 4196 C 373.705 3.5188 0.755556 0
M  V30 4197 C 373.313 4.45959 -0.427152 0
M  V30 4198 C 375.057 4.02479 1.34946 0
M  V30 4199 C 372.964 5.91383 -0.0443043 0
M  V30 4200 H 371.894 0.738592 0.15165 0
M  V30 4201 H 374.545 1.80486 -0.331212 0
M  V30 4202 H 372.927 3.64816 1.5403 0
M  V30 4203 H 374.101 4.44776 -1.20462 0
M  V30 4204 H 372.416 4.05765 -0.935068 0
M  V30 4205 H 375.013 5.08637 1.649 0
M  V30 4206 H 375.356 3.49014 2.26925 0
M  V30 4207 H 375.889 3.92813 0.62791 0
M  V30 4208 H 372.628 6.48857 -0.930874 0
M  V30 4209 H 372.148 5.95734 0.697238 0
M  V30 4210 H 373.827 6.45893 0.378334 0
M  V30 4211 N 373.959 -0.0401083 1.57549 0
M  V30 4212 C 374.909 -1.05175 2.02292 0
M  V30 4213 C 375.893 -1.32674 0.910294 0
M  V30 4214 O 377.085 -1.32444 1.17421 0
M  V30 4215 C 374.214 -2.35622 2.49674 0
M  V30 4216 C 373.3 -2.11261 3.67736 0
M  V30 4217 N 373.691 -1.56923 4.80842 0
M  V30 4218 C 371.989 -2.41596 3.74897 0
M  V30 4219 C 372.69 -1.48111 5.62528 0
M  V30 4220 N 371.666 -1.95282 5.07312 0
M  V30 4221 H 375.468 -0.625455 2.87168 0
M  V30 4222 H 372.982 -0.246624 1.60516 0
M  V30 4223 H 374.979 -3.08893 2.79983 0
M  V30 4224 H 373.639 -2.7894 1.662 0
M  V30 4225 H 374.65 -1.25345 5.02503 0
M  V30 4226 H 371.327 -2.88064 3.02201 0
M  V30 4227 H 372.717 -1.06683 6.63377 0
M  V30 4228 N 375.437 -1.54477 -0.31217 0
M  V30 4229 C 376.665 -1.77205 -1.068 0
M  V30 4230 C 377.08 -0.526114 -1.81321 0
M  V30 4231 O 376.437 0.503647 -1.75413 0
M  V30 4232 C 376.488 -2.97253 -2.05725 0
M  V30 4233 O 376.209 -4.1703 -1.34228 0
M  V30 4234 C 377.71 -3.32281 -2.93435 0
M  V30 4235 H 374.93 -0.591287 -0.317208 0
M  V30 4236 H 377.474 -2.01398 -0.354834 0
M  V30 4237 H 375.629 -2.753 -2.72559 0
M  V30 4238 H 376.043 -4.84636 -2.00571 0
M  V30 4239 H 377.517 -4.19551 -3.58721 0
M  V30 4240 H 377.994 -2.49945 -3.61143 0
M  V30 4241 H 378.6 -3.56353 -2.32147 0
M  V30 4242 N 376.915 0.57481 -1.46744 0
M  V30 4243 C 378.143 1.35856 -1.56047 0
M  V30 4244 C 378.558 1.87691 -0.204365 0
M  V30 4245 O 377.915 1.64049 0.79963 0
M  V30 4246 C 377.966 2.54066 -2.57163 0
M  V30 4247 O 377.687 2.04377 -3.87507 0
M  V30 4248 C 379.188 3.46514 -2.76483 0
M  V30 4249 H 376.408 0.414754 -0.527466 0
M  V30 4250 H 378.952 0.698035 -1.92218 0
M  V30 4251 H 377.107 3.16092 -2.23974 0
M  V30 4252 H 377.521 2.81419 -4.4261 0
M  V30 4253 H 378.995 4.25919 -3.51137 0
M  V30 4254 H 379.472 3.98951 -1.83671 0
M  V30 4255 H 380.078 2.90318 -3.10799 0
M  V30 4256 N 378.394 1.34581 0.820102 0
M  V30 4257 C 379.622 1.3018 1.60813 0
M  V30 4258 C 380.037 -0.123551 1.88395 0
M  V30 4259 O 379.394 -1.07148 1.47735 0
M  V30 4260 C 379.445 2.09312 2.94739 0
M  V30 4261 O 379.166 3.46288 2.68358 0
M  V30 4262 C 380.667 2.1234 3.89136 0
M  V30 4263 H 377.887 0.447726 0.499782 0
M  V30 4264 H 380.431 1.77237 1.02017 0
M  V30 4265 H 378.586 1.65889 3.50085 0
M  V30 4266 H 379 3.87227 3.53774 0
M  V30 4267 H 380.474 2.72126 4.80262 0
M  V30 4268 H 380.951 1.11854 4.24718 0
M  V30 4269 H 381.557 2.55864 3.39726 0
M  V30 4270 N 379.872 -1.04064 1.18357 0
M  V30 4271 C 381.12 -1.76915 0.977013 0
M  V30 4272 C 381.441 -1.88624 -0.494577 0
M  V30 4273 O 380.711 -1.41125 -1.3587 0
M  V30 4274 H 379.291 -0.65535 0.358504 0
M  V30 4275 H 381.953 -1.25592 1.49039 0
M  V30 4276 H 381.049 -2.78178 1.41504 0
M  V30 4277 N 381.35 -0.985608 -1.22978 0
M  V30 4278 C 382.297 -0.529825 -2.24636 0
M  V30 4279 C 383.267 0.434028 -1.60329 0
M  V30 4280 O 384.452 0.340414 -1.87739 0
M  V30 4281 C 381.592 0.156533 -3.44745 0
M  V30 4282 C 380.705 -0.848197 -4.23591 0
M  V30 4283 C 379.84 -0.136109 -5.31026 0
M  V30 4284 C 378.879 -1.1297 -6.01585 0
M  V30 4285 N 378.016 -0.446415 -7.00679 0
M  V30 4286 H 382.856 -1.40148 -2.62988 0
M  V30 4287 H 380.393 -0.702168 -1.29259 0
M  V30 4288 H 382.351 0.571324 -4.1327 0
M  V30 4289 H 380.981 0.992025 -3.07179 0
M  V30 4290 H 380.033 -1.38135 -3.54433 0
M  V30 4291 H 381.345 -1.60512 -4.72268 0
M  V30 4292 H 380.499 0.335784 -6.0577 0
M  V30 4293 H 379.238 0.653373 -4.83304 0
M  V30 4294 H 378.243 -1.6123 -5.25628 0
M  V30 4295 H 379.468 -1.91993 -6.51395 0
M  V30 4296 H 377.414 0.323763 -6.55201 0
M  V30 4297 H 377.331 -1.1419 -7.47326 0
M  V30 4298 H 378.599 0.00291697 -7.795 0
M  V30 4299 N 382.828 1.3818 -0.7579 0
M  V30 4300 C 384.077 1.99261 -0.312744 0
M  V30 4301 C 384.39 1.60846 1.11301 0
M  V30 4302 O 385.596 2.14929 1.65885 0
M  V30 4303 C 384.052 3.56294 -0.50821 0
M  V30 4304 C 383.66 4.03657 -1.94333 0
M  V30 4305 C 385.404 4.24313 -0.125982 0
M  V30 4306 C 383.311 5.53347 -2.08712 0
M  V30 4307 H 382.241 0.745456 -0.113185 0
M  V30 4308 H 384.892 1.57889 -0.935056 0
M  V30 4309 H 383.274 3.95575 0.183353 0
M  V30 4310 H 384.448 3.75655 -2.66871 0
M  V30 4311 H 382.763 3.48376 -2.28086 0
M  V30 4312 H 385.36 5.34279 -0.212125 0
M  V30 4313 H 385.703 4.05962 0.921964 0
M  V30 4314 H 386.236 3.90285 -0.769563 0
M  V30 4315 H 382.975 5.76607 -3.11777 0
M  V30 4316 H 382.495 5.83078 -1.4064 0
M  V30 4317 H 384.174 6.19111 -1.87912 0
M  V30 4318 N 384.306 0.507319 1.49211 0
M  V30 4319 C 385.253 -0.267728 2.29242 0
M  V30 4320 C 386.223 -0.954609 1.35928 0
M  V30 4321 O 387.408 -0.960046 1.64887 0
M  V30 4322 C 384.548 -1.32243 3.18756 0
M  V30 4323 C 383.661 -0.64669 4.27132 0
M  V30 4324 C 382.796 -1.68238 5.03855 0
M  V30 4325 C 381.835 -0.98885 6.0406 0
M  V30 4326 N 380.972 -1.96903 6.73924 0
M  V30 4327 H 385.812 0.420968 2.95012 0
M  V30 4328 H 383.349 0.219443 1.45454 0
M  V30 4329 H 385.307 -1.94599 3.69036 0
M  V30 4330 H 383.937 -1.97981 2.54958 0
M  V30 4331 H 382.989 0.0902926 3.80293 0
M  V30 4332 H 384.301 -0.101058 4.98698 0
M  V30 4333 H 383.455 -2.38081 5.58034 0
M  V30 4334 H 382.194 -2.26187 4.32077 0
M  V30 4335 H 381.199 -0.276222 5.49106 0
M  V30 4336 H 382.424 -0.415767 6.77826 0
M  V30 4337 H 380.37 -2.53803 6.04913 0
M  V30 4338 H 380.287 -1.47423 7.41487 0
M  V30 4339 H 381.555 -2.66015 7.32705 0
M  V30 4340 N 385.784 -1.5574 0.241426 0
M  V30 4341 C 387.2 -1.59196 -0.113548 0
M  V30 4342 C 387.4 -1.25852 -1.57364 0
M  V30 4343 O 386.456 -1.00322 -2.31715 0
M  V30 4344 C 387.769 -2.99814 0.230695 0
M  V30 4345 C 389.317 -3.12513 0.174547 0
M  V30 4346 C 389.792 -4.55342 0.492744 0
M  V30 4347 N 391.283 -4.61076 0.443043 0
M  V30 4348 C 392.018 -5.6956 0.662484 0
M  V30 4349 N 391.514 -6.86328 0.944761 0
M  V30 4350 N 393.307 -5.58957 0.593564 0
M  V30 4351 H 385.458 -1.75685 1.19368 0
M  V30 4352 H 387.721 -0.81756 0.479896 0
M  V30 4353 H 387.427 -3.28932 1.24485 0
M  V30 4354 H 387.301 -3.74568 -0.444833 0
M  V30 4355 H 389.688 -2.83179 -0.830277 0
M  V30 4356 H 389.769 -2.40045 0.883845 0
M  V30 4357 H 389.413 -4.85396 1.4951 0
M  V30 4358 H 389.343 -5.26062 -0.23797 0
M  V30 4359 H 391.834 -3.77179 0.233374 0
M  V30 4360 H 392.147 -7.64935 1.09977 0
M  V30 4361 H 390.492 -6.88025 0.982175 0
M  V30 4362 H 393.683 -4.66611 0.373123 0
M  V30 4363 H 393.856 -6.43433 0.767981 0
M  V30 4364 N 387.262 0.0317525 -1.57568 0
M  V30 4365 C 388.225 1.01783 -2.0536 0
M  V30 4366 C 389.225 1.29203 -0.957253 0
M  V30 4367 O 390.415 1.24251 -1.22095 0
M  V30 4368 C 387.547 2.35137 -2.46827 0
M  V30 4369 H 388.74 0.605062 -2.93733 0
M  V30 4370 H 386.293 0.278514 -1.53799 0
M  V30 4371 H 387.028 2.81168 -1.61602 0
M  V30 4372 H 386.813 2.16566 -3.26866 0
M  V30 4373 H 388.303 3.05938 -2.84239 0
M  V30 4374 N 388.74 1.54641 0.303973 0
M  V30 4375 C 389.986 1.74038 1.04109 0
M  V30 4376 C 390.319 0.523051 1.87024 0
M  V30 4377 O 389.594 -0.479874 1.88487 0
M  V30 4378 C 389.877 3.02761 1.94955 0
M  V30 4379 C 389.73 4.34787 1.1524 0
M  V30 4380 C 391.049 3.27336 2.94175 0
M  V30 4381 H 388.168 0.63323 0.377079 0
M  V30 4382 H 390.81 1.87354 0.316001 0
M  V30 4383 H 388.96 2.9154 2.56782 0
M  V30 4384 H 390.632 4.57922 0.557236 0
M  V30 4385 H 388.875 4.31407 0.455053 0
M  V30 4386 H 389.546 5.21116 1.8205 0
M  V30 4387 H 392.022 3.38148 2.42477 0
M  V30 4388 H 390.898 4.18726 3.54908 0
M  V30 4389 H 391.159 2.45491 3.67677 0
M  V30 4390 N 390.218 -0.567019 1.47046 0
M  V30 4391 C 391.148 -1.68482 1.61667 0
M  V30 4392 C 392.129 -1.6358 0.466418 0
M  V30 4393 O 393.314 -1.81354 0.694574 0
M  V30 4394 C 390.444 -3.07124 1.62148 0
M  V30 4395 C 389.398 -3.26867 2.76301 0
M  V30 4396 C 388.724 -4.66196 2.61849 0
M  V30 4397 C 390.024 -3.13186 4.17986 0
M  V30 4398 H 391.718 -1.56502 2.5524 0
M  V30 4399 H 389.264 -0.751486 1.22836 0
M  V30 4400 H 391.217 -3.8516 1.70968 0
M  V30 4401 H 389.941 -3.2004 0.651287 0
M  V30 4402 H 388.6 -2.51237 2.66975 0
M  V30 4403 H 388.248 -4.75898 1.62879 0
M  V30 4404 H 387.948 -4.80356 3.38425 0
M  V30 4405 H 389.472 -5.46379 2.72584 0
M  V30 4406 H 390.886 -3.81049 4.2834 0
M  V30 4407 H 389.283 -3.3886 4.95272 0
M  V30 4408 H 390.353 -2.10057 4.3704 0
M  V30 4409 N 391.696 -1.35014 -0.812953 0
M  V30 4410 C 392.628 -1.23262 -1.93233 0
M  V30 4411 C 393.641 -0.157371 -1.62038 0
M  V30 4412 O 394.83 -0.410096 -1.73725 0
M  V30 4413 C 391.93 -0.87392 -3.27438 0
M  V30 4414 C 391.103 -2.04622 -3.86586 0
M  V30 4415 C 390.162 -1.66432 -4.99186 0
M  V30 4416 O 389.188 -2.38222 -5.16951 0
M  V30 4417 N 390.39 -0.584248 -5.77552 0
M  V30 4418 H 393.155 -2.19699 -2.03844 0
M  V30 4419 H 390.716 -1.281 -0.99005 0
M  V30 4420 H 392.708 -0.600039 -4.00227 0
M  V30 4421 H 391.278 0.00057392 -3.126 0
M  V30 4422 H 390.498 -2.48427 -3.06068 0
M  V30 4423 H 391.786 -2.82999 -4.22835 0
M  V30 4424 H 391.184 0.0123526 -5.65699 0
M  V30 4425 H 389.741 -0.37013 -6.50748 0
M  V30 4426 N 393.175 1.03435 -1.18907 0
M  V30 4427 C 394.422 1.76743 -0.988334 0
M  V30 4428 C 394.75 1.88447 0.481441 0
M  V30 4429 O 394.005 1.39383 1.37371 0
M  V30 4430 C 394.304 3.19792 -1.59586 0
M  V30 4431 C 393.97 3.28108 -3.09283 0
M  V30 4432 C 392.632 3.30084 -3.5014 0
M  V30 4433 C 394.984 3.27696 -4.05296 0
M  V30 4434 C 392.312 3.29299 -4.85571 0
M  V30 4435 C 394.664 3.28451 -5.4065 0
M  V30 4436 C 393.328 3.28723 -5.80946 0
M  V30 4437 H 392.598 0.64675 -0.361657 0
M  V30 4438 H 395.245 1.21442 -1.48068 0
M  V30 4439 H 393.55 3.78136 -1.02568 0
M  V30 4440 H 395.247 3.75171 -1.41589 0
M  V30 4441 H 391.837 3.27294 -2.76725 0
M  V30 4442 H 396.021 3.25354 -3.74778 0
M  V30 4443 H 391.277 3.2783 -5.16079 0
M  V30 4444 H 395.451 3.27082 -6.14809 0
M  V30 4445 H 393.078 3.27868 -6.85862 0
M  V30 4446 N 394.653 0.992116 1.22453 0
M  V30 4447 C 395.881 0.685944 1.95198 0
M  V30 4448 C 396.296 -0.749233 1.73297 0
M  V30 4449 O 395.653 -1.50549 1.03156 0
M  V30 4450 C 395.704 0.981395 3.47924 0
M  V30 4451 O 395.425 2.36018 3.6909 0
M  V30 4452 C 396.926 0.692815 4.37853 0
M  V30 4453 H 394.146 0.253821 0.621141 0
M  V30 4454 H 396.69 1.32668 1.55626 0
M  V30 4455 H 394.845 0.386481 3.85467 0
M  V30 4456 H 395.259 2.45884 4.63294 0
M  V30 4457 H 396.733 0.949818 5.43767 0
M  V30 4458 H 397.21 -0.373181 4.37612 0
M  V30 4459 H 397.816 1.26874 4.05935 0
M  V30 4460 N 396.131 -1.37776 0.765217 0
M  V30 4461 C 397.542 -1.82521 0.392819 0
M  V30 4462 C 397.893 -1.63789 -1.08017 0
M  V30 4463 O 397.018 -1.14542 -1.83601 0
M  V30 4464 C 397.613 -3.31358 0.706214 0
M  V30 4465 C 396.172 -3.74406 0.386952 0
M  V30 4466 C 395.319 -2.60394 0.953422 0
M  V30 4467 H 398.27 -1.2634 0.960412 0
M  V30 4468 H 398.291 -3.80498 -0.0114706 0
M  V30 4469 H 397.803 -3.44959 1.77833 0
M  V30 4470 H 395.904 -3.66377 -0.678112 0
M  V30 4471 H 396.017 -4.70749 0.890636 0
M  V30 4472 H 394.381 -2.51878 0.378064 0
M  V30 4473 H 395.164 -2.76791 2.03081 0
M  V30 4474 N 397.609 -0.515225 -1.4894 0
M  V30 4475 C 398.572 0.244681 -2.2789 0
M  V30 4476 C 399.572 0.881166 -1.34507 0
M  V30 4477 O 400.762 0.743497 -1.57537 0
M  V30 4478 C 397.894 1.35247 -3.12923 0
M  V30 4479 H 399.087 -0.448289 -2.96531 0
M  V30 4480 H 396.64 -0.270656 -1.53939 0
M  V30 4481 H 397.375 2.07916 -2.48881 0
M  V30 4482 H 397.16 0.901374 -3.81599 0
M  V30 4483 H 398.65 1.88737 -3.72516 0
M  V30 4484 N 399.087 1.5561 -0.249682 0
M  V30 4485 C 400.312 2.03865 0.381305 0
M  V30 4486 C 400.737 1.12769 1.50548 0
M  V30 4487 O 400.095 0.121189 1.80895 0
M  V30 4488 C 400.143 3.50101 0.863816 0
M  V30 4489 O 399.247 3.62132 1.97318 0
M  V30 4490 H 398.588 0.658827 0.0827194 0
M  V30 4491 H 401.118 2.01105 -0.376552 0
M  V30 4492 H 401.128 3.90975 1.1663 0
M  V30 4493 H 399.803 4.1588 0.0411816 0
M  V30 4494 H 398.38 3.33155 1.67517 0
M  V30 4495 N 400.565 -0.0233959 1.57583 0
M  V30 4496 C 401.811 -0.708611 1.90657 0
M  V30 4497 C 402.166 -1.7266 0.848895 0
M  V30 4498 O 401.459 -1.91075 -0.141749 0
M  V30 4499 C 401.653 -1.41428 3.28227 0
M  V30 4500 C 401.482 -0.466155 4.47277 0
M  V30 4501 C 400.252 -0.085117 5.05228 0
M  V30 4502 C 402.45 0.257836 5.13653 0
M  V30 4503 N 400.432 0.863672 6.07794 0
M  V30 4504 C 401.803 1.06209 6.10835 0
M  V30 4505 C 403.858 0.324174 4.96844 0
M  V30 4506 C 402.561 1.9266 6.93018 0
M  V30 4507 C 404.587 1.17583 5.79593 0
M  V30 4508 C 403.949 1.96799 6.7635 0
M  V30 4509 H 400.048 -0.233222 0.746412 0
M  V30 4510 H 402.632 0.0314512 1.94675 0
M  V30 4511 H 400.803 -2.12477 3.25128 0
M  V30 4512 H 402.535 -2.05233 3.488 0
M  V30 4513 H 399.29 -0.448516 4.71471 0
M  V30 4514 H 399.714 1.33274 6.63752 0
M  V30 4515 H 404.356 -0.273975 4.21911 0
M  V30 4516 H 402.074 2.53552 7.67292 0
M  V30 4517 H 405.66 1.23076 5.68633 0
M  V30 4518 H 404.54 2.61635 7.39268 0
M  V30 4519 N 402.043 -1.548 -0.295768 0
M  V30 4520 C 403.271 -1.78327 -1.04914 0
M  V30 4521 C 403.686 -0.545316 -1.80753 0
M  V30 4522 O 403.043 0.485013 -1.75937 0
M  V30 4523 C 403.094 -2.99418 -2.02561 0
M  V30 4524 O 402.815 -4.18431 -1.29798 0
M  V30 4525 C 404.316 -3.35375 -2.89895 0
M  V30 4526 H 401.536 -0.594618 -0.310918 0
M  V30 4527 H 404.08 -2.01763 -0.333454 0
M  V30 4528 H 402.235 -2.78175 -2.69624 0
M  V30 4529 H 402.649 -4.86736 -1.95419 0
M  V30 4530 H 404.123 -4.23332 -3.54251 0
M  V30 4531 H 404.6 -2.53761 -3.58472 0
M  V30 4532 H 405.206 -3.58796 -2.28355 0
M  V30 4533 N 403.521 0.559213 -1.47345 0
M  V30 4534 C 404.751 1.33999 -1.57251 0
M  V30 4535 C 405.159 1.87905 -0.220978 0
M  V30 4536 O 404.502 1.65577 0.795617 0
M  V30 4537 C 404.564 2.54798 -2.53611 0
M  V30 4538 C 404.228 2.22192 -3.99349 0
M  V30 4539 C 405.225 1.79607 -4.87891 0
M  V30 4540 C 402.91 2.33613 -4.44669 0
M  V30 4541 C 404.904 1.48868 -6.19772 0
M  V30 4542 C 402.591 2.02487 -5.76578 0
M  V30 4543 C 403.589 1.60183 -6.63951 0
M  V30 4544 O 403.277 1.29451 -7.93409 0
M  V30 4545 H 403.009 0.414858 -0.533731 0
M  V30 4546 H 405.563 0.684465 -1.9366 0
M  V30 4547 H 403.793 3.23235 -2.12265 0
M  V30 4548 H 405.482 3.16873 -2.53666 0
M  V30 4549 H 406.248 1.70278 -4.54126 0
M  V30 4550 H 402.127 2.65501 -3.76869 0
M  V30 4551 H 405.671 1.15775 -6.87926 0
M  V30 4552 H 401.568 2.11448 -6.09885 0
M  V30 4553 H 402.336 1.43098 -8.05894 0
M  V30 4554 N 404.999 1.35443 0.805782 0
M  V30 4555 C 406.245 1.28952 1.56522 0
M  V30 4556 C 406.578 -0.135597 1.93726 0
M  V30 4557 O 405.853 -1.08516 1.61414 0
M  V30 4558 C 406.136 2.19678 2.85331 0
M  V30 4559 C 405.989 3.7081 2.54598 0
M  V30 4560 C 407.308 2.09495 3.8704 0
M  V30 4561 H 404.427 0.469764 0.567883 0
M  V30 4562 H 407.069 1.65851 0.927001 0
M  V30 4563 H 405.219 1.8834 3.39795 0
M  V30 4564 H 406.891 4.12593 2.06312 0
M  V30 4565 H 405.134 3.91051 1.8778 0
M  V30 4566 H 405.805 4.29679 3.46525 0
M  V30 4567 H 408.281 2.37045 3.41978 0
M  V30 4568 H 407.157 2.75173 4.74943 0
M  V30 4569 H 407.418 1.07714 4.28777 0
M  V30 4570 N 406.477 -1.02803 1.19454 0
M  V30 4571 C 407.893 -1.28473 0.946937 0
M  V30 4572 C 408.093 -1.97881 -0.380202 0
M  V30 4573 O 407.149 -2.26719 -1.11151 0
M  V30 4574 C 408.462 -2.13099 2.12154 0
M  V30 4575 C 410.01 -2.26404 2.16126 0
M  V30 4576 C 410.485 -3.14402 3.33039 0
M  V30 4577 N 411.976 -3.21991 3.32981 0
M  V30 4578 C 412.711 -3.90272 4.20089 0
M  V30 4579 N 412.207 -4.60777 5.17355 0
M  V30 4580 N 414 -3.8668 4.07964 0
M  V30 4581 H 406.151 -0.561665 2.04839 0
M  V30 4582 H 408.414 -0.310438 0.89573 0
M  V30 4583 H 408.12 -1.69422 3.08203 0
M  V30 4584 H 407.994 -3.13813 2.09287 0
M  V30 4585 H 410.381 -2.69311 1.20647 0
M  V30 4586 H 410.462 -1.25237 2.23045 0
M  V30 4587 H 410.106 -2.72204 4.28798 0
M  V30 4588 H 410.036 -4.1563 3.23356 0
M  V30 4589 H 412.527 -2.71778 2.62574 0
M  V30 4590 H 412.84 -5.10513 5.80169 0
M  V30 4591 H 411.185 -4.5964 5.21302 0
M  V30 4592 H 414.376 -3.30739 3.31254 0
M  V30 4593 H 414.549 -4.39621 4.76064 0
M  V30 4594 N 407.956 -0.998596 -1.21925 0
M  V30 4595 C 409.202 -0.688337 -1.91399 0
M  V30 4596 C 409.557 0.771805 -1.76241 0
M  V30 4597 O 408.85 1.55153 -1.1242 0
M  V30 4598 C 409.044 -1.03648 -3.42041 0
M  V30 4599 C 408.873 -2.52892 -3.71855 0
M  V30 4600 C 407.643 -3.19389 -3.91559 0
M  V30 4601 C 409.841 -3.5103 -3.75875 0
M  V30 4602 N 407.823 -4.5805 -4.08734 0
M  V30 4603 C 409.194 -4.75174 -3.98259 0
M  V30 4604 C 411.249 -3.45257 -3.58751 0
M  V30 4605 C 409.952 -5.94247 -4.05294 0
M  V30 4606 C 411.978 -4.63712 -3.67049 0
M  V30 4607 C 411.34 -5.86658 -3.89887 0
M  V30 4608 H 407.439 -0.303251 -0.720807 0
M  V30 4609 H 410.023 -1.27977 -1.46731 0
M  V30 4610 H 408.194 -0.473569 -3.85502 0
M  V30 4611 H 409.926 -0.681619 -3.98919 0
M  V30 4612 H 406.681 -2.69846 -3.89205 0
M  V30 4613 H 407.105 -5.29989 -4.21237 0
M  V30 4614 H 411.747 -2.51215 -3.40075 0
M  V30 4615 H 409.465 -6.88687 -4.22772 0
M  V30 4616 H 413.051 -4.6084 -3.5513 0
M  V30 4617 H 411.931 -6.76786 -3.96144 0
M  V30 4618 N 409.434 1.37368 -0.772513 0
M  V30 4619 C 410.681 1.99673 -0.337182 0
M  V30 4620 C 411.009 1.61324 1.0865 0
M  V30 4621 O 410.264 0.851377 1.7621 0
M  V30 4622 C 410.563 3.54817 -0.428876 0
M  V30 4623 C 410.229 4.12936 -1.81092 0
M  V30 4624 C 408.891 4.28523 -2.1891 0
M  V30 4625 C 411.243 4.44801 -2.71664 0
M  V30 4626 C 408.571 4.73277 -3.46735 0
M  V30 4627 C 410.923 4.90981 -3.98899 0
M  V30 4628 C 409.587 5.04773 -4.36761 0
M  V30 4629 H 408.857 0.730656 -0.123384 0
M  V30 4630 H 411.504 1.64124 -0.986686 0
M  V30 4631 H 409.809 3.90618 0.304167 0
M  V30 4632 H 411.506 4.00933 -0.0733334 0
M  V30 4633 H 408.096 4.01233 -1.50699 0
M  V30 4634 H 412.28 4.32344 -2.43706 0
M  V30 4635 H 407.536 4.82142 -3.75964 0
M  V30 4636 H 411.71 5.14603 -4.69208 0
M  V30 4637 H 409.337 5.39211 -5.35868 0
M  V30 4638 N 410.912 0.523116 1.48665 0
M  V30 4639 C 412.189 -0.0775449 1.95446 0
M  V30 4640 C 412.569 -1.5197 1.4652 0
M  V30 4641 O 411.917 -2.17876 0.688657 0
M  V30 4642 C 412.127 0.0326135 3.48985 0
M  V30 4643 C 413.475 -0.130141 4.24401 0
M  V30 4644 O 414.499 -0.0415142 3.56176 0
M  V30 4645 O 413.358 -0.31491 5.45592 0
M  V30 4646 H 410.452 -0.0831012 0.822814 0
M  V30 4647 H 412.998 0.587227 1.59216 0
M  V30 4648 H 411.77 1.03748 3.77296 0
M  V30 4649 H 411.393 -0.671317 3.91892 0
M  V30 4650 N 412.39 -1.55475 0.257931 0
M  V30 4651 C 413.801 -1.8511 -0.243135 0
M  V30 4652 C 414.152 -1.17986 -1.5676 0
M  V30 4653 O 413.277 -0.462102 -2.11409 0
M  V30 4654 C 413.872 -3.35826 -0.447929 0
M  V30 4655 C 412.431 -3.65647 -0.893245 0
M  V30 4656 C 411.578 -2.7729 0.0232965 0
M  V30 4657 H 414.529 -1.51261 0.480199 0
M  V30 4658 H 414.55 -3.58002 -1.28898 0
M  V30 4659 H 414.062 -3.84652 0.516196 0
M  V30 4660 H 412.163 -3.22308 -1.86945 0
M  V30 4661 H 412.276 -4.73312 -0.742469 0
M  V30 4662 H 410.64 -2.49942 -0.490021 0
M  V30 4663 H 411.423 -3.28926 0.982994 0
M  V30 4664 N 413.868 0.0150385 -1.57593 0
M  V30 4665 C 414.815 1.01126 -2.07466 0
M  V30 4666 C 415.785 1.35064 -0.966794 0
M  V30 4667 O 416.97 1.4516 -1.23827 0
M  V30 4668 C 414.11 2.30276 -2.57035 0
M  V30 4669 C 413.223 2.02373 -3.81666 0
M  V30 4670 C 412.358 3.25496 -4.19793 0
M  V30 4671 C 411.397 2.93211 -5.37303 0
M  V30 4672 N 410.534 4.08826 -5.70794 0
M  V30 4673 H 415.374 0.57901 -2.92321 0
M  V30 4674 H 412.911 0.27426 -1.44521 0
M  V30 4675 H 414.869 3.05757 -2.83846 0
M  V30 4676 H 413.499 2.71197 -1.75077 0
M  V30 4677 H 412.551 1.17327 -3.61854 0
M  V30 4678 H 413.863 1.74567 -4.67256 0
M  V30 4679 H 413.017 4.09333 -4.47807 0
M  V30 4680 H 411.756 3.56428 -3.32882 0
M  V30 4681 H 410.761 2.07777 -5.09027 0
M  V30 4682 H 411.986 2.63542 -6.25877 0
M  V30 4683 H 409.932 4.39682 -4.86842 0
M  V30 4684 H 409.849 3.84491 -6.50924 0
M  V30 4685 H 411.117 4.93496 -6.03392 0
M  V30 4686 N 415.346 1.54954 0.287554 0
M  V30 4687 C 416.571 1.79209 1.04397 0
M  V30 4688 C 416.996 0.556431 1.79682 0
M  V30 4689 O 416.354 -0.493518 1.74454 0
M  V30 4690 C 416.402 3.00739 1.98969 0
M  V30 4691 O 415.506 2.74805 3.075 0
M  V30 4692 H 414.847 0.592755 0.299227 0
M  V30 4693 H 417.377 2.02068 0.320886 0
M  V30 4694 H 417.387 3.29077 2.4119 0
M  V30 4695 H 416.062 3.90329 1.43582 0
M  V30 4696 H 414.639 2.57523 2.69697 0
M  V30 4697 N 416.824 -0.551391 1.4764 0
M  V30 4698 C 418.049 -1.33837 1.58437 0
M  V30 4699 C 418.474 -1.866 0.237063 0
M  V30 4700 O 417.832 -1.6328 -0.787994 0
M  V30 4701 C 417.88 -2.48014 2.61766 0
M  V30 4702 O 416.984 -3.50419 2.1744 0
M  V30 4703 H 416.325 -0.397299 0.532024 0
M  V30 4704 H 418.855 -0.665759 1.93465 0
M  V30 4705 H 418.865 -2.94503 2.82369 0
M  V30 4706 H 417.54 -2.08969 3.5959 0
M  V30 4707 H 416.117 -3.10196 2.06961 0
M  V30 4708 N 418.302 -1.35869 -0.798587 0
M  V30 4709 C 419.549 -1.29588 -1.55606 0
M  V30 4710 C 419.877 0.127456 -1.94082 0
M  V30 4711 O 419.132 1.09461 -1.62225 0
M  V30 4712 C 419.431 -2.1556 -2.85077 0
M  V30 4713 C 419.097 -3.6424 -2.65781 0
M  V30 4714 C 417.759 -4.04766 -2.60227 0
M  V30 4715 C 420.111 -4.58547 -2.47758 0
M  V30 4716 C 417.439 -5.37753 -2.34603 0
M  V30 4717 C 419.791 -5.91742 -2.23662 0
M  V30 4718 C 418.455 -6.31402 -2.16534 0
M  V30 4719 H 417.725 -0.474197 -0.569402 0
M  V30 4720 H 420.372 -1.67839 -0.922086 0
M  V30 4721 H 418.677 -1.70216 -3.52893 0
M  V30 4722 H 420.374 -2.08031 -3.42818 0
M  V30 4723 H 416.964 -3.32086 -2.70956 0
M  V30 4724 H 421.148 -4.28117 -2.51056 0
M  V30 4725 H 416.404 -5.67474 -2.2756 0
M  V30 4726 H 420.578 -6.6439 -2.08708 0
M  V30 4727 H 418.205 -7.34381 -1.96441 0
M  V30 4728 N 419.78 1.02168 -1.19998 0
M  V30 4729 C 420.712 2.10705 -0.901994 0
M  V30 4730 C 421.725 1.6244 0.108216 0
M  V30 4731 O 422.914 1.78082 -0.12214 0
M  V30 4732 C 420.014 3.37291 -0.329834 0
M  V30 4733 C 419.187 4.14714 -1.39035 0
M  V30 4734 C 418.246 5.19606 -0.830432 0
M  V30 4735 O 417.272 5.48809 -1.50989 0
M  V30 4736 N 418.474 5.79366 0.362696 0
M  V30 4737 H 421.239 2.36856 -1.83628 0
M  V30 4738 H 418.8 1.18518 -1.10296 0
M  V30 4739 H 420.792 4.04657 0.0587633 0
M  V30 4740 H 419.362 3.0843 0.508891 0
M  V30 4741 H 418.582 3.42392 -1.9535 0
M  V30 4742 H 419.87 4.63226 -2.10474 0
M  V30 4743 H 419.268 5.57968 0.932081 0
M  V30 4744 H 417.825 6.48106 0.69299 0
M  V30 4745 N 421.258 1.00505 1.21394 0
M  V30 4746 C 422.674 0.717873 1.42544 0
M  V30 4747 C 422.874 -0.706936 1.88692 0
M  V30 4748 O 421.93 -1.47627 2.04847 0
M  V30 4749 C 423.243 1.73377 2.45684 0
M  V30 4750 C 424.791 1.75059 2.59467 0
M  V30 4751 C 425.266 2.75545 3.6584 0
M  V30 4752 N 426.757 2.74213 3.73311 0
M  V30 4753 C 427.492 3.48626 4.55245 0
M  V30 4754 N 426.988 4.32678 5.41075 0
M  V30 4755 N 428.781 3.37276 4.49668 0
M  V30 4756 H 420.932 1.92506 0.897503 0
M  V30 4757 H 423.195 0.830919 0.456375 0
M  V30 4758 H 422.901 2.75395 2.18748 0
M  V30 4759 H 422.775 1.53647 3.44489 0
M  V30 4760 H 425.162 0.737337 2.8574 0
M  V30 4761 H 425.243 1.98861 1.60897 0
M  V30 4762 H 424.887 3.77028 3.40313 0
M  V30 4763 H 424.817 2.49009 4.64007 0
M  V30 4764 H 427.308 2.13234 3.11993 0
M  V30 4765 H 427.621 4.86253 6.00648 0
M  V30 4766 H 425.966 4.3676 5.40616 0
M  V30 4767 H 429.157 2.71043 3.81646 0
M  V30 4768 H 429.33 3.95524 5.13288 0
M  V30 4769 N 422.737 -1.36956 0.779787 0
M  V30 4770 C 423.983 -1.99787 0.348281 0
M  V30 4771 C 424.316 -1.61756 -1.07465 0
M  V30 4772 O 423.591 -0.867639 -1.74075 0
M  V30 4773 C 423.874 -3.56597 0.50104 0
M  V30 4774 C 423.727 -4.04513 1.96697 0
M  V30 4775 C 425.046 -4.40008 -0.0898097 0
M  V30 4776 H 422.165 -0.725796 0.128022 0
M  V30 4777 H 424.807 -1.62514 0.984331 0
M  V30 4778 H 422.957 -3.88479 -0.0404347 0
M  V30 4779 H 424.629 -3.83161 2.56876 0
M  V30 4780 H 422.872 -3.56408 2.47297 0
M  V30 4781 H 423.543 -5.1352 2.02486 0
M  V30 4782 H 426.019 -4.14431 0.372293 0
M  V30 4783 H 424.895 -5.4888 0.0471605 0
M  V30 4784 H 425.156 -4.26035 -1.18096 0
M  V30 4785 N 424.215 -0.530993 -1.48385 0
M  V30 4786 C 425.178 0.220497 -2.28137 0
M  V30 4787 C 426.178 0.866851 -1.35434 0
M  V30 4788 O 427.368 0.726746 -1.58316 0
M  V30 4789 C 424.5 1.31921 -3.1434 0
M  V30 4790 H 425.693 -0.479714 -2.96038 0
M  V30 4791 H 423.246 -0.286968 -1.53643 0
M  V30 4792 H 423.981 2.05264 -2.51072 0
M  V30 4793 H 423.766 0.86085 -3.82533 0
M  V30 4794 H 425.256 1.84776 -3.74497 0
M  V30 4795 N 425.693 1.55336 -0.266172 0
M  V30 4796 C 426.941 1.99003 0.35246 0
M  V30 4797 C 427.262 1.15591 1.57047 0
M  V30 4798 O 426.532 0.243268 1.94384 0
M  V30 4799 H 425.112 0.735025 0.133217 0
M  V30 4800 H 427.774 1.91367 -0.369434 0
M  V30 4801 H 426.87 3.05289 0.648453 0
M  V30 4802 N 427.171 -0.0066808 1.57599 0
M  V30 4803 C 428.417 -0.693947 1.90558 0
M  V30 4804 C 428.75 -1.73792 0.866594 0
M  V30 4805 O 428.025 -1.94156 -0.115548 0
M  V30 4806 C 428.308 -1.34317 3.34112 0
M  V30 4807 C 428.161 -0.311189 4.48722 0
M  V30 4808 C 429.48 -2.27116 3.7697 0
M  V30 4809 H 426.599 -0.250803 0.693013 0
M  V30 4810 H 429.241 0.043242 1.89951 0
M  V30 4811 H 427.391 -1.9715 3.3476 0
M  V30 4812 H 429.063 0.316944 4.6021 0
M  V30 4813 H 427.306 0.367253 4.32243 0
M  V30 4814 H 427.977 -0.804366 5.46108 0
M  V30 4815 H 430.453 -1.74306 3.77831 0
M  V30 4816 H 429.329 -2.69511 4.78179 0
M  V30 4817 H 429.59 -3.14743 3.10466 0
M  V30 4818 N 428.649 -1.55105 -0.279332 0
M  V30 4819 C 429.879 -1.7917 -1.02867 0
M  V30 4820 C 430.287 -0.56204 -1.80659 0
M  V30 4821 O 429.63 0.478266 -1.77365 0
M  V30 4822 C 429.692 -2.96061 -2.03932 0
M  V30 4823 C 429.356 -4.33341 -1.45137 0
M  V30 4824 C 430.353 -5.12565 -0.870266 0
M  V30 4825 C 428.038 -4.79987 -1.48048 0
M  V30 4826 C 430.032 -6.36565 -0.326097 0
M  V30 4827 C 427.719 -6.03944 -0.932443 0
M  V30 4828 C 428.717 -6.8207 -0.356247 0
M  V30 4829 O 428.405 -8.03691 0.183412 0
M  V30 4830 H 428.137 -0.600796 -0.309872 0
M  V30 4831 H 430.691 -2.02932 -0.317468 0
M  V30 4832 H 428.921 -2.67975 -2.78794 0
M  V30 4833 H 430.61 -3.07506 -2.64943 0
M  V30 4834 H 431.376 -4.77661 -0.840521 0
M  V30 4835 H 427.255 -4.1919 -1.91835 0
M  V30 4836 H 430.799 -6.97489 0.124286 0
M  V30 4837 H 426.696 -6.3833 -0.959407 0
M  V30 4838 H 427.464 -8.18468 0.0721681 0
M  V30 4839 N 430.127 0.543554 -1.4793 0
M  V30 4840 C 431.057 1.65888 -1.64327 0
M  V30 4841 C 432.038 1.62818 -0.492383 0
M  V30 4842 O 433.223 1.80226 -0.723338 0
M  V30 4843 C 430.353 3.04506 -1.67013 0
M  V30 4844 C 429.307 3.2243 -2.81466 0
M  V30 4845 C 428.633 4.61972 -2.69233 0
M  V30 4846 C 429.933 3.06496 -4.22915 0
M  V30 4847 H 431.627 1.52421 -2.57698 0
M  V30 4848 H 429.173 0.731849 -1.24016 0
M  V30 4849 H 431.126 3.82391 -1.77074 0
M  V30 4850 H 429.85 3.18964 -0.70212 0
M  V30 4851 H 428.509 2.46957 -2.70938 0
M  V30 4852 H 428.157 4.73247 -1.7043 0
M  V30 4853 H 427.857 4.74911 -3.46025 0
M  V30 4854 H 429.381 5.41974 -2.81242 0
M  V30 4855 H 430.795 3.74186 -4.34348 0
M  V30 4856 H 429.192 3.30938 -5.006 0
M  V30 4857 H 430.262 2.03077 -4.40327 0
M  V30 4858 N 431.605 1.3629 0.791371 0
M  V30 4859 C 432.852 1.30412 1.54916 0
M  V30 4860 C 433.18 -0.117162 1.94147 0
M  V30 4861 O 432.435 -1.08599 1.62803 0
M  V30 4862 C 432.734 2.17068 2.8393 0
M  V30 4863 C 432.4 3.65645 2.63846 0
M  V30 4864 C 431.062 4.0614 2.58077 0
M  V30 4865 C 433.414 4.59855 2.45322 0
M  V30 4866 C 430.742 5.3899 2.31748 0
M  V30 4867 C 433.094 5.9292 2.2052 0
M  V30 4868 C 431.758 6.32542 2.13183 0
M  V30 4869 H 431.028 0.47721 0.566879 0
M  V30 4870 H 433.675 1.68325 0.913172 0
M  V30 4871 H 431.98 1.72085 3.51986 0
M  V30 4872 H 433.677 2.09846 3.4171 0
M  V30 4873 H 430.267 3.33518 2.69191 0
M  V30 4874 H 434.451 4.29443 2.48782 0
M  V30 4875 H 429.707 5.68672 2.24548 0
M  V30 4876 H 433.881 6.65487 2.05182 0
M  V30 4877 H 431.508 7.35412 1.92544 0
M  V30 4878 N 433.083 -1.0153 1.20538 0
M  V30 4879 C 434.016 -2.09759 0.898695 0
M  V30 4880 C 434.994 -1.61909 -0.149733 0
M  V30 4881 O 436.178 -1.88486 -0.0230293 0
M  V30 4882 C 433.305 -3.36913 0.347512 0
M  V30 4883 C 432.351 -4.03655 1.37713 0
M  V30 4884 S 433.184 -4.47402 2.94265 0
M  V30 4885 C 434.34 -5.77756 2.40726 0
M  V30 4886 H 434.573 -2.3545 1.81523 0
M  V30 4887 H 432.106 -1.14665 1.03399 0
M  V30 4888 H 434.064 -4.10484 0.0360518 0
M  V30 4889 H 432.725 -3.09291 -0.547546 0
M  V30 4890 H 431.918 -4.9514 0.940872 0
M  V30 4891 H 431.52 -3.36313 1.63614 0
M  V30 4892 H 433.812 -6.52994 1.80569 0
M  V30 4893 H 434.755 -6.2618 3.30612 0
M  V30 4894 H 435.163 -5.34081 1.82806 0
M  V30 4895 N 434.561 -1.01147 -1.20859 0
M  V30 4896 C 435.81 -0.693214 -1.89413 0
M  V30 4897 C 436.123 0.779969 -1.79376 0
M  V30 4898 O 437.329 1.21057 -2.43017 0
M  V30 4899 C 435.785 -1.18949 -3.39675 0
M  V30 4900 C 435.393 -2.68921 -3.58309 0
M  V30 4901 C 437.137 -0.94642 -4.13815 0
M  V30 4902 C 435.044 -3.12056 -5.0237 0
M  V30 4903 H 433.974 -0.255595 -0.709357 0
M  V30 4904 H 436.625 -1.22349 -1.36759 0
M  V30 4905 H 435.007 -0.587228 -3.91622 0
M  V30 4906 H 436.181 -3.34652 -3.16772 0
M  V30 4907 H 434.496 -2.91314 -2.97532 0
M  V30 4908 H 437.093 -1.24417 -5.20023 0
M  V30 4909 H 437.436 0.117219 -4.16135 0
M  V30 4910 H 437.969 -1.5118 -3.67953 0
M  V30 4911 H 434.708 -4.17674 -5.05202 0
M  V30 4912 H 434.228 -2.51041 -5.44737 0
M  V30 4913 H 435.907 -3.04403 -5.70918 0
M  V30 4914 N 436.039 1.36541 -0.78704 0
M  V30 4915 C 437.288 1.98552 -0.35494 0
M  V30 4916 C 437.601 1.63171 1.07864 0
M  V30 4917 O 438.807 2.18399 1.61289 0
M  V30 4918 C 437.263 3.55136 -0.583671 0
M  V30 4919 C 436.871 3.99444 -2.02851 0
M  V30 4920 C 438.615 4.2395 -0.215957 0
M  V30 4921 C 436.522 5.48796 -2.20403 0
M  V30 4922 H 435.452 0.742888 -0.128972 0
M  V30 4923 H 438.103 1.5587 -0.968337 0
M  V30 4924 H 436.485 3.95875 0.0994046 0
M  V30 4925 H 437.659 3.6991 -2.74779 0
M  V30 4926 H 435.974 3.43459 -2.35425 0
M  V30 4927 H 438.571 5.33709 -0.325405 0
M  V30 4928 H 438.914 4.07827 0.835646 0
M  V30 4929 H 439.447 3.88565 -0.852175 0
M  V30 4930 H 436.186 5.69864 -3.23937 0
M  V30 4931 H 435.706 5.79964 -1.52977 0
M  V30 4932 H 437.385 6.14986 -2.01002 0
M  V30 4933 N 437.518 0.538854 1.48102 0
M  V30 4934 C 438.764 0.0161732 2.03394 0
M  V30 4935 C 439.119 -1.31154 1.40771 0
M  V30 4936 O 438.412 -1.83613 0.547421 0
M  V30 4937 C 438.606 -0.153808 3.57069 0
M  V30 4938 C 438.435 1.15588 4.34591 0
M  V30 4939 C 437.205 1.71818 4.75191 0
M  V30 4940 C 439.403 2.06867 4.70861 0
M  V30 4941 N 437.385 2.96983 5.37284 0
M  V30 4942 C 438.756 3.16609 5.33066 0
M  V30 4943 C 440.811 2.07085 4.52791 0
M  V30 4944 C 439.514 4.26645 5.79109 0
M  V30 4945 C 441.54 3.16121 4.99821 0
M  V30 4946 C 440.902 4.24582 5.62058 0
M  V30 4947 H 437.001 0.0476346 0.780548 0
M  V30 4948 H 439.585 0.722094 1.80815 0
M  V30 4949 H 437.756 -0.828825 3.79454 0
M  V30 4950 H 439.488 -0.676896 3.98999 0
M  V30 4951 H 436.243 1.25845 4.56574 0
M  V30 4952 H 436.667 3.60732 5.72889 0
M  V30 4953 H 441.309 1.24522 4.04047 0
M  V30 4954 H 439.027 5.0998 6.26854 0
M  V30 4955 H 442.613 3.17355 4.87624 0
M  V30 4956 H 441.493 5.07562 5.97788 0
M  V30 4957 N 438.996 -1.55193 0.274407 0
M  V30 4958 C 439.928 -2.1989 -0.646595 0
M  V30 4959 C 440.941 -1.1834 -1.11801 0
M  V30 4960 O 442.13 -1.4507 -1.04004 0
M  V30 4961 C 439.23 -2.8104 -1.89393 0
M  V30 4962 C 438.403 -4.08274 -1.56943 0
M  V30 4963 C 437.462 -4.53478 -2.66916 0
M  V30 4964 O 436.488 -5.19267 -2.33132 0
M  V30 4965 N 437.69 -4.2356 -3.9696 0
M  V30 4966 H 440.455 -2.99556 -0.0928686 0
M  V30 4967 H 438.016 -1.61618 0.0954783 0
M  V30 4968 H 440.008 -3.08226 -2.62257 0
M  V30 4969 H 438.578 -2.05372 -2.35672 0
M  V30 4970 H 437.798 -3.88384 -0.674655 0
M  V30 4971 H 439.086 -4.91173 -1.32764 0
M  V30 4972 H 438.484 -3.70799 -4.27229 0
M  V30 4973 H 437.041 -4.55518 -4.66205 0
M  V30 4974 N 440.474 -0.00167713 -1.576 0
M  V30 4975 C 441.404 0.988091 -2.11563 0
M  V30 4976 C 442.385 1.35736 -1.02517 0
M  V30 4977 O 443.57 1.44082 -1.30208 0
M  V30 4978 C 440.7 2.27941 -2.62031 0
M  V30 4979 C 439.654 2.0517 -3.75619 0
M  V30 4980 C 438.98 3.4033 -4.12407 0
M  V30 4981 C 440.28 1.41294 -5.02825 0
M  V30 4982 H 441.974 0.538771 -2.94513 0
M  V30 4983 H 439.52 0.257712 -1.41675 0
M  V30 4984 H 441.473 2.97539 -2.9841 0
M  V30 4985 H 440.197 2.74989 -1.76205 0
M  V30 4986 H 438.856 1.37998 -3.39635 0
M  V30 4987 H 438.504 3.85085 -3.23603 0
M  V30 4988 H 438.204 3.25909 -4.88935 0
M  V30 4989 H 439.728 4.1124 -4.51347 0
M  V30 4990 H 441.142 2.00851 -5.36965 0
M  V30 4991 H 439.539 1.37356 -5.84169 0
M  V30 4992 H 440.609 0.382362 -4.8339 0
M  V30 4993 N 441.952 1.55251 0.271103 0
M  V30 4994 C 443.18 1.79974 1.02064 0
M  V30 4995 C 443.595 0.574003 1.79863 0
M  V30 4996 O 442.952 -0.456962 1.76686 0
M  V30 4997 C 443.003 3.02603 1.97772 0
M  V30 4998 O 442.724 4.20443 1.23124 0
M  V30 4999 C 444.225 3.39944 2.84522 0
M  V30 5000 H 441.445 0.599489 0.301419 0
M  V30 5001 H 443.989 2.02268 0.301313 0
M  V30 5002 H 442.144 2.8243 2.65165 0
M  V30 5003 H 442.558 4.89783 1.87651 0
M  V30 5004 H 444.032 4.28915 3.47471 0
M  V30 5005 H 444.509 2.59432 3.54389 0
M  V30 5006 H 445.115 3.62383 2.22618 0
M  V30 5007 N 443.43 -0.535701 1.48216 0
M  V30 5008 C 444.34 -1.66785 1.64985 0
M  V30 5009 C 445.356 -1.65654 0.532414 0
M  V30 5010 O 446.532 -1.8471 0.80275 0
M  V30 5011 C 443.597 -3.0326 1.68031 0
M  V30 5012 C 442.658 -3.1529 2.9136 0
M  V30 5013 C 441.891 -4.45255 2.94252 0
M  V30 5014 O 442.114 -5.32011 2.05719 0
M  V30 5015 O 441.048 -4.6153 3.86359 0
M  V30 5016 H 444.874 -1.55576 2.60825 0
M  V30 5017 H 442.459 -0.70815 1.31551 0
M  V30 5018 H 444.341 -3.84436 1.72589 0
M  V30 5019 H 443.016 -3.14805 0.753628 0
M  V30 5020 H 441.923 -2.3343 2.92337 0
M  V30 5021 H 443.256 -3.08658 3.83394 0
M  V30 5022 N 444.908 -1.36708 -0.784132 0
M  V30 5023 C 445.838 -1.34153 -1.91116 0
M  V30 5024 C 446.819 -0.212121 -1.68772 0
M  V30 5025 O 448.004 -0.410581 -1.8981 0
M  V30 5026 C 445.134 -1.13535 -3.28218 0
M  V30 5027 C 444.088 -2.23356 -3.65097 0
M  V30 5028 C 443.414 -1.87875 -5.00607 0
M  V30 5029 C 444.714 -3.65473 -3.73131 0
M  V30 5030 H 446.408 -2.28459 -1.93512 0
M  V30 5031 H 443.954 -1.09973 -0.929618 0
M  V30 5032 H 445.907 -1.10381 -4.06687 0
M  V30 5033 H 444.631 -0.156804 -3.26223 0
M  V30 5034 H 443.29 -2.25645 -2.88929 0
M  V30 5035 H 442.938 -0.885814 -4.95139 0
M  V30 5036 H 442.638 -2.61406 -5.26252 0
M  V30 5037 H 444.162 -1.86286 -5.81489 0
M  V30 5038 H 445.576 -3.65382 -4.41779 0
M  V30 5039 H 443.973 -4.37953 -4.10265 0
M  V30 5040 H 445.043 -3.99995 -2.74102 0
M  V30 5041 N 446.386 1.0089 -1.21074 0
M  V30 5042 C 447.334 2.11707 -0.963476 0
M  V30 5043 C 448.328 1.69172 0.0879032 0
M  V30 5044 O 449.534 1.79889 -0.0631415 0
M  V30 5045 H 445.909 0.692026 -0.294287 0
M  V30 5046 H 447.88 2.29743 -1.90422 0
M  V30 5047 C 446.629 3.43473 -0.540509 0
M  V30 5048 H 445.952 3.76634 -1.34114 0
M  V30 5049 H 447.392 4.22044 -0.406777 0
M  V30 5050 C 445.851 3.2849 0.748079 0
M  V30 5051 O 446.381 3.58883 1.8046 0
M  V30 5052 N 444.587 2.81715 0.713081 0
M  V30 5053 H 444.134 2.5718 -0.146973 0
M  V30 5054 H 444.092 2.72071 1.57558 0
M  V30 5055 N 447.864 1.01787 1.20321 0
M  V30 5056 C 449.092 0.727194 1.937 0
M  V30 5057 C 449.507 -0.712305 1.74848 0
M  V30 5058 O 448.864 -1.48327 1.06327 0
M  V30 5059 C 448.915 1.05497 3.45764 0
M  V30 5060 O 448.636 2.43794 3.64 0
M  V30 5061 C 450.137 0.785534 4.36285 0
M  V30 5062 H 447.357 0.266939 0.615617 0
M  V30 5063 H 449.901 1.35939 1.52777 0
M  V30 5064 H 448.056 0.468158 3.84561 0
M  V30 5065 H 448.47 2.55656 4.57974 0
M  V30 5066 H 449.944 1.06495 5.4163 0
M  V30 5067 H 450.421 -0.280273 4.38305 0
M  V30 5068 H 451.027 1.35456 4.03152 0
M  V30 5069 N 449.342 -1.36122 0.79427 0
M  V30 5070 C 450.589 -1.99111 0.368905 0
M  V30 5071 C 450.917 -1.63032 -1.0607 0
M  V30 5072 O 450.172 -0.879303 -1.74833 0
M  V30 5073 C 450.471 -3.5409 0.48527 0
M  V30 5074 C 450.137 -4.10003 1.87638 0
M  V30 5075 C 448.799 -4.24986 2.257 0
M  V30 5076 C 451.151 -4.40423 2.78706 0
M  V30 5077 C 448.479 -4.67701 3.54221 0
M  V30 5078 C 450.831 -4.84573 4.0666 0
M  V30 5079 C 449.495 -4.97761 4.44737 0
M  V30 5080 H 448.765 -0.7286 0.134992 0
M  V30 5081 H 451.412 -1.62534 1.01267 0
M  V30 5082 H 449.717 -3.91052 -0.241984 0
M  V30 5083 H 451.414 -4.00766 0.137109 0
M  V30 5084 H 448.004 -3.98784 1.57064 0
M  V30 5085 H 452.188 -4.28412 2.50553 0
M  V30 5086 H 447.444 -4.761 3.83587 0
M  V30 5087 H 451.618 -5.07074 4.77336 0
M  V30 5088 H 449.245 -5.30618 5.44379 0
M  V30 5089 N 450.82 -0.546701 -1.47814 0
M  V30 5090 C 452.067 -0.0187407 -2.02491 0
M  V30 5091 C 452.395 1.32685 -1.42215 0
M  V30 5092 O 451.65 1.87413 -0.563454 0
M  V30 5093 C 451.949 0.134869 -3.57145 0
M  V30 5094 C 451.615 -1.13849 -4.3629 0
M  V30 5095 C 450.277 -1.48743 -4.57634 0
M  V30 5096 C 452.629 -1.98277 -4.82012 0
M  V30 5097 C 449.957 -2.67932 -5.21948 0
M  V30 5098 C 452.309 -3.16659 -5.4764 0
M  V30 5099 C 450.973 -3.51879 -5.67219 0
M  V30 5100 H 450.243 -0.0068577 -0.740968 0
M  V30 5101 H 452.89 -0.716097 -1.77607 0
M  V30 5102 H 451.195 0.915118 -3.80963 0
M  V30 5103 H 452.892 0.558556 -3.97091 0
M  V30 5104 H 449.482 -0.856767 -4.19949 0
M  V30 5105 H 453.666 -1.72628 -4.6531 0
M  V30 5106 H 448.922 -2.95401 -5.35302 0
M  V30 5107 H 453.096 -3.82374 -5.82033 0
M  V30 5108 H 450.723 -4.44331 -6.16825 0
M  V30 5109 N 452.299 1.55045 -0.282633 0
M  V30 5110 C 453.229 2.2579 0.595066 0
M  V30 5111 C 454.21 1.25074 1.15284 0
M  V30 5112 O 455.395 1.5381 1.18559 0
M  V30 5113 C 452.525 2.98472 1.77572 0
M  V30 5114 C 451.479 4.0618 1.34914 0
M  V30 5115 C 450.805 4.66477 2.6135 0
M  V30 5116 C 452.105 5.1996 0.493821 0
M  V30 5117 H 453.799 2.994 0.00505653 0
M  V30 5118 H 451.345 1.44 0.000992001 0
M  V30 5119 H 453.298 3.46677 2.39568 0
M  V30 5120 H 452.022 2.2241 2.39168 0
M  V30 5121 H 450.681 3.58797 0.752338 0
M  V30 5122 H 450.329 3.87074 3.2122 0
M  V30 5123 H 450.029 5.39207 2.33516 0
M  V30 5124 H 451.553 5.17435 3.24181 0
M  V30 5125 H 452.967 5.64172 1.01898 0
M  V30 5126 H 451.364 5.99299 0.310047 0
M  V30 5127 H 452.434 4.82462 -0.485593 0
M  V30 5128 N 453.777 0.010035 1.57597 0
M  V30 5129 C 454.724 -0.978122 2.09049 0
M  V30 5130 C 455.694 -1.33509 0.988159 0
M  V30 5131 O 456.879 -1.43172 1.26121 0
M  V30 5132 C 454.019 -2.26158 2.60666 0
M  V30 5133 C 453.132 -1.96275 3.84838 0
M  V30 5134 C 452.267 -3.18776 4.24918 0
M  V30 5135 C 451.306 -2.84625 5.41899 0
M  V30 5136 N 450.443 -3.99693 5.77226 0
M  V30 5137 H 455.283 -0.532431 2.93205 0
M  V30 5138 H 452.82 -0.251234 1.44939 0
M  V30 5139 H 454.778 -3.01202 2.88675 0
M  V30 5140 H 453.408 -2.68378 1.79369 0
M  V30 5141 H 452.46 -1.11555 3.63675 0
M  V30 5142 H 453.772 -1.67111 4.69974 0
M  V30 5143 H 452.926 -4.02157 4.54262 0
M  V30 5144 H 451.665 -3.51087 3.38511 0
M  V30 5145 H 450.67 -1.99653 5.12268 0
M  V30 5146 H 451.895 -2.53551 6.29991 0
M  V30 5147 H 449.841 -4.31882 4.93776 0
M  V30 5148 H 449.758 -3.74087 6.56959 0
M  V30 5149 H 451.026 -4.83834 6.11167 0
M  V30 5150 N 455.255 -1.55392 -0.262866 0
M  V30 5151 C 456.205 -1.85355 -1.32768 0
M  V30 5152 C 457.189 -0.713188 -1.44231 0
M  V30 5153 O 458.381 -0.974765 -1.47741 0
M  V30 5154 C 455.51 -2.13781 -2.68612 0
M  V30 5155 C 454.596 -3.34104 -2.61219 0
M  V30 5156 N 454.987 -4.53766 -2.2345 0
M  V30 5157 C 453.285 -3.36895 -2.92263 0
M  V30 5158 C 453.986 -5.35877 -2.26298 0
M  V30 5159 N 452.962 -4.74536 -2.65172 0
M  V30 5160 H 456.764 -2.75413 -1.02591 0
M  V30 5161 H 454.278 -1.55405 -0.471503 0
M  V30 5162 H 456.275 -2.33407 -3.45437 0
M  V30 5163 H 454.935 -1.25013 -2.99669 0
M  V30 5164 H 455.946 -4.79682 -1.95258 0
M  V30 5165 H 452.623 -2.58351 -3.27965 0
M  V30 5166 H 454.013 -6.41577 -1.99572 0
M  V30 5167 N 456.733 0.527833 -1.48498 0
M  V30 5168 C 457.982 1.28003 -1.55878 0
M  V30 5169 C 458.295 1.9414 -0.238577 0
M  V30 5170 O 459.501 2.7083 -0.190643 0
M  V30 5171 C 457.957 2.32272 -2.74914 0
M  V30 5172 C 457.565 1.72196 -4.13585 0
M  V30 5173 C 459.309 3.08488 -2.91608 0
M  V30 5174 C 457.216 2.74417 -5.23879 0
M  V30 5175 H 456.146 0.481413 -0.580308 0
M  V30 5176 H 458.797 0.557195 -1.74836 0
M  V30 5177 H 457.179 3.07601 -2.49395 0
M  V30 5178 H 458.353 1.03041 -4.49132 0
M  V30 5179 H 456.668 1.08464 -4.02025 0
M  V30 5180 H 459.265 3.84879 -3.71177 0
M  V30 5181 H 459.608 3.64481 -2.01145 0
M  V30 5182 H 460.141 2.40274 -3.17038 0
M  V30 5183 H 456.88 2.23242 -6.16314 0
M  V30 5184 H 456.4 3.41893 -4.92818 0
M  V30 5185 H 458.079 3.37362 -5.52083 0
M  V30 5186 N 458.211 1.37122 0.776871 0
M  V30 5187 C 459.458 1.32047 1.53524 0
M  V30 5188 C 459.786 -0.0965631 1.9426 0
M  V30 5189 O 459.041 -1.06866 1.63945 0
M  V30 5190 C 459.34 2.20068 2.81611 0
M  V30 5191 C 459.006 3.68423 2.59953 0
M  V30 5192 C 457.668 4.08854 2.53755 0
M  V30 5193 C 460.02 4.62431 2.40431 0
M  V30 5194 C 457.348 5.41417 2.26018 0
M  V30 5195 C 459.7 5.95225 2.14219 0
M  V30 5196 C 458.364 6.34767 2.06462 0
M  V30 5197 H 457.634 0.483196 0.561785 0
M  V30 5198 H 460.281 1.69284 0.895268 0
M  V30 5199 H 458.586 1.75809 3.50141 0
M  V30 5200 H 460.283 2.13458 3.39465 0
M  V30 5201 H 456.873 3.36354 2.65638 0
M  V30 5202 H 461.057 4.32057 2.44213 0
M  V30 5203 H 456.313 5.71022 2.18504 0
M  V30 5204 H 460.487 6.67626 1.98112 0
M  V30 5205 H 458.114 7.37413 1.84733 0
M  V30 5206 N 459.689 -1.00246 1.21608 0
M  V30 5207 C 460.935 -1.74319 1.03638 0
M  V30 5208 C 461.268 -1.89408 -0.428749 0
M  V30 5209 O 460.543 -1.43026 -1.3181 0
M  V30 5210 C 460.826 -3.15431 1.73711 0
M  V30 5211 C 460.679 -3.08049 3.27759 0
M  V30 5212 C 461.998 -4.14407 1.48173 0
M  V30 5213 H 459.117 -0.632741 0.377899 0
M  V30 5214 H 461.759 -1.16853 1.49818 0
M  V30 5215 H 459.909 -3.64493 1.34452 0
M  V30 5216 H 461.581 -2.66681 3.76403 0
M  V30 5217 H 459.824 -2.45088 3.57931 0
M  V30 5218 H 460.495 -4.07862 3.71958 0
M  V30 5219 H 462.971 -3.74061 1.82258 0
M  V30 5220 H 461.847 -5.11279 1.99713 0
M  V30 5221 H 462.108 -4.40174 0.412273 0
M  V30 5222 N 461.167 -1.02423 -1.1978 0
M  V30 5223 C 462.414 -0.717988 -1.89344 0
M  V30 5224 C 462.742 0.753036 -1.79331 0
M  V30 5225 O 461.997 1.56355 -1.17692 0
M  V30 5226 C 462.296 -1.1088 -3.39765 0
M  V30 5227 C 461.962 -2.57731 -3.6998 0
M  V30 5228 C 460.624 -2.97854 -3.77937 0
M  V30 5229 C 462.976 -3.52763 -3.83677 0
M  V30 5230 C 460.304 -4.31931 -3.97054 0
M  V30 5231 C 462.656 -4.86538 -4.04306 0
M  V30 5232 C 461.32 -5.26356 -4.10494 0
M  V30 5233 H 460.59 -0.26273 -0.692859 0
M  V30 5234 H 463.237 -1.28623 -1.41875 0
M  V30 5235 H 461.542 -0.459094 -3.89101 0
M  V30 5236 H 463.239 -0.849432 -3.919 0
M  V30 5237 H 459.829 -2.25646 -3.64393 0
M  V30 5238 H 464.013 -3.2292 -3.76877 0
M  V30 5239 H 459.269 -4.62324 -4.00083 0
M  V30 5240 H 463.443 -5.60093 -4.13846 0
M  V30 5241 H 461.07 -6.3026 -4.2506 0
M  V30 5242 N 462.645 1.35699 -0.801477 0
M  V30 5243 C 463.577 2.28598 -0.166028 0
M  V30 5244 C 464.59 1.50044 0.631721 0
M  V30 5245 O 465.779 1.72339 0.464921 0
M  V30 5246 C 462.879 3.29625 0.787451 0
M  V30 5247 C 462.052 4.37384 0.037171 0
M  V30 5248 C 461.111 5.183 0.908375 0
M  V30 5249 O 460.137 5.68053 0.361189 0
M  V30 5250 N 461.339 5.35912 2.23112 0
M  V30 5251 H 464.104 2.83771 -0.964071 0
M  V30 5252 H 461.665 1.47994 -0.656469 0
M  V30 5253 H 463.657 3.80648 1.37439 0
M  V30 5254 H 462.227 2.75004 1.48632 0
M  V30 5255 H 461.447 3.87364 -0.730935 0
M  V30 5256 H 462.735 5.0653 -0.480109 0
M  V30 5257 H 462.133 4.97125 2.69968 0
M  V30 5258 H 460.69 5.90133 2.76741 0
M  V30 5259 N 464.123 0.554532 1.47522 0
M  V30 5260 C 465.086 -0.184174 2.28459 0
M  V30 5261 C 466.086 -0.845195 1.36796 0
M  V30 5262 O 467.276 -0.701467 1.59452 0
M  V30 5263 C 464.408 -1.26903 3.16399 0
M  V30 5264 H 465.601 0.526751 2.95238 0
M  V30 5265 H 463.154 0.311375 1.53167 0
M  V30 5266 H 463.889 -2.01244 2.54306 0
M  V30 5267 H 463.674 -0.799883 3.83854 0
M  V30 5268 H 465.164 -1.78794 3.77389 0
M  V30 5269 N 465.601 -1.54893 0.290851 0
M  V30 5270 C 466.826 -2.04804 -0.32712 0
M  V30 5271 C 467.251 -1.16721 -1.47506 0
M  V30 5272 O 466.609 -0.169107 -1.8051 0
M  V30 5273 C 466.657 -3.52268 -0.770689 0
M  V30 5274 O 465.761 -3.67236 -1.87647 0
M  V30 5275 H 465.102 -0.660789 -0.0652227 0
M  V30 5276 H 467.632 -2.00036 0.429739 0
M  V30 5277 H 467.642 -3.9393 -1.06223 0
M  V30 5278 H 466.317 -4.15843 0.069096 0
M  V30 5279 H 464.894 -3.37479 -1.58626 0
M  V30 5280 N 467.08 -0.0183926 -1.57589 0
M  V30 5281 C 468.03 0.975944 -2.06057 0
M  V30 5282 C 469.014 1.29204 -0.958908 0
M  V30 5283 O 470.206 1.27995 -1.22255 0
M  V30 5284 C 467.335 2.26194 -2.58247 0
M  V30 5285 C 466.421 1.97467 -3.75323 0
M  V30 5286 N 466.812 1.38968 -4.86335 0
M  V30 5287 C 465.11 2.27515 -3.83605 0
M  V30 5288 C 465.811 1.27131 -5.67638 0
M  V30 5289 N 464.787 1.76319 -5.14211 0
M  V30 5290 H 468.589 0.518444 -2.89291 0
M  V30 5291 H 466.103 0.18688 -1.61321 0
M  V30 5292 H 468.1 2.98289 -2.91255 0
M  V30 5293 H 466.76 2.7258 -1.76438 0
M  V30 5294 H 467.771 1.06608 -5.06809 0
M  V30 5295 H 464.448 2.76649 -3.12684 0
M  V30 5296 H 465.838 0.819882 -6.66879 0
M  V30 5297 N 468.558 1.5553 0.254621 0
M  V30 5298 C 469.969 1.67518 0.824286 0
M  V30 5299 C 470.32 0.614429 1.86331 0
M  V30 5300 O 469.445 -0.240736 2.15057 0
M  V30 5301 C 470.04 3.03692 1.50189 0
M  V30 5302 C 468.599 3.17646 2.01935 0
M  V30 5303 C 467.746 2.63373 0.867746 0
M  V30 5304 H 470.697 1.58671 0.0305843 0
M  V30 5305 H 470.718 2.97706 2.36962 0
M  V30 5306 H 470.23 3.80874 0.745431 0
M  V30 5307 H 468.331 2.45273 2.80485 0
M  V30 5308 H 468.444 4.24455 2.22204 0
M  V30 5309 H 466.808 2.20999 1.26616 0
M  V30 5310 H 467.591 3.43074 0.124498 0
M  V30 5311 N 470.036 -0.519951 1.48776 0
M  V30 5312 C 470.966 -1.63253 1.66945 0
M  V30 5313 C 471.947 -1.62014 0.518224 0
M  V30 5314 O 473.132 -1.79053 0.751919 0
M  V30 5315 C 470.262 -3.0181 1.71836 0
M  V30 5316 C 469.216 -3.17911 2.8656 0
M  V30 5317 C 468.542 -4.5763 2.76548 0
M  V30 5318 C 469.842 -2.99729 4.27738 0
M  V30 5319 H 471.536 -1.48302 2.6009 0
M  V30 5320 H 469.082 -0.712026 1.25165 0
M  V30 5321 H 471.035 -3.79525 1.83135 0
M  V30 5322 H 469.759 -3.17806 0.752775 0
M  V30 5323 H 468.418 -2.42616 2.74833 0
M  V30 5324 H 468.066 -4.70476 1.77937 0
M  V30 5325 H 467.766 -4.69346 3.53536 0
M  V30 5326 H 469.29 -5.37431 2.89828 0
M  V30 5327 H 470.704 -3.67228 4.40246 0
M  V30 5328 H 469.101 -3.22932 5.05801 0
M  V30 5329 H 470.171 -1.96047 4.43502 0
M  V30 5330 N 471.514 -1.37532 -0.769588 0
M  V30 5331 C 472.739 -1.36231 -1.56384 0
M  V30 5332 C 473.164 0.0495849 -1.88035 0
M  V30 5333 O 472.522 1.02723 -1.49391 0
M  V30 5334 C 472.57 -2.20986 -2.84952 0
M  V30 5335 O 471.674 -1.61597 -3.79421 0
M  V30 5336 H 471.015 -0.465387 -0.473615 0
M  V30 5337 H 473.545 -1.81085 -0.952342 0
M  V30 5338 H 473.555 -2.34277 -3.34034 0
M  V30 5339 H 472.23 -3.23612 -2.61243 0
M  V30 5340 H 470.807 -1.57359 -3.38072 0
M  V30 5341 N 472.992 0.995999 -1.22138 0
M  V30 5342 C 474.238 1.7386 -1.05567 0
M  V30 5343 C 474.593 1.8808 0.405418 0
M  V30 5344 O 473.886 1.41062 1.29661 0
M  V30 5345 C 474.08 3.14553 -1.6968 0
M  V30 5346 C 473.909 3.14053 -3.21871 0
M  V30 5347 C 472.679 3.20121 -3.90961 0
M  V30 5348 C 474.877 2.98451 -4.18845 0
M  V30 5349 N 472.859 3.09342 -5.30265 0
M  V30 5350 C 474.23 2.95667 -5.4496 0
M  V30 5351 C 476.285 2.8282 -4.09777 0
M  V30 5352 C 474.988 2.78852 -6.63049 0
M  V30 5353 C 477.014 2.67364 -5.27513 0
M  V30 5354 C 476.376 2.65264 -6.52544 0
M  V30 5355 H 472.475 0.645989 -0.440706 0
M  V30 5356 H 475.059 1.1831 -1.54631 0
M  V30 5357 H 473.23 3.68353 -1.2317 0
M  V30 5358 H 474.962 3.77358 -1.4623 0
M  V30 5359 H 471.717 3.27679 -3.4194 0
M  V30 5360 H 472.141 3.0727 -6.03253 0
M  V30 5361 H 476.783 2.83243 -3.139 0
M  V30 5362 H 474.501 2.77175 -7.59078 0
M  V30 5363 H 478.087 2.56256 -5.22326 0
M  V30 5364 H 476.967 2.5345 -7.42114 0
M  V30 5365 N 474.47 1.03057 1.19235 0
M  V30 5366 C 475.718 0.726581 1.88587 0
M  V30 5367 C 476.039 -0.747227 1.80115 0
M  V30 5368 O 475.309 -1.53849 1.21274 0
M  V30 5369 H 473.889 0.265768 0.698124 0
M  V30 5370 H 476.551 1.30516 1.44746 0
M  V30 5371 H 475.647 1.0224 2.94879 0
M  V30 5372 N 475.948 -1.35272 0.808662 0
M  V30 5373 C 477.364 -1.51806 0.492653 0
M  V30 5374 C 477.564 -1.7574 -0.985778 0
M  V30 5375 O 476.62 -1.80003 -1.77074 0
M  V30 5376 C 477.933 -2.69202 1.33981 0
M  V30 5377 C 479.481 -2.8308 1.33547 0
M  V30 5378 C 479.956 -4.03502 2.16679 0
M  V30 5379 N 481.447 -4.10684 2.14227 0
M  V30 5380 C 482.182 -5.02984 2.75308 0
M  V30 5381 N 481.678 -6.00603 3.45323 0
M  V30 5382 N 483.471 -4.95746 2.64938 0
M  V30 5383 H 475.622 -1.17993 1.76611 0
M  V30 5384 H 477.885 -0.577476 0.751814 0
M  V30 5385 H 477.591 -2.581 2.38909 0
M  V30 5386 H 477.465 -3.63854 0.994491 0
M  V30 5387 H 479.852 -2.93631 0.294036 0
M  V30 5388 H 479.933 -1.89278 1.72068 0
M  V30 5389 H 479.577 -3.93711 3.20864 0
M  V30 5390 H 479.507 -4.96489 1.75517 0
M  V30 5391 H 481.998 -3.40802 1.63285 0
M  V30 5392 H 482.311 -6.67633 3.89212 0
M  V30 5393 H 480.656 -6.0077 3.49428 0
M  V30 5394 H 483.847 -4.18439 2.09825 0
M  V30 5395 H 484.02 -5.67487 3.12829 0
M  V30 5396 N 477.426 -0.562348 -1.47226 0
M  V30 5397 C 478.675 -0.038041 -2.01664 0
M  V30 5398 C 478.988 1.32199 -1.44162 0
M  V30 5399 O 480.194 1.9365 -1.90294 0
M  V30 5400 C 478.65 -0.0174958 -3.59896 0
M  V30 5401 C 478.258 -1.3746 -4.2639 0
M  V30 5402 C 480.002 0.453934 -4.22066 0
M  V30 5403 C 477.909 -1.31289 -5.76643 0
M  V30 5404 H 476.839 -0.0104511 -0.753928 0
M  V30 5405 H 479.49 -0.710966 -1.69167 0
M  V30 5406 H 477.872 0.721182 -3.89378 0
M  V30 5407 H 479.046 -2.1314 -4.08544 0
M  V30 5408 H 477.361 -1.78438 -3.7623 0
M  V30 5409 H 479.958 0.518584 -5.32179 0
M  V30 5410 H 480.301 1.46706 -3.89594 0
M  V30 5411 H 480.834 -0.230044 -3.97134 0
M  V30 5412 H 477.573 -2.30217 -6.13743 0
M  V30 5413 H 477.093 -0.597973 -5.96812 0
M  V30 5414 H 478.772 -1.01713 -6.38955 0
M  V30 5415 N 478.904 1.54736 -0.299062 0
M  V30 5416 C 479.834 2.26409 0.571085 0
M  V30 5417 C 480.815 1.2629 1.13951 0
M  V30 5418 O 482 1.55059 1.16921 0
M  V30 5419 C 479.13 3.00338 1.74396 0
M  V30 5420 C 478.084 4.07588 1.30599 0
M  V30 5421 C 477.41 4.69222 2.56387 0
M  V30 5422 C 478.71 5.20455 0.438645 0
M  V30 5423 H 480.404 2.99388 -0.0266991 0
M  V30 5424 H 477.95 1.43993 -0.0142812 0
M  V30 5425 H 479.903 3.49198 2.35878 0
M  V30 5426 H 478.627 2.24934 2.36796 0
M  V30 5427 H 477.286 3.59575 0.71424 0
M  V30 5428 H 476.934 3.9046 3.17097 0
M  V30 5429 H 476.634 5.41653 2.27784 0
M  V30 5430 H 478.158 5.20844 3.18675 0
M  V30 5431 H 479.572 5.65221 0.959085 0
M  V30 5432 H 477.969 5.99594 0.246466 0
M  V30 5433 H 479.039 4.8192 -0.536738 0
M  V30 5434 N 480.382 0.0267497 1.57577 0
M  V30 5435 C 481.629 -0.652404 1.91703 0
M  V30 5436 C 481.957 -1.72271 0.902936 0
M  V30 5437 O 481.212 -1.955 -0.0884843 0
M  V30 5438 C 481.511 -1.30914 3.3256 0
M  V30 5439 C 481.177 -0.369441 4.49384 0
M  V30 5440 C 479.839 -0.110791 4.81072 0
M  V30 5441 C 482.191 0.275971 5.20469 0
M  V30 5442 C 479.519 0.801116 5.81205 0
M  V30 5443 C 481.871 1.17592 6.21575 0
M  V30 5444 C 480.535 1.44348 6.51705 0
M  V30 5445 H 479.805 -0.238732 0.70149 0
M  V30 5446 H 482.452 0.0880091 1.91298 0
M  V30 5447 H 480.757 -2.12425 3.29216 0
M  V30 5448 H 482.454 -1.84115 3.56234 0
M  V30 5449 H 479.044 -0.581211 4.24641 0
M  V30 5450 H 483.228 0.0892 4.9622 0
M  V30 5451 H 478.484 1.01614 6.02897 0
M  V30 5452 H 482.658 1.68223 6.75777 0
M  V30 5453 H 480.285 2.15176 7.29111 0
M  V30 5454 N 481.861 -1.55662 -0.24637 0
M  V30 5455 C 483.11 -1.7672 -0.972254 0
M  V30 5456 C 483.423 -0.59078 -1.86465 0
M  V30 5457 O 484.629 -0.684391 -2.62732 0
M  V30 5458 C 483.085 -3.12869 -1.7788 0
M  V30 5459 C 482.693 -4.38161 -0.933768 0
M  V30 5460 C 484.437 -3.43265 -2.49738 0
M  V30 5461 C 482.344 -5.6534 -1.73623 0
M  V30 5462 H 481.274 -0.658795 -0.366749 0
M  V30 5463 H 483.925 -1.82092 -0.226902 0
M  V30 5464 H 482.307 -3.01606 -2.56612 0
M  V30 5465 H 483.481 -4.60413 -0.188736 0
M  V30 5466 H 481.796 -4.15102 -0.328488 0
M  V30 5467 H 484.393 -4.35501 -3.10231 0
M  V30 5468 H 484.736 -2.64614 -3.2138 0
M  V30 5469 H 485.269 -3.55746 -1.78016 0
M  V30 5470 H 482.008 -6.46814 -1.06354 0
M  V30 5471 H 481.528 -5.47188 -2.45653 0
M  V30 5472 H 483.207 -6.04616 -2.30323 0
M  V30 5473 N 483.339 0.512053 -1.4905 0
M  V30 5474 C 484.587 1.26436 -1.57665 0
M  V30 5475 C 484.908 1.93255 -0.260293 0
M  V30 5476 O 484.178 1.82206 0.719564 0
M  V30 5477 H 482.758 0.469658 -0.580888 0
M  V30 5478 H 485.42 0.594398 -1.85615 0
M  V30 5479 H 484.516 2.03417 -2.36702 0
M  V30 5480 N 484.817 1.37938 0.762283 0
M  V30 5481 C 486.065 1.33404 1.51815 0
M  V30 5482 C 486.386 -0.0780975 1.94844 0
M  V30 5483 O 485.656 -1.02405 1.67003 0
M  V30 5484 H 484.236 0.490839 0.563104 0
M  V30 5485 H 486.898 1.72527 0.906669 0
M  V30 5486 H 485.994 1.97926 2.41313 0
M  V30 5487 N 486.295 -0.989507 1.22664 0
M  V30 5488 C 487.544 -1.72375 1.04737 0
M  V30 5489 C 487.857 -1.91096 -0.417316 0
M  V30 5490 O 489.063 -2.6188 -0.716334 0
M  V30 5491 C 487.519 -3.10161 1.82561 0
M  V30 5492 C 487.127 -2.99358 3.333 0
M  V30 5493 C 488.871 -3.87607 1.73093 0
M  V30 5494 C 486.778 -4.32319 4.03552 0
M  V30 5495 H 485.708 -0.646326 0.388302 0
M  V30 5496 H 488.359 -1.10437 1.46546 0
M  V30 5497 H 486.741 -3.728 1.33552 0
M  V30 5498 H 487.915 -2.45863 3.89728 0
M  V30 5499 H 486.23 -2.35392 3.43481 0
M  V30 5500 H 488.827 -4.86025 2.22899 0
M  V30 5501 H 489.17 -4.10509 0.691976 0
M  V30 5502 H 489.703 -3.31652 2.19663 0
M  V30 5503 H 486.442 -4.14616 5.07714 0
M  V30 5504 H 485.962 -4.85714 3.51911 0
M  V30 5505 H 487.641 -5.01051 4.09337 0
M  V30 5506 N 487.773 -1.03688 -1.18687 0
M  V30 5507 C 489.001 -0.757918 -1.92518 0
M  V30 5508 C 489.416 0.684398 -1.75959 0
M  V30 5509 O 488.773 1.46617 -1.08673 0
M  V30 5510 C 488.824 -1.10985 -3.44042 0
M  V30 5511 O 488.545 -2.49554 -3.60076 0
M  V30 5512 C 490.046 -0.854844 -4.3498 0
M  V30 5513 H 487.266 -0.276699 -0.611293 0
M  V30 5514 H 489.81 -1.38352 -1.50595 0
M  V30 5515 H 487.965 -0.529279 -3.83767 0
M  V30 5516 H 488.379 -2.6291 -4.53849 0
M  V30 5517 H 489.853 -1.15098 -5.39867 0
M  V30 5518 H 490.33 0.210507 -4.38695 0
M  V30 5519 H 490.936 -1.41853 -4.00946 0
M  V30 5520 N 489.251 1.34841 -0.815825 0
M  V30 5521 C 490.214 2.27959 -0.238185 0
M  V30 5522 C 491.214 1.49983 0.579816 0
M  V30 5523 O 492.404 1.69617 0.396953 0
M  V30 5524 C 489.536 3.34314 0.666876 0
M  V30 5525 H 490.729 2.80558 -1.05958 0
M  V30 5526 H 488.282 1.44852 -0.587156 0
M  V30 5527 H 489.017 2.86916 1.5116 0
M  V30 5528 H 488.802 3.92014 0.0819106 0
M  V30 5529 H 490.292 4.0379 1.06506 0
M  V30 5530 N 490.729 0.570148 1.46925 0
M  V30 5531 C 492.14 0.1402 1.86173 0
M  V30 5532 C 492.491 -1.29347 1.47526 0
M  V30 5533 O 491.616 -1.97508 0.884292 0
M  V30 5534 C 492.211 0.247661 3.37894 0
M  V30 5535 C 490.77 -0.127332 3.76185 0
M  V30 5536 C 489.917 0.589349 2.70965 0
M  V30 5537 H 492.868 0.779117 1.38259 0
M  V30 5538 H 492.889 -0.530341 3.76786 0
M  V30 5539 H 492.401 1.29121 3.65991 0
M  V30 5540 H 490.502 -1.17149 3.53704 0
M  V30 5541 H 490.615 0.240238 4.78497 0
M  V30 5542 H 488.979 0.0309824 2.54681 0
M  V30 5543 H 489.762 1.6343 3.01903 0
M  V30 5544 N 492.207 -1.54576 0.307264 0
M  V30 5545 C 493.435 -2.04675 -0.302597 0
M  V30 5546 C 493.85 -1.18425 -1.47041 0
M  V30 5547 O 493.207 -0.211257 -1.81273 0
M  V30 5548 C 493.258 -3.53575 -0.752801 0
M  V30 5549 O 492.979 -4.36547 0.368536 0
M  V30 5550 C 494.48 -4.19699 -1.42717 0
M  V30 5551 H 491.7 -0.66786 -0.0648374 0
M  V30 5552 H 494.244 -1.99516 0.448716 0
M  V30 5553 H 492.399 -3.59074 -1.45412 0
M  V30 5554 H 492.813 -5.24497 0.0168937 0
M  V30 5555 H 494.287 -5.25388 -1.69327 0
M  V30 5556 H 494.764 -3.69815 -2.36925 0
M  V30 5557 H 495.37 -4.18293 -0.768856 0
M  V30 5558 N 493.685 -0.035106 -1.57561 0
M  V30 5559 C 494.931 0.64318 -1.92331 0
M  V30 5560 C 495.264 1.71434 -0.912368 0
M  V30 5561 O 494.539 1.94395 0.0640303 0
M  V30 5562 C 494.822 1.25411 -3.37556 0
M  V30 5563 C 494.675 0.192109 -4.4939 0
M  V30 5564 C 495.994 2.17041 -3.82859 0
M  V30 5565 H 493.113 0.232341 -0.699419 0
M  V30 5566 H 495.755 -0.0935889 -1.89769 0
M  V30 5567 H 493.905 1.88205 -3.39869 0
M  V30 5568 H 495.577 -0.438849 -4.59208 0
M  V30 5569 H 493.82 -0.481725 -4.31117 0
M  V30 5570 H 494.491 0.659292 -5.48049 0
M  V30 5571 H 496.967 1.64228 -3.8232 0
M  V30 5572 H 495.843 2.56738 -4.85157 0
M  V30 5573 H 496.104 3.06401 -3.18702 0
M  V30 5574 N 495.163 1.55791 0.238111 0
M  V30 5575 C 496.579 1.48411 0.587045 0
M  V30 5576 C 496.779 0.72702 1.87927 0
M  V30 5577 O 495.835 0.259942 2.51158 0
M  V30 5578 C 497.148 2.92873 0.681623 0
M  V30 5579 C 498.696 3.03295 0.773363 0
M  V30 5580 C 499.171 4.49082 0.899428 0
M  V30 5581 N 500.662 4.53056 0.964075 0
M  V30 5582 C 501.397 5.63117 1.08104 0
M  V30 5583 N 500.893 6.82969 1.16299 0
M  V30 5584 N 502.686 5.50933 1.11488 0
M  V30 5585 H 494.837 2.0345 -0.610076 0
M  V30 5586 H 497.1 0.924034 -0.211813 0
M  V30 5587 H 496.806 3.51142 -0.19802 0
M  V30 5588 H 496.68 3.43851 1.55069 0
M  V30 5589 H 499.067 2.45101 1.64346 0
M  V30 5590 H 499.148 2.55513 -0.121034 0
M  V30 5591 H 498.792 5.07889 0.0338586 0
M  V30 5592 H 498.722 4.94553 1.809 0
M  V30 5593 H 501.213 3.66737 0.91173 0
M  V30 5594 H 501.526 7.62598 1.25155 0
M  V30 5595 H 499.871 6.85712 1.13241 0
M  V30 5596 H 503.062 4.56231 1.0474 0
M  V30 5597 H 503.235 6.36743 1.20259 0
M  V30 5598 N 496.642 -0.504142 1.49319 0
M  V30 5599 C 497.574 -1.62265 1.61872 0
M  V30 5600 C 498.587 -1.54881 0.501573 0
M  V30 5601 O 499.776 -1.6087 0.773497 0
M  V30 5602 C 496.876 -3.01042 1.55651 0
M  V30 5603 C 496.049 -3.33642 2.82845 0
M  V30 5604 C 495.108 -4.51816 2.69719 0
M  V30 5605 O 494.134 -4.53755 3.4365 0
M  V30 5606 N 495.336 -5.51543 1.81055 0
M  V30 5607 H 498.101 -1.51924 2.58339 0
M  V30 5608 H 495.662 -0.691954 1.46368 0
M  V30 5609 H 497.654 -3.78013 1.44528 0
M  V30 5610 H 496.224 -3.05323 0.670546 0
M  V30 5611 H 495.444 -2.45598 3.08343 0
M  V30 5612 H 496.732 -3.5222 3.67177 0
M  V30 5613 H 496.13 -5.52774 1.20241 0
M  V30 5614 H 494.687 -6.27629 1.75856 0
M  V30 5615 N 498.12 -1.38341 -0.754957 0
M  V30 5616 C 499.35 -1.37504 -1.54195 0
M  V30 5617 C 499.758 0.0373787 -1.89163 0
M  V30 5618 O 499.101 1.01402 -1.53178 0
M  V30 5619 C 499.163 -2.16488 -2.87008 0
M  V30 5620 C 498.827 -3.65311 -2.74585 0
M  V30 5621 C 499.824 -4.58834 -2.44474 0
M  V30 5622 C 497.509 -4.08649 -2.9208 0
M  V30 5623 C 499.503 -5.93675 -2.32011 0
M  V30 5624 C 497.19 -5.43571 -2.79237 0
M  V30 5625 C 498.188 -6.35898 -2.49245 0
M  V30 5626 O 497.876 -7.68338 -2.36458 0
M  V30 5627 H 497.608 -0.472159 -0.483779 0
M  V30 5628 H 500.162 -1.82515 -0.94221 0
M  V30 5629 H 498.392 -1.66194 -3.49166 0
M  V30 5630 H 500.081 -2.08076 -3.4851 0
M  V30 5631 H 500.847 -4.26657 -2.30627 0
M  V30 5632 H 496.726 -3.37134 -3.14422 0
M  V30 5633 H 500.27 -6.65706 -2.08522 0
M  V30 5634 H 496.167 -5.75345 -2.92657 0
M  V30 5635 H 496.935 -7.78845 -2.5168 0
M  V30 5636 N 499.598 0.982988 -1.23187 0
M  V30 5637 C 500.828 1.75666 -1.08743 0
M  V30 5638 C 501.236 1.85662 0.364195 0
M  V30 5639 O 500.579 1.33317 1.26382 0
M  V30 5640 C 500.641 3.20144 -1.63549 0
M  V30 5641 C 500.305 3.33665 -3.12277 0
M  V30 5642 C 501.302 3.20194 -4.096 0
M  V30 5643 C 498.987 3.58397 -3.51933 0
M  V30 5644 C 500.981 3.31256 -5.44563 0
M  V30 5645 C 498.668 3.69098 -4.87042 0
M  V30 5646 C 499.666 3.55537 -5.83166 0
M  V30 5647 O 499.354 3.65864 -7.1582 0
M  V30 5648 H 499.086 0.558194 -0.381307 0
M  V30 5649 H 501.64 1.24387 -1.63454 0
M  V30 5650 H 499.87 3.72659 -1.03256 0
M  V30 5651 H 501.559 3.79262 -1.4462 0
M  V30 5652 H 502.325 3.00987 -3.80305 0
M  V30 5653 H 498.204 3.68025 -2.77631 0
M  V30 5654 H 501.748 3.20588 -6.19572 0
M  V30 5655 H 497.645 3.87814 -5.16014 0
M  V30 5656 H 498.413 3.82675 -7.23534 0
M  V30 5657 N 501.076 1.04316 1.18135 0
M  V30 5658 C 502.039 0.640794 2.2006 0
M  V30 5659 C 503.039 -0.303124 1.57917 0
M  V30 5660 O 504.229 -0.0881855 1.73977 0
M  V30 5661 C 501.361 -0.060148 3.40847 0
M  V30 5662 H 502.554 1.54281 2.57172 0
M  V30 5663 H 500.107 0.836004 1.32063 0
M  V30 5664 H 500.842 -0.975845 3.0927 0
M  V30 5665 H 500.627 0.618319 3.87194 0
M  V30 5666 H 502.117 -0.328082 4.16309 0
M  V30 5667 N 502.554 -1.34406 0.822964 0
M  V30 5668 C 503.784 -2.02214 0.423424 0
M  V30 5669 C 504.192 -1.62124 -0.975322 0
M  V30 5670 O 503.535 -0.822452 -1.6426 0
M  V30 5671 C 503.597 -3.56721 0.446107 0
M  V30 5672 C 503.261 -4.20136 1.79819 0
M  V30 5673 C 504.258 -4.4065 2.75904 0
M  V30 5674 C 501.943 -4.56906 2.08669 0
M  V30 5675 C 503.937 -4.9706 3.99012 0
M  V30 5676 C 501.624 -5.13026 3.32036 0
M  V30 5677 C 502.622 -5.33047 4.27024 0
M  V30 5678 O 502.31 -5.87979 5.48211 0
M  V30 5679 H 502.042 -0.654748 0.168169 0
M  V30 5680 H 504.596 -1.72659 1.11257 0
M  V30 5681 H 502.826 -3.85537 -0.299734 0
M  V30 5682 H 504.515 -4.05845 0.0666114 0
M  V30 5683 H 505.281 -4.12607 2.54912 0
M  V30 5684 H 501.16 -4.40626 1.35535 0
M  V30 5685 H 504.704 -5.12603 4.73164 0
M  V30 5686 H 500.601 -5.40498 3.52891 0
M  V30 5687 H 501.369 -6.06413 5.49732 0
M  V30 5688 N 504.032 -0.577932 -1.46621 0
M  V30 5689 C 504.962 0.145917 -2.33044 0
M  V30 5690 C 505.943 0.888412 -1.45056 0
M  V30 5691 O 507.128 0.864812 -1.73881 0
M  V30 5692 C 504.258 1.16322 -3.27241 0
M  V30 5693 C 503.212 0.535868 -4.24632 0
M  V30 5694 C 502.538 1.65929 -5.08303 0
M  V30 5695 C 503.838 -0.523861 -5.19666 0
M  V30 5696 H 505.532 -0.575636 -2.93814 0
M  V30 5697 H 503.078 -0.278272 -1.41286 0
M  V30 5698 H 505.031 1.67793 -3.86553 0
M  V30 5699 H 503.755 1.91498 -2.64567 0
M  V30 5700 H 502.414 0.0422759 -3.66576 0
M  V30 5701 H 502.062 2.40061 -4.42018 0
M  V30 5702 H 501.762 1.2452 -5.74255 0
M  V30 5703 H 503.286 2.17686 -5.70478 0
M  V30 5704 H 504.7 -0.0944059 -5.73222 0
M  V30 5705 H 503.097 -0.858 -5.93935 0
M  V30 5706 H 504.167 -1.41197 -4.63887 0
M  V30 5707 N 505.51 1.54411 -0.315457 0
M  V30 5708 C 506.738 2.04833 0.291738 0
M  V30 5709 C 507.153 1.19203 1.46411 0
M  V30 5710 O 506.51 0.220867 1.81159 0
M  V30 5711 C 506.561 3.53969 0.73404 0
M  V30 5712 O 506.282 4.36346 -0.391682 0
M  V30 5713 C 507.783 4.2045 1.40489 0
M  V30 5714 H 505.003 0.668195 0.0612947 0
M  V30 5715 H 507.547 1.99276 -0.45929 0
M  V30 5716 H 505.702 3.5984 1.43506 0
M  V30 5717 H 506.116 5.24481 -0.0447088 0
M  V30 5718 H 507.59 5.26278 1.66539 0
M  V30 5719 H 508.067 3.71067 2.3496 0
M  V30 5720 H 508.673 4.18694 0.746662 0
M  V30 5721 N 506.988 0.0434614 1.5754 0
M  V30 5722 C 508.265 -0.671479 1.83713 0
M  V30 5723 C 508.645 -1.89495 0.930315 0
M  V30 5724 O 507.993 -2.28498 -0.0105639 0
M  V30 5725 C 508.203 -1.0361 3.33266 0
M  V30 5726 C 509.551 -1.42167 4.00092 0
M  V30 5727 O 510.575 -1.12866 3.37846 0
M  V30 5728 O 509.434 -1.96817 5.09829 0
M  V30 5729 H 506.528 -0.330726 0.75799 0
M  V30 5730 H 509.074 0.0722373 1.69546 0
M  V30 5731 H 507.846 -0.165938 3.90948 0
M  V30 5732 H 507.469 -1.83751 3.52592 0
M  V30 5733 N 508.466 -1.55915 -0.229846 0
M  V30 5734 C 509.694 -1.82617 -0.972562 0
M  V30 5735 C 510.109 -0.621488 -1.78278 0
M  V30 5736 O 509.466 0.409956 -1.77836 0
M  V30 5737 C 509.517 -3.0774 -1.89679 0
M  V30 5738 O 509.238 -4.23559 -1.11934 0
M  V30 5739 C 510.739 -3.47368 -2.75409 0
M  V30 5740 H 507.959 -0.60727 -0.285419 0
M  V30 5741 H 510.503 -2.02996 -0.247579 0
M  V30 5742 H 508.658 -2.89361 -2.57583 0
M  V30 5743 H 509.072 -4.94586 -1.74599 0
M  V30 5744 H 510.546 -4.37977 -3.35977 0
M  V30 5745 H 511.023 -2.68737 -3.47386 0
M  V30 5746 H 511.629 -3.68158 -2.12931 0
M  V30 5747 N 509.944 0.496216 -1.49584 0
M  V30 5748 C 510.876 1.61404 -1.62731 0
M  V30 5749 C 511.889 1.54613 -0.50978 0
M  V30 5750 O 513.078 1.60458 -0.782017 0
M  V30 5751 C 510.178 3.00212 -1.57245 0
M  V30 5752 C 509.351 3.32138 -2.84611 0
M  V30 5753 C 508.41 4.5038 -2.72112 0
M  V30 5754 O 507.436 4.51926 -3.46051 0
M  V30 5755 N 508.638 5.50575 -1.83977 0
M  V30 5756 H 511.403 1.50552 -2.59141 0
M  V30 5757 H 508.964 0.684182 -1.46733 0
M  V30 5758 H 510.956 3.77241 -1.4653 0
M  V30 5759 H 509.526 3.04964 -0.686729 0
M  V30 5760 H 508.746 2.4396 -3.09641 0
M  V30 5761 H 510.034 3.50268 -3.69039 0
M  V30 5762 H 509.432 5.52128 -1.23171 0
M  V30 5763 H 507.989 6.26687 -1.79182 0
M  V30 5764 N 511.423 1.38739 0.74761 0
M  V30 5765 C 512.663 1.36695 1.51966 0
M  V30 5766 C 513.027 -0.0411889 1.91956 0
M  V30 5767 O 514.228 -0.186543 2.68152 0
M  V30 5768 C 512.499 2.30119 2.73459 0
M  V30 5769 S 514.058 2.4615 3.63257 0
M  V30 5770 H 510.876 0.484929 0.519966 0
M  V30 5771 H 513.478 1.7472 0.877104 0
M  V30 5772 H 512.182 3.31312 2.422 0
M  V30 5773 H 511.713 1.93265 3.42655 0
M  V30 5774 H 513.728 1.69001 4.66533 0
M  V30 5775 N 512.901 -0.976442 1.23707 0
M  V30 5776 C 513.848 -2.06952 1.02174 0
M  V30 5777 C 514.818 -1.65984 -0.0621034 0
M  V30 5778 O 516.003 -1.90584 0.0907906 0
M  V30 5779 C 513.143 -3.39425 0.62327 0
M  V30 5780 C 512.256 -3.9364 1.77966 0
M  V30 5781 C 511.391 -5.14343 1.3276 0
M  V30 5782 C 510.43 -5.60733 2.45449 0
M  V30 5783 N 509.567 -6.72662 2.01172 0
M  V30 5784 H 514.407 -2.24704 1.95734 0
M  V30 5785 H 511.944 -1.10143 0.975034 0
M  V30 5786 H 513.902 -4.15526 0.37332 0
M  V30 5787 H 512.532 -3.21624 -0.275329 0
M  V30 5788 H 511.584 -3.14258 2.14351 0
M  V30 5789 H 512.896 -4.24035 2.62671 0
M  V30 5790 H 512.05 -5.97789 1.03601 0
M  V30 5791 H 510.789 -4.8561 0.450975 0
M  V30 5792 H 509.794 -4.75865 2.75378 0
M  V30 5793 H 511.019 -5.91483 3.33654 0
M  V30 5794 H 508.965 -6.45681 1.15895 0
M  V30 5795 H 508.882 -7.02462 2.79434 0
M  V30 5796 H 510.15 -7.59572 1.75129 0
M  V30 5797 N 514.379 -1.04941 -1.1758 0
M  V30 5798 C 515.795 -0.770282 -1.39781 0
M  V30 5799 C 515.995 0.636417 -1.91186 0
M  V30 5800 O 515.051 1.39923 -2.10185 0
M  V30 5801 C 516.364 -1.82376 -2.3908 0
M  V30 5802 C 517.912 -1.84569 -2.52791 0
M  V30 5803 C 518.387 -2.88933 -3.55361 0
M  V30 5804 N 519.878 -2.8788 -3.62877 0
M  V30 5805 C 520.613 -3.65282 -4.41992 0
M  V30 5806 N 520.109 -4.52461 -5.24643 0
M  V30 5807 N 521.902 -3.53732 -4.36841 0
M  V30 5808 H 514.053 -1.95705 -0.825438 0
M  V30 5809 H 516.316 -0.847284 -0.425222 0
M  V30 5810 H 516.022 -2.83323 -2.08376 0
M  V30 5811 H 515.896 -1.66327 -3.38549 0
M  V30 5812 H 518.283 -0.842879 -2.82807 0
M  V30 5813 H 518.364 -2.04696 -1.53406 0
M  V30 5814 H 518.008 -3.89398 -3.26085 0
M  V30 5815 H 517.938 -2.66059 -4.54445 0
M  V30 5816 H 520.429 -2.24666 -3.03864 0
M  V30 5817 H 520.742 -5.08211 -5.82187 0
M  V30 5818 H 519.087 -4.56524 -5.24033 0
M  V30 5819 H 522.278 -2.85021 -3.71323 0
M  V30 5820 H 522.451 -4.14302 -4.98255 0
M  V30 5821 N 515.857 1.33968 -0.830081 0
M  V30 5822 C 517.103 1.98357 -0.422191 0
M  V30 5823 C 517.436 1.65633 1.01387 0
M  V30 5824 O 516.711 0.931648 1.70735 0
M  V30 5825 C 516.994 3.54492 -0.633043 0
M  V30 5826 C 516.847 3.96934 -2.11574 0
M  V30 5827 C 518.166 4.40039 -0.0735584 0
M  V30 5828 H 515.285 0.720544 -0.154871 0
M  V30 5829 H 517.927 1.58749 -1.04397 0
M  V30 5830 H 516.077 3.88361 -0.103775 0
M  V30 5831 H 517.749 3.73363 -2.7092 0
M  V30 5832 H 515.992 3.46984 -2.60354 0
M  V30 5833 H 516.663 5.05651 -2.21406 0
M  V30 5834 H 519.139 4.12764 -0.52585 0
M  V30 5835 H 518.015 5.48327 -0.250841 0
M  V30 5836 H 518.276 4.30124 1.02202 0
M  V30 5837 N 517.335 0.585699 1.46312 0
M  V30 5838 C 518.583 0.072278 2.01971 0
M  V30 5839 C 518.904 -1.29345 1.45928 0
M  V30 5840 O 518.174 -1.84973 0.645109 0
M  V30 5841 H 516.754 0.023729 0.746623 0
M  V30 5842 H 519.416 0.762155 1.7938 0
M  V30 5843 H 518.512 0.00552767 3.121 0
M  V30 5844 N 518.813 -1.54241 0.323641 0
M  V30 5845 C 520.041 -2.04985 -0.280871 0
M  V30 5846 C 520.456 -1.19978 -1.45777 0
M  V30 5847 O 519.813 -0.230471 -1.81039 0
M  V30 5848 C 519.864 -3.54353 -0.715258 0
M  V30 5849 O 519.585 -4.36132 0.414817 0
M  V30 5850 C 521.086 -4.21189 -1.38257 0
M  V30 5851 H 518.306 -0.66851 -0.0577502 0
M  V30 5852 H 520.85 -1.99029 0.469852 0
M  V30 5853 H 519.005 -3.60596 -1.41596 0
M  V30 5854 H 519.419 -5.2445 0.0725227 0
M  V30 5855 H 520.893 -5.27154 -1.63745 0
M  V30 5856 H 521.37 -3.72307 -2.32989 0
M  V30 5857 H 521.976 -4.19085 -0.724447 0
M  V30 5858 N 520.291 -0.0518155 -1.57515 0
M  V30 5859 C 521.223 0.951542 -2.08515 0
M  V30 5860 C 522.236 1.27436 -1.01311 0
M  V30 5861 O 523.425 1.23504 -1.28876 0
M  V30 5862 C 520.525 2.27291 -2.5138 0
M  V30 5863 C 519.698 2.13191 -3.81927 0
M  V30 5864 C 518.757 3.28458 -4.11098 0
M  V30 5865 O 517.783 3.04334 -4.81009 0
M  V30 5866 N 518.985 4.52954 -3.63061 0
M  V30 5867 H 521.75 0.516242 -2.9522 0
M  V30 5868 H 519.311 0.13441 -1.61341 0
M  V30 5869 H 521.303 3.03272 -2.67971 0
M  V30 5870 H 519.873 2.62386 -1.69919 0
M  V30 5871 H 519.093 1.21798 -3.74912 0
M  V30 5872 H 520.381 2.00999 -4.67415 0
M  V30 5873 H 519.779 4.75444 -3.06545 0
M  V30 5874 H 518.336 5.26026 -3.84889 0
M  V30 5875 N 521.769 1.56035 0.221574 0
M  V30 5876 C 523.009 1.80822 0.953038 0
M  V30 5877 C 523.373 0.625316 1.81532 0
M  V30 5878 O 524.574 0.752491 2.58052 0
M  V30 5879 C 522.845 3.10503 1.76983 0
M  V30 5880 S 524.404 3.56604 2.55693 0
M  V30 5881 H 521.222 0.634849 0.320137 0
M  V30 5882 H 523.824 1.94274 0.218619 0
M  V30 5883 H 522.528 3.94636 1.12651 0
M  V30 5884 H 522.059 2.99858 2.54655 0
M  V30 5885 H 524.074 3.1994 3.79279 0
M  V30 5886 N 523.247 -0.488276 1.49845 0
M  V30 5887 C 524.493 -1.24065 1.61182 0
M  V30 5888 C 524.848 -1.9004 0.300435 0
M  V30 5889 O 524.141 -1.78341 -0.700365 0
M  V30 5890 C 524.335 -2.32152 2.71735 0
M  V30 5891 C 524.164 -1.76778 4.13497 0
M  V30 5892 C 522.934 -1.57513 4.80123 0
M  V30 5893 C 525.132 -1.27242 4.98311 0
M  V30 5894 N 523.114 -0.972015 6.06156 0
M  V30 5895 C 524.485 -0.791457 6.14928 0
M  V30 5896 C 526.54 -1.15934 4.84214 0
M  V30 5897 C 525.243 -0.208593 7.18997 0
M  V30 5898 C 527.269 -0.590436 5.88445 0
M  V30 5899 C 526.631 -0.119767 7.04298 0
M  V30 5900 H 522.73 -0.443487 0.644083 0
M  V30 5901 H 525.314 -0.545551 1.86901 0
M  V30 5902 H 523.485 -2.99108 2.47768 0
M  V30 5903 H 525.217 -2.99187 2.72523 0
M  V30 5904 H 521.972 -1.82247 4.37131 0
M  V30 5905 H 522.396 -0.689367 6.73481 0
M  V30 5906 H 527.038 -1.5092 3.94947 0
M  V30 5907 H 524.756 0.153501 8.07954 0
M  V30 5908 H 528.342 -0.505548 5.79599 0
M  V30 5909 H 527.222 0.313568 7.83573 0
M  V30 5910 N 524.725 -1.39134 -0.740242 0
M  V30 5911 C 525.971 -1.36273 -1.50192 0
M  V30 5912 C 526.304 0.0430136 -1.94152 0
M  V30 5913 O 525.579 1.00691 -1.66408 0
M  V30 5914 C 525.862 -2.33041 -2.74525 0
M  V30 5915 C 525.715 -3.82535 -2.36617 0
M  V30 5916 C 527.034 -2.27723 -3.76604 0
M  V30 5917 H 524.153 -0.496323 -0.544823 0
M  V30 5918 H 526.795 -1.70085 -0.846815 0
M  V30 5919 H 524.945 -2.04337 -3.30422 0
M  V30 5920 H 526.617 -4.21967 -1.86391 0
M  V30 5921 H 524.86 -3.99565 -1.68909 0
M  V30 5922 H 525.531 -4.45723 -3.2563 0
M  V30 5923 H 528.007 -2.53091 -3.30279 0
M  V30 5924 H 526.883 -2.97519 -4.61274 0
M  V30 5925 H 527.144 -1.28049 -4.2315 0
M  V30 5926 N 526.204 0.969867 -1.24223 0
M  V30 5927 C 527.451 1.71256 -1.08063 0
M  V30 5928 C 527.779 1.90734 0.380872 0
M  V30 5929 O 527.034 1.46469 1.29789 0
M  V30 5930 C 527.333 3.10883 -1.76314 0
M  V30 5931 C 526.999 3.11252 -3.26241 0
M  V30 5932 C 525.661 3.1106 -3.67144 0
M  V30 5933 C 528.013 3.05751 -4.22097 0
M  V30 5934 C 525.341 3.03097 -5.02344 0
M  V30 5935 C 527.693 2.9933 -5.57301 0
M  V30 5936 C 526.357 2.97466 -5.97554 0
M  V30 5937 H 525.627 0.62667 -0.395431 0
M  V30 5938 H 528.274 1.13422 -1.54297 0
M  V30 5939 H 526.579 3.72168 -1.22468 0
M  V30 5940 H 528.276 3.67138 -1.61277 0
M  V30 5941 H 524.866 3.12165 -2.93685 0
M  V30 5942 H 529.05 3.05031 -3.91497 0
M  V30 5943 H 524.306 3.00013 -5.32731 0
M  V30 5944 H 528.48 2.94033 -6.31283 0
M  V30 5945 H 526.107 2.91051 -7.02277 0
M  V30 5946 N 527.682 1.05563 1.17022 0
M  V30 5947 C 528.93 0.76642 1.87004 0
M  V30 5948 C 529.251 -0.708854 1.8166 0
M  V30 5949 O 528.521 -1.51242 1.2451 0
M  V30 5950 H 527.101 0.280516 0.692329 0
M  V30 5951 H 529.763 1.33557 1.41945 0
M  V30 5952 H 528.859 1.08472 2.92644 0
M  V30 5953 N 529.16 -1.33526 0.837174 0
M  V30 5954 C 530.406 -1.9813 0.432704 0
M  V30 5955 C 530.739 -1.66168 -1.00508 0
M  V30 5956 O 530.014 -0.94069 -1.70239 0
M  V30 5957 C 530.297 -3.54151 0.651834 0
M  V30 5958 C 530.15 -3.95806 2.13676 0
M  V30 5959 C 531.469 -4.39993 0.0968937 0
M  V30 5960 H 528.588 -0.719713 0.15869 0
M  V30 5961 H 531.23 -1.58193 1.05237 0
M  V30 5962 H 529.38 -3.88301 0.124369 0
M  V30 5963 H 531.052 -3.71921 2.72896 0
M  V30 5964 H 529.295 -3.45599 2.62191 0
M  V30 5965 H 529.966 -5.0447 2.24084 0
M  V30 5966 H 532.442 -4.12479 0.547733 0
M  V30 5967 H 531.318 -5.48186 0.279917 0
M  V30 5968 H 531.579 -4.3066 -0.9992 0
M  V30 5969 N 530.638 -0.59345 -1.46 0
M  V30 5970 C 531.887 -0.0808084 -2.01538 0
M  V30 5971 C 532.2 1.29112 -1.46934 0
M  V30 5972 O 533.406 1.8957 -1.94359 0
M  V30 5973 C 531.862 -0.0938311 -3.59778 0
M  V30 5974 C 531.47 -1.46474 -4.23379 0
M  V30 5975 C 533.214 0.364306 -4.22934 0
M  V30 5976 C 531.121 -1.4349 -5.73729 0
M  V30 5977 H 530.051 -0.0264407 -0.753536 0
M  V30 5978 H 532.702 -0.746689 -1.67621 0
M  V30 5979 H 531.084 0.638427 -3.9082 0
M  V30 5980 H 532.258 -2.21758 -4.03931 0
M  V30 5981 H 530.573 -1.86379 -3.7236 0
M  V30 5982 H 533.17 0.405584 -5.3316 0
M  V30 5983 H 533.513 1.38409 -3.92618 0
M  V30 5984 H 534.046 -0.31423 -3.96557 0
M  V30 5985 H 530.785 -2.43184 -6.08722 0
M  V30 5986 H 530.305 -0.724431 -5.95409 0
M  V30 5987 H 531.984 -1.15243 -6.36654 0
M  V30 5988 N 532.116 1.54067 -0.331816 0
M  V30 5989 C 533.364 2.00319 0.267739 0
M  V30 5990 C 533.685 1.22148 1.52003 0
M  V30 5991 O 532.955 0.325494 1.93177 0
M  V30 5992 H 531.535 0.740014 0.101922 0
M  V30 5993 H 534.197 1.89628 -0.450267 0
M  V30 5994 H 533.293 3.07765 0.518385 0
M  V30 5995 N 533.594 0.0601682 1.57485 0
M  V30 5996 C 534.841 -0.611594 1.93043 0
M  V30 5997 C 535.169 -1.70317 0.939274 0
M  V30 5998 O 534.424 -1.95644 -0.046996 0
M  V30 5999 C 534.723 -1.23831 3.35262 0
M  V30 6000 C 534.389 -0.274037 4.50066 0
M  V30 6001 C 533.051 -0.00872394 4.81199 0
M  V30 6002 C 535.403 0.386308 5.19766 0
M  V30 6003 C 532.731 0.924218 5.79375 0
M  V30 6004 C 535.083 1.3075 6.1894 0
M  V30 6005 C 533.747 1.58139 6.48497 0
M  V30 6006 H 533.017 -0.223798 0.706396 0
M  V30 6007 H 535.664 0.128566 1.91068 0
M  V30 6008 H 533.969 -2.05394 3.33647 0
M  V30 6009 H 535.666 -1.76517 3.60059 0
M  V30 6010 H 532.256 -0.491008 4.25778 0
M  V30 6011 H 536.44 0.194436 4.95919 0
M  V30 6012 H 531.696 1.1438 6.00606 0
M  V30 6013 H 535.87 1.82519 6.72056 0
M  V30 6014 H 533.497 2.30593 7.24383 0
M  V30 6015 N 535.072 -1.5615 -0.213296 0
M  V30 6016 C 536.002 -1.96109 -1.26742 0
M  V30 6017 C 536.983 -0.830448 -1.48451 0
M  V30 6018 O 538.168 -1.09339 -1.60495 0
M  V30 6019 C 535.298 -2.28492 -2.61551 0
M  V30 6020 C 534.252 -3.44124 -2.54485 0
M  V30 6021 C 533.578 -3.62134 -3.93399 0
M  V30 6022 C 534.878 -4.78855 -2.08556 0
M  V30 6023 H 536.572 -2.84412 -0.935434 0
M  V30 6024 H 534.118 -1.36836 -0.44854 0
M  V30 6025 H 536.071 -2.55039 -3.3546 0
M  V30 6026 H 534.795 -1.37052 -2.96453 0
M  V30 6027 H 533.454 -3.17639 -1.83033 0
M  V30 6028 H 533.102 -2.68055 -4.25623 0
M  V30 6029 H 532.802 -4.39913 -3.89551 0
M  V30 6030 H 534.326 -3.91038 -4.68958 0
M  V30 6031 H 535.74 -5.04552 -2.72213 0
M  V30 6032 H 534.137 -5.59975 -2.1575 0
M  V30 6033 H 535.207 -4.73657 -1.03811 0
M  V30 6034 N 536.55 0.480323 -1.50102 0
M  V30 6035 C 537.46 1.60547 -1.71061 0
M  V30 6036 C 538.476 1.63564 -0.593529 0
M  V30 6037 O 539.652 1.81604 -0.870751 0
M  V30 6038 C 536.717 2.96814 -1.79171 0
M  V30 6039 C 535.778 3.04259 -3.02861 0
M  V30 6040 C 535.011 4.34027 -3.10574 0
M  V30 6041 O 535.234 5.24009 -2.25323 0
M  V30 6042 O 534.168 4.46873 -4.03223 0
M  V30 6043 H 537.994 1.45788 -2.6642 0
M  V30 6044 H 535.579 0.658838 -1.34088 0
M  V30 6045 H 537.461 3.77765 -1.86738 0
M  V30 6046 H 536.136 3.11791 -0.869947 0
M  V30 6047 H 535.043 2.22419 -3.008 0
M  V30 6048 H 536.376 2.94216 -3.94586 0
M  V30 6049 N 538.028 1.39524 0.732853 0
M  V30 6050 C 538.991 1.38189 1.82857 0
M  V30 6051 C 539.991 0.278624 1.58368 0
M  V30 6052 O 541.181 0.536639 1.65728 0
M  V30 6053 C 538.313 1.15661 3.2068 0
M  V30 6054 H 539.506 2.35692 1.85444 0
M  V30 6055 H 537.059 1.2512 0.936728 0
M  V30 6056 H 537.794 0.188482 3.23752 0
M  V30 6057 H 537.579 1.95559 3.39852 0
M  V30 6058 H 539.069 1.17472 4.00737 0
M  V30 6059 N 539.506 -0.963266 1.24736 0
M  V30 6060 C 540.755 -1.70115 1.08369 0
M  V30 6061 C 541.068 -1.91939 -0.376688 0
M  V30 6062 O 542.274 -2.6334 -0.660624 0
M  V30 6063 C 540.73 -3.06218 1.89099 0
M  V30 6064 C 540.338 -2.92221 3.39574 0
M  V30 6065 C 542.082 -3.83848 1.81275 0
M  V30 6066 C 539.989 -4.23662 4.12631 0
M  V30 6067 H 538.919 -0.637944 0.401924 0
M  V30 6068 H 541.57 -1.07304 1.48856 0
M  V30 6069 H 539.952 -3.69884 1.41429 0
M  V30 6070 H 541.126 -2.37541 3.94856 0
M  V30 6071 H 539.441 -2.28054 3.48397 0
M  V30 6072 H 542.038 -4.81188 2.33158 0
M  V30 6073 H 542.381 -4.08949 0.778895 0
M  V30 6074 H 542.914 -3.26918 2.26649 0
M  V30 6075 H 539.653 -4.03753 5.16395 0
M  V30 6076 H 539.173 -4.78141 3.62135 0
M  V30 6077 H 540.852 -4.92256 4.19873 0
M  V30 6078 N 540.985 -1.06182 -1.16461 0
M  V30 6079 C 542.231 -0.779015 -1.87241 0
M  V30 6080 C 542.564 0.692715 -1.81425 0
M  V30 6081 O 541.839 1.5074 -1.22913 0
M  V30 6082 C 542.122 -1.2728 -3.36856 0
M  V30 6083 C 541.975 -2.80821 -3.51368 0
M  V30 6084 C 543.294 -0.879799 -4.31216 0
M  V30 6085 H 540.413 -0.284464 -0.679889 0
M  V30 6086 H 543.055 -1.31755 -1.36896 0
M  V30 6087 H 541.205 -0.814673 -3.79862 0
M  V30 6088 H 542.877 -3.34833 -3.17308 0
M  V30 6089 H 541.12 -3.19606 -2.93316 0
M  V30 6090 H 541.791 -3.10435 -4.56436 0
M  V30 6091 H 544.267 -1.27436 -3.96105 0
M  V30 6092 H 543.143 -1.25278 -5.34412 0
M  V30 6093 H 543.404 0.215372 -4.41575 0
M  V30 6094 N 542.463 1.3308 -0.844243 0
M  V30 6095 C 543.703 1.99414 -0.448697 0
M  V30 6096 C 544.067 1.65398 0.975058 0
M  V30 6097 O 545.268 2.24741 1.47461 0
M  V30 6098 C 543.539 3.51081 -0.669089 0
M  V30 6099 S 545.098 4.37241 -0.369564 0
M  V30 6100 H 541.916 0.690736 -0.168538 0
M  V30 6101 H 544.518 1.61977 -1.0947 0
M  V30 6102 H 543.222 3.73326 -1.70457 0
M  V30 6103 H 542.753 3.93399 -0.00913211 0
M  V30 6104 H 544.768 4.89568 0.808552 0
M  V30 6105 N 543.941 0.601185 1.45683 0
M  V30 6106 C 545.19 0.0914953 2.01492 0
M  V30 6107 C 545.503 -1.28331 1.47616 0
M  V30 6108 O 546.709 -1.88537 1.95362 0
M  V30 6109 C 545.165 0.11291 3.59723 0
M  V30 6110 C 544.773 1.48717 4.22596 0
M  V30 6111 C 546.517 -0.341871 4.23121 0
M  V30 6112 C 544.424 1.46531 5.7296 0
M  V30 6113 H 543.354 0.0304365 0.753385 0
M  V30 6114 H 546.005 0.755568 1.67223 0
M  V30 6115 H 544.387 -0.617692 3.91153 0
M  V30 6116 H 545.561 2.23897 4.02749 0
M  V30 6117 H 543.876 1.88351 3.71366 0
M  V30 6118 H 546.473 -0.377304 5.33367 0
M  V30 6119 H 546.816 -1.36325 3.93346 0
M  V30 6120 H 547.349 0.335256 3.96385 0
M  V30 6121 H 544.088 2.46408 6.07423 0
M  V30 6122 H 543.608 0.755997 5.95017 0
M  V30 6123 H 545.287 1.18618 6.36034 0
M  V30 6124 N 545.419 -1.53889 0.339982 0
M  V30 6125 C 546.366 -2.24902 -0.518452 0
M  V30 6126 C 547.336 -1.24593 -1.09844 0
M  V30 6127 O 548.521 -1.53317 -1.13572 0
M  V30 6128 C 545.661 -3.02262 -1.66529 0
M  V30 6129 C 544.774 -4.17418 -1.11295 0
M  V30 6130 C 543.909 -4.82273 -2.2268 0
M  V30 6131 C 542.948 -5.89503 -1.6478 0
M  V30 6132 N 542.085 -6.48153 -2.69893 0
M  V30 6133 H 546.925 -2.97853 0.0936579 0
M  V30 6134 H 544.462 -1.46986 0.0579924 0
M  V30 6135 H 546.42 -3.45371 -2.3404 0
M  V30 6136 H 545.05 -2.31614 -2.24844 0
M  V30 6137 H 544.102 -3.78976 -0.328886 0
M  V30 6138 H 545.414 -4.94554 -0.649414 0
M  V30 6139 H 544.568 -5.28435 -2.98063 0
M  V30 6140 H 543.307 -4.04552 -2.72376 0
M  V30 6141 H 542.312 -5.42728 -0.879004 0
M  V30 6142 H 543.537 -6.6913 -1.1594 0
M  V30 6143 H 541.483 -5.73298 -3.1885 0
M  V30 6144 H 541.4 -7.20752 -2.28151 0
M  V30 6145 H 542.668 -6.98968 -3.45056 0
M  V30 6146 N 546.897 -0.0685191 -1.57451 0
M  V30 6147 C 548.144 0.601348 -1.93365 0
M  V30 6148 C 548.472 1.69816 -0.948294 0
M  V30 6149 O 547.727 1.95666 0.0366199 0
M  V30 6150 C 548.026 1.22051 -3.35914 0
M  V30 6151 C 547.692 0.250165 -4.50205 0
M  V30 6152 C 546.354 -0.0167954 -4.81197 0
M  V30 6153 C 548.706 -0.413867 -5.19554 0
M  V30 6154 C 546.034 -0.95493 -5.78876 0
M  V30 6155 C 548.386 -1.3403 -6.18238 0
M  V30 6156 C 547.05 -1.61576 -6.47649 0
M  V30 6157 H 546.32 0.220049 -0.707573 0
M  V30 6158 H 548.967 -0.138697 -1.90997 0
M  V30 6159 H 547.272 2.03622 -3.34732 0
M  V30 6160 H 548.969 1.74605 -3.6099 0
M  V30 6161 H 545.559 0.468421 -4.26033 0
M  V30 6162 H 549.743 -0.220733 -4.95809 0
M  V30 6163 H 544.999 -1.17563 -5.99991 0
M  V30 6164 H 549.173 -1.86081 -6.71079 0
M  V30 6165 H 546.8 -2.34431 -7.2315 0
M  V30 6166 N 548.375 1.56261 0.205012 0
M  V30 6167 C 549.623 1.79684 0.925096 0
M  V30 6168 C 549.944 0.63989 1.84202 0
M  V30 6169 O 549.214 -0.342345 1.92885 0
M  V30 6170 H 547.794 0.662774 0.344587 0
M  V30 6171 H 550.456 1.93734 0.212899 0
M  V30 6172 H 549.552 2.72467 1.52211 0
M  V30 6173 N 549.853 -0.472356 1.50355 0
M  V30 6174 C 550.785 -1.58795 1.65278 0
M  V30 6175 C 551.798 -1.53782 0.534313 0
M  V30 6176 O 552.987 -1.59193 0.807446 0
M  V30 6177 C 550.087 -2.97672 1.62001 0
M  V30 6178 C 549.26 -3.27568 2.89859 0
M  V30 6179 C 548.319 -4.45993 2.79242 0
M  V30 6180 O 547.345 -4.46364 3.53197 0
M  V30 6181 N 548.547 -5.47578 1.92713 0
M  V30 6182 H 551.312 -1.46411 2.61503 0
M  V30 6183 H 548.873 -0.660751 1.47803 0
M  V30 6184 H 550.865 -3.74862 1.52513 0
M  V30 6185 H 549.435 -3.03832 0.735159 0
M  V30 6186 H 548.655 -2.39003 3.13483 0
M  V30 6187 H 549.943 -3.44352 3.74565 0
M  V30 6188 H 549.341 -5.50099 1.31939 0
M  V30 6189 H 547.898 -6.23757 1.8913 0
M  V30 6190 N 551.331 -1.39911 -0.725443 0
M  V30 6191 C 552.608 -1.28158 -1.47766 0
M  V30 6192 C 552.988 0.104545 -2.10841 0
M  V30 6193 O 552.336 1.11657 -1.99361 0
M  V30 6194 C 552.546 -2.41306 -2.52135 0
M  V30 6195 C 553.894 -2.81076 -3.18247 0
M  V30 6196 O 554.918 -2.40827 -2.62452 0
M  V30 6197 O 553.777 -3.50581 -4.19231 0
M  V30 6198 H 550.871 -0.502761 -0.656628 0
M  V30 6199 H 553.417 -1.51808 -0.758456 0
M  V30 6200 H 552.189 -3.33932 -2.03974 0
M  V30 6201 H 551.812 -2.19374 -3.31603 0
M  V30 6202 N 552.809 0.956637 -1.25245 0
M  V30 6203 C 553.739 2.07058 -1.07931 0
M  V30 6204 C 554.72 1.70096 0.0110361 0
M  V30 6205 O 555.905 1.93555 -0.158121 0
M  V30 6206 C 553.035 3.40272 -0.695124 0
M  V30 6207 C 551.989 3.91235 -1.73549 0
M  V30 6208 C 551.315 5.20921 -1.20604 0
M  V30 6209 C 552.615 4.17837 -3.13385 0
M  V30 6210 H 554.309 2.218 -2.01109 0
M  V30 6211 H 551.855 1.06581 -0.968326 0
M  V30 6212 H 553.808 4.1765 -0.560949 0
M  V30 6213 H 552.532 3.25462 0.272355 0
M  V30 6214 H 551.191 3.16025 -1.85807 0
M  V30 6215 H 550.839 5.02479 -0.228846 0
M  V30 6216 H 550.539 5.55987 -1.90136 0
M  V30 6217 H 552.063 6.00897 -1.08421 0
M  V30 6218 H 553.477 4.8588 -3.04292 0
M  V30 6219 H 551.874 4.64154 -3.80369 0
M  V30 6220 H 552.944 3.2419 -3.60595 0
M  V30 6221 N 554.287 1.06798 1.15896 0
M  V30 6222 C 555.534 0.787767 1.86549 0
M  V30 6223 C 555.862 -0.685959 1.82002 0
M  V30 6224 O 555.117 -1.5188 1.23414 0
M  V30 6225 C 555.416 1.23414 3.35416 0
M  V30 6226 C 555.082 2.71285 3.6016 0
M  V30 6227 C 553.744 3.11676 3.66622 0
M  V30 6228 C 556.096 3.6676 3.7032 0
M  V30 6229 C 553.424 4.4637 3.8075 0
M  V30 6230 C 555.776 5.01209 3.8597 0
M  V30 6231 C 554.44 5.41229 3.90676 0
M  V30 6232 H 553.71 0.288264 0.682631 0
M  V30 6233 H 556.357 1.338 1.37003 0
M  V30 6234 H 554.662 0.60319 3.87129 0
M  V30 6235 H 556.359 0.994298 3.88477 0
M  V30 6236 H 552.949 2.39015 3.55767 0
M  V30 6237 H 557.133 3.36685 3.64633 0
M  V30 6238 H 552.389 4.76855 3.82648 0
M  V30 6239 H 556.563 5.75067 3.92773 0
M  V30 6240 H 554.19 6.45602 4.01375 0
M  V30 6241 N 555.766 -1.3263 0.851289 0
M  V30 6242 C 556.991 -2.02097 0.466006 0
M  V30 6243 C 557.416 -1.63574 -0.928709 0
M  V30 6244 O 556.774 -0.834665 -1.60944 0
M  V30 6245 C 556.822 -3.55425 0.608737 0
M  V30 6246 O 555.926 -4.10827 -0.359878 0
M  V30 6247 H 555.267 -0.636911 0.187724 0
M  V30 6248 H 557.797 -1.69253 1.14955 0
M  V30 6249 H 557.807 -4.04986 0.495006 0
M  V30 6250 H 556.482 -3.82806 1.62581 0
M  V30 6251 H 555.059 -3.72349 -0.202666 0
M  V30 6252 N 557.244 -0.608902 -1.45362 0
M  V30 6253 C 558.191 0.109172 -2.30542 0
M  V30 6254 C 559.161 0.858704 -1.42181 0
M  V30 6255 O 560.346 0.844178 -1.71109 0
M  V30 6256 C 557.486 1.09971 -3.27109 0
M  V30 6257 C 556.599 0.350911 -4.30572 0
M  V30 6258 C 555.734 1.33129 -5.14247 0
M  V30 6259 C 554.773 0.570377 -6.09437 0
M  V30 6260 N 553.91 1.5001 -6.85887 0
M  V30 6261 H 558.75 -0.623195 -2.91411 0
M  V30 6262 H 556.287 -0.319122 -1.43597 0
M  V30 6263 H 558.245 1.68714 -3.81564 0
M  V30 6264 H 556.875 1.79947 -2.67991 0
M  V30 6265 H 555.927 -0.352054 -3.78767 0
M  V30 6266 H 557.239 -0.242725 -4.98209 0
M  V30 6267 H 556.393 1.99074 -5.73109 0
M  V30 6268 H 555.132 1.95885 -4.46632 0
M  V30 6269 H 554.137 -0.102702 -5.49704 0
M  V30 6270 H 555.362 -0.0521607 -6.7908 0
M  V30 6271 H 553.308 2.11529 -6.2096 0
M  V30 6272 H 553.225 0.959934 -7.49881 0
M  V30 6273 H 554.493 2.14909 -7.49289 0
M  V30 6274 N 558.722 1.53707 -0.348139 0
M  V30 6275 C 559.95 2.05406 0.248224 0
M  V30 6276 C 560.365 1.22282 1.43849 0
M  V30 6277 O 559.722 0.259244 1.80649 0
M  V30 6278 C 559.773 3.55446 0.658793 0
M  V30 6279 O 559.494 4.35417 -0.484149 0
M  V30 6280 C 560.995 4.23335 1.31539 0
M  V30 6281 H 558.215 0.669344 0.0471075 0
M  V30 6282 H 560.759 1.98257 -0.501456 0
M  V30 6283 H 558.914 3.62803 1.35841 0
M  V30 6284 H 559.328 5.24268 -0.155949 0
M  V30 6285 H 560.802 5.29692 1.55338 0
M  V30 6286 H 561.279 3.75967 2.27036 0
M  V30 6287 H 561.885 4.20184 0.657683 0
M  V30 6288 N 560.2 0.0768682 1.57412 0
M  V30 6289 C 561.132 -0.918248 2.10002 0
M  V30 6290 C 562.145 -1.25808 1.03325 0
M  V30 6291 O 563.334 -1.21438 1.30824 0
M  V30 6292 C 560.434 -2.23263 2.54964 0
M  V30 6293 C 559.607 -2.07088 3.8527 0
M  V30 6294 C 558.666 -3.21876 4.16272 0
M  V30 6295 O 557.692 -2.96643 4.8579 0
M  V30 6296 N 558.894 -4.4712 3.70221 0
M  V30 6297 H 561.659 -0.469209 2.96004 0
M  V30 6298 H 559.22 -0.108725 1.61535 0
M  V30 6299 H 561.212 -2.9897 2.72762 0
M  V30 6300 H 559.782 -2.59649 1.74072 0
M  V30 6301 H 559.002 -1.15818 3.76802 0
M  V30 6302 H 560.29 -1.93537 4.70554 0
M  V30 6303 H 559.688 -4.70506 3.1407 0
M  V30 6304 H 558.245 -5.19837 3.93209 0
M  V30 6305 N 561.678 -1.56367 -0.196722 0
M  V30 6306 C 562.927 -1.79724 -0.915539 0
M  V30 6307 C 563.24 -0.649804 -1.84491 0
M  V30 6308 O 564.446 -0.767631 -2.60422 0
M  V30 6309 C 562.902 -3.18369 -1.67836 0
M  V30 6310 C 562.51 -4.4091 -0.793897 0
M  V30 6311 C 564.254 -3.51037 -2.38691 0
M  V30 6312 C 562.161 -5.70577 -1.55549 0
M  V30 6313 H 561.091 -0.67013 -0.345604 0
M  V30 6314 H 563.742 -1.82721 -0.168856 0
M  V30 6315 H 562.124 -3.09617 -2.46887 0
M  V30 6316 H 563.298 -4.60781 -0.042163 0
M  V30 6317 H 561.613 -4.15937 -0.19626 0
M  V30 6318 H 564.21 -4.4515 -2.96219 0
M  V30 6319 H 564.553 -2.74704 -3.12799 0
M  V30 6320 H 565.086 -3.61229 -1.66608 0
M  V30 6321 H 561.825 -6.49871 -0.857226 0
M  V30 6322 H 561.345 -5.54726 -2.2812 0
M  V30 6323 H 563.024 -6.11637 -2.10971 0
M  V30 6324 N 563.156 0.464375 -1.50603 0
M  V30 6325 C 564.086 1.56944 -1.72889 0
M  V30 6326 C 565.067 1.59979 -0.577997 0
M  V30 6327 O 566.252 1.76138 -0.817855 0
M  V30 6328 C 563.382 2.95225 -1.8292 0
M  V30 6329 C 562.336 3.07056 -2.98162 0
M  V30 6330 C 561.662 4.47051 -2.93343 0
M  V30 6331 C 562.962 2.83648 -4.38567 0
M  V30 6332 H 564.656 1.38547 -2.65415 0
M  V30 6333 H 562.202 0.665082 -1.27721 0
M  V30 6334 H 564.155 3.72467 -1.97095 0
M  V30 6335 H 562.879 3.14793 -0.870209 0
M  V30 6336 H 561.538 2.32248 -2.83648 0
M  V30 6337 H 561.186 4.63547 -1.95276 0
M  V30 6338 H 560.886 4.55902 -3.70712 0
M  V30 6339 H 562.41 5.26304 -3.09575 0
M  V30 6340 H 563.824 3.50636 -4.53572 0
M  V30 6341 H 562.221 3.03937 -5.17438 0
M  V30 6342 H 563.291 1.79451 -4.50472 0
M  V30 6343 N 564.634 1.40294 0.718013 0
M  V30 6344 C 565.864 1.41544 1.50495 0
M  V30 6345 C 566.272 0.0127877 1.89196 0
M  V30 6346 O 565.615 -0.97305 1.55812 0
M  V30 6347 C 565.677 2.24021 2.81167 0
M  V30 6348 C 565.341 3.72463 2.64803 0
M  V30 6349 C 566.338 4.65154 2.32223 0
M  V30 6350 C 564.023 4.1625 2.81143 0
M  V30 6351 C 566.017 5.99618 2.16189 0
M  V30 6352 C 563.704 5.50784 2.64727 0
M  V30 6353 C 564.702 6.42283 2.32297 0
M  V30 6354 O 564.39 7.74337 2.16004 0
M  V30 6355 H 564.122 0.484819 0.471091 0
M  V30 6356 H 566.676 1.84948 0.893488 0
M  V30 6357 H 564.906 1.75393 3.44636 0
M  V30 6358 H 566.595 2.17243 3.42871 0
M  V30 6359 H 567.361 4.32622 2.19234 0
M  V30 6360 H 563.24 3.45352 3.05373 0
M  V30 6361 H 566.784 6.71 1.90799 0
M  V30 6362 H 562.681 5.82902 2.773 0
M  V30 6363 H 563.449 7.85244 2.30942 0
M  V30 6364 N 566.112 -0.949982 1.2575 0
M  V30 6365 C 567.358 -1.69766 1.10938 0
M  V30 6366 C 567.691 -1.91056 -0.348028 0
M  V30 6367 O 566.966 -1.48488 -1.25625 0
M  V30 6368 C 567.249 -3.07779 1.86933 0
M  V30 6369 C 567.102 -2.9387 3.4053 0
M  V30 6370 C 568.421 -4.07749 1.65616 0
M  V30 6371 H 565.54 -0.616144 0.404396 0
M  V30 6372 H 568.182 -1.10394 1.54639 0
M  V30 6373 H 566.332 -3.58462 1.4979 0
M  V30 6374 H 568.004 -2.50476 3.87375 0
M  V30 6375 H 566.247 -2.29686 3.68004 0
M  V30 6376 H 566.918 -3.91719 3.88922 0
M  V30 6377 H 569.394 -3.65994 1.97959 0
M  V30 6378 H 568.27 -5.02348 2.21218 0
M  V30 6379 H 568.531 -4.38029 0.598595 0
M  V30 6380 N 567.59 -1.07411 -1.15328 0
M  V30 6381 C 568.836 -0.798831 -1.86404 0
M  V30 6382 C 569.169 0.673433 -1.8215 0
M  V30 6383 O 568.444 1.49428 -1.24505 0
M  V30 6384 C 568.727 -1.30846 -3.35487 0
M  V30 6385 C 568.58 -2.84532 -3.4837 0
M  V30 6386 C 569.899 -0.925486 -4.30259 0
M  V30 6387 H 567.018 -0.291659 -0.676834 0
M  V30 6388 H 569.66 -1.332 -1.35491 0
M  V30 6389 H 567.81 -0.854916 -3.78977 0
M  V30 6390 H 569.482 -3.3818 -3.13739 0
M  V30 6391 H 567.725 -3.22699 -2.8991 0
M  V30 6392 H 568.396 -3.15259 -4.53118 0
M  V30 6393 H 570.872 -1.3163 -3.94731 0
M  V30 6394 H 569.748 -1.3094 -5.33053 0
M  V30 6395 H 570.009 0.168525 -4.41779 0
M  V30 6396 N 569.068 1.32177 -0.85831 0
M  V30 6397 C 569.998 2.31282 -0.321041 0
M  V30 6398 C 570.979 1.59841 0.581786 0
M  V30 6399 O 572.164 1.87619 0.501262 0
M  V30 6400 C 569.294 3.4385 0.48832 0
M  V30 6401 C 568.248 4.26799 -0.320391 0
M  V30 6402 C 567.574 5.31164 0.613934 0
M  V30 6403 C 568.874 4.98829 -1.54813 0
M  V30 6404 H 570.568 2.76469 -1.14915 0
M  V30 6405 H 568.114 1.32916 -0.554028 0
M  V30 6406 H 570.067 4.12224 0.874626 0
M  V30 6407 H 568.791 2.97401 1.34983 0
M  V30 6408 H 567.45 3.60077 -0.688497 0
M  V30 6409 H 567.098 4.80967 1.47239 0
M  V30 6410 H 566.798 5.8755 0.0768097 0
M  V30 6411 H 568.322 6.024 0.997336 0
M  V30 6412 H 569.736 5.59864 -1.23392 0
M  V30 6413 H 568.133 5.64957 -2.02346 0
M  V30 6414 H 569.203 4.26483 -2.30739 0
M  V30 6415 N 570.547 0.616602 1.45037 0
M  V30 6416 C 571.793 0.123965 2.03022 0
M  V30 6417 C 572.148 -1.23508 1.47525 0
M  V30 6418 O 571.441 -1.80453 0.643981 0
M  V30 6419 C 571.635 0.0356829 3.57382 0
M  V30 6420 C 571.464 1.38462 4.27853 0
M  V30 6421 C 570.234 1.96766 4.65415 0
M  V30 6422 C 572.432 2.31536 4.59234 0
M  V30 6423 N 570.414 3.25046 5.20786 0
M  V30 6424 C 571.785 3.4442 5.15533 0
M  V30 6425 C 573.84 2.30796 4.41178 0
M  V30 6426 C 572.543 4.56742 5.55679 0
M  V30 6427 C 574.569 3.42171 4.82362 0
M  V30 6428 C 573.931 4.53778 5.38762 0
M  V30 6429 H 570.03 0.0889428 0.776925 0
M  V30 6430 H 572.614 0.816925 1.76733 0
M  V30 6431 H 570.785 -0.62652 3.83314 0
M  V30 6432 H 572.517 -0.464443 4.02026 0
M  V30 6433 H 569.272 1.4987 4.49261 0
M  V30 6434 H 569.696 3.90592 5.52962 0
M  V30 6435 H 574.338 1.45765 3.96878 0
M  V30 6436 H 572.056 5.42491 5.9894 0
M  V30 6437 H 575.642 3.42757 4.70116 0
M  V30 6438 H 574.522 5.38536 5.70043 0
M  V30 6439 N 572.025 -1.5352 0.356285 0
M  V30 6440 C 572.955 -2.28372 -0.486661 0
M  V30 6441 C 573.936 -1.30432 -1.09185 0
M  V30 6442 O 575.121 -1.59291 -1.11085 0
M  V30 6443 C 572.251 -3.06604 -1.63129 0
M  V30 6444 C 571.205 -4.12154 -1.15381 0
M  V30 6445 C 570.531 -4.78415 -2.38796 0
M  V30 6446 C 571.831 -5.21724 -0.245179 0
M  V30 6447 H 573.525 -2.99083 0.137797 0
M  V30 6448 H 571.071 -1.43841 0.0677134 0
M  V30 6449 H 573.024 -3.57712 -2.22755 0
M  V30 6450 H 571.748 -2.33568 -2.28284 0
M  V30 6451 H 570.407 -3.61978 -0.580294 0
M  V30 6452 H 570.055 -4.01959 -3.02387 0
M  V30 6453 H 569.755 -5.49734 -2.07524 0
M  V30 6454 H 571.279 -5.32313 -2.99125 0
M  V30 6455 H 572.693 -5.68391 -0.748646 0
M  V30 6456 H 571.09 -6.00095 -0.0237608 0
M  V30 6457 H 572.16 -4.79596 0.715229 0
M  V30 6458 N 573.503 -0.0852151 -1.57369 0
M  V30 6459 C 574.433 0.874556 -2.16503 0
M  V30 6460 C 575.414 1.30111 -1.09568 0
M  V30 6461 O 576.599 1.36977 -1.37662 0
M  V30 6462 C 573.729 2.13731 -2.73745 0
M  V30 6463 C 572.683 1.84971 -3.85966 0
M  V30 6464 C 572.009 3.17991 -4.29867 0
M  V30 6465 C 573.309 1.14442 -5.09608 0
M  V30 6466 H 575.003 0.381899 -2.96954 0
M  V30 6467 H 572.549 0.18225 -1.42842 0
M  V30 6468 H 574.502 2.81302 -3.13763 0
M  V30 6469 H 573.226 2.65263 -1.90534 0
M  V30 6470 H 571.885 1.19801 -3.46473 0
M  V30 6471 H 571.533 3.6739 -3.4356 0
M  V30 6472 H 571.233 2.99534 -5.05523 0
M  V30 6473 H 572.757 3.86737 -4.72511 0
M  V30 6474 H 574.171 1.72105 -5.46857 0
M  V30 6475 H 572.568 1.06197 -5.90629 0
M  V30 6476 H 573.638 0.12559 -4.84737 0
M  V30 6477 N 574.981 1.5647 0.188427 0
M  V30 6478 C 576.221 1.82803 0.914469 0
M  V30 6479 C 576.585 0.663681 1.80165 0
M  V30 6480 O 577.786 0.807059 2.56398 0
M  V30 6481 C 576.057 3.14187 1.70357 0
M  V30 6482 S 577.616 3.61947 2.48072 0
M  V30 6483 H 574.434 0.641497 0.306599 0
M  V30 6484 H 577.036 1.94694 0.177361 0
M  V30 6485 H 575.74 3.96937 1.04255 0
M  V30 6486 H 575.271 3.05192 2.48237 0
M  V30 6487 H 577.286 3.27913 3.72407 0
M  V30 6488 N 576.459 -0.456382 1.50847 0
M  V30 6489 C 577.705 -1.20914 1.62811 0
M  V30 6490 C 578.038 -1.91301 0.334304 0
M  V30 6491 O 577.313 -1.82775 -0.665098 0
M  V30 6492 C 577.596 -2.24122 2.81853 0
M  V30 6493 C 577.449 -1.57944 4.21158 0
M  V30 6494 C 578.768 -3.25295 2.96431 0
M  V30 6495 H 575.887 -0.438233 0.592554 0
M  V30 6496 H 578.529 -0.50091 1.83278 0
M  V30 6497 H 576.679 -2.84524 2.64534 0
M  V30 6498 H 578.351 -1.01025 4.50102 0
M  V30 6499 H 576.594 -0.882185 4.24735 0
M  V30 6500 H 577.265 -2.33014 5.00408 0
M  V30 6501 H 579.741 -2.7493 3.12335 0
M  V30 6502 H 578.617 -3.94822 3.81322 0
M  V30 6503 H 578.878 -3.90286 2.07676 0
M  V30 6504 N 577.937 -1.40673 -0.710563 0
M  V30 6505 C 578.9 -1.4108 -1.80635 0
M  V30 6506 C 579.9 -0.303783 -1.57904 0
M  V30 6507 O 581.09 -0.562937 -1.64853 0
M  V30 6508 C 578.222 -1.20748 -3.18799 0
M  V30 6509 H 579.415 -2.38612 -1.81671 0
M  V30 6510 H 576.968 -1.26595 -0.916704 0
M  V30 6511 H 577.703 -0.239964 -3.23411 0
M  V30 6512 H 577.488 -2.00941 -3.36698 0
M  V30 6513 H 578.978 -1.23833 -3.98817 0
M  V30 6514 N 579.415 0.9433 -1.26252 0
M  V30 6515 C 580.662 1.68925 -1.11672 0
M  V30 6516 C 580.99 1.91499 0.340329 0
M  V30 6517 O 580.245 1.49189 1.26653 0
M  V30 6518 C 580.544 3.07073 -1.82868 0
M  V30 6519 C 580.21 3.04262 -3.32769 0
M  V30 6520 C 578.872 3.03203 -3.7366 0
M  V30 6521 C 581.224 2.96729 -4.28487 0
M  V30 6522 C 578.552 2.92373 -5.0866 0
M  V30 6523 C 580.904 2.87442 -5.63525 0
M  V30 6524 C 579.568 2.84724 -6.03729 0
M  V30 6525 H 578.838 0.618141 -0.408635 0
M  V30 6526 H 581.485 1.10124 -1.56668 0
M  V30 6527 H 579.79 3.69486 -1.30335 0
M  V30 6528 H 581.487 3.63635 -1.69029 0
M  V30 6529 H 578.077 3.05865 -3.00241 0
M  V30 6530 H 582.261 2.96658 -3.97879 0
M  V30 6531 H 577.517 2.88645 -5.38975 0
M  V30 6532 H 581.691 2.80576 -6.37377 0
M  V30 6533 H 579.318 2.76089 -7.08293 0
M  V30 6534 N 580.893 1.08022 1.14757 0
M  V30 6535 C 582.121 0.828847 1.89572 0
M  V30 6536 C 582.536 -0.618621 1.78377 0
M  V30 6537 O 581.893 -1.42482 1.1404 0
M  V30 6538 C 581.944 1.23677 3.39685 0
M  V30 6539 O 581.665 2.62746 3.50566 0
M  V30 6540 C 583.166 1.01569 4.31507 0
M  V30 6541 H 580.386 0.299196 0.600602 0
M  V30 6542 H 582.93 1.43846 1.45357 0
M  V30 6543 H 581.085 0.671347 3.81539 0
M  V30 6544 H 581.499 2.79573 4.43778 0
M  V30 6545 H 582.973 1.35055 5.35223 0
M  V30 6546 H 583.45 -0.0475433 4.39174 0
M  V30 6547 H 584.056 1.56636 3.95405 0
M  V30 6548 N 582.371 -1.3172 0.865308 0
M  V30 6549 C 583.599 -2.01057 0.488251 0
M  V30 6550 C 584.014 -1.64979 -0.918 0
M  V30 6551 O 583.371 -0.876597 -1.60069 0
M  V30 6552 C 583.422 -3.55964 0.630224 0
M  V30 6553 O 583.143 -3.90749 1.98109 0
M  V30 6554 C 584.644 -4.42574 0.253567 0
M  V30 6555 H 581.864 -0.64332 0.190736 0
M  V30 6556 H 584.408 -1.68058 1.16519 0
M  V30 6557 H 582.563 -3.874 0.000895422 0
M  V30 6558 H 582.977 -4.85467 1.9855 0
M  V30 6559 H 584.451 -5.50521 0.403875 0
M  V30 6560 H 584.928 -4.31724 -0.806895 0
M  V30 6561 H 585.534 -4.16547 0.858404 0
M  V30 6562 N 583.85 -0.624285 -1.44708 0
M  V30 6563 C 585.096 -0.126051 -2.02107 0
M  V30 6564 C 585.425 1.2496 -1.49048 0
M  V30 6565 O 584.68 1.84163 -0.662005 0
M  V30 6566 C 584.979 -0.0546353 -3.57358 0
M  V30 6567 C 584.644 -1.36815 -4.29642 0
M  V30 6568 C 583.307 -1.72792 -4.49106 0
M  V30 6569 C 585.659 -2.23549 -4.70824 0
M  V30 6570 C 582.986 -2.95222 -5.07012 0
M  V30 6571 C 585.339 -3.45243 -5.30085 0
M  V30 6572 C 584.003 -3.81452 -5.47769 0
M  V30 6573 H 583.273 -0.0461252 -0.739563 0
M  V30 6574 H 585.92 -0.809236 -1.73562 0
M  V30 6575 H 584.225 0.711891 -3.85278 0
M  V30 6576 H 585.922 0.347282 -3.99493 0
M  V30 6577 H 582.512 -1.07817 -4.14817 0
M  V30 6578 H 586.696 -1.9705 -4.55505 0
M  V30 6579 H 581.952 -3.23361 -5.18891 0
M  V30 6580 H 586.125 -4.12689 -5.60946 0
M  V30 6581 H 583.753 -4.76403 -5.92405 0
M  V30 6582 N 585.328 1.53329 -0.364422 0
M  V30 6583 C 586.258 2.28627 0.474543 0
M  V30 6584 C 587.239 1.31009 1.08492 0
M  V30 6585 O 588.424 1.59878 1.10239 0
M  V30 6586 C 585.554 3.07465 1.61501 0
M  V30 6587 C 584.508 4.1276 1.13194 0
M  V30 6588 C 583.834 4.79674 2.36255 0
M  V30 6589 C 585.134 5.21847 0.217507 0
M  V30 6590 H 586.828 2.99005 -0.153656 0
M  V30 6591 H 584.374 1.43803 -0.0753406 0
M  V30 6592 H 586.327 3.58889 2.20855 0
M  V30 6593 H 585.051 2.34775 2.27042 0
M  V30 6594 H 583.71 3.62281 0.56109 0
M  V30 6595 H 583.358 4.03557 3.00251 0
M  V30 6596 H 583.058 5.50827 2.04606 0
M  V30 6597 H 584.582 5.33892 2.96297 0
M  V30 6598 H 585.996 5.6878 0.718493 0
M  V30 6599 H 584.393 6.00099 -0.00806408 0
M  V30 6600 H 585.463 4.7921 -0.740653 0
M  V30 6601 N 586.806 0.0935595 1.57322 0
M  V30 6602 C 588.046 -0.573901 1.96178 0
M  V30 6603 C 588.41 -1.65445 0.97426 0
M  V30 6604 O 589.611 -2.37901 1.25126 0
M  V30 6605 C 587.882 -1.11612 3.39526 0
M  V30 6606 S 589.441 -1.79566 4.00377 0
M  V30 6607 H 586.259 -0.187315 0.685882 0
M  V30 6608 H 588.861 0.172597 1.94737 0
M  V30 6609 H 587.565 -0.31815 4.09165 0
M  V30 6610 H 587.096 -1.89848 3.4456 0
M  V30 6611 H 589.111 -3.07978 3.89056 0
M  V30 6612 N 588.284 -1.56567 -0.180126 0
M  V30 6613 C 589.214 -1.98753 -1.22553 0
M  V30 6614 C 590.195 -0.86175 -1.46656 0
M  V30 6615 O 591.38 -1.12719 -1.58139 0
M  V30 6616 C 588.51 -2.33988 -2.56645 0
M  V30 6617 C 587.464 -3.49445 -2.47128 0
M  V30 6618 C 586.79 -3.70397 -3.8563 0
M  V30 6619 C 588.09 -4.83171 -1.98352 0
M  V30 6620 H 589.784 -2.86332 -0.874896 0
M  V30 6621 H 587.33 -1.37757 -0.419414 0
M  V30 6622 H 589.283 -2.62097 -3.29974 0
M  V30 6623 H 588.007 -1.43309 -2.93479 0
M  V30 6624 H 586.666 -3.2145 -1.76254 0
M  V30 6625 H 586.314 -2.77023 -4.19842 0
M  V30 6626 H 586.014 -4.48077 -3.80132 0
M  V30 6627 H 587.538 -4.00897 -4.60558 0
M  V30 6628 H 588.952 -5.10213 -2.61449 0
M  V30 6629 H 587.349 -5.64425 -2.03823 0
M  V30 6630 H 588.419 -4.75753 -0.937402 0
M  V30 6631 N 589.762 0.448376 -1.51087 0
M  V30 6632 C 590.992 1.21965 -1.66757 0
M  V30 6633 C 591.4 1.85748 -0.359753 0
M  V30 6634 O 590.743 1.71022 0.670604 0
M  V30 6635 C 590.805 2.35284 -2.71812 0
M  V30 6636 C 590.469 1.91957 -4.1473 0
M  V30 6637 C 591.466 1.42921 -4.9987 0
M  V30 6638 C 589.151 1.99985 -4.60772 0
M  V30 6639 C 591.145 1.02485 -6.29107 0
M  V30 6640 C 588.832 1.5916 -5.90009 0
M  V30 6641 C 589.83 1.10491 -6.74004 0
M  V30 6642 O 589.518 0.702413 -8.00825 0
M  V30 6643 H 589.25 0.374125 -0.563034 0
M  V30 6644 H 591.804 0.538927 -1.98204 0
M  V30 6645 H 590.034 3.06599 -2.35657 0
M  V30 6646 H 591.723 2.97184 -2.76472 0
M  V30 6647 H 592.489 1.36123 -4.65506 0
M  V30 6648 H 588.368 2.36814 -3.95525 0
M  V30 6649 H 591.912 0.644271 -6.94619 0
M  V30 6650 H 587.809 1.65626 -6.2389 0
M  V30 6651 H 588.577 0.829248 -8.14288 0
M  V30 6652 N 591.24 1.41047 0.703093 0
M  V30 6653 C 592.488 1.39723 1.4602 0
M  V30 6654 C 592.809 0.00461257 1.94999 0
M  V30 6655 O 592.079 -0.952292 1.71196 0
M  V30 6656 H 590.659 0.514281 0.541779 0
M  V30 6657 H 593.321 1.76217 0.832678 0
M  V30 6658 H 592.417 2.07982 2.32701 0
M  V30 6659 N 592.718 -0.936591 1.26751 0
M  V30 6660 C 593.651 -2.03619 1.03027 0
M  V30 6661 C 594.629 -1.62534 -0.0464619 0
M  V30 6662 O 595.813 -1.88251 0.0968873 0
M  V30 6663 C 592.94 -3.3402 0.561072 0
M  V30 6664 C 591.986 -3.9408 1.63105 0
M  V30 6665 S 592.819 -4.27782 3.22122 0
M  V30 6666 C 593.975 -5.61277 2.76982 0
M  V30 6667 H 594.208 -2.23429 1.96129 0
M  V30 6668 H 591.741 -1.07857 1.10482 0
M  V30 6669 H 593.699 -4.09424 0.297031 0
M  V30 6670 H 592.36 -3.12147 -0.349741 0
M  V30 6671 H 591.553 -4.88154 1.25386 0
M  V30 6672 H 591.155 -3.25227 1.84671 0
M  V30 6673 H 593.447 -6.40189 2.21731 0
M  V30 6674 H 594.39 -6.03887 3.69766 0
M  V30 6675 H 594.798 -5.21374 2.16402 0
M  V30 6676 N 594.196 -1.08629 -1.14182 0
M  V30 6677 C 595.445 -0.812271 -1.84621 0
M  V30 6678 C 595.758 0.664313 -1.83973 0
M  V30 6679 O 596.964 1.05357 -2.50224 0
M  V30 6680 C 595.42 -1.4031 -3.31423 0
M  V30 6681 C 595.028 -2.91164 -3.40481 0
M  V30 6682 C 596.772 -1.20767 -4.06959 0
M  V30 6683 C 594.679 -3.43373 -4.81507 0
M  V30 6684 H 593.609 -0.30019 -0.691666 0
M  V30 6685 H 596.26 -1.30798 -1.28701 0
M  V30 6686 H 594.642 -0.835096 -3.87094 0
M  V30 6687 H 595.816 -3.5412 -2.94848 0
M  V30 6688 H 594.131 -3.09646 -2.78403 0
M  V30 6689 H 596.728 -1.57237 -5.11058 0
M  V30 6690 H 597.071 -0.147664 -4.16038 0
M  V30 6691 H 597.604 -1.74274 -3.57594 0
M  V30 6692 H 594.343 -4.48958 -4.77616 0
M  V30 6693 H 593.863 -2.85176 -5.27669 0
M  V30 6694 H 595.542 -3.40095 -5.50404 0
M  V30 6695 N 595.674 1.31259 -0.872281 0
M  V30 6696 C 596.92 1.973 -0.494414 0
M  V30 6697 C 597.275 1.67684 0.94339 0
M  V30 6698 O 596.568 0.964186 1.65572 0
M  V30 6699 C 596.762 3.50659 -0.690889 0
M  V30 6700 C 596.591 3.95179 -2.14624 0
M  V30 6701 C 595.361 4.21405 -2.7883 0
M  V30 6702 C 597.559 4.08948 -3.11875 0
M  V30 6703 N 595.541 4.52295 -4.15093 0
M  V30 6704 C 596.912 4.43576 -4.33174 0
M  V30 6705 C 598.967 3.91334 -3.07835 0
M  V30 6706 C 597.67 4.62429 -5.50956 0
M  V30 6707 C 599.696 4.11381 -4.24876 0
M  V30 6708 C 599.058 4.46343 -5.44938 0
M  V30 6709 H 595.157 0.747411 -0.230002 0
M  V30 6710 H 597.741 1.58741 -1.12736 0
M  V30 6711 H 595.912 3.88301 -0.0875162 0
M  V30 6712 H 597.644 4.03722 -0.281179 0
M  V30 6713 H 594.399 4.14131 -2.29767 0
M  V30 6714 H 594.823 4.71897 -4.8543 0
M  V30 6715 H 599.465 3.6339 -2.16119 0
M  V30 6716 H 597.183 4.8922 -6.43187 0
M  V30 6717 H 600.769 3.99235 -4.23205 0
M  V30 6718 H 599.649 4.6154 -6.33996 0
M  V30 6719 N 597.152 0.631951 1.44375 0
M  V30 6720 C 598.382 0.143658 2.061 0
M  V30 6721 C 598.79 -1.18733 1.47306 0
M  V30 6722 O 598.133 -1.73943 0.590724 0
M  V30 6723 C 598.195 -0.0446102 3.59472 0
M  V30 6724 C 597.859 1.20835 4.40736 0
M  V30 6725 C 598.856 2.13224 4.74164 0
M  V30 6726 C 596.541 1.44399 4.81097 0
M  V30 6727 C 598.535 3.27487 5.46838 0
M  V30 6728 C 596.222 2.58959 5.53519 0
M  V30 6729 C 597.22 3.50329 5.86309 0
M  V30 6730 O 596.908 4.62891 6.57257 0
M  V30 6731 H 596.64 0.0772939 0.671567 0
M  V30 6732 H 599.194 0.866677 1.8622 0
M  V30 6733 H 597.424 -0.822783 3.77845 0
M  V30 6734 H 599.113 -0.487561 4.02961 0
M  V30 6735 H 599.879 1.96253 4.4352 0
M  V30 6736 H 595.758 0.741696 4.54994 0
M  V30 6737 H 599.302 3.98826 5.72349 0
M  V30 6738 H 595.199 2.75873 5.83579 0
M  V30 6739 H 595.967 4.61883 6.75726 0
M  V30 6740 N 598.631 -1.53133 0.372548 0
M  V30 6741 C 599.594 -2.24569 -0.458389 0
M  V30 6742 C 600.594 -1.25603 -1.00402 0
M  V30 6743 O 601.784 -1.49827 -0.888672 0
M  V30 6744 C 598.916 -2.98783 -1.6414 0
M  V30 6745 H 600.109 -2.99436 0.166799 0
M  V30 6746 H 597.662 -1.55805 0.124357 0
M  V30 6747 H 598.397 -2.28176 -2.30448 0
M  V30 6748 H 598.182 -3.71404 -1.25704 0
M  V30 6749 H 599.672 -3.53068 -2.23008 0
M  V30 6750 N 600.109 -0.101901 -1.5727 0
M  V30 6751 C 601.019 0.868647 -2.17926 0
M  V30 6752 C 602.035 1.30527 -1.1506 0
M  V30 6753 O 603.211 1.37178 -1.47459 0
M  V30 6754 C 600.276 2.10727 -2.75309 0
M  V30 6755 C 599.337 1.7242 -3.93154 0
M  V30 6756 C 598.57 2.90377 -4.47791 0
M  V30 6757 O 598.793 4.05305 -4.01353 0
M  V30 6758 O 597.727 2.6845 -5.38719 0
M  V30 6759 H 601.553 0.382544 -3.01281 0
M  V30 6760 H 599.138 0.122812 -1.48894 0
M  V30 6761 H 601.02 2.83303 -3.11958 0
M  V30 6762 H 599.695 2.58376 -1.94996 0
M  V30 6763 H 598.602 0.970039 -3.61305 0
M  V30 6764 H 599.935 1.29528 -4.74851 0
M  V30 6765 N 601.587 1.56661 0.17182 0
M  V30 6766 C 602.537 1.92781 1.21736 0
M  V30 6767 C 603.521 0.796065 1.39827 0
M  V30 6768 O 604.713 1.05924 1.41806 0
M  V30 6769 C 601.842 2.29079 2.55691 0
M  V30 6770 C 600.928 3.48765 2.41296 0
M  V30 6771 N 601.319 4.66022 1.96614 0
M  V30 6772 C 599.617 3.53362 2.72124 0
M  V30 6773 C 600.318 5.48159 1.94669 0
M  V30 6774 N 599.294 4.89189 2.37054 0
M  V30 6775 H 603.096 2.80926 0.863592 0
M  V30 6776 H 600.61 1.57889 0.380096 0
M  V30 6777 H 602.607 2.5315 3.31241 0
M  V30 6778 H 601.267 1.42272 2.91871 0
M  V30 6779 H 602.278 4.9025 1.66959 0
M  V30 6780 H 598.955 2.77033 3.12345 0
M  V30 6781 H 600.345 6.52121 1.61826 0
M  V30 6782 N 603.065 -0.440357 1.51323 0
M  V30 6783 C 604.295 -1.21079 1.67402 0
M  V30 6784 C 604.703 -1.85555 0.369599 0
M  V30 6785 O 604.046 -1.71375 -0.661525 0
M  V30 6786 C 604.108 -2.33839 2.73056 0
M  V30 6787 C 603.772 -1.89755 4.15743 0
M  V30 6788 C 604.769 -1.40268 5.0062 0
M  V30 6789 C 602.454 -1.97539 4.61826 0
M  V30 6790 C 604.448 -0.991474 6.29642 0
M  V30 6791 C 602.135 -1.56029 5.90845 0
M  V30 6792 C 603.133 -1.06915 6.7458 0
M  V30 6793 O 602.821 -0.659933 8.01187 0
M  V30 6794 H 602.553 -0.371133 0.56501 0
M  V30 6795 H 605.107 -0.528409 1.98487 0
M  V30 6796 H 603.337 -3.05345 2.37279 0
M  V30 6797 H 605.026 -2.95713 2.78044 0
M  V30 6798 H 605.792 -1.33652 4.66221 0
M  V30 6799 H 601.671 -2.34713 3.96776 0
M  V30 6800 H 605.215 -0.607425 6.9495 0
M  V30 6801 H 601.112 -1.62315 6.24759 0
M  V30 6802 H 601.88 -0.786052 8.14717 0
M  V30 6803 N 604.543 -1.41418 -0.695603 0
M  V30 6804 C 605.791 -1.40496 -1.45277 0
M  V30 6805 C 606.112 -0.0149538 -1.94994 0
M  V30 6806 O 605.382 0.9432 -1.71699 0
M  V30 6807 H 603.962 -0.517147 -0.539044 0
M  V30 6808 H 606.624 -1.76656 -0.823321 0
M  V30 6809 H 605.72 -2.09214 -2.31595 0
M  V30 6810 N 606.021 0.929856 -1.27246 0
M  V30 6811 C 606.971 2.01629 -1.06442 0
M  V30 6812 C 607.955 1.60899 0.00687842 0
M  V30 6813 O 609.147 1.75733 -0.211407 0
M  V30 6814 C 606.276 3.35849 -0.711361 0
M  V30 6815 C 605.362 3.8303 -1.82069 0
M  V30 6816 N 605.753 4.02743 -3.05993 0
M  V30 6817 C 604.051 4.12046 -1.70687 0
M  V30 6818 C 604.752 4.42001 -3.78167 0
M  V30 6819 N 603.728 4.4935 -3.05918 0
M  V30 6820 H 607.53 2.14898 -2.00489 0
M  V30 6821 H 605.044 1.11654 -1.17929 0
M  V30 6822 H 607.041 4.13343 -0.543442 0
M  V30 6823 H 605.701 3.23944 0.221517 0
M  V30 6824 H 606.712 3.89112 -3.41778 0
M  V30 6825 H 603.389 4.08866 -0.844681 0
M  V30 6826 H 604.779 4.6535 -4.84664 0
M  V30 6827 N 607.499 1.09233 1.13605 0
M  V30 6828 C 608.915 0.82163 1.36826 0
M  V30 6829 C 609.115 -0.565021 1.93416 0
M  V30 6830 O 608.171 -1.32026 2.15234 0
M  V30 6831 C 609.484 1.91124 2.32147 0
M  V30 6832 C 611.032 1.93824 2.45767 0
M  V30 6833 C 611.507 3.01923 3.44393 0
M  V30 6834 N 612.998 3.01149 3.51942 0
M  V30 6835 C 613.733 3.81434 4.2813 0
M  V30 6836 N 613.229 4.71621 5.07489 0
M  V30 6837 N 615.022 3.69702 4.23411 0
M  V30 6838 H 607.173 1.98633 0.752234 0
M  V30 6839 H 609.436 0.862482 0.393482 0
M  V30 6840 H 609.142 2.90862 1.97717 0
M  V30 6841 H 609.016 1.78777 3.32142 0
M  V30 6842 H 611.403 0.94726 2.79483 0
M  V30 6843 H 611.484 2.10248 1.45703 0
M  V30 6844 H 611.128 4.01232 3.11408 0
M  V30 6845 H 611.058 2.82742 4.44257 0
M  V30 6846 H 613.549 2.35789 2.95317 0
M  V30 6847 H 613.862 5.29468 5.62924 0
M  V30 6848 H 612.207 4.75658 5.06729 0
M  V30 6849 H 615.398 2.98606 3.60489 0
M  V30 6850 H 615.571 4.32509 4.82535 0
M  V30 6851 N 608.977 -1.30795 0.87923 0
M  V30 6852 C 609.887 -2.32041 0.345565 0
M  V30 6853 C 610.903 -1.65103 -0.549265 0
M  V30 6854 O 612.079 -1.9645 -0.443763 0
M  V30 6855 C 609.144 -3.43944 -0.436245 0
M  V30 6856 C 608.205 -4.26521 0.48765 0
M  V30 6857 C 607.438 -5.33081 -0.256943 0
M  V30 6858 O 607.661 -5.50762 -1.48381 0
M  V30 6859 O 606.595 -6.00635 0.389985 0
M  V30 6860 H 610.421 -2.79627 1.18501 0
M  V30 6861 H 608.006 -1.3486 0.642885 0
M  V30 6862 H 609.888 -4.12128 -0.879119 0
M  V30 6863 H 608.563 -2.98504 -1.25208 0
M  V30 6864 H 607.47 -3.61057 0.979216 0
M  V30 6865 H 608.803 -4.75551 1.26933 0
M  V30 6866 N 610.455 -0.639598 -1.44038 0
M  V30 6867 C 611.402 0.0602458 -2.30721 0
M  V30 6868 C 612.372 0.828352 -1.43971 0
M  V30 6869 O 613.557 0.807693 -1.72861 0
M  V30 6870 C 610.697 1.03008 -3.29368 0
M  V30 6871 C 609.81 0.259502 -4.3122 0
M  V30 6872 C 608.945 1.22191 -5.16955 0
M  V30 6873 C 607.984 0.440978 -6.10509 0
M  V30 6874 N 607.121 1.35428 -6.88915 0
M  V30 6875 H 611.961 -0.684867 -2.90023 0
M  V30 6876 H 609.498 -0.349509 -1.42888 0
M  V30 6877 H 611.456 1.60583 -3.85057 0
M  V30 6878 H 610.086 1.74222 -2.71747 0
M  V30 6879 H 609.138 -0.432317 -3.77935 0
M  V30 6880 H 610.45 -0.348347 -4.97582 0
M  V30 6881 H 609.604 1.86873 -5.77203 0
M  V30 6882 H 608.343 1.86367 -4.50687 0
M  V30 6883 H 607.348 -0.219279 -5.49363 0
M  V30 6884 H 608.573 -0.196192 -6.78817 0
M  V30 6885 H 606.519 1.9831 -6.25307 0
M  V30 6886 H 606.436 0.800657 -7.51748 0
M  V30 6887 H 607.704 1.98967 -7.53679 0
M  V30 6888 N 611.933 1.52934 -0.380664 0
M  V30 6889 C 613.161 2.05886 0.204599 0
M  V30 6890 C 613.576 1.25305 1.41223 0
M  V30 6891 O 612.933 0.297504 1.80059 0
M  V30 6892 C 612.984 3.56764 0.583249 0
M  V30 6893 O 612.705 4.34292 -0.576398 0
M  V30 6894 C 614.206 4.2603 1.2253 0
M  V30 6895 H 611.426 0.670193 0.0328991 0
M  V30 6896 H 613.97 1.97148 -0.543397 0
M  V30 6897 H 612.125 3.65603 1.28115 0
M  V30 6898 H 612.539 5.23819 -0.267119 0
M  V30 6899 H 614.013 5.32868 1.44068 0
M  V30 6900 H 614.49 3.80698 2.19011 0
M  V30 6901 H 615.096 4.21485 0.568407 0
M  V30 6902 N 613.412 0.11024 1.57214 0
M  V30 6903 C 614.642 -0.557025 1.98949 0
M  V30 6904 C 615.05 -1.61317 0.988606 0
M  V30 6905 O 614.393 -1.83679 -0.0279159 0
M  V30 6906 C 614.455 -1.24956 3.37085 0
M  V30 6907 C 614.119 -0.342398 4.55716 0
M  V30 6908 C 615.116 0.415511 5.18237 0
M  V30 6909 C 612.801 -0.256029 5.01647 0
M  V30 6910 C 614.795 1.24761 6.25071 0
M  V30 6911 C 612.482 0.579713 6.08344 0
M  V30 6912 C 613.48 1.33017 6.69922 0
M  V30 6913 O 613.168 2.15205 7.74559 0
M  V30 6914 H 612.9 -0.152792 0.658506 0
M  V30 6915 H 615.454 0.19076 2.04512 0
M  V30 6916 H 613.684 -2.04424 3.2825 0
M  V30 6917 H 615.373 -1.81286 3.63167 0
M  V30 6918 H 616.139 0.358605 4.83672 0
M  V30 6919 H 612.018 -0.829831 4.5347 0
M  V30 6920 H 615.562 1.83386 6.73064 0
M  V30 6921 H 611.459 0.638044 6.42339 0
M  V30 6922 H 612.227 2.08052 7.91617 0
M  V30 6923 N 614.89 -1.56749 -0.16351 0
M  V30 6924 C 616.115 -1.86938 -0.898264 0
M  V30 6925 C 616.54 -0.697456 -1.74692 0
M  V30 6926 O 615.898 0.353327 -1.77824 0
M  V30 6927 C 615.946 -3.15599 -1.74441 0
M  V30 6928 O 615.05 -2.98371 -2.8469 0
M  V30 6929 H 614.391 -0.614659 -0.251178 0
M  V30 6930 H 616.921 -2.03979 -0.159298 0
M  V30 6931 H 616.931 -3.47202 -2.14277 0
M  V30 6932 H 615.606 -4.00505 -1.1211 0
M  V30 6933 H 614.183 -2.7814 -2.4838 0
M  V30 6934 N 616.368 0.432326 -1.51554 0
M  V30 6935 C 617.278 1.55023 -1.76082 0
M  V30 6936 C 618.294 1.61593 -0.645265 0
M  V30 6937 O 619.47 1.78742 -0.928086 0
M  V30 6938 C 616.535 2.90964 -1.88523 0
M  V30 6939 C 615.596 2.9447 -3.12388 0
M  V30 6940 C 614.829 4.23926 -3.24225 0
M  V30 6941 O 615.052 5.16576 -2.4188 0
M  V30 6942 O 613.986 4.33818 -4.17235 0
M  V30 6943 H 617.812 1.37238 -2.70923 0
M  V30 6944 H 615.397 0.615845 -1.36117 0
M  V30 6945 H 617.279 3.71633 -1.98662 0
M  V30 6946 H 615.954 3.08865 -0.9687 0
M  V30 6947 H 614.861 2.12737 -3.07723 0
M  V30 6948 H 616.194 2.81514 -4.03746 0
M  V30 6949 N 617.846 1.41785 0.688094 0
M  V30 6950 C 619.086 1.43018 1.46032 0
M  V30 6951 C 619.45 0.0402632 1.91958 0
M  V30 6952 O 620.651 -0.0726425 2.68702 0
M  V30 6953 C 618.922 2.4151 2.63453 0
M  V30 6954 S 620.481 2.61335 3.5249 0
M  V30 6955 H 617.299 0.506546 0.498931 0
M  V30 6956 H 619.901 1.78283 0.80221 0
M  V30 6957 H 618.605 3.41286 2.27929 0
M  V30 6958 H 618.136 2.07624 3.34149 0
M  V30 6959 H 620.151 1.88637 4.58945 0
M  V30 6960 N 619.324 -0.923095 1.27737 0
M  V30 6961 C 620.234 -2.05765 1.12685 0
M  V30 6962 C 621.25 -1.73911 0.0557197 0
M  V30 6963 O 622.426 -1.99674 0.263137 0
M  V30 6964 C 619.491 -3.37804 0.780363 0
M  V30 6965 C 618.552 -3.83326 1.93286 0
M  V30 6966 C 617.785 -5.09064 1.60281 0
M  V30 6967 O 618.008 -5.6809 0.512828 0
M  V30 6968 O 616.942 -5.50071 2.44347 0
M  V30 6969 H 620.768 -2.21378 2.07907 0
M  V30 6970 H 618.353 -1.04299 1.06968 0
M  V30 6971 H 620.235 -4.17097 0.600668 0
M  V30 6972 H 618.91 -3.23387 -0.142291 0
M  V30 6973 H 617.817 -3.049 2.16764 0
M  V30 6974 H 619.15 -4.02292 2.83588 0
M  V30 6975 N 620.802 -1.09834 -1.13024 0
M  V30 6976 C 622.079 -0.749225 -1.80682 0
M  V30 6977 C 622.459 0.765171 -1.96744 0
M  V30 6978 O 621.807 1.68912 -1.53886 0
M  V30 6979 C 622.017 -1.49311 -3.15448 0
M  V30 6980 C 623.365 -1.66162 -3.90737 0
M  V30 6981 O 624.389 -1.45597 -3.25085 0
M  V30 6982 O 623.248 -2.00211 -5.08505 0
M  V30 6983 H 620.342 -0.269614 -0.781817 0
M  V30 6984 H 622.888 -1.20078 -1.19914 0
M  V30 6985 H 621.66 -2.52407 -2.99009 0
M  V30 6986 H 621.283 -1.034 -3.8392 0
M  V30 6987 N 622.28 1.30327 -0.886154 0
M  V30 6988 C 623.528 1.9571 -0.504195 0
M  V30 6989 C 623.849 1.70294 0.950003 0
M  V30 6990 O 623.119 1.02718 1.66811 0
M  V30 6991 H 621.699 0.72412 -0.183465 0
M  V30 6992 H 624.361 1.58835 -1.12949 0
M  V30 6993 H 623.457 3.04704 -0.675431 0
M  V30 6994 N 623.758 0.647228 1.43697 0
M  V30 6995 C 624.986 0.16575 2.06235 0
M  V30 6996 C 625.401 -1.1662 1.48476 0
M  V30 6997 O 624.758 -1.7187 0.613762 0
M  V30 6998 C 624.809 0.0621651 3.61447 0
M  V30 6999 O 624.53 1.34146 4.17057 0
M  V30 7000 C 626.031 -0.446102 4.4105 0
M  V30 7001 H 623.251 0.0871158 0.665321 0
M  V30 7002 H 625.795 0.886183 1.84301 0
M  V30 7003 H 623.95 -0.608794 3.82587 0
M  V30 7004 H 624.364 1.19675 5.10664 0
M  V30 7005 H 625.838 -0.46755 5.50016 0
M  V30 7006 H 626.315 -1.47627 4.13646 0
M  V30 7007 H 626.921 0.192159 4.24866 0
M  V30 7008 N 625.236 -1.5273 0.388769 0
M  V30 7009 C 626.466 -2.05693 -0.193397 0
M  V30 7010 C 626.874 -1.26038 -1.41107 0
M  V30 7011 O 626.217 -0.30001 -1.81234 0
M  V30 7012 C 626.279 -3.53962 -0.628561 0
M  V30 7013 C 625.943 -4.54519 0.475576 0
M  V30 7014 C 626.94 -5.02526 1.33281 0
M  V30 7015 C 624.625 -4.98174 0.642453 0
M  V30 7016 C 626.619 -5.92812 2.34205 0
M  V30 7017 C 624.306 -5.88262 1.65503 0
M  V30 7018 C 625.304 -6.35473 2.50325 0
M  V30 7019 O 624.992 -7.23781 3.49852 0
M  V30 7020 H 624.724 -0.675197 -0.0329395 0
M  V30 7021 H 627.278 -1.97835 0.552326 0
M  V30 7022 H 625.508 -3.59437 -1.42625 0
M  V30 7023 H 627.197 -3.89669 -1.13633 0
M  V30 7024 H 627.963 -4.6953 1.21519 0
M  V30 7025 H 623.842 -4.60999 -0.00805093 0
M  V30 7026 H 627.386 -6.29585 3.00447 0
M  V30 7027 H 623.283 -6.20672 1.77304 0
M  V30 7028 H 624.051 -7.4184 3.45855 0
M  V30 7029 N 626.714 -0.118576 -1.57153 0
M  V30 7030 C 627.939 0.550582 -1.99958 0
M  V30 7031 C 628.364 1.59458 -0.997736 0
M  V30 7032 O 627.722 1.81274 0.0306269 0
M  V30 7033 C 627.77 1.15379 -3.41643 0
M  V30 7034 O 626.874 2.26932 -3.44348 0
M  V30 7035 H 626.215 0.137567 -0.649593 0
M  V30 7036 H 628.745 -0.206926 -2.03551 0
M  V30 7037 H 628.755 1.48942 -3.79843 0
M  V30 7038 H 627.43 0.389087 -4.14076 0
M  V30 7039 H 626.007 1.94812 -3.17967 0
M  V30 7040 N 628.193 1.56834 0.155195 0
M  V30 7041 C 629.604 1.72421 0.716082 0
M  V30 7042 C 629.955 0.731685 1.82046 0
M  V30 7043 O 629.08 -0.103481 2.16152 0
M  V30 7044 C 629.675 3.12629 1.30571 0
M  V30 7045 C 628.234 3.29846 1.81325 0
M  V30 7046 C 627.381 2.68359 0.698494 0
M  V30 7047 H 630.332 1.58544 -0.0703861 0
M  V30 7048 H 630.353 3.12174 2.1755 0
M  V30 7049 H 629.865 3.84844 0.501701 0
M  V30 7050 H 627.966 2.62614 2.64319 0
M  V30 7051 H 628.079 4.37727 1.9476 0
M  V30 7052 H 626.443 2.28604 1.12305 0
M  V30 7053 H 627.226 3.43171 -0.0939366 0
M  V30 7054 N 629.671 -0.424282 1.51781 0
M  V30 7055 C 630.581 -1.54087 1.76902 0
M  V30 7056 C 631.597 -1.61249 0.653826 0
M  V30 7057 O 632.773 -1.78247 0.937552 0
M  V30 7058 C 629.838 -2.8996 1.90063 0
M  V30 7059 C 628.899 -2.92809 3.13945 0
M  V30 7060 C 628.132 -4.22201 3.26469 0
M  V30 7061 O 628.355 -5.15286 2.44616 0
M  V30 7062 O 627.289 -4.31599 4.1953 0
M  V30 7063 H 631.115 -1.358 2.71647 0
M  V30 7064 H 628.7 -0.608618 1.36441 0
M  V30 7065 H 630.582 -3.70575 2.0063 0
M  V30 7066 H 629.257 -3.08347 0.985067 0
M  V30 7067 H 628.164 -2.11102 3.08847 0
M  V30 7068 H 629.497 -2.79369 4.05233 0
M  V30 7069 N 631.149 -1.42148 -0.680565 0
M  V30 7070 C 632.398 -1.41604 -1.43636 0
M  V30 7071 C 632.711 -0.0337887 -1.95571 0
M  V30 7072 O 633.917 0.0942588 -2.71336 0
M  V30 7073 C 632.373 -2.49056 -2.59806 0
M  V30 7074 C 631.981 -3.9326 -2.14594 0
M  V30 7075 C 633.725 -2.5767 -3.37352 0
M  V30 7076 C 631.632 -4.92232 -3.27813 0
M  V30 7077 H 630.562 -0.526656 -0.539583 0
M  V30 7078 H 633.213 -1.68033 -0.737369 0
M  V30 7079 H 631.595 -2.15782 -3.32045 0
M  V30 7080 H 632.769 -4.35858 -1.49546 0
M  V30 7081 H 631.084 -3.88443 -1.50002 0
M  V30 7082 H 633.681 -3.28794 -4.21662 0
M  V30 7083 H 634.024 -1.61837 -3.83555 0
M  V30 7084 H 634.557 -2.90109 -2.72179 0
M  V30 7085 H 631.296 -5.89522 -2.86607 0
M  V30 7086 H 630.816 -4.5427 -3.91661 0
M  V30 7087 H 632.495 -5.13684 -3.93367 0
M  V30 7088 N 632.627 0.916307 -1.28225 0
M  V30 7089 C 633.852 1.7043 -1.18188 0
M  V30 7090 C 634.277 1.86346 0.256274 0
M  V30 7091 O 633.635 1.37175 1.18544 0
M  V30 7092 C 633.683 3.07546 -1.88275 0
M  V30 7093 O 632.787 3.94904 -1.18848 0
M  V30 7094 H 632.128 0.521967 -0.410423 0
M  V30 7095 H 634.658 1.14589 -1.69501 0
M  V30 7096 H 634.668 3.57793 -1.96082 0
M  V30 7097 H 633.343 2.95279 -2.92887 0
M  V30 7098 H 631.92 3.53339 -1.19187 0
M  V30 7099 N 634.105 1.10431 1.1244 0
M  V30 7100 C 635.351 0.857864 1.84424 0
M  V30 7101 C 635.706 -0.609995 1.82474 0
M  V30 7102 O 634.999 -1.44401 1.25932 0
M  V30 7103 C 635.193 1.34022 3.3132 0
M  V30 7104 C 635.022 2.85344 3.47576 0
M  V30 7105 C 633.792 3.53345 3.61213 0
M  V30 7106 C 635.99 3.83446 3.42744 0
M  V30 7107 N 633.972 4.92989 3.65834 0
M  V30 7108 C 635.343 5.09101 3.5386 0
M  V30 7109 C 637.398 3.76154 3.26209 0
M  V30 7110 C 636.101 6.28323 3.50146 0
M  V30 7111 C 638.127 4.94876 3.23809 0
M  V30 7112 C 637.489 6.19378 3.35485 0
M  V30 7113 H 633.588 0.366917 0.690577 0
M  V30 7114 H 636.172 1.40668 1.34613 0
M  V30 7115 H 634.343 0.818727 3.79673 0
M  V30 7116 H 636.075 1.03801 3.91162 0
M  V30 7117 H 632.83 3.03791 3.63329 0
M  V30 7118 H 633.254 5.65762 3.71809 0
M  V30 7119 H 637.896 2.80813 3.16076 0
M  V30 7120 H 635.614 7.23953 3.5905 0
M  V30 7121 H 639.2 4.90942 3.12197 0
M  V30 7122 H 638.08 7.09704 3.33602 0
M  V30 7123 N 635.583 -1.29855 0.893053 0
M  V30 7124 C 636.533 -2.25493 0.337211 0
M  V30 7125 C 637.517 -1.51606 -0.53894 0
M  V30 7126 O 638.709 -1.72828 -0.382043 0
M  V30 7127 C 635.838 -3.40467 -0.440117 0
M  V30 7128 C 634.924 -4.217 0.450578 0
M  V30 7129 N 635.315 -4.81312 1.55476 0
M  V30 7130 C 633.613 -4.45315 0.247154 0
M  V30 7131 C 634.314 -5.42241 2.10593 0
M  V30 7132 N 633.29 -5.25267 1.39982 0
M  V30 7133 H 637.092 -2.69137 1.18079 0
M  V30 7134 H 634.606 -1.44388 0.743359 0
M  V30 7135 H 636.603 -4.08038 -0.855021 0
M  V30 7136 H 635.263 -2.98361 -1.28104 0
M  V30 7137 H 636.274 -4.80291 1.93755 0
M  V30 7138 H 632.951 -4.13782 -0.555939 0
M  V30 7139 H 634.341 -5.99517 3.03362 0
M  V30 7140 N 637.061 -0.65484 -1.43351 0
M  V30 7141 C 638.011 0.0581325 -2.27926 0
M  V30 7142 C 638.995 0.793188 -1.3999 0
M  V30 7143 O 640.187 0.675387 -1.63608 0
M  V30 7144 C 637.316 1.02272 -3.27712 0
M  V30 7145 C 636.402 0.286048 -4.23134 0
M  V30 7146 N 636.793 -0.698298 -5.00957 0
M  V30 7147 C 635.091 0.527272 -4.42872 0
M  V30 7148 C 635.792 -1.1357 -5.70506 0
M  V30 7149 N 634.768 -0.469631 -5.41568 0
M  V30 7150 H 638.57 -0.697182 -2.85511 0
M  V30 7151 H 636.084 -0.482252 -1.55074 0
M  V30 7152 H 638.081 1.5483 -3.87083 0
M  V30 7153 H 636.741 1.77807 -2.71688 0
M  V30 7154 H 637.752 -1.07708 -5.06576 0
M  V30 7155 H 634.429 1.26367 -3.97916 0
M  V30 7156 H 635.819 -1.95027 -6.42973 0
M  V30 7157 N 638.539 1.52521 -0.396863 0
M  V30 7158 C 639.955 1.5953 -0.0471659 0
M  V30 7159 C 640.155 1.41044 1.43906 0
M  V30 7160 O 639.211 1.23122 2.20448 0
M  V30 7161 C 640.524 2.95972 -0.531113 0
M  V30 7162 C 642.072 3.09172 -0.488024 0
M  V30 7163 C 642.547 4.48075 -0.948281 0
M  V30 7164 N 644.038 4.54281 -0.9046 0
M  V30 7165 C 644.773 5.60007 -1.23205 0
M  V30 7166 N 644.269 6.73343 -1.63036 0
M  V30 7167 N 646.062 5.50151 -1.15282 0
M  V30 7168 H 638.213 1.62786 -1.36435 0
M  V30 7169 H 640.476 0.76514 -0.559701 0
M  V30 7170 H 640.182 3.14741 -1.56942 0
M  V30 7171 H 640.056 3.77143 0.0657922 0
M  V30 7172 H 642.443 2.90095 0.541211 0
M  V30 7173 H 642.524 2.29937 -1.12083 0
M  V30 7174 H 642.168 4.67894 -1.97578 0
M  V30 7175 H 642.098 5.25788 -0.292412 0
M  V30 7176 H 644.589 3.72918 -0.6116 0
M  V30 7177 H 644.902 7.49992 -1.86365 0
M  V30 7178 H 643.247 6.74655 -1.66929 0
M  V30 7179 H 646.438 4.6049 -0.840602 0
M  V30 7180 H 646.611 6.32444 -1.41133 0
M  V30 7181 N 640.017 0.126909 1.57088 0
M  V30 7182 C 640.964 -0.82036 2.15728 0
M  V30 7183 C 641.934 -1.25811 1.08447 0
M  V30 7184 O 643.119 -1.33422 1.36393 0
M  V30 7185 C 640.259 -2.06199 2.76724 0
M  V30 7186 C 639.372 -1.67188 3.98337 0
M  V30 7187 C 638.507 -2.86378 4.47393 0
M  V30 7188 C 637.546 -2.43644 5.61519 0
M  V30 7189 N 636.683 -3.55775 6.05284 0
M  V30 7190 H 641.523 -0.313472 2.96347 0
M  V30 7191 H 639.06 -0.14303 1.46403 0
M  V30 7192 H 641.018 -2.78959 3.10222 0
M  V30 7193 H 639.648 -2.54333 1.98782 0
M  V30 7194 H 638.7 -0.842714 3.70948 0
M  V30 7195 H 640.012 -1.31789 4.81075 0
M  V30 7196 H 639.166 -3.67353 4.82842 0
M  V30 7197 H 637.905 -3.25009 3.63621 0
M  V30 7198 H 636.91 -1.61104 5.25667 0
M  V30 7199 H 638.135 -2.06122 6.47063 0
M  V30 7200 H 636.081 -3.94065 5.24451 0
M  V30 7201 H 635.998 -3.24325 6.82898 0
M  V30 7202 H 637.266 -4.37166 6.45373 0
M  V30 7203 N 641.495 -1.56914 -0.146875 0
M  V30 7204 C 642.743 -1.82994 -0.85777 0
M  V30 7205 C 643.064 -0.707814 -1.817 0
M  V30 7206 O 642.334 0.270521 -1.94023 0
M  V30 7207 H 640.914 -0.675106 -0.319751 0
M  V30 7208 H 643.576 -1.9439 -0.140849 0
M  V30 7209 H 642.672 -2.77928 -1.41994 0
M  V30 7210 N 642.974 0.416227 -1.52004 0
M  V30 7211 C 644.202 1.18573 -1.69553 0
M  V30 7212 C 644.617 1.84472 -0.401919 0
M  V30 7213 O 643.974 1.71593 0.621463 0
M  V30 7214 C 644.025 2.25413 -2.82615 0
M  V30 7215 O 643.746 1.62205 -4.06966 0
M  V30 7216 C 645.247 3.15297 -3.11613 0
M  V30 7217 H 642.467 0.356582 -0.56841 0
M  V30 7218 H 645.011 0.490618 -1.98528 0
M  V30 7219 H 643.166 2.90604 -2.56179 0
M  V30 7220 H 643.58 2.3298 -4.69916 0
M  V30 7221 H 645.054 3.86351 -3.94255 0
M  V30 7222 H 645.531 3.77264 -2.24874 0
M  V30 7223 H 646.137 2.55783 -3.39787 0
M  V30 7224 N 644.452 1.42507 0.673017 0
M  V30 7225 C 645.399 1.46124 1.78651 0
M  V30 7226 C 646.369 0.313007 1.63124 0
M  V30 7227 O 647.554 0.517337 1.83653 0
M  V30 7228 C 644.694 1.3711 3.16694 0
M  V30 7229 C 643.807 2.61983 3.43495 0
M  V30 7230 C 642.942 2.45098 4.71275 0
M  V30 7231 C 641.981 3.65336 4.91117 0
M  V30 7232 N 641.118 3.47383 6.10139 0
M  V30 7233 H 645.958 2.4128 1.74895 0
M  V30 7234 H 643.495 1.19788 0.853766 0
M  V30 7235 H 645.453 1.29881 3.96468 0
M  V30 7236 H 644.083 0.45549 3.1957 0
M  V30 7237 H 643.135 2.79571 2.57961 0
M  V30 7238 H 644.447 3.51355 3.5405 0
M  V30 7239 H 643.601 2.35466 5.59143 0
M  V30 7240 H 642.34 1.53219 4.63007 0
M  V30 7241 H 641.345 3.754 4.0169 0
M  V30 7242 H 642.57 4.58199 5.01229 0
M  V30 7243 H 640.516 2.58222 6.0304 0
M  V30 7244 H 640.433 4.30344 6.21563 0
M  V30 7245 H 641.701 3.41565 7.00681 0
M  V30 7246 N 645.93 -0.909495 1.28709 0
M  V30 7247 C 647.178 -1.65577 1.15882 0
M  V30 7248 C 647.499 -1.928 -0.292108 0
M  V30 7249 O 646.769 -1.54716 -1.20166 0
M  V30 7250 H 645.349 -0.613714 0.425869 0
M  V30 7251 H 648.011 -1.09108 1.61498 0
M  V30 7252 H 647.107 -2.61634 1.70159 0
M  V30 7253 N 647.408 -1.11026 -1.11852 0
M  V30 7254 C 648.633 -0.879064 -1.87849 0
M  V30 7255 C 649.058 0.565406 -1.79401 0
M  V30 7256 O 648.416 1.39886 -1.15333 0
M  V30 7257 C 648.464 -1.33985 -3.34784 0
M  V30 7258 O 647.568 -0.508803 -4.09249 0
M  V30 7259 H 646.909 -0.316992 -0.583448 0
M  V30 7260 H 649.439 -1.47863 -1.41413 0
M  V30 7261 H 649.449 -1.33248 -3.85628 0
M  V30 7262 H 648.124 -2.39172 -3.40249 0
M  V30 7263 H 646.701 -0.581913 -3.68332 0
M  V30 7264 N 648.886 1.2938 -0.899927 0
M  V30 7265 C 649.796 2.31462 -0.382437 0
M  V30 7266 C 650.812 1.65956 0.522929 0
M  V30 7267 O 651.988 1.97131 0.412454 0
M  V30 7268 C 649.053 3.44595 0.381472 0
M  V30 7269 C 648.114 4.25692 -0.555444 0
M  V30 7270 C 647.347 5.33422 0.172102 0
M  V30 7271 O 647.57 5.53053 1.396 0
M  V30 7272 O 646.504 5.99939 -0.485491 0
M  V30 7273 H 650.33 2.77706 -1.22934 0
M  V30 7274 H 647.915 1.33821 -0.664259 0
M  V30 7275 H 649.797 4.13474 0.813442 0
M  V30 7276 H 648.472 3.00458 1.20443 0
M  V30 7277 H 647.379 3.59453 -1.03653 0
M  V30 7278 H 648.712 4.73471 -1.34483 0
M  V30 7279 N 650.364 0.662433 1.43002 0
M  V30 7280 C 651.641 0.109096 1.95296 0
M  V30 7281 C 652.021 -1.37313 1.60338 0
M  V30 7282 O 651.369 -2.1032 0.893187 0
M  V30 7283 C 651.579 0.365096 3.47085 0
M  V30 7284 C 652.927 0.274964 4.23709 0
M  V30 7285 O 653.951 0.29816 3.5495 0
M  V30 7286 O 652.81 0.206549 5.4611 0
M  V30 7287 H 649.904 -0.00429724 0.826989 0
M  V30 7288 H 652.45 0.736308 1.52894 0
M  V30 7289 H 651.222 1.39237 3.65689 0
M  V30 7290 H 650.845 -0.294733 3.96506 0
M  V30 7291 N 651.842 -1.52309 0.404946 0
M  V30 7292 C 653.067 -2.06666 -0.1743 0
M  V30 7293 C 653.492 -1.27341 -1.38441 0
M  V30 7294 O 652.85 -0.302539 -1.78758 0
M  V30 7295 C 652.898 -3.57014 -0.507262 0
M  V30 7296 O 652.002 -3.80144 -1.59889 0
M  V30 7297 H 651.343 -0.663807 -0.0160273 0
M  V30 7298 H 653.873 -1.96297 0.576937 0
M  V30 7299 H 653.883 -4.00724 -0.767098 0
M  V30 7300 H 652.558 -4.14184 0.377368 0
M  V30 7301 H 651.135 -3.48316 -1.33155 0
M  V30 7302 N 653.32 -0.135238 -1.57019 0
M  V30 7303 C 654.731 0.387521 -1.82634 0
M  V30 7304 C 655.082 1.65528 -1.05332 0
M  V30 7305 O 654.207 2.14381 -0.294926 0
M  V30 7306 C 654.802 0.709852 -3.3128 0
M  V30 7307 C 653.361 1.17718 -3.57518 0
M  V30 7308 C 652.508 0.194183 -2.76619 0
M  V30 7309 H 655.459 -0.360126 -1.5456 0
M  V30 7310 H 655.48 1.5657 -3.46794 0
M  V30 7311 H 654.992 -0.213024 -3.87515 0
M  V30 7312 H 653.093 2.1164 -3.06658 0
M  V30 7313 H 653.206 1.11128 -4.66034 0
M  V30 7314 H 651.57 0.684478 -2.4533 0
M  V30 7315 H 652.353 -0.722076 -3.3562 0
M  V30 7316 N 654.798 1.5699 0.138552 0
M  V30 7317 C 656.209 1.73171 0.697754 0
M  V30 7318 C 656.56 0.750952 1.8126 0
M  V30 7319 O 655.685 -0.080549 2.1625 0
M  V30 7320 C 656.28 3.13996 1.27248 0
M  V30 7321 C 654.839 3.3175 1.77816 0
M  V30 7322 C 653.986 2.69084 0.669991 0
M  V30 7323 H 656.937 1.5846 -0.0871979 0
M  V30 7324 H 656.958 3.14463 2.14227 0
M  V30 7325 H 656.47 3.85354 0.460855 0
M  V30 7326 H 654.571 2.65403 2.61519 0
M  V30 7327 H 654.684 4.39768 1.90107 0
M  V30 7328 H 653.048 2.29782 1.09874 0
M  V30 7329 H 653.831 3.43053 -0.130329 0
M  V30 7330 N 656.276 -0.40816 1.52223 0
M  V30 7331 C 657.223 -1.49737 1.75635 0
M  V30 7332 C 658.193 -1.5493 0.598824 0
M  V30 7333 O 659.378 -1.71487 0.83648 0
M  V30 7334 C 656.518 -2.87174 1.91376 0
M  V30 7335 C 655.631 -2.91283 3.19027 0
M  V30 7336 C 654.766 -4.20026 3.25195 0
M  V30 7337 C 653.805 -4.18113 4.47044 0
M  V30 7338 N 652.942 -5.38429 4.50598 0
M  V30 7339 H 657.782 -1.29075 2.68596 0
M  V30 7340 H 655.319 -0.626518 1.33091 0
M  V30 7341 H 657.277 -3.66959 1.98486 0
M  V30 7342 H 655.907 -3.06329 1.01795 0
M  V30 7343 H 654.959 -2.03984 3.21084 0
M  V30 7344 H 656.271 -2.85734 4.08849 0
M  V30 7345 H 655.425 -5.08204 3.31382 0
M  V30 7346 H 654.164 -4.28271 2.33313 0
M  V30 7347 H 653.169 -3.28325 4.41002 0
M  V30 7348 H 654.394 -4.11507 5.40221 0
M  V30 7349 H 652.34 -5.4734 3.616 0
M  V30 7350 H 652.257 -5.34879 5.34266 0
M  V30 7351 H 653.525 -6.28557 4.61016 0
M  V30 7352 N 657.755 -1.42862 -0.66545 0
M  V30 7353 C 658.705 -1.43521 -1.7716 0
M  V30 7354 C 659.689 -0.305267 -1.57978 0
M  V30 7355 O 660.881 -0.548176 -1.68297 0
M  V30 7356 C 658.01 -1.34914 -3.15679 0
M  V30 7357 C 657.096 -2.5289 -3.40452 0
M  V30 7358 N 657.487 -3.78284 -3.3576 0
M  V30 7359 C 655.785 -2.47351 -3.71124 0
M  V30 7360 C 656.486 -4.56701 -3.60276 0
M  V30 7361 N 655.462 -3.87249 -3.81496 0
M  V30 7362 H 659.264 -2.38357 -1.7194 0
M  V30 7363 H 656.778 -1.37342 -0.866653 0
M  V30 7364 H 658.775 -1.33468 -3.94958 0
M  V30 7365 H 657.435 -0.410881 -3.2209 0
M  V30 7366 H 658.446 -4.10746 -3.15448 0
M  V30 7367 H 655.123 -1.62152 -3.84725 0
M  V30 7368 H 656.513 -5.65704 -3.6253 0
M  V30 7369 N 659.233 0.902656 -1.29189 0
M  V30 7370 C 660.196 1.98797 -1.14071 0
M  V30 7371 C 661.196 1.60615 -0.0770549 0
M  V30 7372 O 662.386 1.71165 -0.323753 0
M  V30 7373 C 659.518 3.32688 -0.743739 0
M  V30 7374 H 660.711 2.13637 -2.10473 0
M  V30 7375 H 658.264 1.08678 -1.12334 0
M  V30 7376 H 658.999 3.23549 0.220554 0
M  V30 7377 H 658.784 3.61765 -1.51223 0
M  V30 7378 H 660.274 4.12337 -0.660935 0
M  V30 7379 N 660.711 1.11618 1.11262 0
M  V30 7380 C 661.959 0.864469 1.82678 0
M  V30 7381 C 662.28 -0.611564 1.85162 0
M  V30 7382 O 661.55 -1.44429 1.32352 0
M  V30 7383 H 660.13 0.316821 0.676486 0
M  V30 7384 H 662.792 1.40894 1.34666 0
M  V30 7385 H 661.888 1.23832 2.86482 0
M  V30 7386 N 662.189 -1.289 0.906776 0
M  V30 7387 C 663.137 -2.29477 0.379873 0
M  V30 7388 C 664.131 -1.61068 -0.524747 0
M  V30 7389 O 665.337 -1.75344 -0.406765 0
M  V30 7390 H 661.712 -0.744742 0.10423 0
M  V30 7391 H 663.683 -2.71353 1.24137 0
M  V30 7392 C 662.432 -3.45713 -0.371154 0
M  V30 7393 H 661.755 -3.98551 0.315716 0
M  V30 7394 H 663.195 -4.18105 -0.704581 0
M  V30 7395 C 661.654 -2.9774 -1.57646 0
M  V30 7396 O 662.184 -2.99618 -2.67567 0
M  V30 7397 N 660.39 -2.53485 -1.42105 0
M  V30 7398 H 659.937 -2.52156 -0.526783 0
M  V30 7399 H 659.895 -2.21747 -2.22881 0
M  V30 7400 N 663.667 -0.670007 -1.42649 0
M  V30 7401 C 664.615 0.0230106 -2.32589 0
M  V30 7402 C 665.609 0.795585 -1.49555 0
M  V30 7403 O 666.815 0.70409 -1.65658 0
M  V30 7404 H 663.19 0.0262342 -0.751542 0
M  V30 7405 H 665.161 -0.753009 -2.88743 0
M  V30 7406 C 663.91 0.963872 -3.34073 0
M  V30 7407 H 663.233 0.378813 -3.98001 0
M  V30 7408 H 664.673 1.41755 -3.99602 0
M  V30 7409 C 663.132 2.06797 -2.65964 0
M  V30 7410 O 663.662 3.15383 -2.48789 0
M  V30 7411 N 661.868 1.83831 -2.25066 0
M  V30 7412 H 661.415 0.955235 -2.39234 0
M  V30 7413 H 661.373 2.57895 -1.79827 0
M  V30 7414 N 665.145 1.52092 -0.413018 0
M  V30 7415 C 666.055 2.30858 0.417318 0
M  V30 7416 C 667.071 1.38746 1.05003 0
M  V30 7417 O 668.247 1.71821 1.05069 0
M  V30 7418 C 665.312 3.11756 1.51687 0
M  V30 7419 C 664.373 4.19613 0.906825 0
M  V30 7420 C 663.606 4.96644 1.95399 0
M  V30 7421 O 663.829 4.7402 3.17271 0
M  V30 7422 O 662.763 5.81385 1.55805 0
M  V30 7423 H 666.589 3.02865 -0.225028 0
M  V30 7424 H 664.174 1.48358 -0.176126 0
M  V30 7425 H 666.056 3.62122 2.15512 0
M  V30 7426 H 664.731 2.42539 2.14375 0
M  V30 7427 H 663.638 3.73385 0.231183 0
M  V30 7428 H 664.971 4.91134 0.323814 0
M  V30 7429 N 666.623 0.143563 1.56945 0
M  V30 7430 C 667.848 -0.518701 2.00809 0
M  V30 7431 C 668.273 -1.5785 1.02298 0
M  V30 7432 O 667.631 -1.813 -0.0017839 0
M  V30 7433 C 667.679 -1.09929 3.43436 0
M  V30 7434 O 666.783 -2.21425 3.47915 0
M  V30 7435 H 666.124 -0.127215 0.6517 0
M  V30 7436 H 668.654 0.239283 2.03196 0
M  V30 7437 H 668.664 -1.4288 3.82164 0
M  V30 7438 H 667.339 -0.323162 4.14643 0
M  V30 7439 H 665.916 -1.89728 3.21026 0
M  V30 7440 N 668.101 -1.57061 -0.130224 0
M  V30 7441 C 669.051 -1.95941 -1.16582 0
M  V30 7442 C 670.035 -0.832858 -1.37667 0
M  V30 7443 O 671.227 -1.09647 -1.38948 0
M  V30 7444 C 668.356 -2.35777 -2.49528 0
M  V30 7445 C 667.442 -3.5504 -2.31964 0
M  V30 7446 N 667.833 -4.71071 -1.84189 0
M  V30 7447 C 666.131 -3.60453 -2.62659 0
M  V30 7448 C 666.832 -5.53128 -1.80068 0
M  V30 7449 N 665.808 -4.95303 -2.24001 0
M  V30 7450 H 669.61 -2.83117 -0.788806 0
M  V30 7451 H 667.124 -1.58842 -0.3381 0
M  V30 7452 H 669.121 -2.61843 -3.24413 0
M  V30 7453 H 667.781 -1.49961 -2.87996 0
M  V30 7454 H 668.792 -4.94504 -1.53903 0
M  V30 7455 H 665.469 -2.85217 -3.0489 0
M  V30 7456 H 666.859 -6.56182 -1.4448 0
M  V30 7457 N 669.579 0.400081 -1.52437 0
M  V30 7458 C 670.804 1.17221 -1.71096 0
M  V30 7459 C 671.229 1.83269 -0.423565 0
M  V30 7460 O 670.587 1.70378 0.619751 0
M  V30 7461 C 670.635 2.20425 -2.85386 0
M  V30 7462 O 669.739 3.26769 -2.51586 0
M  V30 7463 H 669.08 0.341766 -0.569291 0
M  V30 7464 H 671.61 0.467772 -1.99181 0
M  V30 7465 H 671.62 2.64605 -3.10561 0
M  V30 7466 H 670.295 1.71737 -3.78786 0
M  V30 7467 H 668.872 2.87804 -2.37114 0
M  V30 7468 N 671.057 1.43213 0.657864 0
M  V30 7469 C 672.282 1.48227 1.45064 0
M  V30 7470 C 672.707 0.0999939 1.87834 0
M  V30 7471 O 672.065 -0.905269 1.57081 0
M  V30 7472 C 672.113 2.42931 2.6649 0
M  V30 7473 O 671.217 1.91237 3.6538 0
M  V30 7474 H 670.558 0.501551 0.435135 0
M  V30 7475 H 673.088 1.8808 0.805431 0
M  V30 7476 H 673.098 2.6008 3.1436 0
M  V30 7477 H 671.773 3.43348 2.34701 0
M  V30 7478 H 670.35 1.83726 3.24498 0
M  V30 7479 N 672.536 -0.895792 1.29666 0
M  V30 7480 C 673.952 -1.17726 1.07763 0
M  V30 7481 C 674.152 -2.00794 -0.168576 0
M  V30 7482 O 673.208 -2.37213 -0.865244 0
M  V30 7483 C 674.521 -1.89441 2.33522 0
M  V30 7484 C 676.069 -2.02251 2.3888 0
M  V30 7485 C 676.544 -2.77378 3.64452 0
M  V30 7486 N 678.035 -2.8493 3.65198 0
M  V30 7487 C 678.77 -3.43606 4.59045 0
M  V30 7488 N 678.266 -4.03417 5.63228 0
M  V30 7489 N 680.059 -3.41317 4.46608 0
M  V30 7490 H 672.21 -0.341652 2.09634 0
M  V30 7491 H 674.473 -0.213865 0.923561 0
M  V30 7492 H 674.179 -1.35842 3.24407 0
M  V30 7493 H 674.053 -2.89893 2.41334 0
M  V30 7494 H 676.44 -2.55025 1.4848 0
M  V30 7495 H 676.521 -1.0092 2.3505 0
M  V30 7496 H 676.165 -2.25279 4.55205 0
M  V30 7497 H 676.095 -3.79062 3.65541 0
M  V30 7498 H 678.586 -2.42453 2.89871 0
M  V30 7499 H 678.899 -4.46224 6.30955 0
M  V30 7500 H 677.244 -4.01868 5.67033 0
M  V30 7501 H 680.435 -2.93812 3.64407 0
M  V30 7502 H 680.608 -3.86751 5.1993 0
M  V30 7503 N 674.014 -1.12206 -1.10668 0
M  V30 7504 C 675.43 -0.857619 -1.346 0
M  V30 7505 C 675.63 0.513542 -1.94846 0
M  V30 7506 O 674.686 1.26273 -2.18658 0
M  V30 7507 C 675.999 -1.97212 -2.26998 0
M  V30 7508 C 677.547 -2.00272 -2.40542 0
M  V30 7509 C 678.022 -3.10948 -3.36267 0
M  V30 7510 N 679.513 -3.10375 -3.43834 0
M  V30 7511 C 680.248 -3.92651 -4.17867 0
M  V30 7512 N 679.744 -4.84911 -4.94807 0
M  V30 7513 N 681.537 -3.80798 -4.1346 0
M  V30 7514 H 673.688 -2.00558 -0.699306 0
M  V30 7515 H 675.951 -0.872612 -0.370477 0
M  V30 7516 H 675.657 -2.96002 -1.89936 0
M  V30 7517 H 675.531 -1.87521 -3.27286 0
M  V30 7518 H 677.918 -1.02103 -2.76874 0
M  V30 7519 H 677.999 -2.14037 -1.40077 0
M  V30 7520 H 677.643 -4.09348 -3.00661 0
M  V30 7521 H 677.573 -2.94421 -4.36605 0
M  V30 7522 H 680.064 -2.43536 -2.88961 0
M  V30 7523 H 680.377 -5.44207 -5.48688 0
M  V30 7524 H 678.722 -4.88926 -4.93939 0
M  V30 7525 H 681.913 -3.08058 -3.52445 0
M  V30 7526 H 682.086 -4.4515 -4.70898 0
M  V30 7527 N 675.492 1.28418 -0.913599 0
M  V30 7528 C 676.908 1.47411 -0.611728 0
M  V30 7529 C 677.108 1.83018 0.843008 0
M  V30 7530 O 676.164 1.93505 1.6221 0
M  V30 7531 C 677.477 2.57703 -1.5495 0
M  V30 7532 C 679.025 2.71572 -1.5562 0
M  V30 7533 C 679.5 3.85008 -2.48058 0
M  V30 7534 N 680.991 3.92361 -2.46184 0
M  V30 7535 C 681.726 4.79516 -3.14407 0
M  V30 7536 N 681.222 5.71262 -3.91958 0
M  V30 7537 N 683.015 4.73125 -3.03495 0
M  V30 7538 H 675.166 1.03585 -1.85429 0
M  V30 7539 H 677.429 0.515907 -0.795326 0
M  V30 7540 H 677.135 2.38298 -2.58663 0
M  V30 7541 H 677.009 3.54801 -1.28048 0
M  V30 7542 H 679.396 2.90366 -0.526441 0
M  V30 7543 H 679.477 1.75006 -1.86565 0
M  V30 7544 H 679.121 3.66969 -3.51136 0
M  V30 7545 H 679.051 4.80971 -2.14416 0
M  V30 7546 H 681.542 3.26749 -1.89851 0
M  V30 7547 H 681.855 6.34593 -4.41034 0
M  V30 7548 H 680.2 5.71103 -3.96063 0
M  V30 7549 H 683.391 4.00442 -2.42413 0
M  V30 7550 H 683.564 5.40834 -3.56935 0
M  V30 7551 N 676.97 0.677563 1.42291 0
M  V30 7552 C 677.918 -0.0106755 2.32598 0
M  V30 7553 C 678.912 -0.787643 1.49975 0
M  V30 7554 O 680.118 -0.695295 1.66029 0
M  V30 7555 H 676.493 -0.0222482 0.751671 0
M  V30 7556 H 678.464 0.768312 2.88339 0
M  V30 7557 C 677.213 -0.946142 3.3458 0
M  V30 7558 H 676.536 -0.357701 3.98197 0
M  V30 7559 H 677.976 -1.39634 4.00348 0
M  V30 7560 C 676.435 -2.05383 2.67057 0
M  V30 7561 O 676.965 -3.1406 2.50458 0
M  V30 7562 N 675.171 -1.82635 2.26038 0
M  V30 7563 H 674.718 -0.942534 2.39737 0
M  V30 7564 H 674.676 -2.56937 1.81192 0
M  V30 7565 N 678.448 -1.51871 0.421078 0
M  V30 7566 C 679.864 -1.59435 0.0725398 0
M  V30 7567 C 680.064 -1.43315 -1.41644 0
M  V30 7568 O 679.12 -1.26614 -2.18461 0
M  V30 7569 C 680.433 -2.9509 0.578132 0
M  V30 7570 C 681.981 -3.08356 0.537149 0
M  V30 7571 C 682.456 -4.4651 1.01945 0
M  V30 7572 N 683.947 -4.52784 0.976758 0
M  V30 7573 C 684.682 -5.57976 1.32099 0
M  V30 7574 N 684.178 -6.70664 1.73727 0
M  V30 7575 N 685.971 -5.48248 1.2402 0
M  V30 7576 H 678.122 -1.60595 1.39007 0
M  V30 7577 H 680.385 -0.756138 0.571803 0
M  V30 7578 H 680.091 -3.12205 1.61929 0
M  V30 7579 H 679.965 -3.772 -0.00578374 0
M  V30 7580 H 682.352 -2.90919 -0.494991 0
M  V30 7581 H 682.433 -2.28125 1.15727 0
M  V30 7582 H 682.077 -4.64692 2.04997 0
M  V30 7583 H 682.007 -5.25256 0.376023 0
M  V30 7584 H 684.498 -3.71898 0.670851 0
M  V30 7585 H 684.811 -7.46932 1.98274 0
M  V30 7586 H 683.156 -6.71914 1.77641 0
M  V30 7587 H 686.347 -4.59095 0.913756 0
M  V30 7588 H 686.52 -6.30119 1.51176 0
M  V30 7589 N 679.926 -0.151884 -1.56866 0
M  V30 7590 C 680.876 0.797799 -2.13586 0
M  V30 7591 C 681.86 1.20613 -1.06496 0
M  V30 7592 O 683.052 1.17173 -1.32663 0
M  V30 7593 C 680.181 2.03493 -2.76488 0
M  V30 7594 C 679.267 1.64948 -3.90708 0
M  V30 7595 N 679.658 0.972513 -4.96363 0
M  V30 7596 C 677.956 1.94186 -4.01507 0
M  V30 7597 C 678.657 0.785661 -5.7637 0
M  V30 7598 N 677.633 1.32105 -5.27304 0
M  V30 7599 H 681.435 0.271403 -2.92644 0
M  V30 7600 H 678.949 0.049487 -1.62325 0
M  V30 7601 H 680.946 2.72532 -3.15487 0
M  V30 7602 H 679.606 2.56646 -1.98904 0
M  V30 7603 H 680.617 0.632724 -5.1402 0
M  V30 7604 H 677.294 2.49154 -3.35005 0
M  V30 7605 H 678.684 0.251749 -6.71428 0
M  V30 7606 N 681.404 1.57128 0.121893 0
M  V30 7607 C 682.629 1.89254 0.848385 0
M  V30 7608 C 683.054 0.743527 1.72781 0
M  V30 7609 O 682.412 -0.306056 1.78698 0
M  V30 7610 C 682.46 3.20113 1.66012 0
M  V30 7611 O 681.564 3.05815 2.76679 0
M  V30 7612 H 680.905 0.621103 0.234793 0
M  V30 7613 H 683.435 2.0433 0.10516 0
M  V30 7614 H 683.445 3.52761 2.04996 0
M  V30 7615 H 682.12 4.03336 1.01452 0
M  V30 7616 H 680.697 2.84627 2.40918 0
M  V30 7617 N 682.882 -0.391992 1.52647 0
M  V30 7618 C 683.829 -1.47866 1.77213 0
M  V30 7619 C 684.799 -1.54286 0.615223 0
M  V30 7620 O 685.984 -1.7059 0.854622 0
M  V30 7621 C 683.124 -2.85129 1.94411 0
M  V30 7622 C 682.237 -2.87883 3.22098 0
M  V30 7623 C 681.372 -4.16553 3.29631 0
M  V30 7624 C 680.411 -4.13348 4.51453 0
M  V30 7625 N 679.548 -5.33619 4.56284 0
M  V30 7626 H 684.388 -1.26219 2.6995 0
M  V30 7627 H 681.925 -0.612367 1.33748 0
M  V30 7628 H 683.883 -3.64833 2.02367 0
M  V30 7629 H 682.513 -3.05232 1.05038 0
M  V30 7630 H 681.565 -2.00567 3.23229 0
M  V30 7631 H 682.877 -2.81382 4.11856 0
M  V30 7632 H 682.031 -5.0466 3.36753 0
M  V30 7633 H 680.77 -4.25773 2.37842 0
M  V30 7634 H 679.775 -3.23629 4.44459 0
M  V30 7635 H 681 -4.05754 5.44555 0
M  V30 7636 H 678.946 -5.43474 3.67385 0
M  V30 7637 H 678.863 -5.29182 5.3991 0
M  V30 7638 H 680.131 -6.23632 4.67657 0
M  V30 7639 N 684.36 -1.4356 -0.65026 0
M  V30 7640 C 685.585 -1.48995 -1.44275 0
M  V30 7641 C 686.01 -0.109954 -1.87778 0
M  V30 7642 O 685.368 0.896926 -1.57559 0
M  V30 7643 C 685.416 -2.44341 -2.65198 0
M  V30 7644 O 684.52 -1.93172 -3.6436 0
M  V30 7645 H 683.861 -0.503852 -0.432469 0
M  V30 7646 H 686.391 -1.88504 -0.795446 0
M  V30 7647 H 686.401 -2.61743 -3.12977 0
M  V30 7648 H 685.076 -3.44588 -2.32877 0
M  V30 7649 H 683.653 -1.85445 -3.23519 0
M  V30 7650 N 685.838 0.888903 -1.30139 0
M  V30 7651 C 686.785 1.99422 -1.16188 0
M  V30 7652 C 687.755 1.66017 -0.0523869 0
M  V30 7653 O 688.94 1.89506 -0.221864 0
M  V30 7654 C 686.08 3.34325 -0.855612 0
M  V30 7655 C 685.193 3.80445 -2.0466 0
M  V30 7656 C 684.328 5.03975 -1.67876 0
M  V30 7657 C 683.367 5.42492 -2.83493 0
M  V30 7658 N 682.504 6.57206 -2.47032 0
M  V30 7659 H 687.344 2.10687 -2.10749 0
M  V30 7660 H 684.881 1.03165 -1.04859 0
M  V30 7661 H 686.839 4.11968 -0.658681 0
M  V30 7662 H 685.469 3.22756 0.0531155 0
M  V30 7663 H 684.521 2.98745 -2.3549 0
M  V30 7664 H 685.833 4.04933 -2.91257 0
M  V30 7665 H 684.987 5.89232 -1.44535 0
M  V30 7666 H 683.726 4.8135 -0.784431 0
M  V30 7667 H 682.731 4.55764 -3.07505 0
M  V30 7668 H 683.956 5.67093 -3.73607 0
M  V30 7669 H 681.902 6.36164 -1.601 0
M  V30 7670 H 681.819 6.81543 -3.27161 0
M  V30 7671 H 683.087 7.45704 -2.27038 0
M  V30 7672 N 687.317 1.12792 1.10072 0
M  V30 7673 C 688.563 0.886857 1.82381 0
M  V30 7674 C 688.896 -0.58576 1.85155 0
M  V30 7675 O 688.171 -1.43317 1.31493 0
M  V30 7676 C 688.454 1.46703 3.28862 0
M  V30 7677 C 688.307 3.00829 3.34398 0
M  V30 7678 C 689.626 1.12971 4.25353 0
M  V30 7679 H 686.745 0.32362 0.662148 0
M  V30 7680 H 689.387 1.39513 1.28982 0
M  V30 7681 H 687.537 1.03476 3.74466 0
M  V30 7682 H 689.209 3.52764 2.97247 0
M  V30 7683 H 687.452 3.36164 2.74183 0
M  V30 7684 H 688.123 3.36519 4.3756 0
M  V30 7685 H 690.599 1.50313 3.88001 0
M  V30 7686 H 689.475 1.56223 5.26199 0
M  V30 7687 H 689.736 0.0424452 4.4208 0
M  V30 7688 N 688.795 -1.27931 0.920396 0
M  V30 7689 C 690.023 -1.98805 0.573087 0
M  V30 7690 C 690.438 -1.68724 -0.847201 0
M  V30 7691 O 689.795 -0.943699 -1.56207 0
M  V30 7692 C 689.846 -3.52971 0.780633 0
M  V30 7693 O 689.567 -3.81994 2.14504 0
M  V30 7694 C 691.068 -4.411 0.44105 0
M  V30 7695 H 688.288 -0.634651 0.21785 0
M  V30 7696 H 690.832 -1.62965 1.23542 0
M  V30 7697 H 688.987 -3.87048 0.165204 0
M  V30 7698 H 689.401 -4.76609 2.18962 0
M  V30 7699 H 690.875 -5.48312 0.637006 0
M  V30 7700 H 691.352 -4.34758 -0.62306 0
M  V30 7701 H 691.958 -4.12532 1.0343 0
M  V30 7702 N 690.273 -0.685099 -1.4193 0
M  V30 7703 C 691.221 -0.00165985 -2.326 0
M  V30 7704 C 692.215 0.779678 -1.50391 0
M  V30 7705 O 693.421 0.68648 -1.66395 0
M  V30 7706 H 689.796 0.0182616 -0.751778 0
M  V30 7707 H 691.767 -0.783592 -2.87928 0
M  V30 7708 C 690.516 0.928385 -3.35077 0
M  V30 7709 H 689.839 0.336578 -3.98381 0
M  V30 7710 H 691.279 1.37509 -4.01083 0
M  V30 7711 C 689.738 2.03964 -2.68142 0
M  V30 7712 O 690.268 3.12727 -2.5212 0
M  V30 7713 N 688.474 1.81433 -2.27003 0
M  V30 7714 H 688.021 0.929807 -2.40234 0
M  V30 7715 H 687.979 2.55973 -1.82552 0
M  V30 7716 N 691.751 1.51645 -0.429126 0
M  V30 7717 C 692.999 2.01616 0.139802 0
M  V30 7718 C 693.32 1.31568 1.43927 0
M  V30 7719 O 692.59 0.447688 1.90716 0
M  V30 7720 H 691.17 0.744998 0.054654 0
M  V30 7721 H 693.832 1.8638 -0.569952 0
M  V30 7722 H 692.928 3.10439 0.321609 0
M  V30 7723 N 693.229 0.160201 1.56784 0
M  V30 7724 C 694.475 -0.48831 1.96833 0
M  V30 7725 C 694.808 -1.63641 1.04571 0
M  V30 7726 O 694.083 -1.94289 0.0906481 0
M  V30 7727 C 694.366 -0.981908 3.46454 0
M  V30 7728 C 694.219 0.165607 4.49495 0
M  V30 7729 C 695.538 -1.85931 3.98896 0
M  V30 7730 H 692.657 -0.176027 0.71567 0
M  V30 7731 H 695.299 0.244093 1.88426 0
M  V30 7732 H 693.449 -1.60602 3.5375 0
M  V30 7733 H 695.121 0.802372 4.54268 0
M  V30 7734 H 693.364 0.822789 4.25926 0
M  V30 7735 H 694.035 -0.221699 5.51555 0
M  V30 7736 H 696.511 -1.33327 3.94161 0
M  V30 7737 H 695.387 -2.17373 5.04024 0
M  V30 7738 H 695.648 -2.80106 3.42042 0
M  V30 7739 N 694.707 -1.5719 -0.113559 0
M  V30 7740 C 695.955 -1.84772 -0.818761 0
M  V30 7741 C 696.276 -0.746196 -1.80158 0
M  V30 7742 O 695.546 0.229305 -1.94553 0
M  V30 7743 H 694.126 -0.681737 -0.305359 0
M  V30 7744 H 696.788 -1.94645 -0.0995845 0
M  V30 7745 H 695.884 -2.80878 -1.36067 0
M  V30 7746 N 696.185 0.383891 -1.52853 0
M  V30 7747 C 697.132 1.46924 -1.77995 0
M  V30 7748 C 698.102 1.53958 -0.623396 0
M  V30 7749 O 699.287 1.70134 -0.863657 0
M  V30 7750 C 696.427 2.84093 -1.95921 0
M  V30 7751 C 695.54 2.86171 -3.23621 0
M  V30 7752 C 694.675 4.14799 -3.31836 0
M  V30 7753 C 693.714 4.10948 -4.53639 0
M  V30 7754 N 692.851 5.31192 -4.59107 0
M  V30 7755 H 697.691 1.24786 -2.70615 0
M  V30 7756 H 695.228 0.605265 -1.34071 0
M  V30 7757 H 697.186 3.63755 -2.04299 0
M  V30 7758 H 695.816 3.04671 -1.06656 0
M  V30 7759 H 694.868 1.9885 -3.24288 0
M  V30 7760 H 696.18 2.79194 -4.13343 0
M  V30 7761 H 695.334 5.02867 -3.39425 0
M  V30 7762 H 694.073 4.24505 -2.40097 0
M  V30 7763 H 693.078 3.21268 -4.46169 0
M  V30 7764 H 694.303 4.0286 -5.467 0
M  V30 7765 H 692.249 5.41518 -3.70262 0
M  V30 7766 H 692.166 5.26311 -5.42708 0
M  V30 7767 H 693.434 6.21143 -4.70958 0
M  V30 7768 N 697.663 1.43903 0.642637 0
M  V30 7769 C 698.61 1.49881 1.75512 0
M  V30 7770 C 699.58 0.347538 1.62423 0
M  V30 7771 O 700.765 0.556177 1.82514 0
M  V30 7772 C 697.905 1.43797 3.13714 0
M  V30 7773 C 697.018 2.6921 3.37861 0
M  V30 7774 C 696.153 2.5504 4.6597 0
M  V30 7775 C 695.192 3.75671 4.83257 0
M  V30 7776 N 694.329 3.60247 6.02633 0
M  V30 7777 H 699.169 2.44935 1.69737 0
M  V30 7778 H 696.706 1.21572 0.828165 0
M  V30 7779 H 698.664 1.38262 3.93624 0
M  V30 7780 H 697.294 0.523173 3.18532 0
M  V30 7781 H 696.346 2.8498 2.51973 0
M  V30 7782 H 697.658 3.58786 3.46517 0
M  V30 7783 H 696.812 2.47273 5.54023 0
M  V30 7784 H 695.551 1.63006 4.59653 0
M  V30 7785 H 694.556 3.83836 3.93637 0
M  V30 7786 H 695.781 4.68728 4.91397 0
M  V30 7787 H 693.727 2.70955 5.97427 0
M  V30 7788 H 693.644 4.43431 6.12295 0
M  V30 7789 H 694.912 3.56351 6.93278 0
M  V30 7790 O 699.18 -0.78588 1.41089 0
M  V30 7791 H 699.871 -1.43226 1.30407 0
M  V30 END ATOM
M  V30 BEGIN BOND
M  V30 END BOND
M  V30 END CTAB
M  END
$$$$
