drugbank_target|P48745 Protein NOV homolog (DB00071)
 OpenBabel12092119483D

  0  0  0     0  0            999 V3000
M  V30 BEGIN CTAB
M  V30 COUNTS 5385 5433 0 0 0
M  V30 BEGIN ATOM
M  V30 1 H -0.908 1.98254 -0.117106 0
M  V30 2 N 0 1.576 0 0
M  V30 3 C 0.933 2.03868 1.02534 0
M  V30 4 C 1.911 0.928543 1.3348 0
M  V30 5 O 3.095 1.19667 1.45644 0
M  V30 6 C 0.222 2.43627 2.35294 0
M  V30 7 C -0.732 3.65373 2.2001 0
M  V30 8 S 0.101 5.13292 1.52614 0
M  V30 9 C 1.257 5.56322 2.86805 0
M  V30 10 H 1.49 2.90518 0.631377 0
M  V30 11 H -0.977 1.52953 0.210867 0
M  V30 12 H 0.981 2.67203 3.11629 0
M  V30 13 H -0.358 1.57376 2.7183 0
M  V30 14 H -1.165 3.90944 3.18086 0
M  V30 15 H -1.563 3.418 1.51819 0
M  V30 16 H 0.729 5.58782 3.83104 0
M  V30 17 H 1.672 6.56266 2.65933 0
M  V30 18 H 2.08 4.83886 2.90714 0
M  V30 19 N 1.4781 -0.272755 1.55222 0
M  V30 20 C 2.4101 -1.35946 1.8453 0
M  V30 21 C 3.4231 -1.45525 0.729818 0
M  V30 22 O 4.6121 -1.47337 1.00767 0
M  V30 23 C 1.7121 -2.74069 1.99347 0
M  V30 24 C 0.8851 -2.87079 3.30007 0
M  V30 25 C -0.0559 -4.05879 3.34886 0
M  V30 26 O -1.0299 -3.96626 4.08261 0
M  V30 27 N 0.1721 -5.17857 2.62307 0
M  V30 28 H 2.9371 -1.11149 2.78327 0
M  V30 29 H 0.4981 -0.462869 1.55142 0
M  V30 30 H 2.4901 -3.51838 1.99981 0
M  V30 31 H 1.0601 -2.91688 1.12415 0
M  V30 32 H 0.2801 -1.96193 3.41909 0
M  V30 33 H 1.5681 -2.92701 4.16177 0
M  V30 34 H 0.9661 -5.28261 2.02377 0
M  V30 35 H -0.4769 -5.93855 2.68663 0
M  V30 36 N 2.9562 -1.48159 -0.537278 0
M  V30 37 C 4.1812 -1.59707 -1.32319 0
M  V30 38 C 4.6062 -0.254859 -1.86365 0
M  V30 39 O 3.9642 0.772378 -1.64024 0
M  V30 40 C 4.0122 -2.6412 -2.45505 0
M  V30 41 O 3.1162 -2.20774 -3.48328 0
M  V30 42 H 2.4572 -0.535791 -0.392204 0
M  V30 43 H 4.9872 -1.94092 -0.647268 0
M  V30 44 H 4.9972 -2.85166 -2.91795 0
M  V30 45 H 3.6722 -3.61567 -2.05528 0
M  V30 46 H 2.2492 -2.09911 -3.08207 0
M  V30 47 N 4.4343 0.785586 -1.36625 0
M  V30 48 C 5.6803 1.54591 -1.31261 0
M  V30 49 C 6.0133 1.93906 0.106823 0
M  V30 50 O 5.2883 1.63007 1.06108 0
M  V30 51 C 5.5713 2.82038 -2.23889 0
M  V30 52 C 5.4243 2.49066 -3.74548 0
M  V30 53 C 6.7433 3.83887 -2.15217 0
M  V30 54 H 3.8623 0.560846 -0.478143 0
M  V30 55 H 6.5043 0.902278 -1.67209 0
M  V30 56 H 4.6543 3.36961 -1.93363 0
M  V30 57 H 6.3263 2.00164 -4.15611 0
M  V30 58 H 4.5693 1.81954 -3.93796 0
M  V30 59 H 5.2403 3.40109 -4.34776 0
M  V30 60 H 7.7163 3.38421 -2.42096 0
M  V30 61 H 6.5923 4.70806 -2.82193 0
M  V30 62 H 6.8533 4.27131 -1.14068 0
M  V30 63 N 5.9124 1.20967 1.01018 0
M  V30 64 C 6.8444 0.922059 2.09835 0
M  V30 65 C 7.8574 -0.0927106 1.62536 0
M  V30 66 O 9.0464 0.139127 1.77957 0
M  V30 67 C 6.1464 0.362004 3.36961 0
M  V30 68 C 5.3194 1.42986 4.13369 0
M  V30 69 C 4.3784 0.879976 5.1879 0
M  V30 70 O 3.4044 1.56219 5.47343 0
M  V30 71 N 4.6064 -0.307396 5.79686 0
M  V30 72 H 7.3714 1.8588 2.35093 0
M  V30 73 H 4.9324 1.11422 1.1746 0
M  V30 74 H 6.9244 -0.0201474 4.04695 0
M  V30 75 H 5.4944 -0.479437 3.08902 0
M  V30 76 H 4.7144 1.98608 3.40512 0
M  V30 77 H 6.0024 2.14885 4.61196 0
M  V30 78 H 5.4004 -0.878796 5.58832 0
M  V30 79 H 3.9574 -0.631115 6.48737 0
M  V30 80 N 7.3905 -1.2043 1.01659 0
M  V30 81 C 8.6155 -1.94318 0.724942 0
M  V30 82 C 9.0405 -1.74266 -0.708034 0
M  V30 83 O 8.3985 -1.03694 -1.48719 0
M  V30 84 C 8.4465 -3.44486 1.06591 0
M  V30 85 O 7.5505 -4.12017 0.177599 0
M  V30 86 H 6.8915 -0.60708 0.26898 0
M  V30 87 H 9.4215 -1.52861 1.35995 0
M  V30 88 H 9.4315 -3.95106 1.01762 0
M  V30 89 H 8.1065 -3.58404 2.10997 0
M  V30 90 H 6.6835 -3.71821 0.283421 0
M  V30 91 N 8.8686 -0.792821 -1.36206 0
M  V30 92 C 10.0966 -0.378825 -2.03402 0
M  V30 93 C 10.5116 1.00586 -1.59774 0
M  V30 94 O 9.8686 1.64574 -0.788764 0
M  V30 95 C 9.9196 -0.43683 -3.58851 0
M  V30 96 O 9.6406 -1.76691 -4.00889 0
M  V30 97 C 11.1416 -0.0138943 -4.43298 0
M  V30 98 H 8.3616 -0.155673 -0.652692 0
M  V30 99 H 10.9056 -1.07261 -1.74113 0
M  V30 100 H 9.0606 0.208575 -3.86838 0
M  V30 101 H 9.4746 -1.72011 -4.95492 0
M  V30 102 H 10.9486 -0.105615 -5.51899 0
M  V30 103 H 11.4256 1.03915 -4.2673 0
M  V30 104 H 12.0316 -0.63192 -4.20579 0
M  V30 105 N 10.3467 1.47872 -0.545128 0
M  V30 106 C 11.5717 2.07391 -0.0190611 0
M  V30 107 C 11.9967 1.39688 1.25971 0
M  V30 108 O 11.3547 0.467816 1.7516 0
M  V30 109 C 11.4027 3.60188 0.172335 0
M  V30 110 O 10.5067 3.9339 1.23766 0
M  V30 111 H 9.8477 0.662411 -0.0459059 0
M  V30 112 H 12.3777 1.90066 -0.757365 0
M  V30 113 H 12.3877 4.06129 0.390305 0
M  V30 114 H 11.0627 4.08865 -0.761725 0
M  V30 115 H 9.6397 3.5921 1.00114 0
M  V30 116 N 11.8248 0.280983 1.55075 0
M  V30 117 C 13.0718 -0.334115 1.99725 0
M  V30 118 C 13.3998 -1.5542 1.1694 0
M  V30 119 O 12.6548 -1.94361 0.228531 0
M  V30 120 C 12.9538 -0.754656 3.49342 0
M  V30 121 C 12.6198 0.361445 4.49449 0
M  V30 122 C 11.2818 0.667893 4.76542 0
M  V30 123 C 13.6338 1.11322 5.09173 0
M  V30 124 C 10.9618 1.7296 5.60626 0
M  V30 125 C 13.3138 2.1647 5.9441 0
M  V30 126 C 11.9778 2.47742 6.19822 0
M  V30 127 H 11.2478 -0.122261 0.730844 0
M  V30 128 H 13.8948 0.395917 1.87363 0
M  V30 129 H 12.1998 -1.56446 3.5921 0
M  V30 130 H 13.8968 -1.24142 3.813 0
M  V30 131 H 10.4868 0.112481 4.28452 0
M  V30 132 H 14.6708 0.88973 4.8826 0
M  V30 133 H 9.9268 1.97684 5.78559 0
M  V30 134 H 14.1008 2.75193 6.3972 0
M  V30 135 H 11.7278 3.30145 6.84769 0
M  V30 136 N 13.3029 -1.57598 0.00835791 0
M  V30 137 C 14.5429 -1.92788 -0.679136 0
M  V30 138 C 14.9069 -0.883378 -1.70471 0
M  V30 139 O 16.1079 -1.12079 -2.44319 0
M  V30 140 C 14.3789 -3.32994 -1.29807 0
M  V30 141 S 15.9379 -3.90082 -2.00952 0
M  V30 142 H 12.7559 -0.67475 -0.224127 0
M  V30 143 H 15.3579 -1.95385 0.0670497 0
M  V30 144 H 14.0619 -4.06846 -0.538922 0
M  V30 145 H 13.5929 -3.33791 -2.082 0
M  V30 146 H 15.6079 -3.71834 -3.28563 0
M  V30 147 N 14.781 0.264519 -1.55364 0
M  V30 148 C 15.711 1.33121 -1.91836 0
M  V30 149 C 16.692 1.51101 -0.781192 0
M  V30 150 O 17.877 1.64003 -1.04003 0
M  V30 151 C 15.007 2.68921 -2.19769 0
M  V30 152 C 13.961 2.65661 -3.35571 0
M  V30 153 C 13.287 4.05093 -3.49004 0
M  V30 154 C 14.587 2.24187 -4.71739 0
M  V30 155 H 16.281 1.02844 -2.81182 0
M  V30 156 H 13.827 0.493286 -1.35287 0
M  V30 157 H 15.78 3.43663 -2.43872 0
M  V30 158 H 14.504 3.00799 -1.27231 0
M  V30 159 H 13.163 1.93377 -3.1145 0
M  V30 160 H 12.811 4.34206 -2.53917 0
M  V30 161 H 12.511 4.03804 -4.26868 0
M  V30 162 H 14.035 4.81561 -3.75408 0
M  V30 163 H 15.449 2.88654 -4.9533 0
M  V30 164 H 13.846 2.34044 -5.52579 0
M  V30 165 H 14.916 1.19327 -4.69988 0
M  V30 166 N 16.2591 1.48442 0.529413 0
M  V30 167 C 17.6751 1.34575 0.858004 0
M  V30 168 C 17.8751 0.3572 1.98309 0
M  V30 169 O 16.9311 -0.221379 2.51528 0
M  V30 170 C 18.2441 2.74617 1.22499 0
M  V30 171 C 19.7921 2.83109 1.33484 0
M  V30 172 C 20.2671 4.23854 1.73526 0
M  V30 173 N 21.7581 4.2653 1.80628 0
M  V30 174 C 22.4931 5.32372 2.12997 0
M  V30 175 N 21.9891 6.48491 2.43786 0
M  V30 176 N 23.7821 5.19766 2.14008 0
M  V30 177 H 15.9331 2.1133 -0.212925 0
M  V30 178 H 18.1961 0.947439 -0.0326199 0
M  V30 179 H 17.9021 3.4852 0.471905 0
M  V30 180 H 17.7761 3.08177 2.17501 0
M  V30 181 H 20.1631 2.09462 2.0787 0
M  V30 182 H 20.2441 2.53168 0.366027 0
M  V30 183 H 19.8881 4.98018 0.997013 0
M  V30 184 H 19.8181 4.5124 2.71459 0
M  V30 185 H 22.3091 3.42772 1.59108 0
M  V30 186 H 22.6221 7.24993 2.67592 0
M  V30 187 H 20.9671 6.51765 2.41304 0
M  V30 188 H 24.1581 4.28066 1.89412 0
M  V30 189 H 24.3311 6.02354 2.38902 0
M  V30 190 N 17.7372 -0.778329 1.37039 0
M  V30 191 C 18.6842 -1.89139 1.32269 0
M  V30 192 C 19.6542 -1.65017 0.189387 0
M  V30 193 O 20.8392 -1.87024 0.377693 0
M  V30 194 C 17.9792 -3.26112 1.12894 0
M  V30 195 C 17.0922 -3.62233 2.35396 0
M  V30 196 C 16.2272 -4.8838 2.08946 0
M  V30 197 C 15.2662 -5.17212 3.2735 0
M  V30 198 N 14.4032 -6.34546 3.00492 0
M  V30 199 H 19.2432 -1.92552 2.27437 0
M  V30 200 H 16.7802 -0.941473 1.13025 0
M  V30 201 H 18.7382 -4.05116 0.996835 0
M  V30 202 H 17.3682 -3.22091 0.213758 0
M  V30 203 H 16.4202 -2.78265 2.5937 0
M  V30 204 H 17.7322 -3.79481 3.23721 0
M  V30 205 H 16.8862 -5.75274 1.92729 0
M  V30 206 H 15.6252 -4.73222 1.17949 0
M  V30 207 H 14.6302 -4.28796 3.44113 0
M  V30 208 H 15.8552 -5.34283 4.19188 0
M  V30 209 H 13.8012 -6.20759 2.12118 0
M  V30 210 H 13.7182 -6.52179 3.82358 0
M  V30 211 H 14.9862 -7.24394 2.87879 0
M  V30 212 N 19.2153 -1.21501 -1.00376 0
M  V30 213 C 20.1473 -0.933174 -2.09343 0
M  V30 214 C 21.1603 0.0840896 -1.62583 0
M  V30 215 O 22.3493 -0.148563 -1.77881 0
M  V30 216 C 19.4493 -0.379869 -3.36764 0
M  V30 217 C 18.6223 -1.45176 -4.12605 0
M  V30 218 C 17.6813 -0.907476 -5.18316 0
M  V30 219 O 16.7073 -1.5912 -5.46507 0
M  V30 220 N 17.9093 0.276649 -5.7984 0
M  V30 221 H 20.6743 -1.87124 -2.34104 0
M  V30 222 H 18.2353 -1.12043 -1.16867 0
M  V30 223 H 20.2273 -0.00131488 -4.047 0
M  V30 224 H 18.7973 0.463048 -3.09151 0
M  V30 225 H 18.0173 -2.00411 -3.39454 0
M  V30 226 H 19.3053 -2.17328 -4.6005 0
M  V30 227 H 18.7033 0.849147 -5.59291 0
M  V30 228 H 17.2603 0.596702 -6.49063 0
M  V30 229 N 20.6934 1.19889 -1.02296 0
M  V30 230 C 21.9334 1.91125 -0.724602 0
M  V30 231 C 22.2974 1.77464 0.732835 0
M  V30 232 O 23.4984 2.43241 1.144 0
M  V30 233 C 21.7694 3.38187 -1.15604 0
M  V30 234 S 23.3284 4.27702 -0.980621 0
M  V30 235 H 20.1464 0.66018 -0.263976 0
M  V30 236 H 22.7484 1.44978 -1.31155 0
M  V30 237 H 21.4524 3.45653 -2.21251 0
M  V30 238 H 20.9834 3.89363 -0.562131 0
M  V30 239 H 22.9984 4.96073 0.112225 0
M  V30 240 N 22.1715 0.800033 1.35784 0
M  V30 241 C 23.1015 0.220184 2.3246 0
M  V30 242 C 24.0825 -0.65073 1.57161 0
M  V30 243 O 25.2675 -0.582359 1.85263 0
M  V30 244 C 22.3975 -0.637353 3.41402 0
M  V30 245 C 21.3515 0.134531 4.27789 0
M  V30 246 C 20.6775 -0.844285 5.27992 0
M  V30 247 C 21.9775 1.32979 5.05088 0
M  V30 248 H 23.6715 1.02787 2.81203 0
M  V30 249 H 21.2175 0.495717 1.35199 0
M  V30 250 H 23.1705 -1.05302 4.08031 0
M  V30 251 H 21.8945 -1.47785 2.91251 0
M  V30 252 H 20.5535 0.531296 3.6273 0
M  V30 253 H 20.2015 -1.68011 4.74111 0
M  V30 254 H 19.9015 -0.332184 5.8666 0
M  V30 255 H 21.4255 -1.2583 5.97494 0
M  V30 256 H 22.8395 0.98934 5.64699 0
M  V30 257 H 21.2365 1.77593 5.7322 0
M  V30 258 H 22.3065 2.11978 4.36111 0
M  V30 259 N 23.6496 -1.47581 0.552962 0
M  V30 260 C 24.8896 -2.04379 0.0296245 0
M  V30 261 C 25.2536 -1.4185 -1.29393 0
M  V30 262 O 26.4546 -1.89669 -1.90471 0
M  V30 263 C 24.7256 -3.57339 -0.0661371 0
M  V30 264 S 26.2846 -4.35511 -0.536213 0
M  V30 265 H 23.1026 -0.710625 0.0230991 0
M  V30 266 H 25.7046 -1.81005 0.738734 0
M  V30 267 H 24.4086 -4.00374 0.901596 0
M  V30 268 H 23.9396 -3.85202 -0.798931 0
M  V30 269 H 25.9546 -4.6253 -1.79668 0
M  V30 270 N 25.1277 -0.289203 -1.54924 0
M  V30 271 C 26.0577 0.58549 -2.2604 0
M  V30 272 C 27.0387 1.14753 -1.25562 0
M  V30 273 O 28.2237 1.17906 -1.54311 0
M  V30 274 C 25.3537 1.76305 -2.99222 0
M  V30 275 C 24.3077 1.33191 -4.06748 0
M  V30 276 C 23.6337 2.5937 -4.6758 0
M  V30 277 C 24.9337 0.471775 -5.20165 0
M  V30 278 H 26.6277 -0.00763532 -2.99399 0
M  V30 279 H 24.1737 -0.00511229 -1.43999 0
M  V30 280 H 26.1267 2.38097 -3.47689 0
M  V30 281 H 24.8507 2.38223 -2.23422 0
M  V30 282 H 23.5097 0.737121 -3.59113 0
M  V30 283 H 23.1577 3.19576 -3.88433 0
M  V30 284 H 22.8577 2.31228 -5.40192 0
M  V30 285 H 24.3817 3.21985 -5.18804 0
M  V30 286 H 25.7957 0.995056 -5.64599 0
M  V30 287 H 24.1927 0.284639 -5.99425 0
M  V30 288 H 25.2627 -0.506041 -4.82252 0
M  V30 289 N 26.6058 1.57591 -0.0167156 0
M  V30 290 C 27.8338 1.95575 0.675128 0
M  V30 291 C 28.2488 0.892542 1.6637 0
M  V30 292 O 27.6058 -0.126912 1.82058 0
M  V30 293 C 27.6568 3.33608 1.39239 0
M  V30 294 O 27.3778 4.3585 0.443444 0
M  V30 295 C 28.8788 3.86151 2.17721 0
M  V30 296 H 26.0988 0.644423 0.186978 0
M  V30 297 H 28.6428 2.0437 -0.0728 0
M  V30 298 H 26.7978 3.2607 2.09182 0
M  V30 299 H 27.2118 5.158 0.951358 0
M  V30 300 H 28.6858 4.85114 2.63379 0
M  V30 301 H 29.1628 3.19738 3.01105 0
M  V30 302 H 29.7688 3.96918 1.52761 0
M  V30 303 N 28.0839 -0.256276 1.55502 0
M  V30 304 C 29.3309 -0.985619 1.76895 0
M  V30 305 C 29.6589 -1.85671 0.579355 0
M  V30 306 O 28.9139 -1.90744 -0.437651 0
M  V30 307 C 29.2129 -1.88432 3.03691 0
M  V30 308 C 28.8789 -1.16936 4.35473 0
M  V30 309 C 27.5409 -0.97173 4.71286 0
M  V30 310 C 29.8929 -0.661889 5.1698 0
M  V30 311 C 27.2209 -0.254179 5.86149 0
M  V30 312 C 29.5729 0.042149 6.32586 0
M  V30 313 C 28.2369 0.25134 6.67027 0
M  V30 314 H 27.5069 -0.360663 0.647304 0
M  V30 315 H 30.1539 -0.256483 1.89775 0
M  V30 316 H 28.4589 -2.68021 2.85783 0
M  V30 317 H 30.1559 -2.45015 3.1744 0
M  V30 318 H 26.7459 -1.33332 4.07333 0
M  V30 319 H 30.9299 -0.802145 4.89775 0
M  V30 320 H 26.1859 -0.0815408 6.11346 0
M  V30 321 H 30.3599 0.443049 6.94989 0
M  V30 322 H 27.9869 0.809314 7.5588 0
M  V30 323 N 29.562 -1.4872 -0.521534 0
M  V30 324 C 30.492 -1.66771 -1.63431 0
M  V30 325 C 31.473 -0.516499 -1.62069 0
M  V30 326 O 32.658 -0.750013 -1.79132 0
M  V30 327 C 29.788 -1.71515 -3.01993 0
M  V30 328 C 28.742 -2.86222 -3.18216 0
M  V30 329 C 28.068 -2.76061 -4.57924 0
M  V30 330 C 29.368 -4.27419 -3.00184 0
M  V30 331 H 31.062 -2.59932 -1.48579 0
M  V30 332 H 28.608 -1.25089 -0.713358 0
M  V30 333 H 30.561 -1.82731 -3.7972 0
M  V30 334 H 29.285 -0.749393 -3.17886 0
M  V30 335 H 27.944 -2.74575 -2.42908 0
M  V30 336 H 27.592 -1.77437 -4.70665 0
M  V30 337 H 27.292 -3.53037 -4.69722 0
M  V30 338 H 28.816 -2.89256 -5.37739 0
M  V30 339 H 30.23 -4.39855 -3.67697 0
M  V30 340 H 28.627 -5.05458 -3.2347 0
M  V30 341 H 29.697 -4.43293 -1.96518 0
M  V30 342 N 31.0401 0.771051 -1.3745 0
M  V30 343 C 31.9701 1.89827 -1.3597 0
M  V30 344 C 32.9511 1.68562 -0.228216 0
M  V30 345 O 34.1361 1.8941 -0.428675 0
M  V30 346 C 31.2661 3.2712 -1.16662 0
M  V30 347 C 30.2201 3.6295 -2.2683 0
M  V30 348 C 29.5461 4.98791 -1.92644 0
M  V30 349 C 30.8461 3.69627 -3.69017 0
M  V30 350 H 32.5401 1.91323 -2.30295 0
M  V30 351 H 30.0861 0.919082 -1.10855 0
M  V30 352 H 32.0391 4.05615 -1.14256 0
M  V30 353 H 30.7631 3.26059 -0.187926 0
M  V30 354 H 29.4221 2.86763 -2.28392 0
M  V30 355 H 29.0701 4.94271 -0.933021 0
M  V30 356 H 28.7701 5.23733 -2.66416 0
M  V30 357 H 30.2941 5.79685 -1.91826 0
M  V30 358 H 31.7081 4.38273 -3.69581 0
M  V30 359 H 30.1051 4.06067 -4.41848 0
M  V30 360 H 31.1751 2.70273 -4.02592 0
M  V30 361 N 32.5182 1.22032 0.997298 0
M  V30 362 C 33.4482 1.01065 2.10495 0
M  V30 363 C 34.4292 -0.0669542 1.69968 0
M  V30 364 O 35.6142 0.0943987 1.9397 0
M  V30 365 C 32.7442 0.582874 3.42374 0
M  V30 366 C 31.6982 1.60592 3.96729 0
M  V30 367 C 31.0242 1.03412 5.24605 0
M  V30 368 C 32.3242 2.99478 4.27914 0
M  V30 369 H 34.0182 1.93708 2.28292 0
M  V30 370 H 31.5642 0.932761 1.09707 0
M  V30 371 H 33.5172 0.423332 4.19268 0
M  V30 372 H 32.2412 -0.379213 3.24391 0
M  V30 373 H 30.9002 1.75316 3.21963 0
M  V30 374 H 30.5482 0.063518 5.0296 0
M  V30 375 H 30.2482 1.71754 5.61938 0
M  V30 376 H 31.7722 0.886066 6.04137 0
M  V30 377 H 33.1862 2.88153 4.95622 0
M  V30 378 H 31.5832 3.64903 4.76409 0
M  V30 379 H 32.6532 3.49742 3.3587 0
M  V30 380 N 33.9963 -1.19345 1.0293 0
M  V30 381 C 34.9463 -2.20472 0.58104 0
M  V30 382 C 35.9303 -1.56578 -0.370442 0
M  V30 383 O 37.1223 -1.75963 -0.191344 0
M  V30 384 C 34.2513 -3.43236 -0.066306 0
M  V30 385 C 33.3373 -4.14274 0.907642 0
M  V30 386 N 33.7283 -4.61492 2.07023 0
M  V30 387 C 32.0263 -4.39966 0.731177 0
M  V30 388 C 32.7273 -5.1605 2.68454 0
M  V30 389 N 31.7033 -5.06875 1.96414 0
M  V30 390 H 35.5053 -2.54659 1.46717 0
M  V30 391 H 33.0193 -1.35423 0.896345 0
M  V30 392 H 35.0163 -4.14927 -0.405068 0
M  V30 393 H 33.6763 -3.10549 -0.948118 0
M  V30 394 H 34.6873 -4.56304 2.44963 0
M  V30 395 H 31.3643 -4.17377 -0.101507 0
M  V30 396 H 32.7543 -5.6287 3.66915 0
M  V30 397 N 35.4744 -0.807222 -1.35358 0
M  V30 398 C 36.4044 -0.232509 -2.3234 0
M  V30 399 C 37.3854 0.642386 -1.57504 0
M  V30 400 O 38.5704 0.572526 -1.85569 0
M  V30 401 C 35.7004 0.619238 -3.41735 0
M  V30 402 C 34.6544 -0.157215 -4.27711 0
M  V30 403 C 33.9804 0.816273 -5.28433 0
M  V30 404 C 35.2804 -1.35656 -5.04376 0
M  V30 405 H 36.9744 -1.04276 -2.80654 0
M  V30 406 H 34.5204 -0.50288 -1.34934 0
M  V30 407 H 36.4734 1.03137 -4.08584 0
M  V30 408 H 35.1974 1.46239 -2.92031 0
M  V30 409 H 33.8564 -0.550525 -3.62443 0
M  V30 410 H 33.5044 1.65494 -4.74996 0
M  V30 411 H 33.2044 0.301067 -5.86828 0
M  V30 412 H 34.7284 1.22659 -5.98153 0
M  V30 413 H 36.1424 -1.01927 -5.64166 0
M  V30 414 H 34.5394 -1.8063 -5.7227 0
M  V30 415 H 35.6094 -2.14288 -4.34981 0
M  V30 416 N 36.9525 1.47285 -0.560781 0
M  V30 417 C 37.8825 2.32857 0.173105 0
M  V30 418 C 38.8635 1.44009 0.905281 0
M  V30 419 O 40.0485 1.7286 0.885046 0
M  V30 420 C 37.1785 3.25861 1.20133 0
M  V30 421 C 36.1325 4.23978 0.585388 0
M  V30 422 C 35.4585 5.06332 1.7185 0
M  V30 423 C 36.7585 5.20242 -0.463178 0
M  V30 424 H 38.4525 2.94466 -0.541307 0
M  V30 425 H 35.9985 1.41601 -0.261764 0
M  V30 426 H 37.9515 3.84569 1.72293 0
M  V30 427 H 36.6755 2.62315 1.94573 0
M  V30 428 H 35.3345 3.66501 0.085054 0
M  V30 429 H 34.9825 4.39186 2.45203 0
M  V30 430 H 34.6825 5.72762 1.31213 0
M  V30 431 H 36.2065 5.67899 2.24329 0
M  V30 432 H 37.6205 5.73293 -0.027502 0
M  V30 433 H 36.0175 5.94896 -0.788627 0
M  V30 434 H 37.0875 4.65504 -1.35773 0
M  V30 435 N 38.4306 0.297415 1.54768 0
M  V30 436 C 39.6786 -0.312295 1.99673 0
M  V30 437 C 39.9996 -1.54686 1.18732 0
M  V30 438 O 39.2696 -1.93854 0.282382 0
M  V30 439 H 37.8496 -0.118381 0.73756 0
M  V30 440 H 40.5116 0.407915 1.90583 0
M  V30 441 H 39.6076 -0.586813 3.06534 0
M  V30 442 N 39.9087 -1.5758 0.0250728 0
M  V30 443 C 40.8407 -2.06869 -0.986796 0
M  V30 444 C 41.8537 -0.991332 -1.29137 0
M  V30 445 O 43.0427 -1.26761 -1.25674 0
M  V30 446 C 40.1427 -2.47486 -2.31525 0
M  V30 447 C 39.3157 -3.78253 -2.19643 0
M  V30 448 C 38.3747 -4.05464 -3.35388 0
M  V30 449 O 37.4007 -4.75774 -3.12454 0
M  V30 450 N 38.6027 -3.55321 -4.59051 0
M  V30 451 H 41.3677 -2.94302 -0.566276 0
M  V30 452 H 38.9287 -1.6109 -0.161776 0
M  V30 453 H 40.9207 -2.62785 -3.07776 0
M  V30 454 H 39.4907 -1.65441 -2.65232 0
M  V30 455 H 38.7107 -3.7279 -1.28144 0
M  V30 456 H 39.9987 -4.63936 -2.08903 0
M  V30 457 H 39.3967 -2.98431 -4.80578 0
M  V30 458 H 37.9537 -3.75905 -5.32483 0
M  V30 459 N 41.3868 0.248026 -1.55636 0
M  V30 460 C 42.6328 0.97767 -1.77678 0
M  V30 461 C 42.9658 1.85016 -0.590135 0
M  V30 462 O 42.2408 1.90095 0.411611 0
M  V30 463 C 42.5238 1.83914 -3.09593 0
M  V30 464 C 42.3768 0.99491 -4.38659 0
M  V30 465 C 43.6958 2.82183 -3.37729 0
M  V30 466 H 40.8148 0.354005 -0.646413 0
M  V30 467 H 43.4568 0.248253 -1.88371 0
M  V30 468 H 41.6068 2.46104 -3.00608 0
M  V30 469 H 43.2788 0.391789 -4.59633 0
M  V30 470 H 41.5218 0.299231 -4.32767 0
M  V30 471 H 42.1928 1.63145 -5.2734 0
M  V30 472 H 44.6688 2.30129 -3.4667 0
M  V30 473 H 43.5448 3.39582 -4.31249 0
M  V30 474 H 43.8058 3.58588 -2.58586 0
M  V30 475 N 42.8649 1.48995 0.513639 0
M  V30 476 C 43.8279 1.64229 1.59879 0
M  V30 477 C 44.8279 0.514696 1.5234 0
M  V30 478 O 46.0179 0.78087 1.55718 0
M  V30 479 C 43.1499 1.62783 2.99524 0
M  V30 480 H 44.3429 2.61004 1.47705 0
M  V30 481 H 41.8959 1.37837 0.736936 0
M  V30 482 H 42.6309 0.675461 3.17188 0
M  V30 483 H 42.4159 2.4466 3.06404 0
M  V30 484 H 43.9059 1.76669 3.78388 0
M  V30 485 N 44.343 -0.763751 1.37857 0
M  V30 486 C 45.306 -1.85889 1.34081 0
M  V30 487 C 46.306 -1.58949 0.243277 0
M  V30 488 O 47.496 -1.66882 0.499589 0
M  V30 489 C 44.628 -3.23176 1.08489 0
M  V30 490 H 45.821 -1.90648 2.31502 0
M  V30 491 H 43.374 -0.964367 1.23003 0
M  V30 492 H 44.109 -3.24091 0.116318 0
M  V30 493 H 43.894 -3.44124 1.8794 0
M  V30 494 H 45.384 -4.03254 1.08517 0
M  V30 495 N 45.8211 -1.22559 -0.990812 0
M  V30 496 C 47.0491 -1.07779 -1.76611 0
M  V30 497 C 47.4641 0.371513 -1.85109 0
M  V30 498 O 46.8211 1.25737 -1.32274 0
M  V30 499 C 46.8721 -1.68512 -3.19822 0
M  V30 500 O 46.5931 -3.07774 -3.1178 0
M  V30 501 C 48.0941 -1.59035 -4.13791 0
M  V30 502 H 45.3141 -0.377729 -0.554583 0
M  V30 503 H 47.8581 -1.62195 -1.24551 0
M  V30 504 H 46.0131 -1.18154 -3.68942 0
M  V30 505 H 46.4271 -3.37062 -4.01858 0
M  V30 506 H 47.9011 -2.0625 -5.1202 0
M  V30 507 H 48.3781 -0.547273 -4.35777 0
M  V30 508 H 48.9841 -2.08709 -3.70568 0
M  V30 509 N 47.2992 1.18797 -1.03562 0
M  V30 510 C 48.2312 2.21731 -0.580337 0
M  V30 511 C 49.2442 1.59051 0.347349 0
M  V30 512 O 50.4332 1.77929 0.142669 0
M  V30 513 C 47.5332 3.38459 0.172805 0
M  V30 514 C 46.7062 4.3072 -0.761496 0
M  V30 515 C 45.7652 5.26174 -0.0525547 0
M  V30 516 O 44.7912 5.65108 -0.681333 0
M  V30 517 N 45.9932 5.67624 1.21586 0
M  V30 518 H 48.7582 2.61417 -1.46565 0
M  V30 519 H 46.3192 1.33531 -0.915476 0
M  V30 520 H 48.3112 3.99335 0.656793 0
M  V30 521 H 46.8812 2.97507 0.959602 0
M  V30 522 H 46.1012 3.67525 -1.42544 0
M  V30 523 H 47.3892 4.89267 -1.39626 0
M  V30 524 H 46.7872 5.38038 1.74732 0
M  V30 525 H 45.3442 6.30721 1.64421 0
M  V30 526 N 48.7773 0.814389 1.34928 0
M  V30 527 C 50.1933 0.499084 1.51596 0
M  V30 528 C 50.3933 -0.978319 1.76157 0
M  V30 529 O 49.4493 -1.76309 1.80752 0
M  V30 530 C 50.7623 1.35121 2.68631 0
M  V30 531 C 52.3103 1.34746 2.82511 0
M  V30 532 C 52.7853 2.18388 4.0258 0
M  V30 533 N 54.2763 2.15966 4.09772 0
M  V30 534 C 55.0113 2.77437 5.01813 0
M  V30 535 N 54.5073 3.47866 5.99134 0
M  V30 536 N 56.3003 2.67037 4.94619 0
M  V30 537 H 48.4513 1.7711 1.17243 0
M  V30 538 H 50.7143 0.754256 0.574284 0
M  V30 539 H 50.4203 2.40001 2.57085 0
M  V30 540 H 50.2943 1.00991 3.63429 0
M  V30 541 H 52.6813 0.30648 2.93504 0
M  V30 542 H 52.7623 1.72869 1.88547 0
M  V30 543 H 52.4063 3.2253 3.92347 0
M  V30 544 H 52.3363 1.77621 4.9574 0
M  V30 545 H 54.8273 1.64729 3.40107 0
M  V30 546 H 55.1403 3.92038 6.65977 0
M  V30 547 H 53.4853 3.51972 5.99284 0
M  V30 548 H 56.6763 2.11597 4.17546 0
M  V30 549 H 56.8493 3.15232 5.66156 0
M  V30 550 N 50.2554 -1.46986 0.568584 0
M  V30 551 C 51.4954 -2.04336 0.0512999 0
M  V30 552 C 51.8594 -1.43214 -1.27881 0
M  V30 553 O 53.0604 -1.91679 -1.88448 0
M  V30 554 C 51.3314 -3.57389 -0.0282328 0
M  V30 555 S 52.8904 -4.36056 -0.489991 0
M  V30 556 H 49.7084 -0.71034 0.0306349 0
M  V30 557 H 52.3104 -1.80212 0.757891 0
M  V30 558 H 51.0144 -3.99395 0.944011 0
M  V30 559 H 50.5454 -3.86028 -0.75803 0
M  V30 560 H 52.5604 -4.6441 -1.74752 0
M  V30 561 N 51.7335 -0.305618 -1.54608 0
M  V30 562 C 53.1445 0.186098 -1.8577 0
M  V30 563 C 53.4955 1.53058 -1.22751 0
M  V30 564 O 52.6205 2.09888 -0.526893 0
M  V30 565 C 53.2155 0.344449 -3.37044 0
M  V30 566 C 51.7745 0.780384 -3.68221 0
M  V30 567 C 50.9215 -0.108554 -2.77087 0
M  V30 568 H 53.8725 -0.526485 -1.49712 0
M  V30 569 H 53.8935 1.17828 -3.61796 0
M  V30 570 H 53.4055 -0.634235 -3.82883 0
M  V30 571 H 51.5065 1.76945 -3.27904 0
M  V30 572 H 51.6195 0.596572 -4.75371 0
M  V30 573 H 49.9835 0.412931 -2.5133 0
M  V30 574 H 50.7665 -1.08368 -3.25747 0
M  V30 575 N 53.2116 1.57565 -0.0334293 0
M  V30 576 C 54.6226 1.79746 0.504798 0
M  V30 577 C 54.9736 0.944091 1.71992 0
M  V30 578 O 54.0986 0.155694 2.15839 0
M  V30 579 C 54.6936 3.25997 0.922567 0
M  V30 580 C 53.2526 3.49159 1.40588 0
M  V30 581 C 52.3996 2.74785 0.372633 0
M  V30 582 H 55.3506 1.56565 -0.259436 0
M  V30 583 H 55.3716 3.35945 1.78666 0
M  V30 584 H 54.8836 3.88081 0.0379825 0
M  V30 585 H 52.9846 2.92332 2.31025 0
M  V30 586 H 53.0976 4.57873 1.41028 0
M  V30 587 H 51.4616 2.40391 0.841672 0
M  V30 588 H 52.2446 3.39587 -0.503559 0
M  V30 589 N 54.6897 -0.239769 1.55765 0
M  V30 590 C 55.6217 -1.32001 1.87372 0
M  V30 591 C 56.6347 -1.43944 0.760522 0
M  V30 592 O 57.8237 -1.45167 1.0387 0
M  V30 593 C 54.9237 -2.69779 2.05115 0
M  V30 594 C 54.0967 -2.80014 3.36022 0
M  V30 595 C 53.1557 -3.98684 3.4342 0
M  V30 596 O 52.1817 -3.87877 4.16582 0
M  V30 597 N 53.3837 -5.12176 2.73232 0
M  V30 598 H 56.1487 -1.0522 2.80622 0
M  V30 599 H 53.7097 -0.429857 1.56089 0
M  V30 600 H 55.7017 -3.47517 2.07399 0
M  V30 601 H 54.2717 -2.89237 1.18577 0
M  V30 602 H 53.4917 -1.88896 3.45994 0
M  V30 603 H 54.7797 -2.83808 4.22292 0
M  V30 604 H 54.1777 -5.2385 2.13536 0
M  V30 605 H 52.7347 -5.88022 2.81199 0
M  V30 606 N 56.1678 -1.49265 -0.50573 0
M  V30 607 C 57.4078 -1.60128 -1.27038 0
M  V30 608 C 57.7718 -0.279557 -1.89954 0
M  V30 609 O 58.9728 -0.263329 -2.67507 0
M  V30 610 C 57.2438 -2.72507 -2.31246 0
M  V30 611 S 58.8028 -3.0329 -3.17113 0
M  V30 612 H 55.6208 -0.564863 -0.4318 0
M  V30 613 H 58.2228 -1.86902 -0.573397 0
M  V30 614 H 56.9268 -3.67068 -1.83546 0
M  V30 615 H 56.4578 -2.4771 -3.05619 0
M  V30 616 H 58.4728 -2.44448 -4.31809 0
M  V30 617 N 57.6459 0.756429 -1.3826 0
M  V30 618 C 59.0569 1.33359 -1.30661 0
M  V30 619 C 59.4079 1.96161 0.0388875 0
M  V30 620 O 58.5329 1.94874 0.940918 0
M  V30 621 C 59.1279 2.42477 -2.36622 0
M  V30 622 C 57.6869 2.95922 -2.3261 0
M  V30 623 C 56.8339 1.69275 -2.19639 0
M  V30 624 H 59.7849 0.55552 -1.4866 0
M  V30 625 H 59.8059 3.22345 -2.02174 0
M  V30 626 H 59.3179 1.96739 -3.34538 0
M  V30 627 H 57.4189 3.45996 -1.38267 0
M  V30 628 H 57.5319 3.50494 -3.26636 0
M  V30 629 H 55.8959 1.92793 -1.66442 0
M  V30 630 H 56.6789 1.25619 -3.19491 0
M  V30 631 N 59.124 1.23083 0.984299 0
M  V30 632 C 60.372 1.05848 1.72165 0
M  V30 633 C 60.693 -0.406049 1.90726 0
M  V30 634 O 59.963 -1.29139 1.47309 0
M  V30 635 H 58.543 0.388685 0.637913 0
M  V30 636 H 61.205 1.54736 1.18503 0
M  V30 637 H 60.301 1.54327 2.71274 0
M  V30 638 N 60.6021 -1.18246 1.0419 0
M  V30 639 C 62.0181 -1.40269 0.761366 0
M  V30 640 C 62.2181 -1.90777 -0.648578 0
M  V30 641 O 61.2741 -2.0929 -1.41258 0
M  V30 642 C 62.5871 -2.40237 1.8085 0
M  V30 643 C 64.1351 -2.53961 1.82955 0
M  V30 644 C 64.6101 -3.57194 2.86664 0
M  V30 645 N 66.1011 -3.64702 2.85563 0
M  V30 646 C 66.8361 -4.44309 3.6246 0
M  V30 647 N 66.3321 -5.27514 4.49111 0
M  V30 648 N 68.1251 -4.39084 3.50944 0
M  V30 649 H 60.2761 -0.837882 1.95175 0
M  V30 650 H 62.5391 -0.430608 0.84456 0
M  V30 651 H 62.2451 -2.10176 2.81991 0
M  V30 652 H 62.1191 -3.39601 1.64168 0
M  V30 653 H 64.5061 -2.83338 0.824855 0
M  V30 654 H 64.5871 -1.54706 2.03715 0
M  V30 655 H 64.2311 -3.28558 3.87314 0
M  V30 656 H 64.1611 -4.5613 2.6316 0
M  V30 657 H 66.6521 -3.05289 2.22727 0
M  V30 658 H 66.9651 -5.85411 5.04493 0
M  V30 659 H 65.3101 -5.2693 4.53178 0
M  V30 660 H 68.5011 -3.7313 2.82651 0
M  V30 661 H 68.6741 -5.00883 4.11121 0
M  V30 662 N 62.0802 -0.821533 -1.34494 0
M  V30 663 C 63.3202 -0.414785 -2.00147 0
M  V30 664 C 63.6842 1.00299 -1.6372 0
M  V30 665 O 64.8852 1.51255 -2.22206 0
M  V30 666 C 63.1562 -0.609403 -3.52166 0
M  V30 667 S 64.7152 -0.295297 -4.37805 0
M  V30 668 H 61.5332 -0.15679 -0.693497 0
M  V30 669 H 64.1352 -1.06705 -1.63812 0
M  V30 670 H 62.8392 -1.64096 -3.76166 0
M  V30 671 H 62.3702 0.0576414 -3.93358 0
M  V30 672 H 64.3852 0.891531 -4.88125 0
M  V30 673 N 63.5583 1.46682 -0.576371 0
M  V30 674 C 64.9693 1.86112 -0.148091 0
M  V30 675 C 65.3203 1.48073 1.2872 0
M  V30 676 O 64.4453 0.892656 1.97131 0
M  V30 677 C 65.0403 3.37786 -0.261982 0
M  V30 678 C 63.5993 3.76235 0.111384 0
M  V30 679 C 62.7463 2.70713 -0.60083 0
M  V30 680 H 65.6973 1.37927 -0.78497 0
M  V30 681 H 65.7183 3.77007 0.514364 0
M  V30 682 H 65.2303 3.6544 -1.30671 0
M  V30 683 H 63.3313 3.54198 1.15649 0
M  V30 684 H 63.4443 4.78391 -0.26052 0
M  V30 685 H 61.8083 2.54666 -0.0417783 0
M  V30 686 H 62.5913 3.01208 -1.64708 0
M  V30 687 N 65.0364 0.313813 1.54444 0
M  V30 688 C 65.9994 -0.54379 2.22656 0
M  V30 689 C 66.9994 -1.05124 1.21678 0
M  V30 690 O 68.1894 -0.945225 1.46325 0
M  V30 691 C 65.3214 -1.75427 2.92298 0
M  V30 692 H 66.5144 0.0523599 2.99854 0
M  V30 693 H 64.0674 0.0647834 1.56166 0
M  V30 694 H 64.8024 -2.38991 2.19211 0
M  V30 695 H 64.5874 -1.39791 3.66334 0
M  V30 696 H 66.0774 -2.36325 3.44297 0
M  V30 697 N 66.5145 -1.57545 0.0417849 0
M  V30 698 C 67.7425 -1.96624 -0.643928 0
M  V30 699 C 68.1575 -0.918897 -1.64929 0
M  V30 700 O 67.5145 0.0979323 -1.82237 0
M  V30 701 C 67.5655 -3.35781 -1.33914 0
M  V30 702 O 67.2865 -4.365 -0.374048 0
M  V30 703 C 68.7875 -3.89566 -2.1155 0
M  V30 704 H 66.0075 -0.647316 -0.176702 0
M  V30 705 H 68.5515 -2.04229 0.105304 0
M  V30 706 H 66.7065 -3.29357 -2.03968 0
M  V30 707 H 67.1205 -5.17248 -0.869179 0
M  V30 708 H 68.5945 -4.89242 -2.55628 0
M  V30 709 H 69.0715 -3.24488 -2.9598 0
M  V30 710 H 69.6775 -3.99298 -1.46427 0
M  V30 711 N 67.9926 0.231505 -1.5589 0
M  V30 712 C 69.4036 0.799327 -1.68724 0
M  V30 713 C 69.7546 1.85398 -0.642022 0
M  V30 714 O 68.8796 2.1539 0.208784 0
M  V30 715 C 69.4746 1.45664 -3.05888 0
M  V30 716 C 68.0336 1.97197 -3.20609 0
M  V30 717 C 67.1806 0.828552 -2.64632 0
M  V30 718 H 70.1316 0.00702616 -1.58698 0
M  V30 719 H 70.1526 2.32517 -3.01191 0
M  V30 720 H 69.6646 0.688808 -3.81939 0
M  V30 721 H 67.7656 2.76813 -2.4941 0
M  V30 722 H 67.8786 2.15878 -4.27707 0
M  V30 723 H 66.2426 1.23321 -2.22854 0
M  V30 724 H 67.0256 0.0735544 -3.43221 0
M  V30 725 N 69.4707 1.49531 0.497807 0
M  V30 726 C 70.8817 1.52344 1.07927 0
M  V30 727 C 71.2327 0.311469 1.93712 0
M  V30 728 O 70.3577 -0.578405 2.08527 0
M  V30 729 C 70.9527 2.76062 1.96405 0
M  V30 730 C 69.5117 2.81643 2.49709 0
M  V30 731 C 68.6587 2.46299 1.27404 0
M  V30 732 H 71.6097 1.56182 0.281576 0
M  V30 733 H 71.6307 2.56405 2.81135 0
M  V30 734 H 71.1427 3.64254 1.33943 0
M  V30 735 H 69.2437 1.97739 3.15801 0
M  V30 736 H 69.3567 3.83891 2.86643 0
M  V30 737 H 67.7207 1.98148 1.60029 0
M  V30 738 H 68.5037 3.36769 0.66645 0
M  V30 739 N 70.9488 -0.749086 1.3866 0
M  V30 740 C 72.1768 -1.53834 1.38358 0
M  V30 741 C 72.5918 -1.88783 -0.0255219 0
M  V30 742 O 71.9488 -1.53101 -0.993292 0
M  V30 743 C 71.9998 -2.83468 2.2434 0
M  V30 744 O 71.7208 -2.50008 3.5976 0
M  V30 745 C 73.2218 -3.7758 2.32267 0
M  V30 746 H 70.4418 -0.47585 0.473083 0
M  V30 747 H 72.9858 -0.926726 1.82297 0
M  V30 748 H 71.1408 -3.40995 1.83851 0
M  V30 749 H 71.5548 -3.33182 4.05081 0
M  V30 750 H 73.0288 -4.65478 2.96706 0
M  V30 751 H 73.5058 -4.18334 1.33765 0
M  V30 752 H 74.1118 -3.25976 2.73166 0
M  V30 753 N 72.4269 -1.23603 -0.977757 0
M  V30 754 C 73.6669 -1.08148 -1.73446 0
M  V30 755 C 74.0309 0.374785 -1.88307 0
M  V30 756 O 75.2319 0.650588 -2.60808 0
M  V30 757 C 73.5029 -1.78991 -3.0935 0
M  V30 758 S 75.0619 -1.79141 -4.00567 0
M  V30 759 H 71.8799 -0.386987 -0.596458 0
M  V30 760 H 74.4819 -1.5678 -1.16792 0
M  V30 761 H 73.1859 -2.8408 -2.96187 0
M  V30 762 H 72.7169 -1.30651 -3.71071 0
M  V30 763 H 74.7319 -0.851892 -4.88833 0
M  V30 764 N 73.905 1.17692 -1.04816 0
M  V30 765 C 74.868 2.19787 -0.650117 0
M  V30 766 C 75.868 1.58044 0.296427 0
M  V30 767 O 77.058 1.74012 0.0808097 0
M  V30 768 C 74.19 3.40869 0.0456987 0
M  V30 769 H 75.383 2.56516 -1.5537 0
M  V30 770 H 72.936 1.31708 -0.841594 0
M  V30 771 H 73.671 3.09681 0.962726 0
M  V30 772 H 73.456 3.86928 -0.634727 0
M  V30 773 H 74.946 4.16445 0.310432 0
M  V30 774 N 75.3831 0.828654 1.34056 0
M  V30 775 C 76.7941 0.477534 1.8049 0
M  V30 776 C 77.1451 -1.00258 1.6865 0
M  V30 777 O 76.2701 -1.78057 1.22982 0
M  V30 778 C 76.8651 0.860018 3.27703 0
M  V30 779 C 75.4241 0.561185 3.72193 0
M  V30 780 C 74.5711 1.07385 2.55663 0
M  V30 781 H 77.5221 1.0183 1.21722 0
M  V30 782 H 77.5431 0.166038 3.80138 0
M  V30 783 H 77.0551 1.93731 3.36288 0
M  V30 784 H 75.1561 -0.506465 3.69142 0
M  V30 785 H 75.2691 1.10926 4.66082 0
M  V30 786 H 73.6331 0.495149 2.49841 0
M  V30 787 H 74.4161 2.15771 2.67016 0
M  V30 788 N 76.8612 -1.46375 0.584142 0
M  V30 789 C 78.1092 -2.01978 0.0701287 0
M  V30 790 C 78.4302 -1.4579 -1.295 0
M  V30 791 O 77.7002 -0.64314 -1.85042 0
M  V30 792 H 76.2802 -0.746648 0.0229345 0
M  V30 793 H 78.9422 -1.79461 0.760245 0
M  V30 794 H 78.0382 -3.121 0.0022064 0
M  V30 795 N 78.3393 -0.321999 -1.54275 0
M  V30 796 C 79.5853 0.281461 -2.00837 0
M  V30 797 C 79.9183 1.51909 -1.20985 0
M  V30 798 O 79.1933 1.923 -0.291733 0
M  V30 799 C 79.4763 0.617162 -3.54772 0
M  V30 800 C 79.3293 -0.631064 -4.45351 0
M  V30 801 C 80.6483 1.43542 -4.16033 0
M  V30 802 H 77.7673 0.100826 -0.730071 0
M  V30 803 H 80.4093 -0.438268 -1.84876 0
M  V30 804 H 78.5593 1.23034 -3.68504 0
M  V30 805 H 80.2313 -1.26934 -4.43492 0
M  V30 806 H 78.4743 -1.26025 -4.15091 0
M  V30 807 H 79.1453 -0.351735 -5.50878 0
M  V30 808 H 81.6213 0.917134 -4.05867 0
M  V30 809 H 80.4973 1.63907 -5.23856 0
M  V30 810 H 80.7583 2.43108 -3.69257 0
M  V30 811 N 79.8174 1.5752 -0.0501392 0
M  V30 812 C 81.2334 1.56631 0.306402 0
M  V30 813 C 81.4334 1.0577 1.71508 0
M  V30 814 O 80.4894 0.713837 2.422 0
M  V30 815 C 81.8024 3.00393 0.135811 0
M  V30 816 C 83.3504 3.12315 0.206993 0
M  V30 817 C 83.8254 4.57954 0.064944 0
M  V30 818 N 85.3164 4.63041 0.121254 0
M  V30 819 C 86.0514 5.73389 0.0354381 0
M  V30 820 N 85.5474 6.92724 -0.102666 0
M  V30 821 N 87.3404 5.62026 0.090946 0
M  V30 822 H 79.4914 1.88903 -0.971046 0
M  V30 823 H 81.7544 0.869876 -0.376855 0
M  V30 824 H 81.4604 3.41635 -0.835384 0
M  V30 825 H 81.3344 3.66373 0.897275 0
M  V30 826 H 83.7214 2.70973 1.16866 0
M  V30 827 H 83.8024 2.49016 -0.585208 0
M  V30 828 H 83.4464 4.99981 -0.893394 0
M  V30 829 H 83.3764 5.19258 0.876277 0
M  V30 830 H 85.8674 3.77216 0.227284 0
M  V30 831 H 86.1804 7.72633 -0.160882 0
M  V30 832 H 84.5254 6.94864 -0.137737 0
M  V30 833 H 87.7164 4.67684 0.197388 0
M  V30 834 H 87.8894 6.47997 0.0206089 0
M  V30 835 N 81.2955 -0.223234 1.56011 0
M  V30 836 C 82.2585 -1.26014 1.9145 0
M  V30 837 C 83.2585 -1.3989 0.792937 0
M  V30 838 O 84.4485 -1.38184 1.0607 0
M  V30 839 C 81.5805 -2.63422 2.16383 0
M  V30 840 H 82.7735 -0.95796 2.84189 0
M  V30 841 H 80.3265 -0.463576 1.49267 0
M  V30 842 H 81.0615 -2.98741 1.2619 0
M  V30 843 H 80.8465 -2.54728 2.98088 0
M  V30 844 H 82.3365 -3.38249 2.44903 0
M  V30 845 N 82.7736 -1.49793 -0.48987 0
M  V30 846 C 84.0196 -1.60078 -1.24511 0
M  V30 847 C 84.3526 -0.291608 -1.91998 0
M  V30 848 O 83.6276 0.705647 -1.81248 0
M  V30 849 C 83.9106 -2.76791 -2.30345 0
M  V30 850 C 83.7636 -4.17535 -1.67286 0
M  V30 851 C 85.0826 -2.89111 -3.31817 0
M  V30 852 H 82.2016 -0.582645 -0.451324 0
M  V30 853 H 84.8436 -1.82117 -0.541612 0
M  V30 854 H 82.9936 -2.5813 -2.90346 0
M  V30 855 H 84.6656 -4.4774 -1.11026 0
M  V30 856 H 82.9086 -4.22665 -0.976577 0
M  V30 857 H 83.5796 -4.95094 -2.44103 0
M  V30 858 H 86.0556 -3.06133 -2.81819 0
M  V30 859 H 84.9316 -3.72433 -4.03219 0
M  V30 860 H 85.1926 -1.9893 -3.94815 0
M  V30 861 N 84.2517 0.741722 -1.39055 0
M  V30 862 C 85.1817 1.869 -1.39966 0
M  V30 863 C 86.1627 1.6804 -0.26392 0
M  V30 864 O 87.3477 1.88458 -0.468755 0
M  V30 865 C 84.4777 3.24572 -1.23574 0
M  V30 866 C 83.4317 3.58056 -2.34477 0
M  V30 867 C 82.7577 4.94593 -2.0318 0
M  V30 868 C 84.0577 3.61716 -3.76774 0
M  V30 869 H 85.7517 1.86395 -2.34302 0
M  V30 870 H 83.2977 0.895361 -1.1278 0
M  V30 871 H 85.2507 4.031 -1.22834 0
M  V30 872 H 83.9747 3.25587 -0.257045 0
M  V30 873 H 82.6337 2.81854 -2.34423 0
M  V30 874 H 82.2817 4.92181 -1.03765 0
M  V30 875 H 81.9817 5.17964 -2.77465 0
M  V30 876 H 83.5057 5.75486 -2.04079 0
M  V30 877 H 84.9197 4.30335 -3.78794 0
M  V30 878 H 83.3167 3.96603 -4.50362 0
M  V30 879 H 84.3867 2.61672 -4.08235 0
M  V30 880 N 85.7298 1.2412 0.971189 0
M  V30 881 C 87.0068 0.986867 1.6888 0
M  V30 882 C 87.3868 -0.491857 2.0529 0
M  V30 883 O 86.7348 -1.46531 1.75331 0
M  V30 884 C 86.9448 1.9063 2.92338 0
M  V30 885 C 88.2928 2.17515 3.64654 0
M  V30 886 O 89.3168 1.88254 3.02388 0
M  V30 887 O 88.1758 2.6719 4.7673 0
M  V30 888 H 85.2698 0.372944 0.738134 0
M  V30 889 H 87.8158 1.35203 1.02559 0
M  V30 890 H 86.5878 2.90552 2.62097 0
M  V30 891 H 86.2108 1.54408 3.66393 0
M  V30 892 N 87.2079 -1.17134 1.05439 0
M  V30 893 C 88.4559 -1.87085 0.764429 0
M  V30 894 C 88.7769 -1.81584 -0.710787 0
M  V30 895 O 88.0469 -1.24349 -1.51374 0
M  V30 896 H 86.6269 -0.692627 0.279779 0
M  V30 897 H 89.2889 -1.42087 1.33406 0
M  V30 898 H 88.3849 -2.92759 1.0816 0
M  V30 899 N 88.686 -0.835752 -1.33615 0
M  V30 900 C 89.926 -0.43599 -1.99696 0
M  V30 901 C 90.29 0.98557 -1.64774 0
M  V30 902 O 91.491 1.48889 -2.23798 0
M  V30 903 C 89.762 -0.646721 -3.515 0
M  V30 904 S 91.321 -0.341715 -4.37467 0
M  V30 905 H 88.139 -0.164136 -0.691795 0
M  V30 906 H 90.741 -1.08436 -1.62671 0
M  V30 907 H 89.445 -1.68077 -3.74404 0
M  V30 908 H 88.976 0.0159173 -3.93397 0
M  V30 909 H 90.991 0.839708 -4.89043 0
M  V30 910 N 90.1641 1.46063 -0.591896 0
M  V30 911 C 91.3891 2.07226 -0.0850314 0
M  V30 912 C 91.8141 1.43625 1.21463 0
M  V30 913 O 91.1721 0.523305 1.73583 0
M  V30 914 C 91.2201 3.60554 0.0576567 0
M  V30 915 O 90.3241 3.97128 1.11188 0
M  V30 916 H 89.6651 0.660615 -0.0669568 0
M  V30 917 H 92.1951 1.8756 -0.81745 0
M  V30 918 H 92.2051 4.07165 0.2609 0
M  V30 919 H 90.8801 4.06235 -0.891416 0
M  V30 920 H 89.4571 3.62213 0.886356 0
M  V30 921 N 91.6422 0.330177 1.54103 0
M  V30 922 C 92.8822 -0.270916 2.02597 0
M  V30 923 C 93.2462 -1.48826 1.21304 0
M  V30 924 O 94.4472 -2.16266 1.59633 0
M  V30 925 C 92.7182 -0.590328 3.52491 0
M  V30 926 S 94.2772 -1.17014 4.2291 0
M  V30 927 H 91.0952 -0.0815379 0.706309 0
M  V30 928 H 93.6972 0.464835 1.89893 0
M  V30 929 H 92.4012 0.303691 4.09275 0
M  V30 930 H 91.9322 -1.3561 3.69288 0
M  V30 931 H 93.9472 -2.45662 4.3112 0
M  V30 932 N 93.1203 -1.57491 0.0584922 0
M  V30 933 C 94.3603 -1.94851 -0.617458 0
M  V30 934 C 94.7243 -0.937165 -1.67575 0
M  V30 935 O 95.9253 -1.19795 -2.40629 0
M  V30 936 C 94.1963 -3.36955 -1.19147 0
M  V30 937 S 95.7553 -3.96277 -1.8844 0
M  V30 938 H 92.5733 -0.681539 -0.202547 0
M  V30 939 H 95.1753 -1.95073 0.129176 0
M  V30 940 H 93.8793 -4.08355 -0.409215 0
M  V30 941 H 93.4103 -3.40245 -1.97476 0
M  V30 942 H 95.4253 -3.82099 -3.16568 0
M  V30 943 N 94.5984 0.214957 -1.56127 0
M  V30 944 C 95.5284 1.2695 -1.95974 0
M  V30 945 C 96.5094 1.48539 -0.828868 0
M  V30 946 O 97.6944 1.60611 -1.09168 0
M  V30 947 C 94.8244 2.61794 -2.28214 0
M  V30 948 C 93.7784 2.54851 -3.43853 0
M  V30 949 C 93.1044 3.93785 -3.61715 0
M  V30 950 C 94.4044 2.09065 -4.78632 0
M  V30 951 H 96.0984 0.93846 -2.84312 0
M  V30 952 H 93.6444 0.449996 -1.36788 0
M  V30 953 H 95.5974 3.35731 -2.54682 0
M  V30 954 H 94.3214 2.96599 -1.36736 0
M  V30 955 H 92.9804 1.8337 -3.17444 0
M  V30 956 H 92.6284 4.25908 -2.67602 0
M  V30 957 H 92.3284 3.90019 -4.39498 0
M  V30 958 H 93.8524 4.69374 -3.90539 0
M  V30 959 H 95.2664 2.7275 -5.04262 0
M  V30 960 H 93.6634 2.16346 -5.59745 0
M  V30 961 H 94.7334 1.04315 -4.73547 0
M  V30 962 N 96.0765 1.50051 0.48192 0
M  V30 963 C 97.3225 1.60736 1.2366 0
M  V30 964 C 97.6555 0.301786 1.91841 0
M  V30 965 O 96.9305 -0.696025 1.8162 0
M  V30 966 C 97.2135 2.78009 2.28874 0
M  V30 967 C 97.0665 4.18416 1.65069 0
M  V30 968 C 98.3855 2.90867 3.30279 0
M  V30 969 H 95.5045 0.585031 0.448228 0
M  V30 970 H 98.1465 1.82402 0.531946 0
M  V30 971 H 96.2965 2.59667 2.88973 0
M  V30 972 H 97.9685 4.48322 1.0865 0
M  V30 973 H 96.2115 4.23177 0.954148 0
M  V30 974 H 96.8825 4.96381 2.41474 0
M  V30 975 H 99.3585 3.07623 2.80191 0
M  V30 976 H 98.2345 3.74566 4.01238 0
M  V30 977 H 98.4955 2.01021 3.93755 0
M  V30 978 N 97.5546 -0.734337 1.39446 0
M  V30 979 C 98.7946 -1.50655 1.38139 0
M  V30 980 C 99.1586 -1.91986 -0.0228701 0
M  V30 981 O 100.36 -2.68318 -0.160947 0
M  V30 982 C 98.6306 -2.71251 2.32718 0
M  V30 983 S 100.19 -3.60892 2.49605 0
M  V30 984 H 97.0076 -0.515315 0.489869 0
M  V30 985 H 99.6096 -0.860392 1.75549 0
M  V30 986 H 98.3136 -2.39027 3.33608 0
M  V30 987 H 97.8446 -3.40795 1.96526 0
M  V30 988 H 99.8596 -4.64899 1.73446 0
M  V30 989 N 99.0327 -1.24633 -0.964593 0
M  V30 990 C 99.9957 -1.0424 -2.04124 0
M  V30 991 C 100.996 0.00137563 -1.608 0
M  V30 992 O 102.186 -0.239883 -1.7254 0
M  V30 993 C 99.3177 -0.580588 -3.3592 0
M  V30 994 H 100.511 -1.99803 -2.23649 0
M  V30 995 H 98.0637 -1.06899 -1.14027 0
M  V30 996 H 98.7987 0.3781 -3.22088 0
M  V30 997 H 98.5837 -1.33398 -3.6871 0
M  V30 998 H 100.074 -0.459034 -4.15069 0
M  V30 999 N 100.511 1.16574 -1.06058 0
M  V30 1000 C 101.927 1.3904 -0.783585 0
M  V30 1001 C 102.127 1.91784 0.618145 0
M  V30 1002 O 101.183 2.11511 1.37911 0
M  V30 1003 C 102.496 2.37329 -1.84649 0
M  V30 1004 C 104.044 2.51018 -1.86973 0
M  V30 1005 C 104.519 3.52588 -2.92311 0
M  V30 1006 N 106.01 3.60113 -2.91329 0
M  V30 1007 C 106.745 4.38486 -3.69482 0
M  V30 1008 N 106.241 5.20302 -4.57447 0
M  V30 1009 N 108.034 4.33446 -3.57885 0
M  V30 1010 H 100.185 0.806725 -1.96483 0
M  V30 1011 H 102.448 0.417117 -0.851303 0
M  V30 1012 H 102.154 2.05663 -2.85299 0
M  V30 1013 H 102.028 3.36946 -1.6955 0
M  V30 1014 H 104.415 2.81989 -0.869827 0
M  V30 1015 H 104.496 1.51445 -2.0615 0
M  V30 1016 H 104.14 3.22354 -3.92492 0
M  V30 1017 H 104.07 4.51886 -2.70383 0
M  V30 1018 H 106.561 3.01707 -2.27555 0
M  V30 1019 H 106.874 5.77311 -5.13743 0
M  V30 1020 H 105.219 5.19653 -4.61503 0
M  V30 1021 H 108.41 3.68586 -2.88551 0
M  V30 1022 H 108.583 4.94279 -4.19037 0
M  V30 1023 N 101.989 0.842826 1.3317 0
M  V30 1024 C 102.921 0.236245 2.27979 0
M  V30 1025 C 103.934 -0.585282 1.51915 0
M  V30 1026 O 105.123 -0.411705 1.73687 0
M  V30 1027 C 102.223 -0.685717 3.3189 0
M  V30 1028 C 101.396 0.0973448 4.37292 0
M  V30 1029 C 100.455 -0.748565 5.20848 0
M  V30 1030 O 99.4809 -0.186339 5.68895 0
M  V30 1031 N 100.683 -2.06527 5.42519 0
M  V30 1032 H 103.448 1.05088 2.80672 0
M  V30 1033 H 101.009 0.701667 1.45905 0
M  V30 1034 H 103.001 -1.25669 3.84694 0
M  V30 1035 H 101.571 -1.40105 2.79445 0
M  V30 1036 H 100.791 0.849706 3.84933 0
M  V30 1037 H 102.079 0.635643 5.04814 0
M  V30 1038 H 101.477 -2.54554 5.05192 0
M  V30 1039 H 100.034 -2.58464 5.98364 0
M  V30 1040 N 103.467 -1.45747 0.599634 0
M  V30 1041 C 104.883 -1.57424 0.26264 0
M  V30 1042 C 105.083 -1.59222 -1.23493 0
M  V30 1043 O 104.139 -1.51825 -2.01756 0
M  V30 1044 C 105.452 -2.86061 0.926795 0
M  V30 1045 C 107 -2.99722 0.901967 0
M  V30 1046 C 107.475 -4.31119 1.54598 0
M  V30 1047 N 108.966 -4.37858 1.5111 0
M  V30 1048 C 109.701 -5.3818 1.97863 0
M  V30 1049 N 109.197 -6.45083 2.52666 0
M  V30 1050 N 110.99 -5.29487 1.88679 0
M  V30 1051 H 103.141 -1.42823 1.57211 0
M  V30 1052 H 105.404 -0.68235 0.658105 0
M  V30 1053 H 105.11 -2.90605 1.98095 0
M  V30 1054 H 104.984 -3.74563 0.445238 0
M  V30 1055 H 107.371 -2.9475 -0.143617 0
M  V30 1056 H 107.452 -2.12652 1.42171 0
M  V30 1057 H 107.096 -4.36849 2.59085 0
M  V30 1058 H 107.026 -5.16992 1.00132 0
M  V30 1059 H 109.517 -3.61209 1.11068 0
M  V30 1060 H 109.83 -7.17869 2.86155 0
M  V30 1061 H 108.175 -6.45856 2.56701 0
M  V30 1062 H 111.366 -4.44877 1.4561 0
M  V30 1063 H 111.539 -6.07524 2.25429 0
M  V30 1064 N 104.945 -0.338344 -1.53925 0
M  V30 1065 C 106.193 0.259245 -2.0043 0
M  V30 1066 C 106.514 1.51484 -1.22791 0
M  V30 1067 O 105.784 1.93037 -0.33368 0
M  V30 1068 H 104.364 0.0987845 -0.740439 0
M  V30 1069 H 107.026 -0.458302 -1.89435 0
M  V30 1070 H 106.122 0.505334 -3.07982 0
M  V30 1071 N 106.423 1.57458 -0.0668435 0
M  V30 1072 C 107.333 2.15937 0.916975 0
M  V30 1073 C 108.349 1.12123 1.33058 0
M  V30 1074 O 109.525 1.44366 1.40429 0
M  V30 1075 C 106.59 2.70547 2.16807 0
M  V30 1076 C 105.651 3.89215 1.81135 0
M  V30 1077 C 104.884 4.41211 3.0028 0
M  V30 1078 O 105.107 3.92225 4.14144 0
M  V30 1079 O 104.041 5.32605 2.80384 0
M  V30 1080 H 107.867 3.00354 0.449561 0
M  V30 1081 H 105.452 1.48584 0.155949 0
M  V30 1082 H 107.334 3.0557 2.90181 0
M  V30 1083 H 106.009 1.89192 2.62656 0
M  V30 1084 H 104.916 3.59054 1.05028 0
M  V30 1085 H 106.249 4.71848 1.40073 0
M  V30 1086 N 107.901 -0.206675 1.56239 0
M  V30 1087 C 109.126 -0.949474 1.8439 0
M  V30 1088 C 109.551 -1.76549 0.649016 0
M  V30 1089 O 108.909 -1.76782 -0.402231 0
M  V30 1090 C 108.957 -1.83078 3.10668 0
M  V30 1091 O 108.061 -2.9281 2.90407 0
M  V30 1092 H 107.402 -0.268033 0.607499 0
M  V30 1093 H 109.932 -0.215488 2.03462 0
M  V30 1094 H 109.942 -2.2377 3.41161 0
M  V30 1095 H 108.617 -1.23112 3.97261 0
M  V30 1096 H 107.194 -2.55956 2.71184 0
M  V30 1097 N 109.379 -1.50304 -0.473955 0
M  V30 1098 C 110.619 -1.62786 -1.23612 0
M  V30 1099 C 110.983 -0.319786 -1.89318 0
M  V30 1100 O 112.184 -0.320012 -2.66888 0
M  V30 1101 C 110.455 -2.77351 -2.25414 0
M  V30 1102 S 112.014 -3.09948 -3.10608 0
M  V30 1103 H 108.832 -0.573895 -0.419721 0
M  V30 1104 H 111.434 -1.88076 -0.533623 0
M  V30 1105 H 110.138 -3.70879 -1.75719 0
M  V30 1106 H 109.669 -2.54137 -3.00296 0
M  V30 1107 H 111.684 -2.53553 -4.26527 0
M  V30 1108 N 110.857 0.726932 -1.39834 0
M  V30 1109 C 112.082 1.52121 -1.40976 0
M  V30 1110 C 112.507 1.88098 -0.00826029 0
M  V30 1111 O 111.865 1.52479 0.980807 0
M  V30 1112 C 111.913 2.78021 -2.29644 0
M  V30 1113 O 111.017 3.74272 -1.73188 0
M  V30 1114 H 110.358 0.45908 -0.479731 0
M  V30 1115 H 112.888 0.896207 -1.83927 0
M  V30 1116 H 112.898 3.26671 -2.44438 0
M  V30 1117 H 111.573 2.51169 -3.31492 0
M  V30 1118 H 110.15 3.33073 -1.6768 0
M  V30 1119 N 112.336 1.25143 0.95797 0
M  V30 1120 C 113.613 1.00472 1.67823 0
M  V30 1121 C 113.993 -0.470056 2.058 0
M  V30 1122 O 113.341 -1.44663 1.76875 0
M  V30 1123 C 113.551 1.9372 2.90299 0
M  V30 1124 C 114.899 2.21371 3.62326 0
M  V30 1125 O 115.923 1.91451 3.00375 0
M  V30 1126 O 114.782 2.72231 4.7387 0
M  V30 1127 H 111.876 0.380752 0.734137 0
M  V30 1128 H 114.422 1.36283 1.01119 0
M  V30 1129 H 113.194 2.93316 2.59001 0
M  V30 1130 H 112.817 1.58286 3.64735 0
M  V30 1131 N 113.814 -1.1601 1.06675 0
M  V30 1132 C 114.744 -2.22688 0.702307 0
M  V30 1133 C 115.725 -1.67306 -0.307032 0
M  V30 1134 O 116.91 -1.93352 -0.181305 0
M  V30 1135 C 114.04 -3.47178 0.092038 0
M  V30 1136 C 112.994 -4.15477 1.02777 0
M  V30 1137 C 112.32 -5.33963 0.28061 0
M  V30 1138 C 113.62 -4.66019 2.35846 0
M  V30 1139 H 115.314 -2.53429 1.59419 0
M  V30 1140 H 112.86 -1.21813 0.767961 0
M  V30 1141 H 114.813 -4.21037 -0.174814 0
M  V30 1142 H 113.537 -3.15749 -0.834877 0
M  V30 1143 H 112.196 -3.43549 1.27944 0
M  V30 1144 H 111.844 -4.98788 -0.649545 0
M  V30 1145 H 111.544 -5.806 0.904258 0
M  V30 1146 H 113.068 -6.10596 0.021396 0
M  V30 1147 H 114.482 -5.3144 2.15045 0
M  V30 1148 H 112.879 -5.23293 2.93743 0
M  V30 1149 H 113.949 -3.82023 2.98641 0
M  V30 1150 N 115.292 -0.849877 -1.32721 0
M  V30 1151 C 116.202 -0.293791 -2.32753 0
M  V30 1152 C 117.218 0.585906 -1.63839 0
M  V30 1153 O 118.394 0.487413 -1.95413 0
M  V30 1154 C 115.459 0.512752 -3.42887 0
M  V30 1155 C 114.52 -0.39252 -4.27502 0
M  V30 1156 C 113.753 0.375625 -5.32377 0
M  V30 1157 O 113.976 1.60613 -5.4732 0
M  V30 1158 O 112.91 -0.256094 -6.01355 0
M  V30 1159 H 116.736 -1.12242 -2.82197 0
M  V30 1160 H 114.321 -0.612685 -1.36259 0
M  V30 1161 H 116.203 0.970704 -4.10067 0
M  V30 1162 H 114.878 1.31826 -2.95641 0
M  V30 1163 H 113.785 -0.898547 -3.63149 0
M  V30 1164 H 115.118 -1.16309 -4.7826 0
M  V30 1165 N 116.77 1.45427 -0.607355 0
M  V30 1166 C 118.181 1.85756 -0.187535 0
M  V30 1167 C 118.532 1.5077 1.25551 0
M  V30 1168 O 117.657 0.93427 1.95193 0
M  V30 1169 C 118.252 3.37154 -0.333572 0
M  V30 1170 C 116.811 3.76387 0.0315542 0
M  V30 1171 C 115.958 2.69377 -0.658117 0
M  V30 1172 H 118.909 1.36231 -0.81405 0
M  V30 1173 H 118.93 3.78014 0.43428 0
M  V30 1174 H 118.442 3.62586 -1.38393 0
M  V30 1175 H 116.543 3.56571 1.0811 0
M  V30 1176 H 116.656 4.77731 -0.361935 0
M  V30 1177 H 115.02 2.5452 -0.0957873 0
M  V30 1178 H 115.803 2.97646 -1.7106 0
M  V30 1179 N 118.248 0.346503 1.53744 0
M  V30 1180 C 119.488 -0.249413 2.02873 0
M  V30 1181 C 119.852 -1.47532 1.22876 0
M  V30 1182 O 121.053 -2.1456 1.61918 0
M  V30 1183 C 119.324 -0.552909 3.53097 0
M  V30 1184 S 120.883 -1.12521 4.24128 0
M  V30 1185 H 117.701 -0.074042 0.707134 0
M  V30 1186 H 120.303 0.48495 1.8939 0
M  V30 1187 H 119.007 0.347083 4.0893 0
M  V30 1188 H 118.538 -1.31686 3.70705 0
M  V30 1189 H 120.553 -2.41075 4.33702 0
M  V30 1190 N 119.726 -1.57421 0.075193 0
M  V30 1191 C 121.003 -1.85029 -0.634329 0
M  V30 1192 C 121.383 -0.968305 -1.87582 0
M  V30 1193 O 120.731 -0.0354749 -2.28472 0
M  V30 1194 C 120.941 -3.35286 -0.968742 0
M  V30 1195 C 122.289 -4.02875 -1.34077 0
M  V30 1196 O 123.313 -3.40051 -1.06037 0
M  V30 1197 O 122.172 -5.13691 -1.86506 0
M  V30 1198 H 119.266 -0.7645 -0.315387 0
M  V30 1199 H 121.812 -1.69366 0.106382 0
M  V30 1200 H 120.584 -3.91203 -0.0871376 0
M  V30 1201 H 120.207 -3.56223 -1.7661 0
M  V30 1202 N 121.204 0.198386 -1.56346 0
M  V30 1203 C 122.114 1.2664 -1.97483 0
M  V30 1204 C 123.13 1.49989 -0.882002 0
M  V30 1205 O 124.306 1.62668 -1.18748 0
M  V30 1206 C 121.371 2.59141 -2.30319 0
M  V30 1207 C 120.432 2.43892 -3.53292 0
M  V30 1208 C 119.665 3.70074 -3.84553 0
M  V30 1209 O 119.888 4.74101 -3.1715 0
M  V30 1210 O 118.822 3.658 -4.7799 0
M  V30 1211 H 122.648 0.947304 -2.88548 0
M  V30 1212 H 120.233 0.403123 -1.43859 0
M  V30 1213 H 122.115 3.37352 -2.5253 0
M  V30 1214 H 120.79 2.90684 -1.42423 0
M  V30 1215 H 119.697 1.63803 -3.36332 0
M  V30 1216 H 121.03 2.17282 -4.41644 0
M  V30 1217 N 122.682 1.50554 0.465978 0
M  V30 1218 C 123.907 1.65838 1.24549 0
M  V30 1219 C 124.332 0.343486 1.84937 0
M  V30 1220 O 123.69 -0.69324 1.67523 0
M  V30 1221 C 123.738 2.75533 2.32624 0
M  V30 1222 O 122.842 2.37142 3.37398 0
M  V30 1223 H 122.183 0.553893 0.366194 0
M  V30 1224 H 124.713 1.96959 0.553927 0
M  V30 1225 H 124.723 2.98763 2.77857 0
M  V30 1226 H 123.398 3.70962 1.88043 0
M  V30 1227 H 121.975 2.24377 2.97841 0
M  V30 1228 N 124.16 -0.719506 1.40217 0
M  V30 1229 C 125.385 -1.51371 1.4178 0
M  V30 1230 C 125.81 -1.88091 0.0182355 0
M  V30 1231 O 125.168 -1.52997 -0.972707 0
M  V30 1232 C 125.216 -2.768 2.31115 0
M  V30 1233 O 124.32 -3.73349 1.7517 0
M  V30 1234 H 123.661 -0.456529 0.482159 0
M  V30 1235 H 126.191 -0.88644 1.844 0
M  V30 1236 H 126.201 -3.25371 2.46167 0
M  V30 1237 H 124.876 -2.49407 3.3282 0
M  V30 1238 H 123.453 -3.32179 1.69444 0
M  V30 1239 N 125.638 -1.25649 -0.95132 0
M  V30 1240 C 126.886 -1.10375 -1.69298 0
M  V30 1241 C 127.207 0.355339 -1.91735 0
M  V30 1242 O 126.477 1.25188 -1.50681 0
M  V30 1243 H 125.057 -0.405461 -0.627384 0
M  V30 1244 H 127.719 -1.57823 -1.14358 0
M  V30 1245 H 126.815 -1.61465 -2.67087 0
M  V30 1246 N 127.117 1.15442 -1.07289 0
M  V30 1247 C 128.047 2.22312 -0.714107 0
M  V30 1248 C 129.028 1.67467 0.298155 0
M  V30 1249 O 130.213 1.93445 0.171048 0
M  V30 1250 C 127.343 3.47124 -0.110448 0
M  V30 1251 C 126.297 4.14926 -1.04979 0
M  V30 1252 C 125.623 5.33807 -0.308924 0
M  V30 1253 C 126.923 4.64762 -2.38314 0
M  V30 1254 H 128.617 2.5258 -1.6076 0
M  V30 1255 H 126.163 1.21404 -0.77441 0
M  V30 1256 H 128.116 4.21124 0.152482 0
M  V30 1257 H 126.84 3.16187 0.81812 0
M  V30 1258 H 125.499 3.42866 -1.29764 0
M  V30 1259 H 125.147 4.99126 0.623084 0
M  V30 1260 H 124.847 5.80113 -0.935036 0
M  V30 1261 H 126.371 6.10576 -0.0537771 0
M  V30 1262 H 127.785 5.30292 -2.1786 0
M  V30 1263 H 126.182 5.21728 -2.96514 0
M  V30 1264 H 127.252 3.80434 -3.00663 0
M  V30 1265 N 128.595 0.856903 1.32268 0
M  V30 1266 C 129.825 0.47475 2.01071 0
M  V30 1267 C 130.233 -0.933746 1.64553 0
M  V30 1268 O 129.576 -1.62114 0.863989 0
M  V30 1269 C 129.638 0.536746 3.55471 0
M  V30 1270 C 129.302 1.90453 4.15423 0
M  V30 1271 C 130.299 2.87029 4.33486 0
M  V30 1272 C 127.984 2.20229 4.51447 0
M  V30 1273 C 129.978 4.11532 4.86744 0
M  V30 1274 C 127.665 3.44984 5.0441 0
M  V30 1275 C 128.663 4.40452 5.22007 0
M  V30 1276 O 128.351 5.62998 5.73837 0
M  V30 1277 H 128.083 0.184778 0.650256 0
M  V30 1278 H 130.637 1.15615 1.69771 0
M  V30 1279 H 128.867 -0.20152 3.86175 0
M  V30 1280 H 130.556 0.169875 4.05544 0
M  V30 1281 H 131.322 2.6533 4.05986 0
M  V30 1282 H 127.201 1.46705 4.37034 0
M  V30 1283 H 130.745 4.86056 5.00395 0
M  V30 1284 H 126.642 3.66532 5.31342 0
M  V30 1285 H 127.41 5.64987 5.92226 0
M  V30 1286 N 130.073 -1.45103 0.615059 0
M  V30 1287 C 131.313 -2.04069 0.116282 0
M  V30 1288 C 131.677 -1.4721 -1.2326 0
M  V30 1289 O 132.878 -1.97577 -1.82255 0
M  V30 1290 C 131.149 -3.57298 0.085482 0
M  V30 1291 S 132.708 -4.37394 -0.351015 0
M  V30 1292 H 129.526 -0.709006 0.0532183 0
M  V30 1293 H 132.128 -1.77709 0.81484 0
M  V30 1294 H 130.832 -3.9619 1.0706 0
M  V30 1295 H 130.363 -3.88244 -0.634835 0
M  V30 1296 H 132.378 -4.69734 -1.59889 0
M  V30 1297 N 131.551 -0.354651 -1.53558 0
M  V30 1298 C 132.828 0.294281 -1.93374 0
M  V30 1299 C 133.208 1.67313 -1.28723 0
M  V30 1300 O 132.556 2.24179 -0.442247 0
M  V30 1301 C 132.766 0.355445 -3.47185 0
M  V30 1302 C 134.114 0.601007 -4.20325 0
M  V30 1303 O 135.138 0.437106 -3.53508 0
M  V30 1304 O 133.997 0.919322 -5.38712 0
M  V30 1305 H 131.091 0.174033 -0.808481 0
M  V30 1306 H 133.637 -0.406638 -1.64756 0
M  V30 1307 H 132.409 -0.611729 -3.86489 0
M  V30 1308 H 132.032 1.1027 -3.82003 0
M  V30 1309 N 133.029 1.57378 -0.0835403 0
M  V30 1310 C 134.445 1.57246 0.273109 0
M  V30 1311 C 134.645 1.09385 1.69225 0
M  V30 1312 O 133.701 0.765051 2.40631 0
M  V30 1313 C 135.014 3.00614 0.0720628 0
M  V30 1314 C 136.562 3.12684 0.1407 0
M  V30 1315 C 137.037 4.57989 -0.0322094 0
M  V30 1316 N 138.528 4.63194 0.0230085 0
M  V30 1317 C 139.263 5.73335 -0.0861941 0
M  V30 1318 N 138.759 6.9235 -0.24958 0
M  V30 1319 N 140.552 5.62093 -0.0282886 0
M  V30 1320 H 132.703 1.86801 -1.0109 0
M  V30 1321 H 134.966 0.861687 -0.395222 0
M  V30 1322 H 134.672 3.39786 -0.907662 0
M  V30 1323 H 134.546 3.68193 0.81936 0
M  V30 1324 H 136.933 2.73391 1.11092 0
M  V30 1325 H 137.014 2.47719 -0.637896 0
M  V30 1326 H 136.658 4.97973 -0.999247 0
M  V30 1327 H 136.588 5.21 0.765937 0
M  V30 1328 H 139.079 3.77613 0.14722 0
M  V30 1329 H 139.392 7.72117 -0.324733 0
M  V30 1330 H 137.737 6.94415 -0.285097 0
M  V30 1331 H 140.928 4.67997 0.0981408 0
M  V30 1332 H 141.101 6.47895 -0.116845 0
M  V30 1333 N 134.507 -0.190092 1.56449 0
M  V30 1334 C 135.732 -0.929864 1.85387 0
M  V30 1335 C 136.157 -1.7585 0.667704 0
M  V30 1336 O 135.515 -1.77198 -0.383459 0
M  V30 1337 C 135.563 -1.79773 3.12593 0
M  V30 1338 O 134.667 -2.89713 2.93496 0
M  V30 1339 H 134.008 -0.261574 0.610307 0
M  V30 1340 H 136.538 -0.193896 2.03679 0
M  V30 1341 H 136.548 -2.20139 3.43515 0
M  V30 1342 H 135.223 -1.18892 3.98544 0
M  V30 1343 H 133.8 -2.53065 2.73884 0
M  V30 1344 N 135.985 -1.50799 -0.457987 0
M  V30 1345 C 136.948 -1.7005 -1.53674 0
M  V30 1346 C 137.948 -0.570881 -1.50325 0
M  V30 1347 O 139.138 -0.838126 -1.52712 0
M  V30 1348 C 136.27 -1.73788 -2.93276 0
M  V30 1349 H 137.463 -2.66306 -1.37917 0
M  V30 1350 H 135.016 -1.40477 -0.685271 0
M  V30 1351 H 135.751 -0.792717 -3.14462 0
M  V30 1352 H 135.536 -2.55864 -2.97113 0
M  V30 1353 H 137.026 -1.90591 -3.71571 0
M  V30 1354 N 137.463 0.71206 -1.40597 0
M  V30 1355 C 138.74 1.46536 -1.29563 0
M  V30 1356 C 139.12 2.10931 0.0844217 0
M  V30 1357 O 138.468 2.00418 1.0975 0
M  V30 1358 C 138.678 2.49821 -2.43701 0
M  V30 1359 C 140.026 3.15551 -2.841 0
M  V30 1360 O 141.05 2.60142 -2.4332 0
M  V30 1361 O 139.909 4.15867 -3.54566 0
M  V30 1362 H 137.003 0.651801 -0.509004 0
M  V30 1363 H 139.549 0.743935 -1.52524 0
M  V30 1364 H 138.321 2.00778 -3.35863 0
M  V30 1365 H 137.944 3.29495 -2.22528 0
M  V30 1366 N 138.941 1.26152 0.944643 0
M  V30 1367 C 140.352 1.10454 1.50522 0
M  V30 1368 C 140.703 -0.31635 1.93633 0
M  V30 1369 O 139.828 -1.20746 1.79581 0
M  V30 1370 C 140.423 1.99891 2.73549 0
M  V30 1371 C 138.982 1.88348 3.25886 0
M  V30 1372 C 138.129 1.93447 1.9868 0
M  V30 1373 H 141.08 1.39292 0.760489 0
M  V30 1374 H 141.101 1.54477 3.47732 0
M  V30 1375 H 140.613 3.03297 2.42141 0
M  V30 1376 H 138.714 0.878636 3.62092 0
M  V30 1377 H 138.827 2.73696 3.93227 0
M  V30 1378 H 137.191 1.37456 2.14425 0
M  V30 1379 H 137.974 2.98476 1.69607 0
M  V30 1380 N 140.419 -1.14872 1.07899 0
M  V30 1381 C 141.644 -1.90202 0.826926 0
M  V30 1382 C 142.069 -1.77774 -0.614664 0
M  V30 1383 O 141.427 -1.11431 -1.43013 0
M  V30 1384 C 141.475 -3.38352 1.24702 0
M  V30 1385 O 140.579 -4.10497 0.39575 0
M  V30 1386 H 139.92 -0.591968 0.300782 0
M  V30 1387 H 142.45 -1.45437 1.43907 0
M  V30 1388 H 142.46 -3.89156 1.22563 0
M  V30 1389 H 141.135 -3.46715 2.29698 0
M  V30 1390 H 139.712 -3.69796 0.480117 0
M  V30 1391 N 141.898 -0.863906 -1.31812 0
M  V30 1392 C 142.846 -0.30422 -2.30602 0
M  V30 1393 C 143.84 0.577419 -1.59255 0
M  V30 1394 O 145.046 0.464194 -1.73912 0
M  V30 1395 H 141.421 -0.0796877 -0.747766 0
M  V30 1396 H 143.392 -1.15148 -2.75288 0
M  V30 1397 C 142.141 0.484617 -3.44306 0
M  V30 1398 H 141.464 -0.18451 -3.99374 0
M  V30 1399 H 142.904 0.841664 -4.15562 0
M  V30 1400 C 141.363 1.6735 -2.92396 0
M  V30 1401 O 141.893 2.77273 -2.90659 0
M  V30 1402 N 140.099 1.50362 -2.48676 0
M  V30 1403 H 139.646 0.609402 -2.50288 0
M  V30 1404 H 139.604 2.30051 -2.14299 0
M  V30 1405 N 143.376 1.44774 -0.622745 0
M  V30 1406 C 144.308 2.28856 0.125485 0
M  V30 1407 C 145.321 1.40811 0.817069 0
M  V30 1408 O 146.51 1.65044 0.679918 0
M  V30 1409 C 143.61 3.16963 1.19949 0
M  V30 1410 C 142.783 4.33374 0.592064 0
M  V30 1411 C 141.842 5.02577 1.55893 0
M  V30 1412 O 140.868 5.58873 1.07933 0
M  V30 1413 N 142.07 5.03256 2.89334 0
M  V30 1414 H 144.835 2.93713 -0.596068 0
M  V30 1415 H 142.396 1.55129 -0.463303 0
M  V30 1416 H 144.388 3.60123 1.84644 0
M  V30 1417 H 142.958 2.53913 1.82337 0
M  V30 1418 H 142.178 3.93509 -0.233322 0
M  V30 1419 H 143.466 5.08527 0.166738 0
M  V30 1420 H 142.864 4.58836 3.30887 0
M  V30 1421 H 141.421 5.50232 3.49412 0
M  V30 1422 N 144.854 0.36279 1.53368 0
M  V30 1423 C 146.082 -0.228613 2.05633 0
M  V30 1424 C 146.497 -1.42676 1.23649 0
M  V30 1425 O 145.854 -1.80394 0.27647 0
M  V30 1426 C 145.905 -0.624845 3.56059 0
M  V30 1427 O 145.626 0.525675 4.34935 0
M  V30 1428 C 147.127 -1.27493 4.24571 0
M  V30 1429 H 144.347 -0.0407183 0.669763 0
M  V30 1430 H 146.891 0.520352 1.97769 0
M  V30 1431 H 145.046 -1.32373 3.64083 0
M  V30 1432 H 145.46 0.205969 5.24095 0
M  V30 1433 H 146.934 -1.50277 5.31151 0
M  V30 1434 H 147.411 -2.23439 3.78116 0
M  V30 1435 H 148.017 -0.617558 4.20792 0
M  V30 1436 N 146.332 -1.57332 0.0918853 0
M  V30 1437 C 147.58 -1.93853 -0.571446 0
M  V30 1438 C 147.901 -0.974212 -1.6892 0
M  V30 1439 O 147.171 -0.0257254 -1.95883 0
M  V30 1440 H 145.751 -0.715666 -0.214082 0
M  V30 1441 H 148.413 -1.94287 0.154464 0
M  V30 1442 H 147.509 -2.96191 -0.983729 0
M  V30 1443 N 147.81 0.181792 -1.56548 0
M  V30 1444 C 149.059 0.898348 -1.8059 0
M  V30 1445 C 149.372 1.83862 -0.667379 0
M  V30 1446 O 150.578 2.59678 -0.792446 0
M  V30 1447 C 149.034 1.64791 -3.19956 0
M  V30 1448 C 148.642 0.751789 -4.41647 0
M  V30 1449 C 150.386 2.35331 -3.53298 0
M  V30 1450 C 148.293 1.50098 -5.72035 0
M  V30 1451 H 147.223 0.339194 -0.673397 0
M  V30 1452 H 149.874 0.151413 -1.82874 0
M  V30 1453 H 148.256 2.43921 -3.11959 0
M  V30 1454 H 149.43 -0.0018076 -4.608 0
M  V30 1455 H 147.745 0.156562 -4.16106 0
M  V30 1456 H 150.342 2.91958 -4.47956 0
M  V30 1457 H 150.685 3.10164 -2.77676 0
M  V30 1458 H 151.218 1.63154 -3.62803 0
M  V30 1459 H 147.957 0.795175 -6.50659 0
M  V30 1460 H 147.477 2.22817 -5.56878 0
M  V30 1461 H 149.156 2.05125 -6.13622 0
M  V30 1462 N 149.288 1.51039 0.449983 0
M  V30 1463 C 150.528 1.64732 1.21007 0
M  V30 1464 C 150.892 0.349865 1.88785 0
M  V30 1465 O 152.093 0.362431 2.66345 0
M  V30 1466 C 150.364 2.80902 2.20973 0
M  V30 1467 S 151.923 3.14851 3.05638 0
M  V30 1468 H 148.741 0.5805 0.410538 0
M  V30 1469 H 151.343 1.88901 0.503634 0
M  V30 1470 H 150.047 3.73627 1.69796 0
M  V30 1471 H 149.578 2.58882 2.96215 0
M  V30 1472 H 151.593 2.60306 4.22439 0
M  V30 1473 N 150.766 -0.704594 1.40972 0
M  V30 1474 C 151.994 -1.49354 1.43182 0
M  V30 1475 C 152.409 -1.88768 0.0345508 0
M  V30 1476 O 151.766 -1.56184 -0.944081 0
M  V30 1477 C 151.817 -2.76187 2.33244 0
M  V30 1478 O 151.538 -2.38436 3.67532 0
M  V30 1479 C 153.039 -3.7 2.44162 0
M  V30 1480 H 150.259 -0.460559 0.487982 0
M  V30 1481 H 152.803 -0.868261 1.85153 0
M  V30 1482 H 150.958 -3.34974 1.94606 0
M  V30 1483 H 151.372 -3.20126 4.15475 0
M  V30 1484 H 152.846 -4.55803 3.11364 0
M  V30 1485 H 153.323 -4.13867 1.47006 0
M  V30 1486 H 153.929 -3.17121 2.83398 0
M  V30 1487 N 152.244 -1.26651 -0.937939 0
M  V30 1488 C 153.207 -1.08546 -2.01867 0
M  V30 1489 C 154.207 -0.0327327 -1.60767 0
M  V30 1490 O 155.397 -0.276427 -1.71993 0
M  V30 1491 C 152.529 -0.651711 -3.34613 0
M  V30 1492 H 153.722 -2.04502 -2.1936 0
M  V30 1493 H 151.275 -1.09294 -1.11734 0
M  V30 1494 H 152.01 0.309696 -3.22818 0
M  V30 1495 H 151.795 -1.41189 -3.65798 0
M  V30 1496 H 153.285 -0.546973 -4.14002 0
M  V30 1497 N 153.722 1.14298 -1.08507 0
M  V30 1498 C 154.968 1.85633 -0.816581 0
M  V30 1499 C 155.301 1.82784 0.656021 0
M  V30 1500 O 154.576 1.25926 1.48233 0
M  V30 1501 C 154.859 3.34223 -1.34041 0
M  V30 1502 C 154.712 3.45639 -2.87843 0
M  V30 1503 C 156.031 4.29356 -0.9665 0
M  V30 1504 H 153.15 0.67402 -0.298104 0
M  V30 1505 H 155.792 1.34214 -1.34487 0
M  V30 1506 H 153.942 3.78144 -0.89104 0
M  V30 1507 H 155.614 3.10498 -3.41158 0
M  V30 1508 H 153.857 2.86817 -3.25451 0
M  V30 1509 H 154.528 4.50089 -3.19569 0
M  V30 1510 H 157.004 3.93457 -1.35391 0
M  V30 1511 H 155.88 5.3178 -1.3602 0
M  V30 1512 H 156.141 4.41919 0.126362 0
M  V30 1513 N 155.201 0.870884 1.31352 0
M  V30 1514 C 156.111 0.330783 2.32256 0
M  V30 1515 C 157.127 -0.559767 1.6475 0
M  V30 1516 O 158.303 -0.456263 1.96164 0
M  V30 1517 C 155.368 -0.458137 3.4366 0
M  V30 1518 C 154.429 0.460482 4.26823 0
M  V30 1519 C 153.662 -0.290881 5.32907 0
M  V30 1520 O 153.885 -1.51885 5.49806 0
M  V30 1521 O 152.819 0.351732 6.00871 0
M  V30 1522 H 156.645 1.16718 2.80376 0
M  V30 1523 H 154.23 0.634285 1.35267 0
M  V30 1524 H 156.112 -0.905343 4.1156 0
M  V30 1525 H 154.787 -1.27106 2.97701 0
M  V30 1526 H 153.694 0.956207 3.61673 0
M  V30 1527 H 155.027 1.23903 4.7635 0
M  V30 1528 N 156.679 -1.44442 0.630414 0
M  V30 1529 C 157.927 -2.01653 0.134351 0
M  V30 1530 C 158.248 -1.49836 -1.24796 0
M  V30 1531 O 157.518 -0.701684 -1.82902 0
M  V30 1532 H 156.098 -0.74554 0.0466769 0
M  V30 1533 H 158.76 -1.76952 0.816955 0
M  V30 1534 H 157.856 -3.11935 0.101498 0
M  V30 1535 N 158.157 -0.370918 -1.53173 0
M  V30 1536 C 159.434 0.273754 -1.93675 0
M  V30 1537 C 159.814 1.65938 -1.3049 0
M  V30 1538 O 159.162 2.23698 -0.465999 0
M  V30 1539 C 159.372 0.318602 -3.47543 0
M  V30 1540 C 160.72 0.556392 -4.20939 0
M  V30 1541 O 161.744 0.399587 -3.53952 0
M  V30 1542 O 160.603 0.862133 -5.39657 0
M  V30 1543 H 157.697 0.165448 -0.810281 0
M  V30 1544 H 160.243 -0.42409 -1.64315 0
M  V30 1545 H 159.015 -0.652687 -3.85818 0
M  V30 1546 H 158.638 1.06212 -3.83151 0
M  V30 1547 N 159.635 1.57281 -0.100228 0
M  V30 1548 C 160.583 2.15542 0.874328 0
M  V30 1549 C 161.577 1.09962 1.28859 0
M  V30 1550 O 162.783 1.28298 1.26252 0
M  V30 1551 H 159.158 0.689567 0.300003 0
M  V30 1552 H 161.129 2.96241 0.35829 0
M  V30 1553 C 159.878 2.75454 2.1218 0
M  V30 1554 H 159.201 3.56384 1.81193 0
M  V30 1555 H 160.641 3.19781 2.78417 0
M  V30 1556 C 159.1 1.71602 2.89921 0
M  V30 1557 O 159.63 1.15804 3.84646 0
M  V30 1558 N 157.836 1.41975 2.53558 0
M  V30 1559 H 157.383 1.87539 1.76598 0
M  V30 1560 H 157.341 0.727274 3.05873 0
M  V30 1561 N 161.113 -0.173488 1.56642 0
M  V30 1562 C 162.353 -0.896984 1.83667 0
M  V30 1563 C 162.717 -1.79523 0.680842 0
M  V30 1564 O 163.918 -2.55616 0.831488 0
M  V30 1565 C 162.189 -1.67351 3.15798 0
M  V30 1566 S 163.748 -2.44607 3.64298 0
M  V30 1567 H 160.566 -0.300464 0.644393 0
M  V30 1568 H 163.168 -0.158775 1.94854 0
M  V30 1569 H 161.872 -1.00462 3.97914 0
M  V30 1570 H 161.403 -2.45313 3.07546 0
M  V30 1571 H 163.418 -3.69261 3.31452 0
M  V30 1572 N 162.591 -1.51276 -0.441967 0
M  V30 1573 C 163.837 -1.63958 -1.19355 0
M  V30 1574 C 164.17 -0.352543 -1.90973 0
M  V30 1575 O 163.445 0.647627 -1.83401 0
M  V30 1576 C 163.728 -2.83979 -2.21422 0
M  V30 1577 C 163.581 -4.22646 -1.53918 0
M  V30 1578 C 164.9 -2.99521 -3.22451 0
M  V30 1579 H 162.019 -0.596709 -0.432559 0
M  V30 1580 H 164.661 -1.83748 -0.483398 0
M  V30 1581 H 162.811 -2.67237 -2.81987 0
M  V30 1582 H 164.483 -4.51045 -0.967256 0
M  V30 1583 H 162.726 -4.25558 -0.841615 0
M  V30 1584 H 163.397 -5.02609 -2.28229 0
M  V30 1585 H 165.873 -3.14944 -2.71937 0
M  V30 1586 H 164.749 -3.85072 -3.91166 0
M  V30 1587 H 165.01 -2.11391 -3.88287 0
M  V30 1588 N 164.069 0.697108 -1.41344 0
M  V30 1589 C 165.316 1.45714 -1.40619 0
M  V30 1590 C 165.644 1.94494 -0.0147907 0
M  V30 1591 O 164.899 1.69794 0.973066 0
M  V30 1592 C 165.198 2.68553 -2.35826 0
M  V30 1593 C 164.864 2.38438 -3.82698 0
M  V30 1594 C 163.526 2.29936 -4.22709 0
M  V30 1595 C 165.878 2.13567 -4.75435 0
M  V30 1596 C 163.206 1.94656 -5.53467 0
M  V30 1597 C 165.558 1.79797 -6.06511 0
M  V30 1598 C 164.222 1.69789 -6.45545 0
M  V30 1599 H 163.492 0.533206 -0.51456 0
M  V30 1600 H 166.139 0.796901 -1.74131 0
M  V30 1601 H 164.444 3.39503 -1.95563 0
M  V30 1602 H 166.141 3.2669 -2.32539 0
M  V30 1603 H 162.731 2.4595 -3.51008 0
M  V30 1604 H 166.915 2.19082 -4.45328 0
M  V30 1605 H 162.171 1.8546 -5.82593 0
M  V30 1606 H 166.345 1.59572 -6.77872 0
M  V30 1607 H 163.972 1.4222 -7.46778 0
M  V30 1608 N 165.547 1.27147 0.931209 0
M  V30 1609 C 166.824 1.0401 1.65654 0
M  V30 1610 C 167.204 -0.426297 2.06751 0
M  V30 1611 O 166.552 -1.40879 1.79904 0
M  V30 1612 C 166.762 1.99834 2.86125 0
M  V30 1613 C 168.11 2.29007 3.57549 0
M  V30 1614 O 169.134 1.97779 2.96246 0
M  V30 1615 O 167.993 2.82222 4.67989 0
M  V30 1616 H 165.087 0.396239 0.725895 0
M  V30 1617 H 167.633 1.38397 0.982056 0
M  V30 1618 H 166.405 2.98744 2.52721 0
M  V30 1619 H 166.028 1.65987 3.61295 0
M  V30 1620 N 167.025 -1.13721 1.09112 0
M  V30 1621 C 168.273 -1.84559 0.823562 0
M  V30 1622 C 168.594 -1.83754 -0.652658 0
M  V30 1623 O 167.864 -1.29102 -1.47342 0
M  V30 1624 H 166.444 -0.683376 0.301673 0
M  V30 1625 H 169.106 -1.37771 1.37859 0
M  V30 1626 H 168.202 -2.8917 1.17419 0
M  V30 1627 N 168.503 -0.877838 -1.30888 0
M  V30 1628 C 169.749 -0.493426 -1.96706 0
M  V30 1629 C 170.082 0.953504 -1.6918 0
M  V30 1630 O 169.357 1.67266 -0.992594 0
M  V30 1631 C 169.64 -0.760429 -3.51979 0
M  V30 1632 C 169.493 -2.25747 -3.89048 0
M  V30 1633 C 170.812 -0.232148 -4.39487 0
M  V30 1634 H 167.931 -0.180746 -0.714493 0
M  V30 1635 H 170.573 -1.10052 -1.54882 0
M  V30 1636 H 168.723 -0.243715 -3.87735 0
M  V30 1637 H 170.395 -2.84204 -3.63354 0
M  V30 1638 H 168.638 -2.72694 -3.37373 0
M  V30 1639 H 169.309 -2.39491 -4.97341 0
M  V30 1640 H 171.785 -0.674314 -4.106 0
M  V30 1641 H 170.661 -0.448355 -5.47066 0
M  V30 1642 H 170.922 0.866297 -4.33529 0
M  V30 1643 N 169.982 1.44106 -0.638065 0
M  V30 1644 C 171.231 2.01194 -0.142744 0
M  V30 1645 C 171.544 1.50835 1.24532 0
M  V30 1646 O 172.75 2.00096 1.83504 0
M  V30 1647 C 171.206 3.59319 -0.20442 0
M  V30 1648 C 170.814 4.18674 -1.59423 0
M  V30 1649 C 172.558 4.23854 0.234079 0
M  V30 1650 C 170.465 5.69045 -1.61065 0
M  V30 1651 H 169.395 0.752367 -0.0495998 0
M  V30 1652 H 172.046 1.65246 -0.797881 0
M  V30 1653 H 170.428 3.92598 0.517946 0
M  V30 1654 H 171.602 3.96921 -2.34074 0
M  V30 1655 H 169.917 3.66453 -1.97741 0
M  V30 1656 H 172.514 5.34155 0.241443 0
M  V30 1657 H 172.857 3.96688 1.2627 0
M  V30 1658 H 173.39 3.95403 -0.436025 0
M  V30 1659 H 170.129 6.00956 -2.61787 0
M  V30 1660 H 169.649 5.929 -0.90718 0
M  V30 1661 H 171.328 6.32809 -1.34766 0
M  V30 1662 N 171.46 0.379036 1.52974 0
M  V30 1663 C 172.69 -0.20649 2.05566 0
M  V30 1664 C 173.098 -1.41906 1.25137 0
M  V30 1665 O 172.441 -1.81421 0.288464 0
M  V30 1666 C 172.503 -0.651086 3.53555 0
M  V30 1667 C 172.167 0.446626 4.54812 0
M  V30 1668 C 173.164 1.30079 5.03364 0
M  V30 1669 C 170.849 0.610719 4.98573 0
M  V30 1670 C 172.843 2.30426 5.94292 0
M  V30 1671 C 170.53 1.61754 5.89304 0
M  V30 1672 C 171.528 2.46274 6.37054 0
M  V30 1673 O 171.216 3.45237 7.25994 0
M  V30 1674 H 170.948 -0.0372381 0.674974 0
M  V30 1675 H 173.502 0.539718 1.98182 0
M  V30 1676 H 171.732 -1.44911 3.58522 0
M  V30 1677 H 173.421 -1.16112 3.88938 0
M  V30 1678 H 174.187 1.18527 4.70294 0
M  V30 1679 H 170.066 -0.0374044 4.60985 0
M  V30 1680 H 173.61 2.96432 6.31485 0
M  V30 1681 H 169.507 1.73348 6.21788 0
M  V30 1682 H 170.275 3.41124 7.44027 0
M  V30 1683 N 172.938 -1.57226 0.108567 0
M  V30 1684 C 174.354 -1.5766 -0.248058 0
M  V30 1685 C 174.554 -1.12063 -1.67464 0
M  V30 1686 O 173.61 -0.803236 -2.39383 0
M  V30 1687 C 174.923 -3.0069 -0.0242287 0
M  V30 1688 C 176.471 -3.12868 -0.0909372 0
M  V30 1689 C 176.946 -4.57879 0.105067 0
M  V30 1690 N 178.437 -4.63172 0.0506846 0
M  V30 1691 C 179.172 -5.73126 0.177396 0
M  V30 1692 N 178.668 -6.91866 0.359696 0
M  V30 1693 N 180.461 -5.61977 0.117709 0
M  V30 1694 H 172.612 -1.85169 1.04049 0
M  V30 1695 H 174.875 -0.85529 0.40888 0
M  V30 1696 H 174.581 -3.38299 0.961604 0
M  V30 1697 H 174.455 -3.6945 -0.76068 0
M  V30 1698 H 176.842 -2.75124 -1.06729 0
M  V30 1699 H 176.923 -2.46672 0.677225 0
M  V30 1700 H 176.567 -4.96321 1.07834 0
M  V30 1701 H 176.497 -5.22153 -0.682954 0
M  V30 1702 H 178.988 -3.778 -0.0871266 0
M  V30 1703 H 179.301 -7.71503 0.447529 0
M  V30 1704 H 177.646 -6.93874 0.395536 0
M  V30 1705 H 180.837 -4.68094 -0.0236741 0
M  V30 1706 H 181.01 -6.47627 0.219905 0
M  V30 1707 N 174.416 0.165178 -1.56732 0
M  V30 1708 C 175.641 0.900253 -1.86843 0
M  V30 1709 C 176.066 1.74766 -0.695596 0
M  V30 1710 O 175.424 1.77786 0.35522 0
M  V30 1711 C 175.472 1.74777 -3.15413 0
M  V30 1712 O 174.576 2.85007 -2.98068 0
M  V30 1713 H 173.917 0.251832 -0.614391 0
M  V30 1714 H 176.447 0.161468 -2.03962 0
M  V30 1715 H 176.457 2.14646 -3.46974 0
M  V30 1716 H 175.132 1.12537 -4.00385 0
M  V30 1717 H 173.709 2.48676 -2.77875 0
M  V30 1718 N 175.894 1.51508 0.433938 0
M  V30 1719 C 177.142 1.6402 1.18075 0
M  V30 1720 C 177.463 0.360328 1.91642 0
M  V30 1721 O 176.733 -0.623945 1.85698 0
M  V30 1722 H 175.313 0.6045 0.43885 0
M  V30 1723 H 177.975 1.88452 0.497178 0
M  V30 1724 H 177.071 2.46949 1.90847 0
M  V30 1725 N 177.372 -0.689602 1.41712 0
M  V30 1726 C 178.282 -1.83314 1.46401 0
M  V30 1727 C 179.298 -1.7036 0.35405 0
M  V30 1728 O 180.474 -1.92171 0.602692 0
M  V30 1729 C 177.539 -3.19344 1.34982 0
M  V30 1730 C 176.6 -3.44363 2.56344 0
M  V30 1731 C 175.833 -4.73904 2.45461 0
M  V30 1732 O 176.056 -5.508 1.48241 0
M  V30 1733 O 174.99 -4.99839 3.35328 0
M  V30 1734 H 178.816 -1.82314 2.42889 0
M  V30 1735 H 176.401 -0.843438 1.23315 0
M  V30 1736 H 178.283 -4.00547 1.3092 0
M  V30 1737 H 176.958 -3.21014 0.41612 0
M  V30 1738 H 175.865 -2.63067 2.65982 0
M  V30 1739 H 177.198 -3.47512 3.48563 0
M  V30 1740 N 178.85 -1.27639 -0.924453 0
M  V30 1741 C 179.797 -1.10644 -2.0255 0
M  V30 1742 C 180.767 -0.00658438 -1.66099 0
M  V30 1743 O 181.952 -0.16952 -1.90045 0
M  V30 1744 C 179.092 -0.76309 -3.36557 0
M  V30 1745 C 178.205 -1.94091 -3.85944 0
M  V30 1746 C 177.34 -1.53914 -5.08413 0
M  V30 1747 C 176.379 -2.68425 -5.50104 0
M  V30 1748 N 175.516 -2.28815 -6.63768 0
M  V30 1749 H 180.356 -2.04858 -2.16419 0
M  V30 1750 H 177.893 -1.01974 -1.06017 0
M  V30 1751 H 179.851 -0.544822 -4.13627 0
M  V30 1752 H 178.481 0.142102 -3.22487 0
M  V30 1753 H 177.533 -2.27162 -3.05125 0
M  V30 1754 H 178.845 -2.7998 -4.12811 0
M  V30 1755 H 177.999 -1.28231 -5.92994 0
M  V30 1756 H 176.738 -0.651391 -4.8333 0
M  V30 1757 H 175.743 -2.94819 -4.64071 0
M  V30 1758 H 176.968 -3.57826 -5.7718 0
M  V30 1759 H 174.914 -1.42495 -6.40337 0
M  V30 1760 H 174.831 -3.08242 -6.90306 0
M  V30 1761 H 176.099 -2.06387 -7.51681 0
M  V30 1762 N 180.328 1.1314 -1.09713 0
M  V30 1763 C 181.575 1.84484 -0.834987 0
M  V30 1764 C 181.903 1.83689 0.639418 0
M  V30 1765 O 181.158 1.2724 1.4869 0
M  V30 1766 C 181.457 3.32167 -1.3191 0
M  V30 1767 C 181.123 3.53139 -2.80363 0
M  V30 1768 C 179.785 3.58571 -3.20905 0
M  V30 1769 C 182.137 3.60866 -3.76065 0
M  V30 1770 C 179.465 3.69267 -4.55916 0
M  V30 1771 C 181.817 3.73089 -5.10869 0
M  V30 1772 C 180.481 3.76775 -5.50996 0
M  V30 1773 H 179.751 0.675073 -0.305544 0
M  V30 1774 H 182.398 1.33554 -1.37243 0
M  V30 1775 H 180.703 3.85469 -0.701517 0
M  V30 1776 H 182.4 3.85821 -1.09284 0
M  V30 1777 H 178.99 3.49569 -2.47991 0
M  V30 1778 H 183.174 3.55946 -3.45855 0
M  V30 1779 H 178.43 3.70388 -4.86438 0
M  V30 1780 H 182.604 3.78011 -5.84877 0
M  V30 1781 H 180.231 3.84815 -6.55608 0
M  V30 1782 N 181.806 0.884767 1.30421 0
M  V30 1783 C 182.738 0.308655 2.27112 0
M  V30 1784 C 183.751 -0.536655 1.53701 0
M  V30 1785 O 184.94 -0.35624 1.74909 0
M  V30 1786 C 182.04 -0.579782 3.33904 0
M  V30 1787 C 181.213 0.236417 4.36761 0
M  V30 1788 C 180.272 -0.582482 5.22966 0
M  V30 1789 O 179.298 -0.00525502 5.692 0
M  V30 1790 N 180.5 -1.89163 5.48815 0
M  V30 1791 H 183.265 1.13964 2.77186 0
M  V30 1792 H 180.826 0.747731 1.43599 0
M  V30 1793 H 182.818 -1.13366 3.88497 0
M  V30 1794 H 181.388 -1.31144 2.83761 0
M  V30 1795 H 180.608 0.97174 3.82035 0
M  V30 1796 H 181.896 0.795924 5.02536 0
M  V30 1797 H 181.294 -2.38352 5.13035 0
M  V30 1798 H 179.851 -2.39296 6.06284 0
M  V30 1799 N 183.284 -1.43765 0.645699 0
M  V30 1800 C 184.695 -1.85193 0.236719 0
M  V30 1801 C 185.046 -1.54045 -1.21509 0
M  V30 1802 O 184.171 -0.985694 -1.92647 0
M  V30 1803 C 184.766 -3.36151 0.422845 0
M  V30 1804 C 183.325 -3.76338 0.0682492 0
M  V30 1805 C 182.472 -2.67538 0.729306 0
M  V30 1806 H 185.423 -1.34025 0.849883 0
M  V30 1807 H 185.444 -3.79032 -0.333904 0
M  V30 1808 H 184.956 -3.5879 1.47958 0
M  V30 1809 H 183.057 -3.59312 -0.986179 0
M  V30 1810 H 183.17 -4.76603 0.488469 0
M  V30 1811 H 181.534 -2.54176 0.163235 0
M  V30 1812 H 182.317 -2.93006 1.78892 0
M  V30 1813 N 184.763 -0.387143 -1.52771 0
M  V30 1814 C 185.988 0.198407 -2.06449 0
M  V30 1815 C 186.413 1.39918 -1.25716 0
M  V30 1816 O 185.771 1.79099 -0.281657 0
M  V30 1817 C 185.819 0.548893 -3.56398 0
M  V30 1818 O 184.923 1.64315 -3.78252 0
M  V30 1819 H 184.264 0.0237731 -0.663574 0
M  V30 1820 H 186.794 -0.553989 -1.96957 0
M  V30 1821 H 186.804 0.813812 -3.99801 0
M  V30 1822 H 185.479 -0.329005 -4.14597 0
M  V30 1823 H 184.056 1.37211 -3.46738 0
M  V30 1824 N 186.241 1.57166 -0.116904 0
M  V30 1825 C 187.481 1.97008 0.544715 0
M  V30 1826 C 187.845 0.998713 1.63981 0
M  V30 1827 O 189.046 1.28644 2.36018 0
M  V30 1828 C 187.317 3.41145 1.06559 0
M  V30 1829 S 188.876 4.02998 1.73603 0
M  V30 1830 H 185.694 0.688587 0.177112 0
M  V30 1831 H 188.296 1.94459 -0.201487 0
M  V30 1832 H 187 4.09592 0.257374 0
M  V30 1833 H 186.531 3.4734 1.84712 0
M  V30 1834 H 188.546 3.93585 3.02168 0
M  V30 1835 N 187.719 -0.156864 1.56817 0
M  V30 1836 C 188.666 -1.19394 1.97519 0
M  V30 1837 C 189.636 -1.4322 0.841265 0
M  V30 1838 O 190.821 -1.55719 1.10255 0
M  V30 1839 C 187.961 -2.52483 2.35258 0
M  V30 1840 C 187.074 -2.35914 3.61896 0
M  V30 1841 C 186.209 -3.61969 3.88782 0
M  V30 1842 C 185.248 -3.40395 5.08722 0
M  V30 1843 N 184.385 -4.58556 5.31668 0
M  V30 1844 H 189.225 -0.839845 2.85921 0
M  V30 1845 H 186.762 -0.403264 1.41464 0
M  V30 1846 H 188.72 -3.30071 2.55165 0
M  V30 1847 H 187.35 -2.85859 1.49949 0
M  V30 1848 H 186.402 -1.49429 3.49821 0
M  V30 1849 H 187.714 -2.15926 4.49641 0
M  V30 1850 H 186.868 -4.47989 4.09135 0
M  V30 1851 H 185.607 -3.84951 2.9944 0
M  V30 1852 H 184.612 -2.52763 4.88253 0
M  V30 1853 H 185.837 -3.18822 5.99608 0
M  V30 1854 H 183.783 -4.81729 4.45279 0
M  V30 1855 H 183.7 -4.41535 6.13664 0
M  V30 1856 H 184.968 -5.45817 5.5651 0
M  V30 1857 N 189.197 -1.51736 -0.425897 0
M  V30 1858 C 190.444 -1.6497 -1.17436 0
M  V30 1859 C 190.772 -0.371445 -1.9092 0
M  V30 1860 O 190.027 0.644963 -1.84767 0
M  V30 1861 C 190.326 -2.81103 -2.20717 0
M  V30 1862 C 189.992 -4.19954 -1.64162 0
M  V30 1863 C 188.654 -4.57725 -1.48462 0
M  V30 1864 C 191.006 -5.06552 -1.22696 0
M  V30 1865 C 188.334 -5.79789 -0.897873 0
M  V30 1866 C 190.686 -6.29205 -0.654464 0
M  V30 1867 C 189.35 -6.6574 -0.484456 0
M  V30 1868 H 188.62 -0.603668 -0.429727 0
M  V30 1869 H 191.267 -1.85798 -0.463829 0
M  V30 1870 H 189.572 -2.54542 -2.97852 0
M  V30 1871 H 191.269 -2.8854 -2.78471 0
M  V30 1872 H 187.859 -3.90181 -1.77361 0
M  V30 1873 H 192.043 -4.77968 -1.33642 0
M  V30 1874 H 187.299 -6.06733 -0.75402 0
M  V30 1875 H 191.473 -6.95643 -0.324694 0
M  V30 1876 H 189.1 -7.60195 -0.0276833 0
M  V30 1877 N 190.675 0.682077 -1.42076 0
M  V30 1878 C 191.607 1.80755 -1.40926 0
M  V30 1879 C 192.62 1.59833 -0.309398 0
M  V30 1880 O 193.809 1.69087 -0.572014 0
M  V30 1881 C 190.909 3.17744 -1.17865 0
M  V30 1882 C 190.082 3.65578 -2.40149 0
M  V30 1883 C 189.141 4.81277 -2.12742 0
M  V30 1884 O 188.167 4.92197 -2.85887 0
M  V30 1885 N 189.369 5.69474 -1.12602 0
M  V30 1886 H 192.134 1.82229 -2.37935 0
M  V30 1887 H 189.695 0.864903 -1.36861 0
M  V30 1888 H 191.687 3.9279 -0.9746 0
M  V30 1889 H 190.257 3.11214 -0.294068 0
M  V30 1890 H 189.477 2.81291 -2.76169 0
M  V30 1891 H 190.765 3.94278 -3.21593 0
M  V30 1892 H 190.163 5.63297 -0.520899 0
M  V30 1893 H 188.72 6.44363 -0.981842 0
M  V30 1894 N 192.153 1.28127 0.917671 0
M  V30 1895 C 193.393 1.163 1.68088 0
M  V30 1896 C 193.757 -0.284515 1.8988 0
M  V30 1897 O 194.958 -0.525413 2.63615 0
M  V30 1898 C 193.229 1.93546 3.00457 0
M  V30 1899 S 194.788 1.98048 3.91564 0
M  V30 1900 H 191.606 0.415005 0.577315 0
M  V30 1901 H 194.208 1.62173 1.09179 0
M  V30 1902 H 192.912 2.97888 2.82295 0
M  V30 1903 H 192.443 1.48207 3.64415 0
M  V30 1904 H 194.458 1.08415 4.84211 0
M  V30 1905 N 193.631 -1.12557 1.10312 0
M  V30 1906 C 194.859 -1.87864 0.866873 0
M  V30 1907 C 195.274 -1.79588 -0.582557 0
M  V30 1908 O 194.631 -1.16887 -1.40156 0
M  V30 1909 C 194.682 -3.37125 1.30496 0
M  V30 1910 O 194.403 -3.45201 2.69755 0
M  V30 1911 C 195.904 -4.29373 1.10243 0
M  V30 1912 H 193.124 -0.594452 0.311236 0
M  V30 1913 H 195.668 -1.42429 1.46745 0
M  V30 1914 H 193.823 -3.80109 0.748081 0
M  V30 1915 H 194.237 -4.38056 2.88457 0
M  V30 1916 H 195.711 -5.32394 1.45811 0
M  V30 1917 H 196.188 -4.39181 0.0409492 0
M  V30 1918 H 196.794 -3.92169 1.64571 0
M  V30 1919 N 195.109 -0.891671 -1.2995 0
M  V30 1920 C 196.349 -0.520296 -1.97667 0
M  V30 1921 C 196.713 0.914797 -1.68806 0
M  V30 1922 O 197.914 1.39263 -2.29911 0
M  V30 1923 C 196.185 -0.795222 -3.48441 0
M  V30 1924 S 197.744 -0.526953 -4.35624 0
M  V30 1925 H 194.562 -0.19333 -0.684211 0
M  V30 1926 H 197.164 -1.15238 -1.57926 0
M  V30 1927 H 195.868 -1.83805 -3.66938 0
M  V30 1928 H 195.399 -0.15095 -3.9311 0
M  V30 1929 H 197.414 0.631533 -4.92165 0
M  V30 1930 N 196.587 1.43421 -0.653314 0
M  V30 1931 C 198.003 1.56341 -0.320886 0
M  V30 1932 C 198.203 1.63696 1.17499 0
M  V30 1933 O 197.259 1.59208 1.95982 0
M  V30 1934 C 198.572 2.82424 -1.03233 0
M  V30 1935 C 200.12 2.96168 -1.01259 0
M  V30 1936 C 200.595 4.25084 -1.70492 0
M  V30 1937 N 202.086 4.31948 -1.67257 0
M  V30 1938 C 202.821 5.30466 -2.17701 0
M  V30 1939 N 202.317 6.35261 -2.76434 0
M  V30 1940 N 204.11 5.2212 -2.082 0
M  V30 1941 H 196.261 1.3689 -1.62403 0
M  V30 1942 H 198.524 0.657455 -0.682977 0
M  V30 1943 H 198.23 2.83053 -2.08744 0
M  V30 1944 H 198.104 3.72653 -0.583948 0
M  V30 1945 H 200.491 2.9508 0.0341235 0
M  V30 1946 H 200.572 2.07229 -1.49966 0
M  V30 1947 H 200.216 4.26932 -2.7512 0
M  V30 1948 H 200.146 5.1292 -1.19251 0
M  V30 1949 H 202.637 3.56838 -1.24398 0
M  V30 1950 H 202.95 7.06754 -3.12601 0
M  V30 1951 H 201.295 6.35884 -2.80495 0
M  V30 1952 H 204.486 4.39166 -1.62021 0
M  V30 1953 H 204.659 5.98739 -2.47822 0
M  V30 1954 N 198.065 0.39524 1.52563 0
M  V30 1955 C 199.342 -0.242908 1.94086 0
M  V30 1956 C 199.722 -1.63841 1.33114 0
M  V30 1957 O 199.07 -2.22928 0.501529 0
M  V30 1958 C 199.28 -0.26327 3.48006 0
M  V30 1959 C 200.628 -0.489354 4.21771 0
M  V30 1960 O 201.652 -0.343226 3.54543 0
M  V30 1961 O 200.511 -0.776169 5.4096 0
M  V30 1962 H 197.605 -0.152536 0.812811 0
M  V30 1963 H 200.151 0.450178 1.6362 0
M  V30 1964 H 198.923 0.713985 3.84731 0
M  V30 1965 H 198.546 -1.00103 3.84792 0
M  V30 1966 N 199.544 -1.57102 0.125237 0
M  V30 1967 C 200.792 -1.95021 -0.530198 0
M  V30 1968 C 201.113 -1.00982 -1.66816 0
M  V30 1969 O 200.383 -0.0672693 -1.95784 0
M  V30 1970 H 198.963 -0.720046 -0.198853 0
M  V30 1971 H 201.625 -1.93916 0.19564 0
M  V30 1972 H 200.721 -2.98211 -0.920681 0
M  V30 1973 N 201.022 0.148545 -1.56898 0
M  V30 1974 C 201.954 1.20852 -1.9475 0
M  V30 1975 C 202.967 1.39265 -0.843152 0
M  V30 1976 O 204.156 1.38864 -1.12156 0
M  V30 1977 C 201.256 2.57362 -2.20495 0
M  V30 1978 C 200.429 2.59947 -3.51776 0
M  V30 1979 C 199.488 3.77984 -3.6608 0
M  V30 1980 O 198.514 3.62929 -4.38487 0
M  V30 1981 N 199.716 4.95375 -3.02629 0
M  V30 1982 H 202.481 0.886804 -2.86279 0
M  V30 1983 H 200.042 0.338121 -1.5833 0
M  V30 1984 H 202.034 3.34833 -2.27307 0
M  V30 1985 H 200.604 2.81832 -1.35238 0
M  V30 1986 H 199.824 1.68403 -3.56419 0
M  V30 1987 H 201.112 2.58704 -4.38121 0
M  V30 1988 H 200.51 5.10509 -2.43715 0
M  V30 1989 H 199.067 5.70627 -3.15004 0
M  V30 1990 N 202.5 1.5196 0.417844 0
M  V30 1991 C 203.749 1.6482 1.16264 0
M  V30 1992 C 204.062 0.379886 1.91876 0
M  V30 1993 O 205.268 0.388154 2.68711 0
M  V30 1994 C 203.724 2.91161 2.1155 0
M  V30 1995 C 203.332 4.25068 1.41495 0
M  V30 1996 C 205.076 3.13383 2.86341 0
M  V30 1997 C 202.983 5.42541 2.35379 0
M  V30 1998 H 201.913 0.613954 0.437694 0
M  V30 1999 H 204.564 1.78442 0.427871 0
M  V30 2000 H 202.946 2.71218 2.88543 0
M  V30 2001 H 204.12 4.55463 0.699263 0
M  V30 2002 H 202.435 4.0888 0.787792 0
M  V30 2003 H 205.032 3.98324 3.5671 0
M  V30 2004 H 205.375 2.27256 3.48798 0
M  V30 2005 H 205.908 3.33757 2.1645 0
M  V30 2006 H 202.647 6.30987 1.77582 0
M  V30 2007 H 202.167 5.16497 3.04945 0
M  V30 2008 H 203.846 5.75272 2.96093 0
M  V30 2009 N 203.978 -0.674533 1.42435 0
M  V30 2010 C 205.226 -1.43175 1.42637 0
M  V30 2011 C 205.547 -1.94951 0.0438992 0
M  V30 2012 O 204.817 -1.7308 -0.917607 0
M  V30 2013 H 203.397 -0.531307 0.525092 0
M  V30 2014 H 206.059 -0.797006 1.77859 0
M  V30 2015 H 205.155 -2.28463 2.12629 0
M  V30 2016 N 205.456 -1.28612 -0.910864 0
M  V30 2017 C 206.696 -1.1719 -1.67469 0
M  V30 2018 C 207.06 0.274441 -1.90028 0
M  V30 2019 O 208.261 0.511425 -2.6389 0
M  V30 2020 C 206.532 -1.95137 -2.99427 0
M  V30 2021 S 208.091 -2.00122 -3.90508 0
M  V30 2022 H 204.909 -0.41806 -0.575106 0
M  V30 2023 H 207.511 -1.6275 -1.08317 0
M  V30 2024 H 206.215 -2.99381 -2.80712 0
M  V30 2025 H 205.746 -1.50137 -3.63624 0
M  V30 2026 H 207.761 -1.10981 -4.8363 0
M  V30 2027 N 206.934 1.1197 -1.10907 0
M  V30 2028 C 208.18 1.8386 -0.855773 0
M  V30 2029 C 208.513 1.84134 0.617103 0
M  V30 2030 O 207.788 1.29041 1.45529 0
M  V30 2031 C 208.071 3.31305 -1.411 0
M  V30 2032 C 207.924 3.39456 -2.9511 0
M  V30 2033 C 209.243 4.2721 -1.05736 0
M  V30 2034 H 206.362 0.667545 -0.312334 0
M  V30 2035 H 209.004 1.31331 -1.37303 0
M  V30 2036 H 207.154 3.76169 -0.97105 0
M  V30 2037 H 208.826 3.03191 -3.47668 0
M  V30 2038 H 207.069 2.79849 -3.31462 0
M  V30 2039 H 207.74 4.43209 -3.29044 0
M  V30 2040 H 210.216 3.90497 -1.43706 0
M  V30 2041 H 209.092 5.28775 -1.47269 0
M  V30 2042 H 209.353 4.42088 0.0325958 0
M  V30 2043 N 208.412 0.89855 1.29475 0
M  V30 2044 C 209.823 0.572537 1.77705 0
M  V30 2045 C 210.174 -0.911778 1.73727 0
M  V30 2046 O 209.299 -1.71288 1.32247 0
M  V30 2047 C 209.894 1.03252 3.22683 0
M  V30 2048 C 208.453 0.757687 3.68695 0
M  V30 2049 C 207.6 1.20787 2.49612 0
M  V30 2050 H 210.551 1.08139 1.16153 0
M  V30 2051 H 210.572 0.367307 3.78723 0
M  V30 2052 H 210.084 2.11285 3.25546 0
M  V30 2053 H 208.185 -0.310079 3.71308 0
M  V30 2054 H 208.298 1.35476 4.59547 0
M  V30 2055 H 206.662 0.626888 2.46865 0
M  V30 2056 H 207.445 2.29622 2.55203 0
M  V30 2057 N 209.89 -1.43072 0.660911 0
M  V30 2058 C 211.306 -1.56169 0.329173 0
M  V30 2059 C 211.506 -1.64317 -1.16629 0
M  V30 2060 O 210.562 -1.60245 -1.95135 0
M  V30 2061 C 211.875 -2.81873 1.04729 0
M  V30 2062 C 213.423 -2.95627 1.02828 0
M  V30 2063 C 213.898 -4.24174 1.72744 0
M  V30 2064 N 215.389 -4.31055 1.69545 0
M  V30 2065 C 216.124 -5.29304 2.20511 0
M  V30 2066 N 215.62 -6.33786 2.79799 0
M  V30 2067 N 217.413 -5.21008 2.10966 0
M  V30 2068 H 209.564 -1.36027 1.63127 0
M  V30 2069 H 211.827 -0.653823 0.686454 0
M  V30 2070 H 211.533 -2.81942 2.10242 0
M  V30 2071 H 211.407 -3.72338 0.603702 0
M  V30 2072 H 213.794 -2.95094 -0.0184742 0
M  V30 2073 H 213.875 -2.06431 1.51063 0
M  V30 2074 H 213.519 -4.25467 2.7738 0
M  V30 2075 H 213.449 -5.1228 1.2197 0
M  V30 2076 H 215.94 -3.56174 1.26288 0
M  V30 2077 H 216.253 -7.05086 3.16344 0
M  V30 2078 H 214.598 -6.34387 2.83863 0
M  V30 2079 H 217.789 -4.38301 1.64347 0
M  V30 2080 H 217.962 -5.97416 2.50993 0
M  V30 2081 N 211.368 -0.403325 -1.52352 0
M  V30 2082 C 212.608 0.173946 -2.03659 0
M  V30 2083 C 212.972 1.42869 -1.28267 0
M  V30 2084 O 214.173 2.08403 -1.69769 0
M  V30 2085 C 212.444 0.421478 -3.54906 0
M  V30 2086 S 214.003 0.967027 -4.28012 0
M  V30 2087 H 210.821 0.0477461 -0.709395 0
M  V30 2088 H 213.423 -0.554906 -1.87459 0
M  V30 2089 H 212.127 -0.498616 -4.0736 0
M  V30 2090 H 211.658 1.17837 -3.75337 0
M  V30 2091 H 213.673 2.24812 -4.4235 0
M  V30 2092 N 212.846 1.57033 -0.133567 0
M  V30 2093 C 213.778 2.13176 0.841944 0
M  V30 2094 C 214.791 1.07794 1.22001 0
M  V30 2095 O 215.98 1.35117 1.16643 0
M  V30 2096 C 213.08 2.62847 2.13926 0
M  V30 2097 C 212.253 3.92486 1.93064 0
M  V30 2098 C 211.312 4.27605 3.0666 0
M  V30 2099 O 210.338 4.96168 2.78937 0
M  V30 2100 N 211.54 3.861 4.33483 0
M  V30 2101 H 214.305 2.97503 0.362192 0
M  V30 2102 H 211.866 1.61821 0.05042 0
M  V30 2103 H 213.858 2.83363 2.88942 0
M  V30 2104 H 212.428 1.83319 2.53205 0
M  V30 2105 H 211.648 3.80732 1.02159 0
M  V30 2106 H 212.936 4.77225 1.76447 0
M  V30 2107 H 212.334 3.30828 4.58878 0
M  V30 2108 H 210.891 4.11694 5.05323 0
M  V30 2109 N 214.325 -0.140222 1.56975 0
M  V30 2110 C 215.255 -1.17456 2.01808 0
M  V30 2111 C 216.236 -1.44415 0.898794 0
M  V30 2112 O 217.421 -1.5522 1.16707 0
M  V30 2113 C 214.551 -2.50607 2.40444 0
M  V30 2114 C 213.505 -2.38155 3.55621 0
M  V30 2115 C 212.831 -3.76078 3.80091 0
M  V30 2116 C 214.131 -1.85991 4.88062 0
M  V30 2117 H 215.825 -0.801743 2.88466 0
M  V30 2118 H 213.371 -0.38422 1.38779 0
M  V30 2119 H 215.324 -3.23197 2.7041 0
M  V30 2120 H 214.048 -2.89737 1.50732 0
M  V30 2121 H 212.707 -1.68016 3.25832 0
M  V30 2122 H 212.355 -4.12656 2.87618 0
M  V30 2123 H 212.055 -3.68606 4.57606 0
M  V30 2124 H 213.579 -4.50206 4.12488 0
M  V30 2125 H 214.993 -2.4838 5.16701 0
M  V30 2126 H 213.39 -1.89393 5.6943 0
M  V30 2127 H 214.46 -0.816023 4.77984 0
M  V30 2128 N 215.803 -1.52179 -0.40978 0
M  V30 2129 C 217.08 -1.56769 -1.16974 0
M  V30 2130 C 217.46 -0.348322 -2.08206 0
M  V30 2131 O 216.808 0.664862 -2.18613 0
M  V30 2132 C 217.018 -2.89603 -1.9476 0
M  V30 2133 C 218.366 -3.42579 -2.50849 0
M  V30 2134 O 219.39 -2.91338 -2.04941 0
M  V30 2135 O 218.249 -4.32054 -3.34652 0
M  V30 2136 H 215.343 -0.631439 -0.534054 0
M  V30 2137 H 217.889 -1.64507 -0.416613 0
M  V30 2138 H 216.661 -3.698 -1.27921 0
M  V30 2139 H 216.284 -2.85155 -2.77079 0
M  V30 2140 N 217.281 0.66697 -1.42791 0
M  V30 2141 C 218.527 1.4291 -1.43891 0
M  V30 2142 C 218.86 1.94114 -0.0578972 0
M  V30 2143 O 218.135 1.71414 0.91911 0
M  V30 2144 C 218.418 2.62049 -2.46987 0
M  V30 2145 C 218.271 2.16426 -3.94309 0
M  V30 2146 C 219.59 3.64266 -2.46978 0
M  V30 2147 H 216.709 0.518306 -0.523954 0
M  V30 2148 H 219.351 0.757321 -1.74255 0
M  V30 2149 H 217.501 3.19361 -2.21225 0
M  V30 2150 H 219.173 1.64221 -4.31079 0
M  V30 2151 H 217.416 1.47925 -4.078 0
M  V30 2152 H 218.087 3.02038 -4.62036 0
M  V30 2153 H 220.563 3.16686 -2.69906 0
M  V30 2154 H 219.439 4.45196 -3.21079 0
M  V30 2155 H 219.7 4.15927 -1.49857 0
M  V30 2156 N 218.759 1.29093 0.90403 0
M  V30 2157 C 219.689 1.16401 2.02418 0
M  V30 2158 C 220.67 0.0593085 1.69997 0
M  V30 2159 O 221.855 0.238021 1.92736 0
M  V30 2160 C 218.985 0.835233 3.37107 0
M  V30 2161 C 217.939 1.89578 3.83724 0
M  V30 2162 C 217.265 1.42041 5.15489 0
M  V30 2163 C 218.565 3.30394 4.04521 0
M  V30 2164 H 220.259 2.10109 2.13295 0
M  V30 2165 H 217.805 1.01157 1.02486 0
M  V30 2166 H 219.758 0.733169 4.14973 0
M  V30 2167 H 218.482 -0.137543 3.2631 0
M  V30 2168 H 217.141 1.98715 3.08071 0
M  V30 2169 H 216.789 0.436426 5.01103 0
M  V30 2170 H 216.489 2.12964 5.4765 0
M  V30 2171 H 218.013 1.33176 5.959 0
M  V30 2172 H 219.427 3.24123 4.72882 0
M  V30 2173 H 217.824 3.99237 4.48029 0
M  V30 2174 H 218.894 3.73692 3.09002 0
M  V30 2175 N 220.237 -1.11381 1.11499 0
M  V30 2176 C 221.167 -2.19509 0.796125 0
M  V30 2177 C 222.148 -1.68458 -0.235796 0
M  V30 2178 O 223.333 -1.93947 -0.0991344 0
M  V30 2179 C 220.463 -3.46475 0.239205 0
M  V30 2180 C 219.417 -4.10744 1.20307 0
M  V30 2181 C 218.743 -5.32293 0.50683 0
M  V30 2182 C 220.043 -4.55597 2.55399 0
M  V30 2183 H 221.737 -2.46439 1.70024 0
M  V30 2184 H 219.283 -1.18446 0.818935 0
M  V30 2185 H 221.236 -4.214 0.00392006 0
M  V30 2186 H 219.96 -3.19006 -0.700206 0
M  V30 2187 H 218.619 -3.37813 1.42399 0
M  V30 2188 H 218.267 -5.01095 -0.437408 0
M  V30 2189 H 217.967 -5.76243 1.1497 0
M  V30 2190 H 219.491 -6.09956 0.280351 0
M  V30 2191 H 220.905 -5.21841 2.37391 0
M  V30 2192 H 219.302 -5.10363 3.15673 0
M  V30 2193 H 220.372 -3.69013 3.14575 0
M  V30 2194 N 221.715 -0.905404 -1.28997 0
M  V30 2195 C 223.126 -0.581953 -1.77398 0
M  V30 2196 C 223.477 0.902552 -1.74208 0
M  V30 2197 O 222.602 1.70584 -1.33154 0
M  V30 2198 C 223.197 -1.04961 -3.22131 0
M  V30 2199 C 221.756 -0.777229 -3.68288 0
M  V30 2200 C 220.903 -1.22109 -2.48967 0
M  V30 2201 H 223.854 -1.08754 -1.15578 0
M  V30 2202 H 223.875 -0.387387 -3.78523 0
M  V30 2203 H 223.387 -2.13008 -3.24421 0
M  V30 2204 H 221.488 0.290383 -3.71467 0
M  V30 2205 H 221.601 -1.37911 -4.58822 0
M  V30 2206 H 219.965 -0.639971 -2.46529 0
M  V30 2207 H 220.748 -2.30972 -2.53982 0
M  V30 2208 N 223.193 1.4272 -0.668489 0
M  V30 2209 C 224.103 2.34596 0.0139753 0
M  V30 2210 C 225.119 1.5474 0.795703 0
M  V30 2211 O 226.295 1.87334 0.739466 0
M  V30 2212 C 223.36 3.33202 0.957982 0
M  V30 2213 C 222.421 4.28957 0.17149 0
M  V30 2214 C 221.654 5.22853 1.07053 0
M  V30 2215 O 221.877 5.21531 2.31001 0
M  V30 2216 O 220.811 5.9952 0.534727 0
M  V30 2217 H 224.637 2.9448 -0.742661 0
M  V30 2218 H 222.222 1.43117 -0.428705 0
M  V30 2219 H 224.104 3.93796 1.50008 0
M  V30 2220 H 222.779 2.758 1.69458 0
M  V30 2221 H 221.686 3.71796 -0.414558 0
M  V30 2222 H 223.019 4.89383 -0.52586 0
M  V30 2223 N 224.671 0.411399 1.52136 0
M  V30 2224 C 226.082 -0.0576826 1.86611 0
M  V30 2225 C 226.433 -1.44238 1.33003 0
M  V30 2226 O 225.558 -2.05759 0.670228 0
M  V30 2227 C 226.153 -0.111448 3.38617 0
M  V30 2228 C 224.712 -0.52487 3.72723 0
M  V30 2229 C 223.859 0.299176 2.75681 0
M  V30 2230 H 226.81 0.628368 1.4573 0
M  V30 2231 H 226.831 -0.926252 3.69054 0
M  V30 2232 H 226.343 0.896488 3.77604 0
M  V30 2233 H 224.444 -1.53936 3.39315 0
M  V30 2234 H 224.557 -0.267681 4.78352 0
M  V30 2235 H 222.921 -0.238814 2.53578 0
M  V30 2236 H 223.704 1.3055 3.17508 0
M  V30 2237 N 226.149 -1.5696 0.141893 0
M  V30 2238 C 227.097 -2.17784 -0.816874 0
M  V30 2239 C 228.091 -1.1334 -1.25899 0
M  V30 2240 O 229.297 -1.316 -1.22806 0
M  V30 2241 H 225.672 -0.697278 -0.281615 0
M  V30 2242 H 227.643 -2.97087 -0.279621 0
M  V30 2243 C 226.392 -2.80983 -2.04802 0
M  V30 2244 H 225.715 -3.61062 -1.7168 0
M  V30 2245 H 227.155 -3.2705 -2.69841 0
M  V30 2246 C 225.614 -1.79228 -2.8527 0
M  V30 2247 O 226.144 -1.25962 -3.8144 0
M  V30 2248 N 224.35 -1.48647 -2.49704 0
M  V30 2249 H 223.897 -1.92155 -1.71564 0
M  V30 2250 H 223.855 -0.808115 -3.03837 0
M  V30 2251 N 227.627 0.131896 -1.57047 0
M  V30 2252 C 228.867 0.847972 -1.85981 0
M  V30 2253 C 229.231 1.77655 -0.7282 0
M  V30 2254 O 230.432 2.53322 -0.898968 0
M  V30 2255 C 228.703 1.58919 -3.20124 0
M  V30 2256 S 230.262 2.34862 -3.70655 0
M  V30 2257 H 227.08 0.283273 -0.652133 0
M  V30 2258 H 229.682 0.107057 -1.95207 0
M  V30 2259 H 228.386 0.898771 -4.00438 0
M  V30 2260 H 227.917 2.37073 -3.13942 0
M  V30 2261 H 229.932 3.60344 -3.41126 0
M  V30 2262 N 229.106 1.52395 0.401703 0
M  V30 2263 C 230.517 1.58899 0.980202 0
M  V30 2264 C 230.868 0.434032 1.91339 0
M  V30 2265 O 229.993 -0.444619 2.11783 0
M  V30 2266 C 230.588 2.87994 1.78451 0
M  V30 2267 C 229.147 2.96953 2.31292 0
M  V30 2268 C 228.294 2.53903 1.11483 0
M  V30 2269 H 231.245 1.57657 0.18168 0
M  V30 2270 H 231.266 2.73765 2.64259 0
M  V30 2271 H 230.778 3.72035 1.10506 0
M  V30 2272 H 228.879 2.17422 3.02586 0
M  V30 2273 H 228.992 4.01344 2.61649 0
M  V30 2274 H 227.356 2.07925 1.47104 0
M  V30 2275 H 228.139 3.40326 0.450928 0
M  V30 2276 N 230.584 -0.659388 1.43143 0
M  V30 2277 C 231.547 -1.75432 1.47501 0
M  V30 2278 C 232.547 -1.56707 0.360512 0
M  V30 2279 O 233.737 -1.62717 0.622002 0
M  V30 2280 C 230.869 -3.14239 1.32162 0
M  V30 2281 H 232.062 -1.7295 2.45006 0
M  V30 2282 H 229.615 -0.870469 1.29817 0
M  V30 2283 H 230.35 -3.22336 0.356401 0
M  V30 2284 H 230.135 -3.29235 2.12948 0
M  V30 2285 H 231.625 -3.94094 1.3813 0
M  V30 2286 N 232.062 -1.29571 -0.897171 0
M  V30 2287 C 233.473 -1.15964 -1.46319 0
M  V30 2288 C 233.824 0.244267 -1.94674 0
M  V30 2289 O 232.949 1.13998 -1.83939 0
M  V30 2290 C 233.544 -2.09906 -2.65942 0
M  V30 2291 C 232.103 -2.00314 -3.18671 0
M  V30 2292 C 231.25 -2.00687 -1.91363 0
M  V30 2293 H 234.201 -1.42019 -0.708268 0
M  V30 2294 H 234.222 -1.67276 -3.41759 0
M  V30 2295 H 233.734 -3.12075 -2.30718 0
M  V30 2296 H 231.835 -1.01242 -3.58582 0
M  V30 2297 H 231.948 -2.88102 -3.82798 0
M  V30 2298 H 230.312 -1.45319 -2.09175 0
M  V30 2299 H 231.095 -3.04566 -1.58413 0
M  V30 2300 N 233.54 1.10788 -1.12088 0
M  V30 2301 C 234.956 1.34691 -0.856186 0
M  V30 2302 C 235.156 1.94791 0.515615 0
M  V30 2303 O 234.212 2.18524 1.26505 0
M  V30 2304 C 235.525 2.27208 -1.9697 0
M  V30 2305 C 237.073 2.40755 -2.00016 0
M  V30 2306 C 237.548 3.36598 -3.1059 0
M  V30 2307 N 239.039 3.44164 -3.10008 0
M  V30 2308 C 239.774 4.18284 -3.92206 0
M  V30 2309 N 239.27 4.95322 -4.84384 0
M  V30 2310 N 241.063 4.13865 -3.80357 0
M  V30 2311 H 233.214 0.70144 -2.00483 0
M  V30 2312 H 235.477 0.371405 -0.872217 0
M  V30 2313 H 235.183 1.90251 -2.958 0
M  V30 2314 H 235.057 3.27485 -1.87172 0
M  V30 2315 H 237.444 2.76982 -1.01808 0
M  V30 2316 H 237.525 1.40305 -2.13888 0
M  V30 2317 H 237.169 3.01096 -4.09028 0
M  V30 2318 H 237.099 4.36918 -2.93956 0
M  V30 2319 H 239.59 2.8922 -2.43228 0
M  V30 2320 H 239.903 5.49267 -5.43623 0
M  V30 2321 H 238.248 4.94459 -4.884 0
M  V30 2322 H 241.439 3.52773 -3.07683 0
M  V30 2323 H 241.612 4.71372 -4.44649 0
M  V30 2324 N 235.018 0.912232 1.28515 0
M  V30 2325 C 235.965 0.397954 2.27343 0
M  V30 2326 C 236.935 -0.526766 1.57526 0
M  V30 2327 O 238.12 -0.449292 1.85435 0
M  V30 2328 C 235.26 -0.357263 3.43246 0
M  V30 2329 C 234.373 0.599788 4.27816 0
M  V30 2330 C 233.508 -0.173725 5.30916 0
M  V30 2331 C 232.547 0.777039 6.07148 0
M  V30 2332 N 231.684 0.0371398 7.0209 0
M  V30 2333 H 236.524 1.24577 2.70711 0
M  V30 2334 H 234.061 0.625612 1.33133 0
M  V30 2335 H 236.019 -0.8113 4.09236 0
M  V30 2336 H 234.649 -1.16943 3.00872 0
M  V30 2337 H 233.701 1.17235 3.61884 0
M  V30 2338 H 235.013 1.32704 4.80823 0
M  V30 2339 H 234.167 -0.688394 6.02782 0
M  V30 2340 H 232.906 -0.934041 4.78672 0
M  V30 2341 H 231.911 1.3031 5.34134 0
M  V30 2342 H 233.136 1.53689 6.61481 0
M  V30 2343 H 231.082 -0.705213 6.52198 0
M  V30 2344 H 230.999 0.704249 7.52713 0
M  V30 2345 H 232.267 -0.457383 7.78157 0
M  V30 2346 N 236.496 -1.42363 0.676048 0
M  V30 2347 C 237.742 -2.0182 0.199125 0
M  V30 2348 C 238.075 -1.53339 -1.19168 0
M  V30 2349 O 237.35 -0.736124 -1.80032 0
M  V30 2350 C 237.633 -3.59331 0.235144 0
M  V30 2351 C 237.486 -4.17989 1.66149 0
M  V30 2352 C 238.805 -4.3813 -0.41595 0
M  V30 2353 H 235.924 -0.733293 0.0738311 0
M  V30 2354 H 238.566 -1.69368 0.86107 0
M  V30 2355 H 236.716 -3.87109 -0.328487 0
M  V30 2356 H 238.388 -4.0116 2.27747 0
M  V30 2357 H 236.631 -3.7377 2.20178 0
M  V30 2358 H 237.302 -5.27126 1.63837 0
M  V30 2359 H 239.778 -4.16051 0.0638529 0
M  V30 2360 H 238.654 -5.47717 -0.360115 0
M  V30 2361 H 238.915 -4.16101 -1.49373 0
M  V30 2362 N 237.974 -0.419461 -1.51915 0
M  V30 2363 C 238.884 0.407528 -2.31033 0
M  V30 2364 C 239.9 1.04413 -1.3919 0
M  V30 2365 O 241.076 1.0434 -1.72265 0
M  V30 2366 C 238.141 1.50365 -3.12396 0
M  V30 2367 C 237.202 0.889029 -4.19994 0
M  V30 2368 C 236.435 1.93291 -4.97468 0
M  V30 2369 O 236.658 3.15259 -4.75361 0
M  V30 2370 O 235.592 1.53339 -5.8204 0
M  V30 2371 H 239.418 -0.237865 -3.02767 0
M  V30 2372 H 237.003 -0.182413 -1.48282 0
M  V30 2373 H 238.885 2.13975 -3.63032 0
M  V30 2374 H 237.56 2.13345 -2.43445 0
M  V30 2375 H 236.467 0.215353 -3.7348 0
M  V30 2376 H 237.8 0.302991 -4.91267 0
M  V30 2377 N 239.452 1.56882 -0.150215 0
M  V30 2378 C 240.698 1.96518 0.500834 0
M  V30 2379 C 241.031 1.03527 1.64304 0
M  V30 2380 O 240.306 0.0782751 1.94342 0
M  V30 2381 C 240.589 3.45822 1.00395 0
M  V30 2382 C 240.442 4.49591 -0.136983 0
M  V30 2383 C 241.761 3.97704 1.88467 0
M  V30 2384 H 238.88 0.714535 0.18058 0
M  V30 2385 H 241.522 1.88577 -0.232091 0
M  V30 2386 H 239.672 3.5272 1.62851 0
M  V30 2387 H 241.344 4.5477 -0.77343 0
M  V30 2388 H 239.587 4.26441 -0.795652 0
M  V30 2389 H 240.258 5.51402 0.256815 0
M  V30 2390 H 242.734 3.93304 1.35834 0
M  V30 2391 H 241.61 5.0263 2.20578 0
M  V30 2392 H 241.871 3.40252 2.82279 0
M  V30 2393 N 240.93 -0.123565 1.57115 0
M  V30 2394 C 242.341 -0.681198 1.73829 0
M  V30 2395 C 242.692 -1.80535 0.768214 0
M  V30 2396 O 241.817 -2.16317 -0.0599103 0
M  V30 2397 C 242.412 -1.24246 3.15196 0
M  V30 2398 C 240.971 -1.74643 3.33432 0
M  V30 2399 C 240.118 -0.644284 2.69711 0
M  V30 2400 H 243.069 0.102315 1.5837 0
M  V30 2401 H 243.09 -2.11216 3.16493 0
M  V30 2402 H 242.602 -0.424062 3.85776 0
M  V30 2403 H 240.703 -2.58974 2.67886 0
M  V30 2404 H 240.816 -1.85902 4.41562 0
M  V30 2405 H 239.18 -1.07676 2.3082 0
M  V30 2406 H 239.963 0.163058 3.42913 0
M  V30 2407 N 242.408 -1.52605 -0.393616 0
M  V30 2408 C 243.656 -1.67093 -1.13685 0
M  V30 2409 C 243.977 -0.411011 -1.90619 0
M  V30 2410 O 243.247 0.574491 -1.87287 0
M  V30 2411 H 241.827 -0.615923 -0.422668 0
M  V30 2412 H 244.489 -1.89704 -0.447039 0
M  V30 2413 H 243.585 -2.51922 -1.84232 0
M  V30 2414 N 243.887 0.651787 -1.4349 0
M  V30 2415 C 244.797 1.79368 -1.5121 0
M  V30 2416 C 245.813 1.69361 -0.399093 0
M  V30 2417 O 246.989 1.90505 -0.653431 0
M  V30 2418 C 244.054 3.15653 -1.43401 0
M  V30 2419 C 243.115 3.37446 -2.65384 0
M  V30 2420 C 242.348 4.67229 -2.57939 0
M  V30 2421 O 242.571 5.46676 -1.62792 0
M  V30 2422 O 241.505 4.90773 -3.48462 0
M  V30 2423 H 245.331 1.7581 -2.47638 0
M  V30 2424 H 242.916 0.810447 -1.25507 0
M  V30 2425 H 244.798 3.96935 -1.41494 0
M  V30 2426 H 243.473 3.19798 -0.501085 0
M  V30 2427 H 242.38 2.55923 -2.72863 0
M  V30 2428 H 243.713 3.38148 -3.57654 0
M  V30 2429 N 245.365 1.30045 0.890287 0
M  V30 2430 C 246.605 1.19839 1.65584 0
M  V30 2431 C 246.969 -0.244175 1.90441 0
M  V30 2432 O 248.17 -0.469378 2.6467 0
M  V30 2433 C 246.441 1.99876 2.96284 0
M  V30 2434 S 248 2.06309 3.87275 0
M  V30 2435 H 244.818 0.427157 0.568382 0
M  V30 2436 H 247.42 1.64453 1.05715 0
M  V30 2437 H 246.124 3.03809 2.75913 0
M  V30 2438 H 245.655 1.55903 3.61189 0
M  V30 2439 H 247.67 1.18661 4.81803 0
M  V30 2440 N 246.843 -1.10192 1.12674 0
M  V30 2441 C 248.083 -1.83825 0.893736 0
M  V30 2442 C 248.447 -1.83341 -0.570082 0
M  V30 2443 O 249.648 -2.52553 -0.920354 0
M  V30 2444 C 247.919 -3.26405 1.45582 0
M  V30 2445 S 249.478 -4.17136 1.36171 0
M  V30 2446 H 246.296 -0.633732 0.322342 0
M  V30 2447 H 248.898 -1.32581 1.43675 0
M  V30 2448 H 247.602 -3.24329 2.51473 0
M  V30 2449 H 247.133 -3.82721 0.910405 0
M  V30 2450 H 249.148 -4.95069 0.334863 0
M  V30 2451 N 248.321 -0.919034 -1.28029 0
M  V30 2452 C 249.231 -0.416756 -2.30869 0
M  V30 2453 C 250.247 0.498235 -1.66714 0
M  V30 2454 O 251.423 0.383144 -1.97722 0
M  V30 2455 C 248.488 0.330274 -3.45123 0
M  V30 2456 C 247.549 -0.618578 -4.2482 0
M  V30 2457 C 246.782 0.0928959 -5.33619 0
M  V30 2458 O 247.005 1.31375 -5.55065 0
M  V30 2459 O 245.939 -0.574499 -5.99152 0
M  V30 2460 H 249.765 -1.27043 -2.75851 0
M  V30 2461 H 247.35 -0.684052 -1.3282 0
M  V30 2462 H 249.232 0.751972 -4.14636 0
M  V30 2463 H 247.907 1.1597 -3.02213 0
M  V30 2464 H 246.814 -1.08978 -3.57875 0
M  V30 2465 H 248.147 -1.41497 -4.71423 0
M  V30 2466 N 249.799 1.42003 -0.683588 0
M  V30 2467 C 250.746 2.30798 -0.0107309 0
M  V30 2468 C 251.716 1.4645 0.783688 0
M  V30 2469 O 252.901 1.75263 0.754156 0
M  V30 2470 C 250.041 3.3238 0.928306 0
M  V30 2471 C 249.154 4.31814 0.126776 0
M  V30 2472 C 248.289 5.20468 1.06236 0
M  V30 2473 C 247.328 6.11577 0.253035 0
M  V30 2474 N 246.465 6.92754 1.14179 0
M  V30 2475 H 251.305 2.8778 -0.773727 0
M  V30 2476 H 248.842 1.41745 -0.393283 0
M  V30 2477 H 250.8 3.89813 1.48666 0
M  V30 2478 H 249.43 2.76976 1.65783 0
M  V30 2479 H 248.482 3.76427 -0.54833 0
M  V30 2480 H 249.794 4.96276 -0.501192 0
M  V30 2481 H 248.948 5.82677 1.69035 0
M  V30 2482 H 247.687 4.56204 1.7242 0
M  V30 2483 H 246.692 5.48428 -0.388108 0
M  V30 2484 H 247.917 6.77892 -0.404839 0
M  V30 2485 H 245.863 6.3111 1.78987 0
M  V30 2486 H 245.78 7.53855 0.569111 0
M  V30 2487 H 247.048 7.59441 1.75697 0
M  V30 2488 N 251.277 0.427512 1.51691 0
M  V30 2489 C 252.523 -0.134744 2.02953 0
M  V30 2490 C 252.878 -1.41235 1.30654 0
M  V30 2491 O 252.171 -1.87168 0.409713 0
M  V30 2492 C 252.365 -0.418249 3.54944 0
M  V30 2493 C 252.194 0.830327 4.41968 0
M  V30 2494 C 250.964 1.36097 4.86627 0
M  V30 2495 C 253.162 1.7137 4.84909 0
M  V30 2496 N 251.144 2.56311 5.57833 0
M  V30 2497 C 252.515 2.76195 5.55082 0
M  V30 2498 C 254.57 1.72928 4.66905 0
M  V30 2499 C 253.273 3.82512 6.09161 0
M  V30 2500 C 255.299 2.78175 5.21894 0
M  V30 2501 C 254.661 3.8172 5.92004 0
M  V30 2502 H 250.76 -0.0103958 0.781931 0
M  V30 2503 H 253.344 0.585981 1.85673 0
M  V30 2504 H 251.515 -1.10801 3.7226 0
M  V30 2505 H 253.247 -0.970999 3.92879 0
M  V30 2506 H 250.002 0.916311 4.64651 0
M  V30 2507 H 250.426 3.17242 5.98069 0
M  V30 2508 H 255.068 0.942081 4.12171 0
M  V30 2509 H 252.786 4.62077 6.62956 0
M  V30 2510 H 256.372 2.8031 5.09821 0
M  V30 2511 H 255.252 4.61821 6.33791 0
M  V30 2512 N 252.755 -1.56801 0.158532 0
M  V30 2513 C 254.004 -1.95665 -0.489702 0
M  V30 2514 C 254.317 -1.04654 -1.65248 0
M  V30 2515 O 255.523 -1.33146 -2.3661 0
M  V30 2516 C 253.979 -3.47874 -0.922582 0
M  V30 2517 C 253.587 -4.47489 0.213893 0
M  V30 2518 C 255.331 -3.95583 -1.53996 0
M  V30 2519 C 253.238 -5.90921 -0.237903 0
M  V30 2520 H 252.168 -0.730516 -0.186716 0
M  V30 2521 H 254.819 -1.81861 0.244722 0
M  V30 2522 H 253.201 -3.57051 -1.71261 0
M  V30 2523 H 254.375 -4.50017 0.991036 0
M  V30 2524 H 252.69 -4.09764 0.740407 0
M  V30 2525 H 255.287 -5.0019 -1.8898 0
M  V30 2526 H 255.63 -3.37789 -2.43319 0
M  V30 2527 H 256.163 -3.8937 -0.814611 0
M  V30 2528 H 252.902 -6.52559 0.620236 0
M  V30 2529 H 252.422 -5.91729 -0.980676 0
M  V30 2530 H 254.101 -6.43352 -0.686067 0
M  V30 2531 N 254.233 0.115231 -1.57178 0
M  V30 2532 C 255.473 0.828199 -1.8687 0
M  V30 2533 C 255.837 1.76873 -0.747002 0
M  V30 2534 O 257.038 2.52354 -0.925785 0
M  V30 2535 C 255.309 1.55515 -3.21792 0
M  V30 2536 S 256.868 2.30917 -3.73125 0
M  V30 2537 H 253.686 0.27634 -0.655101 0
M  V30 2538 H 256.288 0.0863469 -1.95309 0
M  V30 2539 H 254.992 0.856248 -4.01368 0
M  V30 2540 H 254.523 2.3373 -3.16439 0
M  V30 2541 H 256.538 3.56705 -3.44929 0
M  V30 2542 N 255.711 1.52812 0.385517 0
M  V30 2543 C 256.959 1.67694 1.12797 0
M  V30 2544 C 257.28 0.421115 1.90399 0
M  V30 2545 O 256.55 -0.564551 1.87589 0
M  V30 2546 H 255.13 0.618155 0.419396 0
M  V30 2547 H 257.792 1.89938 0.436972 0
M  V30 2548 H 256.888 2.52896 1.82894 0
M  V30 2549 N 257.189 -0.644168 1.43834 0
M  V30 2550 C 258.6 -1.22554 1.40845 0
M  V30 2551 C 258.951 -1.9585 0.117115 0
M  V30 2552 O 258.076 -2.01734 -0.783086 0
M  V30 2553 C 258.671 -2.22907 2.55143 0
M  V30 2554 C 257.23 -2.76501 2.5539 0
M  V30 2555 C 256.377 -1.51287 2.32396 0
M  V30 2556 H 259.328 -0.43563 1.52604 0
M  V30 2557 H 259.349 -3.05259 2.2715 0
M  V30 2558 H 258.861 -1.69533 3.49114 0
M  V30 2559 H 256.962 -3.33914 1.65324 0
M  V30 2560 H 257.075 -3.23429 3.53455 0
M  V30 2561 H 255.439 -1.78957 1.81236 0
M  V30 2562 H 256.222 -0.998336 3.28463 0
M  V30 2563 N 258.668 -1.30515 -0.883378 0
M  V30 2564 C 259.945 -1.10086 -1.6168 0
M  V30 2565 C 260.325 0.349269 -2.08191 0
M  V30 2566 O 259.673 1.34105 -1.85008 0
M  V30 2567 C 259.883 -2.10315 -2.78511 0
M  V30 2568 C 261.231 -2.42119 -3.48803 0
M  V30 2569 O 262.255 -2.08638 -2.88702 0
M  V30 2570 O 261.114 -2.99396 -4.57192 0
M  V30 2571 H 258.208 -0.422907 -0.710689 0
M  V30 2572 H 260.754 -1.41947 -0.930015 0
M  V30 2573 H 259.526 -3.07917 -2.41459 0
M  V30 2574 H 259.149 -1.79282 -3.54886 0
M  V30 2575 N 260.146 1.09593 -1.13257 0
M  V30 2576 C 261.056 2.19739 -0.821691 0
M  V30 2577 C 262.072 1.72926 0.19302 0
M  V30 2578 O 263.248 2.01385 0.0244895 0
M  V30 2579 C 260.313 3.45482 -0.290333 0
M  V30 2580 C 259.374 4.06985 -1.36607 0
M  V30 2581 C 258.607 5.26726 -0.859975 0
M  V30 2582 O 258.83 5.69594 0.303082 0
M  V30 2583 O 257.764 5.7931 -1.63351 0
M  V30 2584 H 261.59 2.48781 -1.74189 0
M  V30 2585 H 259.175 1.18496 -0.909894 0
M  V30 2586 H 261.057 4.214 0.000674022 0
M  V30 2587 H 259.732 3.18047 0.602306 0
M  V30 2588 H 258.639 3.32712 -1.71037 0
M  V30 2589 H 259.972 4.38643 -2.23279 0
M  V30 2590 N 261.624 0.925811 1.2754 0
M  V30 2591 C 262.534 0.428993 2.30644 0
M  V30 2592 C 263.55 -0.489387 1.66976 0
M  V30 2593 O 264.726 -0.372653 1.97922 0
M  V30 2594 C 261.791 -0.311967 3.45294 0
M  V30 2595 C 260.852 0.641098 4.24486 0
M  V30 2596 C 260.085 -0.0645955 5.33661 0
M  V30 2597 O 260.308 -1.28429 5.55754 0
M  V30 2598 O 259.242 0.606265 5.98839 0
M  V30 2599 H 263.068 1.28504 2.75173 0
M  V30 2600 H 260.653 0.691086 1.32455 0
M  V30 2601 H 262.535 -0.729972 4.15029 0
M  V30 2602 H 261.21 -1.14365 3.02824 0
M  V30 2603 H 260.117 1.10874 3.57292 0
M  V30 2604 H 261.45 1.43995 4.70666 0
M  V30 2605 N 263.102 -1.41638 0.69111 0
M  V30 2606 C 264.379 -1.95036 0.148421 0
M  V30 2607 C 264.759 -1.63072 -1.34055 0
M  V30 2608 O 264.107 -0.93538 -2.08478 0
M  V30 2609 C 264.317 -3.46279 0.434951 0
M  V30 2610 C 265.665 -4.23069 0.360275 0
M  V30 2611 O 266.689 -3.54277 0.369613 0
M  V30 2612 O 265.548 -5.45583 0.316534 0
M  V30 2613 H 262.642 -0.826908 0.0123654 0
M  V30 2614 H 265.188 -1.5138 0.766963 0
M  V30 2615 H 263.96 -3.6281 1.46576 0
M  V30 2616 H 263.583 -3.97019 -0.214787 0
M  V30 2617 N 264.58 -0.43555 -1.51462 0
M  V30 2618 C 265.805 0.132627 -2.06976 0
M  V30 2619 C 266.23 1.35848 -1.30104 0
M  V30 2620 O 265.588 1.78112 -0.338493 0
M  V30 2621 C 265.636 0.43523 -3.57964 0
M  V30 2622 O 264.74 1.52198 -3.83288 0
M  V30 2623 H 264.081 0.00265 -0.663995 0
M  V30 2624 H 266.611 -0.616369 -1.95095 0
M  V30 2625 H 266.621 0.686206 -4.02188 0
M  V30 2626 H 265.296 -0.460739 -4.1334 0
M  V30 2627 H 263.873 1.2611 -3.50928 0
M  V30 2628 N 266.058 1.56714 -0.166846 0
M  V30 2629 C 266.988 2.20754 0.760913 0
M  V30 2630 C 267.969 1.16178 1.24244 0
M  V30 2631 O 269.154 1.44592 1.29641 0
M  V30 2632 C 266.284 2.84478 1.99223 0
M  V30 2633 C 265.238 3.95053 1.64672 0
M  V30 2634 C 264.564 4.45805 2.95232 0
M  V30 2635 C 265.864 5.14865 0.878155 0
M  V30 2636 H 267.558 2.98537 0.22713 0
M  V30 2637 H 265.104 1.43596 0.107805 0
M  V30 2638 H 267.057 3.27951 2.64624 0
M  V30 2639 H 265.781 2.04056 2.55007 0
M  V30 2640 H 264.44 3.52228 1.01641 0
M  V30 2641 H 264.088 3.62181 3.49047 0
M  V30 2642 H 263.788 5.204 2.7287 0
M  V30 2643 H 265.312 4.91962 3.6167 0
M  V30 2644 H 266.726 5.55059 1.43466 0
M  V30 2645 H 265.123 5.95348 0.753738 0
M  V30 2646 H 266.193 4.84735 -0.126377 0
M  V30 2647 N 267.536 -0.106894 1.57237 0
M  V30 2648 C 268.784 -0.810921 1.85117 0
M  V30 2649 C 269.105 -1.7984 0.753827 0
M  V30 2650 O 268.375 -1.94649 -0.221056 0
M  V30 2651 H 266.955 -0.302466 0.683025 0
M  V30 2652 H 269.617 -0.0913324 1.94686 0
M  V30 2653 H 268.713 -1.34875 2.81452 0
M  V30 2654 N 269.014 -1.53014 -0.377408 0
M  V30 2655 C 270.262 -1.6829 -1.11906 0
M  V30 2656 C 270.583 -0.431206 -1.90173 0
M  V30 2657 O 269.853 0.554595 -1.87886 0
M  V30 2658 H 268.433 -0.620371 -0.416112 0
M  V30 2659 H 271.095 -1.90167 -0.426893 0
M  V30 2660 H 270.191 -2.53862 -1.8155 0
M  V30 2661 N 270.492 0.636531 -1.44174 0
M  V30 2662 C 271.422 1.76003 -1.53444 0
M  V30 2663 C 272.403 1.65619 -0.387841 0
M  V30 2664 O 273.588 1.84461 -0.607257 0
M  V30 2665 C 270.718 3.14511 -1.4731 0
M  V30 2666 C 269.672 3.39677 -2.60391 0
M  V30 2667 C 268.998 4.78159 -2.39308 0
M  V30 2668 C 270.298 3.32772 -4.02567 0
M  V30 2669 H 271.992 1.68501 -2.47483 0
M  V30 2670 H 269.538 0.809237 -1.19111 0
M  V30 2671 H 271.491 3.92878 -1.52397 0
M  V30 2672 H 270.215 3.22783 -0.49785 0
M  V30 2673 H 268.874 2.63688 -2.54684 0
M  V30 2674 H 268.522 4.83128 -1.39988 0
M  V30 2675 H 268.222 4.95956 -3.15122 0
M  V30 2676 H 269.746 5.58762 -2.46205 0
M  V30 2677 H 271.16 4.01051 -4.09672 0
M  V30 2678 H 269.557 3.62104 -4.7854 0
M  V30 2679 H 270.627 2.30669 -4.2652 0
M  V30 2680 N 271.97 1.30982 0.876444 0
M  V30 2681 C 273.198 1.23242 1.6619 0
M  V30 2682 C 273.613 -0.203345 1.87702 0
M  V30 2683 O 272.97 -1.13317 1.43057 0
M  V30 2684 C 273.021 1.96623 3.03351 0
M  V30 2685 O 272.742 3.34594 2.82804 0
M  V30 2686 C 274.243 1.95644 3.97792 0
M  V30 2687 H 271.463 0.426126 0.518322 0
M  V30 2688 H 274.007 1.7275 1.09442 0
M  V30 2689 H 272.162 1.50892 3.56806 0
M  V30 2690 H 272.576 3.71873 3.69879 0
M  V30 2691 H 274.05 2.51511 4.91372 0
M  V30 2692 H 274.527 0.937395 4.2908 0
M  V30 2693 H 275.133 2.41225 3.50272 0
M  V30 2694 N 273.449 -1.08991 1.13837 0
M  V30 2695 C 274.379 -2.17771 0.842507 0
M  V30 2696 C 275.36 -1.6892 -0.20001 0
M  V30 2697 O 276.545 -1.94113 -0.0579731 0
M  V30 2698 C 273.675 -3.4589 0.312644 0
M  V30 2699 C 272.629 -4.08099 1.28992 0
M  V30 2700 C 271.955 -5.31098 0.619623 0
M  V30 2701 C 273.255 -4.50077 2.65005 0
M  V30 2702 H 274.949 -2.42777 1.75213 0
M  V30 2703 H 272.495 -1.16682 0.843875 0
M  V30 2704 H 274.448 -4.21297 0.0933043 0
M  V30 2705 H 273.172 -3.20419 -0.632382 0
M  V30 2706 H 271.831 -3.34717 1.49533 0
M  V30 2707 H 271.479 -5.0191 -0.33102 0
M  V30 2708 H 271.179 -5.73674 1.27167 0
M  V30 2709 H 272.703 -6.09224 0.409669 0
M  V30 2710 H 274.117 -5.16688 2.48407 0
M  V30 2711 H 272.514 -5.03553 3.26427 0
M  V30 2712 H 273.584 -3.62257 3.22332 0
M  V30 2713 N 274.927 -0.932562 -1.27047 0
M  V30 2714 C 275.89 -0.440064 -2.24936 0
M  V30 2715 C 276.89 0.444071 -1.54547 0
M  V30 2716 O 278.08 0.244465 -1.72476 0
M  V30 2717 C 275.212 0.36678 -3.38921 0
M  V30 2718 H 276.405 -1.305 -2.70018 0
M  V30 2719 H 273.958 -0.713707 -1.39054 0
M  V30 2720 H 274.693 1.25033 -2.99228 0
M  V30 2721 H 274.478 -0.267204 -3.91188 0
M  V30 2722 H 275.968 0.701567 -4.11665 0
M  V30 2723 N 276.405 1.4127 -0.698611 0
M  V30 2724 C 277.368 2.29158 -0.044132 0
M  V30 2725 C 278.368 1.44529 0.704841 0
M  V30 2726 O 279.558 1.65643 0.539276 0
M  V30 2727 C 276.69 3.27459 0.947809 0
M  V30 2728 H 277.883 2.88529 -0.817994 0
M  V30 2729 H 275.436 1.49307 -0.46228 0
M  V30 2730 H 276.171 2.73073 1.74933 0
M  V30 2731 H 275.956 3.8991 0.41385 0
M  V30 2732 H 277.446 3.93311 1.40344 0
M  V30 2733 N 277.883 0.443576 1.51229 0
M  V30 2734 C 279.113 -0.119117 2.06256 0
M  V30 2735 C 279.521 -1.36471 1.31043 0
M  V30 2736 O 278.864 -1.80034 0.365151 0
M  V30 2737 C 278.926 -0.500546 3.55998 0
M  V30 2738 C 278.59 0.639125 4.52509 0
M  V30 2739 C 279.587 1.51311 4.97394 0
M  V30 2740 C 277.272 0.821632 4.95535 0
M  V30 2741 C 279.266 2.55425 5.83984 0
M  V30 2742 C 276.953 1.86603 5.81913 0
M  V30 2743 C 277.951 2.73072 6.26036 0
M  V30 2744 O 277.639 3.75718 7.10698 0
M  V30 2745 H 277.371 -0.00857665 0.675946 0
M  V30 2746 H 279.925 0.623288 1.95715 0
M  V30 2747 H 278.155 -1.29575 3.64345 0
M  V30 2748 H 279.844 -0.995116 3.93513 0
M  V30 2749 H 280.61 1.38367 4.64844 0
M  V30 2750 H 276.489 0.158149 4.60729 0
M  V30 2751 H 280.033 3.22949 6.18344 0
M  V30 2752 H 275.93 1.99564 6.13876 0
M  V30 2753 H 276.698 3.72374 7.2889 0
M  V30 2754 N 279.361 -1.56624 0.175154 0
M  V30 2755 C 280.777 -1.58571 -0.180966 0
M  V30 2756 C 280.977 -1.19065 -1.6256 0
M  V30 2757 O 280.033 -0.904044 -2.35761 0
M  V30 2758 C 281.346 -3.00522 0.103326 0
M  V30 2759 C 282.894 -3.12972 0.0418426 0
M  V30 2760 C 283.369 -4.57022 0.299175 0
M  V30 2761 N 284.86 -4.62541 0.247086 0
M  V30 2762 C 285.595 -5.71857 0.420318 0
M  V30 2763 N 285.091 -6.89717 0.652816 0
M  V30 2764 N 286.884 -5.60972 0.355957 0
M  V30 2765 H 279.035 -1.80589 1.11809 0
M  V30 2766 H 281.298 -0.837178 0.444788 0
M  V30 2767 H 281.004 -3.33916 1.10422 0
M  V30 2768 H 280.878 -3.72344 -0.603299 0
M  V30 2769 H 283.265 -2.79403 -0.949636 0
M  V30 2770 H 283.346 -2.43578 0.781238 0
M  V30 2771 H 282.99 -4.913 1.28788 0
M  V30 2772 H 282.92 -5.24579 -0.460876 0
M  V30 2773 H 285.411 -3.77829 0.0731895 0
M  V30 2774 H 285.724 -7.68911 0.774347 0
M  V30 2775 H 284.069 -6.91572 0.689476 0
M  V30 2776 H 287.26 -4.67773 0.174882 0
M  V30 2777 H 287.433 -6.46111 0.494388 0
M  V30 2778 N 280.839 0.0985539 -1.57292 0
M  V30 2779 C 282.25 0.653457 -1.74891 0
M  V30 2780 C 282.601 1.7929 -0.796838 0
M  V30 2781 O 281.726 2.16385 0.0254886 0
M  V30 2782 C 282.321 1.19216 -3.17133 0
M  V30 2783 C 280.88 1.69316 -3.36168 0
M  V30 2784 C 280.027 0.601294 -2.70702 0
M  V30 2785 H 282.978 -0.127497 -1.58187 0
M  V30 2786 H 282.999 2.06154 -3.19814 0
M  V30 2787 H 282.511 0.362635 -3.86402 0
M  V30 2788 H 280.612 2.5468 -2.71972 0
M  V30 2789 H 280.725 1.78853 -4.44464 0
M  V30 2790 H 279.089 1.0399 -2.32504 0
M  V30 2791 H 279.872 -0.217592 -3.4261 0
M  V30 2792 N 282.317 1.53212 0.369288 0
M  V30 2793 C 283.227 1.82342 1.47609 0
M  V30 2794 C 284.243 0.711532 1.58787 0
M  V30 2795 O 285.419 1.0012 1.74751 0
M  V30 2796 C 282.484 2.00393 2.8292 0
M  V30 2797 C 281.545 3.24297 2.81301 0
M  V30 2798 C 280.778 3.41478 4.10157 0
M  V30 2799 O 281.001 2.63033 5.06132 0
M  V30 2800 O 279.935 4.34817 4.16194 0
M  V30 2801 H 283.761 2.76366 1.25918 0
M  V30 2802 H 281.346 1.38547 0.559034 0
M  V30 2803 H 283.228 2.13859 3.63101 0
M  V30 2804 H 281.903 1.09559 3.04596 0
M  V30 2805 H 280.81 3.16257 1.99831 0
M  V30 2806 H 282.143 4.15041 2.64578 0
M  V30 2807 N 283.795 -0.628877 1.44509 0
M  V30 2808 C 284.758 -1.72263 1.51188 0
M  V30 2809 C 285.758 -1.55907 0.39367 0
M  V30 2810 O 286.948 -1.61361 0.656377 0
M  V30 2811 C 284.08 -3.11365 1.38798 0
M  V30 2812 H 285.273 -1.67714 2.4862 0
M  V30 2813 H 282.826 -0.842737 1.31634 0
M  V30 2814 H 283.561 -3.21507 0.424693 0
M  V30 2815 H 283.346 -3.24644 2.19884 0
M  V30 2816 H 284.836 -3.91075 1.46458 0
M  V30 2817 N 285.273 -1.31445 -0.869486 0
M  V30 2818 C 286.501 -1.24122 -1.65534 0
M  V30 2819 C 286.916 0.193387 -1.87807 0
M  V30 2820 O 286.273 1.12557 -1.43656 0
M  V30 2821 C 286.324 -1.98229 -3.02304 0
M  V30 2822 O 286.045 -3.3609 -2.81026 0
M  V30 2823 C 287.546 -1.97751 -3.96749 0
M  V30 2824 H 284.766 -0.428868 -0.516055 0
M  V30 2825 H 287.31 -1.73328 -1.08525 0
M  V30 2826 H 285.465 -1.52782 -3.56001 0
M  V30 2827 H 285.879 -3.7383 -3.67902 0
M  V30 2828 H 287.353 -2.54114 -4.90031 0
M  V30 2829 H 287.83 -0.960137 -4.28577 0
M  V30 2830 H 288.436 -2.43079 -3.48988 0
M  V30 2831 N 286.751 1.08385 -1.14413 0
M  V30 2832 C 287.681 2.17321 -0.854044 0
M  V30 2833 C 288.662 1.69024 0.191049 0
M  V30 2834 O 289.847 1.94141 0.0476779 0
M  V30 2835 C 286.977 3.45719 -0.330983 0
M  V30 2836 C 285.931 4.07409 -1.31155 0
M  V30 2837 C 285.257 5.30762 -0.64778 0
M  V30 2838 C 286.557 4.48665 -2.67388 0
M  V30 2839 H 288.251 2.41845 -1.76498 0
M  V30 2840 H 285.797 1.16233 -0.850051 0
M  V30 2841 H 287.75 4.21241 -0.115645 0
M  V30 2842 H 286.474 3.2075 0.615381 0
M  V30 2843 H 285.133 3.33919 -1.51306 0
M  V30 2844 H 284.781 5.02078 0.304398 0
M  V30 2845 H 284.481 5.72992 -1.30207 0
M  V30 2846 H 286.005 6.08998 -0.441972 0
M  V30 2847 H 287.419 5.15364 -2.51143 0
M  V30 2848 H 285.816 5.01814 -3.29093 0
M  V30 2849 H 286.886 3.60543 -3.24248 0
M  V30 2850 N 288.23 0.939286 1.26551 0
M  V30 2851 C 289.478 0.58469 1.93457 0
M  V30 2852 C 289.799 -0.878774 1.74076 0
M  V30 2853 O 289.069 -1.62421 1.09528 0
M  V30 2854 H 287.649 0.21325 0.715914 0
M  V30 2855 H 290.311 1.1942 1.54029 0
M  V30 2856 H 289.407 0.800849 3.0165 0
M  V30 2857 N 289.708 -1.40897 0.706093 0
M  V30 2858 C 290.954 -2.01352 0.241889 0
M  V30 2859 C 291.287 -1.55832 -1.15888 0
M  V30 2860 O 290.562 -0.774145 -1.7843 0
M  V30 2861 C 290.845 -3.58752 0.311311 0
M  V30 2862 C 290.698 -4.1437 1.74978 0
M  V30 2863 C 292.017 -4.38914 -0.322922 0
M  V30 2864 H 289.136 -0.731562 0.0893687 0
M  V30 2865 H 291.778 -1.67504 0.896802 0
M  V30 2866 H 289.928 -3.87718 -0.246302 0
M  V30 2867 H 291.6 -3.96239 2.36205 0
M  V30 2868 H 289.843 -3.69016 2.28057 0
M  V30 2869 H 290.514 -5.23532 1.74981 0
M  V30 2870 H 292.99 -4.15822 0.152089 0
M  V30 2871 H 291.866 -5.48358 -0.243855 0
M  V30 2872 H 292.127 -4.19176 -1.40513 0
M  V30 2873 N 291.186 -0.45159 -1.50991 0
M  V30 2874 C 292.096 0.358431 -2.31846 0
M  V30 2875 C 293.112 1.01438 -1.41373 0
M  V30 2876 O 294.288 1.00663 -1.74439 0
M  V30 2877 C 291.353 1.43704 -3.15515 0
M  V30 2878 C 290.414 0.799742 -4.21785 0
M  V30 2879 C 289.647 1.82696 -5.01456 0
M  V30 2880 O 289.87 3.05105 -4.81941 0
M  V30 2881 O 288.804 1.40958 -5.85162 0
M  V30 2882 H 292.63 -0.302032 -3.02194 0
M  V30 2883 H 290.215 -0.213825 -1.47862 0
M  V30 2884 H 292.097 2.06227 -3.67489 0
M  V30 2885 H 290.772 2.08133 -2.47916 0
M  V30 2886 H 289.679 0.136084 -3.73852 0
M  V30 2887 H 291.012 0.198718 -4.91799 0
M  V30 2888 N 292.664 1.56529 -0.183458 0
M  V30 2889 C 293.91 1.97537 0.459036 0
M  V30 2890 C 294.243 1.06989 1.62071 0
M  V30 2891 O 293.518 0.11948 1.94133 0
M  V30 2892 C 293.801 3.47874 0.930368 0
M  V30 2893 C 293.654 4.492 -0.232317 0
M  V30 2894 C 294.973 4.01612 1.79989 0
M  V30 2895 H 292.092 0.718204 0.165383 0
M  V30 2896 H 294.734 1.88042 -0.272038 0
M  V30 2897 H 292.884 3.56095 1.55333 0
M  V30 2898 H 294.556 4.53027 -0.86972 0
M  V30 2899 H 292.799 4.24657 -0.885928 0
M  V30 2900 H 293.47 5.51823 0.139796 0
M  V30 2901 H 295.946 3.96097 1.27461 0
M  V30 2902 H 294.822 5.07195 2.09867 0
M  V30 2903 H 295.083 3.46163 2.74998 0
M  V30 2904 N 294.142 -0.090211 1.57342 0
M  V30 2905 C 295.367 -0.810082 1.90925 0
M  V30 2906 C 295.792 -1.71248 0.778187 0
M  V30 2907 O 295.15 -1.79278 -0.269991 0
M  V30 2908 C 295.198 -1.59529 3.23393 0
M  V30 2909 O 294.302 -2.70461 3.11327 0
M  V30 2910 H 293.643 -0.222231 0.625707 0
M  V30 2911 H 296.173 -0.0639716 2.045 0
M  V30 2912 H 296.183 -1.97847 3.5682 0
M  V30 2913 H 294.858 -0.933055 4.05299 0
M  V30 2914 H 293.435 -2.35135 2.89423 0
M  V30 2915 N 295.62 -1.53406 -0.361157 0
M  V30 2916 C 296.897 -1.60411 -1.11927 0
M  V30 2917 C 297.277 -0.414385 -2.06993 0
M  V30 2918 O 296.625 0.594976 -2.20618 0
M  V30 2919 C 296.835 -2.95652 -1.85448 0
M  V30 2920 C 298.183 -3.50386 -2.39823 0
M  V30 2921 O 299.207 -2.97711 -1.95568 0
M  V30 2922 O 298.066 -4.42482 -3.20737 0
M  V30 2923 H 295.16 -0.64811 -0.513695 0
M  V30 2924 H 297.706 -1.65749 -0.364065 0
M  V30 2925 H 296.478 -3.73682 -1.16091 0
M  V30 2926 H 296.101 -2.93825 -2.67866 0
M  V30 2927 N 297.098 0.621204 -1.44841 0
M  V30 2928 C 298.323 1.41244 -1.51871 0
M  V30 2929 C 298.748 1.87519 -0.147764 0
M  V30 2930 O 298.106 1.59334 0.865 0
M  V30 2931 C 298.154 2.60221 -2.49634 0
M  V30 2932 O 297.258 3.60395 -2.00473 0
M  V30 2933 H 296.599 0.42223 -0.512463 0
M  V30 2934 H 299.129 0.757305 -1.90069 0
M  V30 2935 H 299.139 3.0764 -2.67996 0
M  V30 2936 H 297.814 2.25887 -3.4921 0
M  V30 2937 H 296.391 3.19717 -1.91925 0
M  V30 2938 N 298.576 1.31904 0.862503 0
M  V30 2939 C 299.801 1.25135 1.65397 0
M  V30 2940 C 300.226 -0.179 1.87246 0
M  V30 2941 O 299.584 -1.1277 1.4196 0
M  V30 2942 C 299.632 2.00832 2.99498 0
M  V30 2943 O 298.736 1.35075 3.89652 0
M  V30 2944 H 298.077 0.431655 0.504549 0
M  V30 2945 H 300.607 1.74094 1.07483 0
M  V30 2946 H 300.617 2.10709 3.49379 0
M  V30 2947 H 299.292 3.04847 2.82916 0
M  V30 2948 H 297.869 1.33696 3.48109 0
M  V30 2949 N 300.054 -1.07777 1.14986 0
M  V30 2950 C 301.3 -1.80557 0.923422 0
M  V30 2951 C 301.633 -1.86298 -0.548337 0
M  V30 2952 O 300.908 -1.34354 -1.40639 0
M  V30 2953 C 301.191 -3.25839 1.53299 0
M  V30 2954 C 301.044 -3.28269 3.07505 0
M  V30 2955 C 302.363 -4.22991 1.21518 0
M  V30 2956 H 299.482 -0.655493 0.336894 0
M  V30 2957 H 302.124 -1.26144 1.42083 0
M  V30 2958 H 300.274 -3.72306 1.10999 0
M  V30 2959 H 301.946 -2.90079 3.58681 0
M  V30 2960 H 300.189 -2.67355 3.4162 0
M  V30 2961 H 300.86 -4.30691 3.45266 0
M  V30 2962 H 303.336 -3.84894 1.581 0
M  V30 2963 H 302.212 -5.22945 1.66793 0
M  V30 2964 H 302.473 -4.41904 0.131505 0
M  V30 2965 N 301.532 -0.945985 -1.26051 0
M  V30 2966 C 302.48 -0.450259 -2.282 0
M  V30 2967 C 303.474 0.47497 -1.62605 0
M  V30 2968 O 304.68 0.352653 -1.76512 0
M  V30 2969 H 301.055 -0.127081 -0.741184 0
M  V30 2970 H 303.026 -1.32422 -2.67408 0
M  V30 2971 C 301.775 0.26467 -3.46691 0
M  V30 2972 H 301.098 -0.438123 -3.97392 0
M  V30 2973 H 302.538 0.575678 -4.20074 0
M  V30 2974 C 300.997 1.48416 -3.02447 0
M  V30 2975 O 301.527 2.58227 -3.07704 0
M  V30 2976 N 299.733 1.34243 -2.57735 0
M  V30 2977 H 299.28 0.448994 -2.53657 0
M  V30 2978 H 299.238 2.15957 -2.28495 0
M  V30 2979 N 303.011 1.40521 -0.713556 0
M  V30 2980 C 304.251 2.02783 -0.256584 0
M  V30 2981 C 304.615 1.55352 1.12827 0
M  V30 2982 O 305.816 2.09663 1.68211 0
M  V30 2983 C 304.087 3.5586 -0.331414 0
M  V30 2984 S 305.646 4.38773 0.0488703 0
M  V30 2985 H 302.464 0.703655 -0.101934 0
M  V30 2986 H 305.066 1.71674 -0.935325 0
M  V30 2987 H 303.77 3.87874 -1.34098 0
M  V30 2988 H 303.301 3.91695 0.365873 0
M  V30 2989 H 305.316 4.79633 1.2715 0
M  V30 2990 N 304.489 0.459591 1.5075 0
M  V30 2991 C 305.738 -0.100971 2.01447 0
M  V30 2992 C 306.051 -1.41816 1.34713 0
M  V30 2993 O 307.257 -2.06299 1.76502 0
M  V30 2994 C 305.713 -0.23047 3.59161 0
M  V30 2995 C 305.321 1.0776 4.34847 0
M  V30 2996 C 307.065 -0.743608 4.17936 0
M  V30 2997 C 304.972 0.91253 5.84317 0
M  V30 2998 H 303.902 -0.0415102 0.752856 0
M  V30 2999 H 306.553 0.592742 1.73663 0
M  V30 3000 H 304.935 -0.987703 3.83485 0
M  V30 3001 H 306.109 1.8449 4.22256 0
M  V30 3002 H 304.424 1.52097 3.87628 0
M  V30 3003 H 307.021 -0.883959 5.27343 0
M  V30 3004 H 307.364 -1.73196 3.78562 0
M  V30 3005 H 307.897 -0.04408 3.97776 0
M  V30 3006 H 304.636 1.87391 6.28144 0
M  V30 3007 H 304.156 0.185422 5.99513 0
M  V30 3008 H 305.835 0.574547 6.44444 0
M  V30 3009 N 305.967 -1.56429 0.191757 0
M  V30 3010 C 306.877 -2.22541 -0.742481 0
M  V30 3011 C 307.893 -1.22342 -1.23727 0
M  V30 3012 O 309.069 -1.55069 -1.28513 0
M  V30 3013 C 306.134 -2.8692 -1.94623 0
M  V30 3014 C 305.195 -4.02378 -1.49633 0
M  V30 3015 C 304.428 -4.63678 -2.6427 0
M  V30 3016 O 304.651 -4.23895 -3.81666 0
M  V30 3017 O 303.585 -5.53202 -2.37174 0
M  V30 3018 H 307.411 -3.02977 -0.209462 0
M  V30 3019 H 304.996 -1.49353 -0.0373832 0
M  V30 3020 H 306.878 -3.27663 -2.64982 0
M  V30 3021 H 305.553 -2.09466 -2.46791 0
M  V30 3022 H 304.46 -3.66265 -0.761636 0
M  V30 3023 H 305.793 -4.81487 -1.02134 0
M  V30 3024 N 307.445 0.0818655 -1.57387 0
M  V30 3025 C 308.377 1.12484 -1.997 0
M  V30 3026 C 309.39 1.35564 -0.90146 0
M  V30 3027 O 310.579 1.33982 -1.17945 0
M  V30 3028 C 307.679 2.47778 -2.31213 0
M  V30 3029 C 306.852 2.44793 -3.62485 0
M  V30 3030 C 305.911 3.62117 -3.81782 0
M  V30 3031 O 304.937 3.44005 -4.53486 0
M  V30 3032 N 306.139 4.82094 -3.23367 0
M  V30 3033 H 308.904 0.764585 -2.89783 0
M  V30 3034 H 306.465 0.270664 -1.59621 0
M  V30 3035 H 308.457 3.24891 -2.41304 0
M  V30 3036 H 307.027 2.75843 -1.4707 0
M  V30 3037 H 306.247 1.53134 -3.6324 0
M  V30 3038 H 307.535 2.39889 -4.48699 0
M  V30 3039 H 306.933 4.99713 -2.65148 0
M  V30 3040 H 305.49 5.56753 -3.38923 0
M  V30 3041 N 308.923 1.53595 0.353017 0
M  V30 3042 C 310.151 1.74311 1.1146 0
M  V30 3043 C 310.566 0.477854 1.82653 0
M  V30 3044 O 309.923 -0.549977 1.74016 0
M  V30 3045 C 309.974 2.91694 2.13534 0
M  V30 3046 O 309.695 4.13325 1.45238 0
M  V30 3047 C 311.196 3.24384 3.02142 0
M  V30 3048 H 308.416 0.582669 0.332773 0
M  V30 3049 H 310.96 2.00386 0.408107 0
M  V30 3050 H 309.115 2.67977 2.79763 0
M  V30 3051 H 309.529 4.79148 2.13349 0
M  V30 3052 H 311.003 4.09893 3.69718 0
M  V30 3053 H 311.48 2.40282 3.67643 0
M  V30 3054 H 312.086 3.50073 2.41514 0
M  V30 3055 N 310.401 -0.613514 1.45168 0
M  V30 3056 C 311.629 -1.39946 1.5239 0
M  V30 3057 C 312.044 -1.88167 0.154531 0
M  V30 3058 O 311.401 -1.61872 -0.842843 0
M  V30 3059 C 311.452 -2.60795 2.50337 0
M  V30 3060 O 311.173 -2.1458 3.81952 0
M  V30 3061 C 312.674 -3.53723 2.67198 0
M  V30 3062 H 309.894 -0.428593 0.516284 0
M  V30 3063 H 312.438 -0.748753 1.903 0
M  V30 3064 H 310.593 -3.21919 2.15515 0
M  V30 3065 H 311.007 -2.93055 4.34993 0
M  V30 3066 H 312.481 -4.35079 3.39721 0
M  V30 3067 H 312.958 -4.0368 1.73029 0
M  V30 3068 H 313.564 -2.98456 3.02992 0
M  V30 3069 N 311.879 -1.3236 -0.855495 0
M  V30 3070 C 312.789 -1.23221 -1.99634 0
M  V30 3071 C 313.805 -0.145983 -1.73387 0
M  V30 3072 O 314.981 -0.366502 -1.98037 0
M  V30 3073 C 312.046 -0.954782 -3.33294 0
M  V30 3074 C 311.107 -2.12937 -3.72769 0
M  V30 3075 C 310.34 -1.86508 -5.00051 0
M  V30 3076 O 310.563 -0.807231 -5.64659 0
M  V30 3077 O 309.497 -2.72591 -5.36636 0
M  V30 3078 H 313.323 -2.19126 -2.1028 0
M  V30 3079 H 310.908 -1.12241 -0.986018 0
M  V30 3080 H 312.79 -0.816519 -4.13414 0
M  V30 3081 H 311.465 -0.0258854 -3.2369 0
M  V30 3082 H 310.372 -2.3231 -2.93228 0
M  V30 3083 H 311.705 -3.04102 -3.87018 0
M  V30 3084 N 313.357 1.07166 -1.15556 0
M  V30 3085 C 314.603 1.80222 -0.942961 0
M  V30 3086 C 314.958 1.85121 0.524209 0
M  V30 3087 O 314.251 1.32531 1.38369 0
M  V30 3088 C 314.445 3.24707 -1.49332 0
M  V30 3089 C 314.274 3.33887 -3.01247 0
M  V30 3090 C 313.044 3.44337 -3.69811 0
M  V30 3091 C 315.242 3.24484 -3.99017 0
M  V30 3092 N 313.224 3.42439 -5.09518 0
M  V30 3093 C 314.595 3.29726 -5.25053 0
M  V30 3094 C 316.65 3.08307 -3.90962 0
M  V30 3095 C 315.353 3.20455 -6.43973 0
M  V30 3096 C 317.379 3.00371 -5.09442 0
M  V30 3097 C 316.741 3.06227 -6.34354 0
M  V30 3098 H 312.84 0.672709 -0.398731 0
M  V30 3099 H 315.424 1.27905 -1.46794 0
M  V30 3100 H 313.595 3.7544 -0.994946 0
M  V30 3101 H 315.327 3.85894 -1.21935 0
M  V30 3102 H 312.082 3.48762 -3.20409 0
M  V30 3103 H 312.506 3.45013 -5.8249 0
M  V30 3104 H 317.148 3.02633 -2.95251 0
M  V30 3105 H 314.866 3.24888 -7.39914 0
M  V30 3106 H 318.452 2.88955 -5.04971 0
M  V30 3107 H 317.332 3.00132 -7.24493 0
M  V30 3108 N 314.835 0.952656 1.25548 0
M  V30 3109 C 316.063 0.623496 1.97282 0
M  V30 3110 C 316.478 -0.803987 1.70826 0
M  V30 3111 O 315.835 -1.53755 0.983147 0
M  V30 3112 C 315.886 0.870209 3.5087 0
M  V30 3113 O 315.607 2.24156 3.76412 0
M  V30 3114 C 317.108 0.553164 4.39835 0
M  V30 3115 H 314.328 0.233931 0.628902 0
M  V30 3116 H 316.872 1.27649 1.59768 0
M  V30 3117 H 315.027 0.263652 3.86502 0
M  V30 3118 H 315.441 2.31021 4.70882 0
M  V30 3119 H 316.915 0.776342 5.46513 0
M  V30 3120 H 317.392 -0.512215 4.36203 0
M  V30 3121 H 317.998 1.13896 4.09766 0
M  V30 3122 N 316.313 -1.40141 0.720998 0
M  V30 3123 C 317.276 -2.29058 0.0805834 0
M  V30 3124 C 318.276 -1.45632 -0.681758 0
M  V30 3125 O 319.466 -1.6648 -0.512856 0
M  V30 3126 C 316.598 -3.28925 -0.895593 0
M  V30 3127 H 317.791 -2.87191 0.863793 0
M  V30 3128 H 315.344 -1.48553 0.485975 0
M  V30 3129 H 316.079 -2.75822 -1.70566 0
M  V30 3130 H 315.864 -3.90519 -0.351766 0
M  V30 3131 H 317.354 -3.95494 -1.34069 0
M  V30 3132 N 317.792 -0.46758 -1.50504 0
M  V30 3133 C 319.032 0.0874114 -2.04213 0
M  V30 3134 C 319.396 1.37301 -1.34211 0
M  V30 3135 O 320.597 2.01015 -1.78456 0
M  V30 3136 C 318.868 0.270571 -3.56374 0
M  V30 3137 S 320.427 0.784623 -4.31728 0
M  V30 3138 H 317.245 0.0176153 -0.710782 0
M  V30 3139 H 319.847 -0.633915 -1.84937 0
M  V30 3140 H 318.551 -0.670942 -4.04878 0
M  V30 3141 H 318.082 1.01811 -3.79997 0
M  V30 3142 H 320.097 2.05849 -4.51487 0
M  V30 3143 N 319.27 1.56325 -0.20005 0
M  V30 3144 C 320.495 2.02548 0.44597 0
M  V30 3145 C 320.92 1.07922 1.5406 0
M  V30 3146 O 320.278 0.0635775 1.81188 0
M  V30 3147 C 320.326 3.47175 0.974761 0
M  V30 3148 O 319.43 3.55671 2.08739 0
M  V30 3149 H 318.771 0.655862 0.103638 0
M  V30 3150 H 321.301 2.02201 -0.312381 0
M  V30 3151 H 321.311 3.87067 1.2901 0
M  V30 3152 H 319.986 4.15538 0.17347 0
M  V30 3153 H 318.563 3.27657 1.78032 0
M  V30 3154 N 320.748 -0.0735177 1.57428 0
M  V30 3155 C 321.695 -1.08756 2.0357 0
M  V30 3156 C 322.665 -1.38559 0.916 0
M  V30 3157 O 323.85 -1.49656 1.18354 0
M  V30 3158 C 320.99 -2.39657 2.48311 0
M  V30 3159 C 320.103 -2.16399 3.73892 0
M  V30 3160 C 319.238 -3.40852 4.07423 0
M  V30 3161 C 318.277 -3.1295 5.2605 0
M  V30 3162 N 317.414 -4.29729 5.55228 0
M  V30 3163 H 322.254 -0.687104 2.8997 0
M  V30 3164 H 319.791 -0.327709 1.43403 0
M  V30 3165 H 321.749 -3.16081 2.72303 0
M  V30 3166 H 320.379 -2.77508 1.64891 0
M  V30 3167 H 319.431 -1.30676 3.57251 0
M  V30 3168 H 320.743 -1.91788 4.60455 0
M  V30 3169 H 319.897 -4.25671 4.32306 0
M  V30 3170 H 318.636 -3.68537 3.19425 0
M  V30 3171 H 317.641 -2.26526 5.00965 0
M  V30 3172 H 318.866 -2.86589 6.15665 0
M  V30 3173 H 316.812 -4.57448 4.70188 0
M  V30 3174 H 316.729 -4.08385 6.36206 0
M  V30 3175 H 317.997 -5.1555 5.84661 0
M  V30 3176 N 322.226 -1.5378 -0.344866 0
M  V30 3177 C 323.451 -1.75211 -1.10977 0
M  V30 3178 C 323.876 -0.48936 -1.81623 0
M  V30 3179 O 323.234 0.557925 -1.72502 0
M  V30 3180 C 323.282 -2.93147 -2.09993 0
M  V30 3181 O 322.386 -2.63203 -3.17487 0
M  V30 3182 H 321.727 -0.581241 -0.321021 0
M  V30 3183 H 324.257 -2.00738 -0.395661 0
M  V30 3184 H 324.267 -3.19898 -2.53237 0
M  V30 3185 H 322.942 -3.84731 -1.5797 0
M  V30 3186 H 321.519 -2.47336 -2.79069 0
M  V30 3187 N 323.704 0.605807 -1.45491 0
M  V30 3188 C 324.944 1.37606 -1.51142 0
M  V30 3189 C 325.308 1.91413 -0.150075 0
M  V30 3190 O 326.509 2.68677 -0.0812828 0
M  V30 3191 C 324.78 2.49197 -2.56195 0
M  V30 3192 S 326.339 3.36953 -2.81083 0
M  V30 3193 H 323.157 0.469118 -0.534275 0
M  V30 3194 H 325.759 0.698845 -1.82583 0
M  V30 3195 H 324.463 2.0802 -3.53773 0
M  V30 3196 H 323.994 3.21717 -2.26411 0
M  V30 3197 H 326.009 4.47395 -2.14598 0
M  V30 3198 N 325.182 1.32811 0.848464 0
M  V30 3199 C 326.43 1.23479 1.59991 0
M  V30 3200 C 326.751 -0.201853 1.93952 0
M  V30 3201 O 326.021 -1.12818 1.60153 0
M  V30 3202 H 324.601 0.454034 0.593179 0
M  V30 3203 H 327.263 1.66412 1.01455 0
M  V30 3204 H 326.359 1.82178 2.53412 0
M  V30 3205 N 326.66 -1.06551 1.16123 0
M  V30 3206 C 327.593 -2.13382 0.80892 0
M  V30 3207 C 328.571 -1.61128 -0.21827 0
M  V30 3208 O 329.755 -1.88219 -0.102952 0
M  V30 3209 C 326.882 -3.38083 0.204303 0
M  V30 3210 C 325.928 -4.09133 1.20469 0
M  V30 3211 S 326.761 -4.5948 2.75024 0
M  V30 3212 C 327.917 -5.87446 2.16005 0
M  V30 3213 H 328.15 -2.42937 1.71373 0
M  V30 3214 H 325.683 -1.18947 0.984428 0
M  V30 3215 H 327.641 -4.10268 -0.138081 0
M  V30 3216 H 326.302 -3.0669 -0.678234 0
M  V30 3217 H 325.495 -4.98685 0.730019 0
M  V30 3218 H 325.097 -3.4295 1.49202 0
M  V30 3219 H 327.389 -6.60065 1.5271 0
M  V30 3220 H 328.332 -6.39639 3.03756 0
M  V30 3221 H 328.74 -5.41354 1.59989 0
M  V30 3222 N 328.138 -0.959301 -1.25041 0
M  V30 3223 C 329.386 -0.615393 -1.92503 0
M  V30 3224 C 329.707 0.850969 -1.75452 0
M  V30 3225 O 328.977 1.60658 -1.12098 0
M  V30 3226 H 327.557 -0.224613 -0.712431 0
M  V30 3227 H 330.219 -1.21855 -1.5211 0
M  V30 3228 H 329.315 -0.848738 -3.00338 0
M  V30 3229 N 329.616 1.39756 -0.72842 0
M  V30 3230 C 330.863 2.00645 -0.273487 0
M  V30 3231 C 331.191 1.57786 1.13727 0
M  V30 3232 O 330.446 0.794886 1.7883 0
M  V30 3233 C 330.745 3.56002 -0.315776 0
M  V30 3234 C 330.411 4.18489 -1.67863 0
M  V30 3235 C 329.073 4.3527 -2.05166 0
M  V30 3236 C 331.425 4.53219 -2.57375 0
M  V30 3237 C 328.753 4.84069 -3.31503 0
M  V30 3238 C 331.105 5.03423 -3.83077 0
M  V30 3239 C 329.769 5.18413 -4.20481 0
M  V30 3240 H 329.039 0.734211 -0.100076 0
M  V30 3241 H 331.686 1.6718 -0.933972 0
M  V30 3242 H 329.991 3.89452 0.428285 0
M  V30 3243 H 331.688 4.00963 0.0542575 0
M  V30 3244 H 328.278 4.05824 -1.37858 0
M  V30 3245 H 332.462 4.39878 -2.29827 0
M  V30 3246 H 327.718 4.93859 -3.60435 0
M  V30 3247 H 331.892 5.2927 -4.52599 0
M  V30 3248 H 329.519 5.55987 -5.18443 0
M  V30 3249 N 331.094 0.475555 1.50254 0
M  V30 3250 C 332.319 -0.0777042 2.07254 0
M  V30 3251 C 332.744 -1.3235 1.3366 0
M  V30 3252 O 332.102 -1.77152 0.385597 0
M  V30 3253 C 332.15 -0.340169 3.58992 0
M  V30 3254 O 331.254 -1.41982 3.87188 0
M  V30 3255 H 330.595 0.0149556 0.663832 0
M  V30 3256 H 333.125 0.667878 1.93392 0
M  V30 3257 H 333.135 -0.579332 4.03866 0
M  V30 3258 H 331.81 0.570167 4.11973 0
M  V30 3259 H 330.387 -1.16762 3.54148 0
M  V30 3260 N 332.573 -1.56217 0.208337 0
M  V30 3261 C 333.801 -2.02337 -0.43215 0
M  V30 3262 C 334.216 -1.08834 -1.54275 0
M  V30 3263 O 333.573 -0.0955462 -1.8225 0
M  V30 3264 C 333.624 -3.48072 -0.976138 0
M  V30 3265 O 333.345 -4.38007 0.0901621 0
M  V30 3266 C 334.846 -4.09773 -1.69119 0
M  V30 3267 H 332.066 -0.662385 -0.10718 0
M  V30 3268 H 334.61 -2.01966 0.320923 0
M  V30 3269 H 332.765 -3.49099 -1.67954 0
M  V30 3270 H 333.179 -5.23543 -0.316701 0
M  V30 3271 H 334.653 -5.13556 -2.02397 0
M  V30 3272 H 335.13 -3.53999 -2.59964 0
M  V30 3273 H 335.736 -4.12556 -1.03332 0
M  V30 3274 N 334.051 0.0651679 -1.57465 0
M  V30 3275 C 335.467 0.420105 -1.53972 0
M  V30 3276 C 335.667 1.78782 -0.929474 0
M  V30 3277 O 334.723 2.46771 -0.534839 0
M  V30 3278 C 336.036 0.355084 -2.98596 0
M  V30 3279 C 337.584 0.434792 -3.09965 0
M  V30 3280 C 338.059 0.399609 -4.56253 0
M  V30 3281 N 339.55 0.459488 -4.60915 0
M  V30 3282 C 340.285 0.454584 -5.71595 0
M  V30 3283 N 339.781 0.404102 -6.9162 0
M  V30 3284 N 341.574 0.501635 -5.59857 0
M  V30 3285 H 333.725 -0.830328 -1.95498 0
M  V30 3286 H 335.988 -0.312244 -0.895102 0
M  V30 3287 H 335.694 -0.583357 -3.46828 0
M  V30 3288 H 335.568 1.16275 -3.58831 0
M  V30 3289 H 337.955 1.36366 -2.61703 0
M  V30 3290 H 338.036 -0.40157 -2.52628 0
M  V30 3291 H 337.68 -0.525436 -5.05175 0
M  V30 3292 H 337.61 1.25359 -5.11461 0
M  V30 3293 H 340.101 0.502482 -3.74544 0
M  V30 3294 H 340.414 0.404468 -7.71741 0
M  V30 3295 H 338.759 0.37069 -6.94011 0
M  V30 3296 H 341.95 0.538812 -4.64989 0
M  V30 3297 H 342.123 0.494345 -6.46112 0
M  V30 3298 N 335.529 1.53961 0.336706 0
M  V30 3299 C 336.775 1.7179 1.07777 0
M  V30 3300 C 337.108 0.483263 1.88091 0
M  V30 3301 O 336.383 -0.519747 1.87427 0
M  V30 3302 C 336.666 2.98558 2.01334 0
M  V30 3303 C 336.519 4.32245 1.24437 0
M  V30 3304 C 337.838 3.21023 3.01052 0
M  V30 3305 H 334.957 0.625089 0.390426 0
M  V30 3306 H 337.599 1.86641 0.35567 0
M  V30 3307 H 335.749 2.86028 2.62908 0
M  V30 3308 H 337.421 4.56637 0.654243 0
M  V30 3309 H 335.664 4.30344 0.546458 0
M  V30 3310 H 336.335 5.17137 1.93063 0
M  V30 3311 H 338.811 3.32929 2.49595 0
M  V30 3312 H 337.687 4.11104 3.6371 0
M  V30 3313 H 337.948 2.37637 3.72802 0
M  V30 3314 N 337.007 -0.598083 1.45811 0
M  V30 3315 C 338.235 -1.38322 1.53866 0
M  V30 3316 C 338.65 -1.87992 0.174479 0
M  V30 3317 O 338.007 -1.62756 -0.825627 0
M  V30 3318 C 338.058 -2.58125 2.53089 0
M  V30 3319 O 337.779 -2.10516 3.84206 0
M  V30 3320 C 339.28 -3.50869 2.70935 0
M  V30 3321 H 336.5 -0.423093 0.520801 0
M  V30 3322 H 339.044 -0.728527 1.91083 0
M  V30 3323 H 337.199 -3.19615 2.18917 0
M  V30 3324 H 337.613 -2.88425 4.38077 0
M  V30 3325 H 339.087 -4.31451 3.44317 0
M  V30 3326 H 339.564 -4.01822 1.77301 0
M  V30 3327 H 340.17 -2.95225 3.06141 0
M  V30 3328 N 338.485 -1.33259 -0.841409 0
M  V30 3329 C 339.433 -1.23279 -1.97244 0
M  V30 3330 C 340.427 -0.134706 -1.68864 0
M  V30 3331 O 341.633 -0.298501 -1.77508 0
M  V30 3332 H 338.008 -0.382497 -0.647457 0
M  V30 3333 H 339.979 -2.18906 -2.02787 0
M  V30 3334 C 338.728 -0.986268 -3.33419 0
M  V30 3335 H 338.051 -1.82347 -3.55794 0
M  V30 3336 H 339.491 -0.956728 -4.13065 0
M  V30 3337 C 337.95 0.310842 -3.35463 0
M  V30 3338 O 338.48 1.31838 -3.79449 0
M  V30 3339 N 336.686 0.337485 -2.88634 0
M  V30 3340 H 336.233 -0.482967 -2.53032 0
M  V30 3341 H 336.191 1.20518 -2.90384 0
M  V30 3342 N 339.963 1.05934 -1.16686 0
M  V30 3343 C 341.379 1.30938 -0.912542 0
M  V30 3344 C 341.579 1.96803 0.432533 0
M  V30 3345 O 340.635 2.23693 1.17123 0
M  V30 3346 C 341.948 2.18649 -2.06429 0
M  V30 3347 C 343.496 2.32055 -2.10047 0
M  V30 3348 C 343.971 3.23122 -3.24586 0
M  V30 3349 N 345.462 3.30706 -3.24327 0
M  V30 3350 C 346.197 4.01273 -4.09594 0
M  V30 3351 N 345.693 4.74332 -5.04956 0
M  V30 3352 N 347.486 3.97361 -3.97569 0
M  V30 3353 H 339.637 0.615777 -2.03278 0
M  V30 3354 H 341.9 0.334077 -0.887185 0
M  V30 3355 H 341.606 1.77534 -3.03603 0
M  V30 3356 H 341.48 3.19252 -2.00894 0
M  V30 3357 H 343.867 2.72415 -1.13464 0
M  V30 3358 H 343.948 1.31107 -2.19647 0
M  V30 3359 H 343.592 2.83477 -4.2143 0
M  V30 3360 H 343.522 4.24057 -3.12223 0
M  V30 3361 H 346.013 2.78644 -2.55276 0
M  V30 3362 H 346.326 5.25716 -5.6643 0
M  V30 3363 H 344.671 4.733 -5.08933 0
M  V30 3364 H 347.862 3.39405 -3.22369 0
M  V30 3365 H 348.035 4.52089 -4.64241 0
M  V30 3366 N 341.441 0.965919 1.2453 0
M  V30 3367 C 342.389 0.486506 2.27455 0
M  V30 3368 C 343.383 -0.449041 1.6334 0
M  V30 3369 O 344.589 -0.324527 1.7705 0
M  V30 3370 H 340.964 0.138857 0.739069 0
M  V30 3371 H 342.935 1.3666 2.65267 0
M  V30 3372 C 341.684 -0.209481 3.47068 0
M  V30 3373 H 341.007 0.50129 3.96645 0
M  V30 3374 H 342.447 -0.508775 4.20936 0
M  V30 3375 C 340.906 -1.43586 3.0477 0
M  V30 3376 O 341.436 -2.53299 3.11773 0
M  V30 3377 N 339.642 -1.30126 2.59838 0
M  V30 3378 H 339.189 -0.408583 2.54339 0
M  V30 3379 H 339.147 -2.12294 2.31902 0
M  V30 3380 N 342.919 -1.39368 0.735821 0
M  V30 3381 C 344.335 -1.54204 0.411492 0
M  V30 3382 C 344.535 -1.70268 -1.07755 0
M  V30 3383 O 343.591 -1.70364 -1.86366 0
M  V30 3384 C 344.904 -2.75925 1.19523 0
M  V30 3385 C 346.452 -2.89761 1.18354 0
M  V30 3386 C 346.927 -4.14421 1.94986 0
M  V30 3387 N 348.418 -4.21462 1.92156 0
M  V30 3388 C 349.153 -5.16871 2.48258 0
M  V30 3389 N 348.649 -6.18063 3.13001 0
M  V30 3390 N 350.442 -5.09093 2.38287 0
M  V30 3391 H 342.593 -1.27189 1.70108 0
M  V30 3392 H 344.856 -0.616517 0.720147 0
M  V30 3393 H 344.562 -2.70401 2.24892 0
M  V30 3394 H 344.436 -3.68614 0.800222 0
M  V30 3395 H 346.823 -2.94777 0.137975 0
M  V30 3396 H 346.904 -1.98133 1.61793 0
M  V30 3397 H 346.548 -4.10166 2.99543 0
M  V30 3398 H 346.478 -5.05095 1.48953 0
M  V30 3399 H 348.969 -3.48979 1.44991 0
M  V30 3400 H 349.282 -6.87326 3.53275 0
M  V30 3401 H 347.627 -6.18448 3.17091 0
M  V30 3402 H 350.818 -4.28973 1.8735 0
M  V30 3403 H 350.991 -5.83272 2.82308 0
M  V30 3404 N 344.397 -0.483516 -1.5 0
M  V30 3405 C 345.329 0.340634 -2.26655 0
M  V30 3406 C 346.342 0.946152 -1.32483 0
M  V30 3407 O 347.531 0.832453 -1.579 0
M  V30 3408 C 344.631 1.4929 -3.04246 0
M  V30 3409 C 343.804 0.997903 -4.25865 0
M  V30 3410 C 342.863 2.02569 -4.85646 0
M  V30 3411 O 341.889 1.60128 -5.46212 0
M  V30 3412 N 343.091 3.3548 -4.73744 0
M  V30 3413 H 345.856 -0.316577 -2.98023 0
M  V30 3414 H 343.417 -0.315024 -1.58806 0
M  V30 3415 H 345.409 2.17766 -3.41116 0
M  V30 3416 H 343.979 2.05458 -2.35597 0
M  V30 3417 H 343.199 0.138617 -3.93956 0
M  V30 3418 H 344.487 0.645305 -5.04691 0
M  V30 3419 H 343.885 3.72661 -4.25605 0
M  V30 3420 H 342.442 3.99718 -5.14848 0
M  V30 3421 N 345.875 1.56104 -0.216619 0
M  V30 3422 C 347.115 2.00074 0.418322 0
M  V30 3423 C 347.479 1.10098 1.57297 0
M  V30 3424 O 348.68 1.43393 2.27359 0
M  V30 3425 C 346.951 3.47231 0.846477 0
M  V30 3426 S 348.51 4.13223 1.47622 0
M  V30 3427 H 345.328 0.698457 0.132962 0
M  V30 3428 H 347.93 1.92784 -0.324748 0
M  V30 3429 H 346.634 4.104 -0.0036319 0
M  V30 3430 H 346.165 3.58384 1.62248 0
M  V30 3431 H 348.18 4.12005 2.76526 0
M  V30 3432 N 347.353 -0.0568162 1.57498 0
M  V30 3433 C 348.263 -1.08346 2.08083 0
M  V30 3434 C 349.279 -1.41439 1.01346 0
M  V30 3435 O 350.455 -1.51316 1.32912 0
M  V30 3436 C 347.52 -2.37352 2.52715 0
M  V30 3437 C 346.581 -2.11093 3.73816 0
M  V30 3438 C 345.814 -3.33949 4.1631 0
M  V30 3439 O 346.037 -4.43622 3.58547 0
M  V30 3440 O 344.971 -3.21279 5.08983 0
M  V30 3441 H 348.797 -0.683667 2.95905 0
M  V30 3442 H 346.382 -0.271965 1.46904 0
M  V30 3443 H 348.264 -3.13246 2.81877 0
M  V30 3444 H 346.939 -2.76681 1.68016 0
M  V30 3445 H 345.846 -1.32856 3.49714 0
M  V30 3446 H 347.179 -1.76637 4.59413 0
M  V30 3447 N 348.832 -1.54138 -0.328536 0
M  V30 3448 C 349.765 -1.78014 -1.4278 0
M  V30 3449 C 350.743 -0.629889 -1.49904 0
M  V30 3450 O 351.927 -0.866763 -1.6739 0
M  V30 3451 C 349.054 -1.89225 -2.80912 0
M  V30 3452 C 348.1 -3.11483 -2.91343 0
M  V30 3453 S 348.933 -4.70201 -2.56263 0
M  V30 3454 C 350.089 -4.84312 -3.96476 0
M  V30 3455 H 350.322 -2.70974 -1.22313 0
M  V30 3456 H 347.855 -1.45197 -0.525084 0
M  V30 3457 H 349.813 -1.9637 -3.60485 0
M  V30 3458 H 348.474 -0.972518 -2.98665 0
M  V30 3459 H 347.667 -3.16046 -3.92595 0
M  V30 3460 H 347.269 -3.02642 -2.19736 0
M  V30 3461 H 349.561 -4.66643 -4.91173 0
M  V30 3462 H 350.504 -5.86411 -3.96898 0
M  V30 3463 H 350.912 -4.12652 -3.85199 0
M  V30 3464 N 350.31 0.590341 -1.46126 0
M  V30 3465 C 351.24 1.71032 -1.58966 0
M  V30 3466 C 352.221 1.64302 -0.440335 0
M  V30 3467 O 353.406 1.82436 -0.665634 0
M  V30 3468 C 350.536 3.09665 -1.57241 0
M  V30 3469 C 349.49 3.31221 -2.71066 0
M  V30 3470 C 348.816 4.70303 -2.54399 0
M  V30 3471 C 350.116 3.19796 -4.1295 0
M  V30 3472 H 351.81 1.60543 -2.52718 0
M  V30 3473 H 349.356 0.770933 -1.21625 0
M  V30 3474 H 351.309 3.87831 -1.64819 0
M  V30 3475 H 350.033 3.21036 -0.600289 0
M  V30 3476 H 348.692 2.55452 -2.62944 0
M  V30 3477 H 348.34 4.78429 -1.55288 0
M  V30 3478 H 348.04 4.85679 -3.30741 0
M  V30 3479 H 349.564 5.50647 -2.63857 0
M  V30 3480 H 350.978 3.87815 -4.22223 0
M  V30 3481 H 349.375 3.46696 -4.89818 0
M  V30 3482 H 350.445 2.16983 -4.33643 0
M  V30 3483 N 351.788 1.33704 0.83433 0
M  V30 3484 C 352.735 1.24335 1.94447 0
M  V30 3485 C 353.705 0.120991 1.65659 0
M  V30 3486 O 354.89 0.300035 1.88426 0
M  V30 3487 C 352.03 0.993124 3.30501 0
M  V30 3488 C 351.143 2.20217 3.71657 0
M  V30 3489 C 350.278 1.88572 4.96602 0
M  V30 3490 C 349.317 3.05683 5.30306 0
M  V30 3491 N 348.454 2.73997 6.46429 0
M  V30 3492 H 353.294 2.1928 2.01792 0
M  V30 3493 H 350.831 1.09035 0.987404 0
M  V30 3494 H 352.789 0.828467 4.08892 0
M  V30 3495 H 351.419 0.0803902 3.227 0
M  V30 3496 H 350.471 2.47642 2.88752 0
M  V30 3497 H 351.783 3.07752 3.92543 0
M  V30 3498 H 350.937 1.68776 5.82752 0
M  V30 3499 H 349.676 0.982799 4.77695 0
M  V30 3500 H 348.681 3.26088 4.42659 0
M  V30 3501 H 349.906 3.96737 5.51159 0
M  V30 3502 H 347.852 1.86268 6.28999 0
M  V30 3503 H 347.769 3.55064 6.67432 0
M  V30 3504 H 349.037 2.57679 7.35678 0
M  V30 3505 N 353.266 -1.05314 1.17247 0
M  V30 3506 C 354.198 -2.13023 0.845812 0
M  V30 3507 C 355.211 -1.62096 -0.151246 0
M  V30 3508 O 356.4 -1.78343 0.0748818 0
M  V30 3509 C 353.5 -3.38047 0.240292 0
M  V30 3510 C 352.673 -4.18255 1.27991 0
M  V30 3511 C 351.732 -5.21625 0.692375 0
M  V30 3512 O 350.758 -5.52619 1.36385 0
M  V30 3513 N 351.96 -5.78201 -0.516178 0
M  V30 3514 H 354.725 -2.41642 1.77283 0
M  V30 3515 H 352.286 -1.21401 1.07115 0
M  V30 3516 H 354.278 -4.04359 -0.16603 0
M  V30 3517 H 352.848 -3.06972 -0.590487 0
M  V30 3518 H 352.068 -3.47451 1.86203 0
M  V30 3519 H 353.356 -4.68643 1.98119 0
M  V30 3520 H 352.754 -5.55301 -1.07969 0
M  V30 3521 H 351.311 -6.4604 -0.86458 0
M  V30 3522 N 354.744 -0.972509 -1.24016 0
M  V30 3523 C 355.972 -0.654803 -1.96265 0
M  V30 3524 C 356.387 0.776708 -1.72083 0
M  V30 3525 O 355.744 1.52171 -1.00748 0
M  V30 3526 C 355.795 -0.92592 -3.49441 0
M  V30 3527 O 355.516 -2.30116 -3.72798 0
M  V30 3528 C 357.017 -0.623068 -4.38899 0
M  V30 3529 H 354.237 -0.243907 -0.6251 0
M  V30 3530 H 356.781 -1.30175 -1.57717 0
M  V30 3531 H 354.936 -0.325108 -3.86033 0
M  V30 3532 H 355.35 -2.38483 -4.67147 0
M  V30 3533 H 356.824 -0.863189 -5.45209 0
M  V30 3534 H 357.301 0.442754 -4.36963 0
M  V30 3535 H 357.907 -1.204 -4.07902 0
M  V30 3536 N 356.222 1.38976 -0.743202 0
M  V30 3537 C 357.638 1.53984 -0.419664 0
M  V30 3538 C 357.838 1.70837 1.0685 0
M  V30 3539 O 356.894 1.7135 1.8546 0
M  V30 3540 C 358.207 2.75287 -1.20985 0
M  V30 3541 C 359.755 2.89129 -1.19889 0
M  V30 3542 C 360.23 4.13381 -1.97181 0
M  V30 3543 N 361.721 4.20437 -1.94389 0
M  V30 3544 C 362.456 5.15547 -2.50996 0
M  V30 3545 N 361.952 6.16395 -3.16274 0
M  V30 3546 N 363.745 5.07822 -2.40984 0
M  V30 3547 H 355.896 1.26285 -1.7078 0
M  V30 3548 H 358.159 0.612689 -0.723406 0
M  V30 3549 H 357.865 2.69204 -2.26323 0
M  V30 3550 H 357.739 3.68184 -0.819759 0
M  V30 3551 H 360.126 2.947 -0.153606 0
M  V30 3552 H 360.207 1.97272 -1.62841 0
M  V30 3553 H 359.851 4.08572 -3.01714 0
M  V30 3554 H 359.781 5.04298 -1.51629 0
M  V30 3555 H 362.272 3.48205 -1.46839 0
M  V30 3556 H 362.585 6.85443 -3.56915 0
M  V30 3557 H 360.93 6.16758 -3.20367 0
M  V30 3558 H 364.121 4.27973 -1.89622 0
M  V30 3559 H 364.294 5.81767 -2.85397 0
M  V30 3560 N 357.7 0.491464 1.49741 0
M  V30 3561 C 358.63 -0.28154 2.31796 0
M  V30 3562 C 359.611 -0.971473 1.3963 0
M  V30 3563 O 360.796 -0.964719 1.68543 0
M  V30 3564 C 357.926 -1.35203 3.19902 0
M  V30 3565 C 356.88 -0.782529 4.20786 0
M  V30 3566 C 356.206 -1.95283 4.97764 0
M  V30 3567 C 357.506 0.21999 5.21837 0
M  V30 3568 H 359.2 0.403355 2.96671 0
M  V30 3569 H 356.746 0.195425 1.42668 0
M  V30 3570 H 358.699 -1.90045 3.76113 0
M  V30 3571 H 357.423 -2.06598 2.52953 0
M  V30 3572 H 356.082 -0.255928 3.65706 0
M  V30 3573 H 355.73 -2.65423 4.2727 0
M  V30 3574 H 355.43 -1.57789 5.66018 0
M  V30 3575 H 356.954 -2.50577 5.56816 0
M  V30 3576 H 358.368 -0.23996 5.72798 0
M  V30 3577 H 356.765 0.51026 5.97927 0
M  V30 3578 H 357.835 1.13911 4.7133 0
M  V30 3579 N 359.178 -1.55987 0.224894 0
M  V30 3580 C 360.418 -2.00293 -0.407706 0
M  V30 3581 C 360.782 -1.1093 -1.56711 0
M  V30 3582 O 361.983 -1.44597 -2.26595 0
M  V30 3583 C 360.254 -3.47675 -0.82805 0
M  V30 3584 S 361.813 -4.14 -1.45429 0
M  V30 3585 H 358.631 -0.699152 -0.129256 0
M  V30 3586 H 361.233 -1.92609 0.334967 0
M  V30 3587 H 359.937 -4.10392 0.0253964 0
M  V30 3588 H 359.468 -3.59239 -1.60345 0
M  V30 3589 H 361.483 -4.13465 -2.74337 0
M  V30 3590 N 360.656 0.0484629 -1.57525 0
M  V30 3591 C 361.589 1.08755 -2.00618 0
M  V30 3592 C 362.567 1.36272 -0.887058 0
M  V30 3593 O 363.751 1.49255 -1.15131 0
M  V30 3594 C 360.878 2.42675 -2.36277 0
M  V30 3595 C 359.924 2.31142 -3.58435 0
M  V30 3596 S 360.757 1.68326 -5.08357 0
M  V30 3597 C 361.913 3.03776 -5.47239 0
M  V30 3598 H 362.146 0.720415 -2.88439 0
M  V30 3599 H 359.679 0.257801 -1.52233 0
M  V30 3600 H 361.637 3.19699 -2.57494 0
M  V30 3601 H 360.298 2.76541 -1.48942 0
M  V30 3602 H 359.491 3.29957 -3.80978 0
M  V30 3603 H 359.093 1.62258 -3.36969 0
M  V30 3604 H 361.385 4.00106 -5.46737 0
M  V30 3605 H 362.328 2.85988 -6.47778 0
M  V30 3606 H 362.736 3.05456 -4.74718 0
M  V30 3607 N 362.134 1.5431 0.320358 0
M  V30 3608 C 363.38 1.72924 1.05949 0
M  V30 3609 C 363.713 0.503185 1.87568 0
M  V30 3610 O 362.988 -0.499839 1.87968 0
M  V30 3611 C 363.271 3.00676 1.98156 0
M  V30 3612 C 363.124 4.3354 1.19845 0
M  V30 3613 C 364.443 3.24198 2.9763 0
M  V30 3614 H 361.562 0.629195 0.383774 0
M  V30 3615 H 364.204 1.87008 0.335854 0
M  V30 3616 H 362.354 2.888 2.59859 0
M  V30 3617 H 364.026 4.57305 0.605773 0
M  V30 3618 H 362.269 4.309 0.500784 0
M  V30 3619 H 362.94 5.19156 1.87567 0
M  V30 3620 H 365.416 3.35557 2.4605 0
M  V30 3621 H 364.292 4.14938 3.59329 0
M  V30 3622 H 364.553 2.41577 3.7026 0
M  V30 3623 N 363.613 -0.582584 1.46437 0
M  V30 3624 C 365.029 -0.905962 1.31394 0
M  V30 3625 C 365.229 -1.99468 0.285476 0
M  V30 3626 O 364.285 -2.50566 -0.311914 0
M  V30 3627 C 365.598 -1.3232 2.70022 0
M  V30 3628 C 367.146 -1.43604 2.78113 0
M  V30 3629 C 367.621 -1.88694 4.17323 0
M  V30 3630 N 369.112 -1.95887 4.19741 0
M  V30 3631 C 369.847 -2.32051 5.24347 0
M  V30 3632 N 369.343 -2.67006 6.39281 0
M  V30 3633 N 371.136 -2.32606 5.11713 0
M  V30 3634 H 363.287 0.1366 2.1196 0
M  V30 3635 H 365.55 -0.00155736 0.947999 0
M  V30 3636 H 365.256 -0.597242 3.46592 0
M  V30 3637 H 365.13 -2.28469 3.00136 0
M  V30 3638 H 367.517 -2.15286 2.01832 0
M  V30 3639 H 367.598 -0.457059 2.51684 0
M  V30 3640 H 367.242 -1.1759 4.941 0
M  V30 3641 H 367.172 -2.8755 4.4116 0
M  V30 3642 H 369.663 -1.71362 3.36814 0
M  V30 3643 H 369.976 -2.93554 7.14875 0
M  V30 3644 H 368.321 -2.64644 6.42642 0
M  V30 3645 H 371.512 -2.04721 4.2096 0
M  V30 3646 H 371.685 -2.60462 5.93349 0
M  V30 3647 N 365.091 -1.34144 -0.827227 0
M  V30 3648 C 366.502 -1.23557 -1.39966 0
M  V30 3649 C 366.853 0.140731 -1.95695 0
M  V30 3650 O 365.978 1.04087 -1.89723 0
M  V30 3651 C 366.573 -2.23708 -2.54441 0
M  V30 3652 C 365.132 -2.16924 -3.07605 0
M  V30 3653 C 364.279 -2.10549 -1.80456 0
M  V30 3654 H 367.23 -1.45573 -0.631991 0
M  V30 3655 H 367.251 -1.85157 -3.32411 0
M  V30 3656 H 366.763 -3.23866 -2.13851 0
M  V30 3657 H 364.864 -1.20107 -3.52711 0
M  V30 3658 H 364.977 -3.07988 -3.66988 0
M  V30 3659 H 363.341 -1.56203 -2.01178 0
M  V30 3660 H 364.124 -3.12535 -1.42046 0
M  V30 3661 N 366.569 1.04691 -1.17803 0
M  V30 3662 C 367.809 1.79352 -0.980423 0
M  V30 3663 C 368.173 1.85853 0.481958 0
M  V30 3664 O 369.374 2.56656 0.798809 0
M  V30 3665 C 367.645 3.19088 -1.6099 0
M  V30 3666 S 369.204 4.10164 -1.55918 0
M  V30 3667 H 366.022 0.617631 -0.352211 0
M  V30 3668 H 368.624 1.25575 -1.49837 0
M  V30 3669 H 367.328 3.11962 -2.66661 0
M  V30 3670 H 366.859 3.77941 -1.09197 0
M  V30 3671 H 368.874 4.92907 -0.570685 0
M  V30 3672 N 368.047 0.979072 1.23499 0
M  V30 3673 C 368.957 0.526431 2.28617 0
M  V30 3674 C 369.973 -0.418126 1.68901 0
M  V30 3675 O 371.149 -0.288372 1.99325 0
M  V30 3676 C 368.214 -0.165235 3.46306 0
M  V30 3677 C 367.275 0.82056 4.21385 0
M  V30 3678 C 366.508 0.161807 5.33455 0
M  V30 3679 O 366.731 -1.04742 5.60701 0
M  V30 3680 O 365.665 0.859708 5.95729 0
M  V30 3681 H 369.491 1.4006 2.69475 0
M  V30 3682 H 367.076 0.746643 1.29405 0
M  V30 3683 H 368.958 -0.553287 4.17752 0
M  V30 3684 H 367.633 -1.01419 3.07402 0
M  V30 3685 H 366.54 1.25929 3.52268 0
M  V30 3686 H 367.873 1.63828 4.64135 0
M  V30 3687 N 369.525 -1.3858 0.750561 0
M  V30 3688 C 370.457 -2.29057 0.0810714 0
M  V30 3689 C 371.47 -1.47596 -0.686973 0
M  V30 3690 O 372.659 -1.70495 -0.528563 0
M  V30 3691 C 369.759 -3.26475 -0.909247 0
M  V30 3692 C 368.932 -4.36945 -0.199478 0
M  V30 3693 C 367.991 -5.14572 -1.10011 0
M  V30 3694 O 367.017 -5.66321 -0.57177 0
M  V30 3695 N 368.219 -5.27262 -2.42849 0
M  V30 3696 H 370.984 -2.87153 0.858087 0
M  V30 3697 H 368.545 -1.50328 0.60109 0
M  V30 3698 H 370.537 -3.75285 -1.51471 0
M  V30 3699 H 369.107 -2.69298 -1.58736 0
M  V30 3700 H 368.327 -3.8981 0.586664 0
M  V30 3701 H 369.615 -5.07963 0.291783 0
M  V30 3702 H 369.013 -4.86763 -2.88233 0
M  V30 3703 H 367.57 -5.79456 -2.98453 0
M  V30 3704 N 371.003 -0.499398 -1.49478 0
M  V30 3705 C 371.913 0.284489 -2.32869 0
M  V30 3706 C 372.929 0.968885 -1.44529 0
M  V30 3707 O 374.105 0.95062 -1.77553 0
M  V30 3708 C 371.17 1.33594 -3.19928 0
M  V30 3709 C 370.231 0.665149 -4.24116 0
M  V30 3710 C 369.464 1.6665 -5.07014 0
M  V30 3711 O 369.687 2.89618 -4.91404 0
M  V30 3712 O 368.621 1.22271 -5.8935 0
M  V30 3713 H 372.447 -0.39802 -3.01081 0
M  V30 3714 H 370.032 -0.260758 -1.47107 0
M  V30 3715 H 371.914 1.94431 -3.73864 0
M  V30 3716 H 370.589 2.0014 -2.54412 0
M  V30 3717 H 369.496 0.0170769 -3.74096 0
M  V30 3718 H 370.829 0.0421555 -4.92182 0
M  V30 3719 N 372.481 1.55866 -0.233164 0
M  V30 3720 C 373.892 1.847 0.272554 0
M  V30 3721 C 374.243 1.15477 1.58617 0
M  V30 3722 O 373.368 0.42841 2.12117 0
M  V30 3723 C 373.963 3.35071 0.501299 0
M  V30 3724 C 372.522 3.6418 0.951304 0
M  V30 3725 C 371.669 2.77292 0.0208209 0
M  V30 3726 H 374.62 1.52005 -0.456074 0
M  V30 3727 H 374.641 3.55906 1.34577 0
M  V30 3728 H 374.153 3.85424 -0.454936 0
M  V30 3729 H 372.254 3.19293 1.92049 0
M  V30 3730 H 372.367 4.72071 0.817675 0
M  V30 3731 H 370.731 2.49131 0.529723 0
M  V30 3732 H 371.514 3.30448 -0.93054 0
M  V30 3733 N 373.959 -0.0401083 1.57549 0
M  V30 3734 C 374.869 -1.06133 2.0922 0
M  V30 3735 C 375.885 -1.40356 1.0284 0
M  V30 3736 O 377.061 -1.49897 1.34509 0
M  V30 3737 C 374.126 -2.34658 2.55218 0
M  V30 3738 C 373.187 -2.07117 3.76033 0
M  V30 3739 C 372.42 -3.29514 4.19829 0
M  V30 3740 O 372.643 -4.39794 3.63232 0
M  V30 3741 O 371.577 -3.15863 5.12362 0
M  V30 3742 H 375.403 -0.652244 2.96613 0
M  V30 3743 H 372.988 -0.256368 1.47184 0
M  V30 3744 H 374.87 -3.10239 2.85184 0
M  V30 3745 H 373.545 -2.74883 1.70941 0
M  V30 3746 H 372.452 -1.29139 3.51104 0
M  V30 3747 H 373.785 -1.71754 4.61261 0
M  V30 3748 N 375.437 -1.54477 -0.31217 0
M  V30 3749 C 376.369 -1.81011 -1.40598 0
M  V30 3750 C 377.382 -0.692546 -1.47335 0
M  V30 3751 O 378.571 -0.969847 -1.49854 0
M  V30 3752 C 375.671 -1.92307 -2.79054 0
M  V30 3753 C 374.844 -3.22594 -2.95384 0
M  V30 3754 C 373.903 -3.24448 -4.1427 0
M  V30 3755 O 372.929 -3.98035 -4.06887 0
M  V30 3756 N 374.131 -2.49042 -5.24365 0
M  V30 3757 H 376.896 -2.75408 -1.18196 0
M  V30 3758 H 374.457 -1.53914 -0.502202 0
M  V30 3759 H 376.449 -1.90962 -3.56813 0
M  V30 3760 H 375.019 -1.04955 -2.94454 0
M  V30 3761 H 374.239 -3.36806 -2.04831 0
M  V30 3762 H 375.527 -4.08593 -3.03198 0
M  V30 3763 H 374.925 -1.88867 -5.33241 0
M  V30 3764 H 373.482 -2.53463 -6.005 0
M  V30 3765 N 376.915 0.57481 -1.46744 0
M  V30 3766 C 378.326 1.15695 -1.46532 0
M  V30 3767 C 378.677 1.95068 -0.210425 0
M  V30 3768 O 377.802 2.05241 0.685944 0
M  V30 3769 C 378.397 2.1048 -2.65487 0
M  V30 3770 C 376.956 2.64002 -2.68291 0
M  V30 3771 C 376.103 1.40026 -2.39349 0
M  V30 3772 H 379.054 0.362325 -1.54509 0
M  V30 3773 H 379.075 2.94074 -2.41455 0
M  V30 3774 H 378.587 1.52683 -3.56805 0
M  V30 3775 H 376.688 3.25646 -1.81067 0
M  V30 3776 H 376.801 3.06197 -3.68483 0
M  V30 3777 H 375.165 1.70106 -1.89568 0
M  V30 3778 H 375.948 0.840485 -3.32852 0
M  V30 3779 N 378.394 1.34581 0.820102 0
M  V30 3780 C 379.622 1.3018 1.60813 0
M  V30 3781 C 380.037 -0.123551 1.88395 0
M  V30 3782 O 379.394 -1.07148 1.47735 0
M  V30 3783 C 379.445 2.09312 2.94739 0
M  V30 3784 O 379.166 3.46288 2.68358 0
M  V30 3785 C 380.667 2.1234 3.89136 0
M  V30 3786 H 377.887 0.447726 0.499782 0
M  V30 3787 H 380.431 1.77237 1.02017 0
M  V30 3788 H 378.586 1.65889 3.50085 0
M  V30 3789 H 379 3.87227 3.53774 0
M  V30 3790 H 380.474 2.72126 4.80262 0
M  V30 3791 H 380.951 1.11854 4.24718 0
M  V30 3792 H 381.557 2.55864 3.39726 0
M  V30 3793 N 379.872 -1.04064 1.18357 0
M  V30 3794 C 381.149 -1.74252 0.888581 0
M  V30 3795 C 381.529 -2.02138 -0.60856 0
M  V30 3796 O 380.877 -1.66656 -1.56327 0
M  V30 3797 C 381.087 -3.0277 1.73584 0
M  V30 3798 C 382.435 -3.76506 1.96286 0
M  V30 3799 O 383.459 -3.12668 1.70637 0
M  V30 3800 O 382.318 -4.91243 2.39464 0
M  V30 3801 H 379.412 -0.758271 0.330082 0
M  V30 3802 H 381.958 -1.1013 1.2911 0
M  V30 3803 H 380.73 -2.78299 2.75073 0
M  V30 3804 H 380.353 -3.74631 1.33183 0
M  V30 3805 N 381.35 -0.985608 -1.22978 0
M  V30 3806 C 382.297 -0.529825 -2.24636 0
M  V30 3807 C 383.267 0.434028 -1.60329 0
M  V30 3808 O 384.452 0.340414 -1.87739 0
M  V30 3809 C 381.592 0.156533 -3.44745 0
M  V30 3810 C 380.705 -0.848197 -4.23591 0
M  V30 3811 C 379.84 -0.136109 -5.31026 0
M  V30 3812 C 378.879 -1.1297 -6.01585 0
M  V30 3813 N 378.016 -0.446415 -7.00679 0
M  V30 3814 H 382.856 -1.40148 -2.62988 0
M  V30 3815 H 380.393 -0.702168 -1.29259 0
M  V30 3816 H 382.351 0.571324 -4.1327 0
M  V30 3817 H 380.981 0.992025 -3.07179 0
M  V30 3818 H 380.033 -1.38135 -3.54433 0
M  V30 3819 H 381.345 -1.60512 -4.72268 0
M  V30 3820 H 380.499 0.335784 -6.0577 0
M  V30 3821 H 379.238 0.653373 -4.83304 0
M  V30 3822 H 378.243 -1.6123 -5.25628 0
M  V30 3823 H 379.468 -1.91993 -6.51395 0
M  V30 3824 H 377.414 0.323763 -6.55201 0
M  V30 3825 H 377.331 -1.1419 -7.47326 0
M  V30 3826 H 378.599 0.00291697 -7.795 0
M  V30 3827 N 382.828 1.3818 -0.7579 0
M  V30 3828 C 383.775 2.30416 -0.133057 0
M  V30 3829 C 384.745 1.50398 0.704957 0
M  V30 3830 O 385.93 1.79014 0.660192 0
M  V30 3831 C 383.07 3.36834 0.750813 0
M  V30 3832 C 382.183 4.31879 -0.102297 0
M  V30 3833 C 381.318 5.25368 0.784979 0
M  V30 3834 C 380.357 6.12058 -0.0715046 0
M  V30 3835 N 379.494 6.97832 0.772972 0
M  V30 3836 H 384.334 2.83274 -0.925186 0
M  V30 3837 H 381.871 1.39461 -0.467866 0
M  V30 3838 H 383.829 3.97145 1.27794 0
M  V30 3839 H 382.459 2.85374 1.50868 0
M  V30 3840 H 381.511 3.72991 -0.747095 0
M  V30 3841 H 382.823 4.92921 -0.763552 0
M  V30 3842 H 381.977 5.90818 1.37911 0
M  V30 3843 H 380.716 4.64703 1.47996 0
M  V30 3844 H 379.721 5.456 -0.678272 0
M  V30 3845 H 380.946 6.74793 -0.763606 0
M  V30 3846 H 378.892 6.3971 1.45282 0
M  V30 3847 H 378.809 7.55812 0.168709 0
M  V30 3848 H 380.077 7.67687 1.35194 0
M  V30 3849 N 384.306 0.507319 1.49211 0
M  V30 3850 C 385.554 -0.0348839 2.0207 0
M  V30 3851 C 385.875 -1.36898 1.38866 0
M  V30 3852 O 385.145 -1.88133 0.546151 0
M  V30 3853 H 383.725 -0.0158812 0.746831 0
M  V30 3854 H 386.387 0.665998 1.83168 0
M  V30 3855 H 385.483 -0.159917 3.1169 0
M  V30 3856 N 385.784 -1.5574 0.241426 0
M  V30 3857 C 386.731 -2.21149 -0.660432 0
M  V30 3858 C 387.701 -1.17356 -1.17545 0
M  V30 3859 O 388.886 -1.45784 -1.23093 0
M  V30 3860 C 386.026 -2.91059 -1.85414 0
M  V30 3861 C 385.139 -4.09495 -1.37616 0
M  V30 3862 C 384.274 -4.67135 -2.529 0
M  V30 3863 C 383.313 -5.77831 -2.01936 0
M  V30 3864 N 382.45 -6.29677 -3.10566 0
M  V30 3865 H 387.29 -2.97845 -0.095955 0
M  V30 3866 H 384.827 -1.47057 -0.0356024 0
M  V30 3867 H 386.785 -3.29788 -2.5553 0
M  V30 3868 H 385.415 -2.16846 -2.39118 0
M  V30 3869 H 384.467 -3.76117 -0.569235 0
M  V30 3870 H 385.779 -4.89423 -0.962618 0
M  V30 3871 H 384.933 -5.08409 -3.31067 0
M  V30 3872 H 383.672 -3.86411 -2.97553 0
M  V30 3873 H 382.677 -5.36039 -1.22238 0
M  V30 3874 H 383.902 -6.60402 -1.58259 0
M  V30 3875 H 381.848 -5.5186 -3.54664 0
M  V30 3876 H 381.765 -7.04783 -2.73526 0
M  V30 3877 H 383.033 -6.75609 -3.88809 0
M  V30 3878 N 387.262 0.0317525 -1.57568 0
M  V30 3879 C 388.209 1.0332 -2.06382 0
M  V30 3880 C 389.179 1.36082 -0.952414 0
M  V30 3881 O 390.364 1.46466 -1.2228 0
M  V30 3882 C 387.504 2.32989 -2.54578 0
M  V30 3883 C 386.617 2.0641 -3.79498 0
M  V30 3884 C 385.752 3.2993 -4.16317 0
M  V30 3885 C 384.791 2.98893 -5.34162 0
M  V30 3886 N 383.928 4.14857 -5.66426 0
M  V30 3887 H 388.768 0.609982 -2.9169 0
M  V30 3888 H 386.305 0.289573 -1.44222 0
M  V30 3889 H 388.263 3.0875 -2.80587 0
M  V30 3890 H 386.893 2.73039 -1.7219 0
M  V30 3891 H 385.945 1.21158 -3.6059 0
M  V30 3892 H 387.257 1.79513 -4.65378 0
M  V30 3893 H 386.411 4.1406 -4.4344 0
M  V30 3894 H 385.15 3.59938 -3.29083 0
M  V30 3895 H 384.155 2.13164 -5.06795 0
M  V30 3896 H 385.38 2.70165 -6.23047 0
M  V30 3897 H 383.326 4.44821 -4.82151 0
M  V30 3898 H 383.243 3.91374 -6.4681 0
M  V30 3899 H 384.511 4.99868 -5.98124 0
M  V30 3900 N 388.74 1.54641 0.303973 0
M  V30 3901 C 389.98 1.75516 1.04755 0
M  V30 3902 C 390.344 0.528211 1.84591 0
M  V30 3903 O 391.545 0.614645 2.61678 0
M  V30 3904 C 389.816 3.00685 1.93193 0
M  V30 3905 S 391.375 3.42549 2.74237 0
M  V30 3906 H 388.193 0.616987 0.353339 0
M  V30 3907 H 390.795 1.92842 0.321292 0
M  V30 3908 H 389.499 3.8811 1.33411 0
M  V30 3909 H 389.03 2.85937 2.70191 0
M  V30 3910 H 391.045 2.99386 3.95705 0
M  V30 3911 N 390.218 -0.567019 1.47046 0
M  V30 3912 C 391.148 -1.68482 1.61667 0
M  V30 3913 C 392.129 -1.6358 0.466418 0
M  V30 3914 O 393.314 -1.81354 0.694574 0
M  V30 3915 C 390.444 -3.07124 1.62148 0
M  V30 3916 C 389.398 -3.26867 2.76301 0
M  V30 3917 C 388.724 -4.66196 2.61849 0
M  V30 3918 C 390.024 -3.13186 4.17986 0
M  V30 3919 H 391.718 -1.56502 2.5524 0
M  V30 3920 H 389.264 -0.751486 1.22836 0
M  V30 3921 H 391.217 -3.8516 1.70968 0
M  V30 3922 H 389.941 -3.2004 0.651287 0
M  V30 3923 H 388.6 -2.51237 2.66975 0
M  V30 3924 H 388.248 -4.75898 1.62879 0
M  V30 3925 H 387.948 -4.80356 3.38425 0
M  V30 3926 H 389.472 -5.46379 2.72584 0
M  V30 3927 H 390.886 -3.81049 4.2834 0
M  V30 3928 H 389.283 -3.3886 4.95272 0
M  V30 3929 H 390.353 -2.10057 4.3704 0
M  V30 3930 N 391.696 -1.35014 -0.812953 0
M  V30 3931 C 393.112 -1.14914 -1.10757 0
M  V30 3932 C 393.312 0.0426818 -2.01455 0
M  V30 3933 O 392.368 0.715212 -2.42159 0
M  V30 3934 C 393.681 -2.44911 -1.74468 0
M  V30 3935 C 395.229 -2.5106 -1.86917 0
M  V30 3936 C 395.704 -3.81085 -2.54044 0
M  V30 3937 N 397.195 -3.82301 -2.61535 0
M  V30 3938 C 397.93 -4.79634 -3.14227 0
M  V30 3939 N 397.426 -5.87353 -3.67407 0
M  V30 3940 N 399.219 -4.67078 -3.12721 0
M  V30 3941 H 391.37 -2.1136 -0.20989 0
M  V30 3942 H 393.633 -0.935128 -0.155692 0
M  V30 3943 H 393.339 -3.32267 -1.15289 0
M  V30 3944 H 393.213 -2.58989 -2.74234 0
M  V30 3945 H 395.6 -1.64137 -2.45241 0
M  V30 3946 H 395.681 -2.40901 -0.860242 0
M  V30 3947 H 395.325 -4.68402 -1.96372 0
M  V30 3948 H 395.255 -3.88529 -3.55461 0
M  V30 3949 H 397.746 -3.04465 -2.23851 0
M  V30 3950 H 398.059 -6.57624 -4.05894 0
M  V30 3951 H 396.404 -5.91054 -3.65623 0
M  V30 3952 H 399.595 -3.82067 -2.70449 0
M  V30 3953 H 399.768 -5.43098 -3.53481 0
M  V30 3954 N 393.175 1.03435 -1.18907 0
M  V30 3955 C 394.403 1.80381 -1.01342 0
M  V30 3956 C 394.818 1.83649 0.438005 0
M  V30 3957 O 394.175 1.27655 1.30424 0
M  V30 3958 C 394.226 3.25689 -1.56873 0
M  V30 3959 O 393.947 3.22673 -2.96334 0
M  V30 3960 C 395.448 4.19255 -1.44014 0
M  V30 3961 H 392.668 0.56784 -0.35749 0
M  V30 3962 H 395.212 1.30317 -1.576 0
M  V30 3963 H 393.367 3.72962 -1.04777 0
M  V30 3964 H 393.781 4.13748 -3.22355 0
M  V30 3965 H 395.255 5.19123 -1.87657 0
M  V30 3966 H 395.732 4.37467 -0.389815 0
M  V30 3967 H 396.338 3.77851 -1.95214 0
M  V30 3968 N 394.653 0.992116 1.22453 0
M  V30 3969 C 395.6 0.541731 2.24352 0
M  V30 3970 C 396.57 -0.425519 1.60557 0
M  V30 3971 O 397.755 -0.330453 1.87917 0
M  V30 3972 C 394.895 -0.138248 3.44823 0
M  V30 3973 C 394.008 0.870649 4.23136 0
M  V30 3974 C 393.143 0.164269 5.30946 0
M  V30 3975 C 392.182 1.16159 6.00977 0
M  V30 3976 N 391.319 0.483568 7.00433 0
M  V30 3977 H 396.159 1.41541 2.62241 0
M  V30 3978 H 393.696 0.709013 1.28885 0
M  V30 3979 H 395.654 -0.5494 4.13567 0
M  V30 3980 H 394.284 -0.975721 3.077 0
M  V30 3981 H 393.336 1.40013 3.53696 0
M  V30 3982 H 394.648 1.63014 4.7141 0
M  V30 3983 H 393.802 -0.303653 6.0594 0
M  V30 3984 H 392.541 -0.627733 4.83643 0
M  V30 3985 H 391.546 1.64015 5.24766 0
M  V30 3986 H 392.771 1.95445 6.50368 0
M  V30 3987 H 390.717 -0.289012 6.55363 0
M  V30 3988 H 390.634 1.18152 7.4671 0
M  V30 3989 H 391.902 0.0384219 7.79491 0
M  V30 3990 N 396.131 -1.37776 0.765217 0
M  V30 3991 C 397.078 -2.30342 0.145274 0
M  V30 3992 C 398.048 -1.5077 -0.696971 0
M  V30 3993 O 399.233 -1.79362 -0.650689 0
M  V30 3994 C 396.373 -3.37227 -0.732939 0
M  V30 3995 C 395.486 -4.31819 0.125199 0
M  V30 3996 C 394.621 -5.25777 -0.757107 0
M  V30 3997 C 393.66 -6.12012 0.103963 0
M  V30 3998 N 392.797 -6.98232 -0.735953 0
M  V30 3999 H 397.637 -2.8278 0.940195 0
M  V30 4000 H 395.174 -1.39211 0.475255 0
M  V30 4001 H 397.132 -3.97818 -1.25686 0
M  V30 4002 H 395.762 -2.86171 -1.49353 0
M  V30 4003 H 394.814 -3.7259 0.766865 0
M  V30 4004 H 396.126 -4.92509 0.789683 0
M  V30 4005 H 395.28 -5.91541 -1.34776 0
M  V30 4006 H 394.019 -4.65481 -1.45529 0
M  V30 4007 H 393.024 -5.45233 0.707197 0
M  V30 4008 H 394.249 -6.74379 0.799381 0
M  V30 4009 H 392.195 -6.40472 -1.41887 0
M  V30 4010 H 392.112 -7.55891 -0.128624 0
M  V30 4011 H 393.38 -7.68393 -1.31121 0
M  V30 4012 N 397.609 -0.515225 -1.4894 0
M  V30 4013 C 398.834 0.022727 -2.07388 0
M  V30 4014 C 399.259 1.2876 -1.37122 0
M  V30 4015 O 398.617 1.76067 -0.432431 0
M  V30 4016 C 398.665 0.244869 -3.59768 0
M  V30 4017 O 397.769 1.31667 -3.90817 0
M  V30 4018 H 397.11 -0.0325506 -0.663202 0
M  V30 4019 H 399.64 -0.718918 -1.91553 0
M  V30 4020 H 399.65 0.47205 -4.0526 0
M  V30 4021 H 398.325 -0.679194 -4.10317 0
M  V30 4022 H 396.902 1.07331 -3.5712 0
M  V30 4023 N 399.087 1.5561 -0.249682 0
M  V30 4024 C 400.017 2.24477 0.642826 0
M  V30 4025 C 400.998 1.22601 1.17911 0
M  V30 4026 O 402.183 1.5126 1.21795 0
M  V30 4027 C 399.313 2.94638 1.83863 0
M  V30 4028 C 398.267 4.03227 1.435 0
M  V30 4029 C 397.593 4.60828 2.71186 0
M  V30 4030 C 398.893 5.18796 0.604002 0
M  V30 4031 H 400.587 2.99321 0.0685625 0
M  V30 4032 H 398.133 1.43965 0.0315363 0
M  V30 4033 H 400.086 3.41517 2.46868 0
M  V30 4034 H 398.81 2.17287 2.43832 0
M  V30 4035 H 397.469 3.57121 0.828275 0
M  V30 4036 H 397.117 3.80174 3.29358 0
M  V30 4037 H 396.817 5.34132 2.44901 0
M  V30 4038 H 398.341 5.10442 3.35084 0
M  V30 4039 H 399.755 5.61883 1.13842 0
M  V30 4040 H 398.152 5.98506 0.437097 0
M  V30 4041 H 399.222 4.83384 -0.383147 0
M  V30 4042 N 400.565 -0.0233959 1.57583 0
M  V30 4043 C 401.512 -1.02224 2.06927 0
M  V30 4044 C 402.482 -1.35575 0.959617 0
M  V30 4045 O 403.667 -1.45815 1.23055 0
M  V30 4046 C 400.807 -2.31636 2.5581 0
M  V30 4047 C 399.92 -2.04394 3.80588 0
M  V30 4048 C 399.055 -3.27717 4.18061 0
M  V30 4049 C 398.094 -2.96056 5.3574 0
M  V30 4050 N 397.231 -4.11847 5.68618 0
M  V30 4051 H 402.071 -0.594504 2.9201 0
M  V30 4052 H 399.608 -0.281921 1.44373 0
M  V30 4053 H 401.566 -3.07258 2.82221 0
M  V30 4054 H 400.196 -2.72122 1.73636 0
M  V30 4055 H 399.248 -1.19244 3.61227 0
M  V30 4056 H 400.56 -1.77042 4.66323 0
M  V30 4057 H 399.714 -4.11702 4.4563 0
M  V30 4058 H 398.453 -3.58188 3.30988 0
M  V30 4059 H 397.458 -2.10474 5.07918 0
M  V30 4060 H 398.683 -2.66857 6.24471 0
M  V30 4061 H 396.629 -4.42258 4.84504 0
M  V30 4062 H 396.546 -3.87938 6.48876 0
M  V30 4063 H 397.814 -4.96689 6.00766 0
M  V30 4064 N 402.043 -1.548 -0.295768 0
M  V30 4065 C 403.006 -1.85363 -1.34808 0
M  V30 4066 C 404.006 -0.726817 -1.43436 0
M  V30 4067 O 405.196 -0.995088 -1.42981 0
M  V30 4068 C 402.328 -2.03859 -2.73229 0
M  V30 4069 H 403.521 -2.7941 -1.08949 0
M  V30 4070 H 401.074 -1.46942 -0.532702 0
M  V30 4071 H 401.809 -1.12117 -3.04303 0
M  V30 4072 H 401.594 -2.8588 -2.68356 0
M  V30 4073 H 403.084 -2.28857 -3.49305 0
M  V30 4074 N 403.521 0.559213 -1.47345 0
M  V30 4075 C 404.77 1.31281 -1.53128 0
M  V30 4076 C 405.083 1.94602 -0.197344 0
M  V30 4077 O 406.289 2.71173 -0.133154 0
M  V30 4078 C 404.745 2.38051 -2.69925 0
M  V30 4079 C 404.353 1.8093 -4.0984 0
M  V30 4080 C 406.097 3.14604 -2.84999 0
M  V30 4081 C 404.004 2.85468 -5.1794 0
M  V30 4082 H 402.934 0.493614 -0.569966 0
M  V30 4083 H 405.585 0.594155 -1.73615 0
M  V30 4084 H 403.967 3.12822 -2.42814 0
M  V30 4085 H 405.141 1.12544 -4.46845 0
M  V30 4086 H 403.456 1.16967 -3.99634 0
M  V30 4087 H 406.053 3.92666 -3.62929 0
M  V30 4088 H 406.396 3.68665 -1.93369 0
M  V30 4089 H 406.929 2.46945 -3.1187 0
M  V30 4090 H 403.668 2.36264 -6.1144 0
M  V30 4091 H 403.188 3.52269 -4.85455 0
M  V30 4092 H 404.867 3.48996 -5.44803 0
M  V30 4093 N 404.999 1.35443 0.805782 0
M  V30 4094 C 405.949 1.24972 1.90699 0
M  V30 4095 C 406.933 0.144806 1.60247 0
M  V30 4096 O 408.125 0.376102 1.72958 0
M  V30 4097 C 405.254 1.02475 3.27649 0
M  V30 4098 C 404.34 2.17361 3.64164 0
M  V30 4099 N 404.731 3.42591 3.72109 0
M  V30 4100 C 403.029 2.08765 3.94123 0
M  V30 4101 C 403.73 4.18144 4.04389 0
M  V30 4102 N 402.706 3.4691 4.18515 0
M  V30 4103 H 406.508 2.19852 1.95044 0
M  V30 4104 H 404.022 1.27928 1.00041 0
M  V30 4105 H 406.019 0.930617 4.06381 0
M  V30 4106 H 404.679 0.0848009 3.24589 0
M  V30 4107 H 405.69 3.76932 3.55166 0
M  V30 4108 H 402.367 1.22629 3.99084 0
M  V30 4109 H 403.757 5.26367 4.17597 0
M  V30 4110 N 406.477 -1.02803 1.19454 0
M  V30 4111 C 407.407 -2.12999 0.956758 0
M  V30 4112 C 408.388 -1.69743 -0.110188 0
M  V30 4113 O 409.573 -1.94148 0.0450038 0
M  V30 4114 C 406.703 -3.43746 0.495553 0
M  V30 4115 C 405.657 -4.00688 1.50443 0
M  V30 4116 C 404.983 -5.27067 0.900275 0
M  V30 4117 C 406.283 -4.35397 2.8849 0
M  V30 4118 H 407.977 -2.33148 1.87836 0
M  V30 4119 H 405.523 -1.12045 0.904539 0
M  V30 4120 H 407.476 -4.2021 0.316493 0
M  V30 4121 H 406.2 -3.23321 -0.461646 0
M  V30 4122 H 404.859 -3.2632 1.67065 0
M  V30 4123 H 404.507 -5.02959 -0.064503 0
M  V30 4124 H 404.207 -5.66127 1.57397 0
M  V30 4125 H 405.731 -6.06196 0.73203 0
M  V30 4126 H 407.145 -5.02795 2.75446 0
M  V30 4127 H 405.542 -4.85541 3.52661 0
M  V30 4128 H 406.612 -3.44662 3.41081 0
M  V30 4129 N 407.956 -0.998596 -1.21925 0
M  V30 4130 C 408.888 -0.511879 -2.23411 0
M  V30 4131 C 409.901 0.396094 -1.57908 0
M  V30 4132 O 411.09 0.197316 -1.77406 0
M  V30 4133 C 408.19 0.276802 -3.37768 0
M  V30 4134 C 407.363 -0.628687 -4.32858 0
M  V30 4135 C 406.422 0.109272 -5.26087 0
M  V30 4136 O 405.448 -0.507237 -5.66935 0
M  V30 4137 N 406.65 1.38983 -5.63617 0
M  V30 4138 H 409.415 -1.38457 -2.658 0
M  V30 4139 H 406.976 -0.873981 -1.36283 0
M  V30 4140 H 408.968 0.77928 -3.97126 0
M  V30 4141 H 407.538 1.05063 -2.94415 0
M  V30 4142 H 406.758 -1.31175 -3.71735 0
M  V30 4143 H 408.046 -1.24514 -4.93329 0
M  V30 4144 H 407.444 1.91194 -5.32411 0
M  V30 4145 H 406.001 1.83739 -6.25367 0
M  V30 4146 N 409.434 1.37368 -0.772513 0
M  V30 4147 C 410.681 1.99673 -0.337182 0
M  V30 4148 C 411.009 1.61324 1.0865 0
M  V30 4149 O 410.264 0.851377 1.7621 0
M  V30 4150 C 410.563 3.54817 -0.428876 0
M  V30 4151 C 410.229 4.12936 -1.81092 0
M  V30 4152 C 408.891 4.28523 -2.1891 0
M  V30 4153 C 411.243 4.44801 -2.71664 0
M  V30 4154 C 408.571 4.73277 -3.46735 0
M  V30 4155 C 410.923 4.90981 -3.98899 0
M  V30 4156 C 409.587 5.04773 -4.36761 0
M  V30 4157 H 408.857 0.730656 -0.123384 0
M  V30 4158 H 411.504 1.64124 -0.986686 0
M  V30 4159 H 409.809 3.90618 0.304167 0
M  V30 4160 H 411.506 4.00933 -0.0733334 0
M  V30 4161 H 408.096 4.01233 -1.50699 0
M  V30 4162 H 412.28 4.32344 -2.43706 0
M  V30 4163 H 407.536 4.82142 -3.75964 0
M  V30 4164 H 411.71 5.14603 -4.69208 0
M  V30 4165 H 409.337 5.39211 -5.35868 0
M  V30 4166 N 410.912 0.523116 1.48665 0
M  V30 4167 C 411.859 -0.243398 2.29513 0
M  V30 4168 C 412.829 -0.940139 1.36933 0
M  V30 4169 O 414.014 -0.942503 1.65896 0
M  V30 4170 C 411.154 -1.28855 3.20141 0
M  V30 4171 C 410.267 -0.60135 4.27794 0
M  V30 4172 C 409.402 -1.62884 5.05611 0
M  V30 4173 C 408.441 -0.924726 6.05075 0
M  V30 4174 N 407.578 -1.89744 6.75975 0
M  V30 4175 H 412.418 0.452234 2.94549 0
M  V30 4176 H 409.955 0.234858 1.45213 0
M  V30 4177 H 411.913 -1.90674 3.71079 0
M  V30 4178 H 410.543 -1.95266 2.57043 0
M  V30 4179 H 409.595 0.130623 3.80176 0
M  V30 4180 H 410.907 -0.0481585 4.98777 0
M  V30 4181 H 410.061 -2.32149 5.60528 0
M  V30 4182 H 408.8 -2.21592 4.34452 0
M  V30 4183 H 407.805 -0.217966 5.49368 0
M  V30 4184 H 409.03 -0.343851 6.78229 0
M  V30 4185 H 406.976 -2.47373 6.07571 0
M  V30 4186 H 406.893 -1.3955 7.43009 0
M  V30 4187 H 408.161 -2.58229 7.35485 0
M  V30 4188 N 412.39 -1.55475 0.257931 0
M  V30 4189 C 413.338 -2.23244 -0.653076 0
M  V30 4190 C 414.332 -1.22366 -1.17144 0
M  V30 4191 O 415.538 -1.40347 -1.12706 0
M  V30 4192 H 411.913 -0.716247 -0.229117 0
M  V30 4193 H 413.884 -2.98343 -0.0584788 0
M  V30 4194 C 412.633 -2.95401 -1.83395 0
M  V30 4195 H 411.956 -3.72802 -1.44424 0
M  V30 4196 H 413.396 -3.46165 -2.44838 0
M  V30 4197 C 411.855 -1.99895 -2.71189 0
M  V30 4198 O 412.385 -1.53909 -3.71046 0
M  V30 4199 N 410.591 -1.6676 -2.3799 0
M  V30 4200 H 410.138 -2.04352 -1.56837 0
M  V30 4201 H 410.096 -1.03127 -2.97005 0
M  V30 4202 N 413.868 0.0150385 -1.57593 0
M  V30 4203 C 415.108 0.70768 -1.91758 0
M  V30 4204 C 415.472 1.71764 -0.857974 0
M  V30 4205 O 416.673 2.45956 -1.0844 0
M  V30 4206 C 414.944 1.34736 -3.3103 0
M  V30 4207 S 416.503 2.06721 -3.87056 0
M  V30 4208 H 413.321 0.234119 -0.671349 0
M  V30 4209 H 415.923 -0.0380373 -1.95463 0
M  V30 4210 H 414.627 0.59926 -4.06001 0
M  V30 4211 H 414.158 2.13133 -3.30663 0
M  V30 4212 H 416.173 3.34047 -3.66915 0
M  V30 4213 N 415.346 1.54954 0.287554 0
M  V30 4214 C 416.574 1.78881 1.03967 0
M  V30 4215 C 416.989 0.554894 1.80462 0
M  V30 4216 O 416.346 -0.475676 1.76192 0
M  V30 4217 C 416.397 3.00488 2.0097 0
M  V30 4218 O 416.118 4.19113 1.27577 0
M  V30 4219 C 417.619 3.36907 2.88112 0
M  V30 4220 H 414.839 0.596259 0.307761 0
M  V30 4221 H 417.383 2.01937 0.322749 0
M  V30 4222 H 415.538 2.79601 2.68145 0
M  V30 4223 H 415.952 4.87765 1.92835 0
M  V30 4224 H 417.426 4.25205 3.52001 0
M  V30 4225 H 417.903 2.55659 3.57121 0
M  V30 4226 H 418.509 3.60001 2.26449 0
M  V30 4227 N 416.824 -0.551391 1.4764 0
M  V30 4228 C 418.049 -1.33837 1.58437 0
M  V30 4229 C 418.474 -1.866 0.237063 0
M  V30 4230 O 417.832 -1.6328 -0.787994 0
M  V30 4231 C 417.88 -2.48014 2.61766 0
M  V30 4232 O 416.984 -3.50419 2.1744 0
M  V30 4233 H 416.325 -0.397299 0.532024 0
M  V30 4234 H 418.855 -0.665759 1.93465 0
M  V30 4235 H 418.865 -2.94503 2.82369 0
M  V30 4236 H 417.54 -2.08969 3.5959 0
M  V30 4237 H 416.117 -3.10196 2.06961 0
M  V30 4238 N 418.302 -1.35869 -0.798587 0
M  V30 4239 C 419.232 -1.32118 -1.92528 0
M  V30 4240 C 420.213 -0.194209 -1.68988 0
M  V30 4241 O 421.398 -0.390426 -1.90235 0
M  V30 4242 C 418.528 -1.10047 -3.29404 0
M  V30 4243 C 417.482 -2.19471 -3.67446 0
M  V30 4244 C 416.808 -1.82555 -5.02571 0
M  V30 4245 C 418.108 -3.61495 -3.76987 0
M  V30 4246 H 419.802 -2.26394 -1.95924 0
M  V30 4247 H 417.348 -1.08981 -0.94123 0
M  V30 4248 H 419.301 -1.06061 -4.07835 0
M  V30 4249 H 418.025 -0.122195 -3.26371 0
M  V30 4250 H 416.684 -2.22568 -2.91306 0
M  V30 4251 H 416.332 -0.833249 -4.9605 0
M  V30 4252 H 416.032 -2.5581 -5.28995 0
M  V30 4253 H 417.556 -1.80108 -5.83432 0
M  V30 4254 H 418.97 -3.60676 -4.4563 0
M  V30 4255 H 417.367 -4.33577 -4.14887 0
M  V30 4256 H 418.437 -3.97065 -2.78329 0
M  V30 4257 N 419.78 1.02168 -1.19998 0
M  V30 4258 C 420.73 2.08969 -0.911921 0
M  V30 4259 C 421.714 1.60404 0.12621 0
M  V30 4260 O 422.906 1.76817 -0.0804706 0
M  V30 4261 C 420.035 3.402 -0.460277 0
M  V30 4262 C 419.121 3.9548 -1.53155 0
M  V30 4263 N 419.512 4.24332 -2.75275 0
M  V30 4264 C 417.81 4.23572 -1.39653 0
M  V30 4265 C 418.511 4.68834 -3.44339 0
M  V30 4266 N 417.487 4.70804 -2.71744 0
M  V30 4267 H 421.289 2.29178 -1.83997 0
M  V30 4268 H 418.803 1.20094 -1.09322 0
M  V30 4269 H 420.8 4.16235 -0.235337 0
M  V30 4270 H 419.46 3.21408 0.4612 0
M  V30 4271 H 420.471 4.13393 -3.11973 0
M  V30 4272 H 417.148 4.14005 -0.539067 0
M  V30 4273 H 418.538 5.00019 -4.4881 0
M  V30 4274 N 421.258 1.00505 1.21394 0
M  V30 4275 C 422.486 0.706609 1.9446 0
M  V30 4276 C 422.901 -0.73081 1.74082 0
M  V30 4277 O 422.258 -1.49446 1.04747 0
M  V30 4278 C 422.309 1.01824 3.46863 0
M  V30 4279 O 422.03 2.39919 3.66566 0
M  V30 4280 C 423.531 0.739216 4.37093 0
M  V30 4281 H 420.751 0.260394 0.618414 0
M  V30 4282 H 423.295 1.34311 1.54211 0
M  V30 4283 H 421.45 0.427343 3.85036 0
M  V30 4284 H 421.864 2.50784 4.6066 0
M  V30 4285 H 423.338 1.00744 5.42729 0
M  V30 4286 H 423.815 -0.326746 4.37983 0
M  V30 4287 H 424.421 1.31173 4.04566 0
M  V30 4288 N 422.737 -1.36956 0.779787 0
M  V30 4289 C 423.967 -2.03459 0.358877 0
M  V30 4290 C 424.375 -1.58939 -1.02641 0
M  V30 4291 O 423.718 -0.769777 -1.66794 0
M  V30 4292 C 423.78 -3.5796 0.332393 0
M  V30 4293 C 423.444 -4.25644 1.66362 0
M  V30 4294 C 424.441 -4.49205 2.61746 0
M  V30 4295 C 422.126 -4.63313 1.94027 0
M  V30 4296 C 424.12 -5.09503 3.82996 0
M  V30 4297 C 421.807 -5.2333 3.15546 0
M  V30 4298 C 422.805 -5.46363 4.0985 0
M  V30 4299 O 422.493 -6.05122 5.29228 0
M  V30 4300 H 422.225 -0.659767 0.147254 0
M  V30 4301 H 424.779 -1.76111 1.05708 0
M  V30 4302 H 423.009 -3.84388 -0.422237 0
M  V30 4303 H 424.698 -4.05852 -0.0625389 0
M  V30 4304 H 425.464 -4.20508 2.41657 0
M  V30 4305 H 421.343 -4.44715 1.21448 0
M  V30 4306 H 424.887 -5.27397 4.56617 0
M  V30 4307 H 420.784 -5.51451 3.35517 0
M  V30 4308 H 421.552 -6.23595 5.30161 0
M  V30 4309 N 424.215 -0.530993 -1.48385 0
M  V30 4310 C 425.162 0.231223 -2.29639 0
M  V30 4311 C 426.132 0.932864 -1.37429 0
M  V30 4312 O 427.317 0.933692 -1.66394 0
M  V30 4313 C 424.457 1.27155 -3.2082 0
M  V30 4314 C 423.57 0.578655 -4.28107 0
M  V30 4315 C 422.705 1.602 -5.06467 0
M  V30 4316 C 421.744 0.892625 -6.05556 0
M  V30 4317 N 420.881 1.86157 -6.76971 0
M  V30 4318 H 425.721 -0.467848 -2.94305 0
M  V30 4319 H 423.258 -0.242556 -1.45086 0
M  V30 4320 H 425.216 1.88703 -3.72085 0
M  V30 4321 H 423.846 1.939 -2.58075 0
M  V30 4322 H 422.898 -0.150782 -3.80101 0
M  V30 4323 H 424.21 0.0217065 -4.98795 0
M  V30 4324 H 423.364 2.29173 -5.61751 0
M  V30 4325 H 422.103 2.19285 -4.35621 0
M  V30 4326 H 421.108 0.188829 -5.49476 0
M  V30 4327 H 422.333 0.307878 -6.78402 0
M  V30 4328 H 420.279 2.44147 -6.08875 0
M  V30 4329 H 420.196 1.35608 -7.43738 0
M  V30 4330 H 421.464 2.54325 -7.36844 0
M  V30 4331 N 425.693 1.55336 -0.266172 0
M  V30 4332 C 427.104 1.85236 0.233315 0
M  V30 4333 C 427.455 1.18816 1.56132 0
M  V30 4334 O 426.58 0.473307 2.11161 0
M  V30 4335 C 427.175 3.36059 0.430113 0
M  V30 4336 C 425.734 3.66116 0.873842 0
M  V30 4337 C 424.881 2.77274 -0.0380016 0
M  V30 4338 H 427.832 1.51004 -0.488214 0
M  V30 4339 H 427.853 3.58681 1.26998 0
M  V30 4340 H 427.365 3.84373 -0.536588 0
M  V30 4341 H 425.466 3.23295 1.85233 0
M  V30 4342 H 425.579 4.73699 0.717358 0
M  V30 4343 H 423.943 2.50198 0.476759 0
M  V30 4344 H 424.726 3.284 -1.00042 0
M  V30 4345 N 427.171 -0.0066808 1.57599 0
M  V30 4346 C 428.587 -0.36267 1.55425 0
M  V30 4347 C 428.787 -1.75209 0.995187 0
M  V30 4348 O 427.843 -2.44616 0.626058 0
M  V30 4349 C 429.156 -0.244017 2.99708 0
M  V30 4350 C 430.704 -0.319451 3.11366 0
M  V30 4351 C 431.179 -0.229998 4.57422 0
M  V30 4352 N 432.67 -0.288105 4.62303 0
M  V30 4353 C 433.405 -0.242127 5.72889 0
M  V30 4354 N 432.901 -0.147133 6.92644 0
M  V30 4355 N 434.694 -0.293502 5.61333 0
M  V30 4356 H 426.845 0.902314 1.92281 0
M  V30 4357 H 429.108 0.34525 0.882896 0
M  V30 4358 H 428.814 0.711678 3.44424 0
M  V30 4359 H 428.688 -1.02877 3.629 0
M  V30 4360 H 431.075 -1.26559 2.66584 0
M  V30 4361 H 431.156 0.495055 2.50964 0
M  V30 4362 H 430.8 0.712566 5.02877 0
M  V30 4363 H 430.73 -1.0629 5.15761 0
M  V30 4364 H 433.221 -0.363126 3.76151 0
M  V30 4365 H 433.534 -0.117763 7.7271 0
M  V30 4366 H 431.879 -0.112857 6.94908 0
M  V30 4367 H 435.07 -0.365864 4.66668 0
M  V30 4368 H 435.243 -0.254204 6.47501 0
M  V30 4369 N 428.649 -1.55105 -0.279332 0
M  V30 4370 C 429.896 -1.75412 -1.01177 0
M  V30 4371 C 430.224 -0.551728 -1.86511 0
M  V30 4372 O 429.479 0.465919 -1.90073 0
M  V30 4373 C 429.778 -3.0086 -1.92919 0
M  V30 4374 C 429.444 -4.33689 -1.23387 0
M  V30 4375 C 428.106 -4.69792 -1.04159 0
M  V30 4376 C 430.458 -5.15941 -0.738562 0
M  V30 4377 C 427.786 -5.85707 -0.341166 0
M  V30 4378 C 430.138 -6.32579 -0.0517636 0
M  V30 4379 C 428.802 -6.67326 0.152292 0
M  V30 4380 H 428.072 -0.641879 -0.370233 0
M  V30 4381 H 430.719 -1.89373 -0.284627 0
M  V30 4382 H 429.024 -2.81773 -2.72234 0
M  V30 4383 H 430.721 -3.13768 -2.49701 0
M  V30 4384 H 427.311 -4.05309 -1.39364 0
M  V30 4385 H 431.495 -4.8853 -0.874764 0
M  V30 4386 H 426.751 -6.11157 -0.172287 0
M  V30 4387 H 430.925 -6.9557 0.339828 0
M  V30 4388 H 428.552 -7.56998 0.697014 0
M  V30 4389 N 430.127 0.543554 -1.4793 0
M  V30 4390 C 431.367 1.31072 -1.56843 0
M  V30 4391 C 431.731 1.90604 -0.231124 0
M  V30 4392 O 432.932 2.68091 -0.195165 0
M  V30 4393 C 431.203 2.38106 -2.66533 0
M  V30 4394 S 432.762 3.24729 -2.95122 0
M  V30 4395 H 429.58 0.446035 -0.553691 0
M  V30 4396 H 432.182 0.620777 -1.85382 0
M  V30 4397 H 430.886 1.92828 -3.62278 0
M  V30 4398 H 430.417 3.11824 -2.39852 0
M  V30 4399 H 432.432 4.37891 -2.3338 0
M  V30 4400 N 431.605 1.3629 0.791371 0
M  V30 4401 C 432.853 1.30154 1.5461 0
M  V30 4402 C 433.174 -0.119409 1.94634 0
M  V30 4403 O 432.444 -1.05924 1.64794 0
M  V30 4404 H 431.024 0.478784 0.573389 0
M  V30 4405 H 433.686 1.70565 0.94306 0
M  V30 4406 H 432.782 1.92762 2.45457 0
M  V30 4407 N 433.083 -1.0153 1.20538 0
M  V30 4408 C 434.329 -1.75408 1.01783 0
M  V30 4409 C 434.662 -1.88943 -0.448814 0
M  V30 4410 O 433.937 -1.4162 -1.33319 0
M  V30 4411 C 434.22 -3.17255 1.70356 0
M  V30 4412 C 434.073 -3.11508 3.24473 0
M  V30 4413 C 435.392 -4.15955 1.43769 0
M  V30 4414 H 432.511 -0.636713 0.371167 0
M  V30 4415 H 435.153 -1.18436 1.4857 0
M  V30 4416 H 433.303 -3.65898 1.30578 0
M  V30 4417 H 434.975 -2.70658 3.73553 0
M  V30 4418 H 433.218 -2.4887 3.55311 0
M  V30 4419 H 433.889 -4.11784 3.67611 0
M  V30 4420 H 436.365 -3.75973 1.7828 0
M  V30 4421 H 435.241 -5.13368 1.94279 0
M  V30 4422 H 435.502 -4.40586 0.365564 0
M  V30 4423 N 434.561 -1.01147 -1.20859 0
M  V30 4424 C 435.801 -0.706331 -1.91808 0
M  V30 4425 C 436.165 0.749736 -1.76757 0
M  V30 4426 O 437.366 1.16716 -2.42138 0
M  V30 4427 C 435.637 -1.12371 -3.39275 0
M  V30 4428 S 437.196 -0.939764 -4.28619 0
M  V30 4429 H 434.014 -0.257665 -0.662669 0
M  V30 4430 H 436.616 -1.29766 -1.46223 0
M  V30 4431 H 435.32 -2.17943 -3.47749 0
M  V30 4432 H 434.851 -0.524952 -3.89882 0
M  V30 4433 H 436.866 0.159556 -4.95943 0
M  V30 4434 N 436.039 1.36541 -0.78704 0
M  V30 4435 C 437.264 2.0409 -0.369053 0
M  V30 4436 C 437.689 1.58957 1.00569 0
M  V30 4437 O 437.047 0.756926 1.64743 0
M  V30 4438 C 437.095 3.57924 -0.438466 0
M  V30 4439 O 436.199 4.08642 0.555479 0
M  V30 4440 H 435.54 0.645142 -0.157122 0
M  V30 4441 H 438.07 1.74545 -1.06749 0
M  V30 4442 H 438.08 4.06887 -0.301218 0
M  V30 4443 H 436.755 3.90127 -1.44132 0
M  V30 4444 H 435.332 3.70958 0.380088 0
M  V30 4445 N 437.518 0.538854 1.48102 0
M  V30 4446 C 438.795 -0.0568108 1.95517 0
M  V30 4447 C 439.175 -1.50408 1.48124 0
M  V30 4448 O 438.523 -2.17133 0.711727 0
M  V30 4449 C 438.733 0.0696262 3.48931 0
M  V30 4450 C 440.081 -0.0851202 4.24515 0
M  V30 4451 O 441.105 -0.0037347 3.562 0
M  V30 4452 O 439.964 -0.257025 5.45895 0
M  V30 4453 H 437.058 -0.0743695 0.823649 0
M  V30 4454 H 439.604 0.604081 1.58584 0
M  V30 4455 H 438.376 1.07744 3.76174 0
M  V30 4456 H 437.999 -0.629714 3.92582 0
M  V30 4457 N 438.996 -1.55193 0.274407 0
M  V30 4458 C 440.244 -1.99187 -0.341902 0
M  V30 4459 C 440.565 -1.16422 -1.56431 0
M  V30 4460 O 439.835 -0.253573 -1.94252 0
M  V30 4461 H 438.415 -0.735721 -0.129317 0
M  V30 4462 H 441.077 -1.91168 0.379578 0
M  V30 4463 H 440.173 -3.05629 -0.632253 0
M  V30 4464 N 440.474 -0.00167713 -1.576 0
M  V30 4465 C 441.89 0.354422 -1.55615 0
M  V30 4466 C 442.09 1.74679 -1.00447 0
M  V30 4467 O 441.146 2.4428 -0.639022 0
M  V30 4468 C 442.459 0.22812 -2.99833 0
M  V30 4469 C 444.007 0.302934 -3.11531 0
M  V30 4470 C 444.482 0.205737 -4.57538 0
M  V30 4471 N 445.973 0.263584 -4.62449 0
M  V30 4472 C 446.708 0.211742 -5.73009 0
M  V30 4473 N 446.204 0.110399 -6.92712 0
M  V30 4474 N 447.997 0.263729 -5.61481 0
M  V30 4475 H 440.148 -0.912498 -1.918 0
M  V30 4476 H 442.411 -0.349928 -0.881053 0
M  V30 4477 H 442.117 -0.729934 -3.44042 0
M  V30 4478 H 441.991 1.00951 -3.6344 0
M  V30 4479 H 444.378 1.25143 -2.67251 0
M  V30 4480 H 444.459 -0.508357 -2.50698 0
M  V30 4481 H 444.103 -0.739225 -5.02492 0
M  V30 4482 H 444.033 1.03554 -5.16318 0
M  V30 4483 H 446.524 0.343173 -3.76339 0
M  V30 4484 H 446.837 0.0767828 -7.72762 0
M  V30 4485 H 445.182 0.0760025 -6.94958 0
M  V30 4486 H 448.373 0.34111 -4.66855 0
M  V30 4487 H 448.546 0.219862 -6.47627 0
M  V30 4488 N 441.952 1.55251 0.271103 0
M  V30 4489 C 443.192 1.77698 1.01008 0
M  V30 4490 C 443.556 0.567246 1.83429 0
M  V30 4491 O 444.757 0.670013 2.60316 0
M  V30 4492 C 443.028 3.04715 1.86772 0
M  V30 4493 S 444.587 3.48289 2.66909 0
M  V30 4494 H 441.405 0.624343 0.340172 0
M  V30 4495 H 444.007 1.9348 0.280315 0
M  V30 4496 H 442.711 3.90853 1.25149 0
M  V30 4497 H 442.242 2.91604 2.64066 0
M  V30 4498 H 444.257 3.07712 3.89266 0
M  V30 4499 N 443.43 -0.535701 1.48216 0
M  V30 4500 C 444.67 -1.30238 1.57536 0
M  V30 4501 C 445.034 -1.90479 0.241229 0
M  V30 4502 O 446.235 -2.67983 0.20938 0
M  V30 4503 C 444.506 -2.3669 2.67792 0
M  V30 4504 S 446.065 -3.23159 2.9684 0
M  V30 4505 H 442.883 -0.443093 0.556048 0
M  V30 4506 H 445.485 -0.610937 1.85709 0
M  V30 4507 H 444.189 -1.90905 3.63296 0
M  V30 4508 H 443.72 -3.10548 2.41502 0
M  V30 4509 H 445.735 -4.36647 2.35699 0
M  V30 4510 N 444.908 -1.36708 -0.784132 0
M  V30 4511 C 446.136 -1.34398 -1.57305 0
M  V30 4512 C 446.551 0.0735577 -1.88657 0
M  V30 4513 O 445.908 1.03193 -1.50524 0
M  V30 4514 C 445.959 -2.17053 -2.89085 0
M  V30 4515 O 445.68 -3.53281 -2.59083 0
M  V30 4516 C 447.181 -2.22583 -3.83369 0
M  V30 4517 H 444.401 -0.460819 -0.487736 0
M  V30 4518 H 446.945 -1.79879 -0.972819 0
M  V30 4519 H 445.1 -1.75113 -3.45564 0
M  V30 4520 H 445.514 -3.9647 -3.43383 0
M  V30 4521 H 446.988 -2.84763 -4.72878 0
M  V30 4522 H 447.465 -1.23075 -4.21603 0
M  V30 4523 H 448.071 -2.64781 -3.32823 0
M  V30 4524 N 446.386 1.0089 -1.21074 0
M  V30 4525 C 447.797 1.56056 -1.02486 0
M  V30 4526 C 448.148 1.91728 0.416506 0
M  V30 4527 O 447.273 1.73066 1.29912 0
M  V30 4528 C 447.868 2.83563 -1.85411 0
M  V30 4529 C 446.427 3.3523 -1.71166 0
M  V30 4530 C 445.574 2.0846 -1.82865 0
M  V30 4531 H 448.525 0.831818 -1.35154 0
M  V30 4532 H 448.546 3.55286 -1.36205 0
M  V30 4533 H 448.058 2.57569 -2.9031 0
M  V30 4534 H 446.159 3.66167 -0.689361 0
M  V30 4535 H 446.272 4.06913 -2.52901 0
M  V30 4536 H 444.636 2.21275 -1.26132 0
M  V30 4537 H 445.419 1.84883 -2.89263 0
M  V30 4538 N 447.864 1.01787 1.20321 0
M  V30 4539 C 448.814 0.559976 2.21016 0
M  V30 4540 C 449.798 -0.385366 1.56217 0
M  V30 4541 O 450.99 -0.208126 1.75772 0
M  V30 4542 C 448.119 -0.0990553 3.43157 0
M  V30 4543 C 447.205 0.86807 4.15121 0
M  V30 4544 N 447.596 2.0261 4.63447 0
M  V30 4545 C 445.894 0.689162 4.40643 0
M  V30 4546 C 446.595 2.63518 5.18588 0
M  V30 4547 N 445.571 1.91569 5.08726 0
M  V30 4548 H 449.373 1.44281 2.56048 0
M  V30 4549 H 446.887 0.883381 1.36272 0
M  V30 4550 H 448.884 -0.444643 4.14522 0
M  V30 4551 H 447.544 -0.977709 3.0963 0
M  V30 4552 H 448.555 2.40598 4.58621 0
M  V30 4553 H 445.232 -0.14133 4.17261 0
M  V30 4554 H 446.622 3.61527 5.66346 0
M  V30 4555 N 449.342 -1.36122 0.79427 0
M  V30 4556 C 450.29 -2.31871 0.184023 0
M  V30 4557 C 451.284 -1.56041 -0.659365 0
M  V30 4558 O 452.49 -1.71266 -0.553906 0
M  V30 4559 H 448.865 -0.750896 0.0407373 0
M  V30 4560 H 450.836 -2.80898 1.00693 0
M  V30 4561 C 449.585 -3.41324 -0.662813 0
M  V30 4562 H 448.908 -3.99793 -0.0231944 0
M  V30 4563 H 450.348 -4.10629 -1.05639 0
M  V30 4564 C 448.807 -2.83308 -1.82313 0
M  V30 4565 O 449.337 -2.75863 -2.91997 0
M  V30 4566 N 447.543 -2.40529 -1.63077 0
M  V30 4567 H 447.09 -2.46785 -0.738591 0
M  V30 4568 H 447.048 -2.02059 -2.40872 0
M  V30 4569 N 450.82 -0.546701 -1.47814 0
M  V30 4570 C 452.048 -0.0232857 -2.06887 0
M  V30 4571 C 452.463 1.26571 -1.4009 0
M  V30 4572 O 451.82 1.7569 -0.493906 0
M  V30 4573 C 451.871 0.186975 -3.61016 0
M  V30 4574 O 451.592 -1.05097 -4.25307 0
M  V30 4575 C 453.093 0.748872 -4.36929 0
M  V30 4576 H 450.313 -0.0410763 -0.669742 0
M  V30 4577 H 452.857 -0.757117 -1.89968 0
M  V30 4578 H 451.012 0.870903 -3.77484 0
M  V30 4579 H 451.426 -0.842121 -5.17695 0
M  V30 4580 H 452.9 0.845334 -5.45489 0
M  V30 4581 H 453.377 1.75772 -4.02493 0
M  V30 4582 H 453.983 0.100979 -4.2518 0
M  V30 4583 N 452.299 1.55045 -0.282633 0
M  V30 4584 C 453.246 2.22822 0.601566 0
M  V30 4585 C 454.216 1.20431 1.14392 0
M  V30 4586 O 455.401 1.48996 1.19184 0
M  V30 4587 C 452.541 2.95873 1.77632 0
M  V30 4588 C 451.654 4.12999 1.26711 0
M  V30 4589 C 450.789 4.73676 2.40426 0
M  V30 4590 C 449.828 5.82981 1.86545 0
M  V30 4591 N 448.965 6.3769 2.93762 0
M  V30 4592 H 453.805 2.97995 0.0169528 0
M  V30 4593 H 451.342 1.471 -0.00339964 0
M  V30 4594 H 453.3 3.36447 2.46697 0
M  V30 4595 H 451.93 2.2311 2.33285 0
M  V30 4596 H 450.982 3.77494 0.469314 0
M  V30 4597 H 452.294 4.91803 0.832518 0
M  V30 4598 H 451.448 5.17008 3.17471 0
M  V30 4599 H 450.187 3.94164 2.87203 0
M  V30 4600 H 449.192 5.39092 1.07983 0
M  V30 4601 H 450.417 6.64366 1.40694 0
M  V30 4602 H 448.363 5.61069 3.39908 0
M  V30 4603 H 448.28 7.11788 2.54744 0
M  V30 4604 H 449.548 6.8568 3.7076 0
M  V30 4605 N 453.777 0.010035 1.57597 0
M  V30 4606 C 455.005 -0.683413 1.95287 0
M  V30 4607 C 455.42 -1.66747 0.885481 0
M  V30 4608 O 454.777 -1.82003 -0.134629 0
M  V30 4609 C 454.828 -1.40652 3.33015 0
M  V30 4610 O 454.549 -0.461916 4.35658 0
M  V30 4611 C 456.05 -2.19356 3.85225 0
M  V30 4612 H 453.27 -0.189708 0.643624 0
M  V30 4613 H 455.814 0.0641359 2.04399 0
M  V30 4614 H 453.969 -2.10562 3.2518 0
M  V30 4615 H 454.383 -0.973215 5.15392 0
M  V30 4616 H 455.857 -2.65433 4.83993 0
M  V30 4617 H 456.334 -3.02457 3.18459 0
M  V30 4618 H 456.94 -1.54442 3.96267 0
M  V30 4619 N 455.255 -1.55392 -0.262866 0
M  V30 4620 C 456.504 -1.75679 -0.990943 0
M  V30 4621 C 456.817 -0.57097 -1.87081 0
M  V30 4622 O 458.023 -0.656486 -2.63444 0
M  V30 4623 C 456.479 -3.10964 -1.81188 0
M  V30 4624 C 456.087 -4.37146 -0.980188 0
M  V30 4625 C 457.831 -3.40597 -2.53365 0
M  V30 4626 C 455.738 -5.63466 -1.7961 0
M  V30 4627 H 454.668 -0.654868 -0.373716 0
M  V30 4628 H 457.319 -1.81841 -0.246203 0
M  V30 4629 H 455.701 -2.98867 -2.59797 0
M  V30 4630 H 456.875 -4.60187 -0.237558 0
M  V30 4631 H 455.19 -4.14731 -0.372497 0
M  V30 4632 H 457.787 -4.32186 -3.14833 0
M  V30 4633 H 458.13 -2.6119 -3.24169 0
M  V30 4634 H 458.663 -3.53838 -1.81779 0
M  V30 4635 H 455.402 -6.4565 -1.13209 0
M  V30 4636 H 454.922 -5.44552 -2.51443 0
M  V30 4637 H 456.601 -6.02139 -2.36723 0
M  V30 4638 N 456.733 0.527833 -1.48498 0
M  V30 4639 C 457.665 1.6482 -1.5927 0
M  V30 4640 C 458.678 1.55659 -0.476869 0
M  V30 4641 O 459.867 1.62081 -0.747806 0
M  V30 4642 C 456.967 3.0348 -1.50842 0
M  V30 4643 C 456.14 3.381 -2.77502 0
M  V30 4644 C 455.199 4.5605 -2.62497 0
M  V30 4645 O 454.225 4.59165 -3.36387 0
M  V30 4646 N 455.427 5.54353 -1.72257 0
M  V30 4647 H 458.192 1.56015 -2.55889 0
M  V30 4648 H 455.753 0.715152 -1.45249 0
M  V30 4649 H 457.745 3.80264 -1.38496 0
M  V30 4650 H 456.315 3.06352 -0.621887 0
M  V30 4651 H 455.535 2.50473 -3.04396 0
M  V30 4652 H 456.823 3.58017 -3.61527 0
M  V30 4653 H 456.221 5.54617 -1.11431 0
M  V30 4654 H 454.778 6.30347 -1.65849 0
M  V30 4655 N 458.211 1.37122 0.776871 0
M  V30 4656 C 459.174 1.32301 1.8716 0
M  V30 4657 C 460.174 0.228099 1.59174 0
M  V30 4658 O 461.364 0.483642 1.67352 0
M  V30 4659 C 458.496 1.054 3.24197 0
M  V30 4660 H 459.689 2.29673 1.92848 0
M  V30 4661 H 457.242 1.22077 0.97606 0
M  V30 4662 H 457.977 0.0853872 3.24188 0
M  V30 4663 H 457.762 1.84648 3.45901 0
M  V30 4664 H 459.252 1.04664 4.04271 0
M  V30 4665 N 459.689 -1.00246 1.21608 0
M  V30 4666 C 460.599 -2.12515 0.993709 0
M  V30 4667 C 461.615 -1.73913 -0.0549939 0
M  V30 4668 O 462.791 -2.00943 0.135619 0
M  V30 4669 C 459.856 -3.42083 0.563953 0
M  V30 4670 C 458.917 -3.94843 1.68516 0
M  V30 4671 C 458.15 -5.18226 1.27582 0
M  V30 4672 O 458.373 -5.70201 0.150506 0
M  V30 4673 O 457.307 -5.64497 2.0887 0
M  V30 4674 H 461.133 -2.34152 1.93407 0
M  V30 4675 H 458.718 -1.10891 1.00118 0
M  V30 4676 H 460.6 -4.20073 0.334194 0
M  V30 4677 H 459.275 -3.21828 -0.347665 0
M  V30 4678 H 458.182 -3.18068 1.96935 0
M  V30 4679 H 459.515 -4.19512 2.5743 0
M  V30 4680 N 461.167 -1.02423 -1.1978 0
M  V30 4681 C 462.414 -0.717988 -1.89344 0
M  V30 4682 C 462.742 0.753036 -1.79331 0
M  V30 4683 O 461.997 1.56355 -1.17692 0
M  V30 4684 C 462.296 -1.1088 -3.39765 0
M  V30 4685 C 461.962 -2.57731 -3.6998 0
M  V30 4686 C 460.624 -2.97854 -3.77937 0
M  V30 4687 C 462.976 -3.52763 -3.83677 0
M  V30 4688 C 460.304 -4.31931 -3.97054 0
M  V30 4689 C 462.656 -4.86538 -4.04306 0
M  V30 4690 C 461.32 -5.26356 -4.10494 0
M  V30 4691 H 460.59 -0.26273 -0.692859 0
M  V30 4692 H 463.237 -1.28623 -1.41875 0
M  V30 4693 H 461.542 -0.459094 -3.89101 0
M  V30 4694 H 463.239 -0.849432 -3.919 0
M  V30 4695 H 459.829 -2.25646 -3.64393 0
M  V30 4696 H 464.013 -3.2292 -3.76877 0
M  V30 4697 H 459.269 -4.62324 -4.00083 0
M  V30 4698 H 463.443 -5.60093 -4.13846 0
M  V30 4699 H 461.07 -6.3026 -4.2506 0
M  V30 4700 N 462.645 1.35699 -0.801477 0
M  V30 4701 C 463.577 2.28598 -0.166028 0
M  V30 4702 C 464.59 1.50044 0.631721 0
M  V30 4703 O 465.779 1.72339 0.464921 0
M  V30 4704 C 462.879 3.29625 0.787451 0
M  V30 4705 C 462.052 4.37384 0.037171 0
M  V30 4706 C 461.111 5.183 0.908375 0
M  V30 4707 O 460.137 5.68053 0.361189 0
M  V30 4708 N 461.339 5.35912 2.23112 0
M  V30 4709 H 464.104 2.83771 -0.964071 0
M  V30 4710 H 461.665 1.47994 -0.656469 0
M  V30 4711 H 463.657 3.80648 1.37439 0
M  V30 4712 H 462.227 2.75004 1.48632 0
M  V30 4713 H 461.447 3.87364 -0.730935 0
M  V30 4714 H 462.735 5.0653 -0.480109 0
M  V30 4715 H 462.133 4.97125 2.69968 0
M  V30 4716 H 460.69 5.90133 2.76741 0
M  V30 4717 N 464.123 0.554532 1.47522 0
M  V30 4718 C 465.363 0.0317994 2.04375 0
M  V30 4719 C 465.727 -1.29242 1.41988 0
M  V30 4720 O 466.928 -1.90269 1.89872 0
M  V30 4721 C 465.199 -0.0623344 3.57346 0
M  V30 4722 S 466.758 -0.531578 4.35568 0
M  V30 4723 H 463.576 0.0238553 0.7106 0
M  V30 4724 H 466.178 0.74066 1.80927 0
M  V30 4725 H 464.882 0.905857 4.00278 0
M  V30 4726 H 464.413 -0.794831 3.85287 0
M  V30 4727 H 466.428 -1.79175 4.62721 0
M  V30 4728 N 465.601 -1.54893 0.290851 0
M  V30 4729 C 466.826 -2.04804 -0.32712 0
M  V30 4730 C 467.251 -1.16721 -1.47506 0
M  V30 4731 O 466.609 -0.169107 -1.8051 0
M  V30 4732 C 466.657 -3.52268 -0.770689 0
M  V30 4733 O 465.761 -3.67236 -1.87647 0
M  V30 4734 H 465.102 -0.660789 -0.0652227 0
M  V30 4735 H 467.632 -2.00036 0.429739 0
M  V30 4736 H 467.642 -3.9393 -1.06223 0
M  V30 4737 H 466.317 -4.15843 0.069096 0
M  V30 4738 H 464.894 -3.37479 -1.58626 0
M  V30 4739 N 467.08 -0.0183926 -1.57589 0
M  V30 4740 C 468.491 0.521927 -1.79256 0
M  V30 4741 C 468.842 1.72885 -0.927636 0
M  V30 4742 O 467.967 2.15978 -0.135091 0
M  V30 4743 C 468.562 0.953632 -3.25102 0
M  V30 4744 C 467.121 1.43913 -3.47801 0
M  V30 4745 C 466.268 0.398837 -2.74417 0
M  V30 4746 H 469.219 -0.244485 -1.56805 0
M  V30 4747 H 469.24 1.81863 -3.34224 0
M  V30 4748 H 468.752 0.0750123 -3.88028 0
M  V30 4749 H 466.853 2.33804 -2.90115 0
M  V30 4750 H 466.966 1.45391 -4.56507 0
M  V30 4751 H 465.33 0.864572 -2.39577 0
M  V30 4752 H 466.113 -0.471132 -3.40052 0
M  V30 4753 N 468.558 1.5553 0.254621 0
M  V30 4754 C 469.806 1.7665 0.981793 0
M  V30 4755 C 470.127 0.580963 1.86145 0
M  V30 4756 O 469.397 -0.403537 1.91699 0
M  V30 4757 H 467.977 0.651475 0.365498 0
M  V30 4758 H 470.639 1.92958 0.274426 0
M  V30 4759 H 469.735 2.67486 1.60802 0
M  V30 4760 N 470.036 -0.519951 1.48776 0
M  V30 4761 C 470.968 -1.63973 1.60142 0
M  V30 4762 C 471.981 -1.55404 0.485117 0
M  V30 4763 O 473.17 -1.61682 0.756391 0
M  V30 4764 C 470.27 -3.02676 1.52449 0
M  V30 4765 C 469.443 -3.36624 2.79291 0
M  V30 4766 C 468.502 -4.54652 2.64912 0
M  V30 4767 O 467.528 -4.57374 3.38818 0
M  V30 4768 N 468.73 -5.53432 1.75195 0
M  V30 4769 H 471.495 -1.54656 2.56713 0
M  V30 4770 H 469.056 -0.707439 1.45626 0
M  V30 4771 H 471.048 -3.79525 1.4051 0
M  V30 4772 H 469.618 -3.06018 0.638125 0
M  V30 4773 H 468.838 -2.48855 3.0572 0
M  V30 4774 H 470.126 -3.56094 3.6342 0
M  V30 4775 H 469.524 -5.54018 1.14371 0
M  V30 4776 H 468.081 -6.29459 1.69189 0
M  V30 4777 N 471.514 -1.37532 -0.769588 0
M  V30 4778 C 472.763 -1.32183 -1.5235 0
M  V30 4779 C 473.076 0.0906555 -1.9539 0
M  V30 4780 O 474.282 0.266628 -2.70188 0
M  V30 4781 C 472.738 -2.32029 -2.75119 0
M  V30 4782 C 472.346 -3.78816 -2.3917 0
M  V30 4783 C 474.09 -2.35694 -3.53056 0
M  V30 4784 C 471.997 -4.70388 -3.58453 0
M  V30 4785 H 470.927 -0.491275 -0.571984 0
M  V30 4786 H 473.578 -1.63004 -0.842739 0
M  V30 4787 H 471.96 -1.94229 -3.45096 0
M  V30 4788 H 473.134 -4.25466 -1.76962 0
M  V30 4789 H 471.449 -3.78117 -1.74402 0
M  V30 4790 H 474.046 -3.01312 -4.41718 0
M  V30 4791 H 474.389 -1.37117 -3.93071 0
M  V30 4792 H 474.922 -2.72212 -2.90078 0
M  V30 4793 H 471.661 -5.70102 -3.23518 0
M  V30 4794 H 471.181 -4.28442 -4.19758 0
M  V30 4795 H 472.86 -4.87628 -4.25239 0
M  V30 4796 N 472.992 0.995999 -1.22138 0
M  V30 4797 C 474.238 1.73767 -1.04561 0
M  V30 4798 C 474.571 1.89633 0.418698 0
M  V30 4799 O 473.846 1.43723 1.3105 0
M  V30 4800 C 474.129 3.14505 -1.75382 0
M  V30 4801 C 473.982 3.06306 -3.29388 0
M  V30 4802 C 475.301 4.13615 -1.50369 0
M  V30 4803 H 472.42 0.630728 -0.38125 0
M  V30 4804 H 475.062 1.16057 -1.50435 0
M  V30 4805 H 473.212 3.63775 -1.36383 0
M  V30 4806 H 474.884 2.64681 -3.77812 0
M  V30 4807 H 473.127 2.43186 -3.59226 0
M  V30 4808 H 473.798 4.05884 -3.74116 0
M  V30 4809 H 476.274 3.73089 -1.84239 0
M  V30 4810 H 475.15 5.10212 -2.02421 0
M  V30 4811 H 475.411 4.39949 -0.435611 0
M  V30 4812 N 474.47 1.03057 1.19235 0
M  V30 4813 C 475.417 0.612832 2.22515 0
M  V30 4814 C 476.387 -0.374224 1.61829 0
M  V30 4815 O 477.572 -0.270501 1.88873 0
M  V30 4816 C 474.712 -0.028475 3.45088 0
M  V30 4817 C 473.825 1.00483 4.20151 0
M  V30 4818 C 472.96 0.333102 5.30155 0
M  V30 4819 C 471.999 1.3522 5.96977 0
M  V30 4820 N 471.136 0.70616 6.9854 0
M  V30 4821 H 475.976 1.49812 2.57605 0
M  V30 4822 H 473.513 0.749658 1.26564 0
M  V30 4823 H 475.471 -0.417548 4.15105 0
M  V30 4824 H 474.101 -0.877334 3.10649 0
M  V30 4825 H 473.153 1.51194 3.49062 0
M  V30 4826 H 474.465 1.77929 4.65986 0
M  V30 4827 H 473.619 -0.110725 6.06599 0
M  V30 4828 H 472.358 -0.473547 4.85396 0
M  V30 4829 H 471.363 1.80627 5.19282 0
M  V30 4830 H 472.588 2.16037 6.4382 0
M  V30 4831 H 470.534 -0.0803667 6.55951 0
M  V30 4832 H 470.451 1.41848 7.42573 0
M  V30 4833 H 471.719 0.286391 7.78974 0
M  V30 4834 N 475.948 -1.35272 0.808662 0
M  V30 4835 C 476.895 -2.29764 0.218482 0
M  V30 4836 C 477.865 -1.52911 -0.648652 0
M  V30 4837 O 479.05 -1.81341 -0.593297 0
M  V30 4838 C 476.19 -3.39388 -0.625282 0
M  V30 4839 C 475.303 -4.31202 0.262516 0
M  V30 4840 C 474.438 -5.27919 -0.589451 0
M  V30 4841 C 473.477 -6.11371 0.298617 0
M  V30 4842 N 472.614 -7.0022 -0.513443 0
M  V30 4843 H 477.454 -2.79645 1.02968 0
M  V30 4844 H 474.991 -1.37629 0.519303 0
M  V30 4845 H 476.949 -4.01615 -1.12966 0
M  V30 4846 H 475.579 -2.90777 -1.40173 0
M  V30 4847 H 474.631 -3.69962 0.885013 0
M  V30 4848 H 475.943 -4.89748 0.945971 0
M  V30 4849 H 475.097 -5.95529 -1.15888 0
M  V30 4850 H 473.836 -4.69875 -1.30647 0
M  V30 4851 H 472.841 -5.42707 0.880301 0
M  V30 4852 H 474.066 -6.71494 1.01352 0
M  V30 4853 H 472.012 -6.44662 -1.21439 0
M  V30 4854 H 471.929 -7.55917 0.111922 0
M  V30 4855 H 473.197 -7.72175 -1.06608 0
M  V30 4856 N 477.426 -0.562348 -1.47226 0
M  V30 4857 C 478.837 -0.130325 -1.86245 0
M  V30 4858 C 479.188 1.30128 -1.46838 0
M  V30 4859 O 478.313 1.97974 -0.873805 0
M  V30 4860 C 478.908 -0.229738 -3.3802 0
M  V30 4861 C 477.467 0.14728 -3.76112 0
M  V30 4862 C 476.614 -0.574971 -2.71274 0
M  V30 4863 H 479.565 -0.771773 -1.3867 0
M  V30 4864 H 479.586 0.550316 -3.76499 0
M  V30 4865 H 479.098 -1.27178 -3.66671 0
M  V30 4866 H 477.199 1.19023 -3.53078 0
M  V30 4867 H 477.312 -0.214858 -4.78618 0
M  V30 4868 H 475.676 -0.0174756 -2.54694 0
M  V30 4869 H 476.459 -1.61827 -3.02766 0
M  V30 4870 N 478.904 1.54736 -0.299062 0
M  V30 4871 C 480.15 2.00397 0.311244 0
M  V30 4872 C 480.483 1.18716 1.53688 0
M  V30 4873 O 479.758 0.263154 1.92712 0
M  V30 4874 C 480.041 3.53817 0.669761 0
M  V30 4875 C 479.894 4.46239 -0.564882 0
M  V30 4876 C 481.213 4.13856 1.49702 0
M  V30 4877 H 478.332 0.728493 0.111653 0
M  V30 4878 H 480.974 1.85506 -0.410774 0
M  V30 4879 H 479.124 3.66637 1.28491 0
M  V30 4880 H 480.796 4.45328 -1.20337 0
M  V30 4881 H 479.039 4.16916 -1.19849 0
M  V30 4882 H 479.71 5.5134 -0.269918 0
M  V30 4883 H 482.186 4.04461 0.977284 0
M  V30 4884 H 481.062 5.21365 1.71666 0
M  V30 4885 H 481.323 3.65608 2.48563 0
M  V30 4886 N 480.382 0.0267497 1.57577 0
M  V30 4887 C 481.315 -0.99059 2.05579 0
M  V30 4888 C 482.293 -1.31884 0.951065 0
M  V30 4889 O 483.477 -1.43592 1.22121 0
M  V30 4890 C 480.604 -2.31125 2.47586 0
M  V30 4891 C 479.65 -2.13777 3.69055 0
M  V30 4892 S 480.483 -1.4388 5.15809 0
M  V30 4893 C 481.639 -2.77321 5.6111 0
M  V30 4894 H 481.872 -0.581976 2.91548 0
M  V30 4895 H 479.405 -0.184876 1.53289 0
M  V30 4896 H 481.363 -3.07049 2.72454 0
M  V30 4897 H 480.024 -2.6912 1.61967 0
M  V30 4898 H 479.217 -3.11405 3.96287 0
M  V30 4899 H 478.819 -1.45996 3.44327 0
M  V30 4900 H 481.111 -3.73565 5.65204 0
M  V30 4901 H 482.054 -2.54756 6.60685 0
M  V30 4902 H 482.462 -2.82459 4.88751 0
M  V30 4903 N 481.861 -1.55662 -0.24637 0
M  V30 4904 C 483.107 -1.77782 -0.975779 0
M  V30 4905 C 483.44 -0.592103 -1.84953 0
M  V30 4906 O 482.715 0.409588 -1.90138 0
M  V30 4907 C 482.998 -3.09788 -1.83584 0
M  V30 4908 C 482.851 -4.38764 -0.990241 0
M  V30 4909 C 484.17 -3.38029 -2.81823 0
M  V30 4910 H 481.289 -0.646789 -0.353317 0
M  V30 4911 H 483.931 -1.88398 -0.246248 0
M  V30 4912 H 482.081 -3.00869 -2.45784 0
M  V30 4913 H 483.753 -4.59675 -0.386897 0
M  V30 4914 H 481.996 -4.32798 -0.294626 0
M  V30 4915 H 482.667 -5.27514 -1.62584 0
M  V30 4916 H 485.143 -3.46915 -2.2976 0
M  V30 4917 H 484.019 -4.3161 -3.39122 0
M  V30 4918 H 484.28 -2.58968 -3.58313 0
M  V30 4919 N 483.339 0.512053 -1.4905 0
M  V30 4920 C 484.588 1.26343 -1.57227 0
M  V30 4921 C 484.901 1.93876 -0.259155 0
M  V30 4922 O 486.107 2.70612 -0.219358 0
M  V30 4923 C 484.563 2.29343 -2.77362 0
M  V30 4924 C 484.171 1.67799 -4.15388 0
M  V30 4925 C 485.915 3.05378 -2.94864 0
M  V30 4926 C 483.822 2.68845 -5.2676 0
M  V30 4927 H 482.752 0.475231 -0.585382 0
M  V30 4928 H 485.403 0.53862 -1.75417 0
M  V30 4929 H 483.785 3.04938 -2.52643 0
M  V30 4930 H 484.959 0.982715 -4.50199 0
M  V30 4931 H 483.274 1.04194 -4.03153 0
M  V30 4932 H 485.871 3.80921 -3.75238 0
M  V30 4933 H 486.214 3.62327 -2.05 0
M  V30 4934 H 486.747 2.36898 -3.19569 0
M  V30 4935 H 483.486 2.16692 -6.18647 0
M  V30 4936 H 483.006 3.36647 -4.96416 0
M  V30 4937 H 484.685 3.31487 -5.5563 0
M  V30 4938 N 484.817 1.37938 0.762283 0
M  V30 4939 C 486.065 1.33404 1.51815 0
M  V30 4940 C 486.386 -0.0780975 1.94844 0
M  V30 4941 O 485.656 -1.02405 1.67003 0
M  V30 4942 H 484.236 0.490839 0.563104 0
M  V30 4943 H 486.898 1.72527 0.906669 0
M  V30 4944 H 485.994 1.97926 2.41313 0
M  V30 4945 N 486.295 -0.989507 1.22664 0
M  V30 4946 C 487.523 -1.76496 1.07967 0
M  V30 4947 C 487.938 -1.85148 -0.369543 0
M  V30 4948 O 487.295 -1.32408 -1.25596 0
M  V30 4949 C 487.346 -3.19642 1.68853 0
M  V30 4950 O 487.067 -3.11453 3.08105 0
M  V30 4951 C 488.568 -4.13621 1.59475 0
M  V30 4952 H 485.788 -0.55418 0.378319 0
M  V30 4953 H 488.332 -1.24378 1.62328 0
M  V30 4954 H 486.487 -3.68816 1.18547 0
M  V30 4955 H 486.901 -4.01499 3.37489 0
M  V30 4956 H 488.375 -5.11801 2.06795 0
M  V30 4957 H 488.852 -4.35718 0.55191 0
M  V30 4958 H 489.458 -3.70346 2.09103 0
M  V30 4959 N 487.773 -1.03688 -1.18687 0
M  V30 4960 C 489.013 -0.746858 -1.90267 0
M  V30 4961 C 489.377 0.712075 -1.78307 0
M  V30 4962 O 490.578 1.11553 -2.44559 0
M  V30 4963 C 488.849 -1.19543 -3.36815 0
M  V30 4964 S 490.408 -1.03047 -4.26529 0
M  V30 4965 H 487.226 -0.271663 -0.657054 0
M  V30 4966 H 489.828 -1.32838 -1.43437 0
M  V30 4967 H 488.532 -2.2527 -3.43047 0
M  V30 4968 H 488.063 -0.607533 -3.88681 0
M  V30 4969 H 490.078 0.0543232 -4.9617 0
M  V30 4970 N 489.251 1.34841 -0.815825 0
M  V30 4971 C 490.479 2.0273 -0.413294 0
M  V30 4972 C 490.894 1.61459 0.978599 0
M  V30 4973 O 490.251 0.816584 1.63212 0
M  V30 4974 C 490.302 3.58058 -0.497676 0
M  V30 4975 O 490.023 3.97832 -1.8347 0
M  V30 4976 C 491.524 4.4321 -0.0891339 0
M  V30 4977 H 488.744 0.649956 -0.166728 0
M  V30 4978 H 491.288 1.72267 -1.10201 0
M  V30 4979 H 489.443 3.87136 0.142886 0
M  V30 4980 H 489.857 4.92501 -1.80396 0
M  V30 4981 H 491.331 5.5164 -0.199274 0
M  V30 4982 H 491.808 4.28432 0.966571 0
M  V30 4983 H 492.414 4.19446 -0.703214 0
M  V30 4984 N 490.729 0.570148 1.46925 0
M  V30 4985 C 491.969 0.0534743 2.0433 0
M  V30 4986 C 492.333 -1.27729 1.4335 0
M  V30 4987 O 493.534 -1.88244 1.91879 0
M  V30 4988 C 491.805 -0.0244296 3.57392 0
M  V30 4989 S 493.364 -0.485351 4.36108 0
M  V30 4990 H 490.182 0.0313908 0.710307 0
M  V30 4991 H 492.784 0.759808 1.80131 0
M  V30 4992 H 491.488 0.948261 3.99295 0
M  V30 4993 H 491.019 -0.753922 3.86108 0
M  V30 4994 H 493.034 -1.74258 4.64595 0
M  V30 4995 N 492.207 -1.54576 0.307264 0
M  V30 4996 C 493.157 -2.20467 -0.581249 0
M  V30 4997 C 494.141 -1.17972 -1.09414 0
M  V30 4998 O 495.333 -1.43667 -1.03387 0
M  V30 4999 C 492.462 -2.95369 -1.74963 0
M  V30 5000 C 491.548 -4.05186 -1.25241 0
M  V30 5001 N 491.939 -5.03577 -0.47364 0
M  V30 5002 C 490.237 -4.18841 -1.53259 0
M  V30 5003 C 490.938 -5.81328 -0.208083 0
M  V30 5004 N 489.914 -5.37834 -0.789651 0
M  V30 5005 H 493.716 -2.93892 0.0212221 0
M  V30 5006 H 491.23 -1.62011 0.112325 0
M  V30 5007 H 493.227 -3.41046 -2.39777 0
M  V30 5008 H 491.887 -2.23461 -2.35574 0
M  V30 5009 H 492.898 -5.17766 -0.117963 0
M  V30 5010 H 489.575 -3.58141 -2.14573 0
M  V30 5011 H 490.965 -6.706 0.417793 0
M  V30 5012 N 493.685 -0.035106 -1.57561 0
M  V30 5013 C 494.913 0.652258 -1.9635 0
M  V30 5014 C 495.328 1.65317 -0.911897 0
M  V30 5015 O 494.685 1.82194 0.105657 0
M  V30 5016 C 494.736 1.35337 -3.35211 0
M  V30 5017 O 494.457 0.392548 -4.36338 0
M  V30 5018 C 495.958 2.13199 -3.88666 0
M  V30 5019 H 493.178 0.179444 -0.646561 0
M  V30 5020 H 495.722 -0.0966459 -2.04271 0
M  V30 5021 H 493.877 2.05362 -3.28489 0
M  V30 5022 H 494.291 0.891097 -5.16875 0
M  V30 5023 H 495.765 2.577 -4.88154 0
M  V30 5024 H 496.242 2.97353 -3.23231 0
M  V30 5025 H 496.848 1.48118 -3.98674 0
M  V30 5026 N 495.163 1.55791 0.238111 0
M  V30 5027 C 496.111 1.91885 1.31464 0
M  V30 5028 C 497.105 0.798929 1.49377 0
M  V30 5029 O 498.311 0.983626 1.50747 0
M  V30 5030 H 494.686 0.609551 0.440399 0
M  V30 5031 H 496.657 2.81747 0.982925 0
M  V30 5032 C 495.406 2.23763 2.6613 0
M  V30 5033 H 494.729 3.09444 2.53149 0
M  V30 5034 H 496.169 2.52915 3.40309 0
M  V30 5035 C 494.628 1.05699 3.1989 0
M  V30 5036 O 495.158 0.309524 4.00506 0
M  V30 5037 N 493.364 0.845251 2.78036 0
M  V30 5038 H 492.911 1.4548 2.12588 0
M  V30 5039 H 492.869 0.0569973 3.14348 0
M  V30 5040 N 496.642 -0.504142 1.49319 0
M  V30 5041 C 497.882 -1.26867 1.60263 0
M  V30 5042 C 498.246 -1.89924 0.281578 0
M  V30 5043 O 499.447 -2.67479 0.266176 0
M  V30 5044 C 497.718 -2.30956 2.72753 0
M  V30 5045 S 499.277 -3.1679 3.03628 0
M  V30 5046 H 496.095 -0.431198 0.565322 0
M  V30 5047 H 498.697 -0.571407 1.86963 0
M  V30 5048 H 497.401 -1.83156 3.67263 0
M  V30 5049 H 496.932 -3.05356 2.48035 0
M  V30 5050 H 498.947 -4.31549 2.44908 0
M  V30 5051 N 498.12 -1.38341 -0.754957 0
M  V30 5052 C 499.531 -1.30803 -1.3322 0
M  V30 5053 C 499.882 0.0368 -1.96165 0
M  V30 5054 O 499.007 0.938844 -1.94974 0
M  V30 5055 C 499.602 -2.3688 -2.42225 0
M  V30 5056 C 498.161 -2.32925 -2.95674 0
M  V30 5057 C 497.308 -2.19819 -1.69042 0
M  V30 5058 H 500.259 -1.48719 -0.553937 0
M  V30 5059 H 500.28 -2.02517 -3.22129 0
M  V30 5060 H 499.792 -3.34747 -1.96383 0
M  V30 5061 H 497.893 -1.38635 -3.45848 0
M  V30 5062 H 498.006 -3.27008 -3.50146 0
M  V30 5063 H 496.37 -1.66648 -1.92615 0
M  V30 5064 H 497.153 -3.19625 -1.25279 0
M  V30 5065 N 499.598 0.982988 -1.23187 0
M  V30 5066 C 500.545 2.07491 -1.01075 0
M  V30 5067 C 501.515 1.65949 0.070905 0
M  V30 5068 O 502.7 1.90629 -0.0806822 0
M  V30 5069 C 499.84 3.39751 -0.605261 0
M  V30 5070 C 498.953 3.94578 -1.75876 0
M  V30 5071 C 498.088 5.15039 -1.3003 0
M  V30 5072 C 497.127 5.62027 -2.42472 0
M  V30 5073 N 496.264 6.73719 -1.97602 0
M  V30 5074 H 501.104 2.25739 -1.9454 0
M  V30 5075 H 498.641 1.10659 -0.969179 0
M  V30 5076 H 500.599 4.15719 -0.351279 0
M  V30 5077 H 499.229 3.21473 0.292382 0
M  V30 5078 H 498.281 3.1539 -2.12681 0
M  V30 5079 H 499.593 4.25422 -2.60418 0
M  V30 5080 H 498.747 5.9833 -1.00429 0
M  V30 5081 H 497.486 4.85843 -0.425216 0
M  V30 5082 H 496.491 4.77318 -2.7285 0
M  V30 5083 H 497.716 5.93244 -3.30512 0
M  V30 5084 H 495.662 6.46287 -1.1247 0
M  V30 5085 H 495.579 7.03934 -2.75705 0
M  V30 5086 H 496.847 7.6049 -1.71098 0
M  V30 5087 N 501.076 1.04316 1.18135 0
M  V30 5088 C 502.024 0.630175 2.23901 0
M  V30 5089 C 503.018 -0.344254 1.65865 0
M  V30 5090 O 504.224 -0.211273 1.78756 0
M  V30 5091 H 500.599 0.185578 0.728742 0
M  V30 5092 H 502.57 1.53253 2.56039 0
M  V30 5093 C 501.319 0.011666 3.47698 0
M  V30 5094 H 500.642 0.752526 3.92654 0
M  V30 5095 H 502.082 -0.240046 4.2332 0
M  V30 5096 C 500.541 -1.23913 3.13285 0
M  V30 5097 O 501.071 -2.32959 3.27251 0
M  V30 5098 N 499.277 -1.13338 2.67587 0
M  V30 5099 H 498.824 -0.246006 2.56423 0
M  V30 5100 H 498.782 -1.97116 2.44934 0
M  V30 5101 N 502.554 -1.34406 0.822964 0
M  V30 5102 C 503.502 -2.31428 0.233165 0
M  V30 5103 C 504.496 -1.57404 -0.626118 0
M  V30 5104 O 505.702 -1.72402 -0.517453 0
M  V30 5105 H 502.077 -0.749863 0.0566557 0
M  V30 5106 H 504.048 -2.78699 1.06628 0
M  V30 5107 C 502.797 -3.42653 -0.590264 0
M  V30 5108 H 502.12 -3.99753 0.0616129 0
M  V30 5109 H 503.56 -4.12778 -0.969054 0
M  V30 5110 C 502.019 -2.87112 -1.76262 0
M  V30 5111 O 502.549 -2.81995 -2.8608 0
M  V30 5112 N 500.755 -2.43934 -1.57938 0
M  V30 5113 H 500.302 -2.48296 -0.686078 0
M  V30 5114 H 500.26 -2.07123 -2.36532 0
M  V30 5115 N 504.032 -0.577932 -1.46621 0
M  V30 5116 C 504.942 0.160651 -2.34049 0
M  V30 5117 C 505.958 0.890911 -1.49462 0
M  V30 5118 O 507.134 0.855166 -1.82343 0
M  V30 5119 C 504.199 1.16447 -3.26559 0
M  V30 5120 C 503.26 0.4394 -4.27045 0
M  V30 5121 C 502.493 1.3954 -5.15135 0
M  V30 5122 O 502.716 2.63162 -5.06065 0
M  V30 5123 O 501.65 0.908585 -5.95003 0
M  V30 5124 H 505.476 -0.557057 -2.98547 0
M  V30 5125 H 503.061 -0.338369 -1.45518 0
M  V30 5126 H 504.943 1.7434 -3.83645 0
M  V30 5127 H 503.618 1.86373 -2.64663 0
M  V30 5128 H 502.525 -0.181247 -3.73661 0
M  V30 5129 H 503.858 -0.218799 -4.91713 0
M  V30 5130 N 505.51 1.54411 -0.315457 0
M  V30 5131 C 506.473 2.22713 0.54142 0
M  V30 5132 C 507.473 1.2179 1.04995 0
M  V30 5133 O 508.663 1.46426 0.943667 0
M  V30 5134 C 505.795 2.92485 1.75116 0
M  V30 5135 H 506.988 2.99849 -0.0555508 0
M  V30 5136 H 504.541 1.56159 -0.0664453 0
M  V30 5137 H 505.276 2.19466 2.38758 0
M  V30 5138 H 505.061 3.66483 1.39401 0
M  V30 5139 H 506.551 3.44548 2.35959 0
M  V30 5140 N 506.988 0.0434614 1.5754 0
M  V30 5141 C 508.235 -0.632035 1.92384 0
M  V30 5142 C 508.563 -1.71304 0.921157 0
M  V30 5143 O 507.818 -1.95583 -0.067744 0
M  V30 5144 C 508.117 -1.2738 3.3393 0
M  V30 5145 C 507.783 -0.321757 4.49751 0
M  V30 5146 C 506.445 -0.0597611 4.81163 0
M  V30 5147 C 508.797 0.331158 5.20147 0
M  V30 5148 C 506.125 0.862715 5.80322 0
M  V30 5149 C 508.477 1.24178 6.20292 0
M  V30 5150 C 507.141 1.51252 6.50138 0
M  V30 5151 H 506.411 -0.231278 0.703983 0
M  V30 5152 H 509.058 0.108294 1.91194 0
M  V30 5153 H 507.363 -2.08921 3.3145 0
M  V30 5154 H 509.06 -1.80326 3.58167 0
M  V30 5155 H 505.65 -0.53614 4.25233 0
M  V30 5156 H 509.834 0.141826 4.96097 0
M  V30 5157 H 505.09 1.08003 6.01785 0
M  V30 5158 H 509.264 1.75381 6.73954 0
M  V30 5159 H 506.891 2.22897 7.26788 0
M  V30 5160 N 508.466 -1.55915 -0.229846 0
M  V30 5161 C 509.396 -1.94754 -1.28815 0
M  V30 5162 C 510.377 -0.814657 -1.49323 0
M  V30 5163 O 511.562 -1.07631 -1.61645 0
M  V30 5164 C 508.692 -2.25705 -2.63959 0
M  V30 5165 C 507.646 -3.41406 -2.5812 0
M  V30 5166 C 506.972 -3.57941 -3.97218 0
M  V30 5167 C 508.272 -4.76616 -2.13623 0
M  V30 5168 H 509.966 -2.83404 -0.965547 0
M  V30 5169 H 507.512 -1.36353 -0.463028 0
M  V30 5170 H 509.465 -2.51467 -3.38146 0
M  V30 5171 H 508.189 -1.339 -2.9789 0
M  V30 5172 H 506.848 -3.1568 -1.86391 0
M  V30 5173 H 506.496 -2.63526 -4.28443 0
M  V30 5174 H 506.196 -4.35757 -3.94195 0
M  V30 5175 H 507.72 -3.86042 -4.73079 0
M  V30 5176 H 509.134 -5.01637 -2.77549 0
M  V30 5177 H 507.531 -5.57655 -2.21677 0
M  V30 5178 H 508.601 -4.7253 -1.08829 0
M  V30 5179 N 509.944 0.496216 -1.49584 0
M  V30 5180 C 510.876 1.61404 -1.62731 0
M  V30 5181 C 511.889 1.54613 -0.50978 0
M  V30 5182 O 513.078 1.60458 -0.782017 0
M  V30 5183 C 510.178 3.00212 -1.57245 0
M  V30 5184 C 509.351 3.32138 -2.84611 0
M  V30 5185 C 508.41 4.5038 -2.72112 0
M  V30 5186 O 507.436 4.51926 -3.46051 0
M  V30 5187 N 508.638 5.50575 -1.83977 0
M  V30 5188 H 511.403 1.50552 -2.59141 0
M  V30 5189 H 508.964 0.684182 -1.46733 0
M  V30 5190 H 510.956 3.77241 -1.4653 0
M  V30 5191 H 509.526 3.04964 -0.686729 0
M  V30 5192 H 508.746 2.4396 -3.09641 0
M  V30 5193 H 510.034 3.50268 -3.69039 0
M  V30 5194 H 509.432 5.52128 -1.23171 0
M  V30 5195 H 507.989 6.26687 -1.79182 0
M  V30 5196 N 511.423 1.38739 0.74761 0
M  V30 5197 C 512.333 1.38696 1.89211 0
M  V30 5198 C 513.349 0.283303 1.71678 0
M  V30 5199 O 514.525 0.522713 1.94498 0
M  V30 5200 C 511.59 1.21662 3.24653 0
M  V30 5201 C 510.651 2.41886 3.54669 0
M  V30 5202 C 509.884 2.25655 4.83648 0
M  V30 5203 O 510.107 1.25339 5.56459 0
M  V30 5204 O 509.041 3.14372 5.13277 0
M  V30 5205 H 512.867 2.35143 1.92202 0
M  V30 5206 H 510.452 1.19721 0.893708 0
M  V30 5207 H 512.334 1.14246 4.05618 0
M  V30 5208 H 511.009 0.283024 3.2246 0
M  V30 5209 H 509.916 2.54877 2.73841 0
M  V30 5210 H 511.249 3.33895 3.61628 0
M  V30 5211 N 512.901 -0.976442 1.23707 0
M  V30 5212 C 513.831 -2.08749 1.04624 0
M  V30 5213 C 514.812 -1.70057 -0.0380956 0
M  V30 5214 O 515.997 -1.93782 0.127308 0
M  V30 5215 C 513.127 -3.41335 0.640902 0
M  V30 5216 C 512.081 -3.93947 1.67302 0
M  V30 5217 C 511.407 -5.22774 1.12301 0
M  V30 5218 C 512.707 -4.22769 3.06697 0
M  V30 5219 H 514.401 -2.24972 1.97555 0
M  V30 5220 H 511.947 -1.08108 0.951247 0
M  V30 5221 H 513.9 -4.18489 0.494434 0
M  V30 5222 H 512.624 -3.24988 -0.324099 0
M  V30 5223 H 511.283 -3.18941 1.80755 0
M  V30 5224 H 510.931 -5.0278 0.148877 0
M  V30 5225 H 510.631 -5.58942 1.81267 0
M  V30 5226 H 512.155 -6.02546 0.988479 0
M  V30 5227 H 513.569 -4.90659 2.96524 0
M  V30 5228 H 511.966 -4.70147 3.72937 0
M  V30 5229 H 513.036 -3.29885 3.55392 0
M  V30 5230 N 514.379 -1.04941 -1.1758 0
M  V30 5231 C 515.289 -0.658826 -2.25159 0
M  V30 5232 C 516.305 0.318941 -1.71052 0
M  V30 5233 O 517.481 0.171669 -2.00667 0
M  V30 5234 C 514.546 -0.0369522 -3.4668 0
M  V30 5235 C 513.607 -1.06484 -4.15884 0
M  V30 5236 C 512.84 -0.472551 -5.31604 0
M  V30 5237 O 513.063 0.718736 -5.65854 0
M  V30 5238 O 511.997 -1.20557 -5.89703 0
M  V30 5239 H 515.823 -1.55533 -2.60851 0
M  V30 5240 H 513.408 -0.820819 -1.24832 0
M  V30 5241 H 515.29 0.308784 -4.20267 0
M  V30 5242 H 513.965 0.833238 -3.12792 0
M  V30 5243 H 512.872 -1.46253 -3.44327 0
M  V30 5244 H 514.205 -1.9061 -4.53794 0
M  V30 5245 N 515.857 1.33968 -0.830081 0
M  V30 5246 C 516.787 2.31911 -0.271911 0
M  V30 5247 C 517.768 1.58571 0.61556 0
M  V30 5248 O 518.953 1.86514 0.540946 0
M  V30 5249 C 516.083 3.42737 0.561146 0
M  V30 5250 C 515.037 4.27383 -0.229789 0
M  V30 5251 C 514.363 5.29742 0.726463 0
M  V30 5252 C 515.663 5.02 -1.44197 0
M  V30 5253 H 517.357 2.78844 -1.09025 0
M  V30 5254 H 514.903 1.34061 -0.52571 0
M  V30 5255 H 516.856 4.10276 0.961867 0
M  V30 5256 H 515.58 2.94471 1.41261 0
M  V30 5257 H 514.239 3.61456 -0.611964 0
M  V30 5258 H 513.887 4.77736 1.57408 0
M  V30 5259 H 513.587 5.87255 0.20142 0
M  V30 5260 H 515.111 6.00149 1.12489 0
M  V30 5261 H 516.525 5.62355 -1.11488 0
M  V30 5262 H 514.922 5.69122 -1.90317 0
M  V30 5263 H 515.992 4.31281 -2.2164 0
M  V30 5264 N 517.335 0.585699 1.46312 0
M  V30 5265 C 518.282 -0.145835 2.30339 0
M  V30 5266 C 519.252 -0.881215 1.40797 0
M  V30 5267 O 520.437 -0.871293 1.69744 0
M  V30 5268 C 517.577 -1.15161 3.25318 0
M  V30 5269 C 516.69 -0.419367 4.2996 0
M  V30 5270 C 515.825 -1.41293 5.12064 0
M  V30 5271 C 514.864 -0.667261 6.08452 0
M  V30 5272 N 514.001 -1.60903 6.83414 0
M  V30 5273 H 518.841 0.576755 2.92365 0
M  V30 5274 H 516.378 0.296237 1.44086 0
M  V30 5275 H 518.336 -1.74763 3.78832 0
M  V30 5276 H 516.966 -1.84188 2.65094 0
M  V30 5277 H 516.018 0.291751 3.7928 0
M  V30 5278 H 517.33 0.163433 4.98532 0
M  V30 5279 H 516.484 -2.08167 5.6987 0
M  V30 5280 H 515.223 -2.02966 4.43459 0
M  V30 5281 H 514.228 0.0152356 5.49798 0
M  V30 5282 H 515.453 -0.0558817 6.79077 0
M  V30 5283 H 513.399 -2.21381 6.17516 0
M  V30 5284 H 513.316 -1.07911 7.48259 0
M  V30 5285 H 514.584 -2.26802 7.45775 0
M  V30 5286 N 518.813 -1.54241 0.323641 0
M  V30 5287 C 520.041 -2.04985 -0.280871 0
M  V30 5288 C 520.456 -1.19978 -1.45777 0
M  V30 5289 O 519.813 -0.230471 -1.81039 0
M  V30 5290 C 519.864 -3.54353 -0.715258 0
M  V30 5291 O 519.585 -4.36132 0.414817 0
M  V30 5292 C 521.086 -4.21189 -1.38257 0
M  V30 5293 H 518.306 -0.66851 -0.0577502 0
M  V30 5294 H 520.85 -1.99029 0.469852 0
M  V30 5295 H 519.005 -3.60596 -1.41596 0
M  V30 5296 H 519.419 -5.2445 0.0725227 0
M  V30 5297 H 520.893 -5.27154 -1.63745 0
M  V30 5298 H 521.37 -3.72307 -2.32989 0
M  V30 5299 H 521.976 -4.19085 -0.724447 0
M  V30 5300 N 520.291 -0.0518155 -1.57515 0
M  V30 5301 C 521.519 0.631395 -1.9703 0
M  V30 5302 C 521.934 1.64341 -0.92938 0
M  V30 5303 O 521.291 1.82296 0.0863266 0
M  V30 5304 C 521.342 1.31774 -3.36627 0
M  V30 5305 O 521.063 0.346247 -4.3673 0
M  V30 5306 C 522.564 2.09065 -3.90905 0
M  V30 5307 H 519.784 0.172576 -0.648428 0
M  V30 5308 H 522.328 -0.118306 -2.04158 0
M  V30 5309 H 520.483 2.01867 -3.30649 0
M  V30 5310 H 520.897 0.836226 -5.17791 0
M  V30 5311 H 522.371 2.52508 -4.9086 0
M  V30 5312 H 522.848 2.93908 -3.26366 0
M  V30 5313 H 523.454 1.43882 -4.00223 0
M  V30 5314 N 521.769 1.56035 0.221574 0
M  V30 5315 C 523.185 1.49026 0.571271 0
M  V30 5316 C 523.385 0.746912 1.87146 0
M  V30 5317 O 522.441 0.286566 2.50869 0
M  V30 5318 C 523.754 2.93579 0.650522 0
M  V30 5319 C 525.302 3.04099 0.741151 0
M  V30 5320 C 525.777 4.5001 0.851747 0
M  V30 5321 N 527.268 4.54053 0.915968 0
M  V30 5322 C 528.003 5.64232 1.02125 0
M  V30 5323 N 527.499 6.84164 1.09049 0
M  V30 5324 N 529.292 5.52084 1.05639 0
M  V30 5325 H 521.443 2.02791 -0.63162 0
M  V30 5326 H 523.706 0.921736 -0.221602 0
M  V30 5327 H 523.412 3.50912 -0.235253 0
M  V30 5328 H 523.286 3.45476 1.51413 0
M  V30 5329 H 525.673 2.4683 1.61737 0
M  V30 5330 H 525.754 2.55371 -0.148128 0
M  V30 5331 H 525.398 5.07896 -0.0200117 0
M  V30 5332 H 525.328 4.96444 1.75644 0
M  V30 5333 H 527.819 3.67683 0.872782 0
M  V30 5334 H 528.132 7.63883 1.1706 0
M  V30 5335 H 526.477 6.86875 1.05962 0
M  V30 5336 H 529.668 4.57317 0.998953 0
M  V30 5337 H 529.841 6.37983 1.13498 0
M  V30 5338 N 523.247 -0.488276 1.49845 0
M  V30 5339 C 524.495 -1.23911 1.59657 0
M  V30 5340 C 524.816 -1.92816 0.291005 0
M  V30 5341 O 524.086 -1.83328 -0.690485 0
M  V30 5342 H 522.666 -0.460357 0.588286 0
M  V30 5343 H 525.328 -0.564794 1.86537 0
M  V30 5344 H 524.424 -1.99625 2.39909 0
M  V30 5345 N 524.725 -1.39134 -0.740242 0
M  V30 5346 C 525.672 -1.37434 -1.8542 0
M  V30 5347 C 526.642 -0.234822 -1.64432 0
M  V30 5348 O 527.827 -0.429125 -1.85912 0
M  V30 5349 C 524.967 -1.21844 -3.22875 0
M  V30 5350 C 524.08 -2.45296 -3.55603 0
M  V30 5351 C 523.215 -2.22334 -4.82432 0
M  V30 5352 C 522.254 -3.41488 -5.07988 0
M  V30 5353 N 521.391 -3.17877 -6.26018 0
M  V30 5354 H 526.231 -2.3266 -1.86207 0
M  V30 5355 H 523.768 -1.15578 -0.909946 0
M  V30 5356 H 525.726 -1.10818 -4.02213 0
M  V30 5357 H 524.356 -0.3025 -3.21379 0
M  V30 5358 H 523.408 -2.66945 -2.71006 0
M  V30 5359 H 524.72 -3.34063 -3.7041 0
M  V30 5360 H 523.874 -2.0852 -5.69741 0
M  V30 5361 H 522.613 -1.30954 -4.6979 0
M  V30 5362 H 521.618 -3.55807 -4.19144 0
M  V30 5363 H 522.843 -4.33763 -5.22519 0
M  V30 5364 H 520.789 -2.29156 -6.14673 0
M  V30 5365 H 520.706 -4.00198 -6.41387 0
M  V30 5366 H 521.974 -3.07746 -7.16179 0
M  V30 5367 N 526.204 0.969867 -1.24223 0
M  V30 5368 C 527.137 2.06279 -0.975926 0
M  V30 5369 C 528.115 1.62353 0.0895385 0
M  V30 5370 O 529.299 1.88442 -0.0469418 0
M  V30 5371 C 526.426 3.35391 -0.472315 0
M  V30 5372 C 525.472 3.98266 -1.526 0
M  V30 5373 S 526.305 4.36172 -3.10667 0
M  V30 5374 C 527.461 5.68423 -2.62003 0
M  V30 5375 H 527.694 2.28551 -1.90137 0
M  V30 5376 H 525.227 1.10748 -1.07584 0
M  V30 5377 H 527.185 4.10068 -0.188376 0
M  V30 5378 H 525.846 3.1111 0.432378 0
M  V30 5379 H 525.039 4.91307 -1.12399 0
M  V30 5380 H 524.641 3.30009 -1.75983 0
M  V30 5381 H 526.933 6.45842 -2.0468 0
M  V30 5382 H 527.876 6.13478 -3.53625 0
M  V30 5383 H 528.284 5.26928 -2.02502 0
M  V30 5384 O 527.721 1.18047 1.10214 0
M  V30 5385 H 528.412 0.921332 1.70385 0
M  V30 END ATOM
M  V30 BEGIN BOND
M  V30 END BOND
M  V30 END CTAB
M  END
$$$$
