drugbank_target|P48764 Sodium/hydrogen exchanger 3 (DB11761)
 OpenBabel12092121203D

  0  0  0     0  0            999 V3000
M  V30 BEGIN CTAB
M  V30 COUNTS 13208 13358 0 0 0
M  V30 BEGIN ATOM
M  V30 1 H -0.908 1.98254 -0.117106 0
M  V30 2 N 0 1.576 0 0
M  V30 3 C 0.933 2.03868 1.02534 0
M  V30 4 C 1.911 0.928543 1.3348 0
M  V30 5 O 3.095 1.19667 1.45644 0
M  V30 6 C 0.222 2.43627 2.35294 0
M  V30 7 C -0.732 3.65373 2.2001 0
M  V30 8 S 0.101 5.13292 1.52614 0
M  V30 9 C 1.257 5.56322 2.86805 0
M  V30 10 H 1.49 2.90518 0.631377 0
M  V30 11 H -0.977 1.52953 0.210867 0
M  V30 12 H 0.981 2.67203 3.11629 0
M  V30 13 H -0.358 1.57376 2.7183 0
M  V30 14 H -1.165 3.90944 3.18086 0
M  V30 15 H -1.563 3.418 1.51819 0
M  V30 16 H 0.729 5.58782 3.83104 0
M  V30 17 H 1.672 6.56266 2.65933 0
M  V30 18 H 2.08 4.83886 2.90714 0
M  V30 19 N 1.4781 -0.272755 1.55222 0
M  V30 20 C 2.7241 -1.00172 1.77023 0
M  V30 21 C 3.0791 -1.83928 0.564633 0
M  V30 22 O 2.3721 -1.86416 -0.442674 0
M  V30 23 C 2.5661 -1.91642 3.01675 0
M  V30 24 C 2.3951 -1.16888 4.34243 0
M  V30 25 C 1.1651 -0.884464 4.97499 0
M  V30 26 C 3.3631 -0.55919 5.11251 0
M  V30 27 N 1.3451 -0.11015 6.13801 0
M  V30 28 C 2.7161 0.0809469 6.19947 0
M  V30 29 C 4.7711 -0.467058 4.95705 0
M  V30 30 C 3.4741 0.804335 7.14789 0
M  V30 31 C 5.5001 0.242739 5.90902 0
M  V30 32 C 4.8621 0.871613 6.98987 0
M  V30 33 H 0.9611 -0.348529 0.700037 0
M  V30 34 H 3.5451 -0.277365 1.92714 0
M  V30 35 H 1.7161 -2.61303 2.87359 0
M  V30 36 H 3.4481 -2.57901 3.1188 0
M  V30 37 H 0.2031 -1.18979 4.58411 0
M  V30 38 H 0.6271 0.264344 6.76484 0
M  V30 39 H 5.2691 -0.93894 4.12242 0
M  V30 40 H 2.9871 1.2879 7.97771 0
M  V30 41 H 6.5731 0.314347 5.8095 0
M  V30 42 H 5.4531 1.4121 7.71381 0
M  V30 43 N 2.9562 -1.48159 -0.537278 0
M  V30 44 C 4.2042 -1.55497 -1.29094 0
M  V30 45 C 4.5252 -0.227454 -1.93669 0
M  V30 46 O 3.7952 0.750386 -1.80959 0
M  V30 47 H 2.3752 -0.572832 -0.47945 0
M  V30 48 H 5.0372 -1.84579 -0.625818 0
M  V30 49 H 4.1332 -2.33216 -2.07405 0
M  V30 50 N 4.4343 0.785586 -1.36625 0
M  V30 51 C 5.3643 1.91259 -1.33949 0
M  V30 52 C 6.3453 1.68795 -0.210325 0
M  V30 53 O 7.5303 1.89854 -0.408561 0
M  V30 54 C 4.6603 3.28339 -1.13186 0
M  V30 55 C 3.6143 3.65335 -2.22967 0
M  V30 56 C 2.9403 5.00806 -1.87342 0
M  V30 57 C 4.2403 3.7352 -3.65075 0
M  V30 58 H 5.9343 1.93755 -2.28253 0
M  V30 59 H 3.4803 0.930788 -1.09874 0
M  V30 60 H 5.4333 4.06804 -1.09948 0
M  V30 61 H 4.1573 3.2624 -0.153332 0
M  V30 62 H 2.8163 2.89169 -2.25337 0
M  V30 63 H 2.4643 4.95233 -0.880545 0
M  V30 64 H 2.1643 5.26529 -2.60846 0
M  V30 65 H 3.6883 5.81687 -1.85667 0
M  V30 66 H 5.1023 4.42168 -3.64911 0
M  V30 67 H 3.4993 4.10731 -4.37516 0
M  V30 68 H 4.5693 2.74527 -3.99703 0
M  V30 69 N 5.9124 1.20967 1.01018 0
M  V30 70 C 7.1604 1.02172 1.74371 0
M  V30 71 C 7.4814 -0.446414 1.89821 0
M  V30 72 O 6.7514 -1.32234 1.44537 0
M  V30 73 H 5.3314 0.375066 0.646014 0
M  V30 74 H 7.9934 1.52187 1.21758 0
M  V30 75 H 7.0894 1.48538 2.74487 0
M  V30 76 N 7.3905 -1.2043 1.01659 0
M  V30 77 C 8.3535 -2.21433 0.591616 0
M  V30 78 C 9.3535 -1.57203 -0.338226 0
M  V30 79 O 10.5435 -1.73737 -0.126918 0
M  V30 80 C 7.6755 -3.40628 -0.136058 0
M  V30 81 H 8.8685 -2.60545 1.48514 0
M  V30 82 H 6.4215 -1.33893 0.806379 0
M  V30 83 H 7.1565 -3.07019 -1.04449 0
M  V30 84 H 6.9415 -3.88475 0.531917 0
M  V30 85 H 8.4315 -4.15475 -0.420735 0
M  V30 86 N 8.8686 -0.792821 -1.36206 0
M  V30 87 C 10.2846 -0.474903 -1.52371 0
M  V30 88 C 10.4846 1.00622 -1.74578 0
M  V30 89 O 9.5406 1.79162 -1.77924 0
M  V30 90 C 10.8536 -1.3083 -2.70747 0
M  V30 91 C 12.4016 -1.30234 -2.84619 0
M  V30 92 C 12.8766 -2.11956 -4.06004 0
M  V30 93 N 14.3676 -2.09419 -4.13156 0
M  V30 94 C 15.1026 -2.69419 -5.06163 0
M  V30 95 N 14.5986 -3.3829 -6.04592 0
M  V30 96 N 16.3916 -2.59134 -4.98804 0
M  V30 97 H 8.5426 -1.75222 -1.20046 0
M  V30 98 H 10.8056 -0.745024 -0.586211 0
M  V30 99 H 10.5116 -2.35881 -2.6087 0
M  V30 100 H 10.3856 -0.95196 -3.6499 0
M  V30 101 H 12.7726 -0.259748 -2.93955 0
M  V30 102 H 12.8536 -1.69847 -1.91274 0
M  V30 103 H 12.4976 -3.16248 -3.97429 0
M  V30 104 H 12.4276 -1.69711 -4.98503 0
M  V30 105 H 14.9186 -1.59297 -3.42685 0
M  V30 106 H 15.2316 -3.81394 -6.7213 0
M  V30 107 H 13.5766 -3.42393 -6.04807 0
M  V30 108 H 16.7676 -2.04927 -4.20859 0
M  V30 109 H 16.9406 -3.06185 -5.711 0
M  V30 110 N 10.3467 1.47872 -0.545128 0
M  V30 111 C 11.5947 2.02093 -0.016553 0
M  V30 112 C 11.9157 1.42305 1.3332 0
M  V30 113 O 11.1857 0.593853 1.86682 0
M  V30 114 H 9.7657 0.746993 -0.00313038 0
M  V30 115 H 12.4277 1.81414 -0.712397 0
M  V30 116 H 11.5237 3.11996 0.0805422 0
M  V30 117 N 11.8248 0.280983 1.55075 0
M  V30 118 C 13.2358 -0.215629 1.85451 0
M  V30 119 C 13.5868 -1.54991 1.203 0
M  V30 120 O 12.7118 -2.10699 0.493435 0
M  V30 121 C 13.3068 -0.398026 3.36454 0
M  V30 122 C 11.8658 -0.838866 3.66933 0
M  V30 123 C 11.0128 0.064458 2.77225 0
M  V30 124 H 13.9638 0.502601 1.50531 0
M  V30 125 H 13.9848 -1.23569 3.59876 0
M  V30 126 H 13.4968 0.573241 3.83843 0
M  V30 127 H 11.5978 -1.8214 3.25048 0
M  V30 128 H 11.7108 -0.672123 4.74362 0
M  V30 129 H 10.0748 -0.452863 2.50642 0
M  V30 130 H 10.8578 1.03172 3.2743 0
M  V30 131 N 13.3029 -1.57598 0.00835791 0
M  V30 132 C 14.5799 -1.82172 -0.712235 0
M  V30 133 C 14.9599 -0.887873 -1.9152 0
M  V30 134 O 14.3079 0.06146 -2.28417 0
M  V30 135 C 14.5179 -3.30875 -1.11008 0
M  V30 136 C 15.8659 -3.96826 -1.51044 0
M  V30 137 O 16.8899 -3.35248 -1.20364 0
M  V30 138 O 15.7489 -5.05318 -2.08125 0
M  V30 139 H 12.8429 -0.750435 -0.347529 0
M  V30 140 H 15.3889 -1.69665 0.0344523 0
M  V30 141 H 14.1609 -3.90481 -0.252982 0
M  V30 142 H 13.7839 -3.48412 -1.9156 0
M  V30 143 N 14.781 0.264519 -1.55364 0
M  V30 144 C 16.197 0.61215 -1.47394 0
M  V30 145 C 16.397 1.89134 -0.695018 0
M  V30 146 O 15.453 2.51563 -0.217275 0
M  V30 147 C 16.766 0.731235 -2.91674 0
M  V30 148 C 18.314 0.82473 -3.01939 0
M  V30 149 C 18.789 0.975522 -4.4749 0
M  V30 150 N 20.28 1.04083 -4.51354 0
M  V30 151 C 21.015 1.17646 -5.61201 0
M  V30 152 N 20.511 1.27874 -6.80896 0
M  V30 153 N 22.304 1.20823 -5.48961 0
M  V30 154 H 14.455 -0.575456 -2.04456 0
M  V30 155 H 16.718 -0.196099 -0.927496 0
M  V30 156 H 16.424 -0.138392 -3.51428 0
M  V30 157 H 16.298 1.60883 -3.41169 0
M  V30 158 H 18.685 1.68482 -2.42276 0
M  V30 159 H 18.766 -0.0776479 -2.55682 0
M  V30 160 H 18.41 0.120058 -5.07758 0
M  V30 161 H 18.34 1.89268 -4.91412 0
M  V30 162 H 20.831 0.973846 -3.65136 0
M  V30 163 H 21.144 1.38081 -7.60364 0
M  V30 164 H 19.489 1.24863 -6.83692 0
M  V30 165 H 22.68 1.12469 -4.54388 0
M  V30 166 H 22.853 1.31049 -6.3461 0
M  V30 167 N 16.2591 1.48442 0.529413 0
M  V30 168 C 17.5071 1.56179 1.28267 0
M  V30 169 C 17.8281 0.237721 1.93546 0
M  V30 170 O 17.0981 -0.740779 1.81354 0
M  V30 171 H 15.6781 0.575367 0.476405 0
M  V30 172 H 18.3401 1.84909 0.61602 0
M  V30 173 H 17.4361 2.34312 2.06165 0
M  V30 174 N 17.7372 -0.778329 1.37039 0
M  V30 175 C 18.6672 -1.90546 1.34962 0
M  V30 176 C 19.6482 -1.68681 0.219274 0
M  V30 177 O 20.8332 -1.89634 0.418624 0
M  V30 178 C 17.9632 -3.27734 1.14925 0
M  V30 179 C 16.9172 -3.64147 2.24902 0
M  V30 180 C 16.2432 -4.99806 1.89996 0
M  V30 181 C 17.5432 -3.71579 3.67051 0
M  V30 182 H 19.2372 -1.92541 2.29277 0
M  V30 183 H 16.7832 -0.924948 1.10366 0
M  V30 184 H 18.7362 -4.06215 1.12104 0
M  V30 185 H 17.4602 -3.26154 0.170631 0
M  V30 186 H 16.1192 -2.8797 2.26868 0
M  V30 187 H 15.7672 -4.94759 0.906796 0
M  V30 188 H 15.4672 -5.25139 2.63634 0
M  V30 189 H 16.9912 -5.80694 1.88749 0
M  V30 190 H 18.4052 -4.40227 3.67251 0
M  V30 191 H 16.8022 -4.08405 4.39688 0
M  V30 192 H 17.8722 -2.72404 4.01154 0
M  V30 193 N 19.2153 -1.21501 -1.00376 0
M  V30 194 C 20.1453 -0.999478 -2.11028 0
M  V30 195 C 21.1263 0.0759671 -1.6993 0
M  V30 196 O 22.3113 -0.0841106 -1.94018 0
M  V30 197 C 19.4413 -0.564709 -3.42678 0
M  V30 198 C 18.3953 -1.58486 -3.97576 0
M  V30 199 C 17.7213 -1.00628 -5.25146 0
M  V30 200 C 19.0213 -2.97204 -4.29496 0
M  V30 201 H 20.7153 -1.92495 -2.29317 0
M  V30 202 H 18.2613 -0.92693 -1.102 0
M  V30 203 H 20.2143 -0.401091 -4.19487 0
M  V30 204 H 18.9383 0.396411 -3.24185 0
M  V30 205 H 17.5973 -1.73606 -3.22888 0
M  V30 206 H 17.2453 -0.0368439 -5.02987 0
M  V30 207 H 16.9453 -1.68771 -5.62841 0
M  V30 208 H 18.4693 -0.854015 -6.04598 0
M  V30 209 H 19.8833 -2.8552 -4.97143 0
M  V30 210 H 18.2803 -3.62372 -4.78338 0
M  V30 211 H 19.3503 -3.47956 -3.3772 0
M  V30 212 N 20.6934 1.19889 -1.02296 0
M  V30 213 C 21.6234 2.25141 -0.619174 0
M  V30 214 C 22.6044 1.66051 0.368915 0
M  V30 215 O 23.7894 1.92546 0.252941 0
M  V30 216 C 20.9194 3.4728 0.0368783 0
M  V30 217 C 19.8734 4.19005 -0.872865 0
M  V30 218 C 19.1994 5.34637 -0.0822402 0
M  V30 219 C 20.4994 4.74452 -2.18387 0
M  V30 220 H 22.1934 2.59171 -1.49903 0
M  V30 221 H 19.7394 1.24579 -0.722222 0
M  V30 222 H 21.6924 4.20098 0.330958 0
M  V30 223 H 20.4164 3.12433 0.95149 0
M  V30 224 H 19.0754 3.48061 -1.15105 0
M  V30 225 H 18.7234 4.96034 0.83422 0
M  V30 226 H 18.4234 5.83557 -0.688149 0
M  V30 227 H 19.9474 6.10255 0.205238 0
M  V30 228 H 21.3614 5.39055 -1.95172 0
M  V30 229 H 19.7584 5.33834 -2.74119 0
M  V30 230 H 20.8284 3.92844 -2.84257 0
M  V30 231 N 22.1715 0.800033 1.35784 0
M  V30 232 C 23.1345 0.211565 2.28221 0
M  V30 233 C 24.1345 -0.59728 1.49296 0
M  V30 234 O 25.3245 -0.416721 1.69142 0
M  V30 235 C 22.4565 -0.705846 3.33513 0
M  V30 236 H 23.6495 1.02677 2.81776 0
M  V30 237 H 21.2025 0.570211 1.45528 0
M  V30 238 H 21.9375 -1.54498 2.85133 0
M  V30 239 H 21.7225 -0.127655 3.91892 0
M  V30 240 H 23.2125 -1.11211 4.02519 0
M  V30 241 N 23.6496 -1.47581 0.552962 0
M  V30 242 C 24.5796 -2.32762 -0.185451 0
M  V30 243 C 25.5606 -1.43527 -0.912905 0
M  V30 244 O 26.7456 -1.72388 -0.894201 0
M  V30 245 C 23.8756 -3.25219 -1.21859 0
M  V30 246 C 22.8296 -4.23661 -0.607864 0
M  V30 247 C 22.1556 -5.05413 -1.74533 0
M  V30 248 C 23.4556 -5.20481 0.435582 0
M  V30 249 H 25.1496 -2.94749 0.525684 0
M  V30 250 H 22.6956 -1.41738 0.254251 0
M  V30 251 H 24.6486 -3.8365 -1.7433 0
M  V30 252 H 23.3726 -2.61279 -1.95961 0
M  V30 253 H 22.0316 -3.66451 -0.104489 0
M  V30 254 H 21.6796 -4.3788 -2.47529 0
M  V30 255 H 21.3796 -5.72059 -1.34249 0
M  V30 256 H 22.9036 -5.66701 -2.27338 0
M  V30 257 H 24.3176 -5.733 -0.00290157 0
M  V30 258 H 22.7146 -5.95305 0.757067 0
M  V30 259 H 23.7846 -4.66217 1.33303 0
M  V30 260 N 25.1277 -0.289203 -1.54924 0
M  V30 261 C 26.0907 0.579144 -2.21762 0
M  V30 262 C 27.0907 1.07047 -1.1999 0
M  V30 263 O 28.2807 0.968384 -1.44803 0
M  V30 264 C 25.4127 1.80055 -2.8947 0
M  V30 265 H 26.6057 -0.00464908 -2.999 0
M  V30 266 H 24.1587 -0.0399306 -1.56249 0
M  V30 267 H 24.8937 2.42449 -2.15381 0
M  V30 268 H 24.6787 1.45602 -3.64064 0
M  V30 269 H 26.1687 2.41773 -3.40493 0
M  V30 270 N 26.6058 1.57591 -0.0167156 0
M  V30 271 C 27.5358 2.12496 0.967858 0
M  V30 272 C 28.5168 1.03807 1.34752 0
M  V30 273 O 29.7018 1.31577 1.42833 0
M  V30 274 C 26.8318 2.64194 2.25431 0
M  V30 275 C 25.7858 3.77559 2.01576 0
M  V30 276 C 25.1118 4.15636 3.36379 0
M  V30 277 C 26.4118 5.04151 1.36489 0
M  V30 278 H 28.1058 2.95013 0.510643 0
M  V30 279 H 25.6518 1.41915 0.244181 0
M  V30 280 H 27.6048 3.01236 2.94678 0
M  V30 281 H 26.3288 1.78821 2.73296 0
M  V30 282 H 24.9878 3.40937 1.34751 0
M  V30 283 H 24.6358 3.27263 3.81979 0
M  V30 284 H 24.3358 4.92022 3.21229 0
M  V30 285 H 25.8598 4.5525 4.06915 0
M  V30 286 H 27.2738 5.38857 1.95718 0
M  V30 287 H 25.6708 5.85453 1.31776 0
M  V30 288 H 26.7408 4.83733 0.336219 0
M  V30 289 N 28.0839 -0.256276 1.55502 0
M  V30 290 C 29.3319 -0.983672 1.76545 0
M  V30 291 C 29.6529 -1.86206 0.578982 0
M  V30 292 O 28.9229 -1.91656 -0.405577 0
M  V30 293 H 27.5029 -0.366191 0.651086 0
M  V30 294 H 30.1649 -0.276479 1.92929 0
M  V30 295 H 29.2609 -1.61087 2.67315 0
M  V30 296 N 29.562 -1.4872 -0.521534 0
M  V30 297 C 30.81 -1.56857 -1.27437 0
M  V30 298 C 31.131 -0.247982 -1.93417 0
M  V30 299 O 30.401 0.731151 -1.81744 0
M  V30 300 H 28.981 -0.577885 -0.473347 0
M  V30 301 H 31.643 -1.85233 -0.606205 0
M  V30 302 H 30.739 -2.35402 -2.0492 0
M  V30 303 N 31.0401 0.771051 -1.3745 0
M  V30 304 C 31.9701 1.89827 -1.3597 0
M  V30 305 C 32.9511 1.68562 -0.228216 0
M  V30 306 O 34.1361 1.8941 -0.428675 0
M  V30 307 C 31.2661 3.2712 -1.16662 0
M  V30 308 C 30.2201 3.6295 -2.2683 0
M  V30 309 C 29.5461 4.98791 -1.92644 0
M  V30 310 C 30.8461 3.69627 -3.69017 0
M  V30 311 H 32.5401 1.91323 -2.30295 0
M  V30 312 H 30.0861 0.919082 -1.10855 0
M  V30 313 H 32.0391 4.05615 -1.14256 0
M  V30 314 H 30.7631 3.26059 -0.187926 0
M  V30 315 H 29.4221 2.86763 -2.28392 0
M  V30 316 H 29.0701 4.94271 -0.933021 0
M  V30 317 H 28.7701 5.23733 -2.66416 0
M  V30 318 H 30.2941 5.79685 -1.91826 0
M  V30 319 H 31.7081 4.38273 -3.69581 0
M  V30 320 H 30.1051 4.06067 -4.41848 0
M  V30 321 H 31.1751 2.70273 -4.02592 0
M  V30 322 N 32.5182 1.22032 0.997298 0
M  V30 323 C 33.4812 0.987909 2.06816 0
M  V30 324 C 34.4812 -0.0440084 1.6074 0
M  V30 325 O 35.6712 0.194053 1.73116 0
M  V30 326 C 32.8032 0.49132 3.37341 0
M  V30 327 H 33.9962 1.93803 2.28868 0
M  V30 328 H 31.5492 1.03838 1.16822 0
M  V30 329 H 32.2842 -0.463364 3.20973 0
M  V30 330 H 32.0692 1.23575 3.72118 0
M  V30 331 H 33.5592 0.348824 4.16141 0
M  V30 332 N 33.9963 -1.19345 1.0293 0
M  V30 333 C 35.4123 -1.41069 0.746446 0
M  V30 334 C 35.6123 -1.90078 -0.668776 0
M  V30 335 O 34.6683 -2.0778 -1.4347 0
M  V30 336 C 35.9813 -2.42141 1.78292 0
M  V30 337 C 37.5293 -2.55887 1.80252 0
M  V30 338 C 38.0043 -3.60214 2.8286 0
M  V30 339 N 39.4953 -3.67711 2.81679 0
M  V30 340 C 40.2303 -4.48128 3.57727 0
M  V30 341 N 39.7263 -5.32248 4.43491 0
M  V30 342 N 41.5193 -4.42782 3.46267 0
M  V30 343 H 33.6703 -0.858536 1.94275 0
M  V30 344 H 35.9333 -0.439541 0.839945 0
M  V30 345 H 35.6393 -2.13155 2.79746 0
M  V30 346 H 35.5133 -3.41323 1.60557 0
M  V30 347 H 37.9003 -2.84196 0.794757 0
M  V30 348 H 37.9813 -1.56858 2.02062 0
M  V30 349 H 37.6253 -3.32647 3.83807 0
M  V30 350 H 37.5553 -4.58895 2.58307 0
M  V30 351 H 40.0463 -3.07634 2.19476 0
M  V30 352 H 40.3593 -5.90729 4.98256 0
M  V30 353 H 38.7043 -5.31707 4.47564 0
M  V30 354 H 41.8953 -3.76107 2.78677 0
M  V30 355 H 42.0683 -5.05215 4.05785 0
M  V30 356 N 35.4744 -0.807222 -1.35358 0
M  V30 357 C 36.4374 -0.223665 -2.28106 0
M  V30 358 C 37.4374 0.589354 -1.4961 0
M  V30 359 O 38.6274 0.407745 -1.69361 0
M  V30 360 C 35.7594 0.688149 -3.33882 0
M  V30 361 H 36.9524 -1.04169 -2.81227 0
M  V30 362 H 34.5054 -0.577921 -1.45223 0
M  V30 363 H 35.2404 1.52984 -2.85948 0
M  V30 364 H 35.0254 0.10687 -3.91954 0
M  V30 365 H 36.5154 1.09075 -4.03104 0
M  V30 366 N 36.9525 1.47285 -0.560781 0
M  V30 367 C 38.2005 2.02064 -0.0379868 0
M  V30 368 C 38.5215 1.43711 1.31803 0
M  V30 369 O 37.7915 0.61362 1.86042 0
M  V30 370 H 36.3715 0.746918 -0.0110531 0
M  V30 371 H 39.0335 1.80648 -0.731598 0
M  V30 372 H 38.1295 3.12064 0.0474463 0
M  V30 373 N 38.4306 0.297415 1.54768 0
M  V30 374 C 39.6786 -0.312295 1.99673 0
M  V30 375 C 39.9996 -1.54686 1.18732 0
M  V30 376 O 39.2696 -1.93854 0.282382 0
M  V30 377 H 37.8496 -0.118381 0.73756 0
M  V30 378 H 40.5116 0.407915 1.90583 0
M  V30 379 H 39.6076 -0.586813 3.06534 0
M  V30 380 N 39.9087 -1.5758 0.0250728 0
M  V30 381 C 41.1547 -1.91917 -0.655413 0
M  V30 382 C 41.4877 -0.901433 -1.72011 0
M  V30 383 O 40.7627 0.0764069 -1.9435 0
M  V30 384 C 41.0457 -3.36751 -1.27558 0
M  V30 385 C 40.8987 -4.49258 -0.220719 0
M  V30 386 C 42.2177 -3.81469 -2.19475 0
M  V30 387 H 39.3367 -0.697925 -0.23679 0
M  V30 388 H 41.9787 -1.89825 0.0815036 0
M  V30 389 H 40.1287 -3.38664 -1.90365 0
M  V30 390 H 41.8007 -4.59478 0.409601 0
M  V30 391 H 40.0437 -4.31415 0.454264 0
M  V30 392 H 40.7147 -5.47618 -0.694175 0
M  V30 393 H 43.1907 -3.81266 -1.66659 0
M  V30 394 H 42.0667 -4.83512 -2.59822 0
M  V30 395 H 42.3277 -3.16744 -3.08424 0
M  V30 396 N 41.3868 0.248026 -1.55636 0
M  V30 397 C 42.2968 1.32859 -1.93354 0
M  V30 398 C 43.3128 1.52719 -0.833838 0
M  V30 399 O 44.4888 1.66363 -1.13513 0
M  V30 400 C 41.5538 2.66337 -2.21958 0
M  V30 401 C 40.6148 2.55008 -3.45354 0
M  V30 402 C 39.8478 3.82121 -3.72584 0
M  V30 403 O 40.0708 4.83951 -3.01907 0
M  V30 404 O 39.0048 3.80822 -4.6611 0
M  V30 405 H 42.8308 1.03862 -2.85388 0
M  V30 406 H 40.4158 0.448686 -1.42503 0
M  V30 407 H 42.2978 3.45216 -2.4167 0
M  V30 408 H 40.9728 2.95068 -1.33103 0
M  V30 409 H 39.8798 1.7442 -3.30951 0
M  V30 410 H 41.2128 2.31222 -4.34508 0
M  V30 411 N 42.8649 1.48995 0.513639 0
M  V30 412 C 44.1109 1.58076 1.27042 0
M  V30 413 C 44.4439 0.261026 1.92438 0
M  V30 414 O 43.7189 -0.734393 1.80103 0
M  V30 415 C 44.0019 2.73091 2.34719 0
M  V30 416 C 43.8549 4.14821 1.73907 0
M  V30 417 C 45.1739 2.83796 3.36375 0
M  V30 418 H 42.2929 0.575391 0.460536 0
M  V30 419 H 44.9349 1.81232 0.570516 0
M  V30 420 H 43.0849 2.53479 2.94416 0
M  V30 421 H 44.7569 4.45917 1.18135 0
M  V30 422 H 42.9999 4.21058 1.0437 0
M  V30 423 H 43.6709 4.91147 2.51949 0
M  V30 424 H 46.1469 3.01611 2.86653 0
M  V30 425 H 45.0229 3.65971 4.09093 0
M  V30 426 H 45.2839 1.92624 3.9793 0
M  V30 427 N 44.343 -0.763751 1.37857 0
M  V30 428 C 45.253 -1.90817 1.36478 0
M  V30 429 C 46.269 -1.71997 0.263248 0
M  V30 430 O 47.445 -1.95095 0.499979 0
M  V30 431 C 44.51 -3.2605 1.17864 0
M  V30 432 C 43.571 -3.57467 2.3773 0
M  V30 433 C 42.804 -4.86249 2.19995 0
M  V30 434 O 43.027 -5.57884 1.18836 0
M  V30 435 O 41.961 -5.16911 3.08361 0
M  V30 436 H 45.787 -1.94933 2.32884 0
M  V30 437 H 43.372 -0.907619 1.1867 0
M  V30 438 H 45.254 -4.06924 1.09504 0
M  V30 439 H 43.929 -3.22769 0.245372 0
M  V30 440 H 42.836 -2.76796 2.51664 0
M  V30 441 H 44.169 -3.655 3.29652 0
M  V30 442 N 45.8211 -1.22559 -0.990812 0
M  V30 443 C 47.2321 -1.04791 -1.54518 0
M  V30 444 C 47.5831 0.387998 -1.92325 0
M  V30 445 O 46.7081 1.27328 -1.74976 0
M  V30 446 C 47.3031 -1.896 -2.80779 0
M  V30 447 C 45.8621 -1.76124 -3.32652 0
M  V30 448 C 45.0091 -1.8594 -2.05722 0
M  V30 449 H 47.9601 -1.36374 -0.811662 0
M  V30 450 H 47.9811 -1.41464 -3.53225 0
M  V30 451 H 47.4931 -2.94101 -2.53231 0
M  V30 452 H 45.5941 -0.743643 -3.65104 0
M  V30 453 H 45.7071 -2.58913 -4.03114 0
M  V30 454 H 44.0711 -1.29403 -2.19379 0
M  V30 455 H 44.8541 -2.91976 -1.80568 0
M  V30 456 N 47.2992 1.18797 -1.03562 0
M  V30 457 C 48.5472 1.88278 -0.734569 0
M  V30 458 C 48.8682 1.8043 0.739586 0
M  V30 459 O 48.1382 1.21925 1.53333 0
M  V30 460 H 46.7182 0.696991 -0.268725 0
M  V30 461 H 49.3802 1.44192 -1.31129 0
M  V30 462 H 48.4762 2.94443 -1.03489 0
M  V30 463 N 48.7773 0.814389 1.34928 0
M  V30 464 C 50.0253 0.397636 1.9815 0
M  V30 465 C 50.3463 -1.04069 1.64908 0
M  V30 466 O 49.6163 -1.72121 0.93548 0
M  V30 467 H 48.1963 0.144043 0.732981 0
M  V30 468 H 50.8583 1.04195 1.6471 0
M  V30 469 H 49.9543 0.509688 3.0791 0
M  V30 470 N 50.2554 -1.46986 0.568584 0
M  V30 471 C 51.2184 -2.28624 -0.162366 0
M  V30 472 C 52.2184 -1.37596 -0.832103 0
M  V30 473 O 53.4084 -1.60115 -0.68622 0
M  V30 474 C 50.5404 -3.17596 -1.23878 0
M  V30 475 H 51.7334 -2.94722 0.554899 0
M  V30 476 H 49.2864 -1.52863 0.325976 0
M  V30 477 H 50.0214 -2.56214 -1.98808 0
M  V30 478 H 49.8064 -3.846 -0.763219 0
M  V30 479 H 51.2964 -3.79078 -1.75185 0
M  V30 480 N 51.7335 -0.305618 -1.54608 0
M  V30 481 C 52.6835 0.583595 -2.20405 0
M  V30 482 C 53.6675 1.09539 -1.17856 0
M  V30 483 O 54.8595 1.0354 -1.43557 0
M  V30 484 C 51.9885 1.75277 -2.95183 0
M  V30 485 C 51.0745 1.25672 -4.05052 0
M  V30 486 N 51.4655 0.478998 -5.03527 0
M  V30 487 C 49.7635 1.53704 -4.18678 0
M  V30 488 C 50.4645 0.214269 -5.81305 0
M  V30 489 N 49.4405 0.795374 -5.3775 0
M  V30 490 H 53.2425 -0.0180946 -2.93894 0
M  V30 491 H 50.7565 -0.110601 -1.62023 0
M  V30 492 H 52.7535 2.4014 -3.40791 0
M  V30 493 H 51.4135 2.35812 -2.23211 0
M  V30 494 H 52.4245 0.123473 -5.17753 0
M  V30 495 H 49.1015 2.14954 -3.57912 0
M  V30 496 H 50.4915 -0.410656 -6.70644 0
M  V30 497 N 53.2116 1.57565 -0.0334293 0
M  V30 498 C 54.4596 1.91598 0.642999 0
M  V30 499 C 54.7806 0.910847 1.7242 0
M  V30 500 O 54.0506 -0.0469931 1.95844 0
M  V30 501 H 52.6306 0.707228 0.240496 0
M  V30 502 H 55.2926 1.94726 -0.0822488 0
M  V30 503 H 54.3886 2.92336 1.09298 0
M  V30 504 N 54.6897 -0.239769 1.55765 0
M  V30 505 C 55.5997 -1.31831 1.94056 0
M  V30 506 C 56.6157 -1.52275 0.841925 0
M  V30 507 O 57.7917 -1.65759 1.14394 0
M  V30 508 C 54.8567 -2.65156 2.23368 0
M  V30 509 C 53.9177 -2.53173 3.46701 0
M  V30 510 C 53.1507 -3.8014 3.74606 0
M  V30 511 O 53.3737 -4.82343 3.04469 0
M  V30 512 O 52.3077 -3.78344 4.68123 0
M  V30 513 H 56.1337 -1.02347 2.85935 0
M  V30 514 H 53.7187 -0.441123 1.42739 0
M  V30 515 H 55.6007 -3.43929 2.43497 0
M  V30 516 H 54.2757 -2.94358 1.34666 0
M  V30 517 H 53.1827 -1.72662 3.31871 0
M  V30 518 H 54.5157 -2.28915 4.35728 0
M  V30 519 N 56.1678 -1.49265 -0.50573 0
M  V30 520 C 57.3928 -1.62478 -1.28902 0
M  V30 521 C 57.8178 -0.294332 -1.85783 0
M  V30 522 O 57.1758 0.737412 -1.65626 0
M  V30 523 C 57.2238 -2.69268 -2.39848 0
M  V30 524 O 56.3278 -2.28113 -3.43567 0
M  V30 525 H 55.6688 -0.54399 -0.380751 0
M  V30 526 H 58.1988 -1.95421 -0.605952 0
M  V30 527 H 58.2088 -2.91291 -2.85681 0
M  V30 528 H 56.8838 -3.65846 -1.97812 0
M  V30 529 H 55.4608 -2.16401 -3.03685 0
M  V30 530 N 57.6459 0.756429 -1.3826 0
M  V30 531 C 58.8939 1.51248 -1.34047 0
M  V30 532 C 59.2149 1.94875 0.0698372 0
M  V30 533 O 58.4849 1.67436 1.01696 0
M  V30 534 H 57.0649 0.561018 -0.493222 0
M  V30 535 H 59.7269 0.899347 -1.7291 0
M  V30 536 H 58.8229 2.40472 -1.98947 0
M  V30 537 N 59.124 1.23083 0.984299 0
M  V30 538 C 60.372 1.05848 1.72165 0
M  V30 539 C 60.693 -0.406049 1.90726 0
M  V30 540 O 59.963 -1.29139 1.47309 0
M  V30 541 H 58.543 0.388685 0.637913 0
M  V30 542 H 61.205 1.54736 1.18503 0
M  V30 543 H 60.301 1.54327 2.71274 0
M  V30 544 N 60.6021 -1.18246 1.0419 0
M  V30 545 C 61.8491 -1.88257 0.746017 0
M  V30 546 C 62.1771 -1.80429 -0.726331 0
M  V30 547 O 61.4321 -1.2 -1.54591 0
M  V30 548 C 61.7311 -3.38082 1.15911 0
M  V30 549 C 61.3971 -3.66114 2.63195 0
M  V30 550 C 60.0591 -3.73474 3.03432 0
M  V30 551 C 62.4111 -3.78398 3.5842 0
M  V30 552 C 59.7391 -3.90599 4.37778 0
M  V30 553 C 62.0911 -3.97039 4.92487 0
M  V30 554 C 60.7551 -4.02635 5.32392 0
M  V30 555 H 60.0251 -0.688883 0.272987 0
M  V30 556 H 62.6721 -1.3995 1.30715 0
M  V30 557 H 60.9771 -3.88377 0.516806 0
M  V30 558 H 62.6741 -3.90596 0.907516 0
M  V30 559 H 59.2641 -3.61003 2.3103 0
M  V30 560 H 63.4481 -3.72042 3.28479 0
M  V30 561 H 58.7041 -3.93175 4.68213 0
M  V30 562 H 62.8781 -4.05486 5.66175 0
M  V30 563 H 60.5051 -4.15657 6.36501 0
M  V30 564 N 62.0802 -0.821533 -1.34494 0
M  V30 565 C 63.0122 -0.199946 -2.28326 0
M  V30 566 C 64.0252 0.609377 -1.50965 0
M  V30 567 O 65.2142 0.439285 -1.7301 0
M  V30 568 C 62.3142 0.738431 -3.30757 0
M  V30 569 C 61.4872 -0.0277632 -4.37391 0
M  V30 570 C 60.5462 0.831332 -5.19591 0
M  V30 571 O 59.5722 0.276822 -5.68526 0
M  V30 572 N 60.7742 2.15132 -5.39165 0
M  V30 573 H 63.5392 -1.00609 -2.82308 0
M  V30 574 H 61.1002 -0.678366 -1.47003 0
M  V30 575 H 63.0922 1.31773 -3.82646 0
M  V30 576 H 61.6622 1.44533 -2.7718 0
M  V30 577 H 60.8822 -0.788359 -3.86236 0
M  V30 578 H 62.1702 -0.555251 -5.05761 0
M  V30 579 H 61.5682 2.62559 -5.01078 0
M  V30 580 H 60.1252 2.6795 -5.94177 0
M  V30 581 N 63.5583 1.46682 -0.576371 0
M  V30 582 C 64.8043 2.02712 -0.0596221 0
M  V30 583 C 65.1373 1.44765 1.29448 0
M  V30 584 O 64.4123 0.610355 1.84675 0
M  V30 585 C 64.6953 3.60098 0.0129503 0
M  V30 586 C 64.5483 4.28441 -1.3696 0
M  V30 587 C 65.8673 4.34224 0.71678 0
M  V30 588 H 62.9863 0.736637 -0.0231407 0
M  V30 589 H 65.6283 1.74898 -0.742351 0
M  V30 590 H 63.7783 3.83926 0.594378 0
M  V30 591 H 65.4503 4.15896 -1.9957 0
M  V30 592 H 63.6933 3.8805 -1.93907 0
M  V30 593 H 64.3643 5.3716 -1.27135 0
M  V30 594 H 66.8403 4.15503 0.222908 0
M  V30 595 H 65.7163 5.43936 0.73657 0
M  V30 596 H 65.9773 4.04823 1.77682 0
M  V30 597 N 65.0364 0.313813 1.54444 0
M  V30 598 C 66.2824 -0.292108 2.00685 0
M  V30 599 C 66.6154 -1.52548 1.20177 0
M  V30 600 O 65.8904 -1.92452 0.281531 0
M  V30 601 C 66.1734 -0.635968 3.5444 0
M  V30 602 C 66.0264 0.607437 4.4568 0
M  V30 603 C 67.3454 -1.45747 4.15266 0
M  V30 604 H 64.4644 -0.104697 0.729526 0
M  V30 605 H 67.1064 0.428457 1.85106 0
M  V30 606 H 65.2564 -1.24986 3.67846 0
M  V30 607 H 66.9284 1.24581 4.44159 0
M  V30 608 H 65.1714 1.23822 4.15753 0
M  V30 609 H 65.8424 0.322515 5.51057 0
M  V30 610 H 68.3184 -0.938645 4.05375 0
M  V30 611 H 67.1944 -1.66683 5.2298 0
M  V30 612 H 67.4554 -2.45063 3.67963 0
M  V30 613 N 66.5145 -1.57545 0.0417849 0
M  V30 614 C 67.7425 -1.96624 -0.643928 0
M  V30 615 C 68.1575 -0.918897 -1.64929 0
M  V30 616 O 67.5145 0.0979323 -1.82237 0
M  V30 617 C 67.5655 -3.35781 -1.33914 0
M  V30 618 O 67.2865 -4.365 -0.374048 0
M  V30 619 C 68.7875 -3.89566 -2.1155 0
M  V30 620 H 66.0075 -0.647316 -0.176702 0
M  V30 621 H 68.5515 -2.04229 0.105304 0
M  V30 622 H 66.7065 -3.29357 -2.03968 0
M  V30 623 H 67.1205 -5.17248 -0.869179 0
M  V30 624 H 68.5945 -4.89242 -2.55628 0
M  V30 625 H 69.0715 -3.24488 -2.9598 0
M  V30 626 H 69.6775 -3.99298 -1.46427 0
M  V30 627 N 67.9926 0.231505 -1.5589 0
M  V30 628 C 69.2396 0.957352 -1.78441 0
M  V30 629 C 69.5676 1.84726 -0.60882 0
M  V30 630 O 68.8226 1.91416 0.40725 0
M  V30 631 C 69.1216 1.83577 -3.0665 0
M  V30 632 C 68.7876 1.09993 -4.37278 0
M  V30 633 C 67.4496 0.896629 -4.72773 0
M  V30 634 C 69.8016 0.579558 -5.17968 0
M  V30 635 C 67.1296 0.160896 -5.86479 0
M  V30 636 C 69.4816 -0.142783 -6.32439 0
M  V30 637 C 68.1456 -0.357427 -6.66542 0
M  V30 638 H 67.4156 0.35032 -0.65296 0
M  V30 639 H 70.0626 0.226259 -1.90159 0
M  V30 640 H 68.3676 2.63441 -2.90011 0
M  V30 641 H 70.0646 2.39934 -3.21298 0
M  V30 642 H 66.6546 1.26835 -4.09403 0
M  V30 643 H 70.8386 0.724125 -4.90989 0
M  V30 644 H 66.0946 -0.0157293 -6.11398 0
M  V30 645 H 70.2686 -0.553559 -6.94196 0
M  V30 646 H 67.8956 -0.929466 -7.54497 0
M  V30 647 N 69.4707 1.49531 0.497807 0
M  V30 648 C 70.3807 1.69176 1.62532 0
M  V30 649 C 71.3967 0.5744 1.64246 0
M  V30 650 O 72.5727 0.849497 1.82608 0
M  V30 651 C 69.6377 1.75695 2.98885 0
M  V30 652 C 68.6987 2.9929 3.07773 0
M  V30 653 C 67.9317 3.05488 4.37622 0
M  V30 654 O 68.1547 2.19192 5.26603 0
M  V30 655 O 67.0887 3.9798 4.51548 0
M  V30 656 H 70.9147 2.647 1.48887 0
M  V30 657 H 68.4997 1.3331 0.674441 0
M  V30 658 H 70.3817 1.82317 3.79919 0
M  V30 659 H 69.0567 0.8335 3.12785 0
M  V30 660 H 67.9637 2.98183 2.25915 0
M  V30 661 H 69.2967 3.91125 2.98801 0
M  V30 662 N 70.9488 -0.749086 1.3866 0
M  V30 663 C 72.1948 -1.50959 1.36319 0
M  V30 664 C 72.5498 -1.92347 -0.0452451 0
M  V30 665 O 71.8428 -1.6289 -1.00884 0
M  V30 666 C 72.0368 -2.7712 2.25697 0
M  V30 667 C 71.8658 -2.48067 3.7509 0
M  V30 668 C 70.6358 -2.41062 4.44091 0
M  V30 669 C 72.8338 -2.14544 4.67414 0
M  V30 670 N 70.8158 -2.04331 5.78897 0
M  V30 671 C 72.1868 -1.88141 5.90765 0
M  V30 672 C 74.2418 -2.00892 4.55573 0
M  V30 673 C 72.9448 -1.49463 7.036 0
M  V30 674 C 74.9708 -1.63616 5.68317 0
M  V30 675 C 74.3328 -1.38088 6.90732 0
M  V30 676 H 70.4318 -0.551804 0.554108 0
M  V30 677 H 73.0158 -0.871886 1.74087 0
M  V30 678 H 71.1868 -3.38693 1.9011 0
M  V30 679 H 72.9188 -3.4321 2.1445 0
M  V30 680 H 69.6738 -2.57685 3.9736 0
M  V30 681 H 70.0978 -1.88598 6.502 0
M  V30 682 H 74.7398 -2.19301 3.61479 0
M  V30 683 H 72.4578 -1.29794 7.97608 0
M  V30 684 H 76.0438 -1.53678 5.61137 0
M  V30 685 H 74.9238 -1.09674 7.76493 0
M  V30 686 N 72.4269 -1.23603 -0.977757 0
M  V30 687 C 73.3899 -1.02069 -2.05218 0
M  V30 688 C 74.3899 0.0184305 -1.60789 0
M  V30 689 O 75.5799 -0.221569 -1.72785 0
M  V30 690 C 72.7119 -0.544926 -3.36517 0
M  V30 691 H 73.9049 -1.9742 -2.25755 0
M  V30 692 H 71.4579 -1.05684 -1.15155 0
M  V30 693 H 72.1929 0.412241 -3.21669 0
M  V30 694 H 71.9779 -1.2948 -3.70105 0
M  V30 695 H 73.4679 -0.414985 -4.15533 0
M  V30 696 N 73.905 1.17692 -1.04816 0
M  V30 697 C 74.855 2.1952 -0.616042 0
M  V30 698 C 75.839 1.57147 0.345485 0
M  V30 699 O 77.031 1.76245 0.163325 0
M  V30 700 C 74.16 3.43298 0.0116917 0
M  V30 701 C 73.246 4.12777 -0.973435 0
M  V30 702 N 73.637 4.5814 -2.14339 0
M  V30 703 C 71.935 4.38747 -0.80108 0
M  V30 704 C 72.636 5.11713 -2.7663 0
M  V30 705 N 71.612 5.03686 -2.04453 0
M  V30 706 H 75.414 2.52293 -1.5075 0
M  V30 707 H 72.928 1.3398 -0.917776 0
M  V30 708 H 74.925 4.15519 0.339006 0
M  V30 709 H 73.585 3.12018 0.898593 0
M  V30 710 H 74.596 4.52349 -2.52191 0
M  V30 711 H 71.273 4.17485 0.0350934 0
M  V30 712 H 72.663 5.56962 -3.75823 0
M  V30 713 N 75.3831 0.828654 1.34056 0
M  V30 714 C 76.6291 0.42008 1.98402 0
M  V30 715 C 76.9621 -1.01564 1.65525 0
M  V30 716 O 76.2371 -1.70834 0.929831 0
M  V30 717 C 76.5201 0.62927 3.54559 0
M  V30 718 C 76.3731 2.11152 3.97159 0
M  V30 719 C 77.6921 0.0688756 4.40046 0
M  V30 720 H 74.8111 0.154104 0.720709 0
M  V30 721 H 77.4531 1.04228 1.5886 0
M  V30 722 H 75.6031 0.0996418 3.88372 0
M  V30 723 H 77.2751 2.70522 3.73651 0
M  V30 724 H 75.5181 2.59985 3.47261 0
M  V30 725 H 76.1891 2.20868 5.05887 0
M  V30 726 H 78.6651 0.521458 4.1282 0
M  V30 727 H 77.5411 0.245006 5.48353 0
M  V30 728 H 77.8021 -1.0266 4.30015 0
M  V30 729 N 76.8612 -1.46375 0.584142 0
M  V30 730 C 77.7932 -2.28443 -0.186119 0
M  V30 731 C 78.8062 -1.38596 -0.854115 0
M  V30 732 O 79.9952 -1.63183 -0.723438 0
M  V30 733 C 77.0952 -3.13671 -1.28311 0
M  V30 734 C 76.2682 -4.31652 -0.706758 0
M  V30 735 C 75.3272 -4.98267 -1.69163 0
M  V30 736 O 74.3532 -5.55815 -1.22712 0
M  V30 737 N 75.5552 -4.95408 -3.02575 0
M  V30 738 H 78.3202 -2.9519 0.517986 0
M  V30 739 H 75.8812 -1.56303 0.42201 0
M  V30 740 H 77.8732 -3.55101 -1.94128 0
M  V30 741 H 76.4432 -2.48989 -1.89005 0
M  V30 742 H 75.6632 -3.93989 0.128908 0
M  V30 743 H 76.9512 -5.07906 -0.301506 0
M  V30 744 H 76.3492 -4.49902 -3.42936 0
M  V30 745 H 74.9062 -5.40774 -3.63877 0
M  V30 746 N 78.3393 -0.321999 -1.54275 0
M  V30 747 C 79.6163 0.335232 -1.92706 0
M  V30 748 C 79.9963 1.70006 -1.25145 0
M  V30 749 O 79.3443 2.25067 -0.394596 0
M  V30 750 C 79.5543 0.429008 -3.46353 0
M  V30 751 C 80.9023 0.690029 -4.18956 0
M  V30 752 O 81.9263 0.511992 -3.52501 0
M  V30 753 O 80.7853 1.03338 -5.36641 0
M  V30 754 H 77.8793 0.191143 -0.804608 0
M  V30 755 H 80.4253 -0.3716 -1.65581 0
M  V30 756 H 79.1973 -0.529611 -3.87699 0
M  V30 757 H 78.8203 1.18348 -3.79578 0
M  V30 758 N 79.8174 1.5752 -0.0501392 0
M  V30 759 C 81.2284 1.80271 0.485705 0
M  V30 760 C 81.5794 0.96228 1.70981 0
M  V30 761 O 80.7044 0.178578 2.15662 0
M  V30 762 C 81.2994 3.26957 0.887938 0
M  V30 763 C 79.8584 3.5063 1.36877 0
M  V30 764 C 79.0054 2.75165 0.343468 0
M  V30 765 H 81.9564 1.56281 -0.276028 0
M  V30 766 H 81.9774 3.37821 1.75093 0
M  V30 767 H 81.4894 3.881 -0.0031809 0
M  V30 768 H 79.5904 2.94766 2.27911 0
M  V30 769 H 79.7034 4.59343 1.36164 0
M  V30 770 H 78.0674 2.4127 0.816128 0
M  V30 771 H 78.8504 3.39034 -0.539548 0
M  V30 772 N 81.2955 -0.223234 1.56011 0
M  V30 773 C 82.5255 -0.963413 1.82762 0
M  V30 774 C 82.9335 -1.78516 0.626804 0
M  V30 775 O 82.2765 -1.78974 -0.414014 0
M  V30 776 C 82.3385 -1.93126 3.0322 0
M  V30 777 C 82.0025 -1.2942 4.38291 0
M  V30 778 C 82.9995 -0.684916 5.15369 0
M  V30 779 C 80.6845 -1.30647 4.85012 0
M  V30 780 C 82.6785 -0.0963971 6.37327 0
M  V30 781 C 80.3655 -0.71411 6.06913 0
M  V30 782 C 81.3635 -0.110123 6.82911 0
M  V30 783 O 81.0515 0.47303 8.02507 0
M  V30 784 H 80.7835 -0.288011 0.611576 0
M  V30 785 H 83.3375 -0.244103 2.03944 0
M  V30 786 H 81.5675 -2.68952 2.77852 0
M  V30 787 H 83.2565 -2.53685 3.16857 0
M  V30 788 H 84.0225 -0.667774 4.80381 0
M  V30 789 H 79.9015 -1.76598 4.25833 0
M  V30 790 H 83.4455 0.375657 6.96588 0
M  V30 791 H 79.3425 -0.728659 6.41374 0
M  V30 792 H 80.1105 0.367186 8.17676 0
M  V30 793 N 82.7736 -1.49793 -0.48987 0
M  V30 794 C 84.0196 -1.60078 -1.24511 0
M  V30 795 C 84.3526 -0.291608 -1.91998 0
M  V30 796 O 83.6276 0.705647 -1.81248 0
M  V30 797 C 83.9106 -2.76791 -2.30345 0
M  V30 798 C 83.7636 -4.17535 -1.67286 0
M  V30 799 C 85.0826 -2.89111 -3.31817 0
M  V30 800 H 82.2016 -0.582645 -0.451324 0
M  V30 801 H 84.8436 -1.82117 -0.541612 0
M  V30 802 H 82.9936 -2.5813 -2.90346 0
M  V30 803 H 84.6656 -4.4774 -1.11026 0
M  V30 804 H 82.9086 -4.22665 -0.976577 0
M  V30 805 H 83.5796 -4.95094 -2.44103 0
M  V30 806 H 86.0556 -3.06133 -2.81819 0
M  V30 807 H 84.9316 -3.72433 -4.03219 0
M  V30 808 H 85.1926 -1.9893 -3.94815 0
M  V30 809 N 84.2517 0.741722 -1.39055 0
M  V30 810 C 85.5007 1.49656 -1.35225 0
M  V30 811 C 85.8137 1.95533 0.0512708 0
M  V30 812 O 87.0197 2.7067 0.212138 0
M  V30 813 C 85.4757 2.70389 -2.37525 0
M  V30 814 C 85.0837 2.31489 -3.83558 0
M  V30 815 C 86.8277 3.48236 -2.42759 0
M  V30 816 C 84.7347 3.48903 -4.77515 0
M  V30 817 H 83.6647 0.56197 -0.502699 0
M  V30 818 H 86.3157 0.809727 -1.64668 0
M  V30 819 H 84.6977 3.41113 -2.01142 0
M  V30 820 H 85.8717 1.68354 -4.28945 0
M  V30 821 H 84.1867 1.66749 -3.81554 0
M  V30 822 H 86.7837 4.35558 -3.1015 0
M  V30 823 H 87.1267 3.90229 -1.45008 0
M  V30 824 H 87.6597 2.84535 -2.78002 0
M  V30 825 H 84.3987 3.11966 -5.76504 0
M  V30 826 H 83.9187 4.11041 -4.36813 0
M  V30 827 H 85.5977 4.15328 -4.96096 0
M  V30 828 N 85.7298 1.2412 0.971189 0
M  V30 829 C 86.6928 1.03156 2.04674 0
M  V30 830 C 87.6928 -0.00990322 1.60797 0
M  V30 831 O 88.8828 0.230729 1.72665 0
M  V30 832 C 86.0148 0.562765 3.36223 0
M  V30 833 H 87.2078 1.98614 2.24705 0
M  V30 834 H 84.7608 1.06293 1.14593 0
M  V30 835 H 85.4958 -0.395176 3.21883 0
M  V30 836 H 85.2808 1.31441 3.69413 0
M  V30 837 H 86.7708 0.437015 4.15307 0
M  V30 838 N 87.2079 -1.17134 1.05439 0
M  V30 839 C 88.1379 -2.2342 0.678649 0
M  V30 840 C 89.1189 -1.66971 -0.32476 0
M  V30 841 O 90.3039 -1.93149 -0.201802 0
M  V30 842 C 87.4339 -3.47256 0.0552099 0
M  V30 843 C 86.3879 -4.16543 0.98365 0
M  V30 844 C 85.7139 -5.34231 0.223961 0
M  V30 845 C 87.0139 -4.68495 2.3089 0
M  V30 846 H 88.7079 -2.55105 1.56722 0
M  V30 847 H 86.2539 -1.2262 0.754998 0
M  V30 848 H 88.2069 -4.20828 -0.21946 0
M  V30 849 H 86.9309 -3.14846 -0.868319 0
M  V30 850 H 85.5899 -3.44887 1.24293 0
M  V30 851 H 85.2379 -4.98071 -0.702412 0
M  V30 852 H 84.9379 -5.81527 0.842627 0
M  V30 853 H 86.4619 -6.10585 -0.0433671 0
M  V30 854 H 87.8759 -5.33691 2.09396 0
M  V30 855 H 86.2729 -5.26379 2.88176 0
M  V30 856 H 87.3429 -3.85169 2.94572 0
M  V30 857 N 88.686 -0.835752 -1.33615 0
M  V30 858 C 89.932 -0.439817 -1.98588 0
M  V30 859 C 90.287 0.989274 -1.65019 0
M  V30 860 O 89.58 1.68168 -0.918159 0
M  V30 861 C 89.774 -0.593925 -3.52431 0
M  V30 862 C 89.603 -2.03644 -4.00948 0
M  V30 863 C 88.373 -2.67103 -4.28934 0
M  V30 864 C 90.571 -3.00479 -4.17393 0
M  V30 865 N 88.553 -4.02462 -4.6357 0
M  V30 866 C 89.924 -4.20777 -4.55353 0
M  V30 867 C 91.979 -2.96926 -3.99674 0
M  V30 868 C 90.682 -5.37994 -4.77447 0
M  V30 869 C 92.708 -4.1337 -4.22941 0
M  V30 870 C 92.07 -5.32422 -4.61201 0
M  V30 871 H 88.169 -0.209303 -0.75347 0
M  V30 872 H 90.753 -1.08316 -1.61789 0
M  V30 873 H 88.924 0.019599 -3.88395 0
M  V30 874 H 90.656 -0.169738 -4.04344 0
M  V30 875 H 87.411 -2.18259 -4.20309 0
M  V30 876 H 87.835 -4.72232 -4.85104 0
M  V30 877 H 92.477 -2.06015 -3.69212 0
M  V30 878 H 90.195 -6.29451 -5.06771 0
M  V30 879 H 93.781 -4.12034 -4.10754 0
M  V30 880 H 92.661 -6.21027 -4.78848 0
M  V30 881 N 90.1641 1.46063 -0.591896 0
M  V30 882 C 91.4131 2.01547 -0.0786637 0
M  V30 883 C 91.7261 1.46796 1.29268 0
M  V30 884 O 92.9321 1.94157 1.89777 0
M  V30 885 C 91.3881 3.59787 -0.0900024 0
M  V30 886 C 90.9961 4.23534 -1.46023 0
M  V30 887 C 92.7401 4.22895 0.368806 0
M  V30 888 C 90.6471 5.73881 -1.4288 0
M  V30 889 H 89.5771 0.753564 -0.0256388 0
M  V30 890 H 92.2281 1.677 -0.744905 0
M  V30 891 H 90.6101 3.90752 0.642586 0
M  V30 892 H 91.7841 4.04167 -2.21328 0
M  V30 893 H 90.0991 3.72558 -1.85982 0
M  V30 894 H 92.6961 5.33116 0.411258 0
M  V30 895 H 93.0391 3.9247 1.38827 0
M  V30 896 H 93.5721 3.9659 -0.31001 0
M  V30 897 H 90.3111 6.0898 -2.42536 0
M  V30 898 H 89.8311 5.95486 -0.718095 0
M  V30 899 H 91.5101 6.36776 -1.14565 0
M  V30 900 N 91.6422 0.330177 1.54103 0
M  V30 901 C 92.5722 -0.525353 2.27513 0
M  V30 902 C 93.5532 -1.11383 1.2856 0
M  V30 903 O 94.7382 -1.13773 1.57383 0
M  V30 904 C 91.8682 -1.6831 3.03791 0
M  V30 905 C 90.8222 -1.2236 4.10137 0
M  V30 906 C 90.1482 -2.46882 4.74293 0
M  V30 907 C 91.4482 -0.333697 5.21233 0
M  V30 908 H 93.1422 0.087013 2.99274 0
M  V30 909 H 90.6882 0.0432893 1.43935 0
M  V30 910 H 92.6412 -2.28795 3.5388 0
M  V30 911 H 91.3652 -2.32216 2.29659 0
M  V30 912 H 90.0242 -0.64165 3.60941 0
M  V30 913 H 89.6722 -3.09165 3.96769 0
M  V30 914 H 89.3722 -2.16825 5.46133 0
M  V30 915 H 90.8962 -3.08117 5.27159 0
M  V30 916 H 92.3102 -0.845013 5.67038 0
M  V30 917 H 90.7072 -0.125612 5.99969 0
M  V30 918 H 91.7772 0.633724 4.80741 0
M  V30 919 N 93.1203 -1.57491 0.0584922 0
M  V30 920 C 94.3663 -1.93264 -0.614558 0
M  V30 921 C 94.6993 -0.937717 -1.7006 0
M  V30 922 O 93.9743 0.0351652 -1.94468 0
M  V30 923 C 94.2573 -3.3938 -1.20386 0
M  V30 924 C 94.1103 -4.49625 -0.125375 0
M  V30 925 C 95.4293 -3.86039 -2.11334 0
M  V30 926 H 92.5483 -0.702791 -0.221933 0
M  V30 927 H 95.1903 -1.8961 0.12175 0
M  V30 928 H 93.3403 -3.42626 -1.83139 0
M  V30 929 H 95.0123 -4.58506 0.506971 0
M  V30 930 H 93.2553 -4.30354 0.545672 0
M  V30 931 H 93.9263 -5.48967 -0.577861 0
M  V30 932 H 96.4023 -3.84716 -1.58534 0
M  V30 933 H 95.2783 -4.88914 -2.49507 0
M  V30 934 H 95.5393 -3.23215 -3.01636 0
M  V30 935 N 94.5984 0.214957 -1.56127 0
M  V30 936 C 95.5614 1.24997 -1.92116 0
M  V30 937 C 96.5614 1.39467 -0.800344 0
M  V30 938 O 97.7514 1.37619 -1.06802 0
M  V30 939 C 94.8834 2.62271 -2.17777 0
M  V30 940 H 96.0764 0.942875 -2.84693 0
M  V30 941 H 93.6294 0.455654 -1.49511 0
M  V30 942 H 94.3644 2.98068 -1.27773 0
M  V30 943 H 94.1494 2.53143 -2.99434 0
M  V30 944 H 95.6394 3.36946 -2.46693 0
M  V30 945 N 96.0765 1.50051 0.48192 0
M  V30 946 C 97.3015 1.64508 1.26301 0
M  V30 947 C 97.7265 0.323851 1.85291 0
M  V30 948 O 97.0845 -0.710969 1.66778 0
M  V30 949 C 97.1325 2.7305 2.35533 0
M  V30 950 O 96.2365 2.3355 3.39895 0
M  V30 951 H 95.5775 0.549978 0.372048 0
M  V30 952 H 98.1075 1.9636 0.574786 0
M  V30 953 H 98.1175 2.95799 2.8101 0
M  V30 954 H 96.7925 3.68946 1.91967 0
M  V30 955 H 95.3695 2.21205 3.00204 0
M  V30 956 N 97.5546 -0.734337 1.39446 0
M  V30 957 C 98.4846 -1.86155 1.40955 0
M  V30 958 C 99.4656 -1.67898 0.272827 0
M  V30 959 O 100.651 -1.88207 0.478743 0
M  V30 960 C 97.7806 -3.23912 1.25294 0
M  V30 961 C 96.7346 -3.56808 2.36373 0
M  V30 962 C 96.0606 -4.93508 2.058 0
M  V30 963 C 97.3606 -3.59713 3.78687 0
M  V30 964 H 99.0546 -1.8515 2.35287 0
M  V30 965 H 96.6006 -0.889367 1.13253 0
M  V30 966 H 98.5536 -4.02443 1.2497 0
M  V30 967 H 97.2776 -3.25446 0.274308 0
M  V30 968 H 95.9366 -2.80606 2.35914 0
M  V30 969 H 95.5846 -4.91623 1.06374 0
M  V30 970 H 95.2846 -5.16486 2.80208 0
M  V30 971 H 96.8086 -5.74396 2.07128 0
M  V30 972 H 98.2226 -4.2832 3.81071 0
M  V30 973 H 96.6196 -3.94209 4.52459 0
M  V30 974 H 97.6896 -2.59504 4.09617 0
M  V30 975 N 99.0327 -1.24633 -0.964593 0
M  V30 976 C 99.9957 -1.0424 -2.04124 0
M  V30 977 C 100.996 0.00137563 -1.608 0
M  V30 978 O 102.186 -0.239883 -1.7254 0
M  V30 979 C 99.3177 -0.580588 -3.3592 0
M  V30 980 H 100.511 -1.99803 -2.23649 0
M  V30 981 H 98.0637 -1.06899 -1.14027 0
M  V30 982 H 98.7987 0.3781 -3.22088 0
M  V30 983 H 98.5837 -1.33398 -3.6871 0
M  V30 984 H 100.074 -0.459034 -4.15069 0
M  V30 985 N 100.511 1.16574 -1.06058 0
M  V30 986 C 101.458 2.20883 -0.669263 0
M  V30 987 C 102.428 1.62729 0.332918 0
M  V30 988 O 103.613 1.895 0.222346 0
M  V30 989 C 100.753 3.45049 -0.0593572 0
M  V30 990 C 99.8658 4.17458 -1.11143 0
M  V30 991 C 99.0008 5.29135 -0.467916 0
M  V30 992 C 98.0398 5.93343 -1.50369 0
M  V30 993 N 97.1768 6.96516 -0.883706 0
M  V30 994 H 102.017 2.53709 -1.5632 0
M  V30 995 H 99.5538 1.24616 -0.781625 0
M  V30 996 H 101.512 4.16033 0.311771 0
M  V30 997 H 100.142 3.12781 0.797992 0
M  V30 998 H 99.1938 3.45101 -1.60029 0
M  V30 999 H 100.506 4.61307 -1.89731 0
M  V30 1000 H 99.6598 6.06684 -0.0436871 0
M  V30 1001 H 98.3988 4.86443 0.349864 0
M  V30 1002 H 97.4038 5.14517 -1.93784 0
M  V30 1003 H 98.6288 6.38114 -2.32352 0
M  V30 1004 H 96.5748 6.55943 -0.086595 0
M  V30 1005 H 96.4918 7.38723 -1.607 0
M  V30 1006 H 97.7598 7.77993 -0.484543 0
M  V30 1007 N 101.989 0.842826 1.3317 0
M  V30 1008 C 103.238 0.436738 1.96915 0
M  V30 1009 C 103.551 -1.01025 1.67491 0
M  V30 1010 O 104.757 -1.5212 2.24881 0
M  V30 1011 C 103.213 0.730021 3.52418 0
M  V30 1012 C 102.821 2.19195 3.90714 0
M  V30 1013 C 104.565 0.391076 4.22695 0
M  V30 1014 C 102.472 2.42907 5.39212 0
M  V30 1015 H 101.402 0.15958 0.736919 0
M  V30 1016 H 104.053 1.03196 1.51733 0
M  V30 1017 H 102.435 0.0643755 3.95948 0
M  V30 1018 H 103.609 2.8984 3.58231 0
M  V30 1019 H 101.924 2.49425 3.33431 0
M  V30 1020 H 104.521 0.545817 5.31907 0
M  V30 1021 H 104.864 -0.666294 4.10933 0
M  V30 1022 H 105.397 1.01212 3.84709 0
M  V30 1023 H 102.136 3.47224 5.55982 0
M  V30 1024 H 101.656 1.76827 5.73142 0
M  V30 1025 H 103.335 2.2626 6.06148 0
M  V30 1026 N 103.467 -1.45747 0.599634 0
M  V30 1027 C 104.715 -2.01893 0.0915472 0
M  V30 1028 C 105.036 -1.47155 -1.27946 0
M  V30 1029 O 104.306 -0.66273 -1.84349 0
M  V30 1030 H 102.886 -0.746363 0.0308524 0
M  V30 1031 H 105.548 -1.78645 0.779237 0
M  V30 1032 H 104.644 -3.1208 0.0353086 0
M  V30 1033 N 104.945 -0.338344 -1.53925 0
M  V30 1034 C 106.192 0.259758 -2.00827 0
M  V30 1035 C 106.52 1.50973 -1.22628 0
M  V30 1036 O 105.775 1.93379 -0.300509 0
M  V30 1037 C 106.074 0.62448 -3.51902 0
M  V30 1038 C 105.74 -0.528006 -4.47798 0
M  V30 1039 C 104.402 -0.844298 -4.73735 0
M  V30 1040 C 106.754 -1.30143 -5.0469 0
M  V30 1041 C 104.082 -1.93648 -5.53821 0
M  V30 1042 C 106.434 -2.38382 -5.85967 0
M  V30 1043 C 105.098 -2.70576 -6.10201 0
M  V30 1044 H 104.368 0.0950523 -0.734878 0
M  V30 1045 H 107.015 -0.465182 -1.85764 0
M  V30 1046 H 105.32 1.43006 -3.64769 0
M  V30 1047 H 107.017 1.09905 -3.85645 0
M  V30 1048 H 103.607 -0.271421 -4.2774 0
M  V30 1049 H 107.791 -1.07033 -4.84621 0
M  V30 1050 H 103.047 -2.19021 -5.70824 0
M  V30 1051 H 107.221 -2.98746 -6.29066 0
M  V30 1052 H 104.848 -3.55333 -6.72044 0
M  V30 1053 N 106.423 1.57458 -0.0668435 0
M  V30 1054 C 107.373 2.0896 0.912119 0
M  V30 1055 C 108.357 0.998186 1.26195 0
M  V30 1056 O 109.549 1.26133 1.24175 0
M  V30 1057 C 106.678 2.6508 2.18145 0
M  V30 1058 C 105.764 3.81218 1.85832 0
M  V30 1059 N 106.155 4.90378 1.23948 0
M  V30 1060 C 104.453 3.9042 2.15612 0
M  V30 1061 C 105.154 5.71279 1.09616 0
M  V30 1062 N 104.13 5.19389 1.60423 0
M  V30 1063 H 107.932 2.90749 0.42924 0
M  V30 1064 H 105.446 1.6182 0.137184 0
M  V30 1065 H 107.443 3.0029 2.89192 0
M  V30 1066 H 106.103 1.84736 2.67025 0
M  V30 1067 H 107.114 5.09847 0.909731 0
M  V30 1068 H 103.791 3.21043 2.66903 0
M  V30 1069 H 105.181 6.69085 0.614425 0
M  V30 1070 N 107.901 -0.206675 1.56239 0
M  V30 1071 C 108.831 -1.25909 1.96645 0
M  V30 1072 C 109.812 -1.48097 0.836734 0
M  V30 1073 O 110.997 -1.6003 1.10019 0
M  V30 1074 C 108.127 -2.6058 2.29599 0
M  V30 1075 C 107.081 -2.53024 3.452 0
M  V30 1076 C 106.407 -3.91861 3.63798 0
M  V30 1077 C 107.707 -2.06524 4.79734 0
M  V30 1078 H 109.401 -0.923369 2.84806 0
M  V30 1079 H 106.947 -0.442735 1.37025 0
M  V30 1080 H 108.9 -3.34375 2.56459 0
M  V30 1081 H 107.624 -2.95869 1.38307 0
M  V30 1082 H 106.283 -1.81684 3.18412 0
M  V30 1083 H 105.931 -4.24483 2.69857 0
M  V30 1084 H 105.631 -3.87683 4.4156 0
M  V30 1085 H 107.155 -4.67296 3.93022 0
M  V30 1086 H 108.569 -2.70072 5.05702 0
M  V30 1087 H 106.966 -2.13374 5.60885 0
M  V30 1088 H 108.036 -1.01802 4.74093 0
M  V30 1089 N 109.379 -1.50304 -0.473955 0
M  V30 1090 C 110.604 -1.65175 -1.25427 0
M  V30 1091 C 111.029 -0.333673 -1.85117 0
M  V30 1092 O 110.387 0.702114 -1.67153 0
M  V30 1093 C 110.435 -2.74295 -2.34082 0
M  V30 1094 O 109.539 -2.35349 -3.38651 0
M  V30 1095 H 108.88 -0.551944 -0.369126 0
M  V30 1096 H 111.41 -1.96662 -0.564364 0
M  V30 1097 H 111.42 -2.97285 -2.79438 0
M  V30 1098 H 110.095 -3.69959 -1.90008 0
M  V30 1099 H 108.672 -2.22794 -2.99027 0
M  V30 1100 N 110.857 0.726932 -1.39834 0
M  V30 1101 C 111.807 1.83232 -1.35683 0
M  V30 1102 C 112.791 1.59155 -0.236295 0
M  V30 1103 O 113.983 1.70522 -0.474488 0
M  V30 1104 C 111.112 3.21246 -1.21062 0
M  V30 1105 C 110.198 3.51125 -2.37849 0
M  V30 1106 N 110.589 3.51889 -3.63329 0
M  V30 1107 C 108.887 3.81527 -2.30982 0
M  V30 1108 C 109.588 3.79791 -4.40606 0
M  V30 1109 N 108.564 3.97971 -3.70297 0
M  V30 1110 H 112.366 1.8214 -2.30656 0
M  V30 1111 H 109.88 0.925545 -1.33444 0
M  V30 1112 H 111.877 4.00387 -1.16171 0
M  V30 1113 H 110.537 3.23572 -0.270458 0
M  V30 1114 H 111.548 3.33008 -3.96643 0
M  V30 1115 H 108.225 3.91411 -1.45272 0
M  V30 1116 H 109.615 3.86783 -5.49408 0
M  V30 1117 N 112.336 1.25143 0.95797 0
M  V30 1118 C 113.283 1.05235 2.05412 0
M  V30 1119 C 114.253 -0.0374561 1.66058 0
M  V30 1120 O 115.438 0.119073 1.90428 0
M  V30 1121 C 112.578 0.673589 3.38462 0
M  V30 1122 C 111.691 1.8379 3.90954 0
M  V30 1123 C 110.826 1.40381 5.12315 0
M  V30 1124 C 109.865 2.53746 5.57027 0
M  V30 1125 N 109.002 2.11136 6.69601 0
M  V30 1126 H 113.842 1.99048 2.21774 0
M  V30 1127 H 111.379 0.991277 1.08683 0
M  V30 1128 H 113.337 0.434964 4.14926 0
M  V30 1129 H 111.967 -0.227554 3.21997 0
M  V30 1130 H 111.019 2.18992 3.11041 0
M  V30 1131 H 112.331 2.68937 4.20089 0
M  V30 1132 H 111.485 1.12464 5.96185 0
M  V30 1133 H 110.224 0.523015 4.84887 0
M  V30 1134 H 109.229 2.82412 4.71724 0
M  V30 1135 H 110.454 3.42398 5.86464 0
M  V30 1136 H 108.4 1.25468 6.4389 0
M  V30 1137 H 108.317 2.89832 6.98236 0
M  V30 1138 H 109.585 1.86385 7.56889 0
M  V30 1139 N 113.814 -1.1601 1.06675 0
M  V30 1140 C 115.06 -1.86909 0.786945 0
M  V30 1141 C 115.393 -1.81717 -0.685018 0
M  V30 1142 O 114.668 -1.23551 -1.50218 0
M  V30 1143 C 114.951 -3.36313 1.28707 0
M  V30 1144 C 114.804 -3.50175 2.82308 0
M  V30 1145 C 116.123 -4.3084 0.898071 0
M  V30 1146 H 113.242 -0.678677 0.287343 0
M  V30 1147 H 115.884 -1.36336 1.32334 0
M  V30 1148 H 114.034 -3.79513 0.830768 0
M  V30 1149 H 115.706 -3.15886 3.36175 0
M  V30 1150 H 113.949 -2.91959 3.20847 0
M  V30 1151 H 114.62 -4.55116 3.12368 0
M  V30 1152 H 117.096 -3.95561 1.29114 0
M  V30 1153 H 115.972 -5.33876 1.27543 0
M  V30 1154 H 116.233 -4.41662 -0.196651 0
M  V30 1155 N 115.292 -0.849877 -1.32721 0
M  V30 1156 C 116.52 -0.464754 -2.01613 0
M  V30 1157 C 116.935 0.937191 -1.63897 0
M  V30 1158 O 116.292 1.61081 -0.857856 0
M  V30 1159 C 116.343 -0.588638 -3.56675 0
M  V30 1160 O 116.064 -1.93535 -3.93034 0
M  V30 1161 C 117.565 -0.2019 -4.4284 0
M  V30 1162 H 114.785 -0.183215 -0.645502 0
M  V30 1163 H 117.329 -1.1455 -1.69407 0
M  V30 1164 H 115.484 0.0443159 -3.87375 0
M  V30 1165 H 115.898 -1.92871 -4.87751 0
M  V30 1166 H 117.372 -0.339599 -5.50954 0
M  V30 1167 H 117.849 0.857224 -4.30753 0
M  V30 1168 H 118.455 -0.809733 -4.17521 0
M  V30 1169 N 116.77 1.45427 -0.607355 0
M  V30 1170 C 117.995 2.07124 -0.107006 0
M  V30 1171 C 118.42 1.44906 1.19933 0
M  V30 1172 O 117.778 0.541687 1.73019 0
M  V30 1173 C 117.826 3.60595 0.0194119 0
M  V30 1174 O 116.93 3.98285 1.0697 0
M  V30 1175 H 116.271 0.659868 -0.0739597 0
M  V30 1176 H 118.801 1.86683 -0.837297 0
M  V30 1177 H 118.811 4.07419 0.2177 0
M  V30 1178 H 117.486 4.05266 -0.934453 0
M  V30 1179 H 116.063 3.63133 0.847889 0
M  V30 1180 N 118.248 0.346503 1.53744 0
M  V30 1181 C 119.494 -0.249473 2.0126 0
M  V30 1182 C 119.827 -1.49965 1.23386 0
M  V30 1183 O 119.102 -1.91811 0.32229 0
M  V30 1184 C 119.385 -0.560643 3.55709 0
M  V30 1185 C 119.238 0.701836 4.44291 0
M  V30 1186 C 120.557 -1.36905 4.18264 0
M  V30 1187 H 117.676 -0.0891987 0.731582 0
M  V30 1188 H 120.318 0.467624 1.84156 0
M  V30 1189 H 118.468 -1.17156 3.70414 0
M  V30 1190 H 120.14 1.33974 4.41417 0
M  V30 1191 H 118.383 1.32612 4.13033 0
M  V30 1192 H 119.054 0.43933 5.50249 0
M  V30 1193 H 121.53 -0.852448 4.07275 0
M  V30 1194 H 120.406 -1.55553 5.26398 0
M  V30 1195 H 120.667 -2.37203 3.73078 0
M  V30 1196 N 119.726 -1.57421 0.075193 0
M  V30 1197 C 120.972 -1.93905 -0.594025 0
M  V30 1198 C 121.305 -0.955701 -1.69056 0
M  V30 1199 O 120.58 0.0145373 -1.94495 0
M  V30 1200 C 120.863 -3.40638 -1.1678 0
M  V30 1201 C 120.716 -4.49733 -0.0776792 0
M  V30 1202 C 122.035 -3.88259 -2.07228 0
M  V30 1203 H 119.154 -0.705105 -0.214466 0
M  V30 1204 H 121.796 -1.8947 0.141854 0
M  V30 1205 H 119.946 -3.44549 -1.79494 0
M  V30 1206 H 121.618 -4.57942 0.555573 0
M  V30 1207 H 119.861 -4.29751 0.591286 0
M  V30 1208 H 120.532 -5.49549 -0.519603 0
M  V30 1209 H 123.008 -3.86376 -1.54445 0
M  V30 1210 H 121.884 -4.91533 -2.44308 0
M  V30 1211 H 122.145 -3.26396 -2.98191 0
M  V30 1212 N 121.204 0.198386 -1.56346 0
M  V30 1213 C 122.615 0.763358 -1.70381 0
M  V30 1214 C 122.966 1.83995 -0.681203 0
M  V30 1215 O 122.091 2.15785 0.16305 0
M  V30 1216 C 122.686 1.39143 -3.08909 0
M  V30 1217 C 121.245 1.90352 -3.2472 0
M  V30 1218 C 120.392 0.772233 -2.6633 0
M  V30 1219 H 123.343 -0.0266377 -1.58678 0
M  V30 1220 H 123.364 2.26076 -3.06055 0
M  V30 1221 H 122.876 0.607638 -3.83314 0
M  V30 1222 H 120.977 2.71461 -2.55225 0
M  V30 1223 H 121.09 2.06757 -4.3219 0
M  V30 1224 H 119.454 1.18566 -2.2542 0
M  V30 1225 H 120.237 0.00073556 -3.433 0
M  V30 1226 N 122.682 1.50554 0.465978 0
M  V30 1227 C 123.592 1.72585 1.58907 0
M  V30 1228 C 124.608 0.60911 1.6299 0
M  V30 1229 O 125.784 0.88804 1.80765 0
M  V30 1230 C 122.849 1.81995 2.95091 0
M  V30 1231 C 121.91 3.05751 3.01355 0
M  V30 1232 C 121.143 3.14702 4.31043 0
M  V30 1233 O 121.366 2.30313 5.21835 0
M  V30 1234 O 120.3 4.07468 4.43005 0
M  V30 1235 H 124.126 2.67799 1.43239 0
M  V30 1236 H 121.711 1.34711 0.646013 0
M  V30 1237 H 123.593 1.90335 3.75966 0
M  V30 1238 H 122.268 0.899659 3.10947 0
M  V30 1239 H 121.175 3.02908 2.19539 0
M  V30 1240 H 122.508 3.97375 2.90437 0
M  V30 1241 N 124.16 -0.719506 1.40217 0
M  V30 1242 C 125.385 -1.51371 1.4178 0
M  V30 1243 C 125.81 -1.88091 0.0182355 0
M  V30 1244 O 125.168 -1.52997 -0.972707 0
M  V30 1245 C 125.216 -2.768 2.31115 0
M  V30 1246 O 124.32 -3.73349 1.7517 0
M  V30 1247 H 123.661 -0.456529 0.482159 0
M  V30 1248 H 126.191 -0.88644 1.844 0
M  V30 1249 H 126.201 -3.25371 2.46167 0
M  V30 1250 H 124.876 -2.49407 3.3282 0
M  V30 1251 H 123.453 -3.32179 1.69444 0
M  V30 1252 N 125.638 -1.25649 -0.95132 0
M  V30 1253 C 126.601 -1.06399 -2.03007 0
M  V30 1254 C 127.601 -0.0156794 -1.60792 0
M  V30 1255 O 128.791 -0.25817 -1.72276 0
M  V30 1256 C 125.923 -0.616184 -3.35285 0
M  V30 1257 H 127.116 -2.02164 -2.21517 0
M  V30 1258 H 124.669 -1.08103 -1.12887 0
M  V30 1259 H 125.404 0.343917 -3.22471 0
M  V30 1260 H 125.189 -1.37301 -3.67275 0
M  V30 1261 H 126.679 -0.503032 -4.14559 0
M  V30 1262 N 127.117 1.15442 -1.07289 0
M  V30 1263 C 128.047 2.22312 -0.714107 0
M  V30 1264 C 129.028 1.67467 0.298155 0
M  V30 1265 O 130.213 1.93445 0.171048 0
M  V30 1266 C 127.343 3.47124 -0.110448 0
M  V30 1267 C 126.297 4.14926 -1.04979 0
M  V30 1268 C 125.623 5.33807 -0.308924 0
M  V30 1269 C 126.923 4.64762 -2.38314 0
M  V30 1270 H 128.617 2.5258 -1.6076 0
M  V30 1271 H 126.163 1.21404 -0.77441 0
M  V30 1272 H 128.116 4.21124 0.152482 0
M  V30 1273 H 126.84 3.16187 0.81812 0
M  V30 1274 H 125.499 3.42866 -1.29764 0
M  V30 1275 H 125.147 4.99126 0.623084 0
M  V30 1276 H 124.847 5.80113 -0.935036 0
M  V30 1277 H 126.371 6.10576 -0.0537771 0
M  V30 1278 H 127.785 5.30292 -2.1786 0
M  V30 1279 H 126.182 5.21728 -2.96514 0
M  V30 1280 H 127.252 3.80434 -3.00663 0
M  V30 1281 N 128.595 0.856903 1.32268 0
M  V30 1282 C 129.525 0.31858 2.31316 0
M  V30 1283 C 130.506 -0.583487 1.59779 0
M  V30 1284 O 131.691 -0.503259 1.87566 0
M  V30 1285 C 128.821 -0.491979 3.43798 0
M  V30 1286 C 127.775 0.315849 4.26833 0
M  V30 1287 C 127.101 -0.619586 5.31098 0
M  V30 1288 C 128.401 1.54282 4.98993 0
M  V30 1289 H 130.095 1.14621 2.76591 0
M  V30 1290 H 127.641 0.552613 1.32974 0
M  V30 1291 H 129.594 -0.879012 4.1213 0
M  V30 1292 H 128.318 -1.35299 2.97257 0
M  V30 1293 H 126.977 0.684664 3.6015 0
M  V30 1294 H 126.625 -1.47751 4.8081 0
M  V30 1295 H 126.325 -0.0830621 5.87541 0
M  V30 1296 H 127.849 -1.00375 6.02293 0
M  V30 1297 H 129.263 1.22796 5.59995 0
M  V30 1298 H 127.66 2.01745 5.65172 0
M  V30 1299 H 128.73 2.30285 4.26728 0
M  V30 1300 N 130.073 -1.45103 0.615059 0
M  V30 1301 C 131.322 -2.01396 0.110718 0
M  V30 1302 C 131.635 -1.48834 -1.26916 0
M  V30 1303 O 132.841 -1.97152 -1.86664 0
M  V30 1304 C 131.297 -3.59599 0.14723 0
M  V30 1305 C 130.905 -4.21158 1.52743 0
M  V30 1306 C 132.649 -4.23428 -0.30148 0
M  V30 1307 C 130.556 -5.71535 1.51992 0
M  V30 1308 H 129.486 -0.753061 0.0376241 0
M  V30 1309 H 132.137 -1.66494 0.77149 0
M  V30 1310 H 130.519 -3.91724 -0.580339 0
M  V30 1311 H 131.693 -4.00594 2.2773 0
M  V30 1312 H 130.008 -3.69552 1.91886 0
M  V30 1313 H 132.605 -5.33703 -0.326392 0
M  V30 1314 H 132.948 -3.94629 -1.32565 0
M  V30 1315 H 133.481 -3.96047 0.373065 0
M  V30 1316 H 130.22 -6.05044 2.52193 0
M  V30 1317 H 129.74 -5.94268 0.81274 0
M  V30 1318 H 131.419 -6.34873 1.24681 0
M  V30 1319 N 131.551 -0.354651 -1.53558 0
M  V30 1320 C 132.797 0.238797 -2.01389 0
M  V30 1321 C 133.13 1.49309 -1.2418 0
M  V30 1322 O 132.405 1.91638 -0.332457 0
M  V30 1323 C 132.688 0.541771 -3.56001 0
M  V30 1324 C 132.541 -0.725388 -4.43912 0
M  V30 1325 C 133.86 1.34685 -4.18984 0
M  V30 1326 H 130.979 0.0853177 -0.732045 0
M  V30 1327 H 133.621 -0.477384 -1.83905 0
M  V30 1328 H 131.771 1.15189 -3.71031 0
M  V30 1329 H 133.443 -1.36313 -4.407 0
M  V30 1330 H 131.686 -1.34801 -4.12324 0
M  V30 1331 H 132.357 -0.468505 -5.50008 0
M  V30 1332 H 134.833 0.830837 -4.07721 0
M  V30 1333 H 133.709 1.52759 -5.27215 0
M  V30 1334 H 133.97 2.35221 -3.74331 0
M  V30 1335 N 133.029 1.57378 -0.0835403 0
M  V30 1336 C 133.959 2.1641 0.87686 0
M  V30 1337 C 134.94 1.09429 1.30228 0
M  V30 1338 O 136.125 1.37516 1.37124 0
M  V30 1339 C 133.255 2.73517 2.14022 0
M  V30 1340 C 132.209 3.85769 1.85381 0
M  V30 1341 C 131.535 4.29529 3.18448 0
M  V30 1342 C 132.835 5.09486 1.14984 0
M  V30 1343 H 134.529 2.96914 0.385059 0
M  V30 1344 H 132.075 1.42823 0.18377 0
M  V30 1345 H 134.028 3.13463 2.81636 0
M  V30 1346 H 132.752 1.90252 2.65465 0
M  V30 1347 H 131.411 3.46345 1.20169 0
M  V30 1348 H 131.059 3.43169 3.67755 0
M  V30 1349 H 130.759 5.05204 3.00071 0
M  V30 1350 H 132.283 4.72099 3.8724 0
M  V30 1351 H 133.697 5.46674 1.72687 0
M  V30 1352 H 132.094 5.90515 1.06826 0
M  V30 1353 H 133.164 4.84724 0.130749 0
M  V30 1354 N 134.507 -0.190092 1.56449 0
M  V30 1355 C 135.755 -0.907908 1.80559 0
M  V30 1356 C 136.076 -1.83583 0.657438 0
M  V30 1357 O 135.346 -1.93203 -0.323924 0
M  V30 1358 H 133.926 -0.338247 0.666032 0
M  V30 1359 H 136.588 -0.194403 1.93928 0
M  V30 1360 H 135.684 -1.49604 2.73907 0
M  V30 1361 N 135.985 -1.50799 -0.457987 0
M  V30 1362 C 136.915 -1.73553 -1.5621 0
M  V30 1363 C 137.896 -0.584774 -1.59732 0
M  V30 1364 O 139.081 -0.825314 -1.7579 0
M  V30 1365 C 136.211 -1.84169 -2.94447 0
M  V30 1366 C 135.165 -2.99461 -3.0579 0
M  V30 1367 C 134.491 -2.95235 -4.45803 0
M  V30 1368 C 135.791 -4.39766 -2.81786 0
M  V30 1369 H 137.485 -2.66 -1.37421 0
M  V30 1370 H 135.031 -1.28002 -0.659662 0
M  V30 1371 H 136.984 -1.98672 -3.71628 0
M  V30 1372 H 135.708 -0.883545 -3.14422 0
M  V30 1373 H 134.367 -2.8463 -2.31044 0
M  V30 1374 H 134.015 -1.97239 -4.62715 0
M  V30 1375 H 133.715 -3.72642 -4.54326 0
M  V30 1376 H 135.239 -3.11803 -5.24987 0
M  V30 1377 H 136.653 -4.55054 -3.4871 0
M  V30 1378 H 135.05 -5.18722 -3.0174 0
M  V30 1379 H 136.12 -4.51229 -1.7754 0
M  V30 1380 N 137.463 0.71206 -1.40597 0
M  V30 1381 C 138.709 1.47416 -1.39271 0
M  V30 1382 C 139.042 1.942 0.00388791 0
M  V30 1383 O 138.317 1.68403 0.973179 0
M  V30 1384 C 138.6 2.69774 -2.38525 0
M  V30 1385 C 138.453 2.28861 -3.87224 0
M  V30 1386 C 139.772 3.71939 -2.35264 0
M  V30 1387 H 136.891 0.534713 -0.5072 0
M  V30 1388 H 139.533 0.812375 -1.71757 0
M  V30 1389 H 137.683 3.26238 -2.10953 0
M  V30 1390 H 139.355 1.77852 -4.25636 0
M  V30 1391 H 137.598 1.60824 -4.02887 0
M  V30 1392 H 138.269 3.16584 -4.52193 0
M  V30 1393 H 140.745 3.25113 -2.59694 0
M  V30 1394 H 139.621 4.55186 -3.06753 0
M  V30 1395 H 139.882 4.20484 -1.36549 0
M  V30 1396 N 138.941 1.26152 0.944643 0
M  V30 1397 C 139.871 1.09902 2.06019 0
M  V30 1398 C 140.852 0.00519538 1.70099 0
M  V30 1399 O 142.037 0.176583 1.93396 0
M  V30 1400 C 139.167 0.727562 3.39594 0
M  V30 1401 C 138.121 1.77274 3.89561 0
M  V30 1402 C 137.447 1.25569 5.19747 0
M  V30 1403 C 138.747 3.17357 4.14827 0
M  V30 1404 H 140.441 2.03217 2.19871 0
M  V30 1405 H 137.987 0.978452 1.05652 0
M  V30 1406 H 139.94 0.600777 4.17095 0
M  V30 1407 H 138.664 -0.241287 3.25707 0
M  V30 1408 H 137.323 1.88814 3.14237 0
M  V30 1409 H 136.971 0.276783 5.02238 0
M  V30 1410 H 136.671 1.95433 5.54148 0
M  V30 1411 H 138.195 1.1415 5.99835 0
M  V30 1412 H 139.609 3.08914 4.82954 0
M  V30 1413 H 138.006 3.84781 4.60504 0
M  V30 1414 H 139.076 3.63673 3.20734 0
M  V30 1415 N 140.419 -1.14872 1.07899 0
M  V30 1416 C 141.667 -1.85422 0.803941 0
M  V30 1417 C 141.988 -1.83051 -0.67211 0
M  V30 1418 O 141.258 -1.27532 -1.48703 0
M  V30 1419 H 139.838 -0.686537 0.294408 0
M  V30 1420 H 142.5 -1.39226 1.3639 0
M  V30 1421 H 141.596 -2.90399 1.14346 0
M  V30 1422 N 141.898 -0.863906 -1.31812 0
M  V30 1423 C 143.146 -0.470904 -1.96537 0
M  V30 1424 C 143.467 0.978771 -1.68657 0
M  V30 1425 O 142.737 1.6853 -0.998717 0
M  V30 1426 H 141.317 -0.171148 -0.72713 0
M  V30 1427 H 143.979 -1.10236 -1.60729 0
M  V30 1428 H 143.075 -0.623616 -3.05806 0
M  V30 1429 N 143.376 1.44774 -0.622745 0
M  V30 1430 C 144.625 2.01334 -0.121397 0
M  V30 1431 C 144.938 1.49505 1.26125 0
M  V30 1432 O 146.144 1.98139 1.85616 0
M  V30 1433 C 144.6 3.59516 -0.166298 0
M  V30 1434 C 144.208 4.20342 -1.54974 0
M  V30 1435 C 145.952 4.23582 0.279021 0
M  V30 1436 C 143.859 5.70721 -1.55021 0
M  V30 1437 H 142.789 0.752851 -0.0416172 0
M  V30 1438 H 145.44 1.66083 -0.780309 0
M  V30 1439 H 143.822 3.92027 0.559557 0
M  V30 1440 H 144.996 3.99381 -2.29851 0
M  V30 1441 H 143.311 3.68529 -1.93843 0
M  V30 1442 H 145.908 5.33868 0.298083 0
M  V30 1443 H 146.251 3.95327 1.30471 0
M  V30 1444 H 146.784 3.95843 -0.394063 0
M  V30 1445 H 143.523 6.03698 -2.55399 0
M  V30 1446 H 143.043 5.93829 -0.844245 0
M  V30 1447 H 144.722 6.34203 -1.28047 0
M  V30 1448 N 144.854 0.36279 1.53368 0
M  V30 1449 C 146.1 -0.228113 2.01513 0
M  V30 1450 C 146.433 -1.48648 1.2497 0
M  V30 1451 O 145.708 -1.91459 0.342616 0
M  V30 1452 C 145.991 -0.522884 3.56284 0
M  V30 1453 C 145.844 0.74892 4.43521 0
M  V30 1454 C 147.163 -1.32461 4.19693 0
M  V30 1455 H 144.282 -0.0814343 0.732487 0
M  V30 1456 H 146.924 0.48713 1.83649 0
M  V30 1457 H 145.074 -1.1322 3.71636 0
M  V30 1458 H 146.746 1.38648 4.39971 0
M  V30 1459 H 144.989 1.36986 4.11603 0
M  V30 1460 H 145.66 0.497667 5.49752 0
M  V30 1461 H 148.136 -0.809203 4.08156 0
M  V30 1462 H 147.012 -1.49961 5.28018 0
M  V30 1463 H 147.273 -2.33232 3.75573 0
M  V30 1464 N 146.332 -1.57332 0.0918853 0
M  V30 1465 C 147.578 -1.95328 -0.567313 0
M  V30 1466 C 147.933 -0.972866 -1.65991 0
M  V30 1467 O 147.226 0.00166256 -1.916 0
M  V30 1468 C 147.42 -3.37689 -1.17051 0
M  V30 1469 C 147.249 -4.49489 -0.137875 0
M  V30 1470 C 146.019 -5.04498 0.284515 0
M  V30 1471 C 148.217 -5.10393 0.63271 0
M  V30 1472 N 146.199 -5.99853 1.30576 0
M  V30 1473 C 147.57 -6.01435 1.50587 0
M  V30 1474 C 149.625 -4.93143 0.68658 0
M  V30 1475 C 148.328 -6.77077 2.42815 0
M  V30 1476 C 150.354 -5.69445 1.59645 0
M  V30 1477 C 149.716 -6.60151 2.45725 0
M  V30 1478 H 145.815 -0.761467 -0.178023 0
M  V30 1479 H 148.399 -1.93924 0.173706 0
M  V30 1480 H 146.57 -3.39793 -1.88136 0
M  V30 1481 H 148.302 -3.62872 -1.79181 0
M  V30 1482 H 145.057 -4.73489 -0.102593 0
M  V30 1483 H 145.481 -6.52231 1.81449 0
M  V30 1484 H 150.123 -4.22785 0.035244 0
M  V30 1485 H 147.841 -7.46699 3.08975 0
M  V30 1486 H 151.427 -5.58112 1.64323 0
M  V30 1487 H 150.307 -7.18159 3.14987 0
M  V30 1488 N 147.81 0.181792 -1.56548 0
M  V30 1489 C 148.773 1.20894 -1.94724 0
M  V30 1490 C 149.773 1.37738 -0.829747 0
M  V30 1491 O 150.963 1.35323 -1.09697 0
M  V30 1492 C 148.095 2.57593 -2.23291 0
M  V30 1493 H 149.288 0.882275 -2.86629 0
M  V30 1494 H 146.841 0.423838 -1.50444 0
M  V30 1495 H 147.576 2.95291 -1.34067 0
M  V30 1496 H 147.361 2.46735 -3.04736 0
M  V30 1497 H 148.851 3.31637 -2.53785 0
M  V30 1498 N 149.288 1.51039 0.449983 0
M  V30 1499 C 150.251 1.70863 1.5277 0
M  V30 1500 C 151.251 0.578846 1.5002 0
M  V30 1501 O 152.441 0.846213 1.52266 0
M  V30 1502 C 149.573 1.75341 2.9235 0
M  V30 1503 H 150.766 2.67034 1.36502 0
M  V30 1504 H 148.319 1.40838 0.677812 0
M  V30 1505 H 149.054 0.809383 3.14037 0
M  V30 1506 H 148.839 2.57436 2.95752 0
M  V30 1507 H 150.329 1.92559 3.70555 0
M  V30 1508 N 150.766 -0.704594 1.40972 0
M  V30 1509 C 152.043 -1.45847 1.30338 0
M  V30 1510 C 152.423 -2.10973 -0.0732344 0
M  V30 1511 O 151.771 -2.00997 -1.08685 0
M  V30 1512 C 151.981 -2.48525 2.45023 0
M  V30 1513 C 153.329 -3.1404 2.8577 0
M  V30 1514 O 154.353 -2.58848 2.44696 0
M  V30 1515 O 153.212 -4.13981 3.56766 0
M  V30 1516 H 150.306 -0.649092 0.512454 0
M  V30 1517 H 152.852 -0.735836 1.52917 0
M  V30 1518 H 151.624 -1.98994 3.36923 0
M  V30 1519 H 151.247 -3.2831 2.24272 0
M  V30 1520 N 152.244 -1.26651 -0.937939 0
M  V30 1521 C 153.194 -1.05156 -2.02302 0
M  V30 1522 C 154.178 0.0171233 -1.60891 0
M  V30 1523 O 155.37 -0.200213 -1.75864 0
M  V30 1524 C 152.499 -0.689962 -3.36295 0
M  V30 1525 C 151.585 -1.79626 -3.84181 0
M  V30 1526 N 151.976 -3.03422 -4.04684 0
M  V30 1527 C 150.274 -1.6806 -4.13124 0
M  V30 1528 C 150.975 -3.75345 -4.444 0
M  V30 1529 N 149.951 -3.03051 -4.51288 0
M  V30 1530 H 153.753 -1.99117 -2.1617 0
M  V30 1531 H 151.267 -1.17216 -1.12402 0
M  V30 1532 H 153.264 -0.517112 -4.13681 0
M  V30 1533 H 151.924 0.242139 -3.23796 0
M  V30 1534 H 152.935 -3.39293 -3.91281 0
M  V30 1535 H 149.612 -0.818629 -4.09396 0
M  V30 1536 H 151.002 -4.81691 -4.68427 0
M  V30 1537 N 153.722 1.14298 -1.08507 0
M  V30 1538 C 154.971 1.84708 -0.810305 0
M  V30 1539 C 155.284 1.83903 0.666271 0
M  V30 1540 O 156.49 2.50112 1.05624 0
M  V30 1541 C 154.946 3.31572 -1.39957 0
M  V30 1542 C 154.554 3.40791 -2.90801 0
M  V30 1543 C 156.298 4.07087 -1.20334 0
M  V30 1544 C 154.205 4.81872 -3.4286 0
M  V30 1545 H 153.135 0.691985 -0.299454 0
M  V30 1546 H 155.786 1.28841 -1.30661 0
M  V30 1547 H 154.168 3.87183 -0.830976 0
M  V30 1548 H 155.342 2.95225 -3.53806 0
M  V30 1549 H 153.657 2.78732 -3.0935 0
M  V30 1550 H 156.254 5.11225 -1.56693 0
M  V30 1551 H 156.597 4.16054 -0.143237 0
M  V30 1552 H 157.13 3.57779 -1.73893 0
M  V30 1553 H 153.869 4.78094 -4.48449 0
M  V30 1554 H 153.389 5.27972 -2.84615 0
M  V30 1555 H 155.068 5.50765 -3.39509 0
M  V30 1556 N 155.201 0.870884 1.31352 0
M  V30 1557 C 156.164 0.332243 2.26779 0
M  V30 1558 C 157.164 -0.517302 1.52252 0
M  V30 1559 O 158.354 -0.326477 1.71113 0
M  V30 1560 C 155.486 -0.528066 3.36785 0
M  V30 1561 H 156.679 1.17469 2.75937 0
M  V30 1562 H 154.232 0.64655 1.423 0
M  V30 1563 H 154.967 -1.39167 2.92922 0
M  V30 1564 H 154.752 0.0802582 3.92018 0
M  V30 1565 H 156.242 -0.897179 4.07849 0
M  V30 1566 N 156.679 -1.44442 0.630414 0
M  V30 1567 C 157.904 -2.06927 0.139944 0
M  V30 1568 C 158.329 -1.46795 -1.17613 0
M  V30 1569 O 157.687 -0.569144 -1.72135 0
M  V30 1570 C 157.735 -3.6058 0.0379581 0
M  V30 1571 O 156.839 -3.99937 -1.0062 0
M  V30 1572 H 156.18 -0.658608 0.0844483 0
M  V30 1573 H 158.71 -1.85327 0.866891 0
M  V30 1574 H 158.72 -4.07714 -0.152856 0
M  V30 1575 H 157.395 -4.03728 0.998809 0
M  V30 1576 H 155.972 -3.64436 -0.79001 0
M  V30 1577 N 158.157 -0.370918 -1.53173 0
M  V30 1578 C 159.404 0.217102 -2.01333 0
M  V30 1579 C 159.732 1.48338 -1.25802 0
M  V30 1580 O 158.987 1.92698 -0.34146 0
M  V30 1581 C 159.286 0.549696 -3.53147 0
M  V30 1582 C 158.952 -0.622872 -4.46577 0
M  V30 1583 C 157.614 -0.944595 -4.71838 0
M  V30 1584 C 159.966 -1.40819 -5.01816 0
M  V30 1585 C 157.294 -2.05351 -5.49589 0
M  V30 1586 C 159.646 -2.50757 -5.80778 0
M  V30 1587 C 158.31 -2.83458 -6.04324 0
M  V30 1588 H 157.58 0.0794431 -0.736729 0
M  V30 1589 H 160.227 -0.504481 -1.84736 0
M  V30 1590 H 158.532 1.35237 -3.6772 0
M  V30 1591 H 160.229 1.017 -3.87889 0
M  V30 1592 H 156.819 -0.36209 -4.27068 0
M  V30 1593 H 161.003 -1.17289 -4.82242 0
M  V30 1594 H 156.259 -2.3108 -5.6605 0
M  V30 1595 H 160.433 -3.12022 -6.22588 0
M  V30 1596 H 158.06 -3.69508 -6.64355 0
M  V30 1597 N 159.635 1.57281 -0.100228 0
M  V30 1598 C 160.863 1.98879 0.570509 0
M  V30 1599 C 161.278 0.979476 1.61405 0
M  V30 1600 O 160.635 -0.0302288 1.82475 0
M  V30 1601 C 160.686 3.4052 1.2136 0
M  V30 1602 O 160.407 4.37588 0.211786 0
M  V30 1603 C 161.908 3.97149 1.96945 0
M  V30 1604 H 159.128 0.653428 0.152555 0
M  V30 1605 H 161.672 2.03697 -0.18103 0
M  V30 1606 H 159.827 3.367 1.91603 0
M  V30 1607 H 160.241 5.20118 0.676607 0
M  V30 1608 H 161.715 4.98393 2.37294 0
M  V30 1609 H 162.192 3.3525 2.83733 0
M  V30 1610 H 162.798 4.04458 1.31506 0
M  V30 1611 N 161.113 -0.173488 1.56642 0
M  V30 1612 C 162.043 -1.2171 1.99271 0
M  V30 1613 C 163.024 -1.46289 0.867959 0
M  V30 1614 O 164.209 -1.5766 1.13388 0
M  V30 1615 C 161.339 -2.55651 2.35074 0
M  V30 1616 C 160.293 -2.45645 3.50489 0
M  V30 1617 C 159.619 -3.84056 3.72028 0
M  V30 1618 C 160.919 -1.96302 4.84007 0
M  V30 1619 H 162.613 -0.86275 2.867 0
M  V30 1620 H 160.159 -0.413571 1.37933 0
M  V30 1621 H 162.112 -3.2886 2.63494 0
M  V30 1622 H 160.836 -2.92869 1.44552 0
M  V30 1623 H 159.495 -1.7489 3.22194 0
M  V30 1624 H 159.143 -4.18664 2.788 0
M  V30 1625 H 158.843 -3.7823 4.49684 0
M  V30 1626 H 160.367 -4.58854 4.02846 0
M  V30 1627 H 161.781 -2.59284 5.11317 0
M  V30 1628 H 160.178 -2.01429 5.65284 0
M  V30 1629 H 161.248 -0.917226 4.76146 0
M  V30 1630 N 162.591 -1.51276 -0.441967 0
M  V30 1631 C 163.819 -1.67516 -1.21434 0
M  V30 1632 C 164.234 -0.37055 -1.85128 0
M  V30 1633 O 163.591 0.650498 -1.70513 0
M  V30 1634 C 163.642 -2.78748 -2.30177 0
M  V30 1635 O 163.363 -4.04154 -1.69089 0
M  V30 1636 C 164.864 -3.06217 -3.20541 0
M  V30 1637 H 162.084 -0.562276 -0.366178 0
M  V30 1638 H 164.628 -1.97666 -0.524244 0
M  V30 1639 H 162.783 -2.5121 -2.94911 0
M  V30 1640 H 163.197 -4.65894 -2.40922 0
M  V30 1641 H 164.671 -3.8764 -3.92987 0
M  V30 1642 H 165.148 -2.18439 -3.81026 0
M  V30 1643 H 165.754 -3.35397 -2.61513 0
M  V30 1644 N 164.069 0.697108 -1.41344 0
M  V30 1645 C 165.48 1.27697 -1.36199 0
M  V30 1646 C 165.831 1.9615 -0.0443463 0
M  V30 1647 O 164.956 1.98689 0.857419 0
M  V30 1648 C 165.551 2.32223 -2.46694 0
M  V30 1649 C 164.11 2.8579 -2.44952 0
M  V30 1650 C 163.257 1.59807 -2.26621 0
M  V30 1651 H 166.208 0.491968 -1.50882 0
M  V30 1652 H 166.229 3.1348 -2.15664 0
M  V30 1653 H 165.741 1.82373 -3.42581 0
M  V30 1654 H 163.842 3.3982 -1.52817 0
M  V30 1655 H 163.955 3.36325 -3.41207 0
M  V30 1656 H 162.319 1.8556 -1.7447 0
M  V30 1657 H 163.102 1.11956 -3.24532 0
M  V30 1658 N 165.547 1.27147 0.931209 0
M  V30 1659 C 166.775 1.16082 1.71267 0
M  V30 1660 C 167.19 -0.282772 1.8667 0
M  V30 1661 O 166.547 -1.19283 1.38122 0
M  V30 1662 C 166.598 1.8358 3.11417 0
M  V30 1663 O 166.319 3.22299 2.96741 0
M  V30 1664 C 167.82 1.78597 4.05732 0
M  V30 1665 H 165.04 0.403758 0.535929 0
M  V30 1666 H 167.584 1.67953 1.16671 0
M  V30 1667 H 165.739 1.35623 3.62885 0
M  V30 1668 H 166.153 3.55851 3.85319 0
M  V30 1669 H 167.627 2.30444 5.01597 0
M  V30 1670 H 168.104 0.754564 4.3267 0
M  V30 1671 H 168.71 2.26152 3.60188 0
M  V30 1672 N 167.025 -1.13721 1.09112 0
M  V30 1673 C 168.271 -1.85198 0.826414 0
M  V30 1674 C 168.604 -1.83129 -0.646319 0
M  V30 1675 O 167.879 -1.2671 -1.47563 0
M  V30 1676 C 168.162 -3.33507 1.35812 0
M  V30 1677 C 168.015 -3.44108 2.89672 0
M  V30 1678 C 169.334 -4.28838 0.989256 0
M  V30 1679 H 166.453 -0.67243 0.301675 0
M  V30 1680 H 169.095 -1.33499 1.35197 0
M  V30 1681 H 167.245 -3.77666 0.911082 0
M  V30 1682 H 168.917 -3.08684 3.428 0
M  V30 1683 H 167.16 -2.85087 3.26967 0
M  V30 1684 H 167.831 -4.48388 3.21951 0
M  V30 1685 H 170.307 -3.92734 1.37475 0
M  V30 1686 H 169.183 -5.31051 1.38838 0
M  V30 1687 H 169.444 -4.4198 -0.102924 0
M  V30 1688 N 168.503 -0.877838 -1.30888 0
M  V30 1689 C 169.75 -0.492696 -1.96415 0
M  V30 1690 C 170.078 0.956671 -1.69346 0
M  V30 1691 O 169.333 1.68993 -0.986913 0
M  V30 1692 C 169.632 -0.705748 -3.50363 0
M  V30 1693 C 169.298 -2.1291 -3.97467 0
M  V30 1694 C 167.96 -2.51834 -4.1004 0
M  V30 1695 C 170.312 -3.05702 -4.22132 0
M  V30 1696 C 167.64 -3.82775 -4.44635 0
M  V30 1697 C 169.992 -4.36166 -4.58194 0
M  V30 1698 C 168.656 -4.74993 -4.68975 0
M  V30 1699 H 167.926 -0.18029 -0.718733 0
M  V30 1700 H 170.573 -1.11233 -1.55883 0
M  V30 1701 H 168.878 -0.00303058 -3.918 0
M  V30 1702 H 170.575 -0.387456 -3.99124 0
M  V30 1703 H 167.165 -1.81694 -3.88182 0
M  V30 1704 H 171.349 -2.76853 -4.11906 0
M  V30 1705 H 166.605 -4.12609 -4.51181 0
M  V30 1706 H 170.779 -5.08111 -4.76231 0
M  V30 1707 H 168.406 -5.76495 -4.95537 0
M  V30 1708 N 169.982 1.44106 -0.638065 0
M  V30 1709 C 171.229 2.01978 -0.14533 0
M  V30 1710 C 171.557 1.50234 1.23532 0
M  V30 1711 O 170.812 0.679548 1.83523 0
M  V30 1712 C 171.111 3.5729 -0.0887327 0
M  V30 1713 C 170.777 4.28317 -1.40909 0
M  V30 1714 C 169.439 4.47437 -1.77069 0
M  V30 1715 C 171.791 4.6867 -2.28031 0
M  V30 1716 C 169.119 5.04171 -3.00047 0
M  V30 1717 C 171.471 5.26766 -3.50286 0
M  V30 1718 C 170.135 5.44104 -3.86661 0
M  V30 1719 H 169.405 0.739089 -0.0531801 0
M  V30 1720 H 172.052 1.72781 -0.825761 0
M  V30 1721 H 170.357 3.8594 0.675095 0
M  V30 1722 H 172.054 3.99807 0.309145 0
M  V30 1723 H 168.644 4.1377 -1.1177 0
M  V30 1724 H 172.828 4.53604 -2.01388 0
M  V30 1725 H 168.084 5.15782 -3.28298 0
M  V30 1726 H 172.258 5.56983 -4.18023 0
M  V30 1727 H 169.885 5.87832 -4.82034 0
M  V30 1728 N 171.46 0.379036 1.52974 0
M  V30 1729 C 172.707 -0.206421 2.01445 0
M  V30 1730 C 173.035 -1.47668 1.26587 0
M  V30 1731 O 172.29 -1.92514 0.351675 0
M  V30 1732 C 172.589 -0.53096 3.53434 0
M  V30 1733 C 172.255 0.646546 4.46241 0
M  V30 1734 C 170.917 0.969604 4.7133 0
M  V30 1735 C 173.269 1.43479 5.01062 0
M  V30 1736 C 170.597 2.08263 5.48492 0
M  V30 1737 C 172.949 2.53834 5.7944 0
M  V30 1738 C 171.613 2.86659 6.02812 0
M  V30 1739 H 170.883 -0.0755349 0.73714 0
M  V30 1740 H 173.53 0.514271 1.84465 0
M  V30 1741 H 171.835 -1.33285 3.68432 0
M  V30 1742 H 173.532 -0.996417 3.88423 0
M  V30 1743 H 170.122 0.384734 4.2687 0
M  V30 1744 H 174.306 1.19844 4.81613 0
M  V30 1745 H 169.562 2.34078 5.64816 0
M  V30 1746 H 173.736 3.15319 6.20924 0
M  V30 1747 H 171.363 3.73026 6.62387 0
M  V30 1748 N 172.938 -1.57226 0.108567 0
M  V30 1749 C 174.168 -1.9889 -0.559142 0
M  V30 1750 C 174.576 -0.986889 -1.61422 0
M  V30 1751 O 173.919 0.0298705 -1.83676 0
M  V30 1752 C 173.981 -3.36952 -1.25315 0
M  V30 1753 C 173.645 -4.55679 -0.347248 0
M  V30 1754 C 174.642 -5.18281 0.409996 0
M  V30 1755 C 172.327 -5.0162 -0.261367 0
M  V30 1756 C 174.321 -6.25203 1.24096 0
M  V30 1757 C 172.008 -6.08405 0.573238 0
M  V30 1758 C 173.006 -6.70063 1.32304 0
M  V30 1759 O 172.694 -7.74788 2.14381 0
M  V30 1760 H 172.426 -0.658343 -0.153492 0
M  V30 1761 H 174.98 -2.04532 0.188584 0
M  V30 1762 H 173.21 -3.28032 -2.04773 0
M  V30 1763 H 174.899 -3.62974 -1.81673 0
M  V30 1764 H 175.665 -4.8371 0.353457 0
M  V30 1765 H 171.544 -4.53381 -0.834656 0
M  V30 1766 H 175.088 -6.73259 1.82669 0
M  V30 1767 H 170.985 -6.42406 0.631208 0
M  V30 1768 H 171.753 -7.91837 2.07209 0
M  V30 1769 N 174.416 0.165178 -1.56732 0
M  V30 1770 C 175.346 1.20651 -1.99914 0
M  V30 1771 C 176.327 1.45827 -0.875705 0
M  V30 1772 O 177.512 1.57057 -1.14223 0
M  V30 1773 C 174.642 2.54401 -2.36427 0
M  V30 1774 C 173.596 2.43782 -3.51787 0
M  V30 1775 C 172.922 3.82078 -3.7406 0
M  V30 1776 C 174.222 1.93732 -4.85041 0
M  V30 1777 H 175.916 0.847534 -2.87154 0
M  V30 1778 H 173.462 0.40625 -1.38151 0
M  V30 1779 H 175.415 3.27458 -2.65234 0
M  V30 1780 H 174.139 2.92098 -1.46103 0
M  V30 1781 H 172.798 1.73178 -3.23117 0
M  V30 1782 H 172.446 4.17179 -2.81017 0
M  V30 1783 H 172.146 3.7584 -4.51684 0
M  V30 1784 H 173.67 4.56712 -4.05274 0
M  V30 1785 H 175.084 2.56569 -5.12684 0
M  V30 1786 H 173.481 1.98428 -5.66345 0
M  V30 1787 H 174.551 0.891962 -4.76626 0
M  V30 1788 N 175.894 1.51508 0.433938 0
M  V30 1789 C 176.824 1.76016 1.53429 0
M  V30 1790 C 177.805 0.610112 1.58782 0
M  V30 1791 O 178.99 0.853177 1.74455 0
M  V30 1792 C 176.12 1.88831 2.9148 0
M  V30 1793 C 175.074 3.04288 3.00987 0
M  V30 1794 C 174.4 3.0229 4.4105 0
M  V30 1795 C 175.7 4.44193 2.74754 0
M  V30 1796 H 177.394 2.68152 1.33171 0
M  V30 1797 H 174.94 1.29035 0.639214 0
M  V30 1798 H 176.893 2.04559 3.6842 0
M  V30 1799 H 175.617 0.933455 3.12976 0
M  V30 1800 H 174.276 2.8827 2.26486 0
M  V30 1801 H 173.924 2.04576 4.59519 0
M  V30 1802 H 173.624 3.79822 4.4834 0
M  V30 1803 H 175.148 3.20116 5.1996 0
M  V30 1804 H 176.562 4.60544 3.41426 0
M  V30 1805 H 174.959 5.23457 2.9345 0
M  V30 1806 H 176.029 4.53996 1.70339 0
M  V30 1807 N 177.372 -0.689602 1.41712 0
M  V30 1808 C 178.783 -1.26973 1.36875 0
M  V30 1809 C 179.134 -1.96124 0.054748 0
M  V30 1810 O 178.259 -1.99141 -0.84687 0
M  V30 1811 C 178.854 -2.30912 2.47922 0
M  V30 1812 C 177.413 -2.84486 2.46464 0
M  V30 1813 C 176.56 -1.58603 2.27465 0
M  V30 1814 H 179.511 -0.48396 1.51141 0
M  V30 1815 H 179.532 -3.12331 2.17323 0
M  V30 1816 H 179.044 -1.80554 3.43543 0
M  V30 1817 H 177.145 -3.39005 1.54617 0
M  V30 1818 H 177.258 -3.34511 3.42986 0
M  V30 1819 H 175.622 -1.84632 1.75451 0
M  V30 1820 H 176.405 -1.10233 3.25121 0
M  V30 1821 N 178.85 -1.27639 -0.924453 0
M  V30 1822 C 180.261 -1.12834 -1.48746 0
M  V30 1823 C 180.612 0.285505 -1.94112 0
M  V30 1824 O 179.737 1.17874 -1.81479 0
M  V30 1825 C 180.332 -2.04217 -2.70334 0
M  V30 1826 C 178.891 -1.93509 -3.22848 0
M  V30 1827 C 178.038 -1.96583 -1.95577 0
M  V30 1828 H 180.989 -1.40484 -0.738233 0
M  V30 1829 H 181.01 -1.59989 -3.4523 0
M  V30 1830 H 180.522 -3.07111 -2.37285 0
M  V30 1831 H 178.623 -0.936131 -3.60649 0
M  V30 1832 H 178.736 -2.79917 -3.88823 0
M  V30 1833 H 177.1 -1.4085 -2.12211 0
M  V30 1834 H 177.883 -3.01137 -1.64837 0
M  V30 1835 N 180.328 1.1314 -1.09713 0
M  V30 1836 C 181.577 1.83838 -0.829851 0
M  V30 1837 C 181.89 1.84599 0.646728 0
M  V30 1838 O 183.096 2.51218 1.02965 0
M  V30 1839 C 181.552 3.30069 -1.43466 0
M  V30 1840 C 181.16 3.37688 -2.94399 0
M  V30 1841 C 182.904 4.05788 -1.24645 0
M  V30 1842 C 180.811 4.78209 -3.47952 0
M  V30 1843 H 179.741 0.68877 -0.306777 0
M  V30 1844 H 182.392 1.27448 -1.3202 0
M  V30 1845 H 180.774 3.8628 -0.871996 0
M  V30 1846 H 181.948 2.91456 -3.56918 0
M  V30 1847 H 180.263 2.75436 -3.12289 0
M  V30 1848 H 182.86 5.09535 -1.62107 0
M  V30 1849 H 183.203 4.15878 -0.187357 0
M  V30 1850 H 183.736 3.55915 -1.77678 0
M  V30 1851 H 180.475 4.73311 -4.53495 0
M  V30 1852 H 179.995 5.24924 -2.90198 0
M  V30 1853 H 181.674 5.47133 -3.45332 0
M  V30 1854 N 181.806 0.884767 1.30421 0
M  V30 1855 C 183.052 0.503851 1.96441 0
M  V30 1856 C 183.385 -0.944518 1.69684 0
M  V30 1857 O 182.66 -1.66737 1.00145 0
M  V30 1858 C 182.943 0.779085 3.51571 0
M  V30 1859 C 182.796 2.27807 3.87846 0
M  V30 1860 C 184.115 0.255452 4.39358 0
M  V30 1861 H 181.234 0.184533 0.713524 0
M  V30 1862 H 183.876 1.10872 1.54297 0
M  V30 1863 H 182.026 0.264274 3.876 0
M  V30 1864 H 183.698 2.86127 3.61841 0
M  V30 1865 H 181.941 2.74479 3.35922 0
M  V30 1866 H 182.612 2.42125 4.96064 0
M  V30 1867 H 185.088 0.696079 4.10236 0
M  V30 1868 H 183.964 0.477361 5.4682 0
M  V30 1869 H 184.225 -0.843293 4.33983 0
M  V30 1870 N 183.284 -1.43765 0.645699 0
M  V30 1871 C 184.214 -2.33471 -0.0370477 0
M  V30 1872 C 185.195 -1.49042 -0.819779 0
M  V30 1873 O 186.38 -1.77726 -0.782758 0
M  V30 1874 C 183.51 -3.32311 -1.0093 0
M  V30 1875 C 182.464 -4.2667 -0.337201 0
M  V30 1876 C 181.79 -5.1549 -1.42037 0
M  V30 1877 C 183.09 -5.16657 0.765706 0
M  V30 1878 H 184.784 -2.90809 0.712069 0
M  V30 1879 H 182.33 -1.39834 0.343876 0
M  V30 1880 H 184.283 -3.9396 -1.49578 0
M  V30 1881 H 183.007 -2.73213 -1.78948 0
M  V30 1882 H 181.666 -3.66374 0.128771 0
M  V30 1883 H 181.314 -4.52735 -2.1918 0
M  V30 1884 H 181.014 -5.79438 -0.975966 0
M  V30 1885 H 182.538 -5.80012 -1.90838 0
M  V30 1886 H 183.952 -5.72158 0.361702 0
M  V30 1887 H 182.349 -5.89286 1.13413 0
M  V30 1888 H 183.419 -4.56796 1.62683 0
M  V30 1889 N 184.763 -0.387143 -1.52771 0
M  V30 1890 C 186.04 0.253197 -1.93954 0
M  V30 1891 C 186.42 1.64545 -1.32243 0
M  V30 1892 O 185.768 2.23191 -0.489699 0
M  V30 1893 C 185.978 0.281722 -3.47861 0
M  V30 1894 C 187.326 0.511715 -4.21505 0
M  V30 1895 O 188.35 0.362023 -3.54356 0
M  V30 1896 O 187.209 0.804847 -5.40541 0
M  V30 1897 H 184.303 0.156845 -0.811991 0
M  V30 1898 H 186.849 -0.441494 -1.63856 0
M  V30 1899 H 185.621 -0.693571 -3.85104 0
M  V30 1900 H 185.244 1.02142 -3.84256 0
M  V30 1901 N 186.241 1.57166 -0.116904 0
M  V30 1902 C 187.204 2.14039 0.819742 0
M  V30 1903 C 188.204 1.07477 1.19605 0
M  V30 1904 O 189.394 1.33263 1.1219 0
M  V30 1905 C 186.526 2.67891 2.10826 0
M  V30 1906 H 187.719 2.98128 0.325511 0
M  V30 1907 H 185.272 1.55739 0.132312 0
M  V30 1908 H 186.007 1.87384 2.64685 0
M  V30 1909 H 185.792 3.45823 1.84793 0
M  V30 1910 H 187.282 3.11809 2.77785 0
M  V30 1911 N 187.719 -0.156864 1.56817 0
M  V30 1912 C 188.967 -0.869404 1.82444 0
M  V30 1913 C 189.288 -1.82147 0.69623 0
M  V30 1914 O 188.558 -1.93847 -0.28287 0
M  V30 1915 H 187.138 -0.324043 0.673056 0
M  V30 1916 H 189.8 -0.153224 1.94297 0
M  V30 1917 H 188.896 -1.43761 2.77019 0
M  V30 1918 N 189.197 -1.51736 -0.425897 0
M  V30 1919 C 190.427 -1.68549 -1.19476 0
M  V30 1920 C 190.835 -0.387288 -1.85194 0
M  V30 1921 O 190.178 0.645142 -1.71999 0
M  V30 1922 C 190.24 -2.75275 -2.31223 0
M  V30 1923 C 189.904 -4.17534 -1.8578 0
M  V30 1924 C 190.901 -5.01936 -1.35485 0
M  V30 1925 C 188.586 -4.6369 -1.93123 0
M  V30 1926 C 190.58 -6.30559 -0.931347 0
M  V30 1927 C 188.267 -5.92307 -1.50384 0
M  V30 1928 C 189.265 -6.75569 -1.00473 0
M  V30 1929 O 188.953 -8.0178 -0.583452 0
M  V30 1930 H 188.685 -0.568525 -0.365725 0
M  V30 1931 H 191.239 -1.98982 -0.509444 0
M  V30 1932 H 189.469 -2.40182 -3.03067 0
M  V30 1933 H 191.158 -2.80853 -2.93047 0
M  V30 1934 H 191.924 -4.67475 -1.29197 0
M  V30 1935 H 187.803 -3.98997 -2.30916 0
M  V30 1936 H 191.347 -6.95498 -0.541084 0
M  V30 1937 H 187.244 -6.2628 -1.56346 0
M  V30 1938 H 188.012 -8.1543 -0.708275 0
M  V30 1939 N 190.675 0.682077 -1.42076 0
M  V30 1940 C 191.922 1.44215 -1.42156 0
M  V30 1941 C 192.25 1.94468 -0.0354186 0
M  V30 1942 O 191.505 1.70816 0.955002 0
M  V30 1943 C 191.804 2.66036 -2.38662 0
M  V30 1944 C 191.47 2.34366 -3.85206 0
M  V30 1945 C 190.132 2.25439 -4.25124 0
M  V30 1946 C 192.484 2.08513 -4.77673 0
M  V30 1947 C 189.812 1.88775 -5.55501 0
M  V30 1948 C 192.164 1.73354 -6.08384 0
M  V30 1949 C 190.828 1.62933 -6.47309 0
M  V30 1950 H 190.098 0.527718 -0.520187 0
M  V30 1951 H 192.745 0.778387 -1.74967 0
M  V30 1952 H 191.05 3.3741 -1.99152 0
M  V30 1953 H 192.747 3.24205 -2.35991 0
M  V30 1954 H 189.337 2.42213 -3.53597 0
M  V30 1955 H 193.521 2.14346 -4.47626 0
M  V30 1956 H 188.777 1.7927 -5.84527 0
M  V30 1957 H 192.951 1.52373 -6.79526 0
M  V30 1958 H 190.578 1.34292 -7.48244 0
M  V30 1959 N 192.153 1.28127 0.917671 0
M  V30 1960 C 193.086 1.06039 2.02067 0
M  V30 1961 C 194.064 -0.0223285 1.62585 0
M  V30 1962 O 195.248 0.124823 1.88086 0
M  V30 1963 C 192.375 0.610596 3.33151 0
M  V30 1964 C 191.421 1.68937 3.91615 0
M  V30 1965 S 192.254 3.28437 4.22953 0
M  V30 1966 C 193.41 2.85283 5.57103 0
M  V30 1967 H 193.643 1.99425 2.20493 0
M  V30 1968 H 191.176 1.12071 1.06205 0
M  V30 1969 H 193.134 0.357778 4.08938 0
M  V30 1970 H 191.795 -0.303364 3.12632 0
M  V30 1971 H 190.988 1.32619 4.86239 0
M  V30 1972 H 190.59 1.89478 3.2245 0
M  V30 1973 H 192.882 2.3121 6.36827 0
M  V30 1974 H 193.825 3.7869 5.98331 0
M  V30 1975 H 194.233 2.24118 5.18104 0
M  V30 1976 N 193.631 -1.12557 1.10312 0
M  V30 1977 C 195.042 -1.65574 0.862678 0
M  V30 1978 C 195.393 -1.86566 -0.607256 0
M  V30 1979 O 194.518 -1.59121 -1.46662 0
M  V30 1980 C 195.113 -3.00776 1.55947 0
M  V30 1981 C 193.672 -3.50748 1.36576 0
M  V30 1982 C 192.819 -2.25797 1.60968 0
M  V30 1983 H 195.77 -0.963552 1.26101 0
M  V30 1984 H 195.791 -3.67185 0.997753 0
M  V30 1985 H 195.303 -2.85465 2.62928 0
M  V30 1986 H 193.404 -3.71245 0.317531 0
M  V30 1987 H 193.517 -4.30289 2.10686 0
M  V30 1988 H 191.881 -2.32841 1.03234 0
M  V30 1989 H 192.664 -2.13043 2.69198 0
M  V30 1990 N 195.109 -0.891671 -1.2995 0
M  V30 1991 C 196.057 -0.353066 -2.29905 0
M  V30 1992 C 197.051 0.543509 -1.60444 0
M  V30 1993 O 198.257 0.4272 -1.74857 0
M  V30 1994 H 194.632 -0.095531 -0.745907 0
M  V30 1995 H 196.603 -1.20961 -2.72784 0
M  V30 1996 C 195.352 0.411475 -3.45257 0
M  V30 1997 H 194.675 -0.269182 -3.98893 0
M  V30 1998 H 196.115 0.753328 -4.17254 0
M  V30 1999 C 194.574 1.6111 -2.9588 0
M  V30 2000 O 195.104 2.71045 -2.96475 0
M  V30 2001 N 193.31 1.45054 -2.51809 0
M  V30 2002 H 192.857 0.556175 -2.51524 0
M  V30 2003 H 192.815 2.25453 -2.1913 0
M  V30 2004 N 196.587 1.43421 -0.653314 0
M  V30 2005 C 198.003 1.56341 -0.320886 0
M  V30 2006 C 198.203 1.63696 1.17499 0
M  V30 2007 O 197.259 1.59208 1.95982 0
M  V30 2008 C 198.572 2.82424 -1.03233 0
M  V30 2009 C 200.12 2.96168 -1.01259 0
M  V30 2010 C 200.595 4.25084 -1.70492 0
M  V30 2011 N 202.086 4.31948 -1.67257 0
M  V30 2012 C 202.821 5.30466 -2.17701 0
M  V30 2013 N 202.317 6.35261 -2.76434 0
M  V30 2014 N 204.11 5.2212 -2.082 0
M  V30 2015 H 196.261 1.3689 -1.62403 0
M  V30 2016 H 198.524 0.657455 -0.682977 0
M  V30 2017 H 198.23 2.83053 -2.08744 0
M  V30 2018 H 198.104 3.72653 -0.583948 0
M  V30 2019 H 200.491 2.9508 0.0341235 0
M  V30 2020 H 200.572 2.07229 -1.49966 0
M  V30 2021 H 200.216 4.26932 -2.7512 0
M  V30 2022 H 200.146 5.1292 -1.19251 0
M  V30 2023 H 202.637 3.56838 -1.24398 0
M  V30 2024 H 202.95 7.06754 -3.12601 0
M  V30 2025 H 201.295 6.35884 -2.80495 0
M  V30 2026 H 204.486 4.39166 -1.62021 0
M  V30 2027 H 204.659 5.98739 -2.47822 0
M  V30 2028 N 198.065 0.39524 1.52563 0
M  V30 2029 C 198.995 -0.428384 2.29537 0
M  V30 2030 C 199.976 -1.05831 1.33169 0
M  V30 2031 O 201.161 -1.06995 1.62067 0
M  V30 2032 C 198.291 -1.55274 3.10656 0
M  V30 2033 C 197.245 -1.04855 4.14957 0
M  V30 2034 C 196.571 -2.26543 4.84337 0
M  V30 2035 C 197.871 -0.112324 5.22179 0
M  V30 2036 H 199.565 0.213867 2.98635 0
M  V30 2037 H 197.111 0.104298 1.43622 0
M  V30 2038 H 199.064 -2.1358 3.63265 0
M  V30 2039 H 197.788 -2.22266 2.39302 0
M  V30 2040 H 196.447 -0.487985 3.63338 0
M  V30 2041 H 196.095 -2.92059 4.09525 0
M  V30 2042 H 195.795 -1.93466 5.54837 0
M  V30 2043 H 197.319 -2.85481 5.39753 0
M  V30 2044 H 198.733 -0.603752 5.70112 0
M  V30 2045 H 197.13 0.128968 5.99961 0
M  V30 2046 H 198.2 0.837052 4.77621 0
M  V30 2047 N 199.544 -1.57102 0.125237 0
M  V30 2048 C 200.791 -1.95407 -0.531248 0
M  V30 2049 C 201.119 -1.0089 -1.66287 0
M  V30 2050 O 200.374 -0.0339431 -1.95671 0
M  V30 2051 C 200.673 -3.40096 -1.09862 0
M  V30 2052 C 200.339 -4.50815 -0.0876989 0
M  V30 2053 C 199.001 -4.80824 0.19026 0
M  V30 2054 C 201.353 -5.17724 0.600902 0
M  V30 2055 C 198.681 -5.75058 1.163 0
M  V30 2056 C 201.033 -6.13005 1.56231 0
M  V30 2057 C 199.697 -6.41403 1.8482 0
M  V30 2058 H 198.967 -0.715046 -0.194397 0
M  V30 2059 H 201.614 -1.90373 0.207463 0
M  V30 2060 H 199.919 -3.41855 -1.91422 0
M  V30 2061 H 201.616 -3.6705 -1.61478 0
M  V30 2062 H 198.206 -4.27444 -0.314528 0
M  V30 2063 H 202.39 -4.94691 0.399333 0
M  V30 2064 H 197.646 -5.95362 1.39117 0
M  V30 2065 H 201.82 -6.63934 2.10153 0
M  V30 2066 H 199.447 -7.14229 2.60349 0
M  V30 2067 N 201.022 0.148545 -1.56898 0
M  V30 2068 C 202.269 0.861418 -1.83264 0
M  V30 2069 C 202.597 1.81239 -0.705883 0
M  V30 2070 O 201.852 1.93305 0.305212 0
M  V30 2071 C 202.151 1.67064 -3.1595 0
M  V30 2072 C 201.817 0.866591 -4.42494 0
M  V30 2073 C 200.479 0.644762 -4.76861 0
M  V30 2074 C 202.831 0.30418 -5.20312 0
M  V30 2075 C 200.159 -0.15021 -5.86508 0
M  V30 2076 C 202.511 -0.477824 -6.30793 0
M  V30 2077 C 201.175 -0.710244 -6.63711 0
M  V30 2078 H 200.445 0.315215 -0.670612 0
M  V30 2079 H 203.092 0.125142 -1.91091 0
M  V30 2080 H 201.397 2.47698 -3.03567 0
M  V30 2081 H 203.094 2.22566 -3.33565 0
M  V30 2082 H 199.684 1.04955 -4.15551 0
M  V30 2083 H 203.868 0.462844 -4.94137 0
M  V30 2084 H 199.124 -0.339796 -6.10455 0
M  V30 2085 H 203.298 -0.92076 -6.90286 0
M  V30 2086 H 200.925 -1.3281 -7.48509 0
M  V30 2087 N 202.5 1.5196 0.417844 0
M  V30 2088 C 203.748 1.65263 1.16329 0
M  V30 2089 C 204.069 0.380634 1.91249 0
M  V30 2090 O 203.339 -0.604214 1.86349 0
M  V30 2091 H 201.919 0.60912 0.432414 0
M  V30 2092 H 204.581 1.88969 0.477162 0
M  V30 2093 H 203.677 2.4896 1.88217 0
M  V30 2094 N 203.978 -0.674533 1.42435 0
M  V30 2095 C 204.926 -1.80934 1.46169 0
M  V30 2096 C 205.92 -1.66006 0.3374 0
M  V30 2097 O 207.126 -1.72611 0.510425 0
M  V30 2098 H 203.501 -0.596594 0.457798 0
M  V30 2099 H 205.472 -1.74903 2.41767 0
M  V30 2100 C 204.221 -3.19088 1.38123 0
M  V30 2101 H 203.544 -3.31203 2.23931 0
M  V30 2102 H 204.984 -3.9851 1.44797 0
M  V30 2103 C 203.443 -3.36763 0.0960517 0
M  V30 2104 O 203.973 -3.92581 -0.851073 0
M  V30 2105 N 202.179 -2.90597 0.0131186 0
M  V30 2106 H 201.726 -2.45359 0.784639 0
M  V30 2107 H 201.684 -3.028 -0.846133 0
M  V30 2108 N 205.456 -1.28612 -0.910864 0
M  V30 2109 C 206.386 -1.15326 -2.03032 0
M  V30 2110 C 207.367 -0.0502924 -1.70026 0
M  V30 2111 O 208.552 -0.227797 -1.92859 0
M  V30 2112 C 205.682 -0.817343 -3.37545 0
M  V30 2113 C 204.636 -1.8754 -3.84724 0
M  V30 2114 C 203.962 -1.39305 -5.16235 0
M  V30 2115 C 205.262 -3.28244 -4.06267 0
M  V30 2116 H 206.956 -2.08975 -2.14406 0
M  V30 2117 H 204.502 -1.00612 -1.03021 0
M  V30 2118 H 206.455 -0.711151 -4.15356 0
M  V30 2119 H 205.179 0.154846 -3.26233 0
M  V30 2120 H 203.838 -1.97079 -3.09121 0
M  V30 2121 H 203.486 -0.409846 -5.01328 0
M  V30 2122 H 203.186 -2.10057 -5.48771 0
M  V30 2123 H 204.71 -1.30014 -5.96598 0
M  V30 2124 H 206.124 -3.21611 -4.74594 0
M  V30 2125 H 204.521 -3.96855 -4.5014 0
M  V30 2126 H 205.591 -3.72048 -3.10979 0
M  V30 2127 N 206.934 1.1197 -1.10907 0
M  V30 2128 C 208.182 1.83225 -0.852819 0
M  V30 2129 C 208.503 1.84769 0.623341 0
M  V30 2130 O 207.773 1.3143 1.45269 0
M  V30 2131 H 206.353 0.67849 -0.312507 0
M  V30 2132 H 209.015 1.3556 -1.40033 0
M  V30 2133 H 208.111 2.87265 -1.22005 0
M  V30 2134 N 208.412 0.89855 1.29475 0
M  V30 2135 C 209.64 0.539261 1.99749 0
M  V30 2136 C 210.055 -0.875716 1.67262 0
M  V30 2137 O 209.412 -1.57786 0.917049 0
M  V30 2138 C 209.463 0.72061 3.54245 0
M  V30 2139 O 209.184 2.07989 3.8558 0
M  V30 2140 C 210.685 0.366118 4.41786 0
M  V30 2141 H 207.905 0.207047 0.638258 0
M  V30 2142 H 210.449 1.20758 1.65039 0
M  V30 2143 H 208.604 0.0994862 3.87272 0
M  V30 2144 H 209.018 2.10841 4.80257 0
M  V30 2145 H 210.492 0.543848 5.49314 0
M  V30 2146 H 210.969 -0.696763 4.33638 0
M  V30 2147 H 211.575 0.964135 4.14228 0
M  V30 2148 N 209.89 -1.43072 0.660911 0
M  V30 2149 C 211.139 -2.00942 0.174735 0
M  V30 2150 C 211.452 -1.52797 -1.22117 0
M  V30 2151 O 212.658 -2.02991 -1.80297 0
M  V30 2152 C 211.114 -3.58948 0.261559 0
M  V30 2153 C 210.722 -4.16085 1.66064 0
M  V30 2154 C 212.466 -4.24173 -0.166617 0
M  V30 2155 C 210.373 -5.6641 1.70098 0
M  V30 2156 H 209.303 -0.751483 0.0615631 0
M  V30 2157 H 211.954 -1.63955 0.824069 0
M  V30 2158 H 210.336 -3.93372 -0.455421 0
M  V30 2159 H 211.51 -3.93147 2.40359 0
M  V30 2160 H 209.825 -3.6326 2.03546 0
M  V30 2161 H 212.422 -5.34471 -0.156433 0
M  V30 2162 H 212.765 -3.98647 -1.19943 0
M  V30 2163 H 213.298 -3.94659 0.498875 0
M  V30 2164 H 210.037 -5.96715 2.71315 0
M  V30 2165 H 209.557 -5.91382 1.00139 0
M  V30 2166 H 211.236 -6.30585 1.44816 0
M  V30 2167 N 211.368 -0.403325 -1.52352 0
M  V30 2168 C 212.298 0.416205 -2.29761 0
M  V30 2169 C 213.279 1.05123 -1.33728 0
M  V30 2170 O 214.464 1.06134 -1.62632 0
M  V30 2171 C 211.594 1.53624 -3.11475 0
M  V30 2172 C 210.548 1.02653 -4.15507 0
M  V30 2173 C 209.874 2.23971 -4.85532 0
M  V30 2174 C 211.174 0.08463 -5.22231 0
M  V30 2175 H 212.868 -0.229701 -2.98518 0
M  V30 2176 H 210.414 -0.111913 -1.43564 0
M  V30 2177 H 212.367 2.1165 -3.64393 0
M  V30 2178 H 211.091 2.20994 -2.40477 0
M  V30 2179 H 209.75 0.46871 -3.63591 0
M  V30 2180 H 209.398 2.89883 -4.11068 0
M  V30 2181 H 209.098 1.90521 -5.55856 0
M  V30 2182 H 210.622 2.82614 -5.41259 0
M  V30 2183 H 212.036 0.573509 -5.70424 0
M  V30 2184 H 210.433 -0.160783 -5.99885 0
M  V30 2185 H 211.503 -0.86237 -4.7717 0
M  V30 2186 N 212.846 1.57033 -0.133567 0
M  V30 2187 C 213.776 2.1909 0.807567 0
M  V30 2188 C 214.757 1.13517 1.26681 0
M  V30 2189 O 215.942 1.41809 1.32679 0
M  V30 2190 C 213.072 2.80188 2.05212 0
M  V30 2191 C 212.026 3.91471 1.73015 0
M  V30 2192 C 211.352 4.39443 3.04622 0
M  V30 2193 C 212.652 5.12886 0.987168 0
M  V30 2194 H 214.346 2.97988 0.290403 0
M  V30 2195 H 211.892 1.43335 0.138239 0
M  V30 2196 H 213.845 3.22264 2.71521 0
M  V30 2197 H 212.569 1.98601 2.59278 0
M  V30 2198 H 211.228 3.49993 1.0909 0
M  V30 2199 H 210.876 3.54695 3.56651 0
M  V30 2200 H 210.576 5.14495 2.83847 0
M  V30 2201 H 212.1 4.8418 3.72024 0
M  V30 2202 H 213.514 5.51891 1.55208 0
M  V30 2203 H 211.911 5.93615 0.87985 0
M  V30 2204 H 212.981 4.84894 -0.0235286 0
M  V30 2205 N 214.325 -0.140222 1.56975 0
M  V30 2206 C 215.555 -0.865181 1.87612 0
M  V30 2207 C 215.963 -1.74942 0.72055 0
M  V30 2208 O 215.306 -1.80917 -0.318561 0
M  V30 2209 C 215.368 -1.76782 3.13031 0
M  V30 2210 C 215.032 -1.06005 4.44536 0
M  V30 2211 C 216.029 -0.410768 5.18275 0
M  V30 2212 C 213.714 -1.04754 4.91255 0
M  V30 2213 C 215.708 0.241572 6.36942 0
M  V30 2214 C 213.395 -0.391394 6.09845 0
M  V30 2215 C 214.393 0.252029 6.82535 0
M  V30 2216 O 214.081 0.897757 7.98871 0
M  V30 2217 H 213.813 -0.255188 0.625983 0
M  V30 2218 H 216.367 -0.135653 2.04952 0
M  V30 2219 H 214.597 -2.53846 2.91718 0
M  V30 2220 H 216.286 -2.36533 3.29859 0
M  V30 2221 H 217.052 -0.412195 4.83245 0
M  V30 2222 H 212.931 -1.53777 4.34596 0
M  V30 2223 H 216.475 0.744375 6.93617 0
M  V30 2224 H 212.372 -0.387656 6.44335 0
M  V30 2225 H 213.14 0.800102 8.1458 0
M  V30 2226 N 215.803 -1.52179 -0.40978 0
M  V30 2227 C 216.766 -1.74853 -1.48186 0
M  V30 2228 C 217.766 -0.618417 -1.48433 0
M  V30 2229 O 218.956 -0.886286 -1.49969 0
M  V30 2230 C 216.088 -1.8303 -2.87598 0
M  V30 2231 H 217.281 -2.70559 -1.29374 0
M  V30 2232 H 214.834 -1.42586 -0.640233 0
M  V30 2233 H 215.569 -0.89236 -3.11781 0
M  V30 2234 H 215.354 -2.65187 -2.88822 0
M  V30 2235 H 216.844 -2.02316 -3.65319 0
M  V30 2236 N 217.281 0.66697 -1.42791 0
M  V30 2237 C 218.527 1.4291 -1.43891 0
M  V30 2238 C 218.86 1.94114 -0.0578972 0
M  V30 2239 O 218.135 1.71414 0.91911 0
M  V30 2240 C 218.418 2.62049 -2.46987 0
M  V30 2241 C 218.271 2.16426 -3.94309 0
M  V30 2242 C 219.59 3.64266 -2.46978 0
M  V30 2243 H 216.709 0.518306 -0.523954 0
M  V30 2244 H 219.351 0.757321 -1.74255 0
M  V30 2245 H 217.501 3.19361 -2.21225 0
M  V30 2246 H 219.173 1.64221 -4.31079 0
M  V30 2247 H 217.416 1.47925 -4.078 0
M  V30 2248 H 218.087 3.02038 -4.62036 0
M  V30 2249 H 220.563 3.16686 -2.69906 0
M  V30 2250 H 219.439 4.45196 -3.21079 0
M  V30 2251 H 219.7 4.15927 -1.49857 0
M  V30 2252 N 218.759 1.29093 0.90403 0
M  V30 2253 C 220.005 1.16986 1.65656 0
M  V30 2254 C 220.338 -0.278925 1.92186 0
M  V30 2255 O 219.613 -1.2019 1.5292 0
M  V30 2256 C 219.896 1.97908 3.0084 0
M  V30 2257 C 219.749 3.50903 2.81403 0
M  V30 2258 C 221.068 1.80208 4.01513 0
M  V30 2259 H 218.187 0.426346 0.601164 0
M  V30 2260 H 220.829 1.58518 1.04747 0
M  V30 2261 H 218.979 1.62616 3.52829 0
M  V30 2262 H 220.651 3.96153 2.36348 0
M  V30 2263 H 218.894 3.76045 2.1627 0
M  V30 2264 H 219.565 4.02791 3.77443 0
M  V30 2265 H 222.041 2.11025 3.58619 0
M  V30 2266 H 220.917 2.39184 4.94047 0
M  V30 2267 H 221.178 0.756119 4.35586 0
M  V30 2268 N 220.237 -1.11381 1.11499 0
M  V30 2269 C 221.485 -1.8277 0.862524 0
M  V30 2270 C 221.806 -1.85097 -0.613534 0
M  V30 2271 O 221.076 -1.32198 -1.4457 0
M  V30 2272 H 219.656 -0.676823 0.316101 0
M  V30 2273 H 222.318 -1.34816 1.4075 0
M  V30 2274 H 221.414 -2.86614 1.23527 0
M  V30 2275 N 221.715 -0.905404 -1.28997 0
M  V30 2276 C 222.943 -0.549846 -1.9946 0
M  V30 2277 C 223.358 0.866834 -1.67724 0
M  V30 2278 O 222.715 1.57298 -0.925404 0
M  V30 2279 C 222.766 -0.739387 -3.53858 0
M  V30 2280 O 222.487 -2.10031 -3.84472 0
M  V30 2281 C 223.988 -0.389541 -4.41585 0
M  V30 2282 H 221.208 -0.210429 -0.637151 0
M  V30 2283 H 223.752 -1.21632 -1.64396 0
M  V30 2284 H 221.907 -0.120023 -3.87214 0
M  V30 2285 H 222.321 -2.13385 -4.79132 0
M  V30 2286 H 223.795 -0.572972 -5.49018 0
M  V30 2287 H 224.272 0.673756 -4.34001 0
M  V30 2288 H 224.878 -0.986089 -4.1371 0
M  V30 2289 N 223.193 1.4272 -0.668489 0
M  V30 2290 C 224.439 2.01923 -0.188419 0
M  V30 2291 C 224.772 1.52704 1.19979 0
M  V30 2292 O 224.047 0.726566 1.8042 0
M  V30 2293 C 224.33 3.59451 -0.216085 0
M  V30 2294 C 224.183 4.18864 -1.6393 0
M  V30 2295 C 225.502 4.37903 0.439179 0
M  V30 2296 H 222.621 0.733674 -0.0699412 0
M  V30 2297 H 225.263 1.69822 -0.852076 0
M  V30 2298 H 223.413 3.86929 0.349012 0
M  V30 2299 H 225.085 4.02362 -2.25616 0
M  V30 2300 H 223.328 3.74933 -2.18193 0
M  V30 2301 H 223.999 5.27987 -1.61039 0
M  V30 2302 H 226.475 4.16079 -0.0417878 0
M  V30 2303 H 225.351 5.47519 0.389157 0
M  V30 2304 H 225.612 4.15303 1.51577 0
M  V30 2305 N 224.671 0.411399 1.52136 0
M  V30 2306 C 225.917 -0.156262 2.02799 0
M  V30 2307 C 226.272 -1.42613 1.29149 0
M  V30 2308 O 225.565 -1.87592 0.389839 0
M  V30 2309 C 225.759 -0.455872 3.54481 0
M  V30 2310 C 225.588 0.783404 4.42824 0
M  V30 2311 C 224.358 1.30928 4.88043 0
M  V30 2312 C 226.556 1.66217 4.86699 0
M  V30 2313 N 224.538 2.5038 5.6052 0
M  V30 2314 C 225.909 2.70292 5.5798 0
M  V30 2315 C 227.964 1.67966 4.68713 0
M  V30 2316 C 226.667 3.7603 6.13184 0
M  V30 2317 C 228.693 2.72624 5.24815 0
M  V30 2318 C 228.055 3.7542 5.9602 0
M  V30 2319 H 224.154 -0.0186886 0.781777 0
M  V30 2320 H 226.738 0.566255 1.86284 0
M  V30 2321 H 224.909 -1.14743 3.71064 0
M  V30 2322 H 226.641 -1.01261 3.91827 0
M  V30 2323 H 223.396 0.866977 4.65597 0
M  V30 2324 H 223.82 3.10881 6.014 0
M  V30 2325 H 228.462 0.898312 4.13147 0
M  V30 2326 H 226.18 4.55019 6.6782 0
M  V30 2327 H 229.766 2.74887 5.12765 0
M  V30 2328 H 228.646 4.55073 6.38654 0
M  V30 2329 N 226.149 -1.5696 0.141893 0
M  V30 2330 C 227.097 -2.17784 -0.816874 0
M  V30 2331 C 228.091 -1.1334 -1.25899 0
M  V30 2332 O 229.297 -1.316 -1.22806 0
M  V30 2333 H 225.672 -0.697278 -0.281615 0
M  V30 2334 H 227.643 -2.97087 -0.279621 0
M  V30 2335 C 226.392 -2.80983 -2.04802 0
M  V30 2336 H 225.715 -3.61062 -1.7168 0
M  V30 2337 H 227.155 -3.2705 -2.69841 0
M  V30 2338 C 225.614 -1.79228 -2.8527 0
M  V30 2339 O 226.144 -1.25962 -3.8144 0
M  V30 2340 N 224.35 -1.48647 -2.49704 0
M  V30 2341 H 223.897 -1.92155 -1.71564 0
M  V30 2342 H 223.855 -0.808115 -3.03837 0
M  V30 2343 N 227.627 0.131896 -1.57047 0
M  V30 2344 C 228.59 1.14638 -1.98471 0
M  V30 2345 C 229.59 1.35029 -0.873148 0
M  V30 2346 O 230.78 1.31764 -1.13946 0
M  V30 2347 C 227.912 2.50358 -2.31373 0
M  V30 2348 H 229.105 0.79064 -2.8929 0
M  V30 2349 H 226.658 0.375761 -1.51716 0
M  V30 2350 H 227.393 2.90876 -1.43393 0
M  V30 2351 H 227.178 2.36915 -3.12432 0
M  V30 2352 H 228.668 3.23395 -2.64207 0
M  V30 2353 N 229.106 1.52395 0.401703 0
M  V30 2354 C 230.069 1.75636 1.47257 0
M  V30 2355 C 231.069 0.62628 1.48103 0
M  V30 2356 O 232.259 0.894227 1.49497 0
M  V30 2357 C 229.391 1.84553 2.86624 0
M  V30 2358 H 230.584 2.71241 1.27938 0
M  V30 2359 H 228.137 1.42923 0.632662 0
M  V30 2360 H 228.872 0.908882 3.11303 0
M  V30 2361 H 228.657 2.66715 2.87412 0
M  V30 2362 H 230.147 2.04251 3.64241 0
M  V30 2363 N 230.584 -0.659388 1.43143 0
M  V30 2364 C 231.812 -1.44723 1.47861 0
M  V30 2365 C 232.227 -1.88563 0.0945886 0
M  V30 2366 O 231.584 -1.59108 -0.893915 0
M  V30 2367 C 231.635 -2.68627 2.41913 0
M  V30 2368 O 231.356 -2.26623 3.74932 0
M  V30 2369 C 232.857 -3.62045 2.55809 0
M  V30 2370 H 230.077 -0.444801 0.502387 0
M  V30 2371 H 232.621 -0.808916 1.87821 0
M  V30 2372 H 230.776 -3.28613 2.05164 0
M  V30 2373 H 231.19 -3.06745 4.2545 0
M  V30 2374 H 232.664 -4.45666 3.25708 0
M  V30 2375 H 233.141 -4.08981 1.60099 0
M  V30 2376 H 233.747 -3.07944 2.93344 0
M  V30 2377 N 232.062 -1.29571 -0.897171 0
M  V30 2378 C 233.29 -1.20583 -1.68129 0
M  V30 2379 C 233.705 0.233181 -1.87354 0
M  V30 2380 O 233.062 1.15579 -1.41236 0
M  V30 2381 C 233.113 -1.91772 -3.06441 0
M  V30 2382 O 232.834 -3.30053 -2.88091 0
M  V30 2383 C 234.335 -1.89291 -4.00854 0
M  V30 2384 H 231.555 -0.417826 -0.525036 0
M  V30 2385 H 234.099 -1.70987 -1.12177 0
M  V30 2386 H 232.254 -1.45196 -3.59161 0
M  V30 2387 H 232.668 -3.65942 -3.75748 0
M  V30 2388 H 234.142 -2.43662 -4.95311 0
M  V30 2389 H 234.619 -0.869014 -4.30517 0
M  V30 2390 H 235.225 -2.35622 -3.54066 0
M  V30 2391 N 233.54 1.10788 -1.12088 0
M  V30 2392 C 234.788 1.8231 -0.872205 0
M  V30 2393 C 235.109 1.85419 0.603709 0
M  V30 2394 O 234.379 1.32963 1.43867 0
M  V30 2395 H 232.959 0.675137 -0.319686 0
M  V30 2396 H 235.621 1.34068 -1.41463 0
M  V30 2397 H 234.717 2.85955 -1.25045 0
M  V30 2398 N 235.018 0.912232 1.28515 0
M  V30 2399 C 235.948 0.416403 2.29757 0
M  V30 2400 C 236.929 -0.515194 1.6211 0
M  V30 2401 O 238.114 -0.423253 1.89532 0
M  V30 2402 C 235.244 -0.34572 3.45575 0
M  V30 2403 C 234.198 0.496599 4.25109 0
M  V30 2404 C 233.524 -0.393771 5.33248 0
M  V30 2405 C 234.824 1.75307 4.92001 0
M  V30 2406 H 236.518 1.26249 2.7148 0
M  V30 2407 H 234.064 0.608515 1.30511 0
M  V30 2408 H 236.017 -0.703422 4.15488 0
M  V30 2409 H 234.741 -1.2257 3.02728 0
M  V30 2410 H 233.4 0.8368 3.56922 0
M  V30 2411 H 233.048 -1.27225 4.86644 0
M  V30 2412 H 232.748 0.166209 5.87365 0
M  V30 2413 H 234.272 -0.747389 6.06009 0
M  V30 2414 H 235.686 1.46437 5.54283 0
M  V30 2415 H 234.083 2.25534 5.56106 0
M  V30 2416 H 235.153 2.48176 4.16577 0
M  V30 2417 N 236.496 -1.42363 0.676048 0
M  V30 2418 C 237.721 -2.06377 0.205705 0
M  V30 2419 C 238.146 -1.50463 -1.12883 0
M  V30 2420 O 237.504 -0.623619 -1.70237 0
M  V30 2421 C 237.552 -3.60277 0.152655 0
M  V30 2422 O 236.656 -4.02935 -0.87845 0
M  V30 2423 H 235.997 -0.655588 0.105359 0
M  V30 2424 H 238.527 -1.82475 0.925412 0
M  V30 2425 H 238.537 -4.07993 -0.0230675 0
M  V30 2426 H 237.212 -4.00346 1.12675 0
M  V30 2427 H 235.789 -3.66764 -0.673668 0
M  V30 2428 N 237.974 -0.419461 -1.51915 0
M  V30 2429 C 238.904 0.391813 -2.30189 0
M  V30 2430 C 239.885 1.03699 -1.34836 0
M  V30 2431 O 241.07 1.04403 -1.63748 0
M  V30 2432 C 238.2 1.50312 -3.13087 0
M  V30 2433 C 237.154 0.9824 -4.16573 0
M  V30 2434 C 236.48 2.18809 -4.8788 0
M  V30 2435 C 237.78 0.0292356 -5.22292 0
M  V30 2436 H 239.474 -0.26135 -2.98257 0
M  V30 2437 H 237.02 -0.127134 -1.43438 0
M  V30 2438 H 238.973 2.07773 -3.66617 0
M  V30 2439 H 237.697 2.18431 -2.42807 0
M  V30 2440 H 236.356 0.430119 -3.64068 0
M  V30 2441 H 236.004 2.85507 -4.14119 0
M  V30 2442 H 235.704 1.84615 -5.57845 0
M  V30 2443 H 237.228 2.76858 -5.44226 0
M  V30 2444 H 238.642 0.512976 -5.71 0
M  V30 2445 H 237.039 -0.2244 -5.9968 0
M  V30 2446 H 238.109 -0.912931 -4.76228 0
M  V30 2447 N 239.452 1.56882 -0.150215 0
M  V30 2448 C 240.682 2.00302 0.506213 0
M  V30 2449 C 241.09 1.02934 1.58749 0
M  V30 2450 O 240.433 0.0188384 1.8369 0
M  V30 2451 C 240.495 3.40156 1.16337 0
M  V30 2452 C 240.159 4.56439 0.226311 0
M  V30 2453 C 241.156 5.17012 -0.547265 0
M  V30 2454 C 238.841 5.02136 0.128279 0
M  V30 2455 C 240.835 6.21693 -1.40629 0
M  V30 2456 C 238.522 6.06672 -0.734345 0
M  V30 2457 C 239.52 6.6632 -1.50023 0
M  V30 2458 O 239.208 7.68831 -2.34848 0
M  V30 2459 H 238.94 0.662182 0.135984 0
M  V30 2460 H 241.494 2.03961 -0.242746 0
M  V30 2461 H 239.724 3.33346 1.96004 0
M  V30 2462 H 241.413 3.67663 1.71985 0
M  V30 2463 H 242.179 4.82603 -0.48158 0
M  V30 2464 H 238.058 4.55435 0.714157 0
M  V30 2465 H 241.602 6.68179 -2.00455 0
M  V30 2466 H 237.499 6.40507 -0.801309 0
M  V30 2467 H 238.267 7.86065 -2.28131 0
M  V30 2468 N 240.93 -0.123565 1.57115 0
M  V30 2469 C 242.178 -0.83051 1.84247 0
M  V30 2470 C 242.499 -1.80629 0.73471 0
M  V30 2471 O 241.769 -1.94403 -0.241688 0
M  V30 2472 H 240.349 -0.309694 0.679778 0
M  V30 2473 H 243.011 -0.111976 1.94578 0
M  V30 2474 H 242.107 -1.37852 2.80006 0
M  V30 2475 N 242.408 -1.52605 -0.393616 0
M  V30 2476 C 243.654 -1.67672 -1.14079 0
M  V30 2477 C 243.987 -0.413121 -1.89755 0
M  V30 2478 O 243.262 0.588952 -1.85369 0
M  V30 2479 C 243.545 -2.9088 -2.12276 0
M  V30 2480 C 243.398 -4.27329 -1.40394 0
M  V30 2481 C 244.717 -3.09628 -3.12759 0
M  V30 2482 H 241.836 -0.610168 -0.413356 0
M  V30 2483 H 244.478 -1.85193 -0.424696 0
M  V30 2484 H 242.628 -2.76073 -2.73342 0
M  V30 2485 H 244.3 -4.53894 -0.82327 0
M  V30 2486 H 242.543 -4.2802 -0.705801 0
M  V30 2487 H 243.214 -5.09615 -2.12123 0
M  V30 2488 H 245.69 -3.23436 -2.61779 0
M  V30 2489 H 244.566 -3.97322 -3.78717 0
M  V30 2490 H 244.827 -2.23637 -3.81365 0
M  V30 2491 N 243.887 0.651787 -1.4349 0
M  V30 2492 C 245.134 1.41167 -1.45183 0
M  V30 2493 C 245.462 1.94349 -0.0766601 0
M  V30 2494 O 244.717 1.72804 0.918555 0
M  V30 2495 C 245.016 2.60914 -2.44251 0
M  V30 2496 C 244.682 2.26142 -3.9009 0
M  V30 2497 C 243.344 2.16371 -4.2981 0
M  V30 2498 C 245.696 1.98334 -4.81989 0
M  V30 2499 C 243.024 1.7695 -5.5938 0
M  V30 2500 C 245.376 1.6041 -6.11924 0
M  V30 2501 C 244.04 1.49166 -6.5062 0
M  V30 2502 H 243.31 0.516566 -0.531263 0
M  V30 2503 H 245.957 0.741099 -1.76579 0
M  V30 2504 H 244.262 3.3311 -2.06265 0
M  V30 2505 H 245.959 3.19127 -2.42815 0
M  V30 2506 H 242.549 2.34658 -3.58655 0
M  V30 2507 H 246.733 2.04803 -4.52072 0
M  V30 2508 H 241.989 1.66831 -5.88198 0
M  V30 2509 H 246.163 1.37925 -6.82605 0
M  V30 2510 H 243.79 1.1839 -7.50925 0
M  V30 2511 N 245.365 1.30045 0.890287 0
M  V30 2512 C 246.295 1.18541 2.01172 0
M  V30 2513 C 247.276 0.0773356 1.69924 0
M  V30 2514 O 248.461 0.25845 1.92473 0
M  V30 2515 C 245.591 0.870941 3.36202 0
M  V30 2516 C 244.545 1.93637 3.81692 0
M  V30 2517 C 243.871 1.475 5.13953 0
M  V30 2518 C 245.171 3.34666 4.00994 0
M  V30 2519 H 246.865 2.12359 2.11054 0
M  V30 2520 H 244.411 1.02238 1.01407 0
M  V30 2521 H 246.364 0.777141 4.14172 0
M  V30 2522 H 245.088 -0.102926 3.26438 0
M  V30 2523 H 243.747 2.01972 3.05946 0
M  V30 2524 H 243.395 0.489551 5.00612 0
M  V30 2525 H 243.095 2.1876 5.4536 0
M  V30 2526 H 244.619 1.39489 5.94454 0
M  V30 2527 H 246.033 3.2912 4.69417 0
M  V30 2528 H 244.43 4.03966 4.43769 0
M  V30 2529 H 245.5 3.76949 3.05021 0
M  V30 2530 N 246.843 -1.10192 1.12674 0
M  V30 2531 C 248.068 -1.86523 0.906853 0
M  V30 2532 C 248.493 -1.80221 -0.538711 0
M  V30 2533 O 247.851 -1.17396 -1.38158 0
M  V30 2534 C 247.899 -3.32758 1.3894 0
M  V30 2535 O 247.003 -4.08449 0.5695 0
M  V30 2536 H 246.344 -0.578678 0.325619 0
M  V30 2537 H 248.874 -1.39203 1.49946 0
M  V30 2538 H 248.884 -3.83608 1.38958 0
M  V30 2539 H 247.559 -3.36661 2.44197 0
M  V30 2540 H 246.136 -3.67427 0.636528 0
M  V30 2541 N 248.321 -0.919034 -1.28029 0
M  V30 2542 C 249.569 -0.553838 -1.94363 0
M  V30 2543 C 249.89 0.906357 -1.72656 0
M  V30 2544 O 249.16 1.64143 -1.0693 0
M  V30 2545 H 247.74 -0.201834 -0.719216 0
M  V30 2546 H 250.402 -1.16954 -1.55909 0
M  V30 2547 H 249.498 -0.752758 -3.02886 0
M  V30 2548 N 249.799 1.42003 -0.683588 0
M  V30 2549 C 250.729 2.33487 -0.024866 0
M  V30 2550 C 251.71 1.51163 0.779975 0
M  V30 2551 O 252.895 1.79739 0.735362 0
M  V30 2552 C 250.025 3.3487 0.920836 0
M  V30 2553 C 248.979 4.27414 0.223958 0
M  V30 2554 C 248.305 5.19074 1.2832 0
M  V30 2555 C 249.605 5.14445 -0.90242 0
M  V30 2556 H 251.299 2.88819 -0.788921 0
M  V30 2557 H 248.845 1.38873 -0.38083 0
M  V30 2558 H 250.798 3.97787 1.39081 0
M  V30 2559 H 249.522 2.77861 1.71642 0
M  V30 2560 H 248.181 3.65904 -0.225864 0
M  V30 2561 H 247.829 4.58387 2.071 0
M  V30 2562 H 247.529 5.81822 0.821995 0
M  V30 2563 H 249.053 5.84867 1.75392 0
M  V30 2564 H 250.467 5.70998 -0.513272 0
M  V30 2565 H 248.864 5.86072 -1.28997 0
M  V30 2566 H 249.934 4.52322 -1.74737 0
M  V30 2567 N 251.277 0.427512 1.51691 0
M  V30 2568 C 252.21 -0.433876 2.24037 0
M  V30 2569 C 253.188 -1.03287 1.25581 0
M  V30 2570 O 254.372 -1.07722 1.54688 0
M  V30 2571 C 251.499 -1.60385 2.98319 0
M  V30 2572 C 250.545 -1.12648 4.11355 0
M  V30 2573 S 251.378 -0.076543 5.35445 0
M  V30 2574 C 252.534 -1.25141 6.13262 0
M  V30 2575 H 252.767 0.180367 2.96752 0
M  V30 2576 H 250.3 0.211946 1.52938 0
M  V30 2577 H 252.258 -2.27462 3.41718 0
M  V30 2578 H 250.919 -2.18948 2.25213 0
M  V30 2579 H 250.112 -2.0011 4.62571 0
M  V30 2580 H 249.714 -0.534088 3.70167 0
M  V30 2581 H 252.006 -2.17162 6.41753 0
M  V30 2582 H 252.949 -0.779411 7.03797 0
M  V30 2583 H 253.357 -1.48553 5.44603 0
M  V30 2584 N 252.755 -1.56801 0.158532 0
M  V30 2585 C 254.003 -1.96102 -0.488712 0
M  V30 2586 C 254.324 -1.04498 -1.64636 0
M  V30 2587 O 253.594 -0.108783 -1.95598 0
M  V30 2588 H 252.174 -0.724102 -0.183535 0
M  V30 2589 H 254.836 -1.93457 0.236728 0
M  V30 2590 H 253.932 -3.00097 -0.857219 0
M  V30 2591 N 254.233 0.115231 -1.57178 0
M  V30 2592 C 255.51 0.852873 -1.76027 0
M  V30 2593 C 255.89 1.97892 -0.73498 0
M  V30 2594 O 255.238 2.27232 0.24036 0
M  V30 2595 C 255.448 1.36608 -3.21153 0
M  V30 2596 C 256.796 1.81692 -3.83762 0
M  V30 2597 O 257.82 1.46278 -3.24779 0
M  V30 2598 O 256.679 2.47104 -4.87444 0
M  V30 2599 H 253.773 0.405296 -0.720877 0
M  V30 2600 H 256.319 0.0986785 -1.69413 0
M  V30 2601 H 255.091 0.558357 -3.87296 0
M  V30 2602 H 254.714 2.18287 -3.3232 0
M  V30 2603 N 255.711 1.52812 0.385517 0
M  V30 2604 C 256.641 1.80808 1.47752 0
M  V30 2605 C 257.622 0.660318 1.5676 0
M  V30 2606 O 258.807 0.908246 1.71652 0
M  V30 2607 C 255.937 1.98008 2.85324 0
M  V30 2608 C 254.891 3.13709 2.91154 0
M  V30 2609 C 254.217 3.16169 4.31209 0
M  V30 2610 C 255.517 4.52709 2.60483 0
M  V30 2611 H 257.211 2.72253 1.24573 0
M  V30 2612 H 254.757 1.31003 0.597839 0
M  V30 2613 H 256.71 2.16176 3.61726 0
M  V30 2614 H 255.434 1.03255 3.09848 0
M  V30 2615 H 254.093 2.95329 2.17201 0
M  V30 2616 H 253.741 2.19092 4.52778 0
M  V30 2617 H 253.441 3.93894 4.36029 0
M  V30 2618 H 254.965 3.36496 5.09512 0
M  V30 2619 H 256.379 4.71173 3.26602 0
M  V30 2620 H 254.776 5.32528 2.76648 0
M  V30 2621 H 255.846 4.59186 1.55809 0
M  V30 2622 N 257.189 -0.644168 1.43834 0
M  V30 2623 C 258.121 -1.76955 1.45669 0
M  V30 2624 C 259.134 -1.58956 0.351666 0
M  V30 2625 O 260.323 -1.6751 0.616644 0
M  V30 2626 C 257.423 -3.14507 1.26248 0
M  V30 2627 C 256.596 -3.59083 2.49757 0
M  V30 2628 C 255.655 -4.75467 2.25427 0
M  V30 2629 O 254.681 -4.84444 2.98836 0
M  V30 2630 N 255.883 -5.66289 1.27661 0
M  V30 2631 H 258.648 -1.75856 2.42682 0
M  V30 2632 H 256.209 -0.828312 1.39106 0
M  V30 2633 H 258.201 -3.90067 1.0784 0
M  V30 2634 H 256.771 -3.10325 0.376478 0
M  V30 2635 H 255.991 -2.7387 2.8353 0
M  V30 2636 H 257.279 -3.85613 3.31934 0
M  V30 2637 H 256.677 -5.61718 0.670064 0
M  V30 2638 H 255.234 -6.41533 1.15234 0
M  V30 2639 N 258.668 -1.30515 -0.883378 0
M  V30 2640 C 259.917 -1.18795 -1.63005 0
M  V30 2641 C 260.23 0.255923 -1.93919 0
M  V30 2642 O 261.436 0.494654 -2.66956 0
M  V30 2643 C 259.892 -2.07878 -2.93794 0
M  V30 2644 C 259.5 -3.57184 -2.70414 0
M  V30 2645 C 261.244 -2.04924 -3.71761 0
M  V30 2646 C 259.151 -4.38317 -3.97029 0
M  V30 2647 H 258.081 -0.441031 -0.611562 0
M  V30 2648 H 260.732 -1.55275 -0.977854 0
M  V30 2649 H 259.114 -1.64283 -3.60315 0
M  V30 2650 H 260.288 -4.08937 -2.12384 0
M  V30 2651 H 258.603 -3.61976 -2.0582 0
M  V30 2652 H 261.2 -2.62792 -4.65665 0
M  V30 2653 H 261.543 -1.0331 -4.03277 0
M  V30 2654 H 262.076 -2.46649 -3.12104 0
M  V30 2655 H 258.815 -5.40632 -3.70671 0
M  V30 2656 H 258.335 -3.91326 -4.54559 0
M  V30 2657 H 260.014 -4.49834 -4.65036 0
M  V30 2658 N 260.146 1.09593 -1.13257 0
M  V30 2659 C 261.394 1.81375 -0.891492 0
M  V30 2660 C 261.715 1.86049 0.584009 0
M  V30 2661 O 260.985 1.34481 1.42449 0
M  V30 2662 H 259.565 0.671708 -0.326828 0
M  V30 2663 H 262.227 1.3256 -1.42877 0
M  V30 2664 H 261.323 2.84612 -1.28071 0
M  V30 2665 N 261.624 0.925811 1.2754 0
M  V30 2666 C 262.554 0.440748 2.29303 0
M  V30 2667 C 263.535 -0.497971 1.62648 0
M  V30 2668 O 264.72 -0.403126 1.8997 0
M  V30 2669 C 261.85 -0.309048 3.45922 0
M  V30 2670 C 260.804 0.54166 4.24559 0
M  V30 2671 C 260.13 -0.337191 5.33636 0
M  V30 2672 C 261.43 1.80516 4.90114 0
M  V30 2673 H 263.124 1.29121 2.70126 0
M  V30 2674 H 260.67 0.622323 1.29858 0
M  V30 2675 H 262.623 -0.659315 4.1621 0
M  V30 2676 H 261.347 -1.19352 3.04011 0
M  V30 2677 H 260.006 0.874609 3.56014 0
M  V30 2678 H 259.654 -1.22056 4.87966 0
M  V30 2679 H 259.354 0.228497 5.87156 0
M  V30 2680 H 260.878 -0.683072 6.06767 0
M  V30 2681 H 262.292 1.52307 5.52698 0
M  V30 2682 H 260.689 2.3142 5.53683 0
M  V30 2683 H 261.759 2.52581 4.13921 0
M  V30 2684 N 263.102 -1.41638 0.69111 0
M  V30 2685 C 264.032 -2.3347 0.037248 0
M  V30 2686 C 265.013 -1.51575 -0.771947 0
M  V30 2687 O 266.198 -1.80126 -0.72582 0
M  V30 2688 C 263.328 -3.35354 -0.903064 0
M  V30 2689 C 262.282 -4.27526 -0.201288 0
M  V30 2690 C 261.608 -5.19747 -1.25565 0
M  V30 2691 C 262.908 -5.13959 0.929689 0
M  V30 2692 H 264.602 -2.88397 0.804227 0
M  V30 2693 H 262.148 -1.38669 0.388189 0
M  V30 2694 H 264.101 -3.98519 -1.36969 0
M  V30 2695 H 262.825 -2.78767 -1.70166 0
M  V30 2696 H 261.484 -3.65779 0.245265 0
M  V30 2697 H 261.132 -4.59479 -2.04666 0
M  V30 2698 H 260.832 -5.8225 -0.791128 0
M  V30 2699 H 262.356 -5.85789 -1.72288 0
M  V30 2700 H 263.77 -5.70718 0.543546 0
M  V30 2701 H 262.167 -5.85379 1.32103 0
M  V30 2702 H 263.237 -4.51389 1.77133 0
M  V30 2703 N 264.58 -0.43555 -1.51462 0
M  V30 2704 C 265.857 0.191364 -1.94662 0
M  V30 2705 C 266.237 1.60254 -1.37411 0
M  V30 2706 O 265.585 2.2152 -0.560458 0
M  V30 2707 C 265.795 0.17091 -3.48581 0
M  V30 2708 C 267.143 0.377357 -4.2292 0
M  V30 2709 O 268.167 0.249104 -3.55328 0
M  V30 2710 O 267.026 0.63247 -5.42828 0
M  V30 2711 H 264.12 0.130932 -0.816569 0
M  V30 2712 H 266.666 -0.4934 -1.62369 0
M  V30 2713 H 265.438 -0.815738 -3.82703 0
M  V30 2714 H 265.061 0.898659 -3.87311 0
M  V30 2715 N 266.058 1.56714 -0.166846 0
M  V30 2716 C 267.305 1.96747 0.479252 0
M  V30 2717 C 267.633 1.05263 1.63554 0
M  V30 2718 O 266.888 0.0858098 1.95512 0
M  V30 2719 C 267.187 3.42889 1.00806 0
M  V30 2720 C 266.853 4.50889 -0.0318574 0
M  V30 2721 C 265.515 4.8015 -0.317675 0
M  V30 2722 C 267.867 5.15949 -0.737956 0
M  V30 2723 C 265.195 5.71772 -1.31506 0
M  V30 2724 C 267.547 6.08647 -1.72429 0
M  V30 2725 C 266.211 6.36277 -2.0176 0
M  V30 2726 H 265.481 0.719949 0.175371 0
M  V30 2727 H 268.128 1.89756 -0.257864 0
M  V30 2728 H 266.433 3.4681 1.82291 0
M  V30 2729 H 268.13 3.71203 1.51689 0
M  V30 2730 H 264.72 4.28128 0.201088 0
M  V30 2731 H 268.904 4.93458 -0.530351 0
M  V30 2732 H 264.16 5.91465 -1.54853 0
M  V30 2733 H 268.334 6.58129 -2.27682 0
M  V30 2734 H 265.961 7.07075 -2.79194 0
M  V30 2735 N 267.536 -0.106894 1.57237 0
M  V30 2736 C 268.466 -1.13148 2.04254 0
M  V30 2737 C 269.447 -1.42476 0.929224 0
M  V30 2738 O 270.632 -1.52709 1.19973 0
M  V30 2739 C 267.762 -2.4545 2.45706 0
M  V30 2740 C 266.716 -2.30558 3.60592 0
M  V30 2741 C 266.042 -3.67931 3.87983 0
M  V30 2742 C 267.342 -1.75597 4.91897 0
M  V30 2743 H 269.036 -0.740374 2.90101 0
M  V30 2744 H 266.582 -0.354696 1.39563 0
M  V30 2745 H 268.535 -3.17389 2.77205 0
M  V30 2746 H 267.259 -2.86475 1.56843 0
M  V30 2747 H 265.918 -1.61067 3.29322 0
M  V30 2748 H 265.566 -4.06462 2.96306 0
M  V30 2749 H 265.266 -3.58817 4.65322 0
M  V30 2750 H 266.79 -4.41356 4.21945 0
M  V30 2751 H 268.204 -2.37364 5.21854 0
M  V30 2752 H 266.601 -1.77272 5.73319 0
M  V30 2753 H 267.671 -0.714451 4.79608 0
M  V30 2754 N 269.014 -1.53014 -0.377408 0
M  V30 2755 C 269.944 -1.81589 -1.46791 0
M  V30 2756 C 270.925 -0.668622 -1.56408 0
M  V30 2757 O 272.11 -0.917337 -1.71168 0
M  V30 2758 C 269.24 -1.99519 -2.8427 0
M  V30 2759 C 268.194 -3.15249 -2.89486 0
M  V30 2760 C 267.52 -3.18451 -4.29527 0
M  V30 2761 C 268.82 -4.54084 -2.58079 0
M  V30 2762 H 270.514 -2.7291 -1.23127 0
M  V30 2763 H 268.06 -1.31319 -0.590883 0
M  V30 2764 H 270.013 -2.18092 -3.60575 0
M  V30 2765 H 268.737 -1.04897 -3.09296 0
M  V30 2766 H 267.396 -2.96477 -2.15631 0
M  V30 2767 H 267.044 -2.2149 -4.5161 0
M  V30 2768 H 266.744 -3.962 -4.33934 0
M  V30 2769 H 268.268 -3.39193 -5.07721 0
M  V30 2770 H 269.682 -4.72899 -3.24098 0
M  V30 2771 H 268.079 -5.33987 -2.7382 0
M  V30 2772 H 269.149 -4.60006 -1.53372 0
M  V30 2773 N 270.492 0.636531 -1.44174 0
M  V30 2774 C 271.739 1.39619 -1.46672 0
M  V30 2775 C 272.067 1.94257 -0.0972691 0
M  V30 2776 O 271.322 1.73768 0.900175 0
M  V30 2777 C 271.621 2.58309 -2.47005 0
M  V30 2778 C 271.287 2.21992 -3.92467 0
M  V30 2779 C 269.949 2.118 -4.32081 0
M  V30 2780 C 272.301 1.9321 -4.84065 0
M  V30 2781 C 269.629 1.71007 -5.61225 0
M  V30 2782 C 271.981 1.53911 -6.13591 0
M  V30 2783 C 270.645 1.42257 -6.52165 0
M  V30 2784 H 269.915 0.510902 -0.536712 0
M  V30 2785 H 272.562 0.722328 -1.77355 0
M  V30 2786 H 270.867 3.30903 -2.09786 0
M  V30 2787 H 272.564 3.16533 -2.46186 0
M  V30 2788 H 269.154 2.30841 -3.61124 0
M  V30 2789 H 273.338 1.99997 -4.54219 0
M  V30 2790 H 268.594 1.60583 -5.89935 0
M  V30 2791 H 272.768 1.30677 -6.8403 0
M  V30 2792 H 270.395 1.10419 -7.52138 0
M  V30 2793 N 271.97 1.30982 0.876444 0
M  V30 2794 C 273.218 1.20058 1.62575 0
M  V30 2795 C 273.539 -0.242947 1.93481 0
M  V30 2796 O 272.809 -1.1619 1.57724 0
M  V30 2797 H 271.389 0.44135 0.602677 0
M  V30 2798 H 274.051 1.64222 1.04962 0
M  V30 2799 H 273.147 1.76762 2.57219 0
M  V30 2800 N 273.449 -1.08991 1.13837 0
M  V30 2801 C 274.674 -1.85551 0.926585 0
M  V30 2802 C 275.099 -1.80782 -0.519566 0
M  V30 2803 O 274.457 -1.18855 -1.36906 0
M  V30 2804 C 274.505 -3.31266 1.42462 0
M  V30 2805 O 273.609 -4.07822 0.612789 0
M  V30 2806 H 272.95 -0.575192 0.331738 0
M  V30 2807 H 275.48 -1.37604 1.51414 0
M  V30 2808 H 275.49 -3.82112 1.43019 0
M  V30 2809 H 274.165 -3.34052 2.47754 0
M  V30 2810 H 272.742 -3.66731 0.675463 0
M  V30 2811 N 274.927 -0.932562 -1.27047 0
M  V30 2812 C 275.857 -0.452902 -2.29066 0
M  V30 2813 C 276.838 0.489338 -1.62909 0
M  V30 2814 O 278.023 0.393046 -1.90181 0
M  V30 2815 C 275.153 0.290698 -3.46081 0
M  V30 2816 C 274.107 -0.564168 -4.24265 0
M  V30 2817 C 273.433 0.308886 -5.33807 0
M  V30 2818 C 274.733 -1.83112 -4.89149 0
M  V30 2819 H 276.427 -1.30552 -2.69437 0
M  V30 2820 H 273.973 -0.629201 -1.29526 0
M  V30 2821 H 275.926 0.637233 -4.16554 0
M  V30 2822 H 274.65 1.17738 -3.0464 0
M  V30 2823 H 273.309 -0.893477 -3.55545 0
M  V30 2824 H 272.957 1.19467 -4.88607 0
M  V30 2825 H 272.657 -0.259633 -5.87026 0
M  V30 2826 H 274.181 0.650884 -6.07121 0
M  V30 2827 H 275.595 -1.55236 -5.51883 0
M  V30 2828 H 273.992 -2.34353 -5.52448 0
M  V30 2829 H 275.062 -2.54772 -4.12576 0
M  V30 2830 N 276.405 1.4127 -0.698611 0
M  V30 2831 C 277.338 2.28195 0.0153898 0
M  V30 2832 C 278.316 1.42402 0.784883 0
M  V30 2833 O 279.5 1.71828 0.775067 0
M  V30 2834 C 276.627 3.22685 1.02918 0
M  V30 2835 C 275.673 4.25041 0.352501 0
M  V30 2836 S 276.506 5.27757 -0.907322 0
M  V30 2837 C 277.662 6.25812 0.104796 0
M  V30 2838 H 277.895 2.88403 -0.721858 0
M  V30 2839 H 275.428 1.46452 -0.488996 0
M  V30 2840 H 277.386 3.77655 1.60893 0
M  V30 2841 H 276.047 2.61566 1.73902 0
M  V30 2842 H 275.24 4.91437 1.11828 0
M  V30 2843 H 274.842 3.73682 -0.154254 0
M  V30 2844 H 277.134 6.70705 0.957103 0
M  V30 2845 H 278.077 7.06149 -0.525323 0
M  V30 2846 H 278.485 5.62615 0.460931 0
M  V30 2847 N 277.883 0.443576 1.51229 0
M  V30 2848 C 278.846 -0.353132 2.26463 0
M  V30 2849 C 279.846 -0.944338 1.3015 0
M  V30 2850 O 281.036 -0.817813 1.5381 0
M  V30 2851 C 278.168 -1.50023 3.06114 0
M  V30 2852 H 279.361 0.3063 2.98332 0
M  V30 2853 H 276.914 0.196902 1.55055 0
M  V30 2854 H 277.649 -2.19553 2.38677 0
M  V30 2855 H 277.434 -1.08241 3.76864 0
M  V30 2856 H 278.924 -2.06296 3.63087 0
M  V30 2857 N 279.361 -1.56624 0.175154 0
M  V30 2858 C 280.324 -2.16934 -0.739738 0
M  V30 2859 C 281.324 -1.11842 -1.15533 0
M  V30 2860 O 282.514 -1.37335 -1.07167 0
M  V30 2861 C 279.646 -2.75531 -2.00738 0
M  V30 2862 H 280.839 -2.99131 -0.214639 0
M  V30 2863 H 278.392 -1.56123 -0.0744197 0
M  V30 2864 H 279.127 -1.97078 -2.57548 0
M  V30 2865 H 278.912 -3.52444 -1.71831 0
M  V30 2866 H 280.402 -3.21904 -2.66021 0
M  V30 2867 N 280.839 0.0985539 -1.57292 0
M  V30 2868 C 282.085 0.803867 -1.86188 0
M  V30 2869 C 282.418 1.78549 -0.763794 0
M  V30 2870 O 281.693 1.93153 0.22855 0
M  V30 2871 C 281.976 1.53568 -3.25713 0
M  V30 2872 C 281.829 0.572277 -4.46145 0
M  V30 2873 C 283.148 2.48708 -3.63087 0
M  V30 2874 H 280.267 0.290781 -0.677211 0
M  V30 2875 H 282.909 0.0675783 -1.8988 0
M  V30 2876 H 281.059 2.16332 -3.22696 0
M  V30 2877 H 282.731 -0.0480894 -4.61275 0
M  V30 2878 H 280.974 -0.114618 -4.33649 0
M  V30 2879 H 281.645 1.12139 -5.40489 0
M  V30 2880 H 284.121 1.96039 -3.67026 0
M  V30 2881 H 282.997 2.96932 -4.61652 0
M  V30 2882 H 283.258 3.32309 -2.91588 0
M  V30 2883 N 282.317 1.53212 0.369288 0
M  V30 2884 C 283.594 1.59815 1.12776 0
M  V30 2885 C 283.974 0.403402 2.0721 0
M  V30 2886 O 283.322 -0.606667 2.20299 0
M  V30 2887 C 283.532 2.94664 1.87013 0
M  V30 2888 C 284.88 3.49109 2.41677 0
M  V30 2889 O 285.904 2.96669 1.97144 0
M  V30 2890 O 284.763 4.40775 3.23079 0
M  V30 2891 H 281.857 0.645376 0.517125 0
M  V30 2892 H 284.403 1.65553 0.37285 0
M  V30 2893 H 283.175 3.73061 1.18071 0
M  V30 2894 H 282.798 2.92401 2.69421 0
M  V30 2895 N 283.795 -0.628877 1.44509 0
M  V30 2896 C 285.206 -1.21054 1.42137 0
M  V30 2897 C 285.557 -1.95715 0.137881 0
M  V30 2898 O 284.682 -2.02554 -0.761645 0
M  V30 2899 C 285.277 -2.20189 2.57493 0
M  V30 2900 C 283.836 -2.73777 2.58308 0
M  V30 2901 C 282.983 -1.48813 2.33987 0
M  V30 2902 H 285.934 -0.41942 1.53057 0
M  V30 2903 H 285.955 -3.02833 2.30375 0
M  V30 2904 H 285.467 -1.6582 3.50892 0
M  V30 2905 H 283.568 -3.32142 1.68856 0
M  V30 2906 H 283.681 -3.19662 3.56865 0
M  V30 2907 H 282.045 -1.77024 1.83124 0
M  V30 2908 H 282.828 -0.963442 3.29504 0
M  V30 2909 N 285.273 -1.31445 -0.869486 0
M  V30 2910 C 286.519 -1.21337 -1.62496 0
M  V30 2911 C 286.852 0.227872 -1.92858 0
M  V30 2912 O 286.127 1.16094 -1.56053 0
M  V30 2913 C 286.41 -2.05814 -2.95487 0
M  V30 2914 C 286.263 -3.5824 -2.72 0
M  V30 2915 C 287.582 -1.9079 -3.96594 0
M  V30 2916 H 284.701 -0.442135 -0.589649 0
M  V30 2917 H 287.343 -1.6124 -1.00507 0
M  V30 2918 H 285.493 -1.71913 -3.48394 0
M  V30 2919 H 287.165 -4.0228 -2.25762 0
M  V30 2920 H 285.408 -3.81647 -2.06224 0
M  V30 2921 H 286.079 -4.12657 -3.66631 0
M  V30 2922 H 288.555 -2.20459 -3.52898 0
M  V30 2923 H 287.431 -2.52199 -4.87531 0
M  V30 2924 H 287.692 -0.871341 -4.33428 0
M  V30 2925 N 286.751 1.08385 -1.14413 0
M  V30 2926 C 287.714 2.13486 -0.834048 0
M  V30 2927 C 288.714 1.59988 0.161418 0
M  V30 2928 O 289.904 1.74071 -0.0669575 0
M  V30 2929 C 287.036 3.4003 -0.243354 0
M  V30 2930 H 288.229 2.42425 -1.7655 0
M  V30 2931 H 285.782 1.24101 -0.950189 0
M  V30 2932 H 286.517 3.16726 0.696807 0
M  V30 2933 H 286.302 3.80157 -0.960367 0
M  V30 2934 H 287.792 4.17577 -0.0436242 0
M  V30 2935 N 288.23 0.939286 1.26551 0
M  V30 2936 C 289.476 0.586715 1.94128 0
M  V30 2937 C 289.809 -0.8717 1.73537 0
M  V30 2938 O 289.084 -1.62339 1.07127 0
M  V30 2939 C 289.367 0.927497 3.4795 0
M  V30 2940 C 289.22 2.44052 3.77834 0
M  V30 2941 C 290.539 0.441569 4.37879 0
M  V30 2942 H 287.658 0.21463 0.705055 0
M  V30 2943 H 290.3 1.17316 1.49455 0
M  V30 2944 H 288.45 0.428431 3.8613 0
M  V30 2945 H 290.122 3.01216 3.4938 0
M  V30 2946 H 288.365 2.8848 3.23978 0
M  V30 2947 H 289.036 2.62947 4.85348 0
M  V30 2948 H 291.512 0.869448 4.06915 0
M  V30 2949 H 290.388 0.708856 5.44304 0
M  V30 2950 H 290.649 -0.658467 4.37169 0
M  V30 2951 N 289.708 -1.40897 0.706093 0
M  V30 2952 C 290.638 -2.33418 0.0620085 0
M  V30 2953 C 291.619 -1.52385 -0.755827 0
M  V30 2954 O 292.804 -1.80886 -0.706674 0
M  V30 2955 C 289.934 -3.36293 -0.867445 0
M  V30 2956 C 288.888 -4.27716 -0.155932 0
M  V30 2957 C 288.214 -5.2105 -1.20046 0
M  V30 2958 C 289.514 -5.12944 0.984149 0
M  V30 2959 H 291.208 -2.87527 0.83477 0
M  V30 2960 H 288.754 -1.38249 0.402875 0
M  V30 2961 H 290.707 -3.99949 -1.32735 0
M  V30 2962 H 289.431 -2.80556 -1.67199 0
M  V30 2963 H 288.09 -3.65498 0.284047 0
M  V30 2964 H 287.738 -4.61624 -1.99781 0
M  V30 2965 H 287.438 -5.83056 -0.729328 0
M  V30 2966 H 288.962 -5.87584 -1.66066 0
M  V30 2967 H 290.376 -5.70109 0.604048 0
M  V30 2968 H 288.773 -5.83945 1.38304 0
M  V30 2969 H 289.843 -4.49485 1.81911 0
M  V30 2970 N 291.186 -0.45159 -1.50991 0
M  V30 2971 C 292.149 0.341117 -2.26647 0
M  V30 2972 C 293.149 0.937422 -1.30649 0
M  V30 2973 O 294.339 0.809644 -1.54241 0
M  V30 2974 C 291.471 1.48398 -3.06905 0
M  V30 2975 H 292.664 -0.322117 -2.98165 0
M  V30 2976 H 290.217 -0.205122 -1.54948 0
M  V30 2977 H 290.952 2.18284 -2.39838 0
M  V30 2978 H 290.737 1.06241 -3.77432 0
M  V30 2979 H 292.227 2.04367 -3.64176 0
M  V30 2980 N 292.664 1.56529 -0.183458 0
M  V30 2981 C 293.91 1.97537 0.459036 0
M  V30 2982 C 294.243 1.06989 1.62071 0
M  V30 2983 O 293.518 0.11948 1.94133 0
M  V30 2984 C 293.801 3.47874 0.930368 0
M  V30 2985 C 293.654 4.492 -0.232317 0
M  V30 2986 C 294.973 4.01612 1.79989 0
M  V30 2987 H 292.092 0.718204 0.165383 0
M  V30 2988 H 294.734 1.88042 -0.272038 0
M  V30 2989 H 292.884 3.56095 1.55333 0
M  V30 2990 H 294.556 4.53027 -0.86972 0
M  V30 2991 H 292.799 4.24657 -0.885928 0
M  V30 2992 H 293.47 5.51823 0.139796 0
M  V30 2993 H 295.946 3.96097 1.27461 0
M  V30 2994 H 294.822 5.07195 2.09867 0
M  V30 2995 H 295.083 3.46163 2.74998 0
M  V30 2996 N 294.142 -0.090211 1.57342 0
M  V30 2997 C 295.389 -0.792807 1.86335 0
M  V30 2998 C 295.717 -1.78494 0.772662 0
M  V30 2999 O 294.972 -1.94305 -0.233258 0
M  V30 3000 C 295.271 -1.55222 3.21933 0
M  V30 3001 C 294.937 -0.701765 4.45406 0
M  V30 3002 C 293.599 -0.467334 4.78925 0
M  V30 3003 C 295.951 -0.11086 5.21082 0
M  V30 3004 C 293.279 0.367785 5.85546 0
M  V30 3005 C 295.631 0.711609 6.28585 0
M  V30 3006 C 294.295 0.956086 6.60617 0
M  V30 3007 H 293.565 -0.290109 0.681849 0
M  V30 3008 H 296.212 -0.0541332 1.91423 0
M  V30 3009 H 294.517 -2.3626 3.12551 0
M  V30 3010 H 296.214 -2.10032 3.41595 0
M  V30 3011 H 292.804 -0.894598 4.1916 0
M  V30 3012 H 296.988 -0.279129 4.95514 0
M  V30 3013 H 292.244 0.566128 6.08773 0
M  V30 3014 H 296.418 1.17632 6.86393 0
M  V30 3015 H 294.045 1.60499 7.43064 0
M  V30 3016 N 295.62 -1.53406 -0.361157 0
M  V30 3017 C 296.53 -1.83122 -1.4664 0
M  V30 3018 C 297.546 -0.719943 -1.58407 0
M  V30 3019 O 298.722 -1.01046 -1.74218 0
M  V30 3020 C 295.787 -2.01891 -2.81853 0
M  V30 3021 C 294.848 -3.25784 -2.79577 0
M  V30 3022 C 294.081 -3.43648 -4.0834 0
M  V30 3023 O 294.304 -2.65714 -5.0473 0
M  V30 3024 O 293.238 -4.37018 -4.13883 0
M  V30 3025 H 297.064 -2.7703 -1.24451 0
M  V30 3026 H 294.649 -1.38841 -0.551678 0
M  V30 3027 H 296.531 -2.15782 -3.61962 0
M  V30 3028 H 295.206 -1.11173 -3.0401 0
M  V30 3029 H 294.113 -3.17312 -1.98151 0
M  V30 3030 H 295.446 -4.16439 -2.62373 0
M  V30 3031 N 297.098 0.621204 -1.44841 0
M  V30 3032 C 298.008 1.7612 -1.5498 0
M  V30 3033 C 299.024 1.68477 -0.434927 0
M  V30 3034 O 300.2 1.89076 -0.693693 0
M  V30 3035 C 297.265 3.1254 -1.50065 0
M  V30 3036 C 296.326 3.31741 -2.72482 0
M  V30 3037 C 295.559 4.61653 -2.67792 0
M  V30 3038 O 295.782 5.431 -1.74352 0
M  V30 3039 O 294.716 4.83271 -3.58794 0
M  V30 3040 H 298.542 1.70518 -2.51311 0
M  V30 3041 H 296.127 0.783643 -1.27198 0
M  V30 3042 H 298.009 3.93844 -1.49882 0
M  V30 3043 H 296.684 3.18663 -0.568806 0
M  V30 3044 H 295.591 2.50077 -2.7823 0
M  V30 3045 H 296.924 3.30486 -3.64746 0
M  V30 3046 N 298.576 1.31904 0.862503 0
M  V30 3047 C 299.822 1.22197 1.61851 0
M  V30 3048 C 300.155 -0.217641 1.92977 0
M  V30 3049 O 299.43 -1.15264 1.56666 0
M  V30 3050 C 299.713 2.07378 2.94391 0
M  V30 3051 C 299.566 3.59678 2.70096 0
M  V30 3052 C 300.885 1.92891 3.95577 0
M  V30 3053 H 298.004 0.445255 0.587296 0
M  V30 3054 H 300.646 1.6177 0.99651 0
M  V30 3055 H 298.796 1.73758 3.47477 0
M  V30 3056 H 300.468 4.03472 2.23625 0
M  V30 3057 H 298.711 3.82735 2.04197 0
M  V30 3058 H 299.382 4.14595 3.64438 0
M  V30 3059 H 301.858 2.22327 3.51724 0
M  V30 3060 H 300.734 2.54781 4.86187 0
M  V30 3061 H 300.995 0.894315 4.3296 0
M  V30 3062 N 300.054 -1.07777 1.14986 0
M  V30 3063 C 301.004 -2.13082 0.811181 0
M  V30 3064 C 301.988 -1.59619 -0.202597 0
M  V30 3065 O 303.18 -1.77 -0.00398275 0
M  V30 3066 C 300.309 -3.42009 0.297439 0
M  V30 3067 C 299.395 -4.02337 1.34112 0
M  V30 3068 N 299.786 -4.36982 2.54716 0
M  V30 3069 C 298.084 -4.29752 1.19285 0
M  V30 3070 C 298.785 -4.84729 3.21578 0
M  V30 3071 N 297.761 -4.83233 2.48972 0
M  V30 3072 H 301.563 -2.37696 1.72853 0
M  V30 3073 H 299.077 -1.25173 1.03468 0
M  V30 3074 H 301.074 -4.16884 0.0364777 0
M  V30 3075 H 299.734 -3.18841 -0.614022 0
M  V30 3076 H 300.745 -4.27807 2.91894 0
M  V30 3077 H 297.422 -4.16106 0.340926 0
M  V30 3078 H 298.812 -5.20863 4.24442 0
M  V30 3079 N 301.532 -0.945985 -1.26051 0
M  V30 3080 C 302.778 -0.597002 -1.93814 0
M  V30 3081 C 303.111 0.862484 -1.73997 0
M  V30 3082 O 302.386 1.61769 -1.07986 0
M  V30 3083 C 302.669 -0.945937 -3.47454 0
M  V30 3084 C 302.522 -2.46052 -3.76535 0
M  V30 3085 C 303.841 -0.464785 -4.37639 0
M  V30 3086 H 300.96 -0.218366 -0.703907 0
M  V30 3087 H 303.602 -1.18107 -1.48831 0
M  V30 3088 H 301.752 -0.448902 -3.85898 0
M  V30 3089 H 303.424 -3.03065 -3.47778 0
M  V30 3090 H 301.667 -2.90194 -3.22444 0
M  V30 3091 H 302.338 -2.65517 -4.83947 0
M  V30 3092 H 304.814 -0.891016 -4.06448 0
M  V30 3093 H 303.69 -0.737712 -5.4392 0
M  V30 3094 H 303.951 0.635274 -4.37512 0
M  V30 3095 N 303.011 1.40521 -0.713556 0
M  V30 3096 C 303.959 2.32549 -0.0485227 0
M  V30 3097 C 304.953 1.51931 0.74922 0
M  V30 3098 O 306.159 1.67745 0.652816 0
M  V30 3099 H 302.534 0.751994 0.00311138 0
M  V30 3100 H 304.505 2.86291 -0.841443 0
M  V30 3101 C 303.254 3.36879 0.860687 0
M  V30 3102 H 302.577 3.98978 0.256246 0
M  V30 3103 H 304.017 4.03772 1.294 0
M  V30 3104 C 302.476 2.72197 1.9852 0
M  V30 3105 O 303.006 2.5837 3.07584 0
M  V30 3106 N 301.212 2.30612 1.76823 0
M  V30 3107 H 300.759 2.42059 0.881217 0
M  V30 3108 H 300.717 1.87672 2.52243 0
M  V30 3109 N 304.489 0.459591 1.5075 0
M  V30 3110 C 305.399 -0.34613 2.32033 0
M  V30 3111 C 306.415 -1.00686 1.41909 0
M  V30 3112 O 307.591 -0.997361 1.7497 0
M  V30 3113 C 304.656 -1.42029 3.16273 0
M  V30 3114 C 303.717 -0.777362 4.22203 0
M  V30 3115 C 302.95 -1.80034 5.02418 0
M  V30 3116 O 303.173 -3.02544 4.83553 0
M  V30 3117 O 302.107 -1.37853 5.85901 0
M  V30 3118 H 305.933 0.318054 3.0203 0
M  V30 3119 H 303.518 0.221663 1.47746 0
M  V30 3120 H 305.4 -2.04275 3.68578 0
M  V30 3121 H 304.075 -2.06815 2.49016 0
M  V30 3122 H 302.982 -0.116256 3.73919 0
M  V30 3123 H 304.315 -0.172634 4.91897 0
M  V30 3124 N 305.967 -1.56429 0.191757 0
M  V30 3125 C 307.213 -1.97777 -0.448554 0
M  V30 3126 C 307.546 -1.07847 -1.61501 0
M  V30 3127 O 306.821 -0.129774 -1.94067 0
M  V30 3128 C 307.104 -3.48362 -0.911906 0
M  V30 3129 C 306.957 -4.4907 0.256136 0
M  V30 3130 C 308.276 -4.02561 -1.77857 0
M  V30 3131 H 305.395 -0.719071 -0.161572 0
M  V30 3132 H 308.037 -1.87896 0.282007 0
M  V30 3133 H 306.187 -3.56914 -1.53442 0
M  V30 3134 H 307.859 -4.5256 0.893733 0
M  V30 3135 H 306.102 -4.24181 0.908436 0
M  V30 3136 H 306.773 -5.51889 -0.11053 0
M  V30 3137 H 309.249 -3.96767 -1.25359 0
M  V30 3138 H 308.125 -5.08301 -2.07174 0
M  V30 3139 H 308.386 -3.47616 -2.73158 0
M  V30 3140 N 307.445 0.0818655 -1.57387 0
M  V30 3141 C 308.375 1.09885 -2.06028 0
M  V30 3142 C 309.356 1.4098 -0.951774 0
M  V30 3143 O 310.541 1.50781 -1.22387 0
M  V30 3144 C 307.671 2.4151 -2.4958 0
M  V30 3145 C 306.625 2.24792 -3.64215 0
M  V30 3146 C 305.951 3.61712 -3.93787 0
M  V30 3147 C 307.251 1.67749 -4.94629 0
M  V30 3148 H 308.945 0.694128 -2.91243 0
M  V30 3149 H 306.491 0.332448 -1.4011 0
M  V30 3150 H 308.444 3.12939 -2.82219 0
M  V30 3151 H 307.168 2.83943 -1.61381 0
M  V30 3152 H 305.827 1.55807 -3.31843 0
M  V30 3153 H 305.475 4.01697 -3.02735 0
M  V30 3154 H 305.175 3.51368 -4.70971 0
M  V30 3155 H 306.699 4.34587 -4.28913 0
M  V30 3156 H 308.113 2.29032 -5.25564 0
M  V30 3157 H 306.51 1.68128 -5.76067 0
M  V30 3158 H 307.58 0.638059 -4.80684 0
M  V30 3159 N 308.923 1.53595 0.353017 0
M  V30 3160 C 310.17 1.70385 1.09431 0
M  V30 3161 C 310.498 0.462113 1.88931 0
M  V30 3162 O 309.753 -0.556074 1.87633 0
M  V30 3163 C 310.052 2.91313 2.07054 0
M  V30 3164 C 309.718 4.27308 1.43939 0
M  V30 3165 C 308.38 4.64287 1.26454 0
M  V30 3166 C 310.732 5.11829 0.983883 0
M  V30 3167 C 308.06 5.83412 0.620226 0
M  V30 3168 C 310.412 6.31611 0.353516 0
M  V30 3169 C 309.076 6.67293 0.166272 0
M  V30 3170 H 308.346 0.623484 0.400436 0
M  V30 3171 H 310.993 1.87799 0.374655 0
M  V30 3172 H 309.298 2.68463 2.85368 0
M  V30 3173 H 310.995 3.01497 2.64387 0
M  V30 3174 H 307.585 3.98198 1.58543 0
M  V30 3175 H 311.769 4.838 1.10685 0
M  V30 3176 H 307.025 6.09639 0.463681 0
M  V30 3177 H 311.199 6.964 -0.00757555 0
M  V30 3178 H 308.826 7.59461 -0.335047 0
M  V30 3179 N 310.401 -0.613514 1.45168 0
M  V30 3180 C 311.65 -1.36874 1.4815 0
M  V30 3181 C 311.963 -1.952 0.124982 0
M  V30 3182 O 313.169 -2.71481 0.0324176 0
M  V30 3183 C 311.625 -2.47905 2.60904 0
M  V30 3184 C 311.233 -1.96016 4.02842 0
M  V30 3185 C 312.977 -3.24965 2.73126 0
M  V30 3186 C 310.884 -3.04494 5.06988 0
M  V30 3187 H 309.814 -0.514428 0.551253 0
M  V30 3188 H 312.465 -0.658182 1.7129 0
M  V30 3189 H 310.847 -3.21618 2.31037 0
M  V30 3190 H 312.021 -1.29051 4.4236 0
M  V30 3191 H 310.336 -1.31719 3.95018 0
M  V30 3192 H 312.933 -4.05865 3.48106 0
M  V30 3193 H 313.276 -3.75588 1.79553 0
M  V30 3194 H 313.809 -2.5835 3.0249 0
M  V30 3195 H 310.548 -2.58795 6.0225 0
M  V30 3196 H 310.068 -3.70044 4.72046 0
M  V30 3197 H 311.747 -3.68976 5.31475 0
M  V30 3198 N 311.879 -1.3236 -0.855495 0
M  V30 3199 C 313.128 -1.22226 -1.60448 0
M  V30 3200 C 313.441 0.214733 -1.94418 0
M  V30 3201 O 314.647 0.437917 -2.67945 0
M  V30 3202 C 313.103 -2.14063 -2.89318 0
M  V30 3203 C 312.711 -3.62839 -2.62777 0
M  V30 3204 C 314.455 -2.12764 -3.67331 0
M  V30 3205 C 312.362 -4.4664 -3.87643 0
M  V30 3206 H 311.292 -0.453904 -0.602069 0
M  V30 3207 H 313.943 -1.57314 -0.944698 0
M  V30 3208 H 312.325 -1.71889 -3.5675 0
M  V30 3209 H 313.499 -4.1335 -2.03662 0
M  V30 3210 H 311.814 -3.66261 -1.98096 0
M  V30 3211 H 314.411 -2.72611 -4.59987 0
M  V30 3212 H 314.754 -1.11841 -4.00995 0
M  V30 3213 H 315.287 -2.53214 -3.06802 0
M  V30 3214 H 312.026 -5.48373 -3.5912 0
M  V30 3215 H 311.546 -4.0088 -4.46156 0
M  V30 3216 H 313.225 -4.59597 -4.55389 0
M  V30 3217 N 313.357 1.07166 -1.15556 0
M  V30 3218 C 314.603 1.80065 -0.932984 0
M  V30 3219 C 314.936 1.86586 0.53845 0
M  V30 3220 O 314.211 1.35098 1.39924 0
M  V30 3221 C 314.494 3.25022 -1.55025 0
M  V30 3222 C 314.347 3.26634 -3.09242 0
M  V30 3223 C 315.666 4.22341 -1.2376 0
M  V30 3224 H 312.785 0.653697 -0.340366 0
M  V30 3225 H 315.427 1.25389 -1.4275 0
M  V30 3226 H 313.577 3.71712 -1.12972 0
M  V30 3227 H 315.249 2.88173 -3.60214 0
M  V30 3228 H 313.492 2.65539 -3.43033 0
M  V30 3229 H 314.163 4.28854 -3.47546 0
M  V30 3230 H 316.639 3.8405 -1.60139 0
M  V30 3231 H 315.515 5.22053 -1.69564 0
M  V30 3232 H 315.776 4.41828 -0.154938 0
M  V30 3233 N 314.835 0.952656 1.25548 0
M  V30 3234 C 316.082 0.606373 1.93208 0
M  V30 3235 C 316.41 -0.85631 1.74636 0
M  V30 3236 O 315.665 -1.62951 1.08376 0
M  V30 3237 C 315.964 0.908818 3.45652 0
M  V30 3238 C 315.63 2.35722 3.84378 0
M  V30 3239 C 314.292 2.75312 3.9466 0
M  V30 3240 C 316.644 3.29793 4.03591 0
M  V30 3241 C 313.972 4.08047 4.21562 0
M  V30 3242 C 316.324 4.62138 4.31985 0
M  V30 3243 C 314.988 5.01528 4.40484 0
M  V30 3244 H 314.258 0.221888 0.706998 0
M  V30 3245 H 316.905 1.20132 1.49133 0
M  V30 3246 H 315.21 0.231456 3.91116 0
M  V30 3247 H 316.907 0.619498 3.96186 0
M  V30 3248 H 313.497 2.04017 3.76928 0
M  V30 3249 H 317.681 3.00397 3.95064 0
M  V30 3250 H 312.937 4.38212 4.26357 0
M  V30 3251 H 317.111 5.35012 4.45797 0
M  V30 3252 H 314.738 6.04406 4.61083 0
M  V30 3253 N 316.313 -1.40141 0.720998 0
M  V30 3254 C 317.561 -2.0039 0.262323 0
M  V30 3255 C 317.882 -1.57469 -1.15015 0
M  V30 3256 O 317.152 -0.816582 -1.78069 0
M  V30 3257 H 315.732 -0.741063 0.093996 0
M  V30 3258 H 318.394 -1.71398 0.927835 0
M  V30 3259 H 317.49 -3.10658 0.299671 0
M  V30 3260 N 317.792 -0.46758 -1.50504 0
M  V30 3261 C 318.702 0.33382 -2.32213 0
M  V30 3262 C 319.718 0.999323 -1.42441 0
M  V30 3263 O 320.894 0.988068 -1.75497 0
M  V30 3264 C 317.959 1.4035 -3.17022 0
M  V30 3265 C 317.02 0.754961 -4.2261 0
M  V30 3266 C 316.253 1.77367 -5.03365 0
M  V30 3267 O 316.476 2.99976 -4.8515 0
M  V30 3268 O 315.41 1.34744 -5.86624 0
M  V30 3269 H 319.236 -0.334067 -3.01857 0
M  V30 3270 H 316.821 -0.229496 -1.47627 0
M  V30 3271 H 318.703 2.02318 -3.69656 0
M  V30 3272 H 317.378 2.05492 -2.5011 0
M  V30 3273 H 316.285 0.0964244 -3.73976 0
M  V30 3274 H 317.618 0.146545 -4.91982 0
M  V30 3275 N 319.27 1.56325 -0.20005 0
M  V30 3276 C 320.495 2.02548 0.44597 0
M  V30 3277 C 320.92 1.07922 1.5406 0
M  V30 3278 O 320.278 0.0635775 1.81188 0
M  V30 3279 C 320.326 3.47175 0.974761 0
M  V30 3280 O 319.43 3.55671 2.08739 0
M  V30 3281 H 318.771 0.655862 0.103638 0
M  V30 3282 H 321.301 2.02201 -0.312381 0
M  V30 3283 H 321.311 3.87067 1.2901 0
M  V30 3284 H 319.986 4.15538 0.17347 0
M  V30 3285 H 318.563 3.27657 1.78032 0
M  V30 3286 N 320.748 -0.0735177 1.57428 0
M  V30 3287 C 321.678 -1.0879 2.06608 0
M  V30 3288 C 322.659 -1.40473 0.959237 0
M  V30 3289 O 323.844 -1.5013 1.23185 0
M  V30 3290 C 320.974 -2.40183 2.50857 0
M  V30 3291 C 319.928 -2.22858 3.65402 0
M  V30 3292 C 319.254 -3.59619 3.957 0
M  V30 3293 C 320.554 -1.65123 4.95511 0
M  V30 3294 H 322.248 -0.678673 2.91607 0
M  V30 3295 H 319.794 -0.325013 1.40284 0
M  V30 3296 H 321.747 -3.11437 2.83874 0
M  V30 3297 H 320.471 -2.83083 1.62885 0
M  V30 3298 H 319.13 -1.54045 3.32664 0
M  V30 3299 H 318.778 -4.00086 3.04861 0
M  V30 3300 H 318.478 -3.48866 4.72828 0
M  V30 3301 H 320.002 -4.32306 4.31212 0
M  V30 3302 H 321.416 -2.26241 5.26771 0
M  V30 3303 H 319.813 -1.65071 5.7695 0
M  V30 3304 H 320.883 -0.612559 4.81015 0
M  V30 3305 N 322.226 -1.5378 -0.344866 0
M  V30 3306 C 323.156 -1.84662 -1.42906 0
M  V30 3307 C 324.137 -0.701648 -1.54955 0
M  V30 3308 O 325.322 -0.953438 -1.69184 0
M  V30 3309 C 322.452 -2.05503 -2.79974 0
M  V30 3310 C 321.406 -3.21318 -2.82734 0
M  V30 3311 C 320.732 -3.2749 -4.22675 0
M  V30 3312 C 322.032 -4.59456 -2.48389 0
M  V30 3313 H 323.726 -2.75461 -1.17311 0
M  V30 3314 H 321.272 -1.32542 -0.562896 0
M  V30 3315 H 323.225 -2.25691 -3.55867 0
M  V30 3316 H 321.949 -1.11434 -3.07002 0
M  V30 3317 H 320.608 -3.00984 -2.09294 0
M  V30 3318 H 320.256 -2.31019 -4.4681 0
M  V30 3319 H 319.956 -4.05316 -4.25433 0
M  V30 3320 H 321.48 -3.49887 -5.00412 0
M  V30 3321 H 322.894 -4.79667 -3.13995 0
M  V30 3322 H 321.291 -5.39675 -2.62432 0
M  V30 3323 H 322.361 -4.63155 -1.4358 0
M  V30 3324 N 323.704 0.605807 -1.45491 0
M  V30 3325 C 324.652 1.73754 -1.54636 0
M  V30 3326 C 325.646 1.64207 -0.416219 0
M  V30 3327 O 326.852 1.69979 -0.592199 0
M  V30 3328 H 323.227 0.574073 -0.485741 0
M  V30 3329 H 325.198 1.63169 -2.49837 0
M  V30 3330 C 323.947 3.12135 -1.53189 0
M  V30 3331 H 323.27 3.20141 -2.39478 0
M  V30 3332 H 324.71 3.91147 -1.63645 0
M  V30 3333 C 323.169 3.35921 -0.256616 0
M  V30 3334 O 323.699 3.96194 0.662798 0
M  V30 3335 N 321.905 2.90204 -0.151751 0
M  V30 3336 H 321.452 2.41336 -0.90081 0
M  V30 3337 H 321.41 3.06492 0.700699 0
M  V30 3338 N 325.182 1.32811 0.848464 0
M  V30 3339 C 326.459 1.14334 1.58704 0
M  V30 3340 C 326.839 -0.293948 2.09043 0
M  V30 3341 O 326.187 -1.29153 1.88499 0
M  V30 3342 C 326.397 2.17626 2.72837 0
M  V30 3343 C 327.745 2.51282 3.42261 0
M  V30 3344 O 328.769 2.16219 2.83068 0
M  V30 3345 O 327.628 3.11413 4.49093 0
M  V30 3346 H 324.722 0.441601 0.699226 0
M  V30 3347 H 327.268 1.44362 0.892053 0
M  V30 3348 H 326.04 3.14211 2.3321 0
M  V30 3349 H 325.663 1.88628 3.50008 0
M  V30 3350 N 326.66 -1.06551 1.16123 0
M  V30 3351 C 327.623 -2.12132 0.867906 0
M  V30 3352 C 328.623 -1.60224 -0.135944 0
M  V30 3353 O 329.813 -1.73943 0.0946422 0
M  V30 3354 C 326.945 -3.396 0.297419 0
M  V30 3355 H 328.138 -2.39586 1.80385 0
M  V30 3356 H 325.691 -1.22574 0.969812 0
M  V30 3357 H 326.426 -3.17794 -0.64633 0
M  V30 3358 H 326.211 -3.78581 1.02073 0
M  V30 3359 H 327.701 -4.17455 0.110052 0
M  V30 3360 N 328.138 -0.959301 -1.25041 0
M  V30 3361 C 329.384 -0.617525 -1.9317 0
M  V30 3362 C 329.717 0.843981 -1.74902 0
M  V30 3363 O 328.992 1.60615 -1.09696 0
M  V30 3364 C 329.275 -0.982736 -3.46431 0
M  V30 3365 C 329.128 -2.50032 -3.73904 0
M  V30 3366 C 330.447 -0.511176 -4.37121 0
M  V30 3367 H 327.566 -0.22582 -0.701552 0
M  V30 3368 H 330.208 -1.19679 -1.4757 0
M  V30 3369 H 328.358 -0.489806 -3.854 0
M  V30 3370 H 330.03 -3.06737 -3.44544 0
M  V30 3371 H 328.273 -2.93598 -3.19348 0
M  V30 3372 H 328.944 -2.70635 -4.81103 0
M  V30 3373 H 331.42 -0.934075 -4.0548 0
M  V30 3374 H 330.296 -0.795361 -5.43107 0
M  V30 3375 H 330.557 0.588834 -4.38161 0
M  V30 3376 N 329.616 1.39756 -0.72842 0
M  V30 3377 C 330.844 2.04948 -0.283528 0
M  V30 3378 C 331.259 1.54908 1.0793 0
M  V30 3379 O 330.616 0.711135 1.68075 0
M  V30 3380 C 330.667 3.60498 -0.268957 0
M  V30 3381 O 330.388 4.08695 -1.57798 0
M  V30 3382 C 331.889 4.4288 0.192912 0
M  V30 3383 H 329.109 0.659243 -0.125056 0
M  V30 3384 H 331.653 1.78927 -0.990226 0
M  V30 3385 H 329.808 3.85444 0.388801 0
M  V30 3386 H 330.222 5.02977 -1.48709 0
M  V30 3387 H 331.696 5.51791 0.151952 0
M  V30 3388 H 332.173 4.21418 1.23708 0
M  V30 3389 H 332.779 4.23069 -0.435039 0
M  V30 3390 N 331.094 0.475555 1.50254 0
M  V30 3391 C 332.34 -0.0780073 2.0265 0
M  V30 3392 C 332.673 -1.38968 1.35652 0
M  V30 3393 O 331.948 -1.8839 0.483691 0
M  V30 3394 C 332.231 -0.257161 3.59181 0
M  V30 3395 C 332.084 1.07585 4.36744 0
M  V30 3396 C 333.403 -1.00965 4.28362 0
M  V30 3397 H 330.522 -0.0268758 0.73651 0
M  V30 3398 H 333.164 0.622015 1.7953 0
M  V30 3399 H 331.314 -0.853412 3.79011 0
M  V30 3400 H 332.986 1.70902 4.28474 0
M  V30 3401 H 331.229 1.6714 4.00308 0
M  V30 3402 H 331.9 0.904088 5.44546 0
M  V30 3403 H 334.376 -0.504214 4.13034 0
M  V30 3404 H 333.252 -1.10381 5.37687 0
M  V30 3405 H 333.513 -2.04731 3.91839 0
M  V30 3406 N 332.573 -1.56217 0.208337 0
M  V30 3407 C 333.819 -1.98242 -0.427552 0
M  V30 3408 C 334.152 -1.09554 -1.60348 0
M  V30 3409 O 333.427 -0.15035 -1.93918 0
M  V30 3410 C 333.71 -3.4931 -0.874907 0
M  V30 3411 C 333.563 -4.48773 0.303751 0
M  V30 3412 C 334.882 -4.04424 -1.73577 0
M  V30 3413 H 332.001 -0.720744 -0.153936 0
M  V30 3414 H 334.643 -1.87586 0.30192 0
M  V30 3415 H 332.793 -3.58522 -1.49648 0
M  V30 3416 H 334.465 -4.51586 0.941682 0
M  V30 3417 H 332.708 -4.23194 0.953375 0
M  V30 3418 H 333.379 -5.51976 -0.0519883 0
M  V30 3419 H 335.855 -3.98075 -1.21143 0
M  V30 3420 H 334.731 -5.1047 -2.01771 0
M  V30 3421 H 334.992 -3.50494 -2.69456 0
M  V30 3422 N 334.051 0.0651679 -1.57465 0
M  V30 3423 C 334.981 1.07693 -2.07182 0
M  V30 3424 C 335.962 1.39962 -0.966673 0
M  V30 3425 O 337.147 1.49475 -1.2398 0
M  V30 3426 C 334.277 2.3885 -2.52127 0
M  V30 3427 C 333.231 2.20917 -3.66579 0
M  V30 3428 C 332.557 3.57515 -3.97601 0
M  V30 3429 C 333.857 1.62493 -4.9638 0
M  V30 3430 H 335.551 0.663199 -2.91962 0
M  V30 3431 H 333.097 0.317569 -1.40455 0
M  V30 3432 H 335.05 3.09928 -2.85522 0
M  V30 3433 H 333.774 2.82215 -1.64384 0
M  V30 3434 H 332.433 1.52279 -3.33477 0
M  V30 3435 H 332.081 3.98463 -3.06979 0
M  V30 3436 H 331.781 3.46353 -4.74672 0
M  V30 3437 H 333.305 4.30013 -4.33499 0
M  V30 3438 H 334.719 2.23445 -5.27963 0
M  V30 3439 H 333.116 1.62009 -5.77818 0
M  V30 3440 H 334.186 0.587041 -4.81333 0
M  V30 3441 N 335.529 1.53961 0.336706 0
M  V30 3442 C 336.759 1.75229 1.09446 0
M  V30 3443 C 337.167 0.494602 1.82621 0
M  V30 3444 O 336.51 -0.543764 1.75468 0
M  V30 3445 C 336.572 2.88288 2.1478 0
M  V30 3446 C 336.236 4.27656 1.6112 0
M  V30 3447 C 337.233 5.08981 1.0599 0
M  V30 3448 C 334.918 4.74161 1.6576 0
M  V30 3449 C 336.912 6.34916 0.562129 0
M  V30 3450 C 334.599 6.00067 1.15595 0
M  V30 3451 C 335.597 6.80278 0.609147 0
M  V30 3452 O 335.285 8.03818 0.114999 0
M  V30 3453 H 335.017 0.588881 0.331956 0
M  V30 3454 H 337.571 2.01614 0.392566 0
M  V30 3455 H 335.801 2.57443 2.88548 0
M  V30 3456 H 337.49 2.97461 2.76174 0
M  V30 3457 H 338.256 4.74213 1.01722 0
M  V30 3458 H 334.135 4.11781 2.07261 0
M  V30 3459 H 337.679 6.9747 0.134668 0
M  V30 3460 H 333.576 6.3433 1.19566 0
M  V30 3461 H 334.344 8.18172 0.231651 0
M  V30 3462 N 337.007 -0.598083 1.45811 0
M  V30 3463 C 337.955 -1.72932 1.55555 0
M  V30 3464 C 338.949 -1.63984 0.424921 0
M  V30 3465 O 340.155 -1.69663 0.601205 0
M  V30 3466 H 336.53 -0.571489 0.488779 0
M  V30 3467 H 338.501 -1.61842 2.50699 0
M  V30 3468 C 337.25 -3.11318 1.54843 0
M  V30 3469 H 336.573 -3.18867 2.41172 0
M  V30 3470 H 338.013 -3.90274 1.65717 0
M  V30 3471 C 336.472 -3.3578 0.274427 0
M  V30 3472 O 337.002 -3.9654 -0.641778 0
M  V30 3473 N 335.208 -2.90119 0.167139 0
M  V30 3474 H 334.755 -2.40855 0.913596 0
M  V30 3475 H 334.713 -3.0686 -0.684435 0
M  V30 3476 N 338.485 -1.33259 -0.841409 0
M  V30 3477 C 339.731 -1.24757 -1.59886 0
M  V30 3478 C 340.064 0.186913 -1.93298 0
M  V30 3479 O 339.339 1.12757 -1.5848 0
M  V30 3480 C 339.622 -2.12036 -2.91055 0
M  V30 3481 C 339.475 -3.63929 -2.6434 0
M  V30 3482 C 340.794 -1.9916 -3.92458 0
M  V30 3483 H 337.913 -0.454542 -0.580138 0
M  V30 3484 H 340.555 -1.63335 -0.970647 0
M  V30 3485 H 338.705 -1.79265 -3.44669 0
M  V30 3486 H 340.377 -4.06978 -2.17178 0
M  V30 3487 H 338.62 -3.85935 -1.98082 0
M  V30 3488 H 339.291 -4.20341 -3.57796 0
M  V30 3489 H 341.767 -2.27895 -3.48143 0
M  V30 3490 H 340.643 -2.62484 -4.82072 0
M  V30 3491 H 340.904 -0.963082 -4.31482 0
M  V30 3492 N 339.963 1.05934 -1.16686 0
M  V30 3493 C 341.21 1.788 -0.950622 0
M  V30 3494 C 341.538 1.87384 0.521305 0
M  V30 3495 O 340.793 1.36438 1.40297 0
M  V30 3496 C 341.092 3.23105 -1.52767 0
M  V30 3497 C 340.758 3.34594 -3.02254 0
M  V30 3498 C 339.42 3.37437 -3.43059 0
M  V30 3499 C 341.772 3.36219 -3.98254 0
M  V30 3500 C 339.1 3.39525 -4.78477 0
M  V30 3501 C 341.452 3.39845 -5.33562 0
M  V30 3502 C 340.116 3.40971 -5.73842 0
M  V30 3503 H 339.386 0.654275 -0.347857 0
M  V30 3504 H 342.033 1.24555 -1.45459 0
M  V30 3505 H 340.338 3.80227 -0.94524 0
M  V30 3506 H 342.035 3.7809 -1.336 0
M  V30 3507 H 338.625 3.3309 -2.6972 0
M  V30 3508 H 342.809 3.33231 -3.67792 0
M  V30 3509 H 338.065 3.38703 -5.09009 0
M  V30 3510 H 342.239 3.4005 -6.07733 0
M  V30 3511 H 339.866 3.42342 -6.78753 0
M  V30 3512 N 341.441 0.965919 1.2453 0
M  V30 3513 C 342.351 0.502154 2.29163 0
M  V30 3514 C 343.367 -0.436017 1.68448 0
M  V30 3515 O 344.543 -0.309497 1.99008 0
M  V30 3516 C 341.608 -0.201956 3.46111 0
M  V30 3517 C 340.669 0.775821 4.22232 0
M  V30 3518 C 339.902 0.105217 5.33596 0
M  V30 3519 O 340.125 -1.10683 5.59558 0
M  V30 3520 O 339.059 0.796475 5.96607 0
M  V30 3521 H 342.885 1.37194 2.70946 0
M  V30 3522 H 340.47 0.732875 1.30189 0
M  V30 3523 H 342.352 -0.597564 4.17142 0
M  V30 3524 H 341.027 -1.04673 3.06309 0
M  V30 3525 H 339.934 1.22185 3.53584 0
M  V30 3526 H 341.267 1.58896 4.65846 0
M  V30 3527 N 342.919 -1.39368 0.735821 0
M  V30 3528 C 344.144 -2.05319 0.293052 0
M  V30 3529 C 344.569 -1.55115 -1.064 0
M  V30 3530 O 343.927 -0.695261 -1.67439 0
M  V30 3531 C 343.975 -3.59305 0.305323 0
M  V30 3532 O 343.079 -4.06299 -0.706761 0
M  V30 3533 H 342.42 -0.650529 0.13307 0
M  V30 3534 H 344.95 -1.78386 1.00197 0
M  V30 3535 H 344.96 -4.07724 0.149997 0
M  V30 3536 H 343.635 -3.95207 1.29553 0
M  V30 3537 H 342.212 -3.69292 -0.517504 0
M  V30 3538 N 344.397 -0.483516 -1.5 0
M  V30 3539 C 345.644 0.0671597 -2.02389 0
M  V30 3540 C 345.972 1.38597 -1.36459 0
M  V30 3541 O 345.227 1.89634 -0.483458 0
M  V30 3542 C 345.526 0.286226 -3.56252 0
M  V30 3543 C 345.192 -0.952416 -4.40726 0
M  V30 3544 C 343.854 -1.29199 -4.63531 0
M  V30 3545 C 346.206 -1.77655 -4.89988 0
M  V30 3546 C 343.534 -2.45553 -5.32842 0
M  V30 3547 C 345.886 -2.93147 -5.60578 0
M  V30 3548 C 344.55 -3.27505 -5.81633 0
M  V30 3549 H 343.82 0.0245755 -0.740592 0
M  V30 3550 H 346.467 -0.640124 -1.80485 0
M  V30 3551 H 344.772 1.07587 -3.76739 0
M  V30 3552 H 346.469 0.726473 -3.94365 0
M  V30 3553 H 343.059 -0.677881 -4.23205 0
M  V30 3554 H 347.243 -1.52737 -4.72213 0
M  V30 3555 H 342.499 -2.72431 -5.47349 0
M  V30 3556 H 346.673 -3.57344 -5.97727 0
M  V30 3557 H 344.3 -4.1777 -6.35116 0
M  V30 3558 N 345.875 1.56104 -0.216619 0
M  V30 3559 C 347.121 1.98466 0.417033 0
M  V30 3560 C 347.454 1.10403 1.59765 0
M  V30 3561 O 346.729 0.160632 1.93836 0
M  V30 3562 C 347.012 3.49769 0.85637 0
M  V30 3563 C 346.865 4.48606 -0.327546 0
M  V30 3564 C 348.184 4.05339 1.7143 0
M  V30 3565 H 345.303 0.721551 0.150112 0
M  V30 3566 H 347.945 1.87423 -0.311864 0
M  V30 3567 H 346.095 3.5931 1.47745 0
M  V30 3568 H 347.767 4.5108 -0.965618 0
M  V30 3569 H 346.01 4.22682 -0.975805 0
M  V30 3570 H 346.681 5.51995 0.0227149 0
M  V30 3571 H 349.157 3.98712 1.19031 0
M  V30 3572 H 348.033 5.11533 1.99061 0
M  V30 3573 H 348.294 3.51918 2.67593 0
M  V30 3574 N 347.353 -0.0568162 1.57498 0
M  V30 3575 C 348.316 -1.05038 2.03715 0
M  V30 3576 C 349.316 -1.30709 0.936577 0
M  V30 3577 O 350.506 -1.26178 1.20103 0
M  V30 3578 C 347.638 -2.39034 2.43055 0
M  V30 3579 H 348.831 -0.651715 2.92733 0
M  V30 3580 H 346.384 -0.302947 1.53336 0
M  V30 3581 H 347.119 -2.83703 1.57108 0
M  V30 3582 H 346.904 -2.21739 3.2338 0
M  V30 3583 H 348.394 -3.10421 2.79336 0
M  V30 3584 N 348.832 -1.54138 -0.328536 0
M  V30 3585 C 349.762 -1.86167 -1.40939 0
M  V30 3586 C 350.743 -0.718044 -1.54202 0
M  V30 3587 O 351.928 -0.971328 -1.68163 0
M  V30 3588 C 349.058 -2.08461 -2.77779 0
M  V30 3589 C 348.012 -3.24299 -2.7931 0
M  V30 3590 C 347.338 -3.31955 -4.19178 0
M  V30 3591 C 348.638 -4.62065 -2.43502 0
M  V30 3592 H 350.332 -2.76689 -1.14383 0
M  V30 3593 H 347.878 -1.33132 -0.548806 0
M  V30 3594 H 349.831 -2.29453 -3.53454 0
M  V30 3595 H 348.555 -1.14684 -3.05802 0
M  V30 3596 H 347.214 -3.03187 -2.0609 0
M  V30 3597 H 346.862 -2.35745 -4.44335 0
M  V30 3598 H 346.562 -4.09805 -4.2111 0
M  V30 3599 H 348.086 -3.55175 -4.96672 0
M  V30 3600 H 349.5 -4.8297 -3.08889 0
M  V30 3601 H 347.897 -5.42429 -2.56693 0
M  V30 3602 H 348.967 -4.64652 -1.38659 0
M  V30 3603 N 350.31 0.590341 -1.46126 0
M  V30 3604 C 351.558 1.34616 -1.50742 0
M  V30 3605 C 351.879 1.94363 -0.157486 0
M  V30 3606 O 351.149 1.78136 0.815136 0
M  V30 3607 H 349.729 0.499789 -0.555175 0
M  V30 3608 H 352.391 0.691953 -1.82203 0
M  V30 3609 H 351.487 2.15678 -2.25587 0
M  V30 3610 N 351.788 1.33704 0.83433 0
M  V30 3611 C 353.036 1.25169 1.58673 0
M  V30 3612 C 353.357 -0.18127 1.94156 0
M  V30 3613 O 352.627 -1.11113 1.6134 0
M  V30 3614 H 351.207 0.4603 0.58833 0
M  V30 3615 H 353.869 1.67478 0.996847 0
M  V30 3616 H 352.965 1.84856 2.51465 0
M  V30 3617 N 353.266 -1.05314 1.17247 0
M  V30 3618 C 354.543 -1.75184 0.87005 0
M  V30 3619 C 354.923 -2.01481 -0.629965 0
M  V30 3620 O 354.271 -1.64988 -1.58086 0
M  V30 3621 C 354.481 -3.04594 1.70363 0
M  V30 3622 C 355.829 -3.78567 1.92281 0
M  V30 3623 O 356.853 -3.14461 1.67311 0
M  V30 3624 O 355.712 -4.93755 2.3424 0
M  V30 3625 H 352.806 -0.761729 0.322021 0
M  V30 3626 H 355.352 -1.11493 1.27935 0
M  V30 3627 H 354.124 -2.81201 2.72106 0
M  V30 3628 H 353.747 -3.76022 1.29202 0
M  V30 3629 N 354.744 -0.972509 -1.24016 0
M  V30 3630 C 355.692 -0.498562 -2.27194 0
M  V30 3631 C 356.686 0.440372 -1.63576 0
M  V30 3632 O 357.892 0.315133 -1.7722 0
M  V30 3633 H 354.267 -0.142775 -0.738322 0
M  V30 3634 H 356.238 -1.38065 -2.64539 0
M  V30 3635 C 354.987 0.191072 -3.47175 0
M  V30 3636 H 354.31 -0.522318 -3.96373 0
M  V30 3637 H 355.75 0.486445 -4.212 0
M  V30 3638 C 354.209 1.41967 -3.05527 0
M  V30 3639 O 354.739 2.51642 -3.13112 0
M  V30 3640 N 352.945 1.28746 -2.60524 0
M  V30 3641 H 352.492 0.395089 -2.54552 0
M  V30 3642 H 352.45 2.11061 -2.33025 0
M  V30 3643 N 356.222 1.38976 -0.743202 0
M  V30 3644 C 357.468 2.0064 -0.295189 0
M  V30 3645 C 357.801 1.5885 1.11716 0
M  V30 3646 O 357.076 0.821181 1.76315 0
M  V30 3647 C 357.359 3.578 -0.406318 0
M  V30 3648 C 357.212 4.09586 -1.85903 0
M  V30 3649 C 358.531 4.39616 0.206439 0
M  V30 3650 H 355.65 0.728935 -0.108733 0
M  V30 3651 H 358.292 1.65067 -0.940897 0
M  V30 3652 H 356.442 3.88235 0.143419 0
M  V30 3653 H 358.114 3.89837 -2.46627 0
M  V30 3654 H 356.357 3.6284 -2.3776 0
M  V30 3655 H 357.028 5.18708 -1.888 0
M  V30 3656 H 359.504 4.15273 -0.262283 0
M  V30 3657 H 358.38 5.48812 0.0983819 0
M  V30 3658 H 358.641 4.22754 1.2935 0
M  V30 3659 N 357.7 0.491464 1.49741 0
M  V30 3660 C 358.928 -0.0535151 2.06831 0
M  V30 3661 C 359.343 -1.31683 1.35296 0
M  V30 3662 O 358.7 -1.77402 0.42836 0
M  V30 3663 C 358.751 -0.320835 3.60073 0
M  V30 3664 O 358.472 0.892394 4.28915 0
M  V30 3665 C 359.973 -0.910519 4.33848 0
M  V30 3666 H 357.193 0.0161909 0.670805 0
M  V30 3667 H 359.737 0.68609 1.92647 0
M  V30 3668 H 357.892 -1.0104 3.73991 0
M  V30 3669 H 358.306 0.649401 5.20464 0
M  V30 3670 H 359.78 -1.04721 5.41976 0
M  V30 3671 H 360.257 -1.90589 3.95692 0
M  V30 3672 H 360.863 -0.258712 4.24512 0
M  V30 3673 N 359.178 -1.55987 0.224894 0
M  V30 3674 C 360.426 -1.97998 -0.405099 0
M  V30 3675 C 360.747 -1.11387 -1.60056 0
M  V30 3676 O 360.017 -0.191645 -1.9496 0
M  V30 3677 H 358.597 -0.731235 -0.152658 0
M  V30 3678 H 361.259 -1.92279 0.318567 0
M  V30 3679 H 360.355 -3.03463 -0.729167 0
M  V30 3680 N 360.656 0.0484629 -1.57525 0
M  V30 3681 C 361.902 0.744226 -1.88651 0
M  V30 3682 C 362.235 1.76029 -0.820212 0
M  V30 3683 O 361.51 1.93782 0.166985 0
M  V30 3684 C 361.793 1.43128 -3.30434 0
M  V30 3685 C 361.646 0.43005 -4.47739 0
M  V30 3686 C 362.965 2.37031 -3.70816 0
M  V30 3687 H 360.084 0.269089 -0.68612 0
M  V30 3688 H 362.726 0.00713532 -1.89999 0
M  V30 3689 H 360.876 2.05956 -3.29415 0
M  V30 3690 H 362.548 -0.194816 -4.60888 0
M  V30 3691 H 360.791 -0.252522 -4.33064 0
M  V30 3692 H 361.462 0.948874 -5.43783 0
M  V30 3693 H 363.938 1.84263 -3.73077 0
M  V30 3694 H 362.814 2.82094 -4.70865 0
M  V30 3695 H 363.075 3.22864 -3.02012 0
M  V30 3696 N 362.134 1.5431 0.320358 0
M  V30 3697 C 363.411 1.63322 1.07635 0
M  V30 3698 C 363.791 0.46912 2.05821 0
M  V30 3699 O 363.139 -0.536274 2.22118 0
M  V30 3700 C 363.349 3.00465 1.77544 0
M  V30 3701 C 364.697 3.56621 2.30449 0
M  V30 3702 O 365.721 3.02791 1.87606 0
M  V30 3703 O 364.58 4.5083 3.08892 0
M  V30 3704 H 361.674 0.661502 0.496331 0
M  V30 3705 H 364.22 1.66656 0.319992 0
M  V30 3706 H 362.992 3.76629 1.06143 0
M  V30 3707 H 362.615 3.00824 2.59982 0
M  V30 3708 N 363.613 -0.582584 1.46437 0
M  V30 3709 C 364.853 -1.35184 1.53312 0
M  V30 3710 C 365.217 -1.9115 0.180508 0
M  V30 3711 O 366.418 -2.68514 0.124017 0
M  V30 3712 C 364.689 -2.45089 2.60127 0
M  V30 3713 S 366.248 -3.32439 2.86408 0
M  V30 3714 H 363.066 -0.460559 0.54167 0
M  V30 3715 H 365.668 -0.669709 1.83671 0
M  V30 3716 H 364.372 -2.02366 3.57038 0
M  V30 3717 H 363.903 -3.18074 2.315 0
M  V30 3718 H 365.918 -4.43924 2.21688 0
M  V30 3719 N 365.091 -1.34144 -0.827227 0
M  V30 3720 C 366.337 -1.26446 -1.58554 0
M  V30 3721 C 366.67 0.1664 -1.93486 0
M  V30 3722 O 365.945 1.1107 -1.59667 0
M  V30 3723 C 366.228 -2.15111 -2.8879 0
M  V30 3724 C 366.081 -3.66712 -2.60465 0
M  V30 3725 C 367.4 -2.03311 -3.90324 0
M  V30 3726 H 364.519 -0.46067 -0.575284 0
M  V30 3727 H 367.161 -1.64356 -0.953269 0
M  V30 3728 H 365.311 -1.8291 -3.42748 0
M  V30 3729 H 366.983 -4.09259 -2.1285 0
M  V30 3730 H 365.226 -3.88014 -1.93978 0
M  V30 3731 H 365.897 -4.24112 -3.53317 0
M  V30 3732 H 368.373 -2.31574 -3.45706 0
M  V30 3733 H 367.249 -2.67582 -4.79261 0
M  V30 3734 H 367.51 -1.00879 -4.30437 0
M  V30 3735 N 366.569 1.04691 -1.17803 0
M  V30 3736 C 367.516 2.12557 -0.899343 0
M  V30 3737 C 368.486 1.65339 0.158771 0
M  V30 3738 O 369.671 1.90789 0.0204797 0
M  V30 3739 C 366.811 3.42481 -0.424315 0
M  V30 3740 C 365.924 4.03346 -1.54713 0
M  V30 3741 C 365.059 5.21208 -1.02546 0
M  V30 3742 C 364.098 5.74089 -2.12339 0
M  V30 3743 N 363.235 6.83247 -1.61612 0
M  V30 3744 H 368.075 2.35734 -1.823 0
M  V30 3745 H 365.612 1.1564 -0.909159 0
M  V30 3746 H 367.57 4.16996 -0.130421 0
M  V30 3747 H 366.2 3.19471 0.462377 0
M  V30 3748 H 365.252 3.2622 -1.95664 0
M  V30 3749 H 366.564 4.38628 -2.37501 0
M  V30 3750 H 365.718 6.02812 -0.685718 0
M  V30 3751 H 364.457 4.87414 -0.167084 0
M  V30 3752 H 363.462 4.91111 -2.47165 0
M  V30 3753 H 364.687 6.0993 -2.98601 0
M  V30 3754 H 362.633 6.5134 -0.780533 0
M  V30 3755 H 362.55 7.17559 -2.38003 0
M  V30 3756 H 363.818 7.68491 -1.30545 0
M  V30 3757 N 368.047 0.979072 1.23499 0
M  V30 3758 C 369.295 0.645941 1.91499 0
M  V30 3759 C 369.616 -0.822948 1.76784 0
M  V30 3760 O 368.886 -1.58854 1.14639 0
M  V30 3761 H 367.466 0.235919 0.708767 0
M  V30 3762 H 370.128 1.2426 1.50152 0
M  V30 3763 H 369.224 0.896411 2.9895 0
M  V30 3764 N 369.525 -1.3858 0.750561 0
M  V30 3765 C 370.774 -1.99424 0.302172 0
M  V30 3766 C 371.087 -1.60254 -1.12152 0
M  V30 3767 O 372.293 -2.14046 -1.67023 0
M  V30 3768 C 370.749 -3.56558 0.489307 0
M  V30 3769 C 370.357 -4.04682 1.92189 0
M  V30 3770 C 372.101 -4.24374 0.103478 0
M  V30 3771 C 370.008 -5.54446 2.05775 0
M  V30 3772 H 368.938 -0.746046 0.10923 0
M  V30 3773 H 371.589 -1.58383 0.92667 0
M  V30 3774 H 369.971 -3.95472 -0.204329 0
M  V30 3775 H 371.145 -3.77065 2.64875 0
M  V30 3776 H 369.46 -3.4958 2.26236 0
M  V30 3777 H 372.057 -5.34384 0.183787 0
M  V30 3778 H 372.4 -4.05468 -0.943481 0
M  V30 3779 H 372.933 -3.90688 0.748854 0
M  V30 3780 H 369.672 -5.78252 3.08714 0
M  V30 3781 H 369.192 -5.83816 1.37546 0
M  V30 3782 H 370.871 -6.20099 1.84626 0
M  V30 3783 N 371.003 -0.499398 -1.49478 0
M  V30 3784 C 372.249 0.0457576 -2.02748 0
M  V30 3785 C 372.582 1.36793 -1.37846 0
M  V30 3786 O 371.857 1.87596 -0.513601 0
M  V30 3787 C 372.14 0.199986 -3.59544 0
M  V30 3788 C 371.993 -1.1452 -4.34977 0
M  V30 3789 C 373.312 0.94137 -4.29914 0
M  V30 3790 H 370.431 0.0151552 -0.736844 0
M  V30 3791 H 373.073 -0.650498 -1.78518 0
M  V30 3792 H 371.223 0.793007 -3.8032 0
M  V30 3793 H 372.895 -1.77697 -4.25701 0
M  V30 3794 H 371.138 -1.73488 -3.97598 0
M  V30 3795 H 371.809 -0.990607 -5.43039 0
M  V30 3796 H 374.285 0.43844 -4.13784 0
M  V30 3797 H 373.161 1.01812 -5.39375 0
M  V30 3798 H 373.422 1.98471 -3.95046 0
M  V30 3799 N 372.481 1.55866 -0.233164 0
M  V30 3800 C 373.706 2.03449 0.402906 0
M  V30 3801 C 374.131 1.11166 1.51736 0
M  V30 3802 O 373.489 0.101996 1.81013 0
M  V30 3803 C 373.537 3.49165 0.9009 0
M  V30 3804 O 372.641 3.60019 2.01147 0
M  V30 3805 H 371.982 0.657913 0.0897025 0
M  V30 3806 H 374.512 2.01493 -0.355201 0
M  V30 3807 H 374.522 3.89716 1.2077 0
M  V30 3808 H 373.197 4.15813 0.0852889 0
M  V30 3809 H 371.774 3.3136 1.71042 0
M  V30 3810 N 373.959 -0.0401083 1.57549 0
M  V30 3811 C 375.206 -0.733125 1.88763 0
M  V30 3812 C 375.534 -1.75946 0.829058 0
M  V30 3813 O 374.789 -1.94949 -0.171323 0
M  V30 3814 C 375.088 -1.44902 3.26708 0
M  V30 3815 C 374.754 -0.559707 4.47413 0
M  V30 3816 C 373.416 -0.314731 4.8017 0
M  V30 3817 C 375.768 0.0549743 5.21171 0
M  V30 3818 C 373.096 0.553886 5.8408 0
M  V30 3819 C 375.448 0.911229 6.26003 0
M  V30 3820 C 374.112 1.16577 6.57241 0
M  V30 3821 H 373.382 -0.268269 0.690733 0
M  V30 3822 H 376.029 0.00679408 1.91499 0
M  V30 3823 H 374.334 -2.26197 3.1991 0
M  V30 3824 H 376.031 -1.99058 3.48105 0
M  V30 3825 H 372.621 -0.760793 4.21794 0
M  V30 3826 H 376.805 -0.121344 4.96152 0
M  V30 3827 H 372.061 0.759518 6.06664 0
M  V30 3828 H 376.235 1.3941 6.82303 0
M  V30 3829 H 373.862 1.84058 7.37582 0
M  V30 3830 N 375.437 -1.54477 -0.31217 0
M  V30 3831 C 376.684 -1.73227 -1.04875 0
M  V30 3832 C 377.012 -0.512042 -1.87639 0
M  V30 3833 O 376.267 0.506131 -1.89042 0
M  V30 3834 C 376.566 -2.967 -1.99258 0
M  V30 3835 C 376.232 -4.30974 -1.32559 0
M  V30 3836 C 374.894 -4.67477 -1.141 0
M  V30 3837 C 377.246 -5.14258 -0.847835 0
M  V30 3838 C 374.574 -5.84852 -0.465326 0
M  V30 3839 C 376.926 -6.32327 -0.185931 0
M  V30 3840 C 375.59 -6.67499 0.0107077 0
M  V30 3841 H 374.86 -0.633881 -0.383765 0
M  V30 3842 H 377.507 -1.88727 -0.324731 0
M  V30 3843 H 375.812 -2.75935 -2.7815 0
M  V30 3844 H 377.509 -3.08401 -2.563 0
M  V30 3845 H 374.099 -4.02262 -1.4793 0
M  V30 3846 H 378.283 -4.86565 -0.978192 0
M  V30 3847 H 373.539 -6.10654 -0.301883 0
M  V30 3848 H 377.713 -6.96135 0.192211 0
M  V30 3849 H 375.34 -7.58306 0.536287 0
M  V30 3850 N 376.915 0.57481 -1.46744 0
M  V30 3851 C 378.161 1.3347 -1.52688 0
M  V30 3852 C 378.494 1.93353 -0.181229 0
M  V30 3853 O 377.769 1.76912 0.808237 0
M  V30 3854 C 378.052 2.45811 -2.63152 0
M  V30 3855 C 377.905 1.90912 -4.07275 0
M  V30 3856 C 379.224 3.47822 -2.69644 0
M  V30 3857 H 376.343 0.483935 -0.555856 0
M  V30 3858 H 378.985 0.644968 -1.78718 0
M  V30 3859 H 377.135 3.04646 -2.41088 0
M  V30 3860 H 378.807 1.36473 -4.4065 0
M  V30 3861 H 377.05 1.21691 -4.16382 0
M  V30 3862 H 377.721 2.72042 -4.80309 0
M  V30 3863 H 380.197 2.9888 -2.895 0
M  V30 3864 H 379.073 4.23876 -3.48742 0
M  V30 3865 H 379.334 4.05555 -1.76005 0
M  V30 3866 N 378.394 1.34581 0.820102 0
M  V30 3867 C 379.64 1.27285 1.57881 0
M  V30 3868 C 379.973 -0.156137 1.93571 0
M  V30 3869 O 379.248 -1.10222 1.60254 0
M  V30 3870 C 379.531 2.16639 2.87645 0
M  V30 3871 C 379.384 3.68088 2.58517 0
M  V30 3872 C 380.703 2.05378 3.8924 0
M  V30 3873 H 377.822 0.463714 0.572833 0
M  V30 3874 H 380.464 1.64859 0.944539 0
M  V30 3875 H 378.614 1.84725 3.41773 0
M  V30 3876 H 380.286 4.10382 2.10676 0
M  V30 3877 H 378.529 3.89038 1.91917 0
M  V30 3878 H 379.2 4.2598 3.51063 0
M  V30 3879 H 381.676 2.33404 3.44473 0
M  V30 3880 H 380.552 2.7012 4.77835 0
M  V30 3881 H 380.813 1.0316 4.29896 0
M  V30 3882 N 379.872 -1.04064 1.18357 0
M  V30 3883 C 381.097 -1.81454 1.00445 0
M  V30 3884 C 381.522 -1.82823 -0.442423 0
M  V30 3885 O 380.88 -1.24555 -1.31741 0
M  V30 3886 C 380.928 -3.24925 1.56384 0
M  V30 3887 O 380.032 -4.04856 0.785209 0
M  V30 3888 H 379.373 -0.560604 0.355835 0
M  V30 3889 H 381.903 -1.31059 1.57114 0
M  V30 3890 H 381.913 -3.75702 1.59097 0
M  V30 3891 H 380.588 -3.23244 2.61699 0
M  V30 3892 H 379.165 -3.63537 0.830399 0
M  V30 3893 N 381.35 -0.985608 -1.22978 0
M  V30 3894 C 382.28 -0.549649 -2.26939 0
M  V30 3895 C 383.261 0.419803 -1.64838 0
M  V30 3896 O 384.446 0.31203 -1.91677 0
M  V30 3897 C 381.576 0.143652 -3.47003 0
M  V30 3898 C 380.53 -0.743606 -4.21491 0
M  V30 3899 C 379.856 0.0822027 -5.34637 0
M  V30 3900 C 381.156 -2.03694 -4.80943 0
M  V30 3901 H 382.85 -1.41862 -2.63658 0
M  V30 3902 H 380.396 -0.683571 -1.26741 0
M  V30 3903 H 382.349 0.459985 -4.18882 0
M  V30 3904 H 381.073 1.04711 -3.09359 0
M  V30 3905 H 379.732 -1.04347 -3.51436 0
M  V30 3906 H 379.38 0.986359 -4.93234 0
M  V30 3907 H 379.08 -0.508377 -5.85397 0
M  V30 3908 H 380.604 0.392797 -6.09335 0
M  V30 3909 H 382.018 -1.78504 -5.44802 0
M  V30 3910 H 380.415 -2.57573 -5.42011 0
M  V30 3911 H 381.485 -2.72042 -4.01399 0
M  V30 3912 N 382.828 1.3818 -0.7579 0
M  V30 3913 C 384.076 1.99624 -0.315361 0
M  V30 3914 C 384.397 1.60464 1.10799 0
M  V30 3915 O 383.667 0.863507 1.75842 0
M  V30 3916 H 382.247 0.73831 -0.113611 0
M  V30 3917 H 384.909 1.68878 -0.972952 0
M  V30 3918 H 384.005 3.09754 -0.381931 0
M  V30 3919 N 384.306 0.507319 1.49211 0
M  V30 3920 C 385.554 -0.0348839 2.0207 0
M  V30 3921 C 385.875 -1.36898 1.38866 0
M  V30 3922 O 385.145 -1.88133 0.546151 0
M  V30 3923 H 383.725 -0.0158812 0.746831 0
M  V30 3924 H 386.387 0.665998 1.83168 0
M  V30 3925 H 385.483 -0.159917 3.1169 0
M  V30 3926 N 385.784 -1.5574 0.241426 0
M  V30 3927 C 387.012 -2.03208 -0.389134 0
M  V30 3928 C 387.427 -1.12082 -1.51931 0
M  V30 3929 O 386.784 -0.134183 -1.82006 0
M  V30 3930 C 386.835 -3.50064 -0.902087 0
M  V30 3931 O 386.556 -4.37717 0.18305 0
M  V30 3932 C 388.057 -4.13268 -1.60389 0
M  V30 3933 H 385.277 -0.664509 -0.0931053 0
M  V30 3934 H 387.821 -2.0124 0.36369 0
M  V30 3935 H 385.976 -3.52583 -1.60511 0
M  V30 3936 H 386.39 -5.24097 -0.205579 0
M  V30 3937 H 387.864 -5.17733 -1.91458 0
M  V30 3938 H 388.341 -3.59434 -2.52397 0
M  V30 3939 H 388.947 -4.14655 -0.945576 0
M  V30 3940 N 387.262 0.0317525 -1.57568 0
M  V30 3941 C 388.192 1.03274 -2.0942 0
M  V30 3942 C 389.173 1.3788 -0.996143 0
M  V30 3943 O 390.358 1.46811 -1.27122 0
M  V30 3944 C 387.488 2.33448 -2.57137 0
M  V30 3945 C 386.442 2.13091 -3.71182 0
M  V30 3946 C 385.768 3.49001 -4.05095 0
M  V30 3947 C 387.068 1.51928 -4.99715 0
M  V30 3948 H 388.762 0.60112 -2.93303 0
M  V30 3949 H 386.308 0.287705 -1.41097 0
M  V30 3950 H 388.261 3.03802 -2.92032 0
M  V30 3951 H 386.985 2.78665 -1.70333 0
M  V30 3952 H 385.644 1.45171 -3.36632 0
M  V30 3953 H 385.292 3.91862 -3.15362 0
M  V30 3954 H 384.992 3.36207 -4.81911 0
M  V30 3955 H 386.516 4.20721 -4.42522 0
M  V30 3956 H 387.93 2.12196 -5.32584 0
M  V30 3957 H 386.327 1.49716 -5.81124 0
M  V30 3958 H 387.397 0.484811 -4.8247 0
M  V30 3959 N 388.74 1.54641 0.303973 0
M  V30 3960 C 389.986 1.74038 1.04109 0
M  V30 3961 C 390.319 0.523051 1.87024 0
M  V30 3962 O 389.594 -0.479874 1.88487 0
M  V30 3963 C 389.877 3.02761 1.94955 0
M  V30 3964 C 389.73 4.34787 1.1524 0
M  V30 3965 C 391.049 3.27336 2.94175 0
M  V30 3966 H 388.168 0.63323 0.377079 0
M  V30 3967 H 390.81 1.87354 0.316001 0
M  V30 3968 H 388.96 2.9154 2.56782 0
M  V30 3969 H 390.632 4.57922 0.557236 0
M  V30 3970 H 388.875 4.31407 0.455053 0
M  V30 3971 H 389.546 5.21116 1.8205 0
M  V30 3972 H 392.022 3.38148 2.42477 0
M  V30 3973 H 390.898 4.18726 3.54908 0
M  V30 3974 H 391.159 2.45491 3.67677 0
M  V30 3975 N 390.218 -0.567019 1.47046 0
M  V30 3976 C 391.466 -1.322 1.52864 0
M  V30 3977 C 391.787 -1.94088 0.188388 0
M  V30 3978 O 391.057 -1.7941 -0.786693 0
M  V30 3979 H 389.637 -0.490894 0.563056 0
M  V30 3980 H 392.299 -0.662879 1.83281 0
M  V30 3981 H 391.395 -2.12062 2.2899 0
M  V30 3982 N 391.696 -1.35014 -0.812953 0
M  V30 3983 C 392.942 -1.2812 -1.57204 0
M  V30 3984 C 393.275 0.145869 -1.93651 0
M  V30 3985 O 392.55 1.0937 -1.60836 0
M  V30 3986 C 392.833 -2.18162 -2.86492 0
M  V30 3987 C 392.686 -3.69454 -2.56561 0
M  V30 3988 C 394.005 -2.07439 -3.88145 0
M  V30 3989 H 391.124 -0.466746 -0.570366 0
M  V30 3990 H 393.766 -1.65357 -0.935783 0
M  V30 3991 H 391.916 -1.86535 -3.40789 0
M  V30 3992 H 393.588 -4.11493 -2.08497 0
M  V30 3993 H 391.831 -3.9005 -1.89851 0
M  V30 3994 H 392.502 -4.27835 -3.48799 0
M  V30 3995 H 394.978 -2.35228 -3.4323 0
M  V30 3996 H 393.854 -2.7265 -4.76396 0
M  V30 3997 H 394.115 -1.05439 -4.29343 0
M  V30 3998 N 393.175 1.03435 -1.18907 0
M  V30 3999 C 394.421 1.77005 -0.989798 0
M  V30 4000 C 394.754 1.88205 0.478816 0
M  V30 4001 O 394.029 1.39481 1.35556 0
M  V30 4002 C 394.312 3.19925 -1.65287 0
M  V30 4003 C 394.165 3.1663 -3.19477 0
M  V30 4004 C 395.484 4.18189 -1.37134 0
M  V30 4005 H 392.603 0.642538 -0.360991 0
M  V30 4006 H 395.245 1.20784 -1.46667 0
M  V30 4007 H 393.395 3.67929 -1.24741 0
M  V30 4008 H 395.067 2.76567 -3.692 0
M  V30 4009 H 393.31 2.54491 -3.51307 0
M  V30 4010 H 393.981 4.1758 -3.61013 0
M  V30 4011 H 396.457 3.78761 -1.72276 0
M  V30 4012 H 395.333 5.16394 -1.86087 0
M  V30 4013 H 395.594 4.41112 -0.295424 0
M  V30 4014 N 394.653 0.992116 1.22453 0
M  V30 4015 C 395.9 0.667534 1.91181 0
M  V30 4016 C 396.228 -0.800317 1.77271 0
M  V30 4017 O 395.483 -1.59421 1.13505 0
M  V30 4018 C 395.782 1.01832 3.42586 0
M  V30 4019 C 395.448 2.47831 3.76684 0
M  V30 4020 C 394.11 2.87729 3.85701 0
M  V30 4021 C 396.462 3.42466 3.92895 0
M  V30 4022 C 393.79 4.21252 4.08367 0
M  V30 4023 C 396.142 4.75648 4.17064 0
M  V30 4024 C 394.806 5.15288 4.24305 0
M  V30 4025 H 394.076 0.244268 0.699581 0
M  V30 4026 H 396.723 1.24816 1.45235 0
M  V30 4027 H 395.028 0.355769 3.90181 0
M  V30 4028 H 396.725 0.745228 3.94014 0
M  V30 4029 H 393.315 2.15905 3.70247 0
M  V30 4030 H 397.499 3.12814 3.85307 0
M  V30 4031 H 392.755 4.51554 4.122 0
M  V30 4032 H 396.929 5.48924 4.2855 0
M  V30 4033 H 394.556 6.18769 4.41621 0
M  V30 4034 N 396.131 -1.37776 0.765217 0
M  V30 4035 C 397.094 -2.28686 0.153416 0
M  V30 4036 C 398.094 -1.47727 -0.635081 0
M  V30 4037 O 399.284 -1.68027 -0.459632 0
M  V30 4038 C 396.416 -3.31608 -0.790495 0
M  V30 4039 H 397.609 -2.84297 0.954723 0
M  V30 4040 H 395.162 -1.46932 0.53299 0
M  V30 4041 H 395.897 -2.81109 -1.61705 0
M  V30 4042 H 395.682 -3.9144 -0.227348 0
M  V30 4043 H 397.172 -3.99559 -1.21419 0
M  V30 4044 N 397.609 -0.515225 -1.4894 0
M  V30 4045 C 398.856 0.024215 -2.02486 0
M  V30 4046 C 399.184 1.35671 -1.39368 0
M  V30 4047 O 398.439 1.88566 -0.523574 0
M  V30 4048 C 398.738 0.210595 -3.56779 0
M  V30 4049 C 398.404 -1.04569 -4.38607 0
M  V30 4050 C 397.066 -1.39002 -4.60686 0
M  V30 4051 C 399.418 -1.88008 -4.86109 0
M  V30 4052 C 396.746 -2.568 -5.27514 0
M  V30 4053 C 399.098 -3.04972 -5.54234 0
M  V30 4054 C 397.762 -3.39768 -5.74555 0
M  V30 4055 H 397.032 0.00886088 -0.740947 0
M  V30 4056 H 399.679 -0.678263 -1.79086 0
M  V30 4057 H 397.984 0.99572 -3.78936 0
M  V30 4058 H 399.681 0.642659 -3.95817 0
M  V30 4059 H 396.271 -0.767497 -4.21672 0
M  V30 4060 H 400.455 -1.62719 -4.68867 0
M  V30 4061 H 395.711 -2.8398 -5.41447 0
M  V30 4062 H 399.885 -3.69943 -5.90013 0
M  V30 4063 H 397.512 -4.31148 -6.26112 0
M  V30 4064 N 399.087 1.5561 -0.249682 0
M  V30 4065 C 400.017 2.24477 0.642826 0
M  V30 4066 C 400.998 1.22601 1.17911 0
M  V30 4067 O 402.183 1.5126 1.21795 0
M  V30 4068 C 399.313 2.94638 1.83863 0
M  V30 4069 C 398.267 4.03227 1.435 0
M  V30 4070 C 397.593 4.60828 2.71186 0
M  V30 4071 C 398.893 5.18796 0.604002 0
M  V30 4072 H 400.587 2.99321 0.0685625 0
M  V30 4073 H 398.133 1.43965 0.0315363 0
M  V30 4074 H 400.086 3.41517 2.46868 0
M  V30 4075 H 398.81 2.17287 2.43832 0
M  V30 4076 H 397.469 3.57121 0.828275 0
M  V30 4077 H 397.117 3.80174 3.29358 0
M  V30 4078 H 396.817 5.34132 2.44901 0
M  V30 4079 H 398.341 5.10442 3.35084 0
M  V30 4080 H 399.755 5.61883 1.13842 0
M  V30 4081 H 398.152 5.98506 0.437097 0
M  V30 4082 H 399.222 4.83384 -0.383147 0
M  V30 4083 N 400.565 -0.0233959 1.57583 0
M  V30 4084 C 401.495 -1.02162 2.09965 0
M  V30 4085 C 402.476 -1.3735 1.00344 0
M  V30 4086 O 403.661 -1.46135 1.27899 0
M  V30 4087 C 400.791 -2.32081 2.58371 0
M  V30 4088 C 399.745 -2.1112 3.72307 0
M  V30 4089 C 399.071 -3.46848 4.06941 0
M  V30 4090 C 400.371 -1.49276 5.00514 0
M  V30 4091 H 402.065 -0.585557 2.93618 0
M  V30 4092 H 399.611 -0.280218 1.41247 0
M  V30 4093 H 401.564 -3.02249 2.93639 0
M  V30 4094 H 400.288 -2.77758 1.71808 0
M  V30 4095 H 398.947 -1.43384 3.37397 0
M  V30 4096 H 398.595 -3.90184 3.17436 0
M  V30 4097 H 398.295 -3.33646 4.83688 0
M  V30 4098 H 399.819 -4.18369 4.44747 0
M  V30 4099 H 401.233 -2.09368 5.33702 0
M  V30 4100 H 399.63 -1.46632 5.8191 0
M  V30 4101 H 400.7 -0.459217 4.82721 0
M  V30 4102 N 402.043 -1.548 -0.295768 0
M  V30 4103 C 403.268 -1.78653 -1.05346 0
M  V30 4104 C 403.693 -0.546894 -1.79974 0
M  V30 4105 O 403.051 0.502763 -1.7419 0
M  V30 4106 C 403.099 -2.99679 -2.00561 0
M  V30 4107 O 402.203 -2.7317 -3.08953 0
M  V30 4108 H 401.544 -0.59116 -0.302367 0
M  V30 4109 H 404.074 -2.01895 -0.331598 0
M  V30 4110 H 404.084 -3.27793 -2.42932 0
M  V30 4111 H 402.759 -3.89562 -1.4565 0
M  V30 4112 H 401.336 -2.56089 -2.71059 0
M  V30 4113 N 403.521 0.559213 -1.47345 0
M  V30 4114 C 404.451 1.67622 -1.62558 0
M  V30 4115 C 405.432 1.63331 -0.475087 0
M  V30 4116 O 406.617 1.80983 -0.704182 0
M  V30 4117 C 403.747 3.0626 -1.63774 0
M  V30 4118 C 402.701 3.25397 -2.7803 0
M  V30 4119 C 402.027 4.64801 -2.64318 0
M  V30 4120 C 403.327 3.10965 -4.19641 0
M  V30 4121 H 405.021 1.55146 -2.56067 0
M  V30 4122 H 402.567 0.744961 -1.23233 0
M  V30 4123 H 404.52 3.84247 -1.73008 0
M  V30 4124 H 403.244 3.1969 -0.66825 0
M  V30 4125 H 401.903 2.49817 -2.68304 0
M  V30 4126 H 401.551 4.75028 -1.65401 0
M  V30 4127 H 401.251 4.78555 -3.40968 0
M  V30 4128 H 402.775 5.44926 -2.75478 0
M  V30 4129 H 404.189 3.78772 -4.30354 0
M  V30 4130 H 402.586 3.36229 -4.97062 0
M  V30 4131 H 403.656 2.07736 -4.38148 0
M  V30 4132 N 404.999 1.35443 0.805782 0
M  V30 4133 C 406.245 1.28952 1.56522 0
M  V30 4134 C 406.578 -0.135597 1.93726 0
M  V30 4135 O 405.853 -1.08516 1.61414 0
M  V30 4136 C 406.136 2.19678 2.85331 0
M  V30 4137 C 405.989 3.7081 2.54598 0
M  V30 4138 C 407.308 2.09495 3.8704 0
M  V30 4139 H 404.427 0.469764 0.567883 0
M  V30 4140 H 407.069 1.65851 0.927001 0
M  V30 4141 H 405.219 1.8834 3.39795 0
M  V30 4142 H 406.891 4.12593 2.06312 0
M  V30 4143 H 405.134 3.91051 1.8778 0
M  V30 4144 H 405.805 4.29679 3.46525 0
M  V30 4145 H 408.281 2.37045 3.41978 0
M  V30 4146 H 407.157 2.75173 4.74943 0
M  V30 4147 H 407.418 1.07714 4.28777 0
M  V30 4148 N 406.477 -1.02803 1.19454 0
M  V30 4149 C 407.705 -1.79841 1.02297 0
M  V30 4150 C 408.12 -1.83879 -0.428259 0
M  V30 4151 O 407.477 -1.28345 -1.29745 0
M  V30 4152 C 407.528 -3.24852 1.58598 0
M  V30 4153 O 407.249 -3.21097 2.98041 0
M  V30 4154 C 408.75 -4.18485 1.46236 0
M  V30 4155 H 405.97 -0.565936 0.360496 0
M  V30 4156 H 408.514 -1.2948 1.58288 0
M  V30 4157 H 406.669 -3.72401 1.06753 0
M  V30 4158 H 407.083 -4.12033 3.24545 0
M  V30 4159 H 408.557 -5.18121 1.90407 0
M  V30 4160 H 409.034 -4.37254 0.41301 0
M  V30 4161 H 409.64 -3.76811 1.97215 0
M  V30 4162 N 407.956 -0.998596 -1.21925 0
M  V30 4163 C 409.372 -0.710303 -1.42923 0
M  V30 4164 C 409.572 0.716933 -1.88314 0
M  V30 4165 O 408.628 1.48712 -2.04062 0
M  V30 4166 C 409.941 -1.72072 -2.466 0
M  V30 4167 C 411.489 -1.73681 -2.60392 0
M  V30 4168 C 411.964 -2.73601 -3.67296 0
M  V30 4169 N 413.455 -2.7223 -3.7476 0
M  V30 4170 C 414.19 -3.46206 -4.57087 0
M  V30 4171 N 413.686 -4.29802 -5.43362 0
M  V30 4172 N 415.479 -3.34886 -4.51451 0
M  V30 4173 H 407.63 -1.92028 -0.9077 0
M  V30 4174 H 409.893 -0.828487 -0.460775 0
M  V30 4175 H 409.599 -2.74231 -2.20206 0
M  V30 4176 H 409.473 -1.51818 -3.45299 0
M  V30 4177 H 411.86 -0.722173 -2.86127 0
M  V30 4178 H 411.941 -1.98005 -1.61949 0
M  V30 4179 H 411.585 -3.75217 -3.42307 0
M  V30 4180 H 411.515 -2.46545 -4.65321 0
M  V30 4181 H 414.006 -2.11576 -3.1312 0
M  V30 4182 H 414.319 -4.83061 -6.03218 0
M  V30 4183 H 412.664 -4.33887 -5.42925 0
M  V30 4184 H 415.855 -2.69015 -3.83078 0
M  V30 4185 H 416.028 -3.92796 -5.15379 0
M  V30 4186 N 409.434 1.37368 -0.772513 0
M  V30 4187 C 410.681 1.99673 -0.337182 0
M  V30 4188 C 411.009 1.61324 1.0865 0
M  V30 4189 O 410.264 0.851377 1.7621 0
M  V30 4190 C 410.563 3.54817 -0.428876 0
M  V30 4191 C 410.229 4.12936 -1.81092 0
M  V30 4192 C 408.891 4.28523 -2.1891 0
M  V30 4193 C 411.243 4.44801 -2.71664 0
M  V30 4194 C 408.571 4.73277 -3.46735 0
M  V30 4195 C 410.923 4.90981 -3.98899 0
M  V30 4196 C 409.587 5.04773 -4.36761 0
M  V30 4197 H 408.857 0.730656 -0.123384 0
M  V30 4198 H 411.504 1.64124 -0.986686 0
M  V30 4199 H 409.809 3.90618 0.304167 0
M  V30 4200 H 411.506 4.00933 -0.0733334 0
M  V30 4201 H 408.096 4.01233 -1.50699 0
M  V30 4202 H 412.28 4.32344 -2.43706 0
M  V30 4203 H 407.536 4.82142 -3.75964 0
M  V30 4204 H 411.71 5.14603 -4.69208 0
M  V30 4205 H 409.337 5.39211 -5.35868 0
M  V30 4206 N 410.912 0.523116 1.48665 0
M  V30 4207 C 412.14 -0.0096312 2.06898 0
M  V30 4208 C 412.555 -1.28784 1.38059 0
M  V30 4209 O 411.912 -1.76453 0.465893 0
M  V30 4210 C 411.963 -0.244386 3.60673 0
M  V30 4211 O 411.684 0.983172 4.26925 0
M  V30 4212 C 413.185 -0.818289 4.35682 0
M  V30 4213 H 410.405 0.0304161 0.67031 0
M  V30 4214 H 412.949 0.726799 1.91149 0
M  V30 4215 H 411.104 -0.930847 3.76051 0
M  V30 4216 H 411.518 0.759653 5.1897 0
M  V30 4217 H 412.992 -0.93201 5.44075 0
M  V30 4218 H 413.469 -1.82153 3.99646 0
M  V30 4219 H 414.075 -0.168609 4.24966 0
M  V30 4220 N 412.39 -1.55475 0.257931 0
M  V30 4221 C 413.337 -2.21837 -0.636939 0
M  V30 4222 C 414.307 -1.18596 -1.16294 0
M  V30 4223 O 415.492 -1.47081 -1.21539 0
M  V30 4224 C 412.632 -2.9301 -1.82317 0
M  V30 4225 C 411.745 -4.10931 -1.33265 0
M  V30 4226 C 410.88 -4.69791 -2.47931 0
M  V30 4227 C 409.919 -5.7994 -1.95796 0
M  V30 4228 N 409.056 -6.32935 -3.0387 0
M  V30 4229 H 413.896 -2.9793 -0.0643591 0
M  V30 4230 H 411.433 -1.47086 -0.0200031 0
M  V30 4231 H 413.391 -3.3248 -2.52018 0
M  V30 4232 H 412.021 -2.1937 -2.36805 0
M  V30 4233 H 411.073 -3.76699 -0.52931 0
M  V30 4234 H 412.385 -4.90417 -0.910654 0
M  V30 4235 H 411.539 -5.11892 -3.25656 0
M  V30 4236 H 410.278 -3.89545 -2.93438 0
M  V30 4237 H 409.283 -5.37305 -1.16546 0
M  V30 4238 H 410.508 -6.62043 -1.51246 0
M  V30 4239 H 408.454 -5.55591 -3.48791 0
M  V30 4240 H 408.371 -7.07645 -2.66035 0
M  V30 4241 H 409.639 -6.79695 -3.81621 0
M  V30 4242 N 413.868 0.0150385 -1.57593 0
M  V30 4243 C 414.818 1.01943 -2.0394 0
M  V30 4244 C 415.802 1.31209 -0.931286 0
M  V30 4245 O 416.994 1.30559 -1.19513 0
M  V30 4246 C 414.123 2.31621 -2.53391 0
M  V30 4247 C 413.209 2.05384 -3.7105 0
M  V30 4248 N 413.6 1.49253 -4.83278 0
M  V30 4249 C 411.898 2.35601 -3.78693 0
M  V30 4250 C 412.599 1.39143 -5.64813 0
M  V30 4251 N 411.575 1.87187 -5.10355 0
M  V30 4252 H 415.377 0.57969 -2.88126 0
M  V30 4253 H 412.891 0.221056 -1.60888 0
M  V30 4254 H 414.888 3.044 -2.84862 0
M  V30 4255 H 413.548 2.76261 -1.70616 0
M  V30 4256 H 414.559 1.17334 -5.04433 0
M  V30 4257 H 411.236 2.8322 -3.06746 0
M  V30 4258 H 412.626 0.961153 -6.6499 0
M  V30 4259 N 415.346 1.54954 0.287554 0
M  V30 4260 C 416.592 1.75132 1.02257 0
M  V30 4261 C 416.925 0.542858 1.86458 0
M  V30 4262 O 416.2 -0.459856 1.88986 0
M  V30 4263 C 416.483 3.04812 1.91733 0
M  V30 4264 C 416.336 4.35985 1.10622 0
M  V30 4265 C 417.655 3.30438 2.90687 0
M  V30 4266 H 414.774 0.637194 0.370341 0
M  V30 4267 H 417.416 1.87678 0.296111 0
M  V30 4268 H 415.566 2.94247 2.53675 0
M  V30 4269 H 417.238 4.58487 0.508636 0
M  V30 4270 H 415.481 4.31865 0.409271 0
M  V30 4271 H 416.152 5.23017 1.76513 0
M  V30 4272 H 418.628 3.40701 2.38877 0
M  V30 4273 H 417.504 4.22467 3.50447 0
M  V30 4274 H 417.765 2.49377 3.65053 0
M  V30 4275 N 416.824 -0.551391 1.4764 0
M  V30 4276 C 418.24 -0.877887 1.33287 0
M  V30 4277 C 418.44 -1.98817 0.327721 0
M  V30 4278 O 417.496 -2.51171 -0.258695 0
M  V30 4279 C 418.809 -1.26563 2.72768 0
M  V30 4280 C 420.357 -1.37673 2.81097 0
M  V30 4281 C 420.832 -1.79799 4.21232 0
M  V30 4282 N 422.323 -1.8694 4.23802 0
M  V30 4283 C 423.058 -2.20876 5.29151 0
M  V30 4284 N 422.554 -2.53386 6.448 0
M  V30 4285 N 424.347 -2.217 5.16532 0
M  V30 4286 H 416.498 0.18153 2.11623 0
M  V30 4287 H 418.761 0.0185514 0.947818 0
M  V30 4288 H 418.467 -0.523591 3.47781 0
M  V30 4289 H 418.341 -2.22052 3.04915 0
M  V30 4290 H 420.728 -2.10956 2.06353 0
M  V30 4291 H 420.809 -0.40357 2.52596 0
M  V30 4292 H 420.453 -1.07083 4.96483 0
M  V30 4293 H 420.383 -2.78128 4.4716 0
M  V30 4294 H 422.874 -1.64179 3.40373 0
M  V30 4295 H 423.187 -2.78325 7.20941 0
M  V30 4296 H 421.532 -2.50953 6.48111 0
M  V30 4297 H 424.723 -1.95745 4.25207 0
M  V30 4298 H 424.896 -2.47818 5.98741 0
M  V30 4299 N 418.302 -1.35869 -0.798587 0
M  V30 4300 C 419.551 -1.28921 -1.5512 0
M  V30 4301 C 419.864 0.13208 -1.95154 0
M  V30 4302 O 421.07 0.323879 -2.69561 0
M  V30 4303 C 419.526 -2.26141 -2.79979 0
M  V30 4304 C 419.134 -3.73658 -2.47151 0
M  V30 4305 C 420.878 -2.28152 -3.57976 0
M  V30 4306 C 418.785 -4.62679 -3.6835 0
M  V30 4307 H 417.715 -0.479031 -0.582276 0
M  V30 4308 H 420.366 -1.61179 -0.877125 0
M  V30 4309 H 418.748 -1.86865 -3.49138 0
M  V30 4310 H 419.922 -4.21616 -1.85947 0
M  V30 4311 H 418.237 -3.74333 -1.82383 0
M  V30 4312 H 420.834 -2.91875 -4.4801 0
M  V30 4313 H 421.177 -1.28748 -3.95891 0
M  V30 4314 H 421.71 -2.65998 -2.95787 0
M  V30 4315 H 418.449 -5.63111 -3.35538 0
M  V30 4316 H 417.969 -4.19442 -4.28752 0
M  V30 4317 H 419.648 -4.78498 -4.35487 0
M  V30 4318 N 419.78 1.02168 -1.19998 0
M  V30 4319 C 421.029 1.75091 -1.0013 0
M  V30 4320 C 421.342 1.89923 0.467835 0
M  V30 4321 O 422.548 2.59888 0.785515 0
M  V30 4322 C 421.004 3.14892 -1.74273 0
M  V30 4323 C 420.612 3.0809 -3.25245 0
M  V30 4324 C 422.356 3.9206 -1.62755 0
M  V30 4325 C 420.263 4.42867 -3.91948 0
M  V30 4326 H 419.193 0.656394 -0.37103 0
M  V30 4327 H 421.844 1.14284 -1.43567 0
M  V30 4328 H 420.226 3.7621 -1.2362 0
M  V30 4329 H 421.4 2.5611 -3.83072 0
M  V30 4330 H 419.715 2.44416 -3.3712 0
M  V30 4331 H 422.312 4.91764 -2.09934 0
M  V30 4332 H 422.655 4.12199 -0.582894 0
M  V30 4333 H 423.188 3.37359 -2.10793 0
M  V30 4334 H 419.927 4.27931 -4.96543 0
M  V30 4335 H 419.447 4.94874 -3.3891 0
M  V30 4336 H 421.126 5.11728 -3.95909 0
M  V30 4337 N 421.258 1.00505 1.21394 0
M  V30 4338 C 422.168 0.574806 2.27449 0
M  V30 4339 C 423.184 -0.382206 1.6975 0
M  V30 4340 O 424.36 -0.246027 1.99892 0
M  V30 4341 C 421.425 -0.0917414 3.46579 0
M  V30 4342 C 420.486 0.909758 4.1955 0
M  V30 4343 C 419.719 0.274924 5.32991 0
M  V30 4344 O 419.942 -0.928254 5.62796 0
M  V30 4345 O 418.876 0.985877 5.93771 0
M  V30 4346 H 422.702 1.45744 2.66444 0
M  V30 4347 H 420.287 0.773923 1.27792 0
M  V30 4348 H 422.169 -0.464551 4.18832 0
M  V30 4349 H 420.844 -0.948755 3.09484 0
M  V30 4350 H 419.751 1.33372 3.49518 0
M  V30 4351 H 421.084 1.73636 4.60555 0
M  V30 4352 N 422.737 -1.36956 0.779787 0
M  V30 4353 C 424.148 -1.82094 0.412156 0
M  V30 4354 C 424.499 -1.64926 -1.06273 0
M  V30 4355 O 423.624 -1.16483 -1.82375 0
M  V30 4356 C 424.219 -3.3059 0.741319 0
M  V30 4357 C 422.778 -3.73974 0.426641 0
M  V30 4358 C 421.925 -2.59368 0.980987 0
M  V30 4359 H 424.876 -1.25314 0.973758 0
M  V30 4360 H 424.897 -3.80489 0.028887 0
M  V30 4361 H 424.409 -3.43054 1.81482 0
M  V30 4362 H 422.51 -3.67076 -0.639215 0
M  V30 4363 H 422.623 -4.69778 0.940515 0
M  V30 4364 H 420.987 -2.51463 0.404757 0
M  V30 4365 H 421.77 -2.74621 2.06005 0
M  V30 4366 N 424.215 -0.530993 -1.48385 0
M  V30 4367 C 425.463 0.00273189 -2.021 0
M  V30 4368 C 425.784 1.34672 -1.41027 0
M  V30 4369 O 425.054 1.8724 -0.576012 0
M  V30 4370 H 423.634 0.00399774 -0.746989 0
M  V30 4371 H 426.296 -0.695054 -1.82085 0
M  V30 4372 H 425.392 0.11031 -3.11905 0
M  V30 4373 N 425.693 1.55336 -0.266172 0
M  V30 4374 C 426.94 1.99397 0.353158 0
M  V30 4375 C 427.268 1.15451 1.56529 0
M  V30 4376 O 426.523 0.209974 1.9457 0
M  V30 4377 C 426.822 3.48606 0.787957 0
M  V30 4378 C 426.488 4.49773 -0.318541 0
M  V30 4379 C 425.15 4.77158 -0.62239 0
M  V30 4380 C 427.502 5.10212 -1.06459 0
M  V30 4381 C 424.83 5.62251 -1.67602 0
M  V30 4382 C 427.182 5.96449 -2.10788 0
M  V30 4383 C 425.846 6.22158 -2.41817 0
M  V30 4384 H 425.116 0.729644 0.12923 0
M  V30 4385 H 427.763 1.87732 -0.37802 0
M  V30 4386 H 426.068 3.57701 1.59866 0
M  V30 4387 H 427.765 3.80098 1.27775 0
M  V30 4388 H 424.355 4.2854 -0.0715925 0
M  V30 4389 H 428.539 4.89086 -0.843098 0
M  V30 4390 H 423.795 5.80419 -1.92155 0
M  V30 4391 H 427.969 6.42317 -2.69076 0
M  V30 4392 H 425.596 6.87888 -3.23596 0
M  V30 4393 N 427.171 -0.0066808 1.57599 0
M  V30 4394 C 428.417 -0.693947 1.90558 0
M  V30 4395 C 428.75 -1.73792 0.866594 0
M  V30 4396 O 428.025 -1.94156 -0.115548 0
M  V30 4397 C 428.308 -1.34317 3.34112 0
M  V30 4398 C 428.161 -0.311189 4.48722 0
M  V30 4399 C 429.48 -2.27116 3.7697 0
M  V30 4400 H 426.599 -0.250803 0.693013 0
M  V30 4401 H 429.241 0.043242 1.89951 0
M  V30 4402 H 427.391 -1.9715 3.3476 0
M  V30 4403 H 429.063 0.316944 4.6021 0
M  V30 4404 H 427.306 0.367253 4.32243 0
M  V30 4405 H 427.977 -0.804366 5.46108 0
M  V30 4406 H 430.453 -1.74306 3.77831 0
M  V30 4407 H 429.329 -2.69511 4.78179 0
M  V30 4408 H 429.59 -3.14743 3.10466 0
M  V30 4409 N 428.649 -1.55105 -0.279332 0
M  V30 4410 C 429.896 -1.75412 -1.01177 0
M  V30 4411 C 430.224 -0.551728 -1.86511 0
M  V30 4412 O 429.479 0.465919 -1.90073 0
M  V30 4413 C 429.778 -3.0086 -1.92919 0
M  V30 4414 C 429.444 -4.33689 -1.23387 0
M  V30 4415 C 428.106 -4.69792 -1.04159 0
M  V30 4416 C 430.458 -5.15941 -0.738562 0
M  V30 4417 C 427.786 -5.85707 -0.341166 0
M  V30 4418 C 430.138 -6.32579 -0.0517636 0
M  V30 4419 C 428.802 -6.67326 0.152292 0
M  V30 4420 H 428.072 -0.641879 -0.370233 0
M  V30 4421 H 430.719 -1.89373 -0.284627 0
M  V30 4422 H 429.024 -2.81773 -2.72234 0
M  V30 4423 H 430.721 -3.13768 -2.49701 0
M  V30 4424 H 427.311 -4.05309 -1.39364 0
M  V30 4425 H 431.495 -4.8853 -0.874764 0
M  V30 4426 H 426.751 -6.11157 -0.172287 0
M  V30 4427 H 430.925 -6.9557 0.339828 0
M  V30 4428 H 428.552 -7.56998 0.697014 0
M  V30 4429 N 430.127 0.543554 -1.4793 0
M  V30 4430 C 431.376 1.29649 -1.54512 0
M  V30 4431 C 431.689 1.94382 -0.217973 0
M  V30 4432 O 432.895 2.71017 -0.161908 0
M  V30 4433 C 431.351 2.35175 -2.72435 0
M  V30 4434 C 430.959 1.76572 -4.11736 0
M  V30 4435 C 432.703 3.11564 -2.8832 0
M  V30 4436 C 430.61 2.79958 -5.20939 0
M  V30 4437 H 429.54 0.487541 -0.57517 0
M  V30 4438 H 432.191 0.575708 -1.74235 0
M  V30 4439 H 430.573 3.10229 -2.46118 0
M  V30 4440 H 431.747 1.07799 -4.48013 0
M  V30 4441 H 430.062 1.12722 -4.00852 0
M  V30 4442 H 432.659 3.88794 -3.67074 0
M  V30 4443 H 433.002 3.66594 -1.97268 0
M  V30 4444 H 433.535 2.43623 -3.14472 0
M  V30 4445 H 430.274 2.29766 -6.13912 0
M  V30 4446 H 429.794 3.47101 -4.89164 0
M  V30 4447 H 431.473 3.43198 -5.48474 0
M  V30 4448 N 431.605 1.3629 0.791371 0
M  V30 4449 C 432.854 1.29742 1.54434 0
M  V30 4450 C 433.167 -0.121729 1.95221 0
M  V30 4451 O 434.373 -0.309579 2.69729 0
M  V30 4452 C 432.829 2.27623 2.78776 0
M  V30 4453 C 432.437 3.74963 2.45166 0
M  V30 4454 C 434.181 2.30047 3.56761 0
M  V30 4455 C 432.088 4.64626 3.65891 0
M  V30 4456 H 431.018 0.482113 0.579727 0
M  V30 4457 H 433.669 1.61642 0.868565 0
M  V30 4458 H 432.051 1.88714 3.48142 0
M  V30 4459 H 433.225 4.22596 1.83709 0
M  V30 4460 H 431.54 3.75295 1.80396 0
M  V30 4461 H 434.137 2.94247 4.46456 0
M  V30 4462 H 434.48 1.30846 3.95203 0
M  V30 4463 H 435.013 2.67563 2.94372 0
M  V30 4464 H 431.752 5.64883 3.32547 0
M  V30 4465 H 431.272 4.2171 4.26521 0
M  V30 4466 H 432.951 4.80801 4.32943 0
M  V30 4467 N 433.083 -1.0153 1.20538 0
M  V30 4468 C 434.308 -1.79283 1.04271 0
M  V30 4469 C 434.733 -1.8372 -0.403544 0
M  V30 4470 O 434.091 -1.27321 -1.2907 0
M  V30 4471 C 434.139 -3.21535 1.63241 0
M  V30 4472 O 433.243 -4.03099 0.870908 0
M  V30 4473 H 432.584 -0.55293 0.367647 0
M  V30 4474 H 435.114 -1.27696 1.59859 0
M  V30 4475 H 435.124 -3.72243 1.6703 0
M  V30 4476 H 433.799 -3.1762 2.68497 0
M  V30 4477 H 432.376 -3.61693 0.907323 0
M  V30 4478 N 434.561 -1.01147 -1.20859 0
M  V30 4479 C 435.791 -0.715872 -1.93801 0
M  V30 4480 C 436.199 0.726592 -1.74692 0
M  V30 4481 O 435.542 1.50397 -1.05482 0
M  V30 4482 C 435.604 -0.965269 -3.46299 0
M  V30 4483 C 435.268 -2.39584 -3.89164 0
M  V30 4484 C 436.265 -3.3764 -3.95342 0
M  V30 4485 C 433.95 -2.73522 -4.21297 0
M  V30 4486 C 435.944 -4.67698 -4.33056 0
M  V30 4487 C 433.631 -4.03794 -4.58687 0
M  V30 4488 C 434.629 -5.00693 -4.64538 0
M  V30 4489 O 434.317 -6.28635 -5.01072 0
M  V30 4490 H 434.049 -0.262524 -0.622942 0
M  V30 4491 H 436.603 -1.35413 -1.54443 0
M  V30 4492 H 434.833 -0.269847 -3.85757 0
M  V30 4493 H 436.522 -0.662051 -4.00464 0
M  V30 4494 H 437.288 -3.12757 -3.70686 0
M  V30 4495 H 433.167 -1.9879 -4.15937 0
M  V30 4496 H 436.711 -5.4333 -4.37537 0
M  V30 4497 H 432.608 -4.28459 -4.82797 0
M  V30 4498 H 433.376 -6.32847 -5.19083 0
M  V30 4499 N 436.039 1.36541 -0.78704 0
M  V30 4500 C 436.969 2.32659 -0.197992 0
M  V30 4501 C 437.95 1.56533 0.665697 0
M  V30 4502 O 439.135 1.84698 0.60001 0
M  V30 4503 C 436.265 3.40778 0.669901 0
M  V30 4504 C 435.219 4.27897 -0.0937039 0
M  V30 4505 C 434.545 5.27163 0.894629 0
M  V30 4506 C 435.845 5.06334 -1.28154 0
M  V30 4507 H 437.539 2.82171 -1.00099 0
M  V30 4508 H 435.085 1.35665 -0.482793 0
M  V30 4509 H 437.038 4.07008 1.09191 0
M  V30 4510 H 435.762 2.89827 1.50558 0
M  V30 4511 H 434.421 3.6322 -0.49666 0
M  V30 4512 H 434.069 4.72486 1.72527 0
M  V30 4513 H 433.769 5.86317 0.388149 0
M  V30 4514 H 435.293 5.96266 1.31525 0
M  V30 4515 H 436.707 5.65617 -0.93541 0
M  V30 4516 H 435.104 5.74888 -1.72115 0
M  V30 4517 H 436.174 4.38114 -2.07807 0
M  V30 4518 N 437.518 0.538854 1.48102 0
M  V30 4519 C 438.743 0.0102694 2.07397 0
M  V30 4520 C 439.168 -1.26562 1.39153 0
M  V30 4521 O 438.526 -1.75357 0.460387 0
M  V30 4522 C 438.574 -0.187602 3.60112 0
M  V30 4523 O 437.678 -1.25432 3.92862 0
M  V30 4524 H 437.019 0.0430975 0.6626 0
M  V30 4525 H 439.549 0.749301 1.90385 0
M  V30 4526 H 439.559 -0.407517 4.0596 0
M  V30 4527 H 438.234 0.744386 4.09184 0
M  V30 4528 H 436.811 -1.01636 3.58782 0
M  V30 4529 N 438.996 -1.55193 0.274407 0
M  V30 4530 C 440.226 -2.03692 -0.345442 0
M  V30 4531 C 440.634 -1.15224 -1.50067 0
M  V30 4532 O 439.977 -0.164749 -1.8296 0
M  V30 4533 C 440.039 -3.48325 -0.88939 0
M  V30 4534 C 439.703 -4.56794 0.137115 0
M  V30 4535 C 440.7 -5.11028 0.956378 0
M  V30 4536 C 438.385 -5.01568 0.27115 0
M  V30 4537 C 440.379 -6.08552 1.89587 0
M  V30 4538 C 438.066 -5.98918 1.21412 0
M  V30 4539 C 439.064 -6.52291 2.02498 0
M  V30 4540 O 438.752 -7.47738 2.952 0
M  V30 4541 H 438.484 -0.670893 -0.0829332 0
M  V30 4542 H 441.038 -2.01387 0.404056 0
M  V30 4543 H 439.268 -3.47867 -1.68895 0
M  V30 4544 H 440.957 -3.80167 -1.42225 0
M  V30 4545 H 441.723 -4.7725 0.863559 0
M  V30 4546 H 437.602 -4.5967 -0.349987 0
M  V30 4547 H 441.146 -6.50137 2.52918 0
M  V30 4548 H 437.043 -6.32114 1.30776 0
M  V30 4549 H 437.811 -7.65451 2.89874 0
M  V30 4550 N 440.474 -0.00167713 -1.576 0
M  V30 4551 C 441.404 0.988091 -2.11563 0
M  V30 4552 C 442.385 1.35736 -1.02517 0
M  V30 4553 O 443.57 1.44082 -1.30208 0
M  V30 4554 C 440.7 2.27941 -2.62031 0
M  V30 4555 C 439.654 2.0517 -3.75619 0
M  V30 4556 C 438.98 3.4033 -4.12407 0
M  V30 4557 C 440.28 1.41294 -5.02825 0
M  V30 4558 H 441.974 0.538771 -2.94513 0
M  V30 4559 H 439.52 0.257712 -1.41675 0
M  V30 4560 H 441.473 2.97539 -2.9841 0
M  V30 4561 H 440.197 2.74989 -1.76205 0
M  V30 4562 H 438.856 1.37998 -3.39635 0
M  V30 4563 H 438.504 3.85085 -3.23603 0
M  V30 4564 H 438.204 3.25909 -4.88935 0
M  V30 4565 H 439.728 4.1124 -4.51347 0
M  V30 4566 H 441.142 2.00851 -5.36965 0
M  V30 4567 H 439.539 1.37356 -5.84169 0
M  V30 4568 H 440.609 0.382362 -4.8339 0
M  V30 4569 N 441.952 1.55251 0.271103 0
M  V30 4570 C 443.18 1.79974 1.02064 0
M  V30 4571 C 443.595 0.574003 1.79863 0
M  V30 4572 O 442.952 -0.456962 1.76686 0
M  V30 4573 C 443.003 3.02603 1.97772 0
M  V30 4574 O 442.724 4.20443 1.23124 0
M  V30 4575 C 444.225 3.39944 2.84522 0
M  V30 4576 H 441.445 0.599489 0.301419 0
M  V30 4577 H 443.989 2.02268 0.301313 0
M  V30 4578 H 442.144 2.8243 2.65165 0
M  V30 4579 H 442.558 4.89783 1.87651 0
M  V30 4580 H 444.032 4.28915 3.47471 0
M  V30 4581 H 444.509 2.59432 3.54389 0
M  V30 4582 H 445.115 3.62383 2.22618 0
M  V30 4583 N 443.43 -0.535701 1.48216 0
M  V30 4584 C 444.655 -1.32149 1.59848 0
M  V30 4585 C 445.08 -1.86338 0.256842 0
M  V30 4586 O 444.438 -1.64107 -0.770632 0
M  V30 4587 C 444.486 -2.45224 2.64381 0
M  V30 4588 O 443.59 -3.48093 2.21144 0
M  V30 4589 H 442.931 -0.391634 0.536208 0
M  V30 4590 H 445.461 -0.645202 1.94161 0
M  V30 4591 H 445.471 -2.91491 2.85476 0
M  V30 4592 H 444.146 -2.05143 3.61786 0
M  V30 4593 H 442.723 -3.07984 2.10239 0
M  V30 4594 N 444.908 -1.36708 -0.784132 0
M  V30 4595 C 445.818 -1.3363 -1.92822 0
M  V30 4596 C 446.834 -0.237686 -1.72369 0
M  V30 4597 O 448.01 -0.470962 -1.95816 0
M  V30 4598 C 445.075 -1.13011 -3.27764 0
M  V30 4599 C 444.136 -2.32397 -3.60957 0
M  V30 4600 C 443.369 -2.12752 -4.89461 0
M  V30 4601 O 443.592 -1.10541 -5.59586 0
M  V30 4602 O 442.526 -3.00653 -5.21432 0
M  V30 4603 H 446.352 -2.29964 -1.98369 0
M  V30 4604 H 443.937 -1.1731 -0.925136 0
M  V30 4605 H 445.819 -1.03451 -4.08504 0
M  V30 4606 H 444.494 -0.19743 -3.23097 0
M  V30 4607 H 443.401 -2.47527 -2.80502 0
M  V30 4608 H 444.734 -3.2419 -3.70354 0
M  V30 4609 N 446.386 1.0089 -1.21074 0
M  V30 4610 C 447.319 2.09279 -0.909806 0
M  V30 4611 C 448.297 1.61986 0.141145 0
M  V30 4612 O 449.481 1.88495 0.0130332 0
M  V30 4613 C 446.608 3.36723 -0.365374 0
M  V30 4614 C 445.654 4.02919 -1.39852 0
M  V30 4615 S 446.487 4.45835 -2.96633 0
M  V30 4616 C 447.643 5.76471 -2.43786 0
M  V30 4617 H 447.876 2.34484 -1.82769 0
M  V30 4618 H 445.409 1.14115 -1.04006 0
M  V30 4619 H 447.367 4.10459 -0.0578203 0
M  V30 4620 H 446.028 3.09577 0.531136 0
M  V30 4621 H 445.221 4.94634 -0.967117 0
M  V30 4622 H 444.823 3.35441 -1.65395 0
M  V30 4623 H 447.115 6.52027 -1.84029 0
M  V30 4624 H 448.058 6.24418 -3.33928 0
M  V30 4625 H 448.466 5.33104 -1.85636 0
M  V30 4626 N 447.864 1.01787 1.20321 0
M  V30 4627 C 448.794 0.609625 2.25401 0
M  V30 4628 C 449.775 -0.375951 1.65893 0
M  V30 4629 O 450.96 -0.261101 1.92437 0
M  V30 4630 C 448.09 -0.0515995 3.47262 0
M  V30 4631 C 447.044 0.855095 4.19371 0
M  V30 4632 C 446.37 0.0595757 5.34667 0
M  V30 4633 C 447.67 2.16374 4.75373 0
M  V30 4634 H 449.364 1.48803 2.59804 0
M  V30 4635 H 446.91 0.716934 1.24884 0
M  V30 4636 H 448.863 -0.348764 4.19954 0
M  V30 4637 H 447.587 -0.964726 3.12027 0
M  V30 4638 H 446.246 1.13628 3.48546 0
M  V30 4639 H 445.894 -0.85524 4.95676 0
M  V30 4640 H 445.594 0.663406 5.83843 0
M  V30 4641 H 447.118 -0.231105 6.10162 0
M  V30 4642 H 448.532 1.92885 5.39878 0
M  V30 4643 H 446.929 2.71853 5.34991 0
M  V30 4644 H 447.999 2.82589 3.94045 0
M  V30 4645 N 449.342 -1.36122 0.79427 0
M  V30 4646 C 450.567 -2.03891 0.379871 0
M  V30 4647 C 450.992 -1.59488 -0.997251 0
M  V30 4648 O 450.35 -0.765652 -1.64339 0
M  V30 4649 C 450.398 -3.57687 0.457442 0
M  V30 4650 O 449.502 -4.08931 -0.5338 0
M  V30 4651 H 448.843 -0.6443 0.160541 0
M  V30 4652 H 451.373 -1.73976 1.07673 0
M  V30 4653 H 451.383 -4.06721 0.322792 0
M  V30 4654 H 450.058 -3.89357 1.46199 0
M  V30 4655 H 448.635 -3.71154 -0.360409 0
M  V30 4656 N 450.82 -0.546701 -1.47814 0
M  V30 4657 C 451.75 0.195317 -2.32682 0
M  V30 4658 C 452.731 0.918981 -1.43139 0
M  V30 4659 O 453.916 0.901501 -1.72008 0
M  V30 4660 C 451.046 1.23237 -3.247 0
M  V30 4661 C 450 0.625818 -4.234 0
M  V30 4662 C 449.326 1.76674 -5.04669 0
M  V30 4663 C 450.626 -0.413515 -5.2066 0
M  V30 4664 H 452.32 -0.513184 -2.94969 0
M  V30 4665 H 449.866 -0.248241 -1.41844 0
M  V30 4666 H 451.819 1.75955 -3.82907 0
M  V30 4667 H 450.543 1.97067 -2.60446 0
M  V30 4668 H 449.202 0.120023 -3.66403 0
M  V30 4669 H 448.85 2.49383 -4.36826 0
M  V30 4670 H 448.55 1.36673 -5.71484 0
M  V30 4671 H 450.074 2.29738 -5.65732 0
M  V30 4672 H 451.488 0.0272042 -5.73294 0
M  V30 4673 H 449.885 -0.731825 -5.95621 0
M  V30 4674 H 450.955 -1.31325 -4.66778 0
M  V30 4675 N 452.299 1.55045 -0.282633 0
M  V30 4676 C 453.524 2.04628 0.337977 0
M  V30 4677 C 453.949 1.15937 1.48123 0
M  V30 4678 O 453.307 0.159532 1.80597 0
M  V30 4679 C 453.355 3.51854 0.78936 0
M  V30 4680 O 452.459 3.66236 1.89592 0
M  V30 4681 H 451.8 0.660434 0.0687261 0
M  V30 4682 H 454.33 2.00261 -0.419124 0
M  V30 4683 H 454.34 3.93361 1.08311 0
M  V30 4684 H 453.015 4.15873 -0.0470419 0
M  V30 4685 H 451.592 3.36633 1.60413 0
M  V30 4686 N 453.777 0.010035 1.57597 0
M  V30 4687 C 454.74 -0.963029 2.07986 0
M  V30 4688 C 455.74 -1.26619 0.991173 0
M  V30 4689 O 456.93 -1.2097 1.25347 0
M  V30 4690 C 454.062 -2.2851 2.52974 0
M  V30 4691 H 455.255 -0.526971 2.95234 0
M  V30 4692 H 452.808 -0.237639 1.54483 0
M  V30 4693 H 453.543 -2.76784 1.69 0
M  V30 4694 H 453.328 -2.07824 3.32493 0
M  V30 4695 H 454.818 -2.98294 2.9225 0
M  V30 4696 N 455.255 -1.55392 -0.262866 0
M  V30 4697 C 456.504 -1.75679 -0.990943 0
M  V30 4698 C 456.817 -0.57097 -1.87081 0
M  V30 4699 O 458.023 -0.656486 -2.63444 0
M  V30 4700 C 456.479 -3.10964 -1.81188 0
M  V30 4701 C 456.087 -4.37146 -0.980188 0
M  V30 4702 C 457.831 -3.40597 -2.53365 0
M  V30 4703 C 455.738 -5.63466 -1.7961 0
M  V30 4704 H 454.668 -0.654868 -0.373716 0
M  V30 4705 H 457.319 -1.81841 -0.246203 0
M  V30 4706 H 455.701 -2.98867 -2.59797 0
M  V30 4707 H 456.875 -4.60187 -0.237558 0
M  V30 4708 H 455.19 -4.14731 -0.372497 0
M  V30 4709 H 457.787 -4.32186 -3.14833 0
M  V30 4710 H 458.13 -2.6119 -3.24169 0
M  V30 4711 H 458.663 -3.53838 -1.81779 0
M  V30 4712 H 455.402 -6.4565 -1.13209 0
M  V30 4713 H 454.922 -5.44552 -2.51443 0
M  V30 4714 H 456.601 -6.02139 -2.36723 0
M  V30 4715 N 456.733 0.527833 -1.48498 0
M  V30 4716 C 457.663 1.64136 -1.66077 0
M  V30 4717 C 458.644 1.62286 -0.509625 0
M  V30 4718 O 459.829 1.79449 -0.742413 0
M  V30 4719 C 456.959 3.02717 -1.70234 0
M  V30 4720 C 455.913 3.19426 -2.8487 0
M  V30 4721 C 455.239 4.5909 -2.74118 0
M  V30 4722 C 456.539 3.01993 -4.26142 0
M  V30 4723 H 458.233 1.4968 -2.593 0
M  V30 4724 H 455.779 0.718654 -1.24785 0
M  V30 4725 H 457.732 3.80491 -1.8112 0
M  V30 4726 H 456.456 3.18201 -0.735911 0
M  V30 4727 H 455.115 2.4407 -2.73542 0
M  V30 4728 H 454.763 4.71413 -1.7544 0
M  V30 4729 H 454.463 4.71214 -3.51042 0
M  V30 4730 H 455.987 5.3896 -2.86974 0
M  V30 4731 H 457.401 3.69558 -4.38292 0
M  V30 4732 H 455.798 3.2561 -5.04082 0
M  V30 4733 H 456.868 1.98396 -4.42456 0
M  V30 4734 N 458.211 1.37122 0.776871 0
M  V30 4735 C 459.174 1.32301 1.8716 0
M  V30 4736 C 460.174 0.228099 1.59174 0
M  V30 4737 O 461.364 0.483642 1.67352 0
M  V30 4738 C 458.496 1.054 3.24197 0
M  V30 4739 H 459.689 2.29673 1.92848 0
M  V30 4740 H 457.242 1.22077 0.97606 0
M  V30 4741 H 457.977 0.0853872 3.24188 0
M  V30 4742 H 457.762 1.84648 3.45901 0
M  V30 4743 H 459.252 1.04664 4.04271 0
M  V30 4744 N 459.689 -1.00246 1.21608 0
M  V30 4745 C 460.938 -1.73476 1.02902 0
M  V30 4746 C 461.251 -1.90643 -0.437561 0
M  V30 4747 O 462.457 -2.61105 -0.74407 0
M  V30 4748 C 460.913 -3.12079 1.79261 0
M  V30 4749 C 460.521 -3.02877 3.30106 0
M  V30 4750 C 462.265 -3.89421 1.68972 0
M  V30 4751 C 460.172 -4.36575 3.98944 0
M  V30 4752 H 459.102 -0.650408 0.381425 0
M  V30 4753 H 461.753 -1.11985 1.45367 0
M  V30 4754 H 460.135 -3.74196 1.2959 0
M  V30 4755 H 461.309 -2.49983 3.87098 0
M  V30 4756 H 459.624 -2.39022 3.40965 0
M  V30 4757 H 462.221 -4.88362 2.17731 0
M  V30 4758 H 462.564 -4.1122 0.648397 0
M  V30 4759 H 463.097 -3.33963 2.16133 0
M  V30 4760 H 459.836 -4.19978 5.03288 0
M  V30 4761 H 459.356 -4.8942 3.4674 0
M  V30 4762 H 461.035 -5.05364 4.04 0
M  V30 4763 N 461.167 -1.02423 -1.1978 0
M  V30 4764 C 462.395 -0.737456 -1.93311 0
M  V30 4765 C 462.81 0.703023 -1.75223 0
M  V30 4766 O 462.167 1.47761 -1.07112 0
M  V30 4767 C 462.218 -1.0733 -3.45199 0
M  V30 4768 O 461.939 -2.4572 -3.62702 0
M  V30 4769 C 463.44 -0.80866 -4.35862 0
M  V30 4770 H 460.66 -0.2702 -0.614193 0
M  V30 4771 H 463.204 -1.36747 -1.52054 0
M  V30 4772 H 461.359 -0.488545 -3.84307 0
M  V30 4773 H 461.773 -2.58081 -4.56612 0
M  V30 4774 H 463.247 -1.09365 -5.41057 0
M  V30 4775 H 463.724 0.257025 -4.38447 0
M  V30 4776 H 464.33 -1.37592 -4.02428 0
M  V30 4777 N 462.645 1.35699 -0.801477 0
M  V30 4778 C 463.892 1.98913 -0.379459 0
M  V30 4779 C 464.22 1.63592 1.05204 0
M  V30 4780 O 463.475 0.888563 1.74365 0
M  V30 4781 C 463.774 3.53828 -0.504041 0
M  V30 4782 C 463.44 4.09002 -1.8981 0
M  V30 4783 C 462.102 4.23783 -2.27951 0
M  V30 4784 C 464.454 4.38939 -2.81038 0
M  V30 4785 C 461.782 4.65816 -3.56696 0
M  V30 4786 C 464.134 4.82409 -4.09224 0
M  V30 4787 C 462.798 4.95395 -4.4737 0
M  V30 4788 H 462.068 0.727874 -0.138854 0
M  V30 4789 H 464.715 1.61994 -1.02128 0
M  V30 4790 H 463.02 3.91175 0.221242 0
M  V30 4791 H 464.717 4.00687 -0.158361 0
M  V30 4792 H 461.307 3.97946 -1.59176 0
M  V30 4793 H 465.491 4.27077 -2.52821 0
M  V30 4794 H 460.747 4.74059 -3.86106 0
M  V30 4795 H 464.921 5.04535 -4.80018 0
M  V30 4796 H 462.548 5.27724 -5.47185 0
M  V30 4797 N 464.123 0.554532 1.47522 0
M  V30 4798 C 465.363 0.0317994 2.04375 0
M  V30 4799 C 465.727 -1.29242 1.41988 0
M  V30 4800 O 466.928 -1.90269 1.89872 0
M  V30 4801 C 465.199 -0.0623344 3.57346 0
M  V30 4802 S 466.758 -0.531578 4.35568 0
M  V30 4803 H 463.576 0.0238553 0.7106 0
M  V30 4804 H 466.178 0.74066 1.80927 0
M  V30 4805 H 464.882 0.905857 4.00278 0
M  V30 4806 H 464.413 -0.794831 3.85287 0
M  V30 4807 H 466.428 -1.79175 4.62721 0
M  V30 4808 N 465.601 -1.54893 0.290851 0
M  V30 4809 C 466.849 -1.99538 -0.320756 0
M  V30 4810 C 467.17 -1.18075 -1.55188 0
M  V30 4811 O 466.44 -0.274162 -1.93972 0
M  V30 4812 H 465.02 -0.737052 -0.121507 0
M  V30 4813 H 467.682 -1.90755 0.399832 0
M  V30 4814 H 466.778 -3.06282 -0.599802 0
M  V30 4815 N 467.08 -0.0183926 -1.57589 0
M  V30 4816 C 468.329 0.66185 -1.90532 0
M  V30 4817 C 468.642 1.73904 -0.895366 0
M  V30 4818 O 469.848 2.47518 -1.11566 0
M  V30 4819 C 468.304 1.22844 -3.38286 0
M  V30 4820 C 467.912 0.185103 -4.47617 0
M  V30 4821 C 469.656 1.88581 -3.80312 0
M  V30 4822 C 467.563 0.762723 -5.86461 0
M  V30 4823 H 466.493 0.250972 -0.711006 0
M  V30 4824 H 469.144 -0.0819435 -1.83317 0
M  V30 4825 H 467.526 2.0235 -3.40398 0
M  V30 4826 H 468.7 -0.58671 -4.5705 0
M  V30 4827 H 467.015 -0.372889 -4.14727 0
M  V30 4828 H 469.612 2.32735 -4.81392 0
M  V30 4829 H 469.955 2.72408 -3.14801 0
M  V30 4830 H 470.488 1.15782 -3.80578 0
M  V30 4831 H 467.227 -0.0371713 -6.55489 0
M  V30 4832 H 466.747 1.50327 -5.80656 0
M  V30 4833 H 468.426 1.25576 -6.34697 0
M  V30 4834 N 468.558 1.5553 0.254621 0
M  V30 4835 C 469.798 1.7876 0.991179 0
M  V30 4836 C 470.162 0.586669 1.82817 0
M  V30 4837 O 471.363 0.697585 2.5959 0
M  V30 4838 C 469.634 3.06679 1.83529 0
M  V30 4839 S 471.193 3.511 2.632 0
M  V30 4840 H 468.011 0.627916 0.333531 0
M  V30 4841 H 470.613 1.93766 0.259778 0
M  V30 4842 H 469.317 3.92158 1.20996 0
M  V30 4843 H 468.848 2.94388 2.60958 0
M  V30 4844 H 470.863 3.11823 3.8598 0
M  V30 4845 N 470.036 -0.519951 1.48776 0
M  V30 4846 C 471.276 -1.2856 1.58908 0
M  V30 4847 C 471.64 -1.90212 0.261418 0
M  V30 4848 O 472.841 -2.67746 0.237791 0
M  V30 4849 C 471.112 -2.33836 2.70288 0
M  V30 4850 S 472.671 -3.19992 3.0025 0
M  V30 4851 H 469.489 -0.43717 0.560717 0
M  V30 4852 H 472.091 -0.591205 1.86346 0
M  V30 4853 H 470.795 -1.87041 3.653 0
M  V30 4854 H 470.326 -3.07969 2.44783 0
M  V30 4855 H 472.341 -4.34122 2.40317 0
M  V30 4856 N 471.514 -1.37532 -0.769588 0
M  V30 4857 C 472.446 -1.29347 -1.89214 0
M  V30 4858 C 473.459 -0.208842 -1.61455 0
M  V30 4859 O 474.648 -0.465158 -1.72333 0
M  V30 4860 C 471.748 -0.977649 -3.24492 0
M  V30 4861 C 470.921 -2.16817 -3.7988 0
M  V30 4862 C 469.98 -1.82229 -4.93639 0
M  V30 4863 O 469.006 -2.54548 -5.09111 0
M  V30 4864 N 470.208 -0.767696 -5.75401 0
M  V30 4865 H 472.973 -2.26073 -1.96751 0
M  V30 4866 H 470.534 -1.31185 -0.948795 0
M  V30 4867 H 472.526 -0.727065 -3.98115 0
M  V30 4868 H 471.096 -0.0988777 -3.12444 0
M  V30 4869 H 470.316 -2.58038 -2.9801 0
M  V30 4870 H 471.604 -2.96308 -4.13617 0
M  V30 4871 H 471.002 -0.167626 -5.65452 0
M  V30 4872 H 469.559 -0.576973 -6.49241 0
M  V30 4873 N 472.992 0.995999 -1.22138 0
M  V30 4874 C 473.939 2.08551 -0.988687 0
M  V30 4875 C 474.909 1.65864 0.0885021 0
M  V30 4876 O 476.094 1.90704 -0.0604589 0
M  V30 4877 C 473.234 3.40374 -0.569191 0
M  V30 4878 C 472.347 3.96421 -1.71681 0
M  V30 4879 C 471.482 5.1639 -1.2456 0
M  V30 4880 C 470.521 5.64567 -2.36497 0
M  V30 4881 N 469.658 6.75777 -1.90445 0
M  V30 4882 H 474.498 2.2779 -1.92135 0
M  V30 4883 H 472.035 1.1168 -0.957388 0
M  V30 4884 H 473.993 4.16068 -0.307166 0
M  V30 4885 H 472.623 3.21145 0.326462 0
M  V30 4886 H 471.675 3.17628 -2.09324 0
M  V30 4887 H 472.987 4.2816 -2.55891 0
M  V30 4888 H 472.141 5.99362 -0.940774 0
M  V30 4889 H 470.88 4.86266 -0.373662 0
M  V30 4890 H 469.885 4.80185 -2.67772 0
M  V30 4891 H 471.11 5.96716 -3.24202 0
M  V30 4892 H 469.056 6.47443 -1.05609 0
M  V30 4893 H 468.973 7.06818 -2.68223 0
M  V30 4894 H 470.241 7.62262 -1.63022 0
M  V30 4895 N 474.47 1.03057 1.19235 0
M  V30 4896 C 475.7 0.746613 1.92638 0
M  V30 4897 C 476.108 -0.698708 1.75826 0
M  V30 4898 O 475.451 -1.487 1.07861 0
M  V30 4899 C 475.513 1.02024 3.44719 0
M  V30 4900 C 475.177 2.45745 3.85303 0
M  V30 4901 C 476.174 3.43887 3.8992 0
M  V30 4902 C 473.859 2.8019 4.16892 0
M  V30 4903 C 475.853 4.74529 4.2556 0
M  V30 4904 C 473.54 4.1104 4.52205 0
M  V30 4905 C 474.538 5.0802 4.56513 0
M  V30 4906 O 474.226 6.36527 4.91008 0
M  V30 4907 H 473.958 0.272401 0.618687 0
M  V30 4908 H 476.512 1.37853 1.52269 0
M  V30 4909 H 474.742 0.331184 3.85279 0
M  V30 4910 H 476.431 0.725677 3.9936 0
M  V30 4911 H 477.197 3.18614 3.65664 0
M  V30 4912 H 473.076 2.05382 4.12722 0
M  V30 4913 H 476.62 5.50222 4.28838 0
M  V30 4914 H 472.517 4.36086 4.7592 0
M  V30 4915 H 473.285 6.41025 5.08949 0
M  V30 4916 N 475.948 -1.35272 0.808662 0
M  V30 4917 C 477.194 -1.99003 0.390581 0
M  V30 4918 C 477.527 -1.63999 -1.0401 0
M  V30 4919 O 476.802 -0.904368 -1.72196 0
M  V30 4920 C 477.085 -3.55454 0.576566 0
M  V30 4921 C 476.938 -4.00249 2.05233 0
M  V30 4922 C 478.257 -4.401 0.00354277 0
M  V30 4923 H 475.376 -0.722917 0.143388 0
M  V30 4924 H 478.018 -1.6039 1.01858 0
M  V30 4925 H 476.168 -3.88477 0.0419766 0
M  V30 4926 H 477.84 -3.77626 2.64946 0
M  V30 4927 H 476.083 -3.51082 2.54801 0
M  V30 4928 H 476.754 -5.0911 2.13333 0
M  V30 4929 H 479.23 -4.13548 0.460117 0
M  V30 4930 H 478.106 -5.48656 0.163575 0
M  V30 4931 H 478.367 -4.28444 -1.09032 0
M  V30 4932 N 477.426 -0.562348 -1.47226 0
M  V30 4933 C 478.373 0.182461 -2.30078 0
M  V30 4934 C 479.343 0.903503 -1.39377 0
M  V30 4935 O 480.528 0.898188 -1.68337 0
M  V30 4936 C 477.668 1.20322 -3.23445 0
M  V30 4937 C 476.781 0.487717 -4.29238 0
M  V30 4938 C 475.916 1.49422 -5.09752 0
M  V30 4939 C 474.955 0.763976 -6.07314 0
M  V30 4940 N 474.092 1.71755 -6.80768 0
M  V30 4941 H 478.932 -0.530169 -2.93246 0
M  V30 4942 H 476.469 -0.273276 -1.44539 0
M  V30 4943 H 478.427 1.80768 -3.76004 0
M  V30 4944 H 477.057 1.88382 -2.6213 0
M  V30 4945 H 476.109 -0.231374 -3.79696 0
M  V30 4946 H 477.421 -0.0841003 -4.98729 0
M  V30 4947 H 476.575 2.17206 -5.66486 0
M  V30 4948 H 475.314 2.09995 -4.40174 0
M  V30 4949 H 474.319 0.0722344 -5.49753 0
M  V30 4950 H 475.544 0.16391 -6.78902 0
M  V30 4951 H 473.49 2.31177 -6.13916 0
M  V30 4952 H 473.407 1.19802 -7.46447 0
M  V30 4953 H 474.675 2.38638 -7.42073 0
M  V30 4954 N 478.904 1.54736 -0.299062 0
M  V30 4955 C 479.867 2.22127 0.565012 0
M  V30 4956 C 480.867 1.20669 1.06281 0
M  V30 4957 O 482.057 1.45417 0.959145 0
M  V30 4958 C 479.189 2.90611 1.78208 0
M  V30 4959 H 480.382 2.99891 -0.0237448 0
M  V30 4960 H 477.935 1.5622 -0.0498788 0
M  V30 4961 H 478.67 2.16921 2.41072 0
M  V30 4962 H 478.455 3.64984 1.43281 0
M  V30 4963 H 479.945 3.42026 2.396 0
M  V30 4964 N 480.382 0.0267497 1.57577 0
M  V30 4965 C 481.33 -0.973923 2.11229 0
M  V30 4966 C 482.324 -1.33849 1.03831 0
M  V30 4967 O 483.53 -1.321 1.22269 0
M  V30 4968 H 479.905 -0.331844 0.674821 0
M  V30 4969 H 481.876 -0.496092 2.94247 0
M  V30 4970 C 480.625 -2.24798 2.65257 0
M  V30 4971 H 479.948 -1.9762 3.47543 0
M  V30 4972 H 481.388 -2.93031 3.06445 0
M  V30 4973 C 479.847 -2.97611 1.57891 0
M  V30 4974 O 480.377 -3.89629 0.97735 0
M  V30 4975 N 478.583 -2.59905 1.29992 0
M  V30 4976 H 478.13 -1.85154 1.79097 0
M  V30 4977 H 478.088 -3.08932 0.583798 0
M  V30 4978 N 481.861 -1.55662 -0.24637 0
M  V30 4979 C 483.11 -1.7672 -0.972254 0
M  V30 4980 C 483.423 -0.59078 -1.86465 0
M  V30 4981 O 484.629 -0.684391 -2.62732 0
M  V30 4982 C 483.085 -3.12869 -1.7788 0
M  V30 4983 C 482.693 -4.38161 -0.933768 0
M  V30 4984 C 484.437 -3.43265 -2.49738 0
M  V30 4985 C 482.344 -5.6534 -1.73623 0
M  V30 4986 H 481.274 -0.658795 -0.366749 0
M  V30 4987 H 483.925 -1.82092 -0.226902 0
M  V30 4988 H 482.307 -3.01606 -2.56612 0
M  V30 4989 H 483.481 -4.60413 -0.188736 0
M  V30 4990 H 481.796 -4.15102 -0.328488 0
M  V30 4991 H 484.393 -4.35501 -3.10231 0
M  V30 4992 H 484.736 -2.64614 -3.2138 0
M  V30 4993 H 485.269 -3.55746 -1.78016 0
M  V30 4994 H 482.008 -6.46814 -1.06354 0
M  V30 4995 H 481.528 -5.47188 -2.45653 0
M  V30 4996 H 483.207 -6.04616 -2.30323 0
M  V30 4997 N 483.339 0.512053 -1.4905 0
M  V30 4998 C 484.564 1.2959 -1.6193 0
M  V30 4999 C 484.989 1.85906 -0.286454 0
M  V30 5000 O 484.347 1.65312 0.744426 0
M  V30 5001 C 484.395 2.40987 -2.68249 0
M  V30 5002 O 483.499 3.44531 -2.26654 0
M  V30 5003 H 482.84 0.383053 -0.542371 0
M  V30 5004 H 485.37 0.614231 -1.95162 0
M  V30 5005 H 485.38 2.86913 -2.90078 0
M  V30 5006 H 484.055 1.99361 -3.65004 0
M  V30 5007 H 482.632 3.046 -2.15112 0
M  V30 5008 N 484.817 1.37938 0.762283 0
M  V30 5009 C 485.727 1.36681 1.90671 0
M  V30 5010 C 486.743 0.265078 1.71969 0
M  V30 5011 O 487.919 0.502055 1.95042 0
M  V30 5012 C 484.984 1.18211 3.25925 0
M  V30 5013 C 484.045 2.3811 3.57214 0
M  V30 5014 C 483.278 2.20512 4.86014 0
M  V30 5015 O 483.501 1.19429 5.57757 0
M  V30 5016 O 482.435 3.08911 5.16583 0
M  V30 5017 H 486.261 2.33091 1.94685 0
M  V30 5018 H 483.846 1.18767 0.906356 0
M  V30 5019 H 485.728 1.09937 4.06807 0
M  V30 5020 H 484.403 0.248807 3.22742 0
M  V30 5021 H 483.31 2.51958 2.76529 0
M  V30 5022 H 484.643 3.30041 3.65149 0
M  V30 5023 N 486.295 -0.989507 1.22664 0
M  V30 5024 C 487.227 -2.0824 0.957542 0
M  V30 5025 C 488.24 -1.6267 -0.0651098 0
M  V30 5026 O 489.429 -1.77695 0.169312 0
M  V30 5027 C 486.529 -3.36298 0.419145 0
M  V30 5028 C 485.702 -4.10882 1.49982 0
M  V30 5029 C 484.761 -5.17221 0.967904 0
M  V30 5030 O 483.787 -5.44613 1.65487 0
M  V30 5031 N 484.989 -5.80124 -0.20896 0
M  V30 5032 H 487.754 -2.31904 1.89843 0
M  V30 5033 H 485.315 -1.15552 1.13399 0
M  V30 5034 H 487.307 -4.04671 0.0485451 0
M  V30 5035 H 485.877 -3.09671 -0.426937 0
M  V30 5036 H 485.097 -3.37092 2.04359 0
M  V30 5037 H 486.385 -4.57482 2.22682 0
M  V30 5038 H 485.783 -5.60244 -0.783818 0
M  V30 5039 H 484.34 -6.49715 -0.520913 0
M  V30 5040 N 487.773 -1.03688 -1.18687 0
M  V30 5041 C 488.998 -0.757819 -1.93059 0
M  V30 5042 C 489.423 0.678353 -1.75442 0
M  V30 5043 O 488.781 1.46938 -1.06203 0
M  V30 5044 C 488.829 -1.12423 -3.42627 0
M  V30 5045 O 487.933 -0.247505 -4.11657 0
M  V30 5046 H 487.274 -0.279245 -0.602427 0
M  V30 5047 H 489.804 -1.3857 -1.5053 0
M  V30 5048 H 489.814 -1.08454 -3.93322 0
M  V30 5049 H 488.489 -2.17049 -3.54771 0
M  V30 5050 H 487.066 -0.34649 -3.71287 0
M  V30 5051 N 489.251 1.34841 -0.815825 0
M  V30 5052 C 490.214 2.27959 -0.238185 0
M  V30 5053 C 491.214 1.49983 0.579816 0
M  V30 5054 O 492.404 1.69617 0.396953 0
M  V30 5055 C 489.536 3.34314 0.666876 0
M  V30 5056 H 490.729 2.80558 -1.05958 0
M  V30 5057 H 488.282 1.44852 -0.587156 0
M  V30 5058 H 489.017 2.86916 1.5116 0
M  V30 5059 H 488.802 3.92014 0.0819106 0
M  V30 5060 H 490.292 4.0379 1.06506 0
M  V30 5061 N 490.729 0.570148 1.46925 0
M  V30 5062 C 491.957 0.0561966 2.06824 0
M  V30 5063 C 492.372 -1.24326 1.42086 0
M  V30 5064 O 491.729 -1.74882 0.521794 0
M  V30 5065 C 491.78 -0.129517 3.61268 0
M  V30 5066 O 491.501 1.1185 4.23581 0
M  V30 5067 C 493.002 -0.679266 4.38065 0
M  V30 5068 H 490.222 0.0517261 0.669003 0
M  V30 5069 H 492.766 0.787243 1.8874 0
M  V30 5070 H 490.921 -0.810739 3.78822 0
M  V30 5071 H 491.335 0.924375 5.1629 0
M  V30 5072 H 492.809 -0.758445 5.46765 0
M  V30 5073 H 493.286 -1.69346 4.05239 0
M  V30 5074 H 493.892 -0.0333237 4.25287 0
M  V30 5075 N 492.207 -1.54576 0.307264 0
M  V30 5076 C 493.435 -2.04675 -0.302597 0
M  V30 5077 C 493.85 -1.18425 -1.47041 0
M  V30 5078 O 493.207 -0.211257 -1.81273 0
M  V30 5079 C 493.258 -3.53575 -0.752801 0
M  V30 5080 O 492.979 -4.36547 0.368536 0
M  V30 5081 C 494.48 -4.19699 -1.42717 0
M  V30 5082 H 491.7 -0.66786 -0.0648374 0
M  V30 5083 H 494.244 -1.99516 0.448716 0
M  V30 5084 H 492.399 -3.59074 -1.45412 0
M  V30 5085 H 492.813 -5.24497 0.0168937 0
M  V30 5086 H 494.287 -5.25388 -1.69327 0
M  V30 5087 H 494.764 -3.69815 -2.36925 0
M  V30 5088 H 495.37 -4.18293 -0.768856 0
M  V30 5089 N 493.685 -0.035106 -1.57561 0
M  V30 5090 C 494.931 0.64318 -1.92331 0
M  V30 5091 C 495.264 1.71434 -0.912368 0
M  V30 5092 O 494.539 1.94395 0.0640303 0
M  V30 5093 C 494.822 1.25411 -3.37556 0
M  V30 5094 C 494.675 0.192109 -4.4939 0
M  V30 5095 C 495.994 2.17041 -3.82859 0
M  V30 5096 H 493.113 0.232341 -0.699419 0
M  V30 5097 H 495.755 -0.0935889 -1.89769 0
M  V30 5098 H 493.905 1.88205 -3.39869 0
M  V30 5099 H 495.577 -0.438849 -4.59208 0
M  V30 5100 H 493.82 -0.481725 -4.31117 0
M  V30 5101 H 494.491 0.659292 -5.48049 0
M  V30 5102 H 496.967 1.64228 -3.8232 0
M  V30 5103 H 495.843 2.56738 -4.85157 0
M  V30 5104 H 496.104 3.06401 -3.18702 0
M  V30 5105 N 495.163 1.55791 0.238111 0
M  V30 5106 C 496.579 1.48411 0.587045 0
M  V30 5107 C 496.779 0.72702 1.87927 0
M  V30 5108 O 495.835 0.259942 2.51158 0
M  V30 5109 C 497.148 2.92873 0.681623 0
M  V30 5110 C 498.696 3.03295 0.773363 0
M  V30 5111 C 499.171 4.49082 0.899428 0
M  V30 5112 N 500.662 4.53056 0.964075 0
M  V30 5113 C 501.397 5.63117 1.08104 0
M  V30 5114 N 500.893 6.82969 1.16299 0
M  V30 5115 N 502.686 5.50933 1.11488 0
M  V30 5116 H 494.837 2.0345 -0.610076 0
M  V30 5117 H 497.1 0.924034 -0.211813 0
M  V30 5118 H 496.806 3.51142 -0.19802 0
M  V30 5119 H 496.68 3.43851 1.55069 0
M  V30 5120 H 499.067 2.45101 1.64346 0
M  V30 5121 H 499.148 2.55513 -0.121034 0
M  V30 5122 H 498.792 5.07889 0.0338586 0
M  V30 5123 H 498.722 4.94553 1.809 0
M  V30 5124 H 501.213 3.66737 0.91173 0
M  V30 5125 H 501.526 7.62598 1.25155 0
M  V30 5126 H 499.871 6.85712 1.13241 0
M  V30 5127 H 503.062 4.56231 1.0474 0
M  V30 5128 H 503.235 6.36743 1.20259 0
M  V30 5129 N 496.642 -0.504142 1.49319 0
M  V30 5130 C 497.872 -1.28071 1.62116 0
M  V30 5131 C 498.28 -1.86955 0.290566 0
M  V30 5132 O 497.623 -1.68415 -0.733616 0
M  V30 5133 C 497.685 -2.4521 2.62893 0
M  V30 5134 C 497.349 -2.07218 4.0732 0
M  V30 5135 C 498.346 -1.61375 4.94221 0
M  V30 5136 C 496.031 -2.16949 4.53033 0
M  V30 5137 C 498.025 -1.25763 6.2487 0
M  V30 5138 C 495.712 -1.80949 5.83696 0
M  V30 5139 C 496.71 -1.3543 6.69438 0
M  V30 5140 O 496.398 -0.99915 7.97667 0
M  V30 5141 H 496.13 -0.394763 0.54876 0
M  V30 5142 H 498.684 -0.612118 1.96067 0
M  V30 5143 H 496.914 -3.15134 2.24115 0
M  V30 5144 H 498.603 -3.0724 2.65252 0
M  V30 5145 H 499.369 -1.53306 4.60133 0
M  V30 5146 H 495.248 -2.5133 3.86463 0
M  V30 5147 H 498.792 -0.901631 6.91749 0
M  V30 5148 H 494.689 -1.88667 6.17313 0
M  V30 5149 H 495.457 -1.13089 8.1065 0
M  V30 5150 N 498.12 -1.38341 -0.754957 0
M  V30 5151 C 499.348 -1.37704 -1.54419 0
M  V30 5152 C 499.763 0.0335243 -1.8877 0
M  V30 5153 O 499.12 0.999773 -1.52679 0
M  V30 5154 C 499.171 -2.23136 -2.84416 0
M  V30 5155 O 498.892 -3.58697 -2.51531 0
M  V30 5156 C 500.393 -2.30664 -3.78562 0
M  V30 5157 H 497.613 -0.471061 -0.477852 0
M  V30 5158 H 500.157 -1.81902 -0.934446 0
M  V30 5159 H 498.312 -1.82403 -3.41772 0
M  V30 5160 H 498.726 -4.03665 -3.34896 0
M  V30 5161 H 500.2 -2.9473 -4.66732 0
M  V30 5162 H 500.677 -1.3199 -4.18898 0
M  V30 5163 H 501.283 -2.71781 -3.27131 0
M  V30 5164 N 499.598 0.982988 -1.23187 0
M  V30 5165 C 500.531 2.07302 -0.953993 0
M  V30 5166 C 501.509 1.62249 0.106753 0
M  V30 5167 O 502.693 1.88481 -0.0269525 0
M  V30 5168 C 499.82 3.35873 -0.436716 0
M  V30 5169 C 498.866 3.99862 -1.48367 0
M  V30 5170 S 499.699 4.39443 -3.06023 0
M  V30 5171 C 500.855 5.7117 -2.55959 0
M  V30 5172 H 501.088 2.30554 -1.87702 0
M  V30 5173 H 498.621 1.11883 -1.06403 0
M  V30 5174 H 500.579 4.10244 -0.144872 0
M  V30 5175 H 499.24 3.10634 0.465351 0
M  V30 5176 H 498.433 4.92471 -1.07182 0
M  V30 5177 H 498.035 3.31857 -1.72473 0
M  V30 5178 H 500.327 6.47977 -1.97818 0
M  V30 5179 H 501.27 6.17194 -3.47098 0
M  V30 5180 H 501.678 5.29046 -1.96902 0
M  V30 5181 N 501.076 1.04316 1.18135 0
M  V30 5182 C 502.023 0.636398 2.21853 0
M  V30 5183 C 502.993 -0.357039 1.62217 0
M  V30 5184 O 504.178 -0.250453 1.89149 0
M  V30 5185 C 501.318 0.00812779 3.45099 0
M  V30 5186 C 500.431 1.04933 4.19062 0
M  V30 5187 C 499.566 0.389313 5.29771 0
M  V30 5188 C 498.605 1.41544 5.9551 0
M  V30 5189 N 497.742 0.78021 6.97751 0
M  V30 5190 H 502.582 1.52536 2.56002 0
M  V30 5191 H 500.119 0.76304 1.25762 0
M  V30 5192 H 502.077 -0.373497 4.15525 0
M  V30 5193 H 500.707 -0.844336 3.11562 0
M  V30 5194 H 499.759 1.54888 3.47439 0
M  V30 5195 H 501.071 1.82862 4.64072 0
M  V30 5196 H 500.225 -0.0463805 6.06682 0
M  V30 5197 H 498.964 -0.422038 4.8587 0
M  V30 5198 H 497.969 1.86124 5.17337 0
M  V30 5199 H 499.194 2.22854 6.41493 0
M  V30 5200 H 497.14 -0.0107899 6.55999 0
M  V30 5201 H 497.057 1.49716 7.41027 0
M  V30 5202 H 498.325 0.368996 7.78626 0
M  V30 5203 N 502.554 -1.34406 0.822964 0
M  V30 5204 C 503.487 -2.27407 0.190124 0
M  V30 5205 C 504.465 -1.4889 -0.653486 0
M  V30 5206 O 505.649 -1.78109 -0.617216 0
M  V30 5207 C 502.776 -3.3064 -0.734477 0
M  V30 5208 C 501.822 -4.26488 0.0316099 0
M  V30 5209 S 502.655 -5.17445 1.3788 0
M  V30 5210 C 503.811 -6.24214 0.45907 0
M  V30 5211 H 504.044 -2.80733 0.978586 0
M  V30 5212 H 501.577 -1.41455 0.618866 0
M  V30 5213 H 503.535 -3.90607 -1.26238 0
M  V30 5214 H 502.196 -2.76161 -1.49646 0
M  V30 5215 H 501.389 -4.9951 -0.671285 0
M  V30 5216 H 500.991 -3.70775 0.490066 0
M  V30 5217 H 503.283 -6.76599 -0.349357 0
M  V30 5218 H 504.226 -6.98551 1.15896 0
M  V30 5219 H 504.634 -5.6448 0.0474825 0
M  V30 5220 N 504.032 -0.577932 -1.46621 0
M  V30 5221 C 504.962 0.145917 -2.33044 0
M  V30 5222 C 505.943 0.888412 -1.45056 0
M  V30 5223 O 507.128 0.864812 -1.73881 0
M  V30 5224 C 504.258 1.16322 -3.27241 0
M  V30 5225 C 503.212 0.535868 -4.24632 0
M  V30 5226 C 502.538 1.65929 -5.08303 0
M  V30 5227 C 503.838 -0.523861 -5.19666 0
M  V30 5228 H 505.532 -0.575636 -2.93814 0
M  V30 5229 H 503.078 -0.278272 -1.41286 0
M  V30 5230 H 505.031 1.67793 -3.86553 0
M  V30 5231 H 503.755 1.91498 -2.64567 0
M  V30 5232 H 502.414 0.0422759 -3.66576 0
M  V30 5233 H 502.062 2.40061 -4.42018 0
M  V30 5234 H 501.762 1.2452 -5.74255 0
M  V30 5235 H 503.286 2.17686 -5.70478 0
M  V30 5236 H 504.7 -0.0944059 -5.73222 0
M  V30 5237 H 503.097 -0.858 -5.93935 0
M  V30 5238 H 504.167 -1.41197 -4.63887 0
M  V30 5239 N 505.51 1.54411 -0.315457 0
M  V30 5240 C 506.473 2.22713 0.54142 0
M  V30 5241 C 507.473 1.2179 1.04995 0
M  V30 5242 O 508.663 1.46426 0.943667 0
M  V30 5243 C 505.795 2.92485 1.75116 0
M  V30 5244 H 506.988 2.99849 -0.0555508 0
M  V30 5245 H 504.541 1.56159 -0.0664453 0
M  V30 5246 H 505.276 2.19466 2.38758 0
M  V30 5247 H 505.061 3.66483 1.39401 0
M  V30 5248 H 506.551 3.44548 2.35959 0
M  V30 5249 N 506.988 0.0434614 1.5754 0
M  V30 5250 C 508.213 -0.645358 1.97104 0
M  V30 5251 C 508.638 -1.64037 0.920521 0
M  V30 5252 O 507.996 -1.80922 -0.11708 0
M  V30 5253 C 508.044 -1.31547 3.35749 0
M  V30 5254 O 507.148 -2.43103 3.33129 0
M  V30 5255 H 506.489 -0.168403 0.64229 0
M  V30 5256 H 509.019 0.109573 2.04306 0
M  V30 5257 H 509.029 -1.66895 3.72304 0
M  V30 5258 H 507.704 -0.586205 4.11748 0
M  V30 5259 H 506.281 -2.0976 3.0831 0
M  V30 5260 N 508.466 -1.55915 -0.229846 0
M  V30 5261 C 509.691 -1.8296 -0.976743 0
M  V30 5262 C 510.116 -0.622735 -1.77493 0
M  V30 5263 O 509.474 0.428431 -1.76165 0
M  V30 5264 C 509.522 -3.07916 -1.8767 0
M  V30 5265 O 508.626 -2.86028 -2.97088 0
M  V30 5266 H 507.967 -0.603453 -0.277021 0
M  V30 5267 H 510.497 -2.0312 -0.245669 0
M  V30 5268 H 510.507 -3.37802 -2.2881 0
M  V30 5269 H 509.182 -3.95389 -1.28996 0
M  V30 5270 H 507.759 -2.67355 -2.59954 0
M  V30 5271 N 509.944 0.496216 -1.49584 0
M  V30 5272 C 510.907 1.57952 -1.66084 0
M  V30 5273 C 511.907 1.51729 -0.53244 0
M  V30 5274 O 513.097 1.54796 -0.79899 0
M  V30 5275 C 510.229 2.97604 -1.66268 0
M  V30 5276 H 511.422 1.44649 -2.6271 0
M  V30 5277 H 508.975 0.7208 -1.38687 0
M  V30 5278 H 509.71 3.16378 -0.712432 0
M  V30 5279 H 509.495 3.03528 -2.4822 0
M  V30 5280 H 510.985 3.76301 -1.81073 0
M  V30 5281 N 511.423 1.38739 0.74761 0
M  V30 5282 C 512.333 1.38696 1.89211 0
M  V30 5283 C 513.349 0.283303 1.71678 0
M  V30 5284 O 514.525 0.522713 1.94498 0
M  V30 5285 C 511.59 1.21662 3.24653 0
M  V30 5286 C 510.651 2.41886 3.54669 0
M  V30 5287 C 509.884 2.25655 4.83648 0
M  V30 5288 O 510.107 1.25339 5.56459 0
M  V30 5289 O 509.041 3.14372 5.13277 0
M  V30 5290 H 512.867 2.35143 1.92202 0
M  V30 5291 H 510.452 1.19721 0.893708 0
M  V30 5292 H 512.334 1.14246 4.05618 0
M  V30 5293 H 511.009 0.283024 3.2246 0
M  V30 5294 H 509.916 2.54877 2.73841 0
M  V30 5295 H 511.249 3.33895 3.61628 0
M  V30 5296 N 512.901 -0.976442 1.23707 0
M  V30 5297 C 514.129 -1.75341 1.09833 0
M  V30 5298 C 514.544 -1.8553 -0.349885 0
M  V30 5299 O 513.901 -1.33732 -1.24185 0
M  V30 5300 C 513.952 -3.17833 1.72233 0
M  V30 5301 O 513.673 -3.08167 3.11391 0
M  V30 5302 C 515.174 -4.11906 1.63853 0
M  V30 5303 H 512.394 -0.550137 0.384175 0
M  V30 5304 H 514.938 -1.2265 1.63638 0
M  V30 5305 H 513.093 -3.67538 1.22452 0
M  V30 5306 H 513.507 -3.97897 3.41729 0
M  V30 5307 H 514.981 -5.09579 2.12211 0
M  V30 5308 H 515.458 -4.35109 0.598092 0
M  V30 5309 H 516.064 -3.68107 2.13019 0
M  V30 5310 N 514.379 -1.04941 -1.1758 0
M  V30 5311 C 515.628 -0.753124 -1.87112 0
M  V30 5312 C 515.941 0.722507 -1.81767 0
M  V30 5313 O 517.147 1.13265 -2.46746 0
M  V30 5314 C 515.603 -1.29695 -3.35719 0
M  V30 5315 C 515.211 -2.80184 -3.49572 0
M  V30 5316 C 516.955 -1.07759 -4.10595 0
M  V30 5317 C 514.862 -3.2788 -4.92187 0
M  V30 5318 H 513.792 -0.278034 -0.700866 0
M  V30 5319 H 516.443 -1.26637 -1.32798 0
M  V30 5320 H 514.825 -0.711522 -3.89555 0
M  V30 5321 H 515.999 -3.44561 -3.05965 0
M  V30 5322 H 514.314 -3.00632 -2.88113 0
M  V30 5323 H 516.911 -1.40899 -5.15802 0
M  V30 5324 H 517.254 -0.0152302 -4.16297 0
M  V30 5325 H 517.787 -1.62809 -3.62957 0
M  V30 5326 H 514.526 -4.33535 -4.91658 0
M  V30 5327 H 514.046 -2.68245 -5.36475 0
M  V30 5328 H 515.725 -3.22412 -5.60945 0
M  V30 5329 N 515.857 1.33968 -0.830081 0
M  V30 5330 C 517.106 1.97323 -0.417928 0
M  V30 5331 C 517.419 1.6652 1.02618 0
M  V30 5332 O 518.625 2.2342 1.54259 0
M  V30 5333 C 517.081 3.53099 -0.696359 0
M  V30 5334 C 516.689 3.92788 -2.15457 0
M  V30 5335 C 518.433 4.23049 -0.350724 0
M  V30 5336 C 516.34 5.41506 -2.37751 0
M  V30 5337 H 515.27 0.738409 -0.152541 0
M  V30 5338 H 517.921 1.52711 -1.01744 0
M  V30 5339 H 516.303 3.95991 -0.0265904 0
M  V30 5340 H 517.477 3.6098 -2.86408 0
M  V30 5341 H 515.792 3.35795 -2.46232 0
M  V30 5342 H 518.389 5.32403 -0.495036 0
M  V30 5343 H 518.732 4.10279 0.705476 0
M  V30 5344 H 519.265 3.85657 -0.975362 0
M  V30 5345 H 516.004 5.5927 -3.41903 0
M  V30 5346 H 515.524 5.74804 -1.7135 0
M  V30 5347 H 517.203 6.0828 -2.20465 0
M  V30 5348 N 517.335 0.585699 1.46312 0
M  V30 5349 C 518.582 0.0724211 2.0237 0
M  V30 5350 C 518.91 -1.28868 1.45683 0
M  V30 5351 O 518.165 -1.85853 0.612945 0
M  V30 5352 C 518.464 -0.0401312 3.57377 0
M  V30 5353 C 518.13 1.25376 4.33119 0
M  V30 5354 C 516.792 1.60824 4.5353 0
M  V30 5355 C 519.144 2.10987 4.76586 0
M  V30 5356 C 516.472 2.81676 5.14661 0
M  V30 5357 C 518.824 3.31068 5.39052 0
M  V30 5358 C 517.488 3.66794 5.5769 0
M  V30 5359 H 516.758 0.0265007 0.740526 0
M  V30 5360 H 519.405 0.762935 1.75646 0
M  V30 5361 H 517.71 -0.813791 3.83255 0
M  V30 5362 H 519.407 -0.453078 3.98432 0
M  V30 5363 H 515.997 0.967808 4.1753 0
M  V30 5364 H 520.181 1.84904 4.60569 0
M  V30 5365 H 515.437 3.0949 5.27282 0
M  V30 5366 H 519.611 3.97672 5.71691 0
M  V30 5367 H 517.238 4.60529 6.04828 0
M  V30 5368 N 518.813 -1.54241 0.323641 0
M  V30 5369 C 519.746 -2.20579 -0.584833 0
M  V30 5370 C 520.724 -1.18286 -1.11567 0
M  V30 5371 O 521.908 -1.47025 -1.17966 0
M  V30 5372 C 519.035 -2.86754 -1.80249 0
M  V30 5373 C 518.081 -4.02767 -1.4029 0
M  V30 5374 S 518.914 -5.33693 -0.439539 0
M  V30 5375 C 520.07 -6.03362 -1.66448 0
M  V30 5376 H 520.303 -2.97292 -0.0213238 0
M  V30 5377 H 517.836 -1.54024 0.107726 0
M  V30 5378 H 519.794 -3.25503 -2.50116 0
M  V30 5379 H 518.455 -2.09844 -2.33719 0
M  V30 5380 H 517.648 -4.47933 -2.31024 0
M  V30 5381 H 517.25 -3.65692 -0.783928 0
M  V30 5382 H 519.542 -6.25546 -2.6019 0
M  V30 5383 H 520.485 -6.9689 -1.25498 0
M  V30 5384 H 520.893 -5.33273 -1.85149 0
M  V30 5385 N 520.291 -0.0518155 -1.57515 0
M  V30 5386 C 521.538 0.621823 -1.92716 0
M  V30 5387 C 521.866 1.70813 -0.930229 0
M  V30 5388 O 521.121 1.95616 0.0573708 0
M  V30 5389 C 521.42 1.25607 -3.34601 0
M  V30 5390 C 521.086 0.297901 -4.49915 0
M  V30 5391 C 519.748 0.034243 -4.81188 0
M  V30 5392 C 522.1 -0.358738 -5.19964 0
M  V30 5393 C 519.428 -0.893479 -5.79857 0
M  V30 5394 C 521.78 -1.27466 -6.19625 0
M  V30 5395 C 520.444 -1.54698 -6.49326 0
M  V30 5396 H 519.714 0.227541 -0.705199 0
M  V30 5397 H 522.361 -0.118432 -1.91133 0
M  V30 5398 H 520.666 2.07161 -3.32553 0
M  V30 5399 H 522.363 1.78424 -3.59118 0
M  V30 5400 H 518.953 0.513581 -4.25512 0
M  V30 5401 H 523.137 -0.168133 -4.96015 0
M  V30 5402 H 518.393 -1.11193 -6.01204 0
M  V30 5403 H 522.567 -1.78953 -6.73015 0
M  V30 5404 H 520.194 -2.26748 -7.25596 0
M  V30 5405 N 521.769 1.56035 0.221574 0
M  V30 5406 C 522.699 1.95434 1.2778 0
M  V30 5407 C 523.68 0.822564 1.48889 0
M  V30 5408 O 524.865 1.08486 1.61072 0
M  V30 5409 C 521.995 2.27102 2.62759 0
M  V30 5410 C 520.949 3.4277 2.56306 0
M  V30 5411 C 520.275 3.60043 3.95314 0
M  V30 5412 C 521.575 4.77742 2.11093 0
M  V30 5413 H 523.269 2.83912 0.950504 0
M  V30 5414 H 520.815 1.36596 0.455791 0
M  V30 5415 H 522.768 2.53256 3.36807 0
M  V30 5416 H 521.492 1.35478 2.97176 0
M  V30 5417 H 520.151 3.16664 1.84715 0
M  V30 5418 H 519.799 2.65794 4.27039 0
M  V30 5419 H 519.499 4.37841 3.91879 0
M  V30 5420 H 521.023 3.88545 4.71025 0
M  V30 5421 H 522.437 5.03102 2.74885 0
M  V30 5422 H 520.834 5.58823 2.18716 0
M  V30 5423 H 521.904 4.731 1.06321 0
M  V30 5424 N 523.247 -0.488276 1.49845 0
M  V30 5425 C 524.495 -1.23911 1.59657 0
M  V30 5426 C 524.816 -1.92816 0.291005 0
M  V30 5427 O 524.086 -1.83328 -0.690485 0
M  V30 5428 H 522.666 -0.460357 0.588286 0
M  V30 5429 H 525.328 -0.564794 1.86537 0
M  V30 5430 H 524.424 -1.99625 2.39909 0
M  V30 5431 N 524.725 -1.39134 -0.740242 0
M  V30 5432 C 525.974 -1.35384 -1.49512 0
M  V30 5433 C 526.287 0.04919 -1.95538 0
M  V30 5434 O 527.493 0.209257 -2.70692 0
M  V30 5435 C 525.949 -2.37812 -2.70136 0
M  V30 5436 C 525.557 -3.83804 -2.31081 0
M  V30 5437 C 527.301 -2.4313 -3.47977 0
M  V30 5438 C 525.208 -4.77886 -3.48395 0
M  V30 5439 H 524.138 -0.503297 -0.561434 0
M  V30 5440 H 526.789 -1.64754 -0.807974 0
M  V30 5441 H 525.171 -2.01505 -3.40899 0
M  V30 5442 H 526.345 -4.29123 -1.67898 0
M  V30 5443 H 524.66 -3.81732 -1.66343 0
M  V30 5444 H 527.257 -3.10614 -4.35228 0
M  V30 5445 H 527.6 -1.45423 -3.90074 0
M  V30 5446 H 528.133 -2.78304 -2.84239 0
M  V30 5447 H 524.872 -5.76836 -3.11353 0
M  V30 5448 H 524.392 -4.3725 -4.10576 0
M  V30 5449 H 526.071 -4.96538 -4.148 0
M  V30 5450 N 526.204 0.969867 -1.24223 0
M  V30 5451 C 527.429 1.75289 -1.10853 0
M  V30 5452 C 527.854 1.85091 0.335079 0
M  V30 5453 O 527.212 1.32024 1.24255 0
M  V30 5454 C 527.26 3.15255 -1.75062 0
M  V30 5455 O 526.364 3.99589 -1.01992 0
M  V30 5456 H 525.705 0.538904 -0.387915 0
M  V30 5457 H 528.235 1.21675 -1.64488 0
M  V30 5458 H 528.245 3.65787 -1.80731 0
M  V30 5459 H 526.92 3.07436 -2.801 0
M  V30 5460 H 525.497 3.58077 -1.04094 0
M  V30 5461 N 527.682 1.05563 1.17022 0
M  V30 5462 C 528.645 0.664098 2.19368 0
M  V30 5463 C 529.645 -0.286358 1.5823 0
M  V30 5464 O 530.835 -0.069728 1.7406 0
M  V30 5465 C 527.967 -0.0239932 3.40892 0
M  V30 5466 H 529.16 1.57 2.55521 0
M  V30 5467 H 526.713 0.849964 1.31169 0
M  V30 5468 H 527.448 -0.942988 3.10287 0
M  V30 5469 H 527.233 0.659351 3.86516 0
M  V30 5470 H 528.723 -0.283909 4.16634 0
M  V30 5471 N 529.16 -1.33526 0.837174 0
M  V30 5472 C 530.406 -1.9813 0.432704 0
M  V30 5473 C 530.739 -1.66168 -1.00508 0
M  V30 5474 O 530.014 -0.94069 -1.70239 0
M  V30 5475 C 530.297 -3.54151 0.651834 0
M  V30 5476 C 530.15 -3.95806 2.13676 0
M  V30 5477 C 531.469 -4.39993 0.0968937 0
M  V30 5478 H 528.588 -0.719713 0.15869 0
M  V30 5479 H 531.23 -1.58193 1.05237 0
M  V30 5480 H 529.38 -3.88301 0.124369 0
M  V30 5481 H 531.052 -3.71921 2.72896 0
M  V30 5482 H 529.295 -3.45599 2.62191 0
M  V30 5483 H 529.966 -5.0447 2.24084 0
M  V30 5484 H 532.442 -4.12479 0.547733 0
M  V30 5485 H 531.318 -5.48186 0.279917 0
M  V30 5486 H 531.579 -4.3066 -0.9992 0
M  V30 5487 N 530.638 -0.59345 -1.46 0
M  V30 5488 C 531.586 0.146268 -2.3214 0
M  V30 5489 C 532.58 0.873743 -1.45128 0
M  V30 5490 O 533.786 0.790912 -1.61693 0
M  V30 5491 H 530.161 0.0660349 -0.749095 0
M  V30 5492 H 532.132 -0.598895 -2.92328 0
M  V30 5493 C 530.881 1.1396 -3.28494 0
M  V30 5494 H 530.204 0.589252 -3.95434 0
M  V30 5495 H 531.644 1.62738 -3.91526 0
M  V30 5496 C 530.103 2.20604 -2.54628 0
M  V30 5497 O 530.633 3.28128 -2.31722 0
M  V30 5498 N 528.839 1.95502 -2.15005 0
M  V30 5499 H 528.386 1.0807 -2.33834 0
M  V30 5500 H 528.344 2.67064 -1.65904 0
M  V30 5501 N 532.116 1.54067 -0.331816 0
M  V30 5502 C 533.527 1.86059 0.15454 0
M  V30 5503 C 533.878 1.25331 1.50952 0
M  V30 5504 O 533.003 0.562441 2.08963 0
M  V30 5505 C 533.598 3.37581 0.287192 0
M  V30 5506 C 532.157 3.69493 0.717773 0
M  V30 5507 C 531.304 2.76863 -0.155569 0
M  V30 5508 H 534.255 1.48797 -0.55182 0
M  V30 5509 H 534.276 3.63744 1.11671 0
M  V30 5510 H 533.788 3.81751 -0.699131 0
M  V30 5511 H 531.889 3.3086 1.71354 0
M  V30 5512 H 532.002 4.76315 0.5158 0
M  V30 5513 H 530.366 2.51995 0.370213 0
M  V30 5514 H 531.149 3.23861 -1.13881 0
M  V30 5515 N 533.594 0.0601682 1.57485 0
M  V30 5516 C 534.841 -0.611594 1.93043 0
M  V30 5517 C 535.169 -1.70317 0.939274 0
M  V30 5518 O 534.424 -1.95644 -0.046996 0
M  V30 5519 C 534.723 -1.23831 3.35262 0
M  V30 5520 C 534.389 -0.274037 4.50066 0
M  V30 5521 C 533.051 -0.00872394 4.81199 0
M  V30 5522 C 535.403 0.386308 5.19766 0
M  V30 5523 C 532.731 0.924218 5.79375 0
M  V30 5524 C 535.083 1.3075 6.1894 0
M  V30 5525 C 533.747 1.58139 6.48497 0
M  V30 5526 H 533.017 -0.223798 0.706396 0
M  V30 5527 H 535.664 0.128566 1.91068 0
M  V30 5528 H 533.969 -2.05394 3.33647 0
M  V30 5529 H 535.666 -1.76517 3.60059 0
M  V30 5530 H 532.256 -0.491008 4.25778 0
M  V30 5531 H 536.44 0.194436 4.95919 0
M  V30 5532 H 531.696 1.1438 6.00606 0
M  V30 5533 H 535.87 1.82519 6.72056 0
M  V30 5534 H 533.497 2.30593 7.24383 0
M  V30 5535 N 535.072 -1.5615 -0.213296 0
M  V30 5536 C 536.321 -1.78743 -0.93455 0
M  V30 5537 C 536.634 -0.630199 -1.8517 0
M  V30 5538 O 537.84 -0.739966 -2.61222 0
M  V30 5539 C 536.296 -3.16571 -1.71203 0
M  V30 5540 C 535.904 -4.40043 -0.840617 0
M  V30 5541 C 537.648 -3.48485 -2.42401 0
M  V30 5542 C 535.555 -5.68895 -1.61592 0
M  V30 5543 H 534.485 -0.666426 -0.352692 0
M  V30 5544 H 537.136 -1.82532 -0.188227 0
M  V30 5545 H 535.518 -3.06981 -2.50157 0
M  V30 5546 H 536.692 -4.6071 -0.0910326 0
M  V30 5547 H 535.007 -4.15706 -0.240365 0
M  V30 5548 H 537.604 -4.41983 -3.00924 0
M  V30 5549 H 537.947 -2.71371 -3.15695 0
M  V30 5550 H 538.48 -3.59442 -1.7043 0
M  V30 5551 H 535.219 -6.48925 -0.926106 0
M  V30 5552 H 534.739 -5.52275 -2.33991 0
M  V30 5553 H 536.418 -6.09365 -2.17447 0
M  V30 5554 N 536.55 0.480323 -1.50102 0
M  V30 5555 C 537.796 1.23208 -1.61837 0
M  V30 5556 C 538.151 1.89878 -0.310509 0
M  V30 5557 O 537.444 1.7871 0.690897 0
M  V30 5558 C 537.638 2.30708 -2.72963 0
M  V30 5559 C 537.467 1.74583 -4.14428 0
M  V30 5560 C 536.237 1.54964 -4.80951 0
M  V30 5561 C 538.435 1.24597 -4.98979 0
M  V30 5562 N 536.417 0.939855 -6.06663 0
M  V30 5563 C 537.788 0.758834 -6.15339 0
M  V30 5564 C 539.843 1.13365 -4.84822 0
M  V30 5565 C 538.546 0.17046 -7.19098 0
M  V30 5566 C 540.572 0.559221 -5.8875 0
M  V30 5567 C 539.934 0.082415 -7.04352 0
M  V30 5568 H 536.033 0.440065 -0.646426 0
M  V30 5569 H 538.617 0.535632 -1.87187 0
M  V30 5570 H 536.788 2.9779 -2.4935 0
M  V30 5571 H 538.52 2.97738 -2.74106 0
M  V30 5572 H 535.275 1.79926 -4.38091 0
M  V30 5573 H 535.699 0.653641 -6.73837 0
M  V30 5574 H 540.341 1.48823 -3.95742 0
M  V30 5575 H 538.059 -0.196347 -8.07861 0
M  V30 5576 H 541.645 0.474804 -5.79859 0
M  V30 5577 H 540.525 -0.355119 -7.83396 0
M  V30 5578 N 538.028 1.39524 0.732853 0
M  V30 5579 C 539.256 1.40143 1.52209 0
M  V30 5580 C 539.671 -0.00348836 1.888 0
M  V30 5581 O 539.028 -0.975357 1.5425 0
M  V30 5582 C 539.079 2.27632 2.8083 0
M  V30 5583 O 538.8 3.62654 2.45792 0
M  V30 5584 C 540.301 2.36658 3.74844 0
M  V30 5585 H 537.521 0.478604 0.470297 0
M  V30 5586 H 540.065 1.83366 0.905388 0
M  V30 5587 H 538.22 1.87818 3.38826 0
M  V30 5588 H 538.634 4.08941 3.28431 0
M  V30 5589 H 540.108 3.02118 4.61984 0
M  V30 5590 H 540.585 1.38638 4.16745 0
M  V30 5591 H 541.191 2.76951 3.22766 0
M  V30 5592 N 539.506 -0.963266 1.24736 0
M  V30 5593 C 540.752 -1.71 1.10139 0
M  V30 5594 C 541.107 -1.89089 -0.35541 0
M  V30 5595 O 540.4 -1.44451 -1.25875 0
M  V30 5596 C 540.594 -3.09944 1.7796 0
M  V30 5597 C 540.423 -3.05408 3.30085 0
M  V30 5598 C 539.193 -3.09643 3.99311 0
M  V30 5599 C 541.391 -2.87241 4.26611 0
M  V30 5600 N 539.373 -2.95174 5.3828 0
M  V30 5601 C 540.744 -2.81114 5.52607 0
M  V30 5602 C 542.799 -2.71856 4.17132 0
M  V30 5603 C 541.502 -2.61174 6.70209 0
M  V30 5604 C 543.528 -2.53284 5.34417 0
M  V30 5605 C 542.89 -2.4787 6.59348 0
M  V30 5606 H 538.989 -0.634078 0.457678 0
M  V30 5607 H 541.573 -1.14169 1.57713 0
M  V30 5608 H 539.744 -3.64958 1.32893 0
M  V30 5609 H 541.476 -3.73348 1.56183 0
M  V30 5610 H 538.231 -3.18498 3.50508 0
M  V30 5611 H 538.655 -2.91168 6.11188 0
M  V30 5612 H 543.297 -2.74821 3.21299 0
M  V30 5613 H 541.015 -2.56952 7.6616 0
M  V30 5614 H 544.601 -2.42317 5.28936 0
M  V30 5615 H 543.481 -2.33685 7.48573 0
M  V30 5616 N 540.985 -1.06182 -1.16461 0
M  V30 5617 C 541.933 -0.665716 -2.2287 0
M  V30 5618 C 542.927 0.317822 -1.66392 0
M  V30 5619 O 544.133 0.182807 -1.79069 0
M  V30 5620 H 540.508 -0.197148 -0.725697 0
M  V30 5621 H 542.479 -1.57307 -2.53569 0
M  V30 5622 C 541.228 -0.0669803 -3.47635 0
M  V30 5623 H 540.551 -0.814899 -3.91407 0
M  V30 5624 H 541.991 0.172669 -4.23648 0
M  V30 5625 C 540.45 1.18913 -3.15216 0
M  V30 5626 O 540.98 2.27723 -3.30916 0
M  V30 5627 N 539.186 1.09066 -2.69357 0
M  V30 5628 H 538.733 0.20518 -2.56782 0
M  V30 5629 H 538.691 1.93195 -2.48039 0
M  V30 5630 N 542.463 1.3308 -0.844243 0
M  V30 5631 C 543.691 2.01808 -0.456203 0
M  V30 5632 C 544.106 1.63498 0.944131 0
M  V30 5633 O 543.463 0.85102 1.61443 0
M  V30 5634 C 543.514 3.56922 -0.573513 0
M  V30 5635 O 543.235 3.93851 -1.91868 0
M  V30 5636 C 544.736 4.42922 -0.183125 0
M  V30 5637 H 541.956 0.646273 -0.180477 0
M  V30 5638 H 544.5 1.69891 -1.1383 0
M  V30 5639 H 542.655 3.87352 0.0607367 0
M  V30 5640 H 543.069 4.88564 -1.90802 0
M  V30 5641 H 544.543 5.51093 -0.316241 0
M  V30 5642 H 545.02 4.30386 0.875477 0
M  V30 5643 H 545.626 4.1786 -0.792027 0
M  V30 5644 N 543.941 0.601185 1.45683 0
M  V30 5645 C 544.904 -0.111398 2.28929 0
M  V30 5646 C 545.904 -0.801246 1.39416 0
M  V30 5647 O 547.094 -0.650383 1.61603 0
M  V30 5648 C 544.226 -1.16773 3.20276 0
M  V30 5649 H 545.419 0.620412 2.93413 0
M  V30 5650 H 542.972 0.359946 1.52099 0
M  V30 5651 H 543.707 -1.93051 2.60579 0
M  V30 5652 H 543.492 -0.677358 3.86205 0
M  V30 5653 H 544.982 -1.66698 3.82886 0
M  V30 5654 N 545.419 -1.53889 0.339982 0
M  V30 5655 C 546.666 -2.00855 -0.257621 0
M  V30 5656 C 546.994 -1.22788 -1.50842 0
M  V30 5657 O 546.249 -0.302567 -1.93347 0
M  V30 5658 C 546.548 -3.51968 -0.620735 0
M  V30 5659 C 546.214 -4.47741 0.532771 0
M  V30 5660 C 544.876 -4.73645 0.849339 0
M  V30 5661 C 547.228 -5.04551 1.3068 0
M  V30 5662 C 544.556 -5.53614 1.94237 0
M  V30 5663 C 546.908 -5.85713 2.39005 0
M  V30 5664 C 545.572 -6.09912 2.71225 0
M  V30 5665 H 544.842 -0.734979 -0.0942703 0
M  V30 5666 H 547.489 -1.85714 0.467159 0
M  V30 5667 H 545.794 -3.64921 -1.42618 0
M  V30 5668 H 547.491 -3.85762 -1.09495 0
M  V30 5669 H 544.081 -4.27711 0.275973 0
M  V30 5670 H 548.265 -4.84507 1.07549 0
M  V30 5671 H 543.521 -5.7059 2.19628 0
M  V30 5672 H 547.695 -6.28748 2.99415 0
M  V30 5673 H 545.322 -6.71665 3.56047 0
M  V30 5674 N 546.897 -0.0685191 -1.57451 0
M  V30 5675 C 548.143 0.602239 -1.93652 0
M  V30 5676 C 548.476 1.6946 -0.948526 0
M  V30 5677 O 547.751 1.94487 0.022782 0
M  V30 5678 C 548.034 1.18223 -3.4014 0
M  V30 5679 C 547.887 0.0967431 -4.49696 0
M  V30 5680 C 549.206 2.08872 -3.87377 0
M  V30 5681 H 546.325 0.217453 -0.70419 0
M  V30 5682 H 548.967 -0.133821 -1.89528 0
M  V30 5683 H 547.117 1.80953 -3.43785 0
M  V30 5684 H 548.789 -0.536155 -4.58174 0
M  V30 5685 H 547.032 -0.573063 -4.29998 0
M  V30 5686 H 547.703 0.542894 -5.49324 0
M  V30 5687 H 550.179 1.56081 -3.85717 0
M  V30 5688 H 549.055 2.46389 -4.90493 0
M  V30 5689 H 549.316 2.99572 -3.25129 0
M  V30 5690 N 548.375 1.56261 0.205012 0
M  V30 5691 C 549.305 1.96779 1.257 0
M  V30 5692 C 550.286 0.838309 1.48008 0
M  V30 5693 O 551.471 1.10189 1.59913 0
M  V30 5694 C 548.601 2.29876 2.60335 0
M  V30 5695 C 547.555 3.45469 2.52656 0
M  V30 5696 C 546.881 3.64215 3.91473 0
M  V30 5697 C 548.181 4.79954 2.06014 0
M  V30 5698 H 549.875 2.84904 0.920338 0
M  V30 5699 H 547.421 1.37072 0.441277 0
M  V30 5700 H 549.374 2.56814 3.34102 0
M  V30 5701 H 548.098 1.38622 2.95722 0
M  V30 5702 H 546.757 3.18605 1.81345 0
M  V30 5703 H 546.405 2.70309 4.24196 0
M  V30 5704 H 546.105 4.41973 3.87213 0
M  V30 5705 H 547.629 3.93519 4.66878 0
M  V30 5706 H 549.043 5.05989 2.69533 0
M  V30 5707 H 547.44 5.61111 2.12777 0
M  V30 5708 H 548.51 4.74201 1.01297 0
M  V30 5709 N 549.853 -0.472356 1.50355 0
M  V30 5710 C 550.783 -1.57859 1.72055 0
M  V30 5711 C 551.764 -1.60283 0.569505 0
M  V30 5712 O 552.949 -1.7657 0.808503 0
M  V30 5713 C 550.079 -2.96191 1.81351 0
M  V30 5714 C 549.033 -3.08633 2.96529 0
M  V30 5715 C 548.359 -4.486 2.90968 0
M  V30 5716 C 549.659 -2.85969 4.37057 0
M  V30 5717 H 551.353 -1.39953 2.64676 0
M  V30 5718 H 548.899 -0.671846 1.27367 0
M  V30 5719 H 550.852 -3.73507 1.95117 0
M  V30 5720 H 549.576 -3.15251 0.853502 0
M  V30 5721 H 548.235 -2.33749 2.82413 0
M  V30 5722 H 547.883 -4.64577 1.92815 0
M  V30 5723 H 547.583 -4.57861 3.68289 0
M  V30 5724 H 549.107 -5.27938 3.0678 0
M  V30 5725 H 550.521 -3.53036 4.51706 0
M  V30 5726 H 548.918 -3.06677 5.15819 0
M  V30 5727 H 549.988 -1.81838 4.49514 0
M  V30 5728 N 551.331 -1.39911 -0.725443 0
M  V30 5729 C 552.559 -1.40949 -1.51463 0
M  V30 5730 C 552.974 -0.0065242 -1.88799 0
M  V30 5731 O 552.331 0.967163 -1.54765 0
M  V30 5732 C 552.382 -2.29119 -2.79619 0
M  V30 5733 O 552.103 -3.63952 -2.43866 0
M  V30 5734 C 553.604 -2.38642 -3.73584 0
M  V30 5735 H 550.824 -0.481091 -0.467752 0
M  V30 5736 H 553.368 -1.83843 -0.895651 0
M  V30 5737 H 551.523 -1.89612 -3.37826 0
M  V30 5738 H 551.937 -4.10677 -3.26258 0
M  V30 5739 H 553.411 -3.04563 -4.60375 0
M  V30 5740 H 553.888 -1.40846 -4.16004 0
M  V30 5741 H 554.494 -2.78659 -3.21293 0
M  V30 5742 N 552.809 0.956637 -1.25245 0
M  V30 5743 C 553.739 2.07058 -1.07931 0
M  V30 5744 C 554.72 1.70096 0.0110361 0
M  V30 5745 O 555.905 1.93555 -0.158121 0
M  V30 5746 C 553.035 3.40272 -0.695124 0
M  V30 5747 C 551.989 3.91235 -1.73549 0
M  V30 5748 C 551.315 5.20921 -1.20604 0
M  V30 5749 C 552.615 4.17837 -3.13385 0
M  V30 5750 H 554.309 2.218 -2.01109 0
M  V30 5751 H 551.855 1.06581 -0.968326 0
M  V30 5752 H 553.808 4.1765 -0.560949 0
M  V30 5753 H 552.532 3.25462 0.272355 0
M  V30 5754 H 551.191 3.16025 -1.85807 0
M  V30 5755 H 550.839 5.02479 -0.228846 0
M  V30 5756 H 550.539 5.55987 -1.90136 0
M  V30 5757 H 552.063 6.00897 -1.08421 0
M  V30 5758 H 553.477 4.8588 -3.04292 0
M  V30 5759 H 551.874 4.64154 -3.80369 0
M  V30 5760 H 552.944 3.2419 -3.60595 0
M  V30 5761 N 554.287 1.06798 1.15896 0
M  V30 5762 C 555.533 0.788934 1.86825 0
M  V30 5763 C 555.866 -0.683084 1.8179 0
M  V30 5764 O 555.141 -1.50086 1.23711 0
M  V30 5765 C 555.424 1.29065 3.36176 0
M  V30 5766 C 555.277 2.8268 3.49874 0
M  V30 5767 C 556.596 0.902655 4.30744 0
M  V30 5768 H 553.715 0.288066 0.678371 0
M  V30 5769 H 556.357 1.32479 1.36195 0
M  V30 5770 H 554.507 0.834806 3.79425 0
M  V30 5771 H 556.179 3.36511 3.15528 0
M  V30 5772 H 554.422 3.21157 2.91617 0
M  V30 5773 H 555.093 3.12852 4.54783 0
M  V30 5774 H 557.569 1.29535 3.95424 0
M  V30 5775 H 556.445 1.28111 5.3374 0
M  V30 5776 H 556.706 -0.191951 4.41683 0
M  V30 5777 N 555.766 -1.3263 0.851289 0
M  V30 5778 C 557.013 -1.97368 0.453023 0
M  V30 5779 C 557.341 -1.67384 -0.990596 0
M  V30 5780 O 556.596 -0.952665 -1.70947 0
M  V30 5781 C 556.895 -3.51713 0.635015 0
M  V30 5782 C 556.561 -4.01676 2.04859 0
M  V30 5783 C 555.223 -4.15031 2.43522 0
M  V30 5784 C 557.575 -4.28206 2.97135 0
M  V30 5785 C 554.903 -4.52257 3.73739 0
M  V30 5786 C 557.255 -4.66889 4.26846 0
M  V30 5787 C 555.919 -4.7845 4.65448 0
M  V30 5788 H 555.189 -0.722219 0.165773 0
M  V30 5789 H 557.836 -1.58092 1.0807 0
M  V30 5790 H 556.141 -3.91726 -0.0759081 0
M  V30 5791 H 557.838 -3.99823 0.306964 0
M  V30 5792 H 554.428 -3.91764 1.73836 0
M  V30 5793 H 558.612 -4.174 2.68498 0
M  V30 5794 H 553.868 -4.59402 4.03435 0
M  V30 5795 H 558.042 -4.86372 4.98413 0
M  V30 5796 H 555.669 -5.07052 5.66395 0
M  V30 5797 N 557.244 -0.608902 -1.45362 0
M  V30 5798 C 558.493 -0.10218 -2.01441 0
M  V30 5799 C 558.806 1.27546 -1.48295 0
M  V30 5800 O 560.012 1.87498 -1.96359 0
M  V30 5801 C 558.468 -0.131985 -3.59658 0
M  V30 5802 C 558.076 -1.50956 -4.21801 0
M  V30 5803 C 559.82 0.319427 -4.23296 0
M  V30 5804 C 557.727 -1.49568 -5.72174 0
M  V30 5805 H 556.657 -0.0344314 -0.753213 0
M  V30 5806 H 559.308 -0.764426 -1.6682 0
M  V30 5807 H 557.69 0.596939 -3.91475 0
M  V30 5808 H 558.864 -2.26029 -4.01556 0
M  V30 5809 H 557.179 -1.90318 -3.70362 0
M  V30 5810 H 559.776 0.349013 -5.3356 0
M  V30 5811 H 560.119 1.34237 -3.94064 0
M  V30 5812 H 560.652 -0.356273 -3.96201 0
M  V30 5813 H 557.391 -2.49626 -6.06108 0
M  V30 5814 H 556.911 -0.787542 -5.94607 0
M  V30 5815 H 558.59 -1.21989 -6.35396 0
M  V30 5816 N 558.722 1.53707 -0.348139 0
M  V30 5817 C 559.947 2.05877 0.250883 0
M  V30 5818 C 560.372 1.22115 1.43072 0
M  V30 5819 O 559.73 0.235986 1.79758 0
M  V30 5820 C 559.778 3.54886 0.639416 0
M  V30 5821 O 558.882 3.73948 1.73888 0
M  V30 5822 H 558.223 0.662754 0.040653 0
M  V30 5823 H 560.753 1.98303 -0.503685 0
M  V30 5824 H 560.763 3.97601 0.915295 0
M  V30 5825 H 559.438 4.153 -0.223386 0
M  V30 5826 H 558.015 3.43134 1.45991 0
M  V30 5827 N 560.2 0.0768682 1.57412 0
M  V30 5828 C 561.446 -0.591961 1.93968 0
M  V30 5829 C 561.779 -1.68954 0.9575 0
M  V30 5830 O 561.054 -1.94496 -0.0124675 0
M  V30 5831 C 561.337 -1.16418 3.40762 0
M  V30 5832 C 561.19 -0.0728933 4.49741 0
M  V30 5833 C 562.509 -2.06814 3.88479 0
M  V30 5834 H 559.628 -0.213716 0.705333 0
M  V30 5835 H 562.27 0.14387 1.89455 0
M  V30 5836 H 560.42 -1.79128 3.4474 0
M  V30 5837 H 562.092 0.560446 4.57883 0
M  V30 5838 H 560.335 0.595859 4.29688 0
M  V30 5839 H 561.006 -0.513755 5.49604 0
M  V30 5840 H 563.482 -1.54033 3.8654 0
M  V30 5841 H 562.358 -2.43785 4.91793 0
M  V30 5842 H 562.619 -2.97844 3.26713 0
M  V30 5843 N 561.678 -1.56367 -0.196722 0
M  V30 5844 C 562.908 -1.84371 -0.932254 0
M  V30 5845 C 563.316 -0.657013 -1.77426 0
M  V30 5846 O 562.659 0.383576 -1.79651 0
M  V30 5847 C 562.721 -3.06454 -1.87952 0
M  V30 5848 C 562.385 -4.40425 -1.21962 0
M  V30 5849 C 563.382 -5.16457 -0.597343 0
M  V30 5850 C 561.067 -4.8716 -1.22396 0
M  V30 5851 C 563.061 -6.37399 0.0117913 0
M  V30 5852 C 560.748 -6.08038 -0.610995 0
M  V30 5853 C 561.746 -6.83 0.00580487 0
M  V30 5854 O 561.434 -8.01589 0.609173 0
M  V30 5855 H 561.166 -0.616377 -0.277589 0
M  V30 5856 H 563.72 -2.04329 -0.209452 0
M  V30 5857 H 561.95 -2.82377 -2.64197 0
M  V30 5858 H 563.639 -3.21118 -2.48271 0
M  V30 5859 H 564.405 -4.81445 -0.586142 0
M  V30 5860 H 560.284 -4.2877 -1.69345 0
M  V30 5861 H 563.828 -6.9585 0.493836 0
M  V30 5862 H 559.725 -6.42519 -0.619693 0
M  V30 5863 H 560.493 -8.16935 0.505919 0
M  V30 5864 N 563.156 0.464375 -1.50603 0
M  V30 5865 C 564.572 0.798684 -1.38178 0
M  V30 5866 C 564.772 1.96568 -0.44308 0
M  V30 5867 O 563.828 2.52252 0.111814 0
M  V30 5868 C 565.141 1.10444 -2.79683 0
M  V30 5869 C 566.689 1.2105 -2.88645 0
M  V30 5870 C 567.164 1.54934 -4.30998 0
M  V30 5871 N 568.655 1.61913 -4.3398 0
M  V30 5872 C 569.39 1.8965 -5.41129 0
M  V30 5873 N 568.886 2.15361 -6.58477 0
M  V30 5874 N 570.679 1.91207 -5.28579 0
M  V30 5875 H 562.83 -0.304603 -2.10204 0
M  V30 5876 H 565.093 -0.0737804 -0.945125 0
M  V30 5877 H 564.799 0.319934 -3.50242 0
M  V30 5878 H 564.673 2.03896 -3.17342 0
M  V30 5879 H 567.06 1.98567 -2.18301 0
M  V30 5880 H 567.141 0.255613 -2.5452 0
M  V30 5881 H 566.785 0.779549 -5.01882 0
M  V30 5882 H 566.715 2.51584 -4.62615 0
M  V30 5883 H 569.206 1.44055 -3.49366 0
M  V30 5884 H 569.519 2.35818 -7.35941 0
M  V30 5885 H 567.864 2.1274 -6.6164 0
M  V30 5886 H 571.055 1.70622 -4.35897 0
M  V30 5887 H 571.228 2.12488 -6.12171 0
M  V30 5888 N 564.634 1.40294 0.718013 0
M  V30 5889 C 565.597 1.4012 1.81381 0
M  V30 5890 C 566.597 0.295405 1.58063 0
M  V30 5891 O 567.787 0.554187 1.6515 0
M  V30 5892 C 564.919 1.19056 3.19435 0
M  V30 5893 H 566.112 2.37645 1.82933 0
M  V30 5894 H 563.665 1.26107 0.923405 0
M  V30 5895 H 564.4 0.222809 3.23534 0
M  V30 5896 H 564.185 1.99152 3.37758 0
M  V30 5897 H 565.675 1.21716 3.99468 0
M  V30 5898 N 566.112 -0.949982 1.2575 0
M  V30 5899 C 567.361 -1.68956 1.10168 0
M  V30 5900 C 567.674 -1.92327 -0.356309 0
M  V30 5901 O 568.88 -2.64026 -0.632657 0
M  V30 5902 C 567.336 -3.04196 1.92336 0
M  V30 5903 C 566.944 -2.88603 3.42655 0
M  V30 5904 C 568.688 -3.81904 1.85336 0
M  V30 5905 C 566.595 -4.19262 4.17101 0
M  V30 5906 H 565.525 -0.633645 0.408668 0
M  V30 5907 H 568.176 -1.05719 1.49986 0
M  V30 5908 H 566.558 -3.68363 1.45344 0
M  V30 5909 H 567.732 -2.3334 3.97353 0
M  V30 5910 H 566.047 -2.24345 3.50796 0
M  V30 5911 H 568.644 -4.78688 2.38248 0
M  V30 5912 H 568.987 -4.08099 0.822226 0
M  V30 5913 H 569.52 -3.24495 2.30104 0
M  V30 5914 H 566.259 -3.98254 5.20648 0
M  V30 5915 H 565.779 -4.74273 3.67186 0
M  V30 5916 H 567.458 -4.87775 4.25071 0
M  V30 5917 N 567.59 -1.07411 -1.15328 0
M  V30 5918 C 568.838 -0.796073 -1.85761 0
M  V30 5919 C 569.159 0.679864 -1.82764 0
M  V30 5920 O 568.429 1.49242 -1.269 0
M  V30 5921 H 567.009 -0.291495 -0.687779 0
M  V30 5922 H 569.671 -1.35799 -1.39802 0
M  V30 5923 H 568.767 -1.13114 -2.90881 0
M  V30 5924 N 569.068 1.32177 -0.85831 0
M  V30 5925 C 570.314 1.97417 -0.46417 0
M  V30 5926 C 570.647 1.67746 0.978514 0
M  V30 5927 O 569.922 0.967654 1.68721 0
M  V30 5928 C 570.205 3.53069 -0.708094 0
M  V30 5929 C 570.058 3.92357 -2.19946 0
M  V30 5930 C 571.377 4.39783 -0.166881 0
M  V30 5931 H 568.496 0.717097 -0.17012 0
M  V30 5932 H 571.138 1.56499 -1.07741 0
M  V30 5933 H 569.288 3.88054 -0.186128 0
M  V30 5934 H 570.96 3.67533 -2.78779 0
M  V30 5935 H 569.203 3.41384 -2.67656 0
M  V30 5936 H 569.874 5.00841 -2.32082 0
M  V30 5937 H 572.35 4.11556 -0.613285 0
M  V30 5938 H 571.226 5.47671 -0.367093 0
M  V30 5939 H 571.487 4.32196 0.930559 0
M  V30 5940 N 570.547 0.616602 1.45037 0
M  V30 5941 C 571.793 0.115501 2.02471 0
M  V30 5942 C 572.126 -1.25406 1.4828 0
M  V30 5943 O 571.401 -1.82922 0.661051 0
M  V30 5944 C 571.684 0.0863588 3.59996 0
M  V30 5945 C 571.537 1.48723 4.24501 0
M  V30 5946 C 572.856 -0.596762 4.36035 0
M  V30 5947 H 569.975 0.0434461 0.735718 0
M  V30 5948 H 572.617 0.7903 1.72784 0
M  V30 5949 H 570.767 -0.488277 3.85419 0
M  V30 5950 H 572.439 2.10964 4.10234 0
M  V30 5951 H 570.682 2.04534 3.82555 0
M  V30 5952 H 571.353 1.419 5.3345 0
M  V30 5953 H 573.829 -0.10824 4.15959 0
M  V30 5954 H 572.705 -0.586289 5.4576 0
M  V30 5955 H 572.966 -1.66451 4.09569 0
M  V30 5956 N 572.025 -1.5352 0.356285 0
M  V30 5957 C 572.955 -2.28372 -0.486661 0
M  V30 5958 C 573.936 -1.30432 -1.09185 0
M  V30 5959 O 575.121 -1.59291 -1.11085 0
M  V30 5960 C 572.251 -3.06604 -1.63129 0
M  V30 5961 C 571.205 -4.12154 -1.15381 0
M  V30 5962 C 570.531 -4.78415 -2.38796 0
M  V30 5963 C 571.831 -5.21724 -0.245179 0
M  V30 5964 H 573.525 -2.99083 0.137797 0
M  V30 5965 H 571.071 -1.43841 0.0677134 0
M  V30 5966 H 573.024 -3.57712 -2.22755 0
M  V30 5967 H 571.748 -2.33568 -2.28284 0
M  V30 5968 H 570.407 -3.61978 -0.580294 0
M  V30 5969 H 570.055 -4.01959 -3.02387 0
M  V30 5970 H 569.755 -5.49734 -2.07524 0
M  V30 5971 H 571.279 -5.32313 -2.99125 0
M  V30 5972 H 572.693 -5.68391 -0.748646 0
M  V30 5973 H 571.09 -6.00095 -0.0237608 0
M  V30 5974 H 572.16 -4.79596 0.715229 0
M  V30 5975 N 573.503 -0.0852151 -1.57369 0
M  V30 5976 C 574.435 0.907099 -2.10486 0
M  V30 5977 C 575.448 1.25259 -1.03991 0
M  V30 5978 O 576.637 1.20743 -1.31467 0
M  V30 5979 C 573.737 2.21908 -2.56145 0
M  V30 5980 C 572.91 2.05042 -3.86363 0
M  V30 5981 C 571.969 3.19664 -4.17973 0
M  V30 5982 O 570.995 2.94062 -4.87356 0
M  V30 5983 N 572.197 4.45151 -3.72587 0
M  V30 5984 H 574.962 0.453505 -2.96249 0
M  V30 5985 H 572.523 0.100157 -1.6159 0
M  V30 5986 H 574.515 2.97519 -2.74343 0
M  V30 5987 H 573.085 2.58723 -1.75446 0
M  V30 5988 H 572.305 1.13819 -3.77411 0
M  V30 5989 H 573.593 1.91039 -4.71574 0
M  V30 5990 H 572.991 4.68834 -3.16561 0
M  V30 5991 H 571.548 5.17744 -3.9596 0
M  V30 5992 N 574.981 1.5647 0.188427 0
M  V30 5993 C 576.209 1.85131 0.923803 0
M  V30 5994 C 576.624 0.668537 1.76567 0
M  V30 5995 O 575.981 -0.362662 1.7886 0
M  V30 5996 C 576.032 3.12661 1.81453 0
M  V30 5997 O 575.753 4.26378 1.00665 0
M  V30 5998 C 577.254 3.54548 2.66103 0
M  V30 5999 H 574.474 0.614624 0.269218 0
M  V30 6000 H 577.018 2.03581 0.193671 0
M  V30 6001 H 575.173 2.96088 2.49821 0
M  V30 6002 H 575.587 4.99041 1.61425 0
M  V30 6003 H 577.061 4.4673 3.24247 0
M  V30 6004 H 577.538 2.77853 3.40139 0
M  V30 6005 H 578.144 3.73674 2.03096 0
M  V30 6006 N 576.459 -0.456382 1.50847 0
M  V30 6007 C 577.705 -1.20618 1.63777 0
M  V30 6008 C 578.06 -1.8936 0.340677 0
M  V30 6009 O 577.353 -1.79786 -0.662378 0
M  V30 6010 C 577.547 -2.26336 2.76599 0
M  V30 6011 C 577.376 -1.67968 4.17153 0
M  V30 6012 C 576.146 -1.47293 4.83356 0
M  V30 6013 C 578.344 -1.16643 5.00898 0
M  V30 6014 N 576.326 -0.843222 6.08081 0
M  V30 6015 C 577.697 -0.660843 6.16468 0
M  V30 6016 C 579.752 -1.05637 4.86565 0
M  V30 6017 C 578.455 -0.0560365 7.19278 0
M  V30 6018 C 580.481 -0.465485 5.89565 0
M  V30 6019 C 579.843 0.0296516 7.04394 0
M  V30 6020 H 575.942 -0.429725 0.653345 0
M  V30 6021 H 578.526 -0.505784 1.88016 0
M  V30 6022 H 576.697 -2.93785 2.54056 0
M  V30 6023 H 578.429 -2.9334 2.78808 0
M  V30 6024 H 575.184 -1.72934 4.40898 0
M  V30 6025 H 575.608 -0.546357 6.74792 0
M  V30 6026 H 580.25 -1.42508 3.98059 0
M  V30 6027 H 577.968 0.324845 8.07447 0
M  V30 6028 H 581.554 -0.382493 5.80541 0
M  V30 6029 H 580.434 0.479705 7.82731 0
M  V30 6030 N 577.937 -1.40673 -0.710563 0
M  V30 6031 C 578.867 -1.44095 -1.83736 0
M  V30 6032 C 579.848 -0.301286 -1.67411 0
M  V30 6033 O 581.033 -0.510618 -1.87367 0
M  V30 6034 C 578.163 -1.30773 -3.21738 0
M  V30 6035 C 577.117 -2.42395 -3.52745 0
M  V30 6036 C 576.443 -2.14147 -4.89944 0
M  V30 6037 C 577.743 -3.84738 -3.53234 0
M  V30 6038 H 579.437 -2.38396 -1.81129 0
M  V30 6039 H 576.983 -1.14746 -0.870017 0
M  V30 6040 H 578.936 -1.31783 -4.00264 0
M  V30 6041 H 577.66 -0.329507 -3.24934 0
M  V30 6042 H 576.319 -2.40643 -2.76562 0
M  V30 6043 H 575.967 -1.14703 -4.89747 0
M  V30 6044 H 575.667 -2.88934 -5.11655 0
M  V30 6045 H 577.191 -2.16848 -5.70797 0
M  V30 6046 H 578.605 -3.88286 -4.2179 0
M  V30 6047 H 577.002 -4.59085 -3.86473 0
M  V30 6048 H 578.072 -4.13962 -2.52514 0
M  V30 6049 N 579.415 0.9433 -1.26252 0
M  V30 6050 C 580.345 2.05902 -1.10122 0
M  V30 6051 C 581.326 1.70099 -0.00700552 0
M  V30 6052 O 582.511 1.93377 -0.178641 0
M  V30 6053 C 579.641 3.39516 -0.731175 0
M  V30 6054 C 578.595 3.89372 -1.77688 0
M  V30 6055 C 577.921 5.19613 -1.26122 0
M  V30 6056 C 579.221 4.14489 -3.17799 0
M  V30 6057 H 580.915 2.19655 -2.03451 0
M  V30 6058 H 578.461 1.05548 -0.979576 0
M  V30 6059 H 580.414 4.17031 -0.605215 0
M  V30 6060 H 579.138 3.25733 0.23782 0
M  V30 6061 H 577.797 3.14036 -1.89148 0
M  V30 6062 H 577.445 5.02208 -0.282128 0
M  V30 6063 H 577.145 5.53939 -1.96023 0
M  V30 6064 H 578.669 5.99713 -1.14789 0
M  V30 6065 H 580.083 4.82625 -3.09428 0
M  V30 6066 H 578.48 4.60094 -3.85271 0
M  V30 6067 H 579.55 3.20347 -3.64014 0
M  V30 6068 N 580.893 1.08022 1.14757 0
M  V30 6069 C 581.841 0.701088 2.21783 0
M  V30 6070 C 582.835 -0.291311 1.66876 0
M  V30 6071 O 584.041 -0.154296 1.79337 0
M  V30 6072 H 580.416 0.208668 0.722469 0
M  V30 6073 H 582.387 1.61321 2.51034 0
M  V30 6074 C 581.136 0.122278 3.47485 0
M  V30 6075 H 580.459 0.877065 3.90061 0
M  V30 6076 H 581.899 -0.105248 4.23869 0
M  V30 6077 C 580.358 -1.13883 3.17068 0
M  V30 6078 O 580.888 -2.22429 3.34497 0
M  V30 6079 N 579.094 -1.04767 2.71058 0
M  V30 6080 H 578.641 -0.164302 2.57075 0
M  V30 6081 H 578.599 -1.89224 2.51081 0
M  V30 6082 N 582.371 -1.3172 0.865308 0
M  V30 6083 C 583.787 -1.4958 0.556596 0
M  V30 6084 C 583.987 -1.79763 -0.910353 0
M  V30 6085 O 583.043 -1.87351 -1.6928 0
M  V30 6086 C 584.356 -2.63277 1.45279 0
M  V30 6087 C 585.904 -2.77161 1.45433 0
M  V30 6088 C 586.379 -3.93949 2.33598 0
M  V30 6089 N 587.87 -4.01228 2.31453 0
M  V30 6090 C 588.605 -4.90855 2.96393 0
M  V30 6091 N 588.101 -5.85416 3.70486 0
M  V30 6092 N 589.894 -4.84063 2.85726 0
M  V30 6093 H 582.045 -1.10396 1.81456 0
M  V30 6094 H 584.308 -0.54507 0.775631 0
M  V30 6095 H 584.014 -2.47734 2.49641 0
M  V30 6096 H 583.888 -3.59309 1.14792 0
M  V30 6097 H 586.275 -2.9212 0.41831 0
M  V30 6098 H 586.356 -1.8181 1.79941 0
M  V30 6099 H 586 -3.79748 3.37274 0
M  V30 6100 H 585.93 -4.88598 1.96417 0
M  V30 6101 H 588.421 -3.3357 1.77593 0
M  V30 6102 H 588.734 -6.50525 4.17178 0
M  V30 6103 H 587.079 -5.85409 3.74594 0
M  V30 6104 H 590.27 -4.09163 2.27384 0
M  V30 6105 H 590.443 -5.53708 3.36617 0
M  V30 6106 N 583.85 -0.624285 -1.44708 0
M  V30 6107 C 585.08 -0.132726 -2.06173 0
M  V30 6108 C 585.488 1.19513 -1.46674 0
M  V30 6109 O 584.831 1.74254 -0.581491 0
M  V30 6110 C 584.893 0.0636732 -3.59444 0
M  V30 6111 C 584.557 -1.18496 -4.4137 0
M  V30 6112 C 585.553 -2.10706 -4.75288 0
M  V30 6113 C 583.239 -1.41846 -4.81856 0
M  V30 6114 C 585.233 -3.24582 -5.48567 0
M  V30 6115 C 582.92 -2.5602 -5.54885 0
M  V30 6116 C 583.918 -3.47215 -5.88159 0
M  V30 6117 O 583.606 -4.59399 -6.59703 0
M  V30 6118 H 583.338 -0.0737313 -0.671967 0
M  V30 6119 H 585.892 -0.856789 -1.86677 0
M  V30 6120 H 584.122 0.842809 -3.77404 0
M  V30 6121 H 585.811 0.508924 -4.02697 0
M  V30 6122 H 586.577 -1.93898 -4.44554 0
M  V30 6123 H 582.456 -0.717556 -4.55381 0
M  V30 6124 H 586 -3.95785 -5.74456 0
M  V30 6125 H 581.897 -2.72774 -5.85034 0
M  V30 6126 H 582.665 -4.58293 -6.78166 0
M  V30 6127 N 585.328 1.53329 -0.364422 0
M  V30 6128 C 586.744 1.59594 -0.0133165 0
M  V30 6129 C 586.944 1.37959 1.46865 0
M  V30 6130 O 586 1.18418 2.2301 0
M  V30 6131 C 587.313 2.97032 -0.468213 0
M  V30 6132 C 588.861 3.10138 -0.422334 0
M  V30 6133 C 589.336 4.49986 -0.853024 0
M  V30 6134 N 590.827 4.56098 -0.808037 0
M  V30 6135 C 591.562 5.62495 -1.11299 0
M  V30 6136 N 591.058 6.7665 -1.48717 0
M  V30 6137 N 592.851 5.52473 -1.03586 0
M  V30 6138 H 585.002 1.65644 -1.32951 0
M  V30 6139 H 587.265 0.77684 -0.543345 0
M  V30 6140 H 586.971 3.18 -1.5023 0
M  V30 6141 H 586.845 3.76918 0.145775 0
M  V30 6142 H 589.232 2.88881 0.602622 0
M  V30 6143 H 589.313 2.32263 -1.0718 0
M  V30 6144 H 588.957 4.7198 -1.87609 0
M  V30 6145 H 588.887 5.26289 -0.180819 0
M  V30 6146 H 591.378 3.74131 -0.532361 0
M  V30 6147 H 591.691 7.53776 -1.70415 0
M  V30 6148 H 590.036 6.78044 -1.52581 0
M  V30 6149 H 593.227 4.6217 -0.742736 0
M  V30 6150 H 593.4 6.35295 -1.27686 0
M  V30 6151 N 586.806 0.0935595 1.57322 0
M  V30 6152 C 587.739 -0.902505 2.09595 0
M  V30 6153 C 588.717 -1.27732 1.00615 0
M  V30 6154 O 589.901 -1.38283 1.28102 0
M  V30 6155 C 587.028 -2.20416 2.57166 0
M  V30 6156 C 586.074 -1.97932 3.7779 0
M  V30 6157 S 586.907 -1.21873 5.21447 0
M  V30 6158 C 588.063 -2.53273 5.72367 0
M  V30 6159 H 588.296 -0.457797 2.93754 0
M  V30 6160 H 585.829 -0.119694 1.53935 0
M  V30 6161 H 587.787 -2.95217 2.85232 0
M  V30 6162 H 586.448 -2.62008 1.73235 0
M  V30 6163 H 585.641 -2.94316 4.09138 0
M  V30 6164 H 585.243 -1.3126 3.5021 0
M  V30 6165 H 587.535 -3.49256 5.8054 0
M  V30 6166 H 588.478 -2.26505 6.70896 0
M  V30 6167 H 588.886 -2.61475 5.00291 0
M  V30 6168 N 588.284 -1.56567 -0.180126 0
M  V30 6169 C 589.53 -1.81761 -0.899497 0
M  V30 6170 C 589.863 -0.670015 -1.82276 0
M  V30 6171 O 589.138 0.328575 -1.91705 0
M  V30 6172 C 589.421 -3.17296 -1.7028 0
M  V30 6173 C 589.274 -4.4257 -0.803255 0
M  V30 6174 C 590.593 -3.49678 -2.67233 0
M  V30 6175 H 587.712 -0.661192 -0.325567 0
M  V30 6176 H 590.354 -1.89272 -0.16612 0
M  V30 6177 H 588.504 -3.11023 -2.32802 0
M  V30 6178 H 590.176 -4.60902 -0.191585 0
M  V30 6179 H 588.419 -4.33658 -0.110796 0
M  V30 6180 H 589.09 -5.33935 -1.40064 0
M  V30 6181 H 591.566 -3.56347 -2.14839 0
M  V30 6182 H 590.442 -4.45605 -3.20511 0
M  V30 6183 H 590.703 -2.73932 -3.47007 0
M  V30 6184 N 589.762 0.448376 -1.51087 0
M  V30 6185 C 590.694 1.56146 -1.67783 0
M  V30 6186 C 591.707 1.52913 -0.55871 0
M  V30 6187 O 592.896 1.57889 -0.83267 0
M  V30 6188 C 589.996 2.95057 -1.66716 0
M  V30 6189 C 589.169 3.22915 -2.95033 0
M  V30 6190 C 588.228 4.41495 -2.86302 0
M  V30 6191 O 587.254 4.40688 -3.60254 0
M  V30 6192 N 588.456 5.44443 -2.014 0
M  V30 6193 H 591.221 1.42232 -2.638 0
M  V30 6194 H 588.782 0.637153 -1.48835 0
M  V30 6195 H 590.774 3.72388 -1.58458 0
M  V30 6196 H 589.344 3.02624 -0.783403 0
M  V30 6197 H 588.564 2.33985 -3.17245 0
M  V30 6198 H 589.852 3.38349 -3.79996 0
M  V30 6199 H 589.25 5.4793 -1.40674 0
M  V30 6200 H 587.807 6.2067 -1.99029 0
M  V30 6201 N 591.24 1.41047 0.703093 0
M  V30 6202 C 592.17 1.45067 1.82969 0
M  V30 6203 C 593.151 0.31016 1.67248 0
M  V30 6204 O 594.336 0.520548 1.87093 0
M  V30 6205 C 591.466 1.32478 3.2104 0
M  V30 6206 C 590.42 2.44262 3.51454 0
M  V30 6207 C 589.746 2.16742 4.88801 0
M  V30 6208 C 591.046 3.86606 3.51189 0
M  V30 6209 H 592.74 2.39353 1.79863 0
M  V30 6210 H 590.286 1.15206 0.863919 0
M  V30 6211 H 592.239 1.33904 3.99559 0
M  V30 6212 H 590.963 0.346735 3.24754 0
M  V30 6213 H 589.622 2.42107 2.75282 0
M  V30 6214 H 589.27 1.17299 4.89132 0
M  V30 6215 H 588.97 2.91643 5.10116 0
M  V30 6216 H 590.494 2.19872 5.69639 0
M  V30 6217 H 591.908 3.90517 4.19725 0
M  V30 6218 H 590.305 4.61128 3.84033 0
M  V30 6219 H 591.375 4.15296 2.50315 0
M  V30 6220 N 592.718 -0.936591 1.26751 0
M  V30 6221 C 593.628 -2.06949 1.10496 0
M  V30 6222 C 594.644 -1.7396 0.037271 0
M  V30 6223 O 595.82 -1.99941 0.241944 0
M  V30 6224 C 592.885 -3.38612 0.744491 0
M  V30 6225 C 591.946 -3.85355 1.89209 0
M  V30 6226 C 591.179 -5.10735 1.54873 0
M  V30 6227 O 591.402 -5.68602 0.452546 0
M  V30 6228 O 590.336 -5.52632 2.38499 0
M  V30 6229 H 594.162 -2.23571 2.05547 0
M  V30 6230 H 591.747 -1.05428 1.05855 0
M  V30 6231 H 593.629 -4.17711 0.556396 0
M  V30 6232 H 592.304 -3.23218 -0.176582 0
M  V30 6233 H 591.211 -3.07182 2.13518 0
M  V30 6234 H 592.544 -4.05277 2.79305 0
M  V30 6235 N 594.196 -1.08629 -1.14182 0
M  V30 6236 C 595.607 -0.838003 -1.66836 0
M  V30 6237 C 595.958 0.634885 -1.85644 0
M  V30 6238 O 595.083 1.49008 -1.56926 0
M  V30 6239 C 595.678 -1.51465 -3.03058 0
M  V30 6240 C 594.237 -1.31355 -3.52736 0
M  V30 6241 C 593.384 -1.57599 -2.28162 0
M  V30 6242 H 596.335 -1.24656 -0.982165 0
M  V30 6243 H 596.356 -0.943134 -3.68626 0
M  V30 6244 H 595.868 -2.58661 -2.89337 0
M  V30 6245 H 593.969 -0.262384 -3.71675 0
M  V30 6246 H 594.082 -2.04275 -4.33369 0
M  V30 6247 H 592.446 -0.997659 -2.34348 0
M  V30 6248 H 593.229 -2.66006 -2.17015 0
M  V30 6249 N 595.674 1.31259 -0.872281 0
M  V30 6250 C 596.923 1.95893 -0.480493 0
M  V30 6251 C 597.236 1.697 0.972688 0
M  V30 6252 O 598.442 2.28214 1.47073 0
M  V30 6253 C 596.898 3.50705 -0.808342 0
M  V30 6254 C 596.506 3.85735 -2.27844 0
M  V30 6255 C 598.25 4.21719 -0.485136 0
M  V30 6256 C 596.157 5.33668 -2.54858 0
M  V30 6257 H 595.087 0.733182 -0.175955 0
M  V30 6258 H 597.738 1.49396 -1.0655 0
M  V30 6259 H 596.12 3.95706 -0.152558 0
M  V30 6260 H 597.294 3.51686 -2.97748 0
M  V30 6261 H 595.609 3.27792 -2.56791 0
M  V30 6262 H 598.206 5.30559 -0.664166 0
M  V30 6263 H 598.549 4.12316 0.574592 0
M  V30 6264 H 599.082 3.82359 -1.09756 0
M  V30 6265 H 595.821 5.48109 -3.59523 0
M  V30 6266 H 595.341 5.69061 -1.8955 0
M  V30 6267 H 597.02 6.00958 -2.39706 0
M  V30 6268 N 597.152 0.631951 1.44375 0
M  V30 6269 C 598.429 0.067646 1.95483 0
M  V30 6270 C 598.809 -1.40683 1.57389 0
M  V30 6271 O 598.157 -2.12167 0.848375 0
M  V30 6272 C 598.367 0.291392 3.47781 0
M  V30 6273 C 599.715 0.185028 4.24197 0
M  V30 6274 O 600.739 0.222803 3.55503 0
M  V30 6275 O 599.598 0.0906642 5.46425 0
M  V30 6276 H 596.692 -0.0218379 0.826712 0
M  V30 6277 H 599.238 0.703711 1.54421 0
M  V30 6278 H 598.01 1.31449 3.68561 0
M  V30 6279 H 597.633 -0.378772 3.95792 0
M  V30 6280 N 598.631 -1.53133 0.372548 0
M  V30 6281 C 599.563 -2.23557 -0.505444 0
M  V30 6282 C 600.576 -1.25211 -1.04049 0
M  V30 6283 O 601.765 -1.51391 -0.945675 0
M  V30 6284 C 598.865 -2.92516 -1.71136 0
M  V30 6285 C 598.038 -4.17428 -1.30661 0
M  V30 6286 C 597.097 -4.69535 -2.37536 0
M  V30 6287 O 596.123 -5.33042 -1.99637 0
M  V30 6288 N 597.325 -4.47947 -3.6922 0
M  V30 6289 H 600.09 -2.9954 0.0978259 0
M  V30 6290 H 597.651 -1.60684 0.198068 0
M  V30 6291 H 599.643 -3.24281 -2.42124 0
M  V30 6292 H 598.213 -2.19944 -2.22134 0
M  V30 6293 H 597.433 -3.91888 -0.426292 0
M  V30 6294 H 598.721 -4.98622 -1.01259 0
M  V30 6295 H 598.119 -3.97219 -4.02783 0
M  V30 6296 H 596.676 -4.84245 -4.36292 0
M  V30 6297 N 600.109 -0.101901 -1.5727 0
M  V30 6298 C 601.355 0.561027 -1.94885 0
M  V30 6299 C 601.688 1.6741 -0.984258 0
M  V30 6300 O 600.963 1.94491 -0.0184767 0
M  V30 6301 C 601.246 1.10982 -3.42571 0
M  V30 6302 C 601.099 0.00133418 -4.498 0
M  V30 6303 C 602.418 2.00608 -3.9172 0
M  V30 6304 H 599.537 0.202467 -0.708644 0
M  V30 6305 H 602.179 -0.173992 -1.89202 0
M  V30 6306 H 600.329 1.73621 -3.47546 0
M  V30 6307 H 602.001 -0.63322 -4.56933 0
M  V30 6308 H 600.244 -0.664143 -4.28686 0
M  V30 6309 H 600.915 0.426253 -5.50352 0
M  V30 6310 H 603.391 1.47864 -3.88941 0
M  V30 6311 H 602.267 2.3593 -4.95609 0
M  V30 6312 H 602.528 2.92608 -3.3141 0
M  V30 6313 N 601.587 1.56661 0.17182 0
M  V30 6314 C 602.833 1.82235 0.889845 0
M  V30 6315 C 603.166 0.679673 1.81918 0
M  V30 6316 O 602.441 -0.318404 1.91876 0
M  V30 6317 C 602.724 3.18195 1.68595 0
M  V30 6318 C 602.577 4.42989 0.779773 0
M  V30 6319 C 603.896 3.5109 2.65375 0
M  V30 6320 H 601.015 0.66291 0.322056 0
M  V30 6321 H 603.657 1.89358 0.15608 0
M  V30 6322 H 601.807 3.12253 2.3115 0
M  V30 6323 H 603.479 4.60997 0.16714 0
M  V30 6324 H 601.722 4.33711 0.0877964 0
M  V30 6325 H 602.393 5.3467 1.3723 0
M  V30 6326 H 604.869 3.57482 2.12946 0
M  V30 6327 H 603.745 4.47298 3.18144 0
M  V30 6328 H 604.006 2.75768 3.45549 0
M  V30 6329 N 603.065 -0.440357 1.51323 0
M  V30 6330 C 603.995 -1.54174 1.75364 0
M  V30 6331 C 604.976 -1.59039 0.603375 0
M  V30 6332 O 606.161 -1.74815 0.845774 0
M  V30 6333 C 603.291 -2.92277 1.87593 0
M  V30 6334 C 602.245 -3.02274 3.03009 0
M  V30 6335 C 601.571 -4.42327 3.00418 0
M  V30 6336 C 602.871 -2.76634 4.43024 0
M  V30 6337 H 604.565 -1.34307 2.67585 0
M  V30 6338 H 602.111 -0.644678 1.28763 0
M  V30 6339 H 604.064 -3.69284 2.02995 0
M  V30 6340 H 602.788 -3.13369 0.920179 0
M  V30 6341 H 601.447 -2.27706 2.87307 0
M  V30 6342 H 601.095 -4.60382 2.02626 0
M  V30 6343 H 600.795 -4.49946 3.77918 0
M  V30 6344 H 602.319 -5.21312 3.17909 0
M  V30 6345 H 603.733 -3.43376 4.59093 0
M  V30 6346 H 602.13 -2.95666 5.22208 0
M  V30 6347 H 603.2 -1.72262 4.5327 0
M  V30 6348 N 604.543 -1.41418 -0.695603 0
M  V30 6349 C 605.768 -1.44329 -1.48942 0
M  V30 6350 C 606.193 -0.0501579 -1.88033 0
M  V30 6351 O 605.551 0.946598 -1.54626 0
M  V30 6352 C 605.599 -2.3578 -2.72837 0
M  V30 6353 O 604.703 -1.81482 -3.70322 0
M  V30 6354 H 604.044 -0.489838 -0.44828 0
M  V30 6355 H 606.574 -1.85878 -0.855014 0
M  V30 6356 H 606.584 -2.51654 -3.21145 0
M  V30 6357 H 605.259 -3.37005 -2.43722 0
M  V30 6358 H 603.836 -1.75058 -3.29255 0
M  V30 6359 N 606.021 0.929856 -1.27246 0
M  V30 6360 C 607.251 1.70895 -1.16096 0
M  V30 6361 C 607.659 1.87039 0.285122 0
M  V30 6362 O 607.002 1.38557 1.20614 0
M  V30 6363 C 607.064 3.12919 -1.7698 0
M  V30 6364 C 606.728 3.2012 -3.26148 0
M  V30 6365 C 607.725 3.02533 -4.22812 0
M  V30 6366 C 605.41 3.43148 -3.66817 0
M  V30 6367 C 607.404 3.07861 -5.58122 0
M  V30 6368 C 605.091 3.48109 -5.02258 0
M  V30 6369 C 606.089 3.30483 -5.97721 0
M  V30 6370 O 605.777 3.35175 -7.30694 0
M  V30 6371 H 605.509 0.54152 -0.404639 0
M  V30 6372 H 608.063 1.17342 -1.68582 0
M  V30 6373 H 606.293 3.67945 -1.18969 0
M  V30 6374 H 607.982 3.72787 -1.60576 0
M  V30 6375 H 608.748 2.84586 -3.92728 0
M  V30 6376 H 604.627 3.55918 -2.9299 0
M  V30 6377 H 608.171 2.94021 -6.32612 0
M  V30 6378 H 604.068 3.65579 -5.31998 0
M  V30 6379 H 604.836 3.51644 -7.39114 0
M  V30 6380 N 607.499 1.09233 1.13605 0
M  V30 6381 C 608.747 0.825525 1.84471 0
M  V30 6382 C 609.068 -0.650702 1.83823 0
M  V30 6383 O 608.338 -1.47204 1.29259 0
M  V30 6384 H 606.918 0.3024 0.683054 0
M  V30 6385 H 609.58 1.38006 1.37624 0
M  V30 6386 H 608.676 1.17727 2.89045 0
M  V30 6387 N 608.977 -1.30795 0.87923 0
M  V30 6388 C 610.225 -1.95974 0.493809 0
M  V30 6389 C 610.546 -1.69787 -0.959021 0
M  V30 6390 O 609.816 -1.01832 -1.67353 0
M  V30 6391 H 608.396 -0.725083 0.179622 0
M  V30 6392 H 611.058 -1.59432 1.12105 0
M  V30 6393 H 610.154 -3.05058 0.659263 0
M  V30 6394 N 610.455 -0.639598 -1.44038 0
M  V30 6395 C 611.385 0.0469443 -2.33453 0
M  V30 6396 C 612.366 0.82609 -1.48694 0
M  V30 6397 O 613.551 0.790285 -1.77393 0
M  V30 6398 C 610.681 1.02338 -3.3188 0
M  V30 6399 C 609.635 0.355284 -4.26523 0
M  V30 6400 C 608.961 1.44221 -5.14883 0
M  V30 6401 C 610.261 -0.743798 -5.16977 0
M  V30 6402 H 611.955 -0.699735 -2.91108 0
M  V30 6403 H 609.501 -0.337946 -1.39978 0
M  V30 6404 H 611.454 1.51247 -3.93322 0
M  V30 6405 H 610.178 1.80105 -2.72451 0
M  V30 6406 H 608.837 -0.113239 -3.66425 0
M  V30 6407 H 608.485 2.21097 -4.51802 0
M  V30 6408 H 608.185 1.00052 -5.79019 0
M  V30 6409 H 609.709 1.93295 -5.79197 0
M  V30 6410 H 611.123 -0.337444 -5.72306 0
M  V30 6411 H 609.52 -1.10914 -5.89761 0
M  V30 6412 H 610.59 -1.60745 -4.57481 0
M  V30 6413 N 611.933 1.52934 -0.380664 0
M  V30 6414 C 613.349 1.59571 -0.0302429 0
M  V30 6415 C 613.549 1.39509 1.45394 0
M  V30 6416 O 612.605 1.20777 2.21741 0
M  V30 6417 C 613.918 2.96519 -0.499691 0
M  V30 6418 C 615.466 3.09672 -0.455204 0
M  V30 6419 C 615.941 4.49056 -0.900703 0
M  V30 6420 N 617.432 4.55215 -0.856367 0
M  V30 6421 C 618.167 5.61282 -1.17259 0
M  V30 6422 N 617.663 6.75035 -1.55885 0
M  V30 6423 N 619.456 5.51343 -1.0944 0
M  V30 6424 H 611.607 1.64224 -1.347 0
M  V30 6425 H 613.87 0.771033 -0.551554 0
M  V30 6426 H 613.576 3.16388 -1.53595 0
M  V30 6427 H 613.45 3.77052 0.105789 0
M  V30 6428 H 615.837 2.89504 0.571949 0
M  V30 6429 H 615.918 2.31113 -1.09638 0
M  V30 6430 H 615.562 4.69964 -1.92604 0
M  V30 6431 H 615.492 5.26068 -0.236629 0
M  V30 6432 H 617.983 3.73546 -0.572013 0
M  V30 6433 H 618.296 7.51926 -1.784 0
M  V30 6434 H 616.641 6.76388 -1.59764 0
M  V30 6435 H 619.832 4.61356 -0.791713 0
M  V30 6436 H 620.005 6.33905 -1.34417 0
M  V30 6437 N 613.412 0.11024 1.57214 0
M  V30 6438 C 614.66 -0.548783 1.94506 0
M  V30 6439 C 614.981 -1.67772 0.99386 0
M  V30 6440 O 614.251 -1.9584 0.0485841 0
M  V30 6441 H 612.831 -0.205715 0.718116 0
M  V30 6442 H 615.493 0.177127 1.94093 0
M  V30 6443 H 614.589 -0.949096 2.97319 0
M  V30 6444 N 614.89 -1.56749 -0.16351 0
M  V30 6445 C 615.853 -1.96121 -1.18613 0
M  V30 6446 C 616.853 -0.845765 -1.36761 0
M  V30 6447 O 618.043 -1.11268 -1.34033 0
M  V30 6448 C 615.175 -2.26282 -2.54969 0
M  V30 6449 H 616.368 -2.87639 -0.848764 0
M  V30 6450 H 613.921 -1.50928 -0.406251 0
M  V30 6451 H 614.656 -1.37504 -2.93706 0
M  V30 6452 H 614.441 -3.07595 -2.43162 0
M  V30 6453 H 615.931 -2.57638 -3.28653 0
M  V30 6454 N 616.368 0.432326 -1.51554 0
M  V30 6455 C 617.614 1.18309 -1.64714 0
M  V30 6456 C 617.947 1.90745 -0.364696 0
M  V30 6457 O 617.222 1.8381 0.635936 0
M  V30 6458 C 617.505 2.1961 -2.85383 0
M  V30 6459 C 617.358 1.51223 -4.23617 0
M  V30 6460 C 618.677 3.20538 -3.01569 0
M  V30 6461 H 615.796 0.428751 -0.599451 0
M  V30 6462 H 618.438 0.471689 -1.84052 0
M  V30 6463 H 616.588 2.8028 -2.69027 0
M  V30 6464 H 618.26 0.938516 -4.51652 0
M  V30 6465 H 616.503 0.814501 -4.26085 0
M  V30 6466 H 617.174 2.25024 -5.04052 0
M  V30 6467 H 619.65 2.69926 -3.16669 0
M  V30 6468 H 618.526 3.88706 -3.87555 0
M  V30 6469 H 618.787 3.86933 -2.13859 0
M  V30 6470 N 617.846 1.41785 0.688094 0
M  V30 6471 C 618.809 1.43936 1.78368 0
M  V30 6472 C 619.809 0.328866 1.57401 0
M  V30 6473 O 620.999 0.589093 1.63937 0
M  V30 6474 C 618.131 1.25804 3.16838 0
M  V30 6475 H 619.324 2.41472 1.77852 0
M  V30 6476 H 616.877 1.28037 0.896448 0
M  V30 6477 H 617.612 0.291386 3.22988 0
M  V30 6478 H 617.397 2.06272 3.33458 0
M  V30 6479 H 618.887 1.30162 3.96797 0
M  V30 6480 N 619.324 -0.923095 1.27737 0
M  V30 6481 C 620.571 -1.67127 1.14345 0
M  V30 6482 C 620.899 -1.92017 -0.30982 0
M  V30 6483 O 620.154 -1.51185 -1.24264 0
M  V30 6484 C 620.453 -3.04125 1.8773 0
M  V30 6485 C 620.119 -2.98929 3.37568 0
M  V30 6486 C 618.781 -2.9722 3.78436 0
M  V30 6487 C 621.133 -2.89875 4.33154 0
M  V30 6488 C 618.461 -2.84244 5.13247 0
M  V30 6489 C 620.813 -2.7844 5.68026 0
M  V30 6490 C 619.477 -2.75083 6.08182 0
M  V30 6491 H 618.747 -0.611562 0.418417 0
M  V30 6492 H 621.394 -1.07618 1.584 0
M  V30 6493 H 619.699 -3.67366 1.36196 0
M  V30 6494 H 621.396 -3.609 1.74792 0
M  V30 6495 H 617.986 -3.0105 3.05069 0
M  V30 6496 H 622.17 -2.9029 4.02548 0
M  V30 6497 H 617.426 -2.80034 5.43499 0
M  V30 6498 H 621.6 -2.70401 6.4176 0
M  V30 6499 H 619.227 -2.64786 7.12596 0
M  V30 6500 N 620.802 -1.09834 -1.13024 0
M  V30 6501 C 621.765 -0.745058 -2.16752 0
M  V30 6502 C 622.765 0.227435 -1.59183 0
M  V30 6503 O 623.955 0.0050786 -1.74199 0
M  V30 6504 C 621.087 -0.102543 -3.40746 0
M  V30 6505 H 622.28 -1.66375 -2.49518 0
M  V30 6506 H 619.833 -0.898061 -1.27924 0
M  V30 6507 H 620.568 0.827177 -3.13573 0
M  V30 6508 H 620.353 -0.80235 -3.83803 0
M  V30 6509 H 621.843 0.129082 -4.174 0
M  V30 6510 N 622.28 1.30327 -0.886154 0
M  V30 6511 C 623.21 2.30549 -0.370028 0
M  V30 6512 C 624.191 1.61039 0.547751 0
M  V30 6513 O 625.376 1.8864 0.461353 0
M  V30 6514 C 622.506 3.44808 0.415275 0
M  V30 6515 C 621.46 4.26024 -0.41085 0
M  V30 6516 C 620.786 5.32347 0.501128 0
M  V30 6517 C 622.086 4.95433 -1.65359 0
M  V30 6518 H 623.78 2.73969 -1.20754 0
M  V30 6519 H 621.326 1.3171 -0.582097 0
M  V30 6520 H 623.279 4.13986 0.78699 0
M  V30 6521 H 622.003 3.00197 1.28644 0
M  V30 6522 H 620.662 3.58535 -0.764719 0
M  V30 6523 H 620.31 4.83982 1.37004 0
M  V30 6524 H 620.01 5.87581 -0.0478356 0
M  V30 6525 H 621.534 6.0438 0.869333 0
M  V30 6526 H 622.948 5.5712 -1.35239 0
M  V30 6527 H 621.345 5.60537 -2.14284 0
M  V30 6528 H 622.415 4.21493 -2.39733 0
M  V30 6529 N 623.758 0.647228 1.43697 0
M  V30 6530 C 625.004 0.158422 2.0218 0
M  V30 6531 C 625.337 -1.22233 1.50907 0
M  V30 6532 O 624.612 -1.81478 0.699702 0
M  V30 6533 C 624.895 0.1627 3.59732 0
M  V30 6534 C 624.748 1.57694 4.21251 0
M  V30 6535 C 626.067 -0.504138 4.37203 0
M  V30 6536 H 623.186 0.059042 0.734631 0
M  V30 6537 H 625.828 0.826772 1.71069 0
M  V30 6538 H 623.978 -0.406414 3.86368 0
M  V30 6539 H 625.65 2.19618 4.05667 0
M  V30 6540 H 623.893 2.12603 3.7813 0
M  V30 6541 H 624.564 1.53183 5.3032 0
M  V30 6542 H 627.04 -0.0199841 4.16095 0
M  V30 6543 H 625.916 -0.470394 5.46881 0
M  V30 6544 H 626.177 -1.57726 4.13007 0
M  V30 6545 N 625.236 -1.5273 0.388769 0
M  V30 6546 C 626.482 -2.01871 -0.193877 0
M  V30 6547 C 626.815 -1.27475 -1.46505 0
M  V30 6548 O 626.09 -0.375063 -1.90849 0
M  V30 6549 C 626.373 -3.5712 -0.462336 0
M  V30 6550 C 626.226 -4.42186 0.824091 0
M  V30 6551 C 627.545 -4.21881 -1.25319 0
M  V30 6552 H 624.664 -0.733764 -0.0689899 0
M  V30 6553 H 627.306 -1.82796 0.518231 0
M  V30 6554 H 625.456 -3.73504 -1.06896 0
M  V30 6555 H 627.128 -4.37554 1.46096 0
M  V30 6556 H 625.371 -4.09219 1.43952 0
M  V30 6557 H 626.042 -5.48828 0.590905 0
M  V30 6558 H 628.518 -4.0947 -0.73981 0
M  V30 6559 H 627.394 -5.30487 -1.40977 0
M  V30 6560 H 627.655 -3.79478 -2.26824 0
M  V30 6561 N 626.714 -0.118576 -1.57153 0
M  V30 6562 C 627.644 0.828436 -2.1831 0
M  V30 6563 C 628.625 1.27758 -1.12303 0
M  V30 6564 O 629.81 1.34026 -1.40537 0
M  V30 6565 C 626.94 2.07876 -2.78217 0
M  V30 6566 C 625.894 1.76742 -3.89803 0
M  V30 6567 C 625.22 3.08801 -4.36516 0
M  V30 6568 C 626.52 1.03606 -5.11921 0
M  V30 6569 H 628.214 0.318824 -2.97698 0
M  V30 6570 H 625.76 0.151911 -1.43196 0
M  V30 6571 H 627.713 2.74584 -3.19659 0
M  V30 6572 H 626.437 2.61161 -1.96118 0
M  V30 6573 H 625.096 1.12424 -3.48936 0
M  V30 6574 H 624.744 3.6002 -3.51276 0
M  V30 6575 H 624.444 2.88743 -5.11763 0
M  V30 6576 H 625.968 3.76627 -4.80608 0
M  V30 6577 H 627.382 1.60467 -5.50385 0
M  V30 6578 H 625.779 0.936454 -5.92748 0
M  V30 6579 H 626.849 0.0227421 -4.84895 0
M  V30 6580 N 628.193 1.56834 0.155195 0
M  V30 6581 C 629.123 2.00678 1.19376 0
M  V30 6582 C 630.104 0.884973 1.45266 0
M  V30 6583 O 631.289 1.1522 1.56326 0
M  V30 6584 C 628.419 2.38042 2.5289 0
M  V30 6585 C 627.373 3.53332 2.41538 0
M  V30 6586 C 626.699 3.76485 3.79688 0
M  V30 6587 C 627.999 4.86265 1.9064 0
M  V30 6588 H 629.693 2.87688 0.829232 0
M  V30 6589 H 627.239 1.38407 0.397445 0
M  V30 6590 H 629.192 2.67314 3.25763 0
M  V30 6591 H 627.916 1.4796 2.91162 0
M  V30 6592 H 626.575 3.24213 1.71117 0
M  V30 6593 H 626.223 2.83667 4.15382 0
M  V30 6594 H 625.923 4.54068 3.72956 0
M  V30 6595 H 627.447 4.08174 4.54122 0
M  V30 6596 H 628.861 5.14308 2.53299 0
M  V30 6597 H 627.258 5.67597 1.94818 0
M  V30 6598 H 628.328 4.77184 0.861596 0
M  V30 6599 N 629.671 -0.424282 1.51781 0
M  V30 6600 C 630.948 -1.18464 1.55646 0
M  V30 6601 C 631.328 -2.08529 0.328438 0
M  V30 6602 O 630.676 -2.17969 -0.685693 0
M  V30 6603 C 630.886 -1.97514 2.87731 0
M  V30 6604 C 632.234 -2.54106 3.40169 0
M  V30 6605 O 633.258 -2.07711 2.89369 0
M  V30 6606 O 632.117 -3.38759 4.28841 0
M  V30 6607 H 629.211 -0.540055 0.626314 0
M  V30 6608 H 631.757 -0.432291 1.64102 0
M  V30 6609 H 630.529 -1.31444 3.68562 0
M  V30 6610 H 630.152 -2.79787 2.82498 0
M  V30 6611 N 631.149 -1.42148 -0.680565 0
M  V30 6612 C 632.397 -1.42029 -1.43779 0
M  V30 6613 C 632.718 -0.0356347 -1.94967 0
M  V30 6614 O 631.988 0.924936 -1.7269 0
M  V30 6615 H 630.568 -0.522835 -0.533529 0
M  V30 6616 H 633.23 -1.7752 -0.804538 0
M  V30 6617 H 632.326 -2.11658 -2.29363 0
M  V30 6618 N 632.627 0.916307 -1.28225 0
M  V30 6619 C 633.904 1.64429 -1.05936 0
M  V30 6620 C 634.284 2.07234 0.402139 0
M  V30 6621 O 633.632 1.81535 1.3877 0
M  V30 6622 C 633.842 2.83773 -2.03159 0
M  V30 6623 C 635.19 3.54852 -2.33164 0
M  V30 6624 O 636.214 2.93918 -2.01223 0
M  V30 6625 O 635.073 4.64663 -2.87664 0
M  V30 6626 H 632.167 0.721221 -0.404683 0
M  V30 6627 H 634.713 0.965838 -1.39534 0
M  V30 6628 H 633.485 2.49217 -3.01673 0
M  V30 6629 H 633.108 3.59333 -1.70192 0
M  V30 6630 N 634.105 1.10431 1.1244 0
M  V30 6631 C 635.052 0.753103 2.18167 0
M  V30 6632 C 636.022 -0.270549 1.63882 0
M  V30 6633 O 637.207 -0.149837 1.90211 0
M  V30 6634 C 634.347 0.191046 3.44571 0
M  V30 6635 C 633.46 1.26999 4.12911 0
M  V30 6636 C 632.595 0.669586 5.26963 0
M  V30 6637 C 631.634 1.72912 5.87169 0
M  V30 6638 N 630.771 1.14898 6.92635 0
M  V30 6639 H 635.611 1.65892 2.47556 0
M  V30 6640 H 633.148 0.828631 1.21541 0
M  V30 6641 H 635.106 -0.152712 4.1692 0
M  V30 6642 H 633.736 -0.677997 3.15599 0
M  V30 6643 H 632.788 1.73087 3.3874 0
M  V30 6644 H 634.1 2.07204 4.53727 0
M  V30 6645 H 633.254 0.275274 6.06075 0
M  V30 6646 H 631.993 -0.163895 4.87425 0
M  V30 6647 H 630.998 2.13286 5.06744 0
M  V30 6648 H 632.223 2.56544 6.28778 0
M  V30 6649 H 630.169 0.336956 6.55134 0
M  V30 6650 H 630.086 1.88786 7.32049 0
M  V30 6651 H 631.354 0.78121 7.75576 0
M  V30 6652 N 635.583 -1.29855 0.893053 0
M  V30 6653 C 636.829 -1.96116 0.516349 0
M  V30 6654 C 637.162 -1.70281 -0.933695 0
M  V30 6655 O 636.437 -1.01205 -1.66096 0
M  V30 6656 C 636.72 -3.51068 0.801455 0
M  V30 6657 C 636.573 -3.86387 2.30272 0
M  V30 6658 C 637.892 -4.39186 0.283423 0
M  V30 6659 H 635.011 -0.712335 0.189072 0
M  V30 6660 H 637.653 -1.53587 1.11852 0
M  V30 6661 H 635.803 -3.87424 0.288949 0
M  V30 6662 H 637.475 -3.60012 2.88425 0
M  V30 6663 H 635.718 -3.34167 2.76613 0
M  V30 6664 H 636.389 -4.94512 2.45279 0
M  V30 6665 H 638.865 -4.09785 0.722187 0
M  V30 6666 H 637.741 -5.46505 0.512169 0
M  V30 6667 H 638.002 -4.34511 -0.815643 0
M  V30 6668 N 637.061 -0.65484 -1.43351 0
M  V30 6669 C 638.008 0.0357713 -2.30772 0
M  V30 6670 C 638.978 0.813035 -1.44841 0
M  V30 6671 O 640.163 0.789314 -1.73708 0
M  V30 6672 C 637.303 0.995084 -3.30442 0
M  V30 6673 C 636.416 0.21375 -4.31471 0
M  V30 6674 C 635.551 1.16701 -5.18222 0
M  V30 6675 C 634.59 0.376201 -6.10943 0
M  V30 6676 N 633.727 1.28113 -6.90313 0
M  V30 6677 H 638.567 -0.71559 -2.89281 0
M  V30 6678 H 636.104 -0.364645 -1.42509 0
M  V30 6679 H 638.062 1.5649 -3.86739 0
M  V30 6680 H 636.692 1.7133 -2.7358 0
M  V30 6681 H 635.744 -0.472377 -3.77456 0
M  V30 6682 H 637.056 -0.401103 -4.97185 0
M  V30 6683 H 636.21 1.8074 -5.79153 0
M  V30 6684 H 634.949 1.81577 -4.52638 0
M  V30 6685 H 633.954 -0.277534 -5.49099 0
M  V30 6686 H 635.179 -0.268178 -6.7857 0
M  V30 6687 H 633.125 1.91666 -6.27376 0
M  V30 6688 H 633.042 0.720879 -7.52555 0
M  V30 6689 H 634.31 1.90962 -7.55747 0
M  V30 6690 N 638.539 1.52521 -0.396863 0
M  V30 6691 C 639.449 2.30403 0.44178 0
M  V30 6692 C 640.465 1.37625 1.06468 0
M  V30 6693 O 641.641 1.70697 1.06886 0
M  V30 6694 C 638.706 3.1013 1.54986 0
M  V30 6695 C 637.767 4.18628 0.951279 0
M  V30 6696 C 637 4.94543 2.00655 0
M  V30 6697 O 637.223 4.70629 3.22281 0
M  V30 6698 O 636.157 5.797 1.61962 0
M  V30 6699 H 639.983 3.03087 -0.192892 0
M  V30 6700 H 637.568 1.48537 -0.16038 0
M  V30 6701 H 639.45 3.59816 2.19341 0
M  V30 6702 H 638.125 2.40251 2.16935 0
M  V30 6703 H 637.032 3.73119 0.270773 0
M  V30 6704 H 638.365 4.90763 0.375887 0
M  V30 6705 N 640.017 0.126909 1.57088 0
M  V30 6706 C 640.964 -0.82036 2.15728 0
M  V30 6707 C 641.934 -1.25811 1.08447 0
M  V30 6708 O 643.119 -1.33422 1.36393 0
M  V30 6709 C 640.259 -2.06199 2.76724 0
M  V30 6710 C 639.372 -1.67188 3.98337 0
M  V30 6711 C 638.507 -2.86378 4.47393 0
M  V30 6712 C 637.546 -2.43644 5.61519 0
M  V30 6713 N 636.683 -3.55775 6.05284 0
M  V30 6714 H 641.523 -0.313472 2.96347 0
M  V30 6715 H 639.06 -0.14303 1.46403 0
M  V30 6716 H 641.018 -2.78959 3.10222 0
M  V30 6717 H 639.648 -2.54333 1.98782 0
M  V30 6718 H 638.7 -0.842714 3.70948 0
M  V30 6719 H 640.012 -1.31789 4.81075 0
M  V30 6720 H 639.166 -3.67353 4.82842 0
M  V30 6721 H 637.905 -3.25009 3.63621 0
M  V30 6722 H 636.91 -1.61104 5.25667 0
M  V30 6723 H 638.135 -2.06122 6.47063 0
M  V30 6724 H 636.081 -3.94065 5.24451 0
M  V30 6725 H 635.998 -3.24325 6.82898 0
M  V30 6726 H 637.266 -4.37166 6.45373 0
M  V30 6727 N 641.495 -1.56914 -0.146875 0
M  V30 6728 C 642.443 -1.99224 -1.20053 0
M  V30 6729 C 643.437 -0.884661 -1.44465 0
M  V30 6730 O 644.643 -1.06984 -1.44756 0
M  V30 6731 H 641.018 -0.634191 -0.404112 0
M  V30 6732 H 642.989 -2.86998 -0.816987 0
M  V30 6733 C 641.738 -2.38899 -2.52632 0
M  V30 6734 H 641.061 -3.23677 -2.34677 0
M  V30 6735 H 642.501 -2.72326 -3.24984 0
M  V30 6736 C 640.96 -1.2417 -3.13183 0
M  V30 6737 O 641.49 -0.542503 -3.9802 0
M  V30 6738 N 639.696 -1.00592 -2.72635 0
M  V30 6739 H 639.243 -1.57627 -2.03744 0
M  V30 6740 H 639.201 -0.240174 -3.13481 0
M  V30 6741 N 642.974 0.416227 -1.52004 0
M  V30 6742 C 643.904 1.51365 -1.77795 0
M  V30 6743 C 644.885 1.58059 -0.628601 0
M  V30 6744 O 646.07 1.73447 -0.873478 0
M  V30 6745 C 643.2 2.89256 -1.92219 0
M  V30 6746 C 642.154 2.97415 -3.0778 0
M  V30 6747 C 641.48 4.37492 -3.07417 0
M  V30 6748 C 642.78 2.69551 -4.47369 0
M  V30 6749 H 644.474 1.30033 -2.69688 0
M  V30 6750 H 642.02 0.624112 -1.29772 0
M  V30 6751 H 643.973 3.66008 -2.08845 0
M  V30 6752 H 642.697 3.11866 -0.969917 0
M  V30 6753 H 641.356 2.23107 -2.90893 0
M  V30 6754 H 641.004 4.571 -2.09925 0
M  V30 6755 H 640.704 4.43877 -3.85029 0
M  V30 6756 H 642.228 5.16188 -3.26162 0
M  V30 6757 H 643.642 3.36028 -4.64497 0
M  V30 6758 H 642.039 2.87321 -5.26846 0
M  V30 6759 H 643.109 1.65029 -4.55953 0
M  V30 6760 N 644.452 1.42507 0.673017 0
M  V30 6761 C 645.699 1.43072 1.43306 0
M  V30 6762 C 646.027 0.0478004 1.94441 0
M  V30 6763 O 645.282 -0.944106 1.71421 0
M  V30 6764 C 645.581 2.40351 2.64511 0
M  V30 6765 C 645.247 3.8669 2.31908 0
M  V30 6766 C 643.909 4.26551 2.22728 0
M  V30 6767 C 646.261 4.78991 2.05467 0
M  V30 6768 C 643.589 5.56691 1.85234 0
M  V30 6769 C 645.941 6.09476 1.69477 0
M  V30 6770 C 644.605 6.48334 1.58808 0
M  V30 6771 H 643.875 0.523536 0.524395 0
M  V30 6772 H 646.522 1.75459 0.76723 0
M  V30 6773 H 644.827 2.01297 3.36135 0
M  V30 6774 H 646.524 2.38051 3.22696 0
M  V30 6775 H 643.114 3.55132 2.39956 0
M  V30 6776 H 647.298 4.48982 2.11492 0
M  V30 6777 H 642.554 5.85657 1.75545 0
M  V30 6778 H 646.728 6.80482 1.48043 0
M  V30 6779 H 644.355 7.49084 1.29525 0
M  V30 6780 N 645.93 -0.909495 1.28709 0
M  V30 6781 C 647.176 -1.66151 1.16283 0
M  V30 6782 C 647.509 -1.92067 -0.287069 0
M  V30 6783 O 646.784 -1.52409 -1.20837 0
M  V30 6784 C 647.067 -3.01676 1.9663 0
M  V30 6785 C 646.92 -2.82888 3.49707 0
M  V30 6786 C 648.239 -4.02274 1.78504 0
M  V30 6787 H 645.358 -0.602966 0.423793 0
M  V30 6788 H 648 -1.05418 1.58073 0
M  V30 6789 H 646.15 -3.53515 1.61119 0
M  V30 6790 H 647.822 -2.38026 3.95147 0
M  V30 6791 H 646.065 -2.17862 3.75125 0
M  V30 6792 H 646.736 -3.79147 4.01187 0
M  V30 6793 H 649.212 -3.59511 2.09503 0
M  V30 6794 H 648.088 -4.95056 2.37088 0
M  V30 6795 H 648.349 -4.35903 0.737647 0
M  V30 6796 N 647.408 -1.11026 -1.11852 0
M  V30 6797 C 648.633 -0.879064 -1.87849 0
M  V30 6798 C 649.058 0.565406 -1.79401 0
M  V30 6799 O 648.416 1.39886 -1.15333 0
M  V30 6800 C 648.464 -1.33985 -3.34784 0
M  V30 6801 O 647.568 -0.508803 -4.09249 0
M  V30 6802 H 646.909 -0.316992 -0.583448 0
M  V30 6803 H 649.439 -1.47863 -1.41413 0
M  V30 6804 H 649.449 -1.33248 -3.85628 0
M  V30 6805 H 648.124 -2.39172 -3.40249 0
M  V30 6806 H 646.701 -0.581913 -3.68332 0
M  V30 6807 N 648.886 1.2938 -0.899927 0
M  V30 6808 C 650.114 1.99691 -0.541386 0
M  V30 6809 C 650.529 1.67355 0.873936 0
M  V30 6810 O 649.886 0.918728 1.57688 0
M  V30 6811 C 649.937 3.54168 -0.72438 0
M  V30 6812 O 649.658 3.85359 -2.08399 0
M  V30 6813 C 651.159 4.41746 -0.370819 0
M  V30 6814 H 648.379 0.638037 -0.207726 0
M  V30 6815 H 650.923 1.6491 -1.20934 0
M  V30 6816 H 649.078 3.87261 -0.103607 0
M  V30 6817 H 649.492 4.80032 -2.11352 0
M  V30 6818 H 650.966 5.49256 -0.549693 0
M  V30 6819 H 651.443 4.33712 0.692148 0
M  V30 6820 H 652.049 4.14125 -0.968543 0
M  V30 6821 N 650.364 0.662433 1.43002 0
M  V30 6822 C 651.592 0.187615 2.06048 0
M  V30 6823 C 652.007 -1.15039 1.49705 0
M  V30 6824 O 651.364 -1.71209 0.631956 0
M  V30 6825 C 651.415 0.100498 3.6136 0
M  V30 6826 O 651.136 1.38562 4.15611 0
M  V30 6827 C 652.637 -0.399298 4.41498 0
M  V30 6828 H 649.857 0.0941675 0.664359 0
M  V30 6829 H 652.401 0.905681 1.83351 0
M  V30 6830 H 650.556 -0.568181 3.83211 0
M  V30 6831 H 650.97 1.25084 5.09366 0
M  V30 6832 H 652.444 -0.409187 5.50481 0
M  V30 6833 H 652.921 -1.43232 4.15188 0
M  V30 6834 H 653.527 0.23721 4.24638 0
M  V30 6835 N 651.842 -1.52309 0.404946 0
M  V30 6836 C 653.091 -2.00952 -0.173529 0
M  V30 6837 C 653.404 -1.29512 -1.46581 0
M  V30 6838 O 654.61 -1.6895 -2.12528 0
M  V30 6839 C 653.066 -3.58097 -0.359801 0
M  V30 6840 C 652.674 -4.38449 0.920138 0
M  V30 6841 C 654.418 -4.14984 -0.893794 0
M  V30 6842 C 652.325 -5.87227 0.701285 0
M  V30 6843 H 651.255 -0.750871 -0.0686244 0
M  V30 6844 H 653.906 -1.75687 0.529749 0
M  V30 6845 H 652.288 -3.79675 -1.12531 0
M  V30 6846 H 653.462 -4.28633 1.69147 0
M  V30 6847 H 651.777 -3.92859 1.38024 0
M  V30 6848 H 654.374 -5.23813 -1.0735 0
M  V30 6849 H 654.717 -3.72072 -1.8673 0
M  V30 6850 H 655.25 -3.97358 -0.187453 0
M  V30 6851 H 651.989 -6.34491 1.64624 0
M  V30 6852 H 651.509 -5.99792 -0.0308288 0
M  V30 6853 H 653.188 -6.46096 0.341846 0
M  V30 6854 N 653.32 -0.135238 -1.57019 0
M  V30 6855 C 654.569 0.518694 -1.94917 0
M  V30 6856 C 654.882 1.66783 -1.0219 0
M  V30 6857 O 656.088 2.38561 -1.29619 0
M  V30 6858 C 654.544 0.974123 -3.46466 0
M  V30 6859 C 654.152 -0.147439 -4.47757 0
M  V30 6860 C 655.896 1.59851 -3.93253 0
M  V30 6861 C 653.803 0.325599 -5.90503 0
M  V30 6862 H 652.733 0.19754 -0.727663 0
M  V30 6863 H 655.384 -0.217698 -1.82204 0
M  V30 6864 H 653.766 1.76542 -3.5447 0
M  V30 6865 H 654.94 -0.924122 -4.51438 0
M  V30 6866 H 653.255 -0.679496 -4.10818 0
M  V30 6867 H 655.852 1.96385 -4.9733 0
M  V30 6868 H 656.195 2.48306 -3.3414 0
M  V30 6869 H 656.728 0.872323 -3.88118 0
M  V30 6870 H 653.467 -0.523295 -6.53408 0
M  V30 6871 H 652.987 1.06841 -5.90208 0
M  V30 6872 H 654.666 0.781498 -6.42263 0
M  V30 6873 N 654.798 1.5699 0.138552 0
M  V30 6874 C 656.044 1.84081 0.85099 0
M  V30 6875 C 656.377 0.718107 1.80435 0
M  V30 6876 O 655.652 -0.277633 1.92508 0
M  V30 6877 C 655.935 3.21699 1.61808 0
M  V30 6878 C 655.788 4.44544 0.685633 0
M  V30 6879 C 657.107 3.5664 2.57868 0
M  V30 6880 H 654.226 0.669592 0.307922 0
M  V30 6881 H 656.868 1.89646 0.11588 0
M  V30 6882 H 655.018 3.17086 2.24474 0
M  V30 6883 H 656.69 4.61248 0.0693179 0
M  V30 6884 H 654.933 4.338 -0.00421993 0
M  V30 6885 H 655.604 5.3746 1.25858 0
M  V30 6886 H 658.08 3.61918 2.05316 0
M  V30 6887 H 656.956 4.53946 3.08584 0
M  V30 6888 H 657.217 2.83036 3.39622 0
M  V30 6889 N 656.276 -0.40816 1.52223 0
M  V30 6890 C 657.522 -1.15673 1.66576 0
M  V30 6891 C 657.855 -1.90141 0.394996 0
M  V30 6892 O 657.13 -1.84798 -0.606613 0
M  V30 6893 C 657.413 -2.15042 2.88841 0
M  V30 6894 C 657.266 -1.44465 4.25969 0
M  V30 6895 C 658.585 -3.15699 3.0663 0
M  V30 6896 H 655.704 -0.41916 0.606196 0
M  V30 6897 H 658.346 -0.442348 1.84779 0
M  V30 6898 H 656.496 -2.75964 2.73452 0
M  V30 6899 H 658.168 -0.866544 4.53088 0
M  V30 6900 H 656.411 -0.746612 4.27327 0
M  V30 6901 H 657.082 -2.16976 5.07568 0
M  V30 6902 H 659.558 -2.64854 3.20923 0
M  V30 6903 H 658.434 -3.82491 3.9369 0
M  V30 6904 H 658.695 -3.83481 2.19987 0
M  V30 6905 N 657.755 -1.42862 -0.66545 0
M  V30 6906 C 659.002 -1.4383 -1.42546 0
M  V30 6907 C 659.33 -0.0581114 -1.94413 0
M  V30 6908 O 658.585 0.935002 -1.71919 0
M  V30 6909 C 658.884 -2.4175 -2.63233 0
M  V30 6910 C 658.55 -3.87915 -2.29854 0
M  V30 6911 C 657.212 -4.27726 -2.20463 0
M  V30 6912 C 659.564 -4.80074 -2.02924 0
M  V30 6913 C 656.892 -5.57666 -1.82279 0
M  V30 6914 C 659.244 -6.10366 -1.66242 0
M  V30 6915 C 657.908 -6.49167 -1.55367 0
M  V30 6916 H 657.178 -0.52631 -0.521612 0
M  V30 6917 H 659.825 -1.75863 -0.757914 0
M  V30 6918 H 658.13 -2.03077 -3.35063 0
M  V30 6919 H 659.827 -2.39759 -3.21429 0
M  V30 6920 H 656.417 -3.564 -2.3807 0
M  V30 6921 H 660.601 -4.50097 -2.09108 0
M  V30 6922 H 655.857 -5.8658 -1.72436 0
M  V30 6923 H 660.031 -6.81258 -1.44432 0
M  V30 6924 H 657.658 -7.49761 -1.2555 0
M  V30 6925 N 659.233 0.902656 -1.29189 0
M  V30 6926 C 660.48 1.65287 -1.16989 0
M  V30 6927 C 660.808 1.92485 0.279232 0
M  V30 6928 O 660.063 1.53143 1.21843 0
M  V30 6929 C 660.362 3.011 -1.92545 0
M  V30 6930 C 660.028 2.93521 -3.42281 0
M  V30 6931 C 658.69 2.91161 -3.83117 0
M  V30 6932 C 661.042 2.82947 -4.3771 0
M  V30 6933 C 658.37 2.76043 -5.17704 0
M  V30 6934 C 660.722 2.69368 -5.72384 0
M  V30 6935 C 659.386 2.65373 -6.12482 0
M  V30 6936 H 658.656 0.604828 -0.428094 0
M  V30 6937 H 661.303 1.05084 -1.60092 0
M  V30 6938 H 659.608 3.65153 -1.42024 0
M  V30 6939 H 661.305 3.58073 -1.80512 0
M  V30 6940 H 657.895 2.96158 -3.09819 0
M  V30 6941 H 662.079 2.83849 -4.07116 0
M  V30 6942 H 657.335 2.71352 -5.47885 0
M  V30 6943 H 661.509 2.60156 -6.45981 0
M  V30 6944 H 659.136 2.53415 -7.16718 0
M  V30 6945 N 660.711 1.11618 1.11262 0
M  V30 6946 C 661.939 0.888739 1.8684 0
M  V30 6947 C 662.354 -0.561558 1.80255 0
M  V30 6948 O 661.711 -1.38782 1.18515 0
M  V30 6949 C 661.762 1.34422 3.35579 0
M  V30 6950 O 661.483 2.73766 3.42029 0
M  V30 6951 C 662.984 1.15246 4.28058 0
M  V30 6952 H 660.204 0.318152 0.590779 0
M  V30 6953 H 662.748 1.48398 1.40707 0
M  V30 6954 H 660.903 0.79239 3.7921 0
M  V30 6955 H 661.317 2.9355 4.34659 0
M  V30 6956 H 662.791 1.52015 5.30656 0
M  V30 6957 H 663.268 0.0922007 4.39103 0
M  V30 6958 H 663.874 1.69136 3.90222 0
M  V30 6959 N 662.189 -1.289 0.906776 0
M  V30 6960 C 663.435 -1.95558 0.53712 0
M  V30 6961 C 663.768 -1.71262 -0.915582 0
M  V30 6962 O 663.043 -1.02961 -1.65013 0
M  V30 6963 C 663.326 -3.50198 0.838645 0
M  V30 6964 C 663.179 -3.83923 2.34357 0
M  V30 6965 C 664.498 -4.38861 0.329988 0
M  V30 6966 H 661.617 -0.710289 0.196617 0
M  V30 6967 H 664.259 -1.52392 1.13475 0
M  V30 6968 H 662.409 -3.87096 0.330024 0
M  V30 6969 H 664.081 -3.56933 2.92227 0
M  V30 6970 H 662.324 -3.31215 2.80141 0
M  V30 6971 H 662.995 -4.91883 2.5051 0
M  V30 6972 H 665.471 -4.08996 0.765609 0
M  V30 6973 H 664.347 -5.45931 0.570105 0
M  V30 6974 H 664.608 -4.35352 -0.769511 0
M  V30 6975 N 663.667 -0.670007 -1.42649 0
M  V30 6976 C 664.916 -0.187526 -2.00826 0
M  V30 6977 C 665.229 1.21142 -1.53571 0
M  V30 6978 O 666.435 1.79001 -2.04134 0
M  V30 6979 C 664.891 -0.284409 -3.58774 0
M  V30 6980 C 664.499 -1.6871 -4.15019 0
M  V30 6981 C 666.243 0.139605 -4.2427 0
M  V30 6982 C 664.15 -1.73701 -5.65316 0
M  V30 6983 H 663.08 -0.0663468 -0.751075 0
M  V30 6984 H 665.731 -0.834492 -1.63427 0
M  V30 6985 H 664.113 0.430364 -3.93655 0
M  V30 6986 H 665.287 -2.42857 -3.91608 0
M  V30 6987 H 663.602 -2.05855 -3.61957 0
M  V30 6988 H 666.199 0.122398 -5.3456 0
M  V30 6989 H 666.542 1.17403 -3.99402 0
M  V30 6990 H 667.075 -0.523995 -3.94334 0
M  V30 6991 H 663.814 -2.75109 -5.94975 0
M  V30 6992 H 663.334 -1.03903 -5.90732 0
M  V30 6993 H 665.013 -1.48829 -6.2965 0
M  V30 6994 N 665.145 1.52092 -0.413018 0
M  V30 6995 C 666.392 2.01855 0.161497 0
M  V30 6996 C 666.72 1.29845 1.44812 0
M  V30 6997 O 665.975 0.394471 1.91683 0
M  V30 6998 C 666.274 3.54529 0.4521 0
M  V30 6999 C 665.94 4.4469 -0.745788 0
M  V30 7000 C 664.602 4.69053 -1.07435 0
M  V30 7001 C 666.954 4.97742 -1.54604 0
M  V30 7002 C 664.282 5.43717 -2.20429 0
M  V30 7003 C 666.634 5.73642 -2.66678 0
M  V30 7004 C 665.298 5.96277 -3.00016 0
M  V30 7005 H 664.568 0.73864 0.0590961 0
M  V30 7006 H 667.215 1.83274 -0.555234 0
M  V30 7007 H 665.52 3.7131 1.25045 0
M  V30 7008 H 667.217 3.90546 0.909647 0
M  V30 7009 H 663.807 4.25907 -0.479725 0
M  V30 7010 H 667.991 4.78824 -1.30543 0
M  V30 7011 H 663.247 5.59462 -2.46602 0
M  V30 7012 H 667.421 6.13746 -3.29072 0
M  V30 7013 H 665.048 6.53913 -3.87688 0
M  V30 7014 N 666.623 0.143563 1.56945 0
M  V30 7015 C 667.555 -0.828353 2.13708 0
M  V30 7016 C 668.568 -1.21313 1.08568 0
M  V30 7017 O 669.757 -1.1578 1.35857 0
M  V30 7018 C 666.857 -2.12248 2.64204 0
M  V30 7019 C 666.03 -1.90561 3.93707 0
M  V30 7020 C 665.089 -3.03931 4.29549 0
M  V30 7021 O 664.115 -2.75772 4.97934 0
M  V30 7022 N 665.317 -4.31016 3.88852 0
M  V30 7023 H 668.082 -0.343242 2.97728 0
M  V30 7024 H 665.643 -0.0401152 1.6185 0
M  V30 7025 H 667.635 -2.87132 2.85197 0
M  V30 7026 H 666.205 -2.52033 1.84928 0
M  V30 7027 H 665.425 -0.997327 3.81375 0
M  V30 7028 H 666.713 -1.73405 4.78339 0
M  V30 7029 H 666.111 -4.56762 3.33743 0
M  V30 7030 H 664.668 -5.02691 4.14903 0
M  V30 7031 N 668.101 -1.57061 -0.130224 0
M  V30 7032 C 669.349 -1.83893 -0.838313 0
M  V30 7033 C 669.67 -0.727046 -1.80939 0
M  V30 7034 O 668.94 0.249927 -1.94299 0
M  V30 7035 H 667.52 -0.67846 -0.312573 0
M  V30 7036 H 670.182 -1.94529 -0.120224 0
M  V30 7037 H 669.278 -2.79419 -1.39038 0
M  V30 7038 N 669.579 0.400081 -1.52437 0
M  V30 7039 C 670.509 1.4947 -1.7939 0
M  V30 7040 C 671.49 1.57383 -0.645329 0
M  V30 7041 O 672.675 1.72511 -0.891826 0
M  V30 7042 C 669.805 2.87201 -1.95276 0
M  V30 7043 C 668.759 2.94134 -3.10917 0
M  V30 7044 C 668.085 4.34207 -3.1204 0
M  V30 7045 C 669.385 2.64791 -4.50203 0
M  V30 7046 H 671.079 1.27165 -2.71052 0
M  V30 7047 H 668.625 0.610312 -1.30427 0
M  V30 7048 H 670.578 3.63772 -2.12715 0
M  V30 7049 H 669.302 3.10819 -1.00294 0
M  V30 7050 H 667.961 2.20009 -2.93243 0
M  V30 7051 H 667.609 4.54848 -2.14761 0
M  V30 7052 H 667.309 4.39768 -3.89715 0
M  V30 7053 H 668.833 5.127 -3.31619 0
M  V30 7054 H 670.247 3.31083 -4.68035 0
M  V30 7055 H 668.644 2.81717 -5.29864 0
M  V30 7056 H 669.714 1.60184 -4.57678 0
M  V30 7057 N 671.057 1.43213 0.657864 0
M  V30 7058 C 672.285 1.48015 1.44566 0
M  V30 7059 C 672.7 0.0965951 1.88553 0
M  V30 7060 O 672.057 -0.892221 1.59203 0
M  V30 7061 C 672.108 2.42199 2.68369 0
M  V30 7062 O 671.829 3.75173 2.26223 0
M  V30 7063 C 673.33 2.56195 3.61772 0
M  V30 7064 H 670.55 0.502861 0.444266 0
M  V30 7065 H 673.094 1.87907 0.806917 0
M  V30 7066 H 671.249 2.05514 3.28394 0
M  V30 7067 H 671.663 4.25776 3.06293 0
M  V30 7068 H 673.137 3.26182 4.4532 0
M  V30 7069 H 673.614 1.60534 4.0881 0
M  V30 7070 H 674.22 2.93671 3.07632 0
M  V30 7071 N 672.536 -0.895792 1.29666 0
M  V30 7072 C 673.785 -1.64131 1.17234 0
M  V30 7073 C 674.098 -1.93665 -0.274416 0
M  V30 7074 O 675.304 -2.66472 -0.520105 0
M  V30 7075 C 673.76 -2.95764 2.05065 0
M  V30 7076 C 673.368 -2.7381 3.54587 0
M  V30 7077 C 675.112 -3.737 2.01367 0
M  V30 7078 C 673.019 -4.01194 4.34508 0
M  V30 7079 H 671.949 -0.615742 0.435175 0
M  V30 7080 H 674.6 -0.992626 1.54335 0
M  V30 7081 H 672.982 -3.61867 1.60837 0
M  V30 7082 H 674.156 -2.16277 4.06892 0
M  V30 7083 H 672.471 -2.09265 3.59996 0
M  V30 7084 H 675.068 -4.68152 2.58337 0
M  V30 7085 H 675.411 -4.04245 0.994575 0
M  V30 7086 H 675.944 -3.14444 2.43659 0
M  V30 7087 H 672.683 -3.75813 5.37071 0
M  V30 7088 H 672.203 -4.58272 3.86971 0
M  V30 7089 H 673.882 -4.69307 4.45376 0
M  V30 7090 N 674.014 -1.12206 -1.10668 0
M  V30 7091 C 674.961 -0.787716 -2.16942 0
M  V30 7092 C 675.931 0.244442 -1.64291 0
M  V30 7093 O 677.116 0.119558 -1.90425 0
M  V30 7094 C 674.256 -0.24584 -3.44223 0
M  V30 7095 C 673.369 -1.33552 -4.10838 0
M  V30 7096 C 672.504 -0.753337 -5.25831 0
M  V30 7097 C 671.543 -1.82231 -5.84344 0
M  V30 7098 N 670.68 -1.25902 -6.90719 0
M  V30 7099 H 675.52 -1.69809 -2.44885 0
M  V30 7100 H 673.057 -0.847862 -1.20207 0
M  V30 7101 H 675.015 0.0863639 -4.17111 0
M  V30 7102 H 673.645 0.627702 -3.16638 0
M  V30 7103 H 672.697 -1.78454 -3.35944 0
M  V30 7104 H 674.009 -2.14396 -4.50373 0
M  V30 7105 H 673.163 -0.37166 -6.05561 0
M  V30 7106 H 671.902 0.0863297 -4.87624 0
M  V30 7107 H 670.907 -2.2132 -5.03287 0
M  V30 7108 H 672.132 -2.66515 -6.24617 0
M  V30 7109 H 670.078 -0.44114 -6.54515 0
M  V30 7110 H 669.995 -2.00408 -7.28953 0
M  V30 7111 H 671.263 -0.904498 -7.74235 0
M  V30 7112 N 675.492 1.28418 -0.913599 0
M  V30 7113 C 676.903 1.77024 -0.593237 0
M  V30 7114 C 677.254 1.74779 0.891441 0
M  V30 7115 O 676.379 1.34237 1.69733 0
M  V30 7116 C 676.974 3.21456 -1.07011 0
M  V30 7117 C 675.533 3.67786 -0.800664 0
M  V30 7118 C 674.68 2.48185 -1.23691 0
M  V30 7119 H 677.631 1.14883 -1.09487 0
M  V30 7120 H 677.652 3.78269 -0.411481 0
M  V30 7121 H 677.164 3.23058 -2.1507 0
M  V30 7122 H 675.265 3.71644 0.266725 0
M  V30 7123 H 675.378 4.57934 -1.4083 0
M  V30 7124 H 673.742 2.46116 -0.655655 0
M  V30 7125 H 674.525 2.52506 -2.32585 0
M  V30 7126 N 676.97 0.677563 1.42291 0
M  V30 7127 C 677.9 0.014968 2.33495 0
M  V30 7128 C 678.881 -0.786376 1.50831 0
M  V30 7129 O 680.066 -0.742975 1.79426 0
M  V30 7130 C 677.196 -0.935023 3.34477 0
M  V30 7131 C 676.15 -0.242074 4.27315 0
M  V30 7132 C 675.476 -1.30519 5.18526 0
M  V30 7133 C 676.776 0.880604 5.14823 0
M  V30 7134 H 678.47 0.776671 2.89151 0
M  V30 7135 H 676.016 0.37494 1.39033 0
M  V30 7136 H 677.969 -1.40766 3.97194 0
M  V30 7137 H 676.693 -1.72818 2.77131 0
M  V30 7138 H 675.352 0.210351 3.65996 0
M  V30 7139 H 675 -2.09041 4.57505 0
M  V30 7140 H 674.7 -0.846652 5.81468 0
M  V30 7141 H 676.224 -1.7787 5.84119 0
M  V30 7142 H 677.638 0.489062 5.7121 0
M  V30 7143 H 676.035 1.26511 5.86613 0
M  V30 7144 H 677.105 1.72818 4.53059 0
M  V30 7145 N 678.448 -1.51871 0.421078 0
M  V30 7146 C 679.694 -2.02237 -0.151014 0
M  V30 7147 C 680.027 -1.30554 -1.43768 0
M  V30 7148 O 679.302 -0.41546 -1.90011 0
M  V30 7149 C 679.585 -3.5802 -0.386482 0
M  V30 7150 C 679.438 -4.40339 0.9177 0
M  V30 7151 C 680.757 -4.24444 -1.16342 0
M  V30 7152 H 677.876 -0.735062 -0.0534102 0
M  V30 7153 H 680.518 -1.81656 0.556888 0
M  V30 7154 H 678.668 -3.75688 -0.989494 0
M  V30 7155 H 680.34 -4.34357 1.55344 0
M  V30 7156 H 678.583 -4.06073 1.526 0
M  V30 7157 H 679.254 -5.47451 0.707187 0
M  V30 7158 H 681.73 -4.10948 -0.652788 0
M  V30 7159 H 680.606 -5.33358 -1.29693 0
M  V30 7160 H 680.867 -3.84204 -2.18724 0
M  V30 7161 N 679.926 -0.151884 -1.56866 0
M  V30 7162 C 680.858 0.817008 -2.14144 0
M  V30 7163 C 681.871 1.20735 -1.0921 0
M  V30 7164 O 683.06 1.15058 -1.36469 0
M  V30 7165 C 680.16 2.10844 -2.65326 0
M  V30 7166 C 679.333 1.88471 -3.94712 0
M  V30 7167 C 678.392 3.01649 -4.31155 0
M  V30 7168 O 677.418 2.73127 -4.9939 0
M  V30 7169 N 678.62 4.28947 -3.91132 0
M  V30 7170 H 681.385 0.327448 -2.97906 0
M  V30 7171 H 678.946 0.0315313 -1.61869 0
M  V30 7172 H 680.938 2.85616 -2.86715 0
M  V30 7173 H 679.508 2.51049 -1.86262 0
M  V30 7174 H 678.728 0.977088 -3.81899 0
M  V30 7175 H 680.016 1.70866 -4.79252 0
M  V30 7176 H 679.414 4.54986 -3.36161 0
M  V30 7177 H 677.971 5.00484 -4.17563 0
M  V30 7178 N 681.404 1.57128 0.121893 0
M  V30 7179 C 682.65 1.85853 0.826451 0
M  V30 7180 C 683.005 0.739262 1.77631 0
M  V30 7181 O 682.298 -0.260959 1.89815 0
M  V30 7182 C 682.492 3.1874 1.61677 0
M  V30 7183 C 682.321 4.43487 0.744944 0
M  V30 7184 C 681.091 5.03707 0.400891 0
M  V30 7185 C 683.289 5.1426 0.0638779 0
M  V30 7186 N 681.271 6.12006 -0.481902 0
M  V30 7187 C 682.642 6.16281 -0.678033 0
M  V30 7188 C 684.697 4.97898 -0.0128424 0
M  V30 7189 C 683.4 7.0371 -1.48946 0
M  V30 7190 C 685.426 5.85812 -0.81108 0
M  V30 7191 C 684.788 6.87333 -1.54119 0
M  V30 7192 H 680.887 0.730367 0.279442 0
M  V30 7193 H 683.471 1.9449 0.0903486 0
M  V30 7194 H 681.642 3.11204 2.32393 0
M  V30 7195 H 683.374 3.35283 2.26644 0
M  V30 7196 H 680.129 4.67744 0.742469 0
M  V30 7197 H 680.553 6.70787 -0.915063 0
M  V30 7198 H 685.195 4.19372 0.537278 0
M  V30 7199 H 682.913 7.81646 -2.05074 0
M  V30 7200 H 686.499 5.75217 -0.872764 0
M  V30 7201 H 685.379 7.54182 -2.14893 0
M  V30 7202 N 682.882 -0.391992 1.52647 0
M  V30 7203 C 683.812 -1.48517 1.8018 0
M  V30 7204 C 684.793 -1.57039 0.653667 0
M  V30 7205 O 685.978 -1.72036 0.900962 0
M  V30 7206 C 683.108 -2.86161 1.96797 0
M  V30 7207 C 682.062 -2.92481 3.12472 0
M  V30 7208 C 681.388 -4.32546 3.14338 0
M  V30 7209 C 682.688 -2.624 4.51601 0
M  V30 7210 H 684.382 -1.25726 2.71723 0
M  V30 7211 H 681.928 -0.603387 1.30749 0
M  V30 7212 H 683.881 -3.62639 2.14641 0
M  V30 7213 H 682.605 -3.10283 1.01941 0
M  V30 7214 H 681.264 -2.18451 2.94406 0
M  V30 7215 H 680.912 -4.53703 2.1717 0
M  V30 7216 H 680.612 -4.37695 3.92042 0
M  V30 7217 H 682.136 -5.10934 3.34333 0
M  V30 7218 H 683.55 -3.28596 4.69785 0
M  V30 7219 H 681.947 -2.78903 5.3135 0
M  V30 7220 H 683.017 -1.57754 4.58521 0
M  V30 7221 N 684.36 -1.4356 -0.65026 0
M  V30 7222 C 685.307 -1.48948 -1.76304 0
M  V30 7223 C 686.277 -0.338919 -1.62605 0
M  V30 7224 O 687.462 -0.54649 -1.82806 0
M  V30 7225 C 684.602 -1.42131 -3.14472 0
M  V30 7226 C 683.715 -2.67415 -3.39284 0
M  V30 7227 C 682.85 -2.52565 -4.67316 0
M  V30 7228 C 681.889 -3.73103 -4.85243 0
M  V30 7229 N 681.026 -3.57046 -6.04535 0
M  V30 7230 H 685.866 -2.44032 -1.71034 0
M  V30 7231 H 683.403 -1.21131 -0.834601 0
M  V30 7232 H 685.361 -1.36172 -3.94351 0
M  V30 7233 H 683.991 -0.506273 -3.18805 0
M  V30 7234 H 683.043 -2.8364 -2.53481 0
M  V30 7235 H 684.355 -3.56943 -3.48415 0
M  V30 7236 H 683.509 -2.44331 -5.55326 0
M  V30 7237 H 682.248 -1.60566 -4.60511 0
M  V30 7238 H 681.253 -3.81743 -3.95667 0
M  V30 7239 H 682.478 -4.66115 -4.93876 0
M  V30 7240 H 680.424 -2.67783 -5.98856 0
M  V30 7241 H 680.341 -4.40178 -6.14638 0
M  V30 7242 H 681.609 -3.52669 -6.95158 0
M  V30 7243 N 685.838 0.888903 -1.30139 0
M  V30 7244 C 687.084 1.6428 -1.18912 0
M  V30 7245 C 687.417 1.92499 0.256477 0
M  V30 7246 O 686.692 1.54312 1.18397 0
M  V30 7247 C 686.975 2.9851 -2.01405 0
M  V30 7248 C 686.828 2.77288 -3.54163 0
M  V30 7249 C 688.147 3.99383 -1.84882 0
M  V30 7250 H 685.266 0.596148 -0.433333 0
M  V30 7251 H 687.908 1.0289 -1.5973 0
M  V30 7252 H 686.058 3.50907 -1.66722 0
M  V30 7253 H 687.73 2.31709 -3.98884 0
M  V30 7254 H 685.973 2.11867 -3.78543 0
M  V30 7255 H 686.644 3.72717 -4.07168 0
M  V30 7256 H 689.12 3.56132 -2.15196 0
M  V30 7257 H 687.996 4.91222 -2.44934 0
M  V30 7258 H 688.257 4.34674 -0.806902 0
M  V30 7259 N 687.317 1.12792 1.10072 0
M  V30 7260 C 688.264 0.79921 2.16521 0
M  V30 7261 C 689.234 -0.235726 1.64419 0
M  V30 7262 O 690.419 -0.109457 1.90486 0
M  V30 7263 C 687.559 0.264091 3.44088 0
M  V30 7264 C 686.672 1.35729 4.10124 0
M  V30 7265 C 685.807 0.781212 5.25424 0
M  V30 7266 C 684.846 1.85327 5.8337 0
M  V30 7267 N 683.983 1.29564 6.90042 0
M  V30 7268 H 688.823 1.71105 2.43981 0
M  V30 7269 H 686.36 0.854225 1.19756 0
M  V30 7270 H 688.318 -0.0642423 4.17151 0
M  V30 7271 H 686.948 -0.610901 3.16967 0
M  V30 7272 H 686 1.80234 3.34993 0
M  V30 7273 H 687.312 2.16782 4.4923 0
M  V30 7274 H 686.466 0.403769 6.05355 0
M  V30 7275 H 685.205 -0.0604686 4.87663 0
M  V30 7276 H 684.21 2.23986 5.02106 0
M  V30 7277 H 685.435 2.69824 6.23195 0
M  V30 7278 H 683.381 0.475844 6.54272 0
M  V30 7279 H 683.298 2.04271 7.2788 0
M  V30 7280 H 684.566 0.945545 7.73744 0
M  V30 7281 N 688.795 -1.27931 0.920396 0
M  V30 7282 C 690.211 -1.47085 0.619537 0
M  V30 7283 C 690.411 -1.83463 -0.833291 0
M  V30 7284 O 689.467 -1.94363 -1.61181 0
M  V30 7285 C 690.78 -2.56878 1.56314 0
M  V30 7286 C 692.328 -2.70743 1.57058 0
M  V30 7287 C 692.803 -3.83687 2.50097 0
M  V30 7288 N 694.294 -3.9105 2.48262 0
M  V30 7289 C 695.029 -4.77842 3.16945 0
M  V30 7290 N 694.525 -5.69176 3.94982 0
M  V30 7291 N 696.318 -4.71509 3.06 0
M  V30 7292 H 688.469 -1.02601 1.85975 0
M  V30 7293 H 690.732 -0.511682 0.798051 0
M  V30 7294 H 690.438 -2.36923 2.59923 0
M  V30 7295 H 690.312 -3.54117 1.29928 0
M  V30 7296 H 692.699 -2.90083 0.541832 0
M  V30 7297 H 692.78 -1.74015 1.8749 0
M  V30 7298 H 692.424 -3.65101 3.53077 0
M  V30 7299 H 692.354 -4.79827 2.16964 0
M  V30 7300 H 694.845 -3.25738 1.91581 0
M  V30 7301 H 695.158 -6.32245 4.44394 0
M  V30 7302 H 693.503 -5.68995 3.99086 0
M  V30 7303 H 696.694 -3.99151 2.44533 0
M  V30 7304 H 696.867 -5.38933 3.59799 0
M  V30 7305 N 690.273 -0.685099 -1.4193 0
M  V30 7306 C 691.498 -0.218842 -2.06242 0
M  V30 7307 C 691.923 1.11923 -1.51178 0
M  V30 7308 O 691.281 1.69837 -0.634446 0
M  V30 7309 C 691.329 -0.175592 -3.60172 0
M  V30 7310 O 690.433 0.852776 -4.03487 0
M  V30 7311 H 689.774 -0.109531 -0.654904 0
M  V30 7312 H 692.304 -0.937013 -1.81882 0
M  V30 7313 H 692.314 -0.00291151 -4.08 0
M  V30 7314 H 690.989 -1.15222 -3.99621 0
M  V30 7315 H 689.566 0.650301 -3.67186 0
M  V30 7316 N 691.751 1.51645 -0.429126 0
M  V30 7317 C 692.661 2.31288 0.392809 0
M  V30 7318 C 693.677 1.39852 1.03525 0
M  V30 7319 O 694.853 1.72926 1.03241 0
M  V30 7320 C 691.918 3.13347 1.48372 0
M  V30 7321 C 690.979 4.20551 0.862268 0
M  V30 7322 C 690.212 4.98688 1.9012 0
M  V30 7323 O 690.435 4.77359 3.12225 0
M  V30 7324 O 689.369 5.83005 1.4963 0
M  V30 7325 H 693.195 3.02609 -0.257138 0
M  V30 7326 H 690.78 1.48163 -0.191851 0
M  V30 7327 H 692.662 3.64387 2.1166 0
M  V30 7328 H 691.337 2.44799 2.1179 0
M  V30 7329 H 690.244 3.73609 0.191568 0
M  V30 7330 H 691.577 4.91449 0.271704 0
M  V30 7331 N 693.229 0.160201 1.56784 0
M  V30 7332 C 694.179 -0.786461 2.14007 0
M  V30 7333 C 695.163 -1.20046 1.07134 0
M  V30 7334 O 696.355 -1.16468 1.33283 0
M  V30 7335 C 693.484 -2.02024 2.77563 0
M  V30 7336 C 692.57 -1.62874 3.91578 0
M  V30 7337 N 692.961 -0.946176 4.96871 0
M  V30 7338 C 691.259 -1.92054 4.02531 0
M  V30 7339 C 691.96 -0.755084 5.76778 0
M  V30 7340 N 690.936 -1.29307 5.27997 0
M  V30 7341 H 694.738 -0.255879 2.92784 0
M  V30 7342 H 692.252 -0.0408778 1.62349 0
M  V30 7343 H 694.249 -2.70855 3.16928 0
M  V30 7344 H 692.909 -2.55587 2.00263 0
M  V30 7345 H 693.92 -0.605455 5.14349 0
M  V30 7346 H 690.597 -2.47374 3.36322 0
M  V30 7347 H 691.987 -0.216138 6.71552 0
M  V30 7348 N 694.707 -1.5719 -0.113559 0
M  V30 7349 C 696.123 -1.52607 -0.467253 0
M  V30 7350 C 696.323 -0.874058 -1.81556 0
M  V30 7351 O 695.379 -0.458703 -2.48299 0
M  V30 7352 C 696.692 -2.97363 -0.446736 0
M  V30 7353 C 698.24 -3.08482 -0.529903 0
M  V30 7354 C 698.715 -4.54809 -0.539721 0
M  V30 7355 N 700.206 -4.59284 -0.601005 0
M  V30 7356 C 700.941 -5.69927 -0.630138 0
M  V30 7357 N 700.437 -6.90051 -0.616589 0
M  V30 7358 N 702.23 -5.5805 -0.673558 0
M  V30 7359 H 694.381 -1.97958 0.769819 0
M  V30 7360 H 696.644 -0.90428 0.284572 0
M  V30 7361 H 696.35 -3.48458 0.47643 0
M  V30 7362 H 696.224 -3.55086 -1.27254 0
M  V30 7363 H 698.611 -2.57386 -1.44349 0
M  V30 7364 H 698.692 -2.53744 0.323695 0
M  V30 7365 H 698.336 -5.06552 0.369843 0
M  V30 7366 H 698.266 -5.07364 -1.41028 0
M  V30 7367 H 700.757 -3.72822 -0.617419 0
M  V30 7368 H 701.07 -7.70132 -0.641592 0
M  V30 7369 H 699.415 -6.92543 -0.583927 0
M  V30 7370 H 702.606 -4.63112 -0.681544 0
M  V30 7371 H 702.779 -6.44286 -0.692794 0
M  V30 7372 N 696.185 0.383891 -1.52853 0
M  V30 7373 C 697.095 1.49343 -1.80925 0
M  V30 7374 C 698.111 1.59458 -0.696348 0
M  V30 7375 O 699.287 1.75698 -0.984481 0
M  V30 7376 C 696.352 2.84819 -1.97684 0
M  V30 7377 C 695.413 2.84382 -3.21598 0
M  V30 7378 C 694.646 4.13397 -3.37548 0
M  V30 7379 O 694.869 5.08619 -2.58192 0
M  V30 7380 O 693.803 4.20325 -4.30826 0
M  V30 7381 H 697.629 1.2855 -2.75152 0
M  V30 7382 H 695.214 0.572229 -1.38007 0
M  V30 7383 H 697.096 3.65125 -2.10385 0
M  V30 7384 H 695.771 3.05627 -1.06647 0
M  V30 7385 H 694.678 2.0284 -3.14336 0
M  V30 7386 H 696.011 2.68526 -4.12498 0
M  V30 7387 N 697.663 1.43903 0.642637 0
M  V30 7388 C 699.074 1.40975 1.22404 0
M  V30 7389 C 699.425 0.1192 1.95838 0
M  V30 7390 O 698.55 -0.780939 2.01818 0
M  V30 7391 C 699.145 2.5538 2.22636 0
M  V30 7392 C 697.704 2.55684 2.76229 0
M  V30 7393 C 696.851 2.32556 1.51039 0
M  V30 7394 H 699.802 1.5265 0.434006 0
M  V30 7395 H 699.823 2.27474 3.05017 0
M  V30 7396 H 699.335 3.49294 1.69161 0
M  V30 7397 H 697.436 1.65679 3.33738 0
M  V30 7398 H 697.549 3.53799 3.23053 0
M  V30 7399 H 695.913 1.81427 1.78764 0
M  V30 7400 H 696.696 3.28569 0.99484 0
M  V30 7401 N 699.141 -0.881989 1.30609 0
M  V30 7402 C 700.557 -1.16576 1.09005 0
M  V30 7403 C 700.757 -2.00961 -0.14727 0
M  V30 7404 O 699.813 -2.38117 -0.840036 0
M  V30 7405 C 701.126 -1.86954 2.35518 0
M  V30 7406 C 702.674 -1.99706 2.41011 0
M  V30 7407 C 703.149 -2.73497 3.67374 0
M  V30 7408 N 704.64 -2.8104 3.68199 0
M  V30 7409 C 705.375 -3.38718 4.62664 0
M  V30 7410 N 704.871 -3.97421 5.67475 0
M  V30 7411 N 706.664 -3.36561 4.50203 0
M  V30 7412 H 698.815 -0.319398 2.09985 0
M  V30 7413 H 701.078 -0.204058 0.925778 0
M  V30 7414 H 700.784 -1.32393 3.2583 0
M  V30 7415 H 700.658 -2.87317 2.44395 0
M  V30 7416 H 703.045 -2.53436 1.51176 0
M  V30 7417 H 703.126 -0.984218 2.36108 0
M  V30 7418 H 702.77 -2.20438 4.57569 0
M  V30 7419 H 702.7 -3.75163 3.6954 0
M  V30 7420 H 705.191 -2.39365 2.92426 0
M  V30 7421 H 705.504 -4.39507 6.35652 0
M  V30 7422 H 703.849 -3.95832 5.71264 0
M  V30 7423 H 707.04 -2.8993 3.67503 0
M  V30 7424 H 707.213 -3.81215 5.24003 0
M  V30 7425 N 700.619 -1.13374 -1.09472 0
M  V30 7426 C 701.549 -0.833268 -2.18126 0
M  V30 7427 C 702.53 0.207169 -1.68834 0
M  V30 7428 O 703.715 0.0662012 -1.94087 0
M  V30 7429 C 700.845 -0.297979 -3.46019 0
M  V30 7430 C 699.799 -1.27261 -4.08642 0
M  V30 7431 C 699.125 -0.597104 -5.31356 0
M  V30 7432 C 700.425 -2.63095 -4.51197 0
M  V30 7433 H 702.119 -1.74182 -2.43518 0
M  V30 7434 H 699.665 -0.838921 -1.17039 0
M  V30 7435 H 701.618 -0.0754444 -4.21332 0
M  V30 7436 H 700.342 0.645959 -3.20148 0
M  V30 7437 H 699.001 -1.48113 -3.35348 0
M  V30 7438 H 698.649 0.352293 -5.01765 0
M  V30 7439 H 698.349 -1.24734 -5.74208 0
M  V30 7440 H 699.873 -0.38384 -6.09392 0
M  V30 7441 H 701.287 -2.46214 -5.17737 0
M  V30 7442 H 699.684 -3.2429 -5.04932 0
M  V30 7443 H 700.754 -3.20793 -3.6362 0
M  V30 7444 N 702.098 1.27442 -0.927168 0
M  V30 7445 C 703.046 2.28844 -0.416333 0
M  V30 7446 C 704.04 1.61882 0.499057 0
M  V30 7447 O 705.246 1.75969 0.378817 0
M  V30 7448 H 701.621 0.742989 -0.116065 0
M  V30 7449 H 703.592 2.69344 -1.28438 0
M  V30 7450 C 702.341 3.4626 0.316107 0
M  V30 7451 H 701.664 3.97999 -0.379082 0
M  V30 7452 H 703.104 4.19173 0.637975 0
M  V30 7453 C 701.563 3.00211 1.5289 0
M  V30 7454 O 702.093 3.03837 2.62766 0
M  V30 7455 N 700.299 2.55713 1.38054 0
M  V30 7456 H 699.846 2.52962 0.4866 0
M  V30 7457 H 699.804 2.25264 2.19325 0
M  V30 7458 N 703.576 0.692616 1.41565 0
M  V30 7459 C 704.486 0.0258451 2.34586 0
M  V30 7460 C 705.502 -0.769324 1.56069 0
M  V30 7461 O 706.678 -0.707563 1.88562 0
M  V30 7462 C 703.743 -0.901289 3.3478 0
M  V30 7463 C 702.804 -0.0986579 4.29187 0
M  V30 7464 C 702.037 -0.981634 5.24595 0
M  V30 7465 O 702.26 -2.22115 5.25377 0
M  V30 7466 O 701.194 -0.432892 6.00341 0
M  V30 7467 H 705.02 0.792537 2.93177 0
M  V30 7468 H 702.605 0.452935 1.42369 0
M  V30 7469 H 704.487 -1.43302 3.96286 0
M  V30 7470 H 703.162 -1.64752 2.78637 0
M  V30 7471 H 702.069 0.477604 3.71039 0
M  V30 7472 H 703.402 0.608848 4.8842 0
M  V30 7473 N 705.054 -1.51416 0.437162 0
M  V30 7474 C 706.001 -2.27743 -0.374374 0
M  V30 7475 C 706.971 -1.31327 -1.01698 0
M  V30 7476 O 708.156 -1.60229 -1.03592 0
M  V30 7477 C 705.296 -3.12241 -1.46969 0
M  V30 7478 C 704.409 -4.23651 -0.845236 0
M  V30 7479 C 703.544 -4.95458 -1.91559 0
M  V30 7480 C 702.583 -5.98789 -1.26956 0
M  V30 7481 N 701.72 -6.64005 -2.28126 0
M  V30 7482 H 706.56 -2.96654 0.282892 0
M  V30 7483 H 704.097 -1.46319 0.151352 0
M  V30 7484 H 706.055 -3.59556 -2.11602 0
M  V30 7485 H 704.685 -2.45445 -2.09659 0
M  V30 7486 H 703.737 -3.803 -0.0872059 0
M  V30 7487 H 705.049 -4.97683 -0.333582 0
M  V30 7488 H 704.203 -5.46321 -2.63854 0
M  V30 7489 H 702.942 -4.21055 -2.46097 0
M  V30 7490 H 701.947 -5.47219 -0.53207 0
M  V30 7491 H 703.172 -6.75149 -0.731509 0
M  V30 7492 H 701.118 -5.92415 -2.81745 0
M  V30 7493 H 701.035 -7.33802 -1.81852 0
M  V30 7494 H 702.303 -7.19498 -2.99905 0
M  V30 7495 N 706.532 -0.168513 -1.56696 0
M  V30 7496 C 707.462 0.758563 -2.20835 0
M  V30 7497 C 708.443 1.24121 -1.1631 0
M  V30 7498 O 709.628 1.29487 -1.4473 0
M  V30 7499 C 706.758 1.9892 -2.8469 0
M  V30 7500 C 705.712 1.64252 -3.95228 0
M  V30 7501 C 705.038 2.94757 -4.46119 0
M  V30 7502 C 706.338 0.872675 -5.14958 0
M  V30 7503 H 708.032 0.223953 -2.98561 0
M  V30 7504 H 705.578 0.106277 -1.43607 0
M  V30 7505 H 707.531 2.64275 -3.28233 0
M  V30 7506 H 706.255 2.5479 -2.04327 0
M  V30 7507 H 704.914 1.01266 -3.52336 0
M  V30 7508 H 704.562 3.48662 -3.62552 0
M  V30 7509 H 704.262 2.72316 -5.2069 0
M  V30 7510 H 705.786 3.61147 -4.92347 0
M  V30 7511 H 707.2 1.42875 -5.55211 0
M  V30 7512 H 705.597 0.747402 -5.95428 0
M  V30 7513 H 706.667 -0.131535 -4.84722 0
M  V30 7514 N 708.01 1.57248 0.105221 0
M  V30 7515 C 708.96 1.9777 1.1345 0
M  V30 7516 C 709.944 0.854654 1.36325 0
M  V30 7517 O 711.136 1.11844 1.37186 0
M  V30 7518 C 708.265 2.39717 2.45745 0
M  V30 7519 C 707.351 3.58686 2.26286 0
M  V30 7520 N 707.742 4.73942 1.76671 0
M  V30 7521 C 706.04 3.64586 2.56891 0
M  V30 7522 C 706.741 5.55923 1.71245 0
M  V30 7523 N 705.717 4.98803 2.16093 0
M  V30 7524 H 709.519 2.84336 0.743664 0
M  V30 7525 H 707.033 1.59359 0.312787 0
M  V30 7526 H 709.03 2.66971 3.20206 0
M  V30 7527 H 707.69 1.54523 2.85574 0
M  V30 7528 H 708.701 4.9689 1.46016 0
M  V30 7529 H 705.378 2.90031 3.00314 0
M  V30 7530 H 706.768 6.58398 1.34022 0
M  V30 7531 N 709.488 -0.375779 1.53054 0
M  V30 7532 C 710.736 -1.11727 1.68409 0
M  V30 7533 C 711.057 -1.90127 0.43323 0
M  V30 7534 O 710.327 -1.87945 -0.552595 0
M  V30 7535 H 708.907 -0.415451 0.620813 0
M  V30 7536 H 711.569 -0.424869 1.90213 0
M  V30 7537 H 710.665 -1.8128 2.54055 0
M  V30 7538 N 710.966 -1.44241 -0.634997 0
M  V30 7539 C 712.382 -1.28043 -0.952742 0
M  V30 7540 C 712.582 -0.21338 -2.00367 0
M  V30 7541 O 711.638 0.402042 -2.49279 0
M  V30 7542 C 712.951 -2.65076 -1.41968 0
M  V30 7543 C 714.499 -2.72755 -1.53537 0
M  V30 7544 C 714.974 -4.10249 -2.03616 0
M  V30 7545 N 716.465 -4.12406 -2.10892 0
M  V30 7546 C 717.2 -5.15641 -2.50803 0
M  V30 7547 N 716.696 -6.29239 -2.89879 0
M  V30 7548 N 718.489 -5.02995 -2.50903 0
M  V30 7549 H 710.64 -2.12315 0.060098 0
M  V30 7550 H 712.903 -0.947326 -0.0357325 0
M  V30 7551 H 712.609 -3.44213 -0.721804 0
M  V30 7552 H 712.483 -2.91704 -2.39141 0
M  V30 7553 H 714.87 -1.93939 -2.22422 0
M  V30 7554 H 714.951 -2.49872 -0.547496 0
M  V30 7555 H 714.595 -4.8954 -1.35327 0
M  V30 7556 H 714.525 -4.30507 -3.03268 0
M  V30 7557 H 717.016 -3.30417 -1.83393 0
M  V30 7558 H 717.329 -7.03827 -3.19135 0
M  V30 7559 H 715.674 -6.32683 -2.8764 0
M  V30 7560 H 718.865 -4.13306 -2.19763 0
M  V30 7561 H 719.038 -5.83574 -2.81683 0
M  V30 7562 N 712.444 0.87505 -1.31075 0
M  V30 7563 C 713.407 1.96333 -1.18263 0
M  V30 7564 C 714.407 1.60416 -0.111106 0
M  V30 7565 O 715.597 1.7044 -0.359987 0
M  V30 7566 C 712.729 3.31036 -0.81414 0
M  V30 7567 H 713.922 2.09125 -2.14958 0
M  V30 7568 H 711.475 1.06271 -1.14614 0
M  V30 7569 H 712.21 3.23944 0.151875 0
M  V30 7570 H 711.995 3.58476 -1.58862 0
M  V30 7571 H 713.485 4.10842 -0.748249 0
M  V30 7572 N 713.922 1.13953 1.08869 0
M  V30 7573 C 715.169 0.90481 1.81161 0
M  V30 7574 C 715.497 -0.568824 1.85996 0
M  V30 7575 O 714.752 -1.43723 1.32823 0
M  V30 7576 C 715.051 1.44495 3.26888 0
M  V30 7577 C 714.717 2.93641 3.42178 0
M  V30 7578 C 713.379 3.34361 3.46059 0
M  V30 7579 C 715.731 3.89568 3.46246 0
M  V30 7580 C 713.059 4.69681 3.51592 0
M  V30 7581 C 715.411 5.2474 3.53314 0
M  V30 7582 C 714.075 5.64979 3.55465 0
M  V30 7583 H 713.345 0.331094 0.662916 0
M  V30 7584 H 715.992 1.42242 1.28217 0
M  V30 7585 H 714.297 0.848169 3.82509 0
M  V30 7586 H 715.994 1.23934 3.81368 0
M  V30 7587 H 712.584 2.61156 3.39846 0
M  V30 7588 H 716.768 3.59192 3.42483 0
M  V30 7589 H 712.024 5.00224 3.51547 0
M  V30 7590 H 716.198 5.98882 3.55406 0
M  V30 7591 H 713.825 6.69821 3.59505 0
M  V30 7592 N 715.4 -1.26948 0.933913 0
M  V30 7593 C 716.677 -1.89212 0.495784 0
M  V30 7594 C 717.057 -1.84469 -1.02637 0
M  V30 7595 O 716.405 -1.29409 -1.88323 0
M  V30 7596 C 716.615 -3.32865 1.0489 0
M  V30 7597 C 717.963 -4.09749 1.11315 0
M  V30 7598 O 718.987 -3.41905 0.998966 0
M  V30 7599 O 717.846 -5.31061 1.28983 0
M  V30 7600 H 714.94 -0.811284 0.160459 0
M  V30 7601 H 717.486 -1.35171 1.02601 0
M  V30 7602 H 716.258 -3.30642 2.09265 0
M  V30 7603 H 715.881 -3.94435 0.500692 0
M  V30 7604 N 716.879 -0.700114 -1.41195 0
M  V30 7605 C 717.829 -0.0144098 -2.27995 0
M  V30 7606 C 718.813 0.748249 -1.42443 0
M  V30 7607 O 720.005 0.622995 -1.65674 0
M  V30 7608 C 717.134 0.917938 -3.308 0
M  V30 7609 C 716.22 0.151286 -4.2383 0
M  V30 7610 N 716.611 -0.85732 -4.98481 0
M  V30 7611 C 714.909 0.386108 -4.44326 0
M  V30 7612 C 715.61 -1.31663 -5.66604 0
M  V30 7613 N 714.586 -0.641689 -5.39799 0
M  V30 7614 H 718.388 -0.787662 -2.83149 0
M  V30 7615 H 715.902 -0.531344 -1.53462 0
M  V30 7616 H 717.899 1.42437 -3.91813 0
M  V30 7617 H 716.559 1.69074 -2.77208 0
M  V30 7618 H 717.57 -1.2377 -5.02893 0
M  V30 7619 H 714.247 1.13644 -4.01735 0
M  V30 7620 H 715.637 -2.15384 -6.36443 0
M  V30 7621 N 718.357 1.51182 -0.445186 0
M  V30 7622 C 719.606 2.01342 0.120189 0
M  V30 7623 C 719.919 1.33353 1.43095 0
M  V30 7624 O 721.125 1.74525 2.07974 0
M  V30 7625 C 719.581 3.58925 0.264732 0
M  V30 7626 C 719.189 4.35855 -1.03606 0
M  V30 7627 C 720.933 4.17208 0.783455 0
M  V30 7628 C 718.84 5.85162 -0.856731 0
M  V30 7629 H 717.77 0.752426 0.0486922 0
M  V30 7630 H 720.421 1.74221 -0.576143 0
M  V30 7631 H 718.803 3.82525 1.02425 0
M  V30 7632 H 719.977 4.23997 -1.80452 0
M  V30 7633 H 718.292 3.89062 -1.48391 0
M  V30 7634 H 720.889 5.26475 0.934239 0
M  V30 7635 H 721.232 3.76892 1.768 0
M  V30 7636 H 721.765 3.97715 0.0820346 0
M  V30 7637 H 718.504 6.29904 -1.81388 0
M  V30 7638 H 718.024 5.99663 -0.128206 0
M  V30 7639 H 719.703 6.44963 -0.513027 0
M  V30 7640 N 719.835 0.176821 1.56605 0
M  V30 7641 C 720.765 -0.746841 2.21234 0
M  V30 7642 C 721.746 -1.23502 1.16967 0
M  V30 7643 O 722.931 -1.28718 1.45414 0
M  V30 7644 C 720.061 -1.97407 2.8574 0
M  V30 7645 C 719.015 -1.62153 3.96094 0
M  V30 7646 C 718.341 -2.92387 4.47676 0
M  V30 7647 C 719.641 -0.845353 5.15413 0
M  V30 7648 H 721.335 -0.208116 2.98676 0
M  V30 7649 H 718.881 -0.0986594 1.43662 0
M  V30 7650 H 720.834 -2.62531 3.2963 0
M  V30 7651 H 719.558 -2.53703 2.05676 0
M  V30 7652 H 718.217 -0.993964 3.52868 0
M  V30 7653 H 717.865 -3.46734 3.64396 0
M  V30 7654 H 717.565 -2.69551 5.22127 0
M  V30 7655 H 719.089 -3.5853 4.94255 0
M  V30 7656 H 720.503 -1.39929 5.55961 0
M  V30 7657 H 718.9 -0.715814 5.95815 0
M  V30 7658 H 719.97 0.157239 4.84645 0
M  V30 7659 N 721.313 -1.57302 -0.09688 0
M  V30 7660 C 722.538 -1.9058 -0.818169 0
M  V30 7661 C 722.963 -0.770921 -1.71576 0
M  V30 7662 O 722.321 0.277588 -1.79162 0
M  V30 7663 C 722.369 -3.22714 -1.60898 0
M  V30 7664 O 721.473 -3.10178 -2.71779 0
M  V30 7665 H 720.814 -0.624759 -0.224882 0
M  V30 7666 H 723.344 -2.04471 -0.07264 0
M  V30 7667 H 723.354 -3.55978 -1.99358 0
M  V30 7668 H 722.029 -4.04899 -0.950227 0
M  V30 7669 H 720.606 -2.88424 -2.3636 0
M  V30 7670 N 722.791 0.367657 -1.53252 0
M  V30 7671 C 723.754 1.43308 -1.78873 0
M  V30 7672 C 724.754 1.46671 -0.659115 0
M  V30 7673 O 725.944 1.47468 -0.927306 0
M  V30 7674 C 723.076 2.82442 -1.90892 0
M  V30 7675 H 724.269 1.21864 -2.74024 0
M  V30 7676 H 721.822 0.600668 -1.44297 0
M  V30 7677 H 722.557 3.09202 -0.978 0
M  V30 7678 H 722.342 2.81399 -2.73051 0
M  V30 7679 H 723.832 3.59601 -2.12314 0
M  V30 7680 N 724.269 1.44576 0.627338 0
M  V30 7681 C 725.518 1.46837 1.38281 0
M  V30 7682 C 725.831 0.10635 1.95311 0
M  V30 7683 O 727.037 0.00651084 2.71499 0
M  V30 7684 C 725.493 2.58527 2.50384 0
M  V30 7685 C 725.101 4.00953 1.99851 0
M  V30 7686 C 726.845 2.70013 3.27557 0
M  V30 7687 C 724.752 5.0406 3.09318 0
M  V30 7688 H 723.682 0.546319 0.519664 0
M  V30 7689 H 726.333 1.70654 0.674497 0
M  V30 7690 H 724.715 2.27957 3.23808 0
M  V30 7691 H 725.889 4.41108 1.33267 0
M  V30 7692 H 724.204 3.93743 1.35482 0
M  V30 7693 H 726.801 3.44217 4.09168 0
M  V30 7694 H 727.144 1.75961 3.77284 0
M  V30 7695 H 727.677 3.00011 2.61224 0
M  V30 7696 H 724.416 5.99753 2.6453 0
M  V30 7697 H 723.936 4.68493 3.74532 0
M  V30 7698 H 725.615 5.2793 3.74031 0
M  V30 7699 N 725.747 -0.868086 1.31537 0
M  V30 7700 C 726.657 -2.00801 1.21311 0
M  V30 7701 C 727.673 -1.73518 0.129431 0
M  V30 7702 O 728.849 -1.98378 0.347588 0
M  V30 7703 C 725.914 -3.3419 0.922935 0
M  V30 7704 C 724.975 -3.74783 2.0937 0
M  V30 7705 C 724.208 -5.01807 1.81728 0
M  V30 7706 O 724.431 -5.65404 0.753313 0
M  V30 7707 O 723.365 -5.39213 2.67457 0
M  V30 7708 H 727.191 -2.12361 2.17109 0
M  V30 7709 H 724.776 -0.996684 1.11295 0
M  V30 7710 H 726.658 -4.14174 0.777033 0
M  V30 7711 H 725.333 -3.237 -0.00500301 0
M  V30 7712 H 724.24 -2.95432 2.29501 0
M  V30 7713 H 725.573 -3.89902 3.00396 0
M  V30 7714 N 727.225 -1.14528 -1.08264 0
M  V30 7715 C 728.502 -0.825185 -1.77342 0
M  V30 7716 C 728.882 0.681037 -1.99813 0
M  V30 7717 O 728.23 1.62234 -1.60912 0
M  V30 7718 C 728.44 -1.62556 -3.08831 0
M  V30 7719 C 729.788 -1.82585 -3.83338 0
M  V30 7720 O 730.812 -1.59254 -3.18617 0
M  V30 7721 O 729.671 -2.21598 -4.99556 0
M  V30 7722 H 726.765 -0.302531 -0.769678 0
M  V30 7723 H 729.311 -1.25056 -1.14713 0
M  V30 7724 H 728.083 -2.64862 -2.88035 0
M  V30 7725 H 727.706 -1.1959 -3.79189 0
M  V30 7726 N 728.703 1.26451 -0.940633 0
M  V30 7727 C 729.952 1.93071 -0.583656 0
M  V30 7728 C 730.265 1.74618 0.881366 0
M  V30 7729 O 731.471 2.35689 1.34769 0
M  V30 7730 C 729.927 3.45927 -0.993106 0
M  V30 7731 C 729.535 3.73115 -2.4797 0
M  V30 7732 C 731.279 4.18554 -0.707998 0
M  V30 7733 C 729.186 5.19408 -2.82788 0
M  V30 7734 H 728.116 0.722824 -0.214572 0
M  V30 7735 H 730.767 1.43538 -1.1432 0
M  V30 7736 H 729.149 3.94341 -0.362099 0
M  V30 7737 H 730.323 3.35408 -3.15971 0
M  V30 7738 H 728.638 3.13719 -2.73805 0
M  V30 7739 H 731.235 5.26293 -0.94447 0
M  V30 7740 H 731.578 4.14782 0.355225 0
M  V30 7741 H 732.111 3.76003 -1.2987 0
M  V30 7742 H 728.85 5.28281 -3.88071 0
M  V30 7743 H 728.37 5.58214 -2.19449 0
M  V30 7744 H 730.049 5.87407 -2.71224 0
M  V30 7745 N 730.181 0.707592 1.40822 0
M  V30 7746 C 731.406 0.251626 2.05868 0
M  V30 7747 C 731.831 -1.09503 1.5294 0
M  V30 7748 O 731.189 -1.68806 0.661385 0
M  V30 7749 C 731.237 0.23287 3.59847 0
M  V30 7750 O 730.341 -0.788477 4.04792 0
M  V30 7751 H 729.682 0.119936 0.653078 0
M  V30 7752 H 732.212 0.96583 1.80369 0
M  V30 7753 H 732.222 0.0678204 4.07944 0
M  V30 7754 H 730.897 1.21565 3.97737 0
M  V30 7755 H 729.474 -0.591802 3.68174 0
M  V30 7756 N 731.66 -1.50943 0.453197 0
M  V30 7757 C 732.908 -2.01813 -0.107709 0
M  V30 7758 C 733.229 -1.33841 -1.41816 0
M  V30 7759 O 732.499 -0.477973 -1.8998 0
M  V30 7760 H 731.079 -0.745773 -0.0427948 0
M  V30 7761 H 733.741 -1.8545 0.599531 0
M  V30 7762 H 732.837 -3.10911 -0.27218 0
M  V30 7763 N 733.138 -0.185124 -1.56509 0
M  V30 7764 C 734.07 0.771401 -2.15829 0
M  V30 7765 C 735.083 1.18392 -1.11747 0
M  V30 7766 O 736.272 1.12137 -1.38879 0
M  V30 7767 C 733.372 2.05169 -2.69739 0
M  V30 7768 C 732.545 1.80056 -3.98621 0
M  V30 7769 C 731.604 2.92435 -4.37456 0
M  V30 7770 O 730.63 2.62473 -5.05071 0
M  V30 7771 N 731.832 4.20554 -4.00143 0
M  V30 7772 H 734.597 0.264184 -2.98533 0
M  V30 7773 H 732.158 -0.00281069 -1.619 0
M  V30 7774 H 734.15 2.7947 -2.92709 0
M  V30 7775 H 732.72 2.47041 -1.91545 0
M  V30 7776 H 731.94 0.895862 -3.83885 0
M  V30 7777 H 733.228 1.60662 -4.82768 0
M  V30 7778 H 732.626 4.47753 -3.45736 0
M  V30 7779 H 731.183 4.91514 -4.28085 0
M  V30 7780 N 734.616 1.57351 0.0885366 0
M  V30 7781 C 735.865 1.85604 0.789556 0
M  V30 7782 C 736.178 0.775352 1.79576 0
M  V30 7783 O 737.384 0.945206 2.54515 0
M  V30 7784 C 735.84 3.29175 1.45506 0
M  V30 7785 C 735.448 4.45331 0.488278 0
M  V30 7786 C 737.192 3.66646 2.13942 0
M  V30 7787 C 735.099 5.79937 1.15874 0
M  V30 7788 H 734.029 0.692346 0.298619 0
M  V30 7789 H 736.68 1.83451 0.0425821 0
M  V30 7790 H 735.062 3.25889 2.24972 0
M  V30 7791 H 736.236 4.59977 -0.275359 0
M  V30 7792 H 734.551 4.16301 -0.0907363 0
M  V30 7793 H 737.148 4.64498 2.6485 0
M  V30 7794 H 737.491 2.956 2.93132 0
M  V30 7795 H 738.024 3.71848 1.41328 0
M  V30 7796 H 734.763 6.54232 0.407508 0
M  V30 7797 H 734.283 5.69123 1.89364 0
M  V30 7798 H 735.962 6.24718 1.68336 0
M  V30 7799 N 736.094 -0.359525 1.53444 0
M  V30 7800 C 737.342 -1.09935 1.69584 0
M  V30 7801 C 737.663 -1.89656 0.453371 0
M  V30 7802 O 736.933 -1.8852 -0.53263 0
M  V30 7803 H 735.513 -0.408843 0.625185 0
M  V30 7804 H 738.175 -0.40467 1.90653 0
M  V30 7805 H 737.271 -1.78575 2.55964 0
M  V30 7806 N 737.572 -1.44907 -0.619662 0
M  V30 7807 C 738.522 -1.49085 -1.72504 0
M  V30 7808 C 739.506 -0.355372 -1.56926 0
M  V30 7809 O 740.698 -0.601441 -1.66468 0
M  V30 7810 C 737.827 -1.44889 -3.11227 0
M  V30 7811 C 736.913 -2.63593 -3.32234 0
M  V30 7812 N 737.304 -3.88775 -3.23555 0
M  V30 7813 C 735.602 -2.59033 -3.63067 0
M  V30 7814 C 736.303 -4.67932 -3.45564 0
M  V30 7815 N 735.279 -3.9919 -3.68983 0
M  V30 7816 H 739.081 -2.43706 -1.6427 0
M  V30 7817 H 736.595 -1.4003 -0.82252 0
M  V30 7818 H 738.592 -1.45966 -3.90512 0
M  V30 7819 H 737.252 -0.513143 -3.2062 0
M  V30 7820 H 738.263 -4.20574 -3.02221 0
M  V30 7821 H 734.94 -1.7431 -3.79371 0
M  V30 7822 H 736.33 -5.76952 -3.44349 0
M  V30 7823 N 739.05 0.861098 -1.31996 0
M  V30 7824 C 739.998 1.99052 -1.20337 0
M  V30 7825 C 740.992 1.69045 -0.109623 0
M  V30 7826 O 742.198 1.77931 -0.272117 0
M  V30 7827 H 738.573 0.653064 -0.372843 0
M  V30 7828 H 740.544 2.06015 -2.15872 0
M  V30 7829 C 739.293 3.34846 -0.936663 0
M  V30 7830 H 738.616 3.58462 -1.77045 0
M  V30 7831 H 740.056 4.1444 -0.895302 0
M  V30 7832 C 738.515 3.34965 0.360607 0
M  V30 7833 O 739.045 3.7745 1.37456 0
M  V30 7834 N 737.251 2.88101 0.380296 0
M  V30 7835 H 736.798 2.53721 -0.445351 0
M  V30 7836 H 736.756 2.88563 1.24816 0
M  V30 7837 N 740.528 1.15101 1.07655 0
M  V30 7838 C 741.758 0.946357 1.83651 0
M  V30 7839 C 742.166 -0.508641 1.82235 0
M  V30 7840 O 741.509 -1.36445 1.22997 0
M  V30 7841 C 741.571 1.37945 3.31981 0
M  V30 7842 C 741.235 2.85155 3.57122 0
M  V30 7843 C 742.232 3.83234 3.51323 0
M  V30 7844 C 739.917 3.2275 3.84887 0
M  V30 7845 C 741.911 5.16914 3.72932 0
M  V30 7846 C 739.598 4.56604 4.06148 0
M  V30 7847 C 740.596 5.53495 4.00165 0
M  V30 7848 O 740.284 6.84931 4.20861 0
M  V30 7849 H 740.016 0.336368 0.586372 0
M  V30 7850 H 742.57 1.53198 1.36819 0
M  V30 7851 H 740.8 0.737205 3.79608 0
M  V30 7852 H 742.489 1.14439 3.89434 0
M  V30 7853 H 743.255 3.55535 3.29878 0
M  V30 7854 H 739.134 2.47921 3.88659 0
M  V30 7855 H 742.678 5.92529 3.68178 0
M  V30 7856 H 738.575 4.84019 4.27078 0
M  V30 7857 H 739.343 6.91304 4.38226 0
M  V30 7858 N 742.006 -1.2595 0.947325 0
M  V30 7859 C 742.936 -2.28521 0.479604 0
M  V30 7860 C 743.917 -1.63469 -0.470293 0
M  V30 7861 O 745.102 -1.90627 -0.370824 0
M  V30 7862 C 742.232 -3.46397 -0.250289 0
M  V30 7863 C 741.186 -4.23578 0.613643 0
M  V30 7864 C 740.512 -5.34131 -0.246568 0
M  V30 7865 C 741.812 -4.86979 1.88809 0
M  V30 7866 H 743.506 -2.67895 1.33688 0
M  V30 7867 H 741.052 -1.28783 0.644274 0
M  V30 7868 H 743.005 -4.17269 -0.588576 0
M  V30 7869 H 741.729 -3.05993 -1.14175 0
M  V30 7870 H 740.388 -3.54478 0.93491 0
M  V30 7871 H 740.036 -4.89968 -1.13756 0
M  V30 7872 H 739.736 -5.86683 0.328123 0
M  V30 7873 H 741.26 -6.07839 -0.579986 0
M  V30 7874 H 742.674 -5.50034 1.61666 0
M  V30 7875 H 741.071 -5.49675 2.40784 0
M  V30 7876 H 742.141 -4.09575 2.5957 0
M  V30 7877 N 743.484 -0.715051 -1.40445 0
M  V30 7878 C 744.9 -0.388555 -1.54798 0
M  V30 7879 C 745.1 1.10271 -1.68649 0
M  V30 7880 O 744.156 1.88875 -1.67578 0
M  V30 7881 C 745.469 -1.15414 -2.77669 0
M  V30 7882 C 747.017 -1.14039 -2.91486 0
M  V30 7883 C 747.492 -1.88812 -4.1727 0
M  V30 7884 N 748.983 -1.85878 -4.24268 0
M  V30 7885 C 749.718 -2.40558 -5.20499 0
M  V30 7886 N 749.214 -3.03791 -6.22642 0
M  V30 7887 N 751.007 -2.30703 -5.12574 0
M  V30 7888 H 743.158 -1.68201 -1.297 0
M  V30 7889 H 745.421 -0.710915 -0.627139 0
M  V30 7890 H 745.127 -2.20853 -2.7371 0
M  V30 7891 H 745.001 -0.745412 -3.69761 0
M  V30 7892 H 747.388 -0.0941996 -2.9495 0
M  V30 7893 H 747.469 -1.58834 -2.00513 0
M  V30 7894 H 747.113 -2.93422 -4.14568 0
M  V30 7895 H 747.043 -1.41438 -5.0725 0
M  V30 7896 H 749.534 -1.39794 -3.51093 0
M  V30 7897 H 749.847 -3.43032 -6.92495 0
M  V30 7898 H 748.192 -3.07875 -6.23087 0
M  V30 7899 H 751.383 -1.80961 -4.31707 0
M  V30 7900 H 751.556 -2.73618 -5.87398 0
M  V30 7901 N 744.962 1.50701 -0.461195 0
M  V30 7902 C 746.239 1.94958 0.158296 0
M  V30 7903 C 746.619 1.40111 1.57899 0
M  V30 7904 O 745.967 0.597976 2.20537 0
M  V30 7905 C 746.177 3.48821 0.11172 0
M  V30 7906 C 747.525 4.23499 0.30552 0
M  V30 7907 O 748.549 3.557 0.188758 0
M  V30 7908 O 747.408 5.43823 0.540244 0
M  V30 7909 H 744.502 0.818674 0.117054 0
M  V30 7910 H 747.048 1.61508 -0.520888 0
M  V30 7911 H 745.82 3.81263 -0.880577 0
M  V30 7912 H 745.443 3.88781 0.832791 0
M  V30 7913 N 746.441 0.193421 1.56409 0
M  V30 7914 C 747.388 -0.728124 2.19014 0
M  V30 7915 C 748.358 -1.21098 1.13686 0
M  V30 7916 O 749.543 -1.27517 1.4193 0
M  V30 7917 C 746.683 -1.94277 2.8522 0
M  V30 7918 C 745.796 -1.50143 4.05069 0
M  V30 7919 C 744.931 -2.67145 4.59137 0
M  V30 7920 C 743.97 -2.19609 5.71348 0
M  V30 7921 N 743.107 -3.29782 6.19829 0
M  V30 7922 H 747.947 -0.187499 2.9741 0
M  V30 7923 H 745.484 -0.0808064 1.46878 0
M  V30 7924 H 747.442 -2.65551 3.21774 0
M  V30 7925 H 746.072 -2.45673 2.09391 0
M  V30 7926 H 745.124 -0.684624 3.74189 0
M  V30 7927 H 746.436 -1.11266 4.86232 0
M  V30 7928 H 745.59 -3.46544 4.97988 0
M  V30 7929 H 744.329 -3.09295 3.77078 0
M  V30 7930 H 743.334 -1.38664 5.32027 0
M  V30 7931 H 744.559 -1.78492 6.55223 0
M  V30 7932 H 742.505 -3.71466 5.40693 0
M  V30 7933 H 742.422 -2.95069 6.96039 0
M  V30 7934 H 743.69 -4.094 6.63334 0
M  V30 7935 N 747.919 -1.57396 -0.0801906 0
M  V30 7936 C 749.165 -1.87979 -0.776884 0
M  V30 7937 C 749.52 -0.786098 -1.75608 0
M  V30 7938 O 748.813 0.210541 -1.9044 0
M  V30 7939 C 749.007 -3.22915 -1.53169 0
M  V30 7940 C 748.836 -4.45306 -0.627099 0
M  V30 7941 C 747.606 -5.04593 -0.267201 0
M  V30 7942 C 749.804 -5.14249 0.0724916 0
M  V30 7943 N 747.786 -6.10513 0.643995 0
M  V30 7944 C 749.157 -6.14267 0.841191 0
M  V30 7945 C 751.212 -4.97689 0.144847 0
M  V30 7946 C 749.915 -6.99514 1.67551 0
M  V30 7947 C 751.941 -5.83455 0.966112 0
M  V30 7948 C 751.303 -6.83005 1.72288 0
M  V30 7949 H 747.402 -0.737519 -0.259979 0
M  V30 7950 H 749.986 -1.94661 -0.0387512 0
M  V30 7951 H 748.157 -3.17256 -2.2406 0
M  V30 7952 H 749.889 -3.41174 -2.17675 0
M  V30 7953 H 746.644 -4.69548 -0.618194 0
M  V30 7954 H 747.068 -6.68125 1.09259 0
M  V30 7955 H 751.71 -4.20649 -0.4259 0
M  V30 7956 H 749.428 -7.75934 2.25726 0
M  V30 7957 H 753.014 -5.727 1.02497 0
M  V30 7958 H 751.894 -7.48219 2.34813 0
M  V30 7959 N 749.397 0.351382 -1.53633 0
M  V30 7960 C 750.622 1.11718 -1.74739 0
M  V30 7961 C 751.047 1.81829 -0.481657 0
M  V30 7962 O 750.405 1.72264 0.565233 0
M  V30 7963 C 750.453 2.11234 -2.92254 0
M  V30 7964 O 749.557 3.186 -2.61855 0
M  V30 7965 H 748.898 0.323482 -0.579875 0
M  V30 7966 H 751.428 0.404167 -2.00568 0
M  V30 7967 H 751.438 2.54591 -3.18822 0
M  V30 7968 H 750.113 1.59599 -3.84058 0
M  V30 7969 H 748.69 2.80115 -2.4615 0
M  V30 7970 N 750.875 1.45233 0.611969 0
M  V30 7971 C 751.825 1.49997 1.71711 0
M  V30 7972 C 752.809 0.363689 1.56736 0
M  V30 7973 O 754.001 0.610261 1.66147 0
M  V30 7974 C 751.13 1.46537 3.10454 0
M  V30 7975 C 750.216 2.65351 3.30831 0
M  V30 7976 N 750.607 3.90485 3.21489 0
M  V30 7977 C 748.905 2.60955 3.61688 0
M  V30 7978 C 749.606 4.69758 3.43078 0
M  V30 7979 N 748.582 4.01141 3.66861 0
M  V30 7980 H 752.384 2.44574 1.62975 0
M  V30 7981 H 749.898 1.40464 0.815082 0
M  V30 7982 H 751.895 1.48035 3.89732 0
M  V30 7983 H 750.555 0.530139 3.20343 0
M  V30 7984 H 751.566 4.22171 2.99987 0
M  V30 7985 H 748.243 1.76319 3.78441 0
M  V30 7986 H 749.633 5.7877 3.41285 0
M  V30 7987 N 752.353 -0.854086 1.3245 0
M  V30 7988 C 753.6 -1.60831 1.23043 0
M  V30 7989 C 753.928 -1.93389 -0.2076 0
M  V30 7990 O 753.183 -1.5756 -1.16075 0
M  V30 7991 C 753.482 -2.93746 2.03587 0
M  V30 7992 C 753.148 -2.80615 3.52939 0
M  V30 7993 C 751.81 -2.76742 3.93659 0
M  V30 7994 C 754.162 -2.66507 4.4791 0
M  V30 7995 C 751.49 -2.56638 5.27592 0
M  V30 7996 C 753.842 -2.47939 5.81987 0
M  V30 7997 C 752.506 -2.42458 6.21909 0
M  V30 7998 H 751.776 -0.588523 0.450247 0
M  V30 7999 H 754.423 -0.990699 1.63882 0
M  V30 8000 H 752.728 -3.5963 1.55478 0
M  V30 8001 H 754.425 -3.51127 1.93677 0
M  V30 8002 H 751.015 -2.84456 3.20598 0
M  V30 8003 H 755.199 -2.68544 4.1737 0
M  V30 8004 H 750.455 -2.50831 5.57579 0
M  V30 8005 H 754.629 -2.36002 6.55192 0
M  V30 8006 H 752.256 -2.2664 7.2563 0
M  V30 8007 N 753.831 -1.1567 -1.07043 0
M  V30 8008 C 755.108 -0.843948 -1.76456 0
M  V30 8009 C 755.488 0.659806 -2.00524 0
M  V30 8010 O 754.836 1.60518 -1.62623 0
M  V30 8011 C 755.046 -1.65822 -3.0709 0
M  V30 8012 C 756.394 -1.8664 -3.8138 0
M  V30 8013 O 757.418 -1.62624 -3.1691 0
M  V30 8014 O 756.277 -2.26884 -4.97178 0
M  V30 8015 H 753.371 -0.310677 -0.766426 0
M  V30 8016 H 755.917 -1.26266 -1.1338 0
M  V30 8017 H 754.689 -2.67902 -2.85209 0
M  V30 8018 H 754.312 -1.23605 -3.77899 0
M  V30 8019 N 755.309 1.25446 -0.953992 0
M  V30 8020 C 756.725 1.4539 -0.658316 0
M  V30 8021 C 756.925 1.85607 0.784356 0
M  V30 8022 O 755.981 1.98568 1.55972 0
M  V30 8023 C 757.294 2.52643 -1.6307 0
M  V30 8024 C 758.842 2.66484 -1.64181 0
M  V30 8025 C 759.317 3.76921 -2.60182 0
M  V30 8026 N 760.808 3.84331 -2.58542 0
M  V30 8027 C 761.543 4.69271 -3.29503 0
M  V30 8028 N 761.039 5.58503 -4.09934 0
M  V30 8029 N 762.832 4.6323 -3.18393 0
M  V30 8030 H 754.983 0.976337 -1.8863 0
M  V30 8031 H 757.246 0.490343 -0.811337 0
M  V30 8032 H 756.952 2.29949 -2.66114 0
M  V30 8033 H 756.826 3.50547 -1.39271 0
M  V30 8034 H 759.213 2.88545 -0.618552 0
M  V30 8035 H 759.294 1.68982 -1.92038 0
M  V30 8036 H 758.938 3.55612 -3.62633 0
M  V30 8037 H 758.868 4.73906 -2.29609 0
M  V30 8038 H 761.359 3.20544 -2.0015 0
M  V30 8039 H 761.672 6.20241 -4.61 0
M  V30 8040 H 760.017 5.58214 -4.14032 0
M  V30 8041 H 763.208 3.92527 -2.5503 0
M  V30 8042 H 763.381 5.29204 -3.73961 0
M  V30 8043 N 756.787 0.722489 1.40064 0
M  V30 8044 C 757.734 0.0743738 2.3068 0
M  V30 8045 C 758.704 -0.743004 1.48555 0
M  V30 8046 O 759.889 -0.705536 1.77276 0
M  V30 8047 C 757.029 -0.836292 3.34814 0
M  V30 8048 C 756.142 -0.00764663 4.31999 0
M  V30 8049 C 755.277 -0.918428 5.232 0
M  V30 8050 C 754.316 -0.0842838 6.12042 0
M  V30 8051 N 753.453 -0.950316 6.95639 0
M  V30 8052 H 758.293 0.852794 2.85537 0
M  V30 8053 H 755.83 0.432222 1.40607 0
M  V30 8054 H 757.788 -1.3786 3.93765 0
M  V30 8055 H 756.418 -1.58082 2.81443 0
M  V30 8056 H 755.47 0.651928 3.74772 0
M  V30 8057 H 756.782 0.63786 4.94705 0
M  V30 8058 H 755.936 -1.52902 5.87116 0
M  V30 8059 H 754.675 -1.59774 4.60786 0
M  V30 8060 H 753.68 0.5392 5.4715 0
M  V30 8061 H 754.905 0.591628 6.76518 0
M  V30 8062 H 752.851 -1.61515 6.35806 0
M  V30 8063 H 752.768 -0.361004 7.55138 0
M  V30 8064 H 754.036 -1.54687 7.63997 0
M  V30 8065 N 758.265 -1.50454 0.469181 0
M  V30 8066 C 759.512 -2.02315 -0.086469 0
M  V30 8067 C 759.84 -1.3513 -1.39893 0
M  V30 8068 O 759.095 -0.465341 -1.90087 0
M  V30 8069 C 759.394 -3.55963 -0.320207 0
M  V30 8070 C 759.06 -4.41615 0.910318 0
M  V30 8071 C 757.722 -4.64743 1.2477 0
M  V30 8072 C 760.074 -4.91661 1.72971 0
M  V30 8073 C 757.402 -5.35161 2.40457 0
M  V30 8074 C 759.754 -5.6335 2.87785 0
M  V30 8075 C 758.418 -5.84732 3.2194 0
M  V30 8076 H 757.688 -0.740324 -0.0316412 0
M  V30 8077 H 760.335 -1.81087 0.622872 0
M  V30 8078 H 758.64 -3.75695 -1.11177 0
M  V30 8079 H 760.337 -3.93653 -0.764071 0
M  V30 8080 H 756.927 -4.23833 0.637467 0
M  V30 8081 H 761.111 -4.73649 1.48224 0
M  V30 8082 H 756.367 -5.49924 2.67196 0
M  V30 8083 H 760.541 -6.0111 3.51624 0
M  V30 8084 H 758.168 -6.39074 4.1169 0
M  V30 8085 N 759.743 -0.201713 -1.56304 0
M  V30 8086 C 760.673 0.71155 -2.22394 0
M  V30 8087 C 761.654 1.21625 -1.18917 0
M  V30 8088 O 762.839 1.26388 -1.47444 0
M  V30 8089 C 759.969 1.92837 -2.88845 0
M  V30 8090 C 758.923 1.55831 -3.98623 0
M  V30 8091 C 758.249 2.85228 -4.52271 0
M  V30 8092 C 759.549 0.763249 -5.16693 0
M  V30 8093 H 761.243 0.160573 -2.98969 0
M  V30 8094 H 758.789 0.0757916 -1.438 0
M  V30 8095 H 760.742 2.57253 -3.33764 0
M  V30 8096 H 759.466 2.50398 -2.09686 0
M  V30 8097 H 758.125 0.9377 -3.54405 0
M  V30 8098 H 757.773 3.40893 -3.69866 0
M  V30 8099 H 757.473 2.6121 -5.26349 0
M  V30 8100 H 758.997 3.50622 -4.99897 0
M  V30 8101 H 760.411 1.31066 -5.58117 0
M  V30 8102 H 758.808 0.620935 -5.96879 0
M  V30 8103 H 759.878 -0.234322 -4.84334 0
M  V30 8104 N 761.222 1.57436 0.0718424 0
M  V30 8105 C 762.447 1.91858 0.787745 0
M  V30 8106 C 762.872 0.798119 1.70328 0
M  V30 8107 O 762.23 -0.24905 1.79581 0
M  V30 8108 C 762.278 3.25232 1.55744 0
M  V30 8109 O 761.382 3.14462 2.6681 0
M  V30 8110 H 760.723 0.628258 0.214914 0
M  V30 8111 H 763.253 2.04561 0.0401012 0
M  V30 8112 H 763.263 3.59105 1.9367 0
M  V30 8113 H 761.938 4.0636 0.885691 0
M  V30 8114 H 760.515 2.92148 2.31741 0
M  V30 8115 N 762.7 -0.34323 1.53817 0
M  V30 8116 C 764.116 -0.686355 1.44088 0
M  V30 8117 C 764.316 -1.92426 0.597882 0
M  V30 8118 O 763.372 -2.52343 0.0889918 0
M  V30 8119 C 764.685 -0.878698 2.87575 0
M  V30 8120 C 766.233 -0.977296 2.97352 0
M  V30 8121 C 766.708 -1.20195 4.41947 0
M  V30 8122 N 768.199 -1.26915 4.45474 0
M  V30 8123 C 768.934 -1.46049 5.54488 0
M  V30 8124 N 768.43 -1.62354 6.73508 0
M  V30 8125 N 770.223 -1.48599 5.42102 0
M  V30 8126 H 762.374 0.470679 2.07119 0
M  V30 8127 H 764.637 0.148652 0.936273 0
M  V30 8128 H 764.343 -0.040602 3.51677 0
M  V30 8129 H 764.217 -1.78034 3.32541 0
M  V30 8130 H 766.604 -1.80591 2.3339 0
M  V30 8131 H 766.685 -0.0525498 2.55746 0
M  V30 8132 H 766.329 -0.378262 5.06489 0
M  V30 8133 H 766.259 -2.14027 4.81145 0
M  V30 8134 H 768.75 -1.15837 3.59708 0
M  V30 8135 H 769.063 -1.76591 7.52353 0
M  V30 8136 H 767.408 -1.5949 6.76453 0
M  V30 8137 H 770.599 -1.35443 4.48077 0
M  V30 8138 H 770.772 -1.6317 6.2712 0
M  V30 8139 N 764.178 -1.45556 -0.604258 0
M  V30 8140 C 765.424 -1.49968 -1.36519 0
M  V30 8141 C 765.757 -0.142236 -1.93678 0
M  V30 8142 O 765.032 0.843717 -1.75247 0
M  V30 8143 C 765.315 -2.58146 -2.51063 0
M  V30 8144 C 765.168 -4.03346 -1.99078 0
M  V30 8145 C 766.487 -2.62581 -3.53184 0
M  V30 8146 H 763.606 -0.545993 -0.495036 0
M  V30 8147 H 766.248 -1.77382 -0.680845 0
M  V30 8148 H 764.398 -2.34901 -3.09441 0
M  V30 8149 H 766.07 -4.37811 -1.45323 0
M  V30 8150 H 764.313 -4.13845 -1.30055 0
M  V30 8151 H 764.984 -4.74731 -2.81664 0
M  V30 8152 H 767.46 -2.83419 -3.04652 0
M  V30 8153 H 766.336 -3.40131 -4.30816 0
M  V30 8154 H 766.597 -1.67798 -4.09019 0
M  V30 8155 N 765.656 0.84705 -1.32902 0
M  V30 8156 C 766.586 1.97166 -1.25091 0
M  V30 8157 C 767.567 1.69578 -0.133161 0
M  V30 8158 O 768.752 1.91519 -0.321591 0
M  V30 8159 C 765.882 3.33157 -0.981006 0
M  V30 8160 C 764.836 3.75119 -2.06082 0
M  V30 8161 C 764.162 5.08826 -1.64318 0
M  V30 8162 C 765.462 3.89774 -3.47669 0
M  V30 8163 H 767.156 2.03958 -2.19184 0
M  V30 8164 H 764.702 0.979907 -1.05517 0
M  V30 8165 H 766.655 4.11393 -0.912891 0
M  V30 8166 H 765.379 3.266 -0.00445559 0
M  V30 8167 H 764.038 2.9914 -2.11921 0
M  V30 8168 H 763.686 4.98732 -0.653876 0
M  V30 8169 H 763.386 5.37873 -2.36572 0
M  V30 8170 H 764.91 5.89546 -1.58958 0
M  V30 8171 H 766.324 4.58343 -3.44376 0
M  V30 8172 H 764.721 4.30248 -4.18338 0
M  V30 8173 H 765.791 2.92463 -3.86773 0
M  V30 8174 N 767.134 1.16236 1.06428 0
M  V30 8175 C 768.067 0.81119 2.13295 0
M  V30 8176 C 769.045 -0.216555 1.61151 0
M  V30 8177 O 770.229 -0.100949 1.88229 0
M  V30 8178 C 767.356 0.207901 3.38061 0
M  V30 8179 C 766.402 1.20904 4.09004 0
M  V30 8180 S 767.235 2.75513 4.59187 0
M  V30 8181 C 768.391 2.1663 5.87216 0
M  V30 8182 H 768.624 1.71632 2.42755 0
M  V30 8183 H 766.157 0.985693 1.18842 0
M  V30 8184 H 768.115 -0.133715 4.10282 0
M  V30 8185 H 766.776 -0.67497 3.06762 0
M  V30 8186 H 765.969 0.735326 4.98607 0
M  V30 8187 H 765.571 1.49567 3.42791 0
M  V30 8188 H 767.863 1.53413 6.59902 0
M  V30 8189 H 768.806 3.04437 6.39315 0
M  V30 8190 H 769.214 1.60565 5.41183 0
M  V30 8191 N 768.612 -1.24939 0.960631 0
M  V30 8192 C 770.028 -1.45039 0.666018 0
M  V30 8193 C 770.228 -1.86021 -0.774501 0
M  V30 8194 O 769.284 -1.99392 -1.54916 0
M  V30 8195 C 770.597 -2.51775 1.64408 0
M  V30 8196 C 772.145 -2.6561 1.65592 0
M  V30 8197 C 772.62 -3.75536 2.62177 0
M  V30 8198 N 774.111 -3.82954 2.60577 0
M  V30 8199 C 774.846 -4.67517 3.31987 0
M  V30 8200 N 774.342 -5.56321 4.1289 0
M  V30 8201 N 776.135 -4.61535 3.20845 0
M  V30 8202 H 768.286 -0.96632 1.89145 0
M  V30 8203 H 770.549 -0.486034 0.813926 0
M  V30 8204 H 770.255 -2.28534 2.67329 0
M  V30 8205 H 770.129 -3.49804 1.41128 0
M  V30 8206 H 772.516 -2.88212 0.633846 0
M  V30 8207 H 772.597 -1.67962 1.92931 0
M  V30 8208 H 772.241 -3.53684 3.64514 0
M  V30 8209 H 772.171 -4.72682 2.32119 0
M  V30 8210 H 774.662 -3.19478 2.01847 0
M  V30 8211 H 774.975 -6.17787 4.64283 0
M  V30 8212 H 773.32 -5.5601 4.16987 0
M  V30 8213 H 776.511 -3.91169 2.57108 0
M  V30 8214 H 776.684 -5.27214 3.76762 0
M  V30 8215 N 770.09 -0.729906 -1.39679 0
M  V30 8216 C 771.506 -0.404951 -1.54377 0
M  V30 8217 C 771.706 1.08476 -1.6981 0
M  V30 8218 O 770.762 1.87087 -1.69572 0
M  V30 8219 C 772.075 -1.18352 -2.76429 0
M  V30 8220 C 773.623 -1.17124 -2.9026 0
M  V30 8221 C 774.098 -1.93227 -4.15244 0
M  V30 8222 N 775.589 -1.90368 -4.22273 0
M  V30 8223 C 776.324 -2.46065 -5.17918 0
M  V30 8224 N 775.82 -3.10378 -6.19385 0
M  V30 8225 N 777.613 -2.36127 -5.10099 0
M  V30 8226 H 769.764 -1.69567 -1.27909 0
M  V30 8227 H 772.027 -0.717527 -0.619564 0
M  V30 8228 H 771.733 -2.23743 -2.71352 0
M  V30 8229 H 771.607 -0.784589 -3.6895 0
M  V30 8230 H 773.994 -0.125478 -2.94833 0
M  V30 8231 H 774.075 -1.60951 -1.98817 0
M  V30 8232 H 773.719 -2.97802 -4.11432 0
M  V30 8233 H 773.649 -1.4681 -5.05722 0
M  V30 8234 H 776.14 -1.4351 -3.4959 0
M  V30 8235 H 776.453 -3.50358 -6.88817 0
M  V30 8236 H 774.798 -3.14467 -6.19787 0
M  V30 8237 H 777.989 -1.85529 -4.29763 0
M  V30 8238 H 778.162 -2.79833 -5.84463 0
M  V30 8239 N 771.568 1.50203 -0.477153 0
M  V30 8240 C 772.793 2.07263 0.0754986 0
M  V30 8241 C 773.218 1.33801 1.32208 0
M  V30 8242 O 772.576 0.387482 1.77111 0
M  V30 8243 C 772.624 3.59028 0.336348 0
M  V30 8244 O 771.728 3.87339 1.4157 0
M  V30 8245 H 771.069 0.663815 -0.015662 0
M  V30 8246 H 773.599 1.93321 -0.669936 0
M  V30 8247 H 773.609 4.03927 0.575034 0
M  V30 8248 H 772.284 4.11912 -0.574551 0
M  V30 8249 H 770.861 3.54272 1.16385 0
M  V30 8250 N 773.046 0.209999 1.56195 0
M  V30 8251 C 774.009 -0.691232 2.18528 0
M  V30 8252 C 775.009 -1.13013 1.14388 0
M  V30 8253 O 776.199 -1.04081 1.39688 0
M  V30 8254 C 773.331 -1.94551 2.79934 0
M  V30 8255 H 774.524 -0.147953 2.99535 0
M  V30 8256 H 772.077 -0.0396243 1.5625 0
M  V30 8257 H 772.812 -2.53094 2.02766 0
M  V30 8258 H 772.597 -1.63938 3.56184 0
M  V30 8259 H 774.087 -2.58785 3.2775 0
M  V30 8260 N 774.524 -1.57472 -0.0634922 0
M  V30 8261 C 775.456 -2.00999 -1.10145 0
M  V30 8262 C 776.469 -0.917219 -1.34503 0
M  V30 8263 O 777.658 -1.19501 -1.32596 0
M  V30 8264 C 774.758 -2.34089 -2.45063 0
M  V30 8265 C 773.931 -3.65317 -2.40546 0
M  V30 8266 C 772.99 -3.85982 -3.57637 0
M  V30 8267 O 772.016 -4.5747 -3.38689 0
M  V30 8268 N 773.218 -3.28971 -4.78287 0
M  V30 8269 H 775.983 -2.90656 -0.730714 0
M  V30 8270 H 773.544 -1.59926 -0.252017 0
M  V30 8271 H 775.536 -2.4508 -3.22053 0
M  V30 8272 H 774.106 -1.50279 -2.74107 0
M  V30 8273 H 773.326 -3.65003 -1.48885 0
M  V30 8274 H 774.614 -4.51468 -2.34636 0
M  V30 8275 H 774.012 -2.70962 -4.96584 0
M  V30 8276 H 772.569 -3.45398 -5.5276 0
M  V30 8277 N 776.003 0.335068 -1.53997 0
M  V30 8278 C 776.95 1.41187 -1.82579 0
M  V30 8279 C 777.92 1.51897 -0.672061 0
M  V30 8280 O 779.105 1.673 -0.917346 0
M  V30 8281 C 776.245 2.77717 -2.0486 0
M  V30 8282 C 775.358 2.7573 -3.32561 0
M  V30 8283 C 774.493 4.04032 -3.44864 0
M  V30 8284 C 773.532 3.96308 -4.66483 0
M  V30 8285 N 772.669 5.16317 -4.75774 0
M  V30 8286 H 777.509 1.16113 -2.74448 0
M  V30 8287 H 775.046 0.562305 -1.35928 0
M  V30 8288 H 777.004 3.57071 -2.15768 0
M  V30 8289 H 775.634 3.01124 -1.16294 0
M  V30 8290 H 774.686 1.88432 -3.3045 0
M  V30 8291 H 775.998 2.65902 -4.22016 0
M  V30 8292 H 775.152 4.91814 -3.55251 0
M  V30 8293 H 773.891 4.16652 -2.53481 0
M  V30 8294 H 772.896 3.06911 -4.56164 0
M  V30 8295 H 774.121 3.85263 -5.5924 0
M  V30 8296 H 772.067 5.29464 -3.87303 0
M  V30 8297 H 771.984 5.08779 -5.59178 0
M  V30 8298 H 773.252 6.05846 -4.9048 0
M  V30 8299 N 777.481 1.45874 0.596531 0
M  V30 8300 C 778.706 1.54247 1.38646 0
M  V30 8301 C 779.131 0.179571 1.87241 0
M  V30 8302 O 778.489 -0.837831 1.6078 0
M  V30 8303 C 778.537 2.54015 2.55946 0
M  V30 8304 O 777.641 2.06561 3.5694 0
M  V30 8305 H 776.982 0.519555 0.413471 0
M  V30 8306 H 779.512 1.91327 0.724936 0
M  V30 8307 H 779.522 2.73179 3.03047 0
M  V30 8308 H 778.197 3.52994 2.19928 0
M  V30 8309 H 776.774 1.97324 3.16414 0
M  V30 8310 N 778.959 -0.83999 1.33349 0
M  V30 8311 C 780.375 -1.13049 1.12659 0
M  V30 8312 C 780.575 -2.01328 -0.0832613 0
M  V30 8313 O 779.631 -2.40669 -0.763856 0
M  V30 8314 C 780.944 -1.79366 2.41347 0
M  V30 8315 C 782.492 -1.91937 2.47243 0
M  V30 8316 C 782.967 -2.6167 3.75889 0
M  V30 8317 N 784.458 -2.69184 3.76954 0
M  V30 8318 C 785.193 -3.23827 4.73206 0
M  V30 8319 N 784.689 -3.79166 5.79832 0
M  V30 8320 N 786.482 -3.22068 4.60683 0
M  V30 8321 H 778.633 -0.252432 2.10895 0
M  V30 8322 H 780.896 -0.174501 0.931801 0
M  V30 8323 H 780.602 -1.2196 3.29877 0
M  V30 8324 H 780.476 -2.79396 2.53412 0
M  V30 8325 H 782.863 -2.48498 1.59163 0
M  V30 8326 H 782.944 -0.908604 2.39119 0
M  V30 8327 H 782.588 -2.05769 4.64351 0
M  V30 8328 H 782.518 -3.63217 3.81289 0
M  V30 8329 H 785.009 -2.2994 2.99893 0
M  V30 8330 H 785.322 -4.19061 6.49313 0
M  V30 8331 H 783.667 -3.77457 5.83568 0
M  V30 8332 H 786.858 -2.78092 3.7654 0
M  V30 8333 H 787.031 -3.64351 5.35866 0
M  V30 8334 N 780.437 -1.16799 -1.0581 0
M  V30 8335 C 781.714 -0.862616 -1.75551 0
M  V30 8336 C 782.094 0.6385 -2.01212 0
M  V30 8337 O 781.442 1.58784 -1.64317 0
M  V30 8338 C 781.652 -1.6907 -3.05314 0
M  V30 8339 C 783 -1.90675 -3.79379 0
M  V30 8340 O 784.024 -1.65976 -3.15167 0
M  V30 8341 O 782.883 -2.32145 -4.94743 0
M  V30 8342 H 779.977 -0.318789 -0.763088 0
M  V30 8343 H 782.523 -1.27461 -1.12034 0
M  V30 8344 H 781.295 -2.70912 -2.82352 0
M  V30 8345 H 780.918 -1.27606 -3.76567 0
M  V30 8346 N 781.915 1.24427 -0.967243 0
M  V30 8347 C 783.331 1.44684 -0.6737 0
M  V30 8348 C 783.531 1.86429 0.764625 0
M  V30 8349 O 782.587 2.00211 1.53857 0
M  V30 8350 C 783.9 2.509 -1.6574 0
M  V30 8351 C 785.448 2.64728 -1.66998 0
M  V30 8352 C 785.923 3.7414 -2.64165 0
M  V30 8353 N 787.414 3.81567 -2.62604 0
M  V30 8354 C 788.149 4.6575 -3.34462 0
M  V30 8355 N 787.645 5.54124 -4.15835 0
M  V30 8356 N 789.438 4.59827 -3.23288 0
M  V30 8357 H 781.589 0.956276 -1.89655 0
M  V30 8358 H 783.852 0.48171 -0.816492 0
M  V30 8359 H 783.558 2.27113 -2.68538 0
M  V30 8360 H 783.432 3.4905 -1.42981 0
M  V30 8361 H 785.819 2.87872 -0.649121 0
M  V30 8362 H 785.9 1.66936 -1.93819 0
M  V30 8363 H 785.544 3.51745 -3.66384 0
M  V30 8364 H 785.474 4.71444 -2.34623 0
M  V30 8365 H 787.965 3.18403 -2.03539 0
M  V30 8366 H 788.278 6.15316 -4.67553 0
M  V30 8367 H 786.623 5.53791 -4.19929 0
M  V30 8368 H 789.814 3.898 -2.59179 0
M  V30 8369 H 789.987 5.25208 -3.79553 0
M  V30 8370 N 783.393 0.737304 1.3929 0
M  V30 8371 C 784.642 0.283129 1.99703 0
M  V30 8372 C 784.955 -1.13677 1.59176 0
M  V30 8373 O 786.161 -1.69058 2.12442 0
M  V30 8374 C 784.617 0.455262 3.57009 0
M  V30 8375 C 784.225 1.88319 4.06497 0
M  V30 8376 C 785.969 0.0629786 4.24453 0
M  V30 8377 C 783.876 2.00475 5.56385 0
M  V30 8378 H 782.806 0.102106 0.747054 0
M  V30 8379 H 785.457 0.911515 1.5926 0
M  V30 8380 H 783.839 -0.242057 3.9526 0
M  V30 8381 H 785.013 2.61265 3.79575 0
M  V30 8382 H 783.328 2.2289 3.51723 0
M  V30 8383 H 785.925 0.132787 5.34535 0
M  V30 8384 H 786.268 -0.982128 4.04549 0
M  V30 8385 H 786.801 0.71154 3.91385 0
M  V30 8386 H 783.54 3.03182 5.81172 0
M  V30 8387 H 783.06 1.31969 5.85102 0
M  V30 8388 H 784.739 1.787 6.21832 0
M  V30 8389 N 784.871 -1.49948 0.485112 0
M  V30 8390 C 785.801 -2.31675 -0.291364 0
M  V30 8391 C 786.782 -1.39216 -0.977383 0
M  V30 8392 O 787.967 -1.68133 -0.971855 0
M  V30 8393 C 785.097 -3.19326 -1.36558 0
M  V30 8394 C 784.051 -4.2045 -0.800359 0
M  V30 8395 C 783.377 -4.96931 -1.97391 0
M  V30 8396 C 784.677 -5.21925 0.197867 0
M  V30 8397 H 786.371 -2.96839 0.390775 0
M  V30 8398 H 783.917 -1.42749 0.189375 0
M  V30 8399 H 785.87 -3.75304 -1.91638 0
M  V30 8400 H 784.594 -2.52074 -2.07668 0
M  V30 8401 H 783.253 -3.65594 -0.271428 0
M  V30 8402 H 782.901 -4.26141 -2.67232 0
M  V30 8403 H 782.601 -5.65344 -1.60187 0
M  V30 8404 H 784.125 -5.55749 -2.52935 0
M  V30 8405 H 785.539 -5.72691 -0.264239 0
M  V30 8406 H 783.936 -5.98138 0.484908 0
M  V30 8407 H 785.006 -4.71809 1.11912 0
M  V30 8408 N 786.349 -0.21828 -1.56081 0
M  V30 8409 C 787.297 0.709679 -2.21509 0
M  V30 8410 C 788.291 1.20221 -1.19346 0
M  V30 8411 O 789.497 1.16241 -1.37433 0
M  V30 8412 H 785.872 0.247271 -0.710184 0
M  V30 8413 H 787.843 0.134386 -2.98097 0
M  V30 8414 C 786.592 1.90853 -2.90638 0
M  V30 8415 H 785.915 1.53865 -3.69006 0
M  V30 8416 H 787.355 2.53568 -3.39822 0
M  V30 8417 C 785.814 2.76189 -1.92929 0
M  V30 8418 O 786.344 3.74842 -1.44416 0
M  V30 8419 N 784.55 2.42157 -1.6065 0
M  V30 8420 H 784.097 1.61987 -2.00294 0
M  V30 8421 H 784.055 2.99534 -0.955347 0
M  V30 8422 N 787.827 1.57504 0.0551401 0
M  V30 8423 C 789.073 1.88334 0.752216 0
M  V30 8424 C 789.406 0.812742 1.76375 0
M  V30 8425 O 788.681 -0.175198 1.93709 0
M  V30 8426 C 788.964 3.29824 1.44528 0
M  V30 8427 C 788.817 4.47553 0.449026 0
M  V30 8428 C 790.136 3.69808 2.38601 0
M  V30 8429 H 787.255 0.684973 0.271995 0
M  V30 8430 H 789.897 1.89994 0.0151895 0
M  V30 8431 H 788.047 3.28539 2.07351 0
M  V30 8432 H 789.719 4.60967 -0.175277 0
M  V30 8433 H 787.962 4.33168 -0.234162 0
M  V30 8434 H 788.633 5.43376 0.971917 0
M  V30 8435 H 791.109 3.72293 1.85842 0
M  V30 8436 H 789.985 4.69665 2.84088 0
M  V30 8437 H 790.246 3.00641 3.24141 0
M  V30 8438 N 789.305 -0.326896 1.54172 0
M  V30 8439 C 790.552 -1.06523 1.72218 0
M  V30 8440 C 790.88 -1.88119 0.494114 0
M  V30 8441 O 790.135 -1.8855 -0.524147 0
M  V30 8442 C 790.434 -2.0208 2.94785 0
M  V30 8443 C 790.1 -1.36665 4.2969 0
M  V30 8444 C 788.762 -1.18556 4.66367 0
M  V30 8445 C 791.114 -0.896868 5.13425 0
M  V30 8446 C 788.442 -0.521113 5.84381 0
M  V30 8447 C 790.794 -0.246261 6.3212 0
M  V30 8448 C 789.458 -0.052987 6.67479 0
M  V30 8449 H 788.728 -0.389796 0.63019 0
M  V30 8450 H 791.375 -0.342725 1.88408 0
M  V30 8451 H 789.68 -2.8077 2.73268 0
M  V30 8452 H 791.377 -2.59231 3.05941 0
M  V30 8453 H 787.967 -1.51762 4.00832 0
M  V30 8454 H 792.151 -1.02458 4.85609 0
M  V30 8455 H 787.407 -0.36014 6.10338 0
M  V30 8456 H 791.581 0.125775 6.96286 0
M  V30 8457 H 789.208 0.463903 7.58783 0
M  V30 8458 N 790.784 -1.46188 -0.588786 0
M  V30 8459 C 791.734 -1.5271 -1.69303 0
M  V30 8460 C 792.718 -0.388578 -1.56137 0
M  V30 8461 O 793.91 -0.636616 -1.65155 0
M  V30 8462 C 791.039 -1.51457 -3.08084 0
M  V30 8463 C 790.125 -2.70581 -3.26568 0
M  V30 8464 N 790.516 -3.9555 -3.15236 0
M  V30 8465 C 788.814 -2.66676 -3.57491 0
M  V30 8466 C 789.515 -4.75157 -3.35561 0
M  V30 8467 N 788.491 -4.06927 -3.60432 0
M  V30 8468 H 792.293 -2.47136 -1.59063 0
M  V30 8469 H 789.807 -1.41743 -0.792632 0
M  V30 8470 H 791.804 -1.54216 -3.87328 0
M  V30 8471 H 790.464 -0.581036 -3.19459 0
M  V30 8472 H 791.475 -4.2689 -2.93232 0
M  V30 8473 H 788.152 -1.82317 -3.75588 0
M  V30 8474 H 789.542 -5.84126 -3.32034 0
M  V30 8475 N 792.262 0.832906 -1.33792 0
M  V30 8476 C 793.172 1.97514 -1.26592 0
M  V30 8477 C 794.188 1.73114 -0.175391 0
M  V30 8478 O 795.364 1.97387 -0.400062 0
M  V30 8479 C 792.429 3.31625 -1.01121 0
M  V30 8480 C 791.49 3.69101 -2.19233 0
M  V30 8481 C 790.723 4.96813 -1.94968 0
M  V30 8482 O 790.946 5.63208 -0.902955 0
M  V30 8483 O 789.88 5.31932 -2.8166 0
M  V30 8484 H 793.706 2.0653 -2.22664 0
M  V30 8485 H 791.291 0.966826 -1.13898 0
M  V30 8486 H 793.173 4.11968 -0.886571 0
M  V30 8487 H 791.848 3.23599 -0.080822 0
M  V30 8488 H 790.755 2.89243 -2.37253 0
M  V30 8489 H 792.088 3.818 -3.10628 0
M  V30 8490 N 793.74 1.17359 1.05189 0
M  V30 8491 C 794.67 0.91365 2.14883 0
M  V30 8492 C 795.651 -0.144365 1.69486 0
M  V30 8493 O 796.836 0.00587861 1.94199 0
M  V30 8494 C 793.966 0.426196 3.44675 0
M  V30 8495 C 792.92 1.4234 4.03638 0
M  V30 8496 C 792.246 0.793902 5.28773 0
M  V30 8497 C 793.546 2.7966 4.41121 0
M  V30 8498 H 795.24 1.831 2.36885 0
M  V30 8499 H 792.786 0.881781 1.13845 0
M  V30 8500 H 794.739 0.231767 4.20762 0
M  V30 8501 H 793.463 -0.526693 3.22325 0
M  V30 8502 H 792.122 1.60457 3.2962 0
M  V30 8503 H 791.77 -0.165824 5.02727 0
M  V30 8504 H 791.47 1.45959 5.69183 0
M  V30 8505 H 792.994 0.609747 6.07548 0
M  V30 8506 H 794.408 2.6526 5.08242 0
M  V30 8507 H 792.805 3.42807 4.92548 0
M  V30 8508 H 793.875 3.34068 3.51464 0
M  V30 8509 N 795.218 -1.23913 0.973828 0
M  V30 8510 C 796.166 -2.27141 0.50098 0
M  V30 8511 C 797.16 -1.63623 -0.438631 0
M  V30 8512 O 798.366 -1.77253 -0.313247 0
M  V30 8513 H 794.741 -0.73817 0.14356 0
M  V30 8514 H 796.712 -2.64392 1.38346 0
M  V30 8515 C 795.461 -3.47195 -0.187377 0
M  V30 8516 H 794.784 -3.96318 0.526535 0
M  V30 8517 H 796.224 -4.21252 -0.481962 0
M  V30 8518 C 794.683 -3.05678 -1.41642 0
M  V30 8519 O 795.213 -3.1338 -2.51309 0
M  V30 8520 N 793.419 -2.60661 -1.28469 0
M  V30 8521 H 792.966 -2.54594 -0.39238 0
M  V30 8522 H 792.924 -2.33249 -2.10813 0
M  V30 8523 N 796.696 -0.74468 -1.38897 0
M  V30 8524 C 797.626 -0.126355 -2.33158 0
M  V30 8525 C 798.607 0.713517 -1.54412 0
M  V30 8526 O 799.792 0.656523 -1.82766 0
M  V30 8527 C 796.922 0.774375 -3.38557 0
M  V30 8528 C 795.876 0.0379214 -4.27983 0
M  V30 8529 C 795.202 1.05631 -5.24162 0
M  V30 8530 C 796.502 -1.12523 -5.10035 0
M  V30 8531 H 798.196 -0.913744 -2.85116 0
M  V30 8532 H 795.742 -0.440847 -1.37086 0
M  V30 8533 H 797.695 1.21655 -4.03458 0
M  V30 8534 H 796.419 1.59399 -2.85061 0
M  V30 8535 H 795.078 -0.384733 -3.64576 0
M  V30 8536 H 794.726 1.86975 -4.66958 0
M  V30 8537 H 794.426 0.568261 -5.84846 0
M  V30 8538 H 795.95 1.49799 -5.9194 0
M  V30 8539 H 797.364 -0.761037 -5.68226 0
M  V30 8540 H 795.761 -1.54355 -5.79909 0
M  V30 8541 H 796.831 -1.94237 -4.44297 0
M  V30 8542 N 798.174 1.49689 -0.493057 0
M  V30 8543 C 799.121 2.28976 0.28959 0
M  V30 8544 C 800.091 1.35011 0.967536 0
M  V30 8545 O 801.276 1.63964 0.975736 0
M  V30 8546 C 798.416 3.1748 1.35279 0
M  V30 8547 C 797.529 4.26496 0.687418 0
M  V30 8548 C 796.664 5.02226 1.73038 0
M  V30 8549 C 795.703 6.03089 1.04645 0
M  V30 8550 N 794.84 6.72014 2.03325 0
M  V30 8551 H 799.68 2.954 -0.392798 0
M  V30 8552 H 797.217 1.45657 -0.205554 0
M  V30 8553 H 799.175 3.67162 1.98111 0
M  V30 8554 H 797.805 2.53057 2.00405 0
M  V30 8555 H 796.857 3.80362 -0.0540001 0
M  V30 8556 H 798.169 4.98578 0.14864 0
M  V30 8557 H 797.323 5.55737 2.43395 0
M  V30 8558 H 796.062 4.29899 2.303 0
M  V30 8559 H 795.067 5.48817 0.328606 0
M  V30 8560 H 796.292 6.77398 0.480428 0
M  V30 8561 H 794.238 6.02464 2.59564 0
M  V30 8562 H 794.155 7.40046 1.54492 0
M  V30 8563 H 795.423 7.30133 2.72995 0
M  V30 8564 N 799.652 0.226554 1.55963 0
M  V30 8565 C 800.929 -0.453058 1.90281 0
M  V30 8566 C 801.309 -1.77377 1.14458 0
M  V30 8567 O 800.657 -2.27067 0.255496 0
M  V30 8568 C 800.867 -0.641108 3.43061 0
M  V30 8569 C 802.215 -0.946265 4.13921 0
M  V30 8570 O 803.239 -0.727713 3.48687 0
M  V30 8571 O 802.098 -1.36131 5.29274 0
M  V30 8572 H 799.192 -0.240242 0.791336 0
M  V30 8573 H 801.738 0.26911 1.67553 0
M  V30 8574 H 800.51 0.290283 3.90222 0
M  V30 8575 H 800.133 -1.41458 3.71585 0
M  V30 8576 N 801.13 -1.57531 -0.0467866 0
M  V30 8577 C 802.093 -2.04379 -1.03738 0
M  V30 8578 C 803.093 -0.944881 -1.3011 0
M  V30 8579 O 804.283 -1.20904 -1.25411 0
M  V30 8580 C 801.415 -2.44572 -2.37482 0
M  V30 8581 H 802.608 -2.93142 -0.633063 0
M  V30 8582 H 800.161 -1.53526 -0.293177 0
M  V30 8583 H 800.896 -1.58911 -2.82697 0
M  V30 8584 H 800.681 -3.24785 -2.19675 0
M  V30 8585 H 802.171 -2.81307 -3.08636 0
M  V30 8586 N 802.608 0.318715 -1.54344 0
M  V30 8587 C 803.857 1.05363 -1.71993 0
M  V30 8588 C 804.17 1.89018 -0.503155 0
M  V30 8589 O 805.376 2.65639 -0.561085 0
M  V30 8590 C 803.832 1.92281 -3.0423 0
M  V30 8591 C 803.44 1.13715 -4.33328 0
M  V30 8592 C 805.184 2.65479 -3.31242 0
M  V30 8593 C 803.091 1.99806 -5.56625 0
M  V30 8594 H 802.021 0.397081 -0.64097 0
M  V30 8595 H 804.672 0.311598 -1.80835 0
M  V30 8596 H 803.054 2.70402 -2.89307 0
M  V30 8597 H 804.228 0.403305 -4.59032 0
M  V30 8598 H 802.543 0.521769 -4.13118 0
M  V30 8599 H 805.14 3.30209 -4.20555 0
M  V30 8600 H 805.483 3.33374 -2.49334 0
M  V30 8601 H 806.016 1.94417 -3.47054 0
M  V30 8602 H 802.755 1.36411 -6.41149 0
M  V30 8603 H 802.275 2.70911 -5.35133 0
M  V30 8604 H 803.954 2.58277 -5.93213 0
M  V30 8605 N 804.086 1.46499 0.581025 0
M  V30 8606 C 805.311 1.55708 1.37002 0
M  V30 8607 C 805.736 0.19942 1.8704 0
M  V30 8608 O 805.094 -0.820731 1.61659 0
M  V30 8609 C 805.142 2.56716 2.53238 0
M  V30 8610 O 804.246 2.10336 3.54729 0
M  V30 8611 H 803.587 0.523912 0.407937 0
M  V30 8612 H 806.117 1.92085 0.704602 0
M  V30 8613 H 806.127 2.76378 3.00132 0
M  V30 8614 H 804.802 3.55307 2.16171 0
M  V30 8615 H 803.379 2.00669 3.14303 0
M  V30 8616 N 805.565 -0.825799 1.34232 0
M  V30 8617 C 806.795 -1.61129 1.29309 0
M  V30 8618 C 807.203 -1.88714 -0.135589 0
M  V30 8619 O 806.546 -1.47703 -1.09222 0
M  V30 8620 C 806.608 -2.97866 2.01287 0
M  V30 8621 C 806.272 -2.9319 3.50555 0
M  V30 8622 C 807.269 -2.67978 4.45515 0
M  V30 8623 C 804.954 -3.12913 3.92926 0
M  V30 8624 C 806.948 -2.62536 5.80822 0
M  V30 8625 C 804.635 -3.07096 5.28333 0
M  V30 8626 C 805.633 -2.8194 6.22092 0
M  V30 8627 O 805.321 -2.7605 7.55018 0
M  V30 8628 H 805.053 -0.507652 0.446391 0
M  V30 8629 H 807.607 -1.03575 1.77374 0
M  V30 8630 H 805.837 -3.57327 1.47832 0
M  V30 8631 H 807.526 -3.58848 1.89691 0
M  V30 8632 H 808.292 -2.52478 4.14101 0
M  V30 8633 H 804.171 -3.3151 3.20347 0
M  V30 8634 H 807.715 -2.42821 6.53975 0
M  V30 8635 H 803.612 -3.22148 5.59367 0
M  V30 8636 H 804.38 -2.91798 7.6472 0
M  V30 8637 N 807.043 -1.17915 -1.04565 0
M  V30 8638 C 808.289 -0.972863 -1.77942 0
M  V30 8639 C 808.622 0.496753 -1.87739 0
M  V30 8640 O 807.897 1.3688 -1.38181 0
M  V30 8641 C 808.18 -1.62227 -3.21488 0
M  V30 8642 C 808.033 -3.16441 -3.19664 0
M  V30 8643 C 809.352 -1.33137 -4.19479 0
M  V30 8644 H 806.471 -0.354843 -0.645953 0
M  V30 8645 H 809.113 -1.45508 -1.22178 0
M  V30 8646 H 807.263 -1.21224 -3.69103 0
M  V30 8647 H 808.935 -3.66544 -2.80077 0
M  V30 8648 H 807.178 -3.48863 -2.57832 0
M  V30 8649 H 807.849 -3.57012 -4.21006 0
M  V30 8650 H 810.325 -1.68654 -3.80388 0
M  V30 8651 H 809.201 -1.81151 -5.18146 0
M  V30 8652 H 809.462 -0.253319 -4.41374 0
M  V30 8653 N 808.521 1.23394 -0.980386 0
M  V30 8654 C 809.484 2.23092 -0.525619 0
M  V30 8655 C 810.484 1.56129 0.384745 0
M  V30 8656 O 811.674 1.73284 0.178439 0
M  V30 8657 C 808.806 3.40074 0.23712 0
M  V30 8658 H 809.999 2.64839 -1.40714 0
M  V30 8659 H 807.552 1.36227 -0.766275 0
M  V30 8660 H 808.287 3.03783 1.13518 0
M  V30 8661 H 808.072 3.89883 -0.416356 0
M  V30 8662 H 809.562 4.14043 0.543892 0
M  V30 8663 N 809.999 0.752036 1.385 0
M  V30 8664 C 810.909 0.125318 2.34265 0
M  V30 8665 C 811.925 -0.702437 1.59191 0
M  V30 8666 O 813.101 -0.626951 1.91393 0
M  V30 8667 C 810.166 -0.758486 3.38301 0
M  V30 8668 C 809.227 0.0834636 4.29219 0
M  V30 8669 C 808.46 -0.758252 5.28286 0
M  V30 8670 O 808.683 -1.99632 5.34325 0
M  V30 8671 O 807.617 -0.177878 6.01637 0
M  V30 8672 H 811.443 0.91617 2.89551 0
M  V30 8673 H 809.028 0.512911 1.4032 0
M  V30 8674 H 810.91 -1.26365 4.02007 0
M  V30 8675 H 809.585 -1.52786 2.85374 0
M  V30 8676 H 808.492 0.634545 3.68679 0
M  V30 8677 H 809.825 0.815455 4.85398 0
M  V30 8678 N 811.477 -1.49425 0.500989 0
M  V30 8679 C 812.725 -2.02053 -0.0434495 0
M  V30 8680 C 813.046 -1.38285 -1.37486 0
M  V30 8681 O 812.316 -0.538171 -1.88363 0
M  V30 8682 H 810.896 -0.746757 -0.0190469 0
M  V30 8683 H 813.558 -1.83449 0.658227 0
M  V30 8684 H 812.654 -3.11619 -0.173129 0
M  V30 8685 N 812.955 -0.234822 -1.55841 0
M  V30 8686 C 813.865 0.680828 -2.24504 0
M  V30 8687 C 814.881 1.20306 -1.25708 0
M  V30 8688 O 816.057 1.24188 -1.58554 0
M  V30 8689 C 813.122 1.86636 -2.92178 0
M  V30 8690 C 812.183 1.3848 -4.06352 0
M  V30 8691 C 811.416 2.51382 -4.70789 0
M  V30 8692 O 811.639 3.69831 -4.34259 0
M  V30 8693 O 810.573 2.21828 -5.59532 0
M  V30 8694 H 814.399 0.12583 -3.03439 0
M  V30 8695 H 811.984 -0.00381817 -1.494 0
M  V30 8696 H 813.866 2.55845 -3.34845 0
M  V30 8697 H 812.541 2.40921 -2.16192 0
M  V30 8698 H 811.448 0.660341 -3.68226 0
M  V30 8699 H 812.781 0.888177 -4.8412 0
M  V30 8700 N 814.433 1.57553 0.0384317 0
M  V30 8701 C 815.849 1.54663 0.39391 0
M  V30 8702 C 816.049 0.959685 1.77179 0
M  V30 8703 O 815.105 0.576647 2.45827 0
M  V30 8704 C 816.418 2.99156 0.304352 0
M  V30 8705 C 817.966 3.10659 0.382119 0
M  V30 8706 C 818.441 4.56866 0.322111 0
M  V30 8707 N 819.932 4.61629 0.38119 0
M  V30 8708 C 820.667 5.72284 0.357501 0
M  V30 8709 N 820.163 6.92207 0.286654 0
M  V30 8710 N 821.956 5.60628 0.406538 0
M  V30 8711 H 814.107 1.9406 -0.86339 0
M  V30 8712 H 816.37 0.889673 -0.327392 0
M  V30 8713 H 816.076 3.45788 -0.642141 0
M  V30 8714 H 815.95 3.60753 1.10168 0
M  V30 8715 H 818.337 2.6398 1.31904 0
M  V30 8716 H 818.418 2.5191 -0.444391 0
M  V30 8717 H 818.062 5.0421 -0.611104 0
M  V30 8718 H 817.992 5.13515 1.1666 0
M  V30 8719 H 820.483 3.75343 0.438838 0
M  V30 8720 H 820.796 7.72316 0.273421 0
M  V30 8721 H 819.141 6.9454 0.252841 0
M  V30 8722 H 822.332 4.65836 0.459812 0
M  V30 8723 H 822.505 6.46858 0.384608 0
M  V30 8724 N 815.911 -0.310526 1.54511 0
M  V30 8725 C 817.327 -0.655637 1.45511 0
M  V30 8726 C 817.527 -1.91114 0.638564 0
M  V30 8727 O 816.583 -2.52098 0.142497 0
M  V30 8728 C 817.896 -0.817501 2.89374 0
M  V30 8729 C 819.444 -0.914003 2.99358 0
M  V30 8730 C 819.919 -1.10794 4.44397 0
M  V30 8731 N 821.41 -1.17437 4.48066 0
M  V30 8732 C 822.145 -1.34255 5.57461 0
M  V30 8733 N 821.641 -1.48032 6.768 0
M  V30 8734 N 823.434 -1.37067 5.45132 0
M  V30 8735 H 815.585 0.514506 2.06074 0
M  V30 8736 H 817.848 0.168478 0.932909 0
M  V30 8737 H 817.554 0.034003 3.51684 0
M  V30 8738 H 817.428 -1.7094 3.36243 0
M  V30 8739 H 819.815 -1.756 2.37168 0
M  V30 8740 H 819.896 0.00170958 2.558 0
M  V30 8741 H 819.54 -0.270743 5.07178 0
M  V30 8742 H 819.47 -2.03773 4.85576 0
M  V30 8743 H 821.961 -1.08181 3.62084 0
M  V30 8744 H 822.274 -1.60593 7.5593 0
M  V30 8745 H 820.619 -1.45105 6.79683 0
M  V30 8746 H 823.81 -1.25909 4.50849 0
M  V30 8747 H 823.983 -1.49831 6.3044 0
M  V30 8748 N 817.389 -1.46805 -0.573248 0
M  V30 8749 C 818.637 -1.52302 -1.32847 0
M  V30 8750 C 818.958 -0.180159 -1.94166 0
M  V30 8751 O 818.228 0.794291 -1.79075 0
M  V30 8752 H 816.808 -0.56097 -0.493276 0
M  V30 8753 H 819.47 -1.82998 -0.670642 0
M  V30 8754 H 818.566 -2.28089 -2.13031 0
M  V30 8755 N 818.867 0.818669 -1.34668 0
M  V30 8756 C 820.092 1.61193 -1.30505 0
M  V30 8757 C 820.517 1.87734 0.117341 0
M  V30 8758 O 819.875 1.45591 1.08042 0
M  V30 8759 C 819.923 2.92733 -2.1057 0
M  V30 8760 O 819.027 3.85 -1.47813 0
M  V30 8761 H 818.368 0.490085 -0.44801 0
M  V30 8762 H 820.898 1.01701 -1.77534 0
M  V30 8763 H 820.908 3.42262 -2.22082 0
M  V30 8764 H 819.583 2.7274 -3.13984 0
M  V30 8765 H 818.16 3.43525 -1.45069 0
M  V30 8766 N 820.346 1.18468 1.03938 0
M  V30 8767 C 821.276 0.936389 2.13902 0
M  V30 8768 C 822.257 -0.126381 1.6963 0
M  V30 8769 O 823.442 0.0264757 1.94182 0
M  V30 8770 C 820.572 0.462729 3.44204 0
M  V30 8771 C 819.526 1.46613 4.02105 0
M  V30 8772 C 818.852 0.84994 5.27902 0
M  V30 8773 C 820.152 2.84323 4.3813 0
M  V30 8774 H 821.846 1.85602 2.3493 0
M  V30 8775 H 819.392 0.893806 1.12903 0
M  V30 8776 H 821.345 0.276382 4.20493 0
M  V30 8777 H 820.069 -0.492477 3.22866 0
M  V30 8778 H 818.728 1.63944 3.27899 0
M  V30 8779 H 818.376 -0.112493 5.02874 0
M  V30 8780 H 818.076 1.51988 5.67603 0
M  V30 8781 H 819.6 0.674152 6.06867 0
M  V30 8782 H 821.014 2.70636 5.054 0
M  V30 8783 H 819.411 3.48012 4.88884 0
M  V30 8784 H 820.481 3.37776 3.47901 0
M  V30 8785 N 821.824 -1.22873 0.986916 0
M  V30 8786 C 822.787 -2.2281 0.537442 0
M  V30 8787 C 823.787 -1.56331 -0.37646 0
M  V30 8788 O 824.977 -1.73376 -0.169247 0
M  V30 8789 C 822.109 -3.40195 -0.219082 0
M  V30 8790 H 823.302 -2.64089 1.42116 0
M  V30 8791 H 820.855 -1.35819 0.773488 0
M  V30 8792 H 821.59 -3.04381 -1.11905 0
M  V30 8793 H 821.375 -3.89657 0.437026 0
M  V30 8794 H 822.865 -4.14326 -0.521926 0
M  V30 8795 N 823.302 -0.75937 -1.38099 0
M  V30 8796 C 824.549 -0.318113 -1.99986 0
M  V30 8797 C 824.877 1.10184 -1.6028 0
M  V30 8798 O 824.132 1.77015 -0.834524 0
M  V30 8799 C 824.431 -0.394999 -3.55211 0
M  V30 8800 C 824.097 -1.77143 -4.14646 0
M  V30 8801 C 822.759 -2.14811 -4.30592 0
M  V30 8802 C 825.111 -2.67407 -4.47373 0
M  V30 8803 C 822.439 -3.42203 -4.76565 0
M  V30 8804 C 824.791 -3.94196 -4.94765 0
M  V30 8805 C 823.455 -4.31925 -5.08918 0
M  V30 8806 H 822.725 -0.116406 -0.7318 0
M  V30 8807 H 825.372 -0.97098 -1.65058 0
M  V30 8808 H 823.677 0.341426 -3.9031 0
M  V30 8809 H 825.374 -0.0350722 -4.00985 0
M  V30 8810 H 821.964 -1.46864 -4.02652 0
M  V30 8811 H 826.148 -2.39569 -4.3465 0
M  V30 8812 H 821.404 -3.71346 -4.85708 0
M  V30 8813 H 825.578 -4.64276 -5.19057 0
M  V30 8814 H 823.205 -5.30699 -5.443 0
M  V30 8815 N 824.78 1.49157 -0.508906 0
M  V30 8816 C 826.029 2.0167 0.0346854 0
M  V30 8817 C 826.342 1.39302 1.37311 0
M  V30 8818 O 827.548 1.83189 2.00385 0
M  V30 8819 C 826.004 3.59725 0.112261 0
M  V30 8820 C 825.612 4.31069 -1.21999 0
M  V30 8821 C 827.356 4.20155 0.605798 0
M  V30 8822 C 825.263 5.81001 -1.10415 0
M  V30 8823 H 824.193 0.753814 0.0167355 0
M  V30 8824 H 826.844 1.7162 -0.649518 0
M  V30 8825 H 825.226 3.86525 0.861087 0
M  V30 8826 H 826.4 4.15962 -1.98273 0
M  V30 8827 H 824.715 3.82418 -1.64759 0
M  V30 8828 H 827.312 5.29964 0.710102 0
M  V30 8829 H 827.655 3.84051 1.60656 0
M  V30 8830 H 828.188 3.97705 -0.0867239 0
M  V30 8831 H 824.927 6.21643 -2.07941 0
M  V30 8832 H 824.447 5.9858 -0.382428 0
M  V30 8833 H 826.126 6.42207 -0.786116 0
M  V30 8834 N 826.258 0.243083 1.55714 0
M  V30 8835 C 827.674 -0.111853 1.59208 0
M  V30 8836 C 827.874 -1.5723 1.2602 0
M  V30 8837 O 826.93 -2.31608 1.00569 0
M  V30 8838 C 828.243 0.233885 2.99789 0
M  V30 8839 C 829.791 0.177873 3.12494 0
M  V30 8840 C 830.266 0.49759 4.55289 0
M  V30 8841 N 831.757 0.447949 4.61029 0
M  V30 8842 C 832.492 0.668545 5.69489 0
M  V30 8843 N 831.988 0.952064 6.86227 0
M  V30 8844 N 833.781 0.599512 5.58894 0
M  V30 8845 H 825.932 1.19554 1.75558 0
M  V30 8846 H 828.195 0.480765 0.817049 0
M  V30 8847 H 827.901 1.24835 3.28799 0
M  V30 8848 H 827.775 -0.440846 3.74615 0
M  V30 8849 H 830.162 -0.827263 2.83267 0
M  V30 8850 H 830.243 0.886399 2.39951 0
M  V30 8851 H 829.887 1.50026 4.85237 0
M  V30 8852 H 829.817 -0.232371 5.26087 0
M  V30 8853 H 832.308 0.237388 3.77154 0
M  V30 8854 H 832.621 1.10791 7.64817 0
M  V30 8855 H 830.966 0.989496 6.8792 0
M  V30 8856 H 834.157 0.378088 4.66571 0
M  V30 8857 H 834.33 0.774828 6.43351 0
M  V30 8858 N 827.736 -1.57571 -0.0300757 0
M  V30 8859 C 828.961 -1.93879 -0.736601 0
M  V30 8860 C 829.386 -0.842998 -1.68152 0
M  V30 8861 O 828.744 0.20135 -1.80178 0
M  V30 8862 C 828.792 -3.29247 -1.47066 0
M  V30 8863 O 827.896 -3.21426 -2.58378 0
M  V30 8864 H 827.237 -0.633735 -0.198181 0
M  V30 8865 H 829.767 -2.04595 0.0141485 0
M  V30 8866 H 829.777 -3.64113 -1.84081 0
M  V30 8867 H 828.452 -4.08565 -0.77764 0
M  V30 8868 H 827.029 -2.98189 -2.23914 0
M  V30 8869 N 829.214 0.302327 -1.54673 0
M  V30 8870 C 830.625 0.875409 -1.64904 0
M  V30 8871 C 830.976 1.88132 -0.55684 0
M  V30 8872 O 830.101 2.14215 0.306754 0
M  V30 8873 C 830.696 1.59457 -2.9893 0
M  V30 8874 C 829.255 2.11607 -3.11287 0
M  V30 8875 C 828.402 0.948324 -2.6058 0
M  V30 8876 H 831.353 0.079362 -1.58501 0
M  V30 8877 H 831.374 2.46005 -2.90279 0
M  V30 8878 H 830.886 0.8622 -3.78402 0
M  V30 8879 H 828.987 2.87895 -2.36532 0
M  V30 8880 H 829.1 2.35151 -4.17422 0
M  V30 8881 H 827.464 1.33352 -2.17001 0
M  V30 8882 H 828.247 0.229936 -3.42529 0
M  V30 8883 N 830.692 1.47107 0.565454 0
M  V30 8884 C 831.917 1.57153 1.35343 0
M  V30 8885 C 832.342 0.219247 1.86818 0
M  V30 8886 O 831.7 -0.803539 1.62521 0
M  V30 8887 C 831.748 2.59387 2.50501 0
M  V30 8888 O 830.852 2.14086 3.52478 0
M  V30 8889 H 830.193 0.528209 0.402357 0
M  V30 8890 H 832.723 1.92821 0.684189 0
M  V30 8891 H 832.733 2.79546 2.97184 0
M  V30 8892 H 831.408 3.57579 2.12391 0
M  V30 8893 H 829.985 2.03991 3.12157 0
M  V30 8894 N 832.17 -0.811516 1.35101 0
M  V30 8895 C 833.398 -1.59981 1.31201 0
M  V30 8896 C 833.813 -1.8847 -0.111552 0
M  V30 8897 O 833.17 -1.48414 -1.06205 0
M  V30 8898 C 833.221 -2.934 2.11184 0
M  V30 8899 O 832.942 -2.66148 3.4799 0
M  V30 8900 C 834.443 -3.87776 2.14813 0
M  V30 8901 H 831.663 -0.496921 0.450899 0
M  V30 8902 H 834.207 -1.00886 1.77883 0
M  V30 8903 H 832.362 -3.49022 1.68115 0
M  V30 8904 H 832.776 -3.51301 3.89471 0
M  V30 8905 H 834.25 -4.7852 2.75178 0
M  V30 8906 H 834.727 -4.23997 1.14556 0
M  V30 8907 H 835.333 -3.3809 2.58022 0
M  V30 8908 N 833.648 -1.19017 -1.03309 0
M  V30 8909 C 834.925 -0.899659 -1.73682 0
M  V30 8910 C 835.305 0.595677 -2.02521 0
M  V30 8911 O 834.653 1.55263 -1.67648 0
M  V30 8912 C 834.863 -1.75508 -3.01659 0
M  V30 8913 C 836.211 -1.98679 -3.75249 0
M  V30 8914 O 837.235 -1.72624 -3.11576 0
M  V30 8915 O 836.094 -2.42587 -4.89708 0
M  V30 8916 H 833.188 -0.334903 -0.756154 0
M  V30 8917 H 835.734 -1.29809 -1.09305 0
M  V30 8918 H 834.506 -2.7684 -2.76542 0
M  V30 8919 H 834.129 -1.35565 -3.73775 0
M  V30 8920 N 835.127 1.22348 -0.993418 0
M  V30 8921 C 836.075 2.26315 -0.537052 0
M  V30 8922 C 837.069 1.643 0.412545 0
M  V30 8923 O 838.275 1.77729 0.285008 0
M  V30 8924 H 834.65 0.735792 -0.155286 0
M  V30 8925 H 836.621 2.62157 -1.42535 0
M  V30 8926 C 835.37 3.47449 0.132118 0
M  V30 8927 H 834.693 3.9543 -0.589519 0
M  V30 8928 H 836.133 4.21965 0.414884 0
M  V30 8929 C 834.592 3.07893 1.36761 0
M  V30 8930 O 835.122 3.17338 2.46291 0
M  V30 8931 N 833.328 2.62672 1.24305 0
M  V30 8932 H 832.875 2.55186 0.351826 0
M  V30 8933 H 832.833 2.36574 2.07076 0
M  V30 8934 N 836.605 0.766683 1.37694 0
M  V30 8935 C 837.851 0.329201 2.0011 0
M  V30 8936 C 838.184 -1.09004 1.60723 0
M  V30 8937 O 837.459 -1.74895 0.850989 0
M  V30 8938 C 837.742 0.466989 3.57059 0
M  V30 8939 C 837.595 1.92828 4.06371 0
M  V30 8940 C 838.914 -0.131792 4.39903 0
M  V30 8941 H 836.033 0.12109 0.726984 0
M  V30 8942 H 838.675 0.968779 1.63446 0
M  V30 8943 H 836.825 -0.0775023 3.88423 0
M  V30 8944 H 838.497 2.53208 3.85595 0
M  V30 8945 H 836.74 2.43884 3.58752 0
M  V30 8946 H 837.411 1.97577 5.15429 0
M  V30 8947 H 839.887 0.332731 4.14768 0
M  V30 8948 H 838.763 -0.005217 5.489 0
M  V30 8949 H 839.024 -1.22156 4.24889 0
M  V30 8950 N 838.083 -1.48885 0.516809 0
M  V30 8951 C 839.329 -2.02788 -0.0220928 0
M  V30 8952 C 839.662 -1.39433 -1.35175 0
M  V30 8953 O 838.937 -0.535459 -1.86984 0
M  V30 8954 C 839.22 -3.59753 -0.158012 0
M  V30 8955 C 839.073 -4.33611 1.19588 0
M  V30 8956 C 840.392 -4.30984 -0.891133 0
M  V30 8957 H 837.511 -0.736971 -0.00655488 0
M  V30 8958 H 840.153 -1.77746 0.671287 0
M  V30 8959 H 838.303 -3.8122 -0.748568 0
M  V30 8960 H 839.975 -4.23598 1.82653 0
M  V30 8961 H 838.218 -3.95547 1.78116 0
M  V30 8962 H 838.889 -5.41846 1.05391 0
M  V30 8963 H 841.365 -4.14267 -0.39012 0
M  V30 8964 H 840.241 -5.40527 -0.955107 0
M  V30 8965 H 840.502 -3.97336 -1.93847 0
M  V30 8966 N 839.561 -0.251338 -1.55583 0
M  V30 8967 C 840.509 0.662534 -2.22965 0
M  V30 8968 C 841.503 1.17662 -1.21869 0
M  V30 8969 O 842.709 1.133 -1.39868 0
M  V30 8970 H 839.084 0.232151 -0.715269 0
M  V30 8971 H 841.055 0.0711252 -2.98315 0
M  V30 8972 C 839.804 1.84646 -2.94621 0
M  V30 8973 H 839.127 1.46003 -3.72187 0
M  V30 8974 H 840.567 2.46303 -3.45124 0
M  V30 8975 C 839.026 2.72034 -1.98744 0
M  V30 8976 O 839.556 3.71695 -1.52335 0
M  V30 8977 N 837.762 2.38695 -1.6575 0
M  V30 8978 H 837.309 1.57702 -2.03685 0
M  V30 8979 H 837.267 2.9744 -1.01867 0
M  V30 8980 N 841.039 1.57585 0.0217189 0
M  V30 8981 C 842.285 1.89887 0.712099 0
M  V30 8982 C 842.618 0.849971 1.74611 0
M  V30 8983 O 841.893 -0.13407 1.94037 0
M  V30 8984 C 842.176 3.32815 1.37499 0
M  V30 8985 C 842.029 4.48405 0.353993 0
M  V30 8986 C 843.348 3.74786 2.30703 0
M  V30 8987 H 840.467 0.690588 0.257405 0
M  V30 8988 H 843.109 1.89983 -0.0251145 0
M  V30 8989 H 841.259 3.32863 2.00335 0
M  V30 8990 H 842.931 4.60491 -0.273015 0
M  V30 8991 H 841.174 4.32573 -0.32599 0
M  V30 8992 H 841.845 5.45316 0.85644 0
M  V30 8993 H 844.321 3.76151 1.77904 0
M  V30 8994 H 843.197 4.75585 2.74061 0
M  V30 8995 H 843.458 3.07449 3.17691 0
M  V30 8996 N 842.517 -0.29412 1.54831 0
M  V30 8997 C 843.794 -1.04847 1.65126 0
M  V30 8998 C 844.174 -2.04996 0.503986 0
M  V30 8999 O 843.522 -2.22996 -0.498496 0
M  V30 9000 C 843.732 -1.72418 3.03435 0
M  V30 9001 C 845.08 -2.24362 3.60481 0
M  V30 9002 O 846.104 -1.8244 3.05932 0
M  V30 9003 O 844.963 -3.01196 4.56008 0
M  V30 9004 H 842.057 -0.485032 0.669831 0
M  V30 9005 H 844.603 -0.291659 1.67175 0
M  V30 9006 H 843.375 -0.997351 3.78376 0
M  V30 9007 H 842.998 -2.54839 3.05193 0
M  V30 9008 N 843.995 -1.47404 -0.557645 0
M  V30 9009 C 845.242 -1.54007 -1.31484 0
M  V30 9010 C 845.57 -0.202162 -1.93447 0
M  V30 9011 O 844.825 0.804901 -1.78381 0
M  V30 9012 C 845.124 -2.6061 -2.44575 0
M  V30 9013 C 844.79 -4.03896 -2.00446 0
M  V30 9014 C 843.452 -4.42901 -1.88127 0
M  V30 9015 C 845.804 -4.93804 -1.66754 0
M  V30 9016 C 843.132 -5.6965 -1.40411 0
M  V30 9017 C 845.484 -6.21016 -1.20509 0
M  V30 9018 C 844.148 -6.58903 -1.06786 0
M  V30 9019 H 843.418 -0.563552 -0.481134 0
M  V30 9020 H 846.065 -1.81001 -0.625375 0
M  V30 9021 H 844.37 -2.27371 -3.19076 0
M  V30 9022 H 846.067 -2.62941 -3.02759 0
M  V30 9023 H 842.657 -3.73077 -2.10977 0
M  V30 9024 H 846.841 -4.64369 -1.75144 0
M  V30 9025 H 842.097 -5.97755 -1.2845 0
M  V30 9026 H 846.271 -6.90095 -0.935001 0
M  V30 9027 H 843.898 -7.57008 -0.695891 0
M  V30 9028 N 845.473 0.80434 -1.35529 0
M  V30 9029 C 846.701 1.59283 -1.32048 0
M  V30 9030 C 847.116 1.88527 0.101556 0
M  V30 9031 O 846.473 1.48975 1.05417 0
M  V30 9032 C 846.524 2.92276 -2.12737 0
M  V30 9033 O 846.245 2.64299 -3.49396 0
M  V30 9034 C 847.746 3.86631 -2.16867 0
M  V30 9035 H 844.966 0.494523 -0.453528 0
M  V30 9036 H 847.51 0.999415 -1.78415 0
M  V30 9037 H 845.665 3.48125 -1.69964 0
M  V30 9038 H 846.079 3.4923 -3.91329 0
M  V30 9039 H 847.553 4.77053 -2.77712 0
M  V30 9040 H 848.03 4.23384 -1.16803 0
M  V30 9041 H 848.636 3.36717 -2.59811 0
M  V30 9042 N 846.951 1.19563 1.02676 0
M  V30 9043 C 848.362 1.00158 1.57561 0
M  V30 9044 C 848.713 -0.444922 1.91089 0
M  V30 9045 O 847.838 -1.32466 1.71119 0
M  V30 9046 C 848.433 1.81181 2.86284 0
M  V30 9047 C 846.992 1.66171 3.37734 0
M  V30 9048 C 846.139 1.7975 2.11152 0
M  V30 9049 H 849.09 1.33904 0.85179 0
M  V30 9050 H 849.111 1.30916 3.57269 0
M  V30 9051 H 848.623 2.86454 2.6185 0
M  V30 9052 H 846.724 0.634927 3.6715 0
M  V30 9053 H 846.837 2.46832 4.10622 0
M  V30 9054 H 845.201 1.22833 2.23123 0
M  V30 9055 H 845.984 2.86487 1.89157 0
M  V30 9056 N 848.429 -1.21819 0.999893 0
M  V30 9057 C 849.845 -1.42847 0.711824 0
M  V30 9058 C 850.045 -1.88391 -0.714928 0
M  V30 9059 O 849.101 -2.0422 -1.48494 0
M  V30 9060 C 850.414 -2.46417 1.72334 0
M  V30 9061 C 851.962 -2.60207 1.73958 0
M  V30 9062 C 852.437 -3.67005 2.73992 0
M  V30 9063 N 853.928 -3.7447 2.72628 0
M  V30 9064 C 854.663 -4.56718 3.46693 0
M  V30 9065 N 854.159 -5.42904 4.3038 0
M  V30 9066 N 855.952 -4.51094 3.35366 0
M  V30 9067 H 848.103 -0.905656 1.92124 0
M  V30 9068 H 850.366 -0.459893 0.828977 0
M  V30 9069 H 850.072 -2.19914 2.74465 0
M  V30 9070 H 849.946 -3.45137 1.52186 0
M  V30 9071 H 852.333 -2.8605 0.725217 0
M  V30 9072 H 852.414 -1.61739 1.98177 0
M  V30 9073 H 852.058 -3.41908 3.75582 0
M  V30 9074 H 851.988 -4.65058 2.4704 0
M  V30 9075 H 854.479 -3.12895 2.11909 0
M  V30 9076 H 854.792 -6.02704 4.83702 0
M  V30 9077 H 853.137 -5.42463 4.34464 0
M  V30 9078 H 856.328 -3.82791 2.69423 0
M  V30 9079 H 856.501 -5.1496 3.93344 0
M  V30 9080 N 849.908 -0.773975 -1.37286 0
M  V30 9081 C 851.133 -0.349561 -2.04433 0
M  V30 9082 C 851.558 1.02082 -1.5799 0
M  V30 9083 O 850.916 1.65458 -0.741172 0
M  V30 9084 C 850.964 -0.404292 -3.58326 0
M  V30 9085 O 850.068 0.594447 -4.08093 0
M  V30 9086 H 849.409 -0.150959 -0.646612 0
M  V30 9087 H 851.939 -1.05079 -1.75555 0
M  V30 9088 H 851.949 -0.262378 -4.07155 0
M  V30 9089 H 850.624 -1.40403 -3.91484 0
M  V30 9090 H 849.201 0.415468 -3.70578 0
M  V30 9091 N 851.386 1.48609 -0.524698 0
M  V30 9092 C 852.611 2.07398 0.00952139 0
M  V30 9093 C 853.036 1.37939 1.27884 0
M  V30 9094 O 852.394 0.443633 1.75788 0
M  V30 9095 C 852.442 3.59916 0.221956 0
M  V30 9096 O 851.546 3.91647 1.29175 0
M  V30 9097 H 850.887 0.662981 -0.0367729 0
M  V30 9098 H 853.417 1.91092 -0.7311 0
M  V30 9099 H 853.427 4.05552 0.446236 0
M  V30 9100 H 852.102 4.09876 -0.705306 0
M  V30 9101 H 850.679 3.57796 1.05055 0
M  V30 9102 N 852.864 0.259585 1.55447 0
M  V30 9103 C 854.092 -0.365392 2.03648 0
M  V30 9104 C 854.507 -1.50613 1.13847 0
M  V30 9105 O 853.864 -1.81837 0.155414 0
M  V30 9106 C 853.915 -0.861172 3.51093 0
M  V30 9107 O 853.636 0.234121 4.37474 0
M  V30 9108 C 855.137 -1.55555 4.15111 0
M  V30 9109 H 852.357 -0.0853439 0.66555 0
M  V30 9110 H 854.901 0.387151 2.00802 0
M  V30 9111 H 853.056 -1.56385 3.54433 0
M  V30 9112 H 853.47 -0.1444 5.24301 0
M  V30 9113 H 854.944 -1.85403 5.19932 0
M  V30 9114 H 855.421 -2.48185 3.62355 0
M  V30 9115 H 856.027 -0.89712 4.15731 0
M  V30 9116 N 854.342 -1.57594 -0.0133615 0
M  V30 9117 C 855.588 -1.90262 -0.702019 0
M  V30 9118 C 855.921 -0.859219 -1.74158 0
M  V30 9119 O 855.196 0.123778 -1.94106 0
M  V30 9120 C 855.479 -3.3354 -1.35732 0
M  V30 9121 C 855.332 -4.48586 -0.330208 0
M  V30 9122 C 856.651 -3.76004 -2.28712 0
M  V30 9123 H 853.77 -0.691943 -0.253739 0
M  V30 9124 H 856.412 -1.89967 0.0351894 0
M  V30 9125 H 854.562 -3.33921 -1.98567 0
M  V30 9126 H 856.234 -4.6034 0.297433 0
M  V30 9127 H 854.477 -4.32394 0.348926 0
M  V30 9128 H 855.148 -5.45762 -0.827508 0
M  V30 9129 H 857.624 -3.77089 -1.75906 0
M  V30 9130 H 856.5 -4.77032 -2.71535 0
M  V30 9131 H 856.761 -3.09129 -3.16056 0
M  V30 9132 N 855.82 0.285905 -1.54985 0
M  V30 9133 C 856.73 1.37534 -1.90057 0
M  V30 9134 C 857.746 1.54707 -0.796348 0
M  V30 9135 O 858.922 1.69082 -1.09423 0
M  V30 9136 C 855.987 2.7167 -2.15398 0
M  V30 9137 C 855.048 2.63354 -3.39033 0
M  V30 9138 C 854.281 3.91093 -3.63155 0
M  V30 9139 O 854.504 4.91169 -2.90015 0
M  V30 9140 O 853.438 3.92075 -4.56685 0
M  V30 9141 H 857.264 1.10791 -2.8277 0
M  V30 9142 H 854.849 0.483303 -1.41367 0
M  V30 9143 H 856.731 3.51006 -2.33179 0
M  V30 9144 H 855.406 2.98226 -1.25868 0
M  V30 9145 H 854.313 1.82438 -3.26599 0
M  V30 9146 H 855.646 2.41749 -4.2874 0
M  V30 9147 N 857.298 1.47698 0.54982 0
M  V30 9148 C 858.261 1.60282 1.63837 0
M  V30 9149 C 859.261 0.477394 1.5355 0
M  V30 9150 O 860.451 0.742665 1.57576 0
M  V30 9151 C 857.583 1.55431 3.03404 0
M  V30 9152 H 858.776 2.57325 1.54026 0
M  V30 9153 H 856.329 1.35999 0.770329 0
M  V30 9154 H 857.064 0.597912 3.1874 0
M  V30 9155 H 856.849 2.37116 3.12279 0
M  V30 9156 H 858.339 1.6739 3.82584 0
M  V30 9157 N 858.776 -0.797141 1.35954 0
M  V30 9158 C 860.001 -1.59097 1.33053 0
M  V30 9159 C 860.426 -1.87897 -0.0874592 0
M  V30 9160 O 859.784 -1.47291 -1.05712 0
M  V30 9161 C 859.832 -2.89346 2.152 0
M  V30 9162 O 858.936 -3.826 1.5392 0
M  V30 9163 H 858.277 -0.482895 0.45575 0
M  V30 9164 H 860.807 -0.988633 1.79129 0
M  V30 9165 H 860.817 -3.38686 2.27499 0
M  V30 9166 H 859.492 -2.6771 3.18283 0
M  V30 9167 H 858.069 -3.41174 1.50516 0
M  V30 9168 N 860.254 -1.20106 -1.0204 0
M  V30 9169 C 861.5 -1.01039 -1.75838 0
M  V30 9170 C 861.833 0.456819 -1.88751 0
M  V30 9171 O 861.108 1.33919 -1.41053 0
M  V30 9172 C 861.391 -1.69009 -3.17975 0
M  V30 9173 C 861.244 -3.2315 -3.1288 0
M  V30 9174 C 862.563 -1.42005 -4.16561 0
M  V30 9175 H 859.682 -0.368465 -0.638281 0
M  V30 9176 H 862.324 -1.48066 -1.19064 0
M  V30 9177 H 860.474 -1.29026 -3.66449 0
M  V30 9178 H 862.146 -3.72402 -2.72239 0
M  V30 9179 H 860.389 -3.54253 -2.50374 0
M  V30 9180 H 861.06 -3.65862 -4.13339 0
M  V30 9181 H 863.536 -1.76685 -3.76725 0
M  V30 9182 H 862.412 -1.92101 -5.14187 0
M  V30 9183 H 862.673 -0.346884 -4.40737 0
M  V30 9184 N 861.732 1.21287 -1.00634 0
M  V30 9185 C 862.957 1.94925 -0.708441 0
M  V30 9186 C 863.382 1.73659 0.722783 0
M  V30 9187 O 862.74 1.02429 1.49593 0
M  V30 9188 C 862.788 3.45377 -1.03667 0
M  V30 9189 O 861.892 4.12153 -0.142661 0
M  V30 9190 H 861.233 0.609338 -0.263824 0
M  V30 9191 H 863.763 1.54008 -1.34695 0
M  V30 9192 H 863.773 3.95954 -0.984086 0
M  V30 9193 H 862.448 3.6018 -2.0795 0
M  V30 9194 H 861.025 3.72048 -0.251888 0
M  V30 9195 N 863.21 0.781244 1.36873 0
M  V30 9196 C 864.44 0.361042 2.03421 0
M  V30 9197 C 864.848 -1.02471 1.59048 0
M  V30 9198 O 864.191 -1.66712 0.771552 0
M  V30 9199 C 864.253 0.336202 3.57924 0
M  V30 9200 C 863.917 1.66815 4.25467 0
M  V30 9201 C 864.914 2.62224 4.48926 0
M  V30 9202 C 862.599 1.9452 4.63106 0
M  V30 9203 C 864.593 3.83538 5.09095 0
M  V30 9204 C 862.28 3.16103 5.22994 0
M  V30 9205 C 863.278 4.10431 5.45926 0
M  V30 9206 O 862.966 5.29871 6.04559 0
M  V30 9207 H 862.698 0.147956 0.65961 0
M  V30 9208 H 865.252 1.05895 1.75998 0
M  V30 9209 H 863.482 -0.418147 3.84433 0
M  V30 9210 H 865.171 -0.0582199 4.05858 0
M  V30 9211 H 865.937 2.42104 4.20251 0
M  V30 9212 H 861.816 1.21921 4.44585 0
M  V30 9213 H 865.36 4.57178 5.2691 0
M  V30 9214 H 861.257 3.36104 5.51094 0
M  V30 9215 H 862.025 5.30825 6.23031 0
M  V30 9216 N 864.689 -1.48329 0.532571 0
M  V30 9217 C 865.619 -2.32485 -0.217511 0
M  V30 9218 C 866.6 -1.42255 -0.932598 0
M  V30 9219 O 867.785 -1.7114 -0.917873 0
M  V30 9220 C 864.915 -3.23509 -1.26329 0
M  V30 9221 C 863.869 -4.22784 -0.666191 0
M  V30 9222 C 863.195 -5.0296 -1.81482 0
M  V30 9223 C 864.495 -5.21031 0.363813 0
M  V30 9224 H 866.189 -2.95445 0.485014 0
M  V30 9225 H 863.735 -1.42075 0.234694 0
M  V30 9226 H 865.688 -3.81211 -1.79601 0
M  V30 9227 H 864.412 -2.58554 -1.99543 0
M  V30 9228 H 863.071 -3.66272 -0.15498 0
M  V30 9229 H 862.719 -4.34427 -2.5354 0
M  V30 9230 H 862.419 -5.70154 -1.4212 0
M  V30 9231 H 863.943 -5.63514 -2.35126 0
M  V30 9232 H 865.357 -5.73241 -0.0819079 0
M  V30 9233 H 863.754 -5.96292 0.674956 0
M  V30 9234 H 864.824 -4.6801 1.26865 0
M  V30 9235 N 866.167 -0.267825 -1.55308 0
M  V30 9236 C 867.097 0.616585 -2.25212 0
M  V30 9237 C 868.078 1.16472 -1.23969 0
M  V30 9238 O 869.263 1.20021 -1.52672 0
M  V30 9239 C 866.393 1.80412 -2.96764 0
M  V30 9240 C 865.347 1.38784 -4.04874 0
M  V30 9241 C 864.673 2.65789 -4.63961 0
M  V30 9242 C 865.973 0.543415 -5.19465 0
M  V30 9243 H 867.667 0.0336257 -2.99381 0
M  V30 9244 H 865.213 0.0147328 -1.43992 0
M  V30 9245 H 867.166 2.42866 -3.44375 0
M  V30 9246 H 865.89 2.4128 -2.20118 0
M  V30 9247 H 864.549 0.786541 -3.58063 0
M  V30 9248 H 864.197 3.24899 -3.83992 0
M  V30 9249 H 863.897 2.38651 -5.36954 0
M  V30 9250 H 865.421 3.29104 -5.14318 0
M  V30 9251 H 866.835 1.07277 -5.63174 0
M  V30 9252 H 865.232 0.367219 -5.98975 0
M  V30 9253 H 866.302 -0.439534 -4.82904 0
M  V30 9254 N 867.645 1.57599 0.00500368 0
M  V30 9255 C 869.061 1.55463 0.361015 0
M  V30 9256 C 869.261 0.997051 1.75103 0
M  V30 9257 O 868.317 0.628661 2.44549 0
M  V30 9258 C 869.63 2.99734 0.240828 0
M  V30 9259 C 871.178 3.11399 0.316138 0
M  V30 9260 C 871.653 4.57446 0.22513 0
M  V30 9261 N 873.144 4.62334 0.283186 0
M  V30 9262 C 873.879 5.72914 0.23603 0
M  V30 9263 N 873.375 6.92659 0.139762 0
M  V30 9264 N 875.168 5.61364 0.287529 0
M  V30 9265 H 867.319 1.92185 -0.904359 0
M  V30 9266 H 869.582 0.882529 -0.34619 0
M  V30 9267 H 869.288 3.44348 -0.715343 0
M  V30 9268 H 869.162 3.63009 1.02491 0
M  V30 9269 H 871.549 2.66718 1.26275 0
M  V30 9270 H 871.63 2.50911 -0.497725 0
M  V30 9271 H 871.274 5.02801 -0.717917 0
M  V30 9272 H 871.204 5.15874 1.05742 0
M  V30 9273 H 873.695 3.7619 0.359123 0
M  V30 9274 H 874.008 7.72722 0.10954 0
M  V30 9275 H 872.353 6.9492 0.105462 0
M  V30 9276 H 875.544 4.66707 0.360897 0
M  V30 9277 H 875.717 6.47528 0.247313 0
M  V30 9278 N 869.123 -0.277682 1.55134 0
M  V30 9279 C 870.033 -1.36524 1.90783 0
M  V30 9280 C 871.049 -1.54283 0.804542 0
M  V30 9281 O 872.225 -1.68499 1.10318 0
M  V30 9282 C 869.29 -2.70524 2.16835 0
M  V30 9283 C 868.351 -2.61552 3.40424 0
M  V30 9284 C 867.584 -3.89162 3.65224 0
M  V30 9285 O 867.807 -4.89624 2.92616 0
M  V30 9286 O 866.741 -3.89647 4.58758 0
M  V30 9287 H 870.567 -1.0929 2.83354 0
M  V30 9288 H 868.152 -0.475799 1.41621 0
M  V30 9289 H 870.034 -3.49765 2.35038 0
M  V30 9290 H 868.709 -2.97555 1.27448 0
M  V30 9291 H 867.616 -1.80704 3.27562 0
M  V30 9292 H 868.949 -2.39472 4.30016 0
M  V30 9293 N 870.601 -1.47988 -0.541979 0
M  V30 9294 C 871.549 -1.62044 -1.66867 0
M  V30 9295 C 872.543 -0.487217 -1.62242 0
M  V30 9296 O 873.749 -0.66554 -1.67244 0
M  V30 9297 H 870.124 -0.51024 -0.552412 0
M  V30 9298 H 872.095 -2.56695 -1.52153 0
M  V30 9299 C 870.844 -1.66615 -3.0518 0
M  V30 9300 H 870.167 -2.5317 -3.09427 0
M  V30 9301 H 871.607 -1.80496 -3.83663 0
M  V30 9302 C 870.066 -0.402421 -3.34488 0
M  V30 9303 O 870.596 0.48992 -3.98701 0
M  V30 9304 N 868.802 -0.277778 -2.89269 0
M  V30 9305 H 868.349 -1.00488 -2.37192 0
M  V30 9306 H 868.307 0.566784 -3.09249 0
M  V30 9307 N 872.079 0.78992 -1.36375 0
M  V30 9308 C 873.325 1.55007 -1.3077 0
M  V30 9309 C 873.658 1.93871 0.112979 0
M  V30 9310 O 872.933 1.6267 1.06625 0
M  V30 9311 C 873.216 2.82748 -2.22993 0
M  V30 9312 C 873.069 2.50253 -3.73756 0
M  V30 9313 C 874.388 3.84569 -2.13998 0
M  V30 9314 H 871.507 0.562362 -0.476359 0
M  V30 9315 H 874.149 0.907582 -1.66922 0
M  V30 9316 H 872.299 3.37573 -1.92292 0
M  V30 9317 H 873.971 2.01482 -4.14973 0
M  V30 9318 H 872.214 1.83203 -3.93216 0
M  V30 9319 H 872.885 3.41487 -4.33694 0
M  V30 9320 H 875.361 3.39188 -2.4102 0
M  V30 9321 H 874.237 4.717 -2.80697 0
M  V30 9322 H 874.498 4.27491 -1.12711 0
M  V30 9323 N 873.557 1.20646 1.01402 0
M  V30 9324 C 874.782 1.04462 1.79172 0
M  V30 9325 C 875.207 -0.401588 1.83763 0
M  V30 9326 O 874.565 -1.28934 1.27459 0
M  V30 9327 C 874.613 1.63583 3.21361 0
M  V30 9328 O 873.717 0.875198 4.03006 0
M  V30 9329 H 873.058 0.368235 0.552539 0
M  V30 9330 H 875.588 1.59994 1.27526 0
M  V30 9331 H 875.598 1.67426 3.72065 0
M  V30 9332 H 874.273 2.68835 3.17334 0
M  V30 9333 H 872.85 0.911172 3.61597 0
M  V30 9334 N 875.035 -1.20752 1.01276 0
M  V30 9335 C 875.998 -2.2162 0.584583 0
M  V30 9336 C 876.998 -1.57094 -0.343215 0
M  V30 9337 O 878.188 -1.73696 -0.132433 0
M  V30 9338 C 875.32 -3.40583 -0.146872 0
M  V30 9339 H 876.513 -2.61015 1.47686 0
M  V30 9340 H 874.066 -1.34148 0.802123 0
M  V30 9341 H 874.801 -3.06686 -1.05424 0
M  V30 9342 H 874.586 -3.88642 0.51958 0
M  V30 9343 H 876.076 -4.15339 -0.433924 0
M  V30 9344 N 876.513 -0.788492 -1.36457 0
M  V30 9345 C 877.759 -0.360995 -1.99561 0
M  V30 9346 C 878.092 1.06433 -1.62437 0
M  V30 9347 O 877.367 1.7352 -0.878705 0
M  V30 9348 C 877.65 -0.523735 -3.56271 0
M  V30 9349 C 877.503 -1.99268 -4.03252 0
M  V30 9350 C 878.822 0.0617908 -4.40057 0
M  V30 9351 H 875.941 -0.13264 -0.724966 0
M  V30 9352 H 878.583 -0.994659 -1.61884 0
M  V30 9353 H 876.733 0.0156979 -3.88497 0
M  V30 9354 H 878.405 -2.59311 -3.81518 0
M  V30 9355 H 876.648 -2.49561 -3.54826 0
M  V30 9356 H 877.319 -2.05752 -5.12221 0
M  V30 9357 H 879.795 -0.398674 -4.14186 0
M  V30 9358 H 878.671 -0.0821089 -5.48839 0
M  V30 9359 H 878.932 1.15381 -4.26778 0
M  V30 9360 N 877.991 1.48044 -0.54043 0
M  V30 9361 C 879.231 2.04396 -0.012296 0
M  V30 9362 C 879.595 1.40748 1.30591 0
M  V30 9363 O 880.796 1.88048 1.92072 0
M  V30 9364 C 879.067 3.5727 0.0964302 0
M  V30 9365 S 880.626 4.35041 0.573117 0
M  V30 9366 H 877.444 0.710795 -0.0170735 0
M  V30 9367 H 880.046 1.81625 -0.723362 0
M  V30 9368 H 878.75 4.01124 -0.86762 0
M  V30 9369 H 878.281 3.84511 0.83156 0
M  V30 9370 H 880.296 4.6099 1.83583 0
M  V30 9371 N 879.47 0.276058 1.55163 0
M  V30 9372 C 880.4 -0.604633 2.25536 0
M  V30 9373 C 881.381 -1.15813 1.24585 0
M  V30 9374 O 882.566 -1.1921 1.53306 0
M  V30 9375 C 879.696 -1.78836 2.97716 0
M  V30 9376 C 878.65 -1.36635 4.05604 0
M  V30 9377 C 877.976 -2.63325 4.65364 0
M  V30 9378 C 879.276 -0.515858 5.19746 0
M  V30 9379 H 880.97 -0.0177483 2.99395 0
M  V30 9380 H 878.516 -0.00709627 1.43998 0
M  V30 9381 H 880.469 -2.41036 3.45658 0
M  V30 9382 H 879.193 -2.40109 2.21394 0
M  V30 9383 H 877.852 -0.767541 3.58475 0
M  V30 9384 H 877.5 -3.22858 3.85709 0
M  V30 9385 H 877.2 -2.358 5.38212 0
M  V30 9386 H 878.724 -3.26372 5.16056 0
M  V30 9387 H 880.138 -1.04289 5.63735 0
M  V30 9388 H 878.535 -0.335449 5.99162 0
M  V30 9389 H 879.605 0.465137 4.82664 0
M  V30 9390 N 880.948 -1.576 0.00335426 0
M  V30 9391 C 882.225 -1.81945 -0.718015 0
M  V30 9392 C 882.605 -0.881788 -1.91801 0
M  V30 9393 O 881.953 0.0687118 -2.28397 0
M  V30 9394 C 882.163 -3.30521 -1.12058 0
M  V30 9395 C 883.511 -3.96345 -1.52303 0
M  V30 9396 O 884.535 -3.34864 -1.21428 0
M  V30 9397 O 883.394 -5.04655 -2.09728 0
M  V30 9398 H 880.488 -0.749328 -0.34991 0
M  V30 9399 H 883.034 -1.69675 0.0290654 0
M  V30 9400 H 881.806 -3.90399 -0.265378 0
M  V30 9401 H 881.429 -3.47802 -1.92665 0
M  V30 9402 N 882.426 0.269451 -1.5528 0
M  V30 9403 C 883.359 1.3588 -1.83336 0
M  V30 9404 C 884.337 1.4739 -0.68666 0
M  V30 9405 O 885.521 1.63959 -0.930037 0
M  V30 9406 C 882.648 2.73483 -1.99812 0
M  V30 9407 C 881.694 2.79239 -3.22378 0
M  V30 9408 S 882.527 2.38125 -4.79642 0
M  V30 9409 C 883.683 3.77697 -4.99095 0
M  V30 9410 H 883.916 1.11878 -2.75446 0
M  V30 9411 H 881.449 0.469268 -1.47096 0
M  V30 9412 H 883.407 3.52725 -2.09989 0
M  V30 9413 H 882.068 2.94735 -1.08583 0
M  V30 9414 H 881.261 3.80243 -3.30804 0
M  V30 9415 H 880.863 2.08022 -3.1081 0
M  V30 9416 H 883.155 4.72999 -4.85055 0
M  V30 9417 H 884.098 3.7422 -6.01136 0
M  V30 9418 H 884.506 3.69164 -4.27058 0
M  V30 9419 N 883.904 1.48273 0.534124 0
M  V30 9420 C 884.836 1.5857 1.65494 0
M  V30 9421 C 885.849 0.470266 1.5586 0
M  V30 9422 O 887.038 0.740928 1.62396 0
M  V30 9423 C 884.138 1.49554 3.04117 0
M  V30 9424 C 883.311 2.76066 3.39273 0
M  V30 9425 C 882.37 2.60562 4.57159 0
M  V30 9426 O 881.396 3.34438 4.60587 0
M  V30 9427 N 882.598 1.69906 5.55079 0
M  V30 9428 H 885.363 2.55226 1.57099 0
M  V30 9429 H 882.924 1.44944 0.721303 0
M  V30 9430 H 884.916 1.36882 3.80848 0
M  V30 9431 H 883.486 0.608895 3.06613 0
M  V30 9432 H 882.706 3.03332 2.51761 0
M  V30 9433 H 883.994 3.60006 3.59546 0
M  V30 9434 H 883.392 1.09079 5.55084 0
M  V30 9435 H 881.949 1.63175 6.31044 0
M  V30 9436 N 885.382 -0.782676 1.36792 0
M  V30 9437 C 886.607 -1.57676 1.34733 0
M  V30 9438 C 887.032 -1.87979 -0.0675253 0
M  V30 9439 O 886.39 -1.48404 -1.04144 0
M  V30 9440 C 886.438 -2.87047 2.18257 0
M  V30 9441 O 885.542 -3.80946 1.57969 0
M  V30 9442 H 884.883 -0.478034 0.460846 0
M  V30 9443 H 887.413 -0.969578 1.80168 0
M  V30 9444 H 887.423 -3.36254 2.31079 0
M  V30 9445 H 886.098 -2.64319 3.21104 0
M  V30 9446 H 884.675 -3.39558 1.54126 0
M  V30 9447 N 886.86 -1.21182 -1.00761 0
M  V30 9448 C 887.79 -0.992773 -2.11344 0
M  V30 9449 C 888.771 0.0813618 -1.69905 0
M  V30 9450 O 889.956 -0.0779503 -1.94043 0
M  V30 9451 C 887.086 -0.553826 -3.42856 0
M  V30 9452 C 886.04 -1.57223 -3.98077 0
M  V30 9453 C 885.366 -0.989605 -5.25463 0
M  V30 9454 C 886.666 -2.95839 -4.30438 0
M  V30 9455 H 888.36 -1.91766 -2.29927 0
M  V30 9456 H 885.906 -0.923426 -1.10494 0
M  V30 9457 H 887.859 -0.387771 -4.19612 0
M  V30 9458 H 886.583 0.406702 -3.24058 0
M  V30 9459 H 885.242 -1.7258 -3.23437 0
M  V30 9460 H 884.89 -0.0208743 -5.02996 0
M  V30 9461 H 884.59 -1.66984 -5.63374 0
M  V30 9462 H 886.114 -0.834815 -6.04866 0
M  V30 9463 H 887.528 -2.8394 -4.98047 0
M  V30 9464 H 885.925 -3.60851 -4.79486 0
M  V30 9465 H 886.995 -3.46882 -3.38823 0
M  V30 9466 N 888.338 1.20213 -1.01915 0
M  V30 9467 C 889.248 2.26763 -0.601311 0
M  V30 9468 C 890.264 1.70185 0.362369 0
M  V30 9469 O 891.44 2.00165 0.222682 0
M  V30 9470 C 888.505 3.46662 0.0512879 0
M  V30 9471 C 887.566 4.18459 -0.958659 0
M  V30 9472 C 886.799 5.32634 -0.337107 0
M  V30 9473 O 887.022 5.63841 0.86251 0
M  V30 9474 O 885.956 5.9258 -1.05511 0
M  V30 9475 H 889.782 2.64725 -1.48844 0
M  V30 9476 H 887.367 1.2688 -0.788784 0
M  V30 9477 H 889.249 4.19345 0.41564 0
M  V30 9478 H 887.924 3.1057 0.912572 0
M  V30 9479 H 886.831 3.47937 -1.37442 0
M  V30 9480 H 888.164 4.58498 -1.78999 0
M  V30 9481 N 889.816 0.795718 1.36037 0
M  V30 9482 C 890.748 0.156336 2.28666 0
M  V30 9483 C 891.761 -0.638075 1.49775 0
M  V30 9484 O 892.95 -0.472222 1.7214 0
M  V30 9485 C 890.05 -0.801417 3.29288 0
M  V30 9486 C 889.223 -0.0557118 4.37365 0
M  V30 9487 C 888.282 -0.930338 5.1791 0
M  V30 9488 O 887.308 -0.385266 5.67895 0
M  V30 9489 N 888.51 -2.25382 5.34961 0
M  V30 9490 H 891.275 0.952033 2.84177 0
M  V30 9491 H 888.836 0.650189 1.48271 0
M  V30 9492 H 890.828 -1.39051 3.80062 0
M  V30 9493 H 889.398 -1.49796 2.74372 0
M  V30 9494 H 888.618 0.714508 3.87671 0
M  V30 9495 H 889.906 0.458633 5.06729 0
M  V30 9496 H 889.304 -2.72073 4.95977 0
M  V30 9497 H 887.861 -2.79241 5.88955 0
M  V30 9498 N 891.294 -1.47756 0.548274 0
M  V30 9499 C 892.71 -1.58247 0.207401 0
M  V30 9500 C 892.91 -1.54804 -1.28988 0
M  V30 9501 O 891.966 -1.44673 -2.06944 0
M  V30 9502 C 893.279 -2.89129 0.826142 0
M  V30 9503 C 894.827 -3.02695 0.79655 0
M  V30 9504 C 895.302 -4.36264 1.3942 0
M  V30 9505 N 896.793 -4.42877 1.35698 0
M  V30 9506 C 897.528 -5.44773 1.78913 0
M  V30 9507 N 897.024 -6.53528 2.29942 0
M  V30 9508 N 898.817 -5.35765 1.70038 0
M  V30 9509 H 890.968 -1.48236 1.52117 0
M  V30 9510 H 893.231 -0.704957 0.633829 0
M  V30 9511 H 892.937 -2.97358 1.87806 0
M  V30 9512 H 892.811 -3.75891 0.313916 0
M  V30 9513 H 895.198 -2.94067 -0.246655 0
M  V30 9514 H 895.279 -2.17496 1.34644 0
M  V30 9515 H 894.923 -4.45646 2.43642 0
M  V30 9516 H 894.853 -5.20179 0.819827 0
M  V30 9517 H 897.344 -3.64874 0.983623 0
M  V30 9518 H 897.657 -7.27441 2.60863 0
M  V30 9519 H 896.002 -6.54442 2.33947 0
M  V30 9520 H 899.193 -4.49699 1.29955 0
M  V30 9521 H 899.366 -6.1504 2.04035 0
M  V30 9522 N 892.772 -0.284283 -1.55015 0
M  V30 9523 C 894.188 0.069603 -1.59448 0
M  V30 9524 C 894.388 1.53833 -1.30144 0
M  V30 9525 O 893.444 2.2886 -1.06674 0
M  V30 9526 C 894.757 -0.313287 -2.99064 0
M  V30 9527 C 896.305 -0.260662 -3.11913 0
M  V30 9528 C 896.78 -0.618127 -4.5381 0
M  V30 9529 N 898.271 -0.570026 -4.59679 0
M  V30 9530 C 899.006 -0.8193 -5.67517 0
M  V30 9531 N 898.502 -1.13367 -6.83462 0
M  V30 9532 N 900.295 -0.747482 -5.57108 0
M  V30 9533 H 892.446 -1.24167 -1.72326 0
M  V30 9534 H 894.709 -0.502259 -0.804015 0
M  V30 9535 H 894.415 -1.33509 -3.25374 0
M  V30 9536 H 894.289 0.341369 -3.75652 0
M  V30 9537 H 896.676 0.751869 -2.85361 0
M  V30 9538 H 896.757 -0.949706 -2.37517 0
M  V30 9539 H 896.401 -1.62839 -4.81088 0
M  V30 9540 H 896.331 0.092807 -5.26518 0
M  V30 9541 H 898.822 -0.3373 -3.76392 0
M  V30 9542 H 899.135 -1.3103 -7.61611 0
M  V30 9543 H 897.48 -1.17154 -6.85055 0
M  V30 9544 H 900.671 -0.501658 -4.65404 0
M  V30 9545 H 900.844 -0.945128 -6.4107 0
M  V30 9546 N 894.251 1.57596 -0.0117121 0
M  V30 9547 C 895.667 1.55837 0.344506 0
M  V30 9548 C 895.867 1.01557 1.74036 0
M  V30 9549 O 894.923 0.654563 2.43868 0
M  V30 9550 C 896.236 2.99973 0.209023 0
M  V30 9551 C 897.784 3.11717 0.283092 0
M  V30 9552 C 898.259 4.57659 0.176599 0
M  V30 9553 N 899.75 4.62608 0.234133 0
M  V30 9554 C 900.485 5.73132 0.175252 0
M  V30 9555 N 899.981 6.92768 0.0662888 0
M  V30 9556 N 901.774 5.61638 0.227972 0
M  V30 9557 H 893.925 1.91215 -0.924692 0
M  V30 9558 H 896.188 0.878807 -0.355531 0
M  V30 9559 H 895.894 3.4357 -0.751826 0
M  V30 9560 H 895.768 3.64075 0.98635 0
M  V30 9561 H 898.155 2.68043 1.23439 0
M  V30 9562 H 898.236 2.50369 -0.52431 0
M  V30 9563 H 897.88 5.02011 -0.771205 0
M  V30 9564 H 897.81 5.16967 1.00264 0
M  V30 9565 H 900.301 3.76549 0.319203 0
M  V30 9566 H 900.614 7.72795 0.0275765 0
M  V30 9567 H 898.959 6.94993 0.0317502 0
M  V30 9568 H 902.15 4.67063 0.311377 0
M  V30 9569 H 902.323 6.47754 0.178621 0
M  V30 9570 N 895.729 -0.261212 1.5542 0
M  V30 9571 C 896.954 -1.01341 1.80955 0
M  V30 9572 C 897.379 -1.78711 0.586849 0
M  V30 9573 O 896.737 -1.75266 -0.463837 0
M  V30 9574 C 896.785 -1.93835 3.04073 0
M  V30 9575 O 895.889 -3.02791 2.79985 0
M  V30 9576 H 895.23 -0.289123 0.597749 0
M  V30 9577 H 897.76 -0.286543 2.02584 0
M  V30 9578 H 897.77 -2.3557 3.33123 0
M  V30 9579 H 896.445 -1.36936 3.9271 0
M  V30 9580 H 895.022 -2.65287 2.62063 0
M  V30 9581 N 897.207 -1.48554 -0.526253 0
M  V30 9582 C 898.456 -1.56014 -1.27837 0
M  V30 9583 C 898.769 -0.240643 -1.94114 0
M  V30 9584 O 899.975 -0.193525 -2.70809 0
M  V30 9585 C 898.431 -2.75161 -2.31979 0
M  V30 9586 C 898.039 -4.13768 -1.71755 0
M  V30 9587 C 899.783 -2.91936 -3.08178 0
M  V30 9588 C 897.69 -5.24171 -2.7386 0
M  V30 9589 H 896.62 -0.58082 -0.480795 0
M  V30 9590 H 899.271 -1.74895 -0.555335 0
M  V30 9591 H 897.653 -2.49722 -3.07335 0
M  V30 9592 H 898.827 -4.49241 -1.02563 0
M  V30 9593 H 897.142 -4.02141 -1.08036 0
M  V30 9594 H 899.739 -3.71586 -3.84484 0
M  V30 9595 H 900.082 -2.01533 -3.64267 0
M  V30 9596 H 900.615 -3.17294 -2.39937 0
M  V30 9597 H 897.354 -6.16552 -2.22586 0
M  V30 9598 H 896.874 -4.93181 -3.41368 0
M  V30 9599 H 898.553 -5.52442 -3.36774 0
M  V30 9600 N 898.685 0.775411 -1.37205 0
M  V30 9601 C 900.101 1.07546 -1.17924 0
M  V30 9602 C 900.301 2.01496 -0.0128897 0
M  V30 9603 O 899.357 2.44039 0.64816 0
M  V30 9604 C 900.67 1.67647 -2.49629 0
M  V30 9605 C 902.218 1.79923 -2.56119 0
M  V30 9606 C 902.693 2.43438 -3.87946 0
M  V30 9607 N 904.184 2.50893 -3.89368 0
M  V30 9608 C 904.919 3.00881 -4.88117 0
M  V30 9609 N 904.415 3.5107 -5.97262 0
M  V30 9610 N 906.208 2.99722 -4.75524 0
M  V30 9611 H 898.359 0.151524 -2.11859 0
M  V30 9612 H 900.622 0.129845 -0.939066 0
M  V30 9613 H 900.328 1.06082 -3.3532 0
M  V30 9614 H 900.202 2.66988 -2.66453 0
M  V30 9615 H 902.589 2.40621 -1.70838 0
M  V30 9616 H 902.67 0.793482 -2.43182 0
M  V30 9617 H 902.314 1.8338 -4.73639 0
M  V30 9618 H 902.244 3.44611 -3.98184 0
M  V30 9619 H 904.735 2.1537 -3.10522 0
M  V30 9620 H 905.048 3.87604 -6.68568 0
M  V30 9621 H 903.393 3.49184 -6.00912 0
M  V30 9622 H 906.584 2.5981 -3.8938 0
M  V30 9623 H 906.757 3.38369 -5.52639 0
M  V30 9624 N 900.163 1.21714 1.00117 0
M  V30 9625 C 901.44 0.945391 1.71236 0
M  V30 9626 C 901.82 -0.541772 2.0403 0
M  V30 9627 O 901.168 -1.50763 1.71705 0
M  V30 9628 C 901.378 1.83444 2.96899 0
M  V30 9629 C 902.726 2.08558 3.69849 0
M  V30 9630 O 903.75 1.80824 3.06889 0
M  V30 9631 O 902.609 2.55485 4.83104 0
M  V30 9632 H 899.703 0.354834 0.747009 0
M  V30 9633 H 902.249 1.32661 1.05825 0
M  V30 9634 H 901.021 2.84075 2.69105 0
M  V30 9635 H 900.644 1.45428 3.70049 0
M  V30 9636 N 901.641 -1.19671 1.02551 0
M  V30 9637 C 902.604 -2.20987 0.608055 0
M  V30 9638 C 903.604 -1.5745 -0.326534 0
M  V30 9639 O 904.794 -1.73827 -0.114003 0
M  V30 9640 C 901.926 -3.4072 -0.11074 0
M  V30 9641 H 903.119 -2.59434 1.50446 0
M  V30 9642 H 900.672 -1.3329 0.816307 0
M  V30 9643 H 901.407 -3.07787 -1.02165 0
M  V30 9644 H 901.192 -3.88069 0.560772 0
M  V30 9645 H 902.682 -4.15776 -0.389848 0
M  V30 9646 N 903.119 -0.802921 -1.35613 0
M  V30 9647 C 904.029 -0.212177 -2.33639 0
M  V30 9648 C 905.045 0.642871 -1.61689 0
M  V30 9649 O 906.221 0.555485 -1.93588 0
M  V30 9650 C 903.286 0.632406 -3.40883 0
M  V30 9651 C 902.347 -0.242708 -4.28613 0
M  V30 9652 C 901.58 0.56166 -5.30736 0
M  V30 9653 O 901.803 1.79664 -5.41366 0
M  V30 9654 O 900.737 -0.0455387 -6.01883 0
M  V30 9655 H 904.563 -1.023 -2.85952 0
M  V30 9656 H 902.148 -0.564636 -1.38319 0
M  V30 9657 H 904.03 1.11358 -4.0642 0
M  V30 9658 H 902.705 1.42089 -2.90848 0
M  V30 9659 H 901.612 -0.77094 -3.6607 0
M  V30 9660 H 902.945 -0.995046 -4.82037 0
M  V30 9661 N 904.597 1.47463 -0.556102 0
M  V30 9662 C 905.874 1.9557 0.0339892 0
M  V30 9663 C 906.254 1.49869 1.48669 0
M  V30 9664 O 905.602 0.737019 2.16288 0
M  V30 9665 C 905.812 3.48826 -0.110343 0
M  V30 9666 C 907.16 4.24585 0.0355716 0
M  V30 9667 O 908.184 3.5618 -0.0378356 0
M  V30 9668 O 907.043 5.46158 0.193299 0
M  V30 9669 H 904.137 0.824461 0.0647521 0
M  V30 9670 H 906.683 1.57868 -0.622547 0
M  V30 9671 H 905.455 3.74891 -1.12126 0
M  V30 9672 H 905.078 3.9329 0.583855 0
M  V30 9673 N 906.075 0.2925 1.54862 0
M  V30 9674 C 907.008 -0.629155 2.19356 0
M  V30 9675 C 907.986 -1.13927 1.16014 0
M  V30 9676 O 909.17 -1.20904 1.44618 0
M  V30 9677 C 906.297 -1.8599 2.83064 0
M  V30 9678 C 905.343 -1.48376 3.99859 0
M  V30 9679 S 906.176 -0.546976 5.32699 0
M  V30 9680 C 907.332 -1.7857 5.99886 0
M  V30 9681 H 907.565 -0.0812166 2.97189 0
M  V30 9682 H 905.098 0.0766721 1.5421 0
M  V30 9683 H 907.056 -2.56623 3.20398 0
M  V30 9684 H 905.717 -2.37899 2.05092 0
M  V30 9685 H 904.91 -2.40002 4.43187 0
M  V30 9686 H 904.512 -0.857447 3.64038 0
M  V30 9687 H 906.804 -2.7274 6.20177 0
M  V30 9688 H 907.747 -1.39513 6.9422 0
M  V30 9689 H 908.155 -1.95856 5.29434 0
M  V30 9690 N 907.553 -1.57587 0.0200696 0
M  V30 9691 C 908.799 -1.91708 -0.661503 0
M  V30 9692 C 909.132 -0.895968 -1.72296 0
M  V30 9693 O 908.407 0.082577 -1.94325 0
M  V30 9694 C 908.69 -3.36344 -1.28627 0
M  V30 9695 C 908.543 -4.49186 -0.234982 0
M  V30 9696 C 909.862 -3.80771 -2.20685 0
M  V30 9697 H 906.981 -0.69717 -0.239005 0
M  V30 9698 H 909.623 -1.8985 0.0754764 0
M  V30 9699 H 907.773 -3.38058 -1.91439 0
M  V30 9700 H 909.445 -4.59606 0.395011 0
M  V30 9701 H 907.688 -4.31557 0.440565 0
M  V30 9702 H 908.359 -5.47395 -0.711558 0
M  V30 9703 H 910.835 -3.80735 -1.67868 0
M  V30 9704 H 909.711 -4.82685 -2.61356 0
M  V30 9705 H 909.972 -3.15764 -3.09428 0
M  V30 9706 N 909.032 0.252966 -1.55557 0
M  V30 9707 C 910.26 0.999565 -1.81153 0
M  V30 9708 C 910.675 1.79181 -0.594955 0
M  V30 9709 O 910.032 1.77208 0.436311 0
M  V30 9710 C 910.083 1.94227 -3.04891 0
M  V30 9711 O 909.804 1.18209 -4.21851 0
M  V30 9712 C 911.305 2.80536 -3.43241 0
M  V30 9713 H 908.525 0.294402 -0.602966 0
M  V30 9714 H 911.069 0.277686 -2.02606 0
M  V30 9715 H 909.224 2.6185 -2.85505 0
M  V30 9716 H 909.638 1.81922 -4.9194 0
M  V30 9717 H 911.112 3.42442 -4.32941 0
M  V30 9718 H 911.589 3.51337 -2.6355 0
M  V30 9719 H 912.195 2.18373 -3.64956 0
M  V30 9720 N 910.51 1.48831 0.518367 0
M  V30 9721 C 911.46 1.60614 1.61824 0
M  V30 9722 C 912.444 0.462631 1.54106 0
M  V30 9723 O 913.636 0.714689 1.6193 0
M  V30 9724 C 910.765 1.65984 3.00507 0
M  V30 9725 C 909.851 2.85854 3.13286 0
M  V30 9726 N 910.242 4.1014 2.96005 0
M  V30 9727 C 908.54 2.83429 3.4436 0
M  V30 9728 C 909.241 4.90626 3.12508 0
M  V30 9729 N 908.217 4.2366 3.40607 0
M  V30 9730 H 912.019 2.54443 1.47091 0
M  V30 9731 H 909.533 1.45363 0.724102 0
M  V30 9732 H 911.53 1.72521 3.79529 0
M  V30 9733 H 910.19 0.732792 3.16323 0
M  V30 9734 H 911.201 4.40395 2.72531 0
M  V30 9735 H 907.878 2.0003 3.66462 0
M  V30 9736 H 909.268 5.99302 3.03786 0
M  V30 9737 N 911.988 -0.768124 1.37614 0
M  V30 9738 C 912.938 -1.8718 1.30184 0
M  V30 9739 C 913.922 -1.59787 0.188943 0
M  V30 9740 O 915.114 -1.71855 0.423656 0
M  V30 9741 C 912.243 -3.24698 1.11471 0
M  V30 9742 C 911.329 -3.58031 2.27321 0
M  V30 9743 N 911.72 -3.6252 3.52722 0
M  V30 9744 C 910.018 -3.88216 2.19554 0
M  V30 9745 C 910.719 -3.92704 4.29137 0
M  V30 9746 N 909.695 -4.08789 3.58319 0
M  V30 9747 H 913.497 -1.88907 2.25147 0
M  V30 9748 H 911.011 -0.964753 1.30638 0
M  V30 9749 H 913.008 -4.0366 1.04233 0
M  V30 9750 H 911.668 -3.24232 0.174281 0
M  V30 9751 H 912.679 -3.44636 3.86583 0
M  V30 9752 H 909.356 -3.95551 1.33588 0
M  V30 9753 H 910.746 -4.02922 5.37683 0
M  V30 9754 N 913.466 -1.22244 -0.994698 0
M  V30 9755 C 914.694 -1.07218 -1.76952 0
M  V30 9756 C 915.109 0.377388 -1.8499 0
M  V30 9757 O 914.466 1.26157 -1.31874 0
M  V30 9758 C 914.517 -1.67496 -3.20355 0
M  V30 9759 O 914.238 -3.06782 -3.12756 0
M  V30 9760 C 915.739 -1.57721 -4.14294 0
M  V30 9761 H 912.959 -0.375966 -0.555779 0
M  V30 9762 H 915.503 -1.61799 -1.25065 0
M  V30 9763 H 913.658 -1.16982 -3.69315 0
M  V30 9764 H 914.072 -3.35784 -4.02926 0
M  V30 9765 H 915.546 -2.04623 -5.12673 0
M  V30 9766 H 916.023 -0.533434 -4.35949 0
M  V30 9767 H 916.629 -2.07531 -3.71229 0
M  V30 9768 N 914.944 1.19125 -1.03184 0
M  V30 9769 C 915.874 2.24675 -0.635889 0
M  V30 9770 C 916.855 1.66321 0.356565 0
M  V30 9771 O 918.04 1.92728 0.238625 0
M  V30 9772 C 915.17 3.47298 0.011069 0
M  V30 9773 C 914.124 4.18345 -0.903979 0
M  V30 9774 C 913.45 5.34561 -0.12197 0
M  V30 9775 C 914.75 4.72816 -2.21907 0
M  V30 9776 H 916.444 2.5805 -1.51825 0
M  V30 9777 H 913.99 1.24039 -0.73146 0
M  V30 9778 H 915.943 4.20333 0.299729 0
M  V30 9779 H 914.667 3.13131 0.928245 0
M  V30 9780 H 913.326 3.47196 -1.17688 0
M  V30 9781 H 912.974 4.9664 0.797334 0
M  V30 9782 H 912.674 5.83029 -0.731498 0
M  V30 9783 H 914.198 6.10391 0.159881 0
M  V30 9784 H 915.612 5.3759 -1.99173 0
M  V30 9785 H 914.009 5.31782 -2.78078 0
M  V30 9786 H 915.079 3.9072 -2.87168 0
M  V30 9787 N 916.422 0.810101 1.35185 0
M  V30 9788 C 917.354 0.180581 2.28488 0
M  V30 9789 C 918.367 -0.622154 1.50443 0
M  V30 9790 O 919.556 -0.453938 1.72632 0
M  V30 9791 C 916.656 -0.766447 3.30119 0
M  V30 9792 C 915.829 -0.00932028 4.37399 0
M  V30 9793 C 914.888 -0.875354 5.18868 0
M  V30 9794 O 913.914 -0.325012 5.68271 0
M  V30 9795 N 915.116 -2.19695 5.37321 0
M  V30 9796 H 917.881 0.98212 2.83151 0
M  V30 9797 H 915.442 0.665879 1.47573 0
M  V30 9798 H 917.434 -1.35012 3.81515 0
M  V30 9799 H 916.004 -1.46878 2.75945 0
M  V30 9800 H 915.224 0.755585 3.86891 0
M  V30 9801 H 916.512 0.512352 5.06214 0
M  V30 9802 H 915.91 -2.66797 4.98834 0
M  V30 9803 H 914.467 -2.72978 5.91884 0
M  V30 9804 N 917.9 -1.47166 0.563914 0
M  V30 9805 C 918.832 -2.28165 -0.217583 0
M  V30 9806 C 919.845 -1.37405 -0.873134 0
M  V30 9807 O 921.034 -1.6217 -0.745857 0
M  V30 9808 C 918.134 -3.11873 -1.32621 0
M  V30 9809 C 917.307 -4.30637 -0.766177 0
M  V30 9810 C 916.366 -4.95889 -1.76014 0
M  V30 9811 O 915.392 -5.54071 -1.3036 0
M  V30 9812 N 916.594 -4.91191 -3.09373 0
M  V30 9813 H 919.359 -2.95876 0.477256 0
M  V30 9814 H 916.92 -1.5687 0.40043 0
M  V30 9815 H 918.912 -3.52392 -1.99003 0
M  V30 9816 H 917.482 -2.46361 -1.92419 0
M  V30 9817 H 916.702 -3.94129 0.0745998 0
M  V30 9818 H 917.99 -5.07442 -0.371472 0
M  V30 9819 H 917.388 -4.45133 -3.49104 0
M  V30 9820 H 915.945 -5.35708 -3.71295 0
M  V30 9821 N 919.378 -0.300708 -1.54705 0
M  V30 9822 C 920.608 0.310819 -2.04249 0
M  V30 9823 C 921.016 1.4809 -1.17754 0
M  V30 9824 O 920.359 1.82654 -0.195779 0
M  V30 9825 C 920.421 0.83014 -3.49784 0
M  V30 9826 C 920.085 -0.214628 -4.56496 0
M  V30 9827 C 921.082 -1.04298 -5.09331 0
M  V30 9828 C 918.767 -0.356242 -5.01035 0
M  V30 9829 C 920.761 -1.99889 -6.05246 0
M  V30 9830 C 918.448 -1.3156 -5.96771 0
M  V30 9831 C 919.446 -2.1354 -6.4876 0
M  V30 9832 O 919.134 -3.07849 -7.4262 0
M  V30 9833 H 918.866 0.0715341 -0.672204 0
M  V30 9834 H 921.42 -0.438179 -2.00672 0
M  V30 9835 H 919.65 1.62966 -3.50684 0
M  V30 9836 H 921.339 1.35752 -3.82526 0
M  V30 9837 H 922.105 -0.944439 -4.75716 0
M  V30 9838 H 917.984 0.271916 -4.60197 0
M  V30 9839 H 921.528 -2.63917 -6.45751 0
M  V30 9840 H 917.425 -1.41486 -6.29803 0
M  V30 9841 H 918.193 -3.02824 -7.60421 0
M  V30 9842 N 920.856 1.57574 -0.0284266 0
M  V30 9843 C 921.786 2.1321 0.952039 0
M  V30 9844 C 922.767 1.04806 1.33977 0
M  V30 9845 O 923.952 1.32635 1.41851 0
M  V30 9846 C 921.082 2.65862 2.23461 0
M  V30 9847 C 920.036 3.79047 1.98765 0
M  V30 9848 C 919.362 4.18124 3.33281 0
M  V30 9849 C 920.662 5.05151 1.32739 0
M  V30 9850 H 922.356 2.95385 0.488705 0
M  V30 9851 H 919.902 1.42092 0.233628 0
M  V30 9852 H 921.855 3.03417 2.92431 0
M  V30 9853 H 920.579 1.80848 2.71959 0
M  V30 9854 H 919.238 3.41929 1.32213 0
M  V30 9855 H 918.886 3.30092 3.79537 0
M  V30 9856 H 918.586 4.94396 3.17563 0
M  V30 9857 H 920.11 4.58262 4.0352 0
M  V30 9858 H 921.524 5.40297 1.91708 0
M  V30 9859 H 919.921 5.86416 1.27421 0
M  V30 9860 H 920.991 4.83969 0.300261 0
M  V30 9861 N 922.334 -0.244713 1.55689 0
M  V30 9862 C 923.564 -0.988508 1.81417 0
M  V30 9863 C 923.972 -1.79362 0.602143 0
M  V30 9864 O 923.315 -1.78386 -0.438639 0
M  V30 9865 C 923.377 -1.97287 3.0053 0
M  V30 9866 C 923.041 -1.35448 4.36466 0
M  V30 9867 C 924.038 -0.755874 5.14376 0
M  V30 9868 C 921.723 -1.37319 4.83165 0
M  V30 9869 C 923.717 -0.184218 6.37134 0
M  V30 9870 C 921.404 -0.797681 6.05871 0
M  V30 9871 C 922.402 -0.204224 6.82695 0
M  V30 9872 O 922.09 0.362392 8.03083 0
M  V30 9873 H 921.822 -0.296412 0.607549 0
M  V30 9874 H 924.376 -0.272185 2.03589 0
M  V30 9875 H 922.606 -2.72756 2.74119 0
M  V30 9876 H 924.295 -2.58028 3.13331 0
M  V30 9877 H 925.061 -0.733912 4.79415 0
M  V30 9878 H 920.94 -1.8245 4.23359 0
M  V30 9879 H 924.484 0.279624 6.97039 0
M  V30 9880 H 920.381 -0.816978 6.40309 0
M  V30 9881 H 921.149 0.254467 8.18104 0
M  V30 9882 N 923.813 -1.49104 -0.510467 0
M  V30 9883 C 924.76 -1.65074 -1.61305 0
M  V30 9884 C 925.73 -0.492362 -1.58635 0
M  V30 9885 O 926.915 -0.718241 -1.76765 0
M  V30 9886 C 924.055 -1.71457 -2.99493 0
M  V30 9887 C 923.168 -2.98536 -3.12251 0
M  V30 9888 C 922.303 -2.95957 -4.41116 0
M  V30 9889 C 921.342 -4.17655 -4.47471 0
M  V30 9890 N 920.479 -4.13041 -5.67751 0
M  V30 9891 H 925.319 -2.59222 -1.46996 0
M  V30 9892 H 922.856 -1.28535 -0.715346 0
M  V30 9893 H 924.814 -1.7314 -3.79577 0
M  V30 9894 H 923.444 -0.807834 -3.12528 0
M  V30 9895 H 922.496 -3.06509 -2.25292 0
M  V30 9896 H 923.808 -3.88527 -3.12807 0
M  V30 9897 H 922.962 -2.96149 -5.2951 0
M  V30 9898 H 921.701 -2.03728 -4.4311 0
M  V30 9899 H 920.706 -4.17717 -3.57481 0
M  V30 9900 H 921.931 -5.11066 -4.472 0
M  V30 9901 H 919.877 -3.23643 -5.70606 0
M  V30 9902 H 919.794 -4.96757 -5.69884 0
M  V30 9903 H 921.062 -4.17322 -6.58379 0
M  V30 9904 N 925.291 0.760815 -1.38019 0
M  V30 9905 C 926.702 1.33773 -1.30237 0
M  V30 9906 C 927.053 1.96148 0.0451153 0
M  V30 9907 O 926.178 1.94574 0.9471 0
M  V30 9908 C 926.773 2.43227 -2.35851 0
M  V30 9909 C 925.332 2.96659 -2.31669 0
M  V30 9910 C 924.479 1.69972 -2.191 0
M  V30 9911 H 927.43 0.560237 -1.48482 0
M  V30 9912 H 927.451 3.22985 -2.01149 0
M  V30 9913 H 926.963 1.978 -3.33911 0
M  V30 9914 H 925.064 3.46433 -1.37167 0
M  V30 9915 H 925.177 3.51529 -3.25521 0
M  V30 9916 H 923.541 1.9332 -1.65829 0
M  V30 9917 H 924.324 1.26633 -3.19091 0
M  V30 9918 N 926.769 1.22769 0.988202 0
M  V30 9919 C 928.185 0.988665 1.2529 0
M  V30 9920 C 928.385 -0.314938 1.99024 0
M  V30 9921 O 927.441 -1.03637 2.30251 0
M  V30 9922 C 928.754 2.19046 2.06009 0
M  V30 9923 C 930.302 2.23452 2.19176 0
M  V30 9924 C 930.777 3.43196 3.03283 0
M  V30 9925 N 932.268 3.43387 3.10869 0
M  V30 9926 C 933.003 4.32693 3.7625 0
M  V30 9927 N 932.499 5.32224 4.43519 0
M  V30 9928 N 934.292 4.20457 3.73058 0
M  V30 9929 H 926.443 2.06575 0.494014 0
M  V30 9930 H 928.706 0.905452 0.28082 0
M  V30 9931 H 928.412 3.13607 1.59197 0
M  V30 9932 H 928.286 2.19492 3.06763 0
M  V30 9933 H 930.673 1.29436 2.65199 0
M  V30 9934 H 930.754 2.27042 1.17836 0
M  V30 9935 H 930.398 4.37515 2.57959 0
M  V30 9936 H 930.328 3.36847 4.04774 0
M  V30 9937 H 932.819 2.71368 2.62998 0
M  V30 9938 H 933.132 5.9664 4.91163 0
M  V30 9939 H 931.477 5.36133 4.42252 0
M  V30 9940 H 934.668 3.41949 3.19669 0
M  V30 9941 H 934.841 4.90261 4.23731 0
M  V30 9942 N 928.247 -1.18576 1.03814 0
M  V30 9943 C 929.179 -2.21607 0.585055 0
M  V30 9944 C 930.192 -1.59125 -0.343963 0
M  V30 9945 O 931.381 -1.77959 -0.138882 0
M  V30 9946 C 928.481 -3.38495 -0.165602 0
M  V30 9947 C 927.654 -4.30557 0.770662 0
M  V30 9948 C 926.713 -5.26161 0.0637534 0
M  V30 9949 O 925.739 -5.64961 0.693359 0
M  V30 9950 N 926.941 -5.67882 -1.20377 0
M  V30 9951 H 929.706 -2.61104 1.47121 0
M  V30 9952 H 927.267 -1.33336 0.918316 0
M  V30 9953 H 929.259 -3.99474 -0.648292 0
M  V30 9954 H 927.829 -2.97711 -0.953268 0
M  V30 9955 H 927.049 -3.67221 1.43326 0
M  V30 9956 H 928.337 -4.88969 1.40667 0
M  V30 9957 H 927.735 -5.38409 -1.73586 0
M  V30 9958 H 926.292 -6.31069 -1.63079 0
M  V30 9959 N 929.725 -0.817259 -1.34754 0
M  V30 9960 C 930.635 -0.236946 -2.334 0
M  V30 9961 C 931.651 0.625685 -1.62361 0
M  V30 9962 O 932.827 0.534921 -1.94166 0
M  V30 9963 C 929.892 0.596215 -3.41535 0
M  V30 9964 C 928.953 -0.288154 -4.28332 0
M  V30 9965 C 928.186 0.505337 -5.31302 0
M  V30 9966 O 928.409 1.73912 -5.43241 0
M  V30 9967 O 927.343 -0.109374 -6.01801 0
M  V30 9968 H 931.169 -1.05327 -2.84851 0
M  V30 9969 H 928.754 -0.579275 -1.37713 0
M  V30 9970 H 930.636 1.07041 -4.07578 0
M  V30 9971 H 929.311 1.38997 -2.92338 0
M  V30 9972 H 928.218 -0.809724 -3.65232 0
M  V30 9973 H 929.551 -1.04612 -4.80955 0
M  V30 9974 N 931.203 1.46865 -0.571711 0
M  V30 9975 C 932.433 2.06518 -0.0583129 0
M  V30 9976 C 932.841 1.4227 1.24723 0
M  V30 9977 O 932.184 0.518293 1.76237 0
M  V30 9978 C 932.246 3.5898 0.193214 0
M  V30 9979 C 931.91 4.45355 -1.02507 0
M  V30 9980 C 932.907 4.82575 -1.93435 0
M  V30 9981 C 930.592 4.86656 -1.24382 0
M  V30 9982 C 932.586 5.59912 -3.04595 0
M  V30 9983 C 930.273 5.63754 -2.35849 0
M  V30 9984 C 931.271 6.00294 -3.25785 0
M  V30 9985 O 930.959 6.75836 -4.35318 0
M  V30 9986 H 930.691 0.674188 -0.0494584 0
M  V30 9987 H 933.245 1.89644 -0.788934 0
M  V30 9988 H 931.475 3.7412 0.978319 0
M  V30 9989 H 933.164 4.006 0.653769 0
M  V30 9990 H 933.93 4.51256 -1.77745 0
M  V30 9991 H 929.809 4.57672 -0.55292 0
M  V30 9992 H 933.353 5.88351 -3.74818 0
M  V30 9993 H 929.25 5.94487 -2.51506 0
M  V30 9994 H 930.018 6.94247 -4.33547 0
M  V30 9995 N 932.681 0.308908 1.54543 0
M  V30 9996 C 933.628 -0.563659 2.23811 0
M  V30 9997 C 934.598 -1.12332 1.22355 0
M  V30 9998 O 935.783 -1.16638 1.50997 0
M  V30 9999 C 932.923 -1.72585 2.98845 0
M  V30 10000 C 932.036 -1.19682 4.1509 0
M  V30 10001 C 931.171 -2.32351 4.77688 0
M  V30 10002 C 930.21 -1.76623 5.86064 0
M  V30 10003 N 929.347 -2.82896 6.42584 0
M  V30 10004 H 934.187 0.0336288 2.97981 0
M  V30 10005 H 931.724 0.0283666 1.47073 0
M  V30 10006 H 933.682 -2.40951 3.40586 0
M  V30 10007 H 932.312 -2.29464 2.27037 0
M  V30 10008 H 931.364 -0.405173 3.78236 0
M  V30 10009 H 932.676 -0.748923 4.93146 0
M  V30 10010 H 931.83 -3.0865 5.22322 0
M  V30 10011 H 930.569 -2.80472 3.98982 0
M  V30 10012 H 929.574 -0.988171 5.40847 0
M  V30 10013 H 930.799 -1.29398 6.66658 0
M  V30 10014 H 928.745 -3.30336 5.66758 0
M  V30 10015 H 928.662 -2.42626 7.16009 0
M  V30 10016 H 929.93 -3.59068 6.91875 0
M  V30 10017 N 934.159 -1.57557 0.0367827 0
M  V30 10018 C 935.109 -2.07182 -0.95183 0
M  V30 10019 C 936.093 -0.973921 -1.28076 0
M  V30 10020 O 937.285 -1.23741 -1.26559 0
M  V30 10021 C 934.414 -2.60869 -2.23164 0
M  V30 10022 C 933.5 -3.77602 -1.93074 0
M  V30 10023 N 933.891 -4.87923 -1.33283 0
M  V30 10024 C 932.189 -3.86234 -2.23023 0
M  V30 10025 C 932.89 -5.69083 -1.20498 0
M  V30 10026 N 931.866 -5.16233 -1.70306 0
M  V30 10027 H 935.668 -2.89876 -0.484647 0
M  V30 10028 H 933.182 -1.61528 -0.16804 0
M  V30 10029 H 935.179 -2.94716 -2.9487 0
M  V30 10030 H 933.839 -1.79607 -2.70502 0
M  V30 10031 H 934.85 -5.08018 -1.00686 0
M  V30 10032 H 931.527 -3.15891 -2.72981 0
M  V30 10033 H 932.917 -6.6779 -0.741999 0
M  V30 10034 N 935.637 0.236453 -1.55816 0
M  V30 10035 C 936.567 1.29639 -1.94206 0
M  V30 10036 C 937.548 1.49667 -0.808319 0
M  V30 10037 O 938.733 1.621 -1.06945 0
M  V30 10038 C 935.863 2.64914 -2.24584 0
M  V30 10039 C 934.817 2.59565 -3.40308 0
M  V30 10040 C 934.143 3.98732 -3.56254 0
M  V30 10041 C 935.443 2.15642 -4.75706 0
M  V30 10042 H 937.137 0.977552 -2.82992 0
M  V30 10043 H 934.683 0.468804 -1.36155 0
M  V30 10044 H 936.636 3.39209 -2.50031 0
M  V30 10045 H 935.36 2.98455 -1.32636 0
M  V30 10046 H 934.019 1.87728 -3.14887 0
M  V30 10047 H 933.667 4.29556 -2.61707 0
M  V30 10048 H 933.367 3.96039 -4.34082 0
M  V30 10049 H 934.891 4.74711 -3.84033 0
M  V30 10050 H 936.305 2.79673 -5.00456 0
M  V30 10051 H 934.702 2.24039 -5.56711 0
M  V30 10052 H 935.772 1.10831 -4.72064 0
M  V30 10053 N 937.115 1.49373 0.502552 0
M  V30 10054 C 938.345 1.62252 1.27898 0
M  V30 10055 C 938.753 0.292555 1.86924 0
M  V30 10056 O 938.096 -0.731823 1.68493 0
M  V30 10057 C 938.158 2.63153 2.4493 0
M  V30 10058 C 937.822 4.07541 2.06784 0
M  V30 10059 C 938.819 4.94392 1.60849 0
M  V30 10060 C 936.504 4.53263 2.16466 0
M  V30 10061 C 938.498 6.25003 1.25098 0
M  V30 10062 C 936.185 5.83888 1.80327 0
M  V30 10063 C 937.183 6.69582 1.34718 0
M  V30 10064 O 936.871 7.97773 0.990661 0
M  V30 10065 H 936.603 0.54918 0.394179 0
M  V30 10066 H 939.157 1.96132 0.610031 0
M  V30 10067 H 937.387 2.2445 3.14895 0
M  V30 10068 H 939.076 2.65578 3.06957 0
M  V30 10069 H 939.842 4.60296 1.52816 0
M  V30 10070 H 935.721 3.86731 2.50919 0
M  V30 10071 H 939.265 6.91844 0.894269 0
M  V30 10072 H 935.162 6.17513 1.8801 0
M  V30 10073 H 935.93 8.1077 1.12227 0
M  V30 10074 N 938.594 -0.753485 1.38421 0
M  V30 10075 C 939.819 -1.54783 1.38047 0
M  V30 10076 C 940.244 -1.8808 -0.0276371 0
M  V30 10077 O 939.602 -1.5058 -1.00973 0
M  V30 10078 C 939.65 -2.82353 2.24297 0
M  V30 10079 O 938.754 -3.77509 1.66014 0
M  V30 10080 H 938.095 -0.468151 0.470883 0
M  V30 10081 H 940.625 -0.931144 1.82184 0
M  V30 10082 H 940.635 -3.31277 2.38159 0
M  V30 10083 H 939.31 -2.57449 3.26639 0
M  V30 10084 H 937.887 -3.36212 1.61294 0
M  V30 10085 N 940.072 -1.23292 -0.981677 0
M  V30 10086 C 941.488 -0.995295 -1.24764 0
M  V30 10087 C 941.688 0.304379 -1.99188 0
M  V30 10088 O 940.744 1.02414 -2.30798 0
M  V30 10089 C 942.057 -2.20135 -2.04844 0
M  V30 10090 C 943.605 -2.24612 -2.17988 0
M  V30 10091 C 944.08 -3.448 -3.01458 0
M  V30 10092 N 945.571 -3.45031 -3.09044 0
M  V30 10093 C 946.306 -4.34683 -3.7395 0
M  V30 10094 N 945.802 -5.34569 -4.4069 0
M  V30 10095 N 947.595 -4.22429 -3.70823 0
M  V30 10096 H 939.746 -2.06834 -0.483052 0
M  V30 10097 H 942.009 -0.906929 -0.276014 0
M  V30 10098 H 941.715 -3.14446 -1.57532 0
M  V30 10099 H 941.589 -2.21115 -3.05594 0
M  V30 10100 H 943.976 -1.30841 -2.64508 0
M  V30 10101 H 944.057 -2.27664 -1.16631 0
M  V30 10102 H 943.701 -4.38877 -2.55635 0
M  V30 10103 H 943.631 -3.38988 -4.02982 0
M  V30 10104 H 946.122 -2.72759 -2.61555 0
M  V30 10105 H 946.435 -5.99236 -4.87991 0
M  V30 10106 H 944.78 -5.3847 -4.39403 0
M  V30 10107 H 947.971 -3.43639 -3.17851 0
M  V30 10108 H 948.144 -4.92501 -4.21126 0
M  V30 10109 N 941.55 1.18024 -1.04442 0
M  V30 10110 C 942.5 2.19714 -0.609069 0
M  V30 10111 C 943.484 1.57037 0.350473 0
M  V30 10112 O 944.676 1.76192 0.16892 0
M  V30 10113 C 941.805 3.43293 0.0225911 0
M  V30 10114 C 940.891 4.13084 -0.960325 0
M  V30 10115 N 941.282 4.58819 -2.12883 0
M  V30 10116 C 939.58 4.38999 -0.787146 0
M  V30 10117 C 940.281 5.12589 -2.75004 0
M  V30 10118 N 939.257 5.04333 -2.02853 0
M  V30 10119 H 943.059 2.5277 -1.49948 0
M  V30 10120 H 940.573 1.34271 -0.913517 0
M  V30 10121 H 942.57 4.1541 0.352196 0
M  V30 10122 H 941.23 3.11731 0.908495 0
M  V30 10123 H 942.241 4.53148 -2.50754 0
M  V30 10124 H 938.918 4.17472 0.048348 0
M  V30 10125 H 940.308 5.58152 -3.74053 0
M  V30 10126 N 943.028 0.824394 1.34319 0
M  V30 10127 C 943.938 0.24932 2.33271 0
M  V30 10128 C 944.954 -0.617066 1.62691 0
M  V30 10129 O 946.13 -0.524616 1.94447 0
M  V30 10130 C 943.195 -0.578094 3.41846 0
M  V30 10131 C 942.256 0.310866 4.28173 0
M  V30 10132 C 941.489 -0.477153 5.31563 0
M  V30 10133 O 941.712 -1.71028 5.44156 0
M  V30 10134 O 940.646 0.141287 6.01734 0
M  V30 10135 H 944.472 1.06837 2.84288 0
M  V30 10136 H 942.057 0.58657 1.37403 0
M  V30 10137 H 943.939 -1.04878 4.0814 0
M  V30 10138 H 942.614 -1.37444 2.93071 0
M  V30 10139 H 941.521 0.829081 3.64797 0
M  V30 10140 H 942.854 1.07161 4.80393 0
M  V30 10141 N 944.506 -1.46559 0.579492 0
M  V30 10142 C 945.436 -2.33059 -0.143437 0
M  V30 10143 C 946.417 -1.4515 -0.886868 0
M  V30 10144 O 947.602 -1.73973 -0.862961 0
M  V30 10145 C 944.732 -3.27364 -1.15973 0
M  V30 10146 C 943.686 -4.24689 -0.531348 0
M  V30 10147 C 943.012 -5.08479 -1.65388 0
M  V30 10148 C 944.312 -5.1961 0.529391 0
M  V30 10149 H 946.006 -2.93753 0.578762 0
M  V30 10150 H 943.552 -1.41256 0.279775 0
M  V30 10151 H 945.505 -3.86732 -1.67382 0
M  V30 10152 H 944.229 -2.64771 -1.91217 0
M  V30 10153 H 942.888 -3.6658 -0.0383749 0
M  V30 10154 H 942.536 -4.42273 -2.3959 0
M  V30 10155 H 942.236 -5.74387 -1.23909 0
M  V30 10156 H 943.76 -5.70709 -2.17079 0
M  V30 10157 H 945.174 -5.73212 0.100506 0
M  V30 10158 H 943.571 -5.93843 0.86432 0
M  V30 10159 H 944.641 -4.63737 1.4169 0
M  V30 10160 N 945.984 -0.3171 -1.54377 0
M  V30 10161 C 947.212 0.289558 -2.04864 0
M  V30 10162 C 947.627 1.46284 -1.19359 0
M  V30 10163 O 946.984 1.81135 -0.222795 0
M  V30 10164 C 947.035 0.730273 -3.54047 0
M  V30 10165 O 946.756 -0.396325 -4.36304 0
M  V30 10166 C 948.257 1.40041 -4.20599 0
M  V30 10167 H 945.477 0.0605836 -0.668259 0
M  V30 10168 H 948.021 -0.461411 -1.99227 0
M  V30 10169 H 946.176 1.43123 -3.59992 0
M  V30 10170 H 946.59 -0.0502901 -5.24476 0
M  V30 10171 H 948.064 1.65979 -5.26455 0
M  V30 10172 H 948.541 2.34565 -3.71316 0
M  V30 10173 H 949.147 0.742206 -4.18774 0
M  V30 10174 N 947.462 1.57535 -0.0451378 0
M  V30 10175 C 948.873 1.80116 0.491426 0
M  V30 10176 C 949.224 0.956846 1.71286 0
M  V30 10177 O 948.349 0.17173 2.15718 0
M  V30 10178 C 948.944 3.26674 0.898315 0
M  V30 10179 C 947.503 3.50194 1.37989 0
M  V30 10180 C 946.65 2.75054 0.352202 0
M  V30 10181 H 949.601 1.56368 -0.271065 0
M  V30 10182 H 949.622 3.37263 1.76164 0
M  V30 10183 H 949.134 3.88099 0.009141 0
M  V30 10184 H 947.235 2.94041 2.28846 0
M  V30 10185 H 947.348 4.58909 1.37622 0
M  V30 10186 H 945.712 2.4101 0.823784 0
M  V30 10187 H 946.495 3.39203 -0.528782 0
M  V30 10188 N 948.94 -0.228186 1.55939 0
M  V30 10189 C 950.168 -0.970618 1.8272 0
M  V30 10190 C 950.583 -1.78212 0.623385 0
M  V30 10191 O 949.94 -1.77879 -0.408063 0
M  V30 10192 C 949.991 -1.89352 3.07942 0
M  V30 10193 O 949.712 -1.11483 4.23678 0
M  V30 10194 C 951.213 -2.75039 3.47661 0
M  V30 10195 H 948.433 -0.284772 0.607574 0
M  V30 10196 H 950.977 -0.245419 2.03022 0
M  V30 10197 H 949.132 -2.57275 2.89635 0
M  V30 10198 H 949.546 -1.74073 4.94772 0
M  V30 10199 H 951.02 -3.35511 4.38334 0
M  V30 10200 H 951.497 -3.471 2.69106 0
M  V30 10201 H 952.103 -2.1254 3.68384 0
M  V30 10202 N 950.418 -1.49637 -0.494624 0
M  V30 10203 C 951.328 -1.69522 -1.62172 0
M  V30 10204 C 952.344 -0.577894 -1.64123 0
M  V30 10205 O 953.52 -0.853382 -1.82426 0
M  V30 10206 C 950.585 -1.7633 -2.9851 0
M  V30 10207 C 949.646 -2.99944 -3.07135 0
M  V30 10208 C 948.879 -3.06419 -4.36971 0
M  V30 10209 O 949.102 -2.20312 -5.26136 0
M  V30 10210 O 948.036 -3.9894 -4.507 0
M  V30 10211 H 951.862 -2.65017 -1.48324 0
M  V30 10212 H 949.447 -1.33454 -0.671603 0
M  V30 10213 H 951.329 -1.83125 -3.7953 0
M  V30 10214 H 950.004 -0.840155 -3.12607 0
M  V30 10215 H 948.911 -2.98664 -2.2528 0
M  V30 10216 H 950.244 -3.9176 -2.97968 0
M  V30 10217 N 951.896 0.746133 -1.38819 0
M  V30 10218 C 953.173 1.49652 -1.25951 0
M  V30 10219 C 953.553 2.10663 0.135833 0
M  V30 10220 O 952.901 1.97682 1.14604 0
M  V30 10221 C 953.111 2.5569 -2.37537 0
M  V30 10222 C 954.459 3.22385 -2.76321 0
M  V30 10223 O 955.483 2.65998 -2.36904 0
M  V30 10224 O 954.342 4.2439 -3.44319 0
M  V30 10225 H 951.436 0.664019 -0.492958 0
M  V30 10226 H 953.982 0.780908 -1.50665 0
M  V30 10227 H 952.754 2.08908 -3.30867 0
M  V30 10228 H 952.377 3.34823 -2.14427 0
M  V30 10229 N 953.375 1.23811 0.975125 0
M  V30 10230 C 954.285 1.0408 2.10249 0
M  V30 10231 C 955.301 -0.0162404 1.73992 0
M  V30 10232 O 956.477 0.180346 2.00591 0
M  V30 10233 C 953.542 0.640013 3.40741 0
M  V30 10234 C 952.603 1.7727 3.90991 0
M  V30 10235 C 951.836 1.39094 5.15256 0
M  V30 10236 O 952.059 0.277483 5.69725 0
M  V30 10237 O 950.993 2.21392 5.59704 0
M  V30 10238 H 954.819 1.98575 2.29786 0
M  V30 10239 H 952.404 1.02563 1.08633 0
M  V30 10240 H 954.286 0.427684 4.19224 0
M  V30 10241 H 952.961 -0.27589 3.22522 0
M  V30 10242 H 951.868 2.03971 3.13602 0
M  V30 10243 H 953.201 2.66711 4.13674 0
M  V30 10244 N 954.853 -1.17469 1.05066 0
M  V30 10245 C 955.8 -2.21443 0.650512 0
M  V30 10246 C 956.77 -1.62441 -0.346702 0
M  V30 10247 O 957.955 -1.89305 -0.238404 0
M  V30 10248 C 955.095 -3.45087 0.0301014 0
M  V30 10249 C 954.208 -4.18385 1.07599 0
M  V30 10250 C 953.343 -5.29513 0.423038 0
M  V30 10251 C 952.382 -5.94596 1.45333 0
M  V30 10252 N 951.519 -6.97241 0.824623 0
M  V30 10253 H 956.359 -2.55025 1.54163 0
M  V30 10254 H 953.896 -1.25274 0.771032 0
M  V30 10255 H 955.854 -4.15754 -0.347032 0
M  V30 10256 H 954.484 -3.12093 -0.824481 0
M  V30 10257 H 953.536 -3.46446 1.57097 0
M  V30 10258 H 954.848 -4.62899 1.85813 0
M  V30 10259 H 954.002 -6.067 -0.00774975 0
M  V30 10260 H 952.741 -4.86129 -0.391092 0
M  V30 10261 H 951.746 -5.16142 1.89415 0
M  V30 10262 H 952.971 -6.40061 2.26934 0
M  V30 10263 H 950.917 -6.55993 0.0309804 0
M  V30 10264 H 950.834 -7.40059 1.54432 0
M  V30 10265 H 952.102 -7.78375 0.418567 0
M  V30 10266 N 956.331 -0.831506 -1.3388 0
M  V30 10267 C 957.263 -0.216908 -2.28171 0
M  V30 10268 C 958.276 0.598141 -1.51414 0
M  V30 10269 O 959.465 0.426416 -1.73332 0
M  V30 10270 C 956.565 0.713831 -3.31297 0
M  V30 10271 C 955.738 -0.0602673 -4.37358 0
M  V30 10272 C 954.797 0.792696 -5.20195 0
M  V30 10273 O 953.823 0.234564 -5.68716 0
M  V30 10274 N 955.025 2.11119 -5.40748 0
M  V30 10275 H 957.79 -1.02704 -2.81553 0
M  V30 10276 H 955.351 -0.689272 -1.46495 0
M  V30 10277 H 957.343 1.28925 -3.83615 0
M  V30 10278 H 955.913 1.42469 -2.78247 0
M  V30 10279 H 955.133 -0.817041 -3.8564 0
M  V30 10280 H 956.421 -0.592822 -5.05335 0
M  V30 10281 H 955.819 2.58828 -5.03016 0
M  V30 10282 H 954.376 2.63527 -5.96151 0
M  V30 10283 N 957.809 1.4625 -0.587256 0
M  V30 10284 C 959.086 1.95599 -0.00750181 0
M  V30 10285 C 959.466 1.52989 1.45457 0
M  V30 10286 O 958.814 0.782731 2.14676 0
M  V30 10287 C 959.024 3.48513 -0.184309 0
M  V30 10288 C 960.372 4.24565 -0.0544972 0
M  V30 10289 O 961.396 3.5602 -0.113378 0
M  V30 10290 O 960.255 5.46445 0.0774075 0
M  V30 10291 H 957.349 0.825649 0.0472495 0
M  V30 10292 H 959.895 1.56512 -0.655893 0
M  V30 10293 H 958.667 3.72428 -1.20053 0
M  V30 10294 H 958.29 3.9444 0.500301 0
M  V30 10295 N 959.287 0.325282 1.54207 0
M  V30 10296 C 960.703 -0.0273036 1.59577 0
M  V30 10297 C 960.903 -1.50329 1.34177 0
M  V30 10298 O 959.959 -2.25951 1.12705 0
M  V30 10299 C 961.272 0.392468 2.98128 0
M  V30 10300 C 962.82 0.343269 3.11112 0
M  V30 10301 C 963.295 0.738229 4.52011 0
M  V30 10302 N 964.786 0.691701 4.58006 0
M  V30 10303 C 965.521 0.969479 5.65145 0
M  V30 10304 N 965.017 1.31448 6.80216 0
M  V30 10305 N 966.81 0.894926 5.5493 0
M  V30 10306 H 958.961 1.28692 1.68974 0
M  V30 10307 H 961.224 0.523399 0.790416 0
M  V30 10308 H 960.93 1.42089 3.2172 0
M  V30 10309 H 960.804 -0.241651 3.76425 0
M  V30 10310 H 963.191 -0.675946 2.87254 0
M  V30 10311 H 963.272 1.01235 2.34915 0
M  V30 10312 H 962.916 1.75537 4.76602 0
M  V30 10313 H 962.846 0.0468226 5.26579 0
M  V30 10314 H 965.337 0.436975 3.75365 0
M  V30 10315 H 965.65 1.51177 7.57869 0
M  V30 10316 H 963.995 1.35276 6.81708 0
M  V30 10317 H 967.186 0.624876 4.6391 0
M  V30 10318 H 967.359 1.11476 6.38339 0
M  V30 10319 N 960.765 -1.57509 0.0534917 0
M  V30 10320 C 961.675 -2.15152 -0.935249 0
M  V30 10321 C 962.691 -1.10991 -1.34003 0
M  V30 10322 O 963.867 -1.43171 -1.41648 0
M  V30 10323 C 960.932 -2.68699 -2.19093 0
M  V30 10324 C 959.993 -3.87666 -1.84428 0
M  V30 10325 C 959.226 -4.3865 -3.0401 0
M  V30 10326 O 959.449 -3.887 -4.17455 0
M  V30 10327 O 958.383 -5.30209 -2.84889 0
M  V30 10328 H 962.209 -2.99962 -0.475009 0
M  V30 10329 H 959.794 -1.48446 -0.16854 0
M  V30 10330 H 961.676 -3.03098 -2.92762 0
M  V30 10331 H 960.351 -1.86958 -2.6425 0
M  V30 10332 H 959.258 -3.58151 -1.08068 0
M  V30 10333 H 960.591 -4.70643 -1.44068 0
M  V30 10334 N 962.243 0.219913 -1.56058 0
M  V30 10335 C 963.492 0.942119 -1.78345 0
M  V30 10336 C 963.805 1.85435 -0.622344 0
M  V30 10337 O 965.011 2.61533 -0.728886 0
M  V30 10338 C 963.467 1.72544 -3.15843 0
M  V30 10339 C 963.075 0.859263 -4.39682 0
M  V30 10340 C 964.819 2.43876 -3.47455 0
M  V30 10341 C 962.726 1.64003 -5.68205 0
M  V30 10342 H 961.656 0.355514 -0.664925 0
M  V30 10343 H 964.307 0.195963 -1.82451 0
M  V30 10344 H 962.689 2.51456 -3.05918 0
M  V30 10345 H 963.863 0.110562 -4.60667 0
M  V30 10346 H 962.178 0.257985 -4.156 0
M  V30 10347 H 964.775 3.02794 -4.40704 0
M  V30 10348 H 965.118 3.16843 -2.7003 0
M  V30 10349 H 965.651 1.71952 -3.58716 0
M  V30 10350 H 962.39 0.953606 -6.48526 0
M  V30 10351 H 961.91 2.3633 -5.51279 0
M  V30 10352 H 963.589 2.20028 -6.08438 0
M  V30 10353 N 963.721 1.49897 0.486681 0
M  V30 10354 C 964.968 1.60105 1.23986 0
M  V30 10355 C 965.296 0.294228 1.92262 0
M  V30 10356 O 964.551 -0.718876 1.82018 0
M  V30 10357 C 964.85 2.71982 2.31863 0
M  V30 10358 C 964.516 4.13 1.80948 0
M  V30 10359 C 963.178 4.51373 1.66782 0
M  V30 10360 C 965.53 5.01198 1.43004 0
M  V30 10361 C 962.858 5.75701 1.13072 0
M  V30 10362 C 965.21 6.26058 0.90742 0
M  V30 10363 C 963.874 6.63247 0.752269 0
M  V30 10364 H 963.144 0.585866 0.453698 0
M  V30 10365 H 965.791 1.83778 0.538305 0
M  V30 10366 H 964.096 2.42336 3.07865 0
M  V30 10367 H 965.793 2.77087 2.89869 0
M  V30 10368 H 962.383 3.82718 1.92937 0
M  V30 10369 H 966.567 4.72196 1.52789 0
M  V30 10370 H 961.823 6.03202 0.997842 0
M  V30 10371 H 965.997 6.9377 0.604684 0
M  V30 10372 H 963.624 7.59466 0.33392 0
M  V30 10373 N 965.199 -0.738761 1.39212 0
M  V30 10374 C 966.149 -1.84376 1.34125 0
M  V30 10375 C 967.133 -1.5935 0.222793 0
M  V30 10376 O 968.325 -1.70918 0.460014 0
M  V30 10377 C 965.454 -3.22261 1.18334 0
M  V30 10378 C 964.54 -3.53129 2.34864 0
M  V30 10379 N 964.931 -3.54957 3.60332 0
M  V30 10380 C 963.229 -3.83472 2.27739 0
M  V30 10381 C 963.93 -3.83513 4.3737 0
M  V30 10382 N 962.906 -4.01097 3.66909 0
M  V30 10383 H 966.708 -1.84089 2.29104 0
M  V30 10384 H 964.222 -0.936826 1.32655 0
M  V30 10385 H 966.219 -4.01358 1.12772 0
M  V30 10386 H 964.879 -3.23789 0.243016 0
M  V30 10387 H 965.89 -3.36359 3.93806 0
M  V30 10388 H 962.567 -3.92628 1.41949 0
M  V30 10389 H 963.957 -3.91427 5.46109 0
M  V30 10390 N 966.677 -1.24326 -0.968545 0
M  V30 10391 C 968.093 -1.00847 -1.23701 0
M  V30 10392 C 968.293 0.283235 -1.99499 0
M  V30 10393 O 967.349 0.999607 -2.31871 0
M  V30 10394 C 968.662 -2.22295 -2.02498 0
M  V30 10395 C 970.21 -2.26911 -2.15593 0
M  V30 10396 C 970.685 -3.47978 -2.97784 0
M  V30 10397 N 972.176 -3.48289 -3.05367 0
M  V30 10398 C 972.911 -4.38625 -3.69318 0
M  V30 10399 N 972.407 -5.39213 -4.34995 0
M  V30 10400 N 974.2 -4.26339 -3.66322 0
M  V30 10401 H 966.351 -2.07335 -0.461087 0
M  V30 10402 H 968.614 -0.909805 -0.26638 0
M  V30 10403 H 968.32 -3.161 -1.54188 0
M  V30 10404 H 968.194 -2.24344 -3.03232 0
M  V30 10405 H 970.581 -1.33639 -2.63106 0
M  V30 10406 H 970.662 -2.28888 -1.14209 0
M  V30 10407 H 970.306 -4.41564 -2.50965 0
M  V30 10408 H 970.236 -3.43244 -3.99364 0
M  V30 10409 H 972.727 -2.75517 -2.58648 0
M  V30 10410 H 973.04 -6.04378 -4.81608 0
M  V30 10411 H 971.385 -5.43101 -4.33667 0
M  V30 10412 H 974.576 -3.46991 -3.14189 0
M  V30 10413 H 974.749 -4.9694 -4.15878 0
M  V30 10414 N 968.156 1.1691 -1.05688 0
M  V30 10415 C 969.384 1.91204 -0.790485 0
M  V30 10416 C 969.799 1.77095 0.654434 0
M  V30 10417 O 969.156 1.11146 1.44751 0
M  V30 10418 C 969.207 3.42108 -1.16808 0
M  V30 10419 O 968.928 3.55788 -2.55629 0
M  V30 10420 C 970.429 4.33466 -0.92855 0
M  V30 10421 H 967.649 0.606508 -0.287035 0
M  V30 10422 H 970.193 1.48225 -1.40888 0
M  V30 10423 H 968.348 3.82814 -0.59434 0
M  V30 10424 H 968.762 4.49321 -2.70575 0
M  V30 10425 H 970.236 5.37836 -1.24245 0
M  V30 10426 H 970.713 4.38989 0.136016 0
M  V30 10427 H 971.319 3.98481 -1.48638 0
M  V30 10428 N 969.634 0.838594 1.33437 0
M  V30 10429 C 970.567 0.216651 2.27169 0
M  V30 10430 C 971.545 -0.636065 1.49643 0
M  V30 10431 O 972.729 -0.596388 1.78817 0
M  V30 10432 C 969.856 -0.69584 3.31475 0
M  V30 10433 C 968.902 0.0813808 4.26422 0
M  V30 10434 S 969.735 1.43909 5.15801 0
M  V30 10435 C 970.891 0.531887 6.23636 0
M  V30 10436 H 971.124 1.01128 2.79572 0
M  V30 10437 H 968.657 0.635332 1.40723 0
M  V30 10438 H 970.615 -1.21671 3.92054 0
M  V30 10439 H 969.276 -1.46413 2.77888 0
M  V30 10440 H 968.469 -0.612944 5.00259 0
M  V30 10441 H 968.071 0.533304 3.70178 0
M  V30 10442 H 970.363 -0.270371 6.7696 0
M  V30 10443 H 971.306 1.24041 6.97151 0
M  V30 10444 H 971.714 0.113357 5.64386 0
M  V30 10445 N 971.112 -1.45937 0.595003 0
M  V30 10446 C 972.528 -1.57507 0.257641 0
M  V30 10447 C 972.728 -1.58829 -1.23998 0
M  V30 10448 O 971.784 -1.51183 -2.02237 0
M  V30 10449 C 973.097 -2.86354 0.917708 0
M  V30 10450 C 974.645 -3.00007 0.892446 0
M  V30 10451 C 975.12 -4.31607 1.53229 0
M  V30 10452 N 976.611 -4.38336 1.49719 0
M  V30 10453 C 977.346 -5.38805 1.96154 0
M  V30 10454 N 976.842 -6.45882 2.50617 0
M  V30 10455 N 978.635 -5.30084 1.86997 0
M  V30 10456 H 970.786 -1.43322 1.56756 0
M  V30 10457 H 973.049 -0.684436 0.655936 0
M  V30 10458 H 972.755 -2.91233 1.97171 0
M  V30 10459 H 972.629 -3.74703 0.433344 0
M  V30 10460 H 975.016 -2.94703 -0.152975 0
M  V30 10461 H 975.097 -2.13103 1.41495 0
M  V30 10462 H 974.741 -4.3767 2.57697 0
M  V30 10463 H 974.671 -5.17308 0.984903 0
M  V30 10464 H 977.162 -3.6156 1.09921 0
M  V30 10465 H 977.475 -7.18774 2.83874 0
M  V30 10466 H 975.82 -6.46668 2.54649 0
M  V30 10467 H 979.011 -4.45337 1.44196 0
M  V30 10468 H 979.184 -6.08237 2.23499 0
M  V30 10469 N 972.59 -0.333456 -1.54032 0
M  V30 10470 C 973.537 0.527981 -2.2468 0
M  V30 10471 C 974.507 1.10371 -1.24127 0
M  V30 10472 O 975.692 1.14221 -1.52834 0
M  V30 10473 C 972.832 1.67808 -3.01553 0
M  V30 10474 C 971.945 1.13064 -4.16942 0
M  V30 10475 C 971.08 2.24722 -4.81325 0
M  V30 10476 C 970.119 1.67277 -5.88799 0
M  V30 10477 N 969.256 2.72638 -6.47003 0
M  V30 10478 H 974.096 -0.0810308 -2.9789 0
M  V30 10479 H 971.633 -0.051761 -1.47009 0
M  V30 10480 H 973.591 2.35502 -3.44376 0
M  V30 10481 H 972.221 2.25823 -2.30659 0
M  V30 10482 H 971.273 0.344948 -3.78833 0
M  V30 10483 H 972.585 0.670373 -4.94275 0
M  V30 10484 H 971.739 3.00301 -5.27166 0
M  V30 10485 H 970.478 2.74089 -4.03394 0
M  V30 10486 H 969.483 0.902002 -5.4235 0
M  V30 10487 H 970.708 1.18775 -6.68632 0
M  V30 10488 H 968.654 3.21277 -5.71941 0
M  V30 10489 H 968.571 2.31204 -7.19778 0
M  V30 10490 H 969.839 3.48015 -6.97499 0
M  V30 10491 N 974.068 1.57479 -0.061844 0
M  V30 10492 C 975.484 1.56855 0.294753 0
M  V30 10493 C 975.684 1.07042 1.70717 0
M  V30 10494 O 974.74 0.731817 2.41662 0
M  V30 10495 C 976.053 3.00486 0.113484 0
M  V30 10496 C 977.601 3.1246 0.183778 0
M  V30 10497 C 978.076 4.5799 0.0309092 0
M  V30 10498 N 979.567 4.63119 0.0868393 0
M  V30 10499 C 980.302 5.734 -0.00717446 0
M  V30 10500 N 979.798 6.92628 -0.154144 0
M  V30 10501 N 981.591 5.62078 0.0491763 0
M  V30 10502 H 973.742 1.88176 -0.985058 0
M  V30 10503 H 976.005 0.867051 -0.383309 0
M  V30 10504 H 975.711 3.41004 -0.86075 0
M  V30 10505 H 975.585 3.67029 0.870023 0
M  V30 10506 H 977.972 2.71834 1.14849 0
M  V30 10507 H 978.053 2.48574 -0.603697 0
M  V30 10508 H 977.697 4.99303 -0.930526 0
M  V30 10509 H 977.627 5.19895 0.837664 0
M  V30 10510 H 980.118 3.77374 0.199245 0
M  V30 10511 H 980.431 7.72492 -0.218296 0
M  V30 10512 H 978.776 6.94742 -0.189372 0
M  V30 10513 H 981.967 4.67817 0.162626 0
M  V30 10514 H 982.14 6.47994 -0.0275478 0
M  V30 10515 N 975.546 -0.211634 1.56173 0
M  V30 10516 C 976.476 -1.26533 1.96244 0
M  V30 10517 C 977.457 -1.48362 0.832028 0
M  V30 10518 O 978.642 -1.60378 1.0951 0
M  V30 10519 C 975.772 -2.61307 2.2877 0
M  V30 10520 C 974.726 -2.54119 3.44395 0
M  V30 10521 C 974.052 -3.93014 3.62552 0
M  V30 10522 C 975.352 -2.08046 4.79076 0
M  V30 10523 H 977.046 -0.932407 2.84511 0
M  V30 10524 H 974.592 -0.447084 1.36884 0
M  V30 10525 H 976.545 -3.35188 2.55396 0
M  V30 10526 H 975.269 -2.96307 1.37367 0
M  V30 10527 H 973.928 -1.82694 3.17834 0
M  V30 10528 H 973.576 -4.25338 2.68508 0
M  V30 10529 H 973.276 -3.89083 4.40327 0
M  V30 10530 H 974.8 -4.68542 3.91537 0
M  V30 10531 H 976.214 -2.71676 5.04842 0
M  V30 10532 H 974.611 -2.15154 5.60204 0
M  V30 10533 H 975.681 -1.03306 4.73768 0
M  V30 10534 N 977.024 -1.50153 -0.478725 0
M  V30 10535 C 977.934 -1.71232 -1.60364 0
M  V30 10536 C 978.95 -0.595269 -1.63501 0
M  V30 10537 O 980.126 -0.872683 -1.81511 0
M  V30 10538 C 977.191 -1.79487 -2.96623 0
M  V30 10539 C 976.252 -3.03185 -3.03937 0
M  V30 10540 C 975.485 -3.11036 -4.33696 0
M  V30 10541 O 975.708 -2.2588 -5.23769 0
M  V30 10542 O 974.642 -4.03698 -4.46443 0
M  V30 10543 H 978.468 -2.66575 -1.45505 0
M  V30 10544 H 976.053 -1.34158 -0.65741 0
M  V30 10545 H 977.935 -1.8714 -3.77567 0
M  V30 10546 H 976.61 -0.873264 -3.11698 0
M  V30 10547 H 975.517 -3.01036 -2.22099 0
M  V30 10548 H 976.85 -3.94898 -2.93796 0
M  V30 10549 N 978.502 0.731368 -1.39602 0
M  V30 10550 C 979.727 1.52567 -1.40492 0
M  V30 10551 C 980.152 1.881 -0.00228828 0
M  V30 10552 O 979.51 1.52167 0.985643 0
M  V30 10553 C 979.558 2.78749 -2.2876 0
M  V30 10554 O 978.662 3.7482 -1.71999 0
M  V30 10555 H 978.003 0.460601 -0.478271 0
M  V30 10556 H 980.533 0.902042 -1.83642 0
M  V30 10557 H 980.543 3.27446 -2.43399 0
M  V30 10558 H 979.218 2.5222 -3.30693 0
M  V30 10559 H 977.795 3.33604 -1.66622 0
M  V30 10560 N 979.98 1.24838 0.961938 0
M  V30 10561 C 981.227 1.09151 1.70564 0
M  V30 10562 C 981.555 -0.368719 1.90973 0
M  V30 10563 O 980.81 -1.28854 1.47293 0
M  V30 10564 C 981.109 1.78289 3.09754 0
M  V30 10565 C 980.775 3.28216 3.09169 0
M  V30 10566 C 979.437 3.69118 3.08716 0
M  V30 10567 C 981.789 4.24035 3.03058 0
M  V30 10568 C 979.117 5.04263 2.99892 0
M  V30 10569 C 981.469 5.59195 2.95776 0
M  V30 10570 C 980.133 5.99436 2.93655 0
M  V30 10571 H 979.403 0.399414 0.624139 0
M  V30 10572 H 982.05 1.55016 1.12438 0
M  V30 10573 H 980.355 1.24835 3.7138 0
M  V30 10574 H 982.052 1.63612 3.66104 0
M  V30 10575 H 978.642 2.95667 3.10289 0
M  V30 10576 H 982.826 3.93431 3.02532 0
M  V30 10577 H 978.082 5.3463 2.96615 0
M  V30 10578 H 982.256 6.33142 2.90007 0
M  V30 10579 H 979.883 7.04116 2.86573 0
M  V30 10580 N 981.458 -1.16348 1.06306 0
M  V30 10581 C 982.405 -2.20741 0.673962 0
M  V30 10582 C 983.375 -1.628 -0.329454 0
M  V30 10583 O 984.56 -1.89547 -0.218313 0
M  V30 10584 C 981.7 -3.45036 0.0667008 0
M  V30 10585 C 980.813 -4.17221 1.12031 0
M  V30 10586 C 979.948 -5.29034 0.479176 0
M  V30 10587 C 978.987 -5.93021 1.51631 0
M  V30 10588 N 978.124 -6.96327 0.898528 0
M  V30 10589 H 982.964 -2.53376 1.56859 0
M  V30 10590 H 980.501 -1.24449 0.784276 0
M  V30 10591 H 982.459 -4.16099 -0.302916 0
M  V30 10592 H 981.089 -3.1295 -0.791333 0
M  V30 10593 H 980.141 -3.4476 1.60763 0
M  V30 10594 H 981.453 -4.60902 1.90712 0
M  V30 10595 H 980.607 -6.06674 0.0565993 0
M  V30 10596 H 979.346 -4.86517 -0.33951 0
M  V30 10597 H 978.351 -5.14104 1.94878 0
M  V30 10598 H 979.576 -6.37618 2.3371 0
M  V30 10599 H 977.522 -6.55923 0.100555 0
M  V30 10600 H 977.439 -7.38379 1.62272 0
M  V30 10601 H 978.707 -7.77888 0.5011 0
M  V30 10602 N 982.937 -0.845659 -1.3299 0
M  V30 10603 C 984.162 -0.457435 -2.02293 0
M  V30 10604 C 984.587 0.935634 -1.63179 0
M  V30 10605 O 983.945 1.61297 -0.827835 0
M  V30 10606 C 983.993 -0.593665 -3.5568 0
M  V30 10607 O 983.097 0.37729 -4.10671 0
M  V30 10608 H 982.438 -0.185022 -0.637701 0
M  V30 10609 H 984.968 -1.14237 -1.69738 0
M  V30 10610 H 984.978 -0.477834 -4.05192 0
M  V30 10611 H 983.653 -1.60957 -3.83491 0
M  V30 10612 H 982.23 0.218448 -3.7226 0
M  V30 10613 N 984.415 1.45619 -0.602734 0
M  V30 10614 C 985.643 2.06647 -0.102253 0
M  V30 10615 C 986.058 1.4482 1.21131 0
M  V30 10616 O 985.415 0.560621 1.73676 0
M  V30 10617 C 985.466 3.61467 0.0490113 0
M  V30 10618 O 985.187 4.20985 -1.21257 0
M  V30 10619 C 986.688 4.39469 0.581517 0
M  V30 10620 H 983.908 0.667685 -0.0666155 0
M  V30 10621 H 986.452 1.86939 -0.829091 0
M  V30 10622 H 984.607 3.80534 0.726153 0
M  V30 10623 H 985.021 5.14103 -1.03915 0
M  V30 10624 H 986.495 5.48318 0.636462 0
M  V30 10625 H 986.972 4.0891 1.60277 0
M  V30 10626 H 987.578 4.25256 -0.061419 0
M  V30 10627 N 985.893 0.34162 1.53853 0
M  V30 10628 C 986.84 -0.516058 2.24957 0
M  V30 10629 C 987.81 -1.09711 1.2471 0
M  V30 10630 O 988.995 -1.13409 1.53438 0
M  V30 10631 C 986.135 -1.66207 3.02439 0
M  V30 10632 C 985.248 -1.10851 4.17536 0
M  V30 10633 C 984.383 -2.22167 4.82509 0
M  V30 10634 C 983.422 -1.64152 5.89678 0
M  V30 10635 N 982.559 -2.69203 6.4844 0
M  V30 10636 H 987.399 0.0968275 2.97843 0
M  V30 10637 H 984.936 0.0595565 1.46979 0
M  V30 10638 H 986.894 -2.33672 3.4562 0
M  V30 10639 H 985.524 -2.24597 2.31853 0
M  V30 10640 H 984.576 -0.324853 3.7901 0
M  V30 10641 H 985.888 -0.644151 4.94623 0
M  V30 10642 H 985.042 -2.97501 5.28751 0
M  V30 10643 H 983.781 -2.71946 4.04842 0
M  V30 10644 H 982.786 -0.873228 5.42821 0
M  V30 10645 H 984.011 -1.15228 6.69253 0
M  V30 10646 H 981.957 -3.1824 5.73637 0
M  V30 10647 H 981.874 -2.27383 7.20994 0
M  V30 10648 H 983.142 -3.44312 6.99335 0
M  V30 10649 N 987.371 -1.57444 0.0701946 0
M  V30 10650 C 988.301 -2.15659 -0.895176 0
M  V30 10651 C 989.282 -1.08321 -1.31151 0
M  V30 10652 O 990.467 -1.36349 -1.38284 0
M  V30 10653 C 987.597 -2.71693 -2.16334 0
M  V30 10654 C 986.551 -3.84183 -1.88645 0
M  V30 10655 C 985.877 -4.26814 -3.22078 0
M  V30 10656 C 987.177 -5.08493 -1.19299 0
M  V30 10657 H 988.871 -2.96576 -0.410217 0
M  V30 10658 H 986.417 -1.42662 -0.195872 0
M  V30 10659 H 988.37 -3.11064 -2.84284 0
M  V30 10660 H 987.094 -1.87994 -2.67069 0
M  V30 10661 H 985.753 -3.45314 -1.23101 0
M  V30 10662 H 985.401 -3.40039 -3.70651 0
M  V30 10663 H 985.101 -5.02642 -3.04344 0
M  V30 10664 H 986.625 -4.68799 -3.91228 0
M  V30 10665 H 988.039 -5.4519 -1.77316 0
M  V30 10666 H 986.436 -5.89588 -1.11828 0
M  V30 10667 H 987.506 -4.84595 -0.171839 0
M  V30 10668 N 988.849 0.203349 -1.56283 0
M  V30 10669 C 990.097 0.923183 -1.79782 0
M  V30 10670 C 990.418 1.84134 -0.64185 0
M  V30 10671 O 989.688 1.92922 0.340292 0
M  V30 10672 H 988.268 0.343881 -0.66314 0
M  V30 10673 H 990.93 0.210837 -1.93756 0
M  V30 10674 H 990.026 1.51921 -2.72629 0
M  V30 10675 N 990.327 1.50405 0.470755 0
M  V30 10676 C 991.257 1.72222 1.57676 0
M  V30 10677 C 992.238 0.57121 1.60222 0
M  V30 10678 O 993.423 0.810381 1.76484 0
M  V30 10679 C 990.553 1.81666 2.95998 0
M  V30 10680 C 989.507 2.96857 3.08318 0
M  V30 10681 C 988.833 2.91445 4.4829 0
M  V30 10682 C 990.133 4.37361 2.85504 0
M  V30 10683 H 991.827 2.64825 1.39671 0
M  V30 10684 H 989.373 1.27438 0.67049 0
M  V30 10685 H 991.326 1.95514 3.73299 0
M  V30 10686 H 990.05 0.856856 3.1516 0
M  V30 10687 H 988.709 2.82661 2.33449 0
M  V30 10688 H 988.357 1.93309 4.64371 0
M  V30 10689 H 988.057 3.68776 4.57469 0
M  V30 10690 H 989.581 3.07341 5.27611 0
M  V30 10691 H 990.995 4.52081 3.52555 0
M  V30 10692 H 989.392 5.16145 3.06127 0
M  V30 10693 H 990.462 4.49708 1.81359 0
M  V30 10694 N 991.805 -0.723954 1.39988 0
M  V30 10695 C 992.753 -1.85938 1.39749 0
M  V30 10696 C 993.747 -1.67085 0.279112 0
M  V30 10697 O 994.953 -1.74291 0.44972 0
M  V30 10698 H 991.328 -0.612246 0.436644 0
M  V30 10699 H 993.299 -1.83255 2.355 0
M  V30 10700 C 992.048 -3.23726 1.26874 0
M  V30 10701 H 991.371 -3.38835 2.12206 0
M  V30 10702 H 992.811 -4.03332 1.30765 0
M  V30 10703 C 991.27 -3.36893 -0.0218317 0
M  V30 10704 O 991.8 -3.89363 -0.987905 0
M  V30 10705 N 990.006 -2.90465 -0.0885618 0
M  V30 10706 H 989.553 -2.47954 0.698314 0
M  V30 10707 H 989.511 -2.99654 -0.951557 0
M  V30 10708 N 993.283 -1.25346 -0.955304 0
M  V30 10709 C 994.215 -1.0146 -2.0552 0
M  V30 10710 C 995.228 0.0202256 -1.62787 0
M  V30 10711 O 996.417 -0.218251 -1.77161 0
M  V30 10712 C 993.517 -0.511727 -3.35014 0
M  V30 10713 C 992.69 -1.61256 -4.0659 0
M  V30 10714 C 991.749 -1.11017 -5.14356 0
M  V30 10715 O 990.775 -1.80443 -5.39842 0
M  V30 10716 N 991.977 0.0489001 -5.80479 0
M  V30 10717 H 994.742 -1.96166 -2.26581 0
M  V30 10718 H 992.303 -1.16543 -1.12381 0
M  V30 10719 H 994.295 -0.160123 -4.04383 0
M  V30 10720 H 992.865 0.341377 -3.1073 0
M  V30 10721 H 992.085 -2.13577 -3.31328 0
M  V30 10722 H 993.373 -2.35213 -4.51168 0
M  V30 10723 H 992.771 0.629021 -5.62192 0
M  V30 10724 H 991.328 0.341542 -6.50905 0
M  V30 10725 N 994.761 1.15782 -1.06922 0
M  V30 10726 C 995.709 2.22441 -0.679893 0
M  V30 10727 C 996.703 1.66591 0.307221 0
M  V30 10728 O 997.909 1.79182 0.171402 0
M  V30 10729 H 994.284 0.724427 -0.201765 0
M  V30 10730 H 996.255 2.52562 -1.58918 0
M  V30 10731 C 995.004 3.47586 -0.0891142 0
M  V30 10732 H 994.327 3.9088 -0.839805 0
M  V30 10733 H 995.767 4.2375 0.14569 0
M  V30 10734 C 994.226 3.15967 1.16903 0
M  V30 10735 O 994.756 3.32359 2.25611 0
M  V30 10736 N 992.962 2.70046 1.07349 0
M  V30 10737 H 992.509 2.56907 0.188825 0
M  V30 10738 H 992.467 2.49264 1.91611 0
M  V30 10739 N 996.239 0.8527 1.3254 0
M  V30 10740 C 997.186 0.293905 2.28921 0
M  V30 10741 C 998.156 -0.598027 1.54961 0
M  V30 10742 O 999.341 -0.533355 1.83194 0
M  V30 10743 C 996.481 -0.513361 3.4126 0
M  V30 10744 C 995.594 0.404144 4.30105 0
M  V30 10745 C 994.729 -0.415564 5.29572 0
M  V30 10746 C 993.768 0.499461 6.10059 0
M  V30 10747 N 992.905 -0.282949 7.0153 0
M  V30 10748 H 997.745 1.12107 2.76109 0
M  V30 10749 H 995.282 0.564272 1.35847 0
M  V30 10750 H 997.24 -0.997008 4.05112 0
M  V30 10751 H 995.87 -1.30537 2.95229 0
M  V30 10752 H 994.922 1.00617 3.66852 0
M  V30 10753 H 996.234 1.10648 4.86373 0
M  V30 10754 H 995.388 -0.962458 5.99017 0
M  V30 10755 H 994.127 -1.15127 4.73917 0
M  V30 10756 H 993.132 1.05825 5.39519 0
M  V30 10757 H 994.357 1.23375 6.67799 0
M  V30 10758 H 992.303 -1.00179 6.48306 0
M  V30 10759 H 992.22 0.36039 7.55141 0
M  V30 10760 H 993.488 -0.811632 7.75263 0
M  V30 10761 N 997.718 -1.45297 0.610449 0
M  V30 10762 C 998.665 -2.30553 -0.106718 0
M  V30 10763 C 999.635 -1.42272 -0.85719 0
M  V30 10764 O 1000.82 -1.71199 -0.842357 0
M  V30 10765 C 997.96 -3.27226 -1.09623 0
M  V30 10766 C 997.073 -4.3061 -0.346329 0
M  V30 10767 C 996.208 -5.14389 -1.32581 0
M  V30 10768 C 995.247 -6.09497 -0.563892 0
M  V30 10769 N 994.384 -6.86047 -1.4928 0
M  V30 10770 H 999.224 -2.91344 0.626296 0
M  V30 10771 H 996.761 -1.43563 0.32065 0
M  V30 10772 H 998.719 -3.81744 -1.68308 0
M  V30 10773 H 997.349 -2.68182 -1.79662 0
M  V30 10774 H 996.401 -3.7873 0.356084 0
M  V30 10775 H 997.713 -4.98183 0.248026 0
M  V30 10776 H 996.867 -5.73321 -1.98464 0
M  V30 10777 H 995.606 -4.4684 -1.9541 0
M  V30 10778 H 994.611 -5.49693 0.108551 0
M  V30 10779 H 995.836 -6.79074 0.0593872 0
M  V30 10780 H 993.782 -6.21185 -2.10868 0
M  V30 10781 H 993.699 -7.49983 -0.951953 0
M  V30 10782 H 994.967 -7.49518 -2.14112 0
M  V30 10783 N 999.196 -0.349774 -1.5367 0
M  V30 10784 C 1000.16 0.491676 -2.23864 0
M  V30 10785 C 1001.16 1.02256 -1.24098 0
M  V30 10786 O 1002.35 0.910816 -1.48492 0
M  V30 10787 C 999.481 1.68557 -2.96313 0
M  V30 10788 H 1000.67 -0.12233 -2.9965 0
M  V30 10789 H 998.227 -0.101214 -1.55972 0
M  V30 10790 H 998.962 2.3381 -2.2473 0
M  V30 10791 H 998.747 1.31203 -3.69497 0
M  V30 10792 H 1000.24 2.28225 -3.49718 0
M  V30 10793 N 1000.67 1.57404 -0.0785433 0
M  V30 10794 C 1001.64 2.11977 0.871693 0
M  V30 10795 C 1002.64 1.04529 1.2219 0
M  V30 10796 O 1003.83 1.30488 1.15406 0
M  V30 10797 C 1000.96 2.6267 2.17296 0
M  V30 10798 H 1002.15 2.97246 0.398115 0
M  V30 10799 H 999.705 1.5537 0.170251 0
M  V30 10800 H 1000.44 1.80873 2.69175 0
M  V30 10801 H 1000.22 3.41214 1.93171 0
M  V30 10802 H 1001.71 3.04943 2.85306 0
M  V30 10803 N 1002.15 -0.195058 1.56388 0
M  V30 10804 C 1003.1 -1.24175 1.94549 0
M  V30 10805 C 1004.07 -1.45229 0.806089 0
M  V30 10806 O 1005.25 -1.58362 1.06425 0
M  V30 10807 C 1002.39 -2.58145 2.29031 0
M  V30 10808 C 1001.51 -2.44669 3.56035 0
M  V30 10809 C 1000.64 -3.71342 3.7984 0
M  V30 10810 C 999.681 -3.52699 5.0027 0
M  V30 10811 N 998.818 -4.71385 5.20328 0
M  V30 10812 H 1003.66 -0.909319 2.83788 0
M  V30 10813 H 1001.19 -0.437641 1.40439 0
M  V30 10814 H 1003.15 -3.36195 2.4704 0
M  V30 10815 H 1001.78 -2.8943 1.42933 0
M  V30 10816 H 1000.83 -1.57916 3.46073 0
M  V30 10817 H 1002.15 -2.26827 4.44242 0
M  V30 10818 H 1001.3 -4.57832 3.98088 0
M  V30 10819 H 1000.04 -3.92138 2.89964 0
M  V30 10820 H 999.045 -2.64594 4.81944 0
M  V30 10821 H 1000.27 -3.33349 5.91655 0
M  V30 10822 H 998.216 -4.92444 4.33399 0
M  V30 10823 H 998.133 -4.56368 6.02714 0
M  V30 10824 H 999.401 -5.59226 5.43035 0
M  V30 10825 N 1003.63 -1.50653 -0.462772 0
M  V30 10826 C 1004.56 -1.73056 -1.5676 0
M  V30 10827 C 1005.54 -0.579699 -1.59917 0
M  V30 10828 O 1006.73 -0.819729 -1.76051 0
M  V30 10829 C 1003.86 -1.83234 -2.9503 0
M  V30 10830 C 1002.81 -2.98488 -3.06739 0
M  V30 10831 C 1002.14 -2.93818 -4.46738 0
M  V30 10832 C 1003.44 -4.38869 -2.83181 0
M  V30 10833 H 1005.13 -2.65562 -1.38265 0
M  V30 10834 H 1002.68 -1.27792 -0.663722 0
M  V30 10835 H 1004.63 -1.97491 -3.72257 0
M  V30 10836 H 1003.35 -0.873558 -3.14701 0
M  V30 10837 H 1002.01 -2.83895 -2.31946 0
M  V30 10838 H 1001.66 -1.95769 -4.63339 0
M  V30 10839 H 1001.36 -3.71197 -4.55507 0
M  V30 10840 H 1002.88 -3.10135 -5.25974 0
M  V30 10841 H 1004.3 -4.53945 -3.50153 0
M  V30 10842 H 1002.69 -5.17762 -3.03386 0
M  V30 10843 H 1003.76 -4.50663 -1.78972 0
M  V30 10844 N 1005.11 0.71652 -1.4037 0
M  V30 10845 C 1006.34 1.50344 -1.41704 0
M  V30 10846 C 1006.75 1.89194 -0.0148011 0
M  V30 10847 O 1006.09 1.55916 0.971391 0
M  V30 10848 C 1006.15 2.80928 -2.2432 0
M  V30 10849 C 1005.82 2.64406 -3.72744 0
M  V30 10850 C 1006.81 2.31727 -4.65401 0
M  V30 10851 C 1004.5 2.807 -4.16549 0
M  V30 10852 C 1006.49 2.15551 -5.99847 0
M  V30 10853 C 1004.18 2.64141 -5.51065 0
M  V30 10854 C 1005.18 2.31614 -6.42529 0
M  V30 10855 O 1004.86 2.15179 -7.74566 0
M  V30 10856 H 1004.6 0.470574 -0.48532 0
M  V30 10857 H 1007.15 0.89152 -1.85043 0
M  V30 10858 H 1005.38 3.4445 -1.75759 0
M  V30 10859 H 1007.07 3.4264 -2.17607 0
M  V30 10860 H 1007.84 2.18773 -4.32855 0
M  V30 10861 H 1003.71 3.05005 -3.45677 0
M  V30 10862 H 1007.26 1.90084 -6.71203 0
M  V30 10863 H 1003.16 2.76679 -5.83197 0
M  V30 10864 H 1003.92 2.30106 -7.85489 0
M  V30 10865 N 1006.59 1.25851 0.948643 0
M  V30 10866 C 1007.53 1.06759 2.04625 0
M  V30 10867 C 1008.5 -0.0251144 1.66081 0
M  V30 10868 O 1009.69 0.133221 1.90334 0
M  V30 10869 C 1006.83 0.698724 3.37952 0
M  V30 10870 C 1005.94 1.8669 3.89578 0
M  V30 10871 C 1005.08 1.44184 5.11258 0
M  V30 10872 C 1004.12 2.57878 5.55126 0
M  V30 10873 N 1003.25 2.16106 6.68014 0
M  V30 10874 H 1008.09 2.00691 2.20289 0
M  V30 10875 H 1005.63 0.999327 1.07944 0
M  V30 10876 H 1007.59 0.465788 4.14592 0
M  V30 10877 H 1006.22 -0.203618 3.22157 0
M  V30 10878 H 1005.27 2.21298 3.09405 0
M  V30 10879 H 1006.58 2.72051 4.18079 0
M  V30 10880 H 1005.74 1.16891 5.95333 0
M  V30 10881 H 1004.47 0.559035 4.84485 0
M  V30 10882 H 1003.48 2.85909 4.69612 0
M  V30 10883 H 1004.7 3.46747 5.83904 0
M  V30 10884 H 1002.65 1.3025 6.42939 0
M  V30 10885 H 1002.57 2.95012 6.96063 0
M  V30 10886 H 1003.84 1.92005 7.55483 0
M  V30 10887 N 1008.06 -1.15214 1.07534 0
M  V30 10888 C 1009.48 -1.38031 0.801228 0
M  V30 10889 C 1009.68 -1.92556 -0.593672 0
M  V30 10890 O 1008.74 -2.1325 -1.35206 0
M  V30 10891 C 1010.05 -2.34958 1.87657 0
M  V30 10892 C 1011.6 -2.48617 1.90154 0
M  V30 10893 C 1012.07 -3.48837 2.96777 0
M  V30 10894 N 1013.56 -3.56374 2.95892 0
M  V30 10895 C 1014.3 -4.33746 3.75036 0
M  V30 10896 N 1013.79 -5.14435 4.64036 0
M  V30 10897 N 1015.59 -4.28853 3.63375 0
M  V30 10898 H 1007.74 -0.781639 1.97495 0
M  V30 10899 H 1010 -0.406243 0.856546 0
M  V30 10900 H 1009.71 -2.02013 2.87895 0
M  V30 10901 H 1009.58 -3.3476 1.73827 0
M  V30 10902 H 1011.97 -2.80859 0.905666 0
M  V30 10903 H 1012.05 -1.48808 2.08062 0
M  V30 10904 H 1011.69 -3.1733 3.96565 0
M  V30 10905 H 1011.62 -4.48406 2.76116 0
M  V30 10906 H 1014.11 -2.98784 2.31379 0
M  V30 10907 H 1014.43 -5.70722 5.21053 0
M  V30 10908 H 1012.77 -5.13734 4.68084 0
M  V30 10909 H 1015.96 -3.64882 2.93221 0
M  V30 10910 H 1016.14 -4.88903 4.25298 0
M  V30 10911 N 1009.54 -0.859717 -1.32086 0
M  V30 10912 C 1010.45 -0.31108 -2.32528 0
M  V30 10913 C 1011.47 0.573714 -1.6427 0
M  V30 10914 O 1012.64 0.472878 -1.9577 0
M  V30 10915 C 1009.71 0.487256 -3.43259 0
M  V30 10916 C 1008.77 -0.424279 -4.27198 0
M  V30 10917 C 1008 0.336051 -5.32641 0
M  V30 10918 O 1008.23 1.56541 -5.48499 0
M  V30 10919 O 1007.16 -0.300777 -6.01148 0
M  V30 10920 H 1010.99 -1.14336 -2.81355 0
M  V30 10921 H 1008.57 -0.622794 -1.358 0
M  V30 10922 H 1010.45 0.940203 -4.10777 0
M  V30 10923 H 1009.13 1.29626 -2.96612 0
M  V30 10924 H 1008.04 -0.925509 -3.62471 0
M  V30 10925 H 1009.37 -1.1986 -4.77383 0
M  V30 10926 N 1011.02 1.44971 -0.618145 0
M  V30 10927 C 1012.44 1.57077 -0.282666 0
M  V30 10928 C 1012.64 1.60782 1.21456 0
M  V30 10929 O 1011.69 1.54382 1.99806 0
M  V30 10930 C 1013.01 2.84858 -0.963148 0
M  V30 10931 C 1014.55 2.9855 -0.940062 0
M  V30 10932 C 1015.03 4.29115 -1.60076 0
M  V30 10933 N 1016.52 4.35899 -1.56674 0
M  V30 10934 C 1017.25 5.35617 -2.04701 0
M  V30 10935 N 1016.75 6.41813 -2.6086 0
M  V30 10936 N 1018.54 5.27042 -1.95406 0
M  V30 10937 H 1010.69 1.4081 -1.59017 0
M  V30 10938 H 1012.96 0.673914 -0.666741 0
M  V30 10939 H 1012.66 2.88059 -2.0178 0
M  V30 10940 H 1012.54 3.73966 -0.492901 0
M  V30 10941 H 1014.92 2.94909 0.10607 0
M  V30 10942 H 1015.01 2.10825 -1.44868 0
M  V30 10943 H 1014.65 4.33514 -2.64627 0
M  V30 10944 H 1014.58 5.15675 -1.06708 0
M  V30 10945 H 1017.07 3.59766 -1.15659 0
M  V30 10946 H 1017.38 7.14166 -2.95273 0
M  V30 10947 H 1015.73 6.42534 -2.64905 0
M  V30 10948 H 1018.92 4.42987 -1.51263 0
M  V30 10949 H 1019.09 6.04604 -2.33147 0
M  V30 10950 N 1012.5 0.357919 1.53482 0
M  V30 10951 C 1013.46 -0.479797 2.24122 0
M  V30 10952 C 1014.46 -1.01596 1.24639 0
M  V30 10953 O 1015.65 -0.902928 1.48973 0
M  V30 10954 C 1012.78 -1.66983 2.97203 0
M  V30 10955 H 1013.98 0.138219 2.99581 0
M  V30 10956 H 1011.53 0.109484 1.55916 0
M  V30 10957 H 1012.26 -2.32615 2.25966 0
M  V30 10958 H 1012.05 -1.29242 3.70188 0
M  V30 10959 H 1013.54 -2.26367 3.50924 0
M  V30 10960 N 1013.98 -1.5736 0.0868897 0
M  V30 10961 C 1014.91 -2.10582 -0.904858 0
M  V30 10962 C 1015.92 -1.04124 -1.25148 0
M  V30 10963 O 1017.11 -1.31595 -1.20603 0
M  V30 10964 C 1014.21 -2.56381 -2.21635 0
M  V30 10965 C 1013.38 -3.86581 -2.04631 0
M  V30 10966 C 1012.44 -4.18313 -3.19219 0
M  V30 10967 O 1011.47 -4.87669 -2.93544 0
M  V30 10968 N 1012.67 -3.73061 -4.44754 0
M  V30 10969 H 1015.44 -2.96297 -0.450352 0
M  V30 10970 H 1013 -1.616 -0.0984376 0
M  V30 10971 H 1014.99 -2.7466 -2.97227 0
M  V30 10972 H 1013.56 -1.75721 -2.58536 0
M  V30 10973 H 1012.78 -3.77532 -1.13417 0
M  V30 10974 H 1014.07 -4.71777 -1.90537 0
M  V30 10975 H 1013.46 -3.1706 -4.68497 0
M  V30 10976 H 1012.02 -3.96511 -5.17322 0
M  V30 10977 N 1015.45 0.186762 -1.56489 0
M  V30 10978 C 1016.4 1.23141 -1.95205 0
M  V30 10979 C 1017.37 1.44799 -0.81378 0
M  V30 10980 O 1018.56 1.57795 -1.07263 0
M  V30 10981 C 1015.7 2.56926 -2.30397 0
M  V30 10982 C 1014.81 2.42777 -3.57328 0
M  V30 10983 C 1013.94 3.69323 -3.81804 0
M  V30 10984 C 1012.98 3.50041 -5.02133 0
M  V30 10985 N 1012.12 4.68619 -5.2282 0
M  V30 10986 H 1016.96 0.894256 -2.84266 0
M  V30 10987 H 1014.5 0.430187 -1.40669 0
M  V30 10988 H 1016.46 3.3488 -2.4882 0
M  V30 10989 H 1015.09 2.88668 -1.44466 0
M  V30 10990 H 1014.14 1.56078 -3.46906 0
M  V30 10991 H 1015.45 2.24468 -4.45439 0
M  V30 10992 H 1014.6 4.55715 -4.00511 0
M  V30 10993 H 1013.34 3.90595 -2.92039 0
M  V30 10994 H 1012.35 2.62034 -4.8334 0
M  V30 10995 H 1013.57 3.30206 -5.93414 0
M  V30 10996 H 1011.52 4.90139 -4.36005 0
M  V30 10997 H 1011.44 4.53165 -6.05126 0
M  V30 10998 H 1012.7 5.56338 -5.45993 0
M  V30 10999 N 1016.93 1.50896 0.454776 0
M  V30 11000 C 1018.35 1.38684 0.78987 0
M  V30 11001 C 1018.55 0.455587 1.96282 0
M  V30 11002 O 1017.6 -0.0957503 2.52318 0
M  V30 11003 C 1018.92 2.80381 1.08661 0
M  V30 11004 C 1020.47 2.8941 1.19209 0
M  V30 11005 C 1020.94 4.31976 1.52187 0
M  V30 11006 N 1022.43 4.35002 1.59146 0
M  V30 11007 C 1023.17 5.42326 1.862 0
M  V30 11008 N 1022.66 6.59835 2.11164 0
M  V30 11009 N 1024.46 5.29786 1.87838 0
M  V30 11010 H 1016.61 2.10006 -0.317981 0
M  V30 11011 H 1018.87 0.944636 -0.0797969 0
M  V30 11012 H 1018.58 3.50438 0.297626 0
M  V30 11013 H 1018.45 3.18634 2.01872 0
M  V30 11014 H 1020.84 2.19561 1.97173 0
M  V30 11015 H 1020.92 2.54677 0.239401 0
M  V30 11016 H 1020.56 5.02368 0.747576 0
M  V30 11017 H 1020.49 4.64208 2.48633 0
M  V30 11018 H 1022.98 3.50276 1.41828 0
M  V30 11019 H 1023.3 7.37428 2.31128 0
M  V30 11020 H 1021.64 6.62981 2.08522 0
M  V30 11021 H 1024.83 4.36974 1.67843 0
M  V30 11022 H 1025 6.13511 2.08585 0
M  V30 11023 N 1018.41 -0.709066 1.40748 0
M  V30 11024 C 1019.83 -1.01797 1.22921 0
M  V30 11025 C 1020.03 -2.01205 0.109011 0
M  V30 11026 O 1019.08 -2.46854 -0.530987 0
M  V30 11027 C 1020.4 -1.55546 2.57344 0
M  V30 11028 C 1021.94 -1.67498 2.64412 0
M  V30 11029 C 1022.42 -2.24652 3.99119 0
M  V30 11030 N 1023.91 -2.3203 4.00895 0
M  V30 11031 C 1024.64 -2.7725 5.01917 0
M  V30 11032 N 1024.14 -3.22174 6.13332 0
M  V30 11033 N 1025.93 -2.76692 4.89283 0
M  V30 11034 H 1018.08 -0.0502704 2.12341 0
M  V30 11035 H 1020.35 -0.0848933 0.944191 0
M  V30 11036 H 1020.05 -0.899631 3.39999 0
M  V30 11037 H 1019.93 -2.53971 2.78888 0
M  V30 11038 H 1022.31 -2.32196 1.82123 0
M  V30 11039 H 1022.4 -0.676553 2.46691 0
M  V30 11040 H 1022.04 -1.60573 4.81849 0
M  V30 11041 H 1021.97 -3.25221 4.14173 0
M  V30 11042 H 1024.46 -2.00309 3.20444 0
M  V30 11043 H 1024.77 -3.55265 6.86299 0
M  V30 11044 H 1023.12 -3.20116 6.16888 0
M  V30 11045 H 1026.31 -2.40936 4.01332 0
M  V30 11046 H 1026.48 -3.11617 5.68154 0
M  V30 11047 N 1019.89 -1.26353 -0.941956 0
M  V30 11048 C 1020.84 -1.07654 -2.06188 0
M  V30 11049 C 1021.83 -0.00369741 -1.694 0
M  V30 11050 O 1023.04 -0.160316 -1.79285 0
M  V30 11051 H 1019.41 -0.331274 -0.675101 0
M  V30 11052 H 1021.38 -2.02566 -2.19111 0
M  V30 11053 C 1020.13 -0.725436 -3.40048 0
M  V30 11054 H 1019.46 -1.54283 -3.68832 0
M  V30 11055 H 1020.9 -0.634383 -4.19227 0
M  V30 11056 C 1019.35 0.569369 -3.32054 0
M  V30 11057 O 1019.88 1.60791 -3.68116 0
M  V30 11058 N 1018.09 0.559714 -2.85159 0
M  V30 11059 H 1017.64 -0.285817 -2.56009 0
M  V30 11060 H 1017.6 1.42617 -2.80193 0
M  V30 11061 N 1021.37 1.14642 -1.08144 0
M  V30 11062 C 1022.59 1.90025 -0.830972 0
M  V30 11063 C 1023.02 1.77904 0.610879 0
M  V30 11064 O 1022.38 1.11735 1.42776 0
M  V30 11065 C 1022.42 3.38085 -1.25422 0
M  V30 11066 O 1021.53 4.10412 -0.404486 0
M  V30 11067 H 1020.87 0.591327 -0.302041 0
M  V30 11068 H 1023.4 1.4513 -1.44216 0
M  V30 11069 H 1023.41 3.88894 -1.23391 0
M  V30 11070 H 1022.08 3.46226 -2.30435 0
M  V30 11071 H 1020.66 3.69693 -0.487987 0
M  V30 11072 N 1022.85 0.866709 1.31628 0
M  V30 11073 C 1024.07 0.48956 2.01539 0
M  V30 11074 C 1024.5 -0.909556 1.64647 0
M  V30 11075 O 1023.85 -1.59959 0.853391 0
M  V30 11076 C 1023.9 0.650176 3.5469 0
M  V30 11077 O 1023.01 -0.311908 4.11219 0
M  V30 11078 H 1022.35 0.195144 0.634677 0
M  V30 11079 H 1024.88 1.16923 1.679 0
M  V30 11080 H 1024.89 0.542236 4.04381 0
M  V30 11081 H 1023.56 1.67038 3.80882 0
M  V30 11082 H 1022.14 -0.159197 3.7256 0
M  V30 11083 N 1024.32 -1.44642 0.625825 0
M  V30 11084 C 1025.57 -2.01308 0.125682 0
M  V30 11085 C 1025.89 -1.49773 -1.25807 0
M  V30 11086 O 1027.09 -1.98533 -1.85194 0
M  V30 11087 C 1025.55 -3.59479 0.17395 0
M  V30 11088 C 1025.16 -4.20011 1.55868 0
M  V30 11089 C 1026.9 -4.2364 -0.270005 0
M  V30 11090 C 1024.81 -5.7039 1.56235 0
M  V30 11091 H 1023.74 -0.75276 0.0432194 0
M  V30 11092 H 1026.39 -1.65916 0.783842 0
M  V30 11093 H 1024.77 -3.92145 -0.551212 0
M  V30 11094 H 1025.94 -3.98891 2.307 0
M  V30 11095 H 1024.26 -3.68116 1.94627 0
M  V30 11096 H 1026.86 -5.33931 -0.28672 0
M  V30 11097 H 1027.2 -3.95603 -1.29629 0
M  V30 11098 H 1027.73 -3.95759 0.402487 0
M  V30 11099 H 1024.47 -6.03154 2.56683 0
M  V30 11100 H 1023.99 -5.93648 0.856881 0
M  V30 11101 H 1025.67 -6.33929 1.29396 0
M  V30 11102 N 1025.8 -0.366053 -1.5329 0
M  V30 11103 C 1027.21 0.113056 -1.86357 0
M  V30 11104 C 1027.56 1.48123 -1.28662 0
M  V30 11105 O 1026.69 2.07658 -0.608849 0
M  V30 11106 C 1027.28 0.211923 -3.38137 0
M  V30 11107 C 1025.84 0.635289 -3.71 0
M  V30 11108 C 1024.99 -0.217203 -2.76448 0
M  V30 11109 H 1027.94 -0.584829 -1.47531 0
M  V30 11110 H 1027.96 1.0354 -3.66142 0
M  V30 11111 H 1027.47 -0.783994 -3.80099 0
M  V30 11112 H 1025.57 1.63942 -3.34595 0
M  V30 11113 H 1025.69 0.409571 -4.77346 0
M  V30 11114 H 1024.05 0.313988 -2.52757 0
M  V30 11115 H 1024.83 -1.21067 -3.21244 0
M  V30 11116 N 1027.28 1.57312 -0.0952337 0
M  V30 11117 C 1028.23 2.15263 0.881167 0
M  V30 11118 C 1029.22 1.09552 1.29208 0
M  V30 11119 O 1030.43 1.27897 1.26659 0
M  V30 11120 H 1026.8 0.688611 0.302191 0
M  V30 11121 H 1028.77 2.96126 0.367694 0
M  V30 11122 C 1027.52 2.74779 2.13053 0
M  V30 11123 H 1026.85 3.55807 1.82323 0
M  V30 11124 H 1028.29 3.18895 2.79431 0
M  V30 11125 C 1026.74 1.7068 2.90465 0
M  V30 11126 O 1027.27 1.14582 3.85011 0
M  V30 11127 N 1025.48 1.41169 2.54007 0
M  V30 11128 H 1025.03 1.86977 1.77193 0
M  V30 11129 H 1024.99 0.717559 3.06102 0
M  V30 11130 N 1028.76 -0.17846 1.56586 0
M  V30 11131 C 1030.01 -0.894464 1.81228 0
M  V30 11132 C 1030.33 -1.83089 0.671062 0
M  V30 11133 O 1029.6 -1.93439 -0.309557 0
M  V30 11134 H 1028.18 -0.333288 0.668527 0
M  V30 11135 H 1030.84 -0.179986 1.94067 0
M  V30 11136 H 1029.93 -1.47565 2.75011 0
M  V30 11137 N 1030.24 -1.51135 -0.446768 0
M  V30 11138 C 1031.18 -1.71767 -1.54158 0
M  V30 11139 C 1032.15 -0.559201 -1.56404 0
M  V30 11140 O 1033.34 -0.792567 -1.7356 0
M  V30 11141 C 1030.48 -1.84006 -2.91952 0
M  V30 11142 C 1029.59 -3.11511 -2.99308 0
M  V30 11143 C 1028.73 -3.144 -4.28166 0
M  V30 11144 C 1027.76 -4.36258 -4.29355 0
M  V30 11145 N 1026.9 -4.3675 -5.49722 0
M  V30 11146 H 1031.74 -2.65224 -1.35869 0
M  V30 11147 H 1029.28 -1.31453 -0.660186 0
M  V30 11148 H 1031.24 -1.89083 -3.71892 0
M  V30 11149 H 1029.87 -0.939661 -3.08821 0
M  V30 11150 H 1028.92 -3.15788 -2.12089 0
M  V30 11151 H 1030.23 -4.01445 -2.96047 0
M  V30 11152 H 1029.38 -3.18341 -5.16473 0
M  V30 11153 H 1028.12 -2.22338 -4.3407 0
M  V30 11154 H 1027.13 -4.32503 -3.39442 0
M  V30 11155 H 1028.35 -5.29574 -4.25122 0
M  V30 11156 H 1026.3 -3.47554 -5.56365 0
M  V30 11157 H 1026.22 -5.20481 -5.48302 0
M  V30 11158 H 1027.48 -4.4487 -6.40086 0
M  V30 11159 N 1031.71 0.701592 -1.41122 0
M  V30 11160 C 1032.64 1.82815 -1.45262 0
M  V30 11161 C 1033.62 1.67215 -0.311939 0
M  V30 11162 O 1034.81 1.87038 -0.522538 0
M  V30 11163 C 1031.94 3.20899 -1.32819 0
M  V30 11164 C 1030.89 3.51194 -2.44636 0
M  V30 11165 C 1030.22 4.8857 -2.17263 0
M  V30 11166 C 1031.52 3.50777 -3.86979 0
M  V30 11167 H 1033.21 1.79608 -2.39544 0
M  V30 11168 H 1030.76 0.862693 -1.15298 0
M  V30 11169 H 1032.71 3.99417 -1.34329 0
M  V30 11170 H 1031.44 3.24717 -0.350191 0
M  V30 11171 H 1030.1 2.75024 -2.42399 0
M  V30 11172 H 1029.74 4.89007 -1.17819 0
M  V30 11173 H 1029.44 5.09805 -2.92186 0
M  V30 11174 H 1030.97 5.69405 -2.20478 0
M  V30 11175 H 1032.38 4.19309 -3.90964 0
M  V30 11176 H 1030.78 3.83542 -4.61536 0
M  V30 11177 H 1031.85 2.49873 -4.15562 0
M  V30 11178 N 1033.19 1.2685 0.935242 0
M  V30 11179 C 1034.6 1.11569 1.49697 0
M  V30 11180 C 1034.95 -0.301952 1.93863 0
M  V30 11181 O 1034.08 -1.19408 1.80473 0
M  V30 11182 C 1034.67 2.01918 2.72056 0
M  V30 11183 C 1033.23 1.90765 3.24477 0
M  V30 11184 C 1032.38 1.94918 1.97237 0
M  V30 11185 H 1035.33 1.39853 0.750116 0
M  V30 11186 H 1035.35 1.57056 3.46574 0
M  V30 11187 H 1034.86 3.05088 2.39881 0
M  V30 11188 H 1032.96 0.905521 3.61429 0
M  V30 11189 H 1033.08 2.76611 3.91182 0
M  V30 11190 H 1031.44 1.39046 2.13397 0
M  V30 11191 H 1032.22 2.99729 1.67385 0
M  V30 11192 N 1034.67 -1.14067 1.0875 0
M  V30 11193 C 1035.6 -2.18306 0.664652 0
M  V30 11194 C 1036.58 -1.59312 -0.325359 0
M  V30 11195 O 1037.77 -1.87111 -0.228385 0
M  V30 11196 C 1034.89 -3.38693 -0.0218723 0
M  V30 11197 C 1033.94 -4.16263 0.928844 0
M  V30 11198 S 1034.77 -4.76817 2.43734 0
M  V30 11199 C 1035.93 -6.00557 1.76302 0
M  V30 11200 H 1036.16 -2.53837 1.54772 0
M  V30 11201 H 1033.69 -1.25254 0.902817 0
M  V30 11202 H 1035.65 -4.0843 -0.411686 0
M  V30 11203 H 1034.31 -3.01478 -0.881481 0
M  V30 11204 H 1033.51 -5.02446 0.395446 0
M  V30 11205 H 1033.11 -3.52146 1.25972 0
M  V30 11206 H 1035.4 -6.68788 1.08301 0
M  V30 11207 H 1036.34 -6.58492 2.60373 0
M  V30 11208 H 1036.75 -5.50827 1.23489 0
M  V30 11209 N 1036.15 -0.873678 -1.31166 0
M  V30 11210 C 1037.06 -0.335726 -2.32185 0
M  V30 11211 C 1038.07 0.556259 -1.64869 0
M  V30 11212 O 1039.25 0.452087 -1.9626 0
M  V30 11213 C 1036.32 0.450822 -3.43756 0
M  V30 11214 C 1035.38 -0.469565 -4.26724 0
M  V30 11215 C 1034.61 0.279538 -5.32967 0
M  V30 11216 O 1034.83 1.50715 -5.50128 0
M  V30 11217 O 1033.77 -0.36452 -6.00795 0
M  V30 11218 H 1037.59 -1.17314 -2.80127 0
M  V30 11219 H 1035.18 -0.637163 -1.35132 0
M  V30 11220 H 1037.06 0.896582 -4.11752 0
M  V30 11221 H 1035.73 1.26472 -2.9797 0
M  V30 11222 H 1034.64 -0.963902 -3.61469 0
M  V30 11223 H 1035.97 -1.24916 -4.76085 0
M  V30 11224 N 1037.63 1.44308 -0.633487 0
M  V30 11225 C 1038.85 2.06897 -0.144347 0
M  V30 11226 C 1039.28 1.47045 1.173 0
M  V30 11227 O 1038.63 0.572806 1.72013 0
M  V30 11228 C 1038.68 3.60571 -0.0456324 0
M  V30 11229 O 1037.79 4.0015 0.997682 0
M  V30 11230 H 1037.13 0.658427 -0.0858499 0
M  V30 11231 H 1039.66 1.85142 -0.870833 0
M  V30 11232 H 1039.67 4.07745 0.144178 0
M  V30 11233 H 1038.34 4.03515 -1.0074 0
M  V30 11234 H 1036.92 3.64603 0.782252 0
M  V30 11235 N 1039.1 0.374177 1.53094 0
M  V30 11236 C 1040.52 -0.103172 1.86415 0
M  V30 11237 C 1040.87 -1.47439 1.29446 0
M  V30 11238 O 1039.99 -2.07333 0.619853 0
M  V30 11239 C 1040.59 -0.193988 3.38244 0
M  V30 11240 C 1039.15 -0.615605 3.71332 0
M  V30 11241 C 1038.29 0.23186 2.76329 0
M  V30 11242 H 1041.24 0.592644 1.47219 0
M  V30 11243 H 1041.26 -1.01597 3.66686 0
M  V30 11244 H 1040.78 0.80414 3.79678 0
M  V30 11245 H 1038.88 -1.62165 3.3546 0
M  V30 11246 H 1038.99 -0.38425 4.77557 0
M  V30 11247 H 1037.35 -0.300579 2.5292 0
M  V30 11248 H 1038.14 1.22769 3.20597 0
M  V30 11249 N 1040.58 -1.57259 0.103575 0
M  V30 11250 C 1041.55 -2.13337 -0.837859 0
M  V30 11251 C 1042.55 -1.06459 -1.20512 0
M  V30 11252 O 1043.74 -1.32307 -1.13316 0
M  V30 11253 C 1040.87 -2.66093 -2.13089 0
M  V30 11254 H 1042.06 -2.97842 -0.350775 0
M  V30 11255 H 1039.61 -1.55621 -0.145511 0
M  V30 11256 H 1040.35 -1.85133 -2.66264 0
M  V30 11257 H 1040.13 -3.44244 -1.87719 0
M  V30 11258 H 1041.62 -3.09443 -2.80419 0
M  V30 11259 N 1042.06 0.170153 -1.56679 0
M  V30 11260 C 1042.99 1.23525 -1.93066 0
M  V30 11261 C 1044.01 1.40414 -0.823879 0
M  V30 11262 O 1045.19 1.40396 -1.10232 0
M  V30 11263 C 1042.29 2.60376 -2.16928 0
M  V30 11264 C 1041.47 2.6477 -3.4816 0
M  V30 11265 C 1040.53 3.82993 -3.60837 0
M  V30 11266 O 1039.55 3.68937 -4.33444 0
M  V30 11267 N 1040.75 4.99498 -2.95773 0
M  V30 11268 H 1043.52 0.926172 -2.8503 0
M  V30 11269 H 1041.08 0.359909 -1.57849 0
M  V30 11270 H 1043.07 3.37934 -2.22672 0
M  V30 11271 H 1041.64 2.83669 -1.31342 0
M  V30 11272 H 1040.86 1.73298 -3.54064 0
M  V30 11273 H 1042.15 2.64717 -4.34514 0
M  V30 11274 H 1041.55 5.13819 -2.36657 0
M  V30 11275 H 1040.11 5.74914 -3.07111 0
M  V30 11276 N 1043.54 1.5137 0.438746 0
M  V30 11277 C 1044.49 1.73154 1.55308 0
M  V30 11278 C 1045.48 0.597825 1.58501 0
M  V30 11279 O 1046.69 0.77917 1.62262 0
M  V30 11280 H 1043.06 0.547083 0.51595 0
M  V30 11281 H 1045.03 2.66566 1.34108 0
M  V30 11282 C 1043.78 1.87242 2.92977 0
M  V30 11283 H 1043.1 2.73884 2.91252 0
M  V30 11284 H 1044.54 2.06497 3.70317 0
M  V30 11285 C 1043 0.631887 3.30921 0
M  V30 11286 O 1043.53 -0.214099 4.01129 0
M  V30 11287 N 1041.74 0.47639 2.86669 0
M  V30 11288 H 1041.29 1.16589 2.29706 0
M  V30 11289 H 1041.24 -0.352403 3.12419 0
M  V30 11290 N 1045.02 -0.694098 1.41492 0
M  V30 11291 C 1046.26 -1.45415 1.40929 0
M  V30 11292 C 1046.59 -1.94491 0.0189301 0
M  V30 11293 O 1045.85 -1.7 -0.96945 0
M  V30 11294 C 1046.15 -2.6805 2.36398 0
M  V30 11295 C 1045.81 -2.37623 3.83205 0
M  V30 11296 C 1044.47 -2.29035 4.23198 0
M  V30 11297 C 1046.83 -2.12555 4.75888 0
M  V30 11298 C 1044.15 -1.93478 5.5388 0
M  V30 11299 C 1046.51 -1.78506 6.06892 0
M  V30 11300 C 1045.17 -1.68415 6.45905 0
M  V30 11301 H 1044.44 -0.53211 0.515694 0
M  V30 11302 H 1047.09 -0.793193 1.74301 0
M  V30 11303 H 1045.39 -3.39086 1.96285 0
M  V30 11304 H 1047.09 -3.26194 2.33234 0
M  V30 11305 H 1043.68 -2.45202 3.51531 0
M  V30 11306 H 1047.86 -2.18133 4.45793 0
M  V30 11307 H 1043.12 -1.84219 5.82986 0
M  V30 11308 H 1047.29 -1.58128 6.7821 0
M  V30 11309 H 1044.92 -1.40631 7.47079 0
M  V30 11310 N 1046.49 -1.27344 -0.928501 0
M  V30 11311 C 1047.72 -1.16447 -1.7102 0
M  V30 11312 C 1048.14 0.278799 -1.8673 0
M  V30 11313 O 1047.49 1.18989 -1.38376 0
M  V30 11314 C 1047.55 -1.84242 -3.11026 0
M  V30 11315 O 1047.27 -3.2293 -2.96054 0
M  V30 11316 C 1048.77 -1.7946 -4.05351 0
M  V30 11317 H 1045.99 -0.404898 -0.535069 0
M  V30 11318 H 1048.53 -1.68201 -1.16313 0
M  V30 11319 H 1046.69 -1.36395 -3.62595 0
M  V30 11320 H 1047.1 -3.5667 -3.8456 0
M  V30 11321 H 1048.57 -2.31511 -5.01105 0
M  V30 11322 H 1049.05 -0.763771 -4.32508 0
M  V30 11323 H 1049.66 -2.26918 -3.59706 0
M  V30 11324 N 1047.97 1.13488 -1.09353 0
M  V30 11325 C 1049.22 1.841 -0.82401 0
M  V30 11326 C 1049.53 1.84393 0.652586 0
M  V30 11327 O 1050.74 2.5089 1.03762 0
M  V30 11328 C 1049.2 3.30523 -1.42418 0
M  V30 11329 C 1048.8 3.38621 -2.93326 0
M  V30 11330 C 1050.55 4.06182 -1.23356 0
M  V30 11331 C 1048.46 4.79311 -3.46432 0
M  V30 11332 H 1047.39 0.68974 -0.304589 0
M  V30 11333 H 1050.04 1.27866 -1.31615 0
M  V30 11334 H 1048.42 3.86555 -0.859727 0
M  V30 11335 H 1049.59 2.92587 -3.5599 0
M  V30 11336 H 1047.91 2.76426 -3.11412 0
M  V30 11337 H 1050.5 5.10047 -1.60488 0
M  V30 11338 H 1050.85 4.15936 -0.174152 0
M  V30 11339 H 1051.38 3.56477 -1.76547 0
M  V30 11340 H 1048.12 4.74748 -4.5199 0
M  V30 11341 H 1047.64 5.25842 -2.8853 0
M  V30 11342 H 1049.32 5.48227 -3.43593 0
M  V30 11343 N 1049.45 0.880621 1.30701 0
M  V30 11344 C 1050.4 0.342397 2.28246 0
M  V30 11345 C 1051.37 -0.565023 1.56194 0
M  V30 11346 O 1052.55 -0.494377 1.84284 0
M  V30 11347 C 1049.69 -0.440859 3.42272 0
M  V30 11348 C 1048.81 0.495284 4.29151 0
M  V30 11349 C 1047.94 -0.303141 5.30334 0
M  V30 11350 C 1046.98 0.628751 6.08862 0
M  V30 11351 N 1046.12 -0.13408 7.01972 0
M  V30 11352 H 1050.96 1.17938 2.73669 0
M  V30 11353 H 1048.49 0.59296 1.34619 0
M  V30 11354 H 1050.45 -0.910854 4.07135 0
M  V30 11355 H 1049.08 -1.24245 2.97931 0
M  V30 11356 H 1048.13 1.08376 3.64635 0
M  V30 11357 H 1049.45 1.2094 4.83916 0
M  V30 11358 H 1048.6 -0.835181 6.00924 0
M  V30 11359 H 1047.34 -1.05049 4.76252 0
M  V30 11360 H 1046.34 1.17246 5.37153 0
M  V30 11361 H 1047.57 1.37512 6.65032 0
M  V30 11362 H 1045.52 -0.864046 6.50285 0
M  V30 11363 H 1045.43 0.520486 7.54206 0
M  V30 11364 H 1046.7 -0.647005 7.7681 0
M  V30 11365 N 1050.93 -1.4397 0.641131 0
M  V30 11366 C 1051.84 -2.34526 -0.058742 0
M  V30 11367 C 1052.86 -1.53194 -0.825088 0
M  V30 11368 O 1054.03 -1.85888 -0.775081 0
M  V30 11369 C 1051.1 -3.31313 -1.02139 0
M  V30 11370 C 1050.16 -4.28552 -0.253319 0
M  V30 11371 C 1049.39 -5.20715 -1.17012 0
M  V30 11372 O 1049.61 -5.17028 -2.40911 0
M  V30 11373 O 1048.55 -5.9839 -0.649039 0
M  V30 11374 H 1052.37 -2.95843 0.686329 0
M  V30 11375 H 1049.96 -1.43909 0.401316 0
M  V30 11376 H 1051.84 -3.90862 -1.57496 0
M  V30 11377 H 1050.52 -2.72516 -1.7469 0
M  V30 11378 H 1049.42 -3.72519 0.343531 0
M  V30 11379 H 1050.76 -4.90297 0.432372 0
M  V30 11380 N 1052.41 -0.382291 -1.52893 0
M  V30 11381 C 1053.35 0.456234 -2.26246 0
M  V30 11382 C 1054.32 1.06366 -1.27575 0
M  V30 11383 O 1055.51 1.09301 -1.5639 0
M  V30 11384 C 1052.65 1.5813 -3.06739 0
M  V30 11385 C 1051.76 0.997416 -4.20328 0
M  V30 11386 C 1050.9 2.09296 -4.8823 0
M  V30 11387 C 1049.94 1.4846 -5.93823 0
M  V30 11388 N 1049.07 2.51916 -6.55349 0
M  V30 11389 H 1053.91 -0.175761 -2.97481 0
M  V30 11390 H 1051.45 -0.0985046 -1.4677 0
M  V30 11391 H 1053.41 2.24426 -3.51694 0
M  V30 11392 H 1052.04 2.18371 -2.37727 0
M  V30 11393 H 1051.09 0.224251 -3.79738 0
M  V30 11394 H 1052.4 0.512784 -4.96157 0
M  V30 11395 H 1051.56 2.83377 -5.36453 0
M  V30 11396 H 1050.3 2.61116 -4.1191 0
M  V30 11397 H 1049.3 0.729001 -5.44946 0
M  V30 11398 H 1050.53 0.97443 -6.72073 0
M  V30 11399 H 1048.47 3.02919 -5.81873 0
M  V30 11400 H 1048.39 2.08188 -7.26769 0
M  V30 11401 H 1049.66 3.25649 -7.08218 0
M  V30 11402 N 1053.89 1.57202 -0.111913 0
M  V30 11403 C 1055.16 1.86459 0.590972 0
M  V30 11404 C 1055.54 1.01182 1.85271 0
M  V30 11405 O 1054.89 0.0887891 2.28327 0
M  V30 11406 C 1055.1 3.37455 0.890225 0
M  V30 11407 C 1056.45 4.05895 1.24638 0
M  V30 11408 O 1057.47 3.42433 0.980713 0
M  V30 11409 O 1056.33 5.17903 1.74466 0
M  V30 11410 H 1053.43 0.771652 0.297459 0
M  V30 11411 H 1055.97 1.69072 -0.145882 0
M  V30 11412 H 1054.74 3.913 -0.00419012 0
M  V30 11413 H 1054.37 3.60248 1.68248 0
M  V30 11414 N 1055.36 -0.161842 1.56767 0
M  V30 11415 C 1056.29 -1.20226 2.0017 0
M  V30 11416 C 1057.27 -1.4564 0.878807 0
M  V30 11417 O 1058.46 -1.56813 1.14557 0
M  V30 11418 C 1055.59 -2.53897 2.36968 0
M  V30 11419 C 1054.54 -2.43033 3.52305 0
M  V30 11420 C 1053.87 -3.81281 3.74872 0
M  V30 11421 C 1055.17 -1.927 4.85453 0
M  V30 11422 H 1056.86 -0.84142 2.87333 0
M  V30 11423 H 1054.41 -0.403309 1.38237 0
M  V30 11424 H 1056.36 -3.26893 2.6593 0
M  V30 11425 H 1055.09 -2.91787 1.46724 0
M  V30 11426 H 1053.75 -1.7249 3.23485 0
M  V30 11427 H 1053.39 -4.1658 2.81904 0
M  V30 11428 H 1053.09 -3.74877 4.52483 0
M  V30 11429 H 1054.62 -4.55848 4.06245 0
M  V30 11430 H 1056.03 -2.55477 5.13229 0
M  V30 11431 H 1054.43 -1.97222 5.66766 0
M  V30 11432 H 1055.5 -0.881816 4.76814 0
M  V30 11433 N 1056.84 -1.516 -0.430713 0
M  V30 11434 C 1057.75 -1.76247 -1.54836 0
M  V30 11435 C 1058.77 -0.646985 -1.61524 0
M  V30 11436 O 1059.94 -0.929987 -1.78643 0
M  V30 11437 C 1057.01 -1.88833 -2.90763 0
M  V30 11438 C 1056.07 -3.12701 -2.94137 0
M  V30 11439 C 1055.3 -3.24676 -4.23581 0
M  V30 11440 O 1055.53 -2.42429 -5.16318 0
M  V30 11441 O 1054.46 -4.17697 -4.33374 0
M  V30 11442 H 1058.29 -2.71069 -1.3695 0
M  V30 11443 H 1055.87 -1.36182 -0.614396 0
M  V30 11444 H 1057.75 -1.99057 -3.71422 0
M  V30 11445 H 1056.43 -0.971987 -3.08762 0
M  V30 11446 H 1055.33 -3.0795 -2.1241 0
M  V30 11447 H 1056.67 -4.04045 -2.81084 0
M  V30 11448 N 1058.32 0.686584 -1.41858 0
M  V30 11449 C 1059.25 1.81264 -1.47193 0
M  V30 11450 C 1060.23 1.66875 -0.329657 0
M  V30 11451 O 1061.42 1.86473 -0.542347 0
M  V30 11452 C 1058.55 3.19472 -1.36216 0
M  V30 11453 C 1057.5 3.4858 -2.48347 0
M  V30 11454 C 1056.83 4.86239 -2.22432 0
M  V30 11455 C 1058.13 3.46653 -3.90678 0
M  V30 11456 H 1059.82 1.77057 -2.41436 0
M  V30 11457 H 1057.37 0.850415 -1.16206 0
M  V30 11458 H 1059.32 3.97969 -1.38558 0
M  V30 11459 H 1058.04 3.24327 -0.384611 0
M  V30 11460 H 1056.7 2.72437 -2.45303 0
M  V30 11461 H 1056.35 4.8773 -1.22999 0
M  V30 11462 H 1056.05 5.06677 -2.97577 0
M  V30 11463 H 1057.57 5.67034 -2.26505 0
M  V30 11464 H 1058.99 4.15139 -3.95389 0
M  V30 11465 H 1057.38 3.78625 -4.65578 0
M  V30 11466 H 1058.45 2.45451 -4.18189 0
M  V30 11467 N 1059.8 1.27835 0.921735 0
M  V30 11468 C 1061.02 1.17465 1.70929 0
M  V30 11469 C 1061.45 -0.264171 1.86236 0
M  V30 11470 O 1060.81 -1.19124 1.36671 0
M  V30 11471 C 1060.85 1.8697 3.08342 0
M  V30 11472 O 1059.96 1.17173 3.95404 0
M  V30 11473 H 1059.3 0.408206 0.523702 0
M  V30 11474 H 1061.83 1.69013 1.15307 0
M  V30 11475 H 1061.84 1.94564 3.58621 0
M  V30 11476 H 1060.51 2.91633 2.96518 0
M  V30 11477 H 1059.09 1.17688 3.53842 0
M  V30 11478 N 1061.28 -1.12907 1.09954 0
M  V30 11479 C 1062.55 -1.80602 0.751148 0
M  V30 11480 C 1062.93 -1.96826 -0.763077 0
M  V30 11481 O 1062.28 -1.54066 -1.68749 0
M  V30 11482 C 1062.49 -3.15289 1.49646 0
M  V30 11483 C 1063.84 -3.9056 1.66578 0
M  V30 11484 O 1064.86 -3.24929 1.45943 0
M  V30 11485 O 1063.72 -5.08292 2.00752 0
M  V30 11486 H 1060.82 -0.781529 0.270446 0
M  V30 11487 H 1063.36 -1.19786 1.20206 0
M  V30 11488 H 1062.13 -2.9874 2.52725 0
M  V30 11489 H 1061.76 -3.83809 1.03808 0
M  V30 11490 N 1062.75 -0.88754 -1.30232 0
M  V30 11491 C 1063.98 -0.522306 -2.00199 0
M  V30 11492 C 1064.4 0.889866 -1.66514 0
M  V30 11493 O 1063.75 1.58558 -0.903639 0
M  V30 11494 C 1063.8 -0.690551 -3.54843 0
M  V30 11495 O 1063.53 -2.04713 -3.8733 0
M  V30 11496 C 1065.03 -0.328649 -4.4208 0
M  V30 11497 H 1062.25 -0.201628 -0.63999 0
M  V30 11498 H 1064.79 -1.19355 -1.66056 0
M  V30 11499 H 1062.95 -0.0666493 -3.87343 0
M  V30 11500 H 1063.36 -2.06762 -4.82027 0
M  V30 11501 H 1064.83 -0.497257 -5.49756 0
M  V30 11502 H 1065.31 0.733502 -4.33032 0
M  V30 11503 H 1065.92 -0.928982 -4.1503 0
M  V30 11504 N 1064.23 1.43628 -0.648757 0
M  V30 11505 C 1065.14 2.34554 0.0463037 0
M  V30 11506 C 1066.16 1.53629 0.816952 0
M  V30 11507 O 1067.33 1.86297 0.765212 0
M  V30 11508 C 1064.4 3.3185 1.00381 0
M  V30 11509 C 1063.46 4.2868 0.230589 0
M  V30 11510 C 1062.69 5.21328 1.14249 0
M  V30 11511 O 1062.92 5.18298 2.38166 0
M  V30 11512 O 1061.85 5.98726 0.617296 0
M  V30 11513 H 1065.68 2.95475 -0.702008 0
M  V30 11514 H 1063.26 1.43694 -0.408942 0
M  V30 11515 H 1065.14 3.91692 1.5542 0
M  V30 11516 H 1063.82 2.73439 1.73243 0
M  V30 11517 H 1062.73 3.72332 -0.363282 0
M  V30 11518 H 1064.06 4.90061 -0.458368 0
M  V30 11519 N 1065.71 0.390394 1.52688 0
M  V30 11520 C 1066.62 -0.451543 2.30213 0
M  V30 11521 C 1067.64 -1.07051 1.37172 0
M  V30 11522 O 1068.81 -1.07609 1.70242 0
M  V30 11523 C 1065.88 -1.56299 3.0947 0
M  V30 11524 C 1064.94 -0.969017 4.18221 0
M  V30 11525 C 1064.17 -2.0275 4.93688 0
M  V30 11526 O 1064.39 -3.24273 4.69258 0
M  V30 11527 O 1063.33 -1.64418 5.79008 0
M  V30 11528 H 1067.15 0.180042 3.03166 0
M  V30 11529 H 1064.74 0.154082 1.48603 0
M  V30 11530 H 1066.62 -2.20864 3.58883 0
M  V30 11531 H 1065.3 -2.17952 2.3933 0
M  V30 11532 H 1064.2 -0.286587 3.73001 0
M  V30 11533 H 1065.54 -0.396687 4.90599 0
M  V30 11534 N 1067.19 -1.57141 0.120249 0
M  V30 11535 C 1068.6 -1.82256 -0.404931 0
M  V30 11536 C 1068.95 -1.03748 -1.66526 0
M  V30 11537 O 1068.08 -0.274456 -2.14653 0
M  V30 11538 C 1068.67 -3.30588 -0.741431 0
M  V30 11539 C 1067.23 -3.56379 -1.21124 0
M  V30 11540 C 1066.38 -2.76421 -0.220569 0
M  V30 11541 H 1069.33 -1.54897 0.345361 0
M  V30 11542 H 1069.35 -3.45284 -1.59872 0
M  V30 11543 H 1068.86 -3.87701 0.176036 0
M  V30 11544 H 1066.96 -3.04625 -2.14556 0
M  V30 11545 H 1067.07 -4.64952 -1.1557 0
M  V30 11546 H 1065.44 -2.44666 -0.707857 0
M  V30 11547 H 1066.22 -3.36294 0.690018 0
M  V30 11548 N 1068.67 0.153526 -1.5685 0
M  V30 11549 C 1070.08 0.714247 -1.72498 0
M  V30 11550 C 1070.43 1.81968 -0.733621 0
M  V30 11551 O 1069.55 2.16163 0.10118 0
M  V30 11552 C 1070.15 1.30238 -3.12767 0
M  V30 11553 C 1068.71 1.80974 -3.30038 0
M  V30 11554 C 1067.85 0.695638 -2.68433 0
M  V30 11555 H 1070.81 -0.0720733 -1.58536 0
M  V30 11556 H 1070.83 2.17217 -3.12405 0
M  V30 11557 H 1070.34 0.497605 -3.84897 0
M  V30 11558 H 1068.44 2.64039 -2.62895 0
M  V30 11559 H 1068.55 1.94294 -4.37934 0
M  V30 11560 H 1066.92 1.12061 -2.28723 0
M  V30 11561 H 1067.7 -0.0975885 -3.43161 0
M  V30 11562 N 1070.14 1.51827 0.422667 0
M  V30 11563 C 1071.09 1.74791 1.53463 0
M  V30 11564 C 1072.09 0.614602 1.57858 0
M  V30 11565 O 1073.29 0.796336 1.61426 0
M  V30 11566 H 1069.67 0.552524 0.510118 0
M  V30 11567 H 1071.64 2.67974 1.31273 0
M  V30 11568 C 1070.39 1.90339 2.90975 0
M  V30 11569 H 1069.71 2.76958 2.8833 0
M  V30 11570 H 1071.15 2.10413 3.68106 0
M  V30 11571 C 1069.61 0.66695 3.30232 0
M  V30 11572 O 1070.14 -0.171542 4.01334 0
M  V30 11573 N 1068.35 0.506768 2.86147 0
M  V30 11574 H 1067.89 1.19019 2.28456 0
M  V30 11575 H 1067.85 -0.319247 3.12775 0
M  V30 11576 N 1071.62 -0.679052 1.4222 0
M  V30 11577 C 1072.85 -1.46534 1.45641 0
M  V30 11578 C 1073.26 -1.89088 0.0649574 0
M  V30 11579 O 1072.6 -1.58436 -0.929712 0
M  V30 11580 C 1072.67 -2.74882 2.3169 0
M  V30 11581 C 1072.33 -2.5443 3.79624 0
M  V30 11582 C 1073.33 -2.19307 4.71382 0
M  V30 11583 C 1071.01 -2.69557 4.23845 0
M  V30 11584 C 1073.01 -1.99571 6.05351 0
M  V30 11585 C 1070.69 -2.49437 5.57875 0
M  V30 11586 C 1071.69 -2.14497 6.48444 0
M  V30 11587 O 1071.38 -1.94567 7.79999 0
M  V30 11588 H 1071.11 -0.457542 0.497626 0
M  V30 11589 H 1073.66 -0.842145 1.87342 0
M  V30 11590 H 1071.89 -3.39669 1.8483 0
M  V30 11591 H 1073.58 -3.3675 2.26615 0
M  V30 11592 H 1074.35 -2.0722 4.38503 0
M  V30 11593 H 1070.23 -2.95733 3.53642 0
M  V30 11594 H 1073.77 -1.72222 6.76007 0
M  V30 11595 H 1069.67 -2.61119 5.90328 0
M  V30 11596 H 1070.44 -2.092 7.91314 0
M  V30 11597 N 1073.1 -1.28322 -0.914942 0
M  V30 11598 C 1074.38 -1.06111 -1.64316 0
M  V30 11599 C 1074.76 0.399934 -2.07277 0
M  V30 11600 O 1074.11 1.38577 -1.81683 0
M  V30 11601 C 1074.32 -2.03461 -2.83557 0
M  V30 11602 C 1075.66 -2.33541 -3.54604 0
M  V30 11603 O 1076.69 -2.01536 -2.93704 0
M  V30 11604 O 1075.55 -2.88158 -4.64357 0
M  V30 11605 H 1072.64 -0.405451 -0.72079 0
M  V30 11606 H 1075.19 -1.39636 -0.964352 0
M  V30 11607 H 1073.96 -3.01938 -2.48896 0
M  V30 11608 H 1073.58 -1.70574 -3.59152 0
M  V30 11609 N 1074.58 1.12322 -1.10551 0
M  V30 11610 C 1075.49 2.21678 -0.767862 0
M  V30 11611 C 1076.5 1.72404 0.235132 0
M  V30 11612 O 1077.68 2.01266 0.0735912 0
M  V30 11613 C 1074.75 3.46087 -0.205999 0
M  V30 11614 C 1073.81 4.10195 -1.26642 0
M  V30 11615 C 1073.04 5.28666 -0.731274 0
M  V30 11616 O 1073.26 5.68686 0.44189 0
M  V30 11617 O 1072.2 5.83121 -1.49176 0
M  V30 11618 H 1076.02 2.52955 -1.6807 0
M  V30 11619 H 1073.61 1.2068 -0.880728 0
M  V30 11620 H 1075.49 4.21273 0.103435 0
M  V30 11621 H 1074.16 3.16484 0.679685 0
M  V30 11622 H 1073.07 3.36784 -1.62873 0
M  V30 11623 H 1074.4 4.43957 -2.12516 0
M  V30 11624 N 1076.06 0.894434 1.2976 0
M  V30 11625 C 1076.97 0.372622 2.31622 0
M  V30 11626 C 1077.98 -0.52996 1.65733 0
M  V30 11627 O 1079.16 -0.420807 1.96955 0
M  V30 11628 C 1076.22 -0.396076 3.4443 0
M  V30 11629 C 1075.28 0.537394 4.25923 0
M  V30 11630 C 1074.52 -0.194713 5.33345 0
M  V30 11631 O 1074.74 -1.41943 5.52457 0
M  V30 11632 O 1073.67 0.460055 6.00139 0
M  V30 11633 H 1077.5 1.21756 2.78225 0
M  V30 11634 H 1075.09 0.65858 1.34101 0
M  V30 11635 H 1076.97 -0.830962 4.13126 0
M  V30 11636 H 1075.64 -1.21716 2.99945 0
M  V30 11637 H 1074.55 1.02129 3.5989 0
M  V30 11638 H 1075.88 1.32475 4.74037 0
M  V30 11639 N 1077.53 -1.43282 0.656365 0
M  V30 11640 C 1078.47 -2.28049 -0.083127 0
M  V30 11641 C 1079.45 -1.40009 -0.826812 0
M  V30 11642 O 1080.63 -1.69452 -0.825736 0
M  V30 11643 C 1077.76 -3.19487 -1.12452 0
M  V30 11644 C 1076.8 -4.23807 -0.478527 0
M  V30 11645 S 1077.64 -5.30218 0.750248 0
M  V30 11646 C 1078.79 -6.25225 -0.290534 0
M  V30 11647 H 1079.02 -2.90419 0.635922 0
M  V30 11648 H 1076.56 -1.47839 0.445303 0
M  V30 11649 H 1078.52 -3.72713 -1.72034 0
M  V30 11650 H 1077.18 -2.56288 -1.81591 0
M  V30 11651 H 1076.37 -4.87901 -1.26368 0
M  V30 11652 H 1075.97 -3.73975 0.043251 0
M  V30 11653 H 1078.26 -6.67568 -1.15579 0
M  V30 11654 H 1079.21 -7.07397 0.315458 0
M  V30 11655 H 1079.61 -5.60999 -0.627751 0
M  V30 11656 N 1079.01 -0.398486 -1.52479 0
M  V30 11657 C 1080.24 0.183059 -2.06591 0
M  V30 11658 C 1080.66 1.3898 -1.26753 0
M  V30 11659 O 1080.02 1.78885 -0.294959 0
M  V30 11660 C 1080.07 0.522392 -3.56796 0
M  V30 11661 O 1079.17 1.61499 -3.79462 0
M  V30 11662 H 1078.51 0.0188411 -0.663733 0
M  V30 11663 H 1081.04 -0.56861 -1.9654 0
M  V30 11664 H 1081.05 0.784078 -4.00395 0
M  V30 11665 H 1079.73 -0.359807 -4.14341 0
M  V30 11666 H 1078.31 1.3463 -3.47749 0
M  V30 11667 N 1080.49 1.57075 -0.12858 0
M  V30 11668 C 1081.74 1.95134 0.526046 0
M  V30 11669 C 1082.06 1.01337 1.66601 0
M  V30 11670 O 1081.33 0.0714361 1.9577 0
M  V30 11671 H 1079.91 0.720468 0.19732 0
M  V30 11672 H 1082.57 1.93874 -0.199767 0
M  V30 11673 H 1081.67 2.98406 0.914332 0
M  V30 11674 N 1081.97 -0.145205 1.5693 0
M  V30 11675 C 1083.22 -0.855822 1.83085 0
M  V30 11676 C 1083.54 -1.81625 0.709747 0
M  V30 11677 O 1082.81 -1.94052 -0.268456 0
M  V30 11678 H 1081.39 -0.319032 0.675446 0
M  V30 11679 H 1084.05 -0.138781 1.94405 0
M  V30 11680 H 1083.15 -1.41698 2.78079 0
M  V30 11681 N 1083.45 -1.52049 -0.414609 0
M  V30 11682 C 1084.7 -1.65067 -1.15912 0
M  V30 11683 C 1085.01 -0.383969 -1.91794 0
M  V30 11684 O 1086.22 -0.393872 -2.68628 0
M  V30 11685 C 1084.67 -2.91611 -2.1093 0
M  V30 11686 C 1084.28 -4.25369 -1.4059 0
M  V30 11687 C 1086.02 -3.13992 -2.85674 0
M  V30 11688 C 1083.93 -5.43041 -2.34223 0
M  V30 11689 H 1082.86 -0.614884 -0.436387 0
M  V30 11690 H 1085.51 -1.78533 -0.424072 0
M  V30 11691 H 1083.89 -2.71831 -2.87965 0
M  V30 11692 H 1085.07 -4.55611 -0.689568 0
M  V30 11693 H 1083.38 -4.09047 -0.779088 0
M  V30 11694 H 1085.98 -3.99082 -3.55861 0
M  V30 11695 H 1086.32 -2.27998 -3.48314 0
M  V30 11696 H 1086.86 -3.34217 -2.1574 0
M  V30 11697 H 1083.59 -6.31364 -1.76238 0
M  V30 11698 H 1083.11 -5.17144 -3.03845 0
M  V30 11699 H 1084.79 -5.75901 -2.94868 0
M  V30 11700 N 1084.93 0.6715 -1.42579 0
M  V30 11701 C 1085.84 1.81435 -1.48723 0
M  V30 11702 C 1086.85 1.69895 -0.375716 0
M  V30 11703 O 1088.03 1.91388 -0.627115 0
M  V30 11704 C 1085.09 3.17599 -1.39038 0
M  V30 11705 C 1084.15 3.41071 -2.60709 0
M  V30 11706 C 1083.39 4.7074 -2.51476 0
M  V30 11707 O 1083.61 5.48868 -1.55243 0
M  V30 11708 O 1082.54 4.95528 -3.41666 0
M  V30 11709 H 1086.37 1.79206 -2.45191 0
M  V30 11710 H 1083.95 0.827666 -1.24379 0
M  V30 11711 H 1085.84 3.98847 -1.3601 0
M  V30 11712 H 1084.51 3.20458 -0.456966 0
M  V30 11713 H 1083.42 2.59659 -2.69311 0
M  V30 11714 H 1084.75 3.43045 -3.5296 0
M  V30 11715 N 1086.4 1.28806 0.908124 0
M  V30 11716 C 1087.65 1.16287 1.65781 0
M  V30 11717 C 1087.98 -0.287389 1.92365 0
M  V30 11718 O 1087.23 -1.22491 1.52625 0
M  V30 11719 C 1087.53 1.91267 3.01914 0
M  V30 11720 C 1087.2 3.41033 2.9497 0
M  V30 11721 C 1085.86 3.81879 2.92783 0
M  V30 11722 C 1088.21 4.36507 2.848 0
M  V30 11723 C 1085.54 5.16529 2.78235 0
M  V30 11724 C 1087.89 5.71237 2.71792 0
M  V30 11725 C 1086.56 6.11351 2.67967 0
M  V30 11726 H 1085.83 0.425526 0.606637 0
M  V30 11727 H 1088.47 1.59646 1.05762 0
M  V30 11728 H 1086.78 1.40474 3.65752 0
M  V30 11729 H 1088.48 1.78992 3.58835 0
M  V30 11730 H 1085.07 3.08561 2.97469 0
M  V30 11731 H 1089.25 4.05909 2.85573 0
M  V30 11732 H 1084.51 5.4673 2.73672 0
M  V30 11733 H 1088.68 6.44872 2.62892 0
M  V30 11734 H 1086.31 7.15637 2.56451 0
M  V30 11735 N 1087.88 -1.11734 1.11145 0
M  V30 11736 C 1088.81 -2.1976 0.789152 0
M  V30 11737 C 1089.79 -1.68382 -0.241143 0
M  V30 11738 O 1090.98 -1.93914 -0.105292 0
M  V30 11739 C 1088.11 -3.46549 0.228204 0
M  V30 11740 C 1087.06 -4.11123 1.19002 0
M  V30 11741 C 1086.39 -5.32451 0.489928 0
M  V30 11742 C 1087.69 -4.56406 2.53951 0
M  V30 11743 H 1089.38 -2.46978 1.69241 0
M  V30 11744 H 1086.93 -1.18705 0.81517 0
M  V30 11745 H 1088.88 -4.21399 -0.00945908 0
M  V30 11746 H 1087.6 -3.18782 -0.71033 0
M  V30 11747 H 1086.26 -3.38264 1.41326 0
M  V30 11748 H 1085.91 -5.00953 -0.453315 0
M  V30 11749 H 1085.61 -5.76605 1.1314 0
M  V30 11750 H 1087.14 -6.10042 0.260984 0
M  V30 11751 H 1088.55 -5.22592 2.35733 0
M  V30 11752 H 1086.95 -5.11363 3.14051 0
M  V30 11753 H 1088.02 -3.7001 3.13402 0
M  V30 11754 N 1089.36 -0.901303 -1.29284 0
M  V30 11755 C 1090.32 -0.385081 -2.25942 0
M  V30 11756 C 1091.32 0.481626 -1.53418 0
M  V30 11757 O 1092.51 0.286451 -1.71829 0
M  V30 11758 C 1089.64 0.449319 -3.37926 0
M  V30 11759 H 1090.84 -1.23877 -2.7312 0
M  V30 11760 H 1088.39 -0.679586 -1.40753 0
M  V30 11761 H 1089.13 1.32292 -2.9609 0
M  V30 11762 H 1088.91 -0.171731 -3.91724 0
M  V30 11763 H 1090.4 0.801746 -4.09831 0
M  V30 11764 N 1090.84 1.42931 -0.663954 0
M  V30 11765 C 1092.06 2.06544 -0.188201 0
M  V30 11766 C 1092.49 1.495 1.14155 0
M  V30 11767 O 1091.85 0.609164 1.7076 0
M  V30 11768 C 1091.89 3.60393 -0.122105 0
M  V30 11769 O 1091 4.02176 0.91258 0
M  V30 11770 H 1090.34 0.656458 -0.0997967 0
M  V30 11771 H 1092.87 1.83253 -0.909909 0
M  V30 11772 H 1092.88 4.07959 0.0576568 0
M  V30 11773 H 1091.55 4.01287 -1.09276 0
M  V30 11774 H 1090.13 3.6618 0.704738 0
M  V30 11775 N 1092.32 0.406567 1.52266 0
M  V30 11776 C 1093.56 -0.170305 2.02084 0
M  V30 11777 C 1093.89 -1.45008 1.29176 0
M  V30 11778 O 1093.17 -1.90399 0.39731 0
M  V30 11779 C 1093.45 -0.420627 3.57635 0
M  V30 11780 C 1093.31 0.87564 4.41194 0
M  V30 11781 C 1094.62 -1.20387 4.23314 0
M  V30 11782 H 1091.74 -0.0604219 0.734519 0
M  V30 11783 H 1094.39 0.539529 1.82179 0
M  V30 11784 H 1092.54 -1.0253 3.74726 0
M  V30 11785 H 1094.21 1.51192 4.35819 0
M  V30 11786 H 1092.45 1.48718 4.07511 0
M  V30 11787 H 1093.12 0.654916 5.48101 0
M  V30 11788 H 1095.6 -0.691972 4.10306 0
M  V30 11789 H 1094.47 -1.34776 5.32096 0
M  V30 11790 H 1094.73 -2.2238 3.82099 0
M  V30 11791 N 1093.79 -1.57004 0.136909 0
M  V30 11792 C 1095.02 -2.00156 -0.523936 0
M  V30 11793 C 1095.44 -1.01688 -1.59075 0
M  V30 11794 O 1094.79 -0.0123678 -1.82496 0
M  V30 11795 C 1094.85 -3.4326 -1.13379 0
M  V30 11796 O 1094.57 -4.37963 -0.109598 0
M  V30 11797 C 1096.07 -4.01637 -1.87623 0
M  V30 11798 H 1093.29 -0.65681 -0.137263 0
M  V30 11799 H 1095.83 -2.03219 0.228522 0
M  V30 11800 H 1093.99 -3.4108 -1.83693 0
M  V30 11801 H 1094.4 -5.21555 -0.55503 0
M  V30 11802 H 1095.87 -5.03795 -2.25597 0
M  V30 11803 H 1096.35 -3.41781 -2.75831 0
M  V30 11804 H 1096.96 -4.07417 -1.22031 0
M  V30 11805 N 1095.27 0.136881 -1.57004 0
M  V30 11806 C 1096.22 1.16869 -1.99023 0
M  V30 11807 C 1097.19 1.42137 -0.859435 0
M  V30 11808 O 1098.37 1.54303 -1.12229 0
M  V30 11809 C 1095.51 2.49466 -2.38455 0
M  V30 11810 C 1094.63 2.31286 -3.64871 0
M  V30 11811 C 1093.76 3.56989 -3.9336 0
M  V30 11812 C 1092.8 3.33889 -5.13015 0
M  V30 11813 N 1091.94 4.51748 -5.37464 0
M  V30 11814 H 1096.78 0.803366 -2.86967 0
M  V30 11815 H 1094.32 0.385216 -1.41967 0
M  V30 11816 H 1096.27 3.26794 -2.59348 0
M  V30 11817 H 1094.9 2.83926 -1.53577 0
M  V30 11818 H 1093.96 1.44962 -3.51696 0
M  V30 11819 H 1095.27 2.10183 -4.52355 0
M  V30 11820 H 1094.42 4.42742 -4.14806 0
M  V30 11821 H 1093.16 3.81106 -3.04318 0
M  V30 11822 H 1092.17 2.46525 -4.91432 0
M  V30 11823 H 1093.39 3.1116 -6.03619 0
M  V30 11824 H 1091.34 4.76019 -4.51377 0
M  V30 11825 H 1091.25 4.33684 -6.19237 0
M  V30 11826 H 1092.52 5.38686 -5.63416 0
M  V30 11827 N 1096.75 1.52266 0.40654 0
M  V30 11828 C 1098.03 1.57018 1.1664 0
M  V30 11829 C 1098.41 0.352752 2.08132 0
M  V30 11830 O 1097.76 -0.660208 2.18754 0
M  V30 11831 C 1097.97 2.90016 1.94143 0
M  V30 11832 C 1099.31 3.43112 2.50119 0
M  V30 11833 O 1100.34 2.91773 2.0432 0
M  V30 11834 O 1099.2 4.32765 3.33731 0
M  V30 11835 H 1096.29 0.632574 0.532709 0
M  V30 11836 H 1098.84 1.64595 0.413111 0
M  V30 11837 H 1097.61 3.70071 1.27134 0
M  V30 11838 H 1097.23 2.85744 2.76471 0
M  V30 11839 N 1098.23 -0.663929 1.42933 0
M  V30 11840 C 1099.46 -1.45192 1.474 0
M  V30 11841 C 1099.87 -1.88592 0.0886014 0
M  V30 11842 O 1099.23 -1.58824 -0.898962 0
M  V30 11843 C 1099.28 -2.69394 2.41059 0
M  V30 11844 O 1099 -2.27812 3.7421 0
M  V30 11845 C 1100.5 -3.62855 2.54659 0
M  V30 11846 H 1097.72 -0.446394 0.500973 0
M  V30 11847 H 1100.27 -0.814875 1.87563 0
M  V30 11848 H 1098.42 -3.29262 2.0412 0
M  V30 11849 H 1098.83 -3.08095 4.24474 0
M  V30 11850 H 1100.31 -4.46698 3.24291 0
M  V30 11851 H 1100.79 -4.09487 1.58799 0
M  V30 11852 H 1101.39 -3.08874 2.92364 0
M  V30 11853 N 1099.71 -1.29285 -0.901281 0
M  V30 11854 C 1100.67 -1.14283 -1.98676 0
M  V30 11855 C 1101.67 -0.0787641 -1.60607 0
M  V30 11856 O 1102.86 -0.325574 -1.71131 0
M  V30 11857 C 1099.99 -0.747279 -3.32609 0
M  V30 11858 H 1101.18 -2.10701 -2.13413 0
M  V30 11859 H 1098.74 -1.12449 -1.08558 0
M  V30 11860 H 1099.47 0.217111 -3.23572 0
M  V30 11861 H 1099.26 -1.51608 -3.61604 0
M  V30 11862 H 1100.75 -0.665322 -4.12266 0
M  V30 11863 N 1101.18 1.11143 -1.11736 0
M  V30 11864 C 1102.41 1.87285 -0.891007 0
M  V30 11865 C 1102.83 1.79758 0.553971 0
M  V30 11866 O 1102.19 1.16221 1.39149 0
M  V30 11867 C 1102.24 3.33924 -1.36114 0
M  V30 11868 O 1101.34 4.08917 -0.534851 0
M  V30 11869 H 1100.69 0.581418 -0.320701 0
M  V30 11870 H 1103.22 1.40469 -1.4876 0
M  V30 11871 H 1103.23 3.84772 -1.35701 0
M  V30 11872 H 1101.9 3.38719 -2.41334 0
M  V30 11873 H 1100.48 3.67954 -0.605355 0
M  V30 11874 N 1102.66 0.908147 1.28804 0
M  V30 11875 C 1103.94 0.457561 1.90173 0
M  V30 11876 C 1104.32 -1.06333 1.82364 0
M  V30 11877 O 1103.67 -1.90892 1.25589 0
M  V30 11878 C 1103.88 0.981624 3.34911 0
M  V30 11879 C 1105.23 1.03037 4.11908 0
M  V30 11880 O 1106.25 0.929878 3.43848 0
M  V30 11881 O 1105.11 1.18257 5.33552 0
M  V30 11882 H 1102.2 0.144081 0.814352 0
M  V30 11883 H 1104.75 0.998565 1.37211 0
M  V30 11884 H 1103.52 2.02561 3.34791 0
M  V30 11885 H 1103.14 0.421122 3.95364 0
M  V30 11886 N 1104.14 -1.42577 0.671525 0
M  V30 11887 C 1105.37 -2.06442 0.199152 0
M  V30 11888 C 1105.79 -1.50104 -1.1336 0
M  V30 11889 O 1105.15 -0.618211 -1.70434 0
M  V30 11890 C 1105.2 -3.60323 0.141215 0
M  V30 11891 O 1104.3 -4.02655 -0.891238 0
M  V30 11892 H 1103.64 -0.655919 0.103277 0
M  V30 11893 H 1106.17 -1.82768 0.919614 0
M  V30 11894 H 1106.18 -4.07984 -0.0360209 0
M  V30 11895 H 1104.86 -4.00702 1.11403 0
M  V30 11896 H 1103.43 -3.66549 -0.685309 0
M  V30 11897 N 1105.62 -0.414636 -1.52048 0
M  V30 11898 C 1107.03 0.0537107 -1.86623 0
M  V30 11899 C 1107.38 1.43955 -1.3331 0
M  V30 11900 O 1106.51 2.05616 -0.674606 0
M  V30 11901 C 1107.1 0.104241 -3.3864 0
M  V30 11902 C 1105.66 0.516936 -3.72833 0
M  V30 11903 C 1104.81 -0.305042 -2.75617 0
M  V30 11904 H 1107.76 -0.631469 -1.45596 0
M  V30 11905 H 1107.78 0.918395 -3.6925 0
M  V30 11906 H 1107.29 -0.904523 -3.77412 0
M  V30 11907 H 1105.39 1.53214 -3.39641 0
M  V30 11908 H 1105.5 0.2575 -4.78408 0
M  V30 11909 H 1103.87 0.233416 -2.53628 0
M  V30 11910 H 1104.65 -1.31226 -3.1723 0
M  V30 11911 N 1107.1 1.56929 -0.145233 0
M  V30 11912 C 1108.06 2.15483 0.781002 0
M  V30 11913 C 1109.06 1.09617 1.17647 0
M  V30 11914 O 1110.25 1.35265 1.09768 0
M  V30 11915 C 1107.38 2.7165 2.05959 0
M  V30 11916 H 1108.57 2.98667 0.271685 0
M  V30 11917 H 1106.13 1.55952 0.1042 0
M  V30 11918 H 1106.86 1.92127 2.61262 0
M  V30 11919 H 1106.65 3.491 1.78526 0
M  V30 11920 H 1108.14 3.16769 2.72116 0
M  V30 11921 N 1108.58 -0.128553 1.57075 0
M  V30 11922 C 1109.82 -0.836355 1.83982 0
M  V30 11923 C 1110.14 -1.80862 0.728971 0
M  V30 11924 O 1109.41 -1.94326 -0.247859 0
M  V30 11925 H 1107.99 -0.31185 0.678792 0
M  V30 11926 H 1110.66 -0.118153 1.94542 0
M  V30 11927 H 1109.75 -1.38741 2.79567 0
M  V30 11928 N 1110.05 -1.5248 -0.398459 0
M  V30 11929 C 1111.3 -1.66287 -1.14155 0
M  V30 11930 C 1111.62 -0.40429 -1.91376 0
M  V30 11931 O 1112.82 -0.422341 -2.68195 0
M  V30 11932 C 1111.28 -2.93831 -2.07825 0
M  V30 11933 C 1110.89 -4.26836 -1.3607 0
M  V30 11934 C 1112.63 -3.17004 -2.82327 0
M  V30 11935 C 1110.54 -5.45495 -2.28451 0
M  V30 11936 H 1109.47 -0.619478 -0.42984 0
M  V30 11937 H 1112.12 -1.78972 -0.405112 0
M  V30 11938 H 1110.5 -2.7487 -2.85065 0
M  V30 11939 H 1111.67 -4.56317 -0.641205 0
M  V30 11940 H 1109.99 -4.0985 -0.735659 0
M  V30 11941 H 1112.59 -4.02834 -3.51609 0
M  V30 11942 H 1112.93 -2.3168 -3.45876 0
M  V30 11943 H 1113.46 -3.36487 -2.12183 0
M  V30 11944 H 1110.2 -6.33198 -1.69532 0
M  V30 11945 H 1109.72 -5.20338 -2.98343 0
M  V30 11946 H 1111.4 -5.78996 -2.88743 0
M  V30 11947 N 1111.53 0.65634 -1.43283 0
M  V30 11948 C 1112.81 1.41339 -1.35213 0
M  V30 11949 C 1113.19 2.111 0.00158494 0
M  V30 11950 O 1112.54 2.0457 1.018 0
M  V30 11951 C 1112.75 2.40066 -2.53317 0
M  V30 11952 C 1114.09 3.04159 -2.96264 0
M  V30 11953 O 1115.12 2.50393 -2.53341 0
M  V30 11954 O 1113.98 4.01633 -3.70612 0
M  V30 11955 H 1111.07 0.631325 -0.534189 0
M  V30 11956 H 1113.62 0.68351 -1.55326 0
M  V30 11957 H 1112.39 1.87444 -3.43483 0
M  V30 11958 H 1112.01 3.20509 -2.35287 0
M  V30 11959 N 1113.01 1.29761 0.894412 0
M  V30 11960 C 1113.96 1.15232 2.0205 0
M  V30 11961 C 1114.95 0.0665664 1.69269 0
M  V30 11962 O 1116.16 0.226746 1.78566 0
M  V30 11963 H 1112.53 0.356102 0.662341 0
M  V30 11964 H 1114.5 2.10559 2.11442 0
M  V30 11965 C 1113.25 0.851143 3.37121 0
M  V30 11966 H 1112.58 1.67865 3.62852 0
M  V30 11967 H 1114.02 0.78954 4.16584 0
M  V30 11968 C 1112.47 -0.445737 3.33938 0
M  V30 11969 O 1113 -1.47017 3.7383 0
M  V30 11970 N 1111.21 -0.453493 2.8704 0
M  V30 11971 H 1110.76 0.380636 2.54772 0
M  V30 11972 H 1110.72 -1.32119 2.85293 0
M  V30 11973 N 1114.49 -1.10549 1.12324 0
M  V30 11974 C 1115.9 -1.63991 0.892402 0
M  V30 11975 C 1116.25 -1.87631 -0.573506 0
M  V30 11976 O 1115.37 -1.6174 -1.43768 0
M  V30 11977 C 1115.97 -2.97914 1.61347 0
M  V30 11978 C 1114.53 -3.48227 1.42881 0
M  V30 11979 C 1113.68 -2.22857 1.65015 0
M  V30 11980 H 1116.63 -0.94065 1.27818 0
M  V30 11981 H 1116.65 -3.65326 1.06382 0
M  V30 11982 H 1116.16 -2.80677 2.68034 0
M  V30 11983 H 1114.26 -3.70611 0.384441 0
M  V30 11984 H 1114.37 -4.26419 2.18413 0
M  V30 11985 H 1112.74 -2.30941 1.07417 0
M  V30 11986 H 1113.52 -2.08152 2.72997 0
M  V30 11987 N 1115.97 -0.914965 -1.28321 0
M  V30 11988 C 1117.21 -0.549562 -1.95212 0
M  V30 11989 C 1117.54 0.904658 -1.71842 0
M  V30 11990 O 1116.82 1.64354 -1.04009 0
M  V30 11991 C 1117.1 -0.860927 -3.49657 0
M  V30 11992 C 1116.96 -2.36797 -3.82423 0
M  V30 11993 C 1118.27 -0.357926 -4.38642 0
M  V30 11994 H 1115.39 -0.201136 -0.709023 0
M  V30 11995 H 1118.04 -1.14443 -1.51667 0
M  V30 11996 H 1116.19 -0.354665 -3.86878 0
M  V30 11997 H 1117.86 -2.94494 -3.55065 0
M  V30 11998 H 1116.1 -2.82245 -3.29424 0
M  V30 11999 H 1116.77 -2.53637 -4.90278 0
M  V30 12000 H 1119.25 -0.791636 -4.085 0
M  V30 12001 H 1118.12 -0.604855 -5.45557 0
M  V30 12002 H 1118.38 0.741775 -4.35833 0
M  V30 12003 N 1117.44 1.42219 -0.679077 0
M  V30 12004 C 1118.69 2.01479 -0.203119 0
M  V30 12005 C 1119.02 1.5371 1.19178 0
M  V30 12006 O 1118.27 0.731832 1.81501 0
M  V30 12007 C 1118.57 3.56889 -0.191027 0
M  V30 12008 C 1118.24 4.24106 -1.53118 0
M  V30 12009 C 1116.9 4.42182 -1.89812 0
M  V30 12010 C 1119.25 4.61946 -2.41361 0
M  V30 12011 C 1116.58 4.95371 -3.14364 0
M  V30 12012 C 1118.93 5.16518 -3.65229 0
M  V30 12013 C 1117.6 5.32807 -4.02086 0
M  V30 12014 H 1116.87 0.737263 -0.0743264 0
M  V30 12015 H 1119.51 1.70346 -0.874908 0
M  V30 12016 H 1117.82 3.87715 0.564282 0
M  V30 12017 H 1119.52 4.00528 0.194511 0
M  V30 12018 H 1116.11 4.10399 -1.23575 0
M  V30 12019 H 1120.29 4.4765 -2.14297 0
M  V30 12020 H 1115.55 5.06167 -3.42935 0
M  V30 12021 H 1119.72 5.44782 -4.33804 0
M  V30 12022 H 1117.35 5.73785 -4.98673 0
M  V30 12023 N 1118.92 0.422693 1.51826 0
M  V30 12024 C 1120.15 -0.15017 2.06856 0
M  V30 12025 C 1120.57 -1.36946 1.28948 0
M  V30 12026 O 1119.93 -1.78393 0.32338 0
M  V30 12027 C 1119.98 -0.465563 3.57582 0
M  V30 12028 O 1119.08 -1.55442 3.81984 0
M  V30 12029 H 1118.42 -0.00827931 0.663948 0
M  V30 12030 H 1120.95 0.599806 1.95611 0
M  V30 12031 H 1120.96 -0.720279 4.01592 0
M  V30 12032 H 1119.64 0.425679 4.13716 0
M  V30 12033 H 1118.21 -1.29081 3.49846 0
M  V30 12034 N 1120.4 -1.5685 0.153553 0
M  V30 12035 C 1121.81 -1.83074 -0.36618 0
M  V30 12036 C 1122.16 -1.07257 -1.64288 0
M  V30 12037 O 1121.29 -0.319925 -2.14022 0
M  V30 12038 C 1121.88 -3.32086 -0.671142 0
M  V30 12039 C 1120.44 -3.58868 -1.13537 0
M  V30 12040 C 1119.59 -2.76827 -0.161887 0
M  V30 12041 H 1122.54 -1.54129 0.378139 0
M  V30 12042 H 1122.56 -3.48598 -1.52512 0
M  V30 12043 H 1122.07 -3.8724 0.258234 0
M  V30 12044 H 1120.17 -3.09107 -2.08047 0
M  V30 12045 H 1120.29 -4.67299 -1.05682 0
M  V30 12046 H 1118.65 -2.46112 -0.6558 0
M  V30 12047 H 1119.43 -3.34755 0.761195 0
M  V30 12048 N 1121.88 0.120221 -1.57141 0
M  V30 12049 C 1123.15 0.858458 -1.75755 0
M  V30 12050 C 1123.53 1.98124 -0.728693 0
M  V30 12051 O 1122.88 2.27155 0.247573 0
M  V30 12052 C 1123.09 1.37627 -3.20718 0
M  V30 12053 C 1124.44 1.82909 -3.83183 0
M  V30 12054 O 1125.46 1.47309 -3.24312 0
M  V30 12055 O 1124.32 2.4865 -4.86657 0
M  V30 12056 H 1121.42 0.407583 -0.719587 0
M  V30 12057 H 1123.96 0.104057 -1.69381 0
M  V30 12058 H 1122.74 0.570651 -3.87117 0
M  V30 12059 H 1122.36 2.19341 -3.31625 0
M  V30 12060 N 1123.36 1.52689 0.390367 0
M  V30 12061 C 1124.27 1.8029 1.50108 0
M  V30 12062 C 1125.28 0.689582 1.59752 0
M  V30 12063 O 1126.46 0.977024 1.76114 0
M  V30 12064 C 1123.52 1.96475 2.85654 0
M  V30 12065 C 1122.58 3.2039 2.85743 0
M  V30 12066 C 1121.82 3.35793 4.14824 0
M  V30 12067 O 1122.04 2.56033 5.09709 0
M  V30 12068 O 1120.97 4.2904 4.22147 0
M  V30 12069 H 1124.8 2.74605 1.29715 0
M  V30 12070 H 1122.39 1.37763 0.578074 0
M  V30 12071 H 1124.27 2.08835 3.66013 0
M  V30 12072 H 1122.94 1.05351 3.06077 0
M  V30 12073 H 1121.85 3.13473 2.0417 0
M  V30 12074 H 1123.18 4.11356 2.70272 0
M  V30 12075 N 1124.83 -0.648732 1.43629 0
M  V30 12076 C 1125.8 -1.74331 1.488 0
M  V30 12077 C 1126.8 -1.56434 0.372147 0
M  V30 12078 O 1127.99 -1.6225 0.634078 0
M  V30 12079 C 1125.12 -3.13248 1.34494 0
M  V30 12080 H 1126.31 -1.71125 2.46285 0
M  V30 12081 H 1123.87 -0.860798 1.30461 0
M  V30 12082 H 1124.6 -3.22062 0.380345 0
M  V30 12083 H 1124.39 -3.27643 2.15389 0
M  V30 12084 H 1125.88 -3.93056 1.41055 0
M  V30 12085 N 1126.31 -1.30234 -0.887518 0
M  V30 12086 C 1127.24 -1.18969 -2.00919 0
M  V30 12087 C 1128.22 -0.080952 -1.69907 0
M  V30 12088 O 1129.41 -0.262546 -1.92417 0
M  V30 12089 C 1126.54 -0.878094 -3.36016 0
M  V30 12090 C 1125.49 -1.94449 -3.81279 0
M  V30 12091 C 1124.82 -1.48594 -5.13638 0
M  V30 12092 C 1126.12 -3.35519 -4.00281 0
M  V30 12093 H 1127.81 -2.12808 -2.10602 0
M  V30 12094 H 1125.36 -1.02454 -1.01189 0
M  V30 12095 H 1127.31 -0.785954 -4.14006 0
M  V30 12096 H 1126.04 0.0959779 -3.26459 0
M  V30 12097 H 1124.69 -2.02622 -3.05516 0
M  V30 12098 H 1124.34 -0.500204 -5.00507 0
M  V30 12099 H 1124.04 -2.19921 -5.44893 0
M  V30 12100 H 1125.57 -1.40754 -5.94156 0
M  V30 12101 H 1126.98 -3.30119 -4.68716 0
M  V30 12102 H 1125.38 -4.0491 -4.42909 0
M  V30 12103 H 1126.45 -3.77597 -3.04218 0
M  V30 12104 N 1127.79 1.09952 -1.12909 0
M  V30 12105 C 1129.07 1.78547 -0.798767 0
M  V30 12106 C 1129.45 1.9878 0.710624 0
M  V30 12107 O 1128.8 1.58485 1.64604 0
M  V30 12108 C 1129.01 3.1121 -1.57953 0
M  V30 12109 C 1130.35 3.86006 -1.76874 0
M  V30 12110 O 1131.38 3.20946 -1.54506 0
M  V30 12111 O 1130.24 5.02791 -2.14158 0
M  V30 12112 H 1127.33 0.774084 -0.291072 0
M  V30 12113 H 1129.88 1.16557 -1.2334 0
M  V30 12114 H 1128.65 2.91935 -2.60557 0
M  V30 12115 H 1128.27 3.80922 -1.13948 0
M  V30 12116 N 1129.27 0.921757 1.27833 0
M  V30 12117 C 1130.68 0.621102 1.47019 0
M  V30 12118 C 1130.88 -0.831338 1.83551 0
M  V30 12119 O 1129.94 -1.60974 1.94534 0
M  V30 12120 C 1131.25 1.56588 2.56712 0
M  V30 12121 C 1132.8 1.57346 2.70576 0
M  V30 12122 C 1133.28 2.50505 3.8342 0
M  V30 12123 N 1134.77 2.48678 3.90786 0
M  V30 12124 C 1135.5 3.17454 4.77505 0
M  V30 12125 N 1135 3.95588 5.68755 0
M  V30 12126 N 1136.79 3.06501 4.71183 0
M  V30 12127 H 1128.94 1.86085 1.02403 0
M  V30 12128 H 1131.21 0.798595 0.510833 0
M  V30 12129 H 1130.91 2.60175 2.36647 0
M  V30 12130 H 1130.79 1.30305 3.53978 0
M  V30 12131 H 1133.17 0.544919 2.90025 0
M  V30 12132 H 1133.25 1.87675 1.73815 0
M  V30 12133 H 1132.9 3.53466 3.64725 0
M  V30 12134 H 1132.83 2.17474 4.79596 0
M  V30 12135 H 1135.32 1.91928 3.25534 0
M  V30 12136 H 1135.63 4.45066 6.31772 0
M  V30 12137 H 1133.98 3.99692 5.6857 0
M  V30 12138 H 1137.17 2.44958 3.9889 0
M  V30 12139 H 1137.34 3.60372 5.3855 0
M  V30 12140 N 1130.75 -1.41857 0.686609 0
M  V30 12141 C 1131.97 -2.06219 0.221037 0
M  V30 12142 C 1132.4 -1.51298 -1.11762 0
M  V30 12143 O 1131.75 -0.636253 -1.69769 0
M  V30 12144 C 1131.8 -3.60153 0.179425 0
M  V30 12145 O 1130.91 -4.03577 -0.848481 0
M  V30 12146 H 1130.25 -0.654787 0.110228 0
M  V30 12147 H 1132.78 -1.81783 0.938948 0
M  V30 12148 H 1132.79 -4.07999 0.00725332 0
M  V30 12149 H 1131.46 -3.99498 1.15647 0
M  V30 12150 H 1130.04 -3.67255 -0.646393 0
M  V30 12151 N 1132.22 -0.430739 -1.51599 0
M  V30 12152 C 1133.15 0.374695 -2.30474 0
M  V30 12153 C 1134.14 1.02694 -1.35602 0
M  V30 12154 O 1135.32 1.03184 -1.6452 0
M  V30 12155 C 1132.45 1.47981 -3.14196 0
M  V30 12156 C 1131.4 0.951415 -4.17291 0
M  V30 12157 C 1130.73 2.15177 -4.89492 0
M  V30 12158 C 1132.03 -0.00957951 -5.22299 0
M  V30 12159 H 1133.72 -0.283508 -2.98055 0
M  V30 12160 H 1131.27 -0.13779 -1.43339 0
M  V30 12161 H 1133.22 2.05043 -3.68151 0
M  V30 12162 H 1131.95 2.16621 -2.44424 0
M  V30 12163 H 1130.61 0.403052 -3.64378 0
M  V30 12164 H 1130.25 2.82421 -4.1623 0
M  V30 12165 H 1129.95 1.80464 -5.59202 0
M  V30 12166 H 1131.48 2.72806 -5.46269 0
M  V30 12167 H 1132.89 0.470527 -5.71366 0
M  V30 12168 H 1131.29 -0.268959 -5.99497 0
M  V30 12169 H 1132.36 -0.948297 -4.75537 0
M  V30 12170 N 1133.7 1.56767 -0.161869 0
M  V30 12171 C 1134.63 2.20511 0.767918 0
M  V30 12172 C 1135.61 1.15783 1.24612 0
M  V30 12173 O 1136.8 1.44179 1.301 0
M  V30 12174 C 1133.93 2.83844 2.00125 0
M  V30 12175 C 1132.88 3.94528 1.65926 0
M  V30 12176 C 1132.21 4.44866 2.96646 0
M  V30 12177 C 1133.51 5.14583 0.894497 0
M  V30 12178 H 1135.2 2.98464 0.236607 0
M  V30 12179 H 1132.75 1.43561 0.112363 0
M  V30 12180 H 1134.7 3.27109 2.65664 0
M  V30 12181 H 1133.43 2.03246 2.55654 0
M  V30 12182 H 1132.08 3.51904 1.02759 0
M  V30 12183 H 1131.73 3.61071 3.50196 0
M  V30 12184 H 1131.43 5.19531 2.74521 0
M  V30 12185 H 1132.96 4.90812 3.6323 0
M  V30 12186 H 1134.37 5.54601 1.45228 0
M  V30 12187 H 1132.77 5.95105 0.772636 0
M  V30 12188 H 1133.84 4.84773 -0.110986 0
M  V30 12189 N 1135.18 -0.111886 1.57202 0
M  V30 12190 C 1136.14 -1.12101 1.99915 0
M  V30 12191 C 1137.14 -1.33906 0.890272 0
M  V30 12192 O 1138.33 -1.30303 1.15615 0
M  V30 12193 C 1135.47 -2.47392 2.34543 0
M  V30 12194 H 1136.66 -0.753736 2.90274 0
M  V30 12195 H 1134.21 -0.35641 1.52182 0
M  V30 12196 H 1134.95 -2.89026 1.47086 0
M  V30 12197 H 1134.73 -2.32917 3.15423 0
M  V30 12198 H 1136.22 -3.20004 2.68304 0
M  V30 12199 N 1136.66 -1.52894 -0.382264 0
M  V30 12200 C 1138.07 -1.42295 -0.722802 0
M  V30 12201 C 1138.27 -0.548717 -1.93885 0
M  V30 12202 O 1137.33 -0.0247431 -2.52488 0
M  V30 12203 C 1138.64 -2.85246 -0.9516 0
M  V30 12204 C 1140.19 -2.94768 -1.05265 0
M  V30 12205 C 1140.67 -4.38745 -1.31404 0
M  V30 12206 N 1142.16 -4.421 -1.38211 0
M  V30 12207 C 1142.89 -5.50592 -1.60113 0
M  V30 12208 N 1142.39 -6.69158 -1.79442 0
M  V30 12209 N 1144.18 -5.38145 -1.62347 0
M  V30 12210 H 1136.33 -2.0825 0.417816 0
M  V30 12211 H 1138.6 -0.939753 0.124776 0
M  V30 12212 H 1138.3 -3.51459 -0.130088 0
M  V30 12213 H 1138.18 -3.27903 -1.86439 0
M  V30 12214 H 1140.56 -2.28718 -1.86472 0
M  V30 12215 H 1140.64 -2.55529 -0.117619 0
M  V30 12216 H 1140.29 -5.05363 -0.507038 0
M  V30 12217 H 1140.22 -4.75542 -2.26202 0
M  V30 12218 H 1142.71 -3.56644 -1.24954 0
M  V30 12219 H 1143.02 -7.47615 -1.95681 0
M  V30 12220 H 1141.37 -6.72175 -1.76653 0
M  V30 12221 H 1144.56 -4.44485 -1.46803 0
M  V30 12222 H 1144.73 -6.22764 -1.79077 0
M  V30 12223 N 1138.14 0.641106 -1.43971 0
M  V30 12224 C 1139.07 1.76489 -1.52885 0
M  V30 12225 C 1140.05 1.65742 -0.38258 0
M  V30 12226 O 1141.23 1.84653 -0.601397 0
M  V30 12227 C 1138.36 3.14977 -1.4631 0
M  V30 12228 C 1137.32 3.40502 -2.59311 0
M  V30 12229 C 1136.64 4.78916 -2.37789 0
M  V30 12230 C 1137.94 3.34048 -4.01509 0
M  V30 12231 H 1139.64 1.69286 -2.46946 0
M  V30 12232 H 1137.18 0.813015 -1.18853 0
M  V30 12233 H 1139.14 3.9336 -1.51149 0
M  V30 12234 H 1137.86 3.2294 -0.487599 0
M  V30 12235 H 1136.52 2.64495 -2.53846 0
M  V30 12236 H 1136.17 4.8357 -1.38454 0
M  V30 12237 H 1135.87 4.96954 -3.13545 0
M  V30 12238 H 1137.39 5.59541 -2.4443 0
M  V30 12239 H 1138.81 4.0235 -4.08396 0
M  V30 12240 H 1137.2 3.63622 -4.77388 0
M  V30 12241 H 1138.27 2.32022 -4.25786 0
M  V30 12242 N 1139.62 1.30703 0.880598 0
M  V30 12243 C 1141.03 1.17818 1.4483 0
M  V30 12244 C 1141.38 -0.219456 1.94969 0
M  V30 12245 O 1140.5 -1.11646 1.85375 0
M  V30 12246 C 1141.1 2.13275 2.63247 0
M  V30 12247 C 1139.66 2.04356 3.16094 0
M  V30 12248 C 1138.8 2.03108 1.88792 0
M  V30 12249 H 1141.75 1.42909 0.690125 0
M  V30 12250 H 1141.78 1.71615 3.39601 0
M  V30 12251 H 1141.29 3.14988 2.26725 0
M  V30 12252 H 1139.39 1.058 3.57263 0
M  V30 12253 H 1139.5 2.92953 3.79098 0
M  V30 12254 H 1137.87 1.47971 2.07308 0
M  V30 12255 H 1138.65 3.06558 1.54521 0
M  V30 12256 N 1141.09 -1.09351 1.1349 0
M  V30 12257 C 1142.5 -1.63035 0.909746 0
M  V30 12258 C 1142.86 -1.88229 -0.553573 0
M  V30 12259 O 1141.98 -1.63256 -1.42044 0
M  V30 12260 C 1142.58 -2.96186 1.64497 0
M  V30 12261 C 1141.13 -3.46692 1.46566 0
M  V30 12262 C 1140.28 -2.21095 1.67369 0
M  V30 12263 H 1143.23 -0.92704 1.28809 0
M  V30 12264 H 1143.25 -3.64177 1.10251 0
M  V30 12265 H 1142.77 -2.77818 2.70996 0
M  V30 12266 H 1140.87 -3.70183 0.423728 0
M  V30 12267 H 1140.98 -4.24078 2.22923 0
M  V30 12268 H 1139.34 -2.29789 1.0986 0
M  V30 12269 H 1140.13 -2.05245 2.7519 0
M  V30 12270 N 1142.57 -0.928524 -1.27343 0
M  V30 12271 C 1143.82 -0.579726 -1.94963 0
M  V30 12272 C 1144.17 0.869595 -1.71627 0
M  V30 12273 O 1143.47 1.61223 -1.03526 0
M  V30 12274 C 1143.66 -0.84269 -3.47323 0
M  V30 12275 C 1143.49 -2.31602 -3.85474 0
M  V30 12276 C 1142.26 -2.96888 -4.08884 0
M  V30 12277 C 1144.46 -3.2936 -3.95002 0
M  V30 12278 N 1142.44 -4.34365 -4.33821 0
M  V30 12279 C 1143.81 -4.5205 -4.24324 0
M  V30 12280 C 1145.86 -3.24557 -3.7758 0
M  V30 12281 C 1144.57 -5.70539 -4.38038 0
M  V30 12282 C 1146.59 -4.4236 -3.9252 0
M  V30 12283 C 1145.96 -5.63828 -4.22229 0
M  V30 12284 H 1142.05 -0.262279 -0.736705 0
M  V30 12285 H 1144.64 -1.19531 -1.53689 0
M  V30 12286 H 1142.81 -0.256254 -3.87554 0
M  V30 12287 H 1144.54 -0.456438 -4.02118 0
M  V30 12288 H 1141.3 -2.47555 -4.03749 0
M  V30 12289 H 1141.72 -5.05488 -4.50345 0
M  V30 12290 H 1146.36 -2.31713 -3.53651 0
M  V30 12291 H 1144.08 -6.63849 -4.60793 0
M  V30 12292 H 1147.67 -4.40162 -3.80458 0
M  V30 12293 H 1146.55 -6.53463 -4.33539 0
M  V30 12294 N 1144.05 1.41491 -0.694123 0
M  V30 12295 C 1144.98 2.33462 -0.0422169 0
M  V30 12296 C 1145.96 1.51739 0.76872 0
M  V30 12297 O 1147.15 1.8028 0.721985 0
M  V30 12298 C 1144.28 3.35545 0.895925 0
M  V30 12299 C 1143.23 4.27568 0.192188 0
M  V30 12300 C 1142.56 5.20014 1.24459 0
M  V30 12301 C 1143.86 5.1376 -0.940626 0
M  V30 12302 H 1145.55 2.88225 -0.810363 0
M  V30 12303 H 1143.1 1.38586 -0.39114 0
M  V30 12304 H 1145.05 3.9881 1.36121 0
M  V30 12305 H 1143.77 2.79129 1.69572 0
M  V30 12306 H 1142.43 3.65726 -0.25305 0
M  V30 12307 H 1142.08 4.59913 2.03687 0
M  V30 12308 H 1141.78 5.82417 0.778734 0
M  V30 12309 H 1143.3 5.86155 1.71041 0
M  V30 12310 H 1144.72 5.70601 -0.555692 0
M  V30 12311 H 1143.11 5.85097 -1.33349 0
M  V30 12312 H 1144.18 4.51011 -1.78093 0
M  V30 12313 N 1145.53 0.438773 1.51369 0
M  V30 12314 C 1146.75 -0.128221 2.07003 0
M  V30 12315 C 1147.18 -1.3557 1.30393 0
M  V30 12316 O 1146.54 -1.7804 0.342283 0
M  V30 12317 C 1146.58 -0.42761 3.58056 0
M  V30 12318 O 1145.69 -1.51382 3.83611 0
M  V30 12319 H 1145.03 -0.00123679 0.663999 0
M  V30 12320 H 1147.56 0.62052 1.94963 0
M  V30 12321 H 1147.57 -0.677645 4.02333 0
M  V30 12322 H 1146.24 0.469535 4.13241 0
M  V30 12323 H 1144.82 -1.25363 3.51196 0
M  V30 12324 N 1147.01 -1.56678 0.170181 0
M  V30 12325 C 1148.42 -1.83452 -0.346742 0
M  V30 12326 C 1148.77 -1.08993 -1.63141 0
M  V30 12327 O 1147.89 -0.342607 -2.13671 0
M  V30 12328 C 1148.49 -3.32779 -0.635882 0
M  V30 12329 C 1147.05 -3.60052 -1.09725 0
M  V30 12330 C 1146.19 -2.76983 -0.132516 0
M  V30 12331 H 1149.14 -1.53719 0.394465 0
M  V30 12332 H 1149.17 -3.50195 -1.48806 0
M  V30 12333 H 1148.68 -3.86944 0.299291 0
M  V30 12334 H 1146.78 -3.11297 -2.04756 0
M  V30 12335 H 1146.89 -4.68393 -1.00719 0
M  V30 12336 H 1145.26 -2.46794 -0.62966 0
M  V30 12337 H 1146.04 -3.33929 0.796658 0
M  V30 12338 N 1148.48 0.103547 -1.57259 0
M  V30 12339 C 1149.73 0.806979 -1.8529 0
M  V30 12340 C 1150.05 1.79679 -0.757653 0
M  V30 12341 O 1149.32 1.94695 0.216913 0
M  V30 12342 H 1147.9 0.301012 -0.683667 0
M  V30 12343 H 1150.56 0.0871886 -1.94705 0
M  V30 12344 H 1149.66 1.34275 -2.81738 0
M  V30 12345 N 1149.96 1.53094 0.37415 0
M  V30 12346 C 1150.87 1.81872 1.48188 0
M  V30 12347 C 1151.89 0.706487 1.59012 0
M  V30 12348 O 1153.06 0.995648 1.75068 0
M  V30 12349 C 1150.13 1.99494 2.83554 0
M  V30 12350 C 1149.19 3.23402 2.82329 0
M  V30 12351 C 1148.42 3.40174 4.11239 0
M  V30 12352 O 1148.65 2.61425 5.06965 0
M  V30 12353 O 1147.58 4.33493 4.17573 0
M  V30 12354 H 1151.41 2.75965 1.26795 0
M  V30 12355 H 1148.99 1.38368 0.56343 0
M  V30 12356 H 1150.87 2.12705 3.63778 0
M  V30 12357 H 1149.55 1.08591 3.04942 0
M  V30 12358 H 1148.45 3.15621 2.00834 0
M  V30 12359 H 1149.79 4.14199 2.65894 0
M  V30 12360 N 1151.44 -0.633461 1.44309 0
M  V30 12361 C 1152.67 -1.42033 1.50447 0
M  V30 12362 C 1153.08 -1.88362 0.128585 0
M  V30 12363 O 1152.44 -1.60695 -0.865071 0
M  V30 12364 C 1152.49 -2.6422 2.46719 0
M  V30 12365 O 1152.21 -2.19823 3.78958 0
M  V30 12366 C 1153.71 -3.57372 2.62298 0
M  V30 12367 H 1150.93 -0.435667 0.510329 0
M  V30 12368 H 1153.48 -0.774907 1.8925 0
M  V30 12369 H 1151.63 -3.24859 2.11058 0
M  V30 12370 H 1152.05 -2.99022 4.30913 0
M  V30 12371 H 1153.52 -4.39719 3.33693 0
M  V30 12372 H 1154 -4.06026 1.67449 0
M  V30 12373 H 1154.6 -3.02603 2.9885 0
M  V30 12374 N 1152.92 -1.31168 -0.873655 0
M  V30 12375 C 1154.16 -1.20821 -1.62881 0
M  V30 12376 C 1154.5 0.233994 -1.92785 0
M  V30 12377 O 1153.77 1.16588 -1.55684 0
M  V30 12378 C 1154.06 -2.04875 -2.96139 0
M  V30 12379 C 1153.91 -3.57375 -2.73136 0
M  V30 12380 C 1155.23 -1.8953 -3.97198 0
M  V30 12381 H 1152.35 -0.44026 -0.59105 0
M  V30 12382 H 1154.99 -1.6092 -1.01019 0
M  V30 12383 H 1153.14 -1.70806 -3.48938 0
M  V30 12384 H 1154.81 -4.01561 -2.27038 0
M  V30 12385 H 1153.05 -3.8099 -2.07434 0
M  V30 12386 H 1153.72 -4.1149 -3.6794 0
M  V30 12387 H 1156.2 -2.19337 -3.53596 0
M  V30 12388 H 1155.08 -2.5065 -4.8833 0
M  V30 12389 H 1155.34 -0.857576 -4.33703 0
M  V30 12390 N 1154.4 1.08748 -1.14068 0
M  V30 12391 C 1155.64 1.81333 -0.908081 0
M  V30 12392 C 1155.98 1.85826 0.564112 0
M  V30 12393 O 1155.25 1.33157 1.41773 0
M  V30 12394 C 1155.53 3.27127 -1.50531 0
M  V30 12395 C 1155.39 3.30865 -3.04711 0
M  V30 12396 C 1156.71 4.24006 -1.17928 0
M  V30 12397 H 1153.82 0.658326 -0.331325 0
M  V30 12398 H 1156.47 1.27345 -1.41008 0
M  V30 12399 H 1154.62 3.73233 -1.07839 0
M  V30 12400 H 1156.29 2.93109 -3.56209 0
M  V30 12401 H 1154.53 2.70241 -3.39341 0
M  V30 12402 H 1155.2 4.33603 -3.41603 0
M  V30 12403 H 1157.68 3.86221 -1.54831 0
M  V30 12404 H 1156.55 5.2434 -1.62353 0
M  V30 12405 H 1156.82 4.42 -0.0940349 0
M  V30 12406 N 1155.87 0.935264 1.26849 0
M  V30 12407 C 1157.29 0.623198 1.75992 0
M  V30 12408 C 1157.64 -0.861647 1.76267 0
M  V30 12409 O 1156.76 -1.6743 1.37099 0
M  V30 12410 C 1157.36 1.12451 3.19594 0
M  V30 12411 C 1155.92 0.862974 3.66374 0
M  V30 12412 C 1155.06 1.27886 2.4605 0
M  V30 12413 H 1158.01 1.11422 1.13008 0
M  V30 12414 H 1158.03 0.475626 3.77516 0
M  V30 12415 H 1157.55 2.20522 3.19361 0
M  V30 12416 H 1155.65 -0.203606 3.72043 0
M  V30 12417 H 1155.76 1.48582 4.55478 0
M  V30 12418 H 1154.12 0.697335 2.44968 0
M  V30 12419 H 1154.91 2.36837 2.48522 0
M  V30 12420 N 1157.35 -1.41121 0.701616 0
M  V30 12421 C 1158.58 -2.05973 0.242896 0
M  V30 12422 C 1159 -1.52474 -1.10151 0
M  V30 12423 O 1158.36 -0.654224 -1.69085 0
M  V30 12424 C 1158.41 -3.59943 0.217614 0
M  V30 12425 O 1157.51 -4.04454 -0.805629 0
M  V30 12426 H 1156.85 -0.653581 0.117166 0
M  V30 12427 H 1159.38 -1.80777 0.958175 0
M  V30 12428 H 1159.39 -4.07969 0.0505267 0
M  V30 12429 H 1158.07 -3.98249 1.19877 0
M  V30 12430 H 1156.65 -3.6792 -0.607404 0
M  V30 12431 N 1158.83 -0.446794 -1.51134 0
M  V30 12432 C 1159.76 0.395804 -2.25757 0
M  V30 12433 C 1160.78 0.978178 -1.30137 0
M  V30 12434 O 1161.96 0.87071 -1.55823 0
M  V30 12435 C 1159.06 1.56665 -3.00515 0
M  V30 12436 C 1158.24 1.10146 -4.23305 0
M  V30 12437 C 1157.3 2.14352 -4.80562 0
M  V30 12438 O 1156.32 1.73401 -5.42145 0
M  V30 12439 N 1157.52 3.46932 -4.65423 0
M  V30 12440 H 1160.29 -0.243808 -2.98707 0
M  V30 12441 H 1157.85 -0.276205 -1.59527 0
M  V30 12442 H 1159.84 2.26019 -3.35704 0
M  V30 12443 H 1158.41 2.11142 -2.30516 0
M  V30 12444 H 1157.63 0.234644 -3.93501 0
M  V30 12445 H 1158.92 0.768185 -5.02968 0
M  V30 12446 H 1158.32 3.82929 -4.16391 0
M  V30 12447 H 1156.88 4.12154 -5.04948 0
M  V30 12448 N 1160.31 1.56586 -0.178487 0
M  V30 12449 C 1161.72 1.58609 0.17759 0
M  V30 12450 C 1161.92 1.19411 1.62306 0
M  V30 12451 O 1160.98 0.90906 2.35568 0
M  V30 12452 C 1162.29 3.005 -0.109722 0
M  V30 12453 C 1163.84 3.12962 -0.0485036 0
M  V30 12454 C 1164.32 4.56957 -0.308901 0
M  V30 12455 N 1165.81 4.62487 -0.25693 0
M  V30 12456 C 1166.54 5.71767 -0.432488 0
M  V30 12457 N 1166.04 6.89577 -0.667494 0
M  V30 12458 N 1167.83 5.60895 -0.367895 0
M  V30 12459 H 1159.98 1.80351 -1.12193 0
M  V30 12460 H 1162.25 0.83623 -0.446569 0
M  V30 12461 H 1161.95 3.3368 -1.11133 0
M  V30 12462 H 1161.83 3.72472 0.595373 0
M  V30 12463 H 1164.21 2.79604 0.943687 0
M  V30 12464 H 1164.29 2.43411 -0.78642 0
M  V30 12465 H 1163.94 4.91025 -1.29833 0
M  V30 12466 H 1163.87 5.24676 0.449711 0
M  V30 12467 H 1166.36 3.77813 -0.0812308 0
M  V30 12468 H 1166.67 7.68744 -0.79071 0
M  V30 12469 H 1165.02 6.91423 -0.704193 0
M  V30 12470 H 1168.21 4.67735 -0.184837 0
M  V30 12471 H 1168.38 6.46005 -0.508138 0
M  V30 12472 N 1161.79 -0.095206 1.57312 0
M  V30 12473 C 1162.75 -1.09974 2.01093 0
M  V30 12474 C 1163.75 -1.32954 0.904424 0
M  V30 12475 O 1164.94 -1.29069 1.16991 0
M  V30 12476 C 1162.07 -2.4489 2.37153 0
M  V30 12477 H 1163.26 -0.722906 2.91057 0
M  V30 12478 H 1160.82 -0.340249 1.52552 0
M  V30 12479 H 1161.55 -2.8745 1.50143 0
M  V30 12480 H 1161.34 -2.29559 3.17876 0
M  V30 12481 H 1162.83 -3.17141 2.71683 0
M  V30 12482 N 1163.26 -1.53291 -0.366026 0
M  V30 12483 C 1164.68 -1.43053 -0.707669 0
M  V30 12484 C 1164.88 -0.56925 -1.93292 0
M  V30 12485 O 1163.94 -0.0515214 -2.52447 0
M  V30 12486 C 1165.25 -2.86239 -0.921292 0
M  V30 12487 C 1166.8 -2.95868 -1.02133 0
M  V30 12488 C 1167.27 -4.40114 -1.26743 0
M  V30 12489 N 1168.76 -4.43541 -1.33514 0
M  V30 12490 C 1169.5 -5.52259 -1.54264 0
M  V30 12491 N 1168.99 -6.71024 -1.72335 0
M  V30 12492 N 1170.79 -5.39836 -1.5663 0
M  V30 12493 H 1162.94 -2.07795 0.43988 0
M  V30 12494 H 1165.2 -0.938376 0.134736 0
M  V30 12495 H 1164.91 -3.51578 -0.0928042 0
M  V30 12496 H 1164.78 -3.29862 -1.82951 0
M  V30 12497 H 1167.17 -2.30683 -1.84036 0
M  V30 12498 H 1167.25 -2.5564 -0.0905097 0
M  V30 12499 H 1166.89 -5.05872 -0.453409 0
M  V30 12500 H 1166.82 -4.77914 -2.21146 0
M  V30 12501 H 1169.31 -3.57949 -1.21165 0
M  V30 12502 H 1169.63 -7.49649 -1.8774 0
M  V30 12503 H 1167.97 -6.7401 -1.69514 0
M  V30 12504 H 1171.16 -4.46017 -1.4208 0
M  V30 12505 H 1171.34 -6.24629 -1.72461 0
M  V30 12506 N 1164.74 0.6258 -1.44643 0
M  V30 12507 C 1165.97 1.41233 -1.51198 0
M  V30 12508 C 1166.39 1.88291 -0.138572 0
M  V30 12509 O 1165.74 1.61151 0.856537 0
M  V30 12510 C 1165.79 2.62908 -2.48117 0
M  V30 12511 O 1165.51 2.1781 -3.80119 0
M  V30 12512 C 1167.02 3.55976 -2.6419 0
M  V30 12513 H 1164.24 0.432954 -0.512632 0
M  V30 12514 H 1166.78 0.76486 -1.89658 0
M  V30 12515 H 1164.93 3.23735 -2.12778 0
M  V30 12516 H 1165.35 2.96732 -4.32493 0
M  V30 12517 H 1166.82 4.37943 -3.3602 0
M  V30 12518 H 1167.3 4.05133 -1.696 0
M  V30 12519 H 1167.91 3.01014 -3.00451 0
M  V30 12520 N 1166.22 1.31629 0.866686 0
M  V30 12521 C 1167.15 1.15377 1.98042 0
M  V30 12522 C 1168.17 0.0919633 1.6254 0
M  V30 12523 O 1169.35 0.339775 1.75236 0
M  V30 12524 C 1166.45 0.741295 3.30693 0
M  V30 12525 C 1165.63 1.88882 3.94516 0
M  V30 12526 C 1164.69 1.46186 5.05486 0
M  V30 12527 O 1163.71 2.17202 5.26129 0
M  V30 12528 N 1164.91 0.351096 5.79437 0
M  V30 12529 H 1167.68 2.11309 2.12529 0
M  V30 12530 H 1165.24 1.24007 1.04085 0
M  V30 12531 H 1167.23 0.438313 4.02319 0
M  V30 12532 H 1165.8 -0.12651 3.12344 0
M  V30 12533 H 1165.02 2.35894 3.15828 0
M  V30 12534 H 1166.31 2.65734 4.33892 0
M  V30 12535 H 1165.71 -0.240245 5.6519 0
M  V30 12536 H 1164.27 0.107663 6.51711 0
M  V30 12537 N 1167.7 -1.08142 1.14644 0
M  V30 12538 C 1168.95 -1.79959 0.910908 0
M  V30 12539 C 1169.26 -1.87296 -0.563866 0
M  V30 12540 O 1170.47 -2.55555 -0.916735 0
M  V30 12541 C 1168.92 -3.23351 1.58025 0
M  V30 12542 C 1168.53 -3.2424 3.09148 0
M  V30 12543 C 1170.28 -3.99834 1.42595 0
M  V30 12544 C 1168.18 -4.62236 3.68906 0
M  V30 12545 H 1167.11 -0.674423 0.33715 0
M  V30 12546 H 1169.76 -1.21441 1.37566 0
M  V30 12547 H 1168.15 -3.82013 1.04318 0
M  V30 12548 H 1169.32 -2.75269 3.69545 0
M  V30 12549 H 1167.63 -2.61253 3.24246 0
M  V30 12550 H 1170.23 -5.01809 1.8464 0
M  V30 12551 H 1170.57 -4.14631 0.372402 0
M  V30 12552 H 1171.11 -3.47648 1.93354 0
M  V30 12553 H 1167.85 -4.52642 4.74126 0
M  V30 12554 H 1167.37 -5.11477 3.1329 0
M  V30 12555 H 1169.05 -5.3121 3.69358 0
M  V30 12556 N 1169.18 -0.941978 -1.26351 0
M  V30 12557 C 1170.59 -0.632522 -1.75659 0
M  V30 12558 C 1170.94 0.852287 -1.76722 0
M  V30 12559 O 1170.06 1.66701 -1.37985 0
M  V30 12560 C 1170.66 -1.14145 -3.18993 0
M  V30 12561 C 1169.22 -0.882391 -3.65911 0
M  V30 12562 C 1168.37 -1.29189 -2.45368 0
M  V30 12563 H 1171.32 -1.12019 -1.12416 0
M  V30 12564 H 1171.34 -0.495639 -3.77258 0
M  V30 12565 H 1170.85 -2.22213 -3.18187 0
M  V30 12566 H 1168.95 0.183873 -3.72146 0
M  V30 12567 H 1169.06 -1.50996 -4.54683 0
M  V30 12568 H 1167.43 -0.710316 -2.44595 0
M  V30 12569 H 1168.21 -2.38152 -2.47262 0
M  V30 12570 N 1170.66 1.40747 -0.709091 0
M  V30 12571 C 1171.89 2.05022 -0.254887 0
M  V30 12572 C 1172.29 1.5351 1.10595 0
M  V30 12573 O 1171.64 0.683912 1.70494 0
M  V30 12574 C 1171.7 3.59188 -0.149823 0
M  V30 12575 C 1171.36 4.33557 -1.44489 0
M  V30 12576 C 1172.36 4.61941 -2.3855 0
M  V30 12577 C 1170.04 4.72585 -1.70201 0
M  V30 12578 C 1172.04 5.2833 -3.56575 0
M  V30 12579 C 1169.73 5.38707 -2.88509 0
M  V30 12580 C 1170.72 5.66509 -3.81518 0
M  V30 12581 O 1170.41 6.31267 -4.97752 0
M  V30 12582 H 1170.14 0.666405 -0.113493 0
M  V30 12583 H 1172.7 1.81261 -0.966099 0
M  V30 12584 H 1170.93 3.81742 0.617276 0
M  V30 12585 H 1172.62 4.05008 0.268965 0
M  V30 12586 H 1173.38 4.32259 -2.19947 0
M  V30 12587 H 1169.26 4.50318 -0.986628 0
M  V30 12588 H 1172.81 5.49947 -4.2919 0
M  V30 12589 H 1168.7 5.67809 -3.07023 0
M  V30 12590 H 1169.47 6.49764 -4.97745 0
M  V30 12591 N 1172.13 0.454803 1.50895 0
M  V30 12592 C 1173.36 -0.106259 2.07128 0
M  V30 12593 C 1173.78 -1.3418 1.31823 0
M  V30 12594 O 1173.14 -1.77667 0.361147 0
M  V30 12595 C 1173.19 -0.389609 3.58489 0
M  V30 12596 O 1172.29 -1.47305 3.85195 0
M  V30 12597 H 1171.63 0.00580588 0.663975 0
M  V30 12598 H 1174.16 0.641163 1.94294 0
M  V30 12599 H 1174.17 -0.634934 4.03029 0
M  V30 12600 H 1172.85 0.513338 4.1272 0
M  V30 12601 H 1171.43 -1.21631 3.52506 0
M  V30 12602 N 1173.61 -1.56489 0.186789 0
M  V30 12603 C 1175.02 -1.83809 -0.327265 0
M  V30 12604 C 1175.37 -1.10718 -1.61976 0
M  V30 12605 O 1174.5 -0.36525 -2.13295 0
M  V30 12606 C 1175.09 -3.33435 -0.600551 0
M  V30 12607 C 1173.65 -3.61195 -1.059 0
M  V30 12608 C 1172.8 -2.77108 -0.103131 0
M  V30 12609 H 1175.75 -1.53292 0.410747 0
M  V30 12610 H 1175.77 -3.51754 -1.45084 0
M  V30 12611 H 1175.28 -3.86605 0.340315 0
M  V30 12612 H 1173.38 -3.13451 -2.01443 0
M  V30 12613 H 1173.5 -4.69435 -0.957458 0
M  V30 12614 H 1171.86 -2.47448 -0.603449 0
M  V30 12615 H 1172.64 -3.33065 0.832031 0
M  V30 12616 N 1175.09 0.086862 -1.5736 0
M  V30 12617 C 1176.34 0.787281 -1.86135 0
M  V30 12618 C 1176.66 1.78866 -0.776667 0
M  V30 12619 O 1175.93 1.94915 0.19625 0
M  V30 12620 H 1174.51 0.293744 -0.686821 0
M  V30 12621 H 1177.17 0.0665326 -1.94786 0
M  V30 12622 H 1176.27 1.3128 -2.83147 0
M  V30 12623 N 1176.57 1.53483 0.357892 0
M  V30 12624 C 1177.8 1.73956 1.12013 0
M  V30 12625 C 1178.21 0.472053 1.82803 0
M  V30 12626 O 1177.57 -0.555499 1.7384 0
M  V30 12627 C 1177.62 2.91015 2.14459 0
M  V30 12628 O 1177.34 4.12862 1.4655 0
M  V30 12629 C 1178.84 3.23423 3.0317 0
M  V30 12630 H 1176.06 0.58161 0.334621 0
M  V30 12631 H 1178.6 2.00256 0.414467 0
M  V30 12632 H 1176.76 2.67087 2.80612 0
M  V30 12633 H 1177.17 4.78468 2.14869 0
M  V30 12634 H 1178.65 4.08717 3.71018 0
M  V30 12635 H 1179.12 2.39114 3.68404 0
M  V30 12636 H 1179.73 3.49305 2.42624 0
M  V30 12637 N 1178.05 -0.61812 1.44973 0
M  V30 12638 C 1179.29 -1.3774 1.48439 0
M  V30 12639 C 1179.62 -1.94117 0.121999 0
M  V30 12640 O 1178.88 -1.749 -0.877974 0
M  V30 12641 C 1179.17 -2.55143 2.50274 0
M  V30 12642 C 1178.84 -2.16976 3.95262 0
M  V30 12643 C 1177.5 -2.06281 4.34743 0
M  V30 12644 C 1179.85 -1.8703 4.86486 0
M  V30 12645 C 1177.18 -1.63846 5.63357 0
M  V30 12646 C 1179.53 -1.46085 6.15501 0
M  V30 12647 C 1178.2 -1.3394 6.53924 0
M  V30 12648 H 1177.47 -0.504026 0.543175 0
M  V30 12649 H 1180.12 -0.699685 1.7826 0
M  V30 12650 H 1178.42 -3.28205 2.13983 0
M  V30 12651 H 1180.12 -3.13373 2.50197 0
M  V30 12652 H 1176.71 -2.26223 3.64034 0
M  V30 12653 H 1180.89 -1.94196 4.56729 0
M  V30 12654 H 1176.15 -1.53058 5.91932 0
M  V30 12655 H 1180.32 -1.21956 6.85638 0
M  V30 12656 H 1177.95 -1.00832 7.53483 0
M  V30 12657 N 1179.52 -1.32087 -0.859693 0
M  V30 12658 C 1180.76 -1.23671 -1.62742 0
M  V30 12659 C 1181.13 0.19966 -1.90959 0
M  V30 12660 O 1182.33 0.407478 -2.65694 0
M  V30 12661 C 1180.6 -2.06736 -2.91539 0
M  V30 12662 S 1182.16 -2.15292 -3.82354 0
M  V30 12663 H 1178.98 -0.440306 -0.558258 0
M  V30 12664 H 1181.58 -1.66875 -1.01848 0
M  V30 12665 H 1180.28 -3.10166 -2.68747 0
M  V30 12666 H 1179.81 -1.64291 -3.57452 0
M  V30 12667 H 1181.83 -1.29874 -4.78902 0
M  V30 12668 N 1181 1.07532 -1.15215 0
M  V30 12669 C 1182.42 1.32183 -0.894411 0
M  V30 12670 C 1182.62 1.96188 0.459614 0
M  V30 12671 O 1181.67 2.22057 1.20195 0
M  V30 12672 C 1182.99 2.21473 -2.03397 0
M  V30 12673 C 1184.53 2.34927 -2.06829 0
M  V30 12674 C 1185.01 3.27564 -3.20103 0
M  V30 12675 N 1186.5 3.35144 -3.19738 0
M  V30 12676 C 1187.24 4.0688 -4.04025 0
M  V30 12677 N 1186.73 4.81246 -4.98371 0
M  V30 12678 N 1188.52 4.02802 -3.92055 0
M  V30 12679 H 1180.68 0.643732 -2.0241 0
M  V30 12680 H 1182.94 0.346272 -0.882496 0
M  V30 12681 H 1182.64 1.81701 -3.01127 0
M  V30 12682 H 1182.52 3.2199 -1.96475 0
M  V30 12683 H 1184.91 2.73953 -1.09699 0
M  V30 12684 H 1184.99 1.34121 -2.17819 0
M  V30 12685 H 1184.63 2.89258 -4.17483 0
M  V30 12686 H 1184.56 4.2832 -3.06349 0
M  V30 12687 H 1187.05 2.82135 -2.51412 0
M  V30 12688 H 1187.36 5.33472 -5.59131 0
M  V30 12689 H 1185.71 4.80268 -5.02362 0
M  V30 12690 H 1188.9 3.43816 -3.17661 0
M  V30 12691 H 1189.07 4.58443 -4.57967 0
M  V30 12692 N 1182.48 0.948665 1.2585 0
M  V30 12693 C 1183.41 0.482036 2.2847 0
M  V30 12694 C 1184.39 -0.468553 1.63519 0
M  V30 12695 O 1185.58 -0.368796 1.90666 0
M  V30 12696 C 1182.71 -0.246603 3.46423 0
M  V30 12697 C 1181.66 0.61815 4.23513 0
M  V30 12698 C 1180.99 -0.240884 5.34157 0
M  V30 12699 C 1182.29 1.89327 4.86778 0
M  V30 12700 H 1183.98 1.33973 2.67753 0
M  V30 12701 H 1181.53 0.645645 1.28715 0
M  V30 12702 H 1183.48 -0.584135 4.17332 0
M  V30 12703 H 1182.2 -1.13849 3.06114 0
M  V30 12704 H 1180.86 0.938682 3.54379 0
M  V30 12705 H 1180.51 -1.13235 4.90089 0
M  V30 12706 H 1180.21 0.334367 5.86648 0
M  V30 12707 H 1181.73 -0.573517 6.07901 0
M  V30 12708 H 1183.15 1.62252 5.49861 0
M  V30 12709 H 1181.55 2.41369 5.49419 0
M  V30 12710 H 1182.62 2.60006 4.09298 0
M  V30 12711 N 1183.96 -1.40369 0.716545 0
M  V30 12712 C 1184.89 -2.28196 0.013671 0
M  V30 12713 C 1185.87 -1.4339 -0.766685 0
M  V30 12714 O 1187.05 -1.72801 -0.753123 0
M  V30 12715 C 1184.18 -3.23969 -0.988006 0
M  V30 12716 C 1183.23 -4.25455 -0.298345 0
M  V30 12717 S 1184.06 -5.26559 0.974456 0
M  V30 12718 C 1185.22 -6.25895 -0.0250932 0
M  V30 12719 H 1185.45 -2.87461 0.758526 0
M  V30 12720 H 1182.98 -1.45817 0.507606 0
M  V30 12721 H 1184.94 -3.79674 -1.56071 0
M  V30 12722 H 1183.6 -2.63759 -1.70557 0
M  V30 12723 H 1182.79 -4.92821 -1.05561 0
M  V30 12724 H 1182.4 -3.73455 0.201828 0
M  V30 12725 H 1184.69 -6.7187 -0.871615 0
M  V30 12726 H 1185.63 -7.05422 0.615206 0
M  V30 12727 H 1186.04 -5.63156 -0.389248 0
M  V30 12728 N 1185.44 -0.462799 -1.50652 0
M  V30 12729 C 1186.85 -0.00568907 -1.86699 0
M  V30 12730 C 1187.2 1.39641 -1.37822 0
M  V30 12731 O 1186.32 2.03366 -0.739679 0
M  V30 12732 C 1186.92 -0.00354783 -3.388 0
M  V30 12733 C 1185.48 0.398061 -3.74289 0
M  V30 12734 C 1184.62 -0.392574 -2.74507 0
M  V30 12735 H 1187.58 -0.677469 -1.43513 0
M  V30 12736 H 1187.6 0.800456 -3.71985 0
M  V30 12737 H 1187.11 -1.02414 -3.74344 0
M  V30 12738 H 1185.21 1.42331 -3.44344 0
M  V30 12739 H 1185.32 0.105168 -4.78985 0
M  V30 12740 H 1183.69 0.152608 -2.54242 0
M  V30 12741 H 1184.47 -1.41252 -3.12894 0
M  V30 12742 N 1186.91 1.56388 -0.195085 0
M  V30 12743 C 1188.16 1.9758 0.443686 0
M  V30 12744 C 1188.49 1.08196 1.61629 0
M  V30 12745 O 1187.74 0.121061 1.95325 0
M  V30 12746 C 1188.04 3.44651 0.946051 0
M  V30 12747 C 1187.71 4.50758 -0.11318 0
M  V30 12748 C 1186.37 4.79499 -0.404229 0
M  V30 12749 C 1188.72 5.14534 -0.830899 0
M  V30 12750 C 1186.05 5.69307 -1.41797 0
M  V30 12751 C 1188.4 6.05438 -1.83379 0
M  V30 12752 C 1187.07 6.32535 -2.13204 0
M  V30 12753 H 1186.34 0.722995 0.162356 0
M  V30 12754 H 1188.98 1.8926 -0.292049 0
M  V30 12755 H 1187.29 3.50042 1.76006 0
M  V30 12756 H 1188.99 3.73878 1.44969 0
M  V30 12757 H 1185.58 4.28421 0.123833 0
M  V30 12758 H 1189.76 4.92421 -0.61927 0
M  V30 12759 H 1185.02 5.88575 -1.65496 0
M  V30 12760 H 1189.19 6.53915 -2.39516 0
M  V30 12761 H 1186.82 7.01924 -2.91902 0
M  V30 12762 N 1188.39 -0.0785156 1.57404 0
M  V30 12763 C 1189.81 -0.433143 1.5361 0
M  V30 12764 C 1190.01 -1.79564 0.914283 0
M  V30 12765 O 1189.06 -2.47215 0.513899 0
M  V30 12766 C 1190.38 -0.380387 2.98284 0
M  V30 12767 C 1191.93 -0.461056 3.09586 0
M  V30 12768 C 1192.4 -0.438276 4.55898 0
M  V30 12769 N 1193.89 -0.498548 4.60509 0
M  V30 12770 C 1194.63 -0.503028 5.71189 0
M  V30 12771 N 1194.12 -0.462724 6.91253 0
M  V30 12772 N 1195.92 -0.549083 5.59412 0
M  V30 12773 H 1188.07 0.813724 1.96195 0
M  V30 12774 H 1190.33 0.304644 0.897717 0
M  V30 12775 H 1190.04 0.553932 3.4731 0
M  V30 12776 H 1189.91 -1.19313 3.57833 0
M  V30 12777 H 1192.3 -1.3858 2.60537 0
M  V30 12778 H 1192.38 0.380138 2.5296 0
M  V30 12779 H 1192.02 0.482588 5.05602 0
M  V30 12780 H 1191.95 -1.29691 5.1038 0
M  V30 12781 H 1194.44 -0.534219 3.74105 0
M  V30 12782 H 1194.76 -0.469883 7.7137 0
M  V30 12783 H 1193.1 -0.429515 6.93672 0
M  V30 12784 H 1196.29 -0.578215 4.64515 0
M  V30 12785 H 1196.46 -0.549105 6.45669 0
M  V30 12786 N 1189.87 -1.5367 -0.349747 0
M  V30 12787 C 1190.8 -1.84208 -1.43492 0
M  V30 12788 C 1191.78 -0.696725 -1.55177 0
M  V30 12789 O 1192.97 -0.948061 -1.69486 0
M  V30 12790 C 1190.1 -2.04613 -2.80625 0
M  V30 12791 C 1189.05 -3.20419 -2.83753 0
M  V30 12792 C 1188.38 -3.26147 -4.23713 0
M  V30 12793 C 1189.68 -4.58666 -2.49846 0
M  V30 12794 H 1191.37 -2.75087 -1.18185 0
M  V30 12795 H 1188.92 -1.32363 -0.567101 0
M  V30 12796 H 1190.87 -2.2456 -3.56582 0
M  V30 12797 H 1189.59 -1.10459 -3.07354 0
M  V30 12798 H 1188.25 -3.00318 -2.10249 0
M  V30 12799 H 1187.9 -2.29599 -4.47541 0
M  V30 12800 H 1187.6 -4.03963 -4.26717 0
M  V30 12801 H 1189.12 -3.48296 -5.0152 0
M  V30 12802 H 1190.54 -4.78668 -3.15516 0
M  V30 12803 H 1188.94 -5.3884 -2.64144 0
M  V30 12804 H 1190.01 -4.62697 -1.4505 0
M  V30 12805 N 1191.35 0.610423 -1.45298 0
M  V30 12806 C 1192.57 1.40112 -1.52917 0
M  V30 12807 C 1193 1.87404 -0.161696 0
M  V30 12808 O 1192.36 1.59973 0.853135 0
M  V30 12809 C 1192.4 2.58359 -2.51561 0
M  V30 12810 O 1191.51 3.58895 -2.03146 0
M  V30 12811 H 1190.85 0.41841 -0.515586 0
M  V30 12812 H 1193.38 0.743159 -1.90626 0
M  V30 12813 H 1193.39 3.0564 -2.70275 0
M  V30 12814 H 1192.06 2.23286 -3.50879 0
M  V30 12815 H 1190.64 3.18282 -1.94296 0
M  V30 12816 N 1192.83 1.32541 0.852676 0
M  V30 12817 C 1194.05 1.2636 1.64462 0
M  V30 12818 C 1194.48 -0.16508 1.87374 0
M  V30 12819 O 1193.83 -1.11712 1.42794 0
M  V30 12820 C 1193.88 2.03052 2.97997 0
M  V30 12821 O 1192.99 1.37967 3.88637 0
M  V30 12822 H 1192.33 0.435393 0.501327 0
M  V30 12823 H 1194.86 1.74888 1.06186 0
M  V30 12824 H 1194.87 2.133 3.47803 0
M  V30 12825 H 1193.54 3.06941 2.80642 0
M  V30 12826 H 1192.12 1.36279 3.47106 0
M  V30 12827 N 1194.3 -1.0692 1.15784 0
M  V30 12828 C 1195.25 -2.14235 0.858616 0
M  V30 12829 C 1196.22 -1.65006 -0.190295 0
M  V30 12830 O 1197.41 -1.90715 -0.0568853 0
M  V30 12831 C 1194.55 -3.43229 0.35888 0
M  V30 12832 C 1193.66 -4.06225 1.46987 0
M  V30 12833 C 1192.79 -5.2307 0.925812 0
M  V30 12834 C 1191.83 -5.78037 2.01345 0
M  V30 12835 N 1190.97 -6.86206 1.48544 0
M  V30 12836 H 1195.81 -2.3917 1.77769 0
M  V30 12837 H 1193.35 -1.17354 0.886925 0
M  V30 12838 H 1195.31 -4.17169 0.0508198 0
M  V30 12839 H 1193.94 -3.18531 -0.523259 0
M  V30 12840 H 1192.99 -3.29895 1.89403 0
M  V30 12841 H 1194.3 -4.43081 2.29088 0
M  V30 12842 H 1193.45 -6.04011 0.570555 0
M  V30 12843 H 1192.19 -4.87644 0.0740371 0
M  V30 12844 H 1191.2 -4.95738 2.37748 0
M  V30 12845 H 1192.42 -6.15517 2.86907 0
M  V30 12846 H 1190.37 -6.52711 0.656092 0
M  V30 12847 H 1190.29 -7.2197 2.24266 0
M  V30 12848 H 1191.55 -7.70842 1.15856 0
M  V30 12849 N 1195.78 -0.955326 -1.25345 0
M  V30 12850 C 1197.01 -0.627233 -1.97688 0
M  V30 12851 C 1197.43 0.793973 -1.70522 0
M  V30 12852 O 1196.79 1.537 -0.961556 0
M  V30 12853 C 1196.84 -0.892969 -3.49369 0
M  V30 12854 O 1195.94 0.0278871 -4.12391 0
M  V30 12855 H 1195.28 -0.238402 -0.619726 0
M  V30 12856 H 1197.81 -1.28211 -1.59446 0
M  V30 12857 H 1197.82 -0.819517 -3.99685 0
M  V30 12858 H 1196.5 -1.92879 -3.6847 0
M  V30 12859 H 1195.08 -0.0978295 -3.72772 0
M  V30 12860 N 1197.26 1.39987 -0.723979 0
M  V30 12861 C 1198.51 2.01028 -0.267511 0
M  V30 12862 C 1198.84 1.57295 1.13894 0
M  V30 12863 O 1198.12 0.796805 1.7743 0
M  V30 12864 C 1198.4 3.58326 -0.356971 0
M  V30 12865 C 1198.25 4.12109 -1.8024 0
M  V30 12866 C 1199.57 4.39289 0.267003 0
M  V30 12867 H 1196.69 0.730364 -0.0986775 0
M  V30 12868 H 1199.33 1.66348 -0.91806 0
M  V30 12869 H 1197.48 3.88001 0.196908 0
M  V30 12870 H 1199.15 3.93199 -2.41231 0
M  V30 12871 H 1197.4 3.66082 -2.32737 0
M  V30 12872 H 1198.07 5.21261 -1.81634 0
M  V30 12873 H 1200.54 4.15595 -0.20503 0
M  V30 12874 H 1199.42 5.48624 0.174004 0
M  V30 12875 H 1199.68 4.20931 1.35164 0
M  V30 12876 N 1198.74 0.470782 1.50404 0
M  V30 12877 C 1200.02 -0.145879 1.95055 0
M  V30 12878 C 1200.4 -1.57004 1.41114 0
M  V30 12879 O 1199.74 -2.20152 0.612006 0
M  V30 12880 C 1199.95 -0.0895071 3.48885 0
M  V30 12881 C 1201.3 -0.278548 4.23685 0
M  V30 12882 O 1202.33 -0.166105 3.55812 0
M  V30 12883 O 1201.19 -0.505606 5.44156 0
M  V30 12884 H 1198.28 -0.111838 0.819403 0
M  V30 12885 H 1200.83 0.531162 1.61173 0
M  V30 12886 H 1199.6 0.904836 3.80695 0
M  V30 12887 H 1199.22 -0.808019 3.89303 0
M  V30 12888 N 1200.22 -1.56282 0.203376 0
M  V30 12889 C 1201.44 -2.02643 -0.441658 0
M  V30 12890 C 1201.87 -1.0825 -1.5383 0
M  V30 12891 O 1201.23 -0.0674337 -1.81175 0
M  V30 12892 C 1201.27 -3.47382 -0.967369 0
M  V30 12893 O 1200.38 -3.56115 -2.07981 0
M  V30 12894 H 1199.72 -0.656081 -0.102242 0
M  V30 12895 H 1202.25 -2.02134 0.316684 0
M  V30 12896 H 1202.26 -3.8734 -1.28186 0
M  V30 12897 H 1200.93 -4.15574 -0.164625 0
M  V30 12898 H 1199.51 -3.28035 -1.77334 0
M  V30 12899 N 1201.7 0.070167 -1.57444 0
M  V30 12900 C 1202.94 0.769014 -1.8733 0
M  V30 12901 C 1203.27 1.77496 -0.79533 0
M  V30 12902 O 1202.53 1.94586 0.208495 0
M  V30 12903 C 1202.82 1.5111 -3.23883 0
M  V30 12904 C 1202.49 0.644988 -4.46263 0
M  V30 12905 C 1201.15 0.406307 -4.79482 0
M  V30 12906 C 1203.5 0.0444938 -5.21181 0
M  V30 12907 C 1200.83 -0.442322 -5.8503 0
M  V30 12908 C 1203.18 -0.791599 -6.27628 0
M  V30 12909 C 1201.85 -1.04014 -6.59346 0
M  V30 12910 H 1201.12 0.281402 -0.685488 0
M  V30 12911 H 1203.77 0.029752 -1.91477 0
M  V30 12912 H 1202.07 2.32261 -3.15535 0
M  V30 12913 H 1203.77 2.05665 -3.44242 0
M  V30 12914 H 1200.36 0.841148 -4.20265 0
M  V30 12915 H 1204.54 0.216005 -4.9583 0
M  V30 12916 H 1199.8 -0.643607 -6.08003 0
M  V30 12917 H 1203.97 -1.26363 -6.8484 0
M  V30 12918 H 1201.6 -1.69949 -7.4096 0
M  V30 12919 N 1203.17 1.53854 0.341593 0
M  V30 12920 C 1204.1 1.84966 1.42513 0
M  V30 12921 C 1205.08 0.704944 1.54805 0
M  V30 12922 O 1206.27 0.957036 1.68981 0
M  V30 12923 C 1203.4 2.06099 2.79536 0
M  V30 12924 C 1202.35 3.21919 2.82049 0
M  V30 12925 C 1201.68 3.28389 4.21977 0
M  V30 12926 C 1202.98 4.59984 2.4741 0
M  V30 12927 H 1204.67 2.7571 1.16724 0
M  V30 12928 H 1202.22 1.32662 0.560073 0
M  V30 12929 H 1204.17 2.26448 3.55386 0
M  V30 12930 H 1202.9 1.12087 3.06764 0
M  V30 12931 H 1201.56 3.01429 2.08653 0
M  V30 12932 H 1201.2 2.3197 4.46317 0
M  V30 12933 H 1200.9 4.0622 4.24569 0
M  V30 12934 H 1202.43 3.50951 4.99666 0
M  V30 12935 H 1203.84 4.80334 3.12973 0
M  V30 12936 H 1202.24 5.40233 2.61282 0
M  V30 12937 H 1203.31 4.6346 1.42594 0
M  V30 12938 N 1204.65 -0.602709 1.4562 0
M  V30 12939 C 1205.58 -1.7271 1.50678 0
M  V30 12940 C 1206.6 -1.57884 0.397048 0
M  V30 12941 O 1207.79 -1.65676 0.664367 0
M  V30 12942 C 1204.89 -3.10762 1.35204 0
M  V30 12943 C 1204.06 -3.51782 2.59939 0
M  V30 12944 C 1203.12 -4.68816 2.38952 0
M  V30 12945 O 1202.14 -4.75686 3.12588 0
M  V30 12946 N 1203.35 -5.624 1.43827 0
M  V30 12947 H 1206.11 -1.68833 2.47619 0
M  V30 12948 H 1203.67 -0.788131 1.41422 0
M  V30 12949 H 1205.66 -3.86819 1.18967 0
M  V30 12950 H 1204.23 -3.09119 0.465203 0
M  V30 12951 H 1203.45 -2.65637 2.91257 0
M  V30 12952 H 1204.74 -3.75948 3.42842 0
M  V30 12953 H 1204.14 -5.59568 0.830669 0
M  V30 12954 H 1202.7 -6.37969 1.33561 0
M  V30 12955 N 1206.13 -1.32992 -0.845635 0
M  V30 12956 C 1207.09 -1.22607 -1.9365 0
M  V30 12957 C 1208.09 -0.146812 -1.60128 0
M  V30 12958 O 1209.28 -0.397863 -1.69596 0
M  V30 12959 C 1206.41 -0.887677 -3.2914 0
M  V30 12960 H 1207.61 -2.19563 -2.04285 0
M  V30 12961 H 1205.16 -1.16952 -1.03691 0
M  V30 12962 H 1205.9 0.0796777 -3.24202 0
M  V30 12963 H 1205.68 -1.66808 -3.54849 0
M  V30 12964 H 1207.17 -0.83958 -4.09073 0
M  V30 12965 N 1207.61 1.06304 -1.1635 0
M  V30 12966 C 1208.88 1.75916 -0.855166 0
M  V30 12967 C 1209.26 2.0094 0.647024 0
M  V30 12968 O 1208.61 1.63642 1.59479 0
M  V30 12969 C 1208.82 3.06028 -1.67774 0
M  V30 12970 C 1210.17 3.80184 -1.89065 0
M  V30 12971 O 1211.19 3.15868 -1.64639 0
M  V30 12972 O 1210.05 4.95723 -2.30045 0
M  V30 12973 H 1207.15 0.764432 -0.315551 0
M  V30 12974 H 1209.69 1.12574 -1.26985 0
M  V30 12975 H 1208.47 2.83498 -2.69712 0
M  V30 12976 H 1208.09 3.77104 -1.26009 0
M  V30 12977 N 1209.09 0.96196 1.24836 0
M  V30 12978 C 1210.33 0.619489 1.92371 0
M  V30 12979 C 1210.65 -0.847233 1.75633 0
M  V30 12980 O 1209.92 -1.60419 1.12439 0
M  V30 12981 H 1208.5 0.226129 0.711951 0
M  V30 12982 H 1211.17 1.22179 1.5185 0
M  V30 12983 H 1210.26 0.855128 3.00157 0
M  V30 12984 N 1210.56 -1.39601 0.731392 0
M  V30 12985 C 1211.97 -1.83424 0.348194 0
M  V30 12986 C 1212.33 -1.61106 -1.11979 0
M  V30 12987 O 1211.45 -1.1003 -1.86339 0
M  V30 12988 C 1212.05 -3.32982 0.6252 0
M  V30 12989 C 1210.6 -3.75238 0.295536 0
M  V30 12990 C 1209.75 -2.62642 0.88964 0
M  V30 12991 H 1212.7 -1.28644 0.929318 0
M  V30 12992 H 1212.72 -3.80357 -0.104254 0
M  V30 12993 H 1212.24 -3.49193 1.69368 0
M  V30 12994 H 1210.34 -3.64615 -0.767254 0
M  V30 12995 H 1210.45 -4.72781 0.775576 0
M  V30 12996 H 1208.81 -2.52726 0.316529 0
M  V30 12997 H 1209.6 -2.81661 1.96271 0
M  V30 12998 N 1212.04 -0.478751 -1.50152 0
M  V30 12999 C 1212.95 0.316554 -2.32455 0
M  V30 13000 C 1213.97 0.98871 -1.4318 0
M  V30 13001 O 1215.14 0.974998 -1.76226 0
M  V30 13002 C 1212.21 1.3799 -3.18056 0
M  V30 13003 C 1211.27 0.723534 -4.23159 0
M  V30 13004 C 1210.5 1.73621 -5.0467 0
M  V30 13005 O 1210.73 2.96362 -4.87366 0
M  V30 13006 O 1209.66 1.30381 -5.87609 0
M  V30 13007 H 1213.49 -0.356491 -3.016 0
M  V30 13008 H 1211.07 -0.24046 -1.47452 0
M  V30 13009 H 1212.95 1.99565 -3.71149 0
M  V30 13010 H 1211.63 2.03627 -2.5163 0
M  V30 13011 H 1210.54 0.0686296 -3.74037 0
M  V30 13012 H 1211.87 0.109979 -4.92077 0
M  V30 13013 N 1213.52 1.56172 -0.211661 0
M  V30 13014 C 1214.43 2.23468 0.714081 0
M  V30 13015 C 1215.45 1.23908 1.22159 0
M  V30 13016 O 1216.62 1.56693 1.26528 0
M  V30 13017 C 1213.69 2.89375 1.90953 0
M  V30 13018 C 1212.75 4.04251 1.44497 0
M  V30 13019 C 1211.98 4.67006 2.58343 0
M  V30 13020 O 1212.2 4.28721 3.76237 0
M  V30 13021 O 1211.14 5.56177 2.3011 0
M  V30 13022 H 1214.96 3.03219 0.170862 0
M  V30 13023 H 1212.55 1.49389 0.0183607 0
M  V30 13024 H 1214.43 3.3101 2.60787 0
M  V30 13025 H 1213.11 2.12591 2.44104 0
M  V30 13026 H 1212.01 3.67205 0.714932 0
M  V30 13027 H 1213.35 4.82748 0.959947 0
M  V30 13028 N 1215 -0.0618163 1.57479 0
M  V30 13029 C 1216.41 -0.416827 1.54061 0
M  V30 13030 C 1216.61 -1.78584 0.933277 0
M  V30 13031 O 1215.67 -2.46656 0.54009 0
M  V30 13032 C 1216.98 -0.348728 2.98671 0
M  V30 13033 C 1218.53 -0.428194 3.10057 0
M  V30 13034 C 1219.01 -0.389898 4.56337 0
M  V30 13035 N 1220.5 -0.449677 4.61012 0
M  V30 13036 C 1221.23 -0.442418 5.71691 0
M  V30 13037 N 1220.73 -0.389381 6.91705 0
M  V30 13038 N 1222.52 -0.489719 5.59963 0
M  V30 13039 H 1214.67 0.834487 1.9532 0
M  V30 13040 H 1216.94 0.314149 0.894435 0
M  V30 13041 H 1216.64 0.590738 3.46703 0
M  V30 13042 H 1216.52 -1.15511 3.59078 0
M  V30 13043 H 1218.9 -1.35808 2.61992 0
M  V30 13044 H 1218.98 0.406946 2.52542 0
M  V30 13045 H 1218.63 0.536186 5.05062 0
M  V30 13046 H 1218.56 -1.24271 5.11727 0
M  V30 13047 H 1221.05 -0.49451 3.74651 0
M  V30 13048 H 1221.36 -0.388042 7.71825 0
M  V30 13049 H 1219.71 -0.355918 6.94088 0
M  V30 13050 H 1222.9 -0.528915 4.65102 0
M  V30 13051 H 1223.07 -0.480592 6.46215 0
M  V30 13052 N 1216.48 -1.54033 -0.333429 0
M  V30 13053 C 1217.89 -1.63107 -0.908455 0
M  V30 13054 C 1218.24 -0.518823 -1.89216 0
M  V30 13055 O 1217.36 0.34985 -2.13553 0
M  V30 13056 C 1217.96 -2.95657 -1.65447 0
M  V30 13057 C 1216.52 -3.0696 -2.17836 0
M  V30 13058 C 1215.66 -2.58617 -1.00063 0
M  V30 13059 H 1218.62 -1.58309 -0.11128 0
M  V30 13060 H 1218.64 -2.85263 -2.51804 0
M  V30 13061 H 1218.15 -3.76588 -0.938263 0
M  V30 13062 H 1216.25 -2.30683 -2.92602 0
M  V30 13063 H 1216.36 -4.12599 -2.43513 0
M  V30 13064 H 1214.73 -2.1427 -1.37697 0
M  V30 13065 H 1215.51 -3.41996 -0.298901 0
M  V30 13066 N 1217.95 0.594978 -1.45938 0
M  V30 13067 C 1219.37 1.17703 -1.44924 0
M  V30 13068 C 1219.72 1.9534 -0.183522 0
M  V30 13069 O 1218.84 2.04276 0.714163 0
M  V30 13070 C 1219.44 2.14119 -2.62561 0
M  V30 13071 C 1218 2.67674 -2.64627 0
M  V30 13072 C 1217.14 1.43312 -2.37397 0
M  V30 13073 H 1220.09 0.383583 -1.53995 0
M  V30 13074 H 1220.11 2.97374 -2.3738 0
M  V30 13075 H 1219.63 1.57586 -3.54667 0
M  V30 13076 H 1217.73 3.28111 -1.76562 0
M  V30 13077 H 1217.84 3.11246 -3.64229 0
M  V30 13078 H 1216.2 1.72702 -1.87206 0
M  V30 13079 H 1216.99 0.886276 -3.31663 0
M  V30 13080 N 1219.43 1.33438 0.838571 0
M  V30 13081 C 1220.4 1.23632 1.92997 0
M  V30 13082 C 1221.4 0.155302 1.60048 0
M  V30 13083 O 1222.59 0.406852 1.69382 0
M  V30 13084 C 1219.72 0.90512 3.28665 0
M  V30 13085 H 1220.91 2.20643 2.03117 0
M  V30 13086 H 1218.46 1.17501 1.03069 0
M  V30 13087 H 1219.2 -0.0624833 3.2424 0
M  V30 13088 H 1218.98 1.68688 3.53959 0
M  V30 13089 H 1220.47 0.861262 4.08622 0
M  V30 13090 N 1220.91 -1.05686 1.16912 0
M  V30 13091 C 1221.87 -2.11481 0.883647 0
M  V30 13092 C 1222.87 -1.60321 -0.124034 0
M  V30 13093 O 1224.06 -1.73868 0.107566 0
M  V30 13094 C 1221.2 -3.3937 0.322649 0
M  V30 13095 H 1222.39 -2.38239 1.8216 0
M  V30 13096 H 1219.94 -1.2185 0.978895 0
M  V30 13097 H 1220.68 -3.18266 -0.622695 0
M  V30 13098 H 1220.46 -3.77812 1.04883 0
M  V30 13099 H 1221.95 -4.17362 0.141072 0
M  V30 13100 N 1222.39 -0.968567 -1.24324 0
M  V30 13101 C 1223.32 -0.518323 -2.27674 0
M  V30 13102 C 1224.3 0.442479 -1.64244 0
M  V30 13103 O 1225.48 0.338416 -1.91229 0
M  V30 13104 C 1222.61 0.191459 -3.46772 0
M  V30 13105 C 1221.57 -0.685449 -4.22476 0
M  V30 13106 C 1220.89 0.155873 -5.34473 0
M  V30 13107 C 1222.19 -1.97047 -4.83704 0
M  V30 13108 H 1223.89 -1.38215 -2.65588 0
M  V30 13109 H 1221.43 -0.66604 -1.27671 0
M  V30 13110 H 1223.39 0.517667 -4.18208 0
M  V30 13111 H 1222.11 1.08965 -3.07887 0
M  V30 13112 H 1220.77 -0.994942 -3.52841 0
M  V30 13113 H 1220.42 1.05424 -4.91828 0
M  V30 13114 H 1220.12 -0.427655 -5.86042 0
M  V30 13115 H 1221.64 0.476733 -6.08736 0
M  V30 13116 H 1223.06 -1.70979 -5.4721 0
M  V30 13117 H 1221.45 -2.50079 -5.45509 0
M  V30 13118 H 1222.52 -2.66484 -4.0511 0
M  V30 13119 N 1223.87 1.39211 -0.738786 0
M  V30 13120 C 1225.28 1.83237 -0.357916 0
M  V30 13121 C 1225.63 1.61698 1.11123 0
M  V30 13122 O 1224.75 1.11017 1.85753 0
M  V30 13123 C 1225.35 3.32645 -0.64285 0
M  V30 13124 C 1223.91 3.75076 -0.315432 0
M  V30 13125 C 1223.05 2.62166 -0.903556 0
M  V30 13126 H 1226.01 1.2815 -0.936127 0
M  V30 13127 H 1226.03 3.80407 0.0840812 0
M  V30 13128 H 1225.54 3.4829 -1.71218 0
M  V30 13129 H 1223.64 3.65017 0.747907 0
M  V30 13130 H 1223.75 4.72363 -0.800638 0
M  V30 13131 H 1222.12 2.52554 -0.329927 0
M  V30 13132 H 1222.9 2.80616 -1.97761 0
M  V30 13133 N 1225.34 0.486708 1.49896 0
M  V30 13134 C 1226.25 -0.304222 2.32619 0
M  V30 13135 C 1227.27 -0.981103 1.43702 0
M  V30 13136 O 1228.45 -0.965639 1.76741 0
M  V30 13137 C 1225.51 -1.36301 3.18783 0
M  V30 13138 C 1224.57 -0.701082 4.23537 0
M  V30 13139 C 1223.81 -1.70943 5.05583 0
M  V30 13140 O 1224.03 -2.93773 4.88931 0
M  V30 13141 O 1222.96 -1.27263 5.88292 0
M  V30 13142 H 1226.79 0.37248 3.01407 0
M  V30 13143 H 1224.37 0.248277 1.47323 0
M  V30 13144 H 1226.26 -1.97594 3.72202 0
M  V30 13145 H 1224.93 -2.0229 2.52706 0
M  V30 13146 H 1223.84 -0.0487926 3.74068 0
M  V30 13147 H 1225.17 -0.0838817 4.92129 0
M  V30 13148 N 1226.82 -1.56058 0.219941 0
M  V30 13149 C 1228.05 -2.031 -0.42014 0
M  V30 13150 C 1228.47 -1.09875 -1.52673 0
M  V30 13151 O 1227.83 -0.0866458 -1.81093 0
M  V30 13152 C 1227.88 -3.48389 -0.93047 0
M  V30 13153 O 1226.98 -3.583 -2.04192 0
M  V30 13154 H 1226.32 -0.657129 -0.0952772 0
M  V30 13155 H 1228.85 -2.01787 0.338105 0
M  V30 13156 H 1228.86 -3.88678 -1.2407 0
M  V30 13157 H 1227.54 -4.15725 -0.120539 0
M  V30 13158 H 1226.12 -3.29898 -1.73845 0
M  V30 13159 N 1228.3 0.053464 -1.57509 0
M  V30 13160 C 1229.53 0.761533 -1.92375 0
M  V30 13161 C 1229.94 1.70179 -0.817585 0
M  V30 13162 O 1229.3 1.81313 0.207843 0
M  V30 13163 C 1229.35 1.53954 -3.27078 0
M  V30 13164 O 1229.07 0.637054 -4.33443 0
M  V30 13165 C 1230.57 2.34697 -3.76075 0
M  V30 13166 H 1227.79 0.215483 -0.635459 0
M  V30 13167 H 1230.34 0.0182624 -2.04492 0
M  V30 13168 H 1228.49 2.23492 -3.16434 0
M  V30 13169 H 1228.91 1.18006 -5.11053 0
M  V30 13170 H 1230.38 2.84716 -4.72906 0
M  V30 13171 H 1230.86 3.15041 -3.06016 0
M  V30 13172 H 1231.46 1.70281 -3.89724 0
M  V30 13173 N 1229.78 1.54207 0.325255 0
M  V30 13174 C 1230.73 1.79856 1.40128 0
M  V30 13175 C 1231.71 0.654503 1.46987 0
M  V30 13176 O 1232.91 0.914453 1.51548 0
M  V30 13177 C 1230.03 2.02786 2.77007 0
M  V30 13178 C 1229.12 3.23309 2.74467 0
M  V30 13179 N 1229.51 4.44396 2.41549 0
M  V30 13180 C 1227.81 3.24848 3.05598 0
M  V30 13181 C 1228.51 5.26325 2.47703 0
M  V30 13182 N 1227.49 4.63468 2.84074 0
M  V30 13183 H 1231.29 2.71056 1.13603 0
M  V30 13184 H 1228.8 1.53379 0.533728 0
M  V30 13185 H 1230.8 2.19301 3.5456 0
M  V30 13186 H 1229.46 1.12839 3.04463 0
M  V30 13187 H 1230.47 4.71426 2.14425 0
M  V30 13188 H 1227.15 2.44929 3.38107 0
M  V30 13189 H 1228.54 6.33016 2.25257 0
M  V30 13190 N 1231.26 -0.58723 1.46251 0
M  V30 13191 C 1232.19 -1.71113 1.50982 0
M  V30 13192 C 1233.17 -1.58466 0.364322 0
M  V30 13193 O 1234.35 -1.79745 0.567812 0
M  V30 13194 C 1231.48 -3.09128 1.38411 0
M  V30 13195 C 1230.53 -3.40308 2.57085 0
M  V30 13196 S 1231.36 -3.32881 4.19464 0
M  V30 13197 C 1232.51 -4.73441 4.09395 0
M  V30 13198 H 1232.75 -1.66841 2.46072 0
M  V30 13199 H 1230.28 -0.765598 1.34082 0
M  V30 13200 H 1232.24 -3.88751 1.31846 0
M  V30 13201 H 1230.9 -3.10895 0.447567 0
M  V30 13202 H 1230.09 -4.40849 2.4427 0
M  V30 13203 H 1229.69 -2.68244 2.60617 0
M  V30 13204 H 1231.99 -5.63723 3.75796 0
M  V30 13205 H 1232.93 -4.91313 5.09919 0
M  V30 13206 H 1233.34 -4.50079 3.40719 0
M  V30 13207 O 1232.77 -1.43987 -0.731442 0
M  V30 13208 H 1233.47 -1.3578 -1.38143 0
M  V30 END ATOM
M  V30 BEGIN BOND
M  V30 END BOND
M  V30 END CTAB
M  END
$$$$
