drugbank_target|P48723 Heat shock 70 kDa protein 13 (DB09130)
 OpenBabel12092121053D

  0  0  0     0  0            999 V3000
M  V30 BEGIN CTAB
M  V30 COUNTS 7363 7427 0 0 0
M  V30 BEGIN ATOM
M  V30 1 H -0.908 1.98254 -0.117106 0
M  V30 2 N 0 1.576 0 0
M  V30 3 C 0.933 2.03868 1.02534 0
M  V30 4 C 1.911 0.928543 1.3348 0
M  V30 5 O 3.095 1.19667 1.45644 0
M  V30 6 C 0.222 2.43627 2.35294 0
M  V30 7 C -0.732 3.65373 2.2001 0
M  V30 8 S 0.101 5.13292 1.52614 0
M  V30 9 C 1.257 5.56322 2.86805 0
M  V30 10 H 1.49 2.90518 0.631377 0
M  V30 11 H -0.977 1.52953 0.210867 0
M  V30 12 H 0.981 2.67203 3.11629 0
M  V30 13 H -0.358 1.57376 2.7183 0
M  V30 14 H -1.165 3.90944 3.18086 0
M  V30 15 H -1.563 3.418 1.51819 0
M  V30 16 H 0.729 5.58782 3.83104 0
M  V30 17 H 1.672 6.56266 2.65933 0
M  V30 18 H 2.08 4.83886 2.90714 0
M  V30 19 N 1.4781 -0.272755 1.55222 0
M  V30 20 C 2.4411 -1.32041 1.87344 0
M  V30 21 C 3.4411 -1.42342 0.74803 0
M  V30 22 O 4.6311 -1.41488 1.0162 0
M  V30 23 C 1.7631 -2.70173 2.07893 0
M  V30 24 H 2.9561 -1.04789 2.80997 0
M  V30 25 H 0.5091 -0.51083 1.47717 0
M  V30 26 H 1.2441 -3.02605 1.16622 0
M  V30 27 H 1.0291 -2.64082 2.89833 0
M  V30 28 H 2.5191 -3.45869 2.34017 0
M  V30 29 N 2.9562 -1.48159 -0.537278 0
M  V30 30 C 4.3722 -1.34118 -0.865129 0
M  V30 31 C 4.5722 -0.346678 -1.98495 0
M  V30 32 O 3.6282 0.234715 -2.51407 0
M  V30 33 C 4.9412 -2.73963 -1.23954 0
M  V30 34 C 6.4892 -2.82397 -1.34984 0
M  V30 35 C 6.9642 -4.22928 -1.75772 0
M  V30 36 N 8.4552 -4.25566 -1.82887 0
M  V30 37 C 9.1902 -5.31235 -2.15817 0
M  V30 38 N 8.6862 -6.47189 -2.47222 0
M  V30 39 N 10.4792 -5.18624 -2.16761 0
M  V30 40 H 2.6302 -2.1144 0.201715 0
M  V30 41 H 4.8932 -0.947598 0.0275949 0
M  V30 42 H 4.5992 -3.48264 -0.490381 0
M  V30 43 H 4.4732 -3.0702 -2.19132 0
M  V30 44 H 6.8602 -2.08356 -2.08978 0
M  V30 45 H 6.9412 -2.5297 -0.379448 0
M  V30 46 H 6.5852 -4.97482 -1.02341 0
M  V30 47 H 6.5152 -4.49794 -2.73848 0
M  V30 48 H 9.0062 -3.41924 -1.60924 0
M  V30 49 H 9.3192 -7.23564 -2.71433 0
M  V30 50 H 7.6642 -6.50476 -2.44757 0
M  V30 51 H 10.8552 -4.27056 -1.91679 0
M  V30 52 H 11.0282 -6.01078 -2.42093 0
M  V30 53 N 4.4343 0.785586 -1.36625 0
M  V30 54 C 5.3443 1.92964 -1.33425 0
M  V30 55 C 6.3603 1.72394 -0.235851 0
M  V30 56 O 7.5363 1.95866 -0.468878 0
M  V30 57 C 4.6013 3.27884 -1.12662 0
M  V30 58 C 3.6623 3.61204 -2.32013 0
M  V30 59 C 2.8953 4.89687 -2.12231 0
M  V30 60 O 3.1183 5.59704 -1.09945 0
M  V30 61 O 2.0523 5.21752 -3.00098 0
M  V30 62 H 5.8783 1.98613 -2.29753 0
M  V30 63 H 3.4633 0.926384 -1.17211 0
M  V30 64 H 5.3453 4.08614 -1.03016 0
M  V30 65 H 4.0203 3.23118 -0.193991 0
M  V30 66 H 2.9273 2.80765 -2.47228 0
M  V30 67 H 4.2603 3.70698 -3.23796 0
M  V30 68 N 5.9124 1.20967 1.01018 0
M  V30 69 C 6.8454 0.907578 2.09376 0
M  V30 70 C 7.8234 -0.142868 1.61971 0
M  V30 71 O 9.0074 -0.0150391 1.88494 0
M  V30 72 C 6.1344 0.361791 3.36762 0
M  V30 73 C 5.1804 1.39423 4.03068 0
M  V30 74 S 6.0134 2.96159 4.4615 0
M  V30 75 C 7.1694 2.43173 5.7673 0
M  V30 76 H 7.4024 1.82519 2.34678 0
M  V30 77 H 4.9354 1.03884 1.14225 0
M  V30 78 H 6.8934 0.0534523 4.10465 0
M  V30 79 H 5.5544 -0.53443 3.0952 0
M  V30 80 H 4.7474 0.961853 4.94737 0
M  V30 81 H 4.3494 1.65038 3.35617 0
M  V30 82 H 6.6414 1.83335 6.52223 0
M  V30 83 H 7.5844 3.33264 6.24773 0
M  V30 84 H 7.9924 1.85069 5.33301 0
M  V30 85 N 7.3905 -1.2043 1.01659 0
M  V30 86 C 8.6185 -1.93777 0.725132 0
M  V30 87 C 9.0335 -1.74772 -0.714166 0
M  V30 88 O 8.3905 -1.06169 -1.4844 0
M  V30 89 C 8.4415 -3.45876 1.05129 0
M  V30 90 O 8.1625 -3.6426 2.43406 0
M  V30 91 C 9.6635 -4.36368 0.780891 0
M  V30 92 H 6.8835 -0.615901 0.266284 0
M  V30 93 H 9.4275 -1.52922 1.35776 0
M  V30 94 H 7.5825 -3.8461 0.464065 0
M  V30 95 H 7.9965 -4.58246 2.55169 0
M  V30 96 H 9.4705 -5.41743 1.05918 0
M  V30 97 H 9.9475 -4.38275 -0.284937 0
M  V30 98 H 10.5535 -4.03296 1.35027 0
M  V30 99 N 8.8686 -0.792821 -1.36206 0
M  V30 100 C 10.1176 -0.363353 -1.984 0
M  V30 101 C 10.4306 1.07172 -1.63626 0
M  V30 102 O 11.6366 1.60362 -2.19081 0
M  V30 103 C 10.0926 -0.59872 -3.54885 0
M  V30 104 C 9.7006 -2.04543 -3.9858 0
M  V30 105 C 11.4446 -0.233926 -4.23855 0
M  V30 106 C 9.3516 -2.22727 -5.47856 0
M  V30 107 H 8.2816 -0.13212 -0.742334 0
M  V30 108 H 10.9326 -0.974935 -1.55458 0
M  V30 109 H 9.3146 0.0826222 -3.95914 0
M  V30 110 H 10.4886 -2.76345 -3.68741 0
M  V30 111 H 8.8036 -2.36879 -3.42458 0
M  V30 112 H 11.4006 -0.348027 -5.33566 0
M  V30 113 H 11.7436 0.818351 -4.08177 0
M  V30 114 H 12.2766 -0.868639 -3.882 0
M  V30 115 H 9.0156 -3.2635 -5.68486 0
M  V30 116 H 8.5356 -1.55434 -5.7931 0
M  V30 117 H 10.2146 -2.03607 -6.14128 0
M  V30 118 N 10.3467 1.47872 -0.545128 0
M  V30 119 C 11.2767 2.32661 0.197793 0
M  V30 120 C 12.2577 1.43041 0.920504 0
M  V30 121 O 13.4427 1.71912 0.90333 0
M  V30 122 C 10.5727 3.24569 1.23582 0
M  V30 123 C 9.5267 4.23333 0.630323 0
M  V30 124 C 8.8527 5.0448 1.77211 0
M  V30 125 C 10.1527 5.20704 -0.407974 0
M  V30 126 H 11.8467 2.95024 -0.510045 0
M  V30 127 H 9.3927 1.4187 -0.246731 0
M  V30 128 H 11.3457 3.8272 1.76362 0
M  V30 129 H 10.0697 2.60236 1.97344 0
M  V30 130 H 8.7287 3.6639 0.123922 0
M  V30 131 H 8.3767 4.36561 2.49847 0
M  V30 132 H 8.0767 5.71339 1.37281 0
M  V30 133 H 9.6007 5.65487 2.3034 0
M  V30 134 H 11.0147 5.7329 0.033305 0
M  V30 135 H 9.4117 5.95699 -0.725486 0
M  V30 136 H 10.4817 4.66917 -1.30828 0
M  V30 137 N 11.8248 0.280983 1.55075 0
M  V30 138 C 13.0728 -0.333455 1.9933 0
M  V30 139 C 13.3938 -1.55937 1.17085 0
M  V30 140 O 12.6638 -1.94143 0.261805 0
M  V30 141 H 11.2438 -0.126197 0.736263 0
M  V30 142 H 13.9058 0.387678 1.91005 0
M  V30 143 H 13.0018 -0.619292 3.05894 0
M  V30 144 N 13.3029 -1.57598 0.00835791 0
M  V30 145 C 14.5279 -1.95617 -0.689103 0
M  V30 146 C 14.9529 -0.883753 -1.66046 0
M  V30 147 O 14.3109 0.157352 -1.80616 0
M  V30 148 C 14.3589 -3.32736 -1.38994 0
M  V30 149 O 13.4629 -3.27631 -2.50463 0
M  V30 150 H 12.8039 -0.638379 -0.182668 0
M  V30 151 H 15.3339 -2.045 0.064036 0
M  V30 152 H 15.3439 -3.68494 -1.75147 0
M  V30 153 H 14.0189 -4.1034 -0.677778 0
M  V30 154 H 12.5959 -3.03561 -2.16576 0
M  V30 155 N 14.781 0.264519 -1.55364 0
M  V30 156 C 15.744 1.31046 -1.88042 0
M  V30 157 C 16.744 1.41943 -0.755569 0
M  V30 158 O 17.934 1.40947 -1.02369 0
M  V30 159 C 15.066 2.69067 -2.09323 0
M  V30 160 H 16.259 1.03297 -2.81549 0
M  V30 161 H 13.812 0.502989 -1.47986 0
M  V30 162 H 14.547 3.01982 -1.18226 0
M  V30 163 H 14.332 2.62542 -2.91229 0
M  V30 164 H 15.822 3.44623 -2.35848 0
M  V30 165 N 16.2591 1.48442 0.529413 0
M  V30 166 C 17.5051 1.5672 1.28711 0
M  V30 167 C 17.8381 0.2406 1.92704 0
M  V30 168 O 17.1131 -0.753454 1.79313 0
M  V30 169 C 17.3961 2.70587 2.37603 0
M  V30 170 C 17.2491 4.12953 1.78297 0
M  V30 171 C 18.5681 2.80212 3.39366 0
M  V30 172 H 15.6871 0.570474 0.466613 0
M  V30 173 H 18.3291 1.80617 0.589706 0
M  V30 174 H 16.4791 2.50342 2.97088 0
M  V30 175 H 18.1511 4.44639 1.22858 0
M  V30 176 H 16.3941 4.19927 1.0883 0
M  V30 177 H 17.0651 4.88448 2.57144 0
M  V30 178 H 19.5411 2.98553 2.89836 0
M  V30 179 H 18.4171 3.61611 4.12951 0
M  V30 180 H 18.6781 1.88393 3.99951 0
M  V30 181 N 17.7372 -0.778329 1.37039 0
M  V30 182 C 18.6672 -1.90546 1.34962 0
M  V30 183 C 19.6482 -1.68681 0.219274 0
M  V30 184 O 20.8332 -1.89634 0.418624 0
M  V30 185 C 17.9632 -3.27734 1.14925 0
M  V30 186 C 16.9172 -3.64147 2.24902 0
M  V30 187 C 16.2432 -4.99806 1.89996 0
M  V30 188 C 17.5432 -3.71579 3.67051 0
M  V30 189 H 19.2372 -1.92541 2.29277 0
M  V30 190 H 16.7832 -0.924948 1.10366 0
M  V30 191 H 18.7362 -4.06215 1.12104 0
M  V30 192 H 17.4602 -3.26154 0.170631 0
M  V30 193 H 16.1192 -2.8797 2.26868 0
M  V30 194 H 15.7672 -4.94759 0.906796 0
M  V30 195 H 15.4672 -5.25139 2.63634 0
M  V30 196 H 16.9912 -5.80694 1.88749 0
M  V30 197 H 18.4052 -4.40227 3.67251 0
M  V30 198 H 16.8022 -4.08405 4.39688 0
M  V30 199 H 17.8722 -2.72404 4.01154 0
M  V30 200 N 19.2153 -1.21501 -1.00376 0
M  V30 201 C 20.4433 -1.059 -1.77744 0
M  V30 202 C 20.8583 0.391125 -1.84704 0
M  V30 203 O 20.2153 1.27133 -1.30933 0
M  V30 204 C 20.2663 -1.65111 -3.21591 0
M  V30 205 O 19.9873 -3.0445 -3.15027 0
M  V30 206 C 21.4883 -1.54637 -4.15454 0
M  V30 207 H 18.7083 -0.371825 -0.558558 0
M  V30 208 H 21.2523 -1.60865 -1.26264 0
M  V30 209 H 19.4073 -1.14235 -3.70175 0
M  V30 210 H 19.8213 -3.3278 -4.0541 0
M  V30 211 H 21.2953 -2.00808 -5.14179 0
M  V30 212 H 21.7723 -0.501022 -4.36333 0
M  V30 213 H 22.3783 -2.04767 -3.72761 0
M  V30 214 N 20.6934 1.19889 -1.02296 0
M  V30 215 C 21.6234 2.25141 -0.619174 0
M  V30 216 C 22.6044 1.66051 0.368915 0
M  V30 217 O 23.7894 1.92546 0.252941 0
M  V30 218 C 20.9194 3.4728 0.0368783 0
M  V30 219 C 19.8734 4.19005 -0.872865 0
M  V30 220 C 19.1994 5.34637 -0.0822402 0
M  V30 221 C 20.4994 4.74452 -2.18387 0
M  V30 222 H 22.1934 2.59171 -1.49903 0
M  V30 223 H 19.7394 1.24579 -0.722222 0
M  V30 224 H 21.6924 4.20098 0.330958 0
M  V30 225 H 20.4164 3.12433 0.95149 0
M  V30 226 H 19.0754 3.48061 -1.15105 0
M  V30 227 H 18.7234 4.96034 0.83422 0
M  V30 228 H 18.4234 5.83557 -0.688149 0
M  V30 229 H 19.9474 6.10255 0.205238 0
M  V30 230 H 21.3614 5.39055 -1.95172 0
M  V30 231 H 19.7584 5.33834 -2.74119 0
M  V30 232 H 20.8284 3.92844 -2.84257 0
M  V30 233 N 22.1715 0.800033 1.35784 0
M  V30 234 C 23.1015 0.220184 2.3246 0
M  V30 235 C 24.0825 -0.65073 1.57161 0
M  V30 236 O 25.2675 -0.582359 1.85263 0
M  V30 237 C 22.3975 -0.637353 3.41402 0
M  V30 238 C 21.3515 0.134531 4.27789 0
M  V30 239 C 20.6775 -0.844285 5.27992 0
M  V30 240 C 21.9775 1.32979 5.05088 0
M  V30 241 H 23.6715 1.02787 2.81203 0
M  V30 242 H 21.2175 0.495717 1.35199 0
M  V30 243 H 23.1705 -1.05302 4.08031 0
M  V30 244 H 21.8945 -1.47785 2.91251 0
M  V30 245 H 20.5535 0.531296 3.6273 0
M  V30 246 H 20.2015 -1.68011 4.74111 0
M  V30 247 H 19.9015 -0.332184 5.8666 0
M  V30 248 H 21.4255 -1.2583 5.97494 0
M  V30 249 H 22.8395 0.98934 5.64699 0
M  V30 250 H 21.2365 1.77593 5.7322 0
M  V30 251 H 22.3065 2.11978 4.36111 0
M  V30 252 N 23.6496 -1.47581 0.552962 0
M  V30 253 C 24.5796 -2.32762 -0.185451 0
M  V30 254 C 25.5606 -1.43527 -0.912905 0
M  V30 255 O 26.7456 -1.72388 -0.894201 0
M  V30 256 C 23.8756 -3.25219 -1.21859 0
M  V30 257 C 22.8296 -4.23661 -0.607864 0
M  V30 258 C 22.1556 -5.05413 -1.74533 0
M  V30 259 C 23.4556 -5.20481 0.435582 0
M  V30 260 H 25.1496 -2.94749 0.525684 0
M  V30 261 H 22.6956 -1.41738 0.254251 0
M  V30 262 H 24.6486 -3.8365 -1.7433 0
M  V30 263 H 23.3726 -2.61279 -1.95961 0
M  V30 264 H 22.0316 -3.66451 -0.104489 0
M  V30 265 H 21.6796 -4.3788 -2.47529 0
M  V30 266 H 21.3796 -5.72059 -1.34249 0
M  V30 267 H 22.9036 -5.66701 -2.27338 0
M  V30 268 H 24.3176 -5.733 -0.00290157 0
M  V30 269 H 22.7146 -5.95305 0.757067 0
M  V30 270 H 23.7846 -4.66217 1.33303 0
M  V30 271 N 25.1277 -0.289203 -1.54924 0
M  V30 272 C 26.0907 0.579144 -2.21762 0
M  V30 273 C 27.0907 1.07047 -1.1999 0
M  V30 274 O 28.2807 0.968384 -1.44803 0
M  V30 275 C 25.4127 1.80055 -2.8947 0
M  V30 276 H 26.6057 -0.00464908 -2.999 0
M  V30 277 H 24.1587 -0.0399306 -1.56249 0
M  V30 278 H 24.8937 2.42449 -2.15381 0
M  V30 279 H 24.6787 1.45602 -3.64064 0
M  V30 280 H 26.1687 2.41773 -3.40493 0
M  V30 281 N 26.6058 1.57591 -0.0167156 0
M  V30 282 C 27.8538 1.90906 0.663285 0
M  V30 283 C 28.1748 0.892509 1.73376 0
M  V30 284 O 27.4448 -0.0677623 1.95783 0
M  V30 285 H 26.0248 0.704637 0.247983 0
M  V30 286 H 28.6868 1.94803 -0.0615909 0
M  V30 287 H 27.7828 2.9116 1.12393 0
M  V30 288 N 28.0839 -0.256276 1.55502 0
M  V30 289 C 29.3139 -1.00196 1.80677 0
M  V30 290 C 29.7219 -1.79805 0.588797 0
M  V30 291 O 29.0649 -1.78055 -0.451883 0
M  V30 292 C 29.1269 -1.99515 2.99055 0
M  V30 293 C 28.7909 -1.38688 4.35448 0
M  V30 294 C 29.7879 -0.794079 5.138 0
M  V30 295 C 27.4729 -1.40906 4.82132 0
M  V30 296 C 29.4669 -0.231562 6.36979 0
M  V30 297 C 27.1539 -0.842684 6.05262 0
M  V30 298 C 28.1519 -0.254953 6.82524 0
M  V30 299 O 27.8399 0.3027 8.0333 0
M  V30 300 H 27.5719 -0.300919 0.60533 0
M  V30 301 H 30.1259 -0.287307 2.03381 0
M  V30 302 H 28.3559 -2.74785 2.72084 0
M  V30 303 H 30.0449 -2.60349 3.11405 0
M  V30 304 H 30.8109 -0.769519 4.78856 0
M  V30 305 H 26.6899 -1.85591 4.21992 0
M  V30 306 H 30.2339 0.227816 6.97228 0
M  V30 307 H 26.1309 -0.86454 6.39684 0
M  V30 308 H 26.8989 0.193662 8.18271 0
M  V30 309 N 29.562 -1.4872 -0.521534 0
M  V30 310 C 30.492 -1.66771 -1.63431 0
M  V30 311 C 31.473 -0.516499 -1.62069 0
M  V30 312 O 32.658 -0.750013 -1.79132 0
M  V30 313 C 29.788 -1.71515 -3.01993 0
M  V30 314 C 28.742 -2.86222 -3.18216 0
M  V30 315 C 28.068 -2.76061 -4.57924 0
M  V30 316 C 29.368 -4.27419 -3.00184 0
M  V30 317 H 31.062 -2.59932 -1.48579 0
M  V30 318 H 28.608 -1.25089 -0.713358 0
M  V30 319 H 30.561 -1.82731 -3.7972 0
M  V30 320 H 29.285 -0.749393 -3.17886 0
M  V30 321 H 27.944 -2.74575 -2.42908 0
M  V30 322 H 27.592 -1.77437 -4.70665 0
M  V30 323 H 27.292 -3.53037 -4.69722 0
M  V30 324 H 28.816 -2.89256 -5.37739 0
M  V30 325 H 30.23 -4.39855 -3.67697 0
M  V30 326 H 28.627 -5.05458 -3.2347 0
M  V30 327 H 29.697 -4.43293 -1.96518 0
M  V30 328 N 31.0401 0.771051 -1.3745 0
M  V30 329 C 32.0031 1.86598 -1.33093 0
M  V30 330 C 33.0031 1.59076 -0.234845 0
M  V30 331 O 34.1931 1.67145 -0.490732 0
M  V30 332 C 31.3251 3.23747 -1.06773 0
M  V30 333 H 32.5181 1.91873 -2.30488 0
M  V30 334 H 30.0711 0.970876 -1.2249 0
M  V30 335 H 30.8061 3.24148 -0.099129 0
M  V30 336 H 30.5911 3.45115 -1.86112 0
M  V30 337 H 32.0811 4.03824 -1.06377 0
M  V30 338 N 32.5182 1.22032 0.997298 0
M  V30 339 C 33.4502 0.944263 2.08845 0
M  V30 340 C 34.4632 -0.0754663 1.62625 0
M  V30 341 O 35.6522 0.157994 1.77799 0
M  V30 342 C 32.7522 0.397723 3.36558 0
M  V30 343 C 31.9252 1.47362 4.11829 0
M  V30 344 C 30.9842 0.934951 5.17827 0
M  V30 345 O 30.0102 1.62016 5.45655 0
M  V30 346 N 31.2122 -0.245895 5.79979 0
M  V30 347 H 33.9772 1.88363 2.33109 0
M  V30 348 H 31.5382 1.12661 1.16272 0
M  V30 349 H 33.5302 0.0227771 4.04694 0
M  V30 350 H 32.1002 -0.446646 3.09393 0
M  V30 351 H 31.3202 2.02208 3.38386 0
M  V30 352 H 32.6082 2.19764 4.58891 0
M  V30 353 H 32.0062 -0.819475 5.59733 0
M  V30 354 H 30.5632 -0.562272 6.4937 0
M  V30 355 N 33.9963 -1.19345 1.0293 0
M  V30 356 C 34.9283 -2.22036 0.56857 0
M  V30 357 C 35.9413 -1.58865 -0.355779 0
M  V30 358 O 37.1303 -1.77851 -0.152103 0
M  V30 359 C 34.2303 -3.38363 -0.190752 0
M  V30 360 C 33.4033 -4.31118 0.738643 0
M  V30 361 C 32.4623 -5.26194 0.0246497 0
M  V30 362 O 31.4883 -5.65461 0.651354 0
M  V30 363 N 32.6903 -5.66971 -1.24594 0
M  V30 364 H 35.4553 -2.6219 1.45177 0
M  V30 365 H 33.0163 -1.34015 0.908381 0
M  V30 366 H 35.0083 -3.98981 -0.677961 0
M  V30 367 H 33.5783 -2.96994 -0.975366 0
M  V30 368 H 32.7983 -3.68276 1.40593 0
M  V30 369 H 34.0863 -4.90001 1.37029 0
M  V30 370 H 33.4843 -5.37104 -1.77583 0
M  V30 371 H 32.0413 -6.2984 -1.67764 0
M  V30 372 N 35.4744 -0.807222 -1.35358 0
M  V30 373 C 36.7044 -0.399796 -2.02695 0
M  V30 374 C 37.1124 0.994176 -1.60974 0
M  V30 375 O 36.4554 1.65209 -0.803226 0
M  V30 376 C 36.5174 -0.404445 -3.57218 0
M  V30 377 C 36.1814 -1.74904 -4.22206 0
M  V30 378 C 37.1784 -2.70743 -4.4384 0
M  V30 379 C 34.8634 -2.03322 -4.5931 0
M  V30 380 C 36.8574 -3.93183 -5.01683 0
M  V30 381 C 34.5444 -3.26026 -5.16866 0
M  V30 382 C 35.5424 -4.20774 -5.37994 0
M  V30 383 O 35.2304 -5.41312 -5.94337 0
M  V30 384 H 34.9624 -0.160517 -0.656666 0
M  V30 385 H 37.5164 -1.09235 -1.73945 0
M  V30 386 H 35.7464 0.344707 -3.85161 0
M  V30 387 H 37.4354 -0.0192429 -4.05895 0
M  V30 388 H 38.2014 -2.5008 -4.15554 0
M  V30 389 H 34.0804 -1.30384 -4.42178 0
M  V30 390 H 37.6244 -4.6715 -5.1809 0
M  V30 391 H 33.5214 -3.46559 -5.44579 0
M  V30 392 H 34.2894 -5.42618 -6.12787 0
M  V30 393 N 36.9525 1.47285 -0.560781 0
M  V30 394 C 37.8825 2.32857 0.173105 0
M  V30 395 C 38.8635 1.44009 0.905281 0
M  V30 396 O 40.0485 1.7286 0.885046 0
M  V30 397 C 37.1785 3.25861 1.20133 0
M  V30 398 C 36.1325 4.23978 0.585388 0
M  V30 399 C 35.4585 5.06332 1.7185 0
M  V30 400 C 36.7585 5.20242 -0.463178 0
M  V30 401 H 38.4525 2.94466 -0.541307 0
M  V30 402 H 35.9985 1.41601 -0.261764 0
M  V30 403 H 37.9515 3.84569 1.72293 0
M  V30 404 H 36.6755 2.62315 1.94573 0
M  V30 405 H 35.3345 3.66501 0.085054 0
M  V30 406 H 34.9825 4.39186 2.45203 0
M  V30 407 H 34.6825 5.72762 1.31213 0
M  V30 408 H 36.2065 5.67899 2.24329 0
M  V30 409 H 37.6205 5.73293 -0.027502 0
M  V30 410 H 36.0175 5.94896 -0.788627 0
M  V30 411 H 37.0875 4.65504 -1.35773 0
M  V30 412 N 38.4306 0.297415 1.54768 0
M  V30 413 C 39.8416 -0.195947 1.85669 0
M  V30 414 C 40.1926 -1.53707 1.21937 0
M  V30 415 O 39.3176 -2.10164 0.515754 0
M  V30 416 C 39.9126 -0.362318 3.36857 0
M  V30 417 C 38.4716 -0.799901 3.67802 0
M  V30 418 C 37.6186 0.0938578 2.77141 0
M  V30 419 H 40.5696 0.518538 1.4999 0
M  V30 420 H 40.5906 -1.19745 3.61167 0
M  V30 421 H 40.1026 0.613921 3.83214 0
M  V30 422 H 38.2036 -1.78682 3.26961 0
M  V30 423 H 38.3166 -0.621773 4.75048 0
M  V30 424 H 36.6806 -0.426254 2.51108 0
M  V30 425 H 37.4636 1.06639 3.26318 0
M  V30 426 N 39.9087 -1.5758 0.0250728 0
M  V30 427 C 40.8387 -2.13007 -0.956575 0
M  V30 428 C 41.8197 -1.0452 -1.342 0
M  V30 429 O 43.0047 -1.32332 -1.42133 0
M  V30 430 C 40.1347 -2.65386 -2.24026 0
M  V30 431 C 39.0887 -3.78623 -1.99571 0
M  V30 432 C 38.4147 -4.17414 -3.3417 0
M  V30 433 C 39.7147 -5.04867 -1.33814 0
M  V30 434 H 41.4087 -2.9528 -0.494991 0
M  V30 435 H 38.9547 -1.42042 -0.236651 0
M  V30 436 H 40.9077 -3.02794 -2.93076 0
M  V30 437 H 39.6317 -1.80268 -2.72343 0
M  V30 438 H 38.2907 -3.41646 -1.32941 0
M  V30 439 H 37.9387 -3.29284 -3.80238 0
M  V30 440 H 37.6387 -4.93719 -3.18615 0
M  V30 441 H 39.1627 -4.57402 -4.04495 0
M  V30 442 H 40.5767 -5.39888 -1.92857 0
M  V30 443 H 38.9737 -5.86144 -1.28669 0
M  V30 444 H 40.0437 -4.83904 -0.310561 0
M  V30 445 N 41.3868 0.248026 -1.55636 0
M  V30 446 C 42.7978 0.817177 -1.67866 0
M  V30 447 C 43.1488 1.86069 -0.622322 0
M  V30 448 O 42.2738 2.15157 0.231618 0
M  V30 449 C 42.8688 1.489 -3.04326 0
M  V30 450 C 41.4278 2.00587 -3.185 0
M  V30 451 C 40.5748 0.856573 -2.63739 0
M  V30 452 H 43.5258 0.0238579 -1.58682 0
M  V30 453 H 43.5468 2.35698 -2.98708 0
M  V30 454 H 43.0588 0.729279 -3.81186 0
M  V30 455 H 41.1598 2.79443 -2.4646 0
M  V30 456 H 41.2728 2.20402 -4.25393 0
M  V30 457 H 39.6368 1.25678 -2.21534 0
M  V30 458 H 40.4198 0.109953 -3.43124 0
M  V30 459 N 42.8649 1.48995 0.513639 0
M  V30 460 C 44.0929 1.61531 1.29288 0
M  V30 461 C 44.5079 0.281801 1.86685 0
M  V30 462 O 43.8649 -0.731111 1.67215 0
M  V30 463 C 43.9159 2.67449 2.43215 0
M  V30 464 O 43.6369 3.95626 1.88179 0
M  V30 465 C 45.1379 2.90575 3.34785 0
M  V30 466 H 42.3579 0.544165 0.392588 0
M  V30 467 H 44.9019 1.9494 0.617956 0
M  V30 468 H 43.0569 2.36853 3.0656 0
M  V30 469 H 43.4709 4.53868 2.62876 0
M  V30 470 H 44.9449 3.68449 4.11035 0
M  V30 471 H 45.4219 2.00011 3.91015 0
M  V30 472 H 46.0279 3.22538 2.77218 0
M  V30 473 N 44.343 -0.763751 1.37857 0
M  V30 474 C 45.754 -1.3405 1.29952 0
M  V30 475 C 46.105 -1.96138 -0.0492898 0
M  V30 476 O 45.23 -1.94372 -0.951239 0
M  V30 477 C 45.825 -2.43729 2.35333 0
M  V30 478 C 44.384 -2.97151 2.31037 0
M  V30 479 C 43.531 -1.70438 2.18738 0
M  V30 480 H 46.482 -0.563396 1.48363 0
M  V30 481 H 46.503 -3.23412 2.00462 0
M  V30 482 H 46.015 -1.9851 3.33489 0
M  V30 483 H 44.116 -3.46724 1.3643 0
M  V30 484 H 44.229 -3.52221 3.24772 0
M  V30 485 H 42.593 -1.93673 1.65418 0
M  V30 486 H 43.376 -1.27312 3.18821 0
M  V30 487 N 45.8211 -1.22559 -0.990812 0
M  V30 488 C 46.7681 -0.997519 -2.0813 0
M  V30 489 C 47.7381 0.0814702 -1.659 0
M  V30 490 O 48.9231 -0.0685424 -1.90677 0
M  V30 491 C 46.0631 -0.583615 -3.40129 0
M  V30 492 C 45.1761 -1.7336 -3.9569 0
M  V30 493 C 44.3111 -1.26748 -5.15857 0
M  V30 494 C 43.3501 -2.38888 -5.63559 0
M  V30 495 N 42.4871 -1.93308 -6.74964 0
M  V30 496 H 47.3271 -1.93099 -2.26973 0
M  V30 497 H 44.8641 -0.962114 -1.11273 0
M  V30 498 H 46.8221 -0.324801 -4.15934 0
M  V30 499 H 45.4521 0.312845 -3.2128 0
M  V30 500 H 44.5041 -2.10669 -3.16738 0
M  V30 501 H 45.8161 -2.57704 -4.27071 0
M  V30 502 H 44.9701 -0.966173 -5.98957 0
M  V30 503 H 43.7091 -0.394272 -4.86104 0
M  V30 504 H 42.7141 -2.69805 -4.79046 0
M  V30 505 H 43.9391 -3.26728 -5.95336 0
M  V30 506 H 41.8851 -1.08352 -6.4699 0
M  V30 507 H 41.8021 -2.71217 -7.05675 0
M  V30 508 H 43.0701 -1.66252 -7.61564 0
M  V30 509 N 47.2992 1.18797 -1.03562 0
M  V30 510 C 48.5452 1.8893 -0.737113 0
M  V30 511 C 48.8782 1.79837 0.732956 0
M  V30 512 O 48.1532 1.19525 1.5344 0
M  V30 513 C 48.4362 3.39607 -1.19745 0
M  V30 514 C 48.2892 3.57537 -2.72924 0
M  V30 515 C 49.6082 4.33069 -0.783526 0
M  V30 516 H 46.7272 0.686057 -0.269249 0
M  V30 517 H 49.3692 1.39797 -1.28673 0
M  V30 518 H 47.5192 3.81583 -0.729855 0
M  V30 519 H 49.1912 3.24688 -3.27682 0
M  V30 520 H 47.4342 3.00363 -3.12993 0
M  V30 521 H 48.1052 4.63238 -3.00191 0
M  V30 522 H 50.5812 3.98846 -1.18581 0
M  V30 523 H 49.4572 5.3707 -1.13343 0
M  V30 524 H 49.7182 4.40986 0.313681 0
M  V30 525 N 48.7773 0.814389 1.34928 0
M  V30 526 C 50.0263 0.394871 1.97797 0
M  V30 527 C 50.3393 -1.04555 1.65311 0
M  V30 528 O 51.5453 -1.56856 2.21604 0
M  V30 529 C 50.0013 0.655103 3.53888 0
M  V30 530 C 49.6093 2.10858 3.95276 0
M  V30 531 C 51.3533 0.301329 4.23429 0
M  V30 532 C 49.2603 2.31415 5.44244 0
M  V30 533 H 48.1903 0.143913 0.740139 0
M  V30 534 H 50.8413 0.999544 1.53888 0
M  V30 535 H 49.2233 -0.0196253 3.95995 0
M  V30 536 H 50.3973 2.82176 3.64298 0
M  V30 537 H 48.7123 2.42297 3.38646 0
M  V30 538 H 51.3093 0.432869 5.32945 0
M  V30 539 H 51.6523 -0.75331 4.09428 0
M  V30 540 H 52.1853 0.930288 3.86769 0
M  V30 541 H 48.9243 3.35353 5.63222 0
M  V30 542 H 48.4443 1.6463 5.76764 0
M  V30 543 H 50.1233 2.13352 6.10811 0
M  V30 544 N 50.2554 -1.46986 0.568584 0
M  V30 545 C 51.5034 -2.02041 0.0487022 0
M  V30 546 C 51.8244 -1.44408 -1.31039 0
M  V30 547 O 51.0944 -0.623477 -1.85714 0
M  V30 548 H 49.6744 -0.746849 0.015014 0
M  V30 549 H 52.3364 -1.80257 0.741168 0
M  V30 550 H 51.4324 -3.12085 -0.0308961 0
M  V30 551 N 51.7335 -0.305618 -1.54608 0
M  V30 552 C 52.9825 0.303098 -1.9941 0
M  V30 553 C 53.2955 1.54648 -1.19764 0
M  V30 554 O 54.5015 2.23007 -1.54855 0
M  V30 555 C 52.9575 0.590588 -3.55021 0
M  V30 556 C 52.5655 -0.634719 -4.43481 0
M  V30 557 C 54.3095 1.16025 -4.08336 0
M  V30 558 C 52.2165 -0.320126 -5.90533 0
M  V30 559 H 51.1465 0.117031 -0.744862 0
M  V30 560 H 53.7975 -0.415045 -1.78745 0
M  V30 561 H 52.1795 1.36845 -3.71604 0
M  V30 562 H 53.3535 -1.41079 -4.38672 0
M  V30 563 H 51.6685 -1.12333 -4.00962 0
M  V30 564 H 54.2655 1.40994 -5.15776 0
M  V30 565 H 54.6085 2.10397 -3.5922 0
M  V30 566 H 55.1415 0.443985 -3.95315 0
M  V30 567 H 51.8805 -1.23254 -6.43808 0
M  V30 568 H 51.4005 0.418579 -5.98338 0
M  V30 569 H 53.0795 0.0766241 -6.46955 0
M  V30 570 N 53.2116 1.57565 -0.0334293 0
M  V30 571 C 54.4886 1.83282 0.683163 0
M  V30 572 C 54.8686 0.91823 1.90084 0
M  V30 573 O 54.2166 -0.025113 2.28486 0
M  V30 574 C 54.4266 3.32599 1.0573 0
M  V30 575 C 55.7746 3.99179 1.44711 0
M  V30 576 O 56.7986 3.3712 1.15015 0
M  V30 577 O 55.6576 5.08565 2.0006 0
M  V30 578 H 52.7516 0.755869 0.335546 0
M  V30 579 H 55.2976 1.69589 -0.0614402 0
M  V30 580 H 54.0696 3.90834 0.190828 0
M  V30 581 H 53.6926 3.51415 1.85993 0
M  V30 582 N 54.6897 -0.239769 1.55765 0
M  V30 583 C 55.6197 -1.30052 1.9393 0
M  V30 584 C 56.6007 -1.49839 0.805132 0
M  V30 585 O 57.7857 -1.62328 1.06599 0
M  V30 586 C 54.9157 -2.65391 2.2402 0
M  V30 587 C 53.8697 -2.60289 3.39755 0
M  V30 588 C 53.1957 -3.99489 3.55405 0
M  V30 589 C 54.4957 -2.16654 4.75246 0
M  V30 590 H 56.1897 -0.983573 2.82783 0
M  V30 591 H 53.7357 -0.471701 1.36055 0
M  V30 592 H 55.6887 -3.3974 2.49308 0
M  V30 593 H 54.4127 -2.98736 1.32 0
M  V30 594 H 53.0717 -1.88398 3.14487 0
M  V30 595 H 52.7197 -4.30112 2.60793 0
M  V30 596 H 52.4197 -3.96962 4.33238 0
M  V30 597 H 53.9437 -4.75528 3.83022 0
M  V30 598 H 55.3577 -2.80737 4.99859 0
M  V30 599 H 53.7547 -2.25223 5.56232 0
M  V30 600 H 54.8247 -1.11835 4.71827 0
M  V30 601 N 56.1678 -1.49265 -0.50573 0
M  V30 602 C 57.4158 -1.582 -1.25766 0
M  V30 603 C 57.7368 -0.268482 -1.93143 0
M  V30 604 O 57.0068 0.711833 -1.8251 0
M  V30 605 H 55.5868 -0.582873 -0.467191 0
M  V30 606 H 58.2488 -1.85865 -0.586525 0
M  V30 607 H 57.3448 -2.37563 -2.02412 0
M  V30 608 N 57.6459 0.756429 -1.3826 0
M  V30 609 C 58.8739 1.54565 -1.3754 0
M  V30 610 C 59.2889 1.88767 0.0355331 0
M  V30 611 O 58.6459 1.52572 1.0014 0
M  V30 612 C 58.6969 2.84654 -2.22833 0
M  V30 613 O 58.4179 2.51912 -3.5843 0
M  V30 614 C 59.9189 3.78807 -2.30261 0
M  V30 615 H 57.1389 0.478353 -0.470553 0
M  V30 616 H 59.6829 0.936381 -1.81803 0
M  V30 617 H 57.8379 3.41965 -1.8204 0
M  V30 618 H 58.2519 3.35325 -4.03308 0
M  V30 619 H 59.7259 4.67045 -2.94233 0
M  V30 620 H 60.2029 4.19038 -1.31545 0
M  V30 621 H 60.8089 3.2742 -2.71433 0
M  V30 622 N 59.124 1.23083 0.984299 0
M  V30 623 C 60.352 1.08714 1.76037 0
M  V30 624 C 60.767 -0.361691 1.85303 0
M  V30 625 O 60.124 -1.25034 1.32939 0
M  V30 626 C 60.175 1.70206 3.18923 0
M  V30 627 O 59.896 3.09423 3.10144 0
M  V30 628 C 61.397 1.61227 4.12941 0
M  V30 629 H 58.617 0.380664 0.552572 0
M  V30 630 H 61.161 1.62853 1.23689 0
M  V30 631 H 59.316 1.20109 3.6831 0
M  V30 632 H 59.73 3.39188 4.00065 0
M  V30 633 H 61.204 2.08962 5.10919 0
M  V30 634 H 61.681 0.570375 4.35481 0
M  V30 635 H 62.287 2.10671 3.69456 0
M  V30 636 N 60.6021 -1.18246 1.0419 0
M  V30 637 C 61.8321 -1.91916 0.764961 0
M  V30 638 C 62.2401 -1.76485 -0.681898 0
M  V30 639 O 61.5831 -1.09275 -1.47664 0
M  V30 640 C 61.6451 -3.4373 1.05309 0
M  V30 641 C 61.3091 -3.8294 2.4941 0
M  V30 642 C 62.3061 -3.86621 3.47592 0
M  V30 643 C 59.9911 -4.142 2.84155 0
M  V30 644 C 61.9851 -4.21013 4.78568 0
M  V30 645 C 59.6721 -4.48262 4.15337 0
M  V30 646 C 60.6701 -4.51645 5.12353 0
M  V30 647 O 60.3581 -4.84911 6.41183 0
M  V30 648 H 60.0901 -0.61606 0.278292 0
M  V30 649 H 62.6441 -1.50947 1.39299 0
M  V30 650 H 60.8741 -3.84946 0.367933 0
M  V30 651 H 62.5631 -3.9865 0.763752 0
M  V30 652 H 63.3291 -3.62607 3.22089 0
M  V30 653 H 59.2081 -4.10743 2.09311 0
M  V30 654 H 62.7521 -4.23568 5.54289 0
M  V30 655 H 58.6491 -4.71737 4.40607 0
M  V30 656 H 59.4171 -5.02809 6.45852 0
M  V30 657 N 62.0802 -0.821533 -1.34494 0
M  V30 658 C 63.3202 -0.414785 -2.00147 0
M  V30 659 C 63.6842 1.00299 -1.6372 0
M  V30 660 O 64.8852 1.51255 -2.22206 0
M  V30 661 C 63.1562 -0.609403 -3.52166 0
M  V30 662 S 64.7152 -0.295297 -4.37805 0
M  V30 663 H 61.5332 -0.15679 -0.693497 0
M  V30 664 H 64.1352 -1.06705 -1.63812 0
M  V30 665 H 62.8392 -1.64096 -3.76166 0
M  V30 666 H 62.3702 0.0576414 -3.93358 0
M  V30 667 H 64.3852 0.891531 -4.88125 0
M  V30 668 N 63.5583 1.46682 -0.576371 0
M  V30 669 C 64.7833 2.07304 -0.0630475 0
M  V30 670 C 65.2083 1.42329 1.2298 0
M  V30 671 O 64.5663 0.504865 1.74129 0
M  V30 672 C 64.6143 3.60472 0.095895 0
M  V30 673 O 63.7183 3.95927 1.15394 0
M  V30 674 H 63.0593 0.661288 -0.0599463 0
M  V30 675 H 65.5893 1.88417 -0.797511 0
M  V30 676 H 65.5993 4.06865 0.304071 0
M  V30 677 H 64.2743 4.07157 -0.84828 0
M  V30 678 H 62.8513 3.61252 0.924724 0
M  V30 679 N 65.0364 0.313813 1.54444 0
M  V30 680 C 66.2824 -0.292108 2.00685 0
M  V30 681 C 66.6154 -1.52548 1.20177 0
M  V30 682 O 65.8904 -1.92452 0.281531 0
M  V30 683 C 66.1734 -0.635968 3.5444 0
M  V30 684 C 66.0264 0.607437 4.4568 0
M  V30 685 C 67.3454 -1.45747 4.15266 0
M  V30 686 H 64.4644 -0.104697 0.729526 0
M  V30 687 H 67.1064 0.428457 1.85106 0
M  V30 688 H 65.2564 -1.24986 3.67846 0
M  V30 689 H 66.9284 1.24581 4.44159 0
M  V30 690 H 65.1714 1.23822 4.15753 0
M  V30 691 H 65.8424 0.322515 5.51057 0
M  V30 692 H 68.3184 -0.938645 4.05375 0
M  V30 693 H 67.1944 -1.66683 5.2298 0
M  V30 694 H 67.4554 -2.45063 3.67963 0
M  V30 695 N 66.5145 -1.57545 0.0417849 0
M  V30 696 C 67.7625 -1.91937 -0.632829 0
M  V30 697 C 68.0835 -0.919978 -1.71934 0
M  V30 698 O 67.3535 0.0366064 -1.95866 0
M  V30 699 H 65.9335 -0.708493 -0.236742 0
M  V30 700 H 68.5955 -1.9468 0.0925745 0
M  V30 701 H 67.6915 -2.92912 -1.07746 0
M  V30 702 N 67.9926 0.231505 -1.5589 0
M  V30 703 C 69.2386 0.95877 -1.78705 0
M  V30 704 C 69.5716 1.8438 -0.609725 0
M  V30 705 O 68.8466 1.90521 0.391426 0
M  V30 706 C 69.1296 1.8062 -3.11526 0
M  V30 707 C 68.9826 0.948328 -4.39689 0
M  V30 708 C 70.3016 2.78585 -3.40703 0
M  V30 709 H 67.4206 0.347129 -0.650131 0
M  V30 710 H 70.0626 0.228259 -1.88624 0
M  V30 711 H 68.2126 2.42902 -3.03201 0
M  V30 712 H 69.8846 0.343016 -4.60023 0
M  V30 713 H 68.1276 0.253314 -4.3306 0
M  V30 714 H 68.7986 1.57543 -5.29041 0
M  V30 715 H 71.2746 2.26439 -3.49091 0
M  V30 716 H 70.1506 3.34988 -4.34826 0
M  V30 717 H 70.4116 3.55825 -2.62375 0
M  V30 718 N 69.4707 1.49531 0.497807 0
M  V30 719 C 70.7177 1.59179 1.25173 0
M  V30 720 C 71.0457 0.279932 1.92475 0
M  V30 721 O 70.3007 -0.732383 1.81479 0
M  V30 722 C 70.5997 2.70252 2.33878 0
M  V30 723 C 70.2657 4.11644 1.84012 0
M  V30 724 C 68.9277 4.50121 1.70132 0
M  V30 725 C 71.2797 5.00121 1.46725 0
M  V30 726 C 68.6077 5.74845 1.17348 0
M  V30 727 C 70.9597 6.25366 0.95392 0
M  V30 728 C 69.6237 6.6267 0.801538 0
M  V30 729 H 68.8937 0.582478 0.45804 0
M  V30 730 H 71.5407 1.83373 0.551948 0
M  V30 731 H 69.8457 2.40041 3.09657 0
M  V30 732 H 71.5427 2.74925 2.9192 0
M  V30 733 H 68.1327 3.81274 1.95775 0
M  V30 734 H 72.3167 4.71048 1.56294 0
M  V30 735 H 67.5727 6.02444 1.04264 0
M  V30 736 H 71.7467 6.93301 0.656225 0
M  V30 737 H 69.3737 7.59197 0.390351 0
M  V30 738 N 70.9488 -0.749086 1.3866 0
M  V30 739 C 72.1958 -1.50833 1.35114 0
M  V30 740 C 72.5238 -1.94415 -0.0574049 0
M  V30 741 O 71.7788 -1.66065 -1.03541 0
M  V30 742 C 72.0778 -2.7712 2.25697 0
M  V30 743 C 71.7438 -2.52477 3.73585 0
M  V30 744 C 70.4058 -2.45466 4.13884 0
M  V30 745 C 72.7578 -2.31066 4.67181 0
M  V30 746 C 70.0858 -2.15064 5.45861 0
M  V30 747 C 72.4378 -2.02183 5.9942 0
M  V30 748 C 71.1018 -1.93631 6.38798 0
M  V30 749 H 70.3718 -0.551936 0.494416 0
M  V30 750 H 73.0188 -0.860979 1.71054 0
M  V30 751 H 71.3238 -3.46528 1.82827 0
M  V30 752 H 73.0208 -3.35096 2.20254 0
M  V30 753 H 69.6108 -2.58807 3.41638 0
M  V30 754 H 73.7948 -2.35459 4.3689 0
M  V30 755 H 69.0508 -2.06954 5.75308 0
M  V30 756 H 73.2248 -1.8462 6.71482 0
M  V30 757 H 70.8518 -1.69839 7.40985 0
M  V30 758 N 72.4269 -1.23603 -0.977757 0
M  V30 759 C 73.8379 -1.06424 -1.53398 0
M  V30 760 C 74.1889 0.367578 -1.92726 0
M  V30 761 O 73.3139 1.25465 -1.76316 0
M  V30 762 C 73.9089 -1.92568 -2.78753 0
M  V30 763 C 72.4679 -1.79642 -3.30765 0
M  V30 764 C 71.6149 -1.88111 -2.03739 0
M  V30 765 H 74.5659 -1.37227 -0.797152 0
M  V30 766 H 74.5869 -1.45203 -3.51705 0
M  V30 767 H 74.0989 -2.96771 -2.50098 0
M  V30 768 H 72.1999 -0.782325 -3.64294 0
M  V30 769 H 72.3129 -2.63174 -4.00345 0
M  V30 770 H 70.6769 -1.31723 -2.17994 0
M  V30 771 H 71.4599 -2.93875 -1.77461 0
M  V30 772 N 73.905 1.17692 -1.04816 0
M  V30 773 C 75.153 1.87488 -0.754497 0
M  V30 774 C 75.474 1.81205 0.720407 0
M  V30 775 O 74.744 1.23544 1.52032 0
M  V30 776 H 73.324 0.694101 -0.276102 0
M  V30 777 H 75.986 1.42793 -1.32651 0
M  V30 778 H 75.082 2.93328 -1.06606 0
M  V30 779 N 75.3831 0.828654 1.34056 0
M  V30 780 C 76.6111 0.43262 2.02326 0
M  V30 781 C 77.0261 -0.963147 1.62385 0
M  V30 782 O 76.3831 -1.62425 0.832121 0
M  V30 783 C 76.4341 0.53182 3.57567 0
M  V30 784 O 76.1551 1.87258 3.96063 0
M  V30 785 C 77.6561 0.131422 4.43105 0
M  V30 786 H 74.8761 0.172923 0.648335 0
M  V30 787 H 77.4201 1.1184 1.71208 0
M  V30 788 H 75.5751 -0.105938 3.87255 0
M  V30 789 H 75.9891 1.85087 4.90758 0
M  V30 790 H 77.4631 0.251904 5.51425 0
M  V30 791 H 77.9401 -0.925645 4.29335 0
M  V30 792 H 78.5461 0.743207 4.18756 0
M  V30 793 N 76.8612 -1.46375 0.584142 0
M  V30 794 C 78.1092 -2.01978 0.0701287 0
M  V30 795 C 78.4302 -1.4579 -1.295 0
M  V30 796 O 77.7002 -0.64314 -1.85042 0
M  V30 797 H 76.2802 -0.746648 0.0229345 0
M  V30 798 H 78.9422 -1.79461 0.760245 0
M  V30 799 H 78.0382 -3.121 0.0022064 0
M  V30 800 N 78.3393 -0.321999 -1.54275 0
M  V30 801 C 79.2863 0.544664 -2.24281 0
M  V30 802 C 80.2563 1.1129 -1.23303 0
M  V30 803 O 81.4413 1.15354 -1.51981 0
M  V30 804 C 78.5813 1.70045 -3.00298 0
M  V30 805 C 77.6943 1.16159 -4.1609 0
M  V30 806 C 76.8293 2.28293 -4.79641 0
M  V30 807 C 75.8683 1.71648 -5.8754 0
M  V30 808 N 75.0053 2.77438 -6.44959 0
M  V30 809 H 79.8453 -0.0588907 -2.97942 0
M  V30 810 H 77.3823 -0.0408345 -1.47043 0
M  V30 811 H 79.3403 2.38054 -3.42616 0
M  V30 812 H 77.9703 2.27531 -2.28975 0
M  V30 813 H 77.0223 0.373092 -3.78566 0
M  V30 814 H 78.3343 0.707087 -4.93763 0
M  V30 815 H 77.4883 3.0421 -5.2492 0
M  V30 816 H 76.2273 2.77079 -4.01346 0
M  V30 817 H 75.2323 0.942282 -5.41665 0
M  V30 818 H 76.4573 1.23741 -6.67731 0
M  V30 819 H 74.4033 3.25519 -5.69538 0
M  V30 820 H 74.3203 2.36547 -7.1804 0
M  V30 821 H 75.5883 3.53189 -6.94894 0
M  V30 822 N 79.8174 1.5752 -0.0501392 0
M  V30 823 C 81.0634 1.92936 0.624798 0
M  V30 824 C 81.3964 0.928685 1.70555 0
M  V30 825 O 80.6714 -0.0454779 1.94447 0
M  V30 826 C 80.9544 3.38737 1.22185 0
M  V30 827 C 80.8074 4.49552 0.149218 0
M  V30 828 C 82.1264 3.84913 2.13378 0
M  V30 829 H 79.2454 0.701604 0.225657 0
M  V30 830 H 81.8874 1.89671 -0.111693 0
M  V30 831 H 80.0374 3.4165 1.84953 0
M  V30 832 H 81.7094 4.58768 -0.482648 0
M  V30 833 H 79.9524 4.30638 -0.522841 0
M  V30 834 H 80.6234 5.48653 0.606966 0
M  V30 835 H 83.0994 3.8387 1.60572 0
M  V30 836 H 81.9754 4.87584 2.52097 0
M  V30 837 H 82.2364 3.21611 3.03346 0
M  V30 838 N 81.2955 -0.223234 1.56011 0
M  V30 839 C 82.2425 -1.27664 1.92277 0
M  V30 840 C 83.2125 -1.46659 0.779763 0
M  V30 841 O 84.3975 -1.60256 1.03551 0
M  V30 842 C 81.5375 -2.62234 2.24338 0
M  V30 843 C 80.6505 -2.51051 3.51564 0
M  V30 844 C 79.7855 -3.78133 3.7308 0
M  V30 845 C 78.8245 -3.61665 4.93827 0
M  V30 846 N 77.9615 -4.80693 5.11741 0
M  V30 847 H 82.8015 -0.960358 2.82101 0
M  V30 848 H 80.3385 -0.462901 1.39627 0
M  V30 849 H 82.2965 -3.40596 2.40936 0
M  V30 850 H 80.9265 -2.91961 1.3769 0
M  V30 851 H 79.9785 -1.64132 3.43169 0
M  V30 852 H 81.2905 -2.34803 4.40079 0
M  V30 853 H 80.4445 -4.64938 3.89766 0
M  V30 854 H 79.1835 -3.97304 2.82844 0
M  V30 855 H 78.1885 -2.73244 4.77093 0
M  V30 856 H 79.4135 -3.43966 5.85546 0
M  V30 857 H 77.3595 -5.00181 4.24446 0
M  V30 858 H 77.2765 -4.67165 5.94384 0
M  V30 859 H 78.5445 -5.6893 5.3286 0
M  V30 860 N 82.7736 -1.49793 -0.48987 0
M  V30 861 C 84.0196 -1.60078 -1.24511 0
M  V30 862 C 84.3526 -0.291608 -1.91998 0
M  V30 863 O 83.6276 0.705647 -1.81248 0
M  V30 864 C 83.9106 -2.76791 -2.30345 0
M  V30 865 C 83.7636 -4.17535 -1.67286 0
M  V30 866 C 85.0826 -2.89111 -3.31817 0
M  V30 867 H 82.2016 -0.582645 -0.451324 0
M  V30 868 H 84.8436 -1.82117 -0.541612 0
M  V30 869 H 82.9936 -2.5813 -2.90346 0
M  V30 870 H 84.6656 -4.4774 -1.11026 0
M  V30 871 H 82.9086 -4.22665 -0.976577 0
M  V30 872 H 83.5796 -4.95094 -2.44103 0
M  V30 873 H 86.0556 -3.06133 -2.81819 0
M  V30 874 H 84.9316 -3.72433 -4.03219 0
M  V30 875 H 85.1926 -1.9893 -3.94815 0
M  V30 876 N 84.2517 0.741722 -1.39055 0
M  V30 877 C 85.5007 1.49656 -1.35225 0
M  V30 878 C 85.8137 1.95533 0.0512708 0
M  V30 879 O 87.0197 2.7067 0.212138 0
M  V30 880 C 85.4757 2.70389 -2.37525 0
M  V30 881 C 85.0837 2.31489 -3.83558 0
M  V30 882 C 86.8277 3.48236 -2.42759 0
M  V30 883 C 84.7347 3.48903 -4.77515 0
M  V30 884 H 83.6647 0.56197 -0.502699 0
M  V30 885 H 86.3157 0.809727 -1.64668 0
M  V30 886 H 84.6977 3.41113 -2.01142 0
M  V30 887 H 85.8717 1.68354 -4.28945 0
M  V30 888 H 84.1867 1.66749 -3.81554 0
M  V30 889 H 86.7837 4.35558 -3.1015 0
M  V30 890 H 87.1267 3.90229 -1.45008 0
M  V30 891 H 87.6597 2.84535 -2.78002 0
M  V30 892 H 84.3987 3.11966 -5.76504 0
M  V30 893 H 83.9187 4.11041 -4.36813 0
M  V30 894 H 85.5977 4.15328 -4.96096 0
M  V30 895 N 85.7298 1.2412 0.971189 0
M  V30 896 C 87.1408 1.07236 1.52831 0
M  V30 897 C 87.4918 -0.357352 1.92918 0
M  V30 898 O 86.6168 -1.24528 1.76979 0
M  V30 899 C 87.2118 1.94043 2.77728 0
M  V30 900 C 85.7708 1.81394 3.29808 0
M  V30 901 C 84.9178 1.89189 2.02738 0
M  V30 902 H 87.8688 1.37648 0.789864 0
M  V30 903 H 87.8898 1.47066 3.5093 0
M  V30 904 H 87.4018 2.98093 2.4852 0
M  V30 905 H 85.5028 0.801634 3.63874 0
M  V30 906 H 85.6158 2.65294 3.98944 0
M  V30 907 H 83.9798 1.32877 2.17292 0
M  V30 908 H 84.7628 2.94812 1.759 0
M  V30 909 N 87.2079 -1.17134 1.05439 0
M  V30 910 C 88.4849 -1.83411 0.679699 0
M  V30 911 C 88.8649 -1.9368 -0.839726 0
M  V30 912 O 88.2129 -1.47325 -1.74664 0
M  V30 913 C 88.4229 -3.20918 1.37159 0
M  V30 914 C 89.7709 -3.96796 1.51123 0
M  V30 915 O 90.7949 -3.30406 1.3308 0
M  V30 916 O 89.6539 -5.15778 1.80651 0
M  V30 917 H 86.7479 -0.79154 0.239569 0
M  V30 918 H 89.2939 -1.24411 1.15413 0
M  V30 919 H 88.0659 -3.08428 2.40807 0
M  V30 920 H 87.6889 -3.87587 0.886674 0
M  V30 921 N 88.686 -0.835752 -1.33615 0
M  V30 922 C 89.596 -0.269088 -2.33052 0
M  V30 923 C 90.612 0.603251 -1.63208 0
M  V30 924 O 91.788 0.508112 -1.94885 0
M  V30 925 C 88.853 0.549091 -3.42324 0
M  V30 926 C 87.914 -0.347156 -4.27894 0
M  V30 927 C 87.147 0.43207 -5.31948 0
M  V30 928 O 87.37 1.66409 -5.45586 0
M  V30 929 O 86.304 -0.192298 -6.01593 0
M  V30 930 H 90.13 -1.09243 -2.83372 0
M  V30 931 H 87.715 -0.598198 -1.36901 0
M  V30 932 H 89.597 1.01414 -4.09015 0
M  V30 933 H 88.272 1.34955 -2.94226 0
M  V30 934 H 87.179 -0.859979 -3.64081 0
M  V30 935 H 88.512 -1.1123 -4.79467 0
M  V30 936 N 90.1641 1.46063 -0.591896 0
M  V30 937 C 91.1121 2.32124 0.148739 0
M  V30 938 C 92.1061 1.45035 0.875286 0
M  V30 939 O 93.3121 1.61609 0.792632 0
M  V30 940 H 89.6871 0.749024 0.066832 0
M  V30 941 H 91.6581 2.92392 -0.595783 0
M  V30 942 C 90.4071 3.28373 1.1431 0
M  V30 943 H 89.7301 3.95371 0.59346 0
M  V30 944 H 91.1701 3.91352 1.63155 0
M  V30 945 C 89.6291 2.54393 2.20875 0
M  V30 946 O 90.1591 2.31373 3.28374 0
M  V30 947 N 88.3651 2.14797 1.95731 0
M  V30 948 H 87.9121 2.33719 1.08319 0
M  V30 949 H 87.8701 1.65619 2.67241 0
M  V30 950 N 91.6422 0.330177 1.54103 0
M  V30 951 C 92.8902 -0.269871 2.0029 0
M  V30 952 C 93.2112 -1.52133 1.21986 0
M  V30 953 O 92.4812 -1.93212 0.323438 0
M  V30 954 H 91.0612 -0.10271 0.739905 0
M  V30 955 H 93.7232 0.448249 1.89675 0
M  V30 956 H 92.8192 -0.52166 3.07709 0
M  V30 957 N 93.1203 -1.57491 0.0584922 0
M  V30 958 C 94.0703 -2.08474 -0.923188 0
M  V30 959 C 95.0543 -0.991479 -1.26722 0
M  V30 960 O 96.2463 -1.25473 -1.24842 0
M  V30 961 C 93.3753 -2.6392 -2.19548 0
M  V30 962 C 92.4613 -3.80227 -1.87852 0
M  V30 963 N 92.8523 -4.89714 -1.26546 0
M  V30 964 C 91.1503 -3.89271 -2.17679 0
M  V30 965 C 91.8513 -5.70689 -1.12644 0
M  V30 966 N 90.8273 -5.18531 -1.63176 0
M  V30 967 H 94.6293 -2.90517 -0.444653 0
M  V30 968 H 92.1433 -1.61745 -0.145764 0
M  V30 969 H 94.1403 -2.98752 -2.9078 0
M  V30 970 H 92.8003 -1.83318 -2.68001 0
M  V30 971 H 93.8113 -5.09358 -0.936757 0
M  V30 972 H 90.4883 -3.19623 -2.68602 0
M  V30 973 H 91.8783 -6.6875 -0.6499 0
M  V30 974 N 94.5984 0.214957 -1.56127 0
M  V30 975 C 95.8474 0.936451 -1.78643 0
M  V30 976 C 96.1604 1.85237 -0.628229 0
M  V30 977 O 97.3664 2.613 -0.737186 0
M  V30 978 C 95.8224 1.7154 -3.16389 0
M  V30 979 C 95.4304 0.845299 -4.39953 0
M  V30 980 C 97.1744 2.42772 -3.48227 0
M  V30 981 C 95.0814 1.62198 -5.68723 0
M  V30 982 H 94.0114 0.353401 -0.666051 0
M  V30 983 H 96.6624 0.190169 -1.82512 0
M  V30 984 H 95.0444 2.50484 -3.06715 0
M  V30 985 H 96.2184 0.0959353 -4.607 0
M  V30 986 H 94.5334 0.244789 -4.1568 0
M  V30 987 H 97.1304 3.01394 -4.41663 0
M  V30 988 H 97.4734 3.15984 -2.71035 0
M  V30 989 H 98.0064 1.70813 -3.5926 0
M  V30 990 H 94.7454 0.933011 -6.48826 0
M  V30 991 H 94.2654 2.34579 -5.52026 0
M  V30 992 H 95.9444 2.18095 -6.09133 0
M  V30 993 N 96.0765 1.50051 0.48192 0
M  V30 994 C 97.3015 1.64508 1.26301 0
M  V30 995 C 97.7265 0.323851 1.85291 0
M  V30 996 O 97.0845 -0.710969 1.66778 0
M  V30 997 C 97.1325 2.7305 2.35533 0
M  V30 998 O 96.2365 2.3355 3.39895 0
M  V30 999 H 95.5775 0.549978 0.372048 0
M  V30 1000 H 98.1075 1.9636 0.574786 0
M  V30 1001 H 98.1175 2.95799 2.8101 0
M  V30 1002 H 96.7925 3.68946 1.91967 0
M  V30 1003 H 95.3695 2.21205 3.00204 0
M  V30 1004 N 97.5546 -0.734337 1.39446 0
M  V30 1005 C 98.8036 -1.48937 1.36017 0
M  V30 1006 C 99.1166 -1.95557 -0.0409005 0
M  V30 1007 O 100.323 -2.70779 -0.19778 0
M  V30 1008 C 98.7786 -2.69125 2.38955 0
M  V30 1009 C 98.3866 -2.29452 3.8478 0
M  V30 1010 C 100.131 -3.46944 2.44603 0
M  V30 1011 C 98.0376 -3.46366 4.79358 0
M  V30 1012 H 96.9676 -0.559296 0.505672 0
M  V30 1013 H 99.6186 -0.800983 1.65095 0
M  V30 1014 H 98.0006 -3.40041 2.02948 0
M  V30 1015 H 99.1746 -1.66077 4.29831 0
M  V30 1016 H 97.4896 -1.64723 3.82433 0
M  V30 1017 H 100.087 -4.33907 3.12456 0
M  V30 1018 H 100.43 -3.89454 1.47076 0
M  V30 1019 H 100.963 -2.83056 2.79507 0
M  V30 1020 H 97.7016 -3.08905 5.78151 0
M  V30 1021 H 97.2216 -4.08719 4.38986 0
M  V30 1022 H 98.9006 -4.12691 4.98292 0
M  V30 1023 N 99.0327 -1.24633 -0.964593 0
M  V30 1024 C 100.444 -1.08045 -1.5226 0
M  V30 1025 C 100.795 0.347116 -1.93105 0
M  V30 1026 O 99.9197 1.23588 -1.77637 0
M  V30 1027 C 100.515 -1.95514 -2.76695 0
M  V30 1028 C 99.0737 -1.8314 -3.28841 0
M  V30 1029 C 98.2207 -1.90262 -2.01732 0
M  V30 1030 H 101.172 -1.38064 -0.782553 0
M  V30 1031 H 101.193 -1.48925 -3.50145 0
M  V30 1032 H 100.705 -2.99407 -2.46936 0
M  V30 1033 H 98.8057 -0.82092 -3.63444 0
M  V30 1034 H 98.9187 -2.67406 -3.97531 0
M  V30 1035 H 97.2827 -1.34027 -2.16584 0
M  V30 1036 H 98.0657 -2.9574 -1.74334 0
M  V30 1037 N 100.511 1.16574 -1.06058 0
M  V30 1038 C 101.736 1.91493 -0.796562 0
M  V30 1039 C 102.161 1.76773 0.642868 0
M  V30 1040 O 101.519 1.09142 1.44768 0
M  V30 1041 C 101.567 3.40293 -1.19303 0
M  V30 1042 O 100.671 4.11074 -0.330394 0
M  V30 1043 H 100.012 0.596678 -0.291326 0
M  V30 1044 H 102.542 1.47708 -1.41575 0
M  V30 1045 H 102.552 3.91057 -1.16356 0
M  V30 1046 H 101.227 3.50326 -2.24153 0
M  V30 1047 H 99.8038 3.70513 -0.421225 0
M  V30 1048 N 101.989 0.842826 1.3317 0
M  V30 1049 C 102.922 0.223862 2.27099 0
M  V30 1050 C 103.9 -0.631311 1.49844 0
M  V30 1051 O 105.084 -0.590708 1.79005 0
M  V30 1052 C 102.211 -0.685313 3.31694 0
M  V30 1053 C 101.257 0.094919 4.26394 0
M  V30 1054 S 102.09 1.45546 5.15341 0
M  V30 1055 C 103.246 0.551685 6.23464 0
M  V30 1056 H 103.479 1.02015 2.79249 0
M  V30 1057 H 101.012 0.639797 1.4052 0
M  V30 1058 H 102.97 -1.20426 3.92438 0
M  V30 1059 H 101.631 -1.4553 2.78352 0
M  V30 1060 H 100.824 -0.597059 5.00451 0
M  V30 1061 H 100.426 0.545054 3.70007 0
M  V30 1062 H 102.718 -0.248877 6.77043 0
M  V30 1063 H 103.661 1.26253 6.96754 0
M  V30 1064 H 104.069 0.131275 5.64347 0
M  V30 1065 N 103.467 -1.45747 0.599634 0
M  V30 1066 C 104.713 -2.02592 0.0918643 0
M  V30 1067 C 105.046 -1.46806 -1.27128 0
M  V30 1068 O 104.321 -0.639658 -1.83681 0
M  V30 1069 C 104.604 -3.60073 0.0443398 0
M  V30 1070 C 104.457 -4.26208 1.43759 0
M  V30 1071 C 105.776 -4.35309 -0.647608 0
M  V30 1072 H 102.895 -0.736175 0.034857 0
M  V30 1073 H 105.537 -1.73694 0.770081 0
M  V30 1074 H 103.687 -3.84823 -0.533224 0
M  V30 1075 H 105.359 -4.12668 2.06162 0
M  V30 1076 H 103.602 -3.84916 2.00056 0
M  V30 1077 H 104.273 -5.35069 1.35665 0
M  V30 1078 H 106.749 -4.15805 -0.156776 0
M  V30 1079 H 105.625 -5.45038 -0.649942 0
M  V30 1080 H 105.886 -4.07598 -1.71219 0
M  V30 1081 N 104.945 -0.338344 -1.53925 0
M  V30 1082 C 106.17 0.263987 -2.05713 0
M  V30 1083 C 106.595 1.43847 -1.21201 0
M  V30 1084 O 105.953 1.79904 -0.224535 0
M  V30 1085 C 106.001 0.662 -3.54471 0
M  V30 1086 O 105.105 1.76265 -3.72833 0
M  V30 1087 H 104.446 0.0448722 -0.662482 0
M  V30 1088 H 106.976 -0.491048 -1.9862 0
M  V30 1089 H 106.986 0.940594 -3.9701 0
M  V30 1090 H 105.661 -0.196937 -4.15433 0
M  V30 1091 H 104.238 1.48173 -3.42198 0
M  V30 1092 N 106.423 1.57458 -0.0668435 0
M  V30 1093 C 107.67 1.93301 0.603406 0
M  V30 1094 C 107.998 0.946486 1.69917 0
M  V30 1095 O 107.253 -0.0387021 1.95662 0
M  V30 1096 C 107.552 3.35784 1.22409 0
M  V30 1097 C 107.218 4.50179 0.254955 0
M  V30 1098 C 105.88 4.81199 -0.0116746 0
M  V30 1099 C 108.232 5.19598 -0.408338 0
M  V30 1100 C 105.56 5.78978 -0.94877 0
M  V30 1101 C 107.912 6.18381 -1.33372 0
M  V30 1102 C 106.576 6.47821 -1.60887 0
M  V30 1103 H 105.846 0.707338 0.220802 0
M  V30 1104 H 108.493 1.91012 -0.136665 0
M  V30 1105 H 106.798 3.34515 2.03978 0
M  V30 1106 H 108.495 3.60804 1.74989 0
M  V30 1107 H 105.085 4.25983 0.472954 0
M  V30 1108 H 109.269 4.95832 -0.215456 0
M  V30 1109 H 104.525 6.00115 -1.16925 0
M  V30 1110 H 108.699 6.71277 -1.85367 0
M  V30 1111 H 106.326 7.23399 -2.33661 0
M  V30 1112 N 107.901 -0.206675 1.56239 0
M  V30 1113 C 109.129 -0.945345 1.8404 0
M  V30 1114 C 109.544 -1.77336 0.647885 0
M  V30 1115 O 108.901 -1.78425 -0.383511 0
M  V30 1116 C 108.952 -1.8509 3.10522 0
M  V30 1117 O 108.673 -1.05634 4.25174 0
M  V30 1118 C 110.174 -2.70222 3.51418 0
M  V30 1119 H 107.394 -0.276372 0.61144 0
M  V30 1120 H 109.938 -0.217417 2.03341 0
M  V30 1121 H 108.093 -2.53259 2.93153 0
M  V30 1122 H 108.507 -1.67238 4.97124 0
M  V30 1123 H 109.981 -3.29438 4.42916 0
M  V30 1124 H 110.458 -3.43358 2.73864 0
M  V30 1125 H 111.064 -2.07443 3.71278 0
M  V30 1126 N 109.379 -1.50304 -0.473955 0
M  V30 1127 C 110.656 -1.51667 -1.23518 0
M  V30 1128 C 111.036 -0.259701 -2.09496 0
M  V30 1129 O 110.384 0.756986 -2.15597 0
M  V30 1130 C 110.594 -2.81082 -2.06868 0
M  V30 1131 C 111.942 -3.31631 -2.65153 0
M  V30 1132 O 112.966 -2.82384 -2.17113 0
M  V30 1133 O 111.825 -4.17471 -3.52675 0
M  V30 1134 H 108.919 -0.60822 -0.560355 0
M  V30 1135 H 111.465 -1.62592 -0.486011 0
M  V30 1136 H 110.237 -3.64041 -1.4349 0
M  V30 1137 H 109.86 -2.73146 -2.88924 0
M  V30 1138 N 110.857 0.726932 -1.39834 0
M  V30 1139 C 111.805 1.86235 -1.39353 0
M  V30 1140 C 112.799 1.67144 -0.275555 0
M  V30 1141 O 114.005 1.74387 -0.44601 0
M  V30 1142 H 110.38 0.613174 -0.43534 0
M  V30 1143 H 112.351 1.83756 -2.35109 0
M  V30 1144 C 111.1 3.23995 -1.26185 0
M  V30 1145 H 110.423 3.39285 -2.11484 0
M  V30 1146 H 111.863 4.03609 -1.29907 0
M  V30 1147 C 110.322 3.36888 0.0290018 0
M  V30 1148 O 110.852 3.89152 0.99619 0
M  V30 1149 N 109.058 2.90446 0.0947437 0
M  V30 1150 H 108.605 2.48102 -0.693035 0
M  V30 1151 H 108.563 2.99451 0.957932 0
M  V30 1152 N 112.336 1.25143 0.95797 0
M  V30 1153 C 113.613 1.00472 1.67823 0
M  V30 1154 C 113.993 -0.470056 2.058 0
M  V30 1155 O 113.341 -1.44663 1.76875 0
M  V30 1156 C 113.551 1.9372 2.90299 0
M  V30 1157 C 114.899 2.21371 3.62326 0
M  V30 1158 O 115.923 1.91451 3.00375 0
M  V30 1159 O 114.782 2.72231 4.7387 0
M  V30 1160 H 111.876 0.380752 0.734137 0
M  V30 1161 H 114.422 1.36283 1.01119 0
M  V30 1162 H 113.194 2.93316 2.59001 0
M  V30 1163 H 112.817 1.58286 3.64735 0
M  V30 1164 N 113.814 -1.1601 1.06675 0
M  V30 1165 C 115.06 -1.86909 0.786945 0
M  V30 1166 C 115.393 -1.81717 -0.685018 0
M  V30 1167 O 114.668 -1.23551 -1.50218 0
M  V30 1168 C 114.951 -3.36313 1.28707 0
M  V30 1169 C 114.804 -3.50175 2.82308 0
M  V30 1170 C 116.123 -4.3084 0.898071 0
M  V30 1171 H 113.242 -0.678677 0.287343 0
M  V30 1172 H 115.884 -1.36336 1.32334 0
M  V30 1173 H 114.034 -3.79513 0.830768 0
M  V30 1174 H 115.706 -3.15886 3.36175 0
M  V30 1175 H 113.949 -2.91959 3.20847 0
M  V30 1176 H 114.62 -4.55116 3.12368 0
M  V30 1177 H 117.096 -3.95561 1.29114 0
M  V30 1178 H 115.972 -5.33876 1.27543 0
M  V30 1179 H 116.233 -4.41662 -0.196651 0
M  V30 1180 N 115.292 -0.849877 -1.32721 0
M  V30 1181 C 116.522 -0.46408 -2.0132 0
M  V30 1182 C 116.93 0.94246 -1.64056 0
M  V30 1183 O 116.273 1.6257 -0.855379 0
M  V30 1184 C 116.335 -0.517887 -3.5575 0
M  V30 1185 C 115.999 -1.88248 -4.16427 0
M  V30 1186 C 116.996 -2.84726 -4.35002 0
M  V30 1187 C 114.681 -2.17832 -4.52609 0
M  V30 1188 C 116.675 -4.08945 -4.8892 0
M  V30 1189 C 114.362 -3.42304 -5.06232 0
M  V30 1190 C 115.36 -4.37677 -5.24335 0
M  V30 1191 O 115.048 -5.59946 -5.76815 0
M  V30 1192 H 114.78 -0.181327 -0.651227 0
M  V30 1193 H 117.334 -1.14713 -1.70382 0
M  V30 1194 H 115.564 0.221997 -3.86062 0
M  V30 1195 H 117.253 -0.148366 -4.05629 0
M  V30 1196 H 118.019 -2.63174 -4.07388 0
M  V30 1197 H 113.898 -1.44385 -4.37806 0
M  V30 1198 H 117.442 -4.83396 -5.02966 0
M  V30 1199 H 113.339 -3.63709 -5.33278 0
M  V30 1200 H 114.107 -5.61838 -5.95214 0
M  V30 1201 N 116.77 1.45427 -0.607355 0
M  V30 1202 C 118.016 2.0254 -0.102607 0
M  V30 1203 C 118.349 1.47478 1.26348 0
M  V30 1204 O 117.624 0.64939 1.83339 0
M  V30 1205 C 117.907 3.60044 -0.0634347 0
M  V30 1206 C 117.76 4.2544 -1.46017 0
M  V30 1207 C 119.079 4.35646 0.624514 0
M  V30 1208 H 116.198 0.73598 -0.0387607 0
M  V30 1209 H 118.84 1.73284 -0.779282 0
M  V30 1210 H 116.99 3.85101 0.512808 0
M  V30 1211 H 118.662 4.11569 -2.08347 0
M  V30 1212 H 116.905 3.83849 -2.02094 0
M  V30 1213 H 117.576 5.34342 -1.385 0
M  V30 1214 H 120.052 4.15882 0.134723 0
M  V30 1215 H 118.928 5.45376 0.621028 0
M  V30 1216 H 119.189 4.08501 1.69055 0
M  V30 1217 N 118.248 0.346503 1.53744 0
M  V30 1218 C 119.496 -0.248612 2.00565 0
M  V30 1219 C 119.817 -1.5083 1.23593 0
M  V30 1220 O 119.087 -1.92858 0.343912 0
M  V30 1221 H 117.667 -0.0948564 0.740953 0
M  V30 1222 H 120.329 0.468341 1.89189 0
M  V30 1223 H 119.425 -0.488994 3.08245 0
M  V30 1224 N 119.726 -1.57421 0.075193 0
M  V30 1225 C 120.956 -1.97659 -0.601203 0
M  V30 1226 C 121.364 -0.952427 -1.63479 0
M  V30 1227 O 120.707 0.0688241 -1.83571 0
M  V30 1228 C 120.769 -3.34218 -1.32434 0
M  V30 1229 C 120.433 -4.5484 -0.443826 0
M  V30 1230 C 121.43 -5.19034 0.299969 0
M  V30 1231 C 119.115 -5.00952 -0.367709 0
M  V30 1232 C 121.109 -6.27695 1.10807 0
M  V30 1233 C 118.796 -6.09484 0.444058 0
M  V30 1234 C 119.794 -6.72719 1.18061 0
M  V30 1235 O 119.482 -7.79161 1.97898 0
M  V30 1236 H 119.214 -0.65494 -0.167422 0
M  V30 1237 H 121.768 -2.04886 0.145157 0
M  V30 1238 H 119.998 -3.23615 -2.11685 0
M  V30 1239 H 121.687 -3.59038 -1.89331 0
M  V30 1240 H 122.453 -4.84351 0.250776 0
M  V30 1241 H 118.332 -4.51509 -0.930638 0
M  V30 1242 H 121.876 -6.76982 1.68347 0
M  V30 1243 H 117.773 -6.43601 0.494803 0
M  V30 1244 H 118.541 -7.96055 1.90367 0
M  V30 1245 N 121.204 0.198386 -1.56346 0
M  V30 1246 C 122.114 1.2664 -1.97483 0
M  V30 1247 C 123.13 1.49989 -0.882002 0
M  V30 1248 O 124.306 1.62668 -1.18748 0
M  V30 1249 C 121.371 2.59141 -2.30319 0
M  V30 1250 C 120.432 2.43892 -3.53292 0
M  V30 1251 C 119.665 3.70074 -3.84553 0
M  V30 1252 O 119.888 4.74101 -3.1715 0
M  V30 1253 O 118.822 3.658 -4.7799 0
M  V30 1254 H 122.648 0.947304 -2.88548 0
M  V30 1255 H 120.233 0.403123 -1.43859 0
M  V30 1256 H 122.115 3.37352 -2.5253 0
M  V30 1257 H 120.79 2.90684 -1.42423 0
M  V30 1258 H 119.697 1.63803 -3.36332 0
M  V30 1259 H 121.03 2.17282 -4.41644 0
M  V30 1260 N 122.682 1.50554 0.465978 0
M  V30 1261 C 123.907 1.65838 1.24549 0
M  V30 1262 C 124.332 0.343486 1.84937 0
M  V30 1263 O 123.69 -0.69324 1.67523 0
M  V30 1264 C 123.738 2.75533 2.32624 0
M  V30 1265 O 122.842 2.37142 3.37398 0
M  V30 1266 H 122.183 0.553893 0.366194 0
M  V30 1267 H 124.713 1.96959 0.553927 0
M  V30 1268 H 124.723 2.98763 2.77857 0
M  V30 1269 H 123.398 3.70962 1.88043 0
M  V30 1270 H 121.975 2.24377 2.97841 0
M  V30 1271 N 124.16 -0.719506 1.40217 0
M  V30 1272 C 125.406 -1.48152 1.38488 0
M  V30 1273 C 125.739 -1.94195 -0.0141867 0
M  V30 1274 O 125.014 -1.67884 -0.982096 0
M  V30 1275 C 125.297 -2.71035 2.37091 0
M  V30 1276 C 125.15 -2.30912 3.86005 0
M  V30 1277 C 126.469 -3.73182 2.33288 0
M  V30 1278 H 123.588 -0.537395 0.504357 0
M  V30 1279 H 126.23 -0.821472 1.71324 0
M  V30 1280 H 124.38 -3.27352 2.0922 0
M  V30 1281 H 126.052 -1.80107 4.24687 0
M  V30 1282 H 124.295 -1.62958 4.02029 0
M  V30 1283 H 124.966 -3.18978 4.50508 0
M  V30 1284 H 127.442 -3.26485 2.57966 0
M  V30 1285 H 126.318 -4.56806 3.04334 0
M  V30 1286 H 126.579 -4.21202 1.34317 0
M  V30 1287 N 125.638 -1.25649 -0.95132 0
M  V30 1288 C 126.548 -1.08073 -2.08224 0
M  V30 1289 C 127.564 -0.0169666 -1.73992 0
M  V30 1290 O 128.74 -0.218593 -2.0021 0
M  V30 1291 C 125.805 -0.704922 -3.39458 0
M  V30 1292 C 124.866 -1.84699 -3.87537 0
M  V30 1293 C 124.099 -1.48902 -5.12508 0
M  V30 1294 O 124.322 -0.386156 -5.69091 0
M  V30 1295 O 123.256 -2.32033 -5.55378 0
M  V30 1296 H 127.082 -2.02924 -2.25954 0
M  V30 1297 H 124.667 -1.04618 -1.06656 0
M  V30 1298 H 126.549 -0.507609 -4.18332 0
M  V30 1299 H 125.224 0.214291 -3.2299 0
M  V30 1300 H 124.131 -2.09919 -3.09653 0
M  V30 1301 H 125.464 -2.74557 -4.08509 0
M  V30 1302 N 127.117 1.15442 -1.07289 0
M  V30 1303 C 128.047 2.22312 -0.714107 0
M  V30 1304 C 129.028 1.67467 0.298155 0
M  V30 1305 O 130.213 1.93445 0.171048 0
M  V30 1306 C 127.343 3.47124 -0.110448 0
M  V30 1307 C 126.297 4.14926 -1.04979 0
M  V30 1308 C 125.623 5.33807 -0.308924 0
M  V30 1309 C 126.923 4.64762 -2.38314 0
M  V30 1310 H 128.617 2.5258 -1.6076 0
M  V30 1311 H 126.163 1.21404 -0.77441 0
M  V30 1312 H 128.116 4.21124 0.152482 0
M  V30 1313 H 126.84 3.16187 0.81812 0
M  V30 1314 H 125.499 3.42866 -1.29764 0
M  V30 1315 H 125.147 4.99126 0.623084 0
M  V30 1316 H 124.847 5.80113 -0.935036 0
M  V30 1317 H 126.371 6.10576 -0.0537771 0
M  V30 1318 H 127.785 5.30292 -2.1786 0
M  V30 1319 H 126.182 5.21728 -2.96514 0
M  V30 1320 H 127.252 3.80434 -3.00663 0
M  V30 1321 N 128.595 0.856903 1.32268 0
M  V30 1322 C 129.558 0.308171 2.27119 0
M  V30 1323 C 130.558 -0.533421 1.51695 0
M  V30 1324 O 131.748 -0.344607 1.70757 0
M  V30 1325 C 128.88 -0.563757 3.36206 0
M  V30 1326 H 130.073 1.14535 2.77167 0
M  V30 1327 H 127.626 0.631421 1.42978 0
M  V30 1328 H 128.361 -1.42266 2.91429 0
M  V30 1329 H 128.146 0.0386749 3.92081 0
M  V30 1330 H 129.636 -0.940386 4.06874 0
M  V30 1331 N 130.073 -1.45103 0.615059 0
M  V30 1332 C 131.35 -1.95549 0.0448276 0
M  V30 1333 C 131.73 -1.55737 -1.4251 0
M  V30 1334 O 131.078 -0.823556 -2.13143 0
M  V30 1335 C 131.288 -3.48098 0.250785 0
M  V30 1336 C 132.636 -4.24384 0.135509 0
M  V30 1337 O 133.66 -3.55738 0.181299 0
M  V30 1338 O 132.519 -5.46493 0.0268878 0
M  V30 1339 H 129.613 -0.8264 -0.0314845 0
M  V30 1340 H 132.159 -1.55232 0.685642 0
M  V30 1341 H 130.931 -3.7007 1.27139 0
M  V30 1342 H 130.554 -3.95323 -0.424937 0
M  V30 1343 N 131.551 -0.354651 -1.53558 0
M  V30 1344 C 132.776 0.242153 -2.05981 0
M  V30 1345 C 133.201 1.42553 -1.2272 0
M  V30 1346 O 132.559 1.79656 -0.243604 0
M  V30 1347 C 132.607 0.624367 -3.55154 0
M  V30 1348 O 131.711 1.72301 -3.74681 0
M  V30 1349 H 131.052 0.0378432 -0.662921 0
M  V30 1350 H 133.582 -0.512087 -1.98088 0
M  V30 1351 H 133.592 0.898433 -3.97985 0
M  V30 1352 H 132.267 -0.240989 -4.15201 0
M  V30 1353 H 130.844 1.44535 -3.4375 0
M  V30 1354 N 133.029 1.57378 -0.0835403 0
M  V30 1355 C 133.977 2.14602 0.89714 0
M  V30 1356 C 134.971 1.08589 1.30018 0
M  V30 1357 O 136.177 1.26952 1.27606 0
M  V30 1358 H 132.552 0.686346 0.3073 0
M  V30 1359 H 134.523 2.95845 0.38969 0
M  V30 1360 C 133.272 2.73188 2.15089 0
M  V30 1361 H 132.595 3.54442 1.84962 0
M  V30 1362 H 134.035 3.1681 2.81793 0
M  V30 1363 C 132.494 1.68517 2.91725 0
M  V30 1364 O 133.024 1.11718 3.85852 0
M  V30 1365 N 131.23 1.39277 2.55049 0
M  V30 1366 H 130.777 1.85655 1.78577 0
M  V30 1367 H 130.735 0.694791 3.06627 0
M  V30 1368 N 134.507 -0.190092 1.56449 0
M  V30 1369 C 135.918 -0.754312 1.70784 0
M  V30 1370 C 136.269 -1.83631 0.690951 0
M  V30 1371 O 135.394 -2.15868 -0.151604 0
M  V30 1372 C 135.989 -1.37503 3.09642 0
M  V30 1373 C 134.548 -1.88628 3.25725 0
M  V30 1374 C 133.695 -0.758098 2.66736 0
M  V30 1375 H 136.646 0.0350524 1.58661 0
M  V30 1376 H 136.667 -2.2445 3.0725 0
M  V30 1377 H 136.179 -0.587302 3.83631 0
M  V30 1378 H 134.28 -2.70103 2.56661 0
M  V30 1379 H 134.393 -2.04462 4.3328 0
M  V30 1380 H 132.757 -1.17369 2.26046 0
M  V30 1381 H 133.54 0.0174705 3.43296 0
M  V30 1382 N 135.985 -1.50799 -0.457987 0
M  V30 1383 C 136.917 -1.66786 -1.57211 0
M  V30 1384 C 137.93 -0.548962 -1.53265 0
M  V30 1385 O 139.119 -0.8226 -1.58416 0
M  V30 1386 C 136.219 -1.64834 -2.96113 0
M  V30 1387 C 135.392 -2.92971 -3.24787 0
M  V30 1388 C 134.451 -2.83485 -4.43309 0
M  V30 1389 O 133.477 -3.5744 -4.42973 0
M  V30 1390 N 134.679 -1.97929 -5.45714 0
M  V30 1391 H 137.444 -2.62889 -1.43909 0
M  V30 1392 H 135.005 -1.48427 -0.646617 0
M  V30 1393 H 136.997 -1.56084 -3.7339 0
M  V30 1394 H 135.567 -0.764118 -3.03117 0
M  V30 1395 H 134.787 -3.15749 -2.36 0
M  V30 1396 H 136.075 -3.77834 -3.40762 0
M  V30 1397 H 135.473 -1.37182 -5.48815 0
M  V30 1398 H 134.03 -1.95073 -6.21924 0
M  V30 1399 N 137.463 0.71206 -1.40597 0
M  V30 1400 C 138.411 1.84746 -1.41321 0
M  V30 1401 C 139.405 1.66842 -0.293268 0
M  V30 1402 O 140.611 1.73904 -0.464481 0
M  V30 1403 H 136.986 0.608522 -0.441819 0
M  V30 1404 H 138.957 1.81252 -2.37045 0
M  V30 1405 C 137.706 3.22638 -1.29614 0
M  V30 1406 H 137.029 3.37023 -2.15071 0
M  V30 1407 H 138.469 4.02209 -1.3418 0
M  V30 1408 C 136.928 3.36899 -0.00673121 0
M  V30 1409 O 137.458 3.90186 0.954859 0
M  V30 1410 N 135.664 2.9053 0.0639327 0
M  V30 1411 H 135.211 2.47353 -0.719311 0
M  V30 1412 H 135.169 3.0045 0.926118 0
M  V30 1413 N 138.941 1.26152 0.944643 0
M  V30 1414 C 140.169 1.14259 1.72489 0
M  V30 1415 C 140.584 -0.302555 1.8636 0
M  V30 1416 O 139.941 -1.20741 1.36849 0
M  V30 1417 C 139.992 1.80266 3.13347 0
M  V30 1418 O 139.713 3.19133 3.00143 0
M  V30 1419 C 141.214 1.74283 4.07603 0
M  V30 1420 H 138.434 0.398051 0.540181 0
M  V30 1421 H 140.978 1.66706 1.18446 0
M  V30 1422 H 139.133 1.31766 3.64303 0
M  V30 1423 H 139.547 3.51744 3.89071 0
M  V30 1424 H 141.021 2.25111 5.04013 0
M  V30 1425 H 141.498 0.708631 4.33446 0
M  V30 1426 H 142.104 2.22319 3.62567 0
M  V30 1427 N 140.419 -1.14872 1.07899 0
M  V30 1428 C 141.668 -1.85135 0.800499 0
M  V30 1429 C 141.981 -1.83547 -0.676014 0
M  V30 1430 O 143.187 -2.49548 -1.06948 0
M  V30 1431 C 141.643 -3.3231 1.38197 0
M  V30 1432 C 141.251 -3.42329 2.8899 0
M  V30 1433 C 142.995 -4.0772 1.18174 0
M  V30 1434 C 140.902 -4.83684 3.403 0
M  V30 1435 H 139.832 -0.693563 0.29578 0
M  V30 1436 H 142.483 -1.29532 1.29976 0
M  V30 1437 H 140.865 -3.87618 0.810431 0
M  V30 1438 H 142.039 -2.97097 3.52236 0
M  V30 1439 H 140.354 -2.80369 3.07867 0
M  V30 1440 H 142.951 -5.12049 1.5398 0
M  V30 1441 H 143.294 -4.16124 0.12117 0
M  V30 1442 H 143.827 -3.58696 1.71994 0
M  V30 1443 H 140.566 -4.80465 4.45907 0
M  V30 1444 H 140.086 -5.29474 2.81811 0
M  V30 1445 H 141.765 -5.52558 3.36584 0
M  V30 1446 N 141.898 -0.863906 -1.31812 0
M  V30 1447 C 143.128 -0.485406 -2.00817 0
M  V30 1448 C 143.536 0.925007 -1.65046 0
M  V30 1449 O 142.879 1.61653 -0.872574 0
M  V30 1450 C 142.941 -0.555589 -3.55181 0
M  V30 1451 C 142.605 -1.92654 -4.14407 0
M  V30 1452 C 143.602 -2.89324 -4.31958 0
M  V30 1453 C 141.287 -2.2262 -4.50273 0
M  V30 1454 C 143.281 -4.14108 -4.84555 0
M  V30 1455 C 140.968 -3.47654 -5.02573 0
M  V30 1456 C 141.966 -4.43214 -5.19664 0
M  V30 1457 O 141.654 -5.66033 -5.70843 0
M  V30 1458 H 141.386 -0.188224 -0.649267 0
M  V30 1459 H 143.94 -1.16514 -1.69156 0
M  V30 1460 H 142.17 0.181037 -3.86276 0
M  V30 1461 H 143.859 -0.19138 -4.05449 0
M  V30 1462 H 144.625 -2.6748 -4.04573 0
M  V30 1463 H 140.504 -1.4902 -4.3625 0
M  V30 1464 H 144.048 -4.88703 -4.9781 0
M  V30 1465 H 139.945 -3.69345 -5.29391 0
M  V30 1466 H 140.713 -5.6812 -5.89222 0
M  V30 1467 N 143.376 1.44774 -0.622745 0
M  V30 1468 C 144.653 1.95522 -0.0551974 0
M  V30 1469 C 145.033 1.5649 1.41683 0
M  V30 1470 O 144.381 0.834848 2.12703 0
M  V30 1471 C 144.591 3.4796 -0.269242 0
M  V30 1472 C 145.939 4.24306 -0.158014 0
M  V30 1473 O 146.963 3.55637 -0.200162 0
M  V30 1474 O 145.822 5.46471 -0.0558693 0
M  V30 1475 H 142.916 0.826556 0.0271015 0
M  V30 1476 H 145.462 1.54866 -0.693864 0
M  V30 1477 H 144.234 3.6939 -1.29099 0
M  V30 1478 H 143.857 3.95543 0.403966 0
M  V30 1479 N 144.854 0.36279 1.53368 0
M  V30 1480 C 145.817 -0.472679 2.24273 0
M  V30 1481 C 146.817 -1.012 1.24961 0
M  V30 1482 O 148.007 -0.898194 1.49259 0
M  V30 1483 C 145.139 -1.66039 2.97731 0
M  V30 1484 H 146.332 0.14773 2.99536 0
M  V30 1485 H 143.885 0.114434 1.55881 0
M  V30 1486 H 144.62 -2.31896 2.26704 0
M  V30 1487 H 144.405 -1.28066 3.70596 0
M  V30 1488 H 145.895 -2.25252 3.51641 0
M  V30 1489 N 146.332 -1.57332 0.0918853 0
M  V30 1490 C 147.279 -2.13847 -0.868211 0
M  V30 1491 C 148.249 -1.05618 -1.28196 0
M  V30 1492 O 149.434 -1.33387 -1.36427 0
M  V30 1493 C 146.574 -2.72062 -2.12312 0
M  V30 1494 C 145.687 -3.94514 -1.7602 0
M  V30 1495 C 144.822 -4.40903 -2.96273 0
M  V30 1496 C 143.861 -5.55953 -2.56092 0
M  V30 1497 N 142.998 -5.97209 -3.69169 0
M  V30 1498 H 147.838 -2.95575 -0.379406 0
M  V30 1499 H 145.375 -1.46048 -0.175606 0
M  V30 1500 H 147.333 -3.03931 -2.858 0
M  V30 1501 H 145.963 -1.93068 -2.58698 0
M  V30 1502 H 145.015 -3.68979 -0.925135 0
M  V30 1503 H 146.327 -4.7802 -1.42472 0
M  V30 1504 H 145.481 -4.74539 -3.78018 0
M  V30 1505 H 144.22 -3.56291 -3.33029 0
M  V30 1506 H 143.225 -5.21948 -1.72773 0
M  V30 1507 H 144.45 -6.42311 -2.20484 0
M  V30 1508 H 142.396 -5.15543 -4.05649 0
M  V30 1509 H 142.313 -6.75504 -3.39456 0
M  V30 1510 H 143.581 -6.35475 -4.51434 0
M  V30 1511 N 147.81 0.181792 -1.56548 0
M  V30 1512 C 149.226 0.53316 -1.50431 0
M  V30 1513 C 149.426 1.85184 -0.794297 0
M  V30 1514 O 148.482 2.50058 -0.350318 0
M  V30 1515 C 149.795 0.575597 -2.9514 0
M  V30 1516 C 151.343 0.663519 -3.05886 0
M  V30 1517 C 151.818 0.736946 -4.52032 0
M  V30 1518 N 153.309 0.800118 -4.56237 0
M  V30 1519 C 154.044 0.877327 -5.66649 0
M  V30 1520 N 153.54 0.916016 -6.86718 0
M  V30 1521 N 155.333 0.915542 -5.54594 0
M  V30 1522 H 147.484 -0.683025 -2.01118 0
M  V30 1523 H 149.747 -0.244988 -0.915797 0
M  V30 1524 H 149.453 -0.324482 -3.502 0
M  V30 1525 H 149.327 1.42572 -3.49218 0
M  V30 1526 H 151.714 1.55403 -2.50867 0
M  V30 1527 H 151.795 -0.21307 -2.54911 0
M  V30 1528 H 151.439 -0.149262 -5.07681 0
M  V30 1529 H 151.369 1.62953 -5.00753 0
M  V30 1530 H 153.86 0.778926 -3.69785 0
M  V30 1531 H 154.173 0.975813 -7.66614 0
M  V30 1532 H 152.518 0.884469 -6.89349 0
M  V30 1533 H 155.709 0.882245 -4.59711 0
M  V30 1534 H 155.882 0.972253 -6.40665 0
M  V30 1535 N 149.288 1.51039 0.449983 0
M  V30 1536 C 150.535 1.63081 1.20045 0
M  V30 1537 C 150.863 0.341024 1.91487 0
M  V30 1538 O 150.118 -0.674276 1.83717 0
M  V30 1539 C 150.417 2.77556 2.25161 0
M  V30 1540 C 150.083 4.17289 1.70823 0
M  V30 1541 C 148.745 4.55305 1.55725 0
M  V30 1542 C 151.097 5.04536 1.3074 0
M  V30 1543 C 148.425 5.78287 0.989999 0
M  V30 1544 C 150.777 6.28085 0.754482 0
M  V30 1545 C 149.441 6.64885 0.590308 0
M  V30 1546 H 148.711 0.596755 0.439277 0
M  V30 1547 H 151.358 1.85037 0.49333 0
M  V30 1548 H 149.663 2.49771 3.01863 0
M  V30 1549 H 151.36 2.84073 2.83026 0
M  V30 1550 H 147.95 3.8731 1.83546 0
M  V30 1551 H 152.134 4.75782 1.41229 0
M  V30 1552 H 147.39 6.05456 0.850451 0
M  V30 1553 H 151.564 6.95038 0.435324 0
M  V30 1554 H 149.191 7.60055 0.14862 0
M  V30 1555 N 150.766 -0.704594 1.40972 0
M  V30 1556 C 152.015 -1.46018 1.39146 0
M  V30 1557 C 152.328 -1.956 0.000589254 0
M  V30 1558 O 153.534 -2.71137 -0.1403 0
M  V30 1559 C 151.99 -2.63996 2.4461 0
M  V30 1560 C 151.598 -2.21238 3.89561 0
M  V30 1561 C 153.342 -3.41677 2.51907 0
M  V30 1562 C 151.249 -3.3612 4.86598 0
M  V30 1563 H 150.179 -0.548444 0.517422 0
M  V30 1564 H 152.83 -0.765784 1.66757 0
M  V30 1565 H 151.212 -3.3566 2.10115 0
M  V30 1566 H 152.386 -1.56923 4.33257 0
M  V30 1567 H 150.701 -1.56574 3.85841 0
M  V30 1568 H 153.298 -4.27182 3.2159 0
M  V30 1569 H 153.641 -3.86247 1.55303 0
M  V30 1570 H 154.174 -2.77064 2.85448 0
M  V30 1571 H 150.913 -2.96572 5.84573 0
M  V30 1572 H 150.433 -3.99315 4.47557 0
M  V30 1573 H 152.112 -4.02029 5.06934 0
M  V30 1574 N 152.244 -1.26651 -0.937939 0
M  V30 1575 C 153.492 -1.12165 -1.68118 0
M  V30 1576 C 153.813 0.334983 -1.92101 0
M  V30 1577 O 153.083 1.23583 -1.52 0
M  V30 1578 H 151.663 -0.412093 -0.623048 0
M  V30 1579 H 154.325 -1.59027 -1.12678 0
M  V30 1580 H 153.421 -1.64289 -2.6536 0
M  V30 1581 N 153.722 1.14298 -1.08507 0
M  V30 1582 C 154.669 2.19414 -0.715965 0
M  V30 1583 C 155.639 1.63399 0.298326 0
M  V30 1584 O 156.824 1.89929 0.182101 0
M  V30 1585 C 153.964 3.44845 -0.132534 0
M  V30 1586 C 153.077 4.15007 -1.19973 0
M  V30 1587 C 152.212 5.28024 -0.580048 0
M  V30 1588 C 151.251 5.9002 -1.62921 0
M  V30 1589 N 150.388 6.94485 -1.03125 0
M  V30 1590 H 155.228 2.50336 -1.61666 0
M  V30 1591 H 152.765 1.2293 -0.807882 0
M  V30 1592 H 154.723 4.16601 0.223454 0
M  V30 1593 H 153.353 3.14403 0.731467 0
M  V30 1594 H 152.405 3.41629 -1.67313 0
M  V30 1595 H 153.717 4.57178 -1.99473 0
M  V30 1596 H 152.871 6.06455 -0.172364 0
M  V30 1597 H 151.61 4.87076 0.246603 0
M  V30 1598 H 150.615 5.10291 -2.04654 0
M  V30 1599 H 151.84 6.33042 -2.45835 0
M  V30 1600 H 149.786 6.55612 -0.225711 0
M  V30 1601 H 149.703 7.35148 -1.76334 0
M  V30 1602 H 150.971 7.7679 -0.649458 0
M  V30 1603 N 155.201 0.870884 1.31352 0
M  V30 1604 C 156.45 0.478408 1.95944 0
M  V30 1605 C 156.763 -0.974493 1.69597 0
M  V30 1606 O 157.969 -1.47316 2.28058 0
M  V30 1607 C 156.425 0.804609 3.50791 0
M  V30 1608 C 156.033 2.27433 3.85977 0
M  V30 1609 C 157.777 0.480648 4.2177 0
M  V30 1610 C 155.684 2.5429 5.33939 0
M  V30 1611 H 154.614 0.175175 0.733369 0
M  V30 1612 H 157.265 1.06391 1.4951 0
M  V30 1613 H 155.647 0.148347 3.95722 0
M  V30 1614 H 156.821 2.97373 3.52002 0
M  V30 1615 H 155.136 2.56442 3.28065 0
M  V30 1616 H 157.733 0.658519 5.30629 0
M  V30 1617 H 158.076 -0.578979 4.12254 0
M  V30 1618 H 158.609 1.09349 3.82476 0
M  V30 1619 H 155.348 3.58939 5.48491 0
M  V30 1620 H 154.868 1.88945 5.69263 0
M  V30 1621 H 156.547 2.39066 6.01212 0
M  V30 1622 N 156.679 -1.44442 0.630414 0
M  V30 1623 C 157.926 -2.02052 0.134617 0
M  V30 1624 C 158.254 -1.49576 -1.24327 0
M  V30 1625 O 157.509 -0.669806 -1.83881 0
M  V30 1626 C 157.808 -3.57332 0.0697835 0
M  V30 1627 C 157.474 -4.29058 1.38635 0
M  V30 1628 C 156.136 -4.4837 1.74694 0
M  V30 1629 C 158.488 -4.69872 2.25543 0
M  V30 1630 C 155.816 -5.05756 2.97369 0
M  V30 1631 C 158.168 -5.28616 3.47487 0
M  V30 1632 C 156.832 -5.46147 3.8377 0
M  V30 1633 H 156.102 -0.739361 0.0492598 0
M  V30 1634 H 158.749 -1.73217 0.816586 0
M  V30 1635 H 157.054 -3.85577 -0.695553 0
M  V30 1636 H 158.751 -3.99637 -0.330344 0
M  V30 1637 H 155.341 -4.14357 1.09574 0
M  V30 1638 H 159.525 -4.54666 1.98979 0
M  V30 1639 H 154.781 -5.17515 3.25558 0
M  V30 1640 H 158.955 -5.59192 4.15063 0
M  V30 1641 H 156.582 -5.9038 4.7891 0
M  V30 1642 N 158.157 -0.370918 -1.53173 0
M  V30 1643 C 159.385 0.217704 -2.05751 0
M  V30 1644 C 159.8 1.42018 -1.24404 0
M  V30 1645 O 159.157 1.80245 -0.286033 0
M  V30 1646 C 159.208 0.605954 -3.56385 0
M  V30 1647 O 158.929 -0.548734 -4.3465 0
M  V30 1648 C 160.43 1.2524 -4.25241 0
M  V30 1649 H 157.65 0.0371659 -0.66997 0
M  V30 1650 H 160.194 -0.530832 -1.9749 0
M  V30 1651 H 158.349 1.3044 -3.6478 0
M  V30 1652 H 158.763 -0.23376 -5.23979 0
M  V30 1653 H 160.237 1.47458 -5.3194 0
M  V30 1654 H 160.714 2.2143 -3.79296 0
M  V30 1655 H 161.32 0.595233 -4.21114 0
M  V30 1656 N 159.635 1.57281 -0.100228 0
M  V30 1657 C 160.598 2.13158 0.842398 0
M  V30 1658 C 161.598 1.06202 1.20738 0
M  V30 1659 O 162.788 1.32066 1.13597 0
M  V30 1660 C 159.92 2.65639 2.13655 0
M  V30 1661 H 161.113 2.97766 0.357114 0
M  V30 1662 H 158.666 1.5559 0.148823 0
M  V30 1663 H 159.401 1.84566 2.66657 0
M  V30 1664 H 159.186 3.43844 1.88451 0
M  V30 1665 H 160.676 3.08846 2.81077 0
M  V30 1666 N 161.113 -0.173488 1.56642 0
M  V30 1667 C 162.023 -1.23482 1.99473 0
M  V30 1668 C 163.039 -1.48567 0.905752 0
M  V30 1669 O 164.215 -1.60758 1.21321 0
M  V30 1670 C 161.28 -2.55444 2.34413 0
M  V30 1671 C 160.341 -2.38241 3.57127 0
M  V30 1672 C 159.574 -3.63909 3.90392 0
M  V30 1673 O 159.797 -4.68996 3.24653 0
M  V30 1674 O 158.731 -3.58149 4.83749 0
M  V30 1675 H 162.557 -0.901279 2.90018 0
M  V30 1676 H 160.142 -0.380185 1.44482 0
M  V30 1677 H 162.024 -3.33292 2.57865 0
M  V30 1678 H 160.699 -2.88382 1.4703 0
M  V30 1679 H 159.606 -1.58431 3.38896 0
M  V30 1680 H 160.939 -2.10228 4.45045 0
M  V30 1681 N 162.591 -1.51276 -0.441967 0
M  V30 1682 C 163.501 -1.75092 -1.56141 0
M  V30 1683 C 164.517 -0.634963 -1.62001 0
M  V30 1684 O 165.693 -0.916686 -1.79329 0
M  V30 1685 C 162.758 -1.86666 -2.92158 0
M  V30 1686 C 161.819 -3.10506 -2.96453 0
M  V30 1687 C 161.052 -3.21519 -4.25982 0
M  V30 1688 O 161.275 -2.38586 -5.18105 0
M  V30 1689 O 160.209 -4.14465 -4.36466 0
M  V30 1690 H 164.035 -2.70044 -1.38961 0
M  V30 1691 H 161.62 -1.35722 -0.624499 0
M  V30 1692 H 163.502 -1.96292 -3.72891 0
M  V30 1693 H 162.177 -0.949014 -3.09476 0
M  V30 1694 H 161.084 -3.06363 -2.14692 0
M  V30 1695 H 162.417 -4.01945 -2.84079 0
M  V30 1696 N 164.069 0.697108 -1.41344 0
M  V30 1697 C 164.999 1.82353 -1.45841 0
M  V30 1698 C 165.98 1.67115 -0.317247 0
M  V30 1699 O 167.165 1.86871 -0.528474 0
M  V30 1700 C 164.295 3.20476 -1.33838 0
M  V30 1701 C 163.249 3.50415 -2.4575 0
M  V30 1702 C 162.575 4.87878 -2.18813 0
M  V30 1703 C 163.875 3.49546 -3.88091 0
M  V30 1704 H 165.569 1.78846 -2.40113 0
M  V30 1705 H 163.115 0.859028 -1.15571 0
M  V30 1706 H 165.068 3.98988 -1.35596 0
M  V30 1707 H 163.792 3.24604 -0.360498 0
M  V30 1708 H 162.451 2.74253 -2.43271 0
M  V30 1709 H 162.099 4.8863 -1.19371 0
M  V30 1710 H 161.799 5.08875 -2.93803 0
M  V30 1711 H 163.323 5.68702 -2.22284 0
M  V30 1712 H 164.737 4.18066 -3.92293 0
M  V30 1713 H 163.134 3.82075 -4.62751 0
M  V30 1714 H 164.204 2.48552 -4.16353 0
M  V30 1715 N 165.547 1.27147 0.931209 0
M  V30 1716 C 166.457 1.11372 2.06478 0
M  V30 1717 C 167.473 0.044645 1.73943 0
M  V30 1718 O 168.649 0.250417 1.99837 0
M  V30 1719 C 165.714 0.758838 3.38294 0
M  V30 1720 C 164.775 1.90841 3.84549 0
M  V30 1721 C 164.008 1.57036 5.10074 0
M  V30 1722 O 164.231 0.476645 5.68405 0
M  V30 1723 O 163.165 2.40839 5.51616 0
M  V30 1724 H 166.991 2.06493 2.22698 0
M  V30 1725 H 164.576 1.06301 1.04978 0
M  V30 1726 H 166.458 0.574098 4.17471 0
M  V30 1727 H 165.133 -0.162879 3.2329 0
M  V30 1728 H 164.04 2.14819 3.06274 0
M  V30 1729 H 165.373 2.81021 4.04089 0
M  V30 1730 N 167.025 -1.13721 1.09112 0
M  V30 1731 C 167.988 -2.17222 0.731241 0
M  V30 1732 C 168.988 -1.59035 -0.237566 0
M  V30 1733 O 170.178 -1.74192 -0.0161704 0
M  V30 1734 C 167.31 -3.40804 0.0808443 0
M  V30 1735 H 168.503 -2.50573 1.64783 0
M  V30 1736 H 166.056 -1.28493 0.889897 0
M  V30 1737 H 166.791 -3.1304 -0.847127 0
M  V30 1738 H 166.576 -3.84306 0.777896 0
M  V30 1739 H 168.066 -4.1731 -0.155657 0
M  V30 1740 N 168.503 -0.877838 -1.30888 0
M  V30 1741 C 169.413 -0.343096 -2.32078 0
M  V30 1742 C 170.429 0.551022 -1.65045 0
M  V30 1743 O 171.605 0.445854 -1.96403 0
M  V30 1744 C 168.67 0.439905 -3.43898 0
M  V30 1745 C 167.731 -0.483111 -4.26573 0
M  V30 1746 C 166.964 0.262616 -5.33053 0
M  V30 1747 O 167.187 1.48967 -5.50604 0
M  V30 1748 O 166.121 -0.383593 -6.00676 0
M  V30 1749 H 169.947 -1.18203 -2.79753 0
M  V30 1750 H 167.532 -0.64145 -1.34929 0
M  V30 1751 H 169.414 0.883504 -4.12034 0
M  V30 1752 H 168.089 1.25526 -2.98371 0
M  V30 1753 H 166.996 -0.975374 -3.61161 0
M  V30 1754 H 168.329 -1.26427 -4.75686 0
M  V30 1755 N 169.982 1.44106 -0.638065 0
M  V30 1756 C 171.231 2.01194 -0.142744 0
M  V30 1757 C 171.544 1.50835 1.24532 0
M  V30 1758 O 172.75 2.00096 1.83504 0
M  V30 1759 C 171.206 3.59319 -0.20442 0
M  V30 1760 C 170.814 4.18674 -1.59423 0
M  V30 1761 C 172.558 4.23854 0.234079 0
M  V30 1762 C 170.465 5.69045 -1.61065 0
M  V30 1763 H 169.395 0.752367 -0.0495998 0
M  V30 1764 H 172.046 1.65246 -0.797881 0
M  V30 1765 H 170.428 3.92598 0.517946 0
M  V30 1766 H 171.602 3.96921 -2.34074 0
M  V30 1767 H 169.917 3.66453 -1.97741 0
M  V30 1768 H 172.514 5.34155 0.241443 0
M  V30 1769 H 172.857 3.96688 1.2627 0
M  V30 1770 H 173.39 3.95403 -0.436025 0
M  V30 1771 H 170.129 6.00956 -2.61787 0
M  V30 1772 H 169.649 5.929 -0.90718 0
M  V30 1773 H 171.328 6.32809 -1.34766 0
M  V30 1774 N 171.46 0.379036 1.52974 0
M  V30 1775 C 172.708 -0.206014 2.01047 0
M  V30 1776 C 173.029 -1.48175 1.26765 0
M  V30 1777 O 172.299 -1.92085 0.384743 0
M  V30 1778 H 170.879 -0.0791184 0.742798 0
M  V30 1779 H 173.541 0.508366 1.88153 0
M  V30 1780 H 172.637 -0.423501 3.09213 0
M  V30 1781 N 172.938 -1.57226 0.108567 0
M  V30 1782 C 174.354 -1.5766 -0.248058 0
M  V30 1783 C 174.554 -1.12063 -1.67464 0
M  V30 1784 O 173.61 -0.803236 -2.39383 0
M  V30 1785 C 174.923 -3.0069 -0.0242287 0
M  V30 1786 C 176.471 -3.12868 -0.0909372 0
M  V30 1787 C 176.946 -4.57879 0.105067 0
M  V30 1788 N 178.437 -4.63172 0.0506846 0
M  V30 1789 C 179.172 -5.73126 0.177396 0
M  V30 1790 N 178.668 -6.91866 0.359696 0
M  V30 1791 N 180.461 -5.61977 0.117709 0
M  V30 1792 H 172.612 -1.85169 1.04049 0
M  V30 1793 H 174.875 -0.85529 0.40888 0
M  V30 1794 H 174.581 -3.38299 0.961604 0
M  V30 1795 H 174.455 -3.6945 -0.76068 0
M  V30 1796 H 176.842 -2.75124 -1.06729 0
M  V30 1797 H 176.923 -2.46672 0.677225 0
M  V30 1798 H 176.567 -4.96321 1.07834 0
M  V30 1799 H 176.497 -5.22153 -0.682954 0
M  V30 1800 H 178.988 -3.778 -0.0871266 0
M  V30 1801 H 179.301 -7.71503 0.447529 0
M  V30 1802 H 177.646 -6.93874 0.395536 0
M  V30 1803 H 180.837 -4.68094 -0.0236741 0
M  V30 1804 H 181.01 -6.47627 0.219905 0
M  V30 1805 N 174.416 0.165178 -1.56732 0
M  V30 1806 C 175.646 0.894919 -1.86212 0
M  V30 1807 C 176.054 1.76066 -0.692627 0
M  V30 1808 O 175.397 1.80387 0.347303 0
M  V30 1809 C 175.459 1.8174 -3.10179 0
M  V30 1810 C 175.123 1.13064 -4.42793 0
M  V30 1811 C 176.12 0.493169 -5.17556 0
M  V30 1812 C 173.805 1.12556 -4.89527 0
M  V30 1813 C 175.799 -0.140209 -6.37246 0
M  V30 1814 C 173.486 0.488366 -6.09145 0
M  V30 1815 C 174.484 -0.143411 -6.82849 0
M  V30 1816 O 174.172 -0.77055 -8.00199 0
M  V30 1817 H 173.904 0.265114 -0.621844 0
M  V30 1818 H 176.458 0.168242 -2.0471 0
M  V30 1819 H 174.688 2.58455 -2.87642 0
M  V30 1820 H 176.377 2.4175 -3.26055 0
M  V30 1821 H 177.143 0.489023 -4.82528 0
M  V30 1822 H 173.022 1.60672 -4.32094 0
M  V30 1823 H 176.566 -0.633932 -6.94714 0
M  V30 1824 H 172.463 0.490116 -6.43637 0
M  V30 1825 H 173.231 -0.670408 -8.1575 0
M  V30 1826 N 175.894 1.51508 0.433938 0
M  V30 1827 C 177.305 1.56784 1.01369 0
M  V30 1828 C 177.656 0.393349 1.92217 0
M  V30 1829 O 176.781 -0.489441 2.10792 0
M  V30 1830 C 177.376 2.84144 1.8452 0
M  V30 1831 C 175.935 2.9198 2.37539 0
M  V30 1832 C 175.082 2.51482 1.16843 0
M  V30 1833 H 178.033 1.57236 0.215081 0
M  V30 1834 H 178.054 2.68098 2.70007 0
M  V30 1835 H 177.566 3.69607 1.18373 0
M  V30 1836 H 175.667 2.10955 3.0713 0
M  V30 1837 H 175.78 3.95704 2.70103 0
M  V30 1838 H 174.144 2.04758 1.51481 0
M  V30 1839 H 174.927 3.39293 0.523015 0
M  V30 1840 N 177.372 -0.689602 1.41712 0
M  V30 1841 C 178.619 -1.44966 1.4139 0
M  V30 1842 C 178.947 -1.94484 0.025105 0
M  V30 1843 O 178.202 -1.70307 -0.964048 0
M  V30 1844 C 178.501 -2.67298 2.37247 0
M  V30 1845 C 178.167 -2.36405 3.83958 0
M  V30 1846 C 176.829 -2.27691 4.23923 0
M  V30 1847 C 179.181 -2.11043 4.76561 0
M  V30 1848 C 176.509 -1.91719 5.54492 0
M  V30 1849 C 178.861 -1.76578 6.07456 0
M  V30 1850 C 177.525 -1.66363 6.46436 0
M  V30 1851 H 176.795 -0.53047 0.517381 0
M  V30 1852 H 179.442 -0.787655 1.74552 0
M  V30 1853 H 177.747 -3.38461 1.9736 0
M  V30 1854 H 179.444 -3.25452 2.34269 0
M  V30 1855 H 176.034 -2.44085 3.52308 0
M  V30 1856 H 180.218 -2.16717 4.46483 0
M  V30 1857 H 175.474 -1.82367 5.83568 0
M  V30 1858 H 179.648 -1.55974 6.78708 0
M  V30 1859 H 177.275 -1.38258 7.47522 0
M  V30 1860 N 178.85 -1.27639 -0.924453 0
M  V30 1861 C 179.797 -1.10644 -2.0255 0
M  V30 1862 C 180.767 -0.00658438 -1.66099 0
M  V30 1863 O 181.952 -0.16952 -1.90045 0
M  V30 1864 C 179.092 -0.76309 -3.36557 0
M  V30 1865 C 178.205 -1.94091 -3.85944 0
M  V30 1866 C 177.34 -1.53914 -5.08413 0
M  V30 1867 C 176.379 -2.68425 -5.50104 0
M  V30 1868 N 175.516 -2.28815 -6.63768 0
M  V30 1869 H 180.356 -2.04858 -2.16419 0
M  V30 1870 H 177.893 -1.01974 -1.06017 0
M  V30 1871 H 179.851 -0.544822 -4.13627 0
M  V30 1872 H 178.481 0.142102 -3.22487 0
M  V30 1873 H 177.533 -2.27162 -3.05125 0
M  V30 1874 H 178.845 -2.7998 -4.12811 0
M  V30 1875 H 177.999 -1.28231 -5.92994 0
M  V30 1876 H 176.738 -0.651391 -4.8333 0
M  V30 1877 H 175.743 -2.94819 -4.64071 0
M  V30 1878 H 176.968 -3.57826 -5.7718 0
M  V30 1879 H 174.914 -1.42495 -6.40337 0
M  V30 1880 H 174.831 -3.08242 -6.90306 0
M  V30 1881 H 176.099 -2.06387 -7.51681 0
M  V30 1882 N 180.328 1.1314 -1.09713 0
M  V30 1883 C 181.574 1.84757 -0.836224 0
M  V30 1884 C 181.907 1.8347 0.636598 0
M  V30 1885 O 181.182 1.27491 1.46889 0
M  V30 1886 C 181.465 3.32782 -1.37578 0
M  V30 1887 C 181.318 3.42567 -2.91493 0
M  V30 1888 C 182.637 4.28307 -1.01198 0
M  V30 1889 H 179.756 0.67082 -0.305236 0
M  V30 1890 H 182.398 1.3278 -1.35903 0
M  V30 1891 H 180.548 3.77177 -0.931097 0
M  V30 1892 H 182.22 3.06862 -3.44432 0
M  V30 1893 H 180.463 2.83349 -3.28475 0
M  V30 1894 H 181.134 4.46674 -3.24324 0
M  V30 1895 H 183.61 3.91999 -1.39556 0
M  V30 1896 H 182.486 5.30307 -1.41653 0
M  V30 1897 H 182.747 4.42029 0.0794833 0
M  V30 1898 N 181.806 0.884767 1.30421 0
M  V30 1899 C 182.736 0.367574 2.30589 0
M  V30 1900 C 183.717 -0.549464 1.60981 0
M  V30 1901 O 184.902 -0.46336 1.88591 0
M  V30 1902 C 182.032 -0.418944 3.44764 0
M  V30 1903 C 180.986 0.406316 4.26067 0
M  V30 1904 C 180.312 -0.506793 5.32293 0
M  V30 1905 C 181.612 1.64832 4.95608 0
M  V30 1906 H 183.306 1.20462 2.74097 0
M  V30 1907 H 180.852 0.580695 1.31772 0
M  V30 1908 H 182.805 -0.791395 4.13902 0
M  V30 1909 H 181.529 -1.28964 3.0006 0
M  V30 1910 H 180.188 0.760903 3.58617 0
M  V30 1911 H 179.836 -1.37519 4.83836 0
M  V30 1912 H 179.536 0.0415828 5.87585 0
M  V30 1913 H 181.06 -0.875764 6.04287 0
M  V30 1914 H 182.474 1.34646 5.57264 0
M  V30 1915 H 180.871 2.13688 5.60765 0
M  V30 1916 H 181.941 2.39284 4.21748 0
M  V30 1917 N 183.284 -1.43765 0.645699 0
M  V30 1918 C 184.232 -2.32516 -0.0624849 0
M  V30 1919 C 185.226 -1.48183 -0.820855 0
M  V30 1920 O 186.432 -1.64439 -0.732106 0
M  V30 1921 H 182.807 -0.750989 -0.0389864 0
M  V30 1922 H 184.778 -2.89979 0.703892 0
M  V30 1923 C 183.527 -3.32389 -1.02044 0
M  V30 1924 H 182.85 -3.97301 -0.446312 0
M  V30 1925 H 184.29 -3.97138 -1.48517 0
M  V30 1926 C 182.749 -2.62416 -2.11281 0
M  V30 1927 O 183.279 -2.434 -3.19561 0
M  V30 1928 N 181.485 -2.21913 -1.87624 0
M  V30 1929 H 181.032 -2.37578 -0.995703 0
M  V30 1930 H 180.99 -1.75424 -2.6091 0
M  V30 1931 N 184.763 -0.387143 -1.52771 0
M  V30 1932 C 185.71 0.449048 -2.26389 0
M  V30 1933 C 186.68 1.05961 -1.27912 0
M  V30 1934 O 187.865 1.08804 -1.56737 0
M  V30 1935 C 185.005 1.57155 -3.0724 0
M  V30 1936 C 184.118 0.984066 -4.20643 0
M  V30 1937 C 183.253 2.07745 -4.88892 0
M  V30 1938 C 182.292 1.46574 -5.94292 0
M  V30 1939 N 181.429 2.49834 -6.56146 0
M  V30 1940 H 186.269 -0.185205 -2.97424 0
M  V30 1941 H 183.806 -0.103164 -1.46738 0
M  V30 1942 H 185.764 2.23309 -3.52405 0
M  V30 1943 H 184.394 2.17615 -2.38419 0
M  V30 1944 H 183.446 0.212193 -3.79808 0
M  V30 1945 H 184.758 0.497029 -4.96318 0
M  V30 1946 H 183.912 2.81673 -5.3735 0
M  V30 1947 H 182.651 2.59807 -4.12737 0
M  V30 1948 H 181.656 0.711696 -5.45174 0
M  V30 1949 H 182.881 0.953088 -6.72379 0
M  V30 1950 H 180.827 3.0107 -5.82832 0
M  V30 1951 H 180.744 2.05879 -7.27427 0
M  V30 1952 H 182.012 3.23399 -7.09249 0
M  V30 1953 N 186.241 1.57166 -0.116904 0
M  V30 1954 C 187.189 2.16457 0.851418 0
M  V30 1955 C 188.183 1.11323 1.27686 0
M  V30 1956 O 189.389 1.2963 1.24884 0
M  V30 1957 H 185.764 0.69271 0.292672 0
M  V30 1958 H 187.735 2.96605 0.32685 0
M  V30 1959 C 186.484 2.77689 2.09246 0
M  V30 1960 H 185.807 3.58285 1.77402 0
M  V30 1961 H 187.247 3.22716 2.7501 0
M  V30 1962 C 185.706 1.74667 2.88085 0
M  V30 1963 O 186.236 1.19877 3.83396 0
M  V30 1964 N 184.442 1.44656 2.52038 0
M  V30 1965 H 183.989 1.89402 1.74599 0
M  V30 1966 H 183.947 0.759675 3.05084 0
M  V30 1967 N 187.719 -0.156864 1.56817 0
M  V30 1968 C 188.967 -0.869404 1.82444 0
M  V30 1969 C 189.288 -1.82147 0.69623 0
M  V30 1970 O 188.558 -1.93847 -0.28287 0
M  V30 1971 H 187.138 -0.324043 0.673056 0
M  V30 1972 H 189.8 -0.153224 1.94297 0
M  V30 1973 H 188.896 -1.43761 2.77019 0
M  V30 1974 N 189.197 -1.51736 -0.425897 0
M  V30 1975 C 190.13 -1.68574 -1.53812 0
M  V30 1976 C 191.108 -0.53328 -1.53606 0
M  V30 1977 O 192.292 -0.758555 -1.72564 0
M  V30 1978 C 189.419 -1.70977 -2.92377 0
M  V30 1979 C 188.465 -2.92324 -3.10563 0
M  V30 1980 S 189.298 -4.52952 -2.85648 0
M  V30 1981 C 190.454 -4.58117 -4.26474 0
M  V30 1982 H 190.687 -2.62647 -1.39298 0
M  V30 1983 H 188.22 -1.41564 -0.616361 0
M  V30 1984 H 190.178 -1.73047 -3.72243 0
M  V30 1985 H 188.839 -0.78061 -3.04245 0
M  V30 1986 H 188.032 -2.90439 -4.11899 0
M  V30 1987 H 187.634 -2.88055 -2.38538 0
M  V30 1988 H 189.926 -4.34462 -5.19855 0
M  V30 1989 H 190.869 -5.59983 -4.33388 0
M  V30 1990 H 191.277 -3.8732 -4.10662 0
M  V30 1991 N 190.675 0.682077 -1.42076 0
M  V30 1992 C 191.921 1.44428 -1.42367 0
M  V30 1993 C 192.254 1.94164 -0.0373056 0
M  V30 1994 O 191.529 1.70429 0.937239 0
M  V30 1995 C 191.812 2.64654 -2.44194 0
M  V30 1996 C 191.665 2.20596 -3.91991 0
M  V30 1997 C 192.984 3.66865 -2.431 0
M  V30 1998 H 190.103 0.523834 -0.518428 0
M  V30 1999 H 192.745 0.77576 -1.73442 0
M  V30 2000 H 190.895 3.2169 -2.17826 0
M  V30 2001 H 192.567 1.68783 -4.29313 0
M  V30 2002 H 190.81 1.52242 -4.06208 0
M  V30 2003 H 191.481 3.06921 -4.58807 0
M  V30 2004 H 193.957 3.19531 -2.66532 0
M  V30 2005 H 192.833 4.48577 -3.16339 0
M  V30 2006 H 193.094 4.17493 -1.45437 0
M  V30 2007 N 192.153 1.28127 0.917671 0
M  V30 2008 C 193.063 1.13556 2.05286 0
M  V30 2009 C 194.079 0.0630914 1.73886 0
M  V30 2010 O 195.255 0.271598 1.9956 0
M  V30 2011 C 192.32 0.794676 3.3747 0
M  V30 2012 C 191.381 1.94909 3.82504 0
M  V30 2013 C 190.614 1.62437 5.0838 0
M  V30 2014 O 190.837 0.536905 5.67867 0
M  V30 2015 O 189.771 2.46677 5.4903 0
M  V30 2016 H 193.597 2.08844 2.20495 0
M  V30 2017 H 191.182 1.07409 1.03845 0
M  V30 2018 H 193.064 0.618344 4.16839 0
M  V30 2019 H 191.739 -0.128581 3.23445 0
M  V30 2020 H 190.646 2.18055 3.03978 0
M  V30 2021 H 191.979 2.85291 4.01086 0
M  V30 2022 N 193.631 -1.12557 1.10312 0
M  V30 2023 C 194.878 -1.84038 0.844759 0
M  V30 2024 C 195.206 -1.84026 -0.629668 0
M  V30 2025 O 194.461 -1.28026 -1.48013 0
M  V30 2026 C 194.76 -3.31462 1.33669 0
M  V30 2027 C 194.426 -3.51647 2.82232 0
M  V30 2028 C 193.088 -3.56864 3.22802 0
M  V30 2029 C 195.44 -3.58867 3.77974 0
M  V30 2030 C 192.768 -3.66844 4.57867 0
M  V30 2031 C 195.12 -3.70375 5.1284 0
M  V30 2032 C 193.784 -3.73848 5.52986 0
M  V30 2033 H 193.054 -0.673444 0.309119 0
M  V30 2034 H 195.701 -1.32824 1.37949 0
M  V30 2035 H 194.006 -3.85091 0.721949 0
M  V30 2036 H 195.703 -3.85236 1.11329 0
M  V30 2037 H 192.293 -3.48249 2.49842 0
M  V30 2038 H 196.477 -3.54107 3.47738 0
M  V30 2039 H 191.733 -3.67804 4.88396 0
M  V30 2040 H 195.907 -3.74904 5.86873 0
M  V30 2041 H 193.534 -3.81333 6.57639 0
M  V30 2042 N 195.109 -0.891671 -1.2995 0
M  V30 2043 C 196.334 -0.527932 -2.00568 0
M  V30 2044 C 196.759 0.877969 -1.66353 0
M  V30 2045 O 196.117 1.58301 -0.883762 0
M  V30 2046 C 196.165 -0.717745 -3.53385 0
M  V30 2047 O 195.269 0.233376 -4.11739 0
M  V30 2048 H 194.61 -0.20722 -0.630837 0
M  V30 2049 H 197.14 -1.20105 -1.65638 0
M  V30 2050 H 197.15 -0.619307 -4.03272 0
M  V30 2051 H 195.825 -1.74276 -3.77625 0
M  V30 2052 H 194.402 0.0880706 -3.72796 0
M  V30 2053 N 196.587 1.43421 -0.653314 0
M  V30 2054 C 197.833 2.02111 -0.166992 0
M  V30 2055 C 198.166 1.51423 1.21592 0
M  V30 2056 O 197.441 0.707389 1.8118 0
M  V30 2057 C 197.724 3.5966 -0.177948 0
M  V30 2058 C 197.577 4.20579 -1.59478 0
M  V30 2059 C 198.896 4.37413 0.4856 0
M  V30 2060 H 196.015 0.734374 -0.0621557 0
M  V30 2061 H 198.657 1.70717 -0.834016 0
M  V30 2062 H 196.807 3.86537 0.390032 0
M  V30 2063 H 198.479 4.04732 -2.21336 0
M  V30 2064 H 196.722 3.77226 -2.14204 0
M  V30 2065 H 197.393 5.29665 -1.5543 0
M  V30 2066 H 199.869 4.161 0.00234528 0
M  V30 2067 H 198.745 5.47075 0.447207 0
M  V30 2068 H 199.006 4.13672 1.55974 0
M  V30 2069 N 198.065 0.39524 1.52563 0
M  V30 2070 C 199.293 -0.184943 2.06072 0
M  V30 2071 C 199.708 -1.40021 1.26647 0
M  V30 2072 O 199.065 -1.79767 0.314672 0
M  V30 2073 C 199.116 -0.549179 3.57304 0
M  V30 2074 O 198.837 0.617813 4.33722 0
M  V30 2075 C 200.338 -1.18459 4.2718 0
M  V30 2076 H 197.558 -0.0265025 0.670476 0
M  V30 2077 H 200.102 0.562184 1.96621 0
M  V30 2078 H 198.257 -1.2462 3.66809 0
M  V30 2079 H 198.671 0.317091 5.23541 0
M  V30 2080 H 200.145 -1.38976 5.34219 0
M  V30 2081 H 200.622 -2.15368 3.82771 0
M  V30 2082 H 201.228 -0.528163 4.22008 0
M  V30 2083 N 199.544 -1.57102 0.125237 0
M  V30 2084 C 200.769 -2.0019 -0.542101 0
M  V30 2085 C 201.194 -1.00449 -1.59034 0
M  V30 2086 O 200.552 0.0229423 -1.81285 0
M  V30 2087 C 200.6 -3.42129 -1.13929 0
M  V30 2088 O 199.704 -3.45307 -2.2547 0
M  V30 2089 H 199.045 -0.650171 -0.134812 0
M  V30 2090 H 201.575 -2.03461 0.215553 0
M  V30 2091 H 201.585 -3.80471 -1.4733 0
M  V30 2092 H 200.26 -4.14237 -0.371531 0
M  V30 2093 H 198.837 -3.1879 -1.93462 0
M  V30 2094 N 201.022 0.148545 -1.56898 0
M  V30 2095 C 201.97 1.20265 -1.99096 0
M  V30 2096 C 202.964 1.44559 -0.883123 0
M  V30 2097 O 204.17 1.4487 -1.0683 0
M  V30 2098 H 200.545 0.404786 -0.63376 0
M  V30 2099 H 202.516 0.82004 -2.86911 0
M  V30 2100 C 201.265 2.52886 -2.3863 0
M  V30 2101 H 200.588 2.35021 -3.23427 0
M  V30 2102 H 202.028 3.25274 -2.7198 0
M  V30 2103 C 200.487 3.13315 -1.23837 0
M  V30 2104 O 201.017 3.98077 -0.538268 0
M  V30 2105 N 199.223 2.72742 -1.00301 0
M  V30 2106 H 198.77 2.03912 -1.5741 0
M  V30 2107 H 198.728 3.13507 -0.236838 0
M  V30 2108 N 202.5 1.5196 0.417844 0
M  V30 2109 C 203.41 1.77554 1.53336 0
M  V30 2110 C 204.426 0.660655 1.6097 0
M  V30 2111 O 205.602 0.945099 1.77848 0
M  V30 2112 C 202.667 1.91291 2.89152 0
M  V30 2113 C 201.728 3.15183 2.91475 0
M  V30 2114 C 200.961 3.28256 4.20813 0
M  V30 2115 O 201.184 2.46798 5.14244 0
M  V30 2116 O 200.118 4.21356 4.29817 0
M  V30 2117 H 203.944 2.7222 1.34647 0
M  V30 2118 H 201.529 1.36698 0.602828 0
M  V30 2119 H 203.411 2.02199 3.69721 0
M  V30 2120 H 202.086 0.998129 3.07927 0
M  V30 2121 H 200.993 3.09739 2.09791 0
M  V30 2122 H 202.326 4.06414 2.77648 0
M  V30 2123 N 203.978 -0.674533 1.42435 0
M  V30 2124 C 205.206 -1.46283 1.46317 0
M  V30 2125 C 205.621 -1.88653 0.0745836 0
M  V30 2126 O 204.978 -1.58151 -0.91074 0
M  V30 2127 C 205.029 -2.71178 2.3905 0
M  V30 2128 O 204.75 -2.30586 3.72507 0
M  V30 2129 C 206.251 -3.64738 2.51955 0
M  V30 2130 H 203.471 -0.450104 0.497642 0
M  V30 2131 H 206.015 -0.828792 1.86953 0
M  V30 2132 H 204.17 -3.3077 2.01667 0
M  V30 2133 H 204.584 -3.11241 4.22172 0
M  V30 2134 H 206.058 -4.49096 3.20962 0
M  V30 2135 H 206.535 -4.10656 1.55752 0
M  V30 2136 H 207.141 -3.11038 2.90061 0
M  V30 2137 N 205.456 -1.28612 -0.910864 0
M  V30 2138 C 206.705 -1.15311 -1.65488 0
M  V30 2139 C 207.018 0.296999 -1.93332 0
M  V30 2140 O 208.224 0.551168 -2.65847 0
M  V30 2141 C 206.68 -2.01599 -2.98137 0
M  V30 2142 C 206.288 -3.51367 -2.7793 0
M  V30 2143 C 208.032 -1.96993 -3.76024 0
M  V30 2144 C 205.939 -4.29797 -4.06237 0
M  V30 2145 H 204.869 -0.42796 -0.620779 0
M  V30 2146 H 207.52 -1.53166 -1.01057 0
M  V30 2147 H 205.902 -1.56603 -3.63719 0
M  V30 2148 H 207.076 -4.0434 -2.21011 0
M  V30 2149 H 205.391 -3.57529 -2.13452 0
M  V30 2150 H 207.988 -2.52856 -4.71135 0
M  V30 2151 H 208.331 -0.94733 -4.05378 0
M  V30 2152 H 208.864 -2.39973 -3.17266 0
M  V30 2153 H 205.603 -5.32648 -3.82055 0
M  V30 2154 H 205.123 -3.81596 -4.62757 0
M  V30 2155 H 206.802 -4.39869 -4.74473 0
M  V30 2156 N 206.934 1.1197 -1.10907 0
M  V30 2157 C 208.162 1.87402 -0.876824 0
M  V30 2158 C 208.577 1.79894 0.573025 0
M  V30 2159 O 207.934 1.17629 1.39534 0
M  V30 2160 C 207.985 3.36428 -1.32282 0
M  V30 2161 O 207.706 3.43765 -2.71582 0
M  V30 2162 C 209.207 4.28783 -1.12518 0
M  V30 2163 H 206.427 0.592793 -0.314384 0
M  V30 2164 H 208.971 1.41649 -1.47499 0
M  V30 2165 H 207.126 3.79706 -0.768229 0
M  V30 2166 H 207.54 4.3652 -2.90776 0
M  V30 2167 H 209.014 5.31613 -1.48633 0
M  V30 2168 H 209.491 4.39153 -0.0642394 0
M  V30 2169 H 210.097 3.91291 -1.66648 0
M  V30 2170 N 208.412 0.89855 1.29475 0
M  V30 2171 C 209.658 0.524658 1.95896 0
M  V30 2172 C 209.991 -0.926468 1.70676 0
M  V30 2173 O 209.266 -1.65665 1.01908 0
M  V30 2174 C 209.549 0.81633 3.50725 0
M  V30 2175 C 209.402 2.31907 3.85408 0
M  V30 2176 C 210.721 0.302038 4.39062 0
M  V30 2177 H 207.84 0.19209 0.711527 0
M  V30 2178 H 210.482 1.12502 1.53112 0
M  V30 2179 H 208.632 0.305369 3.87298 0
M  V30 2180 H 210.304 2.89949 3.58786 0
M  V30 2181 H 208.547 2.78027 3.32992 0
M  V30 2182 H 209.218 2.47373 4.93468 0
M  V30 2183 H 211.694 0.739551 4.09475 0
M  V30 2184 H 210.57 0.535331 5.46283 0
M  V30 2185 H 210.831 -0.797216 4.34853 0
M  V30 2186 N 209.89 -1.43072 0.660911 0
M  V30 2187 C 211.115 -2.06584 0.183805 0
M  V30 2188 C 211.54 -1.49257 -1.14472 0
M  V30 2189 O 210.898 -0.605528 -1.70889 0
M  V30 2190 C 210.946 -3.60418 0.114434 0
M  V30 2191 O 210.05 -4.01981 -0.921137 0
M  V30 2192 H 209.391 -0.656669 0.0983994 0
M  V30 2193 H 211.921 -1.83447 0.906006 0
M  V30 2194 H 211.931 -4.07946 -0.0663394 0
M  V30 2195 H 210.606 -4.01519 1.08422 0
M  V30 2196 H 209.183 -3.66029 -0.71253 0
M  V30 2197 N 211.368 -0.403325 -1.52352 0
M  V30 2198 C 212.779 0.0675782 -1.86578 0
M  V30 2199 C 213.13 1.44941 -1.32236 0
M  V30 2200 O 212.255 2.06112 -0.659307 0
M  V30 2201 C 212.85 0.129404 -3.38553 0
M  V30 2202 C 211.409 0.544629 -3.72439 0
M  V30 2203 C 210.556 -0.284551 -2.75836 0
M  V30 2204 H 213.507 -0.620631 -1.46061 0
M  V30 2205 H 213.528 0.94581 -3.68558 0
M  V30 2206 H 213.04 -0.87645 -3.78074 0
M  V30 2207 H 211.141 1.55734 -3.38493 0
M  V30 2208 H 211.254 0.293046 -4.78203 0
M  V30 2209 H 209.618 0.252258 -2.53448 0
M  V30 2210 H 210.401 -1.28865 -3.18196 0
M  V30 2211 N 212.846 1.57033 -0.133567 0
M  V30 2212 C 213.756 2.19632 0.824564 0
M  V30 2213 C 214.772 1.17666 1.28182 0
M  V30 2214 O 215.948 1.50193 1.3418 0
M  V30 2215 C 213.013 2.79499 2.05137 0
M  V30 2216 C 212.074 3.96548 1.64464 0
M  V30 2217 C 211.307 4.5355 2.81297 0
M  V30 2218 O 211.53 4.09438 3.97136 0
M  V30 2219 O 210.464 5.44018 2.57542 0
M  V30 2220 H 214.29 3.01991 0.321766 0
M  V30 2221 H 211.875 1.49112 0.0927889 0
M  V30 2222 H 213.757 3.17602 2.7696 0
M  V30 2223 H 212.432 2.00162 2.54395 0
M  V30 2224 H 211.339 3.63186 0.897048 0
M  V30 2225 H 212.672 4.77364 1.19934 0
M  V30 2226 N 214.325 -0.140222 1.56975 0
M  V30 2227 C 215.555 -0.865181 1.87612 0
M  V30 2228 C 215.963 -1.74942 0.72055 0
M  V30 2229 O 215.306 -1.80917 -0.318561 0
M  V30 2230 C 215.368 -1.76782 3.13031 0
M  V30 2231 C 215.032 -1.06005 4.44536 0
M  V30 2232 C 216.029 -0.410768 5.18275 0
M  V30 2233 C 213.714 -1.04754 4.91255 0
M  V30 2234 C 215.708 0.241572 6.36942 0
M  V30 2235 C 213.395 -0.391394 6.09845 0
M  V30 2236 C 214.393 0.252029 6.82535 0
M  V30 2237 O 214.081 0.897757 7.98871 0
M  V30 2238 H 213.813 -0.255188 0.625983 0
M  V30 2239 H 216.367 -0.135653 2.04952 0
M  V30 2240 H 214.597 -2.53846 2.91718 0
M  V30 2241 H 216.286 -2.36533 3.29859 0
M  V30 2242 H 217.052 -0.412195 4.83245 0
M  V30 2243 H 212.931 -1.53777 4.34596 0
M  V30 2244 H 216.475 0.744375 6.93617 0
M  V30 2245 H 212.372 -0.387656 6.44335 0
M  V30 2246 H 213.14 0.800102 8.1458 0
M  V30 2247 N 215.803 -1.52179 -0.40978 0
M  V30 2248 C 217.049 -1.66453 -1.15851 0
M  V30 2249 C 217.382 -0.392972 -1.90182 0
M  V30 2250 O 216.657 0.608579 -1.84734 0
M  V30 2251 C 216.94 -2.88612 -2.15349 0
M  V30 2252 C 216.793 -4.25815 -1.44918 0
M  V30 2253 C 218.112 -3.06294 -3.16026 0
M  V30 2254 H 215.231 -0.60575 -0.419805 0
M  V30 2255 H 217.873 -1.84732 -0.444314 0
M  V30 2256 H 216.023 -2.73158 -2.76255 0
M  V30 2257 H 217.695 -4.52995 -0.871365 0
M  V30 2258 H 215.938 -4.27247 -0.751159 0
M  V30 2259 H 216.609 -5.07337 -2.17516 0
M  V30 2260 H 219.085 -3.20641 -2.65195 0
M  V30 2261 H 217.961 -3.93283 -3.8291 0
M  V30 2262 H 218.222 -2.19579 -3.83715 0
M  V30 2263 N 217.281 0.66697 -1.42791 0
M  V30 2264 C 218.529 1.42417 -1.43394 0
M  V30 2265 C 218.85 1.94925 -0.0542373 0
M  V30 2266 O 218.12 1.73564 0.908415 0
M  V30 2267 H 216.7 0.528515 -0.527902 0
M  V30 2268 H 219.362 0.787562 -1.78279 0
M  V30 2269 H 218.458 2.27333 -2.13837 0
M  V30 2270 N 218.759 1.29093 0.90403 0
M  V30 2271 C 219.984 1.19809 1.69294 0
M  V30 2272 C 220.409 -0.238481 1.86582 0
M  V30 2273 O 219.767 -1.1723 1.383 0
M  V30 2274 C 219.815 1.91202 3.05736 0
M  V30 2275 O 218.919 1.22611 3.93752 0
M  V30 2276 H 218.26 0.415385 0.518027 0
M  V30 2277 H 220.79 1.70586 1.12967 0
M  V30 2278 H 220.8 1.99487 3.55906 0
M  V30 2279 H 219.475 2.95692 2.92471 0
M  V30 2280 H 218.052 1.22554 3.52186 0
M  V30 2281 N 220.237 -1.11381 1.11499 0
M  V30 2282 C 221.653 -1.35143 0.849031 0
M  V30 2283 C 221.853 -1.94515 -0.525938 0
M  V30 2284 O 220.909 -2.1785 -1.27662 0
M  V30 2285 C 222.222 -2.28249 1.95762 0
M  V30 2286 C 223.77 -2.41812 1.98736 0
M  V30 2287 C 224.245 -3.3824 3.088 0
M  V30 2288 N 225.736 -3.45803 3.08179 0
M  V30 2289 C 226.471 -4.20358 3.89982 0
M  V30 2290 N 225.967 -4.97884 4.8175 0
M  V30 2291 N 227.76 -4.15877 3.78157 0
M  V30 2292 H 219.911 -0.712062 2.00109 0
M  V30 2293 H 222.174 -0.376025 0.870235 0
M  V30 2294 H 221.88 -1.91817 2.94787 0
M  V30 2295 H 221.754 -3.28473 1.85433 0
M  V30 2296 H 224.141 -2.77518 1.00338 0
M  V30 2297 H 224.222 -1.41437 2.13141 0
M  V30 2298 H 223.866 -3.03261 4.07425 0
M  V30 2299 H 223.796 -4.38471 2.91635 0
M  V30 2300 H 226.287 -2.90506 2.41691 0
M  V30 2301 H 226.6 -5.52142 5.40702 0
M  V30 2302 H 224.945 -4.97043 4.85771 0
M  V30 2303 H 228.136 -3.544 3.05808 0
M  V30 2304 H 228.309 -4.73723 4.42143 0
M  V30 2305 N 221.715 -0.905404 -1.28997 0
M  V30 2306 C 222.645 -0.404212 -2.29975 0
M  V30 2307 C 223.626 0.523784 -1.61835 0
M  V30 2308 O 224.811 0.433298 -1.89304 0
M  V30 2309 C 221.941 0.364042 -3.45387 0
M  V30 2310 C 220.895 -0.474048 -4.25367 0
M  V30 2311 C 220.221 0.422045 -5.33032 0
M  V30 2312 C 221.521 -1.72696 -4.92923 0
M  V30 2313 H 223.215 -1.24807 -2.72146 0
M  V30 2314 H 220.761 -0.601585 -1.30832 0
M  V30 2315 H 222.714 0.725447 -4.15109 0
M  V30 2316 H 221.438 1.24174 -3.02074 0
M  V30 2317 H 220.097 -0.81786 -3.57361 0
M  V30 2318 H 219.745 1.29804 -4.85963 0
M  V30 2319 H 219.445 -0.135057 -5.87445 0
M  V30 2320 H 220.969 0.779517 -6.05604 0
M  V30 2321 H 222.383 -1.43495 -5.55051 0
M  V30 2322 H 220.78 -2.22582 -5.57295 0
M  V30 2323 H 221.85 -2.45964 -4.17887 0
M  V30 2324 N 223.193 1.4272 -0.668489 0
M  V30 2325 C 224.123 2.335 -0.000100175 0
M  V30 2326 C 225.104 1.50328 0.795964 0
M  V30 2327 O 226.289 1.78949 0.754385 0
M  V30 2328 C 223.419 3.33874 0.956302 0
M  V30 2329 C 222.373 4.27152 0.269278 0
M  V30 2330 C 221.699 5.17684 1.33818 0
M  V30 2331 C 222.999 5.15373 -0.847805 0
M  V30 2332 H 224.693 2.89639 -0.758244 0
M  V30 2333 H 222.239 1.39269 -0.366079 0
M  V30 2334 H 224.192 3.9629 1.43292 0
M  V30 2335 H 222.916 2.76025 1.74579 0
M  V30 2336 H 221.575 3.66123 -0.187042 0
M  V30 2337 H 221.223 4.56165 2.1195 0
M  V30 2338 H 220.923 5.80918 0.883659 0
M  V30 2339 H 222.447 5.82974 1.81586 0
M  V30 2340 H 223.861 5.7151 -0.452681 0
M  V30 2341 H 222.258 5.87407 -1.22773 0
M  V30 2342 H 223.328 4.5415 -1.69929 0
M  V30 2343 N 224.671 0.411399 1.52136 0
M  V30 2344 C 225.601 -0.404015 2.29978 0
M  V30 2345 C 226.582 -1.04412 1.34284 0
M  V30 2346 O 227.767 -1.0527 1.63192 0
M  V30 2347 C 224.897 -1.5197 3.12286 0
M  V30 2348 C 223.851 -1.00448 4.16046 0
M  V30 2349 C 223.177 -2.21393 4.86712 0
M  V30 2350 C 224.477 -0.0569336 5.22269 0
M  V30 2351 H 226.171 0.245529 2.98392 0
M  V30 2352 H 223.717 0.119525 1.43503 0
M  V30 2353 H 225.67 -2.09715 3.6551 0
M  V30 2354 H 224.394 -2.19716 2.41646 0
M  V30 2355 H 223.053 -0.449421 3.63835 0
M  V30 2356 H 222.701 -2.87699 4.12599 0
M  V30 2357 H 222.401 -1.87571 5.56858 0
M  V30 2358 H 223.925 -2.7974 5.4275 0
M  V30 2359 H 225.339 -0.54325 5.7072 0
M  V30 2360 H 223.736 0.192594 5.99791 0
M  V30 2361 H 224.806 0.887663 4.76706 0
M  V30 2362 N 226.149 -1.5696 0.141893 0
M  V30 2363 C 227.096 -2.16501 -0.799737 0
M  V30 2364 C 228.066 -1.09643 -1.24771 0
M  V30 2365 O 229.251 -1.3766 -1.32115 0
M  V30 2366 C 226.391 -2.78679 -2.03549 0
M  V30 2367 C 225.504 -3.99914 -1.6338 0
M  V30 2368 C 224.639 -4.50106 -2.82096 0
M  V30 2369 C 223.678 -5.63819 -2.38275 0
M  V30 2370 N 222.815 -6.08651 -3.49983 0
M  V30 2371 H 227.655 -2.96632 -0.285179 0
M  V30 2372 H 225.192 -1.46533 -0.129053 0
M  V30 2373 H 227.15 -3.1287 -2.75986 0
M  V30 2374 H 225.78 -2.012 -2.52425 0
M  V30 2375 H 224.832 -3.71735 -0.807279 0
M  V30 2376 H 226.144 -4.82311 -1.27192 0
M  V30 2377 H 225.298 -4.86325 -3.62729 0
M  V30 2378 H 224.037 -3.66706 -3.21525 0
M  V30 2379 H 223.042 -5.2718 -1.56081 0
M  V30 2380 H 224.267 -6.49 -1.99938 0
M  V30 2381 H 222.213 -5.28188 -3.89042 0
M  V30 2382 H 222.13 -6.85961 -3.17794 0
M  V30 2383 H 223.398 -6.49515 -4.30988 0
M  V30 2384 N 227.627 0.131896 -1.57047 0
M  V30 2385 C 228.557 1.16384 -2.02428 0
M  V30 2386 C 229.538 1.43936 -0.90644 0
M  V30 2387 O 230.723 1.54599 -1.17528 0
M  V30 2388 C 227.853 2.49328 -2.4177 0
M  V30 2389 C 226.807 2.36266 -3.56879 0
M  V30 2390 C 226.133 3.74057 -3.8208 0
M  V30 2391 C 227.433 1.834 -4.89042 0
M  V30 2392 H 229.127 0.786433 -2.88887 0
M  V30 2393 H 226.673 0.376855 -1.38981 0
M  V30 2394 H 228.626 3.21759 -2.7212 0
M  V30 2395 H 227.35 2.88934 -1.52266 0
M  V30 2396 H 226.009 1.66286 -3.26718 0
M  V30 2397 H 225.657 4.11125 -2.89803 0
M  V30 2398 H 225.357 3.66174 -4.59554 0
M  V30 2399 H 226.881 4.48012 -4.1487 0
M  V30 2400 H 228.295 2.45636 -5.18011 0
M  V30 2401 H 226.692 1.8637 -5.70426 0
M  V30 2402 H 227.762 0.790662 -4.7841 0
M  V30 2403 N 229.106 1.52395 0.401703 0
M  V30 2404 C 230.053 1.76268 1.48991 0
M  V30 2405 C 231.023 0.605386 1.54675 0
M  V30 2406 O 232.208 0.843742 1.7113 0
M  V30 2407 C 229.348 1.92592 2.86361 0
M  V30 2408 C 228.461 3.20259 2.89928 0
M  V30 2409 C 227.596 3.26972 4.18644 0
M  V30 2410 C 226.635 4.48812 4.16214 0
M  V30 2411 N 225.772 4.52877 5.36514 0
M  V30 2412 H 230.612 2.6914 1.27935 0
M  V30 2413 H 228.149 1.33355 0.620871 0
M  V30 2414 H 230.107 2.0004 3.66115 0
M  V30 2415 H 228.737 1.03093 3.05895 0
M  V30 2416 H 227.789 3.21945 2.02621 0
M  V30 2417 H 229.101 4.10056 2.83999 0
M  V30 2418 H 228.255 3.33533 5.06794 0
M  V30 2419 H 226.994 2.35126 4.27278 0
M  V30 2420 H 225.999 4.4239 3.26453 0
M  V30 2421 H 227.224 5.41961 4.09213 0
M  V30 2422 H 225.17 3.63917 5.45802 0
M  V30 2423 H 225.087 5.36529 5.32609 0
M  V30 2424 H 226.355 4.63676 6.26597 0
M  V30 2425 N 230.584 -0.659388 1.43143 0
M  V30 2426 C 231.494 -1.80167 1.50256 0
M  V30 2427 C 232.51 -1.69571 0.390106 0
M  V30 2428 O 233.686 -1.90849 0.643319 0
M  V30 2429 C 230.751 -3.16409 1.41725 0
M  V30 2430 C 229.812 -3.38848 2.63591 0
M  V30 2431 C 229.045 -4.68591 2.55458 0
M  V30 2432 O 229.268 -5.47532 1.59891 0
M  V30 2433 O 228.202 -4.92614 3.45854 0
M  V30 2434 H 232.028 -1.77121 2.46702 0
M  V30 2435 H 229.613 -0.817092 1.25076 0
M  V30 2436 H 231.495 -3.9768 1.39387 0
M  V30 2437 H 230.17 -3.20059 0.484118 0
M  V30 2438 H 229.077 -2.57366 2.71502 0
M  V30 2439 H 230.41 -3.4004 3.55856 0
M  V30 2440 N 232.062 -1.29571 -0.897171 0
M  V30 2441 C 232.995 -1.0924 -2.00354 0
M  V30 2442 C 233.973 -0.00354011 -1.626 0
M  V30 2443 O 235.157 -0.15473 -1.87864 0
M  V30 2444 C 232.284 -0.66352 -3.32137 0
M  V30 2445 C 231.33 -1.75146 -3.88878 0
M  V30 2446 S 232.163 -3.35124 -4.17674 0
M  V30 2447 C 233.319 -2.9411 -5.52494 0
M  V30 2448 H 233.552 -2.02907 -2.17292 0
M  V30 2449 H 231.085 -1.13746 -1.04408 0
M  V30 2450 H 233.043 -0.422791 -4.08317 0
M  V30 2451 H 231.704 0.253588 -3.13075 0
M  V30 2452 H 230.897 -1.40337 -4.84068 0
M  V30 2453 H 230.499 -1.94584 -3.19395 0
M  V30 2454 H 232.791 -2.41312 -6.33068 0
M  V30 2455 H 233.734 -3.88161 -5.9223 0
M  V30 2456 H 234.142 -2.32332 -5.14473 0
M  V30 2457 N 233.54 1.10788 -1.12088 0
M  V30 2458 C 234.503 2.15207 -0.788577 0
M  V30 2459 C 235.503 1.59609 0.195317 0
M  V30 2460 O 236.693 1.74174 -0.0300193 0
M  V30 2461 C 233.825 3.4047 -0.171174 0
M  V30 2462 H 235.018 2.46116 -1.71368 0
M  V30 2463 H 232.571 1.26089 -0.923652 0
M  V30 2464 H 233.306 3.15176 0.763832 0
M  V30 2465 H 233.091 3.82109 -0.879514 0
M  V30 2466 H 234.581 4.17576 0.04496 0
M  V30 2467 N 235.018 0.912232 1.28515 0
M  V30 2468 C 235.928 0.404506 2.31086 0
M  V30 2469 C 236.944 -0.50707 1.66448 0
M  V30 2470 O 238.12 -0.393624 1.97516 0
M  V30 2471 C 235.185 -0.348572 3.44943 0
M  V30 2472 C 234.246 0.59604 4.25142 0
M  V30 2473 C 233.479 -0.121194 5.33562 0
M  V30 2474 O 233.702 -1.34317 5.5436 0
M  V30 2475 O 232.636 0.542716 5.99448 0
M  V30 2476 H 236.462 1.25579 2.76521 0
M  V30 2477 H 234.047 0.676998 1.33181 0
M  V30 2478 H 235.929 -0.77395 4.14232 0
M  V30 2479 H 234.604 -1.17571 3.01594 0
M  V30 2480 H 233.511 1.07079 3.58448 0
M  V30 2481 H 234.844 1.38995 4.72167 0
M  V30 2482 N 236.496 -1.42363 0.676048 0
M  V30 2483 C 237.459 -2.29199 0.00766941 0
M  V30 2484 C 238.459 -1.43389 -0.727745 0
M  V30 2485 O 239.649 -1.64764 -0.56556 0
M  V30 2486 C 236.781 -3.2591 -0.999785 0
M  V30 2487 H 237.974 -2.89794 0.771988 0
M  V30 2488 H 235.527 -1.50024 0.438468 0
M  V30 2489 H 236.262 -2.70256 -1.79255 0
M  V30 2490 H 236.047 -3.89202 -0.475829 0
M  V30 2491 H 237.537 -3.91028 -1.46583 0
M  V30 2492 N 237.974 -0.419461 -1.51915 0
M  V30 2493 C 239.204 0.151915 -2.06041 0
M  V30 2494 C 239.612 1.38539 -1.28855 0
M  V30 2495 O 238.955 1.80592 -0.336463 0
M  V30 2496 C 239.017 0.557119 -3.55157 0
M  V30 2497 C 238.681 -0.567054 -4.53468 0
M  V30 2498 C 239.678 -1.43379 -4.99738 0
M  V30 2499 C 237.363 -0.742693 -4.96779 0
M  V30 2500 C 239.357 -2.46102 -5.87973 0
M  V30 2501 C 237.044 -1.77322 -5.84808 0
M  V30 2502 C 238.042 -2.63078 -6.30301 0
M  V30 2503 O 237.73 -3.64364 -7.16585 0
M  V30 2504 H 237.462 0.0193293 -0.675724 0
M  V30 2505 H 240.016 -0.592073 -1.96682 0
M  V30 2506 H 238.246 1.35355 -3.62238 0
M  V30 2507 H 239.935 1.05759 -3.9188 0
M  V30 2508 H 240.701 -1.30954 -4.66986 0
M  V30 2509 H 236.58 -0.0848307 -4.60922 0
M  V30 2510 H 240.124 -3.13071 -6.23404 0
M  V30 2511 H 236.021 -1.89773 -6.16974 0
M  V30 2512 H 236.789 -3.60731 -7.34721 0
M  V30 2513 N 239.452 1.56882 -0.150215 0
M  V30 2514 C 240.382 2.19935 0.784284 0
M  V30 2515 C 241.363 1.14854 1.25469 0
M  V30 2516 O 242.548 1.43209 1.31168 0
M  V30 2517 C 239.678 2.82349 2.02229 0
M  V30 2518 C 238.632 3.93285 1.68853 0
M  V30 2519 C 237.958 4.42649 2.99944 0
M  V30 2520 C 239.258 5.13904 0.932714 0
M  V30 2521 H 240.952 2.9828 0.258781 0
M  V30 2522 H 238.498 1.43473 0.123029 0
M  V30 2523 H 240.451 3.25126 2.68088 0
M  V30 2524 H 239.175 2.0134 2.57157 0
M  V30 2525 H 237.834 3.5113 1.05371 0
M  V30 2526 H 237.482 3.58458 3.52869 0
M  V30 2527 H 237.182 5.17476 2.78374 0
M  V30 2528 H 238.706 4.88099 3.66868 0
M  V30 2529 H 240.12 5.53506 1.49345 0
M  V30 2530 H 238.517 5.94515 0.81684 0
M  V30 2531 H 239.587 4.84842 -0.0749568 0
M  V30 2532 N 240.93 -0.123565 1.57115 0
M  V30 2533 C 242.178 -0.83051 1.84247 0
M  V30 2534 C 242.499 -1.80629 0.73471 0
M  V30 2535 O 241.769 -1.94403 -0.241688 0
M  V30 2536 H 240.349 -0.309694 0.679778 0
M  V30 2537 H 243.011 -0.111976 1.94578 0
M  V30 2538 H 242.107 -1.37852 2.80006 0
M  V30 2539 N 242.408 -1.52605 -0.393616 0
M  V30 2540 C 243.341 -1.71798 -1.50202 0
M  V30 2541 C 244.319 -0.565743 -1.52441 0
M  V30 2542 O 245.503 -0.794987 -1.70916 0
M  V30 2543 C 242.63 -1.7714 -2.88685 0
M  V30 2544 C 241.676 -2.98845 -3.04292 0
M  V30 2545 S 242.509 -4.58909 -2.75976 0
M  V30 2546 C 243.665 -4.6706 -4.1666 0
M  V30 2547 H 243.898 -2.65542 -1.33696 0
M  V30 2548 H 241.431 -1.42839 -0.586195 0
M  V30 2549 H 243.389 -1.80903 -3.68489 0
M  V30 2550 H 242.05 -0.844969 -3.02521 0
M  V30 2551 H 241.243 -2.99111 -4.05646 0
M  V30 2552 H 240.845 -2.9305 -2.32374 0
M  V30 2553 H 243.137 -4.45391 -5.10523 0
M  V30 2554 H 244.08 -5.6905 -4.21412 0
M  V30 2555 H 244.488 -3.95944 -4.02354 0
M  V30 2556 N 243.887 0.651787 -1.4349 0
M  V30 2557 C 245.298 1.233 -1.40193 0
M  V30 2558 C 245.649 1.9591 -0.106727 0
M  V30 2559 O 244.774 2.01316 0.793773 0
M  V30 2560 C 245.369 2.24257 -2.53957 0
M  V30 2561 C 243.928 2.77852 -2.5392 0
M  V30 2562 C 243.075 1.52517 -2.3159 0
M  V30 2563 H 246.026 0.443717 -1.52371 0
M  V30 2564 H 246.047 3.0646 -2.25528 0
M  V30 2565 H 245.559 1.71382 -3.4821 0
M  V30 2566 H 243.66 3.34786 -1.63551 0
M  V30 2567 H 243.773 3.25299 -3.51735 0
M  V30 2568 H 242.137 1.79915 -1.80285 0
M  V30 2569 H 242.92 1.01574 -3.27929 0
M  V30 2570 N 245.365 1.30045 0.890287 0
M  V30 2571 C 246.611 1.18737 1.64406 0
M  V30 2572 C 246.944 -0.258525 1.92472 0
M  V30 2573 O 246.219 -1.18562 1.54186 0
M  V30 2574 C 246.502 2.01087 2.98724 0
M  V30 2575 C 246.355 3.53867 2.77665 0
M  V30 2576 C 247.674 1.84457 3.9958 0
M  V30 2577 H 244.793 0.432698 0.596608 0
M  V30 2578 H 247.435 1.5962 1.0306 0
M  V30 2579 H 245.585 1.66349 3.51084 0
M  V30 2580 H 247.257 3.98637 2.32133 0
M  V30 2581 H 245.5 3.78318 2.12269 0
M  V30 2582 H 246.171 4.06772 3.7315 0
M  V30 2583 H 248.647 2.14817 3.56361 0
M  V30 2584 H 247.523 2.44411 4.91482 0
M  V30 2585 H 247.784 0.802276 4.3476 0
M  V30 2586 N 246.843 -1.10192 1.12674 0
M  V30 2587 C 247.806 -2.14786 0.799979 0
M  V30 2588 C 248.806 -1.59711 -0.18685 0
M  V30 2589 O 249.996 -1.74156 0.0392558 0
M  V30 2590 C 247.128 -3.40374 0.189228 0
M  V30 2591 H 248.321 -2.45203 1.72671 0
M  V30 2592 H 245.874 -1.25597 0.930326 0
M  V30 2593 H 246.609 -3.15577 -0.747107 0
M  V30 2594 H 246.394 -3.81637 0.899766 0
M  V30 2595 H 247.884 -4.17594 -0.0228143 0
M  V30 2596 N 248.321 -0.919034 -1.28029 0
M  V30 2597 C 249.269 -0.401753 -2.29104 0
M  V30 2598 C 250.263 0.509354 -1.61561 0
M  V30 2599 O 251.469 0.390014 -1.75724 0
M  V30 2600 H 247.844 -0.111331 -0.743713 0
M  V30 2601 H 249.815 -1.2672 -2.70156 0
M  V30 2602 C 248.564 0.338148 -3.46052 0
M  V30 2603 H 247.887 -0.353732 -3.98232 0
M  V30 2604 H 249.327 0.664653 -4.18758 0
M  V30 2605 C 247.786 1.54798 -2.99231 0
M  V30 2606 O 248.316 2.64696 -3.02157 0
M  V30 2607 N 246.522 1.3968 -2.54829 0
M  V30 2608 H 246.069 0.502698 -2.52647 0
M  V30 2609 H 246.027 2.20755 -2.23863 0
M  V30 2610 N 249.799 1.42003 -0.683588 0
M  V30 2611 C 250.762 2.29191 -0.0198243 0
M  V30 2612 C 251.762 1.43773 0.72013 0
M  V30 2613 O 252.952 1.65061 0.556815 0
M  V30 2614 C 250.084 3.26435 0.982487 0
M  V30 2615 H 251.277 2.8938 -0.787345 0
M  V30 2616 H 248.83 1.49789 -0.446418 0
M  V30 2617 H 249.565 2.71203 1.77819 0
M  V30 2618 H 249.35 3.89449 0.455182 0
M  V30 2619 H 250.84 3.918 1.44508 0
M  V30 2620 N 251.277 0.427512 1.51691 0
M  V30 2621 C 252.523 -0.142439 2.02299 0
M  V30 2622 C 252.856 -1.43214 1.31162 0
M  V30 2623 O 252.131 -1.89833 0.423511 0
M  V30 2624 C 252.414 -0.371301 3.58181 0
M  V30 2625 C 252.267 0.936358 4.39946 0
M  V30 2626 C 253.586 -1.14542 4.24933 0
M  V30 2627 H 250.705 -0.0502937 0.735282 0
M  V30 2628 H 253.347 0.564584 1.81418 0
M  V30 2629 H 251.497 -0.973559 3.76104 0
M  V30 2630 H 253.169 1.57184 4.33694 0
M  V30 2631 H 251.412 1.5432 4.05423 0
M  V30 2632 H 252.083 0.730388 5.47147 0
M  V30 2633 H 254.559 -0.635362 4.11221 0
M  V30 2634 H 253.435 -1.27431 5.33903 0
M  V30 2635 H 253.696 -2.17093 3.85127 0
M  V30 2636 N 252.755 -1.56801 0.158532 0
M  V30 2637 C 254.004 -1.95665 -0.489702 0
M  V30 2638 C 254.317 -1.04654 -1.65248 0
M  V30 2639 O 255.523 -1.33146 -2.3661 0
M  V30 2640 C 253.979 -3.47874 -0.922582 0
M  V30 2641 C 253.587 -4.47489 0.213893 0
M  V30 2642 C 255.331 -3.95583 -1.53996 0
M  V30 2643 C 253.238 -5.90921 -0.237903 0
M  V30 2644 H 252.168 -0.730516 -0.186716 0
M  V30 2645 H 254.819 -1.81861 0.244722 0
M  V30 2646 H 253.201 -3.57051 -1.71261 0
M  V30 2647 H 254.375 -4.50017 0.991036 0
M  V30 2648 H 252.69 -4.09764 0.740407 0
M  V30 2649 H 255.287 -5.0019 -1.8898 0
M  V30 2650 H 255.63 -3.37789 -2.43319 0
M  V30 2651 H 256.163 -3.8937 -0.814611 0
M  V30 2652 H 252.902 -6.52559 0.620236 0
M  V30 2653 H 252.422 -5.91729 -0.980676 0
M  V30 2654 H 254.101 -6.43352 -0.686067 0
M  V30 2655 N 254.233 0.115231 -1.57178 0
M  V30 2656 C 255.458 0.840354 -1.89612 0
M  V30 2657 C 255.883 1.72464 -0.750845 0
M  V30 2658 O 255.241 1.78826 0.298478 0
M  V30 2659 C 255.289 1.64654 -3.20814 0
M  V30 2660 O 254.393 2.7538 -3.06985 0
M  V30 2661 H 253.734 0.232158 -0.622092 0
M  V30 2662 H 256.264 0.0964977 -2.04372 0
M  V30 2663 H 256.274 2.03499 -3.53627 0
M  V30 2664 H 254.949 0.997416 -4.03763 0
M  V30 2665 H 253.526 2.3971 -2.85646 0
M  V30 2666 N 255.711 1.52812 0.385517 0
M  V30 2667 C 256.957 1.68275 1.13188 0
M  V30 2668 C 257.29 0.423179 1.89533 0
M  V30 2669 O 256.565 -0.579113 1.85679 0
M  V30 2670 C 256.848 2.92001 2.1073 0
M  V30 2671 C 256.701 4.28067 1.38125 0
M  V30 2672 C 258.02 3.11283 3.11113 0
M  V30 2673 H 255.139 0.612352 0.410115 0
M  V30 2674 H 257.781 1.85415 0.414869 0
M  V30 2675 H 255.931 2.77519 2.71874 0
M  V30 2676 H 257.603 4.54324 0.799187 0
M  V30 2677 H 255.846 4.28388 0.683092 0
M  V30 2678 H 256.517 5.10733 2.09417 0
M  V30 2679 H 258.993 3.2482 2.6006 0
M  V30 2680 H 257.869 3.99325 3.76605 0
M  V30 2681 H 258.13 2.25656 3.80173 0
M  V30 2682 N 257.189 -0.644168 1.43834 0
M  V30 2683 C 258.6 -1.22554 1.40845 0
M  V30 2684 C 258.951 -1.9585 0.117115 0
M  V30 2685 O 258.076 -2.01734 -0.783086 0
M  V30 2686 C 258.671 -2.22907 2.55143 0
M  V30 2687 C 257.23 -2.76501 2.5539 0
M  V30 2688 C 256.377 -1.51287 2.32396 0
M  V30 2689 H 259.328 -0.43563 1.52604 0
M  V30 2690 H 259.349 -3.05259 2.2715 0
M  V30 2691 H 258.861 -1.69533 3.49114 0
M  V30 2692 H 256.962 -3.33914 1.65324 0
M  V30 2693 H 257.075 -3.23429 3.53455 0
M  V30 2694 H 255.439 -1.78957 1.81236 0
M  V30 2695 H 256.222 -0.998336 3.28463 0
M  V30 2696 N 258.668 -1.30515 -0.883378 0
M  V30 2697 C 259.631 -1.1701 -1.97082 0
M  V30 2698 C 260.631 -0.10089 -1.60483 0
M  V30 2699 O 261.821 -0.349127 -1.70666 0
M  V30 2700 C 258.953 -0.793045 -3.31547 0
M  V30 2701 H 260.146 -2.13622 -2.10489 0
M  V30 2702 H 257.699 -1.13935 -1.06998 0
M  V30 2703 H 258.434 0.172499 -3.23841 0
M  V30 2704 H 258.219 -1.56576 -3.5948 0
M  V30 2705 H 259.709 -0.722073 -4.1131 0
M  V30 2706 N 260.146 1.09593 -1.13257 0
M  V30 2707 C 261.056 2.19739 -0.821691 0
M  V30 2708 C 262.072 1.72926 0.19302 0
M  V30 2709 O 263.248 2.01385 0.0244895 0
M  V30 2710 C 260.313 3.45482 -0.290333 0
M  V30 2711 C 259.374 4.06985 -1.36607 0
M  V30 2712 C 258.607 5.26726 -0.859975 0
M  V30 2713 O 258.83 5.69594 0.303082 0
M  V30 2714 O 257.764 5.7931 -1.63351 0
M  V30 2715 H 261.59 2.48781 -1.74189 0
M  V30 2716 H 259.175 1.18496 -0.909894 0
M  V30 2717 H 261.057 4.214 0.000674022 0
M  V30 2718 H 259.732 3.18047 0.602306 0
M  V30 2719 H 258.639 3.32712 -1.71037 0
M  V30 2720 H 259.972 4.38643 -2.23279 0
M  V30 2721 N 261.624 0.925811 1.2754 0
M  V30 2722 C 262.871 0.565255 1.94451 0
M  V30 2723 C 263.199 -0.89316 1.7278 0
M  V30 2724 O 262.454 -1.65213 1.04895 0
M  V30 2725 C 262.753 0.835296 3.47502 0
M  V30 2726 C 262.419 2.27515 3.89291 0
M  V30 2727 C 261.081 2.66879 4.00411 0
M  V30 2728 C 263.433 3.21158 4.10496 0
M  V30 2729 C 260.761 3.99014 4.30122 0
M  V30 2730 C 263.113 4.52871 4.4169 0
M  V30 2731 C 261.777 4.92072 4.51023 0
M  V30 2732 H 261.047 0.206841 0.711546 0
M  V30 2733 H 263.694 1.16942 1.51647 0
M  V30 2734 H 261.999 0.148442 3.91519 0
M  V30 2735 H 263.696 0.535322 3.97411 0
M  V30 2736 H 260.286 1.95976 3.81171 0
M  V30 2737 H 264.47 2.9195 4.01346 0
M  V30 2738 H 259.726 4.2907 4.35556 0
M  V30 2739 H 263.9 5.25436 4.57045 0
M  V30 2740 H 261.527 5.9449 4.738 0
M  V30 2741 N 263.102 -1.41638 0.69111 0
M  V30 2742 C 264.379 -1.95036 0.148421 0
M  V30 2743 C 264.759 -1.63072 -1.34055 0
M  V30 2744 O 264.107 -0.93538 -2.08478 0
M  V30 2745 C 264.317 -3.46279 0.434951 0
M  V30 2746 C 265.665 -4.23069 0.360275 0
M  V30 2747 O 266.689 -3.54277 0.369613 0
M  V30 2748 O 265.548 -5.45583 0.316534 0
M  V30 2749 H 262.642 -0.826908 0.0123654 0
M  V30 2750 H 265.188 -1.5138 0.766963 0
M  V30 2751 H 263.96 -3.6281 1.46576 0
M  V30 2752 H 263.583 -3.97019 -0.214787 0
M  V30 2753 N 264.58 -0.43555 -1.51462 0
M  V30 2754 C 265.51 0.367376 -2.30592 0
M  V30 2755 C 266.491 1.02263 -1.35928 0
M  V30 2756 O 267.676 1.02661 -1.64847 0
M  V30 2757 C 264.806 1.46983 -3.14664 0
M  V30 2758 C 263.76 0.938161 -4.17591 0
M  V30 2759 C 263.086 2.13622 -4.90173 0
M  V30 2760 C 264.386 -0.0261621 -5.22293 0
M  V30 2761 H 266.08 -0.292969 -2.97963 0
M  V30 2762 H 263.626 -0.14234 -1.43295 0
M  V30 2763 H 265.579 2.03873 -3.688 0
M  V30 2764 H 264.303 2.15843 -2.4511 0
M  V30 2765 H 262.962 0.391481 -3.64504 0
M  V30 2766 H 262.61 2.81098 -4.17124 0
M  V30 2767 H 262.31 1.78688 -5.59772 0
M  V30 2768 H 263.834 2.7107 -5.47132 0
M  V30 2769 H 265.248 0.452384 -5.71512 0
M  V30 2770 H 263.645 -0.287992 -5.99409 0
M  V30 2771 H 264.715 -0.963391 -4.75233 0
M  V30 2772 N 266.058 1.56714 -0.166846 0
M  V30 2773 C 267.005 2.17746 0.765193 0
M  V30 2774 C 267.975 1.11614 1.23011 0
M  V30 2775 O 269.16 1.39745 1.29908 0
M  V30 2776 C 266.3 2.81882 1.9909 0
M  V30 2777 C 265.413 4.02462 1.56997 0
M  V30 2778 C 264.548 4.54537 2.749 0
M  V30 2779 C 263.587 5.67538 2.29275 0
M  V30 2780 N 262.724 6.14142 3.40255 0
M  V30 2781 H 267.564 2.97048 0.237952 0
M  V30 2782 H 265.101 1.4672 0.105725 0
M  V30 2783 H 267.059 3.17221 2.70974 0
M  V30 2784 H 265.689 2.05191 2.49192 0
M  V30 2785 H 264.741 3.72973 0.748037 0
M  V30 2786 H 266.053 4.84273 1.19503 0
M  V30 2787 H 265.207 4.92035 3.54946 0
M  V30 2788 H 263.946 3.71774 3.1565 0
M  V30 2789 H 262.951 5.29597 1.47674 0
M  V30 2790 H 264.176 6.52099 1.89588 0
M  V30 2791 H 262.122 5.3431 3.8059 0
M  V30 2792 H 262.039 6.9093 3.06841 0
M  V30 2793 H 263.307 6.56289 4.206 0
M  V30 2794 N 267.536 -0.106894 1.57237 0
M  V30 2795 C 268.468 -1.15646 1.97885 0
M  V30 2796 C 269.481 -1.36981 0.879779 0
M  V30 2797 O 270.67 -1.35841 1.15799 0
M  V30 2798 C 267.77 -2.51425 2.27241 0
M  V30 2799 C 266.943 -2.50529 3.58545 0
M  V30 2800 C 266.002 -3.68145 3.75973 0
M  V30 2801 O 265.028 -3.51176 4.47956 0
M  V30 2802 N 266.23 -4.87177 3.15656 0
M  V30 2803 H 268.995 -0.81059 2.8853 0
M  V30 2804 H 266.556 -0.296024 1.59171 0
M  V30 2805 H 268.548 -3.28689 2.36105 0
M  V30 2806 H 267.118 -2.78147 1.42663 0
M  V30 2807 H 266.338 -1.58894 3.60758 0
M  V30 2808 H 267.626 -2.46997 4.44826 0
M  V30 2809 H 267.024 -5.03868 2.57165 0
M  V30 2810 H 265.581 -5.62075 3.30023 0
M  V30 2811 N 269.014 -1.53014 -0.377408 0
M  V30 2812 C 270.43 -1.42523 -0.718281 0
M  V30 2813 C 270.63 -0.55487 -1.9371 0
M  V30 2814 O 269.686 -0.0327593 -2.52479 0
M  V30 2815 C 270.999 -2.85546 -0.942539 0
M  V30 2816 C 272.547 -2.95101 -1.04329 0
M  V30 2817 C 273.022 -4.3916 -1.3001 0
M  V30 2818 N 274.513 -4.42536 -1.36806 0
M  V30 2819 C 275.248 -5.51097 -1.58364 0
M  V30 2820 N 274.744 -6.69724 -1.77317 0
M  V30 2821 N 276.537 -5.38657 -1.60638 0
M  V30 2822 H 268.688 -2.08116 0.424426 0
M  V30 2823 H 270.951 -0.939352 0.127759 0
M  V30 2824 H 270.657 -3.51499 -0.118929 0
M  V30 2825 H 270.531 -3.28493 -1.85397 0
M  V30 2826 H 272.918 -2.29309 -1.85745 0
M  V30 2827 H 272.999 -2.55566 -0.109505 0
M  V30 2828 H 272.643 -5.05521 -0.490991 0
M  V30 2829 H 272.573 -4.76258 -2.24691 0
M  V30 2830 H 275.064 -3.57039 -1.23821 0
M  V30 2831 H 275.377 -7.48233 -1.93306 0
M  V30 2832 H 273.722 -6.72732 -1.74518 0
M  V30 2833 H 276.913 -4.44948 -1.45391 0
M  V30 2834 H 277.086 -6.2333 -1.77098 0
M  V30 2835 N 270.492 0.636531 -1.44174 0
M  V30 2836 C 271.44 1.76995 -1.50915 0
M  V30 2837 C 272.434 1.65053 -0.381295 0
M  V30 2838 O 273.64 1.71197 -0.55601 0
M  V30 2839 H 270.015 0.584247 -0.473455 0
M  V30 2840 H 271.986 1.68432 -2.4632 0
M  V30 2841 C 270.735 3.15314 -1.46534 0
M  V30 2842 H 270.058 3.25149 -2.32633 0
M  V30 2843 H 271.498 3.9453 -1.55312 0
M  V30 2844 C 269.957 3.3639 -0.185305 0
M  V30 2845 O 270.487 3.94699 0.746688 0
M  V30 2846 N 268.693 2.9046 -0.0901606 0
M  V30 2847 H 268.24 2.43193 -0.849416 0
M  V30 2848 H 268.198 3.04937 0.765553 0
M  V30 2849 N 271.97 1.30982 0.876444 0
M  V30 2850 C 273.195 1.23373 1.66715 0
M  V30 2851 C 273.62 -0.19885 1.87046 0
M  V30 2852 O 272.978 -1.1427 1.40756 0
M  V30 2853 C 273.026 1.97644 3.01611 0
M  V30 2854 O 272.13 1.30935 3.91062 0
M  V30 2855 H 271.471 0.426279 0.509099 0
M  V30 2856 H 274.001 1.72944 1.09323 0
M  V30 2857 H 274.011 2.06992 3.51594 0
M  V30 2858 H 272.686 3.01829 2.86133 0
M  V30 2859 H 271.263 1.29996 3.49507 0
M  V30 2860 N 273.449 -1.08991 1.13837 0
M  V30 2861 C 274.677 -1.85011 0.926202 0
M  V30 2862 C 275.092 -1.8135 -0.525127 0
M  V30 2863 O 274.449 -1.21287 -1.36366 0
M  V30 2864 C 274.5 -3.32802 1.41155 0
M  V30 2865 O 274.221 -3.36444 2.80601 0
M  V30 2866 C 275.722 -4.25649 1.23847 0
M  V30 2867 H 272.942 -0.584249 0.32999 0
M  V30 2868 H 275.486 -1.37688 1.51202 0
M  V30 2869 H 273.641 -3.77536 0.868631 0
M  V30 2870 H 274.055 -4.28657 3.02248 0
M  V30 2871 H 275.529 -5.27485 1.62675 0
M  V30 2872 H 276.006 -4.38828 0.18065 0
M  V30 2873 H 276.612 -3.86735 1.76964 0
M  V30 2874 N 274.927 -0.932562 -1.27047 0
M  V30 2875 C 276.176 -0.571351 -1.93439 0
M  V30 2876 C 276.489 0.892467 -1.74053 0
M  V30 2877 O 277.695 1.36267 -2.34826 0
M  V30 2878 C 276.151 -0.97106 -3.46552 0
M  V30 2879 C 275.759 -2.4559 -3.74686 0
M  V30 2880 C 277.503 -0.681333 -4.18997 0
M  V30 2881 C 275.41 -2.79475 -5.21198 0
M  V30 2882 H 274.34 -0.209966 -0.724176 0
M  V30 2883 H 276.991 -1.13403 -1.44263 0
M  V30 2884 H 275.373 -0.336983 -3.94564 0
M  V30 2885 H 276.547 -3.13829 -3.37414 0
M  V30 2886 H 274.862 -2.71802 -3.15456 0
M  V30 2887 H 277.459 -0.910939 -5.26883 0
M  V30 2888 H 277.802 0.381628 -4.14547 0
M  V30 2889 H 278.335 -1.27473 -3.76823 0
M  V30 2890 H 275.074 -3.847 -5.30741 0
M  V30 2891 H 274.594 -2.1589 -5.596 0
M  V30 2892 H 276.273 -2.67478 -5.89122 0
M  V30 2893 N 276.405 1.4127 -0.698611 0
M  V30 2894 C 277.315 2.34573 -0.0357891 0
M  V30 2895 C 278.331 1.56393 0.762701 0
M  V30 2896 O 279.507 1.8886 0.699564 0
M  V30 2897 C 276.572 3.35159 0.887089 0
M  V30 2898 C 275.633 4.29225 0.0804634 0
M  V30 2899 C 274.866 5.25006 0.959387 0
M  V30 2900 O 275.089 5.26314 2.19886 0
M  V30 2901 O 274.023 6.00519 0.407439 0
M  V30 2902 H 277.849 2.92838 -0.804957 0
M  V30 2903 H 275.434 1.42175 -0.458966 0
M  V30 2904 H 277.316 3.9689 1.41621 0
M  V30 2905 H 275.991 2.79333 1.6357 0
M  V30 2906 H 274.898 3.70833 -0.493328 0
M  V30 2907 H 276.231 4.88157 -0.629547 0
M  V30 2908 N 277.883 0.443576 1.51229 0
M  V30 2909 C 278.846 -0.353132 2.26463 0
M  V30 2910 C 279.846 -0.944338 1.3015 0
M  V30 2911 O 281.036 -0.817813 1.5381 0
M  V30 2912 C 278.168 -1.50023 3.06114 0
M  V30 2913 H 279.361 0.3063 2.98332 0
M  V30 2914 H 276.914 0.196902 1.55055 0
M  V30 2915 H 277.649 -2.19553 2.38677 0
M  V30 2916 H 277.434 -1.08241 3.76864 0
M  V30 2917 H 278.924 -2.06296 3.63087 0
M  V30 2918 N 279.361 -1.56624 0.175154 0
M  V30 2919 C 280.324 -2.16934 -0.739738 0
M  V30 2920 C 281.324 -1.11842 -1.15533 0
M  V30 2921 O 282.514 -1.37335 -1.07167 0
M  V30 2922 C 279.646 -2.75531 -2.00738 0
M  V30 2923 H 280.839 -2.99131 -0.214639 0
M  V30 2924 H 278.392 -1.56123 -0.0744197 0
M  V30 2925 H 279.127 -1.97078 -2.57548 0
M  V30 2926 H 278.912 -3.52444 -1.71831 0
M  V30 2927 H 280.402 -3.21904 -2.66021 0
M  V30 2928 N 280.839 0.0985539 -1.57292 0
M  V30 2929 C 281.787 1.1387 -2.02821 0
M  V30 2930 C 282.781 1.41676 -0.928666 0
M  V30 2931 O 283.987 1.41398 -1.11385 0
M  V30 2932 H 280.362 0.384419 -0.646317 0
M  V30 2933 H 282.333 0.728347 -2.89375 0
M  V30 2934 C 281.082 2.45166 -2.46554 0
M  V30 2935 H 280.405 2.24613 -3.3074 0
M  V30 2936 H 281.845 3.16456 -2.8219 0
M  V30 2937 C 280.304 3.09216 -1.33742 0
M  V30 2938 O 280.834 3.96163 -0.66464 0
M  V30 2939 N 279.04 2.69413 -1.08928 0
M  V30 2940 H 278.587 1.98801 -1.63817 0
M  V30 2941 H 278.545 3.12594 -0.336458 0
M  V30 2942 N 282.317 1.53212 0.369288 0
M  V30 2943 C 283.247 1.82365 1.45826 0
M  V30 2944 C 284.228 0.676907 1.56051 0
M  V30 2945 O 285.413 0.926401 1.70679 0
M  V30 2946 C 282.543 2.01023 2.83208 0
M  V30 2947 C 281.497 3.1678 2.8781 0
M  V30 2948 C 280.823 3.20724 4.27832 0
M  V30 2949 C 282.123 4.55447 2.55667 0
M  V30 2950 H 283.817 2.73559 1.21678 0
M  V30 2951 H 281.363 1.3163 0.583911 0
M  V30 2952 H 283.316 2.20001 3.59413 0
M  V30 2953 H 282.04 1.06536 3.08736 0
M  V30 2954 H 280.699 2.97616 2.14056 0
M  V30 2955 H 280.347 2.23882 4.50429 0
M  V30 2956 H 280.047 3.98496 4.31827 0
M  V30 2957 H 281.571 3.41881 5.05915 0
M  V30 2958 H 282.985 4.74611 3.21586 0
M  V30 2959 H 281.382 5.35432 2.70984 0
M  V30 2960 H 282.452 4.60812 1.5093 0
M  V30 2961 N 283.795 -0.628877 1.44509 0
M  V30 2962 C 284.758 -1.72263 1.51188 0
M  V30 2963 C 285.758 -1.55907 0.39367 0
M  V30 2964 O 286.948 -1.61361 0.656377 0
M  V30 2965 C 284.08 -3.11365 1.38798 0
M  V30 2966 H 285.273 -1.67714 2.4862 0
M  V30 2967 H 282.826 -0.842737 1.31634 0
M  V30 2968 H 283.561 -3.21507 0.424693 0
M  V30 2969 H 283.346 -3.24644 2.19884 0
M  V30 2970 H 284.836 -3.91075 1.46458 0
M  V30 2971 N 285.273 -1.31445 -0.869486 0
M  V30 2972 C 286.521 -1.20918 -1.61936 0
M  V30 2973 C 286.842 0.232683 -1.93607 0
M  V30 2974 O 286.112 1.15352 -1.58338 0
M  V30 2975 H 284.692 -0.44454 -0.600328 0
M  V30 2976 H 287.354 -1.64776 -1.0409 0
M  V30 2977 H 286.45 -1.78124 -2.56278 0
M  V30 2978 N 286.751 1.08385 -1.14413 0
M  V30 2979 C 287.681 2.17321 -0.854044 0
M  V30 2980 C 288.662 1.69024 0.191049 0
M  V30 2981 O 289.847 1.94141 0.0476779 0
M  V30 2982 C 286.977 3.45719 -0.330983 0
M  V30 2983 C 285.931 4.07409 -1.31155 0
M  V30 2984 C 285.257 5.30762 -0.64778 0
M  V30 2985 C 286.557 4.48665 -2.67388 0
M  V30 2986 H 288.251 2.41845 -1.76498 0
M  V30 2987 H 285.797 1.16233 -0.850051 0
M  V30 2988 H 287.75 4.21241 -0.115645 0
M  V30 2989 H 286.474 3.2075 0.615381 0
M  V30 2990 H 285.133 3.33919 -1.51306 0
M  V30 2991 H 284.781 5.02078 0.304398 0
M  V30 2992 H 284.481 5.72992 -1.30207 0
M  V30 2993 H 286.005 6.08998 -0.441972 0
M  V30 2994 H 287.419 5.15364 -2.51143 0
M  V30 2995 H 285.816 5.01814 -3.29093 0
M  V30 2996 H 286.886 3.60543 -3.24248 0
M  V30 2997 N 288.23 0.939286 1.26551 0
M  V30 2998 C 289.177 0.446088 2.26448 0
M  V30 2999 C 290.147 -0.493234 1.58608 0
M  V30 3000 O 291.332 -0.409857 1.86346 0
M  V30 3001 C 288.472 -0.284375 3.43926 0
M  V30 3002 C 287.585 0.690399 4.26448 0
M  V30 3003 C 286.72 -0.0610712 5.31165 0
M  V30 3004 C 285.759 0.905649 6.05363 0
M  V30 3005 N 284.896 0.186055 7.01853 0
M  V30 3006 H 289.736 1.30291 2.68008 0
M  V30 3007 H 287.273 0.65371 1.31776 0
M  V30 3008 H 289.231 -0.724313 4.10864 0
M  V30 3009 H 287.861 -1.10535 3.03285 0
M  V30 3010 H 286.913 1.24885 3.59316 0
M  V30 3011 H 288.225 1.42873 4.779 0
M  V30 3012 H 287.379 -0.56038 6.04106 0
M  V30 3013 H 286.118 -0.832297 4.80546 0
M  V30 3014 H 285.123 1.4161 5.3125 0
M  V30 3015 H 286.348 1.67685 6.58072 0
M  V30 3016 H 284.294 -0.566714 6.53548 0
M  V30 3017 H 284.211 0.863752 7.51049 0
M  V30 3018 H 285.479 -0.292221 7.78952 0
M  V30 3019 N 289.708 -1.40897 0.706093 0
M  V30 3020 C 290.957 -2.00284 0.238574 0
M  V30 3021 C 291.27 -1.56604 -1.17194 0
M  V30 3022 O 292.476 -2.08624 -1.73748 0
M  V30 3023 C 290.932 -3.57934 0.375623 0
M  V30 3024 C 290.54 -4.10591 1.79217 0
M  V30 3025 C 292.284 -4.24488 -0.0315857 0
M  V30 3026 C 290.191 -5.60712 1.88032 0
M  V30 3027 H 289.121 -0.749144 0.0854398 0
M  V30 3028 H 291.772 -1.61251 0.875813 0
M  V30 3029 H 290.154 -3.94622 -0.330042 0
M  V30 3030 H 291.328 -3.85301 2.52745 0
M  V30 3031 H 289.643 -3.56601 2.15 0
M  V30 3032 H 292.24 -5.34698 0.0136842 0
M  V30 3033 H 292.583 -4.02261 -1.072 0
M  V30 3034 H 293.116 -3.92873 0.624181 0
M  V30 3035 H 289.855 -5.87781 2.90161 0
M  V30 3036 H 289.375 -5.87896 1.18903 0
M  V30 3037 H 291.054 -6.25658 1.64805 0
M  V30 3038 N 291.186 -0.45159 -1.50991 0
M  V30 3039 C 292.116 0.342898 -2.30969 0
M  V30 3040 C 293.097 1.00815 -1.37005 0
M  V30 3041 O 294.282 1.00907 -1.65926 0
M  V30 3042 C 291.412 1.43637 -3.16205 0
M  V30 3043 C 290.366 0.893818 -4.18563 0
M  V30 3044 C 289.692 2.08411 -4.92411 0
M  V30 3045 C 290.992 -0.0815568 -5.22236 0
M  V30 3046 H 292.686 -0.324556 -2.97636 0
M  V30 3047 H 290.232 -0.157531 -1.43136 0
M  V30 3048 H 292.185 1.9995 -3.70942 0
M  V30 3049 H 290.909 2.13232 -2.47386 0
M  V30 3050 H 289.568 0.352798 -3.64898 0
M  V30 3051 H 289.216 2.76658 -4.20082 0
M  V30 3052 H 288.916 1.72741 -5.61636 0
M  V30 3053 H 290.44 2.65251 -5.49976 0
M  V30 3054 H 291.854 0.391742 -5.7196 0
M  V30 3055 H 290.251 -0.351551 -5.99069 0
M  V30 3056 H 291.321 -1.01374 -4.74185 0
M  V30 3057 N 292.664 1.56529 -0.183458 0
M  V30 3058 C 294.08 1.58664 0.172554 0
M  V30 3059 C 294.28 1.19925 1.61926 0
M  V30 3060 O 293.336 0.916534 2.35278 0
M  V30 3061 C 294.649 3.00463 -0.119262 0
M  V30 3062 C 296.197 3.12945 -0.0584396 0
M  V30 3063 C 296.672 4.56857 -0.323408 0
M  V30 3064 N 298.163 4.62403 -0.271612 0
M  V30 3065 C 298.898 5.71626 -0.450639 0
M  V30 3066 N 298.394 6.89362 -0.689384 0
M  V30 3067 N 300.187 5.60775 -0.385701 0
M  V30 3068 H 292.338 1.79994 -1.12765 0
M  V30 3069 H 294.601 0.834808 -0.449222 0
M  V30 3070 H 294.307 3.33326 -1.12192 0
M  V30 3071 H 294.181 3.72659 0.583544 0
M  V30 3072 H 296.568 2.79902 0.934805 0
M  V30 3073 H 296.649 2.4316 -0.794144 0
M  V30 3074 H 296.293 4.9061 -1.31392 0
M  V30 3075 H 296.223 5.24816 0.43305 0
M  V30 3076 H 298.714 3.77785 -0.0932256 0
M  V30 3077 H 299.027 7.68489 -0.815113 0
M  V30 3078 H 297.372 6.91196 -0.726142 0
M  V30 3079 H 300.563 4.67674 -0.199687 0
M  V30 3080 H 300.736 6.4584 -0.528646 0
M  V30 3081 N 294.142 -0.090211 1.57342 0
M  V30 3082 C 295.388 -0.793982 1.86611 0
M  V30 3083 C 295.721 -1.78142 0.773252 0
M  V30 3084 O 294.996 -1.93271 -0.218304 0
M  V30 3085 C 295.279 -1.51839 3.26523 0
M  V30 3086 C 295.132 -0.548609 4.46442 0
M  V30 3087 C 296.451 -2.46779 3.64401 0
M  V30 3088 H 293.57 -0.287186 0.678744 0
M  V30 3089 H 296.212 -0.0575076 1.89913 0
M  V30 3090 H 294.362 -2.14617 3.23839 0
M  V30 3091 H 296.034 0.0725513 4.61243 0
M  V30 3092 H 294.277 0.137614 4.33582 0
M  V30 3093 H 294.948 -1.09271 5.41076 0
M  V30 3094 H 297.424 -1.94089 3.68061 0
M  V30 3095 H 296.3 -2.94479 4.63221 0
M  V30 3096 H 296.561 -3.30758 2.93346 0
M  V30 3097 N 295.62 -1.53406 -0.361157 0
M  V30 3098 C 296.869 -1.69022 -1.10066 0
M  V30 3099 C 297.182 -0.450838 -1.90333 0
M  V30 3100 O 298.388 -0.487617 -2.67085 0
M  V30 3101 C 296.844 -2.98812 -2.00598 0
M  V30 3102 C 296.452 -4.30027 -1.25621 0
M  V30 3103 C 298.196 -3.23795 -2.74513 0
M  V30 3104 C 296.103 -5.50903 -2.1508 0
M  V30 3105 H 295.033 -0.629776 -0.414606 0
M  V30 3106 H 297.684 -1.79907 -0.361348 0
M  V30 3107 H 296.066 -2.8174 -2.78278 0
M  V30 3108 H 297.24 -4.57745 -0.529739 0
M  V30 3109 H 295.555 -4.11522 -0.635496 0
M  V30 3110 H 298.152 -4.11289 -3.41681 0
M  V30 3111 H 298.495 -2.40045 -3.40123 0
M  V30 3112 H 299.028 -3.41561 -2.03914 0
M  V30 3113 H 295.767 -6.37143 -1.54041 0
M  V30 3114 H 295.287 -5.27459 -2.85565 0
M  V30 3115 H 296.966 -5.85865 -2.74538 0
M  V30 3116 N 297.098 0.621204 -1.44841 0
M  V30 3117 C 298.046 1.75385 -1.52784 0
M  V30 3118 C 299.04 1.64639 -0.398779 0
M  V30 3119 O 300.246 1.70598 -0.574137 0
M  V30 3120 H 296.621 0.579193 -0.479625 0
M  V30 3121 H 298.592 1.6581 -2.48092 0
M  V30 3122 C 297.341 3.13742 -1.4987 0
M  V30 3123 H 296.664 3.22663 -2.36069 0
M  V30 3124 H 298.104 3.92861 -1.59487 0
M  V30 3125 C 296.563 3.36175 -0.220973 0
M  V30 3126 O 297.093 3.95469 0.704782 0
M  V30 3127 N 295.299 2.90348 -0.120963 0
M  V30 3128 H 294.846 2.42278 -0.875162 0
M  V30 3129 H 294.804 3.05732 0.733168 0
M  V30 3130 N 298.576 1.31904 0.862503 0
M  V30 3131 C 299.486 1.22161 2.00285 0
M  V30 3132 C 300.502 0.136785 1.73462 0
M  V30 3133 O 301.678 0.355994 1.98229 0
M  V30 3134 C 298.743 0.937093 3.33796 0
M  V30 3135 C 297.804 2.10957 3.73893 0
M  V30 3136 C 297.037 1.83853 5.01033 0
M  V30 3137 O 297.26 0.777274 5.65079 0
M  V30 3138 O 296.194 2.69741 5.38074 0
M  V30 3139 H 300.02 2.18008 2.11439 0
M  V30 3140 H 297.605 1.11716 0.991957 0
M  V30 3141 H 299.487 0.794583 4.13841 0
M  V30 3142 H 298.162 0.00871894 3.23699 0
M  V30 3143 H 297.069 2.30752 2.94456 0
M  V30 3144 H 298.402 3.02046 3.88625 0
M  V30 3145 N 300.054 -1.07777 1.14986 0
M  V30 3146 C 301.465 -1.61766 0.932127 0
M  V30 3147 C 301.816 -1.88974 -0.527581 0
M  V30 3148 O 300.941 -1.65198 -1.39781 0
M  V30 3149 C 301.536 -2.93891 1.68563 0
M  V30 3150 C 300.095 -3.44639 1.5133 0
M  V30 3151 C 299.242 -2.18767 1.704 0
M  V30 3152 H 302.193 -0.909201 1.30074 0
M  V30 3153 H 302.214 -3.62623 1.15259 0
M  V30 3154 H 301.726 -2.74057 2.74799 0
M  V30 3155 H 299.827 -3.69564 0.474702 0
M  V30 3156 H 299.94 -4.20966 2.28746 0
M  V30 3157 H 298.304 -2.28253 1.13016 0
M  V30 3158 H 299.087 -2.01433 2.77992 0
M  V30 3159 N 301.532 -0.945985 -1.26051 0
M  V30 3160 C 302.76 -0.613025 -1.9761 0
M  V30 3161 C 303.175 0.813035 -1.70397 0
M  V30 3162 O 302.532 1.54274 -0.974979 0
M  V30 3163 C 302.583 -0.85159 -3.51326 0
M  V30 3164 O 302.304 -2.22157 -3.77595 0
M  V30 3165 C 303.805 -0.529831 -4.40122 0
M  V30 3166 H 301.025 -0.230593 -0.630133 0
M  V30 3167 H 303.569 -1.268 -1.60443 0
M  V30 3168 H 301.724 -0.243151 -3.86636 0
M  V30 3169 H 302.138 -2.2852 -4.721 0
M  V30 3170 H 303.612 -0.747348 -5.46917 0
M  V30 3171 H 304.089 0.535341 -4.35925 0
M  V30 3172 H 304.695 -1.11721 -4.10364 0
M  V30 3173 N 303.011 1.40521 -0.713556 0
M  V30 3174 C 303.974 2.29098 -0.0684347 0
M  V30 3175 C 304.974 1.45268 0.689472 0
M  V30 3176 O 306.164 1.66205 0.521677 0
M  V30 3177 C 303.296 3.28446 0.913024 0
M  V30 3178 H 304.489 2.87645 -0.84855 0
M  V30 3179 H 302.042 1.48809 -0.47809 0
M  V30 3180 H 302.777 2.74913 1.72027 0
M  V30 3181 H 302.562 3.90327 0.372472 0
M  V30 3182 H 304.052 3.94777 1.36165 0
M  V30 3183 N 304.489 0.459591 1.5075 0
M  V30 3184 C 305.452 -0.329093 2.26825 0
M  V30 3185 C 306.452 -0.930481 1.31144 0
M  V30 3186 O 307.642 -0.801453 1.54669 0
M  V30 3187 C 304.774 -1.46768 3.07688 0
M  V30 3188 H 305.967 0.337924 2.9799 0
M  V30 3189 H 303.52 0.213336 1.54837 0
M  V30 3190 H 304.255 -2.17009 2.40993 0
M  V30 3191 H 304.04 -1.04238 3.77991 0
M  V30 3192 H 305.53 -2.02433 3.65254 0
M  V30 3193 N 305.967 -1.56429 0.191757 0
M  V30 3194 C 306.93 -2.17707 -0.716688 0
M  V30 3195 C 307.93 -1.13061 -1.14341 0
M  V30 3196 O 309.12 -1.38464 -1.05704 0
M  V30 3197 C 306.252 -2.77644 -1.97804 0
M  V30 3198 H 307.445 -2.99342 -0.1829 0
M  V30 3199 H 304.998 -1.56193 -0.0578566 0
M  V30 3200 H 305.733 -1.99799 -2.55443 0
M  V30 3201 H 305.518 -3.54246 -1.68083 0
M  V30 3202 H 307.008 -3.24708 -2.62592 0
M  V30 3203 N 307.445 0.0818655 -1.57387 0
M  V30 3204 C 308.378 1.12986 -1.98266 0
M  V30 3205 C 309.356 1.38123 -0.857954 0
M  V30 3206 O 310.54 1.51663 -1.1194 0
M  V30 3207 C 307.667 2.47632 -2.31076 0
M  V30 3208 C 306.713 2.38693 -3.53452 0
M  V30 3209 S 307.546 1.79071 -5.04672 0
M  V30 3210 C 308.702 3.15316 -5.40673 0
M  V30 3211 H 308.935 0.781435 -2.86846 0
M  V30 3212 H 306.468 0.290034 -1.51651 0
M  V30 3213 H 308.426 3.25089 -2.50654 0
M  V30 3214 H 307.087 2.79638 -1.43043 0
M  V30 3215 H 306.28 3.37964 -3.73893 0
M  V30 3216 H 305.882 1.69369 -3.33452 0
M  V30 3217 H 308.174 4.11613 -5.38127 0
M  V30 3218 H 309.117 2.99664 -6.41566 0
M  V30 3219 H 309.525 3.15457 -4.68132 0
M  V30 3220 N 308.923 1.53595 0.353017 0
M  V30 3221 C 309.886 1.80232 1.41594 0
M  V30 3222 C 310.886 0.673081 1.46035 0
M  V30 3223 O 312.076 0.941335 1.46576 0
M  V30 3224 C 309.208 1.93578 2.80607 0
M  V30 3225 H 310.401 2.75174 1.19244 0
M  V30 3226 H 307.954 1.44864 0.586872 0
M  V30 3227 H 308.689 1.00746 3.08254 0
M  V30 3228 H 308.474 2.75724 2.78781 0
M  V30 3229 H 309.964 2.15735 3.57558 0
M  V30 3230 N 310.401 -0.613514 1.45168 0
M  V30 3231 C 311.631 -1.39743 1.52169 0
M  V30 3232 C 312.039 -1.88596 0.151086 0
M  V30 3233 O 311.382 -1.6251 -0.856521 0
M  V30 3234 C 311.444 -2.64035 2.43979 0
M  V30 3235 C 311.108 -2.36861 3.90827 0
M  V30 3236 C 312.105 -1.97591 4.80889 0
M  V30 3237 C 309.79 -2.49956 4.35692 0
M  V30 3238 C 311.784 -1.71768 6.1382 0
M  V30 3239 C 309.471 -2.23747 5.68665 0
M  V30 3240 C 310.469 -1.84714 6.57548 0
M  V30 3241 O 310.157 -1.58809 7.88058 0
M  V30 3242 H 309.889 -0.434382 0.517966 0
M  V30 3243 H 312.443 -0.75587 1.90986 0
M  V30 3244 H 310.673 -3.3089 2.00122 0
M  V30 3245 H 312.362 -3.26069 2.41731 0
M  V30 3246 H 313.128 -1.87015 4.47493 0
M  V30 3247 H 309.007 -2.79305 3.66756 0
M  V30 3248 H 312.551 -1.41227 6.83155 0
M  V30 3249 H 308.448 -2.33938 6.01617 0
M  V30 3250 H 309.216 -1.7291 8.00028 0
M  V30 3251 N 311.879 -1.3236 -0.855495 0
M  V30 3252 C 313.127 -1.22629 -1.60644 0
M  V30 3253 C 313.448 0.212136 -1.93843 0
M  V30 3254 O 312.718 1.13666 -1.59552 0
M  V30 3255 H 311.298 -0.450882 -0.595579 0
M  V30 3256 H 313.96 -1.65871 -1.02337 0
M  V30 3257 H 313.056 -1.80832 -2.54374 0
M  V30 3258 N 313.357 1.07166 -1.15556 0
M  V30 3259 C 314.287 2.16403 -0.877046 0
M  V30 3260 C 315.268 1.69217 0.173111 0
M  V30 3261 O 316.453 1.94181 0.027084 0
M  V30 3262 C 313.583 3.45349 -0.367632 0
M  V30 3263 C 312.537 4.05995 -1.35468 0
M  V30 3264 C 311.863 5.30045 -0.704038 0
M  V30 3265 C 313.163 4.45804 -2.72132 0
M  V30 3266 H 314.857 2.39959 -1.79053 0
M  V30 3267 H 312.403 1.15325 -0.862331 0
M  V30 3268 H 314.356 4.21095 -0.160317 0
M  V30 3269 H 313.08 3.21385 0.581326 0
M  V30 3270 H 311.739 3.32296 -1.54839 0
M  V30 3271 H 311.387 5.02373 0.251128 0
M  V30 3272 H 311.087 5.71579 -1.36277 0
M  V30 3273 H 312.611 6.08495 -0.50654 0
M  V30 3274 H 314.025 5.12671 -2.56595 0
M  V30 3275 H 312.422 4.98296 -3.34397 0
M  V30 3276 H 313.492 3.57083 -3.28054 0
M  V30 3277 N 314.835 0.952656 1.25548 0
M  V30 3278 C 315.785 0.442033 2.23674 0
M  V30 3279 C 316.769 -0.467632 1.53955 0
M  V30 3280 O 317.961 -0.301006 1.74422 0
M  V30 3281 C 315.09 -0.280816 3.4215 0
M  V30 3282 C 314.176 0.646803 4.19139 0
M  V30 3283 N 314.567 1.77759 4.73535 0
M  V30 3284 C 312.865 0.454617 4.43677 0
M  V30 3285 C 313.566 2.35658 5.31827 0
M  V30 3286 N 312.542 1.64333 5.18166 0
M  V30 3287 H 316.344 1.30505 2.63336 0
M  V30 3288 H 313.858 0.809904 1.40763 0
M  V30 3289 H 315.855 -0.663747 4.11582 0
M  V30 3290 H 314.515 -1.14046 3.04012 0
M  V30 3291 H 315.526 2.15949 4.7073 0
M  V30 3292 H 312.203 -0.362312 4.15925 0
M  V30 3293 H 313.593 3.30998 5.84713 0
M  V30 3294 N 316.313 -1.40141 0.720998 0
M  V30 3295 C 317.26 -2.30688 0.071919 0
M  V30 3296 C 318.23 -1.48476 -0.744584 0
M  V30 3297 O 319.415 -1.77201 -0.707423 0
M  V30 3298 C 316.555 -3.34724 -0.839855 0
M  V30 3299 C 315.668 -4.31998 -0.0122438 0
M  V30 3300 C 314.803 -5.23102 -0.923995 0
M  V30 3301 C 313.842 -6.12033 -0.0907969 0
M  V30 3302 N 312.979 -6.95537 -0.957718 0
M  V30 3303 H 317.819 -2.85628 0.849755 0
M  V30 3304 H 315.356 -1.40653 0.430726 0
M  V30 3305 H 317.314 -3.93618 -1.38279 0
M  V30 3306 H 315.944 -2.81274 -1.58381 0
M  V30 3307 H 314.996 -3.74841 0.64794 0
M  V30 3308 H 316.308 -4.94772 0.632595 0
M  V30 3309 H 315.462 -5.86953 -1.53527 0
M  V30 3310 H 314.201 -4.60615 -1.60264 0
M  V30 3311 H 313.206 -5.47207 0.533377 0
M  V30 3312 H 314.431 -6.76581 0.584428 0
M  V30 3313 H 312.377 -6.35633 -1.62192 0
M  V30 3314 H 312.294 -7.55099 -0.36904 0
M  V30 3315 H 313.562 -7.63832 -1.555 0
M  V30 3316 N 317.792 -0.46758 -1.50504 0
M  V30 3317 C 318.755 0.317059 -2.26996 0
M  V30 3318 C 319.755 0.923513 -1.31635 0
M  V30 3319 O 320.945 0.793239 -1.55091 0
M  V30 3320 C 318.077 1.45134 -3.08462 0
M  V30 3321 H 319.27 -0.353723 -2.97807 0
M  V30 3322 H 316.823 -0.221545 -1.54722 0
M  V30 3323 H 317.558 2.15728 -2.4214 0
M  V30 3324 H 317.343 1.02232 -3.78538 0
M  V30 3325 H 318.833 2.00493 -3.66323 0
M  V30 3326 N 319.27 1.56325 -0.20005 0
M  V30 3327 C 320.547 1.89484 0.48529 0
M  V30 3328 C 320.927 1.1143 1.79294 0
M  V30 3329 O 320.275 0.216919 2.27468 0
M  V30 3330 C 320.485 3.41923 0.699243 0
M  V30 3331 C 321.833 4.12256 1.01638 0
M  V30 3332 O 322.857 3.47402 0.786792 0
M  V30 3333 O 321.716 5.26887 1.45095 0
M  V30 3334 H 318.81 0.787144 0.253639 0
M  V30 3335 H 321.356 1.67985 -0.240633 0
M  V30 3336 H 320.128 3.90658 -0.224008 0
M  V30 3337 H 319.751 3.69131 1.47744 0
M  V30 3338 N 320.748 -0.0735177 1.57428 0
M  V30 3339 C 321.994 -0.774145 1.87443 0
M  V30 3340 C 322.327 -1.77311 0.792103 0
M  V30 3341 O 321.602 -1.93492 -0.197793 0
M  V30 3342 C 321.885 -1.48367 3.28115 0
M  V30 3343 C 321.738 -0.501227 4.46999 0
M  V30 3344 C 323.057 -2.429 3.66998 0
M  V30 3345 H 320.176 -0.279971 0.681752 0
M  V30 3346 H 322.818 -0.0373616 1.89963 0
M  V30 3347 H 320.968 -2.11171 3.26097 0
M  V30 3348 H 322.64 0.121468 4.6114 0
M  V30 3349 H 320.883 0.183593 4.33411 0
M  V30 3350 H 321.554 -1.03526 5.42205 0
M  V30 3351 H 324.03 -1.90175 3.70098 0
M  V30 3352 H 322.906 -2.89549 4.66318 0
M  V30 3353 H 323.167 -3.27628 2.96837 0
M  V30 3354 N 322.226 -1.5378 -0.344866 0
M  V30 3355 C 323.473 -1.70963 -1.08526 0
M  V30 3356 C 323.801 -0.472126 -1.88683 0
M  V30 3357 O 323.056 0.546116 -1.87926 0
M  V30 3358 C 323.355 -2.92407 -2.05506 0
M  V30 3359 C 323.021 -4.28066 -1.41671 0
M  V30 3360 C 321.683 -4.64951 -1.2399 0
M  V30 3361 C 324.035 -5.12344 -0.956726 0
M  V30 3362 C 321.363 -5.83733 -0.589277 0
M  V30 3363 C 323.715 -6.3179 -0.320015 0
M  V30 3364 C 322.379 -6.67372 -0.130881 0
M  V30 3365 H 321.649 -0.625598 -0.397124 0
M  V30 3366 H 324.296 -1.87995 -0.36469 0
M  V30 3367 H 322.601 -2.69973 -2.8394 0
M  V30 3368 H 324.298 -3.02895 -2.62784 0
M  V30 3369 H 320.888 -3.99034 -1.56429 0
M  V30 3370 H 325.072 -4.8438 -1.08118 0
M  V30 3371 H 320.328 -6.09877 -0.431344 0
M  V30 3372 H 324.502 -6.96386 0.0445072 0
M  V30 3373 H 322.129 -7.59273 0.375318 0
M  V30 3374 N 323.704 0.605807 -1.45491 0
M  V30 3375 C 324.654 1.71074 -1.50724 0
M  V30 3376 C 325.638 1.5658 -0.37033 0
M  V30 3377 O 326.83 1.65887 -0.617299 0
M  V30 3378 C 323.959 3.0983 -1.47852 0
M  V30 3379 C 323.045 3.29704 -2.66751 0
M  V30 3380 N 323.436 3.19831 -3.91844 0
M  V30 3381 C 321.734 3.60579 -2.62486 0
M  V30 3382 C 322.435 3.41083 -4.71208 0
M  V30 3383 N 321.411 3.65157 -4.02693 0
M  V30 3384 H 325.213 1.61937 -2.45263 0
M  V30 3385 H 322.727 0.80912 -1.40808 0
M  V30 3386 H 324.724 3.89101 -1.49686 0
M  V30 3387 H 323.384 3.20115 -0.543714 0
M  V30 3388 H 324.395 2.98194 -4.23439 0
M  V30 3389 H 321.072 3.7769 -1.77922 0
M  V30 3390 H 322.462 3.38828 -5.80211 0
M  V30 3391 N 325.182 1.32811 0.848464 0
M  V30 3392 C 326.428 1.23907 1.60546 0
M  V30 3393 C 326.761 -0.197161 1.93197 0
M  V30 3394 O 326.036 -1.13596 1.5788 0
M  V30 3395 C 326.319 2.10489 2.92175 0
M  V30 3396 C 326.172 3.62522 2.66266 0
M  V30 3397 C 327.491 1.97075 3.93509 0
M  V30 3398 H 324.61 0.451459 0.58254 0
M  V30 3399 H 327.252 1.62818 0.979296 0
M  V30 3400 H 325.402 1.77434 3.45614 0
M  V30 3401 H 327.074 4.05821 2.19334 0
M  V30 3402 H 325.317 3.84879 2.00126 0
M  V30 3403 H 325.988 4.18437 3.6002 0
M  V30 3404 H 328.464 2.26045 3.49346 0
M  V30 3405 H 327.34 2.59923 4.83457 0
M  V30 3406 H 327.601 0.940186 4.31987 0
M  V30 3407 N 326.66 -1.06551 1.16123 0
M  V30 3408 C 327.59 -2.15935 0.88851 0
M  V30 3409 C 328.571 -1.69306 -0.164135 0
M  V30 3410 O 329.756 -1.94193 -0.0167857 0
M  V30 3411 C 326.886 -3.45149 0.385942 0
M  V30 3412 C 325.84 -4.05271 1.3762 0
M  V30 3413 C 325.166 -5.29664 0.732137 0
M  V30 3414 C 326.466 -4.44355 2.74493 0
M  V30 3415 H 328.16 -2.39006 1.80323 0
M  V30 3416 H 325.706 -1.14866 0.868435 0
M  V30 3417 H 327.659 -4.21004 0.182647 0
M  V30 3418 H 326.383 -3.21689 -0.564274 0
M  V30 3419 H 325.042 -3.3147 1.56599 0
M  V30 3420 H 324.69 -5.02499 -0.224483 0
M  V30 3421 H 324.39 -5.70848 1.39307 0
M  V30 3422 H 325.914 -6.08218 0.538802 0
M  V30 3423 H 327.328 -5.11303 2.59311 0
M  V30 3424 H 325.725 -4.96515 3.37035 0
M  V30 3425 H 326.795 -3.55339 3.29943 0
M  V30 3426 N 328.138 -0.959301 -1.25041 0
M  V30 3427 C 329.384 -0.617525 -1.9317 0
M  V30 3428 C 329.717 0.843981 -1.74902 0
M  V30 3429 O 328.992 1.60615 -1.09696 0
M  V30 3430 C 329.275 -0.982736 -3.46431 0
M  V30 3431 C 329.128 -2.50032 -3.73904 0
M  V30 3432 C 330.447 -0.511176 -4.37121 0
M  V30 3433 H 327.566 -0.22582 -0.701552 0
M  V30 3434 H 330.208 -1.19679 -1.4757 0
M  V30 3435 H 328.358 -0.489806 -3.854 0
M  V30 3436 H 330.03 -3.06737 -3.44544 0
M  V30 3437 H 328.273 -2.93598 -3.19348 0
M  V30 3438 H 328.944 -2.70635 -4.81103 0
M  V30 3439 H 331.42 -0.934075 -4.0548 0
M  V30 3440 H 330.296 -0.795361 -5.43107 0
M  V30 3441 H 330.557 0.588834 -4.38161 0
M  V30 3442 N 329.616 1.39756 -0.72842 0
M  V30 3443 C 330.865 1.99879 -0.270407 0
M  V30 3444 C 331.178 1.58449 1.14688 0
M  V30 3445 O 332.384 2.11362 1.70407 0
M  V30 3446 C 330.84 3.57292 -0.43252 0
M  V30 3447 C 330.448 4.07688 -1.85727 0
M  V30 3448 C 332.192 4.24485 -0.0359507 0
M  V30 3449 C 330.099 5.5765 -1.96928 0
M  V30 3450 H 329.029 0.747689 -0.0973472 0
M  V30 3451 H 331.68 1.59837 -0.901355 0
M  V30 3452 H 330.062 3.95097 0.267219 0
M  V30 3453 H 331.236 3.81231 -2.58843 0
M  V30 3454 H 329.551 3.53135 -2.20646 0
M  V30 3455 H 332.148 5.34609 -0.0987484 0
M  V30 3456 H 332.491 4.03915 1.00787 0
M  V30 3457 H 333.024 3.9183 -0.686604 0
M  V30 3458 H 329.763 5.8309 -2.99476 0
M  V30 3459 H 329.283 5.8593 -1.28241 0
M  V30 3460 H 330.962 6.22957 -1.74737 0
M  V30 3461 N 331.094 0.475555 1.50254 0
M  V30 3462 C 332.371 -0.139685 1.95101 0
M  V30 3463 C 332.751 -1.56555 1.41611 0
M  V30 3464 O 332.099 -2.19956 0.618993 0
M  V30 3465 C 332.309 -0.0784298 3.48912 0
M  V30 3466 C 333.657 -0.265095 4.23772 0
M  V30 3467 O 334.681 -0.154808 3.55863 0
M  V30 3468 O 333.54 -0.488327 5.44314 0
M  V30 3469 H 330.634 -0.109236 0.819754 0
M  V30 3470 H 333.18 0.536276 1.61004 0
M  V30 3471 H 331.952 0.916918 3.80405 0
M  V30 3472 H 331.575 -0.795655 3.89558 0
M  V30 3473 N 332.573 -1.56217 0.208337 0
M  V30 3474 C 333.503 -2.22694 -0.702116 0
M  V30 3475 C 334.484 -1.19432 -1.2112 0
M  V30 3476 O 335.669 -1.47978 -1.25762 0
M  V30 3477 C 332.799 -2.8966 -1.9161 0
M  V30 3478 C 331.753 -3.9928 -1.5414 0
M  V30 3479 C 331.079 -4.53476 -2.83308 0
M  V30 3480 C 332.379 -5.17012 -0.741339 0
M  V30 3481 H 334.073 -2.99034 -0.147898 0
M  V30 3482 H 331.619 -1.43831 -0.0696951 0
M  V30 3483 H 333.572 -3.34852 -2.55836 0
M  V30 3484 H 332.296 -2.10746 -2.49507 0
M  V30 3485 H 330.955 -3.54799 -0.922668 0
M  V30 3486 H 330.603 -3.71308 -3.39322 0
M  V30 3487 H 330.303 -5.27451 -2.58976 0
M  V30 3488 H 331.827 -5.01378 -3.485 0
M  V30 3489 H 333.241 -5.58667 -1.28699 0
M  V30 3490 H 331.638 -5.97137 -0.595627 0
M  V30 3491 H 332.708 -4.8423 0.254851 0
M  V30 3492 N 334.051 0.0651679 -1.57465 0
M  V30 3493 C 335.299 0.761555 -1.87202 0
M  V30 3494 C 335.62 1.77778 -0.801243 0
M  V30 3495 O 334.89 1.95166 0.16937 0
M  V30 3496 H 333.47 0.284251 -0.690804 0
M  V30 3497 H 336.132 0.0396827 -1.9486 0
M  V30 3498 H 335.228 1.27365 -2.84929 0
M  V30 3499 N 335.529 1.53961 0.336706 0
M  V30 3500 C 336.777 1.71197 1.07405 0
M  V30 3501 C 337.098 0.481475 1.88962 0
M  V30 3502 O 336.368 -0.504585 1.8929 0
M  V30 3503 H 334.948 0.631185 0.399517 0
M  V30 3504 H 337.61 1.91232 0.376323 0
M  V30 3505 H 336.706 2.58587 1.74755 0
M  V30 3506 N 337.007 -0.598083 1.45811 0
M  V30 3507 C 338.255 -1.35413 1.50026 0
M  V30 3508 C 338.576 -1.94444 0.147177 0
M  V30 3509 O 337.846 -1.77701 -0.824571 0
M  V30 3510 H 336.426 -0.502727 0.552517 0
M  V30 3511 H 339.088 -0.701606 1.81834 0
M  V30 3512 H 338.184 -2.16871 2.2444 0
M  V30 3513 N 338.485 -1.33259 -0.841409 0
M  V30 3514 C 339.713 -1.27605 -1.62864 0
M  V30 3515 C 340.128 0.153507 -1.88175 0
M  V30 3516 O 339.485 1.09485 -1.46011 0
M  V30 3517 C 339.536 -2.04596 -2.98031 0
M  V30 3518 O 339.257 -3.41975 -2.73834 0
M  V30 3519 C 340.758 -2.06122 -3.92465 0
M  V30 3520 H 337.978 -0.439718 -0.506842 0
M  V30 3521 H 340.522 -1.75591 -1.04824 0
M  V30 3522 H 338.677 -1.60299 -3.5268 0
M  V30 3523 H 339.091 -3.81549 -3.59889 0
M  V30 3524 H 340.565 -2.64451 -4.84531 0
M  V30 3525 H 341.042 -1.05083 -4.26444 0
M  V30 3526 H 341.648 -2.50427 -3.43753 0
M  V30 3527 N 339.963 1.05934 -1.16686 0
M  V30 3528 C 340.893 2.1546 -0.899949 0
M  V30 3529 C 341.874 1.69391 0.155154 0
M  V30 3530 O 343.059 1.94199 0.00648693 0
M  V30 3531 C 340.189 3.44939 -0.404241 0
M  V30 3532 C 339.143 4.04536 -1.39767 0
M  V30 3533 C 338.469 5.29268 -0.760216 0
M  V30 3534 C 339.769 4.42893 -2.76845 0
M  V30 3535 H 341.463 2.38046 -1.81588 0
M  V30 3536 H 339.009 1.14404 -0.874514 0
M  V30 3537 H 340.962 4.20901 -0.204971 0
M  V30 3538 H 339.686 3.21983 0.547206 0
M  V30 3539 H 338.345 3.30635 -1.58355 0
M  V30 3540 H 337.993 5.02611 0.197831 0
M  V30 3541 H 337.693 5.70101 -1.42332 0
M  V30 3542 H 339.217 6.07924 -0.57105 0
M  V30 3543 H 340.631 5.09921 -2.62019 0
M  V30 3544 H 339.028 4.94721 -3.39663 0
M  V30 3545 H 340.098 3.53584 -3.31823 0
M  V30 3546 N 341.441 0.965919 1.2453 0
M  V30 3547 C 342.718 0.543777 1.87889 0
M  V30 3548 C 343.098 -0.97909 1.87021 0
M  V30 3549 O 342.446 -1.84969 1.3416 0
M  V30 3550 C 342.656 1.13327 3.30088 0
M  V30 3551 C 344.004 1.21707 4.06783 0
M  V30 3552 O 345.028 1.08566 3.39252 0
M  V30 3553 O 343.887 1.42456 5.27606 0
M  V30 3554 H 340.981 0.181054 0.806938 0
M  V30 3555 H 343.527 1.06007 1.32516 0
M  V30 3556 H 342.299 2.17612 3.25209 0
M  V30 3557 H 341.922 0.600911 3.93033 0
M  V30 3558 N 342.919 -1.39368 0.735821 0
M  V30 3559 C 344.165 -2.00794 0.284544 0
M  V30 3560 C 344.498 -1.58255 -1.12557 0
M  V30 3561 O 343.773 -0.811819 -1.76748 0
M  V30 3562 C 344.056 -3.58011 0.387337 0
M  V30 3563 C 343.909 -4.10566 1.83728 0
M  V30 3564 C 345.228 -4.395 -0.22975 0
M  V30 3565 H 342.347 -0.729501 0.104866 0
M  V30 3566 H 344.989 -1.65564 0.93213 0
M  V30 3567 H 343.139 -3.88154 -0.164006 0
M  V30 3568 H 344.811 -3.91139 2.44556 0
M  V30 3569 H 343.054 -3.64095 2.35833 0
M  V30 3570 H 343.725 -5.19702 1.86047 0
M  V30 3571 H 346.201 -4.15406 0.240257 0
M  V30 3572 H 345.077 -5.48752 -0.127485 0
M  V30 3573 H 345.338 -4.22062 -1.3159 0
M  V30 3574 N 344.397 -0.483516 -1.5 0
M  V30 3575 C 345.622 0.0667119 -2.07293 0
M  V30 3576 C 346.047 1.3164 -1.3436 0
M  V30 3577 O 345.405 1.76945 -0.394987 0
M  V30 3578 C 345.453 0.321126 -3.59167 0
M  V30 3579 O 344.557 1.39927 -3.87936 0
M  V30 3580 H 343.898 -0.0184758 -0.663743 0
M  V30 3581 H 346.428 -0.678125 -1.93035 0
M  V30 3582 H 346.438 0.557906 -4.04168 0
M  V30 3583 H 345.113 -0.592007 -4.11665 0
M  V30 3584 H 343.69 1.14882 -3.54763 0
M  V30 3585 N 345.875 1.56104 -0.216619 0
M  V30 3586 C 346.805 2.23063 0.690296 0
M  V30 3587 C 347.786 1.20072 1.20485 0
M  V30 3588 O 348.971 1.48643 1.24976 0
M  V30 3589 C 346.101 2.90672 1.90072 0
M  V30 3590 C 345.055 4.00092 1.5202 0
M  V30 3591 C 344.381 4.54972 2.80899 0
M  V30 3592 C 345.681 5.17398 0.71391 0
M  V30 3593 H 347.375 2.99109 0.132038 0
M  V30 3594 H 344.921 1.43866 0.0620664 0
M  V30 3595 H 346.874 3.36204 2.54057 0
M  V30 3596 H 345.598 2.12066 2.48386 0
M  V30 3597 H 344.257 3.55283 0.903839 0
M  V30 3598 H 343.905 3.73102 3.37348 0
M  V30 3599 H 343.605 5.28817 2.56176 0
M  V30 3600 H 345.129 5.0322 3.45836 0
M  V30 3601 H 346.543 5.59342 1.25735 0
M  V30 3602 H 344.94 5.97444 0.563951 0
M  V30 3603 H 346.01 4.84088 -0.280527 0
M  V30 3604 N 347.353 -0.0568162 1.57498 0
M  V30 3605 C 348.283 -1.06593 2.0775 0
M  V30 3606 C 349.264 -1.39448 0.974082 0
M  V30 3607 O 350.449 -1.48815 1.24771 0
M  V30 3608 C 347.579 -2.37509 2.5339 0
M  V30 3609 C 346.533 -2.1897 3.67745 0
M  V30 3610 C 345.859 -3.55402 3.99492 0
M  V30 3611 C 347.159 -1.59859 4.97235 0
M  V30 3612 H 348.853 -0.647706 2.9231 0
M  V30 3613 H 346.399 -0.310116 1.40621 0
M  V30 3614 H 348.352 -3.08409 2.87162 0
M  V30 3615 H 347.076 -2.8134 1.65878 0
M  V30 3616 H 345.735 -1.50508 3.3428 0
M  V30 3617 H 345.383 -3.9683 3.09088 0
M  V30 3618 H 345.083 -3.43831 4.76502 0
M  V30 3619 H 346.607 -4.27708 4.35773 0
M  V30 3620 H 348.021 -2.20642 5.29141 0
M  V30 3621 H 346.418 -1.58942 5.78669 0
M  V30 3622 H 347.488 -0.561506 4.81638 0
M  V30 3623 N 348.832 -1.54138 -0.328536 0
M  V30 3624 C 349.78 -1.83894 -1.42428 0
M  V30 3625 C 350.774 -0.710478 -1.53781 0
M  V30 3626 O 351.98 -0.894062 -1.56226 0
M  V30 3627 H 348.355 -0.582837 -0.475189 0
M  V30 3628 H 350.326 -2.75537 -1.14552 0
M  V30 3629 C 349.075 -2.07866 -2.78724 0
M  V30 3630 H 348.398 -2.94158 -2.7076 0
M  V30 3631 H 349.838 -2.32644 -3.54476 0
M  V30 3632 C 348.297 -0.868689 -3.25508 0
M  V30 3633 O 348.827 -0.0754908 -4.01629 0
M  V30 3634 N 347.033 -0.681711 -2.82491 0
M  V30 3635 H 346.58 -1.32838 -2.20708 0
M  V30 3636 H 346.538 0.126374 -3.14146 0
M  V30 3637 N 350.31 0.590341 -1.46126 0
M  V30 3638 C 351.257 1.69994 -1.56111 0
M  V30 3639 C 352.227 1.61065 -0.405867 0
M  V30 3640 O 353.412 1.8039 -0.621613 0
M  V30 3641 C 350.552 3.08326 -1.55013 0
M  V30 3642 C 349.665 3.27936 -2.81215 0
M  V30 3643 C 348.8 4.56473 -2.71673 0
M  V30 3644 C 347.839 4.694 -3.92849 0
M  V30 3645 N 346.976 5.89254 -3.81738 0
M  V30 3646 H 351.816 1.60797 -2.50895 0
M  V30 3647 H 349.353 0.783799 -1.24479 0
M  V30 3648 H 351.311 3.88383 -1.52362 0
M  V30 3649 H 349.941 3.16439 -0.637667 0
M  V30 3650 H 348.993 2.41536 -2.93879 0
M  V30 3651 H 350.305 3.33357 -3.71045 0
M  V30 3652 H 349.459 5.44748 -2.67085 0
M  V30 3653 H 348.198 4.53477 -1.7947 0
M  V30 3654 H 347.203 3.79544 -3.97777 0
M  V30 3655 H 348.428 4.7418 -4.86138 0
M  V30 3656 H 346.374 5.87271 -2.92317 0
M  V30 3657 H 346.291 5.95911 -4.65217 0
M  V30 3658 H 347.559 6.79981 -3.81112 0
M  V30 3659 N 351.788 1.33704 0.83433 0
M  V30 3660 C 352.72 1.20172 1.9517 0
M  V30 3661 C 353.733 0.131572 1.62267 0
M  V30 3662 O 354.922 0.382406 1.74356 0
M  V30 3663 C 352.022 0.821716 3.28787 0
M  V30 3664 C 351.195 1.98446 3.89792 0
M  V30 3665 C 350.254 1.58469 5.01771 0
M  V30 3666 O 349.28 2.29968 5.20676 0
M  V30 3667 N 350.482 0.492291 5.78409 0
M  V30 3668 H 353.247 2.16429 2.07313 0
M  V30 3669 H 350.808 1.26509 1.0103 0
M  V30 3670 H 352.8 0.536291 4.01131 0
M  V30 3671 H 351.37 -0.0503058 3.1256 0
M  V30 3672 H 350.59 2.43526 3.09982 0
M  V30 3673 H 351.878 2.76236 4.27283 0
M  V30 3674 H 351.276 -0.102349 5.65607 0
M  V30 3675 H 349.833 0.266555 6.51255 0
M  V30 3676 N 353.266 -1.05314 1.17247 0
M  V30 3677 C 354.514 -1.77941 0.958194 0
M  V30 3678 C 354.835 -1.88089 -0.514556 0
M  V30 3679 O 354.105 -1.39676 -1.37359 0
M  V30 3680 H 352.685 -0.659116 0.351533 0
M  V30 3681 H 355.347 -1.27166 1.47699 0
M  V30 3682 H 354.443 -2.79663 1.38546 0
M  V30 3683 N 354.744 -0.972509 -1.24016 0
M  V30 3684 C 355.992 -0.635776 -1.91839 0
M  V30 3685 C 356.313 0.832312 -1.76345 0
M  V30 3686 O 355.583 1.5946 -1.13795 0
M  V30 3687 H 354.163 -0.232157 -0.710009 0
M  V30 3688 H 356.825 -1.23462 -1.50809 0
M  V30 3689 H 355.921 -0.880545 -2.99421 0
M  V30 3690 N 356.222 1.38976 -0.743202 0
M  V30 3691 C 357.155 2.28128 -0.0572165 0
M  V30 3692 C 358.133 1.44827 0.739182 0
M  V30 3693 O 359.317 1.74207 0.720009 0
M  V30 3694 C 356.444 3.25796 0.926001 0
M  V30 3695 C 355.49 4.25947 0.217099 0
M  V30 3696 S 356.323 5.24604 -1.07477 0
M  V30 3697 C 357.479 6.25829 -0.0943545 0
M  V30 3698 H 357.712 2.85961 -0.813246 0
M  V30 3699 H 355.245 1.44822 -0.535341 0
M  V30 3700 H 357.203 3.82583 1.48797 0
M  V30 3701 H 355.864 2.66966 1.65493 0
M  V30 3702 H 355.057 4.94746 0.961372 0
M  V30 3703 H 354.659 3.73002 -0.273059 0
M  V30 3704 H 356.951 6.73411 0.743239 0
M  V30 3705 H 357.894 7.0412 -0.749713 0
M  V30 3706 H 358.302 5.63797 0.281706 0
M  V30 3707 N 357.7 0.491464 1.49741 0
M  V30 3708 C 358.947 -0.0564256 2.02421 0
M  V30 3709 C 359.275 -1.37872 1.37192 0
M  V30 3710 O 358.53 -1.89375 0.493508 0
M  V30 3711 C 358.829 -0.267329 3.56399 0
M  V30 3712 C 358.495 0.975775 4.40215 0
M  V30 3713 C 357.157 1.31655 4.62839 0
M  V30 3714 C 359.509 1.80251 4.89039 0
M  V30 3715 C 356.837 2.48375 5.31532 0
M  V30 3716 C 359.189 2.96116 5.59015 0
M  V30 3717 C 357.853 3.30585 5.79888 0
M  V30 3718 H 357.123 -0.0206476 0.740712 0
M  V30 3719 H 359.77 0.649686 1.80143 0
M  V30 3720 H 358.075 -1.05588 3.77304 0
M  V30 3721 H 359.772 -0.705549 3.94744 0
M  V30 3722 H 356.362 0.700315 4.2284 0
M  V30 3723 H 360.546 1.55239 4.71396 0
M  V30 3724 H 355.802 2.7533 5.45897 0
M  V30 3725 H 359.976 3.60509 5.95824 0
M  V30 3726 H 357.603 4.21132 6.32892 0
M  V30 3727 N 359.178 -1.55987 0.224894 0
M  V30 3728 C 360.108 -2.23426 -0.678457 0
M  V30 3729 C 361.089 -1.20709 -1.19847 0
M  V30 3730 O 362.274 -1.49304 -1.24186 0
M  V30 3731 C 359.404 -2.91676 -1.88527 0
M  V30 3732 C 358.358 -4.00893 -1.49896 0
M  V30 3733 C 357.684 -4.56455 -2.78483 0
M  V30 3734 C 358.984 -5.17769 -0.686461 0
M  V30 3735 H 360.678 -2.99175 -0.116173 0
M  V30 3736 H 358.224 -1.43897 -0.054436 0
M  V30 3737 H 360.177 -3.37547 -2.5227 0
M  V30 3738 H 358.901 -2.1338 -2.47258 0
M  V30 3739 H 357.56 -3.55758 -0.884985 0
M  V30 3740 H 357.208 -3.74886 -3.35365 0
M  V30 3741 H 356.908 -5.30169 -2.53368 0
M  V30 3742 H 358.432 -5.05047 -3.43162 0
M  V30 3743 H 359.846 -5.60001 -1.22767 0
M  V30 3744 H 358.243 -5.97735 -0.532259 0
M  V30 3745 H 359.313 -4.83932 0.306196 0
M  V30 3746 N 360.656 0.0484629 -1.57525 0
M  V30 3747 C 361.884 0.755421 -1.92616 0
M  V30 3748 C 362.299 1.69919 -0.822984 0
M  V30 3749 O 361.656 1.81378 0.202085 0
M  V30 3750 C 361.707 1.52915 -3.27566 0
M  V30 3751 O 361.428 0.62329 -4.33644 0
M  V30 3752 C 362.929 2.33502 -3.76818 0
M  V30 3753 H 360.149 0.213465 -0.63614 0
M  V30 3754 H 362.693 0.0117698 -2.04497 0
M  V30 3755 H 360.848 2.22486 -3.17142 0
M  V30 3756 H 361.262 1.16383 -5.11425 0
M  V30 3757 H 362.736 2.83214 -4.73808 0
M  V30 3758 H 363.213 3.14068 -3.07014 0
M  V30 3759 H 363.819 1.69043 -3.90262 0
M  V30 3760 N 362.134 1.5431 0.320358 0
M  V30 3761 C 363.55 1.45091 0.664889 0
M  V30 3762 C 363.75 0.626382 1.91517 0
M  V30 3763 O 362.806 0.126443 2.52183 0
M  V30 3764 C 364.119 2.88848 0.83591 0
M  V30 3765 C 365.667 2.9877 0.933046 0
M  V30 3766 C 366.142 4.43683 1.13621 0
M  V30 3767 N 367.633 4.47309 1.20287 0
M  V30 3768 C 368.368 5.56595 1.37801 0
M  V30 3769 N 367.864 6.75844 1.52338 0
M  V30 3770 N 369.657 5.44248 1.40535 0
M  V30 3771 H 361.808 2.06398 -0.501374 0
M  V30 3772 H 364.071 0.933963 -0.162534 0
M  V30 3773 H 363.777 3.51698 -0.0116092 0
M  V30 3774 H 363.651 3.35148 1.73078 0
M  V30 3775 H 366.038 2.36045 1.77107 0
M  V30 3776 H 366.119 2.55796 0.0145782 0
M  V30 3777 H 365.763 5.06995 0.303032 0
M  V30 3778 H 365.693 4.84269 2.0686 0
M  V30 3779 H 368.184 3.61388 1.10485 0
M  V30 3780 H 368.497 7.54892 1.65403 0
M  V30 3781 H 366.842 6.78746 1.4943 0
M  V30 3782 H 370.033 4.50038 1.28777 0
M  V30 3783 H 370.206 6.29473 1.53842 0
M  V30 3784 N 363.613 -0.582584 1.46437 0
M  V30 3785 C 364.576 -1.67366 1.56592 0
M  V30 3786 C 365.576 -1.54575 0.443072 0
M  V30 3787 O 366.766 -1.59191 0.707381 0
M  V30 3788 C 363.898 -3.06791 1.48634 0
M  V30 3789 H 365.091 -1.5972 2.5383 0
M  V30 3790 H 362.644 -0.800432 1.34249 0
M  V30 3791 H 363.379 -3.19993 0.526763 0
M  V30 3792 H 363.164 -3.17484 2.30101 0
M  V30 3793 H 364.654 -3.86218 1.58826 0
M  V30 3794 N 365.091 -1.34144 -0.827227 0
M  V30 3795 C 366.024 -1.19707 -1.94282 0
M  V30 3796 C 367.002 -0.0897256 -1.62352 0
M  V30 3797 O 368.186 -0.254095 -1.8678 0
M  V30 3798 C 365.313 -0.838646 -3.28153 0
M  V30 3799 C 364.359 -1.95514 -3.79047 0
M  V30 3800 S 365.192 -3.56793 -3.99323 0
M  V30 3801 C 366.348 -3.22983 -5.36127 0
M  V30 3802 H 366.581 -2.1414 -2.06231 0
M  V30 3803 H 364.114 -1.19121 -0.982321 0
M  V30 3804 H 366.072 -0.638637 -4.05502 0
M  V30 3805 H 364.733 0.0872776 -3.13979 0
M  V30 3806 H 363.926 -1.658 -4.75948 0
M  V30 3807 H 363.528 -2.11241 -3.08631 0
M  V30 3808 H 365.82 -2.74531 -6.19386 0
M  V30 3809 H 366.763 -4.19008 -5.70822 0
M  V30 3810 H 367.171 -2.59276 -5.01434 0
M  V30 3811 N 366.569 1.04691 -1.17803 0
M  V30 3812 C 367.794 1.81984 -0.994813 0
M  V30 3813 C 368.219 1.82586 0.452112 0
M  V30 3814 O 367.577 1.23854 1.324 0
M  V30 3815 C 367.625 3.2575 -1.54659 0
M  V30 3816 O 366.729 4.05267 -0.763728 0
M  V30 3817 H 366.07 0.562483 -0.352857 0
M  V30 3818 H 368.6 1.3189 -1.56417 0
M  V30 3819 H 368.61 3.76541 -1.57102 0
M  V30 3820 H 367.285 3.24627 -2.59981 0
M  V30 3821 H 365.862 3.63972 -0.811108 0
M  V30 3822 N 368.047 0.979072 1.23499 0
M  V30 3823 C 369.295 0.645941 1.91499 0
M  V30 3824 C 369.616 -0.822948 1.76784 0
M  V30 3825 O 368.886 -1.58854 1.14639 0
M  V30 3826 H 367.466 0.235919 0.708767 0
M  V30 3827 H 370.128 1.2426 1.50152 0
M  V30 3828 H 369.224 0.896411 2.9895 0
M  V30 3829 N 369.525 -1.3858 0.750561 0
M  V30 3830 C 370.473 -2.32339 0.110162 0
M  V30 3831 C 371.467 -1.53864 -0.708674 0
M  V30 3832 O 372.673 -1.69417 -0.608112 0
M  V30 3833 H 369.048 -0.751812 0.0168275 0
M  V30 3834 H 371.019 -2.83959 0.917053 0
M  V30 3835 C 369.768 -3.39043 -0.771067 0
M  V30 3836 H 369.091 -3.99517 -0.150374 0
M  V30 3837 H 370.531 -4.07061 -1.1865 0
M  V30 3838 C 368.99 -2.77365 -1.91234 0
M  V30 3839 O 369.52 -2.66434 -3.00626 0
M  V30 3840 N 367.726 -2.35219 -1.70646 0
M  V30 3841 H 367.273 -2.4431 -0.81673 0
M  V30 3842 H 367.231 -1.94294 -2.47178 0
M  V30 3843 N 371.003 -0.499398 -1.49478 0
M  V30 3844 C 371.951 0.293604 -2.3074 0
M  V30 3845 C 372.945 0.96427 -1.39277 0
M  V30 3846 O 374.151 0.892141 -1.56336 0
M  V30 3847 H 370.526 0.113541 -0.743379 0
M  V30 3848 H 372.497 -0.411772 -2.95545 0
M  V30 3849 C 371.246 1.3462 -3.20582 0
M  V30 3850 H 370.569 0.83954 -3.90886 0
M  V30 3851 H 372.009 1.87308 -3.80384 0
M  V30 3852 C 370.468 2.36351 -2.40083 0
M  V30 3853 O 370.998 3.422 -2.10385 0
M  V30 3854 N 369.204 2.0878 -2.02137 0
M  V30 3855 H 368.751 1.22723 -2.26488 0
M  V30 3856 H 368.709 2.77075 -1.48583 0
M  V30 3857 N 372.481 1.55866 -0.233164 0
M  V30 3858 C 373.428 2.20796 0.67215 0
M  V30 3859 C 374.398 1.16731 1.18166 0
M  V30 3860 O 375.583 1.45129 1.23864 0
M  V30 3861 C 372.723 2.90072 1.86955 0
M  V30 3862 C 371.836 4.08759 1.39786 0
M  V30 3863 C 370.971 4.65787 2.55374 0
M  V30 3864 C 370.01 5.76752 2.04998 0
M  V30 3865 N 369.147 6.28021 3.13901 0
M  V30 3866 H 373.987 2.9779 0.111749 0
M  V30 3867 H 371.524 1.47036 0.0434007 0
M  V30 3868 H 373.482 3.28428 2.57276 0
M  V30 3869 H 372.112 2.15575 2.40265 0
M  V30 3870 H 371.164 3.7581 0.589173 0
M  V30 3871 H 372.476 4.88906 0.98856 0
M  V30 3872 H 371.63 5.06646 3.33758 0
M  V30 3873 H 370.369 3.84828 2.99598 0
M  V30 3874 H 369.374 5.35383 1.25079 0
M  V30 3875 H 370.599 6.59553 1.61759 0
M  V30 3876 H 368.545 5.49971 3.57586 0
M  V30 3877 H 368.462 7.03323 2.7726 0
M  V30 3878 H 369.73 6.73538 3.92386 0
M  V30 3879 N 373.959 -0.0401083 1.57549 0
M  V30 3880 C 374.889 -1.04384 2.08869 0
M  V30 3881 C 375.87 -1.38407 0.988817 0
M  V30 3882 O 377.055 -1.47483 1.26342 0
M  V30 3883 C 374.185 -2.34808 2.55895 0
M  V30 3884 C 373.139 -2.15057 3.70047 0
M  V30 3885 C 372.465 -3.51145 4.03239 0
M  V30 3886 C 373.765 -1.54576 4.98902 0
M  V30 3887 H 375.459 -0.616666 2.92981 0
M  V30 3888 H 373.005 -0.295184 1.40942 0
M  V30 3889 H 374.958 -3.05346 2.90417 0
M  V30 3890 H 373.682 -2.79565 1.68853 0
M  V30 3891 H 372.341 -1.46954 3.35857 0
M  V30 3892 H 371.989 -3.93529 3.13279 0
M  V30 3893 H 371.689 -3.38758 4.80122 0
M  V30 3894 H 373.213 -4.23062 4.40285 0
M  V30 3895 H 374.627 -2.15017 5.31451 0
M  V30 3896 H 373.024 -1.52796 5.80322 0
M  V30 3897 H 374.094 -0.51039 4.82206 0
M  V30 3898 N 375.437 -1.54477 -0.31217 0
M  V30 3899 C 376.685 -1.72884 -1.04668 0
M  V30 3900 C 377.006 -0.511477 -1.88173 0
M  V30 3901 O 376.276 0.474407 -1.90069 0
M  V30 3902 H 374.856 -0.637461 -0.389425 0
M  V30 3903 H 377.518 -1.91807 -0.345852 0
M  V30 3904 H 376.614 -2.61334 -1.70619 0
M  V30 3905 N 376.915 0.57481 -1.46744 0
M  V30 3906 C 378.163 1.33009 -1.52161 0
M  V30 3907 C 378.484 1.94185 -0.178092 0
M  V30 3908 O 377.754 1.7899 0.796196 0
M  V30 3909 H 376.334 0.493873 -0.560445 0
M  V30 3910 H 378.996 0.672589 -1.82927 0
M  V30 3911 H 378.092 2.13273 -2.27862 0
M  V30 3912 N 378.394 1.34581 0.820102 0
M  V30 3913 C 379.326 1.22236 1.93884 0
M  V30 3914 C 380.339 0.148776 1.62119 0
M  V30 3915 O 381.528 0.400877 1.7394 0
M  V30 3916 C 378.628 0.856542 3.27897 0
M  V30 3917 C 377.801 2.02569 3.87666 0
M  V30 3918 C 376.86 1.63782 5.00062 0
M  V30 3919 O 375.886 2.35477 5.18208 0
M  V30 3920 N 377.088 0.553611 5.77854 0
M  V30 3921 H 379.853 2.18615 2.05006 0
M  V30 3922 H 377.414 1.27573 0.99683 0
M  V30 3923 H 379.406 0.578806 4.0054 0
M  V30 3924 H 377.976 -0.0171518 3.12595 0
M  V30 3925 H 377.196 2.468 3.07382 0
M  V30 3926 H 378.484 2.80752 4.24329 0
M  V30 3927 H 377.882 -0.0423528 5.65684 0
M  V30 3928 H 376.439 0.335614 6.50935 0
M  V30 3929 N 379.872 -1.04064 1.18357 0
M  V30 3930 C 381.149 -1.74252 0.888581 0
M  V30 3931 C 381.529 -2.02138 -0.60856 0
M  V30 3932 O 380.877 -1.66656 -1.56327 0
M  V30 3933 C 381.087 -3.0277 1.73584 0
M  V30 3934 C 382.435 -3.76506 1.96286 0
M  V30 3935 O 383.459 -3.12668 1.70637 0
M  V30 3936 O 382.318 -4.91243 2.39464 0
M  V30 3937 H 379.412 -0.758271 0.330082 0
M  V30 3938 H 381.958 -1.1013 1.2911 0
M  V30 3939 H 380.73 -2.78299 2.75073 0
M  V30 3940 H 380.353 -3.74631 1.33183 0
M  V30 3941 N 381.35 -0.985608 -1.22978 0
M  V30 3942 C 382.597 -0.657386 -1.91532 0
M  V30 3943 C 382.925 0.809707 -1.76845 0
M  V30 3944 O 382.18 1.60021 -1.12658 0
M  V30 3945 C 382.479 -1.00014 -3.43121 0
M  V30 3946 C 382.145 -2.4583 -3.77993 0
M  V30 3947 C 380.807 -2.85679 -3.87222 0
M  V30 3948 C 383.159 -3.40378 -3.94705 0
M  V30 3949 C 380.487 -4.19081 -4.10595 0
M  V30 3950 C 382.839 -4.73429 -4.1958 0
M  V30 3951 C 381.503 -5.1303 -4.27032 0
M  V30 3952 H 380.773 -0.240555 -0.700867 0
M  V30 3953 H 383.42 -1.24044 -1.45895 0
M  V30 3954 H 381.725 -0.335072 -3.90365 0
M  V30 3955 H 383.422 -0.724322 -3.94404 0
M  V30 3956 H 380.012 -2.13939 -3.71387 0
M  V30 3957 H 384.196 -3.10766 -3.8696 0
M  V30 3958 H 379.452 -4.49362 -4.14589 0
M  V30 3959 H 383.626 -5.46644 -4.31455 0
M  V30 3960 H 381.253 -6.16418 -4.44896 0
M  V30 3961 N 382.828 1.3818 -0.7579 0
M  V30 3962 C 383.776 2.32277 -0.122482 0
M  V30 3963 C 384.77 1.54238 0.700505 0
M  V30 3964 O 385.976 1.69737 0.599119 0
M  V30 3965 H 382.351 0.751712 -0.0208143 0
M  V30 3966 H 384.322 2.83469 -0.932099 0
M  V30 3967 C 383.071 3.39447 0.753076 0
M  V30 3968 H 382.394 3.99591 0.129184 0
M  V30 3969 H 383.834 4.07684 1.16489 0
M  V30 3970 C 382.293 2.78375 1.8976 0
M  V30 3971 O 382.823 2.68025 2.99208 0
M  V30 3972 N 381.029 2.36121 1.69397 0
M  V30 3973 H 380.576 2.4474 0.803762 0
M  V30 3974 H 380.534 1.95602 2.46145 0
M  V30 3975 N 384.306 0.507319 1.49211 0
M  V30 3976 C 385.238 -0.304532 2.27168 0
M  V30 3977 C 386.251 -0.924956 1.33972 0
M  V30 3978 O 387.44 -0.807227 1.59205 0
M  V30 3979 C 384.54 -1.44431 3.06583 0
M  V30 3980 C 383.713 -0.930026 4.27398 0
M  V30 3981 C 382.772 -1.94817 4.88807 0
M  V30 3982 O 381.798 -1.51418 5.4869 0
M  V30 3983 N 383 -3.279 4.79022 0
M  V30 3984 H 385.765 0.36395 2.97482 0
M  V30 3985 H 383.326 0.340249 1.58284 0
M  V30 3986 H 385.318 -2.12311 3.44537 0
M  V30 3987 H 383.888 -2.01684 2.38835 0
M  V30 3988 H 383.108 -0.0759244 3.94127 0
M  V30 3989 H 384.396 -0.564932 5.05654 0
M  V30 3990 H 383.794 -3.65843 4.3148 0
M  V30 3991 H 382.351 -3.91476 5.21142 0
M  V30 3992 N 385.784 -1.5574 0.241426 0
M  V30 3993 C 387.2 -1.59196 -0.113548 0
M  V30 3994 C 387.4 -1.25852 -1.57364 0
M  V30 3995 O 386.456 -1.00322 -2.31715 0
M  V30 3996 C 387.769 -2.99814 0.230695 0
M  V30 3997 C 389.317 -3.12513 0.174547 0
M  V30 3998 C 389.792 -4.55342 0.492744 0
M  V30 3999 N 391.283 -4.61076 0.443043 0
M  V30 4000 C 392.018 -5.6956 0.662484 0
M  V30 4001 N 391.514 -6.86328 0.944761 0
M  V30 4002 N 393.307 -5.58957 0.593564 0
M  V30 4003 H 385.458 -1.75685 1.19368 0
M  V30 4004 H 387.721 -0.81756 0.479896 0
M  V30 4005 H 387.427 -3.28932 1.24485 0
M  V30 4006 H 387.301 -3.74568 -0.444833 0
M  V30 4007 H 389.688 -2.83179 -0.830277 0
M  V30 4008 H 389.769 -2.40045 0.883845 0
M  V30 4009 H 389.413 -4.85396 1.4951 0
M  V30 4010 H 389.343 -5.26062 -0.23797 0
M  V30 4011 H 391.834 -3.77179 0.233374 0
M  V30 4012 H 392.147 -7.64935 1.09977 0
M  V30 4013 H 390.492 -6.88025 0.982175 0
M  V30 4014 H 393.683 -4.66611 0.373123 0
M  V30 4015 H 393.856 -6.43433 0.767981 0
M  V30 4016 N 387.262 0.0317525 -1.57568 0
M  V30 4017 C 388.192 1.03274 -2.0942 0
M  V30 4018 C 389.173 1.3788 -0.996143 0
M  V30 4019 O 390.358 1.46811 -1.27122 0
M  V30 4020 C 387.488 2.33448 -2.57137 0
M  V30 4021 C 386.442 2.13091 -3.71182 0
M  V30 4022 C 385.768 3.49001 -4.05095 0
M  V30 4023 C 387.068 1.51928 -4.99715 0
M  V30 4024 H 388.762 0.60112 -2.93303 0
M  V30 4025 H 386.308 0.287705 -1.41097 0
M  V30 4026 H 388.261 3.03802 -2.92032 0
M  V30 4027 H 386.985 2.78665 -1.70333 0
M  V30 4028 H 385.644 1.45171 -3.36632 0
M  V30 4029 H 385.292 3.91862 -3.15362 0
M  V30 4030 H 384.992 3.36207 -4.81911 0
M  V30 4031 H 386.516 4.20721 -4.42522 0
M  V30 4032 H 387.93 2.12196 -5.32584 0
M  V30 4033 H 386.327 1.49716 -5.81124 0
M  V30 4034 H 387.397 0.484811 -4.8247 0
M  V30 4035 N 388.74 1.54641 0.303973 0
M  V30 4036 C 389.67 1.88386 1.3796 0
M  V30 4037 C 390.651 0.742485 1.5304 0
M  V30 4038 O 391.836 0.997959 1.66597 0
M  V30 4039 C 388.966 2.12854 2.74427 0
M  V30 4040 C 387.92 3.28702 2.74115 0
M  V30 4041 C 387.246 3.38582 4.13844 0
M  V30 4042 C 388.546 4.65881 2.3612 0
M  V30 4043 H 390.24 2.78474 1.09966 0
M  V30 4044 H 387.786 1.33988 0.527556 0
M  V30 4045 H 389.739 2.35047 3.49758 0
M  V30 4046 H 388.463 1.19535 3.03939 0
M  V30 4047 H 387.122 3.06428 2.0124 0
M  V30 4048 H 386.77 2.42784 4.40528 0
M  V30 4049 H 386.47 4.16453 4.14537 0
M  V30 4050 H 387.994 3.63031 4.90959 0
M  V30 4051 H 389.408 4.87823 3.01167 0
M  V30 4052 H 387.805 5.46444 2.48031 0
M  V30 4053 H 388.875 4.66799 1.3125 0
M  V30 4054 N 390.218 -0.567019 1.47046 0
M  V30 4055 C 391.15 -1.68985 1.54844 0
M  V30 4056 C 392.163 -1.56869 0.435431 0
M  V30 4057 O 393.352 -1.64006 0.70457 0
M  V30 4058 C 390.452 -3.07373 1.42742 0
M  V30 4059 C 389.625 -3.45339 2.6844 0
M  V30 4060 C 388.684 -4.62849 2.50314 0
M  V30 4061 O 387.71 -4.67922 3.24095 0
M  V30 4062 N 388.912 -5.58726 1.57499 0
M  V30 4063 H 391.677 -1.62745 2.51663 0
M  V30 4064 H 389.238 -0.753411 1.43302 0
M  V30 4065 H 391.23 -3.83803 1.28365 0
M  V30 4066 H 389.8 -3.07893 0.540445 0
M  V30 4067 H 389.02 -2.58455 2.97648 0
M  V30 4068 H 390.308 -3.67476 3.51907 0
M  V30 4069 H 389.706 -5.57376 0.966876 0
M  V30 4070 H 388.263 -6.34523 1.49078 0
M  V30 4071 N 391.696 -1.35014 -0.812953 0
M  V30 4072 C 392.926 -1.30841 -1.59888 0
M  V30 4073 C 393.334 0.117576 -1.88834 0
M  V30 4074 O 392.677 1.07807 -1.48739 0
M  V30 4075 C 392.739 -2.0412 -2.95931 0
M  V30 4076 C 392.403 -3.53336 -2.89832 0
M  V30 4077 C 393.4 -4.48052 -2.63714 0
M  V30 4078 C 391.085 -3.95894 -3.0915 0
M  V30 4079 C 393.079 -5.833 -2.56982 0
M  V30 4080 C 390.766 -5.31239 -3.0204 0
M  V30 4081 C 391.764 -6.24754 -2.75991 0
M  V30 4082 O 391.452 -7.57617 -2.68833 0
M  V30 4083 H 391.184 -0.451215 -0.50337 0
M  V30 4084 H 393.738 -1.78354 -1.01877 0
M  V30 4085 H 391.968 -1.51235 -3.559 0
M  V30 4086 H 393.657 -1.93107 -3.57022 0
M  V30 4087 H 394.423 -4.16492 -2.48515 0
M  V30 4088 H 390.302 -3.23495 -3.28438 0
M  V30 4089 H 393.846 -6.56263 -2.36569 0
M  V30 4090 H 389.743 -5.62415 -3.16796 0
M  V30 4091 H 390.511 -7.67469 -2.84487 0
M  V30 4092 N 393.175 1.03435 -1.18907 0
M  V30 4093 C 394.105 2.13503 -0.945448 0
M  V30 4094 C 395.086 1.69682 0.119189 0
M  V30 4095 O 396.271 1.94169 -0.034707 0
M  V30 4096 C 393.401 3.44004 -0.477316 0
M  V30 4097 C 392.355 4.0148 -1.48316 0
M  V30 4098 C 391.681 5.27537 -0.872311 0
M  V30 4099 C 392.981 4.36921 -2.86177 0
M  V30 4100 H 394.675 2.34141 -1.86597 0
M  V30 4101 H 392.221 1.12523 -0.898584 0
M  V30 4102 H 394.174 4.20372 -0.294204 0
M  V30 4103 H 392.898 3.23072 0.478786 0
M  V30 4104 H 391.557 3.27201 -1.65332 0
M  V30 4105 H 391.205 5.02917 0.0911752 0
M  V30 4106 H 390.905 5.66954 -1.54393 0
M  V30 4107 H 392.429 6.06576 -0.699871 0
M  V30 4108 H 393.843 5.04248 -2.72776 0
M  V30 4109 H 392.24 4.87405 -3.50081 0
M  V30 4110 H 393.31 3.46466 -3.39248 0
M  V30 4111 N 394.653 0.992116 1.22453 0
M  V30 4112 C 395.883 0.684949 1.94915 0
M  V30 4113 C 396.291 -0.754292 1.73514 0
M  V30 4114 O 395.634 -1.52056 1.03076 0
M  V30 4115 C 395.696 0.910054 3.47791 0
M  V30 4116 C 395.36 2.33363 3.92926 0
M  V30 4117 C 396.357 3.31308 4.00663 0
M  V30 4118 C 394.042 2.66785 4.25595 0
M  V30 4119 C 396.036 4.6075 4.40441 0
M  V30 4120 C 393.723 3.96446 4.65053 0
M  V30 4121 C 394.721 4.9324 4.72444 0
M  V30 4122 O 394.409 6.20584 5.1101 0
M  V30 4123 H 394.141 0.25258 0.62704 0
M  V30 4124 H 396.695 1.32939 1.56577 0
M  V30 4125 H 394.925 0.208443 3.86138 0
M  V30 4126 H 396.614 0.598257 4.01467 0
M  V30 4127 H 397.38 3.0682 3.75615 0
M  V30 4128 H 393.259 1.92148 4.19047 0
M  V30 4129 H 396.803 5.363 4.46126 0
M  V30 4130 H 392.7 4.20724 4.89552 0
M  V30 4131 H 393.468 6.24509 5.29085 0
M  V30 4132 N 396.131 -1.37776 0.765217 0
M  V30 4133 C 397.078 -2.30342 0.145274 0
M  V30 4134 C 398.048 -1.5077 -0.696971 0
M  V30 4135 O 399.233 -1.79362 -0.650689 0
M  V30 4136 C 396.373 -3.37227 -0.732939 0
M  V30 4137 C 395.486 -4.31819 0.125199 0
M  V30 4138 C 394.621 -5.25777 -0.757107 0
M  V30 4139 C 393.66 -6.12012 0.103963 0
M  V30 4140 N 392.797 -6.98232 -0.735953 0
M  V30 4141 H 397.637 -2.8278 0.940195 0
M  V30 4142 H 395.174 -1.39211 0.475255 0
M  V30 4143 H 397.132 -3.97818 -1.25686 0
M  V30 4144 H 395.762 -2.86171 -1.49353 0
M  V30 4145 H 394.814 -3.7259 0.766865 0
M  V30 4146 H 396.126 -4.92509 0.789683 0
M  V30 4147 H 395.28 -5.91541 -1.34776 0
M  V30 4148 H 394.019 -4.65481 -1.45529 0
M  V30 4149 H 393.024 -5.45233 0.707197 0
M  V30 4150 H 394.249 -6.74379 0.799381 0
M  V30 4151 H 392.195 -6.40472 -1.41887 0
M  V30 4152 H 392.112 -7.55891 -0.128624 0
M  V30 4153 H 393.38 -7.68393 -1.31121 0
M  V30 4154 N 397.609 -0.515225 -1.4894 0
M  V30 4155 C 398.541 0.292481 -2.27326 0
M  V30 4156 C 399.554 0.917838 -1.3446 0
M  V30 4157 O 400.743 0.798772 -1.5963 0
M  V30 4158 C 397.843 1.42803 -3.07344 0
M  V30 4159 C 397.016 0.907347 -4.27885 0
M  V30 4160 C 396.075 1.92222 -4.89834 0
M  V30 4161 O 395.101 1.48506 -5.49486 0
M  V30 4162 N 396.303 3.25355 -4.80754 0
M  V30 4163 H 399.068 -0.379721 -2.97285 0
M  V30 4164 H 396.629 -0.348638 -1.58102 0
M  V30 4165 H 398.621 2.10481 -3.45658 0
M  V30 4166 H 397.191 2.00414 -2.39902 0
M  V30 4167 H 396.411 0.0550218 -3.94162 0
M  V30 4168 H 397.699 0.538108 -5.05946 0
M  V30 4169 H 397.097 3.6355 -4.33414 0
M  V30 4170 H 395.654 3.88707 -5.23211 0
M  V30 4171 N 399.087 1.5561 -0.249682 0
M  V30 4172 C 400.336 1.98187 0.37479 0
M  V30 4173 C 400.649 1.14111 1.58865 0
M  V30 4174 O 401.855 1.46714 2.28445 0
M  V30 4175 C 400.311 3.52661 0.718192 0
M  V30 4176 C 399.919 4.45481 -0.474428 0
M  V30 4177 C 401.663 4.03888 1.3067 0
M  V30 4178 C 399.57 5.91303 -0.107026 0
M  V30 4179 H 398.5 0.740159 0.143808 0
M  V30 4180 H 401.151 1.80125 -0.350336 0
M  V30 4181 H 399.533 3.66429 1.50152 0
M  V30 4182 H 400.707 4.43473 -1.25172 0
M  V30 4183 H 399.022 4.04751 -0.978052 0
M  V30 4184 H 401.619 5.10358 1.59496 0
M  V30 4185 H 401.962 3.51401 2.23211 0
M  V30 4186 H 402.495 3.93457 0.586211 0
M  V30 4187 H 399.234 6.47833 -0.999642 0
M  V30 4188 H 398.754 5.9644 0.634013 0
M  V30 4189 H 400.433 6.46258 0.309807 0
M  V30 4190 N 400.565 -0.0233959 1.57583 0
M  V30 4191 C 401.795 -0.723631 1.93513 0
M  V30 4192 C 402.203 -1.69115 0.848333 0
M  V30 4193 O 401.546 -1.82781 -0.183484 0
M  V30 4194 C 401.608 -1.53075 3.25282 0
M  V30 4195 C 401.272 -0.727388 4.51174 0
M  V30 4196 C 402.269 -0.0251924 5.19894 0
M  V30 4197 C 399.954 -0.680256 4.97672 0
M  V30 4198 C 401.948 0.713374 6.33395 0
M  V30 4199 C 399.635 0.0620523 6.11068 0
M  V30 4200 C 400.633 0.757622 6.78785 0
M  V30 4201 O 400.321 1.48787 7.90011 0
M  V30 4202 H 400.053 -0.208051 0.643188 0
M  V30 4203 H 402.607 0.0167489 2.05393 0
M  V30 4204 H 400.837 -2.31508 3.09744 0
M  V30 4205 H 402.526 -2.11413 3.46496 0
M  V30 4206 H 403.292 -0.0526003 4.84971 0
M  V30 4207 H 399.171 -1.21116 4.44805 0
M  V30 4208 H 402.715 1.25683 6.86185 0
M  V30 4209 H 398.612 0.0913634 6.45435 0
M  V30 4210 H 399.38 1.40213 8.06401 0
M  V30 4211 N 402.043 -1.548 -0.295768 0
M  V30 4212 C 402.975 -1.82492 -1.3867 0
M  V30 4213 C 403.988 -0.708134 -1.46592 0
M  V30 4214 O 405.177 -0.985686 -1.48817 0
M  V30 4215 C 402.277 -1.95256 -2.76999 0
M  V30 4216 C 401.45 -3.25709 -2.91946 0
M  V30 4217 C 400.509 -3.28824 -4.10806 0
M  V30 4218 O 399.535 -4.02328 -4.02643 0
M  V30 4219 N 400.737 -2.5459 -5.21694 0
M  V30 4220 H 403.502 -2.76646 -1.15269 0
M  V30 4221 H 401.063 -1.54438 -0.485849 0
M  V30 4222 H 403.055 -1.94736 -3.54768 0
M  V30 4223 H 401.625 -1.08072 -2.93324 0
M  V30 4224 H 400.845 -3.38959 -2.01247 0
M  V30 4225 H 402.133 -4.11786 -2.98847 0
M  V30 4226 H 401.531 -1.94512 -5.31208 0
M  V30 4227 H 400.088 -2.59818 -5.97778 0
M  V30 4228 N 403.521 0.559213 -1.47345 0
M  V30 4229 C 404.749 1.34194 -1.57479 0
M  V30 4230 C 405.164 1.87463 -0.224261 0
M  V30 4231 O 404.521 1.64888 0.782185 0
M  V30 4232 C 404.572 2.51324 -2.59843 0
M  V30 4233 O 404.293 2.00256 -3.89653 0
M  V30 4234 C 405.794 3.43563 -2.80142 0
M  V30 4235 H 403.014 0.409136 -0.531835 0
M  V30 4236 H 405.558 0.677609 -1.92947 0
M  V30 4237 H 403.713 3.13699 -2.27314 0
M  V30 4238 H 404.127 2.76708 -4.4557 0
M  V30 4239 H 405.601 4.2217 -3.55635 0
M  V30 4240 H 406.078 3.9698 -1.87892 0
M  V30 4241 H 406.684 2.87005 -3.1386 0
M  V30 4242 N 404.999 1.35443 0.805782 0
M  V30 4243 C 406.229 1.31687 1.59192 0
M  V30 4244 C 406.637 -0.10756 1.88894 0
M  V30 4245 O 405.98 -1.07017 1.49309 0
M  V30 4246 C 406.042 2.05686 2.94845 0
M  V30 4247 C 405.706 3.54868 2.87954 0
M  V30 4248 C 406.703 4.49444 2.61335 0
M  V30 4249 C 404.388 3.97528 3.07046 0
M  V30 4250 C 406.382 5.84655 2.53885 0
M  V30 4251 C 404.069 5.32833 2.99219 0
M  V30 4252 C 405.067 6.26209 2.72674 0
M  V30 4253 O 404.755 7.59032 2.64811 0
M  V30 4254 H 404.487 0.453878 0.50097 0
M  V30 4255 H 407.041 1.78892 1.0093 0
M  V30 4256 H 405.271 1.5312 3.55093 0
M  V30 4257 H 406.96 1.94998 3.55993 0
M  V30 4258 H 407.726 4.17804 2.46303 0
M  V30 4259 H 403.605 3.25233 3.26718 0
M  V30 4260 H 407.149 6.57508 2.33086 0
M  V30 4261 H 403.046 5.64087 3.13809 0
M  V30 4262 H 403.814 7.68967 2.80413 0
M  V30 4263 N 406.477 -1.02803 1.19454 0
M  V30 4264 C 407.725 -1.75869 0.995722 0
M  V30 4265 C 408.046 -1.89138 -0.474543 0
M  V30 4266 O 407.316 -1.42558 -1.34366 0
M  V30 4267 H 405.896 -0.651511 0.365435 0
M  V30 4268 H 408.558 -1.24004 1.50363 0
M  V30 4269 H 407.654 -2.76661 1.44447 0
M  V30 4270 N 407.956 -0.998596 -1.21925 0
M  V30 4271 C 409.203 -0.677663 -1.90824 0
M  V30 4272 C 409.531 0.790905 -1.77693 0
M  V30 4273 O 408.786 1.58817 -1.14349 0
M  V30 4274 C 409.085 -1.03648 -3.42041 0
M  V30 4275 C 408.751 -2.49825 -3.75364 0
M  V30 4276 C 407.413 -2.8977 -3.8417 0
M  V30 4277 C 409.765 -3.44545 -3.91073 0
M  V30 4278 C 407.093 -4.23412 -4.06127 0
M  V30 4279 C 409.445 -4.77853 -4.14535 0
M  V30 4280 C 408.109 -5.17531 -4.21566 0
M  V30 4281 H 407.379 -0.247975 -0.698276 0
M  V30 4282 H 410.026 -1.25584 -1.44571 0
M  V30 4283 H 408.331 -0.376457 -3.89987 0
M  V30 4284 H 410.028 -0.766113 -3.93614 0
M  V30 4285 H 406.618 -2.17866 -3.69097 0
M  V30 4286 H 410.802 -3.14853 -3.83642 0
M  V30 4287 H 406.058 -4.53734 -4.09799 0
M  V30 4288 H 410.232 -5.51189 -4.25633 0
M  V30 4289 H 407.859 -6.21102 -4.38333 0
M  V30 4290 N 409.434 1.37368 -0.772513 0
M  V30 4291 C 410.68 1.99969 -0.337681 0
M  V30 4292 C 411.013 1.61184 1.08321 0
M  V30 4293 O 410.288 0.858395 1.74533 0
M  V30 4294 C 410.571 3.56858 -0.482121 0
M  V30 4295 C 410.424 4.0555 -1.94549 0
M  V30 4296 C 411.743 4.39955 0.113143 0
M  V30 4297 H 408.862 0.726464 -0.124171 0
M  V30 4298 H 411.504 1.63034 -0.975699 0
M  V30 4299 H 409.654 3.88452 0.0610361 0
M  V30 4300 H 411.326 3.84518 -2.54841 0
M  V30 4301 H 409.569 3.57715 -2.45403 0
M  V30 4302 H 410.24 5.14587 -1.9976 0
M  V30 4303 H 412.716 4.14623 -0.35031 0
M  V30 4304 H 411.592 5.48897 -0.0180514 0
M  V30 4305 H 411.853 4.25403 1.20354 0
M  V30 4306 N 410.912 0.523116 1.48665 0
M  V30 4307 C 412.323 0.0808997 1.86525 0
M  V30 4308 C 412.674 -1.33975 1.43336 0
M  V30 4309 O 411.799 -2.00221 0.821009 0
M  V30 4310 C 412.394 0.140037 3.3851 0
M  V30 4311 C 410.953 -0.246948 3.75589 0
M  V30 4312 C 410.1 0.502845 2.72703 0
M  V30 4313 H 413.051 0.734736 1.40667 0
M  V30 4314 H 413.072 -0.649945 3.74908 0
M  V30 4315 H 412.584 1.17412 3.69914 0
M  V30 4316 H 410.685 -1.28343 3.49798 0
M  V30 4317 H 410.798 0.0878859 4.79019 0
M  V30 4318 H 409.162 -0.0500581 2.54651 0
M  V30 4319 H 409.945 1.53743 3.0695 0
M  V30 4320 N 412.39 -1.55475 0.257931 0
M  V30 4321 C 413.615 -2.04064 -0.370488 0
M  V30 4322 C 414.04 -1.13565 -1.49948 0
M  V30 4323 O 413.398 -0.130781 -1.80828 0
M  V30 4324 C 413.446 -3.50554 -0.845237 0
M  V30 4325 O 412.55 -3.63173 -1.95394 0
M  V30 4326 H 411.891 -0.659257 -0.0792243 0
M  V30 4327 H 414.421 -2.00903 0.387212 0
M  V30 4328 H 414.431 -3.91588 -1.14555 0
M  V30 4329 H 413.106 -4.15896 -0.0191259 0
M  V30 4330 H 411.683 -3.34039 -1.65748 0
M  V30 4331 N 413.868 0.0150385 -1.57593 0
M  V30 4332 C 415.284 0.370907 -1.5523 0
M  V30 4333 C 415.484 1.75735 -0.985882 0
M  V30 4334 O 414.54 2.44944 -0.613077 0
M  V30 4335 C 415.853 0.259908 -2.99575 0
M  V30 4336 C 417.401 0.335959 -3.11192 0
M  V30 4337 C 417.876 0.254253 -4.57294 0
M  V30 4338 N 419.367 0.312618 -4.62144 0
M  V30 4339 C 420.102 0.272505 -5.72752 0
M  V30 4340 N 419.598 0.183864 -6.92556 0
M  V30 4341 N 421.391 0.323267 -5.6117 0
M  V30 4342 H 413.542 -0.892104 -1.92757 0
M  V30 4343 H 415.805 -0.340563 -0.884715 0
M  V30 4344 H 415.511 -0.693403 -3.44797 0
M  V30 4345 H 415.385 1.048 -3.62349 0
M  V30 4346 H 417.772 1.27971 -2.65909 0
M  V30 4347 H 417.853 -0.481739 -2.51223 0
M  V30 4348 H 417.497 -0.685887 -5.03247 0
M  V30 4349 H 417.427 1.09024 -5.15191 0
M  V30 4350 H 419.918 0.38307 -3.75953 0
M  V30 4351 H 420.231 0.15874 -7.72637 0
M  V30 4352 H 418.576 0.149708 -6.94839 0
M  V30 4353 H 421.767 0.390607 -4.66467 0
M  V30 4354 H 421.94 0.288539 -6.47357 0
M  V30 4355 N 415.346 1.54954 0.287554 0
M  V30 4356 C 416.293 1.86834 1.35505 0
M  V30 4357 C 417.263 0.718452 1.49758 0
M  V30 4358 O 418.448 0.968358 1.644 0
M  V30 4359 C 415.588 2.13303 2.71286 0
M  V30 4360 C 414.701 3.40883 2.65373 0
M  V30 4361 C 413.836 3.57125 3.93236 0
M  V30 4362 C 412.875 4.78449 3.81776 0
M  V30 4363 N 412.012 4.91426 5.01443 0
M  V30 4364 H 416.852 2.77889 1.07619 0
M  V30 4365 H 414.389 1.37593 0.520241 0
M  V30 4366 H 416.347 2.26646 3.50267 0
M  V30 4367 H 414.977 1.25499 2.97405 0
M  V30 4368 H 414.029 3.36088 1.78182 0
M  V30 4369 H 415.341 4.29993 2.52799 0
M  V30 4370 H 414.495 3.70207 4.80658 0
M  V30 4371 H 413.234 2.66173 4.0866 0
M  V30 4372 H 412.239 4.65386 2.92738 0
M  V30 4373 H 413.464 5.70822 3.67884 0
M  V30 4374 H 411.41 4.03401 5.17304 0
M  V30 4375 H 411.327 5.74559 4.91343 0
M  V30 4376 H 412.595 5.08879 5.90477 0
M  V30 4377 N 416.824 -0.551391 1.4764 0
M  V30 4378 C 417.734 -1.68525 1.63207 0
M  V30 4379 C 418.75 -1.6621 0.514815 0
M  V30 4380 O 419.926 -1.85551 0.783113 0
M  V30 4381 C 416.991 -3.05025 1.64805 0
M  V30 4382 C 416.052 -3.18362 2.88 0
M  V30 4383 C 415.285 -4.4835 2.89513 0
M  V30 4384 O 415.508 -5.34163 2.00065 0
M  V30 4385 O 414.442 -4.65602 3.81443 0
M  V30 4386 H 418.268 -1.58333 2.59161 0
M  V30 4387 H 415.853 -0.722063 1.30792 0
M  V30 4388 H 417.735 -3.86245 1.68502 0
M  V30 4389 H 416.41 -3.15587 0.720197 0
M  V30 4390 H 415.317 -2.36518 2.89845 0
M  V30 4391 H 416.65 -3.12707 3.80099 0
M  V30 4392 N 418.302 -1.35869 -0.798587 0
M  V30 4393 C 419.212 -1.31578 -1.94228 0
M  V30 4394 C 420.228 -0.21939 -1.72611 0
M  V30 4395 O 421.404 -0.450167 -1.96305 0
M  V30 4396 C 418.469 -1.09528 -3.28944 0
M  V30 4397 C 417.53 -2.28556 -3.63402 0
M  V30 4398 C 416.763 -2.07549 -4.9169 0
M  V30 4399 O 416.986 -1.046 -5.60727 0
M  V30 4400 O 415.92 -2.95106 -5.24591 0
M  V30 4401 H 419.746 -2.27847 -2.00796 0
M  V30 4402 H 417.331 -1.16322 -0.937526 0
M  V30 4403 H 419.213 -0.991127 -4.09579 0
M  V30 4404 H 417.888 -0.16315 -3.23289 0
M  V30 4405 H 416.795 -2.44538 -2.83112 0
M  V30 4406 H 418.128 -3.20244 -3.73771 0
M  V30 4407 N 419.78 1.02168 -1.19998 0
M  V30 4408 C 421.029 1.75091 -1.0013 0
M  V30 4409 C 421.342 1.89923 0.467835 0
M  V30 4410 O 422.548 2.59888 0.785515 0
M  V30 4411 C 421.004 3.14892 -1.74273 0
M  V30 4412 C 420.612 3.0809 -3.25245 0
M  V30 4413 C 422.356 3.9206 -1.62755 0
M  V30 4414 C 420.263 4.42867 -3.91948 0
M  V30 4415 H 419.193 0.656394 -0.37103 0
M  V30 4416 H 421.844 1.14284 -1.43567 0
M  V30 4417 H 420.226 3.7621 -1.2362 0
M  V30 4418 H 421.4 2.5611 -3.83072 0
M  V30 4419 H 419.715 2.44416 -3.3712 0
M  V30 4420 H 422.312 4.91764 -2.09934 0
M  V30 4421 H 422.655 4.12199 -0.582894 0
M  V30 4422 H 423.188 3.37359 -2.10793 0
M  V30 4423 H 419.927 4.27931 -4.96543 0
M  V30 4424 H 419.447 4.94874 -3.3891 0
M  V30 4425 H 421.126 5.11728 -3.95909 0
M  V30 4426 N 421.258 1.00505 1.21394 0
M  V30 4427 C 422.208 0.536503 2.21598 0
M  V30 4428 C 423.192 -0.401914 1.55799 0
M  V30 4429 O 424.384 -0.226757 1.75541 0
M  V30 4430 C 421.513 -0.135446 3.43033 0
M  V30 4431 C 420.599 0.823992 4.16018 0
M  V30 4432 N 420.99 1.97683 4.6557 0
M  V30 4433 C 419.288 0.642387 4.4135 0
M  V30 4434 C 419.989 2.58003 5.21354 0
M  V30 4435 N 418.965 1.86162 5.1073 0
M  V30 4436 H 422.767 1.41557 2.57563 0
M  V30 4437 H 420.281 0.868878 1.37202 0
M  V30 4438 H 422.278 -0.488584 4.14027 0
M  V30 4439 H 420.938 -1.01049 3.08576 0
M  V30 4440 H 421.949 2.3572 4.61147 0
M  V30 4441 H 418.626 -0.185578 4.17087 0
M  V30 4442 H 420.016 3.555 5.70149 0
M  V30 4443 N 422.737 -1.36956 0.779787 0
M  V30 4444 C 424.153 -1.52817 0.460342 0
M  V30 4445 C 424.353 -1.7361 -1.02283 0
M  V30 4446 O 423.409 -1.76207 -1.80852 0
M  V30 4447 C 424.722 -2.71983 1.28241 0
M  V30 4448 C 426.27 -2.85849 1.27512 0
M  V30 4449 C 426.745 -4.08008 2.08072 0
M  V30 4450 N 428.236 -4.15135 2.05467 0
M  V30 4451 C 428.971 -5.08711 2.64577 0
M  V30 4452 N 428.467 -6.07792 3.32506 0
M  V30 4453 N 430.26 -5.01254 2.54363 0
M  V30 4454 H 422.411 -1.21713 1.74068 0
M  V30 4455 H 424.674 -0.593294 0.739396 0
M  V30 4456 H 424.38 -2.63109 2.33381 0
M  V30 4457 H 424.254 -3.65882 0.917088 0
M  V30 4458 H 426.641 -2.94189 0.231686 0
M  V30 4459 H 426.722 -1.92886 1.68014 0
M  V30 4460 H 426.366 -4.00429 3.12441 0
M  V30 4461 H 426.296 -5.001 1.64947 0
M  V30 4462 H 428.787 -3.44189 1.5602 0
M  V30 4463 H 429.1 -6.75739 3.74963 0
M  V30 4464 H 427.445 -6.08047 3.36606 0
M  V30 4465 H 430.636 -4.22795 2.00902 0
M  V30 4466 H 430.809 -5.73995 3.00722 0
M  V30 4467 N 424.215 -0.530993 -1.48385 0
M  V30 4468 C 425.145 0.219985 -2.32461 0
M  V30 4469 C 426.126 0.934111 -1.42156 0
M  V30 4470 O 427.311 0.919694 -1.71042 0
M  V30 4471 C 424.441 1.26674 -3.23375 0
M  V30 4472 C 423.395 0.67069 -4.22712 0
M  V30 4473 C 422.721 1.82017 -5.02766 0
M  V30 4474 C 424.021 -0.358268 -5.2107 0
M  V30 4475 H 425.715 -0.48187 -2.95497 0
M  V30 4476 H 423.261 -0.233182 -1.42099 0
M  V30 4477 H 425.214 1.80006 -3.81019 0
M  V30 4478 H 423.938 1.99818 -2.58341 0
M  V30 4479 H 422.597 0.158878 -3.66256 0
M  V30 4480 H 422.245 2.54002 -4.34157 0
M  V30 4481 H 421.945 1.42727 -5.70003 0
M  V30 4482 H 423.469 2.35725 -5.63264 0
M  V30 4483 H 424.883 0.0880081 -5.73232 0
M  V30 4484 H 423.28 -0.66861 -5.96364 0
M  V30 4485 H 424.35 -1.26367 -4.68145 0
M  V30 4486 N 425.693 1.55336 -0.266172 0
M  V30 4487 C 427.109 1.59356 0.0882065 0
M  V30 4488 C 427.309 1.2834 1.55342 0
M  V30 4489 O 426.365 1.03996 2.30089 0
M  V30 4490 C 427.678 2.99409 -0.278364 0
M  V30 4491 C 429.226 3.12196 -0.224243 0
M  V30 4492 C 429.701 4.545 -0.565123 0
M  V30 4493 N 431.192 4.60313 -0.51634 0
M  V30 4494 C 431.927 5.68434 -0.753013 0
M  V30 4495 N 431.423 6.84738 -1.05383 0
M  V30 4496 N 433.216 5.57942 -0.682414 0
M  V30 4497 H 425.367 1.73764 -1.22147 0
M  V30 4498 H 427.63 0.809822 -0.492841 0
M  V30 4499 H 427.336 3.2691 -1.29703 0
M  V30 4500 H 427.21 3.75228 0.385186 0
M  V30 4501 H 429.597 2.84464 0.78512 0
M  V30 4502 H 429.678 2.38609 -0.921922 0
M  V30 4503 H 429.322 4.82956 -1.57213 0
M  V30 4504 H 429.252 5.26374 0.154248 0
M  V30 4505 H 431.743 3.7676 -0.29335 0
M  V30 4506 H 432.056 7.63088 -1.22133 0
M  V30 4507 H 430.401 6.86375 -1.09151 0
M  V30 4508 H 433.592 4.65958 -0.44731 0
M  V30 4509 H 433.765 6.4213 -0.870248 0
M  V30 4510 N 427.171 -0.0066808 1.57599 0
M  V30 4511 C 428.103 -1.02827 2.04839 0
M  V30 4512 C 429.116 -1.31108 0.965113 0
M  V30 4513 O 430.305 -1.28202 1.24203 0
M  V30 4514 C 427.405 -2.36464 2.42771 0
M  V30 4515 C 426.578 -2.27219 3.73751 0
M  V30 4516 C 425.637 -3.43489 3.98625 0
M  V30 4517 O 424.663 -3.21976 4.69382 0
M  V30 4518 N 425.865 -4.66116 3.46 0
M  V30 4519 H 428.63 -0.625455 2.93101 0
M  V30 4520 H 426.191 -0.194198 1.60731 0
M  V30 4521 H 428.183 -3.13008 2.56531 0
M  V30 4522 H 426.753 -2.68512 1.60063 0
M  V30 4523 H 425.973 -1.35629 3.70133 0
M  V30 4524 H 427.261 -2.18208 4.59633 0
M  V30 4525 H 426.659 -4.86493 2.88688 0
M  V30 4526 H 425.216 -5.39949 3.65101 0
M  V30 4527 N 428.649 -1.55105 -0.279332 0
M  V30 4528 C 429.612 -1.86783 -1.32834 0
M  V30 4529 C 430.612 -0.74199 -1.42657 0
M  V30 4530 O 431.802 -1.0102 -1.41918 0
M  V30 4531 C 428.934 -2.06746 -2.71052 0
M  V30 4532 H 430.127 -2.8055 -1.05979 0
M  V30 4533 H 427.68 -1.47499 -0.517087 0
M  V30 4534 H 428.415 -1.15339 -3.03097 0
M  V30 4535 H 428.2 -2.88711 -2.65309 0
M  V30 4536 H 429.69 -2.32549 -3.46858 0
M  V30 4537 N 430.127 0.543554 -1.4793 0
M  V30 4538 C 431.373 1.30201 -1.55485 0
M  V30 4539 C 431.706 1.92925 -0.222201 0
M  V30 4540 O 430.981 1.78586 0.77053 0
M  V30 4541 C 431.264 2.40174 -2.68307 0
M  V30 4542 C 431.117 1.8223 -4.11233 0
M  V30 4543 C 432.436 3.42024 -2.76961 0
M  V30 4544 H 429.555 0.472036 -0.565996 0
M  V30 4545 H 432.197 0.606914 -1.80046 0
M  V30 4546 H 430.347 2.99463 -2.47495 0
M  V30 4547 H 432.019 1.27096 -4.43446 0
M  V30 4548 H 430.262 1.12832 -4.18869 0
M  V30 4549 H 430.933 2.61793 -4.85972 0
M  V30 4550 H 433.409 2.92672 -2.95774 0
M  V30 4551 H 432.285 4.16383 -3.57654 0
M  V30 4552 H 432.546 4.0173 -1.84568 0
M  V30 4553 N 431.605 1.3629 0.791371 0
M  V30 4554 C 432.515 1.32606 1.93527 0
M  V30 4555 C 433.531 0.228541 1.72493 0
M  V30 4556 O 434.707 0.460571 1.96063 0
M  V30 4557 C 431.772 1.11271 3.28359 0
M  V30 4558 C 430.833 2.3048 3.62185 0
M  V30 4559 C 430.066 2.10154 4.90583 0
M  V30 4560 O 430.289 1.07572 5.60165 0
M  V30 4561 O 429.223 2.97884 5.23019 0
M  V30 4562 H 433.049 2.28909 1.99585 0
M  V30 4563 H 430.634 1.16818 0.931344 0
M  V30 4564 H 432.516 1.01283 4.09047 0
M  V30 4565 H 431.191 0.180292 3.23198 0
M  V30 4566 H 430.098 2.46036 2.81811 0
M  V30 4567 H 431.431 3.22221 3.72068 0
M  V30 4568 N 433.083 -1.0153 1.20538 0
M  V30 4569 C 434.016 -2.09759 0.898695 0
M  V30 4570 C 434.994 -1.61909 -0.149733 0
M  V30 4571 O 436.178 -1.88486 -0.0230293 0
M  V30 4572 C 433.305 -3.36913 0.347512 0
M  V30 4573 C 432.351 -4.03655 1.37713 0
M  V30 4574 S 433.184 -4.47402 2.94265 0
M  V30 4575 C 434.34 -5.77756 2.40726 0
M  V30 4576 H 434.573 -2.3545 1.81523 0
M  V30 4577 H 432.106 -1.14665 1.03399 0
M  V30 4578 H 434.064 -4.10484 0.0360518 0
M  V30 4579 H 432.725 -3.09291 -0.547546 0
M  V30 4580 H 431.918 -4.9514 0.940872 0
M  V30 4581 H 431.52 -3.36313 1.63614 0
M  V30 4582 H 433.812 -6.52994 1.80569 0
M  V30 4583 H 434.755 -6.2618 3.30612 0
M  V30 4584 H 435.163 -5.34081 1.82806 0
M  V30 4585 N 434.561 -1.01147 -1.20859 0
M  V30 4586 C 435.807 -0.698899 -1.90377 0
M  V30 4587 C 436.14 0.76904 -1.78324 0
M  V30 4588 O 435.415 1.55817 -1.16409 0
M  V30 4589 C 435.698 -1.12878 -3.41951 0
M  V30 4590 C 435.551 -2.65665 -3.62963 0
M  V30 4591 C 436.87 -0.696114 -4.3456 0
M  V30 4592 H 433.989 -0.255372 -0.691342 0
M  V30 4593 H 436.631 -1.25831 -1.42361 0
M  V30 4594 H 434.781 -0.652827 -3.82976 0
M  V30 4595 H 436.453 -3.21074 -3.31224 0
M  V30 4596 H 434.696 -3.06878 -3.06608 0
M  V30 4597 H 435.367 -2.90797 -4.69192 0
M  V30 4598 H 437.843 -1.10521 -4.01154 0
M  V30 4599 H 436.719 -1.025 -5.39245 0
M  V30 4600 H 436.98 0.402465 -4.40264 0
M  V30 4601 N 436.039 1.36541 -0.78704 0
M  V30 4602 C 436.986 2.30082 -0.181901 0
M  V30 4603 C 437.956 1.5186 0.672896 0
M  V30 4604 O 439.141 1.80374 0.622072 0
M  V30 4605 C 436.281 3.3835 0.679197 0
M  V30 4606 C 435.394 4.31565 -0.193882 0
M  V30 4607 C 434.529 5.26915 0.673364 0
M  V30 4608 C 433.568 6.11769 -0.201315 0
M  V30 4609 N 432.705 6.99315 0.624777 0
M  V30 4610 H 437.545 2.81248 -0.985064 0
M  V30 4611 H 435.082 1.38437 -0.497342 0
M  V30 4612 H 437.04 3.99767 1.19341 0
M  V30 4613 H 435.67 2.8851 1.44781 0
M  V30 4614 H 434.722 3.71323 -0.826044 0
M  V30 4615 H 436.034 4.91191 -0.867937 0
M  V30 4616 H 435.188 5.9361 1.25348 0
M  V30 4617 H 433.927 4.67737 1.38105 0
M  V30 4618 H 432.932 5.44039 -0.793849 0
M  V30 4619 H 434.157 6.73022 -0.906568 0
M  V30 4620 H 432.103 6.42648 1.3168 0
M  V30 4621 H 432.02 7.56 0.00835237 0
M  V30 4622 H 433.288 7.70382 1.18879 0
M  V30 4623 N 437.518 0.538854 1.48102 0
M  V30 4624 C 438.448 -0.207654 2.32575 0
M  V30 4625 C 439.429 -0.926559 1.4265 0
M  V30 4626 O 440.614 -0.91061 1.71527 0
M  V30 4627 C 437.744 -1.24957 3.24042 0
M  V30 4628 C 436.698 -0.648263 4.23062 0
M  V30 4629 C 436.024 -1.79348 5.03725 0
M  V30 4630 C 437.324 0.385897 5.20872 0
M  V30 4631 H 439.018 0.497534 2.95237 0
M  V30 4632 H 436.564 0.240715 1.41974 0
M  V30 4633 H 438.517 -1.77983 3.81969 0
M  V30 4634 H 437.241 -1.98446 2.59397 0
M  V30 4635 H 435.9 -0.139452 3.66335 0
M  V30 4636 H 435.548 -2.51696 4.35498 0
M  V30 4637 H 435.248 -1.39702 5.70751 0
M  V30 4638 H 436.772 -2.32735 5.64506 0
M  V30 4639 H 438.186 -0.057607 5.73271 0
M  V30 4640 H 436.583 0.700227 5.96001 0
M  V30 4641 H 437.653 1.28848 4.67468 0
M  V30 4642 N 438.996 -1.55193 0.274407 0
M  V30 4643 C 439.944 -2.23924 -0.629362 0
M  V30 4644 C 440.938 -1.23602 -1.1584 0
M  V30 4645 O 442.144 -1.41535 -1.11211 0
M  V30 4646 H 438.519 -0.718637 -0.221507 0
M  V30 4647 H 440.49 -2.98388 -0.0268322 0
M  V30 4648 C 439.239 -2.97329 -1.80252 0
M  V30 4649 H 438.562 -3.74313 -1.40462 0
M  V30 4650 H 440.002 -3.48743 -2.41152 0
M  V30 4651 C 438.461 -2.0276 -2.69054 0
M  V30 4652 O 438.991 -1.57836 -3.69392 0
M  V30 4653 N 437.197 -1.69275 -2.36208 0
M  V30 4654 H 436.744 -2.06004 -1.54661 0
M  V30 4655 H 436.702 -1.06271 -2.95895 0
M  V30 4656 N 440.474 -0.00167713 -1.576 0
M  V30 4657 C 441.404 0.988091 -2.11563 0
M  V30 4658 C 442.385 1.35736 -1.02517 0
M  V30 4659 O 443.57 1.44082 -1.30208 0
M  V30 4660 C 440.7 2.27941 -2.62031 0
M  V30 4661 C 439.654 2.0517 -3.75619 0
M  V30 4662 C 438.98 3.4033 -4.12407 0
M  V30 4663 C 440.28 1.41294 -5.02825 0
M  V30 4664 H 441.974 0.538771 -2.94513 0
M  V30 4665 H 439.52 0.257712 -1.41675 0
M  V30 4666 H 441.473 2.97539 -2.9841 0
M  V30 4667 H 440.197 2.74989 -1.76205 0
M  V30 4668 H 438.856 1.37998 -3.39635 0
M  V30 4669 H 438.504 3.85085 -3.23603 0
M  V30 4670 H 438.204 3.25909 -4.88935 0
M  V30 4671 H 439.728 4.1124 -4.51347 0
M  V30 4672 H 441.142 2.00851 -5.36965 0
M  V30 4673 H 439.539 1.37356 -5.84169 0
M  V30 4674 H 440.609 0.382362 -4.8339 0
M  V30 4675 N 441.952 1.55251 0.271103 0
M  V30 4676 C 443.18 1.79974 1.02064 0
M  V30 4677 C 443.595 0.574003 1.79863 0
M  V30 4678 O 442.952 -0.456962 1.76686 0
M  V30 4679 C 443.003 3.02603 1.97772 0
M  V30 4680 O 442.724 4.20443 1.23124 0
M  V30 4681 C 444.225 3.39944 2.84522 0
M  V30 4682 H 441.445 0.599489 0.301419 0
M  V30 4683 H 443.989 2.02268 0.301313 0
M  V30 4684 H 442.144 2.8243 2.65165 0
M  V30 4685 H 442.558 4.89783 1.87651 0
M  V30 4686 H 444.032 4.28915 3.47471 0
M  V30 4687 H 444.509 2.59432 3.54389 0
M  V30 4688 H 445.115 3.62383 2.22618 0
M  V30 4689 N 443.43 -0.535701 1.48216 0
M  V30 4690 C 444.36 -1.65014 1.65204 0
M  V30 4691 C 445.341 -1.62554 0.501011 0
M  V30 4692 O 446.526 -1.7984 0.732886 0
M  V30 4693 C 443.656 -3.03616 1.68626 0
M  V30 4694 C 442.61 -3.20932 2.83172 0
M  V30 4695 C 441.936 -4.60537 2.71679 0
M  V30 4696 C 443.236 -3.04249 4.24535 0
M  V30 4697 H 444.93 -1.51053 2.58502 0
M  V30 4698 H 442.476 -0.725262 1.24402 0
M  V30 4699 H 444.429 -3.81446 1.79099 0
M  V30 4700 H 443.153 -3.18587 0.719026 0
M  V30 4701 H 441.812 -2.45517 2.72244 0
M  V30 4702 H 441.46 -4.72336 1.72937 0
M  V30 4703 H 441.16 -4.73069 3.48538 0
M  V30 4704 H 442.684 -5.40475 2.84112 0
M  V30 4705 H 444.098 -3.71877 4.36326 0
M  V30 4706 H 442.495 -3.28278 5.02348 0
M  V30 4707 H 443.565 -2.00739 4.41397 0
M  V30 4708 N 444.908 -1.36708 -0.784132 0
M  V30 4709 C 445.858 -1.2799 -1.88686 0
M  V30 4710 C 446.842 -0.170282 -1.59996 0
M  V30 4711 O 448.034 -0.403571 -1.72338 0
M  V30 4712 C 445.163 -1.07674 -3.25977 0
M  V30 4713 C 444.249 -2.23127 -3.60659 0
M  V30 4714 N 444.64 -3.48467 -3.66612 0
M  V30 4715 C 442.938 -2.15009 -3.90752 0
M  V30 4716 C 443.639 -4.24525 -3.97685 0
M  V30 4717 N 442.615 -3.53524 -4.12943 0
M  V30 4718 H 446.417 -2.22927 -1.91522 0
M  V30 4719 H 443.931 -1.29503 -0.979933 0
M  V30 4720 H 445.928 -0.995151 -4.04849 0
M  V30 4721 H 444.588 -0.13643 -3.24413 0
M  V30 4722 H 445.599 -3.82534 -3.49125 0
M  V30 4723 H 442.276 -1.28963 -3.97083 0
M  V30 4724 H 443.666 -5.32944 -4.0917 0
M  V30 4725 N 446.386 1.0089 -1.21074 0
M  V30 4726 C 447.318 2.09737 -0.924291 0
M  V30 4727 C 448.331 1.62546 0.0909809 0
M  V30 4728 O 449.52 1.77942 -0.141021 0
M  V30 4729 C 446.62 3.36922 -0.36559 0
M  V30 4730 C 445.793 4.13216 -1.43426 0
M  V30 4731 C 444.852 5.18696 -0.885496 0
M  V30 4732 O 443.878 5.47176 -1.56801 0
M  V30 4733 N 445.08 5.79718 0.301227 0
M  V30 4734 H 447.845 2.34895 -1.8613 0
M  V30 4735 H 445.406 1.17341 -1.11546 0
M  V30 4736 H 447.398 4.04697 0.0158407 0
M  V30 4737 H 445.968 3.08952 0.476149 0
M  V30 4738 H 445.188 3.40301 -1.9897 0
M  V30 4739 H 446.476 4.60967 -2.15376 0
M  V30 4740 H 445.874 5.58926 0.872849 0
M  V30 4741 H 444.431 6.48804 0.624211 0
M  V30 4742 N 447.864 1.01787 1.20321 0
M  V30 4743 C 449.089 0.727009 1.9424 0
M  V30 4744 C 449.514 -0.706179 1.74341 0
M  V30 4745 O 448.872 -1.48609 1.03852 0
M  V30 4746 C 448.92 1.06958 3.44372 0
M  V30 4747 O 448.024 0.181983 4.11998 0
M  V30 4748 H 447.365 0.269626 0.606793 0
M  V30 4749 H 449.895 1.36158 1.52716 0
M  V30 4750 H 449.905 1.02182 3.94997 0
M  V30 4751 H 448.58 2.11378 3.58179 0
M  V30 4752 H 447.157 0.287378 3.71791 0
M  V30 4753 N 449.342 -1.36122 0.79427 0
M  V30 4754 C 450.305 -2.28309 0.201889 0
M  V30 4755 C 451.305 -1.49041 -0.603603 0
M  V30 4756 O 452.495 -1.68964 -0.423888 0
M  V30 4757 C 449.627 -3.3321 -0.719978 0
M  V30 4758 H 450.82 -2.82208 1.01481 0
M  V30 4759 H 448.373 -1.45768 0.564037 0
M  V30 4760 H 449.108 -2.84475 -1.55706 0
M  V30 4761 H 448.893 -3.91835 -0.144266 0
M  V30 4762 H 450.383 -4.02044 -1.12916 0
M  V30 4763 N 450.82 -0.546701 -1.47814 0
M  V30 4764 C 451.752 0.244196 -2.27895 0
M  V30 4765 C 452.765 0.88911 -1.36377 0
M  V30 4766 O 453.954 0.764733 -1.61289 0
M  V30 4767 C 451.054 1.36252 -3.10304 0
M  V30 4768 C 450.227 0.816382 -4.29714 0
M  V30 4769 C 449.286 1.81789 -4.93801 0
M  V30 4770 O 448.312 1.36818 -5.52512 0
M  V30 4771 N 449.514 3.15085 -4.87547 0
M  V30 4772 H 452.279 -0.442694 -2.96412 0
M  V30 4773 H 449.84 -0.382095 -1.57327 0
M  V30 4774 H 451.832 2.03102 -3.50045 0
M  V30 4775 H 450.402 1.95281 -2.44099 0
M  V30 4776 H 449.622 -0.0285981 -3.9419 0
M  V30 4777 H 450.91 0.430668 -5.06974 0
M  V30 4778 H 450.308 3.54275 -4.41028 0
M  V30 4779 H 448.865 3.77522 -5.31339 0
M  V30 4780 N 452.299 1.55045 -0.282633 0
M  V30 4781 C 453.229 2.2579 0.595066 0
M  V30 4782 C 454.21 1.25074 1.15284 0
M  V30 4783 O 455.395 1.5381 1.18559 0
M  V30 4784 C 452.525 2.98472 1.77572 0
M  V30 4785 C 451.479 4.0618 1.34914 0
M  V30 4786 C 450.805 4.66477 2.6135 0
M  V30 4787 C 452.105 5.1996 0.493821 0
M  V30 4788 H 453.799 2.994 0.00505653 0
M  V30 4789 H 451.345 1.44 0.000992001 0
M  V30 4790 H 453.298 3.46677 2.39568 0
M  V30 4791 H 452.022 2.2241 2.39168 0
M  V30 4792 H 450.681 3.58797 0.752338 0
M  V30 4793 H 450.329 3.87074 3.2122 0
M  V30 4794 H 450.029 5.39207 2.33516 0
M  V30 4795 H 451.553 5.17435 3.24181 0
M  V30 4796 H 452.967 5.64172 1.01898 0
M  V30 4797 H 451.364 5.99299 0.310047 0
M  V30 4798 H 452.434 4.82462 -0.485593 0
M  V30 4799 N 453.777 0.010035 1.57597 0
M  V30 4800 C 455.002 -0.687021 1.95691 0
M  V30 4801 C 455.427 -1.65952 0.885519 0
M  V30 4802 O 454.785 -1.80633 -0.15543 0
M  V30 4803 C 454.833 -1.3864 3.32884 0
M  V30 4804 O 453.937 -2.50115 3.27897 0
M  V30 4805 H 453.278 -0.181989 0.638573 0
M  V30 4806 H 455.808 0.0662122 2.04493 0
M  V30 4807 H 455.818 -1.74754 3.6868 0
M  V30 4808 H 454.493 -0.673411 4.10412 0
M  V30 4809 H 453.07 -2.16253 3.03791 0
M  V30 4810 N 455.255 -1.55392 -0.262866 0
M  V30 4811 C 456.501 -1.76737 -0.99458 0
M  V30 4812 C 456.834 -0.572453 -1.85571 0
M  V30 4813 O 456.109 0.429732 -1.89693 0
M  V30 4814 C 456.392 -3.07824 -1.8686 0
M  V30 4815 C 456.245 -4.3769 -1.03672 0
M  V30 4816 C 457.564 -3.35021 -2.85393 0
M  V30 4817 H 454.683 -0.643005 -0.360157 0
M  V30 4818 H 457.325 -1.88126 -0.266216 0
M  V30 4819 H 455.475 -2.98245 -2.48962 0
M  V30 4820 H 457.147 -4.59238 -0.43563 0
M  V30 4821 H 455.39 -4.32461 -0.340513 0
M  V30 4822 H 456.061 -5.25759 -1.6817 0
M  V30 4823 H 458.537 -3.44458 -2.33426 0
M  V30 4824 H 457.413 -4.27989 -3.43681 0
M  V30 4825 H 457.674 -2.55153 -3.61039 0
M  V30 4826 N 456.733 0.527833 -1.48498 0
M  V30 4827 C 457.663 1.64136 -1.66077 0
M  V30 4828 C 458.644 1.62286 -0.509625 0
M  V30 4829 O 459.829 1.79449 -0.742413 0
M  V30 4830 C 456.959 3.02717 -1.70234 0
M  V30 4831 C 455.913 3.19426 -2.8487 0
M  V30 4832 C 455.239 4.5909 -2.74118 0
M  V30 4833 C 456.539 3.01993 -4.26142 0
M  V30 4834 H 458.233 1.4968 -2.593 0
M  V30 4835 H 455.779 0.718654 -1.24785 0
M  V30 4836 H 457.732 3.80491 -1.8112 0
M  V30 4837 H 456.456 3.18201 -0.735911 0
M  V30 4838 H 455.115 2.4407 -2.73542 0
M  V30 4839 H 454.763 4.71413 -1.7544 0
M  V30 4840 H 454.463 4.71214 -3.51042 0
M  V30 4841 H 455.987 5.3896 -2.86974 0
M  V30 4842 H 457.401 3.69558 -4.38292 0
M  V30 4843 H 455.798 3.2561 -5.04082 0
M  V30 4844 H 456.868 1.98396 -4.42456 0
M  V30 4845 N 458.211 1.37122 0.776871 0
M  V30 4846 C 459.141 1.35164 1.90402 0
M  V30 4847 C 460.122 0.221069 1.68657 0
M  V30 4848 O 461.307 0.420642 1.8959 0
M  V30 4849 C 458.437 1.15274 3.27611 0
M  V30 4850 C 457.391 2.25289 3.63908 0
M  V30 4851 C 456.717 1.90527 4.99603 0
M  V30 4852 C 458.017 3.67446 3.71188 0
M  V30 4853 H 459.711 2.29482 1.92297 0
M  V30 4854 H 457.257 1.10465 0.923773 0
M  V30 4855 H 459.21 1.12536 4.06096 0
M  V30 4856 H 457.934 0.174102 3.26136 0
M  V30 4857 H 456.593 2.27174 2.87728 0
M  V30 4858 H 456.241 0.91206 4.94662 0
M  V30 4859 H 455.941 2.64193 5.24858 0
M  V30 4860 H 457.465 1.89367 5.80493 0
M  V30 4861 H 458.879 3.67719 4.39836 0
M  V30 4862 H 457.276 4.40123 4.07936 0
M  V30 4863 H 458.346 4.01443 2.71977 0
M  V30 4864 N 459.689 -1.00246 1.21608 0
M  V30 4865 C 460.917 -1.77631 1.06089 0
M  V30 4866 C 461.332 -1.84746 -0.38916 0
M  V30 4867 O 460.689 -1.31068 -1.26994 0
M  V30 4868 C 460.74 -3.21415 1.65453 0
M  V30 4869 O 460.461 -3.14703 3.04785 0
M  V30 4870 C 461.962 -4.15289 1.55079 0
M  V30 4871 H 459.182 -0.558162 0.37242 0
M  V30 4872 H 461.726 -1.26093 1.60999 0
M  V30 4873 H 459.881 -3.70053 1.14629 0
M  V30 4874 H 460.295 -4.05056 3.33212 0
M  V30 4875 H 461.769 -5.13965 2.01355 0
M  V30 4876 H 462.246 -4.36279 0.505665 0
M  V30 4877 H 462.852 -3.72543 2.05163 0
M  V30 4878 N 461.167 -1.02423 -1.1978 0
M  V30 4879 C 462.413 -0.719051 -1.89625 0
M  V30 4880 C 462.746 0.750083 -1.7913 0
M  V30 4881 O 462.021 1.54574 -1.18056 0
M  V30 4882 C 462.304 -1.16499 -3.40735 0
M  V30 4883 C 462.157 -2.695 -3.60125 0
M  V30 4884 C 463.476 -0.742166 -4.33797 0
M  V30 4885 H 460.595 -0.26269 -0.688595 0
M  V30 4886 H 463.237 -1.27333 -1.41018 0
M  V30 4887 H 461.387 -0.69341 -3.82262 0
M  V30 4888 H 463.059 -3.24569 -3.278 0
M  V30 4889 H 461.302 -3.10113 -3.03336 0
M  V30 4890 H 461.973 -2.95757 -4.66081 0
M  V30 4891 H 464.449 -1.1477 -3.99959 0
M  V30 4892 H 463.325 -1.08213 -5.38127 0
M  V30 4893 H 463.586 0.355747 -4.40666 0
M  V30 4894 N 462.645 1.35699 -0.801477 0
M  V30 4895 C 463.555 2.33661 -0.209691 0
M  V30 4896 C 464.571 1.6162 0.644591 0
M  V30 4897 O 465.747 1.93529 0.557545 0
M  V30 4898 C 462.812 3.40816 0.636033 0
M  V30 4899 C 461.873 4.28639 -0.238147 0
M  V30 4900 C 461.106 5.30676 0.567307 0
M  V30 4901 O 461.329 5.41174 1.8024 0
M  V30 4902 O 460.263 6.01887 -0.0391336 0
M  V30 4903 H 464.089 2.8606 -1.01996 0
M  V30 4904 H 461.674 1.38379 -0.563164 0
M  V30 4905 H 463.556 4.06301 1.11791 0
M  V30 4906 H 462.231 2.90696 1.42399 0
M  V30 4907 H 461.138 3.66152 -0.767044 0
M  V30 4908 H 462.471 4.82143 -0.989915 0
M  V30 4909 N 464.123 0.554532 1.47522 0
M  V30 4910 C 465.033 -0.197865 2.33764 0
M  V30 4911 C 466.049 -0.914576 1.48025 0
M  V30 4912 O 467.225 -0.884067 1.80959 0
M  V30 4913 C 464.29 -1.21628 3.24665 0
M  V30 4914 C 463.351 -0.507283 4.26292 0
M  V30 4915 C 462.584 -1.47718 5.1285 0
M  V30 4916 O 462.807 -2.7118 5.01814 0
M  V30 4917 O 461.741 -1.00313 5.93482 0
M  V30 4918 H 465.567 0.50949 2.99396 0
M  V30 4919 H 463.152 0.315176 1.46038 0
M  V30 4920 H 465.034 -1.80421 3.80823 0
M  V30 4921 H 463.709 -1.9056 2.61665 0
M  V30 4922 H 462.616 0.121778 3.73902 0
M  V30 4923 H 463.949 0.140544 4.91999 0
M  V30 4924 N 465.601 -1.54893 0.290851 0
M  V30 4925 C 466.533 -2.20564 -0.623236 0
M  V30 4926 C 467.546 -1.19519 -1.1054 0
M  V30 4927 O 468.735 -1.46165 -1.02459 0
M  V30 4928 C 465.835 -2.83033 -1.86401 0
M  V30 4929 C 465.008 -4.09916 -1.52604 0
M  V30 4930 C 464.067 -4.56284 -2.62091 0
M  V30 4931 O 463.093 -5.2171 -2.27612 0
M  V30 4932 N 464.295 -4.27746 -3.92446 0
M  V30 4933 H 467.06 -2.99638 -0.0610915 0
M  V30 4934 H 464.621 -1.61508 0.112615 0
M  V30 4935 H 466.613 -3.1099 -2.58973 0
M  V30 4936 H 465.183 -2.0786 -2.33481 0
M  V30 4937 H 464.403 -3.89078 -0.633424 0
M  V30 4938 H 465.691 -4.92554 -1.27547 0
M  V30 4939 H 465.089 -3.7531 -4.23272 0
M  V30 4940 H 463.646 -4.60437 -4.61347 0
M  V30 4941 N 467.08 -0.0183926 -1.57589 0
M  V30 4942 C 468.357 0.700621 -1.82622 0
M  V30 4943 C 468.737 1.90951 -0.90005 0
M  V30 4944 O 468.085 2.28452 0.0469145 0
M  V30 4945 C 468.295 1.08899 -3.31575 0
M  V30 4946 C 469.643 1.48514 -3.9778 0
M  V30 4947 O 470.667 1.18227 -3.36007 0
M  V30 4948 O 469.526 2.04903 -5.06633 0
M  V30 4949 H 466.62 0.342743 -0.752633 0
M  V30 4950 H 469.166 -0.0452548 -1.6964 0
M  V30 4951 H 467.938 0.228113 -3.90635 0
M  V30 4952 H 467.561 1.89338 -3.49624 0
M  V30 4953 N 468.558 1.5553 0.254621 0
M  V30 4954 C 469.974 1.4778 0.602753 0
M  V30 4955 C 470.174 0.707047 1.88688 0
M  V30 4956 O 469.23 0.233288 2.5142 0
M  V30 4957 C 470.543 2.92133 0.712648 0
M  V30 4958 C 472.091 3.02458 0.805488 0
M  V30 4959 C 472.566 4.48102 0.947009 0
M  V30 4960 N 474.057 4.52008 1.01207 0
M  V30 4961 C 474.792 5.61939 1.1407 0
M  V30 4962 N 474.288 6.81697 1.23536 0
M  V30 4963 N 476.081 5.49719 1.17325 0
M  V30 4964 H 468.232 2.04085 -0.588463 0
M  V30 4965 H 470.495 0.926229 -0.202001 0
M  V30 4966 H 470.201 3.51332 -0.160766 0
M  V30 4967 H 470.075 3.42187 1.58707 0
M  V30 4968 H 472.462 2.43344 1.66936 0
M  V30 4969 H 472.543 2.55627 -0.0939266 0
M  V30 4970 H 472.187 5.07824 0.087725 0
M  V30 4971 H 472.117 4.92607 1.86135 0
M  V30 4972 H 474.608 3.65749 0.950577 0
M  V30 4973 H 474.921 7.61228 1.33236 0
M  V30 4974 H 473.266 6.84473 1.20508 0
M  V30 4975 H 476.457 4.55095 1.09573 0
M  V30 4976 H 476.63 6.35432 1.27005 0
M  V30 4977 N 470.036 -0.519951 1.48776 0
M  V30 4978 C 470.983 -1.62352 1.64044 0
M  V30 4979 C 471.953 -1.58945 0.482251 0
M  V30 4980 O 473.138 -1.77219 0.706971 0
M  V30 4981 C 470.278 -3.00579 1.69547 0
M  V30 4982 C 469.391 -3.14145 2.96541 0
M  V30 4983 C 468.526 -4.42991 2.93142 0
M  V30 4984 C 467.565 -4.50122 4.14797 0
M  V30 4985 N 466.702 -5.7037 4.09418 0
M  V30 4986 H 471.542 -1.48643 2.58281 0
M  V30 4987 H 469.079 -0.723516 1.28077 0
M  V30 4988 H 471.037 -3.80671 1.70719 0
M  V30 4989 H 469.667 -3.13036 0.787918 0
M  V30 4990 H 468.719 -2.27239 3.05068 0
M  V30 4991 H 470.031 -3.15275 3.86527 0
M  V30 4992 H 469.185 -5.31385 2.92772 0
M  V30 4993 H 467.924 -4.44398 2.00902 0
M  V30 4994 H 466.929 -3.60133 4.15433 0
M  V30 4995 H 468.154 -4.50445 5.08208 0
M  V30 4996 H 466.1 -5.72655 3.20004 0
M  V30 4997 H 466.017 -5.73036 4.93119 0
M  V30 4998 H 467.285 -6.61023 4.13121 0
M  V30 4999 N 471.514 -1.37532 -0.769588 0
M  V30 5000 C 472.424 -1.35668 -1.91393 0
M  V30 5001 C 473.44 -0.255954 -1.72107 0
M  V30 5002 O 474.616 -0.491704 -1.95305 0
M  V30 5003 C 471.681 -1.16481 -3.26547 0
M  V30 5004 C 470.742 -2.36212 -3.58472 0
M  V30 5005 C 469.975 -2.17932 -4.87177 0
M  V30 5006 O 470.198 -1.1647 -5.58382 0
M  V30 5007 O 469.132 -3.06167 -5.18214 0
M  V30 5008 H 472.958 -2.32055 -1.95918 0
M  V30 5009 H 470.543 -1.18284 -0.912641 0
M  V30 5010 H 472.425 -1.07778 -4.07384 0
M  V30 5011 H 471.1 -0.231687 -3.2287 0
M  V30 5012 H 470.007 -2.50488 -2.77861 0
M  V30 5013 H 471.34 -3.281 -3.66894 0
M  V30 5014 N 472.992 0.995999 -1.22138 0
M  V30 5015 C 474.403 1.54961 -1.04135 0
M  V30 5016 C 474.754 1.92159 0.396147 0
M  V30 5017 O 473.879 1.74435 1.28069 0
M  V30 5018 C 474.474 2.81581 -1.88408 0
M  V30 5019 C 473.033 3.33396 -1.74712 0
M  V30 5020 C 472.18 2.06509 -1.85066 0
M  V30 5021 H 475.131 0.817436 -1.36028 0
M  V30 5022 H 475.152 3.53822 -1.39966 0
M  V30 5023 H 474.664 2.54476 -2.93025 0
M  V30 5024 H 472.765 3.65416 -0.728159 0
M  V30 5025 H 472.878 4.04208 -2.57202 0
M  V30 5026 H 471.242 2.19925 -1.28472 0
M  V30 5027 H 472.025 1.81804 -2.91208 0
M  V30 5028 N 474.47 1.03057 1.19235 0
M  V30 5029 C 475.42 0.583386 2.2041 0
M  V30 5030 C 476.404 -0.368776 1.56617 0
M  V30 5031 O 477.596 -0.189471 1.75983 0
M  V30 5032 C 474.725 -0.0626534 3.43243 0
M  V30 5033 C 473.811 0.91205 4.14177 0
M  V30 5034 N 474.202 2.07514 4.61272 0
M  V30 5035 C 472.5 0.735859 4.39888 0
M  V30 5036 C 473.201 2.69003 5.15764 0
M  V30 5037 N 472.177 1.96954 5.06666 0
M  V30 5038 H 475.979 1.46988 2.54503 0
M  V30 5039 H 473.493 0.897785 1.35328 0
M  V30 5040 H 475.49 -0.400653 4.1497 0
M  V30 5041 H 474.15 -0.944813 3.1065 0
M  V30 5042 H 475.161 2.45448 4.56043 0
M  V30 5043 H 471.838 -0.0970656 4.17387 0
M  V30 5044 H 473.228 3.67514 5.6248 0
M  V30 5045 N 475.948 -1.35272 0.808662 0
M  V30 5046 C 477.173 -2.03477 0.401475 0
M  V30 5047 C 477.598 -1.60537 -0.980279 0
M  V30 5048 O 476.956 -0.78304 -1.63518 0
M  V30 5049 C 477.004 -3.57181 0.495354 0
M  V30 5050 O 476.108 -4.09474 -0.490397 0
M  V30 5051 H 475.449 -0.642561 0.167366 0
M  V30 5052 H 477.979 -1.72824 1.09512 0
M  V30 5053 H 477.989 -4.06356 0.365912 0
M  V30 5054 H 476.664 -3.87784 1.5032 0
M  V30 5055 H 475.241 -3.71516 -0.321023 0
M  V30 5056 N 477.426 -0.562348 -1.47226 0
M  V30 5057 C 478.651 -0.0432632 -2.07355 0
M  V30 5058 C 479.076 1.24332 -1.41149 0
M  V30 5059 O 478.434 1.74603 -0.488226 0
M  V30 5060 C 478.482 0.130288 -3.60365 0
M  V30 5061 O 477.586 1.19166 -3.94808 0
M  V30 5062 H 476.927 -0.0536334 -0.66183 0
M  V30 5063 H 479.457 -0.779495 -1.89169 0
M  V30 5064 H 479.467 0.342881 -4.06557 0
M  V30 5065 H 478.142 -0.809389 -4.07948 0
M  V30 5066 H 476.719 0.959153 -3.60354 0
M  V30 5067 N 478.904 1.54736 -0.299062 0
M  V30 5068 C 480.181 1.92187 0.363802 0
M  V30 5069 C 480.561 1.22607 1.71845 0
M  V30 5070 O 479.909 0.361141 2.25628 0
M  V30 5071 C 480.119 3.45678 0.480377 0
M  V30 5072 C 481.467 4.17885 0.752147 0
M  V30 5073 O 482.491 3.51702 0.564264 0
M  V30 5074 O 481.35 5.35048 1.11294 0
M  V30 5075 H 478.444 0.801681 0.203066 0
M  V30 5076 H 480.99 1.66115 -0.346978 0
M  V30 5077 H 479.762 3.88443 -0.471999 0
M  V30 5078 H 479.385 3.77779 1.2397 0
M  V30 5079 N 480.382 0.0267497 1.57577 0
M  V30 5080 C 481.61 -0.662661 1.96001 0
M  V30 5081 C 482.025 -1.65799 0.903117 0
M  V30 5082 O 481.382 -1.82135 -0.115317 0
M  V30 5083 C 481.433 -1.37112 3.34488 0
M  V30 5084 O 481.154 -0.415683 4.36123 0
M  V30 5085 C 482.655 -2.15257 3.8753 0
M  V30 5086 H 479.875 -0.18287 0.6456 0
M  V30 5087 H 482.419 0.0858116 2.0432 0
M  V30 5088 H 480.574 -2.07101 3.27395 0
M  V30 5089 H 480.988 -0.918496 5.16395 0
M  V30 5090 H 482.462 -2.60285 4.86781 0
M  V30 5091 H 482.939 -2.99063 3.21649 0
M  V30 5092 H 483.545 -1.50231 3.97883 0
M  V30 5093 N 481.861 -1.55662 -0.24637 0
M  V30 5094 C 482.771 -1.93495 -1.32653 0
M  V30 5095 C 483.787 -0.835462 -1.5263 0
M  V30 5096 O 484.963 -1.1369 -1.66242 0
M  V30 5097 C 482.028 -2.22242 -2.66101 0
M  V30 5098 C 481.089 -3.45625 -2.54641 0
M  V30 5099 C 480.322 -3.72991 -3.81724 0
M  V30 5100 O 480.545 -3.02421 -4.8363 0
M  V30 5101 O 479.479 -4.66515 -3.80325 0
M  V30 5102 H 483.305 -2.85498 -1.03559 0
M  V30 5103 H 480.89 -1.42551 -0.44717 0
M  V30 5104 H 482.772 -2.42037 -3.44958 0
M  V30 5105 H 481.447 -1.33417 -2.94926 0
M  V30 5106 H 480.354 -3.31136 -1.74067 0
M  V30 5107 H 481.687 -4.34754 -2.3076 0
M  V30 5108 N 483.339 0.512053 -1.4905 0
M  V30 5109 C 484.269 1.62365 -1.67809 0
M  V30 5110 C 485.25 1.61737 -0.526809 0
M  V30 5111 O 486.435 1.78651 -0.761404 0
M  V30 5112 C 483.565 3.00895 -1.73435 0
M  V30 5113 C 482.519 3.16387 -2.88242 0
M  V30 5114 C 481.845 4.56157 -2.78971 0
M  V30 5115 C 483.145 2.97457 -4.29321 0
M  V30 5116 H 484.839 1.46921 -2.60873 0
M  V30 5117 H 482.385 0.705379 -1.2554 0
M  V30 5118 H 484.338 3.78549 -1.85145 0
M  V30 5119 H 483.062 3.17403 -0.769619 0
M  V30 5120 H 481.721 2.41155 -2.76116 0
M  V30 5121 H 481.369 4.69525 -1.8043 0
M  V30 5122 H 481.069 4.67465 -3.5602 0
M  V30 5123 H 482.593 5.35886 -2.92675 0
M  V30 5124 H 484.007 3.64888 -4.42187 0
M  V30 5125 H 482.404 3.20245 -5.07507 0
M  V30 5126 H 483.474 1.93692 -4.44535 0
M  V30 5127 N 484.817 1.37938 0.762283 0
M  V30 5128 C 486.228 1.30094 1.33912 0
M  V30 5129 C 486.579 -0.0472026 1.96143 0
M  V30 5130 O 485.704 -0.94917 1.94473 0
M  V30 5131 C 486.299 2.35592 2.43478 0
M  V30 5132 C 484.858 2.31353 2.96905 0
M  V30 5133 C 484.005 2.18919 1.70205 0
M  V30 5134 H 486.956 1.48423 0.561816 0
M  V30 5135 H 486.977 2.00806 3.23199 0
M  V30 5136 H 486.489 3.33701 1.98155 0
M  V30 5137 H 484.59 1.36799 3.46579 0
M  V30 5138 H 484.703 3.25147 3.51875 0
M  V30 5139 H 483.067 1.65624 1.93496 0
M  V30 5140 H 483.85 3.18956 1.26973 0
M  V30 5141 N 486.295 -0.989507 1.22664 0
M  V30 5142 C 487.242 -2.08024 0.999733 0
M  V30 5143 C 488.212 -1.65909 -0.0797047 0
M  V30 5144 O 489.397 -1.90669 0.0705715 0
M  V30 5145 C 486.537 -3.40067 0.587234 0
M  V30 5146 C 485.65 -3.95505 1.73781 0
M  V30 5147 C 484.785 -5.15722 1.27297 0
M  V30 5148 C 483.824 -5.63305 2.39488 0
M  V30 5149 N 482.961 -6.74758 1.94026 0
M  V30 5150 H 487.801 -2.26768 1.9334 0
M  V30 5151 H 485.338 -1.11171 0.963297 0
M  V30 5152 H 487.296 -4.15899 0.329227 0
M  V30 5153 H 485.926 -3.21314 -0.309426 0
M  V30 5154 H 484.978 -3.16513 2.11006 0
M  V30 5155 H 486.29 -4.26797 2.58158 0
M  V30 5156 H 485.444 -5.98854 0.972546 0
M  V30 5157 H 484.183 -4.86061 0.399445 0
M  V30 5158 H 483.188 -4.78759 2.70315 0
M  V30 5159 H 484.413 -5.94988 3.27362 0
M  V30 5160 H 482.359 -6.46874 1.09041 0
M  V30 5161 H 482.276 -7.05386 2.71968 0
M  V30 5162 H 483.544 -7.61387 1.67062 0
M  V30 5163 N 487.773 -1.03688 -1.18687 0
M  V30 5164 C 489.05 -0.652397 -1.84399 0
M  V30 5165 C 489.43 0.868386 -1.92412 0
M  V30 5166 O 488.778 1.76832 -1.44716 0
M  V30 5167 C 488.988 -1.3238 -3.22919 0
M  V30 5168 C 490.336 -1.45216 -3.98996 0
M  V30 5169 O 491.36 -1.2816 -3.32345 0
M  V30 5170 O 490.219 -1.72975 -5.18403 0
M  V30 5171 H 487.313 -0.227793 -0.795009 0
M  V30 5172 H 489.859 -1.13553 -1.2611 0
M  V30 5173 H 488.631 -2.36202 -3.11968 0
M  V30 5174 H 488.254 -0.829039 -3.88861 0
M  V30 5175 N 489.251 1.34841 -0.815825 0
M  V30 5176 C 490.198 2.29644 -0.230664 0
M  V30 5177 C 491.168 1.53253 0.640533 0
M  V30 5178 O 492.353 1.81653 0.583672 0
M  V30 5179 C 489.493 3.39715 0.607275 0
M  V30 5180 C 488.606 4.31056 -0.28538 0
M  V30 5181 C 487.741 5.28225 0.561446 0
M  V30 5182 C 486.78 6.11204 -0.331035 0
M  V30 5183 N 485.917 7.00483 0.476302 0
M  V30 5184 H 490.757 2.79095 -1.0445 0
M  V30 5185 H 488.294 1.37351 -0.526595 0
M  V30 5186 H 490.252 4.02208 1.10835 0
M  V30 5187 H 488.882 2.91517 1.38629 0
M  V30 5188 H 487.934 3.69487 -0.904621 0
M  V30 5189 H 489.246 4.89239 -0.97193 0
M  V30 5190 H 488.4 5.96135 1.12728 0
M  V30 5191 H 487.139 4.70562 1.28153 0
M  V30 5192 H 486.144 5.42232 -0.909069 0
M  V30 5193 H 487.369 6.70947 -1.04912 0
M  V30 5194 H 485.315 6.45296 1.18019 0
M  V30 5195 H 485.232 7.55847 -0.152008 0
M  V30 5196 H 486.5 7.7273 1.02512 0
M  V30 5197 N 490.729 0.570148 1.46925 0
M  V30 5198 C 491.659 -0.158274 2.32963 0
M  V30 5199 C 492.64 -0.896093 1.44583 0
M  V30 5200 O 493.825 -0.874022 1.7342 0
M  V30 5201 C 490.955 -1.18055 3.26619 0
M  V30 5202 C 489.909 -0.558379 4.24342 0
M  V30 5203 C 489.235 -1.68623 5.07415 0
M  V30 5204 C 490.535 0.496295 5.19937 0
M  V30 5205 H 492.229 0.560046 2.94115 0
M  V30 5206 H 489.775 0.270775 1.41431 0
M  V30 5207 H 491.728 -1.69841 3.85658 0
M  V30 5208 H 490.452 -1.92899 2.63548 0
M  V30 5209 H 489.111 -0.0617157 3.66548 0
M  V30 5210 H 488.759 -2.42402 4.40738 0
M  V30 5211 H 488.459 -1.27564 5.73586 0
M  V30 5212 H 489.983 -2.20709 5.69315 0
M  V30 5213 H 491.397 0.0640052 5.73264 0
M  V30 5214 H 489.794 0.82649 5.94381 0
M  V30 5215 H 490.864 1.38735 4.6463 0
M  V30 5216 N 492.207 -1.54576 0.307264 0
M  V30 5217 C 493.432 -2.05139 -0.305379 0
M  V30 5218 C 493.857 -1.18278 -1.46259 0
M  V30 5219 O 493.215 -0.188243 -1.8032 0
M  V30 5220 C 493.263 -3.53066 -0.733283 0
M  V30 5221 O 492.367 -3.69206 -1.83741 0
M  V30 5222 H 491.708 -0.661444 -0.0582105 0
M  V30 5223 H 494.238 -1.99569 0.450931 0
M  V30 5224 H 494.248 -3.95034 -1.02039 0
M  V30 5225 H 492.923 -4.15746 0.113198 0
M  V30 5226 H 491.5 -3.39143 -1.55037 0
M  V30 5227 N 493.685 -0.035106 -1.57561 0
M  V30 5228 C 494.91 0.655802 -1.96759 0
M  V30 5229 C 495.335 1.64523 -0.911809 0
M  V30 5230 O 494.693 1.80857 0.126673 0
M  V30 5231 C 494.741 1.33326 -3.35047 0
M  V30 5232 O 493.845 2.44866 -3.31835 0
M  V30 5233 H 493.186 0.171807 -0.641388 0
M  V30 5234 H 495.716 -0.0987369 -2.04362 0
M  V30 5235 H 495.726 1.68867 -3.71413 0
M  V30 5236 H 494.401 0.608033 -4.11431 0
M  V30 5237 H 492.978 2.11392 -3.07193 0
M  V30 5238 N 495.163 1.55791 0.238111 0
M  V30 5239 C 496.126 1.90239 1.27835 0
M  V30 5240 C 497.126 0.779552 1.4064 0
M  V30 5241 O 498.316 1.04747 1.3919 0
M  V30 5242 C 495.448 2.13859 2.65475 0
M  V30 5243 H 496.641 2.83262 0.985034 0
M  V30 5244 H 494.194 1.48818 0.477799 0
M  V30 5245 H 494.929 1.23334 2.99932 0
M  V30 5246 H 494.714 2.95643 2.57561 0
M  V30 5247 H 496.204 2.41664 3.40571 0
M  V30 5248 N 496.642 -0.504142 1.49319 0
M  V30 5249 C 497.919 -1.26548 1.49147 0
M  V30 5250 C 498.299 -2.09977 0.21744 0
M  V30 5251 O 497.647 -2.14028 -0.800269 0
M  V30 5252 C 497.857 -2.12489 2.76857 0
M  V30 5253 C 499.205 -2.7178 3.26222 0
M  V30 5254 O 500.229 -2.22758 2.77952 0
M  V30 5255 O 499.088 -3.61015 4.10281 0
M  V30 5256 H 496.182 -0.572495 0.596806 0
M  V30 5257 H 498.728 -0.51867 1.61579 0
M  V30 5258 H 497.5 -1.50796 3.61077 0
M  V30 5259 H 497.123 -2.94368 2.6727 0
M  V30 5260 N 498.12 -1.38341 -0.754957 0
M  V30 5261 C 499.397 -1.24995 -1.50451 0
M  V30 5262 C 499.777 0.149244 -2.10572 0
M  V30 5263 O 499.125 1.15861 -1.96948 0
M  V30 5264 C 499.335 -2.35904 -2.57197 0
M  V30 5265 C 500.683 -2.74262 -3.24138 0
M  V30 5266 O 501.707 -2.35205 -2.67501 0
M  V30 5267 O 500.566 -3.4161 -4.26574 0
M  V30 5268 H 497.66 -0.48872 -0.667144 0
M  V30 5269 H 500.206 -1.50165 -0.790486 0
M  V30 5270 H 498.978 -3.2953 -2.11011 0
M  V30 5271 H 498.601 -2.12291 -3.36182 0
M  V30 5272 N 499.598 0.982988 -1.23187 0
M  V30 5273 C 500.548 2.05962 -0.977942 0
M  V30 5274 C 501.532 1.60725 0.0751148 0
M  V30 5275 O 502.724 1.76471 -0.136683 0
M  V30 5276 C 499.853 3.38564 -0.568276 0
M  V30 5277 C 498.939 3.90407 -1.6566 0
M  V30 5278 N 499.33 4.15359 -2.88635 0
M  V30 5279 C 497.628 4.18915 -1.53058 0
M  V30 5280 C 498.329 4.57642 -3.5908 0
M  V30 5281 N 497.305 4.6192 -2.86584 0
M  V30 5282 H 501.107 2.23208 -1.91195 0
M  V30 5283 H 498.621 1.16555 -1.13087 0
M  V30 5284 H 500.618 4.15276 -0.36764 0
M  V30 5285 H 499.278 3.22712 0.358713 0
M  V30 5286 H 500.289 4.03258 -3.24966 0
M  V30 5287 H 496.966 4.12081 -0.670506 0
M  V30 5288 H 498.356 4.85488 -4.6449 0
M  V30 5289 N 501.076 1.04316 1.18135 0
M  V30 5290 C 502.492 0.762858 1.40188 0
M  V30 5291 C 502.692 -0.646547 1.90846 0
M  V30 5292 O 501.748 -1.41036 2.0944 0
M  V30 5293 C 503.061 1.81106 2.40044 0
M  V30 5294 C 504.609 1.83226 2.53766 0
M  V30 5295 C 505.084 2.87044 3.56889 0
M  V30 5296 N 506.575 2.85951 3.64398 0
M  V30 5297 C 507.31 3.62932 4.43923 0
M  V30 5298 N 506.806 4.49672 5.27036 0
M  V30 5299 N 508.599 3.51411 4.38711 0
M  V30 5300 H 500.75 1.95264 0.835805 0
M  V30 5301 H 503.013 0.845017 0.429709 0
M  V30 5302 H 502.719 2.82214 2.09876 0
M  V30 5303 H 502.593 1.64529 3.39426 0
M  V30 5304 H 504.98 0.827869 2.8325 0
M  V30 5305 H 505.061 2.03879 1.54489 0
M  V30 5306 H 504.705 3.87663 3.28145 0
M  V30 5307 H 504.635 2.63645 4.5585 0
M  V30 5308 H 507.126 2.23051 3.05052 0
M  V30 5309 H 507.439 5.05116 5.84874 0
M  V30 5310 H 505.784 4.53738 5.26447 0
M  V30 5311 H 508.975 2.83047 3.72829 0
M  V30 5312 H 509.148 4.11654 5.00445 0
M  V30 5313 N 502.554 -1.34406 0.822964 0
M  V30 5314 C 503.8 -1.98578 0.411666 0
M  V30 5315 C 504.133 -1.65093 -1.02264 0
M  V30 5316 O 503.408 -0.92258 -1.71227 0
M  V30 5317 C 503.691 -3.54823 0.614235 0
M  V30 5318 C 503.544 -3.9805 2.09466 0
M  V30 5319 C 504.863 -4.40071 0.050221 0
M  V30 5320 H 501.982 -0.721355 0.151047 0
M  V30 5321 H 504.624 -1.59301 1.03554 0
M  V30 5322 H 502.774 -3.88411 0.0831774 0
M  V30 5323 H 504.446 -3.74795 2.68936 0
M  V30 5324 H 502.689 -3.4836 2.5851 0
M  V30 5325 H 503.36 -5.06819 2.18721 0
M  V30 5326 H 505.836 -4.13037 0.503953 0
M  V30 5327 H 504.712 -5.48452 0.221759 0
M  V30 5328 H 504.973 -4.29576 -1.04482 0
M  V30 5329 N 504.032 -0.577932 -1.46621 0
M  V30 5330 C 504.98 0.170882 -2.31971 0
M  V30 5331 C 505.974 0.889086 -1.44193 0
M  V30 5332 O 507.18 0.808017 -1.60845 0
M  V30 5333 H 503.555 0.0739763 -0.748353 0
M  V30 5334 H 505.526 -0.567856 -2.92947 0
M  V30 5335 C 504.275 1.17438 -3.27267 0
M  V30 5336 H 503.598 0.63116 -3.94787 0
M  V30 5337 H 505.038 1.66882 -3.89778 0
M  V30 5338 C 503.497 2.23292 -2.52274 0
M  V30 5339 O 504.027 3.30567 -2.28229 0
M  V30 5340 N 502.233 1.97772 -2.12919 0
M  V30 5341 H 501.78 1.10545 -2.32675 0
M  V30 5342 H 501.738 2.68809 -1.63062 0
M  V30 5343 N 505.51 1.54411 -0.315457 0
M  V30 5344 C 506.735 2.05299 0.294496 0
M  V30 5345 C 507.16 1.19052 1.4563 0
M  V30 5346 O 506.518 0.197804 1.80218 0
M  V30 5347 C 506.566 3.5345 0.714549 0
M  V30 5348 O 505.67 3.70175 1.81781 0
M  V30 5349 H 505.011 0.661743 0.0547019 0
M  V30 5350 H 507.541 1.99327 -0.461508 0
M  V30 5351 H 507.551 3.9557 0.999426 0
M  V30 5352 H 506.226 4.1568 -0.135244 0
M  V30 5353 H 504.803 3.3996 1.53236 0
M  V30 5354 N 506.988 0.0434614 1.5754 0
M  V30 5355 C 508.236 -0.630786 1.92004 0
M  V30 5356 C 508.557 -1.71836 0.921807 0
M  V30 5357 O 507.827 -1.9587 -0.034522 0
M  V30 5358 H 506.407 -0.235988 0.708745 0
M  V30 5359 H 509.069 0.0946462 1.9467 0
M  V30 5360 H 508.165 -1.07434 2.93026 0
M  V30 5361 N 508.466 -1.55915 -0.229846 0
M  V30 5362 C 509.713 -1.78542 -0.955452 0
M  V30 5363 C 510.041 -0.610785 -1.84661 0
M  V30 5364 O 509.296 0.405213 -1.91459 0
M  V30 5365 C 509.595 -3.06845 -1.8325 0
M  V30 5366 C 509.261 -4.37395 -1.09528 0
M  V30 5367 C 507.923 -4.72868 -0.891598 0
M  V30 5368 C 510.275 -5.18029 -0.574046 0
M  V30 5369 C 507.603 -5.86496 -0.154655 0
M  V30 5370 C 509.955 -6.32423 0.149513 0
M  V30 5371 C 508.619 -6.66504 0.364519 0
M  V30 5372 H 507.889 -0.653333 -0.349625 0
M  V30 5373 H 510.536 -1.90183 -0.224235 0
M  V30 5374 H 508.841 -2.90291 -2.63132 0
M  V30 5375 H 510.538 -3.21553 -2.39592 0
M  V30 5376 H 507.128 -4.09538 -1.26399 0
M  V30 5377 H 511.312 -4.91066 -0.718899 0
M  V30 5378 H 506.568 -6.11396 0.0222356 0
M  V30 5379 H 510.742 -6.94137 0.560947 0
M  V30 5380 H 508.369 -7.54397 0.937495 0
M  V30 5381 N 509.944 0.496216 -1.49584 0
M  V30 5382 C 511.192 1.24756 -1.58998 0
M  V30 5383 C 511.513 1.92968 -0.280775 0
M  V30 5384 O 510.783 1.82959 0.700198 0
M  V30 5385 H 509.363 0.463471 -0.585836 0
M  V30 5386 H 512.025 0.574678 -1.86235 0
M  V30 5387 H 511.121 2.00895 -2.38847 0
M  V30 5388 N 511.423 1.38739 0.74761 0
M  V30 5389 C 512.839 1.20067 1.05148 0
M  V30 5390 C 513.039 0.0534835 2.01429 0
M  V30 5391 O 512.095 -0.59886 2.45296 0
M  V30 5392 C 513.408 2.52957 1.62584 0
M  V30 5393 C 514.956 2.59692 1.74726 0
M  V30 5394 C 515.431 3.92772 2.35573 0
M  V30 5395 N 516.922 3.94343 2.42997 0
M  V30 5396 C 517.657 4.9408 2.90985 0
M  V30 5397 N 517.153 6.04214 3.38965 0
M  V30 5398 N 518.946 4.81466 2.9008 0
M  V30 5399 H 511.097 2.12121 0.108808 0
M  V30 5400 H 513.36 0.941491 0.110899 0
M  V30 5401 H 513.066 3.37389 0.993051 0
M  V30 5402 H 512.94 2.71779 2.61565 0
M  V30 5403 H 515.327 1.75651 2.3713 0
M  V30 5404 H 515.408 2.44731 0.744326 0
M  V30 5405 H 515.052 4.77238 1.738 0
M  V30 5406 H 514.982 4.05046 3.36519 0
M  V30 5407 H 517.473 3.14799 2.0907 0
M  V30 5408 H 517.786 6.76241 3.74056 0
M  V30 5409 H 516.131 6.07825 3.37007 0
M  V30 5410 H 519.322 3.94535 2.51912 0
M  V30 5411 H 519.495 5.59344 3.27166 0
M  V30 5412 N 512.901 -0.976442 1.23707 0
M  V30 5413 C 514.149 -1.71487 1.06942 0
M  V30 5414 C 514.47 -1.9098 -0.393897 0
M  V30 5415 O 513.74 -1.48128 -1.28198 0
M  V30 5416 H 512.32 -0.635425 0.392739 0
M  V30 5417 H 514.982 -1.17515 1.55487 0
M  V30 5418 H 514.078 -2.70286 1.56051 0
M  V30 5419 N 514.379 -1.04941 -1.1758 0
M  V30 5420 C 515.309 -0.669172 -2.23706 0
M  V30 5421 C 516.29 0.331835 -1.66832 0
M  V30 5422 O 517.475 0.209988 -1.93061 0
M  V30 5423 C 514.605 -0.0404889 -3.47276 0
M  V30 5424 C 513.559 -0.965983 -4.16957 0
M  V30 5425 C 512.885 -0.201312 -5.34321 0
M  V30 5426 C 514.185 -2.28902 -4.69469 0
M  V30 5427 H 515.879 -1.55639 -2.55767 0
M  V30 5428 H 513.425 -0.749793 -1.22939 0
M  V30 5429 H 515.378 0.237298 -4.20731 0
M  V30 5430 H 514.102 0.881658 -3.14475 0
M  V30 5431 H 512.761 -1.22829 -3.45411 0
M  V30 5432 H 512.409 0.723519 -4.97769 0
M  V30 5433 H 512.109 -0.817968 -5.81879 0
M  V30 5434 H 513.633 0.0692499 -6.10561 0
M  V30 5435 H 515.047 -2.07132 -5.34574 0
M  V30 5436 H 513.444 -2.85942 -5.27596 0
M  V30 5437 H 514.514 -2.92937 -3.86414 0
M  V30 5438 N 515.857 1.33968 -0.830081 0
M  V30 5439 C 517.082 2.02813 -0.433796 0
M  V30 5440 C 517.507 1.62076 0.954614 0
M  V30 5441 O 516.865 0.808955 1.62252 0
M  V30 5442 C 516.913 3.56348 -0.552115 0
M  V30 5443 O 516.017 4.10202 0.425191 0
M  V30 5444 H 515.358 0.639817 -0.177567 0
M  V30 5445 H 517.888 1.7106 -1.12248 0
M  V30 5446 H 517.898 4.05722 -0.430513 0
M  V30 5447 H 516.573 3.85344 -1.56471 0
M  V30 5448 H 515.15 3.71979 0.261878 0
M  V30 5449 N 517.335 0.585699 1.46312 0
M  V30 5450 C 518.612 0.00542031 1.95599 0
M  V30 5451 C 518.992 -1.45619 1.52834 0
M  V30 5452 O 518.34 -2.14759 0.780446 0
M  V30 5453 C 518.55 0.180601 3.48532 0
M  V30 5454 C 519.898 0.049979 4.24571 0
M  V30 5455 O 520.922 0.109589 3.56031 0
M  V30 5456 O 519.781 -0.0832226 5.46437 0
M  V30 5457 H 516.875 -0.0481281 0.825598 0
M  V30 5458 H 519.421 0.654227 1.56582 0
M  V30 5459 H 518.193 1.19657 3.72556 0
M  V30 5460 H 517.816 -0.504498 3.94386 0
M  V30 5461 N 518.813 -1.54241 0.323641 0
M  V30 5462 C 519.76 -2.24339 -0.542277 0
M  V30 5463 C 520.73 -1.23421 -1.11159 0
M  V30 5464 O 521.915 -1.52104 -1.15192 0
M  V30 5465 C 519.055 -3.00479 -1.69725 0
M  V30 5466 C 518.168 -4.16214 -1.15716 0
M  V30 5467 C 517.303 -4.79884 -2.27783 0
M  V30 5468 C 516.342 -5.87722 -1.71023 0
M  V30 5469 N 515.479 -6.45254 -2.76752 0
M  V30 5470 H 520.319 -2.97935 0.0620613 0
M  V30 5471 H 517.856 -1.47039 0.0423993 0
M  V30 5472 H 519.814 -3.42869 -2.3769 0
M  V30 5473 H 518.444 -2.29217 -2.27288 0
M  V30 5474 H 517.496 -3.78605 -0.369063 0
M  V30 5475 H 518.808 -4.93838 -0.701832 0
M  V30 5476 H 517.962 -5.25243 -3.03651 0
M  V30 5477 H 516.701 -4.01641 -2.76652 0
M  V30 5478 H 515.706 -5.41765 -0.936518 0
M  V30 5479 H 516.931 -6.67863 -1.2303 0
M  V30 5480 H 514.877 -5.69884 -3.24912 0
M  V30 5481 H 514.794 -7.18292 -2.35782 0
M  V30 5482 H 516.062 -6.95269 -3.5245 0
M  V30 5483 N 520.291 -0.0518155 -1.57515 0
M  V30 5484 C 521.238 0.922352 -2.11569 0
M  V30 5485 C 522.208 1.30842 -1.02321 0
M  V30 5486 O 523.393 1.39778 -1.29872 0
M  V30 5487 C 520.533 2.19167 -2.6657 0
M  V30 5488 C 519.646 1.86003 -3.89906 0
M  V30 5489 C 518.781 3.07398 -4.33221 0
M  V30 5490 C 517.82 2.70158 -5.49255 0
M  V30 5491 N 516.957 3.84248 -5.8762 0
M  V30 5492 H 521.797 0.454506 -2.94514 0
M  V30 5493 H 519.334 0.212718 -1.45554 0
M  V30 5494 H 521.292 2.93443 -2.96559 0
M  V30 5495 H 519.922 2.63528 -1.86421 0
M  V30 5496 H 518.974 1.01874 -3.66505 0
M  V30 5497 H 520.286 1.54592 -4.74239 0
M  V30 5498 H 519.44 3.89972 -4.64765 0
M  V30 5499 H 518.179 3.41988 -3.477 0
M  V30 5500 H 517.184 1.86001 -5.17382 0
M  V30 5501 H 518.409 2.36759 -6.36492 0
M  V30 5502 H 516.355 4.18638 -5.05053 0
M  V30 5503 H 516.272 3.56538 -6.66646 0
M  V30 5504 H 517.54 4.6746 -6.2378 0
M  V30 5505 N 521.769 1.56035 0.221574 0
M  V30 5506 C 522.994 1.83476 0.967026 0
M  V30 5507 C 523.419 0.632139 1.7716 0
M  V30 5508 O 522.777 -0.419082 1.7639 0
M  V30 5509 C 522.825 3.08907 1.86034 0
M  V30 5510 O 521.929 2.876 2.95567 0
M  V30 5511 H 521.27 0.604913 0.273817 0
M  V30 5512 H 523.8 2.03247 0.234893 0
M  V30 5513 H 523.81 3.3901 2.27016 0
M  V30 5514 H 522.485 3.96068 1.26898 0
M  V30 5515 H 521.062 2.6873 2.58532 0
M  V30 5516 N 523.247 -0.488276 1.49845 0
M  V30 5517 C 524.495 -1.23911 1.59657 0
M  V30 5518 C 524.816 -1.92816 0.291005 0
M  V30 5519 O 524.086 -1.83328 -0.690485 0
M  V30 5520 H 522.666 -0.460357 0.588286 0
M  V30 5521 H 525.328 -0.564794 1.86537 0
M  V30 5522 H 524.424 -1.99625 2.39909 0
M  V30 5523 N 524.725 -1.39134 -0.740242 0
M  V30 5524 C 525.635 -1.39697 -1.88473 0
M  V30 5525 C 526.651 -0.292403 -1.71526 0
M  V30 5526 O 527.827 -0.533021 -1.94219 0
M  V30 5527 C 524.892 -1.23382 -3.24003 0
M  V30 5528 C 523.953 -2.43763 -3.53381 0
M  V30 5529 C 523.186 -2.28216 -4.82445 0
M  V30 5530 O 523.409 -1.28288 -5.55786 0
M  V30 5531 O 522.343 -3.1709 -5.11603 0
M  V30 5532 H 526.169 -2.36159 -1.90952 0
M  V30 5533 H 523.754 -1.20194 -0.887346 0
M  V30 5534 H 525.636 -1.16395 -4.05006 0
M  V30 5535 H 524.311 -0.300121 -3.22306 0
M  V30 5536 H 523.218 -2.56325 -2.72485 0
M  V30 5537 H 524.551 -3.35808 -3.59852 0
M  V30 5538 N 526.204 0.969867 -1.24223 0
M  V30 5539 C 527.429 1.75289 -1.10853 0
M  V30 5540 C 527.854 1.85091 0.335079 0
M  V30 5541 O 527.212 1.32024 1.24255 0
M  V30 5542 C 527.26 3.15255 -1.75062 0
M  V30 5543 O 526.364 3.99589 -1.01992 0
M  V30 5544 H 525.705 0.538904 -0.387915 0
M  V30 5545 H 528.235 1.21675 -1.64488 0
M  V30 5546 H 528.245 3.65787 -1.80731 0
M  V30 5547 H 526.92 3.07436 -2.801 0
M  V30 5548 H 525.497 3.58077 -1.04094 0
M  V30 5549 N 527.682 1.05563 1.17022 0
M  V30 5550 C 528.614 0.617888 2.20714 0
M  V30 5551 C 529.627 -0.320303 1.59618 0
M  V30 5552 O 530.816 -0.112449 1.78145 0
M  V30 5553 C 527.916 -0.115333 3.38704 0
M  V30 5554 C 527.089 0.834493 4.29366 0
M  V30 5555 C 526.148 0.141855 5.26009 0
M  V30 5556 O 525.174 0.777151 5.6387 0
M  V30 5557 N 526.376 -1.11934 5.69606 0
M  V30 5558 H 529.141 1.50981 2.58892 0
M  V30 5559 H 526.702 0.938008 1.31958 0
M  V30 5560 H 528.694 -0.588918 4.00392 0
M  V30 5561 H 527.264 -0.908967 2.99093 0
M  V30 5562 H 526.484 1.48762 3.65053 0
M  V30 5563 H 527.772 1.4791 4.86827 0
M  V30 5564 H 527.17 -1.65574 5.40927 0
M  V30 5565 H 525.727 -1.53692 6.33421 0
M  V30 5566 N 529.16 -1.33526 0.837174 0
M  V30 5567 C 530.406 -1.9813 0.432704 0
M  V30 5568 C 530.739 -1.66168 -1.00508 0
M  V30 5569 O 530.014 -0.94069 -1.70239 0
M  V30 5570 C 530.297 -3.54151 0.651834 0
M  V30 5571 C 530.15 -3.95806 2.13676 0
M  V30 5572 C 531.469 -4.39993 0.0968937 0
M  V30 5573 H 528.588 -0.719713 0.15869 0
M  V30 5574 H 531.23 -1.58193 1.05237 0
M  V30 5575 H 529.38 -3.88301 0.124369 0
M  V30 5576 H 531.052 -3.71921 2.72896 0
M  V30 5577 H 529.295 -3.45599 2.62191 0
M  V30 5578 H 529.966 -5.0447 2.24084 0
M  V30 5579 H 532.442 -4.12479 0.547733 0
M  V30 5580 H 531.318 -5.48186 0.279917 0
M  V30 5581 H 531.579 -4.3066 -0.9992 0
M  V30 5582 N 530.638 -0.59345 -1.46 0
M  V30 5583 C 531.568 0.121192 -2.33185 0
M  V30 5584 C 532.549 0.872977 -1.4599 0
M  V30 5585 O 533.734 0.846321 -1.74789 0
M  V30 5586 C 530.864 1.12844 -3.28456 0
M  V30 5587 C 529.818 0.4908 -4.25177 0
M  V30 5588 C 529.144 1.60529 -5.10034 0
M  V30 5589 C 530.444 -0.578949 -5.19081 0
M  V30 5590 H 532.138 -0.606767 -2.93187 0
M  V30 5591 H 529.684 -0.293242 -1.40983 0
M  V30 5592 H 531.637 1.63684 -3.88311 0
M  V30 5593 H 530.361 1.88681 -2.66584 0
M  V30 5594 H 529.02 0.00339328 -3.666 0
M  V30 5595 H 528.668 2.35359 -4.44539 0
M  V30 5596 H 528.368 1.18422 -5.75543 0
M  V30 5597 H 529.892 2.11623 -5.72755 0
M  V30 5598 H 531.306 -0.155199 -5.7309 0
M  V30 5599 H 529.703 -0.920947 -5.92991 0
M  V30 5600 H 530.773 -1.46109 -4.62364 0
M  V30 5601 N 532.116 1.54067 -0.331816 0
M  V30 5602 C 533.363 2.00715 0.268269 0
M  V30 5603 C 533.691 1.21986 1.51491 0
M  V30 5604 O 532.946 0.292309 1.93505 0
M  V30 5605 C 533.245 3.51634 0.639392 0
M  V30 5606 C 532.911 4.48018 -0.509019 0
M  V30 5607 C 531.573 4.74089 -0.824209 0
M  V30 5608 C 533.925 5.05237 -1.28003 0
M  V30 5609 C 531.253 5.54637 -1.91298 0
M  V30 5610 C 533.605 5.86972 -2.35895 0
M  V30 5611 C 532.269 6.11342 -2.67987 0
M  V30 5612 H 531.539 0.734469 0.0981667 0
M  V30 5613 H 534.186 1.8596 -0.457304 0
M  V30 5614 H 532.491 3.6416 1.44551 0
M  V30 5615 H 534.188 3.85175 1.11539 0
M  V30 5616 H 530.778 4.27851 -0.253287 0
M  V30 5617 H 534.962 4.8507 -1.04978 0
M  V30 5618 H 530.218 5.71747 -2.16599 0
M  V30 5619 H 534.392 6.30327 -2.96076 0
M  V30 5620 H 532.019 6.73544 -3.5248 0
M  V30 5621 N 533.594 0.0601682 1.57485 0
M  V30 5622 C 534.504 -0.926121 2.15546 0
M  V30 5623 C 535.52 -1.33532 1.11558 0
M  V30 5624 O 536.696 -1.4104 1.4377 0
M  V30 5625 C 533.761 -2.17952 2.69625 0
M  V30 5626 C 532.822 -1.82783 3.88444 0
M  V30 5627 C 532.055 -3.02148 4.39935 0
M  V30 5628 O 532.278 -4.15803 3.90466 0
M  V30 5629 O 531.212 -2.82639 5.31412 0
M  V30 5630 H 535.038 -0.462289 3.00161 0
M  V30 5631 H 532.623 -0.162246 1.48516 0
M  V30 5632 H 534.505 -2.91474 3.04337 0
M  V30 5633 H 533.18 -2.63456 1.88077 0
M  V30 5634 H 532.087 -1.06549 3.58606 0
M  V30 5635 H 533.42 -1.42072 4.7125 0
M  V30 5636 N 535.072 -1.5615 -0.213296 0
M  V30 5637 C 536.3 -1.83638 -0.953139 0
M  V30 5638 C 536.715 -0.640362 -1.77609 0
M  V30 5639 O 536.072 0.391071 -1.78261 0
M  V30 5640 C 536.123 -3.09735 -1.86405 0
M  V30 5641 O 535.844 -4.24723 -1.07435 0
M  V30 5642 C 537.345 -3.5027 -2.71709 0
M  V30 5643 H 534.565 -0.610263 -0.278962 0
M  V30 5644 H 537.109 -2.03247 -0.226035 0
M  V30 5645 H 535.264 -2.92077 -2.545 0
M  V30 5646 H 535.678 -4.9641 -1.69343 0
M  V30 5647 H 537.152 -4.41515 -3.31313 0
M  V30 5648 H 537.629 -2.72406 -3.44516 0
M  V30 5649 H 538.235 -3.70396 -2.09015 0
M  V30 5650 N 536.55 0.480323 -1.50102 0
M  V30 5651 C 537.46 1.60547 -1.71061 0
M  V30 5652 C 538.476 1.63564 -0.593529 0
M  V30 5653 O 539.652 1.81604 -0.870751 0
M  V30 5654 C 536.717 2.96814 -1.79171 0
M  V30 5655 C 535.778 3.04259 -3.02861 0
M  V30 5656 C 535.011 4.34027 -3.10574 0
M  V30 5657 O 535.234 5.24009 -2.25323 0
M  V30 5658 O 534.168 4.46873 -4.03223 0
M  V30 5659 H 537.994 1.45788 -2.6642 0
M  V30 5660 H 535.579 0.658838 -1.34088 0
M  V30 5661 H 537.461 3.77765 -1.86738 0
M  V30 5662 H 536.136 3.11791 -0.869947 0
M  V30 5663 H 535.043 2.22419 -3.008 0
M  V30 5664 H 536.376 2.94216 -3.94586 0
M  V30 5665 N 538.028 1.39524 0.732853 0
M  V30 5666 C 539.277 1.36175 1.48792 0
M  V30 5667 C 539.59 -0.0388195 1.95561 0
M  V30 5668 O 540.796 -0.194899 2.708 0
M  V30 5669 C 539.252 2.39242 2.68871 0
M  V30 5670 C 538.86 3.85024 2.29042 0
M  V30 5671 C 540.604 2.44972 3.46683 0
M  V30 5672 C 538.511 4.79727 3.45856 0
M  V30 5673 H 537.441 0.506267 0.558757 0
M  V30 5674 H 540.092 1.65181 0.799226 0
M  V30 5675 H 538.474 2.0331 3.39825 0
M  V30 5676 H 539.648 4.30008 1.6562 0
M  V30 5677 H 537.963 3.82609 1.64316 0
M  V30 5678 H 540.56 3.12918 4.33574 0
M  V30 5679 H 540.903 1.4749 3.89297 0
M  V30 5680 H 541.436 2.79808 2.82759 0
M  V30 5681 H 538.175 5.78479 3.08289 0
M  V30 5682 H 537.695 4.39421 4.08251 0
M  V30 5683 H 539.374 4.98731 4.12161 0
M  V30 5684 N 539.506 -0.963266 1.24736 0
M  V30 5685 C 540.731 -1.74699 1.11781 0
M  V30 5686 C 541.156 -1.85267 -0.325258 0
M  V30 5687 O 540.514 -1.32681 -1.23553 0
M  V30 5688 C 540.562 -3.14322 1.76731 0
M  V30 5689 O 539.666 -3.99043 1.04109 0
M  V30 5690 H 539.007 -0.53684 0.390767 0
M  V30 5691 H 541.537 -1.20801 1.65131 0
M  V30 5692 H 541.547 -3.64824 1.82668 0
M  V30 5693 H 540.222 -3.05946 2.81726 0
M  V30 5694 H 538.799 -3.5752 1.05991 0
M  V30 5695 N 540.985 -1.06182 -1.16461 0
M  V30 5696 C 542.401 -0.785065 -1.38956 0
M  V30 5697 C 542.601 0.616103 -1.9185 0
M  V30 5698 O 541.657 1.37686 -2.11657 0
M  V30 5699 C 542.97 -1.84902 -2.37132 0
M  V30 5700 C 544.518 -1.8724 -2.50819 0
M  V30 5701 C 544.993 -2.92686 -3.52277 0
M  V30 5702 N 546.484 -2.91712 -3.59803 0
M  V30 5703 C 547.219 -3.69949 -4.38093 0
M  V30 5704 N 546.715 -4.58 -5.19815 0
M  V30 5705 N 548.508 -3.58346 -4.33064 0
M  V30 5706 H 540.659 -1.96569 -0.804634 0
M  V30 5707 H 542.922 -0.851747 -0.416211 0
M  V30 5708 H 542.628 -2.85518 -2.0536 0
M  V30 5709 H 542.502 -1.69908 -3.36766 0
M  V30 5710 H 544.889 -0.872827 -2.81897 0
M  V30 5711 H 544.97 -2.06311 -1.51226 0
M  V30 5712 H 544.614 -3.92835 -3.21937 0
M  V30 5713 H 544.544 -2.70864 -4.51598 0
M  V30 5714 H 547.035 -2.27876 -3.01464 0
M  V30 5715 H 547.348 -5.14357 -5.76764 0
M  V30 5716 H 545.693 -4.62056 -5.19162 0
M  V30 5717 H 548.884 -2.88943 -3.68279 0
M  V30 5718 H 549.057 -4.19563 -4.93833 0
M  V30 5719 N 542.463 1.3308 -0.844243 0
M  V30 5720 C 543.41 2.29104 -0.279323 0
M  V30 5721 C 544.38 1.54577 0.607882 0
M  V30 5722 O 545.565 1.8285 0.545009 0
M  V30 5723 C 542.705 3.40927 0.53508 0
M  V30 5724 C 541.818 4.30354 -0.376749 0
M  V30 5725 C 540.953 5.29297 0.449276 0
M  V30 5726 C 539.992 6.10365 -0.460606 0
M  V30 5727 N 539.129 7.01335 0.327612 0
M  V30 5728 H 543.969 2.76817 -1.10346 0
M  V30 5729 H 541.506 1.36203 -0.555611 0
M  V30 5730 H 543.464 4.04469 1.02278 0
M  V30 5731 H 542.094 2.94391 1.32414 0
M  V30 5732 H 541.146 3.67485 -0.982791 0
M  V30 5733 H 542.458 4.87067 -1.07549 0
M  V30 5734 H 541.612 5.98392 1.00058 0
M  V30 5735 H 540.351 4.73174 1.18143 0
M  V30 5736 H 539.356 5.40182 -1.02388 0
M  V30 5737 H 540.581 6.68571 -1.1912 0
M  V30 5738 H 538.527 6.47655 1.04305 0
M  V30 5739 H 538.444 7.55355 -0.3123 0
M  V30 5740 H 539.712 7.74731 0.86098 0
M  V30 5741 N 543.941 0.601185 1.45683 0
M  V30 5742 C 544.871 -0.108824 2.33246 0
M  V30 5743 C 545.852 -0.865223 1.46451 0
M  V30 5744 O 547.037 -0.83704 1.75235 0
M  V30 5745 C 544.167 -1.11101 3.2905 0
M  V30 5746 C 543.121 -0.468244 4.25431 0
M  V30 5747 C 542.447 -1.57822 5.10878 0
M  V30 5748 C 543.747 0.606469 5.18767 0
M  V30 5749 H 545.441 0.622306 2.92861 0
M  V30 5750 H 542.987 0.300714 1.40825 0
M  V30 5751 H 544.94 -1.61622 3.89174 0
M  V30 5752 H 543.664 -1.87265 2.67581 0
M  V30 5753 H 542.323 0.0160484 3.66596 0
M  V30 5754 H 541.971 -2.32998 4.45781 0
M  V30 5755 H 541.671 -1.15369 5.76163 0
M  V30 5756 H 543.195 -2.08583 5.73869 0
M  V30 5757 H 544.609 0.185589 5.73 0
M  V30 5758 H 543.006 0.952381 5.92494 0
M  V30 5759 H 544.076 1.48559 4.61582 0
M  V30 5760 N 545.419 -1.53889 0.339982 0
M  V30 5761 C 546.666 -2.00855 -0.257621 0
M  V30 5762 C 546.994 -1.22788 -1.50842 0
M  V30 5763 O 546.249 -0.302567 -1.93347 0
M  V30 5764 C 546.548 -3.51968 -0.620735 0
M  V30 5765 C 546.214 -4.47741 0.532771 0
M  V30 5766 C 544.876 -4.73645 0.849339 0
M  V30 5767 C 547.228 -5.04551 1.3068 0
M  V30 5768 C 544.556 -5.53614 1.94237 0
M  V30 5769 C 546.908 -5.85713 2.39005 0
M  V30 5770 C 545.572 -6.09912 2.71225 0
M  V30 5771 H 544.842 -0.734979 -0.0942703 0
M  V30 5772 H 547.489 -1.85714 0.467159 0
M  V30 5773 H 545.794 -3.64921 -1.42618 0
M  V30 5774 H 547.491 -3.85762 -1.09495 0
M  V30 5775 H 544.081 -4.27711 0.275973 0
M  V30 5776 H 548.265 -4.84507 1.07549 0
M  V30 5777 H 543.521 -5.7059 2.19628 0
M  V30 5778 H 547.695 -6.28748 2.99415 0
M  V30 5779 H 545.322 -6.71665 3.56047 0
M  V30 5780 N 546.897 -0.0685191 -1.57451 0
M  V30 5781 C 548.174 0.642167 -1.84758 0
M  V30 5782 C 548.554 1.87991 -0.960344 0
M  V30 5783 O 547.902 2.28485 -0.0257894 0
M  V30 5784 C 548.112 0.982946 -3.34872 0
M  V30 5785 C 549.46 1.35784 -4.02303 0
M  V30 5786 O 550.484 1.07477 -3.39598 0
M  V30 5787 O 549.343 1.88681 -5.12895 0
M  V30 5788 H 546.437 0.318625 -0.763156 0
M  V30 5789 H 548.983 -0.0992015 -1.6941 0
M  V30 5790 H 547.755 0.10372 -3.91163 0
M  V30 5791 H 547.378 1.78119 -3.55471 0
M  V30 5792 N 548.375 1.56261 0.205012 0
M  V30 5793 C 549.603 1.84141 0.943386 0
M  V30 5794 C 550.018 0.649772 1.77266 0
M  V30 5795 O 549.375 -0.381612 1.78466 0
M  V30 5796 C 549.426 3.10719 1.84759 0
M  V30 5797 O 549.147 4.25286 1.05181 0
M  V30 5798 C 550.648 3.51706 2.69848 0
M  V30 5799 H 547.868 0.611734 0.275721 0
M  V30 5800 H 550.412 2.03364 0.215253 0
M  V30 5801 H 548.567 2.93422 2.52947 0
M  V30 5802 H 548.981 4.97301 1.66709 0
M  V30 5803 H 550.455 4.43266 3.28967 0
M  V30 5804 H 550.932 2.7423 3.43067 0
M  V30 5805 H 551.538 3.71499 2.07047 0
M  V30 5806 N 549.853 -0.472356 1.50355 0
M  V30 5807 C 550.783 -1.57859 1.72055 0
M  V30 5808 C 551.764 -1.60283 0.569505 0
M  V30 5809 O 552.949 -1.7657 0.808503 0
M  V30 5810 C 550.079 -2.96191 1.81351 0
M  V30 5811 C 549.033 -3.08633 2.96529 0
M  V30 5812 C 548.359 -4.486 2.90968 0
M  V30 5813 C 549.659 -2.85969 4.37057 0
M  V30 5814 H 551.353 -1.39953 2.64676 0
M  V30 5815 H 548.899 -0.671846 1.27367 0
M  V30 5816 H 550.852 -3.73507 1.95117 0
M  V30 5817 H 549.576 -3.15251 0.853502 0
M  V30 5818 H 548.235 -2.33749 2.82413 0
M  V30 5819 H 547.883 -4.64577 1.92815 0
M  V30 5820 H 547.583 -4.57861 3.68289 0
M  V30 5821 H 549.107 -5.27938 3.0678 0
M  V30 5822 H 550.521 -3.53036 4.51706 0
M  V30 5823 H 548.918 -3.06677 5.15819 0
M  V30 5824 H 549.988 -1.81838 4.49514 0
M  V30 5825 N 551.331 -1.39911 -0.725443 0
M  V30 5826 C 552.279 -1.39552 -1.86086 0
M  V30 5827 C 553.273 -0.277334 -1.67114 0
M  V30 5828 O 554.479 -0.447865 -1.74339 0
M  V30 5829 H 550.854 -0.435993 -0.612711 0
M  V30 5830 H 552.825 -2.35305 -1.83505 0
M  V30 5831 C 551.574 -1.26529 -3.2386 0
M  V30 5832 H 550.897 -2.11845 -3.3906 0
M  V30 5833 H 552.337 -1.30336 -4.03471 0
M  V30 5834 C 550.796 0.0254168 -3.3689 0
M  V30 5835 O 551.326 0.992048 -3.89257 0
M  V30 5836 N 549.532 0.0916528 -2.90455 0
M  V30 5837 H 549.079 -0.695675 -2.48028 0
M  V30 5838 H 549.037 0.954745 -2.99553 0
M  V30 5839 N 552.809 0.956637 -1.25245 0
M  V30 5840 C 553.719 2.0868 -1.0719 0
M  V30 5841 C 554.735 1.73997 -0.00959074 0
M  V30 5842 O 555.911 2.00301 -0.210104 0
M  V30 5843 C 552.976 3.39754 -0.690526 0
M  V30 5844 C 552.037 3.88316 -1.83055 0
M  V30 5845 C 551.27 5.13134 -1.46728 0
M  V30 5846 O 551.493 5.6925 -0.362029 0
M  V30 5847 O 550.427 5.56356 -2.29677 0
M  V30 5848 H 554.253 2.26813 -2.01965 0
M  V30 5849 H 551.838 1.07098 -1.04165 0
M  V30 5850 H 553.72 4.18543 -0.489871 0
M  V30 5851 H 552.395 3.22896 0.227981 0
M  V30 5852 H 551.302 3.1054 -2.08604 0
M  V30 5853 H 552.635 4.09669 -2.72822 0
M  V30 5854 N 554.287 1.06798 1.15896 0
M  V30 5855 C 555.564 0.701057 1.82605 0
M  V30 5856 C 555.944 -0.817066 1.94646 0
M  V30 5857 O 555.292 -1.72933 1.49353 0
M  V30 5858 C 555.502 1.40895 3.19296 0
M  V30 5859 C 556.85 1.55744 3.95005 0
M  V30 5860 O 557.874 1.36927 3.28831 0
M  V30 5861 O 556.733 1.86658 5.13635 0
M  V30 5862 H 553.827 0.248791 0.78869 0
M  V30 5863 H 556.373 1.16857 1.23055 0
M  V30 5864 H 555.145 2.4439 3.05596 0
M  V30 5865 H 554.768 0.931847 3.86526 0
M  V30 5866 N 555.766 -1.3263 0.851289 0
M  V30 5867 C 556.696 -2.31449 0.308771 0
M  V30 5868 C 557.677 -1.59531 -0.590255 0
M  V30 5869 O 558.862 -1.87351 -0.511205 0
M  V30 5870 C 555.992 -3.43586 -0.506548 0
M  V30 5871 C 554.946 -4.26963 0.297753 0
M  V30 5872 C 554.272 -5.30831 -0.642094 0
M  V30 5873 C 555.572 -4.99643 1.52166 0
M  V30 5874 H 557.266 -2.77074 1.13447 0
M  V30 5875 H 554.812 -1.33207 0.546971 0
M  V30 5876 H 556.765 -4.11754 -0.896474 0
M  V30 5877 H 555.489 -2.96681 -1.36558 0
M  V30 5878 H 554.148 -3.60437 0.669391 0
M  V30 5879 H 553.796 -4.8018 -1.49788 0
M  V30 5880 H 553.496 -5.87501 -0.107968 0
M  V30 5881 H 555.02 -6.01862 -1.02927 0
M  V30 5882 H 556.434 -5.6051 1.20421 0
M  V30 5883 H 554.831 -5.66022 1.99347 0
M  V30 5884 H 555.901 -4.27701 2.28474 0
M  V30 5885 N 557.244 -0.608902 -1.45362 0
M  V30 5886 C 558.491 -0.104607 -2.0223 0
M  V30 5887 C 558.819 1.26534 -1.47714 0
M  V30 5888 O 558.074 1.84855 -0.642435 0
M  V30 5889 C 558.373 -0.0167296 -3.57396 0
M  V30 5890 C 558.039 -1.32251 -4.31069 0
M  V30 5891 C 556.701 -1.68019 -4.50914 0
M  V30 5892 C 559.053 -2.18542 -4.73169 0
M  V30 5893 C 556.381 -2.89828 -5.10114 0
M  V30 5894 C 558.733 -3.39602 -5.33717 0
M  V30 5895 C 557.397 -3.7562 -5.51784 0
M  V30 5896 H 556.667 -0.0382785 -0.740011 0
M  V30 5897 H 559.314 -0.790782 -1.7441 0
M  V30 5898 H 557.619 0.752715 -3.84502 0
M  V30 5899 H 559.316 0.389634 -3.99103 0
M  V30 5900 H 555.906 -1.03411 -4.15938 0
M  V30 5901 H 560.09 -1.92208 -4.5757 0
M  V30 5902 H 555.346 -3.17839 -5.22291 0
M  V30 5903 H 559.52 -4.06716 -5.65292 0
M  V30 5904 H 557.147 -4.70093 -5.97425 0
M  V30 5905 N 558.722 1.53707 -0.348139 0
M  V30 5906 C 559.654 2.22725 0.540946 0
M  V30 5907 C 560.667 1.2354 1.06027 0
M  V30 5908 O 561.856 1.49867 0.96964 0
M  V30 5909 C 558.956 2.89756 1.75768 0
M  V30 5910 C 558.129 4.15297 1.37285 0
M  V30 5911 C 557.188 4.65697 2.44976 0
M  V30 5912 O 556.214 5.29798 2.08092 0
M  V30 5913 N 557.416 4.42017 3.763 0
M  V30 5914 H 560.181 2.99658 -0.0501592 0
M  V30 5915 H 557.742 1.60979 -0.17248 0
M  V30 5916 H 559.734 3.20388 2.47252 0
M  V30 5917 H 558.304 2.16382 2.25605 0
M  V30 5918 H 557.524 3.9116 0.488584 0
M  V30 5919 H 558.812 4.96948 1.09179 0
M  V30 5920 H 558.21 3.9076 4.09051 0
M  V30 5921 H 556.767 4.77242 4.4394 0
M  V30 5922 N 560.2 0.0768682 1.57412 0
M  V30 5923 C 561.147 -0.888577 2.13009 0
M  V30 5924 C 562.117 -1.29198 1.0439 0
M  V30 5925 O 563.302 -1.37694 1.3208 0
M  V30 5926 C 560.442 -2.14899 2.70023 0
M  V30 5927 C 559.555 -1.79777 3.92816 0
M  V30 5928 C 558.69 -3.00467 4.38056 0
M  V30 5929 C 557.729 -2.61385 5.53484 0
M  V30 5930 N 556.866 -3.74851 5.93659 0
M  V30 5931 H 561.706 -0.407593 2.95199 0
M  V30 5932 H 559.243 -0.189534 1.45874 0
M  V30 5933 H 561.201 -2.88688 3.0119 0
M  V30 5934 H 559.831 -2.60529 1.9059 0
M  V30 5935 H 558.883 -0.960301 3.68079 0
M  V30 5936 H 560.195 -1.47027 4.76639 0
M  V30 5937 H 559.349 -3.82529 4.7091 0
M  V30 5938 H 558.088 -3.36413 3.53097 0
M  V30 5939 H 557.093 -1.77746 5.20275 0
M  V30 5940 H 558.318 -2.26603 6.40178 0
M  V30 5941 H 556.264 -4.1055 5.11649 0
M  V30 5942 H 556.181 -3.45887 6.72234 0
M  V30 5943 H 557.449 -4.57477 6.31138 0
M  V30 5944 N 561.678 -1.56367 -0.196722 0
M  V30 5945 C 562.927 -1.79724 -0.915539 0
M  V30 5946 C 563.24 -0.649804 -1.84491 0
M  V30 5947 O 564.446 -0.767631 -2.60422 0
M  V30 5948 C 562.902 -3.18369 -1.67836 0
M  V30 5949 C 562.51 -4.4091 -0.793897 0
M  V30 5950 C 564.254 -3.51037 -2.38691 0
M  V30 5951 C 562.161 -5.70577 -1.55549 0
M  V30 5952 H 561.091 -0.67013 -0.345604 0
M  V30 5953 H 563.742 -1.82721 -0.168856 0
M  V30 5954 H 562.124 -3.09617 -2.46887 0
M  V30 5955 H 563.298 -4.60781 -0.042163 0
M  V30 5956 H 561.613 -4.15937 -0.19626 0
M  V30 5957 H 564.21 -4.4515 -2.96219 0
M  V30 5958 H 564.553 -2.74704 -3.12799 0
M  V30 5959 H 565.086 -3.61229 -1.66608 0
M  V30 5960 H 561.825 -6.49871 -0.857226 0
M  V30 5961 H 561.345 -5.54726 -2.2812 0
M  V30 5962 H 563.024 -6.11637 -2.10971 0
M  V30 5963 N 563.156 0.464375 -1.50603 0
M  V30 5964 C 564.086 1.56944 -1.72889 0
M  V30 5965 C 565.067 1.59979 -0.577997 0
M  V30 5966 O 566.252 1.76138 -0.817855 0
M  V30 5967 C 563.382 2.95225 -1.8292 0
M  V30 5968 C 562.336 3.07056 -2.98162 0
M  V30 5969 C 561.662 4.47051 -2.93343 0
M  V30 5970 C 562.962 2.83648 -4.38567 0
M  V30 5971 H 564.656 1.38547 -2.65415 0
M  V30 5972 H 562.202 0.665082 -1.27721 0
M  V30 5973 H 564.155 3.72467 -1.97095 0
M  V30 5974 H 562.879 3.14793 -0.870209 0
M  V30 5975 H 561.538 2.32248 -2.83648 0
M  V30 5976 H 561.186 4.63547 -1.95276 0
M  V30 5977 H 560.886 4.55902 -3.70712 0
M  V30 5978 H 562.41 5.26304 -3.09575 0
M  V30 5979 H 563.824 3.50636 -4.53572 0
M  V30 5980 H 562.221 3.03937 -5.17438 0
M  V30 5981 H 563.291 1.79451 -4.50472 0
M  V30 5982 N 564.634 1.40294 0.718013 0
M  V30 5983 C 565.88 1.38645 1.48005 0
M  V30 5984 C 566.213 -0.0121202 1.94196 0
M  V30 5985 O 565.488 -0.980309 1.67989 0
M  V30 5986 C 565.771 2.37379 2.70782 0
M  V30 5987 C 565.624 3.8625 2.30501 0
M  V30 5988 C 566.943 2.33685 3.72933 0
M  V30 5989 H 564.062 0.504928 0.536858 0
M  V30 5990 H 566.704 1.71411 0.819649 0
M  V30 5991 H 564.854 2.09568 3.27129 0
M  V30 5992 H 566.526 4.24879 1.79655 0
M  V30 5993 H 564.769 4.02202 1.6253 0
M  V30 5994 H 565.44 4.50847 3.18498 0
M  V30 5995 H 567.916 2.58314 3.2621 0
M  V30 5996 H 566.792 3.0482 4.56482 0
M  V30 5997 H 567.053 1.34765 4.21059 0
M  V30 5998 N 566.112 -0.949982 1.2575 0
M  V30 5999 C 567.523 -1.50989 1.09815 0
M  V30 6000 C 567.874 -1.93497 -0.324556 0
M  V30 6001 O 566.999 -1.79068 -1.21506 0
M  V30 6002 C 567.594 -2.74394 1.98729 0
M  V30 6003 C 566.153 -3.26682 1.86965 0
M  V30 6004 C 565.3 -1.99498 1.92603 0
M  V30 6005 H 568.251 -0.766387 1.38968 0
M  V30 6006 H 568.272 -3.48383 1.53001 0
M  V30 6007 H 567.784 -2.43425 3.02268 0
M  V30 6008 H 565.885 -3.62461 0.863279 0
M  V30 6009 H 565.998 -3.94383 2.72027 0
M  V30 6010 H 564.362 -2.15005 1.36546 0
M  V30 6011 H 565.145 -1.70871 2.97755 0
M  V30 6012 N 567.59 -1.07411 -1.15328 0
M  V30 6013 C 568.839 -0.792643 -1.85473 0
M  V30 6014 C 569.152 0.683789 -1.83259 0
M  V30 6015 O 570.358 1.08005 -2.49093 0
M  V30 6016 C 568.814 -1.36787 -3.32892 0
M  V30 6017 C 568.422 -2.87536 -3.43551 0
M  V30 6018 C 570.166 -1.16444 -4.08217 0
M  V30 6019 C 568.073 -3.38247 -4.85122 0
M  V30 6020 H 567.003 -0.292838 -0.694811 0
M  V30 6021 H 569.654 -1.29426 -1.30082 0
M  V30 6022 H 568.036 -0.793993 -3.87958 0
M  V30 6023 H 569.21 -3.50973 -2.98588 0
M  V30 6024 H 567.525 -3.06676 -2.81672 0
M  V30 6025 H 570.122 -1.51808 -5.12697 0
M  V30 6026 H 570.465 -0.10353 -4.16171 0
M  V30 6027 H 570.998 -1.70472 -3.59422 0
M  V30 6028 H 567.737 -4.43866 -4.82351 0
M  V30 6029 H 567.257 -2.79564 -5.30664 0
M  V30 6030 H 568.936 -3.34238 -5.5398 0
M  V30 6031 N 569.068 1.32177 -0.85831 0
M  V30 6032 C 570 2.27688 -0.262835 0
M  V30 6033 C 571.013 1.52588 0.567513 0
M  V30 6034 O 572.202 1.74156 0.391407 0
M  V30 6035 C 569.302 3.32668 0.646937 0
M  V30 6036 C 568.475 4.37148 -0.148372 0
M  V30 6037 C 567.534 5.21686 0.687728 0
M  V30 6038 O 566.56 5.69074 0.119934 0
M  V30 6039 N 567.762 5.44892 2.00182 0
M  V30 6040 H 570.527 2.79426 -1.08356 0
M  V30 6041 H 568.088 1.45076 -0.718647 0
M  V30 6042 H 570.08 3.86134 1.2117 0
M  V30 6043 H 568.65 2.81061 1.36834 0
M  V30 6044 H 567.87 3.83915 -0.894572 0
M  V30 6045 H 569.158 5.04038 -0.694514 0
M  V30 6046 H 568.556 5.08128 2.4864 0
M  V30 6047 H 567.113 6.0134 2.51463 0
M  V30 6048 N 570.547 0.616602 1.45037 0
M  V30 6049 C 571.479 -0.135186 2.28801 0
M  V30 6050 C 572.492 -0.82303 1.40464 0
M  V30 6051 O 573.681 -0.686909 1.64754 0
M  V30 6052 C 570.781 -1.21292 3.16451 0
M  V30 6053 C 569.954 -0.61043 4.3312 0
M  V30 6054 C 569.013 -1.58022 5.01912 0
M  V30 6055 O 568.039 -1.10301 5.58411 0
M  V30 6056 N 569.241 -2.91464 5.02025 0
M  V30 6057 H 572.006 0.583612 2.93963 0
M  V30 6058 H 569.567 0.456723 1.55324 0
M  V30 6059 H 571.559 -1.86169 3.59337 0
M  V30 6060 H 570.129 -1.83412 2.53138 0
M  V30 6061 H 569.349 0.216638 3.93604 0
M  V30 6062 H 570.637 -0.188293 5.08451 0
M  V30 6063 H 570.035 -3.32829 4.57429 0
M  V30 6064 H 568.592 -3.51741 5.48745 0
M  V30 6065 N 572.025 -1.5352 0.356285 0
M  V30 6066 C 573.271 -2.01414 -0.236653 0
M  V30 6067 C 573.604 -1.24339 -1.49176 0
M  V30 6068 O 572.879 -0.334496 -1.91602 0
M  V30 6069 C 573.162 -3.56059 -0.537982 0
M  V30 6070 C 573.015 -4.43835 0.730112 0
M  V30 6071 C 574.334 -4.19127 -1.34239 0
M  V30 6072 H 571.453 -0.732135 -0.0845386 0
M  V30 6073 H 574.095 -1.83854 0.479341 0
M  V30 6074 H 572.245 -3.71153 -1.14795 0
M  V30 6075 H 573.917 -4.40555 1.36782 0
M  V30 6076 H 572.16 -4.1218 1.3524 0
M  V30 6077 H 572.831 -5.49958 0.474358 0
M  V30 6078 H 575.307 -4.07809 -0.826498 0
M  V30 6079 H 574.183 -5.27378 -1.52198 0
M  V30 6080 H 574.444 -3.74581 -2.34822 0
M  V30 6081 N 573.503 -0.0852151 -1.57369 0
M  V30 6082 C 574.433 0.874556 -2.16503 0
M  V30 6083 C 575.414 1.30111 -1.09568 0
M  V30 6084 O 576.599 1.36977 -1.37662 0
M  V30 6085 C 573.729 2.13731 -2.73745 0
M  V30 6086 C 572.683 1.84971 -3.85966 0
M  V30 6087 C 572.009 3.17991 -4.29867 0
M  V30 6088 C 573.309 1.14442 -5.09608 0
M  V30 6089 H 575.003 0.381899 -2.96954 0
M  V30 6090 H 572.549 0.18225 -1.42842 0
M  V30 6091 H 574.502 2.81302 -3.13763 0
M  V30 6092 H 573.226 2.65263 -1.90534 0
M  V30 6093 H 571.885 1.19801 -3.46473 0
M  V30 6094 H 571.533 3.6739 -3.4356 0
M  V30 6095 H 571.233 2.99534 -5.05523 0
M  V30 6096 H 572.757 3.86737 -4.72511 0
M  V30 6097 H 574.171 1.72105 -5.46857 0
M  V30 6098 H 572.568 1.06197 -5.90629 0
M  V30 6099 H 573.638 0.12559 -4.84737 0
M  V30 6100 N 574.981 1.5647 0.188427 0
M  V30 6101 C 575.928 1.95073 1.23349 0
M  V30 6102 C 576.898 0.812238 1.44886 0
M  V30 6103 O 578.083 1.07095 1.57909 0
M  V30 6104 C 575.223 2.30124 2.57171 0
M  V30 6105 C 574.336 3.57069 2.43157 0
M  V30 6106 C 573.471 3.81411 3.69729 0
M  V30 6107 C 572.51 5.0176 3.50575 0
M  V30 6108 N 571.647 5.22321 4.69175 0
M  V30 6109 H 576.487 2.84171 0.89728 0
M  V30 6110 H 574.024 1.40623 0.431683 0
M  V30 6111 H 575.982 2.48463 3.35145 0
M  V30 6112 H 574.612 1.44159 2.88822 0
M  V30 6113 H 573.664 3.4674 1.56447 0
M  V30 6114 H 574.976 4.452 2.24942 0
M  V30 6115 H 574.13 4.00026 4.56141 0
M  V30 6116 H 572.869 2.91624 3.90905 0
M  V30 6117 H 571.874 4.83061 2.62549 0
M  V30 6118 H 573.099 5.93063 3.30837 0
M  V30 6119 H 571.045 4.35483 4.90602 0
M  V30 6120 H 570.962 6.04643 4.53809 0
M  V30 6121 H 572.23 5.45401 5.56919 0
M  V30 6122 N 576.459 -0.456382 1.50847 0
M  V30 6123 C 577.369 -1.57805 1.73594 0
M  V30 6124 C 578.385 -1.62599 0.619476 0
M  V30 6125 O 579.561 -1.80195 0.899532 0
M  V30 6126 C 576.626 -2.93926 1.8387 0
M  V30 6127 C 575.687 -2.99402 3.07663 0
M  V30 6128 C 574.92 -4.29031 3.1744 0
M  V30 6129 O 575.143 -5.20358 2.33631 0
M  V30 6130 O 574.077 -4.40401 4.10281 0
M  V30 6131 H 577.903 -1.41531 2.68705 0
M  V30 6132 H 575.488 -0.637422 1.3512 0
M  V30 6133 H 577.37 -3.74747 1.92725 0
M  V30 6134 H 576.045 -3.10368 0.91944 0
M  V30 6135 H 574.952 -2.17606 3.043 0
M  V30 6136 H 576.285 -2.87901 3.99216 0
M  V30 6137 N 577.937 -1.40673 -0.710563 0
M  V30 6138 C 579.185 -1.38947 -1.46759 0
M  V30 6139 C 579.506 0.00572879 -1.94999 0
M  V30 6140 O 578.776 0.961358 -1.70689 0
M  V30 6141 H 577.356 -0.5114 -0.544499 0
M  V30 6142 H 580.018 -1.75773 -0.842012 0
M  V30 6143 H 579.114 -2.06745 -2.33801 0
M  V30 6144 N 579.415 0.9433 -1.26252 0
M  V30 6145 C 580.365 2.02746 -1.04297 0
M  V30 6146 C 581.349 1.60882 0.0239435 0
M  V30 6147 O 582.541 1.75947 -0.192757 0
M  V30 6148 C 579.67 3.36585 -0.6757 0
M  V30 6149 C 578.756 3.84939 -1.77996 0
M  V30 6150 N 579.147 4.05966 -3.01704 0
M  V30 6151 C 577.445 4.13833 -1.66308 0
M  V30 6152 C 578.146 4.45987 -3.73458 0
M  V30 6153 N 577.122 4.52569 -3.01135 0
M  V30 6154 H 580.924 2.17012 -1.98199 0
M  V30 6155 H 578.438 1.12898 -1.16738 0
M  V30 6156 H 580.435 4.13896 -0.499571 0
M  V30 6157 H 579.095 3.2369 0.255863 0
M  V30 6158 H 580.106 3.92716 -3.37631 0
M  V30 6159 H 576.783 4.09739 -0.801267 0
M  V30 6160 H 578.173 4.70465 -4.79701 0
M  V30 6161 N 580.893 1.08022 1.14757 0
M  V30 6162 C 581.823 0.728248 2.21853 0
M  V30 6163 C 582.804 -0.287486 1.67653 0
M  V30 6164 O 583.989 -0.158727 1.9355 0
M  V30 6165 C 581.119 0.132549 3.47047 0
M  V30 6166 C 580.073 1.07619 4.14249 0
M  V30 6167 C 579.399 0.342907 5.33599 0
M  V30 6168 C 580.699 2.41268 4.63235 0
M  V30 6169 H 582.393 1.62365 2.51551 0
M  V30 6170 H 579.939 0.782125 1.20908 0
M  V30 6171 H 581.892 -0.125665 4.21213 0
M  V30 6172 H 580.616 -0.797971 3.16702 0
M  V30 6173 H 579.275 1.31944 3.42033 0
M  V30 6174 H 578.923 -0.59129 4.99513 0
M  V30 6175 H 578.623 0.971955 5.79506 0
M  V30 6176 H 580.147 0.0926538 6.1053 0
M  V30 6177 H 581.561 2.21232 5.28894 0
M  V30 6178 H 579.958 2.9983 5.19829 0
M  V30 6179 H 581.028 3.03079 3.78512 0
M  V30 6180 N 582.371 -1.3172 0.865308 0
M  V30 6181 C 583.281 -2.32394 0.320935 0
M  V30 6182 C 584.297 -1.64511 -0.566746 0
M  V30 6183 O 585.473 -1.95969 -0.464575 0
M  V30 6184 C 582.538 -3.43462 -0.472701 0
M  V30 6185 C 581.599 -4.27015 0.442385 0
M  V30 6186 C 580.832 -5.32779 -0.313469 0
M  V30 6187 O 581.055 -5.49158 -1.54214 0
M  V30 6188 O 579.989 -6.01015 0.326257 0
M  V30 6189 H 583.815 -2.80868 1.15528 0
M  V30 6190 H 581.4 -1.35535 0.628545 0
M  V30 6191 H 583.282 -4.11172 -0.922781 0
M  V30 6192 H 581.957 -2.97159 -1.28367 0
M  V30 6193 H 580.864 -3.62075 0.940866 0
M  V30 6194 H 582.197 -4.76871 1.21882 0
M  V30 6195 N 583.85 -0.624285 -1.44708 0
M  V30 6196 C 584.797 0.0847135 -2.30644 0
M  V30 6197 C 585.767 0.843575 -1.43084 0
M  V30 6198 O 586.952 0.825982 -1.71995 0
M  V30 6199 C 584.091 1.06495 -3.28257 0
M  V30 6200 C 583.205 0.305224 -4.3092 0
M  V30 6201 C 582.34 1.27667 -5.1563 0
M  V30 6202 C 581.379 0.505706 -6.10007 0
M  V30 6203 N 580.516 1.42727 -6.8744 0
M  V30 6204 H 585.356 -0.654068 -2.90733 0
M  V30 6205 H 582.893 -0.334334 -1.4325 0
M  V30 6206 H 584.851 1.64658 -3.83332 0
M  V30 6207 H 583.481 1.77094 -2.69884 0
M  V30 6208 H 582.533 -0.392207 -3.78373 0
M  V30 6209 H 583.845 -0.295553 -4.97924 0
M  V30 6210 H 582.999 1.92984 -5.75189 0
M  V30 6211 H 581.738 1.91137 -4.48685 0
M  V30 6212 H 580.743 -0.160999 -5.49564 0
M  V30 6213 H 581.968 -0.124183 -6.78986 0
M  V30 6214 H 579.913 2.04931 -6.23169 0
M  V30 6215 H 579.831 0.880345 -7.50857 0
M  V30 6216 H 581.099 2.0695 -7.51526 0
M  V30 6217 N 585.328 1.53329 -0.364422 0
M  V30 6218 C 586.556 2.05657 0.226424 0
M  V30 6219 C 586.971 1.23801 1.42544 0
M  V30 6220 O 586.328 0.27839 1.80364 0
M  V30 6221 C 586.379 3.56125 0.621056 0
M  V30 6222 O 586.1 4.34879 -0.530304 0
M  V30 6223 C 587.601 4.24706 1.27041 0
M  V30 6224 H 584.821 0.669806 0.0400056 0
M  V30 6225 H 587.365 1.97714 -0.522456 0
M  V30 6226 H 585.52 3.64223 1.31985 0
M  V30 6227 H 585.934 5.24073 -0.211546 0
M  V30 6228 H 587.408 5.3131 1.49711 0
M  V30 6229 H 587.885 3.78354 2.23036 0
M  V30 6230 H 588.491 4.20858 0.613079 0
M  V30 6231 N 586.806 0.0935595 1.57322 0
M  V30 6232 C 587.716 -0.880192 2.17462 0
M  V30 6233 C 588.732 -1.31135 1.14366 0
M  V30 6234 O 589.908 -1.37958 1.46729 0
M  V30 6235 C 586.973 -2.12184 2.74188 0
M  V30 6236 C 586.034 -1.74503 3.92234 0
M  V30 6237 C 585.267 -2.92748 4.46245 0
M  V30 6238 O 585.49 -4.07427 3.99198 0
M  V30 6239 O 584.424 -2.71303 5.37288 0
M  V30 6240 H 588.25 -0.398516 3.01074 0
M  V30 6241 H 585.835 -0.130707 1.48827 0
M  V30 6242 H 587.717 -2.84953 3.10451 0
M  V30 6243 H 586.392 -2.59407 1.93623 0
M  V30 6244 H 585.299 -0.989186 3.60785 0
M  V30 6245 H 586.632 -1.32044 4.74157 0
M  V30 6246 N 588.284 -1.56567 -0.180126 0
M  V30 6247 C 589.533 -1.80685 -0.896426 0
M  V30 6248 C 589.846 -0.669335 -1.83791 0
M  V30 6249 O 591.052 -0.795209 -2.59593 0
M  V30 6250 C 589.508 -3.20132 -1.6445 0
M  V30 6251 C 589.116 -4.41727 -0.747088 0
M  V30 6252 C 590.86 -3.53549 -2.34955 0
M  V30 6253 C 588.767 -5.72195 -1.49489 0
M  V30 6254 H 587.697 -0.673758 -0.338477 0
M  V30 6255 H 590.348 -1.8289 -0.149467 0
M  V30 6256 H 588.73 -3.12218 -2.43589 0
M  V30 6257 H 589.904 -4.608 0.00671129 0
M  V30 6258 H 588.219 -4.16122 -0.152134 0
M  V30 6259 H 590.816 -4.48267 -2.91481 0
M  V30 6260 H 591.159 -2.78006 -3.09868 0
M  V30 6261 H 591.692 -3.62976 -1.62768 0
M  V30 6262 H 588.431 -6.50743 -0.788251 0
M  V30 6263 H 587.951 -5.57115 -2.22224 0
M  V30 6264 H 589.63 -6.1384 -2.04472 0
M  V30 6265 N 589.762 0.448376 -1.51087 0
M  V30 6266 C 591.039 1.20926 -1.53741 0
M  V30 6267 C 591.419 2.09025 -0.295222 0
M  V30 6268 O 590.767 2.16851 0.720283 0
M  V30 6269 C 590.977 2.02067 -2.84552 0
M  V30 6270 C 592.325 2.59486 -3.36084 0
M  V30 6271 O 593.349 2.12289 -2.86028 0
M  V30 6272 O 592.208 3.45539 -4.23397 0
M  V30 6273 H 589.302 0.549951 -0.617643 0
M  V30 6274 H 591.848 0.458344 -1.63393 0
M  V30 6275 H 590.62 1.37291 -3.66425 0
M  V30 6276 H 590.243 2.84246 -2.78011 0
M  V30 6277 N 591.24 1.41047 0.703093 0
M  V30 6278 C 592.15 1.44645 1.84703 0
M  V30 6279 C 593.166 0.337778 1.7069 0
M  V30 6280 O 594.342 0.584327 1.92737 0
M  V30 6281 C 591.407 1.31928 3.20618 0
M  V30 6282 C 590.468 2.53047 3.46794 0
M  V30 6283 C 589.701 2.40927 4.76224 0
M  V30 6284 O 589.924 1.42978 5.5219 0
M  V30 6285 O 588.858 3.30543 5.03016 0
M  V30 6286 H 592.684 2.41139 1.84624 0
M  V30 6287 H 590.269 1.22504 0.855167 0
M  V30 6288 H 592.151 1.27092 4.01778 0
M  V30 6289 H 590.826 0.385469 3.21397 0
M  V30 6290 H 589.733 2.6346 2.65593 0
M  V30 6291 H 591.066 3.45231 3.50822 0
M  V30 6292 N 592.718 -0.936591 1.26751 0
M  V30 6293 C 593.964 -1.6858 1.12733 0
M  V30 6294 C 594.297 -1.91414 -0.327745 0
M  V30 6295 O 593.572 -1.49812 -1.24043 0
M  V30 6296 C 593.855 -3.05779 1.90187 0
M  V30 6297 C 593.708 -2.90242 3.43627 0
M  V30 6298 C 595.027 -4.0597 1.69931 0
M  V30 6299 H 592.146 -0.61182 0.410908 0
M  V30 6300 H 594.788 -1.08747 1.55801 0
M  V30 6301 H 592.938 -3.56853 1.53584 0
M  V30 6302 H 594.61 -2.46354 3.9001 0
M  V30 6303 H 592.853 -2.2577 3.70419 0
M  V30 6304 H 593.524 -3.87572 3.93055 0
M  V30 6305 H 596 -3.63874 2.0183 0
M  V30 6306 H 594.876 -4.99974 2.26534 0
M  V30 6307 H 595.137 -4.37369 0.64502 0
M  V30 6308 N 594.196 -1.08629 -1.14182 0
M  V30 6309 C 595.442 -0.818556 -1.85546 0
M  V30 6310 C 595.775 0.654076 -1.82854 0
M  V30 6311 O 595.05 1.48099 -1.26083 0
M  V30 6312 C 595.333 -1.34397 -3.3408 0
M  V30 6313 C 595.186 -2.8821 -3.45333 0
M  V30 6314 C 596.505 -0.971069 -4.29253 0
M  V30 6315 H 593.624 -0.298821 -0.673702 0
M  V30 6316 H 596.266 -1.34629 -1.34071 0
M  V30 6317 H 594.416 -0.895064 -3.78049 0
M  V30 6318 H 596.088 -3.41488 -3.10134 0
M  V30 6319 H 594.331 -3.25756 -2.86471 0
M  V30 6320 H 595.002 -3.20047 -4.49749 0
M  V30 6321 H 597.478 -1.35809 -3.93313 0
M  V30 6322 H 596.354 -1.36586 -5.31635 0
M  V30 6323 H 596.615 0.121659 -4.41933 0
M  V30 6324 N 595.674 1.31259 -0.872281 0
M  V30 6325 C 596.604 2.30929 -0.345554 0
M  V30 6326 C 597.585 1.60449 0.5648 0
M  V30 6327 O 598.77 1.8814 0.481335 0
M  V30 6328 C 595.9 3.44348 0.451823 0
M  V30 6329 C 594.854 4.26435 -0.365641 0
M  V30 6330 C 594.18 5.31785 0.557562 0
M  V30 6331 C 595.48 4.97159 -1.60095 0
M  V30 6332 H 597.174 2.75234 -1.17841 0
M  V30 6333 H 594.72 1.3232 -0.568094 0
M  V30 6334 H 596.673 4.13128 0.830854 0
M  V30 6335 H 595.397 2.98816 1.31821 0
M  V30 6336 H 594.056 3.59326 -0.726649 0
M  V30 6337 H 593.704 4.82502 1.4213 0
M  V30 6338 H 593.404 5.87598 0.0144878 0
M  V30 6339 H 594.928 6.03424 0.933387 0
M  V30 6340 H 596.342 5.58523 -1.29323 0
M  V30 6341 H 594.739 5.62779 -2.08327 0
M  V30 6342 H 595.809 4.24012 -2.35249 0
M  V30 6343 N 597.152 0.631951 1.44375 0
M  V30 6344 C 598.398 0.13697 2.02337 0
M  V30 6345 C 598.731 -1.23826 1.49602 0
M  V30 6346 O 598.006 -1.8221 0.680415 0
M  V30 6347 C 598.289 0.124536 3.59885 0
M  V30 6348 C 598.142 1.53217 4.229 0
M  V30 6349 C 599.461 -0.550481 4.36644 0
M  V30 6350 H 596.58 0.051247 0.735216 0
M  V30 6351 H 599.222 0.808581 1.71936 0
M  V30 6352 H 597.372 -0.44737 3.85916 0
M  V30 6353 H 599.044 2.15303 4.07973 0
M  V30 6354 H 597.287 2.0858 3.80364 0
M  V30 6355 H 597.958 1.4755 5.31914 0
M  V30 6356 H 600.434 -0.0641154 4.16051 0
M  V30 6357 H 599.31 -0.528371 5.46351 0
M  V30 6358 H 599.571 -1.62097 4.11311 0
M  V30 6359 N 598.631 -1.53133 0.372548 0
M  V30 6360 C 599.879 -2.00958 -0.214534 0
M  V30 6361 C 600.2 -1.26135 -1.48711 0
M  V30 6362 O 599.47 -0.376597 -1.92246 0
M  V30 6363 H 598.05 -0.742456 -0.0822664 0
M  V30 6364 H 600.712 -1.88367 0.500385 0
M  V30 6365 H 599.808 -3.09031 -0.436605 0
M  V30 6366 N 600.109 -0.101901 -1.5727 0
M  V30 6367 C 601.357 0.559091 -1.94213 0
M  V30 6368 C 601.678 1.68297 -0.984948 0
M  V30 6369 O 600.948 1.95863 -0.0381975 0
M  V30 6370 H 599.528 0.20952 -0.717015 0
M  V30 6371 H 602.19 -0.166831 -1.94185 0
M  V30 6372 H 601.286 0.96485 -2.96811 0
M  V30 6373 N 601.587 1.56661 0.17182 0
M  V30 6374 C 602.812 1.86459 0.908165 0
M  V30 6375 C 603.237 0.688181 1.75059 0
M  V30 6376 O 602.595 -0.362753 1.77634 0
M  V30 6377 C 602.643 3.14669 1.76112 0
M  V30 6378 O 601.747 2.96858 2.86268 0
M  V30 6379 H 601.088 0.613318 0.254434 0
M  V30 6380 H 603.618 2.03892 0.170113 0
M  V30 6381 H 603.628 3.46061 2.16115 0
M  V30 6382 H 602.303 3.99905 1.14233 0
M  V30 6383 H 600.88 2.76819 2.49852 0
M  V30 6384 N 603.065 -0.440357 1.51323 0
M  V30 6385 C 604.293 -1.21255 1.67645 0
M  V30 6386 C 604.708 -1.85088 0.37252 0
M  V30 6387 O 604.065 -1.70582 -0.648683 0
M  V30 6388 C 604.116 -2.29881 2.78993 0
M  V30 6389 O 603.837 -1.68659 4.04334 0
M  V30 6390 C 605.338 -3.20214 3.06558 0
M  V30 6391 H 602.558 -0.36558 0.562666 0
M  V30 6392 H 605.102 -0.52214 1.97722 0
M  V30 6393 H 603.257 -2.94643 2.51524 0
M  V30 6394 H 603.671 -2.40426 4.6615 0
M  V30 6395 H 605.145 -3.92575 3.88058 0
M  V30 6396 H 605.622 -3.80794 2.18844 0
M  V30 6397 H 606.228 -2.61156 3.35675 0
M  V30 6398 N 604.543 -1.41418 -0.695603 0
M  V30 6399 C 605.959 -1.23887 -1.00619 0
M  V30 6400 C 606.159 -0.128206 -2.01092 0
M  V30 6401 O 605.215 0.507408 -2.47349 0
M  V30 6402 C 606.528 -2.58816 -1.53083 0
M  V30 6403 C 608.076 -2.65998 -1.64967 0
M  V30 6404 C 608.551 -4.01244 -2.20833 0
M  V30 6405 N 610.042 -4.0309 -2.28194 0
M  V30 6406 C 610.777 -5.04539 -2.72448 0
M  V30 6407 N 610.273 -6.16378 -3.16306 0
M  V30 6408 N 612.066 -4.91901 -2.72011 0
M  V30 6409 H 604.217 -2.12379 -0.0300061 0
M  V30 6410 H 606.48 -0.944958 -0.0758797 0
M  V30 6411 H 606.186 -3.40842 -0.867147 0
M  V30 6412 H 606.06 -2.81299 -2.51298 0
M  V30 6413 H 608.447 -1.84331 -2.30448 0
M  V30 6414 H 608.528 -2.47325 -0.652982 0
M  V30 6415 H 608.172 -4.83359 -1.55968 0
M  V30 6416 H 608.102 -4.17257 -3.21254 0
M  V30 6417 H 610.593 -3.22341 -1.97242 0
M  V30 6418 H 610.906 -6.89658 -3.487 0
M  V30 6419 H 609.251 -6.19914 -3.14215 0
M  V30 6420 H 612.442 -4.03613 -2.37095 0
M  V30 6421 H 612.615 -5.71102 -3.06181 0
M  V30 6422 N 606.021 0.929856 -1.27246 0
M  V30 6423 C 607.27 1.67182 -1.12842 0
M  V30 6424 C 607.583 1.9287 0.325666 0
M  V30 6425 O 608.789 2.64999 0.590572 0
M  V30 6426 C 607.245 3.01097 -1.97151 0
M  V30 6427 C 606.853 2.83115 -3.47203 0
M  V30 6428 C 608.597 3.78907 -1.91389 0
M  V30 6429 C 606.504 4.12573 -4.23719 0
M  V30 6430 H 605.434 0.627064 -0.418697 0
M  V30 6431 H 608.085 1.0332 -1.51649 0
M  V30 6432 H 606.467 3.66004 -1.51186 0
M  V30 6433 H 607.641 2.26989 -4.01015 0
M  V30 6434 H 605.956 2.18736 -3.54321 0
M  V30 6435 H 608.553 4.74837 -2.45834 0
M  V30 6436 H 608.896 4.0674 -0.887047 0
M  V30 6437 H 609.429 3.20794 -2.35237 0
M  V30 6438 H 606.168 3.8992 -5.26918 0
M  V30 6439 H 605.688 4.68371 -3.74685 0
M  V30 6440 H 607.367 4.8095 -4.32777 0
M  V30 6441 N 607.499 1.09233 1.13605 0
M  V30 6442 C 608.91 0.846839 1.6639 0
M  V30 6443 C 609.261 -0.625031 1.85978 0
M  V30 6444 O 608.386 -1.48173 1.57714 0
M  V30 6445 C 608.981 1.5307 3.0225 0
M  V30 6446 C 607.54 1.33223 3.52035 0
M  V30 6447 C 606.687 1.58806 2.27323 0
M  V30 6448 H 609.638 1.25175 0.975541 0
M  V30 6449 H 609.659 0.96267 3.68121 0
M  V30 6450 H 609.171 2.60192 2.87961 0
M  V30 6451 H 607.272 0.282091 3.71531 0
M  V30 6452 H 607.385 2.0657 4.32279 0
M  V30 6453 H 605.749 1.01007 2.33815 0
M  V30 6454 H 606.532 2.67153 2.15602 0
M  V30 6455 N 608.977 -1.30795 0.87923 0
M  V30 6456 C 610.393 -1.48981 0.57243 0
M  V30 6457 C 610.593 -1.80719 -0.891236 0
M  V30 6458 O 609.649 -1.89136 -1.67283 0
M  V30 6459 C 610.962 -2.61721 1.48063 0
M  V30 6460 C 612.51 -2.75603 1.48365 0
M  V30 6461 C 612.985 -3.91449 2.37763 0
M  V30 6462 N 614.476 -3.98751 2.35695 0
M  V30 6463 C 615.211 -4.87684 3.01583 0
M  V30 6464 N 614.707 -5.81454 3.76674 0
M  V30 6465 N 616.5 -4.81005 2.90844 0
M  V30 6466 H 608.651 -1.08465 1.82617 0
M  V30 6467 H 610.914 -0.536813 0.781368 0
M  V30 6468 H 610.62 -2.45073 2.52254 0
M  V30 6469 H 610.494 -3.58071 1.18596 0
M  V30 6470 H 612.881 -2.9166 0.44927 0
M  V30 6471 H 612.962 -1.79891 1.81859 0
M  V30 6472 H 612.606 -3.76149 3.41283 0
M  V30 6473 H 612.536 -4.86487 2.01589 0
M  V30 6474 H 615.027 -3.31668 1.81121 0
M  V30 6475 H 615.34 -6.46063 4.24054 0
M  V30 6476 H 613.685 -5.81403 3.80782 0
M  V30 6477 H 616.876 -4.06728 2.31711 0
M  V30 6478 H 617.049 -5.50107 3.42471 0
M  V30 6479 N 610.455 -0.639598 -1.44038 0
M  V30 6480 C 611.704 -0.144885 -2.01179 0
M  V30 6481 C 612.017 1.24372 -1.50967 0
M  V30 6482 O 613.223 1.83291 -2.00292 0
M  V30 6483 C 611.679 -0.208244 -3.59297 0
M  V30 6484 C 611.287 -1.59869 -4.18504 0
M  V30 6485 C 613.031 0.229568 -4.23879 0
M  V30 6486 C 610.938 -1.61671 -5.68873 0
M  V30 6487 H 609.868 -0.0504005 -0.752314 0
M  V30 6488 H 612.519 -0.799639 -1.65161 0
M  V30 6489 H 610.901 0.513767 -3.92653 0
M  V30 6490 H 612.075 -2.34496 -3.96671 0
M  V30 6491 H 610.39 -1.98131 -3.66242 0
M  V30 6492 H 612.987 0.235758 -5.3418 0
M  V30 6493 H 613.33 1.25848 -3.96822 0
M  V30 6494 H 613.863 -0.440233 -3.95357 0
M  V30 6495 H 610.602 -2.62427 -6.00677 0
M  V30 6496 H 610.122 -0.913489 -5.92803 0
M  V30 6497 H 611.801 -1.35439 -6.32665 0
M  V30 6498 N 611.933 1.52934 -0.380664 0
M  V30 6499 C 613.349 1.59571 -0.0302429 0
M  V30 6500 C 613.549 1.39509 1.45394 0
M  V30 6501 O 612.605 1.20777 2.21741 0
M  V30 6502 C 613.918 2.96519 -0.499691 0
M  V30 6503 C 615.466 3.09672 -0.455204 0
M  V30 6504 C 615.941 4.49056 -0.900703 0
M  V30 6505 N 617.432 4.55215 -0.856367 0
M  V30 6506 C 618.167 5.61282 -1.17259 0
M  V30 6507 N 617.663 6.75035 -1.55885 0
M  V30 6508 N 619.456 5.51343 -1.0944 0
M  V30 6509 H 611.607 1.64224 -1.347 0
M  V30 6510 H 613.87 0.771033 -0.551554 0
M  V30 6511 H 613.576 3.16388 -1.53595 0
M  V30 6512 H 613.45 3.77052 0.105789 0
M  V30 6513 H 615.837 2.89504 0.571949 0
M  V30 6514 H 615.918 2.31113 -1.09638 0
M  V30 6515 H 615.562 4.69964 -1.92604 0
M  V30 6516 H 615.492 5.26068 -0.236629 0
M  V30 6517 H 617.983 3.73546 -0.572013 0
M  V30 6518 H 618.296 7.51926 -1.784 0
M  V30 6519 H 616.641 6.76388 -1.59764 0
M  V30 6520 H 619.832 4.61356 -0.791713 0
M  V30 6521 H 620.005 6.33905 -1.34417 0
M  V30 6522 N 613.412 0.11024 1.57214 0
M  V30 6523 C 614.344 -0.873497 2.11902 0
M  V30 6524 C 615.357 -1.23588 1.05971 0
M  V30 6525 O 616.546 -1.18636 1.33371 0
M  V30 6526 C 613.646 -2.17805 2.59643 0
M  V30 6527 C 612.819 -1.98869 3.89576 0
M  V30 6528 C 611.878 -3.12974 4.23006 0
M  V30 6529 O 610.904 -2.86272 4.91973 0
M  V30 6530 N 612.106 -4.39167 3.79622 0
M  V30 6531 H 614.871 -0.406317 2.96933 0
M  V30 6532 H 612.432 -0.074437 1.61729 0
M  V30 6533 H 614.424 -2.93117 2.79042 0
M  V30 6534 H 612.994 -2.55899 1.7954 0
M  V30 6535 H 612.214 -1.078 3.79174 0
M  V30 6536 H 613.502 -1.83512 4.74553 0
M  V30 6537 H 612.9 -4.63739 3.2398 0
M  V30 6538 H 611.457 -5.11379 4.04147 0
M  V30 6539 N 614.89 -1.56749 -0.16351 0
M  V30 6540 C 616.136 -1.82704 -0.880168 0
M  V30 6541 C 616.469 -0.689311 -1.81555 0
M  V30 6542 O 615.744 0.308224 -1.92042 0
M  V30 6543 C 616.027 -3.19084 -1.66905 0
M  V30 6544 C 615.88 -4.43397 -0.756269 0
M  V30 6545 C 617.199 -3.52493 -2.63509 0
M  V30 6546 H 614.318 -0.664608 -0.318535 0
M  V30 6547 H 616.96 -1.89438 -0.146036 0
M  V30 6548 H 615.11 -3.13475 -2.2949 0
M  V30 6549 H 616.782 -4.61079 -0.14269 0
M  V30 6550 H 615.025 -4.33752 -0.0647944 0
M  V30 6551 H 615.696 -5.3539 -1.34393 0
M  V30 6552 H 618.172 -3.58606 -2.11047 0
M  V30 6553 H 617.048 -4.48979 -3.15767 0
M  V30 6554 H 617.309 -2.77597 -3.44082 0
M  V30 6555 N 616.368 0.432326 -1.51554 0
M  V30 6556 C 617.617 1.17831 -1.63703 0
M  V30 6557 C 617.93 1.92229 -0.36156 0
M  V30 6558 O 619.136 2.69069 -0.362495 0
M  V30 6559 C 617.592 2.14318 -2.89129 0
M  V30 6560 C 617.2 1.45544 -4.23699 0
M  V30 6561 C 618.944 2.89319 -3.10636 0
M  V30 6562 C 616.851 2.40545 -5.4027 0
M  V30 6563 H 615.781 0.443533 -0.60975 0
M  V30 6564 H 618.432 0.444878 -1.78026 0
M  V30 6565 H 616.814 2.91117 -2.68452 0
M  V30 6566 H 617.988 0.742693 -4.54775 0
M  V30 6567 H 616.303 0.826772 -4.0811 0
M  V30 6568 H 618.9 3.60495 -3.94902 0
M  V30 6569 H 619.243 3.50951 -2.23918 0
M  V30 6570 H 619.776 2.19625 -3.31677 0
M  V30 6571 H 616.515 1.83594 -6.29264 0
M  V30 6572 H 616.035 3.09859 -5.13563 0
M  V30 6573 H 617.714 3.01569 -5.72421 0
M  V30 6574 N 617.846 1.41785 0.688094 0
M  V30 6575 C 618.778 1.40159 1.81351 0
M  V30 6576 C 619.791 0.30262 1.59963 0
M  V30 6577 O 620.98 0.564841 1.69327 0
M  V30 6578 C 618.08 1.16517 3.1824 0
M  V30 6579 C 617.253 2.38597 3.66593 0
M  V30 6580 C 616.312 2.10699 4.82174 0
M  V30 6581 O 615.338 2.83798 4.93404 0
M  V30 6582 N 616.54 1.10187 5.69947 0
M  V30 6583 H 619.305 2.3716 1.83236 0
M  V30 6584 H 616.866 1.36494 0.870697 0
M  V30 6585 H 618.858 0.957941 3.93199 0
M  V30 6586 H 617.428 0.280873 3.11336 0
M  V30 6587 H 616.648 2.74974 2.82459 0
M  V30 6588 H 617.936 3.19919 3.95638 0
M  V30 6589 H 617.334 0.497016 5.63512 0
M  V30 6590 H 615.891 0.954518 6.44773 0
M  V30 6591 N 619.324 -0.923095 1.27737 0
M  V30 6592 C 620.234 -2.05765 1.12685 0
M  V30 6593 C 621.25 -1.73911 0.0557197 0
M  V30 6594 O 622.426 -1.99674 0.263137 0
M  V30 6595 C 619.491 -3.37804 0.780363 0
M  V30 6596 C 618.552 -3.83326 1.93286 0
M  V30 6597 C 617.785 -5.09064 1.60281 0
M  V30 6598 O 618.008 -5.6809 0.512828 0
M  V30 6599 O 616.942 -5.50071 2.44347 0
M  V30 6600 H 620.768 -2.21378 2.07907 0
M  V30 6601 H 618.353 -1.04299 1.06968 0
M  V30 6602 H 620.235 -4.17097 0.600668 0
M  V30 6603 H 618.91 -3.23387 -0.142291 0
M  V30 6604 H 617.817 -3.049 2.16764 0
M  V30 6605 H 619.15 -4.02292 2.83588 0
M  V30 6606 N 620.802 -1.09834 -1.13024 0
M  V30 6607 C 622.049 -0.83695 -1.84395 0
M  V30 6608 C 622.377 0.637463 -1.83757 0
M  V30 6609 O 621.632 1.48554 -1.27398 0
M  V30 6610 C 621.931 -1.32263 -3.32026 0
M  V30 6611 C 621.597 -2.80739 -3.52841 0
M  V30 6612 C 620.259 -3.21286 -3.5823 0
M  V30 6613 C 622.611 -3.76449 -3.60466 0
M  V30 6614 C 619.939 -4.56308 -3.68781 0
M  V30 6615 C 622.291 -5.11266 -3.72546 0
M  V30 6616 C 620.955 -5.51397 -3.76189 0
M  V30 6617 H 620.225 -0.306262 -0.674748 0
M  V30 6618 H 622.872 -1.37385 -1.33408 0
M  V30 6619 H 621.177 -0.705618 -3.85394 0
M  V30 6620 H 622.874 -1.09695 -3.85705 0
M  V30 6621 H 619.464 -2.48363 -3.49305 0
M  V30 6622 H 623.648 -3.46234 -3.55578 0
M  V30 6623 H 618.904 -4.86832 -3.69871 0
M  V30 6624 H 623.078 -5.85279 -3.77388 0
M  V30 6625 H 620.705 -6.56017 -3.84117 0
M  V30 6626 N 622.28 1.30327 -0.886154 0
M  V30 6627 C 623.527 1.96097 -0.505192 0
M  V30 6628 C 623.855 1.69952 0.945868 0
M  V30 6629 O 623.11 0.997653 1.68361 0
M  V30 6630 C 623.409 3.49906 -0.728042 0
M  V30 6631 C 623.075 3.96103 -2.15437 0
M  V30 6632 C 621.737 4.08428 -2.5444 0
M  V30 6633 C 624.089 4.20177 -3.08384 0
M  V30 6634 C 621.417 4.42189 -3.85598 0
M  V30 6635 C 623.769 4.55407 -4.39075 0
M  V30 6636 C 622.433 4.65941 -4.7797 0
M  V30 6637 H 621.703 0.71757 -0.184863 0
M  V30 6638 H 624.35 1.55171 -1.12223 0
M  V30 6639 H 622.655 3.9179 -0.027978 0
M  V30 6640 H 624.352 3.98869 -0.412862 0
M  V30 6641 H 620.942 3.87017 -1.84162 0
M  V30 6642 H 625.126 4.10134 -2.7947 0
M  V30 6643 H 620.382 4.48544 -4.15473 0
M  V30 6644 H 624.556 4.72986 -5.11133 0
M  V30 6645 H 622.183 4.91856 -5.79639 0
M  V30 6646 N 623.758 0.647228 1.43697 0
M  V30 6647 C 625.006 0.157876 2.01482 0
M  V30 6648 C 625.327 -1.23039 1.51282 0
M  V30 6649 O 624.597 -1.82071 0.722982 0
M  V30 6650 H 623.177 0.0553745 0.744945 0
M  V30 6651 H 625.839 0.83755 1.75986 0
M  V30 6652 H 624.935 0.137895 3.11795 0
M  V30 6653 N 625.236 -1.5273 0.388769 0
M  V30 6654 C 626.183 -2.26437 -0.446639 0
M  V30 6655 C 627.153 -1.28025 -1.05824 0
M  V30 6656 O 628.338 -1.56852 -1.08637 0
M  V30 6657 C 625.478 -3.07407 -1.56828 0
M  V30 6658 C 624.591 -4.20747 -0.979589 0
M  V30 6659 C 623.726 -4.89113 -2.07224 0
M  V30 6660 C 622.765 -5.94447 -1.45942 0
M  V30 6661 N 621.902 -6.56411 -2.49135 0
M  V30 6662 H 626.742 -2.97404 0.18837 0
M  V30 6663 H 624.279 -1.46727 0.104725 0
M  V30 6664 H 626.237 -3.52642 -2.22934 0
M  V30 6665 H 624.867 -2.3865 -2.17361 0
M  V30 6666 H 623.919 -3.7983 -0.208151 0
M  V30 6667 H 625.231 -4.9637 -0.491747 0
M  V30 6668 H 624.385 -5.3765 -2.81101 0
M  V30 6669 H 623.124 -4.13013 -2.59368 0
M  V30 6670 H 622.129 -5.4525 -0.705894 0
M  V30 6671 H 623.354 -6.7248 -0.945932 0
M  V30 6672 H 621.3 -5.83152 -3.00449 0
M  V30 6673 H 621.217 -7.27645 -2.05105 0
M  V30 6674 H 622.485 -7.09592 -3.22644 0
M  V30 6675 N 626.714 -0.118576 -1.57153 0
M  V30 6676 C 627.991 0.583062 -1.86708 0
M  V30 6677 C 628.371 1.84841 -1.01967 0
M  V30 6678 O 627.719 2.28288 -0.0984673 0
M  V30 6679 C 627.929 0.875912 -3.3783 0
M  V30 6680 C 629.277 1.22916 -4.0642 0
M  V30 6681 O 630.301 0.966188 -3.42846 0
M  V30 6682 O 629.16 1.72269 -5.18638 0
M  V30 6683 H 626.254 0.294185 -0.772906 0
M  V30 6684 H 628.8 -0.153048 -1.69008 0
M  V30 6685 H 627.572 -0.0207776 -3.91294 0
M  V30 6686 H 627.195 1.66719 -3.60958 0
M  V30 6687 N 628.193 1.56834 0.155195 0
M  V30 6688 C 629.604 1.72421 0.716082 0
M  V30 6689 C 629.955 0.731685 1.82046 0
M  V30 6690 O 629.08 -0.103481 2.16152 0
M  V30 6691 C 629.675 3.12629 1.30571 0
M  V30 6692 C 628.234 3.29846 1.81325 0
M  V30 6693 C 627.381 2.68359 0.698494 0
M  V30 6694 H 630.332 1.58544 -0.0703861 0
M  V30 6695 H 630.353 3.12174 2.1755 0
M  V30 6696 H 629.865 3.84844 0.501701 0
M  V30 6697 H 627.966 2.62614 2.64319 0
M  V30 6698 H 628.079 4.37727 1.9476 0
M  V30 6699 H 626.443 2.28604 1.12305 0
M  V30 6700 H 627.226 3.43171 -0.0939366 0
M  V30 6701 N 629.671 -0.424282 1.51781 0
M  V30 6702 C 630.619 -1.53649 1.74628 0
M  V30 6703 C 631.613 -1.57923 0.612922 0
M  V30 6704 O 632.819 -1.61511 0.794618 0
M  V30 6705 H 629.194 -0.510706 0.551981 0
M  V30 6706 H 631.165 -1.31558 2.67834 0
M  V30 6707 C 629.914 -2.91177 1.9003 0
M  V30 6708 H 629.237 -2.88625 2.76651 0
M  V30 6709 H 630.677 -3.6833 2.10021 0
M  V30 6710 C 629.136 -3.30303 0.663435 0
M  V30 6711 O 629.666 -4.01315 -0.175812 0
M  V30 6712 N 627.872 -2.86201 0.503723 0
M  V30 6713 H 627.419 -2.28583 1.18776 0
M  V30 6714 H 627.377 -3.12741 -0.322575 0
M  V30 6715 N 631.149 -1.42148 -0.680565 0
M  V30 6716 C 632.377 -1.45696 -1.46902 0
M  V30 6717 C 632.792 -0.0665858 -1.88683 0
M  V30 6718 O 632.149 0.917436 -1.57764 0
M  V30 6719 C 632.2 -2.37898 -2.72188 0
M  V30 6720 O 631.921 -3.71526 -2.32163 0
M  V30 6721 C 633.422 -2.50407 -3.65802 0
M  V30 6722 H 630.642 -0.495729 -0.45221 0
M  V30 6723 H 633.186 -1.866 -0.836709 0
M  V30 6724 H 631.341 -2.00263 -3.31622 0
M  V30 6725 H 631.755 -4.20849 -3.13027 0
M  V30 6726 H 633.229 -3.19056 -4.50452 0
M  V30 6727 H 633.706 -1.5401 -4.11312 0
M  V30 6728 H 634.312 -2.8874 -3.12265 0
M  V30 6729 N 632.627 0.916307 -1.28225 0
M  V30 6730 C 633.852 1.7043 -1.18188 0
M  V30 6731 C 634.277 1.86346 0.256274 0
M  V30 6732 O 633.635 1.37175 1.18544 0
M  V30 6733 C 633.683 3.07546 -1.88275 0
M  V30 6734 O 632.787 3.94904 -1.18848 0
M  V30 6735 H 632.128 0.521967 -0.410423 0
M  V30 6736 H 634.658 1.14589 -1.69501 0
M  V30 6737 H 634.668 3.57793 -1.96082 0
M  V30 6738 H 633.343 2.95279 -2.92887 0
M  V30 6739 H 631.92 3.53339 -1.19187 0
M  V30 6740 N 634.105 1.10431 1.1244 0
M  V30 6741 C 635.351 0.847972 1.84221 0
M  V30 6742 C 635.684 -0.624903 1.83871 0
M  V30 6743 O 634.959 -1.46074 1.28423 0
M  V30 6744 C 635.242 1.39695 3.319 0
M  V30 6745 C 635.095 2.93668 3.40704 0
M  V30 6746 C 636.414 1.03924 4.27654 0
M  V30 6747 H 633.533 0.309502 0.668863 0
M  V30 6748 H 636.175 1.36745 1.31912 0
M  V30 6749 H 634.325 0.955095 3.76577 0
M  V30 6750 H 635.997 3.46379 3.04662 0
M  V30 6751 H 634.24 3.30272 2.81252 0
M  V30 6752 H 634.911 3.27162 4.446 0
M  V30 6753 H 637.387 1.42049 3.91102 0
M  V30 6754 H 636.263 1.45027 5.29394 0
M  V30 6755 H 636.524 -0.051336 4.4207 0
M  V30 6756 N 635.583 -1.29855 0.893053 0
M  V30 6757 C 636.86 -1.90694 0.435336 0
M  V30 6758 C 637.24 -1.8111 -1.08454 0
M  V30 6759 O 636.588 -1.23352 -1.92345 0
M  V30 6760 C 636.798 -3.36033 0.942472 0
M  V30 6761 C 638.146 -4.13083 0.982226 0
M  V30 6762 O 639.17 -3.4491 0.889686 0
M  V30 6763 O 638.029 -5.34896 1.12022 0
M  V30 6764 H 635.123 -0.815978 0.134567 0
M  V30 6765 H 637.669 -1.38367 0.982484 0
M  V30 6766 H 636.441 -3.37132 1.9864 0
M  V30 6767 H 636.064 -3.95828 0.374952 0
M  V30 6768 N 637.061 -0.65484 -1.43351 0
M  V30 6769 C 638.472 -0.248506 -1.85039 0
M  V30 6770 C 638.823 1.20526 -1.54816 0
M  V30 6771 O 637.948 1.92016 -0.99794 0
M  V30 6772 C 638.543 -0.444241 -3.35875 0
M  V30 6773 C 637.102 -0.0922108 -3.76287 0
M  V30 6774 C 636.249 -0.746327 -2.67068 0
M  V30 6775 H 639.2 -0.8584 -1.33481 0
M  V30 6776 H 639.221 0.309762 -3.79237 0
M  V30 6777 H 638.733 -1.50239 -3.5784 0
M  V30 6778 H 636.834 0.96328 -3.59933 0
M  V30 6779 H 636.947 -0.518807 -4.76283 0
M  V30 6780 H 635.311 -0.179416 -2.54067 0
M  V30 6781 H 636.094 -1.80754 -2.91861 0
M  V30 6782 N 638.539 1.52521 -0.396863 0
M  V30 6783 C 639.816 1.94112 0.240842 0
M  V30 6784 C 640.196 1.33288 1.637 0
M  V30 6785 O 639.544 0.503901 2.22875 0
M  V30 6786 C 639.754 3.48033 0.259567 0
M  V30 6787 C 641.102 4.21822 0.484866 0
M  V30 6788 O 642.126 3.54579 0.339453 0
M  V30 6789 O 640.985 5.41042 0.770412 0
M  V30 6790 H 638.079 0.812973 0.151671 0
M  V30 6791 H 640.625 1.63572 -0.451918 0
M  V30 6792 H 639.397 3.84655 -0.718078 0
M  V30 6793 H 639.02 3.84899 0.996937 0
M  V30 6794 N 640.017 0.126909 1.57088 0
M  V30 6795 C 640.947 -0.816847 2.18746 0
M  V30 6796 C 641.928 -1.27161 1.12979 0
M  V30 6797 O 643.113 -1.33279 1.41246 0
M  V30 6798 C 640.243 -2.06398 2.79315 0
M  V30 6799 C 639.197 -1.74673 3.90735 0
M  V30 6800 C 638.523 -3.06482 4.38147 0
M  V30 6801 C 639.823 -1.0089 5.12463 0
M  V30 6802 H 641.517 -0.303032 2.97863 0
M  V30 6803 H 639.063 -0.144314 1.43275 0
M  V30 6804 H 641.016 -2.72885 3.2111 0
M  V30 6805 H 639.74 -2.60118 1.975 0
M  V30 6806 H 638.399 -1.10572 3.49527 0
M  V30 6807 H 638.047 -3.58152 3.5318 0
M  V30 6808 H 637.747 -2.86025 5.13287 0
M  V30 6809 H 639.271 -3.74073 4.82599 0
M  V30 6810 H 640.685 -1.57546 5.51228 0
M  V30 6811 H 639.082 -0.905006 5.93237 0
M  V30 6812 H 640.152 0.00297335 4.849 0
M  V30 6813 N 641.495 -1.56914 -0.146875 0
M  V30 6814 C 642.458 -1.97368 -1.16526 0
M  V30 6815 C 643.458 -0.860223 -1.35856 0
M  V30 6816 O 644.648 -1.12684 -1.32846 0
M  V30 6817 C 641.78 -2.28974 -2.52555 0
M  V30 6818 H 642.973 -2.88523 -0.818209 0
M  V30 6819 H 640.526 -1.5135 -0.390221 0
M  V30 6820 H 641.261 -1.40611 -2.92231 0
M  V30 6821 H 641.046 -3.10157 -2.39886 0
M  V30 6822 H 642.536 -2.61109 -3.25902 0
M  V30 6823 N 642.974 0.416227 -1.52004 0
M  V30 6824 C 644.22 1.16555 -1.6596 0
M  V30 6825 C 644.553 1.90347 -0.384906 0
M  V30 6826 O 643.828 1.84474 0.616405 0
M  V30 6827 C 644.111 2.1657 -2.87696 0
M  V30 6828 C 643.964 1.46722 -4.25197 0
M  V30 6829 C 645.283 3.17321 -3.04951 0
M  V30 6830 H 642.402 0.422369 -0.603965 0
M  V30 6831 H 645.044 0.452141 -1.84542 0
M  V30 6832 H 643.194 2.77411 -2.71985 0
M  V30 6833 H 644.866 0.89056 -4.52622 0
M  V30 6834 H 643.109 0.769263 -4.26925 0
M  V30 6835 H 643.78 2.19665 -5.0641 0
M  V30 6836 H 646.256 2.66552 -3.19514 0
M  V30 6837 H 645.132 3.84573 -3.91656 0
M  V30 6838 H 645.393 3.84643 -2.17951 0
M  V30 6839 N 644.452 1.42507 0.673017 0
M  V30 6840 C 645.698 1.43284 1.43519 0
M  V30 6841 C 646.031 0.049668 1.94136 0
M  V30 6842 O 645.306 -0.926369 1.71022 0
M  V30 6843 C 645.589 2.45874 2.63093 0
M  V30 6844 C 645.442 3.93388 2.18096 0
M  V30 6845 C 646.761 2.45431 3.6531 0
M  V30 6846 H 643.88 0.521752 0.520522 0
M  V30 6847 H 646.522 1.73932 0.764701 0
M  V30 6848 H 644.672 2.19869 3.20296 0
M  V30 6849 H 646.344 4.30379 1.66046 0
M  V30 6850 H 644.587 4.07169 1.49652 0
M  V30 6851 H 645.258 4.60752 3.03993 0
M  V30 6852 H 647.734 2.68561 3.17827 0
M  V30 6853 H 646.61 3.19189 4.46553 0
M  V30 6854 H 646.871 1.48092 4.16559 0
M  V30 6855 N 645.93 -0.909495 1.28709 0
M  V30 6856 C 647.158 -1.69272 1.18973 0
M  V30 6857 C 647.573 -1.87123 -0.251048 0
M  V30 6858 O 646.93 -1.40127 -1.16922 0
M  V30 6859 C 646.981 -3.08257 1.88839 0
M  V30 6860 O 646.702 -2.91228 3.27289 0
M  V30 6861 C 648.203 -4.02642 1.85457 0
M  V30 6862 H 645.423 -0.528999 0.412797 0
M  V30 6863 H 647.967 -1.13803 1.69909 0
M  V30 6864 H 646.122 -3.6053 1.41762 0
M  V30 6865 H 646.536 -3.79223 3.6234 0
M  V30 6866 H 648.01 -4.97613 2.38925 0
M  V30 6867 H 648.487 -4.31327 0.827893 0
M  V30 6868 H 649.093 -3.56298 2.32233 0
M  V30 6869 N 647.408 -1.11026 -1.11852 0
M  V30 6870 C 648.656 -0.854769 -1.83134 0
M  V30 6871 C 648.977 0.621375 -1.84835 0
M  V30 6872 O 648.247 1.45129 -1.31584 0
M  V30 6873 H 646.827 -0.313229 -0.678157 0
M  V30 6874 H 649.489 -1.40178 -1.35411 0
M  V30 6875 H 648.585 -1.22311 -2.87135 0
M  V30 6876 N 648.886 1.2938 -0.899927 0
M  V30 6877 C 650.132 1.9584 -0.526742 0
M  V30 6878 C 650.465 1.70774 0.924651 0
M  V30 6879 O 649.74 1.02084 1.65557 0
M  V30 6880 C 650.023 3.50638 -0.820062 0
M  V30 6881 C 649.876 3.85161 -2.32317 0
M  V30 6882 C 651.195 4.3903 -0.30671 0
M  V30 6883 H 648.314 0.711322 -0.192848 0
M  V30 6884 H 650.956 1.52992 -1.12665 0
M  V30 6885 H 649.106 3.87265 -0.309491 0
M  V30 6886 H 650.778 3.58477 -2.9033 0
M  V30 6887 H 649.021 3.32696 -2.78381 0
M  V30 6888 H 649.692 4.93204 -2.47898 0
M  V30 6889 H 652.168 4.09396 -0.743908 0
M  V30 6890 H 651.044 5.46226 -0.541144 0
M  V30 6891 H 651.305 4.34937 0.792588 0
M  V30 6892 N 650.364 0.662433 1.43002 0
M  V30 6893 C 651.327 -0.0142016 2.29196 0
M  V30 6894 C 652.327 -0.741394 1.42688 0
M  V30 6895 O 653.517 -0.581257 1.64216 0
M  V30 6896 C 650.649 -1.03084 3.24941 0
M  V30 6897 H 651.842 0.7443 2.90517 0
M  V30 6898 H 649.395 0.424133 1.50435 0
M  V30 6899 H 650.13 -1.81826 2.68533 0
M  V30 6900 H 649.915 -0.512946 3.8873 0
M  V30 6901 H 651.405 -1.50308 3.89612 0
M  V30 6902 N 651.842 -1.52309 0.404946 0
M  V30 6903 C 653.091 -2.00952 -0.173529 0
M  V30 6904 C 653.404 -1.29512 -1.46581 0
M  V30 6905 O 654.61 -1.6895 -2.12528 0
M  V30 6906 C 653.066 -3.58097 -0.359801 0
M  V30 6907 C 652.674 -4.38449 0.920138 0
M  V30 6908 C 654.418 -4.14984 -0.893794 0
M  V30 6909 C 652.325 -5.87227 0.701285 0
M  V30 6910 H 651.255 -0.750871 -0.0686244 0
M  V30 6911 H 653.906 -1.75687 0.529749 0
M  V30 6912 H 652.288 -3.79675 -1.12531 0
M  V30 6913 H 653.462 -4.28633 1.69147 0
M  V30 6914 H 651.777 -3.92859 1.38024 0
M  V30 6915 H 654.374 -5.23813 -1.0735 0
M  V30 6916 H 654.717 -3.72072 -1.8673 0
M  V30 6917 H 655.25 -3.97358 -0.187453 0
M  V30 6918 H 651.989 -6.34491 1.64624 0
M  V30 6919 H 651.509 -5.99792 -0.0308288 0
M  V30 6920 H 653.188 -6.46096 0.341846 0
M  V30 6921 N 653.32 -0.135238 -1.57019 0
M  V30 6922 C 654.252 0.839675 -2.13265 0
M  V30 6923 C 655.265 1.21887 -1.07923 0
M  V30 6924 O 656.454 1.16499 -1.35241 0
M  V30 6925 C 653.554 2.13647 -2.63075 0
M  V30 6926 C 652.727 1.92646 -3.92691 0
M  V30 6927 C 651.786 3.06205 -4.27931 0
M  V30 6928 O 650.812 2.78409 -4.96465 0
M  V30 6929 N 652.014 4.33072 -3.86561 0
M  V30 6930 H 654.779 0.359026 -2.97542 0
M  V30 6931 H 652.34 0.0486979 -1.61827 0
M  V30 6932 H 654.332 2.88641 -2.8367 0
M  V30 6933 H 652.902 2.5301 -1.83588 0
M  V30 6934 H 652.122 1.01754 -3.80841 0
M  V30 6935 H 653.41 1.75939 -4.77413 0
M  V30 6936 H 652.808 4.58526 -3.31316 0
M  V30 6937 H 651.365 5.04885 -4.12231 0
M  V30 6938 N 654.798 1.5699 0.138552 0
M  V30 6939 C 655.761 1.97984 1.15478 0
M  V30 6940 C 656.761 0.867416 1.35398 0
M  V30 6941 O 657.951 1.13387 1.32246 0
M  V30 6942 C 655.083 2.3031 2.51337 0
M  V30 6943 H 656.276 2.88953 0.802896 0
M  V30 6944 H 653.829 1.51555 0.382189 0
M  V30 6945 H 654.564 1.42159 2.91481 0
M  V30 6946 H 654.349 3.11425 2.38237 0
M  V30 6947 H 655.839 2.62834 3.24512 0
M  V30 6948 N 656.276 -0.40816 1.52223 0
M  V30 6949 C 657.524 -1.15274 1.66001 0
M  V30 6950 C 657.845 -1.91003 0.392803 0
M  V30 6951 O 657.115 -1.8673 -0.592336 0
M  V30 6952 H 655.695 -0.428526 0.611861 0
M  V30 6953 H 658.357 -0.46512 1.89269 0
M  V30 6954 H 657.453 -1.86628 2.50153 0
M  V30 6955 N 657.755 -1.42862 -0.66545 0
M  V30 6956 C 659.004 -1.43119 -1.42126 0
M  V30 6957 C 659.317 -0.0545297 -1.95524 0
M  V30 6958 O 660.523 0.0654747 -2.71421 0
M  V30 6959 C 658.979 -2.51797 -2.5715 0
M  V30 6960 C 658.587 -3.95514 -2.10411 0
M  V30 6961 C 660.331 -2.61233 -3.346 0
M  V30 6962 C 658.238 -4.95682 -3.22573 0
M  V30 6963 H 657.168 -0.532349 -0.533966 0
M  V30 6964 H 659.819 -1.68806 -0.719506 0
M  V30 6965 H 658.201 -2.19292 -3.29738 0
M  V30 6966 H 659.375 -4.3742 -1.44915 0
M  V30 6967 H 657.69 -3.90012 -1.45874 0
M  V30 6968 H 660.287 -3.33248 -4.18151 0
M  V30 6969 H 660.63 -1.65896 -3.81817 0
M  V30 6970 H 661.163 -2.9298 -2.69087 0
M  V30 6971 H 657.902 -5.92529 -2.80338 0
M  V30 6972 H 657.422 -4.58399 -3.86821 0
M  V30 6973 H 659.101 -5.17828 -3.87896 0
M  V30 6974 N 659.233 0.902656 -1.29189 0
M  V30 6975 C 660.51 1.63296 -1.07674 0
M  V30 6976 C 660.89 2.07649 0.380137 0
M  V30 6977 O 660.238 1.82997 1.36837 0
M  V30 6978 C 660.448 2.81603 -2.06158 0
M  V30 6979 C 661.796 3.52359 -2.36914 0
M  V30 6980 O 662.82 2.91767 -2.04329 0
M  V30 6981 O 661.679 4.61586 -2.92576 0
M  V30 6982 H 658.773 0.716889 -0.41231 0
M  V30 6983 H 661.319 0.950984 -1.4055 0
M  V30 6984 H 660.091 2.46004 -3.04299 0
M  V30 6985 H 659.714 3.57508 -1.73993 0
M  V30 6986 N 660.711 1.11618 1.11262 0
M  V30 6987 C 661.959 0.864469 1.82678 0
M  V30 6988 C 662.28 -0.611564 1.85162 0
M  V30 6989 O 661.55 -1.44429 1.32352 0
M  V30 6990 H 660.13 0.316821 0.676486 0
M  V30 6991 H 662.792 1.40894 1.34666 0
M  V30 6992 H 661.888 1.23832 2.86482 0
M  V30 6993 N 662.189 -1.289 0.906776 0
M  V30 6994 C 663.437 -1.94883 0.535266 0
M  V30 6995 C 663.758 -1.71784 -0.922791 0
M  V30 6996 O 663.028 -1.05359 -1.65156 0
M  V30 6997 H 661.608 -0.721109 0.194962 0
M  V30 6998 H 664.27 -1.57018 1.15461 0
M  V30 6999 H 663.366 -3.03591 0.723821 0
M  V30 7000 N 663.667 -0.670007 -1.42649 0
M  V30 7001 C 664.892 -0.196955 -2.06463 0
M  V30 7002 C 665.317 1.1352 -1.49983 0
M  V30 7003 O 664.675 1.705 -0.616397 0
M  V30 7004 C 664.723 -0.137381 -3.60338 0
M  V30 7005 O 663.827 0.895523 -4.02559 0
M  V30 7006 H 663.168 -0.102579 -0.656029 0
M  V30 7007 H 665.698 -0.917669 -1.82866 0
M  V30 7008 H 665.708 0.0403625 -4.0798 0
M  V30 7009 H 664.383 -1.10977 -4.0082 0
M  V30 7010 H 662.96 0.689209 -3.66476 0
M  V30 7011 N 665.145 1.52092 -0.413018 0
M  V30 7012 C 666.391 2.02815 0.154104 0
M  V30 7013 C 666.746 1.293 1.42475 0
M  V30 7014 O 666.039 0.391835 1.87551 0
M  V30 7015 C 666.233 3.54529 0.4521 0
M  V30 7016 C 666.062 4.4274 -0.788116 0
M  V30 7017 C 664.832 4.87903 -1.31447 0
M  V30 7018 C 667.03 4.86522 -1.66735 0
M  V30 7019 N 665.012 5.60254 -2.50976 0
M  V30 7020 C 666.383 5.57692 -2.70886 0
M  V30 7021 C 668.438 4.68534 -1.68465 0
M  V30 7022 C 667.141 6.12783 -3.76682 0
M  V30 7023 C 669.167 5.24524 -2.73182 0
M  V30 7024 C 668.529 5.9562 -3.76054 0
M  V30 7025 H 664.628 0.781796 0.0178567 0
M  V30 7026 H 667.212 1.86223 -0.568237 0
M  V30 7027 H 665.383 3.71186 1.14348 0
M  V30 7028 H 667.115 3.91934 1.00844 0
M  V30 7029 H 663.87 4.65504 -0.871931 0
M  V30 7030 H 664.294 6.01069 -3.11521 0
M  V30 7031 H 668.936 4.13051 -0.902708 0
M  V30 7032 H 666.654 6.67335 -4.55729 0
M  V30 7033 H 670.24 5.12473 -2.75433 0
M  V30 7034 H 669.12 6.38169 -4.55752 0
M  V30 7035 N 666.623 0.143563 1.56945 0
M  V30 7036 C 668.034 -0.37783 1.82837 0
M  V30 7037 C 668.385 -1.64967 1.06209 0
M  V30 7038 O 667.51 -2.14221 0.306291 0
M  V30 7039 C 668.105 -0.692274 3.31652 0
M  V30 7040 C 666.664 -1.1582 3.58138 0
M  V30 7041 C 665.811 -0.17951 2.76718 0
M  V30 7042 H 668.762 0.368317 1.54367 0
M  V30 7043 H 668.783 -1.54729 3.47619 0
M  V30 7044 H 668.295 0.233572 3.87397 0
M  V30 7045 H 666.396 -2.10011 3.07776 0
M  V30 7046 H 666.509 -1.08655 4.66616 0
M  V30 7047 H 664.873 -0.671458 2.4569 0
M  V30 7048 H 665.656 0.739865 3.35233 0
M  V30 7049 N 668.101 -1.57061 -0.130224 0
M  V30 7050 C 669.031 -2.02552 -1.16168 0
M  V30 7051 C 670.012 -0.907971 -1.4384 0
M  V30 7052 O 671.197 -1.17693 -1.54473 0
M  V30 7053 C 668.327 -2.42035 -2.49071 0
M  V30 7054 C 667.281 -3.5713 -2.35886 0
M  V30 7055 C 666.607 -3.82478 -3.7365 0
M  V30 7056 C 667.907 -4.89236 -1.8288 0
M  V30 7057 H 669.601 -2.8897 -0.783359 0
M  V30 7058 H 667.147 -1.39021 -0.375376 0
M  V30 7059 H 669.1 -2.72462 -3.21469 0
M  V30 7060 H 667.824 -1.52573 -2.88771 0
M  V30 7061 H 666.483 -3.26895 -1.65938 0
M  V30 7062 H 666.131 -2.9024 -4.10816 0
M  V30 7063 H 665.831 -4.59944 -3.65685 0
M  V30 7064 H 667.355 -4.15347 -4.47571 0
M  V30 7065 H 668.769 -5.18272 -2.45085 0
M  V30 7066 H 667.166 -5.70624 -1.85763 0
M  V30 7067 H 668.236 -4.78494 -0.785571 0
M  V30 7068 N 669.579 0.400081 -1.52437 0
M  V30 7069 C 670.511 1.50729 -1.72666 0
M  V30 7070 C 671.524 1.51058 -0.607075 0
M  V30 7071 O 672.713 1.5516 -0.88248 0
M  V30 7072 C 669.813 2.89604 -1.76019 0
M  V30 7073 C 668.986 3.13365 -3.05157 0
M  V30 7074 C 668.045 4.32163 -3.00203 0
M  V30 7075 O 667.071 4.29004 -3.74092 0
M  V30 7076 N 668.273 5.3776 -2.18619 0
M  V30 7077 H 671.038 1.33767 -2.68191 0
M  V30 7078 H 668.599 0.58948 -1.50787 0
M  V30 7079 H 670.591 3.67159 -1.70225 0
M  V30 7080 H 669.161 2.99979 -0.879284 0
M  V30 7081 H 668.381 2.23774 -3.24529 0
M  V30 7082 H 669.669 3.26089 -3.90568 0
M  V30 7083 H 669.067 5.43177 -1.58035 0
M  V30 7084 H 667.624 6.14023 -2.18674 0
M  V30 7085 N 671.057 1.43213 0.657864 0
M  V30 7086 C 672.303 1.44798 1.41991 0
M  V30 7087 C 672.636 0.070256 1.94073 0
M  V30 7088 O 671.911 -0.908177 1.71995 0
M  V30 7089 C 672.194 2.4865 2.60471 0
M  V30 7090 C 672.047 3.95679 2.13911 0
M  V30 7091 C 673.366 2.49292 3.62686 0
M  V30 7092 H 670.485 0.527244 0.514959 0
M  V30 7093 H 673.127 1.74733 0.74621 0
M  V30 7094 H 671.277 2.23254 3.17946 0
M  V30 7095 H 672.949 4.32116 1.61472 0
M  V30 7096 H 671.192 4.08733 1.45325 0
M  V30 7097 H 671.863 4.6395 2.99089 0
M  V30 7098 H 674.339 2.71917 3.14961 0
M  V30 7099 H 673.215 3.23907 4.43143 0
M  V30 7100 H 673.476 1.52502 4.14964 0
M  V30 7101 N 672.536 -0.895792 1.29666 0
M  V30 7102 C 673.761 -1.68528 1.20885 0
M  V30 7103 C 674.186 -1.8673 -0.226595 0
M  V30 7104 O 673.544 -1.39044 -1.16347 0
M  V30 7105 C 673.592 -3.04512 1.93144 0
M  V30 7106 O 672.696 -3.92963 1.25115 0
M  V30 7107 H 672.037 -0.515371 0.418675 0
M  V30 7108 H 674.567 -1.11878 1.71302 0
M  V30 7109 H 674.577 -3.54628 2.0175 0
M  V30 7110 H 673.252 -2.90582 2.97548 0
M  V30 7111 H 671.829 -3.51399 1.24794 0
M  V30 7112 N 674.014 -1.12206 -1.10668 0
M  V30 7113 C 674.977 -0.790867 -2.15123 0
M  V30 7114 C 675.977 0.193618 -1.5963 0
M  V30 7115 O 677.167 -0.0318728 -1.74171 0
M  V30 7116 C 674.299 -0.174797 -3.40452 0
M  V30 7117 H 675.492 -1.7163 -2.45933 0
M  V30 7118 H 673.045 -0.924993 -1.2599 0
M  V30 7119 H 673.78 0.760478 -3.15257 0
M  V30 7120 H 673.565 -0.88358 -3.82015 0
M  V30 7121 H 675.055 0.0405162 -4.1758 0
M  V30 7122 N 675.492 1.28418 -0.913599 0
M  V30 7123 C 676.422 2.29713 -0.418847 0
M  V30 7124 C 677.403 1.62165 0.513469 0
M  V30 7125 O 678.588 1.89576 0.421235 0
M  V30 7126 C 675.718 3.45612 0.342042 0
M  V30 7127 C 674.672 4.25056 -0.501123 0
M  V30 7128 C 673.998 5.3329 0.388097 0
M  V30 7129 C 675.298 4.91814 -1.75831 0
M  V30 7130 H 676.992 2.71346 -1.26538 0
M  V30 7131 H 674.538 1.30446 -0.609903 0
M  V30 7132 H 676.491 4.15562 0.699 0
M  V30 7133 H 675.215 3.02858 1.22248 0
M  V30 7134 H 673.874 3.56833 -0.840598 0
M  V30 7135 H 673.522 4.8678 1.26707 0
M  V30 7136 H 673.222 5.87347 -0.172459 0
M  V30 7137 H 674.746 6.06088 0.74094 0
M  V30 7138 H 676.16 5.54126 -1.47026 0
M  V30 7139 H 674.557 5.55866 -2.26126 0
M  V30 7140 H 675.627 4.16313 -2.4862 0
M  V30 7141 N 676.97 0.677563 1.42291 0
M  V30 7142 C 677.88 0.000962654 2.346 0
M  V30 7143 C 678.896 -0.785833 1.55244 0
M  V30 7144 O 680.072 -0.727523 1.87801 0
M  V30 7145 C 677.137 -0.936746 3.33805 0
M  V30 7146 C 676.198 -0.144173 4.29058 0
M  V30 7147 C 675.431 -1.03722 5.23524 0
M  V30 7148 O 675.654 -2.27675 5.22992 0
M  V30 7149 O 674.588 -0.496542 5.99848 0
M  V30 7150 H 678.414 0.761397 2.94001 0
M  V30 7151 H 675.999 0.43781 1.42841 0
M  V30 7152 H 677.881 -1.47497 3.94744 0
M  V30 7153 H 676.556 -1.67698 2.76874 0
M  V30 7154 H 675.463 0.438224 3.71524 0
M  V30 7155 H 676.796 0.55701 4.89038 0
M  V30 7156 N 678.448 -1.51871 0.421078 0
M  V30 7157 C 679.697 -2.01125 -0.152206 0
M  V30 7158 C 680.01 -1.3106 -1.45199 0
M  V30 7159 O 681.216 -1.71195 -2.10724 0
M  V30 7160 C 679.672 -3.58458 -0.3218 0
M  V30 7161 C 679.28 -4.37448 0.96659 0
M  V30 7162 C 681.024 -4.15908 -0.84973 0
M  V30 7163 C 678.931 -5.86451 0.763529 0
M  V30 7164 H 677.861 -0.751556 -0.0606565 0
M  V30 7165 H 680.512 -1.75115 0.548354 0
M  V30 7166 H 678.894 -3.80847 -1.08498 0
M  V30 7167 H 680.068 -4.26814 1.73684 0
M  V30 7168 H 678.383 -3.91373 1.42183 0
M  V30 7169 H 680.98 -5.24922 -1.01788 0
M  V30 7170 H 681.323 -3.74031 -1.82774 0
M  V30 7171 H 681.856 -3.97535 -0.145297 0
M  V30 7172 H 678.595 -6.3271 1.71344 0
M  V30 7173 H 678.115 -5.99791 0.0327889 0
M  V30 7174 H 679.794 -6.45697 0.410354 0
M  V30 7175 N 679.926 -0.151884 -1.56866 0
M  V30 7176 C 681.337 0.368128 -1.83035 0
M  V30 7177 C 681.688 1.64402 -1.07082 0
M  V30 7178 O 680.813 2.14056 -0.317647 0
M  V30 7179 C 681.408 0.674676 -3.32014 0
M  V30 7180 C 679.967 1.13919 -3.58747 0
M  V30 7181 C 679.114 0.164833 -2.7681 0
M  V30 7182 H 682.065 -0.376499 -1.54169 0
M  V30 7183 H 682.086 1.52883 -3.48435 0
M  V30 7184 H 681.598 -0.254113 -3.87267 0
M  V30 7185 H 679.699 2.08375 -3.08886 0
M  V30 7186 H 679.812 1.06179 -4.67186 0
M  V30 7187 H 678.176 0.658419 -2.46043 0
M  V30 7188 H 678.959 -0.757633 -3.34836 0
M  V30 7189 N 681.404 1.57128 0.121893 0
M  V30 7190 C 682.352 2.01109 1.16868 0
M  V30 7191 C 683.346 0.907532 1.43039 0
M  V30 7192 O 684.552 1.09274 1.43036 0
M  V30 7193 H 680.927 0.640539 0.393971 0
M  V30 7194 H 682.898 2.88261 0.771224 0
M  V30 7195 C 681.647 2.42887 2.48799 0
M  V30 7196 H 680.97 3.2737 2.29498 0
M  V30 7197 H 682.41 2.77461 3.20611 0
M  V30 7198 C 680.869 1.29137 3.11168 0
M  V30 7199 O 681.399 0.605756 3.97106 0
M  V30 7200 N 679.605 1.04916 2.71 0
M  V30 7201 H 679.152 1.60848 2.01211 0
M  V30 7202 H 679.11 0.290016 3.1306 0
M  V30 7203 N 682.882 -0.391992 1.52647 0
M  V30 7204 C 683.829 -1.47866 1.77213 0
M  V30 7205 C 684.799 -1.54286 0.615223 0
M  V30 7206 O 685.984 -1.7059 0.854622 0
M  V30 7207 C 683.124 -2.85129 1.94411 0
M  V30 7208 C 682.237 -2.87883 3.22098 0
M  V30 7209 C 681.372 -4.16553 3.29631 0
M  V30 7210 C 680.411 -4.13348 4.51453 0
M  V30 7211 N 679.548 -5.33619 4.56284 0
M  V30 7212 H 684.388 -1.26219 2.6995 0
M  V30 7213 H 681.925 -0.612367 1.33748 0
M  V30 7214 H 683.883 -3.64833 2.02367 0
M  V30 7215 H 682.513 -3.05232 1.05038 0
M  V30 7216 H 681.565 -2.00567 3.23229 0
M  V30 7217 H 682.877 -2.81382 4.11856 0
M  V30 7218 H 682.031 -5.0466 3.36753 0
M  V30 7219 H 680.77 -4.25773 2.37842 0
M  V30 7220 H 679.775 -3.23629 4.44459 0
M  V30 7221 H 681 -4.05754 5.44555 0
M  V30 7222 H 678.946 -5.43474 3.67385 0
M  V30 7223 H 678.863 -5.29182 5.3991 0
M  V30 7224 H 680.131 -6.23632 4.67657 0
M  V30 7225 N 684.36 -1.4356 -0.65026 0
M  V30 7226 C 685.31 -1.45392 -1.75628 0
M  V30 7227 C 686.294 -0.322006 -1.57645 0
M  V30 7228 O 687.486 -0.565996 -1.67707 0
M  V30 7229 C 684.615 -1.38254 -3.1423 0
M  V30 7230 C 683.701 -2.56487 -3.3775 0
M  V30 7231 N 684.092 -3.81824 -3.31729 0
M  V30 7232 C 682.39 -2.51274 -3.6848 0
M  V30 7233 C 683.091 -4.60497 -3.55412 0
M  V30 7234 N 682.067 -3.91274 -3.77367 0
M  V30 7235 H 685.869 -2.40167 -1.69402 0
M  V30 7236 H 683.383 -1.38254 -0.852037 0
M  V30 7237 H 685.38 -1.3765 -3.9352 0
M  V30 7238 H 684.04 -0.445019 -3.21636 0
M  V30 7239 H 685.051 -4.14069 -3.11074 0
M  V30 7240 H 681.728 -1.66223 -3.82983 0
M  V30 7241 H 683.118 -5.69518 -3.5651 0
M  V30 7242 N 685.838 0.888903 -1.30139 0
M  V30 7243 C 686.768 2.01046 -1.18755 0
M  V30 7244 C 687.749 1.69916 -0.0791438 0
M  V30 7245 O 688.934 1.92445 -0.260498 0
M  V30 7246 C 686.064 3.36109 -0.874518 0
M  V30 7247 C 685.018 3.81486 -1.94043 0
M  V30 7248 C 684.344 5.13796 -1.48047 0
M  V30 7249 C 685.644 4.00637 -3.35093 0
M  V30 7250 H 687.338 2.10828 -2.12584 0
M  V30 7251 H 684.884 1.01298 -1.02346 0
M  V30 7252 H 686.837 4.14089 -0.781548 0
M  V30 7253 H 685.561 3.26449 0.0994519 0
M  V30 7254 H 684.22 3.05731 -2.02297 0
M  V30 7255 H 683.868 5.0056 -0.494878 0
M  V30 7256 H 683.568 5.45127 -2.19341 0
M  V30 7257 H 685.092 5.94305 -1.40121 0
M  V30 7258 H 686.506 4.69067 -3.2962 0
M  V30 7259 H 684.903 4.43339 -4.04438 0
M  V30 7260 H 685.973 3.0462 -3.77273 0
M  V30 7261 N 687.317 1.12792 1.10072 0
M  V30 7262 C 688.249 0.757003 2.16338 0
M  V30 7263 C 689.262 -0.218144 1.61332 0
M  V30 7264 O 690.451 0.0010727 1.785 0
M  V30 7265 C 687.551 0.100303 3.38752 0
M  V30 7266 C 686.724 1.10586 4.2319 0
M  V30 7267 C 685.783 0.47609 5.24042 0
M  V30 7268 O 684.809 1.13418 5.57786 0
M  V30 7269 N 686.011 -0.754823 5.75572 0
M  V30 7270 H 688.776 1.6714 2.48766 0
M  V30 7271 H 686.337 1.02003 1.25726 0
M  V30 7272 H 688.329 -0.333092 4.03327 0
M  V30 7273 H 686.899 -0.716915 3.04268 0
M  V30 7274 H 686.119 1.71677 3.54853 0
M  V30 7275 H 687.407 1.78571 4.76435 0
M  V30 7276 H 686.805 -1.30838 5.50362 0
M  V30 7277 H 685.362 -1.13098 6.41913 0
M  V30 7278 N 688.795 -1.27931 0.920396 0
M  V30 7279 C 689.742 -2.27085 0.412422 0
M  V30 7280 C 690.712 -1.57858 -0.516725 0
M  V30 7281 O 691.897 -1.85717 -0.437475 0
M  V30 7282 C 689.037 -3.43466 -0.335399 0
M  V30 7283 C 688.15 -4.27425 0.627017 0
M  V30 7284 C 687.285 -5.31016 -0.139916 0
M  V30 7285 C 686.324 -6.06641 0.815683 0
M  V30 7286 N 685.461 -7.02052 0.0818439 0
M  V30 7287 H 690.301 -2.69913 1.26298 0
M  V30 7288 H 687.838 -1.32732 0.634076 0
M  V30 7289 H 689.796 -4.09744 -0.785226 0
M  V30 7290 H 688.426 -3.01611 -1.15025 0
M  V30 7291 H 687.478 -3.6113 1.19537 0
M  V30 7292 H 688.79 -4.79969 1.35763 0
M  V30 7293 H 687.944 -6.03208 -0.649998 0
M  V30 7294 H 686.683 -4.79257 -0.903543 0
M  V30 7295 H 685.688 -5.33294 1.33708 0
M  V30 7296 H 686.913 -6.60489 1.57897 0
M  V30 7297 H 684.859 -6.52634 -0.663671 0
M  V30 7298 H 684.776 -7.52249 0.752163 0
M  V30 7299 H 686.044 -7.78432 -0.407825 0
M  V30 7300 N 690.273 -0.685099 -1.4193 0
M  V30 7301 C 691.501 -0.220372 -2.05723 0
M  V30 7302 C 691.916 1.12642 -1.51516 0
M  V30 7303 O 691.273 1.70182 -0.659114 0
M  V30 7304 C 691.324 -0.157974 -3.61155 0
M  V30 7305 O 691.045 -1.45156 -4.13354 0
M  V30 7306 C 692.546 0.329009 -4.42077 0
M  V30 7307 H 689.766 -0.104725 -0.662777 0
M  V30 7308 H 692.31 -0.934736 -1.81887 0
M  V30 7309 H 690.465 0.507144 -3.84066 0
M  V30 7310 H 690.879 -1.33172 -5.07312 0
M  V30 7311 H 692.353 0.321559 -5.51063 0
M  V30 7312 H 692.83 1.36608 -4.17414 0
M  V30 7313 H 693.436 -0.304737 -4.24207 0
M  V30 7314 N 691.751 1.51645 -0.429126 0
M  V30 7315 C 692.699 2.29119 0.400921 0
M  V30 7316 C 693.693 1.34628 1.02819 0
M  V30 7317 O 694.899 1.52004 0.964098 0
M  V30 7318 H 691.274 0.737273 0.148095 0
M  V30 7319 H 693.245 2.97144 -0.273457 0
M  V30 7320 C 691.994 3.13953 1.49429 0
M  V30 7321 H 691.317 3.86544 1.02097 0
M  V30 7322 H 692.757 3.71232 2.04849 0
M  V30 7323 C 691.216 2.28796 2.47293 0
M  V30 7324 O 691.746 1.94193 3.51642 0
M  V30 7325 N 689.952 1.92177 2.17982 0
M  V30 7326 H 689.499 2.20517 1.33154 0
M  V30 7327 H 689.457 1.35497 2.83704 0
M  V30 7328 N 693.229 0.160201 1.56784 0
M  V30 7329 C 694.476 -0.487588 1.96542 0
M  V30 7330 C 694.804 -1.63999 1.04569 0
M  V30 7331 O 694.059 -1.95546 0.0775211 0
M  V30 7332 C 694.358 -1.02259 3.42459 0
M  V30 7333 C 694.024 0.0127436 4.50898 0
M  V30 7334 C 692.686 0.297318 4.80281 0
M  V30 7335 C 695.038 0.716078 5.16257 0
M  V30 7336 C 692.366 1.29081 5.72324 0
M  V30 7337 C 694.718 1.69847 6.09372 0
M  V30 7338 C 693.382 1.99061 6.37127 0
M  V30 7339 H 692.652 -0.178421 0.719199 0
M  V30 7340 H 695.299 0.249818 1.89864 0
M  V30 7341 H 693.604 -1.8376 3.46034 0
M  V30 7342 H 695.301 -1.53261 3.70556 0
M  V30 7343 H 691.891 -0.219235 4.28039 0
M  V30 7344 H 696.075 0.509428 4.93679 0
M  V30 7345 H 691.331 1.52344 5.92116 0
M  V30 7346 H 695.505 2.2489 6.59088 0
M  V30 7347 H 693.132 2.76194 7.08252 0
M  V30 7348 N 694.707 -1.5719 -0.113559 0
M  V30 7349 C 695.655 -2.01725 -1.158 0
M  V30 7350 C 696.649 -0.915105 -1.42556 0
M  V30 7351 O 697.855 -1.10031 -1.42454 0
M  V30 7352 H 694.23 -0.64262 -0.390569 0
M  V30 7353 H 696.201 -2.88666 -0.755926 0
M  V30 7354 C 694.95 -2.44203 -2.47507 0
M  V30 7355 H 694.273 -3.28582 -2.27758 0
M  V30 7356 H 695.713 -2.79158 -3.19135 0
M  V30 7357 C 694.172 -1.30785 -3.10478 0
M  V30 7358 O 694.702 -0.626807 -3.9678 0
M  V30 7359 N 692.908 -1.06352 -2.7044 0
M  V30 7360 H 692.455 -1.61913 -2.00355 0
M  V30 7361 H 692.413 -0.306614 -3.12901 0
M  V30 7362 O 696.224 0.257811 -1.59429 0
M  V30 7363 H 696.915 0.901882 -1.71423 0
M  V30 END ATOM
M  V30 BEGIN BOND
M  V30 END BOND
M  V30 END CTAB
M  END
$$$$
