drugbank_target|P49069 Calcium signal-modulating cyclophilin ligand (DB00091)
 OpenBabel12092119303D

  0  0  0     0  0            999 V3000
M  V30 BEGIN CTAB
M  V30 COUNTS 4631 4669 0 0 0
M  V30 BEGIN ATOM
M  V30 1 H -0.908 1.98254 -0.117106 0
M  V30 2 N 0 1.576 0 0
M  V30 3 C 0.933 2.03868 1.02534 0
M  V30 4 C 1.911 0.928543 1.3348 0
M  V30 5 O 3.095 1.19667 1.45644 0
M  V30 6 C 0.222 2.43627 2.35294 0
M  V30 7 C -0.732 3.65373 2.2001 0
M  V30 8 S 0.101 5.13292 1.52614 0
M  V30 9 C 1.257 5.56322 2.86805 0
M  V30 10 H 1.49 2.90518 0.631377 0
M  V30 11 H -0.977 1.52953 0.210867 0
M  V30 12 H 0.981 2.67203 3.11629 0
M  V30 13 H -0.358 1.57376 2.7183 0
M  V30 14 H -1.165 3.90944 3.18086 0
M  V30 15 H -1.563 3.418 1.51819 0
M  V30 16 H 0.729 5.58782 3.83104 0
M  V30 17 H 1.672 6.56266 2.65933 0
M  V30 18 H 2.08 4.83886 2.90714 0
M  V30 19 N 1.4781 -0.272755 1.55222 0
M  V30 20 C 2.3881 -1.35918 1.91216 0
M  V30 21 C 3.4041 -1.54026 0.809436 0
M  V30 22 O 4.5801 -1.68148 1.10852 0
M  V30 23 C 1.6451 -2.69834 2.17693 0
M  V30 24 C 0.7061 -2.6047 3.41253 0
M  V30 25 C -0.0609 -3.88 3.66458 0
M  V30 26 O 0.1621 -4.88693 2.94169 0
M  V30 27 O -0.9039 -3.88189 4.59992 0
M  V30 28 H 2.9221 -1.0839 2.83699 0
M  V30 29 H 0.5071 -0.471301 1.41771 0
M  V30 30 H 2.3891 -3.49017 2.36147 0
M  V30 31 H 1.0641 -2.97148 1.28392 0
M  V30 32 H -0.0289 -1.79663 3.28134 0
M  V30 33 H 1.3041 -2.38106 4.30774 0
M  V30 34 N 2.9562 -1.48159 -0.537278 0
M  V30 35 C 4.1812 -1.59707 -1.32319 0
M  V30 36 C 4.6062 -0.254859 -1.86365 0
M  V30 37 O 3.9642 0.772378 -1.64024 0
M  V30 38 C 4.0122 -2.6412 -2.45505 0
M  V30 39 O 3.1162 -2.20774 -3.48328 0
M  V30 40 H 2.4572 -0.535791 -0.392204 0
M  V30 41 H 4.9872 -1.94092 -0.647268 0
M  V30 42 H 4.9972 -2.85166 -2.91795 0
M  V30 43 H 3.6722 -3.61567 -2.05528 0
M  V30 44 H 2.2492 -2.09911 -3.08207 0
M  V30 45 N 4.4343 0.785586 -1.36625 0
M  V30 46 C 5.3673 1.90509 -1.25625 0
M  V30 47 C 6.3453 1.62 -0.139607 0
M  V30 48 O 7.5293 1.8591 -0.31141 0
M  V30 49 C 4.6563 3.25419 -0.939158 0
M  V30 50 C 3.7023 3.72856 -2.07077 0
M  V30 51 S 4.5353 3.88162 -3.68904 0
M  V30 52 C 5.6913 5.25942 -3.39317 0
M  V30 53 H 5.9243 1.99549 -2.20381 0
M  V30 54 H 3.4573 0.945226 -1.22085 0
M  V30 55 H 5.4153 4.03346 -0.763029 0
M  V30 56 H 4.0763 3.14099 -0.00931402 0
M  V30 57 H 3.2693 4.70624 -1.80357 0
M  V30 58 H 2.8713 3.01989 -2.20632 0
M  V30 59 H 5.1633 6.10651 -2.93447 0
M  V30 60 H 6.1063 5.57668 -4.36363 0
M  V30 61 H 6.5143 4.93224 -2.74573 0
M  V30 62 N 5.9124 1.20967 1.01018 0
M  V30 63 C 6.8754 0.965918 2.07853 0
M  V30 64 C 7.8754 -0.0610545 1.60684 0
M  V30 65 O 9.0654 0.175681 1.73312 0
M  V30 66 C 6.1974 0.455513 3.37843 0
M  V30 67 H 7.3904 1.91365 2.3091 0
M  V30 68 H 4.9434 1.02594 1.17916 0
M  V30 69 H 5.6784 -0.497381 3.20463 0
M  V30 70 H 5.4634 1.19622 3.73407 0
M  V30 71 H 6.9534 0.304667 4.16487 0
M  V30 72 N 7.3905 -1.2043 1.01659 0
M  V30 73 C 8.6365 -1.90079 0.706963 0
M  V30 74 C 8.9695 -1.78648 -0.761474 0
M  V30 75 O 8.2445 -1.17069 -1.55323 0
M  V30 76 C 8.5275 -3.41469 1.14327 0
M  V30 77 C 8.3805 -3.61833 2.67201 0
M  V30 78 C 9.6995 -4.34261 0.714529 0
M  V30 79 H 6.8185 -0.690254 0.2583 0
M  V30 80 H 9.4605 -1.41826 1.26433 0
M  V30 81 H 7.6105 -3.82696 0.669056 0
M  V30 82 H 9.2825 -3.2986 3.22475 0
M  V30 83 H 7.5255 -3.05304 3.08175 0
M  V30 84 H 8.1965 -4.67955 2.92783 0
M  V30 85 H 10.6725 -4.00682 1.12221 0
M  V30 86 H 9.5485 -5.38806 1.04784 0
M  V30 87 H 9.8095 -4.40431 -0.383799 0
M  V30 88 N 8.8686 -0.792821 -1.36206 0
M  V30 89 C 9.8316 -0.199459 -2.2833 0
M  V30 90 C 10.8316 0.605189 -1.48977 0
M  V30 91 O 12.0216 0.425685 -1.68919 0
M  V30 92 C 9.1536 0.723523 -3.33134 0
M  V30 93 H 10.3466 -1.01181 -2.82316 0
M  V30 94 H 7.8996 -0.562485 -1.45828 0
M  V30 95 H 8.6346 1.56008 -2.84309 0
M  V30 96 H 8.4196 0.148436 -3.91819 0
M  V30 97 H 9.9096 1.13344 -4.01924 0
M  V30 98 N 10.3467 1.47872 -0.545128 0
M  V30 99 C 11.5747 2.06889 -0.021084 0
M  V30 100 C 11.9897 1.39955 1.2672 0
M  V30 101 O 11.3467 0.492036 1.75742 0
M  V30 102 C 11.3977 3.60996 0.190817 0
M  V30 103 O 11.1187 4.25419 -1.04644 0
M  V30 104 C 12.6197 4.36849 0.753521 0
M  V30 105 H 9.8397 0.669785 -0.0403635 0
M  V30 106 H 12.3837 1.90049 -0.755095 0
M  V30 107 H 10.5387 3.77391 0.87492 0
M  V30 108 H 10.9527 5.17785 -0.836611 0
M  V30 109 H 12.4267 5.45399 0.851139 0
M  V30 110 H 12.9037 4.02306 1.762 0
M  V30 111 H 13.5097 4.25169 0.105503 0
M  V30 112 N 11.8248 0.280983 1.55075 0
M  V30 113 C 13.1018 -0.386207 1.91749 0
M  V30 114 C 13.4818 -1.73264 1.20594 0
M  V30 115 O 12.8298 -2.26034 0.334784 0
M  V30 116 C 13.0398 -0.520687 3.45094 0
M  V30 117 C 14.3878 -0.800865 4.16979 0
M  V30 118 O 15.4118 -0.605271 3.5102 0
M  V30 119 O 14.2708 -1.1753 5.33712 0
M  V30 120 H 11.3648 -0.212408 0.799257 0
M  V30 121 H 13.9108 0.327568 1.66509 0
M  V30 122 H 12.6828 0.426633 3.88967 0
M  V30 123 H 12.3058 -1.2837 3.76307 0
M  V30 124 N 13.3029 -1.57598 0.00835791 0
M  V30 125 C 14.5509 -1.90551 -0.6734 0
M  V30 126 C 14.8719 -0.883301 -1.73847 0
M  V30 127 O 14.1419 0.0781442 -1.95744 0
M  V30 128 H 12.7219 -0.703312 -0.251717 0
M  V30 129 H 15.3839 -1.94833 0.0512592 0
M  V30 130 H 14.4799 -2.9056 -1.13935 0
M  V30 131 N 14.781 0.264519 -1.55364 0
M  V30 132 C 16.029 0.993021 -1.76021 0
M  V30 133 C 16.35 1.86511 -0.569099 0
M  V30 134 O 15.62 1.91438 0.415735 0
M  V30 135 H 14.2 0.369639 -0.649135 0
M  V30 136 H 16.862 0.286707 -1.9278 0
M  V30 137 H 15.958 1.62502 -2.66457 0
M  V30 138 N 16.2591 1.48442 0.529413 0
M  V30 139 C 17.1691 1.6569 1.66084 0
M  V30 140 C 18.1851 0.539432 1.65427 0
M  V30 141 O 19.3611 0.810572 1.84368 0
M  V30 142 C 16.4261 1.69315 3.02545 0
M  V30 143 C 15.4871 2.92694 3.14052 0
M  V30 144 C 14.7201 2.96137 4.44003 0
M  V30 145 O 14.9431 2.07973 5.31134 0
M  V30 146 O 13.8771 3.88312 4.59888 0
M  V30 147 H 17.7031 2.61483 1.54469 0
M  V30 148 H 15.2881 1.3185 0.702567 0
M  V30 149 H 17.1701 1.74217 3.83701 0
M  V30 150 H 15.8451 0.766966 3.14483 0
M  V30 151 H 14.7521 2.93324 2.32189 0
M  V30 152 H 16.0851 3.84699 3.0703 0
M  V30 153 N 17.7372 -0.778329 1.37039 0
M  V30 154 C 19.1532 -1.07796 1.17695 0
M  V30 155 C 19.3532 -2.01498 0.00860115 0
M  V30 156 O 18.4092 -2.43901 -0.653352 0
M  V30 157 C 19.7222 -1.68178 2.49272 0
M  V30 158 C 21.2702 -1.80467 2.55735 0
M  V30 159 C 21.7452 -2.44263 3.87427 0
M  V30 160 N 23.2362 -2.51721 3.88833 0
M  V30 161 C 23.9712 -3.01919 4.87476 0
M  V30 162 N 23.4672 -3.5234 5.96513 0
M  V30 163 N 25.2602 -3.00733 4.74885 0
M  V30 164 H 17.4112 -0.156032 2.11826 0
M  V30 165 H 19.6742 -0.131844 0.938787 0
M  V30 166 H 19.3802 -1.06796 3.35093 0
M  V30 167 H 19.2542 -2.67554 2.65885 0
M  V30 168 H 21.6412 -2.40984 1.70325 0
M  V30 169 H 21.7222 -0.798656 2.43013 0
M  V30 170 H 21.3662 -1.84388 4.73248 0
M  V30 171 H 21.2962 -3.45458 3.9745 0
M  V30 172 H 23.7872 -2.1603 3.10063 0
M  V30 173 H 24.1002 -3.89027 6.67741 0
M  V30 174 H 22.4452 -3.50462 6.00168 0
M  V30 175 H 25.6362 -2.60638 3.88826 0
M  V30 176 H 25.8092 -3.39545 5.51918 0
M  V30 177 N 19.2153 -1.21501 -1.00376 0
M  V30 178 C 20.6263 -1.03146 -1.55621 0
M  V30 179 C 20.9773 0.408375 -1.91903 0
M  V30 180 O 20.1023 1.29177 -1.73616 0
M  V30 181 C 20.6973 -1.86612 -2.82775 0
M  V30 182 C 19.2563 -1.72586 -3.34501 0
M  V30 183 C 18.4033 -1.83747 -2.07683 0
M  V30 184 H 21.3543 -1.35505 -0.826081 0
M  V30 185 H 21.3753 -1.3771 -3.54706 0
M  V30 186 H 20.8873 -2.91399 -2.56336 0
M  V30 187 H 18.9883 -0.704877 -3.65872 0
M  V30 188 H 19.1013 -2.54623 -4.05837 0
M  V30 189 H 17.4653 -1.27069 -2.20739 0
M  V30 190 H 18.2483 -2.90044 -1.83655 0
M  V30 191 N 20.6934 1.19889 -1.02296 0
M  V30 192 C 21.9414 1.89046 -0.714558 0
M  V30 193 C 22.2624 1.79636 0.758681 0
M  V30 194 O 21.5324 1.20292 1.54618 0
M  V30 195 H 20.1124 0.699802 -0.261317 0
M  V30 196 H 22.7744 1.45574 -1.29592 0
M  V30 197 H 21.8704 2.95524 -1.0036 0
M  V30 198 N 22.1715 0.800033 1.35784 0
M  V30 199 C 23.4175 0.377901 1.99248 0
M  V30 200 C 23.7505 -1.05052 1.63333 0
M  V30 201 O 23.0255 -1.72768 0.893385 0
M  V30 202 C 23.3085 0.553922 3.55814 0
M  V30 203 C 23.1615 2.0268 4.01548 0
M  V30 204 C 24.4805 -0.0244802 4.40093 0
M  V30 205 H 21.5995 0.138782 0.723815 0
M  V30 206 H 24.2415 1.00835 1.61035 0
M  V30 207 H 22.3915 0.0172398 3.88496 0
M  V30 208 H 24.0635 2.62536 3.79305 0
M  V30 209 H 22.3065 2.5256 3.52698 0
M  V30 210 H 22.9775 2.10087 5.10458 0
M  V30 211 H 25.4535 0.433775 4.13833 0
M  V30 212 H 24.3295 0.128637 5.48749 0
M  V30 213 H 24.5905 -1.11758 4.27741 0
M  V30 214 N 23.6496 -1.47581 0.552962 0
M  V30 215 C 25.0606 -1.86324 0.118463 0
M  V30 216 C 25.4116 -1.46006 -1.3106 0
M  V30 217 O 24.5366 -0.861182 -1.98526 0
M  V30 218 C 25.1316 -3.3816 0.20821 0
M  V30 219 C 23.6906 -3.7601 -0.171226 0
M  V30 220 C 22.8376 -2.71634 0.557686 0
M  V30 221 H 25.7886 -1.39159 0.762928 0
M  V30 222 H 25.8096 -3.76141 -0.574278 0
M  V30 223 H 25.3216 -3.67473 1.24841 0
M  V30 224 H 23.4226 -3.52313 -1.21269 0
M  V30 225 H 23.5356 -4.78745 0.184379 0
M  V30 226 H 21.8996 -2.547 0.00125792 0
M  V30 227 H 22.6826 -3.0379 1.59896 0
M  V30 228 N 25.1277 -0.289203 -1.54924 0
M  V30 229 C 26.0907 0.579144 -2.21762 0
M  V30 230 C 27.0907 1.07047 -1.1999 0
M  V30 231 O 28.2807 0.968384 -1.44803 0
M  V30 232 C 25.4127 1.80055 -2.8947 0
M  V30 233 H 26.6057 -0.00464908 -2.999 0
M  V30 234 H 24.1587 -0.0399306 -1.56249 0
M  V30 235 H 24.8937 2.42449 -2.15381 0
M  V30 236 H 24.6787 1.45602 -3.64064 0
M  V30 237 H 26.1687 2.41773 -3.40493 0
M  V30 238 N 26.6058 1.57591 -0.0167156 0
M  V30 239 C 27.8538 1.90906 0.663285 0
M  V30 240 C 28.1748 0.892509 1.73376 0
M  V30 241 O 27.4448 -0.0677623 1.95783 0
M  V30 242 H 26.0248 0.704637 0.247983 0
M  V30 243 H 28.6868 1.94803 -0.0615909 0
M  V30 244 H 27.7828 2.9116 1.12393 0
M  V30 245 N 28.0839 -0.256276 1.55502 0
M  V30 246 C 29.3089 -1.00766 1.81276 0
M  V30 247 C 29.7339 -1.78524 0.59252 0
M  V30 248 O 29.0919 -1.75413 -0.45827 0
M  V30 249 C 29.1399 -1.92869 3.04687 0
M  V30 250 O 28.2439 -3.019 2.80945 0
M  V30 251 H 27.5849 -0.287224 0.598664 0
M  V30 252 H 30.1149 -0.280109 2.02674 0
M  V30 253 H 30.1249 -2.34511 3.33869 0
M  V30 254 H 28.7999 -1.35689 3.93143 0
M  V30 255 H 27.3769 -2.64454 2.62904 0
M  V30 256 N 29.562 -1.4872 -0.521534 0
M  V30 257 C 30.81 -1.56857 -1.27437 0
M  V30 258 C 31.131 -0.247982 -1.93417 0
M  V30 259 O 30.401 0.731151 -1.81744 0
M  V30 260 H 28.981 -0.577885 -0.473347 0
M  V30 261 H 31.643 -1.85233 -0.606205 0
M  V30 262 H 30.739 -2.35402 -2.0492 0
M  V30 263 N 31.0401 0.771051 -1.3745 0
M  V30 264 C 31.9701 1.89827 -1.3597 0
M  V30 265 C 32.9511 1.68562 -0.228216 0
M  V30 266 O 34.1361 1.8941 -0.428675 0
M  V30 267 C 31.2661 3.2712 -1.16662 0
M  V30 268 C 30.2201 3.6295 -2.2683 0
M  V30 269 C 29.5461 4.98791 -1.92644 0
M  V30 270 C 30.8461 3.69627 -3.69017 0
M  V30 271 H 32.5401 1.91323 -2.30295 0
M  V30 272 H 30.0861 0.919082 -1.10855 0
M  V30 273 H 32.0391 4.05615 -1.14256 0
M  V30 274 H 30.7631 3.26059 -0.187926 0
M  V30 275 H 29.4221 2.86763 -2.28392 0
M  V30 276 H 29.0701 4.94271 -0.933021 0
M  V30 277 H 28.7701 5.23733 -2.66416 0
M  V30 278 H 30.2941 5.79685 -1.91826 0
M  V30 279 H 31.7081 4.38273 -3.69581 0
M  V30 280 H 30.1051 4.06067 -4.41848 0
M  V30 281 H 31.1751 2.70273 -4.02592 0
M  V30 282 N 32.5182 1.22032 0.997298 0
M  V30 283 C 33.7432 1.06921 1.77715 0
M  V30 284 C 34.1682 -0.376226 1.84299 0
M  V30 285 O 33.5262 -1.27165 1.29223 0
M  V30 286 C 33.5742 1.67996 3.19076 0
M  V30 287 O 32.6782 0.930653 4.01762 0
M  V30 288 H 32.0192 0.375814 0.547412 0
M  V30 289 H 34.5492 1.61737 1.25309 0
M  V30 290 H 34.5592 1.72538 3.69723 0
M  V30 291 H 33.2342 2.73182 3.13599 0
M  V30 292 H 31.8112 0.960917 3.60307 0
M  V30 293 N 33.9963 -1.19345 1.0293 0
M  V30 294 C 34.9593 -2.20793 0.615069 0
M  V30 295 C 35.9593 -1.57553 -0.321533 0
M  V30 296 O 37.1493 -1.73862 -0.108483 0
M  V30 297 C 34.2813 -3.40754 -0.0999222 0
M  V30 298 H 35.4743 -2.58955 1.51269 0
M  V30 299 H 33.0273 -1.3303 0.820534 0
M  V30 300 H 33.7623 -3.0811 -1.01187 0
M  V30 301 H 33.5473 -3.87889 0.57309 0
M  V30 302 H 35.0373 -4.15898 -0.376645 0
M  V30 303 N 35.4744 -0.807222 -1.35358 0
M  V30 304 C 36.6994 -0.399309 -2.0352 0
M  V30 305 C 37.1244 0.981986 -1.60433 0
M  V30 306 O 36.4824 1.63601 -0.781299 0
M  V30 307 C 36.5304 -0.491552 -3.57234 0
M  V30 308 O 35.6344 0.494754 -4.09421 0
M  V30 309 H 34.9754 -0.166682 -0.642739 0
M  V30 310 H 37.5054 -1.09328 -1.72941 0
M  V30 311 H 37.5154 -0.361588 -4.06395 0
M  V30 312 H 36.1904 -1.49907 -3.87944 0
M  V30 313 H 34.7674 0.324977 -3.71481 0
M  V30 314 N 36.9525 1.47285 -0.560781 0
M  V30 315 C 37.8845 2.28118 0.222438 0
M  V30 316 C 38.8975 1.37219 0.876056 0
M  V30 317 O 40.0865 1.62011 0.749307 0
M  V30 318 C 37.1865 3.1159 1.33285 0
M  V30 319 C 36.3595 4.30473 0.77534 0
M  V30 320 C 35.4185 4.95513 1.77069 0
M  V30 321 O 34.4445 5.53792 1.31539 0
M  V30 322 N 35.6465 4.90531 3.10418 0
M  V30 323 H 38.4115 2.95976 -0.470958 0
M  V30 324 H 35.9725 1.56955 -0.39709 0
M  V30 325 H 37.9645 3.51967 1.99752 0
M  V30 326 H 36.5345 2.45951 1.92943 0
M  V30 327 H 35.7545 3.94144 -0.0662113 0
M  V30 328 H 37.0425 5.07362 0.382272 0
M  V30 329 H 36.4405 4.44389 3.5005 0
M  V30 330 H 34.9975 5.34917 3.72434 0
M  V30 331 N 38.4306 0.297415 1.54768 0
M  V30 332 C 39.8466 -0.0560823 1.59501 0
M  V30 333 C 40.0466 -1.52725 1.31444 0
M  V30 334 O 39.1026 -2.27947 1.08611 0
M  V30 335 C 40.4156 0.338631 2.98787 0
M  V30 336 C 41.9636 0.287097 3.11681 0
M  V30 337 C 42.4386 0.656579 4.53269 0
M  V30 338 N 43.9296 0.608977 4.59179 0
M  V30 339 C 44.6646 0.867385 5.66802 0
M  V30 340 N 44.1606 1.19157 6.82476 0
M  V30 341 N 45.9536 0.794687 5.56454 0
M  V30 342 H 38.1046 1.25624 1.71267 0
M  V30 343 H 40.3676 0.509057 0.799728 0
M  V30 344 H 40.0736 1.36263 3.2423 0
M  V30 345 H 39.9476 -0.309508 3.75928 0
M  V30 346 H 42.3346 -0.727649 2.85988 0
M  V30 347 H 42.4156 0.969809 2.36703 0
M  V30 348 H 42.0596 1.66912 4.7969 0
M  V30 349 H 41.9896 -0.0481649 5.26578 0
M  V30 350 H 44.4806 0.369198 3.76092 0
M  V30 351 H 44.7936 1.37482 7.60473 0
M  V30 352 H 43.1386 1.22958 6.84037 0
M  V30 353 H 46.3296 0.541098 4.64962 0
M  V30 354 H 46.5026 0.999445 6.40246 0
M  V30 355 N 39.9087 -1.5758 0.0250728 0
M  V30 356 C 41.3247 -1.56124 -0.331282 0
M  V30 357 C 41.5247 -1.03029 -1.73169 0
M  V30 358 O 40.5807 -0.675215 -2.43305 0
M  V30 359 C 41.8937 -3.00139 -0.183584 0
M  V30 360 C 43.4417 -3.11946 -0.256654 0
M  V30 361 C 43.9167 -4.57793 -0.137792 0
M  V30 362 N 45.4077 -4.6279 -0.194904 0
M  V30 363 C 46.1427 -5.7326 -0.126655 0
M  V30 364 N 45.6387 -6.928 -0.00755288 0
M  V30 365 N 47.4317 -5.61811 -0.180348 0
M  V30 366 H 39.5827 -1.90424 0.94087 0
M  V30 367 H 41.8457 -0.875761 0.362968 0
M  V30 368 H 41.5517 -3.4292 0.780927 0
M  V30 369 H 41.4257 -3.64899 -0.955448 0
M  V30 370 H 43.8127 -2.69079 -1.21162 0
M  V30 371 H 43.8937 -2.49915 0.545517 0
M  V30 372 H 43.5377 -5.01339 0.813739 0
M  V30 373 H 43.4677 -5.17798 -0.958775 0
M  V30 374 H 45.9587 -3.76807 -0.287267 0
M  V30 375 H 46.2717 -7.72791 0.0379428 0
M  V30 376 H 44.6167 -6.94995 0.0271731 0
M  V30 377 H 47.8077 -4.6731 -0.271767 0
M  V30 378 H 47.9807 -6.47882 -0.123697 0
M  V30 379 N 41.3868 0.248026 -1.55636 0
M  V30 380 C 42.3498 1.29044 -1.89421 0
M  V30 381 C 43.3498 1.41134 -0.770581 0
M  V30 382 O 44.5398 1.39854 -1.03858 0
M  V30 383 C 41.6718 2.66831 -2.12165 0
M  V30 384 H 42.8648 1.00305 -2.82629 0
M  V30 385 H 40.4178 0.487265 -1.48511 0
M  V30 386 H 41.1528 3.00711 -1.21422 0
M  V30 387 H 40.9378 2.59438 -2.93997 0
M  V30 388 H 42.4278 3.42103 -2.3949 0
M  V30 389 N 42.8649 1.48995 0.513639 0
M  V30 390 C 43.7749 1.67443 1.64317 0
M  V30 391 C 44.7909 0.556947 1.64846 0
M  V30 392 O 45.9669 0.830082 1.83498 0
M  V30 393 C 43.0319 1.72515 3.00732 0
M  V30 394 C 42.0929 2.96009 3.1093 0
M  V30 395 C 41.3259 3.00829 4.40837 0
M  V30 396 O 41.5489 2.13594 5.28898 0
M  V30 397 O 40.4829 3.93168 4.55744 0
M  V30 398 H 44.3089 2.63106 1.51687 0
M  V30 399 H 41.8939 1.32588 0.688543 0
M  V30 400 H 43.7759 1.78277 3.81831 0
M  V30 401 H 42.4509 0.800278 3.13651 0
M  V30 402 H 41.3579 2.9577 2.29065 0
M  V30 403 H 42.6909 3.87934 3.02933 0
M  V30 404 N 44.343 -0.763751 1.37857 0
M  V30 405 C 45.273 -1.89103 1.36975 0
M  V30 406 C 46.254 -1.68439 0.237152 0
M  V30 407 O 47.439 -1.8918 0.438713 0
M  V30 408 C 44.569 -3.26496 1.18395 0
M  V30 409 C 43.523 -3.61741 2.28751 0
M  V30 410 C 42.849 -4.97762 1.95286 0
M  V30 411 C 44.149 -3.67665 3.70972 0
M  V30 412 H 45.843 -1.90099 2.31307 0
M  V30 413 H 43.389 -0.91319 1.11341 0
M  V30 414 H 45.342 -4.05003 1.16406 0
M  V30 415 H 44.066 -3.25955 0.205215 0
M  V30 416 H 42.725 -2.85547 2.29909 0
M  V30 417 H 42.373 -4.93769 0.959221 0
M  V30 418 H 42.073 -5.22313 2.69189 0
M  V30 419 H 43.597 -5.7866 1.94898 0
M  V30 420 H 45.011 -4.36307 3.719 0
M  V30 421 H 43.408 -4.03718 4.43995 0
M  V30 422 H 44.478 -2.68134 4.0402 0
M  V30 423 N 45.8211 -1.22559 -0.990812 0
M  V30 424 C 47.2371 -0.985996 -1.255 0
M  V30 425 C 47.4371 0.319173 -1.98956 0
M  V30 426 O 46.4931 1.04127 -2.3003 0
M  V30 427 C 47.8061 -2.18607 -2.06474 0
M  V30 428 C 49.3541 -2.22985 -2.19651 0
M  V30 429 C 49.8291 -3.4255 -3.04012 0
M  V30 430 N 51.3201 -3.42725 -3.11599 0
M  V30 431 C 52.0551 -4.31892 -3.7717 0
M  V30 432 N 51.5511 -5.31279 -4.44651 0
M  V30 433 N 53.3441 -4.19662 -3.73952 0
M  V30 434 H 45.4951 -2.06469 -0.49841 0
M  V30 435 H 47.7581 -0.904853 -0.282747 0
M  V30 436 H 47.4641 -3.13267 -1.59865 0
M  V30 437 H 47.3381 -2.18838 -3.07229 0
M  V30 438 H 49.7251 -1.28871 -2.65474 0
M  V30 439 H 49.8061 -2.26791 -1.18319 0
M  V30 440 H 49.4501 -4.36965 -2.58889 0
M  V30 441 H 49.3801 -3.35984 -4.0549 0
M  V30 442 H 51.8711 -2.70807 -2.63575 0
M  V30 443 H 52.1841 -5.95593 -4.92431 0
M  V30 444 H 50.5291 -5.3519 -4.43392 0
M  V30 445 H 53.7201 -3.41268 -3.20396 0
M  V30 446 H 53.8931 -4.89358 -4.24774 0
M  V30 447 N 47.2992 1.18797 -1.03562 0
M  V30 448 C 48.7152 1.40671 -0.753917 0
M  V30 449 C 48.9152 1.9043 0.658686 0
M  V30 450 O 47.9712 2.08538 1.42366 0
M  V30 451 C 49.2842 2.41192 -1.79574 0
M  V30 452 C 50.8322 2.54928 -1.81606 0
M  V30 453 C 51.3072 3.58709 -2.84766 0
M  V30 454 N 52.7982 3.66212 -2.83625 0
M  V30 455 C 53.5332 4.46225 -3.60098 0
M  V30 456 N 53.0292 5.29888 -4.46308 0
M  V30 457 N 54.8222 4.40939 -3.4861 0
M  V30 458 H 46.9732 0.848221 -1.94728 0
M  V30 459 H 49.2362 0.435081 -0.842264 0
M  V30 460 H 48.9422 2.11669 -2.80872 0
M  V30 461 H 48.8162 3.40467 -1.62365 0
M  V30 462 H 51.2032 2.83771 -0.809817 0
M  V30 463 H 51.2842 1.55784 -2.02891 0
M  V30 464 H 50.9282 3.30607 -3.85566 0
M  V30 465 H 50.8582 4.57519 -2.60737 0
M  V30 466 H 53.3492 3.06466 -2.21105 0
M  V30 467 H 53.6622 5.88078 -5.01382 0
M  V30 468 H 52.0072 5.29326 -4.50377 0
M  V30 469 H 55.1982 3.74624 -2.80668 0
M  V30 470 H 55.3712 5.03056 -4.08459 0
M  V30 471 N 48.7773 0.814389 1.34928 0
M  V30 472 C 50.1933 0.499084 1.51596 0
M  V30 473 C 50.3933 -0.978319 1.76157 0
M  V30 474 O 49.4493 -1.76309 1.80752 0
M  V30 475 C 50.7623 1.35121 2.68631 0
M  V30 476 C 52.3103 1.34746 2.82511 0
M  V30 477 C 52.7853 2.18388 4.0258 0
M  V30 478 N 54.2763 2.15966 4.09772 0
M  V30 479 C 55.0113 2.77437 5.01813 0
M  V30 480 N 54.5073 3.47866 5.99134 0
M  V30 481 N 56.3003 2.67037 4.94619 0
M  V30 482 H 48.4513 1.7711 1.17243 0
M  V30 483 H 50.7143 0.754256 0.574284 0
M  V30 484 H 50.4203 2.40001 2.57085 0
M  V30 485 H 50.2943 1.00991 3.63429 0
M  V30 486 H 52.6813 0.30648 2.93504 0
M  V30 487 H 52.7623 1.72869 1.88547 0
M  V30 488 H 52.4063 3.2253 3.92347 0
M  V30 489 H 52.3363 1.77621 4.9574 0
M  V30 490 H 54.8273 1.64729 3.40107 0
M  V30 491 H 55.1403 3.92038 6.65977 0
M  V30 492 H 53.4853 3.51972 5.99284 0
M  V30 493 H 56.6763 2.11597 4.17546 0
M  V30 494 H 56.8493 3.15232 5.66156 0
M  V30 495 N 50.2554 -1.46986 0.568584 0
M  V30 496 C 51.2024 -2.30153 -0.172707 0
M  V30 497 C 52.1724 -1.39759 -0.897586 0
M  V30 498 O 53.3574 -1.68716 -0.891044 0
M  V30 499 C 50.4974 -3.23952 -1.1895 0
M  V30 500 C 49.6104 -4.29441 -0.469517 0
M  V30 501 C 48.7454 -5.1038 -1.47259 0
M  V30 502 C 47.7844 -6.07632 -0.738225 0
M  V30 503 N 46.9214 -6.8149 -1.68868 0
M  V30 504 H 51.7614 -2.93019 0.542596 0
M  V30 505 H 49.2984 -1.44422 0.279401 0
M  V30 506 H 51.2564 -3.76767 -1.79173 0
M  V30 507 H 49.8864 -2.62926 -1.87269 0
M  V30 508 H 48.9384 -3.79594 0.247467 0
M  V30 509 H 50.2504 -4.98689 0.105241 0
M  V30 510 H 49.4044 -5.67402 -2.14803 0
M  V30 511 H 48.1434 -4.4106 -2.08128 0
M  V30 512 H 47.1484 -5.49778 -0.0489293 0
M  V30 513 H 48.3734 -6.78966 -0.135129 0
M  V30 514 H 46.3194 -6.14891 -2.28573 0
M  V30 515 H 46.2364 -7.46948 -1.16636 0
M  V30 516 H 47.5044 -7.43078 -2.3549 0
M  V30 517 N 51.7335 -0.305618 -1.54608 0
M  V30 518 C 52.6635 0.561482 -2.26649 0
M  V30 519 C 53.6445 1.13415 -1.26772 0
M  V30 520 O 54.8295 1.16262 -1.55553 0
M  V30 521 C 51.9595 1.73122 -3.01075 0
M  V30 522 C 50.9135 1.2887 -4.08138 0
M  V30 523 C 50.2395 2.54396 -4.70305 0
M  V30 524 C 51.5395 0.416578 -5.20636 0
M  V30 525 H 53.2335 -0.0393902 -2.99374 0
M  V30 526 H 50.7795 -0.020385 -1.43986 0
M  V30 527 H 52.7325 2.34396 -3.50195 0
M  V30 528 H 51.4565 2.3584 -2.25936 0
M  V30 529 H 50.1155 0.698991 -3.59875 0
M  V30 530 H 49.7635 3.15439 -3.918 0
M  V30 531 H 49.4635 2.25486 -5.42614 0
M  V30 532 H 50.9875 3.16464 -5.2219 0
M  V30 533 H 52.4015 0.935116 -5.65622 0
M  V30 534 H 50.7985 0.221046 -5.99693 0
M  V30 535 H 51.8685 -0.557162 -4.81688 0
M  V30 536 N 53.2116 1.57565 -0.0334293 0
M  V30 537 C 54.1416 2.13511 0.945265 0
M  V30 538 C 55.1226 1.05231 1.33643 0
M  V30 539 O 56.3076 1.33084 1.41429 0
M  V30 540 C 53.4376 2.6657 2.22616 0
M  V30 541 C 52.3916 3.79676 1.97561 0
M  V30 542 C 51.7176 4.1918 3.31952 0
M  V30 543 C 53.0176 5.0557 1.31135 0
M  V30 544 H 54.7116 2.95538 0.479325 0
M  V30 545 H 52.2576 1.42166 0.229115 0
M  V30 546 H 54.2106 3.04344 2.91466 0
M  V30 547 H 52.9346 1.8171 2.71384 0
M  V30 548 H 51.5936 3.42347 1.31127 0
M  V30 549 H 51.2416 3.31296 3.78487 0
M  V30 550 H 50.9416 4.95402 3.15992 0
M  V30 551 H 52.4656 4.59541 4.02063 0
M  V30 552 H 53.8796 5.40903 1.89992 0
M  V30 553 H 52.2766 5.86818 1.25559 0
M  V30 554 H 53.3466 4.84062 0.284894 0
M  V30 555 N 54.6897 -0.239769 1.55765 0
M  V30 556 C 55.6227 -1.32356 1.85895 0
M  V30 557 C 56.6007 -1.46053 0.714662 0
M  V30 558 O 57.7847 -1.62154 0.961157 0
M  V30 559 C 54.9117 -2.6962 2.04994 0
M  V30 560 C 53.9577 -2.73036 3.27648 0
M  V30 561 S 54.7907 -2.28929 4.84099 0
M  V30 562 C 55.9467 -3.68103 5.06212 0
M  V30 563 H 56.1797 -1.06601 2.77531 0
M  V30 564 H 53.7127 -0.441112 1.47965 0
M  V30 565 H 55.6707 -3.48653 2.16682 0
M  V30 566 H 54.3317 -2.92609 1.14188 0
M  V30 567 H 53.5247 -3.7386 3.38 0
M  V30 568 H 53.1267 -2.02052 3.14723 0
M  V30 569 H 55.4187 -4.63656 4.93993 0
M  V30 570 H 56.3617 -3.6268 6.08168 0
M  V30 571 H 56.7697 -3.60947 4.34025 0
M  V30 572 N 56.1678 -1.49265 -0.50573 0
M  V30 573 C 57.1158 -1.66065 -1.62866 0
M  V30 574 C 58.1098 -0.526636 -1.61006 0
M  V30 575 O 59.3158 -0.706126 -1.65571 0
M  V30 576 H 55.6908 -0.52356 -0.539805 0
M  V30 577 H 57.6618 -2.60329 -1.45848 0
M  V30 578 C 56.4108 -1.74008 -3.01026 0
M  V30 579 H 55.7338 -2.6064 -3.03161 0
M  V30 580 H 57.1738 -1.89798 -3.79147 0
M  V30 581 C 55.6328 -0.483868 -3.33407 0
M  V30 582 O 56.1628 0.392548 -3.99777 0
M  V30 583 N 54.3688 -0.348236 -2.88506 0
M  V30 584 H 53.9158 -1.06242 -2.34671 0
M  V30 585 H 53.8738 0.491204 -3.10539 0
M  V30 586 N 57.6459 0.756429 -1.3826 0
M  V30 587 C 58.8709 1.55077 -1.37717 0
M  V30 588 C 59.2959 1.88073 0.03164 0
M  V30 589 O 58.6539 1.50364 1.01293 0
M  V30 590 C 58.7019 2.8283 -2.23695 0
M  V30 591 O 57.8059 3.77862 -1.6521 0
M  V30 592 H 57.1469 0.469152 -0.469885 0
M  V30 593 H 59.6769 0.935019 -1.81985 0
M  V30 594 H 59.6869 3.31783 -2.37453 0
M  V30 595 H 58.3619 2.58144 -3.2609 0
M  V30 596 H 56.9389 3.36555 -1.60578 0
M  V30 597 N 59.124 1.23083 0.984299 0
M  V30 598 C 60.034 1.02515 2.11016 0
M  V30 599 C 61.05 -0.0291702 1.73976 0
M  V30 600 O 62.226 0.165434 2.00719 0
M  V30 601 C 59.291 0.614673 3.41208 0
M  V30 602 C 58.352 1.74359 3.92297 0
M  V30 603 C 57.585 1.35261 5.16275 0
M  V30 604 O 57.808 0.235136 5.69915 0
M  V30 605 O 56.742 2.17227 5.61334 0
M  V30 606 H 60.568 1.96862 2.31255 0
M  V30 607 H 58.153 1.01753 1.09392 0
M  V30 608 H 60.035 0.396518 4.1953 0
M  V30 609 H 58.71 -0.299851 3.22308 0
M  V30 610 H 57.617 2.01635 3.1511 0
M  V30 611 H 58.95 2.63629 4.15645 0
M  V30 612 N 60.6021 -1.18246 1.0419 0
M  V30 613 C 61.5341 -2.2142 0.592088 0
M  V30 614 C 62.5471 -1.59233 -0.338909 0
M  V30 615 O 63.7361 -1.78002 -0.133231 0
M  V30 616 C 60.8361 -3.38546 -0.154854 0
M  V30 617 C 60.0091 -4.3031 0.784328 0
M  V30 618 C 59.0681 -5.26138 0.0804583 0
M  V30 619 O 58.0941 -5.64738 0.711292 0
M  V30 620 N 59.2961 -5.68261 -1.18574 0
M  V30 621 H 62.0611 -2.60636 1.47949 0
M  V30 622 H 59.6221 -1.33044 0.922544 0
M  V30 623 H 61.6141 -3.99678 -0.635606 0
M  V30 624 H 60.1841 -2.98012 -0.943811 0
M  V30 625 H 59.4041 -3.66764 1.44491 0
M  V30 626 H 60.6921 -4.8852 1.42218 0
M  V30 627 H 60.0901 -5.38957 -1.71876 0
M  V30 628 H 58.6471 -6.31584 -1.61074 0
M  V30 629 N 62.0802 -0.821533 -1.34494 0
M  V30 630 C 63.4962 -0.507117 -1.51329 0
M  V30 631 C 63.6962 0.968964 -1.76673 0
M  V30 632 O 62.7522 1.75348 -1.81685 0
M  V30 633 C 64.0652 -1.36544 -2.67911 0
M  V30 634 C 65.6132 -1.36242 -2.81793 0
M  V30 635 C 66.0882 -2.2052 -4.01416 0
M  V30 636 N 67.5792 -2.18136 -4.08621 0
M  V30 637 C 68.3142 -2.80095 -5.00334 0
M  V30 638 N 67.8102 -3.51039 -5.9728 0
M  V30 639 N 69.6032 -2.69656 -4.93196 0
M  V30 640 H 61.7542 -1.77729 -1.16302 0
M  V30 641 H 64.0172 -0.757291 -0.570276 0
M  V30 642 H 63.7232 -2.41361 -2.55808 0
M  V30 643 H 63.5972 -1.02917 -3.62888 0
M  V30 644 H 65.9842 -0.322041 -2.93338 0
M  V30 645 H 66.0652 -1.73866 -1.87628 0
M  V30 646 H 65.7092 -3.24607 -3.90631 0
M  V30 647 H 65.6392 -1.80247 -4.94791 0
M  V30 648 H 68.1302 -1.6653 -3.39229 0
M  V30 649 H 68.4432 -3.95565 -6.63889 0
M  V30 650 H 66.7882 -3.55145 -5.97409 0
M  V30 651 H 69.9792 -2.13808 -4.16418 0
M  V30 652 H 70.1522 -3.1823 -5.64476 0
M  V30 653 N 63.5583 1.46682 -0.576371 0
M  V30 654 C 64.8073 2.01619 -0.0572825 0
M  V30 655 C 65.1203 1.45417 1.30818 0
M  V30 656 O 66.3263 1.92133 1.91825 0
M  V30 657 C 64.7823 3.59863 -0.0518371 0
M  V30 658 C 64.3903 4.25059 -1.41523 0
M  V30 659 C 66.1343 4.2248 0.413639 0
M  V30 660 C 64.0413 5.75364 -1.36785 0
M  V30 661 H 62.9713 0.753794 -0.0176448 0
M  V30 662 H 65.6223 1.68481 -0.727076 0
M  V30 663 H 64.0043 3.90048 0.683994 0
M  V30 664 H 65.1783 4.06491 -2.17029 0
M  V30 665 H 63.4933 3.7451 -1.8202 0
M  V30 666 H 66.0903 5.3265 0.467779 0
M  V30 667 H 66.4333 3.90976 1.42982 0
M  V30 668 H 66.9663 3.96897 -0.267929 0
M  V30 669 H 63.7053 6.11518 -2.36063 0
M  V30 670 H 63.2253 5.96214 -0.654895 0
M  V30 671 H 64.9043 6.37955 -1.07805 0
M  V30 672 N 65.0364 0.313813 1.54444 0
M  V30 673 C 65.9844 -0.572171 2.25453 0
M  V30 674 C 66.9784 -1.12657 1.2651 0
M  V30 675 O 68.1844 -1.07573 1.44319 0
M  V30 676 H 64.5594 -0.203146 0.724041 0
M  V30 677 H 66.5304 0.0491145 2.9836 0
M  V30 678 C 65.2794 -1.72626 3.0182 0
M  V30 679 H 64.6024 -1.30891 3.77767 0
M  V30 680 H 66.0424 -2.32199 3.54767 0
M  V30 681 C 64.5014 -2.63806 2.09542 0
M  V30 682 O 65.0314 -3.65256 1.67185 0
M  V30 683 N 63.2374 -2.31824 1.75232 0
M  V30 684 H 62.7844 -1.49368 2.09873 0
M  V30 685 H 62.7424 -2.93095 1.13767 0
M  V30 686 N 66.5145 -1.57545 0.0417849 0
M  V30 687 C 67.9305 -1.56467 -0.314704 0
M  V30 688 C 68.1305 -1.04859 -1.72066 0
M  V30 689 O 67.1865 -0.700983 -2.42575 0
M  V30 690 C 68.4995 -3.00317 -0.15174 0
M  V30 691 C 70.0475 -3.12201 -0.223553 0
M  V30 692 C 70.5225 -4.57913 -0.0892295 0
M  V30 693 N 72.0135 -4.6297 -0.145808 0
M  V30 694 C 72.7485 -5.73362 -0.0658459 0
M  V30 695 N 72.2445 -6.92769 0.0659282 0
M  V30 696 N 74.0375 -5.6197 -0.12075 0
M  V30 697 H 66.1885 -1.89416 0.961014 0
M  V30 698 H 68.4515 -0.871862 0.372237 0
M  V30 699 H 68.1575 -3.42073 0.817254 0
M  V30 700 H 68.0315 -3.65892 -0.916692 0
M  V30 701 H 70.4185 -2.70349 -1.18301 0
M  V30 702 H 70.4995 -2.49323 0.571994 0
M  V30 703 H 70.1435 -5.00448 0.866867 0
M  V30 704 H 70.0735 -5.18786 -0.903802 0
M  V30 705 H 72.5645 -3.7709 -0.247286 0
M  V30 706 H 72.8775 -7.72707 0.119905 0
M  V30 707 H 71.2225 -6.94927 0.100885 0
M  V30 708 H 74.4135 -4.67572 -0.222187 0
M  V30 709 H 74.5865 -6.47977 -0.0549735 0
M  V30 710 N 67.9926 0.231505 -1.5589 0
M  V30 711 C 69.2416 0.955346 -1.7764 0
M  V30 712 C 69.5546 1.85893 -0.608546 0
M  V30 713 O 70.7606 2.62067 -0.70943 0
M  V30 714 C 69.2166 1.74886 -3.14552 0
M  V30 715 C 68.8246 0.891915 -4.39032 0
M  V30 716 C 70.5686 2.46452 -3.45633 0
M  V30 717 C 68.4756 1.68221 -5.66971 0
M  V30 718 H 67.4056 0.360446 -0.662265 0
M  V30 719 H 70.0566 0.209516 -1.823 0
M  V30 720 H 68.4386 2.53723 -3.04041 0
M  V30 721 H 69.6126 0.144793 -4.60572 0
M  V30 722 H 67.9276 0.288863 -4.15397 0
M  V30 723 H 70.5246 3.06061 -4.38441 0
M  V30 724 H 70.8676 3.18841 -2.67668 0
M  V30 725 H 71.4006 1.74613 -3.57428 0
M  V30 726 H 68.1396 1.00178 -6.478 0
M  V30 727 H 67.6596 2.4042 -5.49507 0
M  V30 728 H 69.3386 2.24544 -6.06786 0
M  V30 729 N 69.4707 1.49531 0.497807 0
M  V30 730 C 70.4037 1.61043 1.6168 0
M  V30 731 C 71.3817 0.459386 1.55976 0
M  V30 732 O 72.5657 0.675358 1.75986 0
M  V30 733 C 69.6927 1.56833 3.00202 0
M  V30 734 C 68.7387 2.77173 3.24156 0
M  V30 735 S 69.5717 4.38808 3.06933 0
M  V30 736 C 70.7277 4.37248 4.47845 0
M  V30 737 H 70.9607 2.55702 1.51671 0
M  V30 738 H 68.4937 1.38462 0.683201 0
M  V30 739 H 70.4517 1.55089 3.80076 0
M  V30 740 H 69.1127 0.634561 3.07623 0
M  V30 741 H 68.3057 2.70456 4.25288 0
M  V30 742 H 67.9077 2.76346 2.5201 0
M  V30 743 H 70.1997 4.09164 5.39992 0
M  V30 744 H 71.1427 5.38668 4.59612 0
M  V30 745 H 71.5507 3.67286 4.28674 0
M  V30 746 N 70.9488 -0.749086 1.3866 0
M  V30 747 C 72.1968 -1.50535 1.34847 0
M  V30 748 C 72.5178 -1.94909 -0.0595016 0
M  V30 749 O 71.7878 -1.67973 -1.00806 0
M  V30 750 H 70.3678 -0.558395 0.49619 0
M  V30 751 H 73.0298 -0.890165 1.73384 0
M  V30 752 H 72.1258 -2.39413 2.00219 0
M  V30 753 N 72.4269 -1.23603 -0.977757 0
M  V30 754 C 73.6739 -1.06971 -1.71941 0
M  V30 755 C 74.0019 0.393009 -1.90488 0
M  V30 756 O 73.2569 1.30719 -1.4564 0
M  V30 757 C 73.5559 -1.7433 -3.11999 0
M  V30 758 C 73.2219 -3.24252 -3.13323 0
M  V30 759 C 71.8839 -3.65156 -3.13392 0
M  V30 760 C 74.2359 -4.20141 -3.08433 0
M  V30 761 C 71.5639 -5.00403 -3.0629 0
M  V30 762 C 73.9159 -5.55384 -3.02873 0
M  V30 763 C 72.5799 -5.95647 -3.01265 0
M  V30 764 H 71.8499 -0.391433 -0.629175 0
M  V30 765 H 74.4969 -1.53572 -1.14403 0
M  V30 766 H 72.8019 -1.20096 -3.7294 0
M  V30 767 H 74.4989 -1.58936 -3.68158 0
M  V30 768 H 71.0889 -2.91692 -3.14029 0
M  V30 769 H 75.2729 -3.89547 -3.07517 0
M  V30 770 H 70.5289 -5.3081 -3.03399 0
M  V30 771 H 74.7029 -6.29398 -2.98046 0
M  V30 772 H 72.3299 -7.0041 -2.95516 0
M  V30 773 N 73.905 1.17692 -1.04816 0
M  V30 774 C 74.855 2.1952 -0.616042 0
M  V30 775 C 75.839 1.57147 0.345485 0
M  V30 776 O 77.031 1.76245 0.163325 0
M  V30 777 C 74.16 3.43298 0.0116917 0
M  V30 778 C 73.246 4.12777 -0.973435 0
M  V30 779 N 73.637 4.5814 -2.14339 0
M  V30 780 C 71.935 4.38747 -0.80108 0
M  V30 781 C 72.636 5.11713 -2.7663 0
M  V30 782 N 71.612 5.03686 -2.04453 0
M  V30 783 H 75.414 2.52293 -1.5075 0
M  V30 784 H 72.928 1.3398 -0.917776 0
M  V30 785 H 74.925 4.15519 0.339006 0
M  V30 786 H 73.585 3.12018 0.898593 0
M  V30 787 H 74.596 4.52349 -2.52191 0
M  V30 788 H 71.273 4.17485 0.0350934 0
M  V30 789 H 72.663 5.56962 -3.75823 0
M  V30 790 N 75.3831 0.828654 1.34056 0
M  V30 791 C 76.7991 0.515135 1.51058 0
M  V30 792 C 76.9991 -0.959581 1.77184 0
M  V30 793 O 76.0551 -1.74382 1.82612 0
M  V30 794 C 77.3681 1.37963 2.67183 0
M  V30 795 C 78.9161 1.37735 2.81066 0
M  V30 796 C 79.3911 2.22645 4.00241 0
M  V30 797 N 80.8821 2.203 4.07458 0
M  V30 798 C 81.6171 2.82744 4.98842 0
M  V30 799 N 81.1131 3.54201 5.9541 0
M  V30 800 N 82.9061 2.72268 4.91759 0
M  V30 801 H 75.0571 1.78343 1.15358 0
M  V30 802 H 77.3201 0.760304 0.566252 0
M  V30 803 H 77.0261 2.42714 2.54525 0
M  V30 804 H 76.9001 1.0484 3.62338 0
M  V30 805 H 79.2871 0.337593 2.93163 0
M  V30 806 H 79.3681 1.74859 1.86703 0
M  V30 807 H 79.0121 3.26674 3.88905 0
M  V30 808 H 78.9421 1.82869 4.93829 0
M  V30 809 H 81.4331 1.68327 3.38341 0
M  V30 810 H 81.7461 3.9908 6.61782 0
M  V30 811 H 80.0911 3.58308 5.95517 0
M  V30 812 H 83.2821 2.16014 4.15278 0
M  V30 813 H 83.4551 3.21219 5.62781 0
M  V30 814 N 76.8612 -1.46375 0.584142 0
M  V30 815 C 78.2722 -1.86031 0.157959 0
M  V30 816 C 78.6232 -1.48753 -1.27933 0
M  V30 817 O 77.7482 -0.903098 -1.96655 0
M  V30 818 C 78.3432 -3.37642 0.279892 0
M  V30 819 C 76.9022 -3.76289 -0.09143 0
M  V30 820 C 76.0492 -2.7039 0.615178 0
M  V30 821 H 79.0002 -1.37509 0.792274 0
M  V30 822 H 79.0212 -3.77275 -0.494364 0
M  V30 823 H 78.5332 -3.64742 1.32607 0
M  V30 824 H 76.6342 -3.54806 -1.13769 0
M  V30 825 H 76.7472 -4.78246 0.285886 0
M  V30 826 H 75.1112 -2.5464 0.0552833 0
M  V30 827 H 75.8942 -3.0033 1.66303 0
M  V30 828 N 78.3393 -0.321999 -1.54275 0
M  V30 829 C 79.5873 0.280489 -2.00144 0
M  V30 830 C 79.9083 1.52777 -1.21178 0
M  V30 831 O 79.1783 1.9338 -0.313187 0
M  V30 832 H 77.7583 0.106632 -0.73935 0
M  V30 833 H 80.4203 -0.438184 -1.8991 0
M  V30 834 H 79.5163 0.537972 -3.07428 0
M  V30 835 N 79.8174 1.5752 -0.0501392 0
M  V30 836 C 81.0424 1.97376 0.636997 0
M  V30 837 C 81.4674 0.927466 1.63645 0
M  V30 838 O 80.8254 -0.10941 1.8097 0
M  V30 839 C 80.8734 3.36304 1.30123 0
M  V30 840 O 79.9774 3.34156 2.41689 0
M  V30 841 H 79.3184 0.642998 0.165679 0
M  V30 842 H 81.8484 2.04258 -0.118233 0
M  V30 843 H 81.8584 3.73008 1.65315 0
M  V30 844 H 80.5334 4.11993 0.568746 0
M  V30 845 H 79.1104 3.09196 2.08451 0
M  V30 846 N 81.2955 -0.223234 1.56011 0
M  V30 847 C 82.5435 -0.946003 1.78592 0
M  V30 848 C 82.8645 -1.84936 0.618349 0
M  V30 849 O 82.1345 -1.92473 -0.364833 0
M  V30 850 H 80.7145 -0.352298 0.658707 0
M  V30 851 H 83.3765 -0.235494 1.93472 0
M  V30 852 H 82.4725 -1.55381 2.70672 0
M  V30 853 N 82.7736 -1.49793 -0.48987 0
M  V30 854 C 83.7366 -1.66752 -1.57246 0
M  V30 855 C 84.7366 -0.538867 -1.51502 0
M  V30 856 O 85.9266 -0.805545 -1.54456 0
M  V30 857 C 83.0586 -1.67528 -2.96896 0
M  V30 858 H 84.2516 -2.63321 -1.43534 0
M  V30 859 H 81.8046 -1.38992 -0.714914 0
M  V30 860 H 82.5396 -0.725837 -3.16073 0
M  V30 861 H 82.3246 -2.49504 -3.02473 0
M  V30 862 H 83.8146 -1.82667 -3.7553 0
M  V30 863 N 84.2517 0.741722 -1.39055 0
M  V30 864 C 85.1617 1.88621 -1.39496 0
M  V30 865 C 86.1777 1.71557 -0.290578 0
M  V30 866 O 87.3537 1.94275 -0.530954 0
M  V30 867 C 84.4187 3.24134 -1.23037 0
M  V30 868 C 83.4797 3.5364 -2.43387 0
M  V30 869 C 82.7127 4.82687 -2.27703 0
M  V30 870 O 82.9357 5.55922 -1.27696 0
M  V30 871 O 81.8697 5.1194 -3.16545 0
M  V30 872 H 85.6957 1.91203 -2.35956 0
M  V30 873 H 83.2807 0.888625 -1.20099 0
M  V30 874 H 85.1627 4.0513 -1.15964 0
M  V30 875 H 83.8377 3.22337 -0.296691 0
M  V30 876 H 82.7447 2.72758 -2.56035 0
M  V30 877 H 84.0777 3.60209 -3.35425 0
M  V30 878 N 85.7298 1.2412 0.971189 0
M  V30 879 C 86.6398 1.04747 2.09917 0
M  V30 880 C 87.6558 -0.0107162 1.73997 0
M  V30 881 O 88.8318 0.186714 2.00533 0
M  V30 882 C 85.8968 0.650828 3.40537 0
M  V30 883 C 84.9578 1.7851 3.90426 0
M  V30 884 C 84.1908 1.40729 5.14812 0
M  V30 885 O 84.4138 0.29557 5.69634 0
M  V30 886 O 83.3478 2.23168 5.58999 0
M  V30 887 H 87.1738 1.99304 2.29154 0
M  V30 888 H 84.7588 1.02908 1.08307 0
M  V30 889 H 86.6408 0.440992 4.19086 0
M  V30 890 H 85.3158 -0.265649 3.22608 0
M  V30 891 H 84.2228 2.04966 3.12953 0
M  V30 892 H 85.5558 2.68023 4.12825 0
M  V30 893 N 87.2079 -1.17134 1.05439 0
M  V30 894 C 88.1179 -2.24878 0.668365 0
M  V30 895 C 89.1339 -1.71186 -0.311687 0
M  V30 896 O 90.3099 -2.00738 -0.163161 0
M  V30 897 C 87.3749 -3.46662 0.051648 0
M  V30 898 C 86.4359 -4.15429 1.08246 0
M  V30 899 C 85.6689 -5.31399 0.495082 0
M  V30 900 O 85.8919 -5.66153 -0.694743 0
M  V30 901 O 84.8259 -5.89187 1.23056 0
M  V30 902 H 88.6519 -2.60189 1.56637 0
M  V30 903 H 86.2369 -1.24482 0.826104 0
M  V30 904 H 88.1189 -4.20394 -0.290966 0
M  V30 905 H 86.7939 -3.13142 -0.819971 0
M  V30 906 H 85.7009 -3.43704 1.47711 0
M  V30 907 H 87.0339 -4.52982 1.92532 0
M  V30 908 N 88.686 -0.835752 -1.33615 0
M  V30 909 C 89.911 -0.442389 -2.02627 0
M  V30 910 C 90.336 0.947735 -1.62479 0
M  V30 911 O 89.694 1.61907 -0.815826 0
M  V30 912 C 89.742 -0.567216 -3.56111 0
M  V30 913 O 88.846 0.407799 -4.10379 0
M  V30 914 H 88.187 -0.180278 -0.639059 0
M  V30 915 H 90.717 -1.12972 -1.70583 0
M  V30 916 H 90.727 -0.447708 -4.05536 0
M  V30 917 H 89.402 -1.58103 -3.84677 0
M  V30 918 H 87.979 0.246107 -3.72087 0
M  V30 919 N 90.1641 1.46063 -0.591896 0
M  V30 920 C 91.0961 2.28539 0.174001 0
M  V30 921 C 92.1091 1.39047 0.846753 0
M  V30 922 O 93.2981 1.63564 0.714774 0
M  V30 923 C 90.3981 3.14347 1.26645 0
M  V30 924 C 89.5711 4.32021 0.683856 0
M  V30 925 C 88.6301 4.99157 1.66518 0
M  V30 926 O 87.6561 5.56458 1.19763 0
M  V30 927 N 88.8581 4.97005 2.99943 0
M  V30 928 H 91.6231 2.94911 -0.533633 0
M  V30 929 H 89.1841 1.56077 -0.430294 0
M  V30 930 H 91.1761 3.56125 1.92242 0
M  V30 931 H 89.7461 2.49988 1.87682 0
M  V30 932 H 88.9661 3.93915 -0.1498 0
M  V30 933 H 90.2541 5.08059 0.274567 0
M  V30 934 H 89.6521 4.51714 3.40545 0
M  V30 935 H 88.2091 5.42696 3.61004 0
M  V30 936 N 91.6422 0.330177 1.54103 0
M  V30 937 C 92.8702 -0.272179 2.05102 0
M  V30 938 C 93.2852 -1.45267 1.20595 0
M  V30 939 O 92.6422 -1.8094 0.238144 0
M  V30 940 C 92.6932 -0.70023 3.54653 0
M  V30 941 O 92.4142 0.433301 4.35952 0
M  V30 942 C 93.9152 -1.3647 4.21771 0
M  V30 943 H 91.1352 -0.0549159 0.668749 0
M  V30 944 H 93.6792 0.478285 1.98828 0
M  V30 945 H 91.8342 -1.40066 3.61193 0
M  V30 946 H 92.2482 0.0947539 5.24414 0
M  V30 947 H 93.7222 -1.61509 5.27843 0
M  V30 948 H 94.1992 -2.31409 3.73292 0
M  V30 949 H 94.8052 -0.706675 4.19388 0
M  V30 950 N 93.1203 -1.57491 0.0584922 0
M  V30 951 C 94.0673 -2.11958 -0.913376 0
M  V30 952 C 95.0373 -1.02875 -1.30407 0
M  V30 953 O 96.2223 -1.30464 -1.39226 0
M  V30 954 C 93.3623 -2.67497 -2.18035 0
M  V30 955 C 92.4753 -3.90691 -1.84349 0
M  V30 956 C 91.6103 -4.3452 -3.05559 0
M  V30 957 C 90.6493 -5.50395 -2.67827 0
M  V30 958 N 89.7863 -5.89244 -3.81754 0
M  V30 959 H 94.6263 -2.94704 -0.442017 0
M  V30 960 H 92.1633 -1.45643 -0.206545 0
M  V30 961 H 94.1213 -2.978 -2.92183 0
M  V30 962 H 92.7513 -1.87537 -2.62735 0
M  V30 963 H 91.8033 -3.66934 -1.00319 0
M  V30 964 H 93.1153 -4.7489 -1.5258 0
M  V30 965 H 92.2693 -4.66414 -3.87998 0
M  V30 966 H 91.0083 -3.49147 -3.40511 0
M  V30 967 H 90.0133 -5.18165 -1.83806 0
M  V30 968 H 91.2383 -6.3749 -2.34059 0
M  V30 969 H 89.1843 -5.06823 -4.16493 0
M  V30 970 H 89.1013 -6.68151 -3.53708 0
M  V30 971 H 90.3693 -6.25756 -4.64811 0
M  V30 972 N 94.5984 0.214957 -1.56127 0
M  V30 973 C 95.8234 0.95924 -1.83884 0
M  V30 974 C 96.2484 1.7689 -0.639644 0
M  V30 975 O 95.6064 1.76566 0.411601 0
M  V30 976 C 95.6544 1.84723 -3.09693 0
M  V30 977 O 94.7584 2.94346 -2.8885 0
M  V30 978 H 94.0994 0.27125 -0.606069 0
M  V30 979 H 96.6294 0.226276 -2.03345 0
M  V30 980 H 96.6394 2.25576 -3.39969 0
M  V30 981 H 95.3144 1.25218 -3.96602 0
M  V30 982 H 93.8914 2.57391 -2.69823 0
M  V30 983 N 96.0765 1.50051 0.48192 0
M  V30 984 C 97.0235 1.68122 1.58125 0
M  V30 985 C 97.9935 0.522545 1.57666 0
M  V30 986 O 99.1785 0.751844 1.75362 0
M  V30 987 C 96.3185 1.77142 2.96167 0
M  V30 988 C 95.4315 3.0444 3.06497 0
M  V30 989 C 94.5665 3.04321 4.35387 0
M  V30 990 C 93.6055 4.26118 4.3942 0
M  V30 991 N 92.7425 4.238 5.59766 0
M  V30 992 H 97.5825 2.6198 1.42022 0
M  V30 993 H 95.1195 1.29877 0.690687 0
M  V30 994 H 97.0775 1.80352 3.76203 0
M  V30 995 H 95.7075 0.867329 3.1093 0
M  V30 996 H 94.7595 3.10752 2.19402 0
M  V30 997 H 96.0715 3.94426 3.05336 0
M  V30 998 H 95.2255 3.062 5.23762 0
M  V30 999 H 93.9645 2.12147 4.39141 0
M  V30 1000 H 92.9695 4.24463 3.49444 0
M  V30 1001 H 94.1945 5.19507 4.37366 0
M  V30 1002 H 92.1405 3.34474 5.64326 0
M  V30 1003 H 92.0575 5.07542 5.60301 0
M  V30 1004 H 93.3255 4.2981 6.50295 0
M  V30 1005 N 97.5546 -0.734337 1.39446 0
M  V30 1006 C 98.4866 -1.85861 1.34121 0
M  V30 1007 C 99.4996 -1.60871 0.249864 0
M  V30 1008 O 100.689 -1.71093 0.508865 0
M  V30 1009 C 97.7886 -3.21899 1.05991 0
M  V30 1010 C 96.9616 -3.74239 2.26415 0
M  V30 1011 C 96.0206 -4.88841 1.94733 0
M  V30 1012 O 95.0466 -5.02468 2.67422 0
M  V30 1013 N 96.2486 -5.73261 0.913884 0
M  V30 1014 H 99.0136 -1.90934 2.31007 0
M  V30 1015 H 96.5746 -0.915102 1.33557 0
M  V30 1016 H 98.5666 -3.96136 0.828147 0
M  V30 1017 H 97.1366 -3.12091 0.178361 0
M  V30 1018 H 96.3566 -2.91347 2.65539 0
M  V30 1019 H 97.6446 -4.05942 3.06738 0
M  V30 1020 H 97.0426 -5.64842 0.311476 0
M  V30 1021 H 95.5996 -6.47563 0.742015 0
M  V30 1022 N 99.0327 -1.24633 -0.964593 0
M  V30 1023 C 99.9647 -0.999302 -2.06268 0
M  V30 1024 C 100.978 0.0323226 -1.62768 0
M  V30 1025 O 102.167 -0.205079 -1.77318 0
M  V30 1026 C 99.2667 -0.486816 -3.35385 0
M  V30 1027 C 98.4397 -1.5823 -4.07777 0
M  V30 1028 C 97.4987 -1.07191 -5.15166 0
M  V30 1029 O 96.5247 -1.76426 -5.41168 0
M  V30 1030 N 97.7267 0.0920373 -5.80427 0
M  V30 1031 H 100.492 -1.94477 -2.28033 0
M  V30 1032 H 98.0527 -1.15704 -1.13244 0
M  V30 1033 H 100.045 -0.130066 -4.04491 0
M  V30 1034 H 98.6147 0.364459 -3.10468 0
M  V30 1035 H 97.8347 -2.11109 -3.32906 0
M  V30 1036 H 99.1227 -2.31854 -4.52903 0
M  V30 1037 H 98.5207 0.670784 -5.61709 0
M  V30 1038 H 97.0777 0.389905 -6.50633 0
M  V30 1039 N 100.511 1.16574 -1.06058 0
M  V30 1040 C 101.788 1.83048 -0.689416 0
M  V30 1041 C 102.168 1.94122 0.829443 0
M  V30 1042 O 101.516 1.48249 1.7388 0
M  V30 1043 C 101.726 3.20186 -1.38859 0
M  V30 1044 C 103.074 3.95989 -1.53226 0
M  V30 1045 O 104.098 3.29696 -1.3483 0
M  V30 1046 O 102.957 5.14813 -1.83384 0
M  V30 1047 H 100.051 0.790258 -0.243764 0
M  V30 1048 H 102.597 1.23797 -1.16071 0
M  V30 1049 H 101.369 3.07146 -2.4244 0
M  V30 1050 H 100.992 3.87112 -0.907216 0
M  V30 1051 N 101.989 0.842826 1.3317 0
M  V30 1052 C 103.214 0.453129 2.02389 0
M  V30 1053 C 103.639 -0.939105 1.6298 0
M  V30 1054 O 102.997 -1.61472 0.8244 0
M  V30 1055 C 103.045 0.586094 3.55805 0
M  V30 1056 O 102.149 -0.386029 4.10589 0
M  V30 1057 H 101.49 0.183664 0.638094 0
M  V30 1058 H 104.02 1.13875 1.69981 0
M  V30 1059 H 104.03 0.469209 4.05293 0
M  V30 1060 H 102.705 1.6014 3.83833 0
M  V30 1061 H 101.282 -0.226371 3.72212 0
M  V30 1062 N 103.467 -1.45747 0.599634 0
M  V30 1063 C 104.744 -1.95585 0.0240846 0
M  V30 1064 C 105.124 -1.54217 -1.44154 0
M  V30 1065 O 104.472 -0.800903 -2.14004 0
M  V30 1066 C 104.682 -3.48344 0.21385 0
M  V30 1067 C 106.03 -4.24504 0.0904902 0
M  V30 1068 O 107.054 -3.55911 0.143558 0
M  V30 1069 O 105.913 -5.46491 -0.0310766 0
M  V30 1070 H 103.007 -0.82602 -0.0402478 0
M  V30 1071 H 105.553 -1.55951 0.669139 0
M  V30 1072 H 104.325 -3.71397 1.23206 0
M  V30 1073 H 103.948 -3.9485 -0.466842 0
M  V30 1074 N 104.945 -0.338344 -1.53925 0
M  V30 1075 C 105.892 0.520845 -2.24846 0
M  V30 1076 C 106.862 1.09976 -1.24477 0
M  V30 1077 O 108.047 1.13735 -1.53196 0
M  V30 1078 C 105.187 1.6685 -3.02084 0
M  V30 1079 C 104.3 1.11739 -4.17299 0
M  V30 1080 C 103.435 2.23193 -4.82036 0
M  V30 1081 C 102.474 1.65407 -5.89328 0
M  V30 1082 N 101.611 2.70582 -6.47866 0
M  V30 1083 H 106.451 -0.0904881 -2.97863 0
M  V30 1084 H 103.988 -0.0564282 -1.46992 0
M  V30 1085 H 105.946 2.34407 -3.45122 0
M  V30 1086 H 104.576 2.2509 -2.31375 0
M  V30 1087 H 103.628 0.332919 -3.7894 0
M  V30 1088 H 104.94 0.654677 -4.94485 0
M  V30 1089 H 104.094 2.98626 -5.28117 0
M  V30 1090 H 102.833 2.72807 -4.04262 0
M  V30 1091 H 101.838 0.884779 -5.42634 0
M  V30 1092 H 103.063 1.16652 -6.69006 0
M  V30 1093 H 101.009 3.1946 -5.72959 0
M  V30 1094 H 100.926 2.28917 -7.20509 0
M  V30 1095 H 102.194 3.45799 -6.98601 0
M  V30 1096 N 106.423 1.57458 -0.0668435 0
M  V30 1097 C 107.353 2.15468 0.899764 0
M  V30 1098 C 108.334 1.08042 1.31381 0
M  V30 1099 O 109.519 1.36054 1.38574 0
M  V30 1100 C 106.649 2.71232 2.16911 0
M  V30 1101 C 105.603 3.83781 1.89463 0
M  V30 1102 C 104.929 4.26127 3.22986 0
M  V30 1103 C 106.229 5.08238 1.20381 0
M  V30 1104 H 107.923 2.96488 0.416529 0
M  V30 1105 H 105.469 1.4262 0.198908 0
M  V30 1106 H 107.422 3.10458 2.84945 0
M  V30 1107 H 106.146 1.87426 2.67468 0
M  V30 1108 H 104.805 3.45051 1.23836 0
M  V30 1109 H 104.453 3.39249 3.71374 0
M  V30 1110 H 104.153 5.01993 3.05413 0
M  V30 1111 H 105.677 4.67966 3.92225 0
M  V30 1112 H 107.091 5.44811 1.78475 0
M  V30 1113 H 105.488 5.89349 1.13083 0
M  V30 1114 H 106.558 4.84558 0.182153 0
M  V30 1115 N 107.901 -0.206675 1.56239 0
M  V30 1116 C 108.849 -1.27571 1.94495 0
M  V30 1117 C 109.843 -1.47737 0.828862 0
M  V30 1118 O 111.049 -1.48735 1.0138 0
M  V30 1119 H 107.424 -0.428029 0.6183 0
M  V30 1120 H 109.395 -0.925961 2.8367 0
M  V30 1121 C 108.144 -2.61568 2.29079 0
M  V30 1122 H 107.467 -2.46863 3.14482 0
M  V30 1123 H 108.907 -3.35144 2.5972 0
M  V30 1124 C 107.366 -3.17695 1.12123 0
M  V30 1125 O 107.896 -3.99801 0.390153 0
M  V30 1126 N 106.102 -2.76276 0.901097 0
M  V30 1127 H 105.649 -2.09613 1.49733 0
M  V30 1128 H 105.607 -3.1417 0.120319 0
M  V30 1129 N 109.379 -1.50304 -0.473955 0
M  V30 1130 C 110.604 -1.65175 -1.25427 0
M  V30 1131 C 111.029 -0.333673 -1.85117 0
M  V30 1132 O 110.387 0.702114 -1.67153 0
M  V30 1133 C 110.435 -2.74295 -2.34082 0
M  V30 1134 O 109.539 -2.35349 -3.38651 0
M  V30 1135 H 108.88 -0.551944 -0.369126 0
M  V30 1136 H 111.41 -1.96662 -0.564364 0
M  V30 1137 H 111.42 -2.97285 -2.79438 0
M  V30 1138 H 110.095 -3.69959 -1.90008 0
M  V30 1139 H 108.672 -2.22794 -2.99027 0
M  V30 1140 N 110.857 0.726932 -1.39834 0
M  V30 1141 C 111.787 1.85405 -1.41941 0
M  V30 1142 C 112.768 1.67751 -0.281728 0
M  V30 1143 O 113.953 1.8795 -0.488717 0
M  V30 1144 C 111.083 3.23243 -1.2701 0
M  V30 1145 C 110.037 3.55549 -2.38262 0
M  V30 1146 C 109.363 4.9241 -2.08415 0
M  V30 1147 C 110.663 3.577 -3.80589 0
M  V30 1148 H 112.357 1.83899 -2.36266 0
M  V30 1149 H 109.903 0.883349 -1.13723 0
M  V30 1150 H 111.856 4.01775 -1.27103 0
M  V30 1151 H 110.58 3.25296 -0.291564 0
M  V30 1152 H 109.239 2.79351 -2.37399 0
M  V30 1153 H 108.887 4.91052 -1.0898 0
M  V30 1154 H 108.587 5.14992 -2.82943 0
M  V30 1155 H 110.111 5.73289 -2.10171 0
M  V30 1156 H 111.525 4.26293 -3.83337 0
M  V30 1157 H 109.922 3.91804 -4.54543 0
M  V30 1158 H 110.992 2.57328 -4.10987 0
M  V30 1159 N 112.336 1.25143 0.95797 0
M  V30 1160 C 113.561 1.12521 1.74223 0
M  V30 1161 C 113.986 -0.317402 1.85403 0
M  V30 1162 O 113.344 -1.2299 1.33204 0
M  V30 1163 C 113.392 1.78062 3.1357 0
M  V30 1164 O 112.496 1.058 3.98598 0
M  V30 1165 H 111.837 0.39304 0.535178 0
M  V30 1166 H 114.367 1.65641 1.201 0
M  V30 1167 H 114.377 1.84213 3.64046 0
M  V30 1168 H 113.052 2.83021 3.04749 0
M  V30 1169 H 111.629 1.07506 3.57067 0
M  V30 1170 N 113.814 -1.1601 1.06675 0
M  V30 1171 C 115.06 -1.86909 0.786945 0
M  V30 1172 C 115.393 -1.81717 -0.685018 0
M  V30 1173 O 114.668 -1.23551 -1.50218 0
M  V30 1174 C 114.951 -3.36313 1.28707 0
M  V30 1175 C 114.804 -3.50175 2.82308 0
M  V30 1176 C 116.123 -4.3084 0.898071 0
M  V30 1177 H 113.242 -0.678677 0.287343 0
M  V30 1178 H 115.884 -1.36336 1.32334 0
M  V30 1179 H 114.034 -3.79513 0.830768 0
M  V30 1180 H 115.706 -3.15886 3.36175 0
M  V30 1181 H 113.949 -2.91959 3.20847 0
M  V30 1182 H 114.62 -4.55116 3.12368 0
M  V30 1183 H 117.096 -3.95561 1.29114 0
M  V30 1184 H 115.972 -5.33876 1.27543 0
M  V30 1185 H 116.233 -4.41662 -0.196651 0
M  V30 1186 N 115.292 -0.849877 -1.32721 0
M  V30 1187 C 116.703 -0.506188 -1.79707 0
M  V30 1188 C 117.054 0.975627 -1.70223 0
M  V30 1189 O 116.179 1.76078 -1.25799 0
M  V30 1190 C 116.774 -0.912044 -3.26293 0
M  V30 1191 C 115.333 -0.620326 -3.71253 0
M  V30 1192 C 114.48 -1.11439 -2.53922 0
M  V30 1193 H 117.431 -1.03754 -1.20087 0
M  V30 1194 H 117.452 -0.226493 -3.79825 0
M  V30 1195 H 116.964 -1.99057 -3.33164 0
M  V30 1196 H 115.065 0.447674 -3.69901 0
M  V30 1197 H 115.178 -1.18327 -4.64258 0
M  V30 1198 H 113.542 -0.534834 -2.49021 0
M  V30 1199 H 114.325 -2.19992 -2.6355 0
M  V30 1200 N 116.77 1.45427 -0.607355 0
M  V30 1201 C 117.995 2.07124 -0.107006 0
M  V30 1202 C 118.42 1.44906 1.19933 0
M  V30 1203 O 117.778 0.541687 1.73019 0
M  V30 1204 C 117.826 3.60595 0.0194119 0
M  V30 1205 O 116.93 3.98285 1.0697 0
M  V30 1206 H 116.271 0.659868 -0.0739597 0
M  V30 1207 H 118.801 1.86683 -0.837297 0
M  V30 1208 H 118.811 4.07419 0.2177 0
M  V30 1209 H 117.486 4.05266 -0.934453 0
M  V30 1210 H 116.063 3.63133 0.847889 0
M  V30 1211 N 118.248 0.346503 1.53744 0
M  V30 1212 C 119.494 -0.249473 2.0126 0
M  V30 1213 C 119.827 -1.49965 1.23386 0
M  V30 1214 O 119.102 -1.91811 0.32229 0
M  V30 1215 C 119.385 -0.560643 3.55709 0
M  V30 1216 C 119.238 0.701836 4.44291 0
M  V30 1217 C 120.557 -1.36905 4.18264 0
M  V30 1218 H 117.676 -0.0891987 0.731582 0
M  V30 1219 H 120.318 0.467624 1.84156 0
M  V30 1220 H 118.468 -1.17156 3.70414 0
M  V30 1221 H 120.14 1.33974 4.41417 0
M  V30 1222 H 118.383 1.32612 4.13033 0
M  V30 1223 H 119.054 0.43933 5.50249 0
M  V30 1224 H 121.53 -0.852448 4.07275 0
M  V30 1225 H 120.406 -1.55553 5.26398 0
M  V30 1226 H 120.667 -2.37203 3.73078 0
M  V30 1227 N 119.726 -1.57421 0.075193 0
M  V30 1228 C 120.951 -1.98364 -0.605515 0
M  V30 1229 C 121.376 -0.953383 -1.62149 0
M  V30 1230 O 120.734 0.0806053 -1.81121 0
M  V30 1231 C 120.782 -3.38332 -1.24756 0
M  V30 1232 O 119.886 -3.37959 -2.36342 0
M  V30 1233 H 119.227 -0.645553 -0.155428 0
M  V30 1234 H 121.757 -2.04044 0.150714 0
M  V30 1235 H 121.767 -3.75591 -1.5936 0
M  V30 1236 H 120.442 -4.12846 -0.503129 0
M  V30 1237 H 119.019 -3.12474 -2.03506 0
M  V30 1238 N 121.204 0.198386 -1.56346 0
M  V30 1239 C 122.151 1.24589 -1.94284 0
M  V30 1240 C 123.121 1.454 -0.802997 0
M  V30 1241 O 124.306 1.58588 -1.06087 0
M  V30 1242 C 121.446 2.58631 -2.28482 0
M  V30 1243 C 120.559 2.45426 -3.55514 0
M  V30 1244 C 119.694 3.7215 -3.79049 0
M  V30 1245 C 118.733 3.53763 -4.99518 0
M  V30 1246 N 117.87 4.72491 -5.19323 0
M  V30 1247 H 122.71 0.915356 -2.83593 0
M  V30 1248 H 120.247 0.440629 -1.40346 0
M  V30 1249 H 122.205 3.3672 -2.46324 0
M  V30 1250 H 120.835 2.89734 -1.42317 0
M  V30 1251 H 119.887 1.58652 -3.45737 0
M  V30 1252 H 121.199 2.27772 -4.43758 0
M  V30 1253 H 120.353 4.58679 -3.97113 0
M  V30 1254 H 119.092 3.92754 -2.89129 0
M  V30 1255 H 118.097 2.65619 -4.8138 0
M  V30 1256 H 119.322 3.34607 -5.90944 0
M  V30 1257 H 117.268 4.93365 -4.3235 0
M  V30 1258 H 117.185 4.5765 -6.01741 0
M  V30 1259 H 118.453 5.6038 -5.41843 0
M  V30 1260 N 122.682 1.50554 0.465978 0
M  V30 1261 C 124.098 1.38093 0.800154 0
M  V30 1262 C 124.298 0.440988 1.96615 0
M  V30 1263 O 123.354 -0.114499 2.5224 0
M  V30 1264 C 124.667 2.79565 1.10742 0
M  V30 1265 C 126.215 2.88516 1.21357 0
M  V30 1266 C 126.69 4.30833 1.55393 0
M  V30 1267 N 128.181 4.33807 1.62375 0
M  V30 1268 C 128.916 5.40927 1.90225 0
M  V30 1269 N 128.412 6.58247 2.16062 0
M  V30 1270 N 130.205 5.28376 1.9177 0
M  V30 1271 H 122.356 2.10237 -0.302366 0
M  V30 1272 H 124.619 0.945203 -0.0727746 0
M  V30 1273 H 124.325 3.50208 0.323661 0
M  V30 1274 H 124.199 3.17125 2.04234 0
M  V30 1275 H 126.586 2.1809 1.98799 0
M  V30 1276 H 126.667 2.54492 0.258321 0
M  V30 1277 H 126.311 5.01799 0.784889 0
M  V30 1278 H 126.241 4.62347 2.52076 0
M  V30 1279 H 128.732 3.49212 1.44427 0
M  V30 1280 H 129.045 7.3569 2.36601 0
M  V30 1281 H 127.39 6.61413 2.13444 0
M  V30 1282 H 130.581 4.35715 1.71085 0
M  V30 1283 H 130.754 6.11944 2.13139 0
M  V30 1284 N 124.16 -0.719506 1.40217 0
M  V30 1285 C 125.406 -1.48152 1.38488 0
M  V30 1286 C 125.739 -1.94195 -0.0141867 0
M  V30 1287 O 125.014 -1.67884 -0.982096 0
M  V30 1288 C 125.297 -2.71035 2.37091 0
M  V30 1289 C 125.15 -2.30912 3.86005 0
M  V30 1290 C 126.469 -3.73182 2.33288 0
M  V30 1291 H 123.588 -0.537395 0.504357 0
M  V30 1292 H 126.23 -0.821472 1.71324 0
M  V30 1293 H 124.38 -3.27352 2.0922 0
M  V30 1294 H 126.052 -1.80107 4.24687 0
M  V30 1295 H 124.295 -1.62958 4.02029 0
M  V30 1296 H 124.966 -3.18978 4.50508 0
M  V30 1297 H 127.442 -3.26485 2.57966 0
M  V30 1298 H 126.318 -4.56806 3.04334 0
M  V30 1299 H 126.579 -4.21202 1.34317 0
M  V30 1300 N 125.638 -1.25649 -0.95132 0
M  V30 1301 C 126.884 -1.10757 -1.69884 0
M  V30 1302 C 127.217 0.350061 -1.91019 0
M  V30 1303 O 126.492 1.25783 -1.48354 0
M  V30 1304 C 126.775 -1.86606 -3.07978 0
M  V30 1305 C 126.628 -3.40217 -2.94232 0
M  V30 1306 C 127.947 -1.65182 -4.07925 0
M  V30 1307 H 125.066 -0.40374 -0.616574 0
M  V30 1308 H 127.708 -1.54521 -1.10558 0
M  V30 1309 H 125.858 -1.49409 -3.58621 0
M  V30 1310 H 127.53 -3.87108 -2.50889 0
M  V30 1311 H 125.773 -3.67759 -2.30078 0
M  V30 1312 H 126.444 -3.88505 -3.92133 0
M  V30 1313 H 128.92 -1.9757 -3.66204 0
M  V30 1314 H 127.796 -2.20683 -5.02583 0
M  V30 1315 H 128.057 -0.593933 -4.38092 0
M  V30 1316 N 127.117 1.15442 -1.07289 0
M  V30 1317 C 128.047 2.22312 -0.714107 0
M  V30 1318 C 129.028 1.67467 0.298155 0
M  V30 1319 O 130.213 1.93445 0.171048 0
M  V30 1320 C 127.343 3.47124 -0.110448 0
M  V30 1321 C 126.297 4.14926 -1.04979 0
M  V30 1322 C 125.623 5.33807 -0.308924 0
M  V30 1323 C 126.923 4.64762 -2.38314 0
M  V30 1324 H 128.617 2.5258 -1.6076 0
M  V30 1325 H 126.163 1.21404 -0.77441 0
M  V30 1326 H 128.116 4.21124 0.152482 0
M  V30 1327 H 126.84 3.16187 0.81812 0
M  V30 1328 H 125.499 3.42866 -1.29764 0
M  V30 1329 H 125.147 4.99126 0.623084 0
M  V30 1330 H 124.847 5.80113 -0.935036 0
M  V30 1331 H 126.371 6.10576 -0.0537771 0
M  V30 1332 H 127.785 5.30292 -2.1786 0
M  V30 1333 H 126.182 5.21728 -2.96514 0
M  V30 1334 H 127.252 3.80434 -3.00663 0
M  V30 1335 N 128.595 0.856903 1.32268 0
M  V30 1336 C 129.843 0.460474 1.96784 0
M  V30 1337 C 130.164 -0.987701 1.68135 0
M  V30 1338 O 129.434 -1.69058 0.989765 0
M  V30 1339 H 128.014 0.167289 0.728027 0
M  V30 1340 H 130.676 1.09383 1.61312 0
M  V30 1341 H 129.772 0.60739 3.06133 0
M  V30 1342 N 130.073 -1.45103 0.615059 0
M  V30 1343 C 131.35 -1.95549 0.0448276 0
M  V30 1344 C 131.73 -1.55737 -1.4251 0
M  V30 1345 O 131.078 -0.823556 -2.13143 0
M  V30 1346 C 131.288 -3.48098 0.250785 0
M  V30 1347 C 132.636 -4.24384 0.135509 0
M  V30 1348 O 133.66 -3.55738 0.181299 0
M  V30 1349 O 132.519 -5.46493 0.0268878 0
M  V30 1350 H 129.613 -0.8264 -0.0314845 0
M  V30 1351 H 132.159 -1.55232 0.685642 0
M  V30 1352 H 130.931 -3.7007 1.27139 0
M  V30 1353 H 130.554 -3.95323 -0.424937 0
M  V30 1354 N 131.551 -0.354651 -1.53558 0
M  V30 1355 C 132.776 0.242153 -2.05981 0
M  V30 1356 C 133.201 1.42553 -1.2272 0
M  V30 1357 O 132.559 1.79656 -0.243604 0
M  V30 1358 C 132.607 0.624367 -3.55154 0
M  V30 1359 O 131.711 1.72301 -3.74681 0
M  V30 1360 H 131.052 0.0378432 -0.662921 0
M  V30 1361 H 133.582 -0.512087 -1.98088 0
M  V30 1362 H 133.592 0.898433 -3.97985 0
M  V30 1363 H 132.267 -0.240989 -4.15201 0
M  V30 1364 H 130.844 1.44535 -3.4375 0
M  V30 1365 N 133.029 1.57378 -0.0835403 0
M  V30 1366 C 134.275 1.94217 0.583733 0
M  V30 1367 C 134.608 0.964653 1.68547 0
M  V30 1368 O 133.883 -0.00422258 1.945 0
M  V30 1369 C 134.166 3.41253 1.14972 0
M  V30 1370 C 134.019 4.49768 0.0538277 0
M  V30 1371 C 135.338 3.89352 2.05166 0
M  V30 1372 H 132.457 0.706233 0.210724 0
M  V30 1373 H 135.099 1.89392 -0.1519 0
M  V30 1374 H 133.249 3.45496 1.77665 0
M  V30 1375 H 134.921 4.57641 -0.579851 0
M  V30 1376 H 133.164 4.29432 -0.614068 0
M  V30 1377 H 133.835 5.49817 0.490452 0
M  V30 1378 H 136.311 3.87189 1.52393 0
M  V30 1379 H 135.187 4.92822 2.41698 0
M  V30 1380 H 135.448 3.27973 2.96456 0
M  V30 1381 N 134.507 -0.190092 1.56449 0
M  V30 1382 C 135.732 -0.929864 1.85387 0
M  V30 1383 C 136.157 -1.7585 0.667704 0
M  V30 1384 O 135.515 -1.77198 -0.383459 0
M  V30 1385 C 135.563 -1.79773 3.12593 0
M  V30 1386 O 134.667 -2.89713 2.93496 0
M  V30 1387 H 134.008 -0.261574 0.610307 0
M  V30 1388 H 136.538 -0.193896 2.03679 0
M  V30 1389 H 136.548 -2.20139 3.43515 0
M  V30 1390 H 135.223 -1.18892 3.98544 0
M  V30 1391 H 133.8 -2.53065 2.73884 0
M  V30 1392 N 135.985 -1.50799 -0.457987 0
M  V30 1393 C 137.213 -1.66218 -1.23203 0
M  V30 1394 C 137.628 -0.350894 -1.85511 0
M  V30 1395 O 136.985 0.668546 -1.69814 0
M  V30 1396 C 137.036 -2.76291 -2.33121 0
M  V30 1397 O 136.757 -4.02338 -1.73366 0
M  V30 1398 C 138.258 -3.028 -3.2377 0
M  V30 1399 H 135.478 -0.558361 -0.372121 0
M  V30 1400 H 138.022 -1.97099 -0.545179 0
M  V30 1401 H 136.177 -2.48068 -2.97558 0
M  V30 1402 H 136.591 -4.63312 -2.4585 0
M  V30 1403 H 138.065 -3.8345 -3.97077 0
M  V30 1404 H 138.542 -2.14385 -3.83322 0
M  V30 1405 H 139.148 -3.32604 -2.65056 0
M  V30 1406 N 137.463 0.71206 -1.40597 0
M  V30 1407 C 138.711 1.46907 -1.38791 0
M  V30 1408 C 139.032 1.94998 0.00780391 0
M  V30 1409 O 138.302 1.70587 0.963174 0
M  V30 1410 H 136.882 0.545043 -0.51082 0
M  V30 1411 H 139.544 0.843882 -1.75683 0
M  V30 1412 H 138.64 2.34021 -2.06496 0
M  V30 1413 N 138.941 1.26152 0.944643 0
M  V30 1414 C 140.169 1.14259 1.72489 0
M  V30 1415 C 140.584 -0.302555 1.8636 0
M  V30 1416 O 139.941 -1.20741 1.36849 0
M  V30 1417 C 139.992 1.80266 3.13347 0
M  V30 1418 O 139.713 3.19133 3.00143 0
M  V30 1419 C 141.214 1.74283 4.07603 0
M  V30 1420 H 138.434 0.398051 0.540181 0
M  V30 1421 H 140.978 1.66706 1.18446 0
M  V30 1422 H 139.133 1.31766 3.64303 0
M  V30 1423 H 139.547 3.51744 3.89071 0
M  V30 1424 H 141.021 2.25111 5.04013 0
M  V30 1425 H 141.498 0.708631 4.33446 0
M  V30 1426 H 142.104 2.22319 3.62567 0
M  V30 1427 N 140.419 -1.14872 1.07899 0
M  V30 1428 C 141.647 -1.89661 0.82683 0
M  V30 1429 C 142.062 -1.78312 -0.620519 0
M  V30 1430 O 141.419 -1.13888 -1.42604 0
M  V30 1431 C 141.47 -3.39817 1.23316 0
M  V30 1432 O 141.191 -3.50845 2.62372 0
M  V30 1433 C 142.692 -4.31615 1.0111 0
M  V30 1434 H 139.912 -0.60092 0.298557 0
M  V30 1435 H 142.456 -1.4551 1.43691 0
M  V30 1436 H 140.611 -3.8161 0.667286 0
M  V30 1437 H 141.025 -4.44076 2.79101 0
M  V30 1438 H 142.499 -5.35367 1.34486 0
M  V30 1439 H 142.976 -4.39169 -0.0522168 0
M  V30 1440 H 143.582 -3.95572 1.56215 0
M  V30 1441 N 141.898 -0.863906 -1.31812 0
M  V30 1442 C 143.175 -0.39275 -1.91616 0
M  V30 1443 C 143.555 1.12461 -1.7865 0
M  V30 1444 O 142.903 1.95045 -1.19037 0
M  V30 1445 C 143.113 -0.867385 -3.38049 0
M  V30 1446 C 144.461 -0.889966 -4.15168 0
M  V30 1447 O 145.485 -0.812635 -3.46806 0
M  V30 1448 O 144.344 -1.00079 -5.37258 0
M  V30 1449 H 141.438 -0.116358 -0.818773 0
M  V30 1450 H 143.984 -0.951418 -1.40521 0
M  V30 1451 H 142.756 -1.91081 -3.41473 0
M  V30 1452 H 142.379 -0.286687 -3.96565 0
M  V30 1453 N 143.376 1.44774 -0.622745 0
M  V30 1454 C 144.308 2.28856 0.125485 0
M  V30 1455 C 145.321 1.40811 0.817069 0
M  V30 1456 O 146.51 1.65044 0.679918 0
M  V30 1457 C 143.61 3.16963 1.19949 0
M  V30 1458 C 142.783 4.33374 0.592064 0
M  V30 1459 C 141.842 5.02577 1.55893 0
M  V30 1460 O 140.868 5.58873 1.07933 0
M  V30 1461 N 142.07 5.03256 2.89334 0
M  V30 1462 H 144.835 2.93713 -0.596068 0
M  V30 1463 H 142.396 1.55129 -0.463303 0
M  V30 1464 H 144.388 3.60123 1.84644 0
M  V30 1465 H 142.958 2.53913 1.82337 0
M  V30 1466 H 142.178 3.93509 -0.233322 0
M  V30 1467 H 143.466 5.08527 0.166738 0
M  V30 1468 H 142.864 4.58836 3.30887 0
M  V30 1469 H 141.421 5.50232 3.49412 0
M  V30 1470 N 144.854 0.36279 1.53368 0
M  V30 1471 C 145.786 -0.519668 2.23231 0
M  V30 1472 C 146.799 -1.04844 1.24546 0
M  V30 1473 O 147.988 -0.955296 1.50786 0
M  V30 1474 C 145.088 -1.72995 2.9142 0
M  V30 1475 C 144.261 -1.33316 4.16588 0
M  V30 1476 C 143.32 -2.40521 4.68013 0
M  V30 1477 O 142.346 -2.03027 5.3176 0
M  V30 1478 N 143.548 -3.72065 4.45587 0
M  V30 1479 H 146.313 0.078751 2.99597 0
M  V30 1480 H 143.874 0.187833 1.60807 0
M  V30 1481 H 145.866 -2.44184 3.22733 0
M  V30 1482 H 144.436 -2.2353 2.18525 0
M  V30 1483 H 143.656 -0.451236 3.91609 0
M  V30 1484 H 144.944 -1.04432 4.97967 0
M  V30 1485 H 144.342 -4.05304 3.94646 0
M  V30 1486 H 142.899 -4.39366 4.81457 0
M  V30 1487 N 146.332 -1.57332 0.0918853 0
M  V30 1488 C 147.58 -1.93853 -0.571446 0
M  V30 1489 C 147.901 -0.974212 -1.6892 0
M  V30 1490 O 147.171 -0.0257254 -1.95883 0
M  V30 1491 H 145.751 -0.715666 -0.214082 0
M  V30 1492 H 148.413 -1.94287 0.154464 0
M  V30 1493 H 147.509 -2.96191 -0.983729 0
M  V30 1494 N 147.81 0.181792 -1.56548 0
M  V30 1495 C 149.058 0.89832 -1.81038 0
M  V30 1496 C 149.379 1.83232 -0.667164 0
M  V30 1497 O 148.649 1.93372 0.313673 0
M  V30 1498 H 147.229 0.33471 -0.667816 0
M  V30 1499 H 149.891 0.184116 -1.94028 0
M  V30 1500 H 148.987 1.4815 -2.74696 0
M  V30 1501 N 149.288 1.51039 0.449983 0
M  V30 1502 C 150.534 1.63322 1.20223 0
M  V30 1503 C 150.867 0.34241 1.91158 0
M  V30 1504 O 150.142 -0.657344 1.83055 0
M  V30 1505 C 150.425 2.82801 2.22925 0
M  V30 1506 C 150.278 4.21823 1.56157 0
M  V30 1507 C 151.597 2.97807 3.24035 0
M  V30 1508 H 148.716 0.594407 0.435718 0
M  V30 1509 H 151.358 1.83489 0.493136 0
M  V30 1510 H 149.508 2.65738 2.834 0
M  V30 1511 H 151.18 4.50526 0.991162 0
M  V30 1512 H 149.423 4.25105 0.864172 0
M  V30 1513 H 150.094 5.01391 2.30891 0
M  V30 1514 H 152.57 3.13497 2.73603 0
M  V30 1515 H 151.446 3.82992 3.93202 0
M  V30 1516 H 151.707 2.09328 3.89402 0
M  V30 1517 N 150.766 -0.704594 1.40972 0
M  V30 1518 C 151.729 -1.80035 1.41845 0
M  V30 1519 C 152.729 -1.57774 0.310474 0
M  V30 1520 O 153.919 -1.64613 0.56992 0
M  V30 1521 C 151.051 -3.18284 1.22098 0
M  V30 1522 H 152.244 -1.80658 2.3938 0
M  V30 1523 H 149.797 -0.911329 1.26982 0
M  V30 1524 H 150.532 -3.23306 0.253672 0
M  V30 1525 H 150.317 -3.35843 2.02366 0
M  V30 1526 H 151.807 -3.98289 1.25522 0
M  V30 1527 N 152.244 -1.26651 -0.937939 0
M  V30 1528 C 153.154 -1.10276 -2.07066 0
M  V30 1529 C 154.17 -0.0354197 -1.73964 0
M  V30 1530 O 155.346 -0.239816 -1.99967 0
M  V30 1531 C 152.411 -0.740887 -3.38691 0
M  V30 1532 C 151.472 -1.88799 -3.85556 0
M  V30 1533 C 150.705 -1.54329 -5.10899 0
M  V30 1534 O 150.928 -0.446494 -5.6865 0
M  V30 1535 O 149.862 -2.37911 -5.52885 0
M  V30 1536 H 153.688 -2.05309 -2.23789 0
M  V30 1537 H 151.273 -1.05743 -1.0554 0
M  V30 1538 H 153.155 -0.55195 -4.1777 0
M  V30 1539 H 151.83 0.180022 -3.23199 0
M  V30 1540 H 150.737 -2.13191 -3.07409 0
M  V30 1541 H 152.07 -2.78874 -4.05574 0
M  V30 1542 N 153.722 1.14298 -1.08507 0
M  V30 1543 C 154.968 1.85633 -0.816581 0
M  V30 1544 C 155.301 1.82784 0.656021 0
M  V30 1545 O 154.576 1.25926 1.48233 0
M  V30 1546 C 154.859 3.34223 -1.34041 0
M  V30 1547 C 154.712 3.45639 -2.87843 0
M  V30 1548 C 156.031 4.29356 -0.9665 0
M  V30 1549 H 153.15 0.67402 -0.298104 0
M  V30 1550 H 155.792 1.34214 -1.34487 0
M  V30 1551 H 153.942 3.78144 -0.89104 0
M  V30 1552 H 155.614 3.10498 -3.41158 0
M  V30 1553 H 153.857 2.86817 -3.25451 0
M  V30 1554 H 154.528 4.50089 -3.19569 0
M  V30 1555 H 157.004 3.93457 -1.35391 0
M  V30 1556 H 155.88 5.3178 -1.3602 0
M  V30 1557 H 156.141 4.41919 0.126362 0
M  V30 1558 N 155.201 0.870884 1.31352 0
M  V30 1559 C 156.148 0.325425 2.28494 0
M  V30 1560 C 157.118 -0.576615 1.5577 0
M  V30 1561 O 158.303 -0.508059 1.83911 0
M  V30 1562 C 155.443 -0.466283 3.41935 0
M  V30 1563 C 154.556 0.463378 4.29508 0
M  V30 1564 C 153.691 -0.342544 5.30094 0
M  V30 1565 C 152.73 0.583486 6.09313 0
M  V30 1566 N 151.867 -0.186244 7.01853 0
M  V30 1567 H 156.707 1.15901 2.74538 0
M  V30 1568 H 154.244 0.58294 1.35056 0
M  V30 1569 H 156.202 -0.941085 4.06447 0
M  V30 1570 H 154.832 -1.26456 2.97 0
M  V30 1571 H 153.884 1.05663 3.65431 0
M  V30 1572 H 155.196 1.1734 4.84802 0
M  V30 1573 H 154.35 -0.879816 6.00287 0
M  V30 1574 H 153.089 -1.08585 4.75458 0
M  V30 1575 H 152.094 1.13251 5.3801 0
M  V30 1576 H 153.319 1.32566 6.66035 0
M  V30 1577 H 151.265 -0.912348 6.49625 0
M  V30 1578 H 151.182 0.464422 7.54572 0
M  V30 1579 H 152.45 -0.704716 7.76308 0
M  V30 1580 N 156.679 -1.44442 0.630414 0
M  V30 1581 C 157.927 -2.01653 0.134351 0
M  V30 1582 C 158.248 -1.49836 -1.24796 0
M  V30 1583 O 157.518 -0.701684 -1.82902 0
M  V30 1584 H 156.098 -0.74554 0.0466769 0
M  V30 1585 H 158.76 -1.76952 0.816955 0
M  V30 1586 H 157.856 -3.11935 0.101498 0
M  V30 1587 N 158.157 -0.370918 -1.53173 0
M  V30 1588 C 159.385 0.217704 -2.05751 0
M  V30 1589 C 159.8 1.42018 -1.24404 0
M  V30 1590 O 159.157 1.80245 -0.286033 0
M  V30 1591 C 159.208 0.605954 -3.56385 0
M  V30 1592 O 158.929 -0.548734 -4.3465 0
M  V30 1593 C 160.43 1.2524 -4.25241 0
M  V30 1594 H 157.65 0.0371659 -0.66997 0
M  V30 1595 H 160.194 -0.530832 -1.9749 0
M  V30 1596 H 158.349 1.3044 -3.6478 0
M  V30 1597 H 158.763 -0.23376 -5.23979 0
M  V30 1598 H 160.237 1.47458 -5.3194 0
M  V30 1599 H 160.714 2.2143 -3.79296 0
M  V30 1600 H 161.32 0.595233 -4.21114 0
M  V30 1601 N 159.635 1.57281 -0.100228 0
M  V30 1602 C 160.567 2.11342 0.886972 0
M  V30 1603 C 161.58 1.05182 1.24261 0
M  V30 1604 O 162.769 1.32613 1.19483 0
M  V30 1605 C 159.869 2.5825 2.19454 0
M  V30 1606 C 159.042 3.88302 2.01346 0
M  V30 1607 C 158.101 4.21004 3.15661 0
M  V30 1608 O 157.127 4.9014 2.89398 0
M  V30 1609 N 158.329 3.76818 4.41575 0
M  V30 1610 H 161.094 2.96668 0.425216 0
M  V30 1611 H 158.655 1.61678 0.0847334 0
M  V30 1612 H 160.647 2.7717 2.94888 0
M  V30 1613 H 159.217 1.77907 2.57037 0
M  V30 1614 H 158.437 3.7848 1.10212 0
M  V30 1615 H 159.725 4.73375 1.8653 0
M  V30 1616 H 159.123 3.2102 4.65792 0
M  V30 1617 H 157.68 4.00882 5.13942 0
M  V30 1618 N 161.113 -0.173488 1.56642 0
M  V30 1619 C 162.043 -1.2171 1.99271 0
M  V30 1620 C 163.024 -1.46289 0.867959 0
M  V30 1621 O 164.209 -1.5766 1.13388 0
M  V30 1622 C 161.339 -2.55651 2.35074 0
M  V30 1623 C 160.293 -2.45645 3.50489 0
M  V30 1624 C 159.619 -3.84056 3.72028 0
M  V30 1625 C 160.919 -1.96302 4.84007 0
M  V30 1626 H 162.613 -0.86275 2.867 0
M  V30 1627 H 160.159 -0.413571 1.37933 0
M  V30 1628 H 162.112 -3.2886 2.63494 0
M  V30 1629 H 160.836 -2.92869 1.44552 0
M  V30 1630 H 159.495 -1.7489 3.22194 0
M  V30 1631 H 159.143 -4.18664 2.788 0
M  V30 1632 H 158.843 -3.7823 4.49684 0
M  V30 1633 H 160.367 -4.58854 4.02846 0
M  V30 1634 H 161.781 -2.59284 5.11317 0
M  V30 1635 H 160.178 -2.01429 5.65284 0
M  V30 1636 H 161.248 -0.917226 4.76146 0
M  V30 1637 N 162.591 -1.51276 -0.441967 0
M  V30 1638 C 163.839 -1.63392 -1.18943 0
M  V30 1639 C 164.16 -0.350159 -1.9183 0
M  V30 1640 O 163.43 0.633784 -1.85364 0
M  V30 1641 H 162.01 -0.602164 -0.442049 0
M  V30 1642 H 164.672 -1.88186 -0.507165 0
M  V30 1643 H 163.768 -2.45934 -1.92154 0
M  V30 1644 N 164.069 0.697108 -1.41344 0
M  V30 1645 C 165.346 1.45154 -1.31109 0
M  V30 1646 C 165.726 2.11009 0.0620449 0
M  V30 1647 O 165.074 2.01571 1.07618 0
M  V30 1648 C 165.284 2.47223 -2.46337 0
M  V30 1649 C 166.632 3.1252 -2.87431 0
M  V30 1650 O 167.656 2.57547 -2.46065 0
M  V30 1651 O 166.515 4.12083 -3.58957 0
M  V30 1652 H 163.609 0.646365 -0.515889 0
M  V30 1653 H 166.155 0.727716 -1.53305 0
M  V30 1654 H 164.927 1.97204 -3.37974 0
M  V30 1655 H 164.55 3.27116 -2.2601 0
M  V30 1656 N 165.547 1.27147 0.931209 0
M  V30 1657 C 166.494 1.09568 2.03134 0
M  V30 1658 C 167.464 -0.00222433 1.661 0
M  V30 1659 O 168.649 0.159439 1.90133 0
M  V30 1660 C 165.789 0.745231 3.36957 0
M  V30 1661 C 164.902 1.92041 3.86968 0
M  V30 1662 C 164.037 1.51216 5.09222 0
M  V30 1663 C 163.076 2.65504 5.5152 0
M  V30 1664 N 162.213 2.25291 6.64972 0
M  V30 1665 H 167.053 2.03708 2.17502 0
M  V30 1666 H 164.59 1.01411 1.06556 0
M  V30 1667 H 166.548 0.522878 4.1391 0
M  V30 1668 H 165.178 -0.159202 3.22407 0
M  V30 1669 H 164.23 2.25541 3.06326 0
M  V30 1670 H 165.542 2.77787 4.1429 0
M  V30 1671 H 164.696 1.25084 5.93666 0
M  V30 1672 H 163.435 0.625749 4.83669 0
M  V30 1673 H 162.44 2.92354 4.65628 0
M  V30 1674 H 163.665 3.54761 5.7907 0
M  V30 1675 H 161.611 1.39098 6.41083 0
M  V30 1676 H 161.528 3.04577 6.91931 0
M  V30 1677 H 162.796 2.02398 7.52765 0
M  V30 1678 N 167.025 -1.13721 1.09112 0
M  V30 1679 C 167.955 -2.21148 0.749385 0
M  V30 1680 C 168.936 -1.6792 -0.271475 0
M  V30 1681 O 170.121 -1.93693 -0.140251 0
M  V30 1682 C 167.251 -3.46905 0.165659 0
M  V30 1683 C 166.205 -4.13203 1.11567 0
M  V30 1684 C 165.531 -5.33248 0.393809 0
M  V30 1685 C 166.831 -4.60912 2.45678 0
M  V30 1686 H 168.525 -2.4999 1.64758 0
M  V30 1687 H 166.071 -1.20156 0.793626 0
M  V30 1688 H 168.024 -4.21313 -0.085466 0
M  V30 1689 H 166.748 -3.17449 -0.767714 0
M  V30 1690 H 165.407 -3.40758 1.35202 0
M  V30 1691 H 165.055 -5.00054 -0.543599 0
M  V30 1692 H 164.755 -5.78552 1.02721 0
M  V30 1693 H 166.279 -6.10413 0.150908 0
M  V30 1694 H 167.693 -5.26759 2.26269 0
M  V30 1695 H 166.09 -5.16944 3.04776 0
M  V30 1696 H 167.16 -3.75603 3.06677 0
M  V30 1697 N 168.503 -0.877838 -1.30888 0
M  V30 1698 C 169.78 -0.413052 -1.91189 0
M  V30 1699 C 170.16 1.1056 -1.79832 0
M  V30 1700 O 169.508 1.93771 -1.21099 0
M  V30 1701 C 169.718 -0.903191 -3.3711 0
M  V30 1702 C 171.066 -0.93395 -4.14201 0
M  V30 1703 O 172.09 -0.849373 -3.45925 0
M  V30 1704 O 170.949 -1.05772 -5.36167 0
M  V30 1705 H 168.043 -0.125035 -0.817493 0
M  V30 1706 H 170.589 -0.966269 -1.39504 0
M  V30 1707 H 169.361 -1.94692 -3.39427 0
M  V30 1708 H 168.984 -0.328732 -3.96239 0
M  V30 1709 N 169.982 1.44106 -0.638065 0
M  V30 1710 C 171.207 2.0685 -0.150916 0
M  V30 1711 C 171.632 1.47417 1.16833 0
M  V30 1712 O 170.99 0.578264 1.71831 0
M  V30 1713 C 171.038 3.60555 -0.05708 0
M  V30 1714 O 170.142 4.00465 0.984972 0
M  V30 1715 H 169.483 0.658151 -0.0879399 0
M  V30 1716 H 172.013 1.84865 -0.876707 0
M  V30 1717 H 172.023 4.07789 0.131232 0
M  V30 1718 H 170.698 4.03193 -1.02021 0
M  V30 1719 H 169.275 3.64849 0.770672 0
M  V30 1720 N 171.46 0.379036 1.52974 0
M  V30 1721 C 172.707 -0.206421 2.01445 0
M  V30 1722 C 173.035 -1.47668 1.26587 0
M  V30 1723 O 172.29 -1.92514 0.351675 0
M  V30 1724 C 172.589 -0.53096 3.53434 0
M  V30 1725 C 172.255 0.646546 4.46241 0
M  V30 1726 C 170.917 0.969604 4.7133 0
M  V30 1727 C 173.269 1.43479 5.01062 0
M  V30 1728 C 170.597 2.08263 5.48492 0
M  V30 1729 C 172.949 2.53834 5.7944 0
M  V30 1730 C 171.613 2.86659 6.02812 0
M  V30 1731 H 170.883 -0.0755349 0.73714 0
M  V30 1732 H 173.53 0.514271 1.84465 0
M  V30 1733 H 171.835 -1.33285 3.68432 0
M  V30 1734 H 173.532 -0.996417 3.88423 0
M  V30 1735 H 170.122 0.384734 4.2687 0
M  V30 1736 H 174.306 1.19844 4.81613 0
M  V30 1737 H 169.562 2.34078 5.64816 0
M  V30 1738 H 173.736 3.15319 6.20924 0
M  V30 1739 H 171.363 3.73026 6.62387 0
M  V30 1740 N 172.938 -1.57226 0.108567 0
M  V30 1741 C 174.187 -1.94008 -0.551703 0
M  V30 1742 C 174.5 -0.993442 -1.68494 0
M  V30 1743 O 175.706 -1.25551 -2.40726 0
M  V30 1744 C 174.162 -3.44763 -1.03279 0
M  V30 1745 C 173.77 -4.47943 0.0714193 0
M  V30 1746 C 175.514 -3.90483 -1.66503 0
M  V30 1747 C 173.421 -5.89865 -0.425779 0
M  V30 1748 H 172.351 -0.724206 -0.209863 0
M  V30 1749 H 175.002 -1.82547 0.186741 0
M  V30 1750 H 173.384 -3.51422 -1.82533 0
M  V30 1751 H 174.558 -4.52942 0.847365 0
M  V30 1752 H 172.873 -4.11913 0.609669 0
M  V30 1753 H 175.47 -4.93925 -2.04798 0
M  V30 1754 H 175.813 -3.29877 -2.53942 0
M  V30 1755 H 176.346 -3.86581 -0.938074 0
M  V30 1756 H 173.085 -6.54202 0.412316 0
M  V30 1757 H 172.605 -5.88309 -1.16843 0
M  V30 1758 H 174.284 -6.40844 -0.890397 0
M  V30 1759 N 174.416 0.165178 -1.56732 0
M  V30 1760 C 175.363 1.2044 -1.96883 0
M  V30 1761 C 176.333 1.43664 -0.833657 0
M  V30 1762 O 177.518 1.56302 -1.09427 0
M  V30 1763 C 174.658 2.53727 -2.33916 0
M  V30 1764 C 173.771 2.3783 -3.6064 0
M  V30 1765 C 172.906 3.64026 -3.86857 0
M  V30 1766 C 171.945 3.43088 -5.06909 0
M  V30 1767 N 171.082 4.61369 -5.29229 0
M  V30 1768 H 175.922 0.854996 -2.85471 0
M  V30 1769 H 173.459 0.41076 -1.41249 0
M  V30 1770 H 175.417 3.31419 -2.53411 0
M  V30 1771 H 174.047 2.8665 -1.48431 0
M  V30 1772 H 173.099 1.51282 -3.49024 0
M  V30 1773 H 174.411 2.18308 -4.4849 0
M  V30 1774 H 173.565 4.50152 -4.06753 0
M  V30 1775 H 172.304 3.86533 -2.97394 0
M  V30 1776 H 171.309 2.55349 -4.86906 0
M  V30 1777 H 172.534 3.21997 -5.97909 0
M  V30 1778 H 170.48 4.84084 -4.42718 0
M  V30 1779 H 170.397 4.44783 -6.11313 0
M  V30 1780 H 171.665 5.48761 -5.53608 0
M  V30 1781 N 175.894 1.51508 0.433938 0
M  V30 1782 C 177.305 1.56784 1.01369 0
M  V30 1783 C 177.656 0.393349 1.92217 0
M  V30 1784 O 176.781 -0.489441 2.10792 0
M  V30 1785 C 177.376 2.84144 1.8452 0
M  V30 1786 C 175.935 2.9198 2.37539 0
M  V30 1787 C 175.082 2.51482 1.16843 0
M  V30 1788 H 178.033 1.57236 0.215081 0
M  V30 1789 H 178.054 2.68098 2.70007 0
M  V30 1790 H 177.566 3.69607 1.18373 0
M  V30 1791 H 175.667 2.10955 3.0713 0
M  V30 1792 H 175.78 3.95704 2.70103 0
M  V30 1793 H 174.144 2.04758 1.51481 0
M  V30 1794 H 174.927 3.39293 0.523015 0
M  V30 1795 N 177.372 -0.689602 1.41712 0
M  V30 1796 C 178.783 -1.26973 1.36875 0
M  V30 1797 C 179.134 -1.96124 0.054748 0
M  V30 1798 O 178.259 -1.99141 -0.84687 0
M  V30 1799 C 178.854 -2.30912 2.47922 0
M  V30 1800 C 177.413 -2.84486 2.46464 0
M  V30 1801 C 176.56 -1.58603 2.27465 0
M  V30 1802 H 179.511 -0.48396 1.51141 0
M  V30 1803 H 179.532 -3.12331 2.17323 0
M  V30 1804 H 179.044 -1.80554 3.43543 0
M  V30 1805 H 177.145 -3.39005 1.54617 0
M  V30 1806 H 177.258 -3.34511 3.42986 0
M  V30 1807 H 175.622 -1.84632 1.75451 0
M  V30 1808 H 176.405 -1.10233 3.25121 0
M  V30 1809 N 178.85 -1.27639 -0.924453 0
M  V30 1810 C 179.76 -1.12466 -2.05885 0
M  V30 1811 C 180.776 -0.053869 -1.73917 0
M  V30 1812 O 181.952 -0.261012 -1.99702 0
M  V30 1813 C 179.017 -0.776768 -3.37886 0
M  V30 1814 C 178.078 -1.92878 -3.83532 0
M  V30 1815 C 177.311 -1.59739 -5.09234 0
M  V30 1816 O 177.534 -0.506782 -5.68144 0
M  V30 1817 O 176.468 -2.43761 -5.50331 0
M  V30 1818 H 180.294 -2.07671 -2.21599 0
M  V30 1819 H 177.879 -1.06857 -1.04413 0
M  V30 1820 H 179.761 -0.596229 -4.17161 0
M  V30 1821 H 178.436 0.145732 -3.23372 0
M  V30 1822 H 177.343 -2.1644 -3.0513 0
M  V30 1823 H 178.676 -2.8316 -4.02593 0
M  V30 1824 N 180.328 1.1314 -1.09713 0
M  V30 1825 C 181.568 1.8613 -0.844683 0
M  V30 1826 C 181.932 1.81765 0.618491 0
M  V30 1827 O 183.133 2.50024 0.98699 0
M  V30 1828 C 181.404 3.30151 -1.36877 0
M  V30 1829 S 182.963 4.206 -1.25064 0
M  V30 1830 H 179.781 0.642056 -0.305427 0
M  V30 1831 H 182.383 1.36343 -1.4011 0
M  V30 1832 H 181.087 3.30883 -2.42786 0
M  V30 1833 H 180.618 3.85 -0.808614 0
M  V30 1834 H 182.633 4.95783 -0.203486 0
M  V30 1835 N 181.806 0.884767 1.30421 0
M  V30 1836 C 183.031 0.517288 2.00845 0
M  V30 1837 C 183.456 -0.886779 1.65885 0
M  V30 1838 O 182.814 -1.58768 0.875354 0
M  V30 1839 C 182.862 0.698994 3.5376 0
M  V30 1840 O 181.966 -0.255208 4.1161 0
M  V30 1841 H 181.307 0.203872 0.631927 0
M  V30 1842 H 183.837 1.19225 1.66272 0
M  V30 1843 H 183.847 0.597912 4.03595 0
M  V30 1844 H 182.522 1.72271 3.78544 0
M  V30 1845 H 181.099 -0.10784 3.72744 0
M  V30 1846 N 183.284 -1.43765 0.645699 0
M  V30 1847 C 184.509 -2.06767 0.161883 0
M  V30 1848 C 184.934 -1.48034 -1.16049 0
M  V30 1849 O 184.292 -0.587369 -1.71522 0
M  V30 1850 C 184.34 -3.60519 0.0762003 0
M  V30 1851 O 183.444 -4.00982 -0.963721 0
M  V30 1852 H 182.785 -0.657675 0.091429 0
M  V30 1853 H 185.315 -1.84397 0.886499 0
M  V30 1854 H 185.325 -4.07853 -0.109604 0
M  V30 1855 H 184 -4.02646 1.04157 0
M  V30 1856 H 182.577 -3.65253 -0.751312 0
M  V30 1857 N 184.763 -0.387143 -1.52771 0
M  V30 1858 C 186.04 0.253197 -1.93954 0
M  V30 1859 C 186.42 1.64545 -1.32243 0
M  V30 1860 O 185.768 2.23191 -0.489699 0
M  V30 1861 C 185.978 0.281722 -3.47861 0
M  V30 1862 C 187.326 0.511715 -4.21505 0
M  V30 1863 O 188.35 0.362023 -3.54356 0
M  V30 1864 O 187.209 0.804847 -5.40541 0
M  V30 1865 H 184.303 0.156845 -0.811991 0
M  V30 1866 H 186.849 -0.441494 -1.63856 0
M  V30 1867 H 185.621 -0.693571 -3.85104 0
M  V30 1868 H 185.244 1.02142 -3.84256 0
M  V30 1869 N 186.241 1.57166 -0.116904 0
M  V30 1870 C 187.487 1.95412 0.542405 0
M  V30 1871 C 187.82 1.00019 1.66463 0
M  V30 1872 O 187.095 0.0370346 1.94465 0
M  V30 1873 C 187.378 3.43615 1.07708 0
M  V30 1874 C 187.231 4.49781 -0.0415868 0
M  V30 1875 C 188.55 3.93616 1.96861 0
M  V30 1876 H 185.669 0.710543 0.195696 0
M  V30 1877 H 188.311 1.89027 -0.192038 0
M  V30 1878 H 186.461 3.49187 1.70296 0
M  V30 1879 H 188.133 4.56308 -0.676793 0
M  V30 1880 H 186.376 4.28033 -0.705019 0
M  V30 1881 H 187.047 5.50733 0.373717 0
M  V30 1882 H 189.523 3.90335 1.44146 0
M  V30 1883 H 188.399 4.97838 2.3119 0
M  V30 1884 H 188.66 3.34188 2.89432 0
M  V30 1885 N 187.719 -0.156864 1.56817 0
M  V30 1886 C 188.667 -1.21319 1.98455 0
M  V30 1887 C 189.661 -1.45025 0.875444 0
M  V30 1888 O 190.867 -1.45435 1.0606 0
M  V30 1889 H 187.242 -0.408142 0.631605 0
M  V30 1890 H 189.213 -0.835244 2.86472 0
M  V30 1891 C 187.962 -2.54148 2.37285 0
M  V30 1892 H 187.285 -2.36733 3.22176 0
M  V30 1893 H 188.725 -3.26712 2.70251 0
M  V30 1894 C 187.184 -3.13967 1.22173 0
M  V30 1895 O 187.714 -3.98357 0.517149 0
M  V30 1896 N 185.92 -2.7327 0.988536 0
M  V30 1897 H 185.467 -2.04744 1.56326 0
M  V30 1898 H 185.425 -3.13628 0.220209 0
M  V30 1899 N 189.197 -1.51736 -0.425897 0
M  V30 1900 C 190.127 -1.76827 -1.52494 0
M  V30 1901 C 191.108 -0.618524 -1.58456 0
M  V30 1902 O 192.293 -0.862416 -1.74 0
M  V30 1903 C 189.423 -1.90374 -2.90474 0
M  V30 1904 C 188.377 -3.0588 -2.99369 0
M  V30 1905 C 187.703 -3.04625 -4.3944 0
M  V30 1906 C 189.003 -4.45644 -2.72394 0
M  V30 1907 H 190.697 -2.68855 -1.31748 0
M  V30 1908 H 188.243 -1.29372 -0.632362 0
M  V30 1909 H 190.196 -2.0651 -3.6733 0
M  V30 1910 H 188.92 -0.95004 -3.12477 0
M  V30 1911 H 187.579 -2.89467 -2.24954 0
M  V30 1912 H 187.227 -2.0701 -4.58428 0
M  V30 1913 H 186.927 -3.82195 -4.46319 0
M  V30 1914 H 188.451 -3.22869 -5.18255 0
M  V30 1915 H 189.865 -4.62348 -3.38979 0
M  V30 1916 H 188.262 -5.25006 -2.9067 0
M  V30 1917 H 189.332 -4.54893 -1.67929 0
M  V30 1918 N 190.675 0.682077 -1.42076 0
M  V30 1919 C 191.585 1.82535 -1.47371 0
M  V30 1920 C 192.601 1.7017 -0.363079 0
M  V30 1921 O 193.777 1.91848 -0.612875 0
M  V30 1922 C 190.842 3.18624 -1.36674 0
M  V30 1923 C 189.903 3.42999 -2.58167 0
M  V30 1924 C 189.136 4.72595 -2.4797 0
M  V30 1925 O 189.359 5.50006 -1.5116 0
M  V30 1926 O 188.293 4.98054 -3.37974 0
M  V30 1927 H 192.119 1.81023 -2.43853 0
M  V30 1928 H 189.704 0.836887 -1.2376 0
M  V30 1929 H 191.586 3.99847 -1.33043 0
M  V30 1930 H 190.261 3.20789 -0.433138 0
M  V30 1931 H 189.168 2.61653 -2.67373 0
M  V30 1932 H 190.501 3.45659 -3.50401 0
M  V30 1933 N 192.153 1.28127 0.917671 0
M  V30 1934 C 193.083 1.14248 2.03641 0
M  V30 1935 C 194.064 0.0412748 1.7005 0
M  V30 1936 O 195.249 0.217566 1.92977 0
M  V30 1937 C 192.379 0.799431 3.37974 0
M  V30 1938 C 191.333 1.85497 3.85713 0
M  V30 1939 C 190.659 1.36565 5.16966 0
M  V30 1940 C 191.959 3.26085 4.08002 0
M  V30 1941 H 193.653 2.07835 2.15511 0
M  V30 1942 H 191.199 1.00064 1.03553 0
M  V30 1943 H 193.152 0.689114 4.15727 0
M  V30 1944 H 191.876 -0.172145 3.26146 0
M  V30 1945 H 190.535 1.95437 3.10161 0
M  V30 1946 H 190.183 0.383253 5.01538 0
M  V30 1947 H 189.883 2.07143 5.49878 0
M  V30 1948 H 191.407 1.26848 5.97279 0
M  V30 1949 H 192.821 3.19089 4.76293 0
M  V30 1950 H 191.218 3.94462 4.52238 0
M  V30 1951 H 192.288 3.70394 3.12948 0
M  V30 1952 N 193.631 -1.12557 1.10312 0
M  V30 1953 C 195.047 -1.36036 0.834649 0
M  V30 1954 C 195.247 -1.93946 -0.546539 0
M  V30 1955 O 194.303 -2.16484 -1.29966 0
M  V30 1956 C 195.616 -2.30312 1.9333 0
M  V30 1957 C 197.164 -2.43906 1.9616 0
M  V30 1958 C 197.639 -3.41496 3.05195 0
M  V30 1959 N 199.13 -3.49053 3.04494 0
M  V30 1960 C 199.865 -4.24471 3.85502 0
M  V30 1961 N 199.361 -5.02966 4.76442 0
M  V30 1962 N 201.154 -4.19864 3.73725 0
M  V30 1963 H 193.305 -0.733246 1.99342 0
M  V30 1964 H 195.568 -0.385234 0.866198 0
M  V30 1965 H 195.274 -1.94933 2.92735 0
M  V30 1966 H 195.148 -3.30421 1.81939 0
M  V30 1967 H 197.535 -2.78567 0.973886 0
M  V30 1968 H 197.616 -1.4369 2.11629 0
M  V30 1969 H 197.26 -3.07565 4.04186 0
M  V30 1970 H 197.19 -4.41539 2.86968 0
M  V30 1971 H 199.681 -2.93053 2.38596 0
M  V30 1972 H 199.994 -5.57846 5.34815 0
M  V30 1973 H 198.339 -5.02167 4.80472 0
M  V30 1974 H 201.53 -3.57623 3.02032 0
M  V30 1975 H 201.703 -4.78386 4.37093 0
M  V30 1976 N 195.109 -0.891671 -1.2995 0
M  V30 1977 C 196.041 -0.320695 -2.26945 0
M  V30 1978 C 197.054 0.528497 -1.53983 0
M  V30 1979 O 198.243 0.346959 -1.75096 0
M  V30 1980 C 195.343 0.562066 -3.34207 0
M  V30 1981 C 194.516 -0.259576 -4.36629 0
M  V30 1982 C 193.575 0.554739 -5.23268 0
M  V30 1983 O 192.601 -0.0249311 -5.69195 0
M  V30 1984 N 193.803 1.8625 -5.4981 0
M  V30 1985 H 196.568 -1.15432 -2.76578 0
M  V30 1986 H 194.129 -0.755336 -1.432 0
M  V30 1987 H 196.121 1.11304 -3.89093 0
M  V30 1988 H 194.691 1.29637 -2.84452 0
M  V30 1989 H 193.911 -0.991986 -3.81514 0
M  V30 1990 H 195.199 -0.822564 -5.02107 0
M  V30 1991 H 194.597 2.35628 -5.14292 0
M  V30 1992 H 193.154 2.36078 -6.07545 0
M  V30 1993 N 196.587 1.43421 -0.653314 0
M  V30 1994 C 198.003 1.56341 -0.320886 0
M  V30 1995 C 198.203 1.63696 1.17499 0
M  V30 1996 O 197.259 1.59208 1.95982 0
M  V30 1997 C 198.572 2.82424 -1.03233 0
M  V30 1998 C 200.12 2.96168 -1.01259 0
M  V30 1999 C 200.595 4.25084 -1.70492 0
M  V30 2000 N 202.086 4.31948 -1.67257 0
M  V30 2001 C 202.821 5.30466 -2.17701 0
M  V30 2002 N 202.317 6.35261 -2.76434 0
M  V30 2003 N 204.11 5.2212 -2.082 0
M  V30 2004 H 196.261 1.3689 -1.62403 0
M  V30 2005 H 198.524 0.657455 -0.682977 0
M  V30 2006 H 198.23 2.83053 -2.08744 0
M  V30 2007 H 198.104 3.72653 -0.583948 0
M  V30 2008 H 200.491 2.9508 0.0341235 0
M  V30 2009 H 200.572 2.07229 -1.49966 0
M  V30 2010 H 200.216 4.26932 -2.7512 0
M  V30 2011 H 200.146 5.1292 -1.19251 0
M  V30 2012 H 202.637 3.56838 -1.24398 0
M  V30 2013 H 202.95 7.06754 -3.12601 0
M  V30 2014 H 201.295 6.35884 -2.80495 0
M  V30 2015 H 204.486 4.39166 -1.62021 0
M  V30 2016 H 204.659 5.98739 -2.47822 0
M  V30 2017 N 198.065 0.39524 1.52563 0
M  V30 2018 C 199.013 -0.451859 2.28169 0
M  V30 2019 C 200.007 -1.05792 1.32304 0
M  V30 2020 O 201.213 -0.997718 1.49818 0
M  V30 2021 H 197.588 -0.164481 0.733792 0
M  V30 2022 H 199.559 0.207199 2.9768 0
M  V30 2023 C 198.308 -1.56385 3.10546 0
M  V30 2024 H 197.631 -1.10682 3.84174 0
M  V30 2025 H 199.071 -2.13067 3.66577 0
M  V30 2026 C 197.53 -2.52328 2.23231 0
M  V30 2027 O 198.06 -3.5588 1.86312 0
M  V30 2028 N 196.266 -2.22209 1.87274 0
M  V30 2029 H 195.813 -1.38033 2.17496 0
M  V30 2030 H 195.771 -2.86652 1.29143 0
M  V30 2031 N 199.544 -1.57102 0.125237 0
M  V30 2032 C 200.96 -1.57915 -0.231322 0
M  V30 2033 C 201.16 -1.13833 -1.66266 0
M  V30 2034 O 200.216 -0.828581 -2.38518 0
M  V30 2035 C 201.529 -3.00699 0.00766489 0
M  V30 2036 C 203.077 -3.12947 -0.0577483 0
M  V30 2037 C 203.552 -4.57742 0.153626 0
M  V30 2038 N 205.043 -4.63092 0.0998073 0
M  V30 2039 C 205.778 -5.72905 0.238174 0
M  V30 2040 N 205.274 -6.91445 0.433057 0
M  V30 2041 N 207.067 -5.6182 0.177308 0
M  V30 2042 H 199.218 -1.84055 1.06007 0
M  V30 2043 H 201.481 -0.850905 0.417929 0
M  V30 2044 H 201.187 -3.3726 0.997431 0
M  V30 2045 H 201.061 -3.70236 -0.721452 0
M  V30 2046 H 203.448 -2.7624 -1.03804 0
M  V30 2047 H 203.529 -2.4594 0.70335 0
M  V30 2048 H 203.173 -4.95149 1.13092 0
M  V30 2049 H 203.103 -5.22848 -0.627534 0
M  V30 2050 H 205.594 -3.77871 -0.047051 0
M  V30 2051 H 205.907 -7.70985 0.529332 0
M  V30 2052 H 204.252 -6.93415 0.469109 0
M  V30 2053 H 207.443 -4.68093 0.0259748 0
M  V30 2054 H 207.616 -6.47357 0.288582 0
M  V30 2055 N 201.022 0.148545 -1.56898 0
M  V30 2056 C 202.27 0.859717 -1.82902 0
M  V30 2057 C 202.591 1.81775 -0.70588 0
M  V30 2058 O 201.861 1.93994 0.272586 0
M  V30 2059 H 200.441 0.320469 -0.674766 0
M  V30 2060 H 203.103 0.142918 -1.94375 0
M  V30 2061 H 202.199 1.4229 -2.77777 0
M  V30 2062 N 202.5 1.5196 0.417844 0
M  V30 2063 C 203.777 1.56146 1.17803 0
M  V30 2064 C 204.157 0.337275 2.08388 0
M  V30 2065 O 203.505 -0.676447 2.18258 0
M  V30 2066 C 203.715 2.88566 1.96293 0
M  V30 2067 C 205.063 3.41244 2.52662 0
M  V30 2068 O 206.087 2.90247 2.06483 0
M  V30 2069 O 204.946 4.30273 3.36938 0
M  V30 2070 H 202.04 0.628598 0.537395 0
M  V30 2071 H 204.586 1.64283 0.425331 0
M  V30 2072 H 203.358 3.69116 1.2988 0
M  V30 2073 H 202.981 2.83681 2.78587 0
M  V30 2074 N 203.978 -0.674533 1.42435 0
M  V30 2075 C 204.908 -1.80009 1.48724 0
M  V30 2076 C 205.889 -1.6659 0.343793 0
M  V30 2077 O 207.074 -1.86007 0.558137 0
M  V30 2078 C 204.204 -3.18306 1.38919 0
M  V30 2079 C 203.158 -3.46461 2.51294 0
M  V30 2080 C 202.484 -4.84335 2.26547 0
M  V30 2081 C 203.784 -3.43328 3.93603 0
M  V30 2082 H 205.478 -1.75004 2.42928 0
M  V30 2083 H 203.024 -0.840533 1.16923 0
M  V30 2084 H 204.977 -3.9678 1.41927 0
M  V30 2085 H 203.701 -3.2399 0.412094 0
M  V30 2086 H 202.36 -2.70348 2.47604 0
M  V30 2087 H 202.008 -4.86669 1.2713 0
M  V30 2088 H 201.708 -5.04136 3.01861 0
M  V30 2089 H 203.232 -5.65094 2.31304 0
M  V30 2090 H 204.646 -4.11772 3.98894 0
M  V30 2091 H 203.043 -3.74664 4.68771 0
M  V30 2092 H 204.113 -2.41897 4.20255 0
M  V30 2093 N 205.456 -1.28612 -0.910864 0
M  V30 2094 C 206.684 -1.18792 -1.69399 0
M  V30 2095 C 207.099 0.253039 -1.87097 0
M  V30 2096 O 206.456 1.17071 -1.40003 0
M  V30 2097 C 206.507 -1.88511 -3.08457 0
M  V30 2098 O 206.228 -3.26979 -2.91576 0
M  V30 2099 C 207.729 -1.85029 -4.02839 0
M  V30 2100 H 204.949 -0.412233 -0.529438 0
M  V30 2101 H 207.493 -1.69788 -1.13984 0
M  V30 2102 H 205.648 -1.41379 -3.60681 0
M  V30 2103 H 206.062 -3.61936 -3.79608 0
M  V30 2104 H 207.536 -2.38395 -4.97867 0
M  V30 2105 H 208.013 -0.823303 -4.31414 0
M  V30 2106 H 208.619 -2.31853 -3.56545 0
M  V30 2107 N 206.934 1.1197 -1.10907 0
M  V30 2108 C 207.897 2.16031 -0.765707 0
M  V30 2109 C 208.897 1.59393 0.212235 0
M  V30 2110 O 210.087 1.74196 -0.0115441 0
M  V30 2111 C 207.219 3.40632 -0.135053 0
M  V30 2112 H 208.412 2.47919 -1.68748 0
M  V30 2113 H 205.965 1.27061 -0.910226 0
M  V30 2114 H 206.7 3.14348 0.797218 0
M  V30 2115 H 206.485 3.8302 -0.838937 0
M  V30 2116 H 207.975 4.17505 0.0892469 0
M  V30 2117 N 208.412 0.89855 1.29475 0
M  V30 2118 C 209.689 0.443416 1.90508 0
M  V30 2119 C 210.069 -1.07685 1.81569 0
M  V30 2120 O 209.417 -1.9182 1.24166 0
M  V30 2121 C 209.627 0.956708 3.35631 0
M  V30 2122 C 210.975 0.999728 4.12663 0
M  V30 2123 O 211.999 0.904299 3.4453 0
M  V30 2124 O 210.858 1.14289 5.34416 0
M  V30 2125 H 207.952 0.138025 0.815401 0
M  V30 2126 H 210.498 0.98834 1.37949 0
M  V30 2127 H 209.27 2.00067 3.36287 0
M  V30 2128 H 208.893 0.391728 3.95666 0
M  V30 2129 N 209.89 -1.43072 0.660911 0
M  V30 2130 C 211.115 -2.06584 0.183805 0
M  V30 2131 C 211.54 -1.49257 -1.14472 0
M  V30 2132 O 210.898 -0.605528 -1.70889 0
M  V30 2133 C 210.946 -3.60418 0.114434 0
M  V30 2134 O 210.05 -4.01981 -0.921137 0
M  V30 2135 H 209.391 -0.656669 0.0983994 0
M  V30 2136 H 211.921 -1.83447 0.906006 0
M  V30 2137 H 211.931 -4.07946 -0.0663394 0
M  V30 2138 H 210.606 -4.01519 1.08422 0
M  V30 2139 H 209.183 -3.66029 -0.71253 0
M  V30 2140 N 211.368 -0.403325 -1.52352 0
M  V30 2141 C 212.614 0.174605 -2.02047 0
M  V30 2142 C 212.947 1.45282 -1.28867 0
M  V30 2143 O 212.222 1.90483 -0.393257 0
M  V30 2144 C 212.505 0.428238 -3.57545 0
M  V30 2145 C 212.358 -0.866248 -4.4138 0
M  V30 2146 C 213.677 1.21287 -4.23057 0
M  V30 2147 H 210.796 0.0619851 -0.734389 0
M  V30 2148 H 213.438 -0.53565 -1.82293 0
M  V30 2149 H 211.588 1.03327 -3.74507 0
M  V30 2150 H 213.26 -1.50265 -4.3614 0
M  V30 2151 H 211.503 -1.47851 -4.07827 0
M  V30 2152 H 212.174 -0.643249 -5.48239 0
M  V30 2153 H 214.65 0.700703 -4.10158 0
M  V30 2154 H 213.526 1.35909 -5.31808 0
M  V30 2155 H 213.787 2.23193 -3.81625 0
M  V30 2156 N 212.846 1.57033 -0.133567 0
M  V30 2157 C 213.778 2.13176 0.841944 0
M  V30 2158 C 214.791 1.07794 1.22001 0
M  V30 2159 O 215.98 1.35117 1.16643 0
M  V30 2160 C 213.08 2.62847 2.13926 0
M  V30 2161 C 212.253 3.92486 1.93064 0
M  V30 2162 C 211.312 4.27605 3.0666 0
M  V30 2163 O 210.338 4.96168 2.78937 0
M  V30 2164 N 211.54 3.861 4.33483 0
M  V30 2165 H 214.305 2.97503 0.362192 0
M  V30 2166 H 211.866 1.61821 0.05042 0
M  V30 2167 H 213.858 2.83363 2.88942 0
M  V30 2168 H 212.428 1.83319 2.53205 0
M  V30 2169 H 211.648 3.80732 1.02159 0
M  V30 2170 H 212.936 4.77225 1.76447 0
M  V30 2171 H 212.334 3.30828 4.58878 0
M  V30 2172 H 210.891 4.11694 5.05323 0
M  V30 2173 N 214.325 -0.140222 1.56975 0
M  V30 2174 C 215.741 -0.493088 1.51792 0
M  V30 2175 C 215.941 -1.83013 0.843116 0
M  V30 2176 O 214.997 -2.49041 0.416493 0
M  V30 2177 C 216.31 -0.497144 2.96562 0
M  V30 2178 C 217.858 -0.582186 3.07538 0
M  V30 2179 C 218.333 -0.616838 4.53827 0
M  V30 2180 N 219.824 -0.678873 4.58198 0
M  V30 2181 C 220.559 -0.726782 5.68775 0
M  V30 2182 N 220.055 -0.733623 6.88905 0
M  V30 2183 N 221.848 -0.768179 5.56826 0
M  V30 2184 H 213.999 0.736108 1.99237 0
M  V30 2185 H 216.262 0.269182 0.90898 0
M  V30 2186 H 215.968 0.417217 3.49217 0
M  V30 2187 H 215.842 -1.33263 3.52875 0
M  V30 2188 H 218.229 -1.48697 2.54899 0
M  V30 2189 H 218.31 0.280581 2.54257 0
M  V30 2190 H 217.954 0.283812 5.07106 0
M  V30 2191 H 217.884 -1.49619 5.04898 0
M  V30 2192 H 220.375 -0.68061 3.7172 0
M  V30 2193 H 220.688 -0.772215 7.68932 0
M  V30 2194 H 219.033 -0.701389 6.91452 0
M  V30 2195 H 222.224 -0.760051 4.61888 0
M  V30 2196 H 222.397 -0.80205 6.43017 0
M  V30 2197 N 215.803 -1.52179 -0.40978 0
M  V30 2198 C 217.051 -1.65878 -1.15451 0
M  V30 2199 C 217.372 -0.390771 -1.91044 0
M  V30 2200 O 216.642 0.594323 -1.86667 0
M  V30 2201 H 215.222 -0.611405 -0.429177 0
M  V30 2202 H 217.884 -1.89219 -0.467134 0
M  V30 2203 H 216.98 -2.49954 -1.86894 0
M  V30 2204 N 217.281 0.66697 -1.42791 0
M  V30 2205 C 218.506 1.46004 -1.47301 0
M  V30 2206 C 218.931 1.87894 -0.0880317 0
M  V30 2207 O 218.289 1.56502 0.915253 0
M  V30 2208 C 218.337 2.68031 -2.41229 0
M  V30 2209 O 217.441 3.6659 -1.88906 0
M  V30 2210 H 216.782 0.43832 -0.49877 0
M  V30 2211 H 219.312 0.817391 -1.87563 0
M  V30 2212 H 219.322 3.1601 -2.58073 0
M  V30 2213 H 217.997 2.36883 -3.41847 0
M  V30 2214 H 216.574 3.25661 -1.81656 0
M  V30 2215 N 218.759 1.29093 0.90403 0
M  V30 2216 C 220.175 1.07011 1.1841 0
M  V30 2217 C 220.375 -0.181358 2.00682 0
M  V30 2218 O 219.431 -0.880331 2.36657 0
M  V30 2219 C 220.744 2.32311 1.90924 0
M  V30 2220 C 222.292 2.37587 2.03768 0
M  V30 2221 C 222.767 3.62679 2.79693 0
M  V30 2222 N 224.258 3.63376 2.87249 0
M  V30 2223 C 224.993 4.56848 3.46522 0
M  V30 2224 N 224.489 5.60648 4.06996 0
M  V30 2225 N 226.282 4.44426 3.44154 0
M  V30 2226 H 218.433 2.09412 0.354993 0
M  V30 2227 H 220.696 0.922181 0.219742 0
M  V30 2228 H 220.402 3.23536 1.37905 0
M  V30 2229 H 220.276 2.39483 2.91424 0
M  V30 2230 H 222.663 1.46853 2.55965 0
M  V30 2231 H 222.744 2.34403 1.02415 0
M  V30 2232 H 222.388 4.53762 2.28173 0
M  V30 2233 H 222.318 3.63119 3.81381 0
M  V30 2234 H 224.809 2.88321 2.44293 0
M  V30 2235 H 225.122 6.28101 4.50232 0
M  V30 2236 H 223.467 5.64463 4.05471 0
M  V30 2237 H 226.658 3.62529 2.96126 0
M  V30 2238 H 226.831 5.17457 3.90054 0
M  V30 2239 N 220.237 -1.11381 1.11499 0
M  V30 2240 C 221.187 -2.15555 0.74298 0
M  V30 2241 C 222.171 -1.58894 -0.253276 0
M  V30 2242 O 223.363 -1.76897 -0.0602918 0
M  V30 2243 C 220.492 -3.42782 0.188481 0
M  V30 2244 C 219.578 -4.064 1.21244 0
M  V30 2245 N 219.969 -4.44864 2.40685 0
M  V30 2246 C 218.267 -4.3333 1.05552 0
M  V30 2247 C 218.968 -4.94715 3.05994 0
M  V30 2248 N 217.944 -4.90909 2.33472 0
M  V30 2249 H 221.746 -2.43074 1.65203 0
M  V30 2250 H 219.26 -1.28401 0.994329 0
M  V30 2251 H 221.257 -4.16789 -0.0961693 0
M  V30 2252 H 219.917 -3.16727 -0.715149 0
M  V30 2253 H 220.928 -4.36876 2.78136 0
M  V30 2254 H 217.605 -4.1698 0.208372 0
M  V30 2255 H 218.995 -5.34103 4.07656 0
M  V30 2256 N 221.715 -0.905404 -1.28997 0
M  V30 2257 C 222.963 -0.533192 -1.9494 0
M  V30 2258 C 223.284 0.924618 -1.71685 0
M  V30 2259 O 222.554 1.65268 -1.05183 0
M  V30 2260 H 221.134 -0.194194 -0.721317 0
M  V30 2261 H 223.796 -1.15294 -1.57141 0
M  V30 2262 H 222.892 -0.72059 -3.03667 0
M  V30 2263 N 223.193 1.4272 -0.668489 0
M  V30 2264 C 224.123 2.335 -0.000100175 0
M  V30 2265 C 225.104 1.50328 0.795964 0
M  V30 2266 O 226.289 1.78949 0.754385 0
M  V30 2267 C 223.419 3.33874 0.956302 0
M  V30 2268 C 222.373 4.27152 0.269278 0
M  V30 2269 C 221.699 5.17684 1.33818 0
M  V30 2270 C 222.999 5.15373 -0.847805 0
M  V30 2271 H 224.693 2.89639 -0.758244 0
M  V30 2272 H 222.239 1.39269 -0.366079 0
M  V30 2273 H 224.192 3.9629 1.43292 0
M  V30 2274 H 222.916 2.76025 1.74579 0
M  V30 2275 H 221.575 3.66123 -0.187042 0
M  V30 2276 H 221.223 4.56165 2.1195 0
M  V30 2277 H 220.923 5.80918 0.883659 0
M  V30 2278 H 222.447 5.82974 1.81586 0
M  V30 2279 H 223.861 5.7151 -0.452681 0
M  V30 2280 H 222.258 5.87407 -1.22773 0
M  V30 2281 H 223.328 4.5415 -1.69929 0
M  V30 2282 N 224.671 0.411399 1.52136 0
M  V30 2283 C 225.581 -0.419774 2.30814 0
M  V30 2284 C 226.597 -1.0515 1.38634 0
M  V30 2285 O 227.773 -1.05252 1.71709 0
M  V30 2286 C 224.838 -1.52019 3.11594 0
M  V30 2287 C 223.899 -0.91129 4.19516 0
M  V30 2288 C 223.132 -1.95927 4.96436 0
M  V30 2289 O 223.355 -3.17775 4.73683 0
M  V30 2290 O 222.289 -1.56423 5.81219 0
M  V30 2291 H 226.115 0.221805 3.02889 0
M  V30 2292 H 223.7 0.174547 1.48377 0
M  V30 2293 H 225.582 -2.15898 3.61892 0
M  V30 2294 H 224.257 -2.14633 2.42311 0
M  V30 2295 H 223.164 -0.235157 3.7336 0
M  V30 2296 H 224.497 -0.32904 4.91099 0
M  V30 2297 N 226.149 -1.5696 0.141893 0
M  V30 2298 C 227.081 -2.13619 -0.830627 0
M  V30 2299 C 228.094 -1.08439 -1.21428 0
M  V30 2300 O 229.283 -1.35734 -1.15925 0
M  V30 2301 C 226.383 -2.63978 -2.12529 0
M  V30 2302 C 225.556 -3.93504 -1.9098 0
M  V30 2303 C 224.615 -4.29225 -3.04388 0
M  V30 2304 O 223.641 -4.97641 -2.76302 0
M  V30 2305 N 224.843 -3.88393 -4.31429 0
M  V30 2306 H 227.608 -2.97691 -0.34641 0
M  V30 2307 H 225.169 -1.61846 -0.0418375 0
M  V30 2308 H 227.161 -2.84891 -2.87436 0
M  V30 2309 H 225.731 -1.84659 -2.52229 0
M  V30 2310 H 224.951 -3.81269 -1.00139 0
M  V30 2311 H 226.239 -4.78154 -1.73914 0
M  V30 2312 H 225.637 -3.33257 -4.57117 0
M  V30 2313 H 224.194 -4.14368 -5.03133 0
M  V30 2314 N 227.627 0.131896 -1.57047 0
M  V30 2315 C 228.857 0.855219 -1.88068 0
M  V30 2316 C 229.265 1.74557 -0.729817 0
M  V30 2317 O 228.608 1.81083 0.308962 0
M  V30 2318 C 228.67 1.75119 -3.13964 0
M  V30 2319 C 228.334 1.03646 -4.45091 0
M  V30 2320 C 229.331 0.383276 -5.18485 0
M  V30 2321 C 227.016 1.02148 -4.91804 0
M  V30 2322 C 229.01 -0.275347 -6.36805 0
M  V30 2323 C 226.697 0.359047 -6.10044 0
M  V30 2324 C 227.695 -0.288222 -6.82392 0
M  V30 2325 O 227.383 -0.94011 -7.98384 0
M  V30 2326 H 227.115 0.251864 -0.627328 0
M  V30 2327 H 229.669 0.124782 -2.05021 0
M  V30 2328 H 227.899 2.52295 -2.9306 0
M  V30 2329 H 229.588 2.3478 -3.31109 0
M  V30 2330 H 230.354 0.386562 -4.83457 0
M  V30 2331 H 226.233 1.5147 -4.35405 0
M  V30 2332 H 229.777 -0.781148 -6.93213 0
M  V30 2333 H 225.674 0.35348 -6.44531 0
M  V30 2334 H 226.442 -0.84329 -8.14144 0
M  V30 2335 N 229.106 1.52395 0.401703 0
M  V30 2336 C 230.036 1.79231 1.49661 0
M  V30 2337 C 231.017 0.643654 1.57452 0
M  V30 2338 O 232.202 0.889989 1.72606 0
M  V30 2339 C 229.332 1.94971 2.87409 0
M  V30 2340 C 228.286 3.10604 2.94465 0
M  V30 2341 C 227.612 3.11577 4.34538 0
M  V30 2342 C 228.912 4.49921 2.6527 0
M  V30 2343 H 230.606 2.70917 1.27454 0
M  V30 2344 H 228.152 1.30362 0.6117 0
M  V30 2345 H 230.105 2.12328 3.63999 0
M  V30 2346 H 228.829 0.999632 3.10926 0
M  V30 2347 H 227.488 2.93009 2.20321 0
M  V30 2348 H 227.136 2.14277 4.55076 0
M  V30 2349 H 226.836 3.89247 4.40183 0
M  V30 2350 H 228.36 3.31073 5.13053 0
M  V30 2351 H 229.774 4.67683 3.31581 0
M  V30 2352 H 228.171 5.29564 2.82281 0
M  V30 2353 H 229.241 4.57507 1.60671 0
M  V30 2354 N 230.584 -0.659388 1.43143 0
M  V30 2355 C 231.809 -1.45221 1.48073 0
M  V30 2356 C 232.234 -1.87845 0.097995 0
M  V30 2357 O 231.592 -1.56985 -0.90694 0
M  V30 2358 C 231.64 -2.66748 2.42647 0
M  V30 2359 O 230.744 -3.65583 1.90848 0
M  V30 2360 H 230.085 -0.435669 0.501088 0
M  V30 2361 H 232.615 -0.807432 1.87994 0
M  V30 2362 H 232.625 -3.14637 2.59745 0
M  V30 2363 H 231.3 -2.35067 3.43098 0
M  V30 2364 H 229.877 -3.24693 1.83381 0
M  V30 2365 N 232.062 -1.29571 -0.897171 0
M  V30 2366 C 233.478 -1.07637 -1.17841 0
M  V30 2367 C 233.678 0.170713 -2.00776 0
M  V30 2368 O 232.734 0.867768 -2.3712 0
M  V30 2369 C 234.047 -2.3332 -1.8969 0
M  V30 2370 C 235.595 -2.38664 -2.02505 0
M  V30 2371 C 236.07 -3.64157 -2.77765 0
M  V30 2372 N 237.561 -3.64894 -2.85318 0
M  V30 2373 C 238.296 -4.58679 -3.44094 0
M  V30 2374 N 237.792 -5.62799 -4.04017 0
M  V30 2375 N 239.585 -4.46245 -3.41793 0
M  V30 2376 H 231.736 -2.09598 -0.343883 0
M  V30 2377 H 233.999 -0.923333 -0.214848 0
M  V30 2378 H 233.705 -3.24262 -1.36187 0
M  V30 2379 H 233.579 -2.41025 -2.9015 0
M  V30 2380 H 235.966 -1.48208 -2.55183 0
M  V30 2381 H 236.047 -2.34943 -1.01171 0
M  V30 2382 H 235.691 -4.54965 -2.25763 0
M  V30 2383 H 235.621 -3.65137 -3.7945 0
M  V30 2384 H 238.112 -2.89613 -2.42761 0
M  V30 2385 H 238.425 -6.3048 -4.46895 0
M  V30 2386 H 236.77 -5.66605 -4.02472 0
M  V30 2387 H 239.961 -3.64094 -2.94199 0
M  V30 2388 H 240.134 -5.19518 -3.87304 0
M  V30 2389 N 233.54 1.10788 -1.12088 0
M  V30 2390 C 234.787 1.82671 -0.873931 0
M  V30 2391 C 235.115 1.85004 0.600311 0
M  V30 2392 O 234.37 1.30365 1.45957 0
M  V30 2393 C 234.669 3.29294 -1.38926 0
M  V30 2394 C 234.335 3.47113 -2.87791 0
M  V30 2395 C 232.997 3.51684 -3.28439 0
M  V30 2396 C 235.349 3.52808 -3.83635 0
M  V30 2397 C 232.677 3.59513 -4.63646 0
M  V30 2398 C 235.029 3.62169 -5.18668 0
M  V30 2399 C 233.693 3.65003 -5.58864 0
M  V30 2400 H 232.963 0.668441 -0.319794 0
M  V30 2401 H 235.61 1.30613 -1.40045 0
M  V30 2402 H 233.915 3.83894 -0.783122 0
M  V30 2403 H 235.612 3.83416 -1.17443 0
M  V30 2404 H 232.202 3.4423 -2.5535 0
M  V30 2405 H 236.386 3.4853 -3.53328 0
M  V30 2406 H 231.642 3.59987 -4.94185 0
M  V30 2407 H 235.816 3.6552 -5.92763 0
M  V30 2408 H 233.443 3.70822 -6.63623 0
M  V30 2409 N 235.018 0.912232 1.28515 0
M  V30 2410 C 235.928 0.404506 2.31086 0
M  V30 2411 C 236.944 -0.50707 1.66448 0
M  V30 2412 O 238.12 -0.393624 1.97516 0
M  V30 2413 C 235.185 -0.348572 3.44943 0
M  V30 2414 C 234.246 0.59604 4.25142 0
M  V30 2415 C 233.479 -0.121194 5.33562 0
M  V30 2416 O 233.702 -1.34317 5.5436 0
M  V30 2417 O 232.636 0.542716 5.99448 0
M  V30 2418 H 236.462 1.25579 2.76521 0
M  V30 2419 H 234.047 0.676998 1.33181 0
M  V30 2420 H 235.929 -0.77395 4.14232 0
M  V30 2421 H 234.604 -1.17571 3.01594 0
M  V30 2422 H 233.511 1.07079 3.58448 0
M  V30 2423 H 234.844 1.38995 4.72167 0
M  V30 2424 N 236.496 -1.42363 0.676048 0
M  V30 2425 C 237.406 -2.346 -0.00153389 0
M  V30 2426 C 238.422 -1.5516 -0.787485 0
M  V30 2427 O 239.598 -1.87723 -0.729521 0
M  V30 2428 C 236.663 -3.33705 -0.940298 0
M  V30 2429 C 235.724 -4.29042 -0.148739 0
M  V30 2430 C 234.957 -5.23413 -1.04279 0
M  V30 2431 O 235.18 -5.22749 -2.28232 0
M  V30 2432 O 234.114 -5.99795 -0.502925 0
M  V30 2433 H 237.94 -2.94082 0.758268 0
M  V30 2434 H 235.525 -1.42888 0.436289 0
M  V30 2435 H 237.407 -3.94586 -1.47917 0
M  V30 2436 H 236.082 -2.76695 -1.67993 0
M  V30 2437 H 234.989 -3.71571 0.43427 0
M  V30 2438 H 236.322 -4.89097 0.551805 0
M  V30 2439 N 237.974 -0.419461 -1.51915 0
M  V30 2440 C 238.937 0.389116 -2.25873 0
M  V30 2441 C 239.937 0.964924 -1.28631 0
M  V30 2442 O 241.127 0.842179 -1.52489 0
M  V30 2443 C 238.259 1.54874 -3.03689 0
M  V30 2444 H 239.452 -0.258799 -2.98781 0
M  V30 2445 H 237.005 -0.172209 -1.55348 0
M  V30 2446 H 237.74 2.23323 -2.35154 0
M  V30 2447 H 237.525 1.14223 -3.75094 0
M  V30 2448 H 239.015 2.12046 -3.59759 0
M  V30 2449 N 239.452 1.56882 -0.150215 0
M  V30 2450 C 240.385 2.12712 0.826358 0
M  V30 2451 C 241.363 1.05154 1.24022 0
M  V30 2452 O 242.547 1.33004 1.33575 0
M  V30 2453 C 239.674 2.64945 2.11002 0
M  V30 2454 C 238.72 3.8468 1.84183 0
M  V30 2455 S 239.553 5.25502 1.02995 0
M  V30 2456 C 240.709 5.81125 2.32474 0
M  V30 2457 H 240.942 2.95214 0.351598 0
M  V30 2458 H 238.475 1.54267 0.0641211 0
M  V30 2459 H 240.433 2.95689 2.84742 0
M  V30 2460 H 239.094 1.82568 2.55593 0
M  V30 2461 H 238.287 4.19482 2.79375 0
M  V30 2462 H 237.889 3.54714 1.1855 0
M  V30 2463 H 240.181 5.92753 3.281 0
M  V30 2464 H 241.124 6.78625 2.02171 0
M  V30 2465 H 241.532 5.09392 2.43269 0
M  V30 2466 N 240.93 -0.123565 1.57115 0
M  V30 2467 C 241.877 -1.15177 2.00007 0
M  V30 2468 C 242.847 -1.41403 0.871454 0
M  V30 2469 O 244.032 -1.53346 1.13533 0
M  V30 2470 C 241.172 -2.47436 2.40561 0
M  V30 2471 C 240.285 -2.28184 3.66819 0
M  V30 2472 C 239.42 -3.53641 3.96373 0
M  V30 2473 C 238.459 -3.29528 5.15827 0
M  V30 2474 N 237.596 -4.47175 5.41275 0
M  V30 2475 H 242.436 -0.779008 2.87638 0
M  V30 2476 H 239.973 -0.373166 1.42288 0
M  V30 2477 H 241.931 -3.24584 2.62109 0
M  V30 2478 H 240.561 -2.82614 1.55978 0
M  V30 2479 H 239.613 -1.41976 3.52912 0
M  V30 2480 H 240.925 -2.0634 4.5412 0
M  V30 2481 H 240.079 -4.39209 4.18545 0
M  V30 2482 H 238.818 -3.78512 3.07538 0
M  V30 2483 H 237.823 -2.42349 4.93505 0
M  V30 2484 H 239.048 -3.06031 6.06236 0
M  V30 2485 H 236.994 -4.72175 4.55397 0
M  V30 2486 H 236.911 -4.28419 6.22891 0
M  V30 2487 H 238.179 -5.3389 5.67963 0
M  V30 2488 N 242.408 -1.52605 -0.393616 0
M  V30 2489 C 243.338 -1.80022 -1.48709 0
M  V30 2490 C 244.319 -0.651995 -1.57108 0
M  V30 2491 O 245.504 -0.89913 -1.72132 0
M  V30 2492 C 242.634 -1.96492 -2.86371 0
M  V30 2493 C 241.588 -3.12161 -2.92813 0
M  V30 2494 C 240.914 -3.13877 -4.3288 0
M  V30 2495 C 242.214 -4.51322 -2.6288 0
M  V30 2496 H 243.908 -2.71589 -1.26015 0
M  V30 2497 H 241.454 -1.30684 -0.604778 0
M  V30 2498 H 243.407 -2.14255 -3.62867 0
M  V30 2499 H 242.131 -1.01611 -3.10391 0
M  V30 2500 H 240.79 -2.94173 -2.18764 0
M  V30 2501 H 240.438 -2.16687 -4.53933 0
M  V30 2502 H 240.138 -3.91576 -4.38112 0
M  V30 2503 H 241.662 -3.33789 -5.1129 0
M  V30 2504 H 243.076 -4.69435 -3.29096 0
M  V30 2505 H 241.473 -5.31053 -2.79468 0
M  V30 2506 H 242.543 -4.58353 -1.58242 0
M  V30 2507 N 243.887 0.651787 -1.4349 0
M  V30 2508 C 245.303 0.96762 -1.26922 0
M  V30 2509 C 245.503 2.00602 -0.189982 0
M  V30 2510 O 244.559 2.48793 0.431107 0
M  V30 2511 C 245.872 1.45052 -2.63401 0
M  V30 2512 C 247.42 1.5671 -2.70945 0
M  V30 2513 C 247.895 2.0839 -4.07845 0
M  V30 2514 N 249.386 2.1569 -4.09917 0
M  V30 2515 C 250.121 2.56804 -5.12679 0
M  V30 2516 N 249.617 2.97203 -6.25813 0
M  V30 2517 N 251.41 2.56756 -5.00033 0
M  V30 2518 H 243.561 -0.0353158 -2.12371 0
M  V30 2519 H 245.824 0.0467858 -0.946845 0
M  V30 2520 H 245.53 0.761926 -3.43348 0
M  V30 2521 H 245.404 2.42529 -2.88894 0
M  V30 2522 H 247.791 2.2467 -1.9133 0
M  V30 2523 H 247.872 0.57662 -2.49216 0
M  V30 2524 H 247.516 1.41031 -4.87927 0
M  V30 2525 H 247.446 3.08271 -4.26938 0
M  V30 2526 H 249.937 1.87237 -3.28254 0
M  V30 2527 H 250.25 3.27328 -7.00055 0
M  V30 2528 H 248.595 2.95004 -6.29283 0
M  V30 2529 H 251.786 2.24572 -4.10713 0
M  V30 2530 H 251.959 2.88475 -5.80247 0
M  V30 2531 N 245.365 1.30045 0.890287 0
M  V30 2532 C 246.312 1.15976 1.99545 0
M  V30 2533 C 247.282 0.0506202 1.66023 0
M  V30 2534 O 248.467 0.219847 1.89529 0
M  V30 2535 C 245.607 0.852054 3.34416 0
M  V30 2536 C 244.72 2.04255 3.80662 0
M  V30 2537 C 243.855 1.6734 5.04154 0
M  V30 2538 C 242.894 2.82916 5.42794 0
M  V30 2539 N 242.031 2.46333 6.57468 0
M  V30 2540 H 246.871 2.10524 2.10911 0
M  V30 2541 H 244.408 1.04749 1.03276 0
M  V30 2542 H 246.366 0.654296 4.12037 0
M  V30 2543 H 244.996 -0.0565502 3.2275 0
M  V30 2544 H 244.048 2.35172 2.98995 0
M  V30 2545 H 245.36 2.90826 4.05242 0
M  V30 2546 H 244.514 1.43908 5.89386 0
M  V30 2547 H 243.253 0.779308 4.81433 0
M  V30 2548 H 242.258 3.0702 4.56091 0
M  V30 2549 H 243.483 3.73004 5.6749 0
M  V30 2550 H 241.429 1.59423 6.36334 0
M  V30 2551 H 241.346 3.26436 6.81891 0
M  V30 2552 H 242.614 2.26244 7.45945 0
M  V30 2553 N 246.843 -1.10192 1.12674 0
M  V30 2554 C 247.775 -2.16418 0.754701 0
M  V30 2555 C 248.788 -1.61309 -0.21986 0
M  V30 2556 O 249.977 -1.785 -0.000826841 0
M  V30 2557 C 247.077 -3.38762 0.096698 0
M  V30 2558 C 246.25 -4.23307 1.10136 0
M  V30 2559 C 245.309 -5.24092 0.470513 0
M  V30 2560 O 244.335 -5.57906 1.12824 0
M  V30 2561 N 245.537 -5.75491 -0.760948 0
M  V30 2562 H 248.302 -2.48943 1.66875 0
M  V30 2563 H 245.863 -1.25834 1.01869 0
M  V30 2564 H 247.855 -4.03291 -0.337384 0
M  V30 2565 H 246.425 -3.04192 -0.720153 0
M  V30 2566 H 245.645 -3.55036 1.71299 0
M  V30 2567 H 246.933 -4.76624 1.78064 0
M  V30 2568 H 246.331 -5.50222 -1.31424 0
M  V30 2569 H 244.888 -6.41792 -1.13781 0
M  V30 2570 N 248.321 -0.919034 -1.28029 0
M  V30 2571 C 249.251 -0.428581 -2.29533 0
M  V30 2572 C 250.232 0.50659 -1.62381 0
M  V30 2573 O 251.417 0.413195 -1.89753 0
M  V30 2574 C 248.547 0.327388 -3.45753 0
M  V30 2575 C 247.501 -0.519137 -4.2484 0
M  V30 2576 C 246.827 0.365486 -5.33449 0
M  V30 2577 C 248.127 -1.77914 -4.91064 0
M  V30 2578 H 249.821 -1.27687 -2.70807 0
M  V30 2579 H 247.367 -0.615428 -1.30186 0
M  V30 2580 H 249.32 0.681378 -4.15855 0
M  V30 2581 H 248.044 1.20963 -3.03374 0
M  V30 2582 H 246.703 -0.855717 -3.56473 0
M  V30 2583 H 246.351 1.24642 -4.87312 0
M  V30 2584 H 246.051 -0.197356 -5.87268 0
M  V30 2585 H 247.575 0.715241 -6.06396 0
M  V30 2586 H 248.989 -1.49374 -5.53498 0
M  V30 2587 H 247.386 -2.2848 -5.54903 0
M  V30 2588 H 248.456 -2.50382 -4.15255 0
M  V30 2589 N 249.799 1.42003 -0.683588 0
M  V30 2590 C 251.048 2.00638 -0.206681 0
M  V30 2591 C 251.361 1.5472 1.19671 0
M  V30 2592 O 252.567 2.05833 1.77045 0
M  V30 2593 C 251.023 3.58487 -0.318632 0
M  V30 2594 C 250.631 4.1339 -1.72663 0
M  V30 2595 C 252.375 4.24384 0.0991141 0
M  V30 2596 C 250.282 5.63633 -1.79087 0
M  V30 2597 H 249.212 0.750408 -0.0735107 0
M  V30 2598 H 251.863 1.62624 -0.850048 0
M  V30 2599 H 250.245 3.94047 0.392781 0
M  V30 2600 H 251.419 3.89273 -2.46583 0
M  V30 2601 H 249.734 3.59976 -2.09299 0
M  V30 2602 H 252.331 5.34652 0.0713833 0
M  V30 2603 H 252.674 4.00505 1.13586 0
M  V30 2604 H 253.207 3.93816 -0.561599 0
M  V30 2605 H 249.946 5.92323 -2.80774 0
M  V30 2606 H 249.466 5.89714 -1.09535 0
M  V30 2607 H 251.145 6.28201 -1.5483 0
M  V30 2608 N 251.277 0.427512 1.51691 0
M  V30 2609 C 252.502 -0.143601 2.06902 0
M  V30 2610 C 252.927 -1.36536 1.29382 0
M  V30 2611 O 252.285 -1.78289 0.329043 0
M  V30 2612 C 252.333 -0.454207 3.57728 0
M  V30 2613 O 251.437 -1.54228 3.82475 0
M  V30 2614 H 250.778 -0.00617128 0.663971 0
M  V30 2615 H 253.308 0.606014 1.95419 0
M  V30 2616 H 253.318 -0.707525 4.01818 0
M  V30 2617 H 251.993 0.438812 4.13579 0
M  V30 2618 H 250.57 -1.2797 3.50254 0
M  V30 2619 N 252.755 -1.56801 0.158532 0
M  V30 2620 C 253.665 -2.20916 -0.789518 0
M  V30 2621 C 254.681 -1.1969 -1.26294 0
M  V30 2622 O 255.857 -1.52308 -1.31773 0
M  V30 2623 C 252.922 -2.82727 -2.00665 0
M  V30 2624 C 251.983 -3.99114 -1.58134 0
M  V30 2625 C 251.216 -4.57968 -2.74045 0
M  V30 2626 O 251.439 -4.15704 -3.90572 0
M  V30 2627 O 250.373 -5.48047 -2.48855 0
M  V30 2628 H 254.199 -3.02464 -0.273681 0
M  V30 2629 H 251.784 -1.4924 -0.0690548 0
M  V30 2630 H 253.666 -3.21968 -2.71872 0
M  V30 2631 H 252.341 -2.04184 -2.51179 0
M  V30 2632 H 251.248 -3.64567 -0.839155 0
M  V30 2633 H 252.581 -4.79212 -1.12325 0
M  V30 2634 N 254.233 0.115231 -1.57178 0
M  V30 2635 C 255.18 1.14115 -2.00615 0
M  V30 2636 C 256.15 1.40939 -0.878941 0
M  V30 2637 O 257.335 1.52741 -1.14345 0
M  V30 2638 C 254.475 2.46156 -2.4187 0
M  V30 2639 C 253.588 2.26236 -3.68024 0
M  V30 2640 C 252.723 3.51534 -3.98243 0
M  V30 2641 C 251.762 3.26787 -5.17568 0
M  V30 2642 N 250.899 4.44298 -5.43639 0
M  V30 2643 H 255.739 0.763743 -2.88047 0
M  V30 2644 H 253.276 0.365615 -1.42484 0
M  V30 2645 H 255.234 3.23189 -2.63827 0
M  V30 2646 H 253.864 2.81783 -1.57475 0
M  V30 2647 H 252.916 1.40102 -3.5366 0
M  V30 2648 H 254.228 2.03929 -4.55208 0
M  V30 2649 H 253.382 4.36984 -4.20868 0
M  V30 2650 H 252.121 3.76876 -3.09541 0
M  V30 2651 H 251.126 2.39729 -4.94783 0
M  V30 2652 H 252.351 3.02812 -6.0785 0
M  V30 2653 H 250.297 4.69754 -4.57895 0
M  V30 2654 H 250.214 4.25109 -6.25154 0
M  V30 2655 H 251.482 5.3087 -5.70786 0
M  V30 2656 N 255.711 1.52812 0.385517 0
M  V30 2657 C 257.122 1.5993 0.963293 0
M  V30 2658 C 257.473 0.454302 1.90868 0
M  V30 2659 O 256.598 -0.422132 2.12243 0
M  V30 2660 C 257.193 2.89871 1.75387 0
M  V30 2661 C 255.752 2.99389 2.28129 0
M  V30 2662 C 254.899 2.55071 1.08783 0
M  V30 2663 H 257.85 1.5784 0.164948 0
M  V30 2664 H 257.871 2.76553 2.61341 0
M  V30 2665 H 257.383 3.73186 1.06554 0
M  V30 2666 H 255.484 2.20619 3.00263 0
M  V30 2667 H 255.597 4.04096 2.57377 0
M  V30 2668 H 253.961 2.09473 1.4489 0
M  V30 2669 H 254.744 3.40785 0.414807 0
M  V30 2670 N 257.189 -0.644168 1.43834 0
M  V30 2671 C 258.414 -1.43642 1.49605 0
M  V30 2672 C 258.839 -1.8773 0.117913 0
M  V30 2673 O 258.197 -1.57938 -0.890239 0
M  V30 2674 C 258.245 -2.6416 2.45463 0
M  V30 2675 O 257.349 -3.63538 1.94714 0
M  V30 2676 H 256.69 -0.430329 0.50568 0
M  V30 2677 H 259.22 -0.787448 1.8884 0
M  V30 2678 H 259.23 -3.11864 2.63068 0
M  V30 2679 H 257.905 -2.31414 3.45572 0
M  V30 2680 H 256.482 -3.2273 1.86814 0
M  V30 2681 N 258.668 -1.30515 -0.883378 0
M  V30 2682 C 259.6 -1.12846 -1.99496 0
M  V30 2683 C 260.613 -0.0712571 -1.62644 0
M  V30 2684 O 261.802 -0.317432 -1.75655 0
M  V30 2685 C 258.902 -0.699123 -3.3161 0
M  V30 2686 C 258.075 -1.83842 -3.96889 0
M  V30 2687 C 257.134 -1.39737 -5.07307 0
M  V30 2688 O 256.16 -2.10485 -5.28852 0
M  V30 2689 N 257.362 -0.277279 -5.79837 0
M  V30 2690 H 260.127 -2.08585 -2.15203 0
M  V30 2691 H 257.688 -1.22672 -1.05656 0
M  V30 2692 H 259.68 -0.387044 -4.02845 0
M  V30 2693 H 258.25 0.166276 -3.12157 0
M  V30 2694 H 257.47 -2.31853 -3.18807 0
M  V30 2695 H 258.758 -2.60187 -4.37241 0
M  V30 2696 H 258.156 0.3122 -5.64838 0
M  V30 2697 H 256.713 -0.0246623 -6.51795 0
M  V30 2698 N 260.146 1.09593 -1.13257 0
M  V30 2699 C 261.056 2.19739 -0.821691 0
M  V30 2700 C 262.072 1.72926 0.19302 0
M  V30 2701 O 263.248 2.01385 0.0244895 0
M  V30 2702 C 260.313 3.45482 -0.290333 0
M  V30 2703 C 259.374 4.06985 -1.36607 0
M  V30 2704 C 258.607 5.26726 -0.859975 0
M  V30 2705 O 258.83 5.69594 0.303082 0
M  V30 2706 O 257.764 5.7931 -1.63351 0
M  V30 2707 H 261.59 2.48781 -1.74189 0
M  V30 2708 H 259.175 1.18496 -0.909894 0
M  V30 2709 H 261.057 4.214 0.000674022 0
M  V30 2710 H 259.732 3.18047 0.602306 0
M  V30 2711 H 258.639 3.32712 -1.71037 0
M  V30 2712 H 259.972 4.38643 -2.23279 0
M  V30 2713 N 261.624 0.925811 1.2754 0
M  V30 2714 C 262.901 0.483726 1.89524 0
M  V30 2715 C 263.281 -1.03809 1.83812 0
M  V30 2716 O 262.629 -1.89143 1.28207 0
M  V30 2717 C 262.839 1.02769 3.33526 0
M  V30 2718 C 264.187 1.08703 4.10449 0
M  V30 2719 O 265.211 0.977175 3.42534 0
M  V30 2720 O 264.07 1.25599 5.31871 0
M  V30 2721 H 261.164 0.15529 0.812289 0
M  V30 2722 H 263.71 1.01738 1.35822 0
M  V30 2723 H 262.482 2.07155 3.31967 0
M  V30 2724 H 262.105 0.475567 3.94746 0
M  V30 2725 N 263.102 -1.41638 0.69111 0
M  V30 2726 C 264.35 -2.00902 0.219758 0
M  V30 2727 C 264.671 -1.54994 -1.18329 0
M  V30 2728 O 263.941 -0.778628 -1.79762 0
M  V30 2729 H 262.521 -0.74289 0.0782558 0
M  V30 2730 H 265.183 -1.73327 0.891271 0
M  V30 2731 H 264.279 -3.11224 0.233708 0
M  V30 2732 N 264.58 -0.43555 -1.51462 0
M  V30 2733 C 265.528 0.391205 -2.29287 0
M  V30 2734 C 266.522 1.02247 -1.35062 0
M  V30 2735 O 267.728 0.957646 -1.52411 0
M  V30 2736 H 264.103 0.144968 -0.737895 0
M  V30 2737 H 266.074 -0.286051 -2.97026 0
M  V30 2738 C 264.823 1.48096 -3.14583 0
M  V30 2739 H 264.146 1.00457 -3.86973 0
M  V30 2740 H 265.586 2.03273 -3.72097 0
M  V30 2741 C 264.045 2.46321 -2.29843 0
M  V30 2742 O 264.575 3.50815 -1.95682 0
M  V30 2743 N 262.781 2.17166 -1.931 0
M  V30 2744 H 262.328 1.32218 -2.21079 0
M  V30 2745 H 262.286 2.83127 -1.36698 0
M  V30 2746 N 266.058 1.56714 -0.166846 0
M  V30 2747 C 267.286 2.0112 0.485644 0
M  V30 2748 C 267.701 1.04705 1.57106 0
M  V30 2749 O 267.058 0.0471923 1.82439 0
M  V30 2750 C 267.109 3.45361 1.06808 0
M  V30 2751 O 266.83 4.38092 0.0259995 0
M  V30 2752 C 268.331 4.05145 1.79924 0
M  V30 2753 H 265.551 0.65931 0.124704 0
M  V30 2754 H 268.095 2.02746 -0.267262 0
M  V30 2755 H 266.25 3.44524 1.7715 0
M  V30 2756 H 266.664 5.22519 0.455398 0
M  V30 2757 H 268.138 5.08009 2.15942 0
M  V30 2758 H 268.615 3.46982 2.69258 0
M  V30 2759 H 269.221 4.09672 1.14234 0
M  V30 2760 N 267.536 -0.106894 1.57237 0
M  V30 2761 C 268.764 -0.826389 1.8968 0
M  V30 2762 C 269.179 -1.72856 0.759353 0
M  V30 2763 O 268.536 -1.80503 -0.269263 0
M  V30 2764 C 268.587 -1.64967 3.21665 0
M  V30 2765 O 268.308 -0.783804 4.31031 0
M  V30 2766 C 269.809 -2.47326 3.67892 0
M  V30 2767 H 267.029 -0.236927 0.627779 0
M  V30 2768 H 269.573 -0.0876593 2.04312 0
M  V30 2769 H 267.728 -2.34103 3.08666 0
M  V30 2770 H 268.142 -1.35284 5.06753 0
M  V30 2771 H 269.616 -3.00604 4.6297 0
M  V30 2772 H 270.093 -3.25247 2.95146 0
M  V30 2773 H 270.699 -1.83411 3.83719 0
M  V30 2774 N 269.014 -1.53014 -0.377408 0
M  V30 2775 C 269.924 -1.81557 -1.48574 0
M  V30 2776 C 270.94 -0.703102 -1.59162 0
M  V30 2777 O 272.116 -0.99192 -1.75279 0
M  V30 2778 C 269.181 -1.9889 -2.83978 0
M  V30 2779 C 268.242 -3.22801 -2.83016 0
M  V30 2780 C 267.475 -3.39298 -4.11962 0
M  V30 2781 O 267.698 -2.60345 -5.0752 0
M  V30 2782 O 266.632 -4.32604 -4.18494 0
M  V30 2783 H 270.458 -2.75695 -1.27382 0
M  V30 2784 H 268.043 -1.38248 -0.566373 0
M  V30 2785 H 269.925 -2.11931 -3.6423 0
M  V30 2786 H 268.6 -1.07942 -3.05172 0
M  V30 2787 H 267.507 -3.15193 -2.01505 0
M  V30 2788 H 268.84 -4.13632 -2.66775 0
M  V30 2789 N 270.492 0.636531 -1.44174 0
M  V30 2790 C 271.402 1.77754 -1.53103 0
M  V30 2791 C 272.418 1.68928 -0.417034 0
M  V30 2792 O 273.594 1.89801 -0.6736 0
M  V30 2793 C 270.659 3.14115 -1.46741 0
M  V30 2794 C 269.72 3.34612 -2.68948 0
M  V30 2795 C 268.953 4.64467 -2.6288 0
M  V30 2796 O 269.176 5.44919 -1.68581 0
M  V30 2797 O 268.11 4.87049 -3.53648 0
M  V30 2798 H 271.936 1.73174 -2.49489 0
M  V30 2799 H 269.521 0.79709 -1.2636 0
M  V30 2800 H 271.403 3.95412 -1.45696 0
M  V30 2801 H 270.078 3.19249 -0.534975 0
M  V30 2802 H 268.985 2.53014 -2.75562 0
M  V30 2803 H 270.318 3.34336 -3.61221 0
M  V30 2804 N 271.97 1.30982 0.876444 0
M  V30 2805 C 273.217 1.20296 1.62896 0
M  V30 2806 C 273.545 -0.240395 1.93009 0
M  V30 2807 O 272.8 -1.18733 1.55567 0
M  V30 2808 C 273.099 1.98572 2.9716 0
M  V30 2809 C 272.765 3.48125 2.86566 0
M  V30 2810 C 271.427 3.88905 2.83383 0
M  V30 2811 C 273.779 4.43322 2.74071 0
M  V30 2812 C 271.107 5.2316 2.65556 0
M  V30 2813 C 273.459 5.77695 2.57781 0
M  V30 2814 C 272.123 6.17704 2.52979 0
M  V30 2815 H 271.393 0.440193 0.59608 0
M  V30 2816 H 274.04 1.62177 1.01837 0
M  V30 2817 H 272.345 1.49352 3.62217 0
M  V30 2818 H 274.042 1.8769 3.54364 0
M  V30 2819 H 270.632 3.15723 2.89856 0
M  V30 2820 H 274.816 4.12752 2.75589 0
M  V30 2821 H 270.072 5.53241 2.60259 0
M  V30 2822 H 274.246 6.51091 2.47089 0
M  V30 2823 H 271.873 7.21678 2.38924 0
M  V30 2824 N 273.449 -1.08991 1.13837 0
M  V30 2825 C 274.726 -1.77863 0.813876 0
M  V30 2826 C 275.106 -1.99375 -0.693746 0
M  V30 2827 O 274.454 -1.59875 -1.63255 0
M  V30 2828 C 274.664 -3.0986 1.60586 0
M  V30 2829 C 276.012 -3.84493 1.8014 0
M  V30 2830 O 277.036 -3.19624 1.57222 0
M  V30 2831 O 275.895 -5.00957 2.18413 0
M  V30 2832 H 272.989 -0.771589 0.297624 0
M  V30 2833 H 275.535 -1.15507 1.24323 0
M  V30 2834 H 274.307 -2.89715 2.63022 0
M  V30 2835 H 273.93 -3.79942 1.17173 0
M  V30 2836 N 274.927 -0.932562 -1.27047 0
M  V30 2837 C 276.152 -0.591474 -1.98787 0
M  V30 2838 C 276.577 0.824601 -1.69062 0
M  V30 2839 O 275.935 1.5541 -0.933677 0
M  V30 2840 C 275.983 -0.829808 -3.50922 0
M  V30 2841 O 275.087 0.102266 -4.12273 0
M  V30 2842 H 274.428 -0.227185 -0.623926 0
M  V30 2843 H 276.958 -1.25314 -1.61733 0
M  V30 2844 H 276.968 -0.747292 -4.01098 0
M  V30 2845 H 275.643 -1.86201 -3.7189 0
M  V30 2846 H 274.22 -0.0305761 -3.72887 0
M  V30 2847 N 276.405 1.4127 -0.698611 0
M  V30 2848 C 277.652 2.0118 -0.230865 0
M  V30 2849 C 277.98 1.55338 1.17049 0
M  V30 2850 O 277.235 0.756775 1.80475 0
M  V30 2851 C 277.534 3.56592 -0.240192 0
M  V30 2852 C 277.2 4.21955 -1.58948 0
M  V30 2853 C 275.862 4.39524 -1.95887 0
M  V30 2854 C 278.214 4.58576 -2.47704 0
M  V30 2855 C 275.542 4.90992 -3.2116 0
M  V30 2856 C 277.894 5.11435 -3.72313 0
M  V30 2857 C 276.558 5.27215 -4.0939 0
M  V30 2858 H 275.828 0.736169 -0.0844796 0
M  V30 2859 H 278.475 1.69124 -0.8983 0
M  V30 2860 H 276.78 3.88456 0.510797 0
M  V30 2861 H 278.477 4.00758 0.139296 0
M  V30 2862 H 275.067 4.08657 -1.29219 0
M  V30 2863 H 279.251 4.44654 -2.20445 0
M  V30 2864 H 274.507 5.01393 -3.49878 0
M  V30 2865 H 278.681 5.38752 -4.4127 0
M  V30 2866 H 276.308 5.66859 -5.06533 0
M  V30 2867 N 277.883 0.443576 1.51229 0
M  V30 2868 C 279.299 0.0962001 1.5931 0
M  V30 2869 C 279.499 -1.39501 1.45402 0
M  V30 2870 O 278.555 -2.16557 1.29843 0
M  V30 2871 C 279.868 0.621875 2.94199 0
M  V30 2872 C 281.416 0.582865 3.07525 0
M  V30 2873 C 281.891 1.08562 4.44948 0
M  V30 2874 N 283.382 1.04387 4.51284 0
M  V30 2875 C 284.117 1.40368 5.55954 0
M  V30 2876 N 283.613 1.83664 6.68011 0
M  V30 2877 N 285.406 1.32145 5.46346 0
M  V30 2878 H 277.557 1.41376 1.58514 0
M  V30 2879 H 279.82 0.582965 0.747567 0
M  V30 2880 H 279.526 1.66546 3.09767 0
M  V30 2881 H 279.4 0.0502125 3.77167 0
M  V30 2882 H 281.787 -0.451749 2.91622 0
M  V30 2883 H 281.868 1.191 2.26382 0
M  V30 2884 H 281.512 2.11873 4.61598 0
M  V30 2885 H 281.442 0.453956 5.2464 0
M  V30 2886 H 283.933 0.725986 3.70861 0
M  V30 2887 H 284.246 2.0934 7.43906 0
M  V30 2888 H 282.591 1.87596 6.69203 0
M  V30 2889 H 285.782 0.981808 4.57688 0
M  V30 2890 H 285.955 1.60514 6.27805 0
M  V30 2891 N 279.361 -1.56624 0.175154 0
M  V30 2892 C 280.61 -1.96173 -0.468921 0
M  V30 2893 C 280.923 -1.06401 -1.64128 0
M  V30 2894 O 282.129 -1.35648 -2.35185 0
M  V30 2895 C 280.585 -3.48833 -0.885633 0
M  V30 2896 C 280.193 -4.47237 0.261343 0
M  V30 2897 C 281.937 -3.97194 -1.49791 0
M  V30 2898 C 279.844 -5.9114 -0.175214 0
M  V30 2899 H 278.774 -0.732455 -0.178958 0
M  V30 2900 H 281.425 -1.81591 0.263997 0
M  V30 2901 H 279.807 -3.58848 -1.67464 0
M  V30 2902 H 280.981 -4.4894 1.03871 0
M  V30 2903 H 279.296 -4.08956 0.783827 0
M  V30 2904 H 281.893 -5.02167 -1.83665 0
M  V30 2905 H 282.236 -3.40351 -2.39722 0
M  V30 2906 H 282.769 -3.90212 -0.773267 0
M  V30 2907 H 279.508 -6.51865 0.689414 0
M  V30 2908 H 279.028 -5.92735 -0.91786 0
M  V30 2909 H 280.707 -6.44044 -0.617792 0
M  V30 2910 N 280.839 0.0985539 -1.57292 0
M  V30 2911 C 282.086 0.802678 -1.85912 0
M  V30 2912 C 282.414 1.78901 -0.763186 0
M  V30 2913 O 281.669 1.94178 0.243559 0
M  V30 2914 C 281.968 1.56927 -3.21105 0
M  V30 2915 C 281.634 0.725376 -4.45027 0
M  V30 2916 C 280.296 0.492726 -4.78671 0
M  V30 2917 C 282.648 0.138493 -5.21016 0
M  V30 2918 C 279.976 -0.336727 -5.85733 0
M  V30 2919 C 282.328 -0.678264 -6.28953 0
M  V30 2920 C 280.992 -0.921039 -6.61115 0
M  V30 2921 H 280.262 0.293721 -0.680301 0
M  V30 2922 H 282.909 0.0642841 -1.91392 0
M  V30 2923 H 281.214 2.37914 -3.11294 0
M  V30 2924 H 282.911 2.11841 -3.40477 0
M  V30 2925 H 279.501 0.916815 -4.18679 0
M  V30 2926 H 283.685 0.305404 -4.95359 0
M  V30 2927 H 278.941 -0.533836 -6.09065 0
M  V30 2928 H 283.115 -1.1399 -6.87007 0
M  V30 2929 H 280.742 -1.56556 -7.43905 0
M  V30 2930 N 282.317 1.53212 0.369288 0
M  V30 2931 C 283.733 1.42902 0.710712 0
M  V30 2932 C 283.933 0.565135 1.93413 0
M  V30 2933 O 282.989 0.0461484 2.52458 0
M  V30 2934 C 284.302 2.86042 0.927382 0
M  V30 2935 C 285.85 2.9565 1.02762 0
M  V30 2936 C 286.325 4.39843 1.27679 0
M  V30 2937 N 287.816 4.43256 1.34457 0
M  V30 2938 C 288.551 5.51929 1.55439 0
M  V30 2939 N 288.047 6.70655 1.73762 0
M  V30 2940 N 289.84 5.39502 1.57779 0
M  V30 2941 H 281.991 2.07888 -0.435457 0
M  V30 2942 H 284.254 0.938661 -0.132739 0
M  V30 2943 H 283.96 3.51557 0.100287 0
M  V30 2944 H 283.834 3.29472 1.83653 0
M  V30 2945 H 286.221 2.30291 1.84527 0
M  V30 2946 H 286.302 2.5562 0.0959504 0
M  V30 2947 H 285.946 5.05774 0.464175 0
M  V30 2948 H 285.876 4.77443 2.22162 0
M  V30 2949 H 288.367 3.5769 1.21926 0
M  V30 2950 H 288.68 7.49248 1.89335 0
M  V30 2951 H 287.025 6.73648 1.70948 0
M  V30 2952 H 290.216 4.45713 1.43029 0
M  V30 2953 H 290.389 6.2426 1.7379 0
M  V30 2954 N 283.795 -0.628877 1.44509 0
M  V30 2955 C 284.725 -1.75187 1.54376 0
M  V30 2956 C 285.706 -1.65411 0.396618 0
M  V30 2957 O 286.891 -1.84137 0.617031 0
M  V30 2958 C 284.021 -3.13725 1.48976 0
M  V30 2959 C 282.975 -3.38291 2.62189 0
M  V30 2960 C 282.301 -4.76883 2.41841 0
M  V30 2961 C 283.601 -3.30632 4.04326 0
M  V30 2962 H 285.295 -1.67187 2.48373 0
M  V30 2963 H 282.841 -0.802909 1.19538 0
M  V30 2964 H 284.794 -3.92064 1.54478 0
M  V30 2965 H 283.518 -3.22515 0.514961 0
M  V30 2966 H 282.177 -2.62334 2.56079 0
M  V30 2967 H 281.825 -4.82378 1.42548 0
M  V30 2968 H 281.525 -4.94278 3.17747 0
M  V30 2969 H 283.049 -5.57449 2.49165 0
M  V30 2970 H 284.463 -3.98873 4.11793 0
M  V30 2971 H 282.86 -3.59561 4.80454 0
M  V30 2972 H 283.93 -2.28404 4.27738 0
M  V30 2973 N 285.273 -1.31445 -0.869486 0
M  V30 2974 C 286.519 -1.21337 -1.62496 0
M  V30 2975 C 286.852 0.227872 -1.92858 0
M  V30 2976 O 286.127 1.16094 -1.56053 0
M  V30 2977 C 286.41 -2.05814 -2.95487 0
M  V30 2978 C 286.263 -3.5824 -2.72 0
M  V30 2979 C 287.582 -1.9079 -3.96594 0
M  V30 2980 H 284.701 -0.442135 -0.589649 0
M  V30 2981 H 287.343 -1.6124 -1.00507 0
M  V30 2982 H 285.493 -1.71913 -3.48394 0
M  V30 2983 H 287.165 -4.0228 -2.25762 0
M  V30 2984 H 285.408 -3.81647 -2.06224 0
M  V30 2985 H 286.079 -4.12657 -3.66631 0
M  V30 2986 H 288.555 -2.20459 -3.52898 0
M  V30 2987 H 287.431 -2.52199 -4.87531 0
M  V30 2988 H 287.692 -0.871341 -4.33428 0
M  V30 2989 N 286.751 1.08385 -1.14413 0
M  V30 2990 C 287.999 1.80419 -0.910679 0
M  V30 2991 C 288.32 1.86658 0.564243 0
M  V30 2992 O 287.59 1.35985 1.41014 0
M  V30 2993 H 286.17 0.668204 -0.333934 0
M  V30 2994 H 288.832 1.31037 -1.44275 0
M  V30 2995 H 287.928 2.83238 -1.31082 0
M  V30 2996 N 288.23 0.939286 1.26551 0
M  V30 2997 C 289.47 0.5933 1.956 0
M  V30 2998 C 289.834 -0.851515 1.72085 0
M  V30 2999 O 291.035 -1.30634 2.34921 0
M  V30 3000 C 289.306 0.923996 3.45249 0
M  V30 3001 S 290.865 0.688269 4.33369 0
M  V30 3002 H 287.683 0.218591 0.676564 0
M  V30 3003 H 290.285 1.2102 1.5354 0
M  V30 3004 H 288.989 1.97297 3.59864 0
M  V30 3005 H 288.52 0.296746 3.92279 0
M  V30 3006 H 290.535 -0.448434 4.9417 0
M  V30 3007 N 289.708 -1.40897 0.706093 0
M  V30 3008 C 290.671 -2.29131 0.0562841 0
M  V30 3009 C 291.671 -1.44901 -0.697166 0
M  V30 3010 O 292.861 -1.65926 -0.530484 0
M  V30 3011 C 289.993 -3.27957 -0.93043 0
M  V30 3012 H 291.186 -2.88091 0.833284 0
M  V30 3013 H 288.739 -1.4906 0.470192 0
M  V30 3014 H 289.474 -2.73997 -1.73482 0
M  V30 3015 H 289.259 -3.90124 -0.393166 0
M  V30 3016 H 290.749 -3.94049 -1.38256 0
M  V30 3017 N 291.186 -0.45159 -1.50991 0
M  V30 3018 C 292.116 0.342898 -2.30969 0
M  V30 3019 C 293.097 1.00815 -1.37005 0
M  V30 3020 O 294.282 1.00907 -1.65926 0
M  V30 3021 C 291.412 1.43637 -3.16205 0
M  V30 3022 C 290.366 0.893818 -4.18563 0
M  V30 3023 C 289.692 2.08411 -4.92411 0
M  V30 3024 C 290.992 -0.0815568 -5.22236 0
M  V30 3025 H 292.686 -0.324556 -2.97636 0
M  V30 3026 H 290.232 -0.157531 -1.43136 0
M  V30 3027 H 292.185 1.9995 -3.70942 0
M  V30 3028 H 290.909 2.13232 -2.47386 0
M  V30 3029 H 289.568 0.352798 -3.64898 0
M  V30 3030 H 289.216 2.76658 -4.20082 0
M  V30 3031 H 288.916 1.72741 -5.61636 0
M  V30 3032 H 290.44 2.65251 -5.49976 0
M  V30 3033 H 291.854 0.391742 -5.7196 0
M  V30 3034 H 290.251 -0.351551 -5.99069 0
M  V30 3035 H 291.321 -1.01374 -4.74185 0
M  V30 3036 N 292.664 1.56529 -0.183458 0
M  V30 3037 C 293.594 2.21549 0.737456 0
M  V30 3038 C 294.575 1.17489 1.23005 0
M  V30 3039 O 295.76 1.45959 1.281 0
M  V30 3040 C 292.89 2.86575 1.96194 0
M  V30 3041 C 291.844 3.96778 1.60473 0
M  V30 3042 C 291.17 4.48911 2.90487 0
M  V30 3043 C 292.47 5.15767 0.823497 0
M  V30 3044 H 294.164 2.98761 0.195453 0
M  V30 3045 H 291.71 1.43702 0.0925686 0
M  V30 3046 H 293.663 3.30739 2.61131 0
M  V30 3047 H 292.387 2.06749 2.52828 0
M  V30 3048 H 291.046 3.53286 0.978997 0
M  V30 3049 H 290.694 3.65862 3.45186 0
M  V30 3050 H 290.394 5.23265 2.67335 0
M  V30 3051 H 291.918 4.95771 3.56432 0
M  V30 3052 H 293.332 5.56549 1.37571 0
M  V30 3053 H 291.729 5.96114 0.690551 0
M  V30 3054 H 292.799 4.84574 -0.177782 0
M  V30 3055 N 294.142 -0.090211 1.57342 0
M  V30 3056 C 295.105 -1.09335 2.01441 0
M  V30 3057 C 296.105 -1.32666 0.908641 0
M  V30 3058 O 297.295 -1.28697 1.174 0
M  V30 3059 C 294.427 -2.44136 2.3793 0
M  V30 3060 H 295.62 -0.713662 2.91285 0
M  V30 3061 H 293.173 -0.335404 1.52659 0
M  V30 3062 H 293.908 -2.86972 1.51055 0
M  V30 3063 H 293.693 -2.28548 3.18603 0
M  V30 3064 H 295.183 -3.16277 2.72688 0
M  V30 3065 N 295.62 -1.53406 -0.361157 0
M  V30 3066 C 296.55 -1.83136 -1.44857 0
M  V30 3067 C 297.531 -0.685174 -1.5569 0
M  V30 3068 O 298.716 -0.93544 -1.70186 0
M  V30 3069 C 295.846 -2.02522 -2.82138 0
M  V30 3070 C 294.8 -3.18302 -2.86126 0
M  V30 3071 C 294.126 -3.22989 -4.26125 0
M  V30 3072 C 295.426 -4.56796 -2.53248 0
M  V30 3073 H 297.12 -2.74201 -1.20226 0
M  V30 3074 H 294.666 -1.31938 -0.576922 0
M  V30 3075 H 296.619 -2.21904 -3.58241 0
M  V30 3076 H 295.343 -1.08172 -3.08166 0
M  V30 3077 H 294.002 -2.98747 -2.12475 0
M  V30 3078 H 293.65 -2.26267 -4.49235 0
M  V30 3079 H 293.35 -4.00781 -4.29708 0
M  V30 3080 H 294.874 -3.44559 -5.04094 0
M  V30 3081 H 296.288 -4.7631 -3.19064 0
M  V30 3082 H 294.685 -5.36862 -2.68141 0
M  V30 3083 H 295.755 -4.61606 -1.48484 0
M  V30 3084 N 297.098 0.621204 -1.44841 0
M  V30 3085 C 298.346 1.37783 -1.47852 0
M  V30 3086 C 298.667 1.94653 -0.116224 0
M  V30 3087 O 297.937 1.76367 0.852737 0
M  V30 3088 H 296.517 0.511453 -0.544449 0
M  V30 3089 H 299.179 0.730446 -1.80694 0
M  V30 3090 H 298.275 2.20414 -2.20961 0
M  V30 3091 N 298.576 1.31904 0.862503 0
M  V30 3092 C 299.822 1.22197 1.61851 0
M  V30 3093 C 300.155 -0.217641 1.92977 0
M  V30 3094 O 299.43 -1.15264 1.56666 0
M  V30 3095 C 299.713 2.07378 2.94391 0
M  V30 3096 C 299.566 3.59678 2.70096 0
M  V30 3097 C 300.885 1.92891 3.95577 0
M  V30 3098 H 298.004 0.445255 0.587296 0
M  V30 3099 H 300.646 1.6177 0.99651 0
M  V30 3100 H 298.796 1.73758 3.47477 0
M  V30 3101 H 300.468 4.03472 2.23625 0
M  V30 3102 H 298.711 3.82735 2.04197 0
M  V30 3103 H 299.382 4.14595 3.64438 0
M  V30 3104 H 301.858 2.22327 3.51724 0
M  V30 3105 H 300.734 2.54781 4.86187 0
M  V30 3106 H 300.995 0.894315 4.3296 0
M  V30 3107 N 300.054 -1.07777 1.14986 0
M  V30 3108 C 301.47 -1.32373 0.891596 0
M  V30 3109 C 301.67 -1.9609 -0.463788 0
M  V30 3110 O 300.726 -2.21801 -1.20667 0
M  V30 3111 C 302.039 -2.21905 2.02925 0
M  V30 3112 C 303.587 -2.35367 2.06329 0
M  V30 3113 C 304.062 -3.28245 3.19405 0
M  V30 3114 N 305.553 -3.35824 3.19024 0
M  V30 3115 C 306.288 -4.07739 4.03158 0
M  V30 3116 N 305.784 -4.82306 4.97346 0
M  V30 3117 N 307.577 -4.03635 3.91197 0
M  V30 3118 H 299.728 -0.648039 2.02273 0
M  V30 3119 H 301.991 -0.348149 0.881757 0
M  V30 3120 H 301.697 -1.82342 3.0074 0
M  V30 3121 H 301.571 -3.22407 1.95789 0
M  V30 3122 H 303.958 -2.74186 1.09116 0
M  V30 3123 H 304.039 -1.34585 2.17533 0
M  V30 3124 H 303.683 -2.90146 4.16867 0
M  V30 3125 H 303.613 -4.28971 3.05437 0
M  V30 3126 H 306.104 -2.8267 2.50811 0
M  V30 3127 H 306.417 -5.34661 5.57994 0
M  V30 3128 H 304.762 -4.81337 5.01338 0
M  V30 3129 H 307.953 -3.44491 3.16928 0
M  V30 3130 H 308.126 -4.59417 4.5699 0
M  V30 3131 N 301.532 -0.945985 -1.26051 0
M  V30 3132 C 302.495 -0.463897 -2.24456 0
M  V30 3133 C 303.495 0.427655 -1.55009 0
M  V30 3134 O 304.685 0.226157 -1.72726 0
M  V30 3135 C 301.817 0.330812 -3.39291 0
M  V30 3136 H 303.01 -1.33357 -2.68619 0
M  V30 3137 H 300.563 -0.728416 -1.38289 0
M  V30 3138 H 301.298 1.21852 -3.00537 0
M  V30 3139 H 301.083 -0.308679 -3.90883 0
M  V30 3140 H 302.573 0.657865 -4.12386 0
M  V30 3141 N 303.011 1.40521 -0.713556 0
M  V30 3142 C 304.258 2.00923 -0.25219 0
M  V30 3143 C 304.586 1.56571 1.15395 0
M  V30 3144 O 303.841 0.775874 1.79663 0
M  V30 3145 C 304.14 3.56317 -0.278 0
M  V30 3146 C 303.806 4.20246 -1.63415 0
M  V30 3147 C 302.468 4.37422 -2.00538 0
M  V30 3148 C 304.82 4.55923 -2.52554 0
M  V30 3149 C 302.148 4.87558 -3.2635 0
M  V30 3150 C 304.5 5.07458 -3.77716 0
M  V30 3151 C 303.164 5.22843 -4.14959 0
M  V30 3152 H 302.434 0.735231 -0.0922829 0
M  V30 3153 H 305.081 1.68161 -0.916188 0
M  V30 3154 H 303.386 3.88976 0.469567 0
M  V30 3155 H 305.083 4.00883 0.0967819 0
M  V30 3156 H 301.673 4.07263 -1.33546 0
M  V30 3157 H 305.857 4.42291 -2.25149 0
M  V30 3158 H 301.113 4.97654 -3.55176 0
M  V30 3159 H 305.287 5.34041 -4.4696 0
M  V30 3160 H 302.914 5.61454 -5.12516 0
M  V30 3161 N 304.489 0.459591 1.5075 0
M  V30 3162 C 305.735 -0.0994966 2.02556 0
M  V30 3163 C 306.068 -1.40399 1.3417 0
M  V30 3164 O 305.343 -1.88892 0.463683 0
M  V30 3165 C 305.626 -0.295242 3.58888 0
M  V30 3166 C 305.479 1.02947 4.37861 0
M  V30 3167 C 306.798 -1.05502 4.27267 0
M  V30 3168 H 303.917 -0.034686 0.736183 0
M  V30 3169 H 306.559 0.602938 1.8018 0
M  V30 3170 H 304.709 -0.893563 3.78084 0
M  V30 3171 H 306.381 1.66348 4.30263 0
M  V30 3172 H 304.624 1.62885 4.02058 0
M  V30 3173 H 305.295 0.846281 5.45474 0
M  V30 3174 H 307.771 -0.547993 4.12476 0
M  V30 3175 H 306.647 -1.16077 5.36486 0
M  V30 3176 H 306.908 -2.08875 3.89645 0
M  V30 3177 N 305.967 -1.56429 0.191757 0
M  V30 3178 C 307.207 -1.99383 -0.450099 0
M  V30 3179 C 307.571 -1.07581 -1.59029 0
M  V30 3180 O 308.772 -1.39758 -2.29611 0
M  V30 3181 C 307.043 -3.45841 -0.901611 0
M  V30 3182 S 308.602 -4.10822 -1.54177 0
M  V30 3183 H 305.42 -0.696253 -0.144057 0
M  V30 3184 H 308.022 -1.93276 0.294036 0
M  V30 3185 H 306.726 -4.10354 -0.0616596 0
M  V30 3186 H 306.257 -3.55757 -1.67929 0
M  V30 3187 H 308.272 -4.07553 -2.83046 0
M  V30 3188 N 307.445 0.0818655 -1.57387 0
M  V30 3189 C 308.392 1.09834 -2.0299 0
M  V30 3190 C 309.362 1.39043 -0.908639 0
M  V30 3191 O 310.547 1.50282 -1.17559 0
M  V30 3192 C 307.687 2.40971 -2.47037 0
M  V30 3193 C 306.8 2.18379 -3.7274 0
M  V30 3194 C 305.935 3.43008 -4.0561 0
M  V30 3195 C 304.974 3.15736 -5.24383 0
M  V30 3196 N 304.111 4.32667 -5.52941 0
M  V30 3197 H 308.951 0.702472 -2.89602 0
M  V30 3198 H 306.488 0.33531 -1.43227 0
M  V30 3199 H 308.446 3.1752 -2.70623 0
M  V30 3200 H 307.076 2.78379 -1.63417 0
M  V30 3201 H 306.128 1.32569 -3.56552 0
M  V30 3202 H 307.44 1.94227 -4.59431 0
M  V30 3203 H 306.594 4.27958 -4.30043 0
M  V30 3204 H 305.333 3.70225 -3.17466 0
M  V30 3205 H 304.338 2.2918 -4.99757 0
M  V30 3206 H 305.563 2.8985 -6.14136 0
M  V30 3207 H 303.509 4.59935 -4.67756 0
M  V30 3208 H 303.426 4.11753 -6.34031 0
M  V30 3209 H 304.694 5.18644 -5.81918 0
M  V30 3210 N 308.923 1.53595 0.353017 0
M  V30 3211 C 310.153 1.74058 1.11299 0
M  V30 3212 C 310.561 0.475205 1.83135 0
M  V30 3213 O 309.904 -0.562344 1.74881 0
M  V30 3214 C 309.966 2.85994 2.17825 0
M  V30 3215 C 309.63 4.25923 1.65647 0
M  V30 3216 C 310.627 5.07829 1.11383 0
M  V30 3217 C 308.312 4.72377 1.7078 0
M  V30 3218 C 310.306 6.34285 0.629439 0
M  V30 3219 C 307.993 5.98808 1.21953 0
M  V30 3220 C 308.991 6.79594 0.681265 0
M  V30 3221 O 308.679 8.03651 0.200248 0
M  V30 3222 H 308.411 0.585327 0.338183 0
M  V30 3223 H 310.965 2.01186 0.413927 0
M  V30 3224 H 309.195 2.54368 2.91262 0
M  V30 3225 H 310.884 2.94515 2.79313 0
M  V30 3226 H 311.65 4.73107 1.06746 0
M  V30 3227 H 307.529 4.0956 2.11617 0
M  V30 3228 H 311.073 6.97288 0.208636 0
M  V30 3229 H 306.97 6.33026 1.26287 0
M  V30 3230 H 307.738 8.1788 0.318416 0
M  V30 3231 N 310.401 -0.613514 1.45168 0
M  V30 3232 C 311.331 -1.7354 1.56225 0
M  V30 3233 C 312.312 -1.64981 0.41414 0
M  V30 3234 O 313.497 -1.83472 0.636526 0
M  V30 3235 C 310.627 -3.12128 1.52295 0
M  V30 3236 C 309.581 -3.35491 2.65762 0
M  V30 3237 C 308.907 -4.74291 2.46885 0
M  V30 3238 C 310.207 -3.26325 4.0781 0
M  V30 3239 H 311.901 -1.64543 2.50132 0
M  V30 3240 H 309.447 -0.790185 1.20383 0
M  V30 3241 H 311.4 -3.90404 1.58628 0
M  V30 3242 H 310.124 -3.2195 0.549139 0
M  V30 3243 H 308.783 -2.59603 2.58847 0
M  V30 3244 H 308.431 -4.80839 1.47657 0
M  V30 3245 H 308.131 -4.9088 3.22972 0
M  V30 3246 H 309.655 -5.54775 2.55063 0
M  V30 3247 H 311.069 -3.94483 4.16 0
M  V30 3248 H 309.466 -3.54445 4.8424 0
M  V30 3249 H 310.536 -2.23855 4.30136 0
M  V30 3250 N 311.879 -1.3236 -0.855495 0
M  V30 3251 C 313.104 -1.2601 -1.64731 0
M  V30 3252 C 313.529 0.169068 -1.87339 0
M  V30 3253 O 312.887 1.12016 -1.42556 0
M  V30 3254 C 312.935 -2.02417 -2.98429 0
M  V30 3255 O 312.039 -1.3714 -3.8893 0
M  V30 3256 H 311.38 -0.434325 -0.502253 0
M  V30 3257 H 313.91 -1.74661 -1.06558 0
M  V30 3258 H 313.92 -2.12559 -3.48257 0
M  V30 3259 H 312.595 -3.06343 -2.81295 0
M  V30 3260 H 311.172 -1.3554 -3.47395 0
M  V30 3261 N 313.357 1.07166 -1.15556 0
M  V30 3262 C 314.606 1.79181 -0.926132 0
M  V30 3263 C 314.919 1.87768 0.547967 0
M  V30 3264 O 316.125 2.56323 0.895036 0
M  V30 3265 C 314.581 3.22 -1.60761 0
M  V30 3266 C 314.189 3.21607 -3.11886 0
M  V30 3267 C 315.933 3.9861 -1.4598 0
M  V30 3268 C 313.84 4.59092 -3.72812 0
M  V30 3269 H 312.77 0.67154 -0.342856 0
M  V30 3270 H 315.421 1.2027 -1.3859 0
M  V30 3271 H 313.803 3.81115 -1.07553 0
M  V30 3272 H 314.977 2.72127 -3.71865 0
M  V30 3273 H 313.292 2.58495 -3.2645 0
M  V30 3274 H 315.889 5.00225 -1.88888 0
M  V30 3275 H 316.232 4.143 -0.407541 0
M  V30 3276 H 316.765 3.45996 -1.96295 0
M  V30 3277 H 313.504 4.48606 -4.77946 0
M  V30 3278 H 313.024 5.08803 -3.17616 0
M  V30 3279 H 314.703 5.28059 -3.73848 0
M  V30 3280 N 314.835 0.952656 1.25548 0
M  V30 3281 C 316.082 0.606373 1.93208 0
M  V30 3282 C 316.41 -0.85631 1.74636 0
M  V30 3283 O 315.665 -1.62951 1.08376 0
M  V30 3284 C 315.964 0.908818 3.45652 0
M  V30 3285 C 315.63 2.35722 3.84378 0
M  V30 3286 C 314.292 2.75312 3.9466 0
M  V30 3287 C 316.644 3.29793 4.03591 0
M  V30 3288 C 313.972 4.08047 4.21562 0
M  V30 3289 C 316.324 4.62138 4.31985 0
M  V30 3290 C 314.988 5.01528 4.40484 0
M  V30 3291 H 314.258 0.221888 0.706998 0
M  V30 3292 H 316.905 1.20132 1.49133 0
M  V30 3293 H 315.21 0.231456 3.91116 0
M  V30 3294 H 316.907 0.619498 3.96186 0
M  V30 3295 H 313.497 2.04017 3.76928 0
M  V30 3296 H 317.681 3.00397 3.95064 0
M  V30 3297 H 312.937 4.38212 4.26357 0
M  V30 3298 H 317.111 5.35012 4.45797 0
M  V30 3299 H 314.738 6.04406 4.61083 0
M  V30 3300 N 316.313 -1.40141 0.720998 0
M  V30 3301 C 317.276 -2.29058 0.0805834 0
M  V30 3302 C 318.276 -1.45632 -0.681758 0
M  V30 3303 O 319.466 -1.6648 -0.512856 0
M  V30 3304 C 316.598 -3.28925 -0.895593 0
M  V30 3305 H 317.791 -2.87191 0.863793 0
M  V30 3306 H 315.344 -1.48553 0.485975 0
M  V30 3307 H 316.079 -2.75822 -1.70566 0
M  V30 3308 H 315.864 -3.90519 -0.351766 0
M  V30 3309 H 317.354 -3.95494 -1.34069 0
M  V30 3310 N 317.792 -0.46758 -1.50504 0
M  V30 3311 C 319.203 -0.0116166 -1.86696 0
M  V30 3312 C 319.554 1.39202 -1.38265 0
M  V30 3313 O 318.679 2.0313 -0.746132 0
M  V30 3314 C 319.274 -0.0143044 -3.38797 0
M  V30 3315 C 317.833 0.386175 -3.74414 0
M  V30 3316 C 316.98 -0.401287 -2.74381 0
M  V30 3317 H 319.931 -0.682022 -1.43297 0
M  V30 3318 H 319.952 0.788641 -3.72237 0
M  V30 3319 H 319.464 -1.03602 -3.74016 0
M  V30 3320 H 317.565 1.41237 -3.44794 0
M  V30 3321 H 317.678 0.0899596 -4.79016 0
M  V30 3322 H 316.042 0.144536 -2.5429 0
M  V30 3323 H 316.825 -1.42244 -3.12444 0
M  V30 3324 N 319.27 1.56325 -0.20005 0
M  V30 3325 C 320.517 1.97719 0.437411 0
M  V30 3326 C 320.845 1.08709 1.61284 0
M  V30 3327 O 320.1 0.127261 1.95286 0
M  V30 3328 C 320.399 3.4495 0.935103 0
M  V30 3329 C 320.065 4.5072 -0.12749 0
M  V30 3330 C 318.727 4.79368 -0.419451 0
M  V30 3331 C 321.079 5.14268 -0.847231 0
M  V30 3332 C 318.407 5.68854 -1.43604 0
M  V30 3333 C 320.759 6.04852 -1.85301 0
M  V30 3334 C 319.423 6.31855 -2.15211 0
M  V30 3335 H 318.693 0.723507 0.16006 0
M  V30 3336 H 321.34 1.89166 -0.298056 0
M  V30 3337 H 319.645 3.50599 1.74894 0
M  V30 3338 H 321.342 3.74337 1.43781 0
M  V30 3339 H 317.932 4.28458 0.11023 0
M  V30 3340 H 322.116 4.92222 -0.634901 0
M  V30 3341 H 317.372 5.88047 -1.67364 0
M  V30 3342 H 321.546 6.53152 -2.41591 0
M  V30 3343 H 319.173 7.00994 -2.94129 0
M  V30 3344 N 320.748 -0.0735177 1.57428 0
M  V30 3345 C 321.678 -1.0879 2.06608 0
M  V30 3346 C 322.659 -1.40473 0.959237 0
M  V30 3347 O 323.844 -1.5013 1.23185 0
M  V30 3348 C 320.974 -2.40183 2.50857 0
M  V30 3349 C 319.928 -2.22858 3.65402 0
M  V30 3350 C 319.254 -3.59619 3.957 0
M  V30 3351 C 320.554 -1.65123 4.95511 0
M  V30 3352 H 322.248 -0.678673 2.91607 0
M  V30 3353 H 319.794 -0.325013 1.40284 0
M  V30 3354 H 321.747 -3.11437 2.83874 0
M  V30 3355 H 320.471 -2.83083 1.62885 0
M  V30 3356 H 319.13 -1.54045 3.32664 0
M  V30 3357 H 318.778 -4.00086 3.04861 0
M  V30 3358 H 318.478 -3.48866 4.72828 0
M  V30 3359 H 320.002 -4.32306 4.31212 0
M  V30 3360 H 321.416 -2.26241 5.26771 0
M  V30 3361 H 319.813 -1.65071 5.7695 0
M  V30 3362 H 320.883 -0.612559 4.81015 0
M  V30 3363 N 322.226 -1.5378 -0.344866 0
M  V30 3364 C 323.454 -1.74899 -1.10534 0
M  V30 3365 C 323.869 -0.487534 -1.82397 0
M  V30 3366 O 323.226 0.540741 -1.74305 0
M  V30 3367 C 323.277 -2.92822 -2.11984 0
M  V30 3368 O 322.998 -4.14089 -1.43044 0
M  V30 3369 C 324.499 -3.25982 -3.00417 0
M  V30 3370 H 321.719 -0.584426 -0.329678 0
M  V30 3371 H 324.263 -2.006 -0.397474 0
M  V30 3372 H 322.418 -2.69457 -2.78338 0
M  V30 3373 H 322.832 -4.80272 -2.10805 0
M  V30 3374 H 324.306 -4.11848 -3.67539 0
M  V30 3375 H 324.783 -2.42228 -3.66363 0
M  V30 3376 H 325.389 -3.51349 -2.39654 0
M  V30 3377 N 323.704 0.605807 -1.45491 0
M  V30 3378 C 324.634 1.72709 -1.57143 0
M  V30 3379 C 325.615 1.6476 -0.422884 0
M  V30 3380 O 326.8 1.83132 -0.646247 0
M  V30 3381 C 323.93 3.11316 -1.53948 0
M  V30 3382 C 322.884 3.34077 -2.67537 0
M  V30 3383 C 322.21 4.72975 -2.49397 0
M  V30 3384 C 323.51 3.24158 -4.09535 0
M  V30 3385 H 325.204 1.63214 -2.51001 0
M  V30 3386 H 322.75 0.78379 -1.208 0
M  V30 3387 H 324.703 3.89557 -1.60696 0
M  V30 3388 H 323.427 3.21655 -0.566205 0
M  V30 3389 H 322.086 2.58227 -2.6022 0
M  V30 3390 H 321.734 4.8005 -1.50205 0
M  V30 3391 H 321.434 4.8916 -3.25571 0
M  V30 3392 H 322.958 5.53414 -2.58002 0
M  V30 3393 H 324.372 3.92271 -4.18086 0
M  V30 3394 H 322.769 3.51872 -4.86113 0
M  V30 3395 H 323.839 2.2157 -4.31317 0
M  V30 3396 N 325.182 1.32811 0.848464 0
M  V30 3397 C 326.114 1.18095 1.96433 0
M  V30 3398 C 327.127 0.114354 1.62398 0
M  V30 3399 O 328.316 0.363892 1.74751 0
M  V30 3400 C 325.416 0.786798 3.2964 0
M  V30 3401 C 324.589 1.943 3.91875 0
M  V30 3402 C 323.648 1.53138 5.03423 0
M  V30 3403 O 322.674 2.24432 5.23086 0
M  V30 3404 N 323.876 0.430915 5.78898 0
M  V30 3405 H 326.641 2.14218 2.09597 0
M  V30 3406 H 324.202 1.2543 1.02367 0
M  V30 3407 H 326.194 0.493715 4.01677 0
M  V30 3408 H 324.764 -0.0834541 3.12489 0
M  V30 3409 H 323.984 2.40224 3.12547 0
M  V30 3410 H 325.272 2.71689 4.30189 0
M  V30 3411 H 324.67 -0.162333 5.65467 0
M  V30 3412 H 323.227 0.197466 6.51501 0
M  V30 3413 N 326.66 -1.06551 1.16123 0
M  V30 3414 C 327.59 -2.15935 0.88851 0
M  V30 3415 C 328.571 -1.69306 -0.164135 0
M  V30 3416 O 329.756 -1.94193 -0.0167857 0
M  V30 3417 C 326.886 -3.45149 0.385942 0
M  V30 3418 C 325.84 -4.05271 1.3762 0
M  V30 3419 C 325.166 -5.29664 0.732137 0
M  V30 3420 C 326.466 -4.44355 2.74493 0
M  V30 3421 H 328.16 -2.39006 1.80323 0
M  V30 3422 H 325.706 -1.14866 0.868435 0
M  V30 3423 H 327.659 -4.21004 0.182647 0
M  V30 3424 H 326.383 -3.21689 -0.564274 0
M  V30 3425 H 325.042 -3.3147 1.56599 0
M  V30 3426 H 324.69 -5.02499 -0.224483 0
M  V30 3427 H 324.39 -5.70848 1.39307 0
M  V30 3428 H 325.914 -6.08218 0.538802 0
M  V30 3429 H 327.328 -5.11303 2.59311 0
M  V30 3430 H 325.725 -4.96515 3.37035 0
M  V30 3431 H 326.795 -3.55339 3.29943 0
M  V30 3432 N 328.138 -0.959301 -1.25041 0
M  V30 3433 C 329.101 -0.487677 -2.23952 0
M  V30 3434 C 330.101 0.41119 -1.55454 0
M  V30 3435 O 331.291 0.207825 -1.72956 0
M  V30 3436 C 328.423 0.294807 -3.39623 0
M  V30 3437 H 329.616 -1.36198 -2.67189 0
M  V30 3438 H 327.169 -0.743042 -1.37508 0
M  V30 3439 H 327.904 1.18658 -3.01813 0
M  V30 3440 H 327.689 -0.35012 -3.90534 0
M  V30 3441 H 329.179 0.614089 -4.1306 0
M  V30 3442 N 329.616 1.39756 -0.72842 0
M  V30 3443 C 330.846 2.04651 -0.283117 0
M  V30 3444 C 331.254 1.5502 1.08469 0
M  V30 3445 O 330.597 0.707343 1.69536 0
M  V30 3446 C 330.659 3.58947 -0.199309 0
M  V30 3447 C 330.323 4.31525 -1.5045 0
M  V30 3448 C 331.32 4.5861 -2.44894 0
M  V30 3449 C 329.005 4.70195 -1.76698 0
M  V30 3450 C 330.999 5.23366 -3.63822 0
M  V30 3451 C 328.686 5.3468 -2.95906 0
M  V30 3452 C 329.684 5.61198 -3.89289 0
M  V30 3453 O 329.372 6.24347 -5.06404 0
M  V30 3454 H 329.104 0.664777 -0.122666 0
M  V30 3455 H 331.658 1.79913 -0.990987 0
M  V30 3456 H 329.888 3.82556 0.56461 0
M  V30 3457 H 331.577 4.0534 0.213125 0
M  V30 3458 H 332.343 4.29187 -2.25883 0
M  V30 3459 H 328.222 4.48916 -1.04859 0
M  V30 3460 H 331.766 5.4398 -4.36728 0
M  V30 3461 H 327.663 5.63524 -3.14819 0
M  V30 3462 H 328.431 6.42842 -5.06652 0
M  V30 3463 N 331.094 0.475555 1.50254 0
M  V30 3464 C 332.027 -0.362381 2.25304 0
M  V30 3465 C 333.005 -0.992393 1.28803 0
M  V30 3466 O 334.189 -1.02746 1.58036 0
M  V30 3467 C 331.316 -1.50813 3.03271 0
M  V30 3468 C 330.362 -0.995044 4.1473 0
M  V30 3469 S 331.195 0.0938436 5.35418 0
M  V30 3470 C 332.351 -1.05567 6.16933 0
M  V30 3471 H 332.584 0.274686 2.96028 0
M  V30 3472 H 330.117 0.260495 1.52187 0
M  V30 3473 H 332.075 -2.16476 3.48781 0
M  V30 3474 H 330.736 -2.11672 2.32064 0
M  V30 3475 H 329.929 -1.85293 4.68703 0
M  V30 3476 H 329.531 -0.416052 3.71679 0
M  V30 3477 H 331.823 -1.96636 6.48337 0
M  V30 3478 H 332.766 -0.555109 7.05921 0
M  V30 3479 H 333.174 -1.31151 5.49053 0
M  V30 3480 N 332.573 -1.56217 0.208337 0
M  V30 3481 C 333.821 -1.97558 -0.426076 0
M  V30 3482 C 334.142 -1.09683 -1.61229 0
M  V30 3483 O 333.412 -0.170956 -1.95153 0
M  V30 3484 H 331.992 -0.729575 -0.160405 0
M  V30 3485 H 334.654 -1.92606 0.298155 0
M  V30 3486 H 333.75 -3.02672 -0.761312 0
M  V30 3487 N 334.051 0.0651679 -1.57465 0
M  V30 3488 C 334.981 1.07693 -2.07182 0
M  V30 3489 C 335.962 1.39962 -0.966673 0
M  V30 3490 O 337.147 1.49475 -1.2398 0
M  V30 3491 C 334.277 2.3885 -2.52127 0
M  V30 3492 C 333.231 2.20917 -3.66579 0
M  V30 3493 C 332.557 3.57515 -3.97601 0
M  V30 3494 C 333.857 1.62493 -4.9638 0
M  V30 3495 H 335.551 0.663199 -2.91962 0
M  V30 3496 H 333.097 0.317569 -1.40455 0
M  V30 3497 H 335.05 3.09928 -2.85522 0
M  V30 3498 H 333.774 2.82215 -1.64384 0
M  V30 3499 H 332.433 1.52279 -3.33477 0
M  V30 3500 H 332.081 3.98463 -3.06979 0
M  V30 3501 H 331.781 3.46353 -4.74672 0
M  V30 3502 H 333.305 4.30013 -4.33499 0
M  V30 3503 H 334.719 2.23445 -5.27963 0
M  V30 3504 H 333.116 1.62009 -5.77818 0
M  V30 3505 H 334.186 0.587041 -4.81333 0
M  V30 3506 N 335.529 1.53961 0.336706 0
M  V30 3507 C 336.759 1.75229 1.09446 0
M  V30 3508 C 337.167 0.494602 1.82621 0
M  V30 3509 O 336.51 -0.543764 1.75468 0
M  V30 3510 C 336.572 2.88288 2.1478 0
M  V30 3511 C 336.236 4.27656 1.6112 0
M  V30 3512 C 337.233 5.08981 1.0599 0
M  V30 3513 C 334.918 4.74161 1.6576 0
M  V30 3514 C 336.912 6.34916 0.562129 0
M  V30 3515 C 334.599 6.00067 1.15595 0
M  V30 3516 C 335.597 6.80278 0.609147 0
M  V30 3517 O 335.285 8.03818 0.114999 0
M  V30 3518 H 335.017 0.588881 0.331956 0
M  V30 3519 H 337.571 2.01614 0.392566 0
M  V30 3520 H 335.801 2.57443 2.88548 0
M  V30 3521 H 337.49 2.97461 2.76174 0
M  V30 3522 H 338.256 4.74213 1.01722 0
M  V30 3523 H 334.135 4.11781 2.07261 0
M  V30 3524 H 337.679 6.9747 0.134668 0
M  V30 3525 H 333.576 6.3433 1.19566 0
M  V30 3526 H 334.344 8.18172 0.231651 0
M  V30 3527 N 337.007 -0.598083 1.45811 0
M  V30 3528 C 337.954 -1.7082 1.55207 0
M  V30 3529 C 338.924 -1.61278 0.39732 0
M  V30 3530 O 340.109 -1.80717 0.612038 0
M  V30 3531 C 337.249 -3.09144 1.53376 0
M  V30 3532 C 336.362 -3.29423 2.79472 0
M  V30 3533 C 335.497 -4.57907 2.69248 0
M  V30 3534 C 334.536 -4.71476 3.90354 0
M  V30 3535 N 333.673 -5.9127 3.78608 0
M  V30 3536 H 338.513 -1.62125 2.50039 0
M  V30 3537 H 336.05 -0.790389 1.24062 0
M  V30 3538 H 338.008 -3.89186 1.50301 0
M  V30 3539 H 336.638 -3.16773 0.620876 0
M  V30 3540 H 335.69 -2.43091 2.92594 0
M  V30 3541 H 337.002 -3.3532 3.69272 0
M  V30 3542 H 336.156 -5.46157 2.64192 0
M  V30 3543 H 334.895 -4.54423 1.77063 0
M  V30 3544 H 333.9 -3.81648 3.95759 0
M  V30 3545 H 335.125 -4.76751 4.83617 0
M  V30 3546 H 333.071 -5.88813 2.89199 0
M  V30 3547 H 332.988 -5.98369 4.6205 0
M  V30 3548 H 334.256 -6.81992 3.77501 0
M  V30 3549 N 338.485 -1.33259 -0.841409 0
M  V30 3550 C 339.715 -1.2742 -1.62628 0
M  V30 3551 C 340.123 0.157604 -1.88542 0
M  V30 3552 O 339.466 1.10938 -1.46419 0
M  V30 3553 C 339.528 -1.97797 -3.00194 0
M  V30 3554 C 339.192 -3.47109 -2.97261 0
M  V30 3555 C 340.189 -4.42358 -2.73159 0
M  V30 3556 C 337.874 -3.89247 -3.17478 0
M  V30 3557 C 339.868 -5.77718 -2.69296 0
M  V30 3558 C 337.555 -5.24713 -3.13241 0
M  V30 3559 C 338.553 -6.1876 -2.89181 0
M  V30 3560 O 338.241 -7.51745 -2.84843 0
M  V30 3561 H 337.973 -0.440436 -0.512827 0
M  V30 3562 H 340.527 -1.76153 -1.05638 0
M  V30 3563 H 338.757 -1.43652 -3.59028 0
M  V30 3564 H 340.446 -1.8549 -3.61038 0
M  V30 3565 H 341.212 -4.11127 -2.57294 0
M  V30 3566 H 337.091 -3.16456 -3.35226 0
M  V30 3567 H 340.635 -6.51097 -2.50436 0
M  V30 3568 H 336.532 -5.55569 -3.28654 0
M  V30 3569 H 337.3 -7.61262 -3.00702 0
M  V30 3570 N 339.963 1.05934 -1.16686 0
M  V30 3571 C 341.21 1.788 -0.950622 0
M  V30 3572 C 341.538 1.87384 0.521305 0
M  V30 3573 O 340.793 1.36438 1.40297 0
M  V30 3574 C 341.092 3.23105 -1.52767 0
M  V30 3575 C 340.758 3.34594 -3.02254 0
M  V30 3576 C 339.42 3.37437 -3.43059 0
M  V30 3577 C 341.772 3.36219 -3.98254 0
M  V30 3578 C 339.1 3.39525 -4.78477 0
M  V30 3579 C 341.452 3.39845 -5.33562 0
M  V30 3580 C 340.116 3.40971 -5.73842 0
M  V30 3581 H 339.386 0.654275 -0.347857 0
M  V30 3582 H 342.033 1.24555 -1.45459 0
M  V30 3583 H 340.338 3.80227 -0.94524 0
M  V30 3584 H 342.035 3.7809 -1.336 0
M  V30 3585 H 338.625 3.3309 -2.6972 0
M  V30 3586 H 342.809 3.33231 -3.67792 0
M  V30 3587 H 338.065 3.38703 -5.09009 0
M  V30 3588 H 342.239 3.4005 -6.07733 0
M  V30 3589 H 339.866 3.42342 -6.78753 0
M  V30 3590 N 341.441 0.965919 1.2453 0
M  V30 3591 C 342.852 0.665929 1.7442 0
M  V30 3592 C 343.203 -0.818407 1.78316 0
M  V30 3593 O 342.328 -1.64037 1.41141 0
M  V30 3594 C 342.923 1.20211 3.16757 0
M  V30 3595 C 341.482 0.952059 3.6416 0
M  V30 3596 C 340.629 1.33848 2.42858 0
M  V30 3597 H 343.58 1.14144 1.10258 0
M  V30 3598 H 343.601 0.567544 3.76244 0
M  V30 3599 H 343.113 2.28244 3.13889 0
M  V30 3600 H 341.214 -0.112821 3.72429 0
M  V30 3601 H 341.327 1.59645 4.51719 0
M  V30 3602 H 339.691 0.756864 2.43195 0
M  V30 3603 H 340.474 2.42827 2.42673 0
M  V30 3604 N 342.919 -1.39368 0.735821 0
M  V30 3605 C 343.866 -2.30599 0.0963825 0
M  V30 3606 C 344.836 -1.49257 -0.728794 0
M  V30 3607 O 346.021 -1.77941 -0.688588 0
M  V30 3608 C 343.161 -3.35596 -0.804305 0
M  V30 3609 C 342.274 -4.31987 0.0335761 0
M  V30 3610 C 341.409 -5.24053 -0.868461 0
M  V30 3611 C 340.448 -6.12095 -0.0258776 0
M  V30 3612 N 339.585 -6.96514 -0.883893 0
M  V30 3613 H 344.425 -2.8471 0.880002 0
M  V30 3614 H 341.962 -1.40188 0.445619 0
M  V30 3615 H 343.92 -3.95062 -1.34096 0
M  V30 3616 H 342.55 -2.82938 -1.55389 0
M  V30 3617 H 341.602 -3.74133 0.68766 0
M  V30 3618 H 342.914 -4.94074 0.685036 0
M  V30 3619 H 342.068 -5.88549 -1.47293 0
M  V30 3620 H 340.807 -4.62289 -1.5537 0
M  V30 3621 H 339.812 -5.4661 0.591386 0
M  V30 3622 H 341.037 -6.75923 0.656156 0
M  V30 3623 H 338.983 -6.37318 -1.55441 0
M  V30 3624 H 338.9 -7.55448 -0.288931 0
M  V30 3625 H 340.168 -7.65439 -1.4739 0
M  V30 3626 N 344.397 -0.483516 -1.5 0
M  V30 3627 C 345.622 0.0667119 -2.07293 0
M  V30 3628 C 346.047 1.3164 -1.3436 0
M  V30 3629 O 345.405 1.76945 -0.394987 0
M  V30 3630 C 345.453 0.321126 -3.59167 0
M  V30 3631 O 344.557 1.39927 -3.87936 0
M  V30 3632 H 343.898 -0.0184758 -0.663743 0
M  V30 3633 H 346.428 -0.678125 -1.93035 0
M  V30 3634 H 346.438 0.557906 -4.04168 0
M  V30 3635 H 345.113 -0.592007 -4.11665 0
M  V30 3636 H 343.69 1.14882 -3.54763 0
M  V30 3637 N 345.875 1.56104 -0.216619 0
M  V30 3638 C 346.785 2.23694 0.706982 0
M  V30 3639 C 347.801 1.24295 1.21765 0
M  V30 3640 O 348.977 1.57094 1.2603 0
M  V30 3641 C 346.042 2.8998 1.90033 0
M  V30 3642 C 345.103 4.04708 1.43213 0
M  V30 3643 C 344.336 4.67824 2.56859 0
M  V30 3644 O 344.559 4.29913 3.74874 0
M  V30 3645 O 343.493 5.56905 2.28343 0
M  V30 3646 H 347.319 3.03272 0.161235 0
M  V30 3647 H 344.904 1.49394 0.0136177 0
M  V30 3648 H 346.786 3.31837 2.59735 0
M  V30 3649 H 345.461 2.13365 2.43428 0
M  V30 3650 H 344.368 3.6743 0.70327 0
M  V30 3651 H 345.701 4.83051 0.944615 0
M  V30 3652 N 347.353 -0.0568162 1.57498 0
M  V30 3653 C 348.3 -1.06591 2.04712 0
M  V30 3654 C 349.27 -1.3758 0.930644 0
M  V30 3655 O 350.455 -1.48392 1.19935 0
M  V30 3656 C 347.595 -2.3701 2.50839 0
M  V30 3657 C 346.708 -2.12421 3.76167 0
M  V30 3658 C 345.843 -3.36511 4.11015 0
M  V30 3659 C 344.882 -3.07353 5.2934 0
M  V30 3660 N 344.019 -4.23816 5.59754 0
M  V30 3661 H 348.859 -0.65631 2.90683 0
M  V30 3662 H 346.396 -0.312481 1.43743 0
M  V30 3663 H 348.354 -3.13175 2.7564 0
M  V30 3664 H 346.984 -2.75744 1.67825 0
M  V30 3665 H 346.036 -1.2688 3.58616 0
M  V30 3666 H 347.348 -1.86894 4.62463 0
M  V30 3667 H 346.502 -4.21062 4.36797 0
M  V30 3668 H 345.241 -3.65128 3.23315 0
M  V30 3669 H 344.246 -2.212 5.03339 0
M  V30 3670 H 345.471 -2.80043 6.1867 0
M  V30 3671 H 343.417 -4.52436 4.75014 0
M  V30 3672 H 343.334 -4.01614 6.40501 0
M  V30 3673 H 344.602 -5.0932 5.90096 0
M  V30 3674 N 348.832 -1.54138 -0.328536 0
M  V30 3675 C 349.779 -1.83176 -1.40411 0
M  V30 3676 C 350.749 -0.678494 -1.5161 0
M  V30 3677 O 351.934 -0.92443 -1.6691 0
M  V30 3678 C 349.074 -2.06035 -2.76846 0
M  V30 3679 C 348.187 -3.33727 -2.74318 0
M  V30 3680 C 347.322 -3.46574 -4.02567 0
M  V30 3681 C 346.361 -4.68159 -3.94327 0
M  V30 3682 N 345.498 -4.77959 -5.14296 0
M  V30 3683 H 350.338 -2.74938 -1.14948 0
M  V30 3684 H 347.875 -1.36166 -0.556538 0
M  V30 3685 H 349.833 -2.1728 -3.56153 0
M  V30 3686 H 348.463 -1.1757 -3.00628 0
M  V30 3687 H 347.515 -3.31246 -1.8703 0
M  V30 3688 H 348.827 -4.23139 -2.64111 0
M  V30 3689 H 347.981 -3.57333 -4.90304 0
M  V30 3690 H 346.72 -2.55245 -4.15574 0
M  V30 3691 H 345.725 -4.57461 -3.04974 0
M  V30 3692 H 346.95 -5.60868 -3.82889 0
M  V30 3693 H 344.896 -3.89544 -5.27818 0
M  V30 3694 H 344.813 -5.6133 -5.06404 0
M  V30 3695 H 346.081 -4.93044 -6.03761 0
M  V30 3696 N 350.31 0.590341 -1.46126 0
M  V30 3697 C 351.559 1.34499 -1.50309 0
M  V30 3698 C 351.872 1.94977 -0.156021 0
M  V30 3699 O 353.078 2.71395 -0.0756037 0
M  V30 3700 C 351.534 2.43723 -2.64815 0
M  V30 3701 C 351.142 1.89582 -4.0591 0
M  V30 3702 C 352.886 3.20579 -2.78262 0
M  V30 3703 C 350.793 2.9639 -5.11769 0
M  V30 3704 H 349.723 0.505593 -0.559368 0
M  V30 3705 H 352.374 0.630848 -1.72315 0
M  V30 3706 H 350.756 3.17902 -2.36124 0
M  V30 3707 H 351.93 1.21997 -4.44357 0
M  V30 3708 H 350.245 1.25418 -3.97063 0
M  V30 3709 H 352.842 4.00276 -3.54519 0
M  V30 3710 H 353.185 3.72684 -1.85505 0
M  V30 3711 H 353.718 2.53505 -3.06562 0
M  V30 3712 H 350.457 2.49181 -6.06291 0
M  V30 3713 H 349.977 3.62487 -4.77873 0
M  V30 3714 H 351.656 3.60474 -5.37278 0
M  V30 3715 N 351.788 1.33704 0.83433 0
M  V30 3716 C 352.735 1.24335 1.94447 0
M  V30 3717 C 353.705 0.120991 1.65659 0
M  V30 3718 O 354.89 0.300035 1.88426 0
M  V30 3719 C 352.03 0.993124 3.30501 0
M  V30 3720 C 351.143 2.20217 3.71657 0
M  V30 3721 C 350.278 1.88572 4.96602 0
M  V30 3722 C 349.317 3.05683 5.30306 0
M  V30 3723 N 348.454 2.73997 6.46429 0
M  V30 3724 H 353.294 2.1928 2.01792 0
M  V30 3725 H 350.831 1.09035 0.987404 0
M  V30 3726 H 352.789 0.828467 4.08892 0
M  V30 3727 H 351.419 0.0803902 3.227 0
M  V30 3728 H 350.471 2.47642 2.88752 0
M  V30 3729 H 351.783 3.07752 3.92543 0
M  V30 3730 H 350.937 1.68776 5.82752 0
M  V30 3731 H 349.676 0.982799 4.77695 0
M  V30 3732 H 348.681 3.26088 4.42659 0
M  V30 3733 H 349.906 3.96737 5.51159 0
M  V30 3734 H 347.852 1.86268 6.28999 0
M  V30 3735 H 347.769 3.55064 6.67432 0
M  V30 3736 H 349.037 2.57679 7.35678 0
M  V30 3737 N 353.266 -1.05314 1.17247 0
M  V30 3738 C 354.494 -1.81971 0.984593 0
M  V30 3739 C 354.909 -1.82929 -0.467166 0
M  V30 3740 O 354.266 -1.25564 -1.32438 0
M  V30 3741 C 354.317 -3.28143 1.51672 0
M  V30 3742 O 354.038 -3.27347 2.91163 0
M  V30 3743 C 355.539 -4.21493 1.37326 0
M  V30 3744 H 352.759 -0.573455 0.348411 0
M  V30 3745 H 355.303 -1.32808 1.55506 0
M  V30 3746 H 353.458 -3.74582 0.988302 0
M  V30 3747 H 353.872 -4.18824 3.15732 0
M  V30 3748 H 355.346 -5.22043 1.79375 0
M  V30 3749 H 355.823 -4.38031 0.320169 0
M  V30 3750 H 356.429 -3.80909 1.89178 0
M  V30 3751 N 354.744 -0.972509 -1.24016 0
M  V30 3752 C 355.972 -0.654803 -1.96265 0
M  V30 3753 C 356.387 0.776708 -1.72083 0
M  V30 3754 O 355.744 1.52171 -1.00748 0
M  V30 3755 C 355.795 -0.92592 -3.49441 0
M  V30 3756 O 355.516 -2.30116 -3.72798 0
M  V30 3757 C 357.017 -0.623068 -4.38899 0
M  V30 3758 H 354.237 -0.243907 -0.6251 0
M  V30 3759 H 356.781 -1.30175 -1.57717 0
M  V30 3760 H 354.936 -0.325108 -3.86033 0
M  V30 3761 H 355.35 -2.38483 -4.67147 0
M  V30 3762 H 356.824 -0.863189 -5.45209 0
M  V30 3763 H 357.301 0.442754 -4.36963 0
M  V30 3764 H 357.907 -1.204 -4.07902 0
M  V30 3765 N 356.222 1.38976 -0.743202 0
M  V30 3766 C 357.468 2.0064 -0.295189 0
M  V30 3767 C 357.801 1.5885 1.11716 0
M  V30 3768 O 357.076 0.821181 1.76315 0
M  V30 3769 C 357.359 3.578 -0.406318 0
M  V30 3770 C 357.212 4.09586 -1.85903 0
M  V30 3771 C 358.531 4.39616 0.206439 0
M  V30 3772 H 355.65 0.728935 -0.108733 0
M  V30 3773 H 358.292 1.65067 -0.940897 0
M  V30 3774 H 356.442 3.88235 0.143419 0
M  V30 3775 H 358.114 3.89837 -2.46627 0
M  V30 3776 H 356.357 3.6284 -2.3776 0
M  V30 3777 H 357.028 5.18708 -1.888 0
M  V30 3778 H 359.504 4.15273 -0.262283 0
M  V30 3779 H 358.38 5.48812 0.0983819 0
M  V30 3780 H 358.641 4.22754 1.2935 0
M  V30 3781 N 357.7 0.491464 1.49741 0
M  V30 3782 C 358.63 -0.28154 2.31796 0
M  V30 3783 C 359.611 -0.971473 1.3963 0
M  V30 3784 O 360.796 -0.964719 1.68543 0
M  V30 3785 C 357.926 -1.35203 3.19902 0
M  V30 3786 C 356.88 -0.782529 4.20786 0
M  V30 3787 C 356.206 -1.95283 4.97764 0
M  V30 3788 C 357.506 0.21999 5.21837 0
M  V30 3789 H 359.2 0.403355 2.96671 0
M  V30 3790 H 356.746 0.195425 1.42668 0
M  V30 3791 H 358.699 -1.90045 3.76113 0
M  V30 3792 H 357.423 -2.06598 2.52953 0
M  V30 3793 H 356.082 -0.255928 3.65706 0
M  V30 3794 H 355.73 -2.65423 4.2727 0
M  V30 3795 H 355.43 -1.57789 5.66018 0
M  V30 3796 H 356.954 -2.50577 5.56816 0
M  V30 3797 H 358.368 -0.23996 5.72798 0
M  V30 3798 H 356.765 0.51026 5.97927 0
M  V30 3799 H 357.835 1.13911 4.7133 0
M  V30 3800 N 359.178 -1.55987 0.224894 0
M  V30 3801 C 360.406 -2.02784 -0.410665 0
M  V30 3802 C 360.821 -1.10464 -1.53112 0
M  V30 3803 O 360.178 -0.114871 -1.82138 0
M  V30 3804 C 360.229 -3.49087 -0.939165 0
M  V30 3805 O 359.95 -4.37887 0.136614 0
M  V30 3806 C 361.451 -4.11543 -1.64763 0
M  V30 3807 H 358.671 -0.663484 -0.100148 0
M  V30 3808 H 361.215 -2.01614 0.342326 0
M  V30 3809 H 359.37 -3.50861 -1.64242 0
M  V30 3810 H 359.784 -5.23849 -0.261155 0
M  V30 3811 H 361.258 -5.15673 -1.96939 0
M  V30 3812 H 361.735 -3.56736 -2.56195 0
M  V30 3813 H 362.341 -4.13629 -0.989503 0
M  V30 3814 N 360.656 0.0484629 -1.57525 0
M  V30 3815 C 361.619 1.03956 -2.04269 0
M  V30 3816 C 362.619 1.30211 -0.943496 0
M  V30 3817 O 363.809 1.25539 -1.20771 0
M  V30 3818 C 360.941 2.37742 -2.44319 0
M  V30 3819 H 362.134 0.636182 -2.93075 0
M  V30 3820 H 359.687 0.294811 -1.53494 0
M  V30 3821 H 360.422 2.82866 -1.5861 0
M  V30 3822 H 360.207 2.20021 -3.24551 0
M  V30 3823 H 361.697 3.08936 -2.80978 0
M  V30 3824 N 362.134 1.5431 0.320358 0
M  V30 3825 C 363.097 1.83195 1.3774 0
M  V30 3826 C 364.097 0.703906 1.44575 0
M  V30 3827 O 365.287 0.972214 1.44546 0
M  V30 3828 C 362.419 1.99487 2.76438 0
M  V30 3829 H 363.612 2.77642 1.1338 0
M  V30 3830 H 361.165 1.46076 0.556012 0
M  V30 3831 H 361.9 1.07262 3.06048 0
M  V30 3832 H 361.685 2.81575 2.7287 0
M  V30 3833 H 363.175 2.23271 3.52902 0
M  V30 3834 N 363.613 -0.582584 1.46437 0
M  V30 3835 C 364.543 -1.70187 1.59871 0
M  V30 3836 C 365.524 -1.64066 0.449042 0
M  V30 3837 O 366.709 -1.82081 0.6753 0
M  V30 3838 C 363.839 -3.08827 1.58881 0
M  V30 3839 C 362.793 -3.29779 2.72819 0
M  V30 3840 C 362.119 -4.68947 2.5689 0
M  V30 3841 C 363.419 -3.17601 4.1464 0
M  V30 3842 H 365.113 -1.592 2.53566 0
M  V30 3843 H 362.659 -0.764472 1.22032 0
M  V30 3844 H 364.612 -3.86951 1.66873 0
M  V30 3845 H 363.336 -3.20713 0.617306 0
M  V30 3846 H 361.995 -2.54054 2.64296 0
M  V30 3847 H 361.643 -4.77599 1.57823 0
M  V30 3848 H 361.343 -4.83919 3.33312 0
M  V30 3849 H 362.867 -5.4924 2.66773 0
M  V30 3850 H 364.281 -3.8557 4.24274 0
M  V30 3851 H 362.678 -3.44094 4.9165 0
M  V30 3852 H 363.748 -2.14681 4.34788 0
M  V30 3853 N 365.091 -1.34144 -0.827227 0
M  V30 3854 C 366.021 -1.28005 -1.95287 0
M  V30 3855 C 367.002 -0.158321 -1.69362 0
M  V30 3856 O 368.187 -0.349987 -1.9102 0
M  V30 3857 C 365.317 -1.03036 -3.31664 0
M  V30 3858 C 364.271 -2.11628 -3.72019 0
M  V30 3859 C 363.597 -1.71854 -5.0633 0
M  V30 3860 C 364.897 -3.53417 -3.8457 0
M  V30 3861 H 366.591 -2.22187 -2.00682 0
M  V30 3862 H 364.137 -1.0696 -0.964135 0
M  V30 3863 H 366.09 -0.973863 -4.09993 0
M  V30 3864 H 364.814 -0.0529391 -3.26557 0
M  V30 3865 H 363.473 -2.16339 -2.95961 0
M  V30 3866 H 363.121 -0.727841 -4.97706 0
M  V30 3867 H 362.821 -2.44531 -5.34302 0
M  V30 3868 H 364.345 -1.67692 -5.87122 0
M  V30 3869 H 365.759 -3.51142 -4.5318 0
M  V30 3870 H 364.156 -4.24679 -4.2399 0
M  V30 3871 H 365.226 -3.91072 -2.86689 0
M  V30 3872 N 366.569 1.04691 -1.17803 0
M  V30 3873 C 367.499 2.14494 -0.92275 0
M  V30 3874 C 368.48 1.69546 0.137179 0
M  V30 3875 O 369.665 1.94195 -0.0141108 0
M  V30 3876 C 366.795 3.44491 -0.440803 0
M  V30 3877 C 365.749 4.03031 -1.4405 0
M  V30 3878 C 365.075 5.28432 -0.81631 0
M  V30 3879 C 366.375 4.39932 -2.81527 0
M  V30 3880 H 368.069 2.36107 -1.84103 0
M  V30 3881 H 365.615 1.1347 -0.886599 0
M  V30 3882 H 367.568 4.2066 -0.249602 0
M  V30 3883 H 366.292 3.22546 0.513025 0
M  V30 3884 H 364.951 3.28937 -1.61853 0
M  V30 3885 H 364.599 5.02792 0.144511 0
M  V30 3886 H 364.299 5.68559 -1.48371 0
M  V30 3887 H 365.823 6.07284 -0.635496 0
M  V30 3888 H 367.237 5.07113 -2.67412 0
M  V30 3889 H 365.634 4.9109 -3.44892 0
M  V30 3890 H 366.704 3.50045 -3.35554 0
M  V30 3891 N 368.047 0.979072 1.23499 0
M  V30 3892 C 369.272 0.664845 1.96455 0
M  V30 3893 C 369.697 -0.761287 1.72006 0
M  V30 3894 O 369.055 -1.51837 0.990713 0
M  V30 3895 C 369.103 0.959479 3.47601 0
M  V30 3896 O 368.207 0.0508168 4.12369 0
M  V30 3897 H 367.548 0.250185 0.615064 0
M  V30 3898 H 370.078 1.31231 1.5697 0
M  V30 3899 H 370.088 0.895642 3.98048 0
M  V30 3900 H 368.763 1.99876 3.64723 0
M  V30 3901 H 367.34 0.16895 3.72517 0
M  V30 3902 N 369.525 -1.3858 0.750561 0
M  V30 3903 C 370.773 -1.99789 0.30477 0
M  V30 3904 C 371.094 -1.59874 -1.11649 0
M  V30 3905 O 370.364 -0.85417 -1.76297 0
M  V30 3906 H 368.944 -0.738902 0.109694 0
M  V30 3907 H 371.606 -1.69391 0.963983 0
M  V30 3908 H 370.702 -3.09952 0.365499 0
M  V30 3909 N 371.003 -0.499398 -1.49478 0
M  V30 3910 C 372.252 0.0475259 -2.01644 0
M  V30 3911 C 372.565 1.38195 -1.38425 0
M  V30 3912 O 373.771 2.01547 -1.8191 0
M  V30 3913 C 372.227 0.135164 -3.59646 0
M  V30 3914 C 371.835 -1.19252 -4.31837 0
M  V30 3915 C 373.579 0.632538 -4.19761 0
M  V30 3916 C 371.486 -1.06713 -5.81693 0
M  V30 3917 H 370.416 0.0215349 -0.753692 0
M  V30 3918 H 373.067 -0.638577 -1.7203 0
M  V30 3919 H 371.449 0.885681 -3.85969 0
M  V30 3920 H 372.623 -1.9562 -4.17216 0
M  V30 3921 H 370.938 -1.62321 -3.83459 0
M  V30 3922 H 373.535 0.743833 -5.29501 0
M  V30 3923 H 373.878 1.63098 -3.83021 0
M  V30 3924 H 374.411 -0.0613987 -3.97753 0
M  V30 3925 H 371.15 -2.03979 -6.22955 0
M  V30 3926 H 370.67 -0.344307 -5.98811 0
M  V30 3927 H 372.349 -0.745208 -6.42694 0
M  V30 3928 N 372.481 1.55866 -0.233164 0
M  V30 3929 C 373.892 1.847 0.272554 0
M  V30 3930 C 374.243 1.15477 1.58617 0
M  V30 3931 O 373.368 0.42841 2.12117 0
M  V30 3932 C 373.963 3.35071 0.501299 0
M  V30 3933 C 372.522 3.6418 0.951304 0
M  V30 3934 C 371.669 2.77292 0.0208209 0
M  V30 3935 H 374.62 1.52005 -0.456074 0
M  V30 3936 H 374.641 3.55906 1.34577 0
M  V30 3937 H 374.153 3.85424 -0.454936 0
M  V30 3938 H 372.254 3.19293 1.92049 0
M  V30 3939 H 372.367 4.72071 0.817675 0
M  V30 3940 H 370.731 2.49131 0.529723 0
M  V30 3941 H 371.514 3.30448 -0.93054 0
M  V30 3942 N 373.959 -0.0401083 1.57549 0
M  V30 3943 C 374.922 -1.02871 2.04817 0
M  V30 3944 C 375.922 -1.29708 0.950388 0
M  V30 3945 O 377.112 -1.24897 1.21435 0
M  V30 3946 C 374.244 -2.36443 2.45576 0
M  V30 3947 H 375.437 -0.620631 2.93408 0
M  V30 3948 H 372.99 -0.286667 1.53649 0
M  V30 3949 H 373.725 -2.82021 1.60108 0
M  V30 3950 H 373.51 -2.18296 3.25713 0
M  V30 3951 H 375 -3.07441 2.82612 0
M  V30 3952 N 375.437 -1.54477 -0.31217 0
M  V30 3953 C 376.347 -1.87695 -1.4074 0
M  V30 3954 C 377.363 -0.769975 -1.56036 0
M  V30 3955 O 378.539 -1.06537 -1.70915 0
M  V30 3956 C 375.604 -2.10755 -2.75287 0
M  V30 3957 C 374.665 -3.34514 -2.69071 0
M  V30 3958 C 373.898 -3.56465 -3.97201 0
M  V30 3959 O 374.121 -2.81637 -4.96021 0
M  V30 3960 O 373.055 -4.49964 -3.9977 0
M  V30 3961 H 376.881 -2.80849 -1.15574 0
M  V30 3962 H 374.466 -1.40526 -0.507228 0
M  V30 3963 H 376.348 -2.27188 -3.54913 0
M  V30 3964 H 375.023 -1.20788 -3.0032 0
M  V30 3965 H 373.93 -3.23456 -1.87955 0
M  V30 3966 H 375.263 -4.24575 -2.48992 0
M  V30 3967 N 376.915 0.57481 -1.46744 0
M  V30 3968 C 378.161 1.3347 -1.52688 0
M  V30 3969 C 378.494 1.93353 -0.181229 0
M  V30 3970 O 377.769 1.76912 0.808237 0
M  V30 3971 C 378.052 2.45811 -2.63152 0
M  V30 3972 C 377.905 1.90912 -4.07275 0
M  V30 3973 C 379.224 3.47822 -2.69644 0
M  V30 3974 H 376.343 0.483935 -0.555856 0
M  V30 3975 H 378.985 0.644968 -1.78718 0
M  V30 3976 H 377.135 3.04646 -2.41088 0
M  V30 3977 H 378.807 1.36473 -4.4065 0
M  V30 3978 H 377.05 1.21691 -4.16382 0
M  V30 3979 H 377.721 2.72042 -4.80309 0
M  V30 3980 H 380.197 2.9888 -2.895 0
M  V30 3981 H 379.073 4.23876 -3.48742 0
M  V30 3982 H 379.334 4.05555 -1.76005 0
M  V30 3983 N 378.394 1.34581 0.820102 0
M  V30 3984 C 379.643 1.26437 1.57151 0
M  V30 3985 C 379.956 -0.163111 1.94919 0
M  V30 3986 O 381.162 -0.366722 2.69012 0
M  V30 3987 C 379.618 2.21658 2.83541 0
M  V30 3988 C 379.226 3.69679 2.53065 0
M  V30 3989 C 380.97 2.22428 3.61561 0
M  V30 3990 C 378.877 4.56761 3.75664 0
M  V30 3991 H 377.807 0.469707 0.589823 0
M  V30 3992 H 380.458 1.59763 0.902656 0
M  V30 3993 H 378.84 1.81287 3.52067 0
M  V30 3994 H 380.014 4.18605 1.92631 0
M  V30 3995 H 378.329 3.71384 1.88316 0
M  V30 3996 H 380.926 2.8471 4.52597 0
M  V30 3997 H 381.269 1.22434 3.97889 0
M  V30 3998 H 381.802 2.61259 2.99981 0
M  V30 3999 H 378.541 5.57702 3.44454 0
M  V30 4000 H 378.061 4.12568 4.35371 0
M  V30 4001 H 379.74 4.71509 4.43044 0
M  V30 4002 N 379.872 -1.04064 1.18357 0
M  V30 4003 C 380.82 -2.14187 0.907007 0
M  V30 4004 C 381.814 -1.68879 -0.132725 0
M  V30 4005 O 383.02 -1.79993 0.0154248 0
M  V30 4006 H 379.395 -0.699585 0.275835 0
M  V30 4007 H 381.366 -2.34711 1.84264 0
M  V30 4008 C 380.115 -3.44785 0.449254 0
M  V30 4009 H 379.438 -3.80058 1.24081 0
M  V30 4010 H 380.878 -4.22974 0.294737 0
M  V30 4011 C 379.337 -3.26391 -0.834909 0
M  V30 4012 O 379.867 -3.53973 -1.89911 0
M  V30 4013 N 378.073 -2.79726 -0.787523 0
M  V30 4014 H 377.62 -2.5748 0.0787347 0
M  V30 4015 H 377.578 -2.67798 -1.64716 0
M  V30 4016 N 381.35 -0.985608 -1.22978 0
M  V30 4017 C 382.766 -0.695104 -1.43668 0
M  V30 4018 C 382.966 0.736866 -1.87543 0
M  V30 4019 O 382.022 1.50868 -2.02473 0
M  V30 4020 C 383.335 -1.69447 -2.48412 0
M  V30 4021 C 384.883 -1.70909 -2.62219 0
M  V30 4022 C 385.358 -2.6969 -3.70178 0
M  V30 4023 N 386.849 -2.6824 -3.77626 0
M  V30 4024 C 387.584 -3.41339 -4.60733 0
M  V30 4025 N 387.08 -4.24015 -5.4789 0
M  V30 4026 N 388.873 -3.30079 -4.54977 0
M  V30 4027 H 381.024 -1.91054 -0.928016 0
M  V30 4028 H 383.287 -0.823553 -0.469536 0
M  V30 4029 H 382.993 -2.7188 -2.23102 0
M  V30 4030 H 382.867 -1.48147 -3.46889 0
M  V30 4031 H 385.254 -0.691785 -2.86877 0
M  V30 4032 H 385.335 -1.96276 -1.6404 0
M  V30 4033 H 384.979 -3.71566 -3.46268 0
M  V30 4034 H 384.909 -2.41595 -4.67909 0
M  V30 4035 H 387.4 -2.08243 -3.15346 0
M  V30 4036 H 387.713 -4.76636 -6.08308 0
M  V30 4037 H 386.058 -4.28104 -5.47496 0
M  V30 4038 H 389.249 -2.64937 -3.85909 0
M  V30 4039 H 389.422 -3.87308 -5.19516 0
M  V30 4040 N 382.828 1.3818 -0.7579 0
M  V30 4041 C 384.053 2.04827 -0.325679 0
M  V30 4042 C 384.478 1.56788 1.03919 0
M  V30 4043 O 383.836 0.721811 1.66312 0
M  V30 4044 C 383.884 3.58774 -0.362447 0
M  V30 4045 O 382.988 4.07372 0.642033 0
M  V30 4046 H 382.329 0.64833 -0.143402 0
M  V30 4047 H 384.859 1.7677 -1.03023 0
M  V30 4048 H 384.869 4.07434 -0.214844 0
M  V30 4049 H 383.544 3.93096 -1.35824 0
M  V30 4050 H 382.121 3.70068 0.458688 0
M  V30 4051 N 384.306 0.507319 1.49211 0
M  V30 4052 C 385.239 -0.314509 2.26022 0
M  V30 4053 C 386.217 -0.964849 1.30879 0
M  V30 4054 O 387.401 -0.993707 1.6018 0
M  V30 4055 C 384.528 -1.44346 3.06402 0
M  V30 4056 C 383.574 -0.90685 4.16748 0
M  V30 4057 S 384.407 0.207392 5.35098 0
M  V30 4058 C 385.563 -0.924573 6.19033 0
M  V30 4059 H 385.796 0.337416 2.95379 0
M  V30 4060 H 383.329 0.292718 1.516 0
M  V30 4061 H 385.287 -2.09029 3.53295 0
M  V30 4062 H 383.948 -2.06702 2.36502 0
M  V30 4063 H 383.141 -1.75309 4.72528 0
M  V30 4064 H 382.743 -0.33712 3.72478 0
M  V30 4065 H 385.035 -1.82839 6.52362 0
M  V30 4066 H 385.978 -0.405248 7.06939 0
M  V30 4067 H 386.386 -1.19476 5.51712 0
M  V30 4068 N 385.784 -1.5574 0.241426 0
M  V30 4069 C 387.061 -1.90704 -0.434881 0
M  V30 4070 C 387.441 -1.16145 -1.76277 0
M  V30 4071 O 386.789 -0.277152 -2.26813 0
M  V30 4072 C 386.999 -3.43657 -0.608343 0
M  V30 4073 C 388.347 -4.14806 -0.906725 0
M  V30 4074 O 389.371 -3.49366 -0.694408 0
M  V30 4075 O 388.23 -5.30548 -1.31075 0
M  V30 4076 H 385.324 -0.793592 -0.23268 0
M  V30 4077 H 387.87 -1.67288 0.285086 0
M  V30 4078 H 386.642 -3.89927 0.327505 0
M  V30 4079 H 386.265 -3.72918 -1.37906 0
M  V30 4080 N 387.262 0.0317525 -1.57568 0
M  V30 4081 C 388.49 0.734949 -1.93407 0
M  V30 4082 C 388.905 1.69036 -0.84096 0
M  V30 4083 O 388.262 1.81582 0.182836 0
M  V30 4084 C 388.313 1.49432 -3.29169 0
M  V30 4085 O 388.034 0.577261 -4.3428 0
M  V30 4086 C 389.535 2.29492 -3.79273 0
M  V30 4087 H 386.755 0.206706 -0.638368 0
M  V30 4088 H 389.299 -0.00992046 -2.04498 0
M  V30 4089 H 387.454 2.1911 -3.19483 0
M  V30 4090 H 387.868 1.10952 -5.1263 0
M  V30 4091 H 389.342 2.78172 -4.76785 0
M  V30 4092 H 389.819 3.10794 -3.10328 0
M  V30 4093 H 390.425 1.64894 -3.92033 0
M  V30 4094 N 388.74 1.54641 0.303973 0
M  V30 4095 C 389.97 1.77511 1.05705 0
M  V30 4096 C 390.378 0.533228 1.81531 0
M  V30 4097 O 389.721 -0.506423 1.76582 0
M  V30 4098 C 389.783 2.92779 2.08617 0
M  V30 4099 C 389.447 4.30977 1.52013 0
M  V30 4100 C 390.444 5.11115 0.9517 0
M  V30 4101 C 388.129 4.77571 1.55665 0
M  V30 4102 C 390.123 6.35966 0.427327 0
M  V30 4103 C 387.81 6.02384 1.02841 0
M  V30 4104 C 388.808 6.81417 0.464713 0
M  V30 4105 O 388.496 8.03881 -0.0555283 0
M  V30 4106 H 388.228 0.59579 0.319391 0
M  V30 4107 H 390.782 2.02401 0.349712 0
M  V30 4108 H 389.012 2.63506 2.83022 0
M  V30 4109 H 390.701 3.03252 2.69802 0
M  V30 4110 H 391.467 4.76264 0.916407 0
M  V30 4111 H 387.346 4.16085 1.9848 0
M  V30 4112 H 390.89 6.97599 -0.0133062 0
M  V30 4113 H 386.787 6.36723 1.06084 0
M  V30 4114 H 387.555 8.18479 0.0580522 0
M  V30 4115 N 390.218 -0.567019 1.47046 0
M  V30 4116 C 391.443 -1.3551 1.57009 0
M  V30 4117 C 391.868 -1.86841 0.217259 0
M  V30 4118 O 391.226 -1.62435 -0.805268 0
M  V30 4119 C 391.274 -2.50777 2.5912 0
M  V30 4120 O 390.378 -3.52706 2.13711 0
M  V30 4121 H 389.719 -0.402919 0.52778 0
M  V30 4122 H 392.249 -0.686241 1.92748 0
M  V30 4123 H 392.259 -2.97481 2.79229 0
M  V30 4124 H 390.934 -2.12771 3.57353 0
M  V30 4125 H 389.511 -3.12374 2.03659 0
M  V30 4126 N 391.696 -1.35014 -0.812953 0
M  V30 4127 C 392.643 -1.27412 -1.92444 0
M  V30 4128 C 393.613 -0.14733 -1.65445 0
M  V30 4129 O 394.798 -0.329974 -1.87925 0
M  V30 4130 C 391.938 -1.04558 -3.28879 0
M  V30 4131 C 391.051 -2.26101 -3.68106 0
M  V30 4132 C 390.186 -1.96449 -4.9354 0
M  V30 4133 C 389.225 -3.14081 -5.25376 0
M  V30 4134 N 388.362 -2.84246 -6.41988 0
M  V30 4135 H 393.202 -2.22463 -1.98278 0
M  V30 4136 H 390.739 -1.10593 -0.969933 0
M  V30 4137 H 392.697 -0.893413 -4.07522 0
M  V30 4138 H 391.327 -0.131719 -3.22531 0
M  V30 4139 H 390.379 -2.52204 -2.84775 0
M  V30 4140 H 391.691 -3.13959 -3.87597 0
M  V30 4141 H 390.845 -1.78026 -5.79993 0
M  V30 4142 H 389.584 -1.05867 -4.76071 0
M  V30 4143 H 388.589 -3.33089 -4.37415 0
M  V30 4144 H 389.814 -4.05455 -5.44778 0
M  V30 4145 H 387.76 -1.96252 -6.25956 0
M  V30 4146 H 387.677 -3.65637 -6.61699 0
M  V30 4147 H 388.945 -2.6935 -7.31485 0
M  V30 4148 N 393.175 1.03435 -1.18907 0
M  V30 4149 C 394.108 2.11162 -0.86521 0
M  V30 4150 C 395.086 1.6165 0.175473 0
M  V30 4151 O 396.27 1.88425 0.0530129 0
M  V30 4152 C 393.397 3.37423 -0.293868 0
M  V30 4153 C 392.443 4.05795 -1.31274 0
M  V30 4154 S 393.276 4.52027 -2.8711 0
M  V30 4155 C 394.432 5.81513 -2.31504 0
M  V30 4156 H 394.665 2.38308 -1.77754 0
M  V30 4157 H 392.198 1.16295 -1.01562 0
M  V30 4158 H 394.156 4.1049 0.0292572 0
M  V30 4159 H 392.817 3.0838 0.596682 0
M  V30 4160 H 392.01 4.96574 -0.86198 0
M  V30 4161 H 391.612 3.38874 -1.58242 0
M  V30 4162 H 393.904 6.55784 -1.70157 0
M  V30 4163 H 394.847 6.3136 -3.20608 0
M  V30 4164 H 395.255 5.36921 -1.74286 0
M  V30 4165 N 394.653 0.992116 1.22453 0
M  V30 4166 C 395.901 0.666215 1.90804 0
M  V30 4167 C 396.222 -0.804152 1.77647 0
M  V30 4168 O 395.492 -1.57629 1.16318 0
M  V30 4169 H 394.072 0.243423 0.706225 0
M  V30 4170 H 396.734 1.25845 1.48825 0
M  V30 4171 H 395.83 0.928069 2.97982 0
M  V30 4172 N 396.131 -1.37776 0.765217 0
M  V30 4173 C 397.041 -2.34135 0.147666 0
M  V30 4174 C 398.057 -1.59854 -0.687215 0
M  V30 4175 O 399.233 -1.91983 -0.608659 0
M  V30 4176 C 396.298 -3.3901 -0.72617 0
M  V30 4177 C 395.359 -4.2912 0.124417 0
M  V30 4178 C 394.592 -5.28986 -0.707807 0
M  V30 4179 O 394.815 -5.36205 -1.94525 0
M  V30 4180 O 393.749 -6.01779 -0.12046 0
M  V30 4181 H 397.575 -2.88664 0.943758 0
M  V30 4182 H 395.16 -1.39824 0.526277 0
M  V30 4183 H 397.042 -4.03195 -1.22524 0
M  V30 4184 H 395.717 -2.86819 -1.50056 0
M  V30 4185 H 394.624 -3.68057 0.669696 0
M  V30 4186 H 395.957 -4.84598 0.861736 0
M  V30 4187 N 397.609 -0.515225 -1.4894 0
M  V30 4188 C 398.855 0.0242508 -2.02785 0
M  V30 4189 C 399.188 1.35323 -1.39289 0
M  V30 4190 O 398.463 1.87041 -0.533469 0
M  V30 4191 C 398.746 0.16184 -3.59736 0
M  V30 4192 C 398.599 -1.19127 -4.33738 0
M  V30 4193 C 399.918 0.895719 -4.30888 0
M  V30 4194 H 397.037 0.00733914 -0.736963 0
M  V30 4195 H 399.679 -0.669395 -1.77818 0
M  V30 4196 H 397.829 0.752624 -3.8114 0
M  V30 4197 H 399.501 -1.82202 -4.23792 0
M  V30 4198 H 397.744 -1.77695 -3.95736 0
M  V30 4199 H 398.415 -1.04815 -5.41957 0
M  V30 4200 H 400.891 0.394528 -4.14225 0
M  V30 4201 H 399.767 0.960859 -5.40425 0
M  V30 4202 H 400.028 1.9427 -3.97129 0
M  V30 4203 N 399.087 1.5561 -0.249682 0
M  V30 4204 C 400.334 1.99011 0.374287 0
M  V30 4205 C 400.662 1.13785 1.57744 0
M  V30 4206 O 399.917 0.189326 1.94782 0
M  V30 4207 C 400.216 3.4775 0.824887 0
M  V30 4208 C 399.882 4.50086 -0.270819 0
M  V30 4209 C 398.544 4.77791 -0.571746 0
M  V30 4210 C 400.896 5.11312 -1.01041 0
M  V30 4211 C 398.224 5.63997 -1.61629 0
M  V30 4212 C 400.576 5.98651 -2.0445 0
M  V30 4213 C 399.24 6.24688 -2.35204 0
M  V30 4214 H 398.51 0.728233 0.136961 0
M  V30 4215 H 401.157 1.88122 -0.358087 0
M  V30 4216 H 399.462 3.55985 1.63651 0
M  V30 4217 H 401.159 3.78721 1.31799 0
M  V30 4218 H 397.749 4.28592 -0.026136 0
M  V30 4219 H 401.933 4.89953 -0.791177 0
M  V30 4220 H 397.189 5.82425 -1.85988 0
M  V30 4221 H 401.363 6.45135 -2.62248 0
M  V30 4222 H 398.99 6.91281 -3.16282 0
M  V30 4223 N 400.565 -0.0233959 1.57583 0
M  V30 4224 C 401.793 -0.724682 1.93794 0
M  V30 4225 C 402.208 -1.68588 0.849912 0
M  V30 4226 O 401.565 -1.81676 -0.173204 0
M  V30 4227 C 401.616 -1.47684 3.29957 0
M  V30 4228 O 401.337 -0.554222 4.3458 0
M  V30 4229 C 402.838 -2.27477 3.80485 0
M  V30 4230 H 400.058 -0.203317 0.639455 0
M  V30 4231 H 402.602 0.0207653 2.04489 0
M  V30 4232 H 400.757 -2.17412 3.20641 0
M  V30 4233 H 401.171 -1.08232 5.13212 0
M  V30 4234 H 402.645 -2.7564 4.78254 0
M  V30 4235 H 403.122 -3.09144 3.11972 0
M  V30 4236 H 403.728 -1.62813 3.92902 0
M  V30 4237 N 402.043 -1.548 -0.295768 0
M  V30 4238 C 403.32 -1.65014 -1.05023 0
M  V30 4239 C 403.7 -0.501805 -2.05049 0
M  V30 4240 O 403.048 0.500869 -2.22943 0
M  V30 4241 C 403.258 -3.03252 -1.72741 0
M  V30 4242 C 404.606 -3.60242 -2.24746 0
M  V30 4243 O 405.63 -3.05737 -1.82765 0
M  V30 4244 O 404.489 -4.55687 -3.01681 0
M  V30 4245 H 401.583 -0.669314 -0.485744 0
M  V30 4246 H 404.129 -1.67144 -0.293438 0
M  V30 4247 H 402.901 -3.7827 -1.00138 0
M  V30 4248 H 402.524 -3.04922 -2.55163 0
M  V30 4249 N 403.521 0.559213 -1.47345 0
M  V30 4250 C 404.451 1.67622 -1.62558 0
M  V30 4251 C 405.432 1.63331 -0.475087 0
M  V30 4252 O 406.617 1.80983 -0.704182 0
M  V30 4253 C 403.747 3.0626 -1.63774 0
M  V30 4254 C 402.701 3.25397 -2.7803 0
M  V30 4255 C 402.027 4.64801 -2.64318 0
M  V30 4256 C 403.327 3.10965 -4.19641 0
M  V30 4257 H 405.021 1.55146 -2.56067 0
M  V30 4258 H 402.567 0.744961 -1.23233 0
M  V30 4259 H 404.52 3.84247 -1.73008 0
M  V30 4260 H 403.244 3.1969 -0.66825 0
M  V30 4261 H 401.903 2.49817 -2.68304 0
M  V30 4262 H 401.551 4.75028 -1.65401 0
M  V30 4263 H 401.251 4.78555 -3.40968 0
M  V30 4264 H 402.775 5.44926 -2.75478 0
M  V30 4265 H 404.189 3.78772 -4.30354 0
M  V30 4266 H 402.586 3.36229 -4.97062 0
M  V30 4267 H 403.656 2.07736 -4.38148 0
M  V30 4268 N 404.999 1.35443 0.805782 0
M  V30 4269 C 406.239 1.30127 1.57627 0
M  V30 4270 C 406.603 -0.122567 1.91608 0
M  V30 4271 O 407.804 -0.300107 2.67119 0
M  V30 4272 C 406.075 2.18314 2.82973 0
M  V30 4273 S 407.634 2.30521 3.7337 0
M  V30 4274 H 404.452 0.462439 0.540066 0
M  V30 4275 H 407.054 1.70843 0.95042 0
M  V30 4276 H 405.758 3.20741 2.56034 0
M  V30 4277 H 405.289 1.78558 3.50543 0
M  V30 4278 H 407.304 1.49062 4.73281 0
M  V30 4279 N 406.477 -1.02803 1.19454 0
M  V30 4280 C 407.723 -1.76478 0.999171 0
M  V30 4281 C 408.056 -1.88456 -0.468828 0
M  V30 4282 O 407.331 -1.40198 -1.34814 0
M  V30 4283 C 407.614 -3.19044 1.66981 0
M  V30 4284 C 407.467 -3.14932 3.21151 0
M  V30 4285 C 408.786 -4.17456 1.39349 0
M  V30 4286 H 405.905 -0.640614 0.364393 0
M  V30 4287 H 408.547 -1.20005 1.47305 0
M  V30 4288 H 406.697 -3.67263 1.2669 0
M  V30 4289 H 408.369 -2.74605 3.70661 0
M  V30 4290 H 406.612 -2.52625 3.52652 0
M  V30 4291 H 407.283 -4.1566 3.63223 0
M  V30 4292 H 409.759 -3.77842 1.74283 0
M  V30 4293 H 408.635 -5.154 1.88823 0
M  V30 4294 H 408.896 -4.40949 0.318813 0
M  V30 4295 N 407.956 -0.998596 -1.21925 0
M  V30 4296 C 409.186 -0.695276 -1.94549 0
M  V30 4297 C 409.594 0.745079 -1.73911 0
M  V30 4298 O 408.937 1.51507 -1.03881 0
M  V30 4299 C 408.999 -0.928485 -3.47303 0
M  V30 4300 C 408.663 -2.35443 -3.91683 0
M  V30 4301 C 409.66 -3.33428 -3.98901 0
M  V30 4302 C 407.345 -2.69038 -4.24174 0
M  V30 4303 C 409.339 -4.63079 -4.37992 0
M  V30 4304 C 407.026 -3.98906 -4.62944 0
M  V30 4305 C 408.024 -4.95738 -4.69822 0
M  V30 4306 O 407.712 -6.23285 -5.07711 0
M  V30 4307 H 407.444 -0.255902 -0.625692 0
M  V30 4308 H 409.998 -1.33767 -1.5587 0
M  V30 4309 H 408.228 -0.228917 -3.86022 0
M  V30 4310 H 409.917 -0.619539 -4.01144 0
M  V30 4311 H 410.683 -3.08807 -3.73983 0
M  V30 4312 H 406.562 -1.94367 -4.18022 0
M  V30 4313 H 410.106 -5.38658 -4.43275 0
M  V30 4314 H 406.003 -4.23314 -4.87314 0
M  V30 4315 H 406.771 -6.27306 -5.25766 0
M  V30 4316 N 409.434 1.37368 -0.772513 0
M  V30 4317 C 410.681 1.99673 -0.337182 0
M  V30 4318 C 411.009 1.61324 1.0865 0
M  V30 4319 O 410.264 0.851377 1.7621 0
M  V30 4320 C 410.563 3.54817 -0.428876 0
M  V30 4321 C 410.229 4.12936 -1.81092 0
M  V30 4322 C 408.891 4.28523 -2.1891 0
M  V30 4323 C 411.243 4.44801 -2.71664 0
M  V30 4324 C 408.571 4.73277 -3.46735 0
M  V30 4325 C 410.923 4.90981 -3.98899 0
M  V30 4326 C 409.587 5.04773 -4.36761 0
M  V30 4327 H 408.857 0.730656 -0.123384 0
M  V30 4328 H 411.504 1.64124 -0.986686 0
M  V30 4329 H 409.809 3.90618 0.304167 0
M  V30 4330 H 411.506 4.00933 -0.0733334 0
M  V30 4331 H 408.096 4.01233 -1.50699 0
M  V30 4332 H 412.28 4.32344 -2.43706 0
M  V30 4333 H 407.536 4.82142 -3.75964 0
M  V30 4334 H 411.71 5.14603 -4.69208 0
M  V30 4335 H 409.337 5.39211 -5.35868 0
M  V30 4336 N 410.912 0.523116 1.48665 0
M  V30 4337 C 412.159 -0.0134763 2.02496 0
M  V30 4338 C 412.487 -1.3493 1.40086 0
M  V30 4339 O 411.742 -1.88286 0.533567 0
M  V30 4340 C 412.041 -0.191671 3.56886 0
M  V30 4341 C 411.707 1.06893 4.38046 0
M  V30 4342 C 410.369 1.41443 4.59943 0
M  V30 4343 C 412.721 1.90584 4.85106 0
M  V30 4344 C 410.049 2.59594 5.26144 0
M  V30 4345 C 412.401 3.07907 5.52609 0
M  V30 4346 C 411.065 3.42811 5.72745 0
M  V30 4347 H 410.335 -0.00493133 0.740984 0
M  V30 4348 H 412.982 0.687751 1.78724 0
M  V30 4349 H 411.287 -0.97561 3.79459 0
M  V30 4350 H 412.984 -0.621659 3.96152 0
M  V30 4351 H 409.574 0.789848 4.21259 0
M  V30 4352 H 413.758 1.65203 4.67997 0
M  V30 4353 H 409.014 2.86847 5.39934 0
M  V30 4354 H 413.188 3.73066 5.88043 0
M  V30 4355 H 410.815 4.34462 6.23816 0
M  V30 4356 N 412.39 -1.55475 0.257931 0
M  V30 4357 C 413.618 -2.03609 -0.367559 0
M  V30 4358 C 414.033 -1.13687 -1.50734 0
M  V30 4359 O 413.39 -0.153479 -1.81853 0
M  V30 4360 C 413.441 -3.51001 -0.864908 0
M  V30 4361 O 413.162 -4.37499 0.229465 0
M  V30 4362 C 414.663 -4.14946 -1.55997 0
M  V30 4363 H 411.883 -0.665459 -0.0860521 0
M  V30 4364 H 414.427 -2.00843 0.385014 0
M  V30 4365 H 412.582 -3.54266 -1.56762 0
M  V30 4366 H 412.996 -5.24286 -0.14998 0
M  V30 4367 H 414.47 -5.19735 -1.85956 0
M  V30 4368 H 414.947 -3.6209 -2.4857 0
M  V30 4369 H 415.553 -4.15635 -0.901543 0
M  V30 4370 N 413.868 0.0150385 -1.57593 0
M  V30 4371 C 415.115 0.703001 -1.89906 0
M  V30 4372 C 415.443 1.74604 -0.856944 0
M  V30 4373 O 414.698 1.95197 0.140287 0
M  V30 4374 C 414.997 1.39686 -3.28972 0
M  V30 4375 C 414.663 0.488457 -4.48246 0
M  V30 4376 C 413.325 0.2383 -4.8061 0
M  V30 4377 C 415.677 -0.137881 -5.21018 0
M  V30 4378 C 413.005 -0.646738 -5.83125 0
M  V30 4379 C 415.357 -1.0107 -6.24474 0
M  V30 4380 C 414.021 -1.27019 -6.55303 0
M  V30 4381 H 413.291 0.257246 -0.694914 0
M  V30 4382 H 415.938 -0.037259 -1.91464 0
M  V30 4383 H 414.243 2.21079 -3.23468 0
M  V30 4384 H 415.94 1.93495 -3.51227 0
M  V30 4385 H 412.53 0.693593 -4.22951 0
M  V30 4386 H 416.714 0.0423953 -4.96282 0
M  V30 4387 H 411.97 -0.855937 -6.05379 0
M  V30 4388 H 416.144 -1.50247 -6.79999 0
M  V30 4389 H 413.771 -1.95769 -7.3456 0
M  V30 4390 N 415.346 1.54954 0.287554 0
M  V30 4391 C 416.595 1.74081 1.01877 0
M  V30 4392 C 416.908 0.541135 1.87966 0
M  V30 4393 O 418.114 0.614491 2.64455 0
M  V30 4394 C 416.57 3.08042 1.86113 0
M  V30 4395 C 416.178 4.35531 1.04961 0
M  V30 4396 C 417.922 3.36523 2.58752 0
M  V30 4397 C 415.829 5.60538 1.88551 0
M  V30 4398 H 414.759 0.64884 0.384087 0
M  V30 4399 H 417.41 1.81426 0.275101 0
M  V30 4400 H 415.792 2.94696 2.64519 0
M  V30 4401 H 416.966 4.59751 0.31074 0
M  V30 4402 H 415.281 4.14085 0.43843 0
M  V30 4403 H 417.878 4.27122 3.21668 0
M  V30 4404 H 418.221 2.56 3.28283 0
M  V30 4405 H 418.754 3.50901 1.87386 0
M  V30 4406 H 415.493 6.43767 1.23466 0
M  V30 4407 H 415.013 5.40483 2.60074 0
M  V30 4408 H 416.692 5.98297 2.46273 0
M  V30 4409 N 416.824 -0.551391 1.4764 0
M  V30 4410 C 418.071 -1.3083 1.54563 0
M  V30 4411 C 418.399 -1.93359 0.210361 0
M  V30 4412 O 417.654 -1.78721 -0.797332 0
M  V30 4413 C 417.953 -2.43469 2.61644 0
M  V30 4414 C 417.619 -1.98732 4.04742 0
M  V30 4415 C 416.281 -1.86248 4.43695 0
M  V30 4416 C 418.633 -1.64659 4.94507 0
M  V30 4417 C 415.961 -1.37995 5.70241 0
M  V30 4418 C 418.313 -1.17875 6.21521 0
M  V30 4419 C 416.977 -1.03992 6.5935 0
M  V30 4420 H 416.247 -0.478741 0.565587 0
M  V30 4421 H 418.894 -0.617697 1.81264 0
M  V30 4422 H 417.199 -3.18109 2.28722 0
M  V30 4423 H 418.896 -3.01642 2.64222 0
M  V30 4424 H 415.486 -2.09393 3.73968 0
M  V30 4425 H 419.67 -1.73174 4.65107 0
M  V30 4426 H 414.926 -1.25915 5.98294 0
M  V30 4427 H 419.1 -0.905739 6.90485 0
M  V30 4428 H 416.727 -0.663794 7.57296 0
M  V30 4429 N 418.302 -1.35869 -0.798587 0
M  V30 4430 C 419.542 -1.30961 -1.56935 0
M  V30 4431 C 419.906 0.112404 -1.91671 0
M  V30 4432 O 421.107 0.285937 -2.67275 0
M  V30 4433 C 419.378 -2.19811 -2.81811 0
M  V30 4434 S 420.937 -2.32498 -3.72143 0
M  V30 4435 H 417.755 -0.465297 -0.537606 0
M  V30 4436 H 420.357 -1.71344 -0.941346 0
M  V30 4437 H 419.061 -3.22095 -2.54329 0
M  V30 4438 H 418.592 -1.80415 -3.49591 0
M  V30 4439 H 420.607 -1.5157 -4.72484 0
M  V30 4440 N 419.78 1.02168 -1.19998 0
M  V30 4441 C 420.73 2.08969 -0.911921 0
M  V30 4442 C 421.714 1.60404 0.12621 0
M  V30 4443 O 422.906 1.76817 -0.0804706 0
M  V30 4444 C 420.035 3.402 -0.460277 0
M  V30 4445 C 419.121 3.9548 -1.53155 0
M  V30 4446 N 419.512 4.24332 -2.75275 0
M  V30 4447 C 417.81 4.23572 -1.39653 0
M  V30 4448 C 418.511 4.68834 -3.44339 0
M  V30 4449 N 417.487 4.70804 -2.71744 0
M  V30 4450 H 421.289 2.29178 -1.83997 0
M  V30 4451 H 418.803 1.20094 -1.09322 0
M  V30 4452 H 420.8 4.16235 -0.235337 0
M  V30 4453 H 419.46 3.21408 0.4612 0
M  V30 4454 H 420.471 4.13393 -3.11973 0
M  V30 4455 H 417.148 4.14005 -0.539067 0
M  V30 4456 H 418.538 5.00019 -4.4881 0
M  V30 4457 N 421.258 1.00505 1.21394 0
M  V30 4458 C 422.168 0.574806 2.27449 0
M  V30 4459 C 423.184 -0.382206 1.6975 0
M  V30 4460 O 424.36 -0.246027 1.99892 0
M  V30 4461 C 421.425 -0.0917414 3.46579 0
M  V30 4462 C 420.486 0.909758 4.1955 0
M  V30 4463 C 419.719 0.274924 5.32991 0
M  V30 4464 O 419.942 -0.928254 5.62796 0
M  V30 4465 O 418.876 0.985877 5.93771 0
M  V30 4466 H 422.702 1.45744 2.66444 0
M  V30 4467 H 420.287 0.773923 1.27792 0
M  V30 4468 H 422.169 -0.464551 4.18832 0
M  V30 4469 H 420.844 -0.948755 3.09484 0
M  V30 4470 H 419.751 1.33372 3.49518 0
M  V30 4471 H 421.084 1.73636 4.60555 0
M  V30 4472 N 422.737 -1.36956 0.779787 0
M  V30 4473 C 423.667 -2.32761 0.185651 0
M  V30 4474 C 424.648 -1.56177 -0.673989 0
M  V30 4475 O 425.833 -1.84378 -0.609797 0
M  V30 4476 C 422.963 -3.40418 -0.687964 0
M  V30 4477 C 421.917 -4.27941 0.0710102 0
M  V30 4478 C 421.243 -5.26681 -0.922573 0
M  V30 4479 C 422.543 -5.07006 1.25467 0
M  V30 4480 H 424.237 -2.82698 0.986008 0
M  V30 4481 H 421.783 -1.3592 0.475592 0
M  V30 4482 H 423.736 -4.06423 -1.11348 0
M  V30 4483 H 422.46 -2.89025 -1.52093 0
M  V30 4484 H 421.119 -3.63478 0.47739 0
M  V30 4485 H 420.767 -4.71565 -1.7503 0
M  V30 4486 H 420.467 -5.86103 -0.419237 0
M  V30 4487 H 421.991 -5.9556 -1.34686 0
M  V30 4488 H 423.405 -5.66105 0.905401 0
M  V30 4489 H 421.802 -5.75793 1.69063 0
M  V30 4490 H 422.872 -4.3921 2.05481 0
M  V30 4491 N 424.215 -0.530993 -1.48385 0
M  V30 4492 C 425.145 0.219985 -2.32461 0
M  V30 4493 C 426.126 0.934111 -1.42156 0
M  V30 4494 O 427.311 0.919694 -1.71042 0
M  V30 4495 C 424.441 1.26674 -3.23375 0
M  V30 4496 C 423.395 0.67069 -4.22712 0
M  V30 4497 C 422.721 1.82017 -5.02766 0
M  V30 4498 C 424.021 -0.358268 -5.2107 0
M  V30 4499 H 425.715 -0.48187 -2.95497 0
M  V30 4500 H 423.261 -0.233182 -1.42099 0
M  V30 4501 H 425.214 1.80006 -3.81019 0
M  V30 4502 H 423.938 1.99818 -2.58341 0
M  V30 4503 H 422.597 0.158878 -3.66256 0
M  V30 4504 H 422.245 2.54002 -4.34157 0
M  V30 4505 H 421.945 1.42727 -5.70003 0
M  V30 4506 H 423.469 2.35725 -5.63264 0
M  V30 4507 H 424.883 0.0880081 -5.73232 0
M  V30 4508 H 423.28 -0.66861 -5.96364 0
M  V30 4509 H 424.35 -1.26367 -4.68145 0
M  V30 4510 N 425.693 1.55336 -0.266172 0
M  V30 4511 C 426.97 1.91372 0.404486 0
M  V30 4512 C 427.35 1.18935 1.74407 0
M  V30 4513 O 426.698 0.3132 2.26343 0
M  V30 4514 C 426.908 3.44581 0.553593 0
M  V30 4515 C 428.256 4.16196 0.840618 0
M  V30 4516 O 429.28 3.50426 0.638739 0
M  V30 4517 O 428.139 5.32567 1.22618 0
M  V30 4518 H 425.233 0.797194 0.220025 0
M  V30 4519 H 427.779 1.66813 -0.311664 0
M  V30 4520 H 426.551 3.89357 -0.389498 0
M  V30 4521 H 426.174 3.75065 1.31955 0
M  V30 4522 N 427.171 -0.0066808 1.57599 0
M  V30 4523 C 428.401 -0.703066 1.94269 0
M  V30 4524 C 428.809 -1.68206 0.866222 0
M  V30 4525 O 428.152 -1.82966 -0.164087 0
M  V30 4526 C 428.214 -1.49616 3.26887 0
M  V30 4527 C 427.878 -0.679494 4.5192 0
M  V30 4528 C 428.875 0.0299508 5.19891 0
M  V30 4529 C 426.56 -0.627433 4.98366 0
M  V30 4530 C 428.554 0.780514 6.32603 0
M  V30 4531 C 426.241 0.126861 6.10968 0
M  V30 4532 C 427.239 0.829574 6.77943 0
M  V30 4533 O 426.927 1.57157 7.88389 0
M  V30 4534 H 426.659 -0.201217 0.645359 0
M  V30 4535 H 429.213 0.0385326 2.05364 0
M  V30 4536 H 427.443 -2.28209 3.12182 0
M  V30 4537 H 429.132 -2.07726 3.48719 0
M  V30 4538 H 429.898 -0.00115963 4.85 0
M  V30 4539 H 425.777 -1.16392 4.46065 0
M  V30 4540 H 429.321 1.32954 6.84813 0
M  V30 4541 H 425.218 0.159815 6.45302 0
M  V30 4542 H 425.986 1.48758 8.04868 0
M  V30 4543 N 428.649 -1.55105 -0.279332 0
M  V30 4544 C 429.895 -1.76597 -1.00921 0
M  V30 4545 C 430.25 -0.556831 -1.84166 0
M  V30 4546 O 429.543 0.450573 -1.86227 0
M  V30 4547 C 429.737 -3.0086 -1.92919 0
M  V30 4548 C 429.566 -4.33744 -1.18728 0
M  V30 4549 C 428.336 -4.9712 -0.905545 0
M  V30 4550 C 430.534 -5.11009 -0.580857 0
M  V30 4551 N 428.516 -6.13749 -0.136169 0
M  V30 4552 C 429.887 -6.19976 0.0546661 0
M  V30 4553 C 431.942 -4.95502 -0.488067 0
M  V30 4554 C 430.645 -7.15123 0.774028 0
M  V30 4555 C 432.671 -5.90999 0.217688 0
M  V30 4556 C 432.033 -6.9935 0.841975 0
M  V30 4557 H 428.132 -0.698553 -0.351493 0
M  V30 4558 H 430.716 -1.92595 -0.285531 0
M  V30 4559 H 428.887 -2.86249 -2.62519 0
M  V30 4560 H 430.619 -3.10784 -2.59221 0
M  V30 4561 H 427.374 -4.57903 -1.20921 0
M  V30 4562 H 427.798 -6.7659 0.235665 0
M  V30 4563 H 432.44 -4.11841 -0.956406 0
M  V30 4564 H 430.158 -7.9831 1.25407 0
M  V30 4565 H 433.744 -5.81078 0.289717 0
M  V30 4566 H 432.624 -7.71973 1.37939 0
M  V30 4567 N 430.127 0.543554 -1.4793 0
M  V30 4568 C 431.375 1.29752 -1.54948 0
M  V30 4569 C 431.696 1.93764 -0.219242 0
M  V30 4570 O 430.966 1.80639 0.75805 0
M  V30 4571 H 429.546 0.481874 -0.570795 0
M  V30 4572 H 432.208 0.633636 -1.84312 0
M  V30 4573 H 431.304 2.08392 -2.32334 0
M  V30 4574 N 431.605 1.3629 0.791371 0
M  V30 4575 C 432.83 1.33726 1.58531 0
M  V30 4576 C 433.255 -0.0794933 1.87932 0
M  V30 4577 O 432.613 -1.05087 1.47738 0
M  V30 4578 C 432.661 2.16425 2.88431 0
M  V30 4579 O 431.765 1.5554 3.81944 0
M  V30 4580 H 431.106 0.457793 0.480959 0
M  V30 4581 H 433.636 1.79547 0.981031 0
M  V30 4582 H 433.646 2.28933 3.37718 0
M  V30 4583 H 432.321 3.19415 2.66359 0
M  V30 4584 H 430.898 1.51961 3.40532 0
M  V30 4585 N 433.083 -1.0153 1.20538 0
M  V30 4586 C 433.993 -2.13557 0.971113 0
M  V30 4587 C 435.009 -1.73845 -0.0734366 0
M  V30 4588 O 436.185 -2.01075 0.114299 0
M  V30 4589 C 433.25 -3.42661 0.527639 0
M  V30 4590 C 432.311 -3.96608 1.64319 0
M  V30 4591 C 431.544 -5.1955 1.22078 0
M  V30 4592 O 431.767 -5.70329 0.0900198 0
M  V30 4593 O 430.701 -5.66681 2.02871 0
M  V30 4594 H 434.527 -2.3619 1.90913 0
M  V30 4595 H 432.112 -1.11946 0.989362 0
M  V30 4596 H 433.994 -4.20404 0.289621 0
M  V30 4597 H 432.669 -3.21441 -0.381779 0
M  V30 4598 H 431.576 -3.20139 1.93551 0
M  V30 4599 H 432.909 -4.22219 2.52966 0
M  V30 4600 N 434.561 -1.01147 -1.20859 0
M  V30 4601 C 435.807 -0.698899 -1.90377 0
M  V30 4602 C 436.14 0.76904 -1.78324 0
M  V30 4603 O 435.415 1.55817 -1.16409 0
M  V30 4604 C 435.698 -1.12878 -3.41951 0
M  V30 4605 C 435.551 -2.65665 -3.62963 0
M  V30 4606 C 436.87 -0.696114 -4.3456 0
M  V30 4607 H 433.989 -0.255372 -0.691342 0
M  V30 4608 H 436.631 -1.25831 -1.42361 0
M  V30 4609 H 434.781 -0.652827 -3.82976 0
M  V30 4610 H 436.453 -3.21074 -3.31224 0
M  V30 4611 H 434.696 -3.06878 -3.06608 0
M  V30 4612 H 435.367 -2.90797 -4.69192 0
M  V30 4613 H 437.843 -1.10521 -4.01154 0
M  V30 4614 H 436.719 -1.025 -5.39245 0
M  V30 4615 H 436.98 0.402465 -4.40264 0
M  V30 4616 N 436.039 1.36541 -0.78704 0
M  V30 4617 C 437.45 1.81873 -0.421807 0
M  V30 4618 C 437.801 1.65487 1.05397 0
M  V30 4619 O 436.926 1.17448 1.81755 0
M  V30 4620 C 437.521 3.30192 -0.758841 0
M  V30 4621 C 436.08 3.73743 -0.446468 0
M  V30 4622 C 435.227 2.58844 -0.994728 0
M  V30 4623 H 438.178 1.24796 -0.98039 0
M  V30 4624 H 438.199 3.80468 -0.0490648 0
M  V30 4625 H 437.711 3.42087 -1.83299 0
M  V30 4626 H 435.812 3.6741 0.619739 0
M  V30 4627 H 435.925 4.69272 -0.965415 0
M  V30 4628 H 434.289 2.51245 -0.418087 0
M  V30 4629 H 435.072 2.73525 -2.07458 0
M  V30 4630 O 437.556 0.680126 1.4648 0
M  V30 4631 H 438.247 0.213972 1.92515 0
M  V30 END ATOM
M  V30 BEGIN BOND
M  V30 END BOND
M  V30 END CTAB
M  END
$$$$
